drugbank_target|O43525 Potassium voltage-gated channel subfamily KQT member 3 (DB00321; DB00939; DB00996; DB04953; DB06089)
 OpenBabel12092120143D

  0  0  0     0  0            999 V3000
M  V30 BEGIN CTAB
M  V30 COUNTS 13627 13788 0 0 0
M  V30 BEGIN ATOM
M  V30 1 H -0.908 1.98254 -0.117106 0
M  V30 2 N 0 1.576 0 0
M  V30 3 C 0.933 2.03868 1.02534 0
M  V30 4 C 1.911 0.928543 1.3348 0
M  V30 5 O 3.095 1.19667 1.45644 0
M  V30 6 C 0.222 2.43627 2.35294 0
M  V30 7 C -0.732 3.65373 2.2001 0
M  V30 8 S 0.101 5.13292 1.52614 0
M  V30 9 C 1.257 5.56322 2.86805 0
M  V30 10 H 1.49 2.90518 0.631377 0
M  V30 11 H -0.977 1.52953 0.210867 0
M  V30 12 H 0.981 2.67203 3.11629 0
M  V30 13 H -0.358 1.57376 2.7183 0
M  V30 14 H -1.165 3.90944 3.18086 0
M  V30 15 H -1.563 3.418 1.51819 0
M  V30 16 H 0.729 5.58782 3.83104 0
M  V30 17 H 1.672 6.56266 2.65933 0
M  V30 18 H 2.08 4.83886 2.90714 0
M  V30 19 N 1.4781 -0.272755 1.55222 0
M  V30 20 C 2.7261 -1.00234 1.75492 0
M  V30 21 C 3.0471 -1.8681 0.5592 0
M  V30 22 O 2.3171 -1.91215 -0.425882 0
M  V30 23 H 0.8971 -0.373076 0.647166 0
M  V30 24 H 3.5591 -0.296926 1.92625 0
M  V30 25 H 2.6551 -1.63913 2.65592 0
M  V30 26 N 2.9562 -1.48159 -0.537278 0
M  V30 27 C 3.8862 -1.65029 -1.6519 0
M  V30 28 C 4.8672 -0.499281 -1.62607 0
M  V30 29 O 6.0522 -0.730972 -1.79918 0
M  V30 30 C 3.1822 -1.68303 -3.03795 0
M  V30 31 C 2.1362 -2.8283 -3.21234 0
M  V30 32 C 1.4622 -2.71189 -4.60826 0
M  V30 33 C 2.7622 -4.24211 -3.04701 0
M  V30 34 H 4.4562 -2.58341 -1.51328 0
M  V30 35 H 2.0022 -1.24325 -0.726585 0
M  V30 36 H 3.9552 -1.78693 -3.81637 0
M  V30 37 H 2.6792 -0.715635 -3.18663 0
M  V30 38 H 1.3382 -2.71983 -2.45807 0
M  V30 39 H 0.9862 -1.72435 -4.7252 0
M  V30 40 H 0.6862 -3.48035 -4.7344 0
M  V30 41 H 2.2102 -2.83537 -5.40777 0
M  V30 42 H 3.6242 -4.3593 -3.72341 0
M  V30 43 H 2.0212 -5.01998 -3.28813 0
M  V30 44 H 3.0912 -4.41184 -2.01209 0
M  V30 45 N 4.4343 0.785586 -1.36625 0
M  V30 46 C 5.3813 1.89838 -1.31264 0
M  V30 47 C 6.3513 1.65115 -0.180633 0
M  V30 48 O 7.5363 1.87222 -0.36777 0
M  V30 49 C 4.6763 3.26706 -1.11163 0
M  V30 50 C 3.7893 3.63476 -2.33472 0
M  V30 51 C 2.9243 4.89481 -2.06353 0
M  V30 52 C 1.9633 5.18941 -3.24602 0
M  V30 53 N 1.1003 6.36131 -2.97123 0
M  V30 54 H 5.9403 1.93756 -2.26413 0
M  V30 55 H 3.4773 0.947454 -1.12524 0
M  V30 56 H 5.4353 4.05639 -0.975337 0
M  V30 57 H 4.0653 3.222 -0.196674 0
M  V30 58 H 3.1173 2.79636 -2.57891 0
M  V30 59 H 4.4293 3.81193 -3.21704 0
M  V30 60 H 3.5833 5.76288 -1.89675 0
M  V30 61 H 2.3223 4.73841 -1.15437 0
M  V30 62 H 1.3273 4.30615 -3.41834 0
M  V30 63 H 2.5523 5.36498 -4.16349 0
M  V30 64 H 0.4983 6.21875 -2.08823 0
M  V30 65 H 0.4153 6.54198 -3.78894 0
M  V30 66 H 1.6833 7.2591 -2.84033 0
M  V30 67 N 5.9124 1.20967 1.01018 0
M  V30 68 C 6.8754 0.965918 2.07853 0
M  V30 69 C 7.8754 -0.0610545 1.60684 0
M  V30 70 O 9.0654 0.175681 1.73312 0
M  V30 71 C 6.1974 0.455513 3.37843 0
M  V30 72 H 7.3904 1.91365 2.3091 0
M  V30 73 H 4.9434 1.02594 1.17916 0
M  V30 74 H 5.6784 -0.497381 3.20463 0
M  V30 75 H 5.4634 1.19622 3.73407 0
M  V30 76 H 6.9534 0.304667 4.16487 0
M  V30 77 N 7.3905 -1.2043 1.01659 0
M  V30 78 C 8.8065 -1.41852 0.731442 0
M  V30 79 C 9.0065 -1.89358 -0.688898 0
M  V30 80 O 8.0625 -2.06247 -1.45666 0
M  V30 81 C 9.3755 -2.44019 1.75714 0
M  V30 82 C 10.9235 -2.57785 1.77527 0
M  V30 83 C 11.3985 -3.63194 2.79023 0
M  V30 84 N 12.8895 -3.70678 2.77763 0
M  V30 85 C 13.6245 -4.51897 3.52954 0
M  V30 86 N 13.1205 -5.36921 4.37821 0
M  V30 87 N 14.9135 -4.4643 3.41551 0
M  V30 88 H 7.0645 -0.879093 1.93354 0
M  V30 89 H 9.3275 -0.448425 0.835236 0
M  V30 90 H 9.0335 -2.1611 2.77469 0
M  V30 91 H 8.9075 -3.43007 1.56927 0
M  V30 92 H 11.2945 -2.85023 0.764569 0
M  V30 93 H 11.3755 -1.58992 2.00387 0
M  V30 94 H 11.0195 -3.36699 3.80258 0
M  V30 95 H 10.9495 -4.61609 2.53425 0
M  V30 96 H 13.4405 -3.09944 2.16201 0
M  V30 97 H 13.7535 -5.95981 4.91962 0
M  V30 98 H 12.0985 -5.36424 4.41899 0
M  V30 99 H 15.2895 -3.79042 2.74672 0
M  V30 100 H 15.4625 -5.09491 4.00404 0
M  V30 101 N 8.8686 -0.792821 -1.36206 0
M  V30 102 C 10.2846 -0.474903 -1.52371 0
M  V30 103 C 10.4846 1.00622 -1.74578 0
M  V30 104 O 9.5406 1.79162 -1.77924 0
M  V30 105 C 10.8536 -1.3083 -2.70747 0
M  V30 106 C 12.4016 -1.30234 -2.84619 0
M  V30 107 C 12.8766 -2.11956 -4.06004 0
M  V30 108 N 14.3676 -2.09419 -4.13156 0
M  V30 109 C 15.1026 -2.69419 -5.06163 0
M  V30 110 N 14.5986 -3.3829 -6.04592 0
M  V30 111 N 16.3916 -2.59134 -4.98804 0
M  V30 112 H 8.5426 -1.75222 -1.20046 0
M  V30 113 H 10.8056 -0.745024 -0.586211 0
M  V30 114 H 10.5116 -2.35881 -2.6087 0
M  V30 115 H 10.3856 -0.95196 -3.6499 0
M  V30 116 H 12.7726 -0.259748 -2.93955 0
M  V30 117 H 12.8536 -1.69847 -1.91274 0
M  V30 118 H 12.4976 -3.16248 -3.97429 0
M  V30 119 H 12.4276 -1.69711 -4.98503 0
M  V30 120 H 14.9186 -1.59297 -3.42685 0
M  V30 121 H 15.2316 -3.81394 -6.7213 0
M  V30 122 H 13.5766 -3.42393 -6.04807 0
M  V30 123 H 16.7676 -2.04927 -4.20859 0
M  V30 124 H 16.9406 -3.06185 -5.711 0
M  V30 125 N 10.3467 1.47872 -0.545128 0
M  V30 126 C 11.3097 2.28337 0.198717 0
M  V30 127 C 12.3097 1.36255 0.853888 0
M  V30 128 O 13.4997 1.59003 0.711606 0
M  V30 129 C 10.6317 3.15585 1.28915 0
M  V30 130 H 11.8247 2.95567 -0.507941 0
M  V30 131 H 9.3777 1.53362 -0.301616 0
M  V30 132 H 10.1127 2.53019 2.02859 0
M  V30 133 H 9.8977 3.83337 0.824309 0
M  V30 134 H 11.3877 3.76243 1.81194 0
M  V30 135 N 11.8248 0.280983 1.55075 0
M  V30 136 C 12.7878 -0.590896 2.21452 0
M  V30 137 C 13.7878 -1.07682 1.19421 0
M  V30 138 O 14.9778 -0.97605 1.44288 0
M  V30 139 C 12.1098 -1.81587 2.88511 0
M  V30 140 H 13.3028 -0.0112554 2.99898 0
M  V30 141 H 10.8558 0.0316438 1.56268 0
M  V30 142 H 11.5908 -2.43587 2.14093 0
M  V30 143 H 11.3758 -1.4753 3.63287 0
M  V30 144 H 12.8658 -2.43575 3.39206 0
M  V30 145 N 13.3029 -1.57598 0.00835791 0
M  V30 146 C 14.5509 -1.90551 -0.6734 0
M  V30 147 C 14.8719 -0.883301 -1.73847 0
M  V30 148 O 14.1419 0.0781442 -1.95744 0
M  V30 149 H 12.7219 -0.703312 -0.251717 0
M  V30 150 H 15.3839 -1.94833 0.0512592 0
M  V30 151 H 14.4799 -2.9056 -1.13935 0
M  V30 152 N 14.781 0.264519 -1.55364 0
M  V30 153 C 15.744 1.31046 -1.88042 0
M  V30 154 C 16.744 1.41943 -0.755569 0
M  V30 155 O 17.934 1.40947 -1.02369 0
M  V30 156 C 15.066 2.69067 -2.09323 0
M  V30 157 H 16.259 1.03297 -2.81549 0
M  V30 158 H 13.812 0.502989 -1.47986 0
M  V30 159 H 14.547 3.01982 -1.18226 0
M  V30 160 H 14.332 2.62542 -2.91229 0
M  V30 161 H 15.822 3.44623 -2.35848 0
M  V30 162 N 16.2591 1.48442 0.529413 0
M  V30 163 C 17.2221 1.62524 1.61612 0
M  V30 164 C 18.2221 0.498509 1.52877 0
M  V30 165 O 19.4121 0.76431 1.56537 0
M  V30 166 C 16.5441 1.59597 3.01233 0
M  V30 167 H 17.7371 2.59423 1.50465 0
M  V30 168 H 15.2901 1.37047 0.751514 0
M  V30 169 H 16.0251 0.641781 3.17886 0
M  V30 170 H 15.8101 2.41397 3.08982 0
M  V30 171 H 17.3001 1.72646 3.80241 0
M  V30 172 N 17.7372 -0.778329 1.37039 0
M  V30 173 C 18.9852 -1.53361 1.31623 0
M  V30 174 C 19.3062 -1.94739 -0.100831 0
M  V30 175 O 18.5762 -1.65797 -1.04347 0
M  V30 176 H 17.1562 -0.568794 0.484234 0
M  V30 177 H 19.8182 -0.926742 1.71457 0
M  V30 178 H 18.9142 -2.43606 1.95096 0
M  V30 179 N 19.2153 -1.21501 -1.00376 0
M  V30 180 C 20.4633 -1.03095 -1.73827 0
M  V30 181 C 20.7843 0.436341 -1.90055 0
M  V30 182 O 20.0543 1.31466 -1.45236 0
M  V30 183 H 18.6343 -0.378487 -0.644016 0
M  V30 184 H 21.2963 -1.52831 -1.20949 0
M  V30 185 H 20.3923 -1.49991 -2.73695 0
M  V30 186 N 20.6934 1.19889 -1.02296 0
M  V30 187 C 21.9414 1.89046 -0.714558 0
M  V30 188 C 22.2624 1.79636 0.758681 0
M  V30 189 O 21.5324 1.20292 1.54618 0
M  V30 190 H 20.1124 0.699802 -0.261317 0
M  V30 191 H 22.7744 1.45574 -1.29592 0
M  V30 192 H 21.8704 2.95524 -1.0036 0
M  V30 193 N 22.1715 0.800033 1.35784 0
M  V30 194 C 23.4195 0.376597 1.9856 0
M  V30 195 C 23.7405 -1.05812 1.63795 0
M  V30 196 O 23.0105 -1.73103 0.917171 0
M  V30 197 H 21.5905 0.136261 0.734467 0
M  V30 198 H 24.2525 1.02442 1.65806 0
M  V30 199 H 23.3485 0.477002 3.08433 0
M  V30 200 N 23.6496 -1.47581 0.552962 0
M  V30 201 C 24.9266 -1.95563 -0.0381515 0
M  V30 202 C 25.3066 -1.49552 -1.48988 0
M  V30 203 O 24.6546 -0.732414 -2.16444 0
M  V30 204 C 24.8646 -3.48848 0.102919 0
M  V30 205 C 26.2126 -4.24577 -0.0446082 0
M  V30 206 O 27.2366 -3.56187 0.0302548 0
M  V30 207 O 26.0956 -5.46116 -0.204923 0
M  V30 208 H 23.1896 -0.824321 -0.0665067 0
M  V30 209 H 25.7356 -1.58001 0.619186 0
M  V30 210 H 24.5076 -3.75129 1.11328 0
M  V30 211 H 24.1306 -3.93165 -0.592224 0
M  V30 212 N 25.1277 -0.289203 -1.54924 0
M  V30 213 C 26.3757 0.322879 -1.99504 0
M  V30 214 C 26.6967 1.55313 -1.1791 0
M  V30 215 O 25.9667 1.94001 -0.272097 0
M  V30 216 H 24.5467 0.122291 -0.736922 0
M  V30 217 H 27.2087 -0.397802 -1.90797 0
M  V30 218 H 26.3047 0.603061 -3.06218 0
M  V30 219 N 26.6058 1.57591 -0.0167156 0
M  V30 220 C 27.8538 1.90906 0.663285 0
M  V30 221 C 28.1748 0.892509 1.73376 0
M  V30 222 O 27.4448 -0.0677623 1.95783 0
M  V30 223 H 26.0248 0.704637 0.247983 0
M  V30 224 H 28.6868 1.94803 -0.0615909 0
M  V30 225 H 27.7828 2.9116 1.12393 0
M  V30 226 N 28.0839 -0.256276 1.55502 0
M  V30 227 C 29.3319 -0.983672 1.76545 0
M  V30 228 C 29.6529 -1.86206 0.578982 0
M  V30 229 O 28.9229 -1.91656 -0.405577 0
M  V30 230 H 27.5029 -0.366191 0.651086 0
M  V30 231 H 30.1649 -0.276479 1.92929 0
M  V30 232 H 29.2609 -1.61087 2.67315 0
M  V30 233 N 29.562 -1.4872 -0.521534 0
M  V30 234 C 30.81 -1.56857 -1.27437 0
M  V30 235 C 31.131 -0.247982 -1.93417 0
M  V30 236 O 30.401 0.731151 -1.81744 0
M  V30 237 H 28.981 -0.577885 -0.473347 0
M  V30 238 H 31.643 -1.85233 -0.606205 0
M  V30 239 H 30.739 -2.35402 -2.0492 0
M  V30 240 N 31.0401 0.771051 -1.3745 0
M  V30 241 C 32.2881 1.52661 -1.32435 0
M  V30 242 C 32.6091 1.9479 0.0905024 0
M  V30 243 O 31.8791 1.66348 1.03466 0
M  V30 244 H 30.4591 0.566218 -0.487244 0
M  V30 245 H 33.1211 0.917636 -1.71946 0
M  V30 246 H 32.2171 2.42568 -1.96385 0
M  V30 247 N 32.5182 1.22032 0.997298 0
M  V30 248 C 33.7662 1.04016 1.73278 0
M  V30 249 C 34.0872 -0.426255 1.90284 0
M  V30 250 O 33.3572 -1.30694 1.45931 0
M  V30 251 H 31.9372 0.381897 0.642 0
M  V30 252 H 34.5992 1.5347 1.20137 0
M  V30 253 H 33.6952 1.51441 2.72896 0
M  V30 254 N 33.9963 -1.19345 1.0293 0
M  V30 255 C 35.2443 -1.88665 0.724574 0
M  V30 256 C 35.5653 -1.80036 -0.749144 0
M  V30 257 O 34.8353 -1.2111 -1.53978 0
M  V30 258 H 33.4153 -0.698406 0.265025 0
M  V30 259 H 36.0773 -1.44885 1.30362 0
M  V30 260 H 35.1733 -2.94987 1.01926 0
M  V30 261 N 35.4744 -0.807222 -1.35358 0
M  V30 262 C 36.4374 -0.223665 -2.28106 0
M  V30 263 C 37.4374 0.589354 -1.4961 0
M  V30 264 O 38.6274 0.407745 -1.69361 0
M  V30 265 C 35.7594 0.688149 -3.33882 0
M  V30 266 H 36.9524 -1.04169 -2.81227 0
M  V30 267 H 34.5054 -0.577921 -1.45223 0
M  V30 268 H 35.2404 1.52984 -2.85948 0
M  V30 269 H 35.0254 0.10687 -3.91954 0
M  V30 270 H 36.5154 1.09075 -4.03104 0
M  V30 271 N 36.9525 1.47285 -0.560781 0
M  V30 272 C 37.9155 2.28535 0.174488 0
M  V30 273 C 38.9155 1.37153 0.839388 0
M  V30 274 O 40.1055 1.59748 0.694702 0
M  V30 275 C 37.2375 3.16934 1.25561 0
M  V30 276 H 38.4305 2.95012 -0.539262 0
M  V30 277 H 35.9835 1.53034 -0.317865 0
M  V30 278 H 36.7185 2.55157 2.00164 0
M  V30 279 H 36.5035 3.8419 0.783604 0
M  V30 280 H 37.9935 3.78143 1.77193 0
M  V30 281 N 38.4306 0.297415 1.54768 0
M  V30 282 C 39.3786 -0.596051 2.24833 0
M  V30 283 C 40.3726 -1.13992 1.25308 0
M  V30 284 O 41.5786 -1.09098 1.4317 0
M  V30 285 H 37.9536 -0.210814 0.721846 0
M  V30 286 H 39.9246 0.0174667 2.98395 0
M  V30 287 C 38.6736 -1.75818 2.99972 0
M  V30 288 H 37.9966 -1.3489 3.76357 0
M  V30 289 H 39.4366 -2.35949 3.52284 0
M  V30 290 C 37.8956 -2.66014 2.06732 0
M  V30 291 O 38.4256 -3.67009 1.63302 0
M  V30 292 N 36.6316 -2.33669 1.72763 0
M  V30 293 H 36.1786 -1.51586 2.08277 0
M  V30 294 H 36.1366 -2.94285 1.10652 0
M  V30 295 N 39.9087 -1.5758 0.0250728 0
M  V30 296 C 41.3197 -1.79476 -0.514323 0
M  V30 297 C 41.6707 -0.934956 -1.72491 0
M  V30 298 O 40.7957 -0.144245 -2.15919 0
M  V30 299 C 41.3907 -3.25503 -0.939842 0
M  V30 300 C 39.9497 -3.48408 -1.42438 0
M  V30 301 C 39.0967 -2.74583 -0.387201 0
M  V30 302 H 42.0477 -1.567 0.25113 0
M  V30 303 H 42.0687 -3.34992 -1.80445 0
M  V30 304 H 41.5807 -3.88056 -0.0585628 0
M  V30 305 H 39.6817 -2.91103 -2.32572 0
M  V30 306 H 39.7947 -4.57119 -1.43455 0
M  V30 307 H 38.1587 -2.39942 -0.854409 0
M  V30 308 H 38.9417 -3.39849 0.485543 0
M  V30 309 N 41.3868 0.248026 -1.55636 0
M  V30 310 C 42.3498 1.29044 -1.89421 0
M  V30 311 C 43.3498 1.41134 -0.770581 0
M  V30 312 O 44.5398 1.39854 -1.03858 0
M  V30 313 C 41.6718 2.66831 -2.12165 0
M  V30 314 H 42.8648 1.00305 -2.82629 0
M  V30 315 H 40.4178 0.487265 -1.48511 0
M  V30 316 H 41.1528 3.00711 -1.21422 0
M  V30 317 H 40.9378 2.59438 -2.93997 0
M  V30 318 H 42.4278 3.42103 -2.3949 0
M  V30 319 N 42.8649 1.48995 0.513639 0
M  V30 320 C 44.1129 1.57531 1.26604 0
M  V30 321 C 44.4339 0.258236 1.93283 0
M  V30 322 O 43.7039 -0.721502 1.8213 0
M  V30 323 H 42.2839 0.580387 0.470276 0
M  V30 324 H 44.9459 1.85552 0.596373 0
M  V30 325 H 44.0419 2.36486 2.03669 0
M  V30 326 N 44.343 -0.763751 1.37857 0
M  V30 327 C 45.591 -1.51957 1.33243 0
M  V30 328 C 45.912 -1.94835 -0.0801709 0
M  V30 329 O 45.182 -1.66894 -1.02582 0
M  V30 330 H 43.762 -0.563626 0.49024 0
M  V30 331 H 46.424 -0.908504 1.7243 0
M  V30 332 H 45.52 -2.41523 1.97669 0
M  V30 333 N 45.8211 -1.22559 -0.990812 0
M  V30 334 C 47.0981 -0.959875 -1.70428 0
M  V30 335 C 47.4781 0.524455 -2.04481 0
M  V30 336 O 46.8261 1.49302 -1.72977 0
M  V30 337 C 47.0361 -1.85955 -2.95333 0
M  V30 338 C 48.3841 -2.11687 -3.68068 0
M  V30 339 O 49.4081 -1.8342 -3.05345 0
M  V30 340 O 48.2671 -2.59572 -4.80921 0
M  V30 341 H 45.3611 -0.361154 -0.743974 0
M  V30 342 H 47.9071 -1.33554 -1.04697 0
M  V30 343 H 46.6791 -2.86346 -2.66687 0
M  V30 344 H 46.3021 -1.4856 -3.68803 0
M  V30 345 N 47.2992 1.18797 -1.03562 0
M  V30 346 C 48.2622 2.20464 -0.626769 0
M  V30 347 C 49.2622 1.57721 0.313173 0
M  V30 348 O 50.4522 1.73917 0.0992615 0
M  V30 349 C 47.5842 3.40802 0.0818498 0
M  V30 350 H 48.7772 2.58149 -1.5264 0
M  V30 351 H 46.3302 1.32593 -0.827578 0
M  V30 352 H 47.0652 3.08642 0.995518 0
M  V30 353 H 46.8502 3.8758 -0.593652 0
M  V30 354 H 48.3402 4.16092 0.354584 0
M  V30 355 N 48.7773 0.814389 1.34928 0
M  V30 356 C 49.7403 0.235759 2.27984 0
M  V30 357 C 50.7403 -0.581412 1.49921 0
M  V30 358 O 51.9303 -0.398758 1.69575 0
M  V30 359 C 49.0623 -0.670433 3.34242 0
M  V30 360 H 50.2553 1.05659 2.80671 0
M  V30 361 H 47.8083 0.585614 1.44915 0
M  V30 362 H 48.5433 -1.51466 2.86755 0
M  V30 363 H 48.3283 -0.0860822 3.92005 0
M  V30 364 H 49.8183 -1.06935 4.03676 0
M  V30 365 N 50.2554 -1.46986 0.568584 0
M  V30 366 C 51.2184 -2.28624 -0.162366 0
M  V30 367 C 52.2184 -1.37596 -0.832103 0
M  V30 368 O 53.4084 -1.60115 -0.68622 0
M  V30 369 C 50.5404 -3.17596 -1.23878 0
M  V30 370 H 51.7334 -2.94722 0.554899 0
M  V30 371 H 49.2864 -1.52863 0.325976 0
M  V30 372 H 50.0214 -2.56214 -1.98808 0
M  V30 373 H 49.8064 -3.846 -0.763219 0
M  V30 374 H 51.2964 -3.79078 -1.75185 0
M  V30 375 N 51.7335 -0.305618 -1.54608 0
M  V30 376 C 52.6965 0.555591 -2.22364 0
M  V30 377 C 53.6965 1.05768 -1.21119 0
M  V30 378 O 54.8865 0.952972 -1.45822 0
M  V30 379 C 52.0185 1.76974 -2.91364 0
M  V30 380 H 53.2115 -0.0364572 -2.99878 0
M  V30 381 H 50.7645 -0.0565007 -1.56198 0
M  V30 382 H 51.4995 2.40151 -2.17941 0
M  V30 383 H 51.2845 1.41732 -3.65588 0
M  V30 384 H 52.7745 2.38148 -3.43038 0
M  V30 385 N 53.2116 1.57565 -0.0334293 0
M  V30 386 C 54.4596 1.91598 0.642999 0
M  V30 387 C 54.7806 0.910847 1.7242 0
M  V30 388 O 54.0506 -0.0469931 1.95844 0
M  V30 389 H 52.6306 0.707228 0.240496 0
M  V30 390 H 55.2926 1.94726 -0.0822488 0
M  V30 391 H 54.3886 2.92336 1.09298 0
M  V30 392 N 54.6897 -0.239769 1.55765 0
M  V30 393 C 55.9667 -0.990056 1.68693 0
M  V30 394 C 56.3467 -2.03107 0.5754 0
M  V30 395 O 55.6947 -2.24604 -0.42017 0
M  V30 396 C 55.9047 -1.61696 3.09282 0
M  V30 397 C 57.2527 -2.11613 3.6811 0
M  V30 398 O 58.2767 -1.71624 3.12127 0
M  V30 399 O 57.1357 -2.85057 4.66267 0
M  V30 400 H 54.2297 -0.461299 0.686391 0
M  V30 401 H 56.7757 -0.232991 1.68093 0
M  V30 402 H 55.5477 -0.864357 3.81634 0
M  V30 403 H 55.1707 -2.44005 3.13923 0
M  V30 404 N 56.1678 -1.49265 -0.50573 0
M  V30 405 C 57.0778 -1.68312 -1.63427 0
M  V30 406 C 58.0938 -0.565682 -1.64548 0
M  V30 407 O 59.2698 -0.839801 -1.83055 0
M  V30 408 C 56.3348 -1.74107 -2.99813 0
M  V30 409 C 55.3958 -2.97653 -3.09356 0
M  V30 410 C 54.6288 -3.03163 -4.39236 0
M  V30 411 O 54.8518 -2.16396 -5.27758 0
M  V30 412 O 53.7858 -3.9558 -4.53652 0
M  V30 413 H 57.6118 -2.63907 -1.50289 0
M  V30 414 H 55.1968 -1.32951 -0.681502 0
M  V30 415 H 57.0788 -1.803 -3.80881 0
M  V30 416 H 55.7538 -0.816901 -3.13223 0
M  V30 417 H 54.6608 -2.96981 -2.27493 0
M  V30 418 H 55.9938 -3.89535 -3.00871 0
M  V30 419 N 57.6459 0.756429 -1.3826 0
M  V30 420 C 58.5559 1.9009 -1.37488 0
M  V30 421 C 59.5719 1.71855 -0.272366 0
M  V30 422 O 60.7479 1.94827 -0.510318 0
M  V30 423 C 57.8129 3.25421 -1.19592 0
M  V30 424 C 56.8739 3.56202 -2.39622 0
M  V30 425 C 56.1069 4.85075 -2.2257 0
M  V30 426 O 56.3299 5.57246 -1.21793 0
M  V30 427 O 55.2639 5.15269 -3.11098 0
M  V30 428 H 59.0899 1.93695 -2.33914 0
M  V30 429 H 56.6749 0.901313 -1.1915 0
M  V30 430 H 58.5569 4.06337 -1.11661 0
M  V30 431 H 57.2319 3.22634 -0.262486 0
M  V30 432 H 56.1389 2.75458 -2.53128 0
M  V30 433 H 57.4719 3.63747 -3.31586 0
M  V30 434 N 59.124 1.23083 0.984299 0
M  V30 435 C 60.54 0.992637 1.24975 0
M  V30 436 C 60.74 -0.308618 1.99123 0
M  V30 437 O 59.796 -1.02905 2.30579 0
M  V30 438 C 61.109 2.19698 2.05312 0
M  V30 439 C 62.657 2.24147 2.18465 0
M  V30 440 C 63.132 3.44157 3.02192 0
M  V30 441 N 64.623 3.44372 3.09777 0
M  V30 442 C 65.358 4.33886 3.74874 0
M  V30 443 N 64.854 5.3363 4.41827 0
M  V30 444 N 66.647 4.21639 3.71721 0
M  V30 445 H 58.798 2.06731 0.487453 0
M  V30 446 H 61.061 0.906339 0.277944 0
M  V30 447 H 60.767 3.1411 1.58201 0
M  V30 448 H 60.641 2.20465 3.06064 0
M  V30 449 H 63.028 1.30277 2.64786 0
M  V30 450 H 63.109 2.27415 1.17115 0
M  V30 451 H 62.753 4.38332 2.56568 0
M  V30 452 H 62.683 3.3813 4.03702 0
M  V30 453 H 65.174 2.72201 2.62135 0
M  V30 454 H 65.487 5.98196 4.89266 0
M  V30 455 H 63.832 5.37534 4.40548 0
M  V30 456 H 67.023 3.42962 3.18582 0
M  V30 457 H 67.196 4.91604 4.22173 0
M  V30 458 N 60.6021 -1.18246 1.0419 0
M  V30 459 C 61.5491 -2.2192 0.634037 0
M  V30 460 C 62.5191 -1.62179 -0.358765 0
M  V30 461 O 63.7041 -1.89122 -0.252466 0
M  V30 462 C 60.8441 -3.451 0.00445535 0
M  V30 463 C 59.9571 -4.19174 1.04487 0
M  V30 464 C 59.0921 -5.29813 0.383676 0
M  V30 465 C 58.1311 -5.9566 1.4091 0
M  V30 466 N 57.2681 -6.97834 0.772784 0
M  V30 467 H 62.1081 -2.56164 1.52263 0
M  V30 468 H 59.6451 -1.25843 0.761701 0
M  V30 469 H 61.6031 -4.15485 -0.377919 0
M  V30 470 H 60.2331 -3.11472 -0.847652 0
M  V30 471 H 59.2851 -3.47604 1.54518 0
M  V30 472 H 60.5971 -4.64267 1.82368 0
M  V30 473 H 59.7511 -6.06677 -0.0528366 0
M  V30 474 H 58.4901 -4.85825 -0.427208 0
M  V30 475 H 57.4951 -5.17535 1.85574 0
M  V30 476 H 58.7201 -6.4173 2.22171 0
M  V30 477 H 56.6661 -6.55998 -0.0177708 0
M  V30 478 H 56.5831 -7.41186 1.48928 0
M  V30 479 H 57.8511 -7.78665 0.36071 0
M  V30 480 N 62.0802 -0.821533 -1.34494 0
M  V30 481 C 63.3262 -0.409552 -1.98622 0
M  V30 482 C 63.6592 1.0244 -1.64984 0
M  V30 483 O 62.9342 1.71325 -0.920758 0
M  V30 484 C 63.2172 -0.610458 -3.54888 0
M  V30 485 C 63.0702 -2.09043 -3.98273 0
M  V30 486 C 64.3892 -0.0455379 -4.40076 0
M  V30 487 H 61.5082 -0.15028 -0.721516 0
M  V30 488 H 64.1502 -1.03384 -1.59411 0
M  V30 489 H 62.3002 -0.079044 -3.8842 0
M  V30 490 H 63.9722 -2.68537 -3.75081 0
M  V30 491 H 62.2152 -2.58139 -3.48635 0
M  V30 492 H 62.8862 -2.18182 -5.07051 0
M  V30 493 H 65.3622 -0.499557 -4.1309 0
M  V30 494 H 64.2382 -0.215922 -5.48475 0
M  V30 495 H 64.4992 1.04939 -4.29465 0
M  V30 496 N 63.5583 1.46682 -0.576371 0
M  V30 497 C 64.8063 2.02013 -0.0594163 0
M  V30 498 C 65.1273 1.45101 1.30271 0
M  V30 499 O 64.3973 0.633317 1.8538 0
M  V30 500 H 62.9773 0.746759 -0.0189745 0
M  V30 501 H 65.6393 1.79862 -0.750717 0
M  V30 502 H 64.7353 3.12097 0.014345 0
M  V30 503 N 65.0364 0.313813 1.54444 0
M  V30 504 C 65.9664 -0.549454 2.26943 0
M  V30 505 C 66.9474 -1.12741 1.27372 0
M  V30 506 O 68.1324 -1.15436 1.56167 0
M  V30 507 C 65.2624 -1.71523 3.01989 0
M  V30 508 C 64.2164 -1.26703 4.08816 0
M  V30 509 C 63.5424 -2.51898 4.71647 0
M  V30 510 C 64.8424 -0.388962 5.2085 0
M  V30 511 H 66.5364 0.0552661 2.99349 0
M  V30 512 H 64.0824 0.0280207 1.43973 0
M  V30 513 H 66.0354 -2.32535 3.51433 0
M  V30 514 H 64.7594 -2.34639 2.27183 0
M  V30 515 H 63.4184 -0.679896 3.6024 0
M  V30 516 H 63.0664 -3.13356 3.93468 0
M  V30 517 H 62.7664 -2.22605 5.43802 0
M  V30 518 H 64.2904 -3.1369 5.23861 0
M  V30 519 H 65.7044 -0.905107 5.6611 0
M  V30 520 H 64.1014 -0.18924 5.99802 0
M  V30 521 H 65.1714 0.582699 4.81386 0
M  V30 522 N 66.5145 -1.57545 0.0417849 0
M  V30 523 C 67.4775 -2.09885 -0.92093 0
M  V30 524 C 68.4775 -1.01648 -1.24596 0
M  V30 525 O 69.6675 -1.27759 -1.1842 0
M  V30 526 C 66.7995 -2.57527 -2.23367 0
M  V30 527 H 67.9925 -2.96236 -0.467382 0
M  V30 528 H 65.5455 -1.5493 -0.206467 0
M  V30 529 H 66.2805 -1.74542 -2.73323 0
M  V30 530 H 66.0655 -3.36613 -2.01083 0
M  V30 531 H 67.5555 -2.98201 -2.92346 0
M  V30 532 N 67.9926 0.231505 -1.5589 0
M  V30 533 C 69.4036 0.799327 -1.68724 0
M  V30 534 C 69.7546 1.85398 -0.642022 0
M  V30 535 O 68.8796 2.1539 0.208784 0
M  V30 536 C 69.4746 1.45664 -3.05888 0
M  V30 537 C 68.0336 1.97197 -3.20609 0
M  V30 538 C 67.1806 0.828552 -2.64632 0
M  V30 539 H 70.1316 0.00702616 -1.58698 0
M  V30 540 H 70.1526 2.32517 -3.01191 0
M  V30 541 H 69.6646 0.688808 -3.81939 0
M  V30 542 H 67.7656 2.76813 -2.4941 0
M  V30 543 H 67.8786 2.15878 -4.27707 0
M  V30 544 H 66.2426 1.23321 -2.22854 0
M  V30 545 H 67.0256 0.0735544 -3.43221 0
M  V30 546 N 69.4707 1.49531 0.497807 0
M  V30 547 C 70.7187 1.58865 1.24926 0
M  V30 548 C 71.0397 0.278721 1.92998 0
M  V30 549 O 70.3097 -0.702144 1.82885 0
M  V30 550 H 68.8897 0.585343 0.464094 0
M  V30 551 H 71.5517 1.86174 0.57666 0
M  V30 552 H 70.6477 2.38633 2.01149 0
M  V30 553 N 70.9488 -0.749086 1.3866 0
M  V30 554 C 72.2258 -1.4992 1.25632 0
M  V30 555 C 72.6058 -2.10633 -0.140317 0
M  V30 556 O 71.9538 -1.97437 -1.15025 0
M  V30 557 C 72.1638 -2.56195 2.36992 0
M  V30 558 C 73.5118 -3.22972 2.75634 0
M  V30 559 O 74.5358 -2.66502 2.36337 0
M  V30 560 O 73.3948 -4.25122 3.43415 0
M  V30 561 H 70.4888 -0.665067 0.491544 0
M  V30 562 H 73.0348 -0.784113 1.50498 0
M  V30 563 H 71.8068 -2.09612 3.30422 0
M  V30 564 H 71.4298 -3.35279 2.13714 0
M  V30 565 N 72.4269 -1.23603 -0.977757 0
M  V30 566 C 73.6729 -1.07129 -1.72195 0
M  V30 567 C 74.0059 0.390501 -1.90233 0
M  V30 568 O 73.2809 1.28902 -1.45653 0
M  V30 569 C 73.5639 -1.80031 -3.11867 0
M  V30 570 C 73.4169 -3.33899 -3.01383 0
M  V30 571 C 74.7359 -1.56492 -4.11337 0
M  V30 572 H 71.8549 -0.390571 -0.624999 0
M  V30 573 H 74.4969 -1.52142 -1.13811 0
M  V30 574 H 72.6469 -1.41768 -3.6171 0
M  V30 575 H 74.3189 -3.81699 -2.59043 0
M  V30 576 H 72.5619 -3.62796 -2.37827 0
M  V30 577 H 73.2329 -3.801 -4.00285 0
M  V30 578 H 75.7089 -1.89757 -3.70313 0
M  V30 579 H 74.5849 -2.09973 -5.07151 0
M  V30 580 H 74.8459 -0.500874 -4.39254 0
M  V30 581 N 73.905 1.17692 -1.04816 0
M  V30 582 C 74.815 2.25229 -0.65643 0
M  V30 583 C 75.831 1.71018 0.320761 0
M  V30 584 O 77.007 2.00649 0.173805 0
M  V30 585 C 74.072 3.46684 -0.0332629 0
M  V30 586 C 73.133 4.15997 -1.06042 0
M  V30 587 C 72.366 5.31654 -0.466893 0
M  V30 588 O 72.589 5.65777 0.724758 0
M  V30 589 O 71.523 5.89831 -1.1993 0
M  V30 590 H 75.349 2.61016 -1.55255 0
M  V30 591 H 72.934 1.24919 -0.81949 0
M  V30 592 H 74.816 4.20234 0.313256 0
M  V30 593 H 73.491 3.12703 0.836566 0
M  V30 594 H 72.398 3.44482 -1.45886 0
M  V30 595 H 73.731 4.53996 -1.90127 0
M  V30 596 N 75.3831 0.828654 1.34056 0
M  V30 597 C 76.3151 0.212052 2.28217 0
M  V30 598 C 77.3281 -0.601362 1.51286 0
M  V30 599 O 78.5171 -0.430104 1.73241 0
M  V30 600 C 75.6171 -0.72088 3.31144 0
M  V30 601 C 74.7901 0.0509587 4.3737 0
M  V30 602 C 73.8491 -0.803766 5.20025 0
M  V30 603 O 72.8751 -0.246667 5.68665 0
M  V30 604 N 74.0771 -2.1227 5.40298 0
M  V30 605 H 76.8421 1.02105 2.81771 0
M  V30 606 H 74.4031 0.686153 1.46641 0
M  V30 607 H 76.3951 -1.29742 3.8334 0
M  V30 608 H 74.9651 -1.43061 2.77943 0
M  V30 609 H 74.1851 0.808831 3.85813 0
M  V30 610 H 75.4731 0.582065 5.0546 0
M  V30 611 H 74.8711 -2.59898 5.02464 0
M  V30 612 H 73.4281 -2.64796 5.95589 0
M  V30 613 N 76.8612 -1.46375 0.584142 0
M  V30 614 C 78.1072 -2.02678 0.0703716 0
M  V30 615 C 78.4402 -1.4545 -1.28678 0
M  V30 616 O 77.7152 -0.62014 -1.84349 0
M  V30 617 C 77.9982 -3.60099 0.00614674 0
M  V30 618 C 77.8512 -4.27709 1.3923 0
M  V30 619 C 79.1702 -4.34598 -0.693742 0
M  V30 620 H 76.2892 -0.736504 0.027047 0
M  V30 621 H 78.9312 -1.74501 0.751615 0
M  V30 622 H 77.0812 -3.84236 -0.574009 0
M  V30 623 H 78.7532 -4.14832 2.01773 0
M  V30 624 H 76.9962 -3.87016 1.95962 0
M  V30 625 H 77.6672 -5.36478 1.29982 0
M  V30 626 H 80.1432 -4.15615 -0.200869 0
M  V30 627 H 79.0192 -5.44318 -0.707714 0
M  V30 628 H 79.2802 -4.05759 -1.75533 0
M  V30 629 N 78.3393 -0.321999 -1.54275 0
M  V30 630 C 79.5673 0.283052 -2.04955 0
M  V30 631 C 79.9823 1.45904 -1.19823 0
M  V30 632 O 79.3393 1.81063 -0.228545 0
M  V30 633 C 79.3903 0.719028 -3.54277 0
M  V30 634 O 79.1113 -0.410175 -4.36176 0
M  V30 635 C 80.6123 1.38705 -4.21041 0
M  V30 636 H 77.8323 0.0584616 -0.668448 0
M  V30 637 H 80.3763 -0.467734 -1.99079 0
M  V30 638 H 78.5313 1.41979 -3.60445 0
M  V30 639 H 78.9453 -0.0669416 -5.24457 0
M  V30 640 H 80.4193 1.64306 -5.2698 0
M  V30 641 H 80.8963 2.33385 -3.72059 0
M  V30 642 H 81.5023 0.728906 -4.19007 0
M  V30 643 N 79.8174 1.5752 -0.0501392 0
M  V30 644 C 80.7474 2.14502 0.922566 0
M  V30 645 C 81.7284 1.06642 1.3252 0
M  V30 646 O 82.9134 1.34577 1.4001 0
M  V30 647 C 80.0434 2.68916 2.19776 0
M  V30 648 C 78.9974 3.8175 1.93523 0
M  V30 649 C 78.3234 4.22677 3.27487 0
M  V30 650 C 79.6234 5.06932 1.25765 0
M  V30 651 H 81.3174 2.9603 0.447952 0
M  V30 652 H 78.8634 1.42401 0.214024 0
M  V30 653 H 80.8164 3.07419 2.88222 0
M  V30 654 H 79.5404 1.84578 2.69441 0
M  V30 655 H 78.1994 3.43718 1.27489 0
M  V30 656 H 77.8474 3.35291 3.74952 0
M  V30 657 H 77.5474 4.98725 3.1072 0
M  V30 658 H 79.0714 4.63779 3.97166 0
M  V30 659 H 80.4854 5.42888 1.84244 0
M  V30 660 H 78.8824 5.88116 1.19328 0
M  V30 661 H 79.9524 4.84337 0.233536 0
M  V30 662 N 81.2955 -0.223234 1.56011 0
M  V30 663 C 82.2585 -1.26014 1.9145 0
M  V30 664 C 83.2585 -1.3989 0.792937 0
M  V30 665 O 84.4485 -1.38184 1.0607 0
M  V30 666 C 81.5805 -2.63422 2.16383 0
M  V30 667 H 82.7735 -0.95796 2.84189 0
M  V30 668 H 80.3265 -0.463576 1.49267 0
M  V30 669 H 81.0615 -2.98741 1.2619 0
M  V30 670 H 80.8465 -2.54728 2.98088 0
M  V30 671 H 82.3365 -3.38249 2.44903 0
M  V30 672 N 82.7736 -1.49793 -0.48987 0
M  V30 673 C 83.7036 -1.70201 -1.59856 0
M  V30 674 C 84.6846 -0.55076 -1.60937 0
M  V30 675 O 85.8696 -0.787841 -1.77501 0
M  V30 676 C 82.9996 -1.77882 -2.98287 0
M  V30 677 C 81.9536 -2.92907 -3.12073 0
M  V30 678 C 81.2796 -2.85712 -4.51965 0
M  V30 679 C 82.5796 -4.3369 -2.91051 0
M  V30 680 H 84.2736 -2.63025 -1.43032 0
M  V30 681 H 81.8196 -1.26574 -0.686664 0
M  V30 682 H 83.7726 -1.90744 -3.75759 0
M  V30 683 H 82.4966 -0.816653 -3.16225 0
M  V30 684 H 81.1556 -2.79665 -2.37029 0
M  V30 685 H 80.8036 -1.8738 -4.66795 0
M  V30 686 H 80.5036 -3.62921 -4.62128 0
M  V30 687 H 82.0276 -3.00598 -5.31482 0
M  V30 688 H 83.4416 -4.47555 -3.58284 0
M  V30 689 H 81.8386 -5.12205 -3.12675 0
M  V30 690 H 82.9086 -4.47362 -1.87071 0
M  V30 691 N 84.2517 0.741722 -1.39055 0
M  V30 692 C 85.4997 1.49818 -1.35643 0
M  V30 693 C 85.8207 1.94938 0.0491642 0
M  V30 694 O 85.0907 1.68505 0.999141 0
M  V30 695 H 83.6707 0.555755 -0.499144 0
M  V30 696 H 86.3327 0.880957 -1.73854 0
M  V30 697 H 85.4287 2.38348 -2.01486 0
M  V30 698 N 85.7298 1.2412 0.971189 0
M  V30 699 C 86.6928 1.03156 2.04674 0
M  V30 700 C 87.6928 -0.00990322 1.60797 0
M  V30 701 O 88.8828 0.230729 1.72665 0
M  V30 702 C 86.0148 0.562765 3.36223 0
M  V30 703 H 87.2078 1.98614 2.24705 0
M  V30 704 H 84.7608 1.06293 1.14593 0
M  V30 705 H 85.4958 -0.395176 3.21883 0
M  V30 706 H 85.2808 1.31441 3.69413 0
M  V30 707 H 86.7708 0.437015 4.15307 0
M  V30 708 N 87.2079 -1.17134 1.05439 0
M  V30 709 C 88.4559 -1.87085 0.764429 0
M  V30 710 C 88.7769 -1.81584 -0.710787 0
M  V30 711 O 88.0469 -1.24349 -1.51374 0
M  V30 712 H 86.6269 -0.692627 0.279779 0
M  V30 713 H 89.2889 -1.42087 1.33406 0
M  V30 714 H 88.3849 -2.92759 1.0816 0
M  V30 715 N 88.686 -0.835752 -1.33615 0
M  V30 716 C 89.649 -0.272 -2.2758 0
M  V30 717 C 90.649 0.557487 -1.50827 0
M  V30 718 O 91.839 0.37173 -1.70188 0
M  V30 719 C 88.971 0.617173 -3.35267 0
M  V30 720 H 90.164 -1.10111 -2.78954 0
M  V30 721 H 87.717 -0.608594 -1.43965 0
M  V30 722 H 88.452 1.46884 -2.89129 0
M  V30 723 H 88.237 0.0237066 -3.92093 0
M  V30 724 H 89.727 1.005 -4.05326 0
M  V30 725 N 90.1641 1.46063 -0.591896 0
M  V30 726 C 91.4411 1.95595 -0.0137119 0
M  V30 727 C 91.8211 1.5345 1.4497 0
M  V30 728 O 91.1691 0.789543 2.14426 0
M  V30 729 C 91.3791 3.48453 -0.195373 0
M  V30 730 C 92.7271 4.24546 -0.0679765 0
M  V30 731 O 93.7511 3.55982 -0.124681 0
M  V30 732 O 92.6101 5.46467 0.0600579 0
M  V30 733 H 89.7041 0.825795 0.0446279 0
M  V30 734 H 92.2501 1.56303 -0.660859 0
M  V30 735 H 91.0221 3.72045 -1.21235 0
M  V30 736 H 90.6451 3.94597 0.487775 0
M  V30 737 N 91.6422 0.330177 1.54103 0
M  V30 738 C 92.5892 -0.532762 2.24567 0
M  V30 739 C 93.5592 -1.10635 1.23892 0
M  V30 740 O 94.7442 -1.14546 1.5259 0
M  V30 741 C 91.8842 -1.6845 3.01195 0
M  V30 742 C 90.9972 -1.13951 4.167 0
M  V30 743 C 90.1322 -2.25746 4.80845 0
M  V30 744 C 89.1712 -1.6853 5.88442 0
M  V30 745 N 88.3082 -2.74014 6.46421 0
M  V30 746 H 93.1482 0.0746905 2.97906 0
M  V30 747 H 90.6852 0.048632 1.4702 0
M  V30 748 H 92.6432 -2.36234 3.43874 0
M  V30 749 H 91.2732 -2.26314 2.30178 0
M  V30 750 H 90.3252 -0.35301 3.78758 0
M  V30 751 H 91.6372 -0.680892 4.94131 0
M  V30 752 H 90.7912 -3.01422 5.26526 0
M  V30 753 H 89.5302 -2.74947 4.0281 0
M  V30 754 H 88.5352 -0.913543 5.42157 0
M  V30 755 H 89.7602 -1.20198 6.68378 0
M  V30 756 H 87.7062 -3.22494 5.71256 0
M  V30 757 H 87.6232 -2.32735 7.19285 0
M  V30 758 H 88.8912 -3.49499 6.96757 0
M  V30 759 N 93.1203 -1.57491 0.0584922 0
M  V30 760 C 94.3973 -1.84346 -0.653918 0
M  V30 761 C 94.7773 -0.948355 -1.88599 0
M  V30 762 O 94.1253 -0.0112403 -2.28497 0
M  V30 763 C 94.3353 -3.34239 -1.00425 0
M  V30 764 C 95.6833 -4.01431 -1.38342 0
M  V30 765 O 96.7073 -3.38907 -1.09637 0
M  V30 766 O 95.5663 -5.11683 -1.91943 0
M  V30 767 H 92.6603 -0.761112 -0.323478 0
M  V30 768 H 95.2063 -1.6947 0.0884125 0
M  V30 769 H 93.9783 -3.91089 -0.128625 0
M  V30 770 H 93.6013 -3.54329 -1.80378 0
M  V30 771 N 94.5984 0.214957 -1.56127 0
M  V30 772 C 95.8464 0.936518 -1.79091 0
M  V30 773 C 96.1674 1.84606 -0.628148 0
M  V30 774 O 95.4374 1.92664 0.35462 0
M  V30 775 H 94.0174 0.3488 -0.660566 0
M  V30 776 H 96.6794 0.22523 -1.93594 0
M  V30 777 H 95.7754 1.53943 -2.71492 0
M  V30 778 N 96.0765 1.50051 0.48192 0
M  V30 779 C 97.3045 1.64237 1.25832 0
M  V30 780 C 97.7195 0.321336 1.86045 0
M  V30 781 O 97.0765 -0.695478 1.68729 0
M  V30 782 C 97.1275 2.72548 2.37487 0
M  V30 783 O 96.8485 3.99529 1.79745 0
M  V30 784 C 98.3495 2.9761 3.28547 0
M  V30 785 H 95.5695 0.55237 0.380957 0
M  V30 786 H 98.1135 1.96207 0.576467 0
M  V30 787 H 96.2685 2.43303 3.01467 0
M  V30 788 H 96.6825 4.59342 2.5319 0
M  V30 789 H 98.1565 3.77084 4.03127 0
M  V30 790 H 98.6335 2.0826 3.86684 0
M  V30 791 H 99.2395 3.28345 2.70314 0
M  V30 792 N 97.5546 -0.734337 1.39446 0
M  V30 793 C 98.4846 -1.86155 1.40955 0
M  V30 794 C 99.4656 -1.67898 0.272827 0
M  V30 795 O 100.651 -1.88207 0.478743 0
M  V30 796 C 97.7806 -3.23912 1.25294 0
M  V30 797 C 96.7346 -3.56808 2.36373 0
M  V30 798 C 96.0606 -4.93508 2.058 0
M  V30 799 C 97.3606 -3.59713 3.78687 0
M  V30 800 H 99.0546 -1.8515 2.35287 0
M  V30 801 H 96.6006 -0.889367 1.13253 0
M  V30 802 H 98.5536 -4.02443 1.2497 0
M  V30 803 H 97.2776 -3.25446 0.274308 0
M  V30 804 H 95.9366 -2.80606 2.35914 0
M  V30 805 H 95.5846 -4.91623 1.06374 0
M  V30 806 H 95.2846 -5.16486 2.80208 0
M  V30 807 H 96.8086 -5.74396 2.07128 0
M  V30 808 H 98.2226 -4.2832 3.81071 0
M  V30 809 H 96.6196 -3.94209 4.52459 0
M  V30 810 H 97.6896 -2.59504 4.09617 0
M  V30 811 N 99.0327 -1.24633 -0.964593 0
M  V30 812 C 99.9627 -1.06611 -2.07741 0
M  V30 813 C 100.944 0.0218666 -1.70086 0
M  V30 814 O 102.129 -0.145793 -1.93652 0
M  V30 815 C 99.2587 -0.673444 -3.40708 0
M  V30 816 C 98.2127 -1.71054 -3.92332 0
M  V30 817 C 97.5387 -1.17285 -5.21678 0
M  V30 818 C 98.8387 -3.10718 -4.19824 0
M  V30 819 H 100.533 -1.99693 -2.23076 0
M  V30 820 H 98.0787 -0.96152 -1.07195 0
M  V30 821 H 100.032 -0.534345 -4.17998 0
M  V30 822 H 98.7557 0.293073 -3.25282 0
M  V30 823 H 97.4147 -1.83791 -3.17201 0
M  V30 824 H 97.0627 -0.196847 -5.02615 0
M  V30 825 H 96.7627 -1.86592 -5.57187 0
M  V30 826 H 98.2867 -1.04593 -6.01575 0
M  V30 827 H 99.7007 -3.01192 -4.87808 0
M  V30 828 H 98.0977 -3.77406 -4.66567 0
M  V30 829 H 99.1677 -3.58524 -3.26479 0
M  V30 830 N 100.511 1.16574 -1.06058 0
M  V30 831 C 101.441 2.23057 -0.690488 0
M  V30 832 C 102.422 1.67141 0.315901 0
M  V30 833 O 103.607 1.93253 0.191556 0
M  V30 834 C 100.737 3.47222 -0.073625 0
M  V30 835 C 99.6908 4.16016 -1.00573 0
M  V30 836 C 99.0168 5.34104 -0.252289 0
M  V30 837 C 100.317 4.67264 -2.33371 0
M  V30 838 H 102.011 2.54271 -1.58072 0
M  V30 839 H 99.5568 1.22218 -0.76149 0
M  V30 840 H 101.51 4.20939 0.19714 0
M  V30 841 H 100.234 3.15302 0.85161 0
M  V30 842 H 98.8928 3.44223 -1.2612 0
M  V30 843 H 98.5408 4.98437 0.675988 0
M  V30 844 H 98.2408 5.81072 -0.873455 0
M  V30 845 H 99.7648 6.10599 0.0109857 0
M  V30 846 H 101.179 5.32573 -2.12223 0
M  V30 847 H 99.5758 5.24843 -2.90963 0
M  V30 848 H 100.646 3.83602 -2.96611 0
M  V30 849 N 101.989 0.842826 1.3317 0
M  V30 850 C 102.899 0.281444 2.32906 0
M  V30 851 C 103.915 -0.594587 1.63526 0
M  V30 852 O 105.091 -0.49777 1.95152 0
M  V30 853 C 102.156 -0.530929 3.42611 0
M  V30 854 C 101.217 0.369843 4.27704 0
M  V30 855 C 100.45 -0.403853 5.3217 0
M  V30 856 O 100.673 -1.63513 5.46461 0
M  V30 857 O 99.6069 0.224199 6.01482 0
M  V30 858 H 103.433 1.10744 2.82789 0
M  V30 859 H 101.018 0.60545 1.36582 0
M  V30 860 H 102.9 -0.992437 4.09547 0
M  V30 861 H 101.575 -1.33392 2.94938 0
M  V30 862 H 100.482 0.879275 3.6362 0
M  V30 863 H 101.815 1.13771 4.78871 0
M  V30 864 N 103.467 -1.45747 0.599634 0
M  V30 865 C 104.715 -2.01893 0.0915472 0
M  V30 866 C 105.036 -1.47155 -1.27946 0
M  V30 867 O 104.306 -0.66273 -1.84349 0
M  V30 868 H 102.886 -0.746363 0.0308524 0
M  V30 869 H 105.548 -1.78645 0.779237 0
M  V30 870 H 104.644 -3.1208 0.0353086 0
M  V30 871 N 104.945 -0.338344 -1.53925 0
M  V30 872 C 106.193 0.259245 -2.0043 0
M  V30 873 C 106.514 1.51484 -1.22791 0
M  V30 874 O 105.784 1.93037 -0.33368 0
M  V30 875 H 104.364 0.0987845 -0.740439 0
M  V30 876 H 107.026 -0.458302 -1.89435 0
M  V30 877 H 106.122 0.505334 -3.07982 0
M  V30 878 N 106.423 1.57458 -0.0668435 0
M  V30 879 C 107.671 1.92919 0.602214 0
M  V30 880 C 107.992 0.947215 1.70449 0
M  V30 881 O 107.262 -0.00544117 1.95899 0
M  V30 882 H 105.842 0.71217 0.22544 0
M  V30 883 H 108.504 1.94508 -0.123535 0
M  V30 884 H 107.6 2.94589 1.03073 0
M  V30 885 N 107.901 -0.206675 1.56239 0
M  V30 886 C 109.317 -0.557025 1.49564 0
M  V30 887 C 109.517 -1.86424 0.764735 0
M  V30 888 O 108.573 -2.50584 0.310491 0
M  V30 889 C 109.886 -0.622478 2.94186 0
M  V30 890 C 111.434 -0.712099 3.04792 0
M  V30 891 C 111.909 -0.808767 4.50803 0
M  V30 892 N 113.4 -0.8726 4.54907 0
M  V30 893 C 114.135 -0.967365 5.65181 0
M  V30 894 N 113.631 -1.02515 6.85173 0
M  V30 895 N 115.424 -1.00366 5.53067 0
M  V30 896 H 107.575 0.650943 2.02179 0
M  V30 897 H 109.838 0.230387 0.919579 0
M  V30 898 H 109.544 0.268727 3.50672 0
M  V30 899 H 109.418 -1.4811 3.46905 0
M  V30 900 H 111.805 -1.59374 2.48363 0
M  V30 901 H 111.886 0.172489 2.55218 0
M  V30 902 H 111.53 0.0684754 5.07854 0
M  V30 903 H 111.46 -1.70899 4.98098 0
M  V30 904 H 113.951 -0.837657 3.68499 0
M  V30 905 H 114.264 -1.09765 7.64965 0
M  V30 906 H 112.609 -0.994026 6.87855 0
M  V30 907 H 115.8 -0.95527 4.58249 0
M  V30 908 H 115.973 -1.07405 6.39037 0
M  V30 909 N 109.379 -1.50304 -0.473955 0
M  V30 910 C 110.656 -1.51667 -1.23518 0
M  V30 911 C 111.036 -0.259701 -2.09496 0
M  V30 912 O 110.384 0.756986 -2.15597 0
M  V30 913 C 110.594 -2.81082 -2.06868 0
M  V30 914 C 111.942 -3.31631 -2.65153 0
M  V30 915 O 112.966 -2.82384 -2.17113 0
M  V30 916 O 111.825 -4.17471 -3.52675 0
M  V30 917 H 108.919 -0.60822 -0.560355 0
M  V30 918 H 111.465 -1.62592 -0.486011 0
M  V30 919 H 110.237 -3.64041 -1.4349 0
M  V30 920 H 109.86 -2.73146 -2.88924 0
M  V30 921 N 110.857 0.726932 -1.39834 0
M  V30 922 C 111.767 1.87131 -1.41489 0
M  V30 923 C 112.783 1.71239 -0.308757 0
M  V30 924 O 113.959 1.93701 -0.551529 0
M  V30 925 C 111.024 3.22811 -1.26468 0
M  V30 926 C 110.085 3.51039 -2.47124 0
M  V30 927 C 109.318 4.80245 -2.3281 0
M  V30 928 O 109.541 5.54537 -1.33585 0
M  V30 929 O 108.475 5.08554 -3.21957 0
M  V30 930 H 112.301 1.8869 -2.3797 0
M  V30 931 H 109.886 0.875837 -1.21035 0
M  V30 932 H 111.768 4.03877 -1.20255 0
M  V30 933 H 110.443 3.22005 -0.330862 0
M  V30 934 H 109.35 2.70027 -2.58914 0
M  V30 935 H 110.683 3.56632 -3.39227 0
M  V30 936 N 112.336 1.25143 0.95797 0
M  V30 937 C 113.584 1.09476 1.69881 0
M  V30 938 C 113.905 -0.365502 1.91544 0
M  V30 939 O 113.175 -1.25985 1.50015 0
M  V30 940 H 111.755 0.402128 0.629525 0
M  V30 941 H 114.417 1.57214 1.15194 0
M  V30 942 H 113.513 1.60046 2.6794 0
M  V30 943 N 113.814 -1.1601 1.06675 0
M  V30 944 C 114.746 -2.20115 0.638921 0
M  V30 945 C 115.759 -1.59916 -0.305057 0
M  V30 946 O 116.948 -1.78245 -0.0954446 0
M  V30 947 C 114.048 -3.38798 -0.0830083 0
M  V30 948 C 113.221 -4.2855 0.875426 0
M  V30 949 C 112.28 -5.25849 0.192042 0
M  V30 950 O 111.306 -5.63102 0.830921 0
M  V30 951 N 112.508 -5.70648 -1.06493 0
M  V30 952 H 115.273 -2.57439 1.53444 0
M  V30 953 H 112.834 -1.31057 0.950557 0
M  V30 954 H 114.826 -4.00936 -0.550685 0
M  V30 955 H 113.396 -2.99947 -0.880386 0
M  V30 956 H 112.616 -3.63617 1.52238 0
M  V30 957 H 113.904 -4.85393 1.52548 0
M  V30 958 H 113.302 -5.42482 -1.60405 0
M  V30 959 H 111.859 -6.34859 -1.47641 0
M  V30 960 N 115.292 -0.849877 -1.32721 0
M  V30 961 C 116.708 -0.539102 -1.50219 0
M  V30 962 C 116.908 0.931271 -1.78689 0
M  V30 963 O 115.964 1.71455 -1.85363 0
M  V30 964 C 117.277 -1.42196 -2.64954 0
M  V30 965 C 118.825 -1.42189 -2.78839 0
M  V30 966 C 119.3 -2.28985 -3.96648 0
M  V30 967 N 120.791 -2.26754 -4.03902 0
M  V30 968 C 121.526 -2.90644 -4.94281 0
M  V30 969 N 121.022 -3.63629 -5.897 0
M  V30 970 N 122.815 -2.80057 -4.87365 0
M  V30 971 H 114.966 -1.80156 -1.12506 0
M  V30 972 H 117.229 -0.769217 -0.554085 0
M  V30 973 H 116.935 -2.46733 -2.50631 0
M  V30 974 H 116.809 -1.10591 -3.60624 0
M  V30 975 H 119.196 -0.38419 -2.92588 0
M  V30 976 H 119.277 -1.77807 -1.83898 0
M  V30 977 H 118.921 -3.32819 -3.83658 0
M  V30 978 H 118.851 -1.90702 -4.90857 0
M  V30 979 H 121.342 -1.73688 -3.3562 0
M  V30 980 H 121.655 -4.09558 -6.55349 0
M  V30 981 H 120 -3.67737 -5.89741 0
M  V30 982 H 123.191 -2.22593 -4.11789 0
M  V30 983 H 123.364 -3.30132 -5.57599 0
M  V30 984 N 116.77 1.45427 -0.607355 0
M  V30 985 C 118.186 1.57283 -0.270985 0
M  V30 986 C 118.386 1.59875 1.22647 0
M  V30 987 O 117.442 1.52893 2.00948 0
M  V30 988 C 118.755 2.85566 -0.941952 0
M  V30 989 C 120.303 2.9924 -0.917849 0
M  V30 990 C 120.778 4.30293 -1.56882 0
M  V30 991 N 122.269 4.37051 -1.5343 0
M  V30 992 C 123.004 5.37123 -2.00715 0
M  V30 993 N 122.5 6.43734 -2.56084 0
M  V30 994 N 124.293 5.28479 -1.91484 0
M  V30 995 H 116.444 1.41988 -1.57966 0
M  V30 996 H 118.707 0.67885 -0.661715 0
M  V30 997 H 118.413 2.8955 -1.99633 0
M  V30 998 H 118.287 3.74322 -0.465096 0
M  V30 999 H 120.674 2.94822 0.127984 0
M  V30 1000 H 120.755 2.11895 -1.43297 0
M  V30 1001 H 120.399 4.35469 -2.61398 0
M  V30 1002 H 120.329 5.16454 -1.02873 0
M  V30 1003 H 122.82 3.60615 -1.12982 0
M  V30 1004 H 123.133 7.16341 -2.89958 0
M  V30 1005 H 121.478 6.44485 -2.60122 0
M  V30 1006 H 124.669 4.44098 -1.47967 0
M  V30 1007 H 124.842 6.0632 -2.28648 0
M  V30 1008 N 118.248 0.346503 1.53744 0
M  V30 1009 C 119.476 -0.25041 2.05379 0
M  V30 1010 C 119.891 -1.43979 1.22129 0
M  V30 1011 O 119.248 -1.80677 0.257321 0
M  V30 1012 C 119.299 -0.662575 3.55376 0
M  V30 1013 O 119.02 0.479515 4.35468 0
M  V30 1014 C 120.521 -1.31989 4.23195 0
M  V30 1015 H 117.741 -0.0478198 0.669294 0
M  V30 1016 H 120.285 0.499346 1.9831 0
M  V30 1017 H 118.44 -1.36227 3.62658 0
M  V30 1018 H 118.854 0.15037 5.24284 0
M  V30 1019 H 120.328 -1.55902 5.29527 0
M  V30 1020 H 120.805 -2.27436 3.75725 0
M  V30 1021 H 121.411 -0.662154 4.20114 0
M  V30 1022 N 119.726 -1.57421 0.075193 0
M  V30 1023 C 121.137 -1.81021 -0.456964 0
M  V30 1024 C 121.488 -0.98936 -1.69429 0
M  V30 1025 O 120.613 -0.212865 -2.15351 0
M  V30 1026 C 121.208 -3.28329 -0.83581 0
M  V30 1027 C 119.767 -3.52764 -1.31281 0
M  V30 1028 C 118.914 -2.75676 -0.299648 0
M  V30 1029 H 121.865 -1.55822 0.300856 0
M  V30 1030 H 121.886 -3.40564 -1.69696 0
M  V30 1031 H 121.398 -3.88046 0.0649238 0
M  V30 1032 H 119.499 -2.98355 -2.23193 0
M  V30 1033 H 119.612 -4.61451 -1.28839 0
M  V30 1034 H 117.976 -2.42538 -0.777641 0
M  V30 1035 H 118.759 -3.38132 0.593417 0
M  V30 1036 N 121.204 0.198386 -1.56346 0
M  V30 1037 C 122.136 1.26987 -1.90806 0
M  V30 1038 C 123.149 1.41877 -0.798419 0
M  V30 1039 O 124.338 1.42362 -1.07682 0
M  V30 1040 C 121.438 2.64246 -2.12196 0
M  V30 1041 C 120.611 2.71007 -3.43328 0
M  V30 1042 C 119.67 3.89439 -3.5387 0
M  V30 1043 O 118.696 3.76695 -4.26719 0
M  V30 1044 N 119.898 5.04752 -2.86715 0
M  V30 1045 H 122.663 0.977433 -2.83313 0
M  V30 1046 H 120.224 0.388322 -1.57174 0
M  V30 1047 H 122.216 3.41896 -2.1654 0
M  V30 1048 H 120.786 2.85992 -1.26204 0
M  V30 1049 H 120.006 1.79657 -3.50881 0
M  V30 1050 H 121.294 2.72512 -4.29668 0
M  V30 1051 H 120.692 5.18004 -2.2735 0
M  V30 1052 H 119.249 5.8036 -2.96691 0
M  V30 1053 N 122.682 1.50554 0.465978 0
M  V30 1054 C 123.93 1.61479 1.21528 0
M  V30 1055 C 124.251 0.319596 1.92363 0
M  V30 1056 O 123.521 -0.663194 1.84333 0
M  V30 1057 H 122.101 0.595055 0.451573 0
M  V30 1058 H 124.763 1.87355 0.53704 0
M  V30 1059 H 123.859 2.42846 1.96042 0
M  V30 1060 N 124.16 -0.719506 1.40217 0
M  V30 1061 C 125.409 -1.47486 1.37589 0
M  V30 1062 C 125.722 -1.9559 -0.0201568 0
M  V30 1063 O 126.928 -2.70973 -0.169049 0
M  V30 1064 C 125.384 -2.66575 2.41796 0
M  V30 1065 C 124.992 -2.25358 3.87192 0
M  V30 1066 C 126.736 -3.4433 2.48269 0
M  V30 1067 C 124.643 -3.41262 4.83005 0
M  V30 1068 H 123.573 -0.553901 0.511576 0
M  V30 1069 H 126.224 -0.783427 1.65936 0
M  V30 1070 H 124.606 -3.3787 2.06543 0
M  V30 1071 H 125.78 -1.61509 4.31569 0
M  V30 1072 H 124.095 -1.60657 3.84159 0
M  V30 1073 H 126.692 -4.30569 3.17041 0
M  V30 1074 H 127.035 -3.87872 1.51198 0
M  V30 1075 H 127.568 -2.80076 2.82493 0
M  V30 1076 H 124.307 -3.02755 5.81394 0
M  V30 1077 H 123.827 -4.0404 4.43297 0
M  V30 1078 H 125.506 -4.07383 5.02641 0
M  V30 1079 N 125.638 -1.25649 -0.95132 0
M  V30 1080 C 126.886 -1.10375 -1.69298 0
M  V30 1081 C 127.207 0.355339 -1.91735 0
M  V30 1082 O 126.477 1.25188 -1.50681 0
M  V30 1083 H 125.057 -0.405461 -0.627384 0
M  V30 1084 H 127.719 -1.57823 -1.14358 0
M  V30 1085 H 126.815 -1.61465 -2.67087 0
M  V30 1086 N 127.117 1.15442 -1.07289 0
M  V30 1087 C 128.047 2.22312 -0.714107 0
M  V30 1088 C 129.028 1.67467 0.298155 0
M  V30 1089 O 130.213 1.93445 0.171048 0
M  V30 1090 C 127.343 3.47124 -0.110448 0
M  V30 1091 C 126.297 4.14926 -1.04979 0
M  V30 1092 C 125.623 5.33807 -0.308924 0
M  V30 1093 C 126.923 4.64762 -2.38314 0
M  V30 1094 H 128.617 2.5258 -1.6076 0
M  V30 1095 H 126.163 1.21404 -0.77441 0
M  V30 1096 H 128.116 4.21124 0.152482 0
M  V30 1097 H 126.84 3.16187 0.81812 0
M  V30 1098 H 125.499 3.42866 -1.29764 0
M  V30 1099 H 125.147 4.99126 0.623084 0
M  V30 1100 H 124.847 5.80113 -0.935036 0
M  V30 1101 H 126.371 6.10576 -0.0537771 0
M  V30 1102 H 127.785 5.30292 -2.1786 0
M  V30 1103 H 126.182 5.21728 -2.96514 0
M  V30 1104 H 127.252 3.80434 -3.00663 0
M  V30 1105 N 128.595 0.856903 1.32268 0
M  V30 1106 C 129.525 0.31858 2.31316 0
M  V30 1107 C 130.506 -0.583487 1.59779 0
M  V30 1108 O 131.691 -0.503259 1.87566 0
M  V30 1109 C 128.821 -0.491979 3.43798 0
M  V30 1110 C 127.775 0.315849 4.26833 0
M  V30 1111 C 127.101 -0.619586 5.31098 0
M  V30 1112 C 128.401 1.54282 4.98993 0
M  V30 1113 H 130.095 1.14621 2.76591 0
M  V30 1114 H 127.641 0.552613 1.32974 0
M  V30 1115 H 129.594 -0.879012 4.1213 0
M  V30 1116 H 128.318 -1.35299 2.97257 0
M  V30 1117 H 126.977 0.684664 3.6015 0
M  V30 1118 H 126.625 -1.47751 4.8081 0
M  V30 1119 H 126.325 -0.0830621 5.87541 0
M  V30 1120 H 127.849 -1.00375 6.02293 0
M  V30 1121 H 129.263 1.22796 5.59995 0
M  V30 1122 H 127.66 2.01745 5.65172 0
M  V30 1123 H 128.73 2.30285 4.26728 0
M  V30 1124 N 130.073 -1.45103 0.615059 0
M  V30 1125 C 131.036 -2.29025 -0.0895485 0
M  V30 1126 C 132.036 -1.40174 -0.787906 0
M  V30 1127 O 133.226 -1.62217 -0.634933 0
M  V30 1128 C 130.358 -3.21376 -1.13711 0
M  V30 1129 H 131.551 -2.92807 0.648382 0
M  V30 1130 H 129.104 -1.51749 0.374444 0
M  V30 1131 H 129.839 -2.6241 -1.90556 0
M  V30 1132 H 129.624 -3.86834 -0.640475 0
M  V30 1133 H 131.114 -3.84459 -1.63036 0
M  V30 1134 N 131.551 -0.354651 -1.53558 0
M  V30 1135 C 132.498 0.496968 -2.25386 0
M  V30 1136 C 133.468 1.0865 -1.25636 0
M  V30 1137 O 134.653 1.12104 -1.54394 0
M  V30 1138 C 131.793 1.63637 -3.03837 0
M  V30 1139 C 130.906 1.07307 -4.18461 0
M  V30 1140 C 130.041 2.18068 -4.84376 0
M  V30 1141 C 129.08 1.59147 -5.91049 0
M  V30 1142 N 128.217 2.63695 -6.50699 0
M  V30 1143 H 133.057 -0.122075 -2.9775 0
M  V30 1144 H 130.594 -0.0720154 -1.46924 0
M  V30 1145 H 132.552 2.30734 -3.47589 0
M  V30 1146 H 131.182 2.22623 -2.33749 0
M  V30 1147 H 130.234 0.292708 -3.79272 0
M  V30 1148 H 131.546 0.602193 -4.95152 0
M  V30 1149 H 130.7 2.93007 -5.31255 0
M  V30 1150 H 129.439 2.68504 -4.07133 0
M  V30 1151 H 128.444 0.827175 -5.43542 0
M  V30 1152 H 129.669 1.09549 -6.70206 0
M  V30 1153 H 127.615 3.13365 -5.76315 0
M  V30 1154 H 127.532 2.21263 -7.22896 0
M  V30 1155 H 128.8 3.3837 -7.02229 0
M  V30 1156 N 133.029 1.57378 -0.0835403 0
M  V30 1157 C 134.257 1.98263 0.59157 0
M  V30 1158 C 134.672 0.962302 1.62435 0
M  V30 1159 O 134.029 -0.049581 1.82433 0
M  V30 1160 C 134.08 3.39214 1.24965 0
M  V30 1161 O 133.801 4.37339 0.258186 0
M  V30 1162 C 135.302 3.95038 2.01147 0
M  V30 1163 H 132.522 0.651773 0.159477 0
M  V30 1164 H 135.066 2.03878 -0.159415 0
M  V30 1165 H 133.221 3.34649 1.95164 0
M  V30 1166 H 133.635 5.19371 0.731734 0
M  V30 1167 H 135.109 4.95848 2.42567 0
M  V30 1168 H 135.586 3.32222 2.87272 0
M  V30 1169 H 136.192 4.0304 1.35789 0
M  V30 1170 N 134.507 -0.190092 1.56449 0
M  V30 1171 C 135.918 -0.754312 1.70784 0
M  V30 1172 C 136.269 -1.83631 0.690951 0
M  V30 1173 O 135.394 -2.15868 -0.151604 0
M  V30 1174 C 135.989 -1.37503 3.09642 0
M  V30 1175 C 134.548 -1.88628 3.25725 0
M  V30 1176 C 133.695 -0.758098 2.66736 0
M  V30 1177 H 136.646 0.0350524 1.58661 0
M  V30 1178 H 136.667 -2.2445 3.0725 0
M  V30 1179 H 136.179 -0.587302 3.83631 0
M  V30 1180 H 134.28 -2.70103 2.56661 0
M  V30 1181 H 134.393 -2.04462 4.3328 0
M  V30 1182 H 132.757 -1.17369 2.26046 0
M  V30 1183 H 133.54 0.0174705 3.43296 0
M  V30 1184 N 135.985 -1.50799 -0.457987 0
M  V30 1185 C 136.915 -1.73553 -1.5621 0
M  V30 1186 C 137.896 -0.584774 -1.59732 0
M  V30 1187 O 139.081 -0.825314 -1.7579 0
M  V30 1188 C 136.211 -1.84169 -2.94447 0
M  V30 1189 C 135.165 -2.99461 -3.0579 0
M  V30 1190 C 134.491 -2.95235 -4.45803 0
M  V30 1191 C 135.791 -4.39766 -2.81786 0
M  V30 1192 H 137.485 -2.66 -1.37421 0
M  V30 1193 H 135.031 -1.28002 -0.659662 0
M  V30 1194 H 136.984 -1.98672 -3.71628 0
M  V30 1195 H 135.708 -0.883545 -3.14422 0
M  V30 1196 H 134.367 -2.8463 -2.31044 0
M  V30 1197 H 134.015 -1.97239 -4.62715 0
M  V30 1198 H 133.715 -3.72642 -4.54326 0
M  V30 1199 H 135.239 -3.11803 -5.24987 0
M  V30 1200 H 136.653 -4.55054 -3.4871 0
M  V30 1201 H 135.05 -5.18722 -3.0174 0
M  V30 1202 H 136.12 -4.51229 -1.7754 0
M  V30 1203 N 137.463 0.71206 -1.40597 0
M  V30 1204 C 138.688 1.50617 -1.42581 0
M  V30 1205 C 139.113 1.88079 -0.0282102 0
M  V30 1206 O 138.471 1.53511 0.964579 0
M  V30 1207 C 138.519 2.7557 -2.3258 0
M  V30 1208 O 137.623 3.72414 -1.77148 0
M  V30 1209 H 136.964 0.453966 -0.484573 0
M  V30 1210 H 139.494 0.876649 -1.84868 0
M  V30 1211 H 139.504 3.2406 -2.47889 0
M  V30 1212 H 138.179 2.47639 -3.34138 0
M  V30 1213 H 136.756 3.31276 -1.71204 0
M  V30 1214 N 138.941 1.26152 0.944643 0
M  V30 1215 C 140.357 1.03189 1.21754 0
M  V30 1216 C 140.557 -0.245112 2.00004 0
M  V30 1217 O 139.613 -0.955176 2.33736 0
M  V30 1218 C 140.926 2.26119 1.98219 0
M  V30 1219 C 142.474 2.30984 2.11224 0
M  V30 1220 C 142.949 3.53597 2.91089 0
M  V30 1221 N 144.44 3.54053 2.98664 0
M  V30 1222 C 145.175 4.45593 3.60881 0
M  V30 1223 N 144.671 5.47416 4.24626 0
M  V30 1224 N 146.464 4.33252 3.58119 0
M  V30 1225 H 138.615 2.08177 0.421437 0
M  V30 1226 H 140.878 0.914723 0.248969 0
M  V30 1227 H 140.584 3.18984 1.48128 0
M  V30 1228 H 140.458 2.3009 2.98895 0
M  V30 1229 H 142.845 1.38635 2.60508 0
M  V30 1230 H 142.926 2.31026 1.09821 0
M  V30 1231 H 142.57 4.46273 2.42493 0
M  V30 1232 H 142.5 3.50802 3.92741 0
M  V30 1233 H 144.991 2.80403 2.53343 0
M  V30 1234 H 145.304 6.13459 4.69987 0
M  V30 1235 H 143.649 5.51278 4.23223 0
M  V30 1236 H 146.84 3.52924 3.0751 0
M  V30 1237 H 147.013 5.04786 4.06319 0
M  V30 1238 N 140.419 -1.14872 1.07899 0
M  V30 1239 C 141.83 -1.67367 0.827363 0
M  V30 1240 C 142.181 -1.85236 -0.646693 0
M  V30 1241 O 141.306 -1.55974 -1.50004 0
M  V30 1242 C 141.901 -3.04016 1.49532 0
M  V30 1243 C 140.46 -3.53566 1.29106 0
M  V30 1244 C 139.607 -2.29161 1.56143 0
M  V30 1245 H 142.558 -0.990083 1.24028 0
M  V30 1246 H 142.579 -3.69219 0.919643 0
M  V30 1247 H 142.091 -2.90978 2.56814 0
M  V30 1248 H 140.192 -3.71835 0.238713 0
M  V30 1249 H 140.305 -4.34661 2.01511 0
M  V30 1250 H 138.669 -2.34978 0.982717 0
M  V30 1251 H 139.452 -2.18705 2.64619 0
M  V30 1252 N 141.898 -0.863906 -1.31812 0
M  V30 1253 C 143.144 -0.472535 -1.97218 0
M  V30 1254 C 143.477 0.971394 -1.68159 0
M  V30 1255 O 142.752 1.68309 -0.974798 0
M  V30 1256 C 143.035 -0.723054 -3.52766 0
M  V30 1257 C 142.888 -2.21608 -3.91421 0
M  V30 1258 C 144.207 -0.185522 -4.39709 0
M  V30 1259 H 141.326 -0.173158 -0.71637 0
M  V30 1260 H 143.968 -1.08403 -1.56041 0
M  V30 1261 H 142.118 -0.202577 -3.87971 0
M  V30 1262 H 143.79 -2.80334 -3.66347 0
M  V30 1263 H 142.033 -2.691 -3.40246 0
M  V30 1264 H 142.704 -2.34203 -4.99853 0
M  V30 1265 H 145.18 -0.630726 -4.11292 0
M  V30 1266 H 144.056 -0.390306 -5.47511 0
M  V30 1267 H 144.317 0.912229 -4.32586 0
M  V30 1268 N 143.376 1.44774 -0.622745 0
M  V30 1269 C 144.323 2.30635 0.0871679 0
M  V30 1270 C 145.293 1.42994 0.845097 0
M  V30 1271 O 146.478 1.71907 0.827812 0
M  V30 1272 C 143.618 3.28144 1.06844 0
M  V30 1273 C 142.731 4.30888 0.309809 0
M  V30 1274 C 141.866 5.15494 1.28215 0
M  V30 1275 C 140.905 6.09953 0.512198 0
M  V30 1276 N 140.042 6.87287 1.43458 0
M  V30 1277 H 144.882 2.90803 -0.650974 0
M  V30 1278 H 142.419 1.43286 -0.33281 0
M  V30 1279 H 144.377 3.83157 1.65066 0
M  V30 1280 H 143.007 2.69695 1.77382 0
M  V30 1281 H 142.059 3.78414 -0.388181 0
M  V30 1282 H 143.371 4.97955 -0.290254 0
M  V30 1283 H 142.525 5.74983 1.93596 0
M  V30 1284 H 141.264 4.48481 1.91614 0
M  V30 1285 H 140.269 5.49581 -0.155151 0
M  V30 1286 H 141.494 6.78999 -0.116958 0
M  V30 1287 H 139.44 6.2295 2.05594 0
M  V30 1288 H 139.357 7.50763 0.888335 0
M  V30 1289 H 140.625 7.51306 2.07749 0
M  V30 1290 N 144.854 0.36279 1.53368 0
M  V30 1291 C 146.27 0.0116182 1.59596 0
M  V30 1292 C 146.47 -1.47012 1.37803 0
M  V30 1293 O 145.526 -2.23136 1.18181 0
M  V30 1294 C 146.839 0.465052 2.97082 0
M  V30 1295 C 148.387 0.419033 3.10182 0
M  V30 1296 C 148.862 0.848235 4.50077 0
M  V30 1297 N 150.353 0.803183 4.56183 0
M  V30 1298 C 151.088 1.107 5.62613 0
M  V30 1299 N 150.584 1.47996 6.76808 0
M  V30 1300 N 152.377 1.02998 5.52583 0
M  V30 1301 H 144.528 1.32775 1.65785 0
M  V30 1302 H 146.791 0.542518 0.777417 0
M  V30 1303 H 146.497 1.49892 3.18159 0
M  V30 1304 H 146.371 -0.149786 3.76902 0
M  V30 1305 H 148.758 -0.605696 2.88817 0
M  V30 1306 H 148.839 1.06933 2.32377 0
M  V30 1307 H 148.483 1.87107 4.7218 0
M  V30 1308 H 148.413 0.175218 5.26308 0
M  V30 1309 H 150.904 0.52838 3.74188 0
M  V30 1310 H 151.217 1.69613 7.53957 0
M  V30 1311 H 149.562 1.51859 6.78206 0
M  V30 1312 H 152.753 0.737817 4.62249 0
M  V30 1313 H 152.926 1.2701 6.35431 0
M  V30 1314 N 146.332 -1.57332 0.0918853 0
M  V30 1315 C 147.28 -2.15075 -0.885747 0
M  V30 1316 C 148.274 -1.09277 -1.29441 0
M  V30 1317 O 149.48 -1.27627 -1.26931 0
M  V30 1318 H 145.855 -0.687966 -0.303656 0
M  V30 1319 H 147.826 -2.96047 -0.373995 0
M  V30 1320 C 146.575 -2.74325 -2.13638 0
M  V30 1321 H 145.898 -3.55418 -1.8308 0
M  V30 1322 H 147.338 -3.183 -2.80109 0
M  V30 1323 C 145.797 -1.70062 -2.90827 0
M  V30 1324 O 146.327 -1.13763 -3.85254 0
M  V30 1325 N 144.533 -1.40628 -2.54307 0
M  V30 1326 H 144.08 -1.866 -1.7759 0
M  V30 1327 H 144.038 -0.711043 -3.06254 0
M  V30 1328 N 147.81 0.181792 -1.56548 0
M  V30 1329 C 148.758 1.24461 -1.965 0
M  V30 1330 C 149.752 1.464 -0.852261 0
M  V30 1331 O 150.958 1.47103 -1.03733 0
M  V30 1332 H 147.333 0.418138 -0.625031 0
M  V30 1333 H 149.304 0.880714 -2.85107 0
M  V30 1334 C 148.053 2.57891 -2.33212 0
M  V30 1335 H 147.376 2.41829 -3.18369 0
M  V30 1336 H 148.816 3.3097 -2.65019 0
M  V30 1337 C 147.275 3.15871 -1.17163 0
M  V30 1338 O 147.805 3.9913 -0.453708 0
M  V30 1339 N 146.011 2.74808 -0.944936 0
M  V30 1340 H 145.558 2.07205 -1.53049 0
M  V30 1341 H 145.516 3.13939 -0.170286 0
M  V30 1342 N 149.288 1.51039 0.449983 0
M  V30 1343 C 150.251 1.70863 1.5277 0
M  V30 1344 C 151.251 0.578846 1.5002 0
M  V30 1345 O 152.441 0.846213 1.52266 0
M  V30 1346 C 149.573 1.75341 2.9235 0
M  V30 1347 H 150.766 2.67034 1.36502 0
M  V30 1348 H 148.319 1.40838 0.677812 0
M  V30 1349 H 149.054 0.809383 3.14037 0
M  V30 1350 H 148.839 2.57436 2.95752 0
M  V30 1351 H 150.329 1.92559 3.70555 0
M  V30 1352 N 150.766 -0.704594 1.40972 0
M  V30 1353 C 151.713 -1.81862 1.42109 0
M  V30 1354 C 152.683 -1.63781 0.276593 0
M  V30 1355 O 153.868 -1.84759 0.4763 0
M  V30 1356 C 151.008 -3.19669 1.30022 0
M  V30 1357 C 150.121 -3.49246 2.54267 0
M  V30 1358 C 149.256 -4.76618 2.3454 0
M  V30 1359 C 148.295 -4.99133 3.54306 0
M  V30 1360 N 147.432 -6.17726 3.33706 0
M  V30 1361 H 152.272 -1.80226 2.37324 0
M  V30 1362 H 149.809 -0.880238 1.17857 0
M  V30 1363 H 151.767 -3.99263 1.21018 0
M  V30 1364 H 150.397 -3.20506 0.384192 0
M  V30 1365 H 149.449 -2.64125 2.73756 0
M  V30 1366 H 150.761 -3.61788 3.43381 0
M  V30 1367 H 149.915 -5.64249 2.22952 0
M  V30 1368 H 148.654 -4.66305 1.42867 0
M  V30 1369 H 147.659 -4.09953 3.66359 0
M  V30 1370 H 148.884 -5.11311 4.4692 0
M  V30 1371 H 146.83 -6.08642 2.44725 0
M  V30 1372 H 146.747 -6.30995 4.16391 0
M  V30 1373 H 148.015 -7.08115 3.25873 0
M  V30 1374 N 152.244 -1.26651 -0.937939 0
M  V30 1375 C 153.474 -1.15006 -1.71631 0
M  V30 1376 C 153.882 0.297026 -1.86854 0
M  V30 1377 O 153.225 1.21493 -1.37786 0
M  V30 1378 C 153.287 -1.74984 -3.14039 0
M  V30 1379 C 152.951 -3.24103 -3.2219 0
M  V30 1380 C 153.948 -4.20877 -3.05219 0
M  V30 1381 C 151.633 -3.64625 -3.45476 0
M  V30 1382 C 153.627 -5.56151 -3.11408 0
M  V30 1383 C 151.314 -5.00032 -3.513 0
M  V30 1384 C 152.312 -5.95604 -3.34282 0
M  V30 1385 O 152 -7.28545 -3.3982 0
M  V30 1386 H 151.732 -0.401183 -0.544085 0
M  V30 1387 H 154.286 -1.67832 -1.18413 0
M  V30 1388 H 152.516 -1.16624 -3.68695 0
M  V30 1389 H 154.205 -1.58199 -3.73802 0
M  V30 1390 H 154.971 -3.90908 -2.87081 0
M  V30 1391 H 150.85 -2.90718 -3.57777 0
M  V30 1392 H 154.394 -6.30727 -2.98043 0
M  V30 1393 H 150.291 -5.29659 -3.68959 0
M  V30 1394 H 151.059 -7.3686 -3.56343 0
M  V30 1395 N 153.722 1.14298 -1.08507 0
M  V30 1396 C 155.138 1.37347 -0.812901 0
M  V30 1397 C 155.338 1.93052 0.577325 0
M  V30 1398 O 154.394 2.14389 1.33393 0
M  V30 1399 C 155.707 2.33359 -1.89642 0
M  V30 1400 C 157.255 2.46996 -1.92255 0
M  V30 1401 C 157.73 3.46309 -2.99724 0
M  V30 1402 N 159.221 3.53853 -2.98902 0
M  V30 1403 C 159.956 4.3055 -3.787 0
M  V30 1404 N 159.452 5.10482 -4.6838 0
M  V30 1405 N 161.245 4.25757 -3.66998 0
M  V30 1406 H 153.396 0.764867 -1.9815 0
M  V30 1407 H 155.659 0.398966 -0.859959 0
M  V30 1408 H 155.365 1.99565 -2.89597 0
M  V30 1409 H 155.239 3.33274 -1.76659 0
M  V30 1410 H 157.626 2.80081 -0.929445 0
M  V30 1411 H 157.707 1.47039 -2.09316 0
M  V30 1412 H 157.351 3.13957 -3.99241 0
M  V30 1413 H 157.281 4.46049 -2.79907 0
M  V30 1414 H 159.772 2.96812 -2.33904 0
M  V30 1415 H 160.085 5.66284 -5.25873 0
M  V30 1416 H 158.43 5.09747 -4.72422 0
M  V30 1417 H 161.621 3.62383 -2.96304 0
M  V30 1418 H 161.794 4.85279 -4.29427 0
M  V30 1419 N 155.201 0.870884 1.31352 0
M  V30 1420 C 156.617 0.562932 1.49343 0
M  V30 1421 C 156.817 -0.902725 1.80148 0
M  V30 1422 O 155.873 -1.68484 1.88067 0
M  V30 1423 C 157.186 1.46393 2.62659 0
M  V30 1424 C 158.734 1.46607 2.76542 0
M  V30 1425 C 159.209 2.35266 3.92955 0
M  V30 1426 N 160.7 2.33151 4.00243 0
M  V30 1427 C 161.435 2.98471 4.89594 0
M  V30 1428 N 160.931 3.72964 5.8384 0
M  V30 1429 N 162.724 2.87775 4.82848 0
M  V30 1430 H 154.875 1.81923 1.09626 0
M  V30 1431 H 157.138 0.777934 0.541777 0
M  V30 1432 H 156.844 2.50689 2.46674 0
M  V30 1433 H 156.718 1.16314 3.58819 0
M  V30 1434 H 159.105 0.43069 2.9194 0
M  V30 1435 H 159.186 1.8071 1.81046 0
M  V30 1436 H 158.83 3.38881 3.78315 0
M  V30 1437 H 158.76 1.98487 4.87761 0
M  V30 1438 H 161.251 1.79006 3.32814 0
M  V30 1439 H 161.564 4.19932 6.4875 0
M  V30 1440 H 159.909 3.77073 5.83816 0
M  V30 1441 H 163.1 2.29116 4.08195 0
M  V30 1442 H 163.273 3.38961 5.52277 0
M  V30 1443 N 156.679 -1.44442 0.630414 0
M  V30 1444 C 157.928 -2.01267 0.132073 0
M  V30 1445 C 158.241 -1.50172 -1.25331 0
M  V30 1446 O 159.447 -1.9912 -1.84562 0
M  V30 1447 C 157.903 -3.59422 0.185362 0
M  V30 1448 C 157.511 -4.19514 1.57201 0
M  V30 1449 C 159.255 -4.23724 -0.256553 0
M  V30 1450 C 157.162 -5.69891 1.58045 0
M  V30 1451 H 156.092 -0.752619 0.0456092 0
M  V30 1452 H 158.743 -1.65666 0.789106 0
M  V30 1453 H 157.125 -3.92318 -0.538759 0
M  V30 1454 H 158.299 -3.98156 2.31966 0
M  V30 1455 H 156.614 -3.67496 1.95795 0
M  V30 1456 H 159.211 -5.34019 -0.269767 0
M  V30 1457 H 159.554 -3.96013 -1.28372 0
M  V30 1458 H 160.087 -3.95629 0.41505 0
M  V30 1459 H 156.826 -6.02336 2.58597 0
M  V30 1460 H 156.346 -5.93373 0.875725 0
M  V30 1461 H 158.025 -6.33515 1.31408 0
M  V30 1462 N 158.157 -0.370918 -1.53173 0
M  V30 1463 C 159.089 0.507823 -2.23503 0
M  V30 1464 C 160.102 1.04182 -1.251 0
M  V30 1465 O 161.291 0.947286 -1.5129 0
M  V30 1466 C 158.391 1.71447 -2.92334 0
M  V30 1467 C 157.564 1.31105 -4.17289 0
M  V30 1468 C 156.623 2.38035 -4.69282 0
M  V30 1469 O 155.649 2.00204 -5.32829 0
M  V30 1470 N 156.851 3.69697 -4.47554 0
M  V30 1471 H 159.616 -0.0946382 -2.99551 0
M  V30 1472 H 157.177 -0.196358 -1.60705 0
M  V30 1473 H 159.169 2.42469 -3.24023 0
M  V30 1474 H 157.739 2.22368 -2.19707 0
M  V30 1475 H 156.959 0.430462 -3.91843 0
M  V30 1476 H 158.247 1.0179 -4.98514 0
M  V30 1477 H 157.645 4.03205 -3.9679 0
M  V30 1478 H 156.202 4.36807 -4.8378 0
M  V30 1479 N 159.635 1.57281 -0.100228 0
M  V30 1480 C 160.863 1.98879 0.570509 0
M  V30 1481 C 161.278 0.979476 1.61405 0
M  V30 1482 O 160.635 -0.0302288 1.82475 0
M  V30 1483 C 160.686 3.4052 1.2136 0
M  V30 1484 O 160.407 4.37588 0.211786 0
M  V30 1485 C 161.908 3.97149 1.96945 0
M  V30 1486 H 159.128 0.653428 0.152555 0
M  V30 1487 H 161.672 2.03697 -0.18103 0
M  V30 1488 H 159.827 3.367 1.91603 0
M  V30 1489 H 160.241 5.20118 0.676607 0
M  V30 1490 H 161.715 4.98393 2.37294 0
M  V30 1491 H 162.192 3.3525 2.83733 0
M  V30 1492 H 162.798 4.04458 1.31506 0
M  V30 1493 N 161.113 -0.173488 1.56642 0
M  V30 1494 C 162.043 -1.2171 1.99271 0
M  V30 1495 C 163.024 -1.46289 0.867959 0
M  V30 1496 O 164.209 -1.5766 1.13388 0
M  V30 1497 C 161.339 -2.55651 2.35074 0
M  V30 1498 C 160.293 -2.45645 3.50489 0
M  V30 1499 C 159.619 -3.84056 3.72028 0
M  V30 1500 C 160.919 -1.96302 4.84007 0
M  V30 1501 H 162.613 -0.86275 2.867 0
M  V30 1502 H 160.159 -0.413571 1.37933 0
M  V30 1503 H 162.112 -3.2886 2.63494 0
M  V30 1504 H 160.836 -2.92869 1.44552 0
M  V30 1505 H 159.495 -1.7489 3.22194 0
M  V30 1506 H 159.143 -4.18664 2.788 0
M  V30 1507 H 158.843 -3.7823 4.49684 0
M  V30 1508 H 160.367 -4.58854 4.02846 0
M  V30 1509 H 161.781 -2.59284 5.11317 0
M  V30 1510 H 160.178 -2.01429 5.65284 0
M  V30 1511 H 161.248 -0.917226 4.76146 0
M  V30 1512 N 162.591 -1.51276 -0.441967 0
M  V30 1513 C 163.84 -1.6295 -1.18871 0
M  V30 1514 C 164.153 -0.349312 -1.92456 0
M  V30 1515 O 165.359 -0.345355 -2.69295 0
M  V30 1516 C 163.815 -2.87759 -2.16155 0
M  V30 1517 C 163.423 -4.22764 -1.48239 0
M  V30 1518 C 165.167 -3.08788 -2.91291 0
M  V30 1519 C 163.074 -5.38728 -2.4398 0
M  V30 1520 H 162.004 -0.606913 -0.447406 0
M  V30 1521 H 164.655 -1.77739 -0.456205 0
M  V30 1522 H 163.037 -2.66593 -2.92821 0
M  V30 1523 H 164.211 -4.54293 -0.771635 0
M  V30 1524 H 162.526 -4.07575 -0.852741 0
M  V30 1525 H 165.123 -3.92599 -3.63002 0
M  V30 1526 H 165.466 -2.21679 -3.5237 0
M  V30 1527 H 165.999 -3.30272 -2.21733 0
M  V30 1528 H 162.738 -6.28082 -1.87598 0
M  V30 1529 H 162.258 -5.1158 -3.13123 0
M  V30 1530 H 163.937 -5.70489 -3.05207 0
M  V30 1531 N 164.069 0.697108 -1.41344 0
M  V30 1532 C 165.299 1.48377 -1.43763 0
M  V30 1533 C 165.707 1.89156 -0.0408726 0
M  V30 1534 O 165.05 1.57239 0.949812 0
M  V30 1535 C 165.112 2.7781 -2.2817 0
M  V30 1536 C 164.776 2.59244 -3.76353 0
M  V30 1537 C 165.773 2.25292 -4.68551 0
M  V30 1538 C 163.458 2.74933 -4.20378 0
M  V30 1539 C 165.452 2.07264 -6.02761 0
M  V30 1540 C 163.139 2.56521 -5.54653 0
M  V30 1541 C 164.137 2.22737 -6.4566 0
M  V30 1542 O 163.825 2.04485 -7.77458 0
M  V30 1543 H 163.557 0.463842 -0.491759 0
M  V30 1544 H 166.111 0.865934 -1.86255 0
M  V30 1545 H 164.341 3.41995 -1.8049 0
M  V30 1546 H 166.03 3.39608 -2.22309 0
M  V30 1547 H 166.796 2.12787 -4.35829 0
M  V30 1548 H 162.675 3.00213 -3.49848 0
M  V30 1549 H 166.219 1.80817 -6.73759 0
M  V30 1550 H 162.116 2.68616 -5.86955 0
M  V30 1551 H 162.884 2.1926 -7.88586 0
M  V30 1552 N 165.547 1.27147 0.931209 0
M  V30 1553 C 166.824 1.0401 1.65654 0
M  V30 1554 C 167.204 -0.426297 2.06751 0
M  V30 1555 O 166.552 -1.40879 1.79904 0
M  V30 1556 C 166.762 1.99834 2.86125 0
M  V30 1557 C 168.11 2.29007 3.57549 0
M  V30 1558 O 169.134 1.97779 2.96246 0
M  V30 1559 O 167.993 2.82222 4.67989 0
M  V30 1560 H 165.087 0.396239 0.725895 0
M  V30 1561 H 167.633 1.38397 0.982056 0
M  V30 1562 H 166.405 2.98744 2.52721 0
M  V30 1563 H 166.028 1.65987 3.61295 0
M  V30 1564 N 167.025 -1.13721 1.09112 0
M  V30 1565 C 167.988 -2.17222 0.731241 0
M  V30 1566 C 168.988 -1.59035 -0.237566 0
M  V30 1567 O 170.178 -1.74192 -0.0161704 0
M  V30 1568 C 167.31 -3.40804 0.0808443 0
M  V30 1569 H 168.503 -2.50573 1.64783 0
M  V30 1570 H 166.056 -1.28493 0.889897 0
M  V30 1571 H 166.791 -3.1304 -0.847127 0
M  V30 1572 H 166.576 -3.84306 0.777896 0
M  V30 1573 H 168.066 -4.1731 -0.155657 0
M  V30 1574 N 168.503 -0.877838 -1.30888 0
M  V30 1575 C 169.433 -0.35534 -2.3078 0
M  V30 1576 C 170.414 0.557994 -1.60687 0
M  V30 1577 O 171.599 0.473355 -1.88343 0
M  V30 1578 C 168.729 0.437221 -3.44537 0
M  V30 1579 C 167.683 -0.383715 -4.26276 0
M  V30 1580 C 167.009 0.535014 -5.32017 0
M  V30 1581 C 168.309 -1.62201 -4.96476 0
M  V30 1582 H 170.003 -1.19007 -2.74732 0
M  V30 1583 H 167.549 -0.573698 -1.32078 0
M  V30 1584 H 169.502 0.813334 -4.13477 0
M  V30 1585 H 168.226 1.30553 -2.99372 0
M  V30 1586 H 166.885 -0.741874 -3.59015 0
M  V30 1587 H 166.533 1.40083 -4.831 0
M  V30 1588 H 166.233 -0.0104211 -5.87599 0
M  V30 1589 H 167.757 0.907799 -6.03814 0
M  V30 1590 H 169.171 -1.31689 -5.5797 0
M  V30 1591 H 167.568 -2.10711 -5.61891 0
M  V30 1592 H 168.638 -2.37044 -4.23011 0
M  V30 1593 N 169.982 1.44106 -0.638065 0
M  V30 1594 C 170.892 2.34513 0.0637334 0
M  V30 1595 C 171.908 1.53018 0.828346 0
M  V30 1596 O 173.084 1.85723 0.779036 0
M  V30 1597 C 170.149 3.31095 1.02844 0
M  V30 1598 C 169.21 4.28497 0.26244 0
M  V30 1599 C 168.443 5.20465 1.1812 0
M  V30 1600 O 168.666 5.16514 2.42011 0
M  V30 1601 O 167.6 5.98251 0.661774 0
M  V30 1602 H 171.426 2.95989 -0.68003 0
M  V30 1603 H 169.011 1.43994 -0.398252 0
M  V30 1604 H 170.893 3.90526 1.58327 0
M  V30 1605 H 169.568 2.72144 1.7527 0
M  V30 1606 H 168.475 3.72592 -0.335602 0
M  V30 1607 H 169.808 4.90388 -0.421936 0
M  V30 1608 N 171.46 0.379036 1.52974 0
M  V30 1609 C 172.876 0.0285448 1.59574 0
M  V30 1610 C 173.076 -1.45542 1.39355 0
M  V30 1611 O 172.132 -2.2187 1.20541 0
M  V30 1612 C 173.445 0.496535 2.96572 0
M  V30 1613 C 174.993 0.451909 3.0972 0
M  V30 1614 C 175.468 0.895924 4.49152 0
M  V30 1615 N 176.959 0.851522 4.55306 0
M  V30 1616 C 177.694 1.16661 5.61407 0
M  V30 1617 N 177.19 1.55166 6.752 0
M  V30 1618 N 178.983 1.08853 5.51459 0
M  V30 1619 H 171.134 1.34525 1.64367 0
M  V30 1620 H 173.397 0.550733 0.771619 0
M  V30 1621 H 173.103 1.53258 3.16552 0
M  V30 1622 H 172.977 -0.109802 3.7704 0
M  V30 1623 H 175.364 -0.575029 2.89443 0
M  V30 1624 H 175.445 1.09392 2.3123 0
M  V30 1625 H 175.089 1.92104 4.70168 0
M  V30 1626 H 175.019 0.23103 5.26093 0
M  V30 1627 H 177.51 0.568038 3.73606 0
M  V30 1628 H 177.823 1.776 7.52116 0
M  V30 1629 H 176.168 1.59044 6.76557 0
M  V30 1630 H 179.359 0.786803 4.6144 0
M  V30 1631 H 179.532 1.33742 6.34048 0
M  V30 1632 N 172.938 -1.57226 0.108567 0
M  V30 1633 C 174.349 -1.8195 -0.418464 0
M  V30 1634 C 174.7 -1.02508 -1.67292 0
M  V30 1635 O 173.825 -0.258496 -2.14851 0
M  V30 1636 C 174.42 -3.30028 -0.765979 0
M  V30 1637 C 172.979 -3.55469 -1.23769 0
M  V30 1638 C 172.126 -2.7625 -0.241106 0
M  V30 1639 H 175.077 -1.55149 0.33384 0
M  V30 1640 H 175.098 -3.44086 -1.62434 0
M  V30 1641 H 174.61 -3.87821 0.147219 0
M  V30 1642 H 172.711 -3.03022 -2.16814 0
M  V30 1643 H 172.824 -4.6408 -1.19022 0
M  V30 1644 H 171.188 -2.44133 -0.72602 0
M  V30 1645 H 171.971 -3.36797 0.665007 0
M  V30 1646 N 174.416 0.165178 -1.56732 0
M  V30 1647 C 175.832 0.517174 -1.50988 0
M  V30 1648 C 176.032 1.84331 -0.813894 0
M  V30 1649 O 175.088 2.49672 -0.37682 0
M  V30 1650 C 176.401 0.544261 -2.95733 0
M  V30 1651 C 177.949 0.631039 -3.06573 0
M  V30 1652 C 178.424 0.68896 -4.52788 0
M  V30 1653 N 179.915 0.751683 -4.5706 0
M  V30 1654 C 180.65 0.817177 -5.67547 0
M  V30 1655 N 180.146 0.843129 -6.8765 0
M  V30 1656 N 181.939 0.856668 -5.55534 0
M  V30 1657 H 174.09 -0.704318 -2.00382 0
M  V30 1658 H 176.353 -0.254687 -0.913148 0
M  V30 1659 H 176.059 -0.361607 -3.49836 0
M  V30 1660 H 175.933 1.3886 -3.5071 0
M  V30 1661 H 178.32 1.52733 -2.52501 0
M  V30 1662 H 178.401 -0.240095 -2.54671 0
M  V30 1663 H 178.045 -0.2031 -5.07494 0
M  V30 1664 H 177.975 1.57633 -5.02454 0
M  V30 1665 H 180.466 0.739661 -3.70591 0
M  V30 1666 H 180.779 0.894448 -7.67606 0
M  V30 1667 H 179.124 0.811304 -6.90248 0
M  V30 1668 H 182.315 0.833437 -4.60621 0
M  V30 1669 H 182.488 0.904247 -6.4166 0
M  V30 1670 N 175.894 1.51508 0.433938 0
M  V30 1671 C 177.142 1.6402 1.18075 0
M  V30 1672 C 177.463 0.360328 1.91642 0
M  V30 1673 O 176.733 -0.623945 1.85698 0
M  V30 1674 H 175.313 0.6045 0.43885 0
M  V30 1675 H 177.975 1.88452 0.497178 0
M  V30 1676 H 177.071 2.46949 1.90847 0
M  V30 1677 N 177.372 -0.689602 1.41712 0
M  V30 1678 C 178.618 -1.45041 1.42599 0
M  V30 1679 C 178.973 -1.92366 0.0363764 0
M  V30 1680 O 178.266 -1.67022 -0.938844 0
M  V30 1681 C 178.46 -2.67298 2.37247 0
M  V30 1682 C 178.289 -2.31935 3.85274 0
M  V30 1683 C 177.059 -2.2201 4.53916 0
M  V30 1684 C 179.257 -1.94526 4.76093 0
M  V30 1685 N 177.239 -1.79594 5.87043 0
M  V30 1686 C 178.61 -1.62915 5.98213 0
M  V30 1687 C 180.665 -1.81388 4.63684 0
M  V30 1688 C 179.368 -1.19486 7.09306 0
M  V30 1689 C 181.394 -1.39364 5.74745 0
M  V30 1690 C 180.756 -1.08668 6.95967 0
M  V30 1691 H 176.855 -0.527806 0.577014 0
M  V30 1692 H 179.439 -0.797266 1.77628 0
M  V30 1693 H 177.61 -3.30325 2.04304 0
M  V30 1694 H 179.342 -3.33806 2.28814 0
M  V30 1695 H 176.097 -2.406 4.07932 0
M  V30 1696 H 176.521 -1.60851 6.57614 0
M  V30 1697 H 181.163 -2.03772 3.70455 0
M  V30 1698 H 178.881 -0.958477 8.02396 0
M  V30 1699 H 182.467 -1.2974 5.6715 0
M  V30 1700 H 181.347 -0.766417 7.80446 0
M  V30 1701 N 178.85 -1.27639 -0.924453 0
M  V30 1702 C 179.813 -1.10681 -2.00705 0
M  V30 1703 C 180.813 -0.0497823 -1.60723 0
M  V30 1704 O 182.003 -0.294654 -1.7169 0
M  V30 1705 C 179.135 -0.687164 -3.33902 0
M  V30 1706 H 180.328 -2.06817 -2.17179 0
M  V30 1707 H 177.881 -1.10473 -1.10569 0
M  V30 1708 H 178.616 0.275439 -3.23128 0
M  V30 1709 H 178.401 -1.45061 -3.6428 0
M  V30 1710 H 179.891 -0.590853 -4.13399 0
M  V30 1711 N 180.328 1.1314 -1.09713 0
M  V30 1712 C 181.258 2.20748 -0.761102 0
M  V30 1713 C 182.239 1.68061 0.262566 0
M  V30 1714 O 183.424 1.93765 0.129977 0
M  V30 1715 C 180.554 3.46812 -0.184054 0
M  V30 1716 C 179.508 4.12606 -1.13757 0
M  V30 1717 C 178.834 5.33031 -0.422083 0
M  V30 1718 C 180.134 4.59603 -2.48118 0
M  V30 1719 H 181.828 2.49113 -1.66082 0
M  V30 1720 H 179.374 1.19734 -0.799987 0
M  V30 1721 H 181.327 4.21353 0.0631215 0
M  V30 1722 H 180.051 3.17851 0.750868 0
M  V30 1723 H 178.71 3.40036 -1.37007 0
M  V30 1724 H 178.358 5.00335 0.517072 0
M  V30 1725 H 178.058 5.77999 -1.05788 0
M  V30 1726 H 179.582 6.10325 -0.183277 0
M  V30 1727 H 180.996 5.25552 -2.29059 0
M  V30 1728 H 179.393 5.15321 -3.07514 0
M  V30 1729 H 180.463 3.73971 -3.08665 0
M  V30 1730 N 181.806 0.884767 1.30421 0
M  V30 1731 C 182.736 0.367574 2.30589 0
M  V30 1732 C 183.717 -0.549464 1.60981 0
M  V30 1733 O 184.902 -0.46336 1.88591 0
M  V30 1734 C 182.032 -0.418944 3.44764 0
M  V30 1735 C 180.986 0.406316 4.26067 0
M  V30 1736 C 180.312 -0.506793 5.32293 0
M  V30 1737 C 181.612 1.64832 4.95608 0
M  V30 1738 H 183.306 1.20462 2.74097 0
M  V30 1739 H 180.852 0.580695 1.31772 0
M  V30 1740 H 182.805 -0.791395 4.13902 0
M  V30 1741 H 181.529 -1.28964 3.0006 0
M  V30 1742 H 180.188 0.760903 3.58617 0
M  V30 1743 H 179.836 -1.37519 4.83836 0
M  V30 1744 H 179.536 0.0415828 5.87585 0
M  V30 1745 H 181.06 -0.875764 6.04287 0
M  V30 1746 H 182.474 1.34646 5.57264 0
M  V30 1747 H 180.871 2.13688 5.60765 0
M  V30 1748 H 181.941 2.39284 4.21748 0
M  V30 1749 N 183.284 -1.43765 0.645699 0
M  V30 1750 C 184.514 -2.05953 0.163318 0
M  V30 1751 C 184.922 -1.48432 -1.17322 0
M  V30 1752 O 184.265 -0.607295 -1.73371 0
M  V30 1753 C 184.327 -3.59499 -0.0103065 0
M  V30 1754 C 183.991 -4.39563 1.25035 0
M  V30 1755 C 184.988 -4.72108 2.17739 0
M  V30 1756 C 182.673 -4.79697 1.48983 0
M  V30 1757 C 184.667 -5.43688 3.3269 0
M  V30 1758 C 182.354 -5.51023 2.64229 0
M  V30 1759 C 183.352 -5.8294 3.55908 0
M  V30 1760 O 183.04 -6.5281 4.69142 0
M  V30 1761 H 182.772 -0.670798 0.0836986 0
M  V30 1762 H 185.326 -1.85384 0.884407 0
M  V30 1763 H 183.556 -3.78613 -0.78669 0
M  V30 1764 H 185.245 -4.03408 -0.449087 0
M  V30 1765 H 186.011 -4.41627 2.00476 0
M  V30 1766 H 181.89 -4.54266 0.785078 0
M  V30 1767 H 185.434 -5.68517 4.04269 0
M  V30 1768 H 181.331 -5.8092 2.81429 0
M  V30 1769 H 182.099 -6.71288 4.6831 0
M  V30 1770 N 184.763 -0.387143 -1.52771 0
M  V30 1771 C 185.713 0.465942 -2.23188 0
M  V30 1772 C 186.697 1.03138 -1.23496 0
M  V30 1773 O 187.889 0.957845 -1.48843 0
M  V30 1774 C 185.018 1.59384 -3.04059 0
M  V30 1775 C 184.104 1.04024 -4.11144 0
M  V30 1776 N 184.495 0.211416 -5.05358 0
M  V30 1777 C 182.793 1.31295 -4.26237 0
M  V30 1778 C 183.494 -0.0941698 -5.81624 0
M  V30 1779 N 182.47 0.509207 -5.4121 0
M  V30 1780 H 186.272 -0.173856 -2.93385 0
M  V30 1781 H 183.786 -0.19633 -1.61209 0
M  V30 1782 H 185.783 2.21738 -3.53041 0
M  V30 1783 H 184.443 2.23648 -2.35397 0
M  V30 1784 H 185.454 -0.151151 -5.17679 0
M  V30 1785 H 182.131 1.95679 -3.68803 0
M  V30 1786 H 183.521 -0.765572 -6.67524 0
M  V30 1787 N 186.241 1.57166 -0.116904 0
M  V30 1788 C 187.204 2.14039 0.819742 0
M  V30 1789 C 188.204 1.07477 1.19605 0
M  V30 1790 O 189.394 1.33263 1.1219 0
M  V30 1791 C 186.526 2.67891 2.10826 0
M  V30 1792 H 187.719 2.98128 0.325511 0
M  V30 1793 H 185.272 1.55739 0.132312 0
M  V30 1794 H 186.007 1.87384 2.64685 0
M  V30 1795 H 185.792 3.45823 1.84793 0
M  V30 1796 H 187.282 3.11809 2.77785 0
M  V30 1797 N 187.719 -0.156864 1.56817 0
M  V30 1798 C 188.649 -1.19589 2.00551 0
M  V30 1799 C 189.63 -1.4536 0.883426 0
M  V30 1800 O 190.815 -1.56449 1.15054 0
M  V30 1801 C 187.945 -2.53143 2.37773 0
M  V30 1802 C 186.899 -2.41913 3.53075 0
M  V30 1803 C 186.225 -3.80088 3.76081 0
M  V30 1804 C 187.525 -1.91157 4.86062 0
M  V30 1805 H 189.219 -0.832293 2.87599 0
M  V30 1806 H 186.765 -0.398918 1.38364 0
M  V30 1807 H 188.718 -3.26047 2.66967 0
M  V30 1808 H 187.442 -2.91319 1.4765 0
M  V30 1809 H 186.101 -1.71462 3.24031 0
M  V30 1810 H 185.749 -4.15683 2.83225 0
M  V30 1811 H 185.449 -3.73439 4.53671 0
M  V30 1812 H 186.973 -4.54556 4.0769 0
M  V30 1813 H 188.387 -2.53846 5.14038 0
M  V30 1814 H 186.784 -1.95422 5.67389 0
M  V30 1815 H 187.854 -0.866673 4.77092 0
M  V30 1816 N 189.197 -1.51736 -0.425897 0
M  V30 1817 C 190.443 -1.65214 -1.1761 0
M  V30 1818 C 190.776 -0.372778 -1.90589 0
M  V30 1819 O 190.051 0.628139 -1.84078 0
M  V30 1820 C 190.334 -2.86312 -2.18398 0
M  V30 1821 C 190.187 -4.24254 -1.49426 0
M  V30 1822 C 191.506 -3.02925 -3.19256 0
M  V30 1823 H 188.625 -0.601263 -0.426206 0
M  V30 1824 H 191.267 -1.8425 -0.463882 0
M  V30 1825 H 189.417 -2.70213 -2.79137 0
M  V30 1826 H 191.089 -4.52046 -0.919362 0
M  V30 1827 H 189.332 -4.26426 -0.796432 0
M  V30 1828 H 190.003 -5.05001 -2.22885 0
M  V30 1829 H 192.479 -3.1781 -2.68581 0
M  V30 1830 H 191.355 -3.89199 -3.8706 0
M  V30 1831 H 191.616 -2.15497 -3.86023 0
M  V30 1832 N 190.675 0.682077 -1.42076 0
M  V30 1833 C 191.922 1.44215 -1.42156 0
M  V30 1834 C 192.25 1.94468 -0.0354186 0
M  V30 1835 O 191.505 1.70816 0.955002 0
M  V30 1836 C 191.804 2.66036 -2.38662 0
M  V30 1837 C 191.47 2.34366 -3.85206 0
M  V30 1838 C 190.132 2.25439 -4.25124 0
M  V30 1839 C 192.484 2.08513 -4.77673 0
M  V30 1840 C 189.812 1.88775 -5.55501 0
M  V30 1841 C 192.164 1.73354 -6.08384 0
M  V30 1842 C 190.828 1.62933 -6.47309 0
M  V30 1843 H 190.098 0.527718 -0.520187 0
M  V30 1844 H 192.745 0.778387 -1.74967 0
M  V30 1845 H 191.05 3.3741 -1.99152 0
M  V30 1846 H 192.747 3.24205 -2.35991 0
M  V30 1847 H 189.337 2.42213 -3.53597 0
M  V30 1848 H 193.521 2.14346 -4.47626 0
M  V30 1849 H 188.777 1.7927 -5.84527 0
M  V30 1850 H 192.951 1.52373 -6.79526 0
M  V30 1851 H 190.578 1.34292 -7.48244 0
M  V30 1852 N 192.153 1.28127 0.917671 0
M  V30 1853 C 193.083 1.14248 2.03641 0
M  V30 1854 C 194.064 0.0412748 1.7005 0
M  V30 1855 O 195.249 0.217566 1.92977 0
M  V30 1856 C 192.379 0.799431 3.37974 0
M  V30 1857 C 191.333 1.85497 3.85713 0
M  V30 1858 C 190.659 1.36565 5.16966 0
M  V30 1859 C 191.959 3.26085 4.08002 0
M  V30 1860 H 193.653 2.07835 2.15511 0
M  V30 1861 H 191.199 1.00064 1.03553 0
M  V30 1862 H 193.152 0.689114 4.15727 0
M  V30 1863 H 191.876 -0.172145 3.26146 0
M  V30 1864 H 190.535 1.95437 3.10161 0
M  V30 1865 H 190.183 0.383253 5.01538 0
M  V30 1866 H 189.883 2.07143 5.49878 0
M  V30 1867 H 191.407 1.26848 5.97279 0
M  V30 1868 H 192.821 3.19089 4.76293 0
M  V30 1869 H 191.218 3.94462 4.52238 0
M  V30 1870 H 192.288 3.70394 3.12948 0
M  V30 1871 N 193.631 -1.12557 1.10312 0
M  V30 1872 C 194.88 -1.83395 0.839588 0
M  V30 1873 C 195.193 -1.84939 -0.636929 0
M  V30 1874 O 196.399 -2.51761 -1.01631 0
M  V30 1875 C 194.855 -3.29303 1.45215 0
M  V30 1876 C 194.463 -3.36122 2.96186 0
M  V30 1877 C 196.207 -4.05121 1.26796 0
M  V30 1878 C 194.114 -4.76357 3.50483 0
M  V30 1879 H 193.044 -0.687133 0.310425 0
M  V30 1880 H 195.695 -1.26746 1.32694 0
M  V30 1881 H 194.077 -3.85812 0.892469 0
M  V30 1882 H 195.251 -2.89559 3.58458 0
M  V30 1883 H 193.566 -2.73776 3.13745 0
M  V30 1884 H 196.163 -5.08668 1.64806 0
M  V30 1885 H 196.506 -4.15773 0.209409 0
M  V30 1886 H 197.039 -3.54967 1.79563 0
M  V30 1887 H 193.778 -4.70899 4.55998 0
M  V30 1888 H 193.298 -5.23377 2.92978 0
M  V30 1889 H 194.977 -5.45294 3.48228 0
M  V30 1890 N 195.109 -0.891671 -1.2995 0
M  V30 1891 C 196.355 -0.514261 -1.96171 0
M  V30 1892 C 196.688 0.935506 -1.70182 0
M  V30 1893 O 195.963 1.66204 -1.01028 0
M  V30 1894 C 196.246 -0.797719 -3.51153 0
M  V30 1895 C 196.099 -2.2986 -3.86632 0
M  V30 1896 C 197.418 -0.278749 -4.39216 0
M  V30 1897 H 194.537 -0.188314 -0.712535 0
M  V30 1898 H 197.179 -1.11689 -1.53706 0
M  V30 1899 H 195.329 -0.284826 -3.87455 0
M  V30 1900 H 197.001 -2.88042 -3.60319 0
M  V30 1901 H 195.244 -2.76257 -3.34462 0
M  V30 1902 H 195.915 -2.44753 -4.94773 0
M  V30 1903 H 198.391 -0.717825 -4.09862 0
M  V30 1904 H 197.267 -0.506353 -5.46559 0
M  V30 1905 H 197.528 0.820266 -4.34424 0
M  V30 1906 N 196.587 1.43421 -0.653314 0
M  V30 1907 C 197.517 2.33487 0.0246656 0
M  V30 1908 C 198.498 1.49475 0.811863 0
M  V30 1909 O 199.683 1.78139 0.773322 0
M  V30 1910 C 196.813 3.32841 0.99166 0
M  V30 1911 C 195.767 4.26842 0.314568 0
M  V30 1912 C 195.093 5.16236 1.39302 0
M  V30 1913 C 196.393 5.16243 -0.793095 0
M  V30 1914 H 198.087 2.90427 -0.727481 0
M  V30 1915 H 195.633 1.39649 -0.351287 0
M  V30 1916 H 197.586 3.94747 1.47487 0
M  V30 1917 H 196.31 2.74158 1.77497 0
M  V30 1918 H 194.969 3.663 -0.148199 0
M  V30 1919 H 194.617 4.53891 2.16776 0
M  V30 1920 H 194.317 5.79948 0.945223 0
M  V30 1921 H 195.841 5.81015 1.87759 0
M  V30 1922 H 197.255 5.71958 -0.392039 0
M  V30 1923 H 195.652 5.88676 -1.16536 0
M  V30 1924 H 196.722 4.55927 -1.65103 0
M  V30 1925 N 198.065 0.39524 1.52563 0
M  V30 1926 C 199.313 -0.184678 2.01254 0
M  V30 1927 C 199.634 -1.46822 1.28329 0
M  V30 1928 O 198.904 -1.91666 0.405094 0
M  V30 1929 H 197.484 -0.0712355 0.743596 0
M  V30 1930 H 200.146 0.528293 1.87603 0
M  V30 1931 H 199.242 -0.390681 3.09645 0
M  V30 1932 N 199.544 -1.57102 0.125237 0
M  V30 1933 C 200.784 -1.97294 -0.534259 0
M  V30 1934 C 201.148 -1.0074 -1.63449 0
M  V30 1935 O 202.349 -1.29893 -2.35332 0
M  V30 1936 C 200.62 -3.41705 -1.04748 0
M  V30 1937 S 202.179 -4.03913 -1.71463 0
M  V30 1938 H 198.997 -0.689517 -0.173458 0
M  V30 1939 H 201.599 -1.94349 0.211797 0
M  V30 1940 H 200.303 -4.09723 -0.235649 0
M  V30 1941 H 199.834 -3.48315 -1.82867 0
M  V30 1942 H 201.849 -3.95182 -3.00077 0
M  V30 1943 N 201.022 0.148545 -1.56898 0
M  V30 1944 C 201.952 1.18524 -2.01182 0
M  V30 1945 C 202.933 1.4489 -0.891123 0
M  V30 1946 O 204.118 1.55836 -1.15882 0
M  V30 1947 C 201.248 2.51879 -2.39112 0
M  V30 1948 C 200.202 2.40038 -3.54353 0
M  V30 1949 C 199.528 3.78089 -3.78091 0
M  V30 1950 C 200.828 1.88577 -4.87069 0
M  V30 1951 H 202.522 0.817029 -2.88036 0
M  V30 1952 H 200.068 0.391575 -1.38574 0
M  V30 1953 H 202.021 3.24627 -2.68692 0
M  V30 1954 H 200.745 2.90532 -1.49193 0
M  V30 1955 H 199.404 1.69742 -3.24936 0
M  V30 1956 H 199.052 4.14175 -2.85426 0
M  V30 1957 H 198.752 3.71028 -4.55645 0
M  V30 1958 H 200.276 4.52387 -4.10095 0
M  V30 1959 H 201.69 2.51117 -5.15377 0
M  V30 1960 H 200.087 1.9241 -5.68417 0
M  V30 1961 H 201.157 0.84136 -4.77545 0
M  V30 1962 N 202.5 1.5196 0.417844 0
M  V30 1963 C 203.749 1.6482 1.16264 0
M  V30 1964 C 204.062 0.379886 1.91876 0
M  V30 1965 O 205.268 0.388154 2.68711 0
M  V30 1966 C 203.724 2.91161 2.1155 0
M  V30 1967 C 203.332 4.25068 1.41495 0
M  V30 1968 C 205.076 3.13383 2.86341 0
M  V30 1969 C 202.983 5.42541 2.35379 0
M  V30 1970 H 201.913 0.613954 0.437694 0
M  V30 1971 H 204.564 1.78442 0.427871 0
M  V30 1972 H 202.946 2.71218 2.88543 0
M  V30 1973 H 204.12 4.55463 0.699263 0
M  V30 1974 H 202.435 4.0888 0.787792 0
M  V30 1975 H 205.032 3.98324 3.5671 0
M  V30 1976 H 205.375 2.27256 3.48798 0
M  V30 1977 H 205.908 3.33757 2.1645 0
M  V30 1978 H 202.647 6.30987 1.77582 0
M  V30 1979 H 202.167 5.16497 3.04945 0
M  V30 1980 H 203.846 5.75272 2.96093 0
M  V30 1981 N 203.978 -0.674533 1.42435 0
M  V30 1982 C 204.908 -1.80009 1.48724 0
M  V30 1983 C 205.889 -1.6659 0.343793 0
M  V30 1984 O 207.074 -1.86007 0.558137 0
M  V30 1985 C 204.204 -3.18306 1.38919 0
M  V30 1986 C 203.158 -3.46461 2.51294 0
M  V30 1987 C 202.484 -4.84335 2.26547 0
M  V30 1988 C 203.784 -3.43328 3.93603 0
M  V30 1989 H 205.478 -1.75004 2.42928 0
M  V30 1990 H 203.024 -0.840533 1.16923 0
M  V30 1991 H 204.977 -3.9678 1.41927 0
M  V30 1992 H 203.701 -3.2399 0.412094 0
M  V30 1993 H 202.36 -2.70348 2.47604 0
M  V30 1994 H 202.008 -4.86669 1.2713 0
M  V30 1995 H 201.708 -5.04136 3.01861 0
M  V30 1996 H 203.232 -5.65094 2.31304 0
M  V30 1997 H 204.646 -4.11772 3.98894 0
M  V30 1998 H 203.043 -3.74664 4.68771 0
M  V30 1999 H 204.113 -2.41897 4.20255 0
M  V30 2000 N 205.456 -1.28612 -0.910864 0
M  V30 2001 C 206.419 -1.12803 -1.9952 0
M  V30 2002 C 207.419 -0.0668264 -1.60661 0
M  V30 2003 O 208.609 -0.312847 -1.71368 0
M  V30 2004 C 205.741 -0.72254 -3.33155 0
M  V30 2005 H 206.934 -2.09109 -2.14973 0
M  V30 2006 H 204.487 -1.11639 -1.09391 0
M  V30 2007 H 205.222 0.241152 -3.23402 0
M  V30 2008 H 205.007 -1.48916 -3.62721 0
M  V30 2009 H 206.497 -0.634666 -4.12749 0
M  V30 2010 N 206.934 1.1197 -1.10907 0
M  V30 2011 C 208.18 1.8386 -0.855773 0
M  V30 2012 C 208.513 1.84134 0.617103 0
M  V30 2013 O 207.788 1.29041 1.45529 0
M  V30 2014 C 208.071 3.31305 -1.411 0
M  V30 2015 C 207.924 3.39456 -2.9511 0
M  V30 2016 C 209.243 4.2721 -1.05736 0
M  V30 2017 H 206.362 0.667545 -0.312334 0
M  V30 2018 H 209.004 1.31331 -1.37303 0
M  V30 2019 H 207.154 3.76169 -0.97105 0
M  V30 2020 H 208.826 3.03191 -3.47668 0
M  V30 2021 H 207.069 2.79849 -3.31462 0
M  V30 2022 H 207.74 4.43209 -3.29044 0
M  V30 2023 H 210.216 3.90497 -1.43706 0
M  V30 2024 H 209.092 5.28775 -1.47269 0
M  V30 2025 H 209.353 4.42088 0.0325958 0
M  V30 2026 N 208.412 0.89855 1.29475 0
M  V30 2027 C 209.342 0.39201 2.30186 0
M  V30 2028 C 210.323 -0.532359 1.61555 0
M  V30 2029 O 211.508 -0.443331 1.89072 0
M  V30 2030 C 208.638 -0.382353 3.45189 0
M  V30 2031 C 207.592 0.451483 4.25612 0
M  V30 2032 C 206.918 -0.450307 5.328 0
M  V30 2033 C 208.218 1.70079 4.93832 0
M  V30 2034 H 209.912 1.23362 2.72804 0
M  V30 2035 H 207.458 0.594638 1.31149 0
M  V30 2036 H 209.411 -0.747451 4.14718 0
M  V30 2037 H 208.135 -1.25774 3.01411 0
M  V30 2038 H 206.794 0.798897 3.57789 0
M  V30 2039 H 206.442 -1.32379 4.85268 0
M  V30 2040 H 206.142 0.103902 5.87508 0
M  V30 2041 H 207.666 -0.811623 6.05182 0
M  V30 2042 H 209.08 1.40549 5.55805 0
M  V30 2043 H 207.477 2.19623 5.58467 0
M  V30 2044 H 208.547 2.43744 4.19186 0
M  V30 2045 N 209.89 -1.43072 0.660911 0
M  V30 2046 C 211.118 -2.06067 0.185422 0
M  V30 2047 C 211.533 -1.49582 -1.15198 0
M  V30 2048 O 210.89 -0.630134 -1.71276 0
M  V30 2049 C 210.941 -3.61371 0.0966523 0
M  V30 2050 O 210.662 -4.15758 1.38119 0
M  V30 2051 C 212.163 -4.41455 -0.403996 0
M  V30 2052 H 209.383 -0.664459 0.0934604 0
M  V30 2053 H 211.927 -1.83447 0.90373 0
M  V30 2054 H 210.082 -3.8315 -0.572259 0
M  V30 2055 H 210.496 -5.09499 1.24542 0
M  V30 2056 H 211.97 -5.50437 -0.415045 0
M  V30 2057 H 212.447 -4.15036 -1.43674 0
M  V30 2058 H 213.053 -4.24663 0.232691 0
M  V30 2059 N 211.368 -0.403325 -1.52352 0
M  V30 2060 C 212.596 0.174012 -2.06167 0
M  V30 2061 C 213.011 1.39347 -1.27388 0
M  V30 2062 O 212.368 1.79597 -0.324201 0
M  V30 2063 C 212.419 0.530223 -3.5759 0
M  V30 2064 O 212.14 -0.640806 -4.33388 0
M  V30 2065 C 213.641 1.16192 -4.27802 0
M  V30 2066 H 210.861 0.0229464 -0.670608 0
M  V30 2067 H 213.405 -0.572604 -1.9632 0
M  V30 2068 H 211.56 1.22673 -3.67464 0
M  V30 2069 H 211.974 -0.344851 -5.23365 0
M  V30 2070 H 213.448 1.36141 -5.34948 0
M  V30 2071 H 213.925 2.13335 -3.83907 0
M  V30 2072 H 214.531 0.505775 -4.22282 0
M  V30 2073 N 212.846 1.57033 -0.133567 0
M  V30 2074 C 214.093 1.95686 0.520877 0
M  V30 2075 C 214.421 1.0177 1.6575 0
M  V30 2076 O 213.676 0.0443195 1.9565 0
M  V30 2077 C 213.975 3.40674 1.08057 0
M  V30 2078 C 213.641 4.50855 0.0637899 0
M  V30 2079 C 212.303 4.80716 -0.215757 0
M  V30 2080 C 214.655 5.17398 -0.62835 0
M  V30 2081 C 211.983 5.74433 -1.19348 0
M  V30 2082 C 214.335 6.12167 -1.5948 0
M  V30 2083 C 212.999 6.40414 -1.88218 0
M  V30 2084 H 212.269 0.716067 0.190602 0
M  V30 2085 H 214.916 1.9026 -0.217556 0
M  V30 2086 H 213.221 3.42865 1.89606 0
M  V30 2087 H 214.918 3.67902 1.59529 0
M  V30 2088 H 211.508 4.27605 0.291855 0
M  V30 2089 H 215.692 4.94472 -0.425562 0
M  V30 2090 H 210.948 5.94616 -1.42272 0
M  V30 2091 H 215.122 6.6281 -2.13671 0
M  V30 2092 H 212.749 7.12838 -2.64133 0
M  V30 2093 N 214.325 -0.140222 1.56975 0
M  V30 2094 C 215.272 -1.17292 1.98774 0
M  V30 2095 C 216.242 -1.4232 0.856408 0
M  V30 2096 O 217.427 -1.54541 1.119 0
M  V30 2097 C 214.567 -2.49973 2.37923 0
M  V30 2098 C 213.68 -2.32062 3.64378 0
M  V30 2099 C 212.815 -3.57825 3.926 0
M  V30 2100 C 211.854 -3.3498 5.12303 0
M  V30 2101 N 210.991 -4.52891 5.36502 0
M  V30 2102 H 215.831 -0.809472 2.86795 0
M  V30 2103 H 213.368 -0.388237 1.41884 0
M  V30 2104 H 215.326 -3.27346 2.58652 0
M  V30 2105 H 213.956 -2.84252 1.52972 0
M  V30 2106 H 213.008 -1.45711 3.51387 0
M  V30 2107 H 214.32 -2.11145 4.51906 0
M  V30 2108 H 213.474 -4.43624 4.13863 0
M  V30 2109 H 212.213 -3.81753 3.03506 0
M  V30 2110 H 211.218 -2.4757 4.90906 0
M  V30 2111 H 212.443 -3.12444 6.02956 0
M  V30 2112 H 210.389 -4.76979 4.50363 0
M  V30 2113 H 210.306 -4.35001 6.18312 0
M  V30 2114 H 211.574 -5.39884 5.62268 0
M  V30 2115 N 215.803 -1.52179 -0.40978 0
M  V30 2116 C 216.713 -1.78364 -1.52392 0
M  V30 2117 C 217.729 -0.669183 -1.60617 0
M  V30 2118 O 218.905 -0.954518 -1.77344 0
M  V30 2119 C 215.97 -1.92822 -2.88133 0
M  V30 2120 C 215.031 -3.16725 -2.898 0
M  V30 2121 C 214.264 -3.30483 -4.19067 0
M  V30 2122 O 214.487 -2.49522 -5.12928 0
M  V30 2123 O 213.421 -4.2363 -4.27576 0
M  V30 2124 H 217.247 -2.72931 -1.33201 0
M  V30 2125 H 214.832 -1.37016 -0.59557 0
M  V30 2126 H 216.714 -2.04157 -3.68643 0
M  V30 2127 H 215.389 -1.01444 -3.07393 0
M  V30 2128 H 214.296 -3.10848 -2.08146 0
M  V30 2129 H 215.629 -4.07881 -2.75489 0
M  V30 2130 N 217.281 0.66697 -1.42791 0
M  V30 2131 C 218.511 1.45294 -1.46878 0
M  V30 2132 C 218.919 1.89027 -0.0809861 0
M  V30 2133 O 218.262 1.59219 0.916246 0
M  V30 2134 C 218.324 2.72908 -2.34012 0
M  V30 2135 C 217.988 2.51203 -3.81767 0
M  V30 2136 C 218.985 2.15302 -4.73224 0
M  V30 2137 C 216.67 2.65954 -4.26115 0
M  V30 2138 C 218.664 1.94431 -6.07022 0
M  V30 2139 C 216.351 2.44699 -5.59969 0
M  V30 2140 C 217.349 2.08992 -6.5024 0
M  V30 2141 O 217.037 1.87948 -7.81621 0
M  V30 2142 H 216.769 0.453306 -0.501487 0
M  V30 2143 H 219.323 0.826232 -1.88049 0
M  V30 2144 H 217.553 3.38089 -1.87703 0
M  V30 2145 H 219.242 3.34816 -2.29462 0
M  V30 2146 H 220.008 2.03495 -4.40244 0
M  V30 2147 H 215.887 2.92724 -3.56137 0
M  V30 2148 H 219.431 1.66484 -6.77443 0
M  V30 2149 H 215.328 2.56105 -5.9252 0
M  V30 2150 H 216.096 2.02483 -7.93059 0
M  V30 2151 N 218.759 1.29093 0.90403 0
M  V30 2152 C 219.669 1.15727 2.0407 0
M  V30 2153 C 220.685 0.0815308 1.73809 0
M  V30 2154 O 221.861 0.292749 1.99261 0
M  V30 2155 C 218.926 0.830424 3.36608 0
M  V30 2156 C 217.987 1.98955 3.80415 0
M  V30 2157 C 217.22 1.6782 5.06628 0
M  V30 2158 O 217.443 0.597105 5.67266 0
M  V30 2159 O 216.377 2.52486 5.46383 0
M  V30 2160 H 220.203 2.11171 2.18267 0
M  V30 2161 H 217.788 1.08504 1.027 0
M  V30 2162 H 219.67 0.662521 4.16159 0
M  V30 2163 H 218.345 -0.0942678 3.23563 0
M  V30 2164 H 217.252 2.21267 3.01648 0
M  V30 2165 H 218.585 2.89529 3.98037 0
M  V30 2166 N 220.237 -1.11381 1.11499 0
M  V30 2167 C 221.465 -1.86934 0.88675 0
M  V30 2168 C 221.88 -1.80195 -0.563476 0
M  V30 2169 O 221.237 -1.18367 -1.38908 0
M  V30 2170 C 221.288 -3.35722 1.34064 0
M  V30 2171 O 221.009 -3.4232 2.73401 0
M  V30 2172 C 222.51 -4.2818 1.14791 0
M  V30 2173 H 219.73 -0.591117 0.317523 0
M  V30 2174 H 222.274 -1.40865 1.48248 0
M  V30 2175 H 220.429 -3.79294 0.788355 0
M  V30 2176 H 220.843 -4.34971 2.93087 0
M  V30 2177 H 222.317 -5.30817 1.5145 0
M  V30 2178 H 222.794 -4.39113 0.0875279 0
M  V30 2179 H 223.4 -3.90402 1.68721 0
M  V30 2180 N 221.715 -0.905404 -1.28997 0
M  V30 2181 C 222.961 -0.535039 -1.95615 0
M  V30 2182 C 223.294 0.917404 -1.71165 0
M  V30 2183 O 222.569 1.65123 -1.02785 0
M  V30 2184 C 222.852 -0.834918 -3.50287 0
M  V30 2185 C 222.705 -2.33948 -3.84172 0
M  V30 2186 C 224.024 -0.325318 -4.38896 0
M  V30 2187 H 221.143 -0.195861 -0.710498 0
M  V30 2188 H 223.785 -1.13313 -1.52513 0
M  V30 2189 H 221.935 -0.325904 -3.87131 0
M  V30 2190 H 223.607 -2.91847 -3.57243 0
M  V30 2191 H 221.85 -2.79789 -3.31513 0
M  V30 2192 H 222.521 -2.49987 -4.92149 0
M  V30 2193 H 224.997 -0.761256 -4.09077 0
M  V30 2194 H 223.873 -0.564295 -5.45992 0
M  V30 2195 H 224.134 0.774144 -4.35269 0
M  V30 2196 N 223.193 1.4272 -0.668489 0
M  V30 2197 C 224.418 2.06484 -0.194758 0
M  V30 2198 C 224.843 1.49862 1.13679 0
M  V30 2199 O 224.201 0.614582 1.70565 0
M  V30 2200 C 224.249 3.60353 -0.133546 0
M  V30 2201 O 223.353 4.02464 0.899806 0
M  V30 2202 H 222.694 0.656137 -0.10188 0
M  V30 2203 H 225.224 1.82964 -0.915722 0
M  V30 2204 H 225.234 4.07976 0.0447041 0
M  V30 2205 H 223.909 4.00938 -1.1055 0
M  V30 2206 H 222.486 3.66402 0.693109 0
M  V30 2207 N 224.671 0.411399 1.52136 0
M  V30 2208 C 225.919 -0.163322 2.01439 0
M  V30 2209 C 226.24 -1.45453 1.29879 0
M  V30 2210 O 225.51 -1.91225 0.4254 0
M  V30 2211 H 224.09 -0.0633447 0.744309 0
M  V30 2212 H 226.752 0.548161 1.87033 0
M  V30 2213 H 225.848 -0.357817 3.10042 0
M  V30 2214 N 226.149 -1.5696 0.141893 0
M  V30 2215 C 227.426 -1.87553 -0.555281 0
M  V30 2216 C 227.806 -1.04699 -1.83306 0
M  V30 2217 O 227.154 -0.132346 -2.28116 0
M  V30 2218 C 227.364 -3.39093 -0.825664 0
M  V30 2219 C 228.712 -4.08199 -1.16869 0
M  V30 2220 O 229.736 -3.44242 -0.915185 0
M  V30 2221 O 228.595 -5.21139 -1.6455 0
M  V30 2222 H 225.689 -0.777188 -0.282679 0
M  V30 2223 H 228.235 -1.68763 0.17812 0
M  V30 2224 H 227.007 -3.91221 0.0788633 0
M  V30 2225 H 226.63 -3.63393 -1.61343 0
M  V30 2226 N 227.627 0.131896 -1.57047 0
M  V30 2227 C 228.873 0.838268 -1.85323 0
M  V30 2228 C 229.228 1.78098 -0.727937 0
M  V30 2229 O 228.521 1.89645 0.27304 0
M  V30 2230 C 228.715 1.63703 -3.17704 0
M  V30 2231 C 228.544 0.773167 -4.43004 0
M  V30 2232 C 227.314 0.432956 -5.03442 0
M  V30 2233 C 229.512 0.0966216 -5.14209 0
M  V30 2234 N 227.494 -0.442924 -6.123 0
M  V30 2235 C 228.865 -0.638778 -6.16701 0
M  V30 2236 C 230.92 0.018861 -4.97896 0
M  V30 2237 C 229.623 -1.44462 -7.04644 0
M  V30 2238 C 231.649 -0.773762 -5.86316 0
M  V30 2239 C 231.011 -1.4974 -6.883 0
M  V30 2240 H 227.11 0.284086 -0.728573 0
M  V30 2241 H 229.694 0.102731 -1.94429 0
M  V30 2242 H 227.865 2.3437 -3.09718 0
M  V30 2243 H 229.597 2.28774 -3.33833 0
M  V30 2244 H 226.352 0.772237 -4.67262 0
M  V30 2245 H 226.776 -0.872332 -6.71356 0
M  V30 2246 H 231.418 0.56397 -4.19022 0
M  V30 2247 H 229.136 -2.00093 -7.82936 0
M  V30 2248 H 232.722 -0.83612 -5.75761 0
M  V30 2249 H 231.602 -2.10087 -7.55535 0
M  V30 2250 N 229.106 1.52395 0.401703 0
M  V30 2251 C 230.036 1.79231 1.49661 0
M  V30 2252 C 231.017 0.643654 1.57452 0
M  V30 2253 O 232.202 0.889989 1.72606 0
M  V30 2254 C 229.332 1.94971 2.87409 0
M  V30 2255 C 228.286 3.10604 2.94465 0
M  V30 2256 C 227.612 3.11577 4.34538 0
M  V30 2257 C 228.912 4.49921 2.6527 0
M  V30 2258 H 230.606 2.70917 1.27454 0
M  V30 2259 H 228.152 1.30362 0.6117 0
M  V30 2260 H 230.105 2.12328 3.63999 0
M  V30 2261 H 228.829 0.999632 3.10926 0
M  V30 2262 H 227.488 2.93009 2.20321 0
M  V30 2263 H 227.136 2.14277 4.55076 0
M  V30 2264 H 226.836 3.89247 4.40183 0
M  V30 2265 H 228.36 3.31073 5.13053 0
M  V30 2266 H 229.774 4.67683 3.31581 0
M  V30 2267 H 228.171 5.29564 2.82281 0
M  V30 2268 H 229.241 4.57507 1.60671 0
M  V30 2269 N 230.584 -0.659388 1.43143 0
M  V30 2270 C 231.514 -1.78422 1.50625 0
M  V30 2271 C 232.495 -1.66216 0.361443 0
M  V30 2272 O 233.68 -1.85404 0.577834 0
M  V30 2273 C 230.81 -3.16815 1.42287 0
M  V30 2274 C 229.764 -3.43777 2.54954 0
M  V30 2275 C 229.09 -4.81905 2.31671 0
M  V30 2276 C 230.39 -3.39134 3.97222 0
M  V30 2277 H 232.084 -1.72417 2.44771 0
M  V30 2278 H 229.63 -0.828084 1.17808 0
M  V30 2279 H 231.583 -3.95253 1.46127 0
M  V30 2280 H 230.307 -3.23534 0.446435 0
M  V30 2281 H 228.966 -2.67707 2.50457 0
M  V30 2282 H 228.614 -4.85294 1.32284 0
M  V30 2283 H 228.314 -5.00906 3.07192 0
M  V30 2284 H 229.838 -5.62609 2.37284 0
M  V30 2285 H 231.252 -4.07518 4.03239 0
M  V30 2286 H 229.649 -3.69671 4.72719 0
M  V30 2287 H 230.719 -2.37426 4.22797 0
M  V30 2288 N 232.062 -1.29571 -0.897171 0
M  V30 2289 C 232.992 -1.17473 -2.01798 0
M  V30 2290 C 233.973 -0.068323 -1.69963 0
M  V30 2291 O 235.158 -0.248239 -1.92607 0
M  V30 2292 C 232.288 -0.853099 -3.36659 0
M  V30 2293 C 231.242 -1.9161 -3.82713 0
M  V30 2294 C 230.568 -1.44773 -5.14728 0
M  V30 2295 C 231.868 -3.32535 -4.02763 0
M  V30 2296 H 233.562 -2.11237 -2.12177 0
M  V30 2297 H 231.108 -1.01699 -1.01948 0
M  V30 2298 H 233.061 -0.755165 -4.14578 0
M  V30 2299 H 231.785 0.120236 -3.26379 0
M  V30 2300 H 230.444 -2.00346 -3.07013 0
M  V30 2301 H 230.092 -0.462995 -5.00865 0
M  V30 2302 H 229.792 -2.15865 -5.46513 0
M  V30 2303 H 231.316 -1.36334 -5.95185 0
M  V30 2304 H 232.73 -3.26626 -4.71156 0
M  V30 2305 H 231.127 -4.01607 -4.45905 0
M  V30 2306 H 232.197 -3.75326 -3.07016 0
M  V30 2307 N 233.54 1.10788 -1.12088 0
M  V30 2308 C 234.47 2.19083 -0.807755 0
M  V30 2309 C 235.451 1.6858 0.226859 0
M  V30 2310 O 236.636 1.93997 0.0888475 0
M  V30 2311 C 233.766 3.46344 -0.257576 0
M  V30 2312 C 232.72 4.101 -1.22483 0
M  V30 2313 C 232.046 5.32016 -0.535052 0
M  V30 2314 C 233.346 4.54236 -2.57811 0
M  V30 2315 H 235.04 2.45534 -1.71328 0
M  V30 2316 H 232.586 1.1801 -0.825205 0
M  V30 2317 H 234.539 4.21392 -0.0262679 0
M  V30 2318 H 233.263 3.19373 0.683278 0
M  V30 2319 H 231.922 3.37054 -1.44189 0
M  V30 2320 H 231.57 5.01319 0.410827 0
M  V30 2321 H 231.27 5.75625 -1.18024 0
M  V30 2322 H 232.794 6.09799 -0.312695 0
M  V30 2323 H 234.208 5.20575 -2.40155 0
M  V30 2324 H 232.605 5.08682 -3.18375 0
M  V30 2325 H 233.675 3.6734 -3.16528 0
M  V30 2326 N 235.018 0.912232 1.28515 0
M  V30 2327 C 235.928 0.404506 2.31086 0
M  V30 2328 C 236.944 -0.50707 1.66448 0
M  V30 2329 O 238.12 -0.393624 1.97516 0
M  V30 2330 C 235.185 -0.348572 3.44943 0
M  V30 2331 C 234.246 0.59604 4.25142 0
M  V30 2332 C 233.479 -0.121194 5.33562 0
M  V30 2333 O 233.702 -1.34317 5.5436 0
M  V30 2334 O 232.636 0.542716 5.99448 0
M  V30 2335 H 236.462 1.25579 2.76521 0
M  V30 2336 H 234.047 0.676998 1.33181 0
M  V30 2337 H 235.929 -0.77395 4.14232 0
M  V30 2338 H 234.604 -1.17571 3.01594 0
M  V30 2339 H 233.511 1.07079 3.58448 0
M  V30 2340 H 234.844 1.38995 4.72167 0
M  V30 2341 N 236.496 -1.42363 0.676048 0
M  V30 2342 C 237.724 -2.05859 0.207268 0
M  V30 2343 C 238.139 -1.50796 -1.13605 0
M  V30 2344 O 237.496 -0.648265 -1.70598 0
M  V30 2345 C 237.547 -3.61248 0.134975 0
M  V30 2346 O 237.268 -4.1427 1.42521 0
M  V30 2347 C 238.769 -4.41859 -0.357151 0
M  V30 2348 H 235.989 -0.663431 0.100503 0
M  V30 2349 H 238.533 -1.82479 0.923136 0
M  V30 2350 H 236.688 -3.83735 -0.531588 0
M  V30 2351 H 237.102 -5.0815 1.29939 0
M  V30 2352 H 238.576 -5.50847 -0.356641 0
M  V30 2353 H 239.053 -4.16536 -1.39264 0
M  V30 2354 H 239.659 -4.24392 0.27772 0
M  V30 2355 N 237.974 -0.419461 -1.51915 0
M  V30 2356 C 239.221 0.152939 -2.01922 0
M  V30 2357 C 239.549 1.4426 -1.30458 0
M  V30 2358 O 238.804 1.91514 -0.402593 0
M  V30 2359 C 239.103 0.437067 -3.54717 0
M  V30 2360 C 238.769 -0.764632 -4.44369 0
M  V30 2361 C 237.431 -1.09423 -4.68594 0
M  V30 2362 C 239.783 -1.56713 -4.97082 0
M  V30 2363 C 237.111 -2.22732 -5.42777 0
M  V30 2364 C 239.463 -2.69107 -5.72507 0
M  V30 2365 C 238.127 -3.02541 -5.95 0
M  V30 2366 H 237.397 0.0559644 -0.738884 0
M  V30 2367 H 240.044 -0.562998 -1.83037 0
M  V30 2368 H 238.349 1.23469 -3.71837 0
M  V30 2369 H 240.046 0.893083 -3.90928 0
M  V30 2370 H 236.636 -0.497775 -4.257 0
M  V30 2371 H 240.82 -1.32571 -4.78266 0
M  V30 2372 H 236.076 -2.48971 -5.58411 0
M  V30 2373 H 240.25 -3.31671 -6.12346 0
M  V30 2374 H 237.877 -3.90457 -6.52264 0
M  V30 2375 N 239.452 1.56882 -0.150215 0
M  V30 2376 C 240.415 2.1573 0.774157 0
M  V30 2377 C 241.415 1.0999 1.17298 0
M  V30 2378 O 242.605 1.35613 1.09338 0
M  V30 2379 C 239.737 2.72302 2.05096 0
M  V30 2380 H 240.93 2.98752 0.262201 0
M  V30 2381 H 238.483 1.55985 0.099248 0
M  V30 2382 H 239.218 1.92956 2.6065 0
M  V30 2383 H 239.003 3.49665 1.77416 0
M  V30 2384 H 240.493 3.17632 2.71109 0
M  V30 2385 N 240.93 -0.123565 1.57115 0
M  V30 2386 C 242.179 -0.830704 1.83799 0
M  V30 2387 C 242.492 -1.81259 0.735158 0
M  V30 2388 O 243.698 -2.56558 0.888278 0
M  V30 2389 C 242.154 -1.52802 3.25852 0
M  V30 2390 C 241.762 -0.587356 4.44133 0
M  V30 2391 C 243.506 -2.22056 3.61789 0
M  V30 2392 C 241.413 -1.28764 5.77212 0
M  V30 2393 H 240.343 -0.313967 0.685522 0
M  V30 2394 H 242.994 -0.0834359 1.8331 0
M  V30 2395 H 241.376 -2.32175 3.20797 0
M  V30 2396 H 242.55 0.172829 4.60476 0
M  V30 2397 H 240.865 -0.00201892 4.164 0
M  V30 2398 H 243.462 -2.75131 4.58483 0
M  V30 2399 H 243.805 -2.99644 2.88997 0
M  V30 2400 H 244.338 -1.49576 3.68608 0
M  V30 2401 H 241.077 -0.55314 6.53162 0
M  V30 2402 H 240.597 -2.01995 5.64764 0
M  V30 2403 H 242.276 -1.8221 6.20813 0
M  V30 2404 N 242.408 -1.52605 -0.393616 0
M  V30 2405 C 243.655 -1.67424 -1.1391 0
M  V30 2406 C 243.983 -0.411859 -1.90089 0
M  V30 2407 O 243.238 0.605626 -1.86093 0
M  V30 2408 C 243.537 -2.85721 -2.14705 0
M  V30 2409 C 243.203 -4.23342 -1.55218 0
M  V30 2410 C 241.865 -4.60771 -1.3872 0
M  V30 2411 C 244.217 -5.09041 -1.11924 0
M  V30 2412 C 241.545 -5.81563 -0.774689 0
M  V30 2413 C 243.897 -6.30452 -0.520853 0
M  V30 2414 C 242.561 -6.66617 -0.343134 0
M  V30 2415 H 241.831 -0.612648 -0.416826 0
M  V30 2416 H 244.478 -1.8674 -0.424315 0
M  V30 2417 H 242.783 -2.60803 -2.92385 0
M  V30 2418 H 244.48 -2.94382 -2.72288 0
M  V30 2419 H 241.07 -3.93855 -1.69045 0
M  V30 2420 H 245.254 -4.80695 -1.23473 0
M  V30 2421 H 240.51 -6.08196 -0.625154 0
M  V30 2422 H 244.684 -6.96175 -0.177065 0
M  V30 2423 H 242.311 -7.60083 0.133571 0
M  V30 2424 N 243.887 0.651787 -1.4349 0
M  V30 2425 C 245.136 1.40754 -1.44469 0
M  V30 2426 C 245.449 1.95463 -0.0731845 0
M  V30 2427 O 246.655 2.71471 0.0395721 0
M  V30 2428 C 245.111 2.54735 -2.5424 0
M  V30 2429 C 244.719 2.06628 -3.97504 0
M  V30 2430 C 246.463 3.32092 -2.64414 0
M  V30 2431 C 244.37 3.17829 -4.98737 0
M  V30 2432 H 243.3 0.528862 -0.53742 0
M  V30 2433 H 245.951 0.703365 -1.69485 0
M  V30 2434 H 244.333 3.2763 -2.22428 0
M  V30 2435 H 245.507 1.40734 -4.38783 0
M  V30 2436 H 243.822 1.42146 -3.91387 0
M  V30 2437 H 246.419 4.14952 -3.37223 0
M  V30 2438 H 246.762 3.80217 -1.69532 0
M  V30 2439 H 247.295 2.66279 -2.95534 0
M  V30 2440 H 244.034 2.74671 -5.95177 0
M  V30 2441 H 243.554 3.82429 -4.62069 0
M  V30 2442 H 245.233 3.82937 -5.21505 0
M  V30 2443 N 245.365 1.30045 0.890287 0
M  V30 2444 C 246.612 1.18561 1.64163 0
M  V30 2445 C 246.94 -0.260852 1.92743 0
M  V30 2446 O 246.195 -1.20376 1.54299 0
M  V30 2447 C 246.494 1.95409 2.99249 0
M  V30 2448 C 246.16 3.45066 2.90242 0
M  V30 2449 C 244.822 3.85878 2.87492 0
M  V30 2450 C 247.174 4.4039 2.78758 0
M  V30 2451 C 244.502 5.20314 2.7109 0
M  V30 2452 C 246.854 5.74928 2.63894 0
M  V30 2453 C 245.518 6.14986 2.59516 0
M  V30 2454 H 244.788 0.433846 0.600715 0
M  V30 2455 H 247.435 1.61088 1.03552 0
M  V30 2456 H 245.74 1.45501 3.63781 0
M  V30 2457 H 247.437 1.8392 3.56334 0
M  V30 2458 H 244.027 3.12631 2.93189 0
M  V30 2459 H 248.211 4.09806 2.79952 0
M  V30 2460 H 243.467 5.50449 2.66112 0
M  V30 2461 H 247.641 6.48434 2.53981 0
M  V30 2462 H 245.268 7.19104 2.46565 0
M  V30 2463 N 246.843 -1.10192 1.12674 0
M  V30 2464 C 248.091 -1.81845 0.881861 0
M  V30 2465 C 248.412 -1.85737 -0.593867 0
M  V30 2466 O 247.682 -1.33724 -1.4316 0
M  V30 2467 H 246.262 -0.673432 0.323261 0
M  V30 2468 H 248.924 -1.33316 1.42172 0
M  V30 2469 H 248.02 -2.85288 1.2656 0
M  V30 2470 N 248.321 -0.919034 -1.28029 0
M  V30 2471 C 249.284 -0.416182 -2.2539 0
M  V30 2472 C 250.284 0.460438 -1.54067 0
M  V30 2473 O 251.474 0.262744 -1.72207 0
M  V30 2474 C 248.606 0.402707 -3.38513 0
M  V30 2475 H 249.799 -1.27629 -2.71387 0
M  V30 2476 H 247.352 -0.698919 -1.39803 0
M  V30 2477 H 248.087 1.282 -2.97885 0
M  V30 2478 H 247.872 -0.225698 -3.9145 0
M  V30 2479 H 249.362 0.745191 -4.10897 0
M  V30 2480 N 249.799 1.42003 -0.683588 0
M  V30 2481 C 250.709 2.34597 -0.0109075 0
M  V30 2482 C 251.725 1.55576 0.779245 0
M  V30 2483 O 252.901 1.88107 0.719555 0
M  V30 2484 C 249.966 3.34199 0.922588 0
M  V30 2485 C 249.027 4.29115 0.125984 0
M  V30 2486 C 248.26 5.23959 1.01502 0
M  V30 2487 O 248.483 5.23952 2.25456 0
M  V30 2488 O 247.417 6.00053 0.47111 0
M  V30 2489 H 251.243 2.93675 -0.773853 0
M  V30 2490 H 248.828 1.42654 -0.443861 0
M  V30 2491 H 250.71 3.95365 1.45823 0
M  V30 2492 H 249.385 2.77582 1.66523 0
M  V30 2493 H 248.292 3.71335 -0.453969 0
M  V30 2494 H 249.625 4.88798 -0.577736 0
M  V30 2495 N 251.277 0.427512 1.51691 0
M  V30 2496 C 252.524 -0.142229 2.02 0
M  V30 2497 C 252.852 -1.43566 1.31221 0
M  V30 2498 O 252.107 -1.91298 0.412744 0
M  V30 2499 C 252.406 -0.418249 3.54944 0
M  V30 2500 C 252.072 0.788187 4.43958 0
M  V30 2501 C 250.734 1.11906 4.68007 0
M  V30 2502 C 253.086 1.59347 4.96244 0
M  V30 2503 C 250.414 2.25608 5.41588 0
M  V30 2504 C 252.766 2.7214 5.71072 0
M  V30 2505 C 251.43 3.05692 5.93387 0
M  V30 2506 H 250.7 -0.0520451 0.73917 0
M  V30 2507 H 253.347 0.572697 1.82736 0
M  V30 2508 H 251.652 -1.21496 3.72486 0
M  V30 2509 H 253.349 -0.872339 3.91397 0
M  V30 2510 H 249.939 0.520344 4.2543 0
M  V30 2511 H 254.123 1.35106 4.77556 0
M  V30 2512 H 249.379 2.51929 5.57083 0
M  V30 2513 H 253.553 3.34914 6.10578 0
M  V30 2514 H 251.18 3.9391 6.50184 0
M  V30 2515 N 252.755 -1.56801 0.158532 0
M  V30 2516 C 253.718 -2.16138 -0.762705 0
M  V30 2517 C 254.718 -1.1061 -1.16713 0
M  V30 2518 O 255.908 -1.36191 -1.08617 0
M  V30 2519 C 253.04 -2.73386 -2.03649 0
M  V30 2520 H 254.233 -2.98886 -0.246354 0
M  V30 2521 H 251.786 -1.56035 -0.0909744 0
M  V30 2522 H 252.521 -1.94335 -2.59623 0
M  V30 2523 H 252.306 -3.50601 -1.75559 0
M  V30 2524 H 253.796 -3.19065 -2.6942 0
M  V30 2525 N 254.233 0.115231 -1.57178 0
M  V30 2526 C 255.163 1.1423 -2.03651 0
M  V30 2527 C 256.144 1.42967 -0.921655 0
M  V30 2528 O 257.329 1.53343 -1.19162 0
M  V30 2529 C 254.459 2.4675 -2.44401 0
M  V30 2530 C 253.413 2.32467 -3.59365 0
M  V30 2531 C 252.739 3.69984 -3.86026 0
M  V30 2532 C 254.039 1.78203 -4.90959 0
M  V30 2533 H 255.733 0.755749 -2.89705 0
M  V30 2534 H 253.279 0.362093 -1.39373 0
M  V30 2535 H 255.232 3.18854 -2.75517 0
M  V30 2536 H 253.956 2.87302 -1.55322 0
M  V30 2537 H 252.615 1.62811 -3.28463 0
M  V30 2538 H 252.263 4.08028 -2.94147 0
M  V30 2539 H 251.963 3.61279 -4.63412 0
M  V30 2540 H 253.487 4.43587 -4.19599 0
M  V30 2541 H 254.901 2.40128 -5.20587 0
M  V30 2542 H 253.298 1.8031 -5.72371 0
M  V30 2543 H 254.368 0.739876 -4.79222 0
M  V30 2544 N 255.711 1.52812 0.385517 0
M  V30 2545 C 257.127 1.4214 0.725829 0
M  V30 2546 C 257.327 0.544589 1.94001 0
M  V30 2547 O 256.383 0.0193693 2.52493 0
M  V30 2548 C 257.696 2.85042 0.957668 0
M  V30 2549 C 259.244 2.94543 1.05892 0
M  V30 2550 C 259.719 4.38464 1.32337 0
M  V30 2551 N 261.21 4.41804 1.39151 0
M  V30 2552 C 261.945 5.5025 1.61285 0
M  V30 2553 N 261.441 6.68775 1.80866 0
M  V30 2554 N 263.234 5.37798 1.63492 0
M  V30 2555 H 255.385 2.08338 -0.413383 0
M  V30 2556 H 257.648 0.940016 -0.122775 0
M  V30 2557 H 257.354 3.51431 0.137568 0
M  V30 2558 H 257.228 3.27505 1.87137 0
M  V30 2559 H 259.615 2.28321 1.86959 0
M  V30 2560 H 259.696 2.55504 0.123057 0
M  V30 2561 H 259.34 5.05254 0.517793 0
M  V30 2562 H 259.27 4.75059 2.27214 0
M  V30 2563 H 261.761 3.56377 1.25713 0
M  V30 2564 H 262.074 7.47197 1.97271 0
M  V30 2565 H 260.419 6.71797 1.78083 0
M  V30 2566 H 263.61 4.44171 1.47749 0
M  V30 2567 H 263.783 6.22382 1.80402 0
M  V30 2568 N 257.189 -0.644168 1.43834 0
M  V30 2569 C 258.438 -1.39985 1.45214 0
M  V30 2570 C 258.751 -1.95421 0.0835494 0
M  V30 2571 O 259.957 -2.71488 -0.0251748 0
M  V30 2572 C 258.413 -2.53384 2.55587 0
M  V30 2573 C 258.021 -2.04517 3.98594 0
M  V30 2574 C 259.765 -3.30685 2.66172 0
M  V30 2575 C 257.672 -3.1518 5.00416 0
M  V30 2576 H 256.602 -0.526005 0.540218 0
M  V30 2577 H 259.253 -0.694367 1.69855 0
M  V30 2578 H 257.635 -3.26446 2.24163 0
M  V30 2579 H 258.809 -1.38405 4.39523 0
M  V30 2580 H 257.124 -1.40068 3.92135 0
M  V30 2581 H 259.721 -4.13158 3.39418 0
M  V30 2582 H 260.064 -3.79312 1.71546 0
M  V30 2583 H 260.597 -2.64708 2.96942 0
M  V30 2584 H 257.336 -2.71511 5.96625 0
M  V30 2585 H 256.856 -3.79974 4.64091 0
M  V30 2586 H 258.535 -3.80166 5.23529 0
M  V30 2587 N 258.668 -1.30515 -0.883378 0
M  V30 2588 C 259.914 -1.20617 -1.63778 0
M  V30 2589 C 260.269 0.236469 -1.90941 0
M  V30 2590 O 259.562 1.16596 -1.52039 0
M  V30 2591 C 259.756 -1.96994 -2.98209 0
M  V30 2592 C 259.585 -3.48537 -2.84169 0
M  V30 2593 C 258.355 -4.17893 -2.84067 0
M  V30 2594 C 260.553 -4.43738 -2.60001 0
M  V30 2595 N 258.535 -5.55685 -2.60936 0
M  V30 2596 C 259.906 -5.69105 -2.46007 0
M  V30 2597 C 261.961 -4.33316 -2.45239 0
M  V30 2598 C 260.664 -6.8523 -2.18752 0
M  V30 2599 C 262.69 -5.4921 -2.19369 0
M  V30 2600 C 262.052 -6.73558 -2.06153 0
M  V30 2601 H 258.151 -0.496434 -0.604216 0
M  V30 2602 H 260.735 -1.64544 -1.04083 0
M  V30 2603 H 258.906 -1.55455 -3.55933 0
M  V30 2604 H 260.638 -1.79225 -3.62851 0
M  V30 2605 H 257.393 -3.69739 -2.95956 0
M  V30 2606 H 257.817 -6.28199 -2.52378 0
M  V30 2607 H 262.459 -3.37856 -2.54191 0
M  V30 2608 H 260.177 -7.80729 -2.08537 0
M  V30 2609 H 263.763 -5.43054 -2.08766 0
M  V30 2610 H 262.643 -7.61721 -1.86416 0
M  V30 2611 N 260.146 1.09593 -1.13257 0
M  V30 2612 C 261.109 2.14359 -0.811358 0
M  V30 2613 C 262.109 1.59808 0.178377 0
M  V30 2614 O 263.299 1.74132 -0.0484911 0
M  V30 2615 C 260.431 3.40269 -0.207276 0
M  V30 2616 H 261.624 2.44284 -1.73969 0
M  V30 2617 H 259.177 1.25102 -0.936973 0
M  V30 2618 H 259.912 3.15969 0.73036 0
M  V30 2619 H 259.697 3.81154 -0.919992 0
M  V30 2620 H 261.187 4.176 0.000667944 0
M  V30 2621 N 261.624 0.925811 1.2754 0
M  V30 2622 C 262.587 0.428129 2.25166 0
M  V30 2623 C 263.587 -0.452261 1.54309 0
M  V30 2624 O 264.777 -0.253608 1.72344 0
M  V30 2625 C 261.909 -0.384749 3.38722 0
M  V30 2626 H 263.102 1.29066 2.70706 0
M  V30 2627 H 260.655 0.706323 1.3943 0
M  V30 2628 H 261.39 -1.26618 2.98561 0
M  V30 2629 H 261.175 0.246454 3.91325 0
M  V30 2630 H 262.665 -0.723389 4.11287 0
M  V30 2631 N 263.102 -1.41638 0.69111 0
M  V30 2632 C 264.35 -2.00902 0.219758 0
M  V30 2633 C 264.671 -1.54994 -1.18329 0
M  V30 2634 O 263.941 -0.778628 -1.79762 0
M  V30 2635 H 262.521 -0.74289 0.0782558 0
M  V30 2636 H 265.183 -1.73327 0.891271 0
M  V30 2637 H 264.279 -3.11224 0.233708 0
M  V30 2638 N 264.58 -0.43555 -1.51462 0
M  V30 2639 C 265.82 0.130708 -2.03982 0
M  V30 2640 C 266.184 1.40117 -1.31268 0
M  V30 2641 O 267.385 2.04755 -1.74152 0
M  V30 2642 C 265.656 0.346102 -3.5572 0
M  V30 2643 S 267.215 0.876022 -4.29967 0
M  V30 2644 H 264.033 0.0326881 -0.710248 0
M  V30 2645 H 266.635 -0.594544 -1.8624 0
M  V30 2646 H 265.339 -0.584911 -4.0621 0
M  V30 2647 H 264.87 1.09849 -3.77752 0
M  V30 2648 H 266.885 2.15379 -4.47019 0
M  V30 2649 N 266.058 1.56714 -0.166846 0
M  V30 2650 C 267.298 1.98641 0.481763 0
M  V30 2651 C 267.662 1.05038 1.6072 0
M  V30 2652 O 268.863 1.36087 2.31805 0
M  V30 2653 C 267.134 3.44362 0.956517 0
M  V30 2654 S 268.693 4.08317 1.60694 0
M  V30 2655 H 265.511 0.693873 0.155116 0
M  V30 2656 H 268.113 1.93719 -0.263251 0
M  V30 2657 H 266.817 4.10204 0.126936 0
M  V30 2658 H 266.348 3.53041 1.73568 0
M  V30 2659 H 268.363 4.02999 2.89494 0
M  V30 2660 N 267.536 -0.106894 1.57237 0
M  V30 2661 C 268.776 -0.818277 1.87306 0
M  V30 2662 C 269.14 -1.76474 0.756371 0
M  V30 2663 O 270.341 -2.5186 0.939155 0
M  V30 2664 C 268.612 -1.53806 3.22612 0
M  V30 2665 S 270.171 -2.28935 3.74345 0
M  V30 2666 H 266.989 -0.272862 0.656557 0
M  V30 2667 H 269.591 -0.075988 1.95352 0
M  V30 2668 H 268.295 -0.834951 4.01817 0
M  V30 2669 H 267.826 -2.32049 3.17674 0
M  V30 2670 H 269.841 -3.54871 3.46815 0
M  V30 2671 N 269.014 -1.53014 -0.377408 0
M  V30 2672 C 270.43 -1.42523 -0.718281 0
M  V30 2673 C 270.63 -0.55487 -1.9371 0
M  V30 2674 O 269.686 -0.0327593 -2.52479 0
M  V30 2675 C 270.999 -2.85546 -0.942539 0
M  V30 2676 C 272.547 -2.95101 -1.04329 0
M  V30 2677 C 273.022 -4.3916 -1.3001 0
M  V30 2678 N 274.513 -4.42536 -1.36806 0
M  V30 2679 C 275.248 -5.51097 -1.58364 0
M  V30 2680 N 274.744 -6.69724 -1.77317 0
M  V30 2681 N 276.537 -5.38657 -1.60638 0
M  V30 2682 H 268.688 -2.08116 0.424426 0
M  V30 2683 H 270.951 -0.939352 0.127759 0
M  V30 2684 H 270.657 -3.51499 -0.118929 0
M  V30 2685 H 270.531 -3.28493 -1.85397 0
M  V30 2686 H 272.918 -2.29309 -1.85745 0
M  V30 2687 H 272.999 -2.55566 -0.109505 0
M  V30 2688 H 272.643 -5.05521 -0.490991 0
M  V30 2689 H 272.573 -4.76258 -2.24691 0
M  V30 2690 H 275.064 -3.57039 -1.23821 0
M  V30 2691 H 275.377 -7.48233 -1.93306 0
M  V30 2692 H 273.722 -6.72732 -1.74518 0
M  V30 2693 H 276.913 -4.44948 -1.45391 0
M  V30 2694 H 277.086 -6.2333 -1.77098 0
M  V30 2695 N 270.492 0.636531 -1.44174 0
M  V30 2696 C 271.722 1.42146 -1.49927 0
M  V30 2697 C 272.13 1.88812 -0.121063 0
M  V30 2698 O 271.473 1.61126 0.882267 0
M  V30 2699 C 271.535 2.67883 -2.39748 0
M  V30 2700 C 271.199 2.43048 -3.8701 0
M  V30 2701 C 272.196 2.05216 -4.77684 0
M  V30 2702 C 269.881 2.56856 -4.3166 0
M  V30 2703 C 271.875 1.81512 -6.11009 0
M  V30 2704 C 269.562 2.32766 -5.65034 0
M  V30 2705 C 270.56 1.95152 -6.54526 0
M  V30 2706 O 270.248 1.71326 -7.85431 0
M  V30 2707 H 269.98 0.442567 -0.51099 0
M  V30 2708 H 272.534 0.786158 -1.8976 0
M  V30 2709 H 270.764 3.34032 -1.94832 0
M  V30 2710 H 272.453 3.29874 -2.36513 0
M  V30 2711 H 273.219 1.94111 -4.44462 0
M  V30 2712 H 269.098 2.85104 -3.62266 0
M  V30 2713 H 272.642 1.52077 -6.80822 0
M  V30 2714 H 268.539 2.43479 -5.97819 0
M  V30 2715 H 269.307 1.85616 -7.97176 0
M  V30 2716 N 271.97 1.30982 0.876444 0
M  V30 2717 C 272.917 1.18085 1.98304 0
M  V30 2718 C 273.887 0.0682263 1.6596 0
M  V30 2719 O 275.072 0.239937 1.89285 0
M  V30 2720 C 272.212 0.887475 3.33493 0
M  V30 2721 C 271.325 2.08281 3.78475 0
M  V30 2722 C 270.46 1.72678 5.0235 0
M  V30 2723 C 269.499 2.88657 5.39762 0
M  V30 2724 N 268.636 2.53292 6.54819 0
M  V30 2725 H 273.476 2.1275 2.08666 0
M  V30 2726 H 271.013 1.05839 1.02159 0
M  V30 2727 H 272.971 0.697961 4.1132 0
M  V30 2728 H 271.601 -0.022315 3.22792 0
M  V30 2729 H 270.653 2.3833 2.96484 0
M  V30 2730 H 271.965 2.95108 4.02135 0
M  V30 2731 H 271.119 1.50151 5.87826 0
M  V30 2732 H 269.858 0.830327 4.8058 0
M  V30 2733 H 268.863 3.1184 4.52809 0
M  V30 2734 H 270.088 3.79002 5.63502 0
M  V30 2735 H 268.034 1.66163 6.34607 0
M  V30 2736 H 267.951 3.3365 6.7839 0
M  V30 2737 H 269.219 2.34143 7.43503 0
M  V30 2738 N 273.449 -1.08991 1.13837 0
M  V30 2739 C 274.697 -1.80899 0.901098 0
M  V30 2740 C 275.018 -1.86356 -0.574134 0
M  V30 2741 O 274.288 -1.35235 -1.41733 0
M  V30 2742 H 272.868 -0.669966 0.330386 0
M  V30 2743 H 275.53 -1.318 1.43578 0
M  V30 2744 H 274.626 -2.83929 1.29578 0
M  V30 2745 N 274.927 -0.932562 -1.27047 0
M  V30 2746 C 276.173 -0.585913 -1.94778 0
M  V30 2747 C 276.528 0.864142 -1.71902 0
M  V30 2748 O 275.821 1.60894 -1.04037 0
M  V30 2749 C 276.015 -0.853713 -3.47054 0
M  V30 2750 C 275.844 -2.32825 -3.84737 0
M  V30 2751 C 274.614 -2.98184 -4.07939 0
M  V30 2752 C 276.812 -3.30612 -3.93954 0
M  V30 2753 N 274.794 -4.3574 -4.3244 0
M  V30 2754 C 276.165 -4.53395 -4.22887 0
M  V30 2755 C 278.22 -3.25755 -3.76548 0
M  V30 2756 C 276.923 -5.71927 -4.36224 0
M  V30 2757 C 278.949 -4.43604 -3.91113 0
M  V30 2758 C 278.311 -5.65166 -4.20437 0
M  V30 2759 H 274.41 -0.264617 -0.735868 0
M  V30 2760 H 276.994 -1.20019 -1.53309 0
M  V30 2761 H 275.165 -0.268557 -3.8747 0
M  V30 2762 H 276.897 -0.469202 -4.01971 0
M  V30 2763 H 273.652 -2.48835 -4.02961 0
M  V30 2764 H 274.076 -5.06915 -4.48738 0
M  V30 2765 H 278.718 -2.32835 -3.52913 0
M  V30 2766 H 276.436 -6.65308 -4.58683 0
M  V30 2767 H 280.022 -4.41368 -3.79059 0
M  V30 2768 H 278.902 -6.54836 -4.31462 0
M  V30 2769 N 276.405 1.4127 -0.698611 0
M  V30 2770 C 277.821 1.55241 -0.370462 0
M  V30 2771 C 278.021 1.67351 1.12231 0
M  V30 2772 O 277.077 1.65363 1.90818 0
M  V30 2773 C 278.39 2.78997 -1.12165 0
M  V30 2774 C 279.938 2.92797 -1.1063 0
M  V30 2775 C 280.413 4.19445 -1.8393 0
M  V30 2776 N 281.904 4.26409 -1.80914 0
M  V30 2777 C 282.639 5.23271 -2.34467 0
M  V30 2778 N 282.135 6.26145 -2.96504 0
M  V30 2779 N 283.928 5.15232 -2.24706 0
M  V30 2780 H 276.079 1.31654 -1.66676 0
M  V30 2781 H 278.342 0.635393 -0.703548 0
M  V30 2782 H 278.048 2.76268 -2.17644 0
M  V30 2783 H 277.922 3.70606 -0.702209 0
M  V30 2784 H 280.309 2.95039 -0.0597713 0
M  V30 2785 H 280.39 2.02353 -1.56483 0
M  V30 2786 H 280.034 4.17964 -2.88563 0
M  V30 2787 H 279.964 5.08866 -1.35509 0
M  V30 2788 H 282.455 3.527 -1.35687 0
M  V30 2789 H 282.768 6.96451 -3.34927 0
M  V30 2790 H 281.113 6.26638 -3.00583 0
M  V30 2791 H 284.304 4.33789 -1.7591 0
M  V30 2792 H 284.477 5.90552 -2.66745 0
M  V30 2793 N 277.883 0.443576 1.51229 0
M  V30 2794 C 279.131 -0.120557 2.0174 0
M  V30 2795 C 279.452 -1.42665 1.32935 0
M  V30 2796 O 278.722 -1.9028 0.465866 0
M  V30 2797 H 277.302 -0.0475426 0.745486 0
M  V30 2798 H 279.964 0.587711 1.85828 0
M  V30 2799 H 279.06 -0.291972 3.10731 0
M  V30 2800 N 279.361 -1.56624 0.175154 0
M  V30 2801 C 280.777 -1.58571 -0.180966 0
M  V30 2802 C 280.977 -1.19065 -1.6256 0
M  V30 2803 O 280.033 -0.904044 -2.35761 0
M  V30 2804 C 281.346 -3.00522 0.103326 0
M  V30 2805 C 282.894 -3.12972 0.0418426 0
M  V30 2806 C 283.369 -4.57022 0.299175 0
M  V30 2807 N 284.86 -4.62541 0.247086 0
M  V30 2808 C 285.595 -5.71857 0.420318 0
M  V30 2809 N 285.091 -6.89717 0.652816 0
M  V30 2810 N 286.884 -5.60972 0.355957 0
M  V30 2811 H 279.035 -1.80589 1.11809 0
M  V30 2812 H 281.298 -0.837178 0.444788 0
M  V30 2813 H 281.004 -3.33916 1.10422 0
M  V30 2814 H 280.878 -3.72344 -0.603299 0
M  V30 2815 H 283.265 -2.79403 -0.949636 0
M  V30 2816 H 283.346 -2.43578 0.781238 0
M  V30 2817 H 282.99 -4.913 1.28788 0
M  V30 2818 H 282.92 -5.24579 -0.460876 0
M  V30 2819 H 285.411 -3.77829 0.0731895 0
M  V30 2820 H 285.724 -7.68911 0.774347 0
M  V30 2821 H 284.069 -6.91572 0.689476 0
M  V30 2822 H 287.26 -4.67773 0.174882 0
M  V30 2823 H 287.433 -6.46111 0.494388 0
M  V30 2824 N 280.839 0.0985539 -1.57292 0
M  V30 2825 C 281.769 1.12064 -2.04851 0
M  V30 2826 C 282.75 1.41981 -0.936767 0
M  V30 2827 O 283.935 1.52071 -1.20781 0
M  V30 2828 C 281.065 2.44144 -2.47004 0
M  V30 2829 C 280.019 2.28643 -3.6181 0
M  V30 2830 C 279.345 3.65869 -3.89929 0
M  V30 2831 C 280.645 1.72986 -4.92822 0
M  V30 2832 H 282.339 0.724979 -2.9049 0
M  V30 2833 H 279.885 0.34729 -1.39749 0
M  V30 2834 H 281.838 3.15914 -2.78884 0
M  V30 2835 H 280.562 2.85639 -1.5836 0
M  V30 2836 H 279.221 1.59318 -3.30172 0
M  V30 2837 H 278.869 4.04885 -2.98458 0
M  V30 2838 H 278.569 3.56344 -4.67218 0
M  V30 2839 H 280.093 4.39112 -4.2428 0
M  V30 2840 H 281.507 2.34593 -5.23105 0
M  V30 2841 H 279.904 1.74229 -5.74251 0
M  V30 2842 H 280.974 0.689007 -4.7998 0
M  V30 2843 N 282.317 1.53212 0.369288 0
M  V30 2844 C 283.264 1.79388 1.45219 0
M  V30 2845 C 284.234 0.638059 1.53356 0
M  V30 2846 O 285.419 0.879852 1.69302 0
M  V30 2847 C 282.559 1.98623 2.82211 0
M  V30 2848 C 281.672 3.26337 2.8307 0
M  V30 2849 C 280.807 3.35779 4.11614 0
M  V30 2850 C 279.846 4.5754 4.06601 0
M  V30 2851 N 278.983 4.64155 5.26787 0
M  V30 2852 H 283.823 2.71794 1.22198 0
M  V30 2853 H 281.36 1.34642 0.592444 0
M  V30 2854 H 283.318 2.07761 3.61789 0
M  V30 2855 H 281.948 1.09558 3.03639 0
M  V30 2856 H 281 3.26171 1.95747 0
M  V30 2857 H 282.312 4.15988 2.75237 0
M  V30 2858 H 281.466 3.44208 4.99606 0
M  V30 2859 H 280.205 2.44137 4.22195 0
M  V30 2860 H 279.21 4.49215 3.16996 0
M  V30 2861 H 280.435 5.50519 3.97625 0
M  V30 2862 H 278.381 3.75413 5.3796 0
M  V30 2863 H 278.298 5.47706 5.21109 0
M  V30 2864 H 279.566 4.76863 6.16621 0
M  V30 2865 N 283.795 -0.628877 1.44509 0
M  V30 2866 C 285.042 -1.38839 1.47411 0
M  V30 2867 C 285.37 -1.94202 0.10757 0
M  V30 2868 O 284.625 -1.74243 -0.890947 0
M  V30 2869 C 284.924 -2.56995 2.48371 0
M  V30 2870 C 284.59 -2.19908 3.93639 0
M  V30 2871 C 283.252 -2.09506 4.33198 0
M  V30 2872 C 285.604 -1.9064 4.85083 0
M  V30 2873 C 282.932 -1.68028 5.62124 0
M  V30 2874 C 285.284 -1.50655 6.14399 0
M  V30 2875 C 283.948 -1.38796 6.5291 0
M  V30 2876 H 283.218 -0.508048 0.539414 0
M  V30 2877 H 285.865 -0.712913 1.77735 0
M  V30 2878 H 284.17 -3.29786 2.11538 0
M  V30 2879 H 285.867 -3.15223 2.47861 0
M  V30 2880 H 282.457 -2.28922 3.62343 0
M  V30 2881 H 286.641 -1.97585 4.55273 0
M  V30 2882 H 281.897 -1.57452 5.90778 0
M  V30 2883 H 286.071 -1.27048 6.84713 0
M  V30 2884 H 283.698 -1.06429 7.52713 0
M  V30 2885 N 285.273 -1.31445 -0.869486 0
M  V30 2886 C 286.236 -1.19094 -1.9583 0
M  V30 2887 C 287.236 -0.117906 -1.60367 0
M  V30 2888 O 288.426 -0.367208 -1.70286 0
M  V30 2889 C 285.558 -0.828165 -3.30688 0
M  V30 2890 H 286.751 -2.15842 -2.08212 0
M  V30 2891 H 284.304 -1.15063 -1.05784 0
M  V30 2892 H 285.039 0.138142 -3.24006 0
M  V30 2893 H 284.824 -1.6038 -3.578 0
M  V30 2894 H 286.314 -0.765658 -4.10521 0
M  V30 2895 N 286.751 1.08385 -1.14413 0
M  V30 2896 C 288.167 1.32844 -0.884563 0
M  V30 2897 C 288.367 1.95841 0.474181 0
M  V30 2898 O 287.423 2.21158 1.21842 0
M  V30 2899 C 288.736 2.22978 -2.01745 0
M  V30 2900 C 290.284 2.36458 -2.05077 0
M  V30 2901 C 290.759 3.29934 -3.1766 0
M  V30 2902 N 292.25 3.37511 -3.17239 0
M  V30 2903 C 292.985 4.09871 -4.0099 0
M  V30 2904 N 292.481 4.84936 -4.94781 0
M  V30 2905 N 294.274 4.05704 -3.89051 0
M  V30 2906 H 286.425 0.658756 -2.01926 0
M  V30 2907 H 288.688 0.352821 -0.879899 0
M  V30 2908 H 288.394 1.83934 -2.99769 0
M  V30 2909 H 288.268 3.23441 -1.94077 0
M  V30 2910 H 290.655 2.7476 -1.0766 0
M  V30 2911 H 290.736 1.35736 -2.16816 0
M  V30 2912 H 290.38 2.92352 -4.15322 0
M  V30 2913 H 290.31 4.30584 -3.03158 0
M  V30 2914 H 292.801 2.83996 -2.49308 0
M  V30 2915 H 293.114 5.37612 -5.55151 0
M  V30 2916 H 291.459 4.83988 -4.98779 0
M  V30 2917 H 294.65 3.46167 -3.15097 0
M  V30 2918 H 294.823 4.61834 -4.54547 0
M  V30 2919 N 288.23 0.939286 1.26551 0
M  V30 2920 C 289.177 0.446088 2.26448 0
M  V30 2921 C 290.147 -0.493234 1.58608 0
M  V30 2922 O 291.332 -0.409857 1.86346 0
M  V30 2923 C 288.472 -0.284375 3.43926 0
M  V30 2924 C 287.585 0.690399 4.26448 0
M  V30 2925 C 286.72 -0.0610712 5.31165 0
M  V30 2926 C 285.759 0.905649 6.05363 0
M  V30 2927 N 284.896 0.186055 7.01853 0
M  V30 2928 H 289.736 1.30291 2.68008 0
M  V30 2929 H 287.273 0.65371 1.31776 0
M  V30 2930 H 289.231 -0.724313 4.10864 0
M  V30 2931 H 287.861 -1.10535 3.03285 0
M  V30 2932 H 286.913 1.24885 3.59316 0
M  V30 2933 H 288.225 1.42873 4.779 0
M  V30 2934 H 287.379 -0.56038 6.04106 0
M  V30 2935 H 286.118 -0.832297 4.80546 0
M  V30 2936 H 285.123 1.4161 5.3125 0
M  V30 2937 H 286.348 1.67685 6.58072 0
M  V30 2938 H 284.294 -0.566714 6.53548 0
M  V30 2939 H 284.211 0.863752 7.51049 0
M  V30 2940 H 285.479 -0.292221 7.78952 0
M  V30 2941 N 289.708 -1.40897 0.706093 0
M  V30 2942 C 291.119 -1.84023 0.315052 0
M  V30 2943 C 291.47 -1.5906 -1.14866 0
M  V30 2944 O 290.595 -1.06651 -1.88293 0
M  V30 2945 C 291.19 -3.34055 0.565038 0
M  V30 2946 C 289.749 -3.7571 0.227806 0
M  V30 2947 C 288.896 -2.64204 0.842122 0
M  V30 2948 H 291.847 -1.303 0.905963 0
M  V30 2949 H 291.868 -3.80107 -0.172843 0
M  V30 2950 H 291.38 -3.52192 1.63042 0
M  V30 2951 H 289.481 -3.63172 -0.832895 0
M  V30 2952 H 289.594 -4.74103 0.690174 0
M  V30 2953 H 287.958 -2.53255 0.270893 0
M  V30 2954 H 288.741 -2.85155 1.91158 0
M  V30 2955 N 291.186 -0.45159 -1.50991 0
M  V30 2956 C 292.116 0.342898 -2.30969 0
M  V30 2957 C 293.097 1.00815 -1.37005 0
M  V30 2958 O 294.282 1.00907 -1.65926 0
M  V30 2959 C 291.412 1.43637 -3.16205 0
M  V30 2960 C 290.366 0.893818 -4.18563 0
M  V30 2961 C 289.692 2.08411 -4.92411 0
M  V30 2962 C 290.992 -0.0815568 -5.22236 0
M  V30 2963 H 292.686 -0.324556 -2.97636 0
M  V30 2964 H 290.232 -0.157531 -1.43136 0
M  V30 2965 H 292.185 1.9995 -3.70942 0
M  V30 2966 H 290.909 2.13232 -2.47386 0
M  V30 2967 H 289.568 0.352798 -3.64898 0
M  V30 2968 H 289.216 2.76658 -4.20082 0
M  V30 2969 H 288.916 1.72741 -5.61636 0
M  V30 2970 H 290.44 2.65251 -5.49976 0
M  V30 2971 H 291.854 0.391742 -5.7196 0
M  V30 2972 H 290.251 -0.351551 -5.99069 0
M  V30 2973 H 291.321 -1.01374 -4.74185 0
M  V30 2974 N 292.664 1.56529 -0.183458 0
M  V30 2975 C 293.904 1.99141 0.460667 0
M  V30 2976 C 294.268 1.06736 1.59597 0
M  V30 2977 O 295.469 1.38538 2.30349 0
M  V30 2978 C 293.74 3.45358 0.919939 0
M  V30 2979 S 295.299 4.09999 1.56354 0
M  V30 2980 H 292.117 0.695479 0.147748 0
M  V30 2981 H 294.719 1.93429 -0.283782 0
M  V30 2982 H 293.423 4.10315 0.0834208 0
M  V30 2983 H 292.954 3.54862 1.69814 0
M  V30 2984 H 294.969 4.06046 2.85203 0
M  V30 2985 N 294.142 -0.090211 1.57342 0
M  V30 2986 C 295.075 -1.14035 1.97664 0
M  V30 2987 C 296.053 -1.38576 0.850616 0
M  V30 2988 O 297.237 -1.52255 1.11134 0
M  V30 2989 C 294.364 -2.48854 2.2976 0
M  V30 2990 C 293.41 -2.40564 3.52181 0
M  V30 2991 S 294.243 -1.81745 5.03715 0
M  V30 2992 C 295.399 -3.18178 5.38993 0
M  V30 2993 H 295.632 -0.796636 2.86428 0
M  V30 2994 H 293.165 -0.298072 1.51496 0
M  V30 2995 H 295.123 -3.26413 2.48927 0
M  V30 2996 H 293.784 -2.80393 1.41558 0
M  V30 2997 H 292.977 -3.39942 3.72096 0
M  V30 2998 H 292.579 -1.71135 3.32549 0
M  V30 2999 H 294.871 -4.14461 5.35937 0
M  V30 3000 H 295.814 -3.03062 6.39968 0
M  V30 3001 H 296.222 -3.17935 4.66452 0
M  V30 3002 N 295.62 -1.53406 -0.361157 0
M  V30 3003 C 296.55 -1.83136 -1.44857 0
M  V30 3004 C 297.531 -0.685174 -1.5569 0
M  V30 3005 O 298.716 -0.93544 -1.70186 0
M  V30 3006 C 295.846 -2.02522 -2.82138 0
M  V30 3007 C 294.8 -3.18302 -2.86126 0
M  V30 3008 C 294.126 -3.22989 -4.26125 0
M  V30 3009 C 295.426 -4.56796 -2.53248 0
M  V30 3010 H 297.12 -2.74201 -1.20226 0
M  V30 3011 H 294.666 -1.31938 -0.576922 0
M  V30 3012 H 296.619 -2.21904 -3.58241 0
M  V30 3013 H 295.343 -1.08172 -3.08166 0
M  V30 3014 H 294.002 -2.98747 -2.12475 0
M  V30 3015 H 293.65 -2.26267 -4.49235 0
M  V30 3016 H 293.35 -4.00781 -4.29708 0
M  V30 3017 H 294.874 -3.44559 -5.04094 0
M  V30 3018 H 296.288 -4.7631 -3.19064 0
M  V30 3019 H 294.685 -5.36862 -2.68141 0
M  V30 3020 H 295.755 -4.61606 -1.48484 0
M  V30 3021 N 297.098 0.621204 -1.44841 0
M  V30 3022 C 298.375 1.38 -1.38619 0
M  V30 3023 C 298.755 2.11041 -0.0498935 0
M  V30 3024 O 298.103 2.06992 0.967816 0
M  V30 3025 C 298.313 2.33817 -2.59096 0
M  V30 3026 C 299.661 2.96844 -3.03593 0
M  V30 3027 O 300.685 2.44141 -2.59371 0
M  V30 3028 O 299.544 3.92476 -3.80296 0
M  V30 3029 H 296.638 0.61811 -0.549426 0
M  V30 3030 H 299.184 0.645429 -1.56947 0
M  V30 3031 H 297.956 1.79012 -3.47952 0
M  V30 3032 H 297.579 3.14676 -2.43032 0
M  V30 3033 N 298.576 1.31904 0.862503 0
M  V30 3034 C 299.825 1.21373 1.61094 0
M  V30 3035 C 300.138 -0.22504 1.94301 0
M  V30 3036 O 301.344 -0.452121 2.67709 0
M  V30 3037 C 299.8 2.12525 2.9045 0
M  V30 3038 C 299.408 3.61441 2.64697 0
M  V30 3039 C 301.152 2.10813 3.68454 0
M  V30 3040 C 299.059 4.44578 3.90006 0
M  V30 3041 H 297.989 0.450705 0.604468 0
M  V30 3042 H 300.64 1.56811 0.953027 0
M  V30 3043 H 299.022 1.69994 3.57656 0
M  V30 3044 H 300.196 4.12264 2.05851 0
M  V30 3045 H 298.511 3.65205 2.00036 0
M  V30 3046 H 301.108 2.70167 4.61426 0
M  V30 3047 H 301.451 1.09713 4.01583 0
M  V30 3048 H 301.984 2.51583 3.08141 0
M  V30 3049 H 298.723 5.46461 3.62023 0
M  V30 3050 H 298.243 3.98508 4.48276 0
M  V30 3051 H 299.922 4.57176 4.5782 0
M  V30 3052 N 300.054 -1.07777 1.14986 0
M  V30 3053 C 301.301 -1.8029 0.922056 0
M  V30 3054 C 301.629 -1.86531 -0.55105 0
M  V30 3055 O 300.884 -1.34189 -1.42449 0
M  V30 3056 C 301.183 -3.25495 1.47608 0
M  V30 3057 C 300.849 -3.39361 2.96893 0
M  V30 3058 C 299.511 -3.42852 3.37647 0
M  V30 3059 C 301.863 -3.42512 3.92854 0
M  V30 3060 C 299.191 -3.47094 4.73015 0
M  V30 3061 C 301.543 -3.4829 5.28088 0
M  V30 3062 C 300.207 -3.50058 5.68345 0
M  V30 3063 H 299.477 -0.659727 0.337404 0
M  V30 3064 H 302.124 -1.26854 1.43459 0
M  V30 3065 H 300.429 -3.81683 0.88463 0
M  V30 3066 H 302.126 -3.80168 1.27568 0
M  V30 3067 H 298.716 -3.37339 2.64387 0
M  V30 3068 H 302.9 -3.3904 3.62444 0
M  V30 3069 H 298.156 -3.46758 5.03556 0
M  V30 3070 H 302.33 -3.49675 6.02246 0
M  V30 3071 H 299.957 -3.53097 6.73221 0
M  V30 3072 N 301.532 -0.945985 -1.26051 0
M  V30 3073 C 302.778 -0.597002 -1.93814 0
M  V30 3074 C 303.111 0.862484 -1.73997 0
M  V30 3075 O 302.386 1.61769 -1.07986 0
M  V30 3076 C 302.669 -0.945937 -3.47454 0
M  V30 3077 C 302.522 -2.46052 -3.76535 0
M  V30 3078 C 303.841 -0.464785 -4.37639 0
M  V30 3079 H 300.96 -0.218366 -0.703907 0
M  V30 3080 H 303.602 -1.18107 -1.48831 0
M  V30 3081 H 301.752 -0.448902 -3.85898 0
M  V30 3082 H 303.424 -3.03065 -3.47778 0
M  V30 3083 H 301.667 -2.90194 -3.22444 0
M  V30 3084 H 302.338 -2.65517 -4.83947 0
M  V30 3085 H 304.814 -0.891016 -4.06448 0
M  V30 3086 H 303.69 -0.737712 -5.4392 0
M  V30 3087 H 303.951 0.635274 -4.37512 0
M  V30 3088 N 303.011 1.40521 -0.713556 0
M  V30 3089 C 303.941 2.33381 -0.0743864 0
M  V30 3090 C 304.922 1.52784 0.747735 0
M  V30 3091 O 306.107 1.81258 0.697071 0
M  V30 3092 C 303.237 3.36748 0.849598 0
M  V30 3093 C 302.191 4.27793 0.133247 0
M  V30 3094 C 301.517 5.21679 1.17281 0
M  V30 3095 C 302.817 5.12415 -1.01134 0
M  V30 3096 H 304.511 2.87081 -0.850007 0
M  V30 3097 H 302.057 1.38034 -0.410201 0
M  V30 3098 H 304.01 4.00648 1.30612 0
M  V30 3099 H 302.734 2.81439 1.65709 0
M  V30 3100 H 301.393 3.65342 -0.303426 0
M  V30 3101 H 301.041 4.62677 1.9733 0
M  V30 3102 H 300.741 5.83435 0.698397 0
M  V30 3103 H 302.265 5.88456 1.62947 0
M  V30 3104 H 303.679 5.69781 -0.634274 0
M  V30 3105 H 302.076 5.83203 -1.41399 0
M  V30 3106 H 303.146 4.48514 -1.84292 0
M  V30 3107 N 304.489 0.459591 1.5075 0
M  V30 3108 C 305.738 -0.100971 2.01447 0
M  V30 3109 C 306.051 -1.41816 1.34713 0
M  V30 3110 O 307.257 -2.06299 1.76502 0
M  V30 3111 C 305.713 -0.23047 3.59161 0
M  V30 3112 C 305.321 1.0776 4.34847 0
M  V30 3113 C 307.065 -0.743608 4.17936 0
M  V30 3114 C 304.972 0.91253 5.84317 0
M  V30 3115 H 303.902 -0.0415102 0.752856 0
M  V30 3116 H 306.553 0.592742 1.73663 0
M  V30 3117 H 304.935 -0.987703 3.83485 0
M  V30 3118 H 306.109 1.8449 4.22256 0
M  V30 3119 H 304.424 1.52097 3.87628 0
M  V30 3120 H 307.021 -0.883959 5.27343 0
M  V30 3121 H 307.364 -1.73196 3.78562 0
M  V30 3122 H 307.897 -0.04408 3.97776 0
M  V30 3123 H 304.636 1.87391 6.28144 0
M  V30 3124 H 304.156 0.185422 5.99513 0
M  V30 3125 H 305.835 0.574547 6.44444 0
M  V30 3126 N 305.967 -1.56429 0.191757 0
M  V30 3127 C 306.93 -2.17707 -0.716688 0
M  V30 3128 C 307.93 -1.13061 -1.14341 0
M  V30 3129 O 309.12 -1.38464 -1.05704 0
M  V30 3130 C 306.252 -2.77644 -1.97804 0
M  V30 3131 H 307.445 -2.99342 -0.1829 0
M  V30 3132 H 304.998 -1.56193 -0.0578566 0
M  V30 3133 H 305.733 -1.99799 -2.55443 0
M  V30 3134 H 305.518 -3.54246 -1.68083 0
M  V30 3135 H 307.008 -3.24708 -2.62592 0
M  V30 3136 N 307.445 0.0818655 -1.57387 0
M  V30 3137 C 308.67 0.799946 -1.91352 0
M  V30 3138 C 309.095 1.70833 -0.787258 0
M  V30 3139 O 308.453 1.79419 0.26048 0
M  V30 3140 C 308.501 1.57812 -3.24234 0
M  V30 3141 O 307.605 2.68806 -3.12757 0
M  V30 3142 H 306.946 0.21891 -0.626877 0
M  V30 3143 H 309.476 0.0531256 -2.04531 0
M  V30 3144 H 309.486 1.95952 -3.57864 0
M  V30 3145 H 308.161 0.911548 -4.05788 0
M  V30 3146 H 306.738 2.33597 -2.90666 0
M  V30 3147 N 308.923 1.53595 0.353017 0
M  V30 3148 C 310.169 1.70638 1.09593 0
M  V30 3149 C 310.502 0.463286 1.88593 0
M  V30 3150 O 309.777 -0.539597 1.86865 0
M  V30 3151 C 310.06 2.96406 2.04489 0
M  V30 3152 C 309.913 4.30901 1.29014 0
M  V30 3153 C 311.232 3.17812 3.0444 0
M  V30 3154 H 308.351 0.620913 0.397034 0
M  V30 3155 H 310.993 1.86254 0.375446 0
M  V30 3156 H 309.143 2.83223 2.65927 0
M  V30 3157 H 310.815 4.55917 0.702638 0
M  V30 3158 H 309.058 4.29741 0.592071 0
M  V30 3159 H 309.729 5.1506 1.98537 0
M  V30 3160 H 312.205 3.30263 2.53112 0
M  V30 3161 H 311.081 4.07223 3.6805 0
M  V30 3162 H 311.342 2.33669 3.75301 0
M  V30 3163 N 310.401 -0.613514 1.45168 0
M  V30 3164 C 311.812 -1.19539 1.43413 0
M  V30 3165 C 312.163 -1.95558 0.158632 0
M  V30 3166 O 311.288 -2.0335 -0.740119 0
M  V30 3167 C 311.883 -2.17445 2.59813 0
M  V30 3168 C 310.442 -2.71022 2.61197 0
M  V30 3169 C 309.589 -1.46323 2.35552 0
M  V30 3170 H 312.54 -0.403163 1.53494 0
M  V30 3171 H 312.561 -3.00373 2.33574 0
M  V30 3172 H 312.073 -1.62089 3.52631 0
M  V30 3173 H 310.174 -3.30332 1.7237 0
M  V30 3174 H 310.287 -3.15859 3.60236 0
M  V30 3175 H 308.651 -1.75072 1.84992 0
M  V30 3176 H 309.434 -0.92844 3.30507 0
M  V30 3177 N 311.879 -1.3236 -0.855495 0
M  V30 3178 C 313.125 -1.23054 -1.612 0
M  V30 3179 C 313.458 0.207404 -1.93089 0
M  V30 3180 O 312.733 1.14432 -1.57275 0
M  V30 3181 C 313.016 -2.08937 -2.93287 0
M  V30 3182 C 312.869 -3.61105 -2.68185 0
M  V30 3183 C 314.188 -1.94986 -3.94549 0
M  V30 3184 H 311.307 -0.448364 -0.584926 0
M  V30 3185 H 313.949 -1.62297 -0.987917 0
M  V30 3186 H 312.099 -1.75599 -3.46551 0
M  V30 3187 H 313.771 -4.04652 -2.21483 0
M  V30 3188 H 312.014 -3.83813 -2.02164 0
M  V30 3189 H 312.685 -4.16522 -3.62234 0
M  V30 3190 H 315.161 -2.24189 -3.5054 0
M  V30 3191 H 314.037 -2.57356 -4.84829 0
M  V30 3192 H 314.298 -0.917263 -4.3248 0
M  V30 3193 N 313.357 1.07166 -1.15556 0
M  V30 3194 C 314.603 1.80065 -0.932984 0
M  V30 3195 C 314.936 1.86586 0.53845 0
M  V30 3196 O 314.211 1.35098 1.39924 0
M  V30 3197 C 314.494 3.25022 -1.55025 0
M  V30 3198 C 314.347 3.26634 -3.09242 0
M  V30 3199 C 315.666 4.22341 -1.2376 0
M  V30 3200 H 312.785 0.653697 -0.340366 0
M  V30 3201 H 315.427 1.25389 -1.4275 0
M  V30 3202 H 313.577 3.71712 -1.12972 0
M  V30 3203 H 315.249 2.88173 -3.60214 0
M  V30 3204 H 313.492 2.65539 -3.43033 0
M  V30 3205 H 314.163 4.28854 -3.47546 0
M  V30 3206 H 316.639 3.8405 -1.60139 0
M  V30 3207 H 315.515 5.22053 -1.69564 0
M  V30 3208 H 315.776 4.41828 -0.154938 0
M  V30 3209 N 314.835 0.952656 1.25548 0
M  V30 3210 C 315.798 0.475794 2.24207 0
M  V30 3211 C 316.798 -0.419428 1.55234 0
M  V30 3212 O 317.988 -0.216994 1.72843 0
M  V30 3213 C 315.12 -0.312814 3.39462 0
M  V30 3214 H 316.313 1.34779 2.67908 0
M  V30 3215 H 313.866 0.735739 1.37901 0
M  V30 3216 H 314.601 -1.20257 3.01179 0
M  V30 3217 H 314.386 0.329404 3.90714 0
M  V30 3218 H 315.876 -0.635986 4.12729 0
M  V30 3219 N 316.313 -1.40141 0.720998 0
M  V30 3220 C 317.559 -2.01084 0.263231 0
M  V30 3221 C 317.892 -1.57052 -1.14229 0
M  V30 3222 O 317.167 -0.793027 -1.77599 0
M  V30 3223 C 317.45 -3.58401 0.349344 0
M  V30 3224 C 317.303 -4.12491 1.79363 0
M  V30 3225 C 318.622 -4.39231 -0.276351 0
M  V30 3226 H 315.741 -0.730572 0.0971228 0
M  V30 3227 H 318.383 -1.66543 0.914518 0
M  V30 3228 H 316.533 -3.87958 -0.205165 0
M  V30 3229 H 318.205 -3.93711 2.40394 0
M  V30 3230 H 316.448 -3.66576 2.31958 0
M  V30 3231 H 317.119 -5.21646 1.80524 0
M  V30 3232 H 319.595 -4.15637 0.196184 0
M  V30 3233 H 318.471 -5.48586 -0.185681 0
M  V30 3234 H 318.732 -4.20643 -1.36059 0
M  V30 3235 N 317.792 -0.46758 -1.50504 0
M  V30 3236 C 319.04 0.0884469 -2.01906 0
M  V30 3237 C 319.361 1.40532 -1.35188 0
M  V30 3238 O 318.631 1.89515 -0.496079 0
M  V30 3239 H 317.211 0.0356765 -0.746148 0
M  V30 3240 H 319.873 -0.6172 -1.84869 0
M  V30 3241 H 318.969 0.2425 -3.11156 0
M  V30 3242 N 319.27 1.56325 -0.20005 0
M  V30 3243 C 320.218 2.20666 0.735482 0
M  V30 3244 C 321.212 1.17934 1.21605 0
M  V30 3245 O 322.418 1.36068 1.17837 0
M  V30 3246 H 318.793 0.70725 0.255542 0
M  V30 3247 H 320.764 2.9792 0.169166 0
M  V30 3248 C 319.513 2.88391 1.94232 0
M  V30 3249 H 318.836 3.67185 1.58161 0
M  V30 3250 H 320.276 3.3684 2.57517 0
M  V30 3251 C 318.735 1.89692 2.78421 0
M  V30 3252 O 319.265 1.40032 3.76502 0
M  V30 3253 N 317.471 1.57813 2.44015 0
M  V30 3254 H 317.018 1.9839 1.64314 0
M  V30 3255 H 316.976 0.920325 3.00628 0
M  V30 3256 N 320.748 -0.0735177 1.57428 0
M  V30 3257 C 321.68 -1.11423 2.00294 0
M  V30 3258 C 322.693 -1.35084 0.908637 0
M  V30 3259 O 323.882 -1.33355 1.18654 0
M  V30 3260 C 320.982 -2.46548 2.32523 0
M  V30 3261 C 320.155 -2.42867 3.63778 0
M  V30 3262 C 319.214 -3.60087 3.83697 0
M  V30 3263 O 318.24 -3.41595 4.55304 0
M  V30 3264 N 319.442 -4.80372 3.25919 0
M  V30 3265 H 322.207 -0.749206 2.90184 0
M  V30 3266 H 319.768 -0.262195 1.59763 0
M  V30 3267 H 321.76 -3.23607 2.43024 0
M  V30 3268 H 320.33 -2.75059 1.48531 0
M  V30 3269 H 319.55 -1.51206 3.64047 0
M  V30 3270 H 320.838 -2.37506 4.49965 0
M  V30 3271 H 320.236 -4.983 2.67795 0
M  V30 3272 H 318.793 -5.54948 3.41871 0
M  V30 3273 N 322.226 -1.5378 -0.344866 0
M  V30 3274 C 323.474 -1.70625 -1.08311 0
M  V30 3275 C 323.795 -0.471447 -1.89215 0
M  V30 3276 O 323.065 0.514616 -1.8902 0
M  V30 3277 H 321.645 -0.629058 -0.402859 0
M  V30 3278 H 324.307 -1.9103 -0.386459 0
M  V30 3279 H 323.403 -2.57656 -1.76124 0
M  V30 3280 N 323.704 0.605807 -1.45491 0
M  V30 3281 C 324.652 1.73754 -1.54636 0
M  V30 3282 C 325.646 1.64207 -0.416219 0
M  V30 3283 O 326.852 1.69979 -0.592199 0
M  V30 3284 H 323.227 0.574073 -0.485741 0
M  V30 3285 H 325.198 1.63169 -2.49837 0
M  V30 3286 C 323.947 3.12135 -1.53189 0
M  V30 3287 H 323.27 3.20141 -2.39478 0
M  V30 3288 H 324.71 3.91147 -1.63645 0
M  V30 3289 C 323.169 3.35921 -0.256616 0
M  V30 3290 O 323.699 3.96194 0.662798 0
M  V30 3291 N 321.905 2.90204 -0.151751 0
M  V30 3292 H 321.452 2.41336 -0.90081 0
M  V30 3293 H 321.41 3.06492 0.700699 0
M  V30 3294 N 325.182 1.32811 0.848464 0
M  V30 3295 C 326.428 1.23907 1.60546 0
M  V30 3296 C 326.761 -0.197161 1.93197 0
M  V30 3297 O 326.036 -1.13596 1.5788 0
M  V30 3298 C 326.319 2.10489 2.92175 0
M  V30 3299 C 326.172 3.62522 2.66266 0
M  V30 3300 C 327.491 1.97075 3.93509 0
M  V30 3301 H 324.61 0.451459 0.58254 0
M  V30 3302 H 327.252 1.62818 0.979296 0
M  V30 3303 H 325.402 1.77434 3.45614 0
M  V30 3304 H 327.074 4.05821 2.19334 0
M  V30 3305 H 325.317 3.84879 2.00126 0
M  V30 3306 H 325.988 4.18437 3.6002 0
M  V30 3307 H 328.464 2.26045 3.49346 0
M  V30 3308 H 327.34 2.59923 4.83457 0
M  V30 3309 H 327.601 0.940186 4.31987 0
M  V30 3310 N 326.66 -1.06551 1.16123 0
M  V30 3311 C 327.59 -2.15935 0.88851 0
M  V30 3312 C 328.571 -1.69306 -0.164135 0
M  V30 3313 O 329.756 -1.94193 -0.0167857 0
M  V30 3314 C 326.886 -3.45149 0.385942 0
M  V30 3315 C 325.84 -4.05271 1.3762 0
M  V30 3316 C 325.166 -5.29664 0.732137 0
M  V30 3317 C 326.466 -4.44355 2.74493 0
M  V30 3318 H 328.16 -2.39006 1.80323 0
M  V30 3319 H 325.706 -1.14866 0.868435 0
M  V30 3320 H 327.659 -4.21004 0.182647 0
M  V30 3321 H 326.383 -3.21689 -0.564274 0
M  V30 3322 H 325.042 -3.3147 1.56599 0
M  V30 3323 H 324.69 -5.02499 -0.224483 0
M  V30 3324 H 324.39 -5.70848 1.39307 0
M  V30 3325 H 325.914 -6.08218 0.538802 0
M  V30 3326 H 327.328 -5.11303 2.59311 0
M  V30 3327 H 325.725 -4.96515 3.37035 0
M  V30 3328 H 326.795 -3.55339 3.29943 0
M  V30 3329 N 328.138 -0.959301 -1.25041 0
M  V30 3330 C 329.101 -0.487677 -2.23952 0
M  V30 3331 C 330.101 0.41119 -1.55454 0
M  V30 3332 O 331.291 0.207825 -1.72956 0
M  V30 3333 C 328.423 0.294807 -3.39623 0
M  V30 3334 H 329.616 -1.36198 -2.67189 0
M  V30 3335 H 327.169 -0.743042 -1.37508 0
M  V30 3336 H 327.904 1.18658 -3.01813 0
M  V30 3337 H 327.689 -0.35012 -3.90534 0
M  V30 3338 H 329.179 0.614089 -4.1306 0
M  V30 3339 N 329.616 1.39756 -0.72842 0
M  V30 3340 C 330.844 2.04948 -0.283528 0
M  V30 3341 C 331.259 1.54908 1.0793 0
M  V30 3342 O 330.616 0.711135 1.68075 0
M  V30 3343 C 330.667 3.60498 -0.268957 0
M  V30 3344 O 330.388 4.08695 -1.57798 0
M  V30 3345 C 331.889 4.4288 0.192912 0
M  V30 3346 H 329.109 0.659243 -0.125056 0
M  V30 3347 H 331.653 1.78927 -0.990226 0
M  V30 3348 H 329.808 3.85444 0.388801 0
M  V30 3349 H 330.222 5.02977 -1.48709 0
M  V30 3350 H 331.696 5.51791 0.151952 0
M  V30 3351 H 332.173 4.21418 1.23708 0
M  V30 3352 H 332.779 4.23069 -0.435039 0
M  V30 3353 N 331.094 0.475555 1.50254 0
M  V30 3354 C 332.319 -0.0777042 2.07254 0
M  V30 3355 C 332.744 -1.3235 1.3366 0
M  V30 3356 O 332.102 -1.77152 0.385597 0
M  V30 3357 C 332.15 -0.340169 3.58992 0
M  V30 3358 O 331.254 -1.41982 3.87188 0
M  V30 3359 H 330.595 0.0149556 0.663832 0
M  V30 3360 H 333.125 0.667878 1.93392 0
M  V30 3361 H 333.135 -0.579332 4.03866 0
M  V30 3362 H 331.81 0.570167 4.11973 0
M  V30 3363 H 330.387 -1.16762 3.54148 0
M  V30 3364 N 332.573 -1.56217 0.208337 0
M  V30 3365 C 333.503 -2.22694 -0.702116 0
M  V30 3366 C 334.484 -1.19432 -1.2112 0
M  V30 3367 O 335.669 -1.47978 -1.25762 0
M  V30 3368 C 332.799 -2.8966 -1.9161 0
M  V30 3369 C 331.753 -3.9928 -1.5414 0
M  V30 3370 C 331.079 -4.53476 -2.83308 0
M  V30 3371 C 332.379 -5.17012 -0.741339 0
M  V30 3372 H 334.073 -2.99034 -0.147898 0
M  V30 3373 H 331.619 -1.43831 -0.0696951 0
M  V30 3374 H 333.572 -3.34852 -2.55836 0
M  V30 3375 H 332.296 -2.10746 -2.49507 0
M  V30 3376 H 330.955 -3.54799 -0.922668 0
M  V30 3377 H 330.603 -3.71308 -3.39322 0
M  V30 3378 H 330.303 -5.27451 -2.58976 0
M  V30 3379 H 331.827 -5.01378 -3.485 0
M  V30 3380 H 333.241 -5.58667 -1.28699 0
M  V30 3381 H 331.638 -5.97137 -0.595627 0
M  V30 3382 H 332.708 -4.8423 0.254851 0
M  V30 3383 N 334.051 0.0651679 -1.57465 0
M  V30 3384 C 335.467 0.420105 -1.53972 0
M  V30 3385 C 335.667 1.78782 -0.929474 0
M  V30 3386 O 334.723 2.46771 -0.534839 0
M  V30 3387 C 336.036 0.355084 -2.98596 0
M  V30 3388 C 337.584 0.434792 -3.09965 0
M  V30 3389 C 338.059 0.399609 -4.56253 0
M  V30 3390 N 339.55 0.459488 -4.60915 0
M  V30 3391 C 340.285 0.454584 -5.71595 0
M  V30 3392 N 339.781 0.404102 -6.9162 0
M  V30 3393 N 341.574 0.501635 -5.59857 0
M  V30 3394 H 333.725 -0.830328 -1.95498 0
M  V30 3395 H 335.988 -0.312244 -0.895102 0
M  V30 3396 H 335.694 -0.583357 -3.46828 0
M  V30 3397 H 335.568 1.16275 -3.58831 0
M  V30 3398 H 337.955 1.36366 -2.61703 0
M  V30 3399 H 338.036 -0.40157 -2.52628 0
M  V30 3400 H 337.68 -0.525436 -5.05175 0
M  V30 3401 H 337.61 1.25359 -5.11461 0
M  V30 3402 H 340.101 0.502482 -3.74544 0
M  V30 3403 H 340.414 0.404468 -7.71741 0
M  V30 3404 H 338.759 0.37069 -6.94011 0
M  V30 3405 H 341.95 0.538812 -4.64989 0
M  V30 3406 H 342.123 0.494345 -6.46112 0
M  V30 3407 N 335.529 1.53961 0.336706 0
M  V30 3408 C 336.754 1.75797 1.10046 0
M  V30 3409 C 337.179 0.498985 1.81361 0
M  V30 3410 O 336.537 -0.548769 1.72795 0
M  V30 3411 C 336.585 2.94257 2.08436 0
M  V30 3412 O 335.689 2.64883 3.16087 0
M  V30 3413 H 335.03 0.582936 0.317934 0
M  V30 3414 H 337.56 2.00945 0.38501 0
M  V30 3415 H 337.57 3.21237 2.51537 0
M  V30 3416 H 336.245 3.85564 1.55927 0
M  V30 3417 H 334.822 2.48812 2.77753 0
M  V30 3418 N 337.007 -0.598083 1.45811 0
M  V30 3419 C 337.937 -1.71873 1.58057 0
M  V30 3420 C 338.918 -1.64533 0.431615 0
M  V30 3421 O 340.103 -1.82787 0.65595 0
M  V30 3422 C 337.233 -3.10495 1.55597 0
M  V30 3423 C 336.187 -3.32654 2.69305 0
M  V30 3424 C 335.513 -4.71646 2.51902 0
M  V30 3425 C 336.813 -3.21981 4.11248 0
M  V30 3426 H 338.507 -1.61881 2.51863 0
M  V30 3427 H 336.053 -0.777372 1.21214 0
M  V30 3428 H 338.006 -3.88699 1.6276 0
M  V30 3429 H 336.73 -3.2135 0.583255 0
M  V30 3430 H 335.389 -2.56843 2.61586 0
M  V30 3431 H 335.037 -4.79246 1.52748 0
M  V30 3432 H 334.737 -4.87426 3.2816 0
M  V30 3433 H 336.261 -5.52038 2.60933 0
M  V30 3434 H 337.675 -3.90049 4.20161 0
M  V30 3435 H 336.072 -3.49289 4.87972 0
M  V30 3436 H 337.142 -2.1928 4.32486 0
M  V30 3437 N 338.485 -1.33259 -0.841409 0
M  V30 3438 C 339.901 -1.12538 -1.13169 0
M  V30 3439 C 340.101 0.0854037 -2.01319 0
M  V30 3440 O 339.157 0.766417 -2.40587 0
M  V30 3441 C 340.47 -2.41156 -1.79623 0
M  V30 3442 C 342.018 -2.47038 -1.922 0
M  V30 3443 C 342.493 -3.7561 -2.6207 0
M  V30 3444 N 343.984 -3.76667 -2.69585 0
M  V30 3445 C 344.719 -4.72861 -3.2433 0
M  V30 3446 N 344.215 -5.79428 -3.79783 0
M  V30 3447 N 346.008 -4.6034 -3.22558 0
M  V30 3448 H 338.159 -2.10868 -0.254676 0
M  V30 3449 H 340.422 -0.931615 -0.175493 0
M  V30 3450 H 340.128 -3.29747 -1.22311 0
M  V30 3451 H 340.002 -2.53114 -2.79666 0
M  V30 3452 H 342.389 -1.58898 -2.48667 0
M  V30 3453 H 342.47 -2.39022 -0.911148 0
M  V30 3454 H 342.114 -4.64131 -2.06263 0
M  V30 3455 H 342.044 -3.80902 -3.63622 0
M  V30 3456 H 344.535 -2.99648 -2.30259 0
M  V30 3457 H 344.848 -6.48867 -4.19752 0
M  V30 3458 H 343.193 -5.83166 -3.78078 0
M  V30 3459 H 346.384 -3.76244 -2.78492 0
M  V30 3460 H 346.557 -5.35478 -3.64921 0
M  V30 3461 N 339.963 1.05934 -1.16686 0
M  V30 3462 C 341.21 1.788 -0.950622 0
M  V30 3463 C 341.538 1.87384 0.521305 0
M  V30 3464 O 340.793 1.36438 1.40297 0
M  V30 3465 C 341.092 3.23105 -1.52767 0
M  V30 3466 C 340.758 3.34594 -3.02254 0
M  V30 3467 C 339.42 3.37437 -3.43059 0
M  V30 3468 C 341.772 3.36219 -3.98254 0
M  V30 3469 C 339.1 3.39525 -4.78477 0
M  V30 3470 C 341.452 3.39845 -5.33562 0
M  V30 3471 C 340.116 3.40971 -5.73842 0
M  V30 3472 H 339.386 0.654275 -0.347857 0
M  V30 3473 H 342.033 1.24555 -1.45459 0
M  V30 3474 H 340.338 3.80227 -0.94524 0
M  V30 3475 H 342.035 3.7809 -1.336 0
M  V30 3476 H 338.625 3.3309 -2.6972 0
M  V30 3477 H 342.809 3.33231 -3.67792 0
M  V30 3478 H 338.065 3.38703 -5.09009 0
M  V30 3479 H 342.239 3.4005 -6.07733 0
M  V30 3480 H 339.866 3.42342 -6.78753 0
M  V30 3481 N 341.441 0.965919 1.2453 0
M  V30 3482 C 342.371 0.513476 2.27784 0
M  V30 3483 C 343.352 -0.445974 1.6415 0
M  V30 3484 O 344.537 -0.342485 1.91156 0
M  V30 3485 C 341.667 -0.198839 3.4673 0
M  V30 3486 C 340.621 0.676456 4.2262 0
M  V30 3487 C 339.947 -0.167248 5.34438 0
M  V30 3488 C 341.247 1.96017 4.84123 0
M  V30 3489 H 342.941 1.3765 2.65881 0
M  V30 3490 H 340.487 0.663321 1.27813 0
M  V30 3491 H 342.44 -0.526567 4.18097 0
M  V30 3492 H 341.164 -1.0962 3.07654 0
M  V30 3493 H 339.823 0.98743 3.53052 0
M  V30 3494 H 339.471 -1.0647 4.91603 0
M  V30 3495 H 339.171 0.415181 5.86131 0
M  V30 3496 H 340.695 -0.489688 6.08633 0
M  V30 3497 H 342.109 1.69814 5.47573 0
M  V30 3498 H 340.506 2.48918 5.4604 0
M  V30 3499 H 341.576 2.65622 4.05676 0
M  V30 3500 N 342.919 -1.39368 0.735821 0
M  V30 3501 C 343.851 -2.2913 0.0567723 0
M  V30 3502 C 344.864 -1.46859 -0.702589 0
M  V30 3503 O 346.053 -1.69925 -0.546616 0
M  V30 3504 C 343.153 -3.25492 -0.943823 0
M  V30 3505 C 342.326 -4.36709 -0.24581 0
M  V30 3506 C 341.385 -5.13376 -1.15463 0
M  V30 3507 O 340.411 -5.65683 -0.631803 0
M  V30 3508 N 341.613 -5.24656 -2.48427 0
M  V30 3509 H 344.378 -2.88047 0.827582 0
M  V30 3510 H 341.939 -1.50957 0.585112 0
M  V30 3511 H 343.931 -3.73657 -1.55443 0
M  V30 3512 H 342.501 -2.676 -1.61583 0
M  V30 3513 H 341.721 -3.9041 0.545286 0
M  V30 3514 H 343.009 -5.08244 0.237891 0
M  V30 3515 H 342.407 -4.83679 -2.93379 0
M  V30 3516 H 340.964 -5.76258 -3.04582 0
M  V30 3517 N 344.397 -0.483516 -1.5 0
M  V30 3518 C 345.646 0.0689102 -2.01582 0
M  V30 3519 C 345.959 1.39655 -1.36952 0
M  V30 3520 O 347.165 2.03465 -1.79762 0
M  V30 3521 C 345.621 0.173302 -3.59483 0
M  V30 3522 C 345.229 -1.14665 -4.33077 0
M  V30 3523 C 346.973 0.677024 -4.19066 0
M  V30 3524 C 344.88 -1.00537 -5.82792 0
M  V30 3525 H 343.81 0.0295277 -0.753422 0
M  V30 3526 H 346.461 -0.620295 -1.72698 0
M  V30 3527 H 344.843 0.926569 -3.85007 0
M  V30 3528 H 346.017 -1.91184 -4.19268 0
M  V30 3529 H 344.332 -1.58244 -3.85159 0
M  V30 3530 H 346.929 0.799952 -5.28682 0
M  V30 3531 H 347.272 1.67151 -3.81269 0
M  V30 3532 H 347.805 -0.0192083 -3.97795 0
M  V30 3533 H 344.544 -1.9736 -6.25083 0
M  V30 3534 H 344.064 -0.280776 -5.99142 0
M  V30 3535 H 345.743 -0.677 -6.43448 0
M  V30 3536 N 345.875 1.56104 -0.216619 0
M  V30 3537 C 346.805 2.23063 0.690296 0
M  V30 3538 C 347.786 1.20072 1.20485 0
M  V30 3539 O 348.971 1.48643 1.24976 0
M  V30 3540 C 346.101 2.90672 1.90072 0
M  V30 3541 C 345.055 4.00092 1.5202 0
M  V30 3542 C 344.381 4.54972 2.80899 0
M  V30 3543 C 345.681 5.17398 0.71391 0
M  V30 3544 H 347.375 2.99109 0.132038 0
M  V30 3545 H 344.921 1.43866 0.0620664 0
M  V30 3546 H 346.874 3.36204 2.54057 0
M  V30 3547 H 345.598 2.12066 2.48386 0
M  V30 3548 H 344.257 3.55283 0.903839 0
M  V30 3549 H 343.905 3.73102 3.37348 0
M  V30 3550 H 343.605 5.28817 2.56176 0
M  V30 3551 H 345.129 5.0322 3.45836 0
M  V30 3552 H 346.543 5.59342 1.25735 0
M  V30 3553 H 344.94 5.97444 0.563951 0
M  V30 3554 H 346.01 4.84088 -0.280527 0
M  V30 3555 N 347.353 -0.0568162 1.57498 0
M  V30 3556 C 348.769 -0.411933 1.54192 0
M  V30 3557 C 348.969 -1.78287 0.938942 0
M  V30 3558 O 348.025 -2.46483 0.547919 0
M  V30 3559 C 349.338 -0.339244 2.9878 0
M  V30 3560 C 350.886 -0.418348 3.10192 0
M  V30 3561 C 351.361 -0.375407 4.56459 0
M  V30 3562 N 352.852 -0.435038 4.61153 0
M  V30 3563 C 353.587 -0.424265 5.71828 0
M  V30 3564 N 353.083 -0.367418 6.91825 0
M  V30 3565 N 354.876 -0.471938 5.60115 0
M  V30 3566 H 347.027 0.840684 1.95055 0
M  V30 3567 H 349.29 0.316987 0.893433 0
M  V30 3568 H 348.996 0.601742 3.46514 0
M  V30 3569 H 348.87 -1.14371 3.59443 0
M  V30 3570 H 351.257 -1.34976 2.62422 0
M  V30 3571 H 351.338 0.414962 2.52412 0
M  V30 3572 H 350.982 0.552219 5.04889 0
M  V30 3573 H 350.912 -1.22645 5.12119 0
M  V30 3574 H 353.403 -0.482612 3.74806 0
M  V30 3575 H 353.716 -0.363535 7.71944 0
M  V30 3576 H 352.061 -0.333879 6.94198 0
M  V30 3577 H 355.252 -0.514145 4.65268 0
M  V30 3578 H 355.425 -0.460073 6.46365 0
M  V30 3579 N 348.832 -1.54138 -0.328536 0
M  V30 3580 C 349.765 -1.78014 -1.4278 0
M  V30 3581 C 350.743 -0.629889 -1.49904 0
M  V30 3582 O 351.927 -0.866763 -1.6739 0
M  V30 3583 C 349.054 -1.89225 -2.80912 0
M  V30 3584 C 348.1 -3.11483 -2.91343 0
M  V30 3585 S 348.933 -4.70201 -2.56263 0
M  V30 3586 C 350.089 -4.84312 -3.96476 0
M  V30 3587 H 350.322 -2.70974 -1.22313 0
M  V30 3588 H 347.855 -1.45197 -0.525084 0
M  V30 3589 H 349.813 -1.9637 -3.60485 0
M  V30 3590 H 348.474 -0.972518 -2.98665 0
M  V30 3591 H 347.667 -3.16046 -3.92595 0
M  V30 3592 H 347.269 -3.02642 -2.19736 0
M  V30 3593 H 349.561 -4.66643 -4.91173 0
M  V30 3594 H 350.504 -5.86411 -3.96898 0
M  V30 3595 H 350.912 -4.12652 -3.85199 0
M  V30 3596 N 350.31 0.590341 -1.46126 0
M  V30 3597 C 351.24 1.71032 -1.58966 0
M  V30 3598 C 352.221 1.64302 -0.440335 0
M  V30 3599 O 353.406 1.82436 -0.665634 0
M  V30 3600 C 350.536 3.09665 -1.57241 0
M  V30 3601 C 349.49 3.31221 -2.71066 0
M  V30 3602 C 348.816 4.70303 -2.54399 0
M  V30 3603 C 350.116 3.19796 -4.1295 0
M  V30 3604 H 351.81 1.60543 -2.52718 0
M  V30 3605 H 349.356 0.770933 -1.21625 0
M  V30 3606 H 351.309 3.87831 -1.64819 0
M  V30 3607 H 350.033 3.21036 -0.600289 0
M  V30 3608 H 348.692 2.55452 -2.62944 0
M  V30 3609 H 348.34 4.78429 -1.55288 0
M  V30 3610 H 348.04 4.85679 -3.30741 0
M  V30 3611 H 349.564 5.50647 -2.63857 0
M  V30 3612 H 350.978 3.87815 -4.22223 0
M  V30 3613 H 349.375 3.46696 -4.89818 0
M  V30 3614 H 350.445 2.16983 -4.33643 0
M  V30 3615 N 351.788 1.33704 0.83433 0
M  V30 3616 C 353.204 1.13137 1.12571 0
M  V30 3617 C 353.404 -0.0747261 2.01361 0
M  V30 3618 O 352.46 -0.753647 2.4099 0
M  V30 3619 C 353.773 2.42105 1.78342 0
M  V30 3620 C 355.321 2.48054 1.90888 0
M  V30 3621 C 355.796 3.76995 2.60075 0
M  V30 3622 N 357.287 3.78092 2.67584 0
M  V30 3623 C 358.022 4.74574 3.21818 0
M  V30 3624 N 357.518 5.81434 3.76705 0
M  V30 3625 N 359.311 4.62044 3.20112 0
M  V30 3626 H 351.462 2.11 0.243489 0
M  V30 3627 H 353.725 0.932532 0.17055 0
M  V30 3628 H 353.431 3.30391 1.20561 0
M  V30 3629 H 353.305 2.54594 2.7832 0
M  V30 3630 H 355.692 1.60215 2.47821 0
M  V30 3631 H 355.773 2.39502 0.898459 0
M  V30 3632 H 355.417 4.65219 2.03799 0
M  V30 3633 H 355.347 3.82825 3.61597 0
M  V30 3634 H 357.838 3.00865 2.28667 0
M  V30 3635 H 358.151 6.51084 4.16305 0
M  V30 3636 H 356.496 5.85163 3.7498 0
M  V30 3637 H 359.687 3.77716 2.76493 0
M  V30 3638 H 359.86 5.37406 3.62076 0
M  V30 3639 N 353.266 -1.05314 1.17247 0
M  V30 3640 C 354.199 -2.12512 0.831507 0
M  V30 3641 C 355.177 -1.61351 -0.201168 0
M  V30 3642 O 356.361 -1.88317 -0.0829831 0
M  V30 3643 C 353.488 -3.37848 0.24015 0
M  V30 3644 C 352.534 -4.07832 1.24801 0
M  V30 3645 S 353.367 -4.56537 2.79882 0
M  V30 3646 C 354.523 -5.85122 2.22223 0
M  V30 3647 H 354.756 -2.41106 1.7394 0
M  V30 3648 H 352.289 -1.17896 0.996988 0
M  V30 3649 H 354.247 -4.10391 -0.0945588 0
M  V30 3650 H 352.908 -3.07392 -0.645668 0
M  V30 3651 H 352.101 -4.97883 0.78287 0
M  V30 3652 H 351.703 -3.41348 1.52831 0
M  V30 3653 H 353.995 -6.58408 1.59703 0
M  V30 3654 H 354.938 -6.36381 3.10523 0
M  V30 3655 H 355.346 -5.39626 1.65722 0
M  V30 3656 N 354.744 -0.972509 -1.24016 0
M  V30 3657 C 356.021 -0.553733 -1.87598 0
M  V30 3658 C 356.401 0.969158 -1.87538 0
M  V30 3659 O 355.749 1.84255 -1.35139 0
M  V30 3660 C 355.959 -1.15076 -3.29482 0
M  V30 3661 C 357.307 -1.23862 -4.06132 0
M  V30 3662 O 358.331 -1.10363 -3.38672 0
M  V30 3663 O 357.19 -1.45252 -5.26844 0
M  V30 3664 H 354.284 -0.185331 -0.805966 0
M  V30 3665 H 356.83 -1.06709 -1.31952 0
M  V30 3666 H 355.602 -2.19333 -3.2405 0
M  V30 3667 H 355.225 -0.621746 -3.92709 0
M  V30 3668 N 356.222 1.38976 -0.743202 0
M  V30 3669 C 357.638 1.53984 -0.419664 0
M  V30 3670 C 357.838 1.70837 1.0685 0
M  V30 3671 O 356.894 1.7135 1.8546 0
M  V30 3672 C 358.207 2.75287 -1.20985 0
M  V30 3673 C 359.755 2.89129 -1.19889 0
M  V30 3674 C 360.23 4.13381 -1.97181 0
M  V30 3675 N 361.721 4.20437 -1.94389 0
M  V30 3676 C 362.456 5.15547 -2.50996 0
M  V30 3677 N 361.952 6.16395 -3.16274 0
M  V30 3678 N 363.745 5.07822 -2.40984 0
M  V30 3679 H 355.896 1.26285 -1.7078 0
M  V30 3680 H 358.159 0.612689 -0.723406 0
M  V30 3681 H 357.865 2.69204 -2.26323 0
M  V30 3682 H 357.739 3.68184 -0.819759 0
M  V30 3683 H 360.126 2.947 -0.153606 0
M  V30 3684 H 360.207 1.97272 -1.62841 0
M  V30 3685 H 359.851 4.08572 -3.01714 0
M  V30 3686 H 359.781 5.04298 -1.51629 0
M  V30 3687 H 362.272 3.48205 -1.46839 0
M  V30 3688 H 362.585 6.85443 -3.56915 0
M  V30 3689 H 360.93 6.16758 -3.20367 0
M  V30 3690 H 364.121 4.27973 -1.89622 0
M  V30 3691 H 364.294 5.81767 -2.85397 0
M  V30 3692 N 357.7 0.491464 1.49741 0
M  V30 3693 C 359.116 0.146835 1.58923 0
M  V30 3694 C 359.316 -1.34804 1.49767 0
M  V30 3695 O 358.372 -2.12317 1.36667 0
M  V30 3696 C 359.685 0.715157 2.92072 0
M  V30 3697 C 361.233 0.680407 3.05515 0
M  V30 3698 C 361.708 1.22663 4.41269 0
M  V30 3699 N 363.199 1.18691 4.47735 0
M  V30 3700 C 363.934 1.57984 5.51207 0
M  V30 3701 N 363.43 2.04824 6.6183 0
M  V30 3702 N 365.223 1.49459 5.41866 0
M  V30 3703 H 357.374 1.46347 1.53936 0
M  V30 3704 H 359.637 0.606453 0.728642 0
M  V30 3705 H 359.343 1.76317 3.04311 0
M  V30 3706 H 359.217 0.17018 3.76816 0
M  V30 3707 H 361.604 -0.358743 2.92911 0
M  V30 3708 H 361.685 1.26242 2.22478 0
M  V30 3709 H 361.329 2.26451 4.54623 0
M  V30 3710 H 361.259 0.620637 5.2293 0
M  V30 3711 H 363.75 0.843605 3.68364 0
M  V30 3712 H 364.063 2.32901 7.3687 0
M  V30 3713 H 362.408 2.08791 6.62896 0
M  V30 3714 H 365.599 1.12692 4.54333 0
M  V30 3715 H 365.772 1.80406 6.22381 0
M  V30 3716 N 359.178 -1.55987 0.224894 0
M  V30 3717 C 360.426 -1.97998 -0.405099 0
M  V30 3718 C 360.747 -1.11387 -1.60056 0
M  V30 3719 O 360.017 -0.191645 -1.9496 0
M  V30 3720 H 358.597 -0.731235 -0.152658 0
M  V30 3721 H 361.259 -1.92279 0.318567 0
M  V30 3722 H 360.355 -3.03463 -0.729167 0
M  V30 3723 N 360.656 0.0484629 -1.57525 0
M  V30 3724 C 361.904 0.741657 -1.88 0
M  V30 3725 C 362.225 1.76918 -0.820054 0
M  V30 3726 O 361.495 1.95335 0.148661 0
M  V30 3727 H 360.075 0.276908 -0.69378 0
M  V30 3728 H 362.737 0.019013 -1.94891 0
M  V30 3729 H 361.833 1.24336 -2.86264 0
M  V30 3730 N 362.134 1.5431 0.320358 0
M  V30 3731 C 363.362 1.76636 1.07738 0
M  V30 3732 C 363.777 0.51649 1.81598 0
M  V30 3733 O 363.134 -0.512942 1.75143 0
M  V30 3734 C 363.185 2.96158 2.07299 0
M  V30 3735 O 362.906 4.16313 1.36438 0
M  V30 3736 C 364.407 3.3072 2.95193 0
M  V30 3737 H 361.627 0.589597 0.320339 0
M  V30 3738 H 364.171 2.01207 0.36551 0
M  V30 3739 H 362.326 2.73851 2.74016 0
M  V30 3740 H 362.74 4.83565 2.03138 0
M  V30 3741 H 364.214 4.17643 3.60941 0
M  V30 3742 H 364.691 2.48026 3.62463 0
M  V30 3743 H 365.297 3.55117 2.34034 0
M  V30 3744 N 363.613 -0.582584 1.46437 0
M  V30 3745 C 364.859 -1.34064 1.52965 0
M  V30 3746 C 365.214 -1.91566 0.178968 0
M  V30 3747 O 364.507 -1.73526 -0.812365 0
M  V30 3748 C 364.701 -2.48964 2.56421 0
M  V30 3749 C 364.53 -2.02717 4.01417 0
M  V30 3750 C 363.3 -1.87728 4.69134 0
M  V30 3751 C 365.498 -1.58675 4.8921 0
M  V30 3752 N 363.48 -1.35554 5.98747 0
M  V30 3753 C 364.851 -1.18093 6.08649 0
M  V30 3754 C 366.906 -1.46494 4.75861 0
M  V30 3755 C 365.609 -0.665427 7.16215 0
M  V30 3756 C 367.635 -0.96347 5.83499 0
M  V30 3757 C 366.997 -0.567432 7.02111 0
M  V30 3758 H 363.096 -0.483551 0.614575 0
M  V30 3759 H 365.68 -0.663309 1.83053 0
M  V30 3760 H 363.851 -3.1426 2.28244 0
M  V30 3761 H 365.583 -3.15913 2.52944 0
M  V30 3762 H 362.338 -2.09678 4.24655 0
M  V30 3763 H 362.762 -1.11628 6.67734 0
M  V30 3764 H 367.404 -1.75731 3.8455 0
M  V30 3765 H 365.122 -0.360639 8.07295 0
M  V30 3766 H 368.708 -0.873129 5.75211 0
M  V30 3767 H 367.588 -0.185389 7.83981 0
M  V30 3768 N 365.091 -1.34144 -0.827227 0
M  V30 3769 C 366.038 -1.25364 -1.93785 0
M  V30 3770 C 367.008 -0.129774 -1.65592 0
M  V30 3771 O 368.193 -0.310024 -1.88264 0
M  V30 3772 C 365.333 -1.01064 -3.2997 0
M  V30 3773 C 364.446 -2.22185 -3.70484 0
M  V30 3774 C 363.581 -1.91203 -4.95595 0
M  V30 3775 C 362.62 -3.08491 -5.28677 0
M  V30 3776 N 361.757 -2.77421 -6.44967 0
M  V30 3777 H 366.597 -2.20347 -2.00627 0
M  V30 3778 H 364.134 -1.09558 -0.981608 0
M  V30 3779 H 366.092 -0.850139 -4.08446 0
M  V30 3780 H 364.722 -0.0975026 -3.22653 0
M  V30 3781 H 363.774 -2.4917 -2.87434 0
M  V30 3782 H 365.086 -3.0983 -3.90905 0
M  V30 3783 H 364.24 -1.71864 -5.81848 0
M  V30 3784 H 362.979 -1.00812 -4.77167 0
M  V30 3785 H 361.984 -3.28431 -4.40923 0
M  V30 3786 H 363.209 -3.99655 -5.49047 0
M  V30 3787 H 361.155 -1.89601 -6.28003 0
M  V30 3788 H 361.072 -3.58598 -6.6554 0
M  V30 3789 H 362.34 -2.61577 -7.34301 0
M  V30 3790 N 366.569 1.04691 -1.17803 0
M  V30 3791 C 367.499 2.14494 -0.92275 0
M  V30 3792 C 368.48 1.69546 0.137179 0
M  V30 3793 O 369.665 1.94195 -0.0141108 0
M  V30 3794 C 366.795 3.44491 -0.440803 0
M  V30 3795 C 365.749 4.03031 -1.4405 0
M  V30 3796 C 365.075 5.28432 -0.81631 0
M  V30 3797 C 366.375 4.39932 -2.81527 0
M  V30 3798 H 368.069 2.36107 -1.84103 0
M  V30 3799 H 365.615 1.1347 -0.886599 0
M  V30 3800 H 367.568 4.2066 -0.249602 0
M  V30 3801 H 366.292 3.22546 0.513025 0
M  V30 3802 H 364.951 3.28937 -1.61853 0
M  V30 3803 H 364.599 5.02792 0.144511 0
M  V30 3804 H 364.299 5.68559 -1.48371 0
M  V30 3805 H 365.823 6.07284 -0.635496 0
M  V30 3806 H 367.237 5.07113 -2.67412 0
M  V30 3807 H 365.634 4.9109 -3.44892 0
M  V30 3808 H 366.704 3.50045 -3.35554 0
M  V30 3809 N 368.047 0.979072 1.23499 0
M  V30 3810 C 368.977 0.537606 2.27227 0
M  V30 3811 C 369.958 -0.428539 1.64613 0
M  V30 3812 O 371.143 -0.322191 1.91509 0
M  V30 3813 C 368.273 -0.162052 3.46922 0
M  V30 3814 C 367.227 0.721242 4.21879 0
M  V30 3815 C 366.553 -0.110555 5.34586 0
M  V30 3816 C 367.853 2.01141 4.82016 0
M  V30 3817 H 369.547 1.40462 2.64406 0
M  V30 3818 H 367.093 0.67684 1.27102 0
M  V30 3819 H 369.046 -0.482192 4.18632 0
M  V30 3820 H 367.77 -1.06351 3.08799 0
M  V30 3821 H 366.429 1.02482 3.51984 0
M  V30 3822 H 366.077 -1.0125 4.92704 0
M  V30 3823 H 365.777 0.477325 5.85658 0
M  V30 3824 H 367.301 -0.425107 6.09118 0
M  V30 3825 H 368.715 1.75612 5.45741 0
M  V30 3826 H 367.112 2.54695 5.43369 0
M  V30 3827 H 368.182 2.69909 4.02836 0
M  V30 3828 N 369.525 -1.3858 0.750561 0
M  V30 3829 C 370.773 -1.99789 0.30477 0
M  V30 3830 C 371.094 -1.59874 -1.11649 0
M  V30 3831 O 370.364 -0.85417 -1.76297 0
M  V30 3832 H 368.944 -0.738902 0.109694 0
M  V30 3833 H 371.606 -1.69391 0.963983 0
M  V30 3834 H 370.702 -3.09952 0.365499 0
M  V30 3835 N 371.003 -0.499398 -1.49478 0
M  V30 3836 C 372.228 0.044722 -2.07352 0
M  V30 3837 C 372.653 1.30207 -1.35749 0
M  V30 3838 O 372.011 1.76516 -0.413732 0
M  V30 3839 C 372.059 0.283013 -3.59488 0
M  V30 3840 O 371.163 1.35804 -3.89398 0
M  V30 3841 H 370.504 -0.0255147 -0.66351 0
M  V30 3842 H 373.034 -0.698561 -1.92305 0
M  V30 3843 H 373.044 0.515007 -4.04737 0
M  V30 3844 H 371.719 -0.635636 -4.11014 0
M  V30 3845 H 370.296 1.11113 -3.55961 0
M  V30 3846 N 372.481 1.55866 -0.233164 0
M  V30 3847 C 373.444 2.1953 0.658715 0
M  V30 3848 C 374.444 1.16053 1.11303 0
M  V30 3849 O 375.634 1.41218 1.01996 0
M  V30 3850 C 372.766 2.82791 1.90373 0
M  V30 3851 H 373.959 2.99721 0.10347 0
M  V30 3852 H 371.512 1.56291 0.0164245 0
M  V30 3853 H 372.247 2.06501 2.50056 0
M  V30 3854 H 372.032 3.58578 1.58632 0
M  V30 3855 H 373.522 3.31556 2.53891 0
M  V30 3856 N 373.959 -0.0401083 1.57549 0
M  V30 3857 C 375.208 -0.732108 1.87944 0
M  V30 3858 C 375.521 -1.77107 0.830206 0
M  V30 3859 O 376.727 -2.51488 1.02302 0
M  V30 3860 C 375.183 -1.35315 3.33494 0
M  V30 3861 C 374.791 -0.351105 4.46622 0
M  V30 3862 C 376.535 -2.02566 3.73051 0
M  V30 3863 C 374.442 -0.979859 5.83226 0
M  V30 3864 H 373.372 -0.277188 0.701201 0
M  V30 3865 H 376.023 0.0138501 1.83495 0
M  V30 3866 H 374.405 -2.14844 3.32653 0
M  V30 3867 H 375.579 0.416674 4.58912 0
M  V30 3868 H 373.894 0.218708 4.15825 0
M  V30 3869 H 376.491 -2.50441 4.72423 0
M  V30 3870 H 376.834 -2.83904 3.04474 0
M  V30 3871 H 377.367 -1.29827 3.76018 0
M  V30 3872 H 374.106 -0.206135 6.55176 0
M  V30 3873 H 373.626 -1.71774 5.74677 0
M  V30 3874 H 375.305 -1.49046 6.29599 0
M  V30 3875 N 375.437 -1.54477 -0.31217 0
M  V30 3876 C 376.677 -1.74958 -1.05684 0
M  V30 3877 C 377.041 -0.518414 -1.84869 0
M  V30 3878 O 378.242 -0.600759 -2.62001 0
M  V30 3879 C 376.513 -2.99656 -1.94785 0
M  V30 3880 S 378.072 -3.4109 -2.76049 0
M  V30 3881 H 374.89 -0.615104 -0.356606 0
M  V30 3882 H 377.492 -1.92669 -0.331514 0
M  V30 3883 H 376.196 -3.87397 -1.35468 0
M  V30 3884 H 375.727 -2.845 -2.71704 0
M  V30 3885 H 377.742 -2.97283 -3.97287 0
M  V30 3886 N 376.915 0.57481 -1.46744 0
M  V30 3887 C 377.878 1.66533 -1.57478 0
M  V30 3888 C 378.878 1.54338 -0.451263 0
M  V30 3889 O 380.068 1.58814 -0.715813 0
M  V30 3890 C 377.2 3.05999 -1.50259 0
M  V30 3891 H 378.393 1.58372 -2.54673 0
M  V30 3892 H 375.946 0.793301 -1.34672 0
M  V30 3893 H 376.681 3.19709 -0.543725 0
M  V30 3894 H 376.466 3.16259 -2.31781 0
M  V30 3895 H 377.956 3.8537 -1.60872 0
M  V30 3896 N 378.394 1.34581 0.820102 0
M  V30 3897 C 379.344 1.22943 1.92013 0
M  V30 3898 C 380.328 0.127802 1.60392 0
M  V30 3899 O 381.52 0.357737 1.73347 0
M  V30 3900 C 378.649 0.989938 3.28717 0
M  V30 3901 C 377.735 2.13486 3.66449 0
M  V30 3902 N 378.126 3.38625 3.75722 0
M  V30 3903 C 376.424 2.04573 3.96315 0
M  V30 3904 C 377.125 4.13832 4.08801 0
M  V30 3905 N 376.101 3.42451 4.22171 0
M  V30 3906 H 379.903 2.17771 1.97365 0
M  V30 3907 H 377.417 1.2686 1.01392 0
M  V30 3908 H 379.414 0.887462 4.07345 0
M  V30 3909 H 378.074 0.0503691 3.24661 0
M  V30 3910 H 379.085 3.73143 3.59144 0
M  V30 3911 H 375.762 1.1839 4.00362 0
M  V30 3912 H 377.152 5.21909 4.23156 0
M  V30 3913 N 379.872 -1.04064 1.18357 0
M  V30 3914 C 381.097 -1.81454 1.00445 0
M  V30 3915 C 381.522 -1.82823 -0.442423 0
M  V30 3916 O 380.88 -1.24555 -1.31741 0
M  V30 3917 C 380.928 -3.24925 1.56384 0
M  V30 3918 O 380.032 -4.04856 0.785209 0
M  V30 3919 H 379.373 -0.560604 0.355835 0
M  V30 3920 H 381.903 -1.31059 1.57114 0
M  V30 3921 H 381.913 -3.75702 1.59097 0
M  V30 3922 H 380.588 -3.23244 2.61699 0
M  V30 3923 H 379.165 -3.63537 0.830399 0
M  V30 3924 N 381.35 -0.985608 -1.22978 0
M  V30 3925 C 382.297 -0.529825 -2.24636 0
M  V30 3926 C 383.267 0.434028 -1.60329 0
M  V30 3927 O 384.452 0.340414 -1.87739 0
M  V30 3928 C 381.592 0.156533 -3.44745 0
M  V30 3929 C 380.705 -0.848197 -4.23591 0
M  V30 3930 C 379.84 -0.136109 -5.31026 0
M  V30 3931 C 378.879 -1.1297 -6.01585 0
M  V30 3932 N 378.016 -0.446415 -7.00679 0
M  V30 3933 H 382.856 -1.40148 -2.62988 0
M  V30 3934 H 380.393 -0.702168 -1.29259 0
M  V30 3935 H 382.351 0.571324 -4.1327 0
M  V30 3936 H 380.981 0.992025 -3.07179 0
M  V30 3937 H 380.033 -1.38135 -3.54433 0
M  V30 3938 H 381.345 -1.60512 -4.72268 0
M  V30 3939 H 380.499 0.335784 -6.0577 0
M  V30 3940 H 379.238 0.653373 -4.83304 0
M  V30 3941 H 378.243 -1.6123 -5.25628 0
M  V30 3942 H 379.468 -1.91993 -6.51395 0
M  V30 3943 H 377.414 0.323763 -6.55201 0
M  V30 3944 H 377.331 -1.1419 -7.47326 0
M  V30 3945 H 378.599 0.00291697 -7.795 0
M  V30 3946 N 382.828 1.3818 -0.7579 0
M  V30 3947 C 383.738 2.3421 -0.135247 0
M  V30 3948 C 384.754 1.59487 0.695683 0
M  V30 3949 O 385.93 1.91657 0.618832 0
M  V30 3950 C 382.995 3.3862 0.744139 0
M  V30 3951 C 382.056 4.2918 -0.101658 0
M  V30 3952 C 381.289 5.28603 0.735851 0
M  V30 3953 O 381.512 5.35166 1.97366 0
M  V30 3954 O 380.446 6.01707 0.152372 0
M  V30 3955 H 384.272 2.8916 -0.928436 0
M  V30 3956 H 381.857 1.40101 -0.518855 0
M  V30 3957 H 383.739 4.02539 1.2466 0
M  V30 3958 H 382.414 2.86019 1.51575 0
M  V30 3959 H 381.321 3.68407 -0.650167 0
M  V30 3960 H 382.654 4.85048 -0.836024 0
M  V30 3961 N 384.306 0.507319 1.49211 0
M  V30 3962 C 385.236 -0.256939 2.32082 0
M  V30 3963 C 386.217 -0.956609 1.40652 0
M  V30 3964 O 387.402 -0.946788 1.69557 0
M  V30 3965 C 384.532 -1.31802 3.21318 0
M  V30 3966 C 383.486 -0.737855 4.21592 0
M  V30 3967 C 382.812 -1.89992 4.99807 0
M  V30 3968 C 384.112 0.275325 5.21574 0
M  V30 3969 H 385.806 0.434798 2.96226 0
M  V30 3970 H 383.352 0.210546 1.42452 0
M  V30 3971 H 385.305 -1.86045 3.78107 0
M  V30 3972 H 384.029 -2.03903 2.5513 0
M  V30 3973 H 382.688 -0.217126 3.65956 0
M  V30 3974 H 382.336 -2.60877 4.30061 0
M  V30 3975 H 382.036 -1.51777 5.6766 0
M  V30 3976 H 383.56 -2.44657 5.59442 0
M  V30 3977 H 384.974 -0.179193 5.7302 0
M  V30 3978 H 383.371 0.573649 5.97352 0
M  V30 3979 H 384.441 1.18903 4.70096 0
M  V30 3980 N 385.784 -1.5574 0.241426 0
M  V30 3981 C 387.033 -1.97986 -0.385295 0
M  V30 3982 C 387.346 -1.13267 -1.59468 0
M  V30 3983 O 388.552 -1.45501 -2.2922 0
M  V30 3984 C 387.008 -3.52275 -0.736884 0
M  V30 3985 C 386.616 -4.45726 0.450796 0
M  V30 3986 C 388.36 -4.03189 -1.3281 0
M  V30 3987 C 386.267 -5.91352 0.0756662 0
M  V30 3988 H 385.197 -0.739386 -0.147731 0
M  V30 3989 H 387.848 -1.80308 0.340779 0
M  V30 3990 H 386.23 -3.65628 -1.52094 0
M  V30 3991 H 387.404 -4.44131 1.22819 0
M  V30 3992 H 385.719 -4.05264 0.956573 0
M  V30 3993 H 388.316 -5.09505 -1.62201 0
M  V30 3994 H 388.659 -3.50212 -2.25071 0
M  V30 3995 H 389.192 -3.93141 -0.607069 0
M  V30 3996 H 385.931 -6.48354 0.965272 0
M  V30 3997 H 385.451 -5.96095 -0.665635 0
M  V30 3998 H 387.13 -6.46084 -0.344075 0
M  V30 3999 N 387.262 0.0317525 -1.57568 0
M  V30 4000 C 388.49 0.734949 -1.93407 0
M  V30 4001 C 388.905 1.69036 -0.84096 0
M  V30 4002 O 388.262 1.81582 0.182836 0
M  V30 4003 C 388.313 1.49432 -3.29169 0
M  V30 4004 O 388.034 0.577261 -4.3428 0
M  V30 4005 C 389.535 2.29492 -3.79273 0
M  V30 4006 H 386.755 0.206706 -0.638368 0
M  V30 4007 H 389.299 -0.00992046 -2.04498 0
M  V30 4008 H 387.454 2.1911 -3.19483 0
M  V30 4009 H 387.868 1.10952 -5.1263 0
M  V30 4010 H 389.342 2.78172 -4.76785 0
M  V30 4011 H 389.819 3.10794 -3.10328 0
M  V30 4012 H 390.425 1.64894 -3.92033 0
M  V30 4013 N 388.74 1.54641 0.303973 0
M  V30 4014 C 389.703 1.84646 1.35789 0
M  V30 4015 C 390.703 0.7192 1.4382 0
M  V30 4016 O 391.893 0.987491 1.43507 0
M  V30 4017 C 389.025 2.02407 2.74307 0
M  V30 4018 H 390.218 2.78829 1.10429 0
M  V30 4019 H 387.771 1.46658 0.540487 0
M  V30 4020 H 388.506 1.10502 3.04893 0
M  V30 4021 H 388.291 2.84453 2.69868 0
M  V30 4022 H 389.781 2.27002 3.50514 0
M  V30 4023 N 390.218 -0.567019 1.47046 0
M  V30 4024 C 391.464 -1.32434 1.54379 0
M  V30 4025 C 391.819 -1.91365 0.199276 0
M  V30 4026 O 391.112 -1.74378 -0.793915 0
M  V30 4027 C 391.306 -2.4623 2.59047 0
M  V30 4028 C 391.135 -1.98448 4.03545 0
M  V30 4029 C 389.905 -1.82741 4.71098 0
M  V30 4030 C 392.103 -1.53477 4.90866 0
M  V30 4031 N 390.085 -1.29196 6.00151 0
M  V30 4032 C 391.456 -1.1163 6.09868 0
M  V30 4033 C 393.511 -1.41438 4.77388 0
M  V30 4034 C 392.214 -0.589425 7.16881 0
M  V30 4035 C 394.24 -0.901528 5.84488 0
M  V30 4036 C 393.602 -0.492932 7.02673 0
M  V30 4037 H 389.701 -0.477005 0.61967 0
M  V30 4038 H 392.285 -0.643856 1.83746 0
M  V30 4039 H 390.456 -3.11821 2.31564 0
M  V30 4040 H 392.188 -3.13213 2.56281 0
M  V30 4041 H 388.943 -2.05162 4.26855 0
M  V30 4042 H 389.367 -1.0454 6.6888 0
M  V30 4043 H 394.009 -1.71643 3.86392 0
M  V30 4044 H 391.727 -0.274994 8.07632 0
M  V30 4045 H 395.313 -0.812071 5.76105 0
M  V30 4046 H 394.193 -0.102227 7.84133 0
M  V30 4047 N 391.696 -1.35014 -0.812953 0
M  V30 4048 C 392.926 -1.30841 -1.59888 0
M  V30 4049 C 393.334 0.117576 -1.88834 0
M  V30 4050 O 392.677 1.07807 -1.48739 0
M  V30 4051 C 392.739 -2.0412 -2.95931 0
M  V30 4052 C 392.403 -3.53336 -2.89832 0
M  V30 4053 C 393.4 -4.48052 -2.63714 0
M  V30 4054 C 391.085 -3.95894 -3.0915 0
M  V30 4055 C 393.079 -5.833 -2.56982 0
M  V30 4056 C 390.766 -5.31239 -3.0204 0
M  V30 4057 C 391.764 -6.24754 -2.75991 0
M  V30 4058 O 391.452 -7.57617 -2.68833 0
M  V30 4059 H 391.184 -0.451215 -0.50337 0
M  V30 4060 H 393.738 -1.78354 -1.01877 0
M  V30 4061 H 391.968 -1.51235 -3.559 0
M  V30 4062 H 393.657 -1.93107 -3.57022 0
M  V30 4063 H 394.423 -4.16492 -2.48515 0
M  V30 4064 H 390.302 -3.23495 -3.28438 0
M  V30 4065 H 393.846 -6.56263 -2.36569 0
M  V30 4066 H 389.743 -5.62415 -3.16796 0
M  V30 4067 H 390.511 -7.67469 -2.84487 0
M  V30 4068 N 393.175 1.03435 -1.18907 0
M  V30 4069 C 394.424 1.76143 -0.982669 0
M  V30 4070 C 394.737 1.89416 0.487953 0
M  V30 4071 O 395.943 2.59041 0.813036 0
M  V30 4072 C 394.399 3.16722 -1.70924 0
M  V30 4073 C 394.007 3.11522 -3.21959 0
M  V30 4074 C 395.751 3.93764 -1.58588 0
M  V30 4075 C 393.658 4.46999 -3.87228 0
M  V30 4076 H 392.588 0.660292 -0.364047 0
M  V30 4077 H 395.239 1.158 -1.42347 0
M  V30 4078 H 393.621 3.775 -1.19623 0
M  V30 4079 H 394.795 2.60158 -3.80335 0
M  V30 4080 H 393.11 2.47978 -3.34508 0
M  V30 4081 H 395.707 4.93963 -2.04707 0
M  V30 4082 H 396.05 4.12794 -0.539142 0
M  V30 4083 H 396.583 3.39576 -2.07203 0
M  V30 4084 H 393.322 4.33174 -4.91976 0
M  V30 4085 H 392.842 4.98441 -3.33642 0
M  V30 4086 H 394.521 5.15898 -3.90459 0
M  V30 4087 N 394.653 0.992116 1.22453 0
M  V30 4088 C 395.901 0.666215 1.90804 0
M  V30 4089 C 396.222 -0.804152 1.77647 0
M  V30 4090 O 395.492 -1.57629 1.16318 0
M  V30 4091 H 394.072 0.243423 0.706225 0
M  V30 4092 H 396.734 1.25845 1.48825 0
M  V30 4093 H 395.83 0.928069 2.97982 0
M  V30 4094 N 396.131 -1.37776 0.765217 0
M  V30 4095 C 397.378 -1.99849 0.326588 0
M  V30 4096 C 397.706 -1.60746 -1.09504 0
M  V30 4097 O 396.961 -0.84202 -1.76659 0
M  V30 4098 C 397.26 -3.5504 0.410053 0
M  V30 4099 C 396.926 -4.13891 1.78899 0
M  V30 4100 C 395.588 -4.29678 2.16635 0
M  V30 4101 C 397.94 -4.46236 2.69301 0
M  V30 4102 C 395.268 -4.7511 3.44221 0
M  V30 4103 C 397.62 -4.93089 3.9629 0
M  V30 4104 C 396.284 -5.07082 4.34078 0
M  V30 4105 H 395.554 -0.7313 0.119507 0
M  V30 4106 H 398.201 -1.64645 0.977968 0
M  V30 4107 H 396.506 -3.90451 -0.324878 0
M  V30 4108 H 398.203 -4.00966 0.0520699 0
M  V30 4109 H 394.793 -4.02026 1.48569 0
M  V30 4110 H 398.977 -4.3363 2.41409 0
M  V30 4111 H 394.233 -4.84129 3.73402 0
M  V30 4112 H 398.407 -5.17084 4.66472 0
M  V30 4113 H 396.034 -5.42046 5.33001 0
M  V30 4114 N 397.609 -0.515225 -1.4894 0
M  V30 4115 C 398.539 0.244628 -2.32215 0
M  V30 4116 C 399.52 0.949136 -1.41157 0
M  V30 4117 O 400.705 0.937783 -1.70057 0
M  V30 4118 C 397.835 1.30096 -3.22013 0
M  V30 4119 C 396.789 0.715486 -4.21977 0
M  V30 4120 C 396.115 1.87339 -5.00808 0
M  V30 4121 C 397.415 -0.302982 -5.2142 0
M  V30 4122 H 399.109 -0.450501 -2.95991 0
M  V30 4123 H 396.655 -0.218098 -1.42339 0
M  V30 4124 H 398.608 1.84037 -3.79089 0
M  V30 4125 H 397.332 2.02547 -2.56207 0
M  V30 4126 H 395.991 0.197715 -3.66066 0
M  V30 4127 H 395.639 2.58592 -4.31438 0
M  V30 4128 H 395.339 1.48764 -5.68457 0
M  V30 4129 H 396.863 2.41686 -5.60732 0
M  V30 4130 H 398.277 0.148802 -5.73107 0
M  V30 4131 H 396.674 -0.60532 -5.97039 0
M  V30 4132 H 397.744 -1.21395 -4.69459 0
M  V30 4133 N 399.087 1.5561 -0.249682 0
M  V30 4134 C 400.315 2.03411 0.378352 0
M  V30 4135 C 400.73 1.12886 1.51335 0
M  V30 4136 O 400.087 0.143833 1.81932 0
M  V30 4137 C 400.138 3.50537 0.88351 0
M  V30 4138 O 399.859 4.37614 -0.20626 0
M  V30 4139 C 401.36 4.14113 1.58195 0
M  V30 4140 H 398.58 0.664994 0.08958 0
M  V30 4141 H 401.124 2.01044 -0.374357 0
M  V30 4142 H 399.279 3.5343 1.58639 0
M  V30 4143 H 399.693 5.24199 0.177782 0
M  V30 4144 H 401.167 5.18741 1.8871 0
M  V30 4145 H 401.644 3.60767 2.50487 0
M  V30 4146 H 402.25 4.15151 0.923573 0
M  V30 4147 N 400.565 -0.0233959 1.57583 0
M  V30 4148 C 401.495 -1.02162 2.09965 0
M  V30 4149 C 402.476 -1.3735 1.00344 0
M  V30 4150 O 403.661 -1.46135 1.27899 0
M  V30 4151 C 400.791 -2.32081 2.58371 0
M  V30 4152 C 399.745 -2.1112 3.72307 0
M  V30 4153 C 399.071 -3.46848 4.06941 0
M  V30 4154 C 400.371 -1.49276 5.00514 0
M  V30 4155 H 402.065 -0.585557 2.93618 0
M  V30 4156 H 399.611 -0.280218 1.41247 0
M  V30 4157 H 401.564 -3.02249 2.93639 0
M  V30 4158 H 400.288 -2.77758 1.71808 0
M  V30 4159 H 398.947 -1.43384 3.37397 0
M  V30 4160 H 398.595 -3.90184 3.17436 0
M  V30 4161 H 398.295 -3.33646 4.83688 0
M  V30 4162 H 399.819 -4.18369 4.44747 0
M  V30 4163 H 401.233 -2.09368 5.33702 0
M  V30 4164 H 399.63 -1.46632 5.8191 0
M  V30 4165 H 400.7 -0.459217 4.82721 0
M  V30 4166 N 402.043 -1.548 -0.295768 0
M  V30 4167 C 403.292 -1.73538 -1.02798 0
M  V30 4168 C 403.605 -0.531159 -1.8825 0
M  V30 4169 O 404.811 -0.600458 -2.64777 0
M  V30 4170 C 403.267 -3.07051 -1.87744 0
M  V30 4171 C 402.875 -4.34968 -1.07269 0
M  V30 4172 C 404.619 -3.35146 -2.60533 0
M  V30 4173 C 402.526 -5.5953 -1.91521 0
M  V30 4174 H 401.456 -0.646794 -0.387522 0
M  V30 4175 H 404.107 -1.81278 -0.284718 0
M  V30 4176 H 402.489 -2.93289 -2.66078 0
M  V30 4177 H 403.663 -4.5958 -0.335117 0
M  V30 4178 H 401.978 -4.13847 -0.460384 0
M  V30 4179 H 404.575 -4.2541 -3.23929 0
M  V30 4180 H 404.918 -2.54255 -3.29636 0
M  V30 4181 H 405.451 -3.49902 -1.89244 0
M  V30 4182 H 402.19 -6.43103 -1.26878 0
M  V30 4183 H 401.71 -5.39096 -2.62937 0
M  V30 4184 H 403.389 -5.96982 -2.49442 0
M  V30 4185 N 403.521 0.559213 -1.47345 0
M  V30 4186 C 404.451 1.67622 -1.62558 0
M  V30 4187 C 405.432 1.63331 -0.475087 0
M  V30 4188 O 406.617 1.80983 -0.704182 0
M  V30 4189 C 403.747 3.0626 -1.63774 0
M  V30 4190 C 402.701 3.25397 -2.7803 0
M  V30 4191 C 402.027 4.64801 -2.64318 0
M  V30 4192 C 403.327 3.10965 -4.19641 0
M  V30 4193 H 405.021 1.55146 -2.56067 0
M  V30 4194 H 402.567 0.744961 -1.23233 0
M  V30 4195 H 404.52 3.84247 -1.73008 0
M  V30 4196 H 403.244 3.1969 -0.66825 0
M  V30 4197 H 401.903 2.49817 -2.68304 0
M  V30 4198 H 401.551 4.75028 -1.65401 0
M  V30 4199 H 401.251 4.78555 -3.40968 0
M  V30 4200 H 402.775 5.44926 -2.75478 0
M  V30 4201 H 404.189 3.78772 -4.30354 0
M  V30 4202 H 402.586 3.36229 -4.97062 0
M  V30 4203 H 403.656 2.07736 -4.38148 0
M  V30 4204 N 404.999 1.35443 0.805782 0
M  V30 4205 C 406.224 1.32037 1.59941 0
M  V30 4206 C 406.649 -0.0994215 1.87837 0
M  V30 4207 O 406.007 -1.06648 1.46615 0
M  V30 4208 C 406.055 2.13354 2.90711 0
M  V30 4209 O 405.159 1.5148 3.83572 0
M  V30 4210 H 404.5 0.452666 0.485787 0
M  V30 4211 H 407.03 1.78496 1.00002 0
M  V30 4212 H 407.04 2.25338 3.40128 0
M  V30 4213 H 405.715 3.16572 2.69732 0
M  V30 4214 H 404.292 1.4834 3.42125 0
M  V30 4215 N 406.477 -1.02803 1.19454 0
M  V30 4216 C 407.702 -1.80378 1.02364 0
M  V30 4217 C 408.127 -1.83282 -0.423007 0
M  V30 4218 O 407.485 -1.25945 -1.30413 0
M  V30 4219 C 407.533 -3.23248 1.59821 0
M  V30 4220 O 406.637 -4.04 0.828105 0
M  V30 4221 H 405.978 -0.556799 0.361761 0
M  V30 4222 H 408.508 -1.29385 1.58495 0
M  V30 4223 H 408.518 -3.73994 1.63073 0
M  V30 4224 H 407.193 -3.2045 2.65113 0
M  V30 4225 H 405.77 -3.62635 0.86891 0
M  V30 4226 N 407.956 -0.998596 -1.21925 0
M  V30 4227 C 409.203 -0.677663 -1.90824 0
M  V30 4228 C 409.531 0.790905 -1.77693 0
M  V30 4229 O 408.786 1.58817 -1.14349 0
M  V30 4230 C 409.085 -1.03648 -3.42041 0
M  V30 4231 C 408.751 -2.49825 -3.75364 0
M  V30 4232 C 407.413 -2.8977 -3.8417 0
M  V30 4233 C 409.765 -3.44545 -3.91073 0
M  V30 4234 C 407.093 -4.23412 -4.06127 0
M  V30 4235 C 409.445 -4.77853 -4.14535 0
M  V30 4236 C 408.109 -5.17531 -4.21566 0
M  V30 4237 H 407.379 -0.247975 -0.698276 0
M  V30 4238 H 410.026 -1.25584 -1.44571 0
M  V30 4239 H 408.331 -0.376457 -3.89987 0
M  V30 4240 H 410.028 -0.766113 -3.93614 0
M  V30 4241 H 406.618 -2.17866 -3.69097 0
M  V30 4242 H 410.802 -3.14853 -3.83642 0
M  V30 4243 H 406.058 -4.53734 -4.09799 0
M  V30 4244 H 410.232 -5.51189 -4.25633 0
M  V30 4245 H 407.859 -6.21102 -4.38333 0
M  V30 4246 N 409.434 1.37368 -0.772513 0
M  V30 4247 C 410.364 2.32856 -0.173304 0
M  V30 4248 C 411.345 1.55818 0.682262 0
M  V30 4249 O 412.53 1.84052 0.619566 0
M  V30 4250 C 409.66 3.40048 0.706007 0
M  V30 4251 C 408.614 4.27973 -0.0483144 0
M  V30 4252 C 407.94 5.26184 0.950491 0
M  V30 4253 C 409.24 5.07665 -1.22776 0
M  V30 4254 H 410.934 2.83217 -0.971002 0
M  V30 4255 H 408.48 1.3617 -0.468377 0
M  V30 4256 H 410.433 4.05827 1.13501 0
M  V30 4257 H 409.157 2.88214 1.53623 0
M  V30 4258 H 407.816 3.63726 -0.458107 0
M  V30 4259 H 407.464 4.7063 1.77529 0
M  V30 4260 H 407.164 5.85872 0.450314 0
M  V30 4261 H 408.688 5.94838 1.37842 0
M  V30 4262 H 410.102 5.66578 -0.875366 0
M  V30 4263 H 408.499 5.76681 -1.66007 0
M  V30 4264 H 409.569 4.40294 -2.03149 0
M  V30 4265 N 410.912 0.523116 1.48665 0
M  V30 4266 C 412.158 -0.0134963 2.02796 0
M  V30 4267 C 412.491 -1.34582 1.40004 0
M  V30 4268 O 411.766 -1.86756 0.543381 0
M  V30 4269 C 412.049 -0.14276 3.59817 0
M  V30 4270 C 411.902 1.21425 4.331 0
M  V30 4271 C 413.221 -0.872856 4.31357 0
M  V30 4272 H 410.34 -0.00343074 0.736992 0
M  V30 4273 H 412.982 0.678816 1.7746 0
M  V30 4274 H 411.132 -0.732401 3.81534 0
M  V30 4275 H 412.804 1.84447 4.2282 0
M  V30 4276 H 411.047 1.79791 3.94788 0
M  V30 4277 H 411.718 1.07687 5.41394 0
M  V30 4278 H 414.194 -0.372555 4.14429 0
M  V30 4279 H 413.07 -0.932185 5.40927 0
M  V30 4280 H 413.331 -1.92161 3.98154 0
M  V30 4281 N 412.39 -1.55475 0.257931 0
M  V30 4282 C 413.62 -2.03314 -0.367026 0
M  V30 4283 C 414.028 -1.13625 -1.51281 0
M  V30 4284 O 413.371 -0.145334 -1.83124 0
M  V30 4285 C 413.433 -3.47362 -0.926284 0
M  V30 4286 C 413.097 -4.56914 0.0886584 0
M  V30 4287 C 414.094 -5.12013 0.902123 0
M  V30 4288 C 411.779 -5.01827 0.217936 0
M  V30 4289 C 413.773 -6.10529 1.83122 0
M  V30 4290 C 411.46 -6.00172 1.15052 0
M  V30 4291 C 412.458 -6.54402 1.95568 0
M  V30 4292 O 412.146 -7.50827 2.87253 0
M  V30 4293 H 411.878 -0.669976 -0.0900443 0
M  V30 4294 H 414.432 -2.01804 0.382673 0
M  V30 4295 H 412.662 -3.46056 -1.72575 0
M  V30 4296 H 414.351 -3.78637 -1.46249 0
M  V30 4297 H 415.117 -4.78139 0.812891 0
M  V30 4298 H 410.996 -4.59272 -0.398721 0
M  V30 4299 H 414.54 -6.52783 2.46008 0
M  V30 4300 H 410.437 -6.33465 1.24064 0
M  V30 4301 H 411.205 -7.68483 2.81739 0
M  V30 4302 N 413.868 0.0150385 -1.57593 0
M  V30 4303 C 414.798 1.01047 -2.10503 0
M  V30 4304 C 415.779 1.36816 -1.01071 0
M  V30 4305 O 416.964 1.45455 -1.28672 0
M  V30 4306 C 414.094 2.30708 -2.59598 0
M  V30 4307 C 413.048 2.09142 -3.73421 0
M  V30 4308 C 412.374 3.44685 -4.08774 0
M  V30 4309 C 413.674 1.46619 -5.01298 0
M  V30 4310 H 415.368 0.569978 -2.93925 0
M  V30 4311 H 412.914 0.272724 -1.41394 0
M  V30 4312 H 414.867 3.00687 -2.95238 0
M  V30 4313 H 413.591 2.76843 -1.73279 0
M  V30 4314 H 412.25 1.41592 -3.38153 0
M  V30 4315 H 411.898 3.88495 -3.195 0
M  V30 4316 H 411.598 3.31077 -4.8545 0
M  V30 4317 H 413.122 4.16004 -4.4696 0
M  V30 4318 H 414.536 2.06535 -5.34805 0
M  V30 4319 H 412.933 1.43544 -5.82679 0
M  V30 4320 H 414.003 0.433611 -4.82957 0
M  V30 4321 N 415.346 1.54954 0.287554 0
M  V30 4322 C 416.592 1.75132 1.02257 0
M  V30 4323 C 416.925 0.542858 1.86458 0
M  V30 4324 O 416.2 -0.459856 1.88986 0
M  V30 4325 C 416.483 3.04812 1.91733 0
M  V30 4326 C 416.336 4.35985 1.10622 0
M  V30 4327 C 417.655 3.30438 2.90687 0
M  V30 4328 H 414.774 0.637194 0.370341 0
M  V30 4329 H 417.416 1.87678 0.296111 0
M  V30 4330 H 415.566 2.94247 2.53675 0
M  V30 4331 H 417.238 4.58487 0.508636 0
M  V30 4332 H 415.481 4.31865 0.409271 0
M  V30 4333 H 416.152 5.23017 1.76513 0
M  V30 4334 H 418.628 3.40701 2.38877 0
M  V30 4335 H 417.504 4.22467 3.50447 0
M  V30 4336 H 417.765 2.49377 3.65053 0
M  V30 4337 N 416.824 -0.551391 1.4764 0
M  V30 4338 C 417.734 -1.68525 1.63207 0
M  V30 4339 C 418.75 -1.6621 0.514815 0
M  V30 4340 O 419.926 -1.85551 0.783113 0
M  V30 4341 C 416.991 -3.05025 1.64805 0
M  V30 4342 C 416.052 -3.18362 2.88 0
M  V30 4343 C 415.285 -4.4835 2.89513 0
M  V30 4344 O 415.508 -5.34163 2.00065 0
M  V30 4345 O 414.442 -4.65602 3.81443 0
M  V30 4346 H 418.268 -1.58333 2.59161 0
M  V30 4347 H 415.853 -0.722063 1.30792 0
M  V30 4348 H 417.735 -3.86245 1.68502 0
M  V30 4349 H 416.41 -3.15587 0.720197 0
M  V30 4350 H 415.317 -2.36518 2.89845 0
M  V30 4351 H 416.65 -3.12707 3.80099 0
M  V30 4352 N 418.302 -1.35869 -0.798587 0
M  V30 4353 C 419.249 -1.29446 -1.91082 0
M  V30 4354 C 420.219 -0.16487 -1.6528 0
M  V30 4355 O 421.404 -0.349888 -1.87564 0
M  V30 4356 C 418.544 -1.0804 -3.27752 0
M  V30 4357 C 417.657 -2.29993 -3.65687 0
M  V30 4358 C 416.792 -2.01673 -4.91428 0
M  V30 4359 C 415.831 -3.19636 -5.22015 0
M  V30 4360 N 414.968 -2.91039 -6.38937 0
M  V30 4361 H 419.808 -2.24553 -1.95907 0
M  V30 4362 H 417.345 -1.11615 -0.958148 0
M  V30 4363 H 419.303 -0.936586 -4.06551 0
M  V30 4364 H 417.933 -0.16592 -3.22373 0
M  V30 4365 H 416.985 -2.55211 -2.82085 0
M  V30 4366 H 418.297 -3.18052 -3.84245 0
M  V30 4367 H 417.451 -1.84168 -5.78072 0
M  V30 4368 H 416.19 -1.10911 -4.74921 0
M  V30 4369 H 415.195 -3.37709 -4.33858 0
M  V30 4370 H 416.42 -4.11211 -5.40447 0
M  V30 4371 H 414.366 -2.0288 -6.2384 0
M  V30 4372 H 414.283 -3.72635 -6.57784 0
M  V30 4373 H 415.551 -2.77093 -7.28587 0
M  V30 4374 N 419.78 1.02168 -1.19998 0
M  V30 4375 C 421.057 1.72816 -0.916191 0
M  V30 4376 C 421.437 2.03081 0.576325 0
M  V30 4377 O 420.785 1.69122 1.53656 0
M  V30 4378 C 420.995 2.9997 -1.78378 0
M  V30 4379 C 422.343 3.73336 -2.02251 0
M  V30 4380 O 423.367 3.09914 -1.75589 0
M  V30 4381 O 422.226 4.87371 -2.47249 0
M  V30 4382 H 419.32 0.752924 -0.342103 0
M  V30 4383 H 421.866 1.08062 -1.30846 0
M  V30 4384 H 420.638 2.73888 -2.79466 0
M  V30 4385 H 420.261 3.72464 -1.39126 0
M  V30 4386 N 421.258 1.00505 1.21394 0
M  V30 4387 C 422.504 0.688793 1.90745 0
M  V30 4388 C 422.837 -0.778486 1.77914 0
M  V30 4389 O 422.112 -1.56433 1.15581 0
M  V30 4390 C 422.395 1.11063 3.42545 0
M  V30 4391 C 422.248 2.63737 3.64367 0
M  V30 4392 C 423.567 0.673059 4.34923 0
M  V30 4393 H 420.686 0.251702 0.692687 0
M  V30 4394 H 423.328 1.25074 1.43026 0
M  V30 4395 H 421.478 0.632508 3.83317 0
M  V30 4396 H 423.15 3.19313 3.32922 0
M  V30 4397 H 421.393 3.05248 3.08231 0
M  V30 4398 H 422.064 2.88305 4.70727 0
M  V30 4399 H 424.54 1.08392 4.01734 0
M  V30 4400 H 423.416 0.996383 5.39781 0
M  V30 4401 H 423.677 -0.425808 4.40045 0
M  V30 4402 N 422.737 -1.36956 0.779787 0
M  V30 4403 C 424.148 -1.82094 0.412156 0
M  V30 4404 C 424.499 -1.64926 -1.06273 0
M  V30 4405 O 423.624 -1.16483 -1.82375 0
M  V30 4406 C 424.219 -3.3059 0.741319 0
M  V30 4407 C 422.778 -3.73974 0.426641 0
M  V30 4408 C 421.925 -2.59368 0.980987 0
M  V30 4409 H 424.876 -1.25314 0.973758 0
M  V30 4410 H 424.897 -3.80489 0.028887 0
M  V30 4411 H 424.409 -3.43054 1.81482 0
M  V30 4412 H 422.51 -3.67076 -0.639215 0
M  V30 4413 H 422.623 -4.69778 0.940515 0
M  V30 4414 H 420.987 -2.51463 0.404757 0
M  V30 4415 H 421.77 -2.74621 2.06005 0
M  V30 4416 N 424.215 -0.530993 -1.48385 0
M  V30 4417 C 425.125 0.23503 -2.3342 0
M  V30 4418 C 426.141 0.93801 -1.46552 0
M  V30 4419 O 427.317 0.912745 -1.7953 0
M  V30 4420 C 424.382 1.26778 -3.22689 0
M  V30 4421 C 423.443 0.575038 -4.25431 0
M  V30 4422 C 422.676 1.55858 -5.10435 0
M  V30 4423 O 422.899 2.79129 -4.97437 0
M  V30 4424 O 421.833 1.09742 -5.91811 0
M  V30 4425 H 425.659 -0.461794 -3.00169 0
M  V30 4426 H 423.244 -0.291903 -1.46521 0
M  V30 4427 H 425.126 1.86457 -3.77904 0
M  V30 4428 H 423.801 1.94699 -2.586 0
M  V30 4429 H 422.708 -0.0622782 -3.74048 0
M  V30 4430 H 424.041 -0.062253 -4.92161 0
M  V30 4431 N 425.693 1.55336 -0.266172 0
M  V30 4432 C 426.939 1.99692 0.353681 0
M  V30 4433 C 427.272 1.1543 1.56172 0
M  V30 4434 O 426.547 0.222218 1.93226 0
M  V30 4435 C 426.83 3.52316 0.74466 0
M  V30 4436 C 426.683 4.47337 -0.470101 0
M  V30 4437 C 428.002 4.10588 1.58447 0
M  V30 4438 H 425.121 0.725961 0.12708 0
M  V30 4439 H 427.763 1.86336 -0.371333 0
M  V30 4440 H 425.913 3.63829 1.36239 0
M  V30 4441 H 427.585 4.4778 -1.10864 0
M  V30 4442 H 425.828 4.19364 -1.10978 0
M  V30 4443 H 426.499 5.51788 -0.15291 0
M  V30 4444 H 428.975 4.02297 1.06286 0
M  V30 4445 H 427.851 5.17607 1.82686 0
M  V30 4446 H 428.112 3.60253 2.56262 0
M  V30 4447 N 427.171 -0.0066808 1.57599 0
M  V30 4448 C 428.448 -0.729586 1.81484 0
M  V30 4449 C 428.828 -1.92359 0.869558 0
M  V30 4450 O 428.176 -2.28348 -0.0832533 0
M  V30 4451 C 428.386 -1.1416 3.29801 0
M  V30 4452 C 429.734 -1.54823 3.95367 0
M  V30 4453 O 430.758 -1.23558 3.34084 0
M  V30 4454 O 429.617 -2.12937 5.03309 0
M  V30 4455 H 426.711 -0.354674 0.747085 0
M  V30 4456 H 429.257 0.0182609 1.6969 0
M  V30 4457 H 428.029 -0.290231 3.90222 0
M  V30 4458 H 427.652 -1.94876 3.46568 0
M  V30 4459 N 428.649 -1.55105 -0.279332 0
M  V30 4460 C 429.612 -1.86783 -1.32834 0
M  V30 4461 C 430.612 -0.74199 -1.42657 0
M  V30 4462 O 431.802 -1.0102 -1.41918 0
M  V30 4463 C 428.934 -2.06746 -2.71052 0
M  V30 4464 H 430.127 -2.8055 -1.05979 0
M  V30 4465 H 427.68 -1.47499 -0.517087 0
M  V30 4466 H 428.415 -1.15339 -3.03097 0
M  V30 4467 H 428.2 -2.88711 -2.65309 0
M  V30 4468 H 429.69 -2.32549 -3.46858 0
M  V30 4469 N 430.127 0.543554 -1.4793 0
M  V30 4470 C 431.059 1.665 -1.57513 0
M  V30 4471 C 432.072 1.56156 -0.460333 0
M  V30 4472 O 433.261 1.62865 -0.730573 0
M  V30 4473 C 430.361 3.05063 -1.47614 0
M  V30 4474 C 429.534 3.41024 -2.739 0
M  V30 4475 C 428.593 4.58809 -2.57645 0
M  V30 4476 O 427.619 4.62707 -3.31498 0
M  V30 4477 N 428.821 5.56149 -1.66368 0
M  V30 4478 H 431.586 1.5872 -2.5422 0
M  V30 4479 H 429.147 0.730517 -1.44482 0
M  V30 4480 H 431.139 3.81712 -1.34455 0
M  V30 4481 H 429.709 3.06994 -0.589359 0
M  V30 4482 H 428.929 2.53687 -3.01723 0
M  V30 4483 H 430.217 3.61831 -3.57709 0
M  V30 4484 H 429.615 5.55767 -1.05543 0
M  V30 4485 H 428.172 6.32071 -1.59154 0
M  V30 4486 N 431.605 1.3629 0.791371 0
M  V30 4487 C 432.853 1.30154 1.5461 0
M  V30 4488 C 433.174 -0.119409 1.94634 0
M  V30 4489 O 432.444 -1.05924 1.64794 0
M  V30 4490 H 431.024 0.478784 0.573389 0
M  V30 4491 H 433.686 1.70565 0.94306 0
M  V30 4492 H 432.782 1.92762 2.45457 0
M  V30 4493 N 433.083 -1.0153 1.20538 0
M  V30 4494 C 433.993 -2.13557 0.971113 0
M  V30 4495 C 435.009 -1.73845 -0.0734366 0
M  V30 4496 O 436.185 -2.01075 0.114299 0
M  V30 4497 C 433.25 -3.42661 0.527639 0
M  V30 4498 C 432.311 -3.96608 1.64319 0
M  V30 4499 C 431.544 -5.1955 1.22078 0
M  V30 4500 O 431.767 -5.70329 0.0900198 0
M  V30 4501 O 430.701 -5.66681 2.02871 0
M  V30 4502 H 434.527 -2.3619 1.90913 0
M  V30 4503 H 432.112 -1.11946 0.989362 0
M  V30 4504 H 433.994 -4.20404 0.289621 0
M  V30 4505 H 432.669 -3.21441 -0.381779 0
M  V30 4506 H 431.576 -3.20139 1.93551 0
M  V30 4507 H 432.909 -4.22219 2.52966 0
M  V30 4508 N 434.561 -1.01147 -1.20859 0
M  V30 4509 C 435.471 -0.58686 -2.27141 0
M  V30 4510 C 436.487 0.373198 -1.69951 0
M  V30 4511 O 437.663 0.235423 -2.00019 0
M  V30 4512 C 434.728 0.0733602 -3.46622 0
M  V30 4513 C 433.789 -0.931995 -4.19061 0
M  V30 4514 C 433.022 -0.303186 -5.32838 0
M  V30 4515 O 433.245 0.898395 -5.63281 0
M  V30 4516 O 432.179 -1.01735 -5.9324 0
M  V30 4517 H 436.005 -1.47155 -2.65667 0
M  V30 4518 H 433.59 -0.780689 -1.2738 0
M  V30 4519 H 435.472 0.442333 -4.19072 0
M  V30 4520 H 434.147 0.932329 -3.09983 0
M  V30 4521 H 433.054 -1.35224 -3.48805 0
M  V30 4522 H 434.387 -1.76076 -4.59628 0
M  V30 4523 N 436.039 1.36541 -0.78704 0
M  V30 4524 C 436.972 2.27831 -0.129765 0
M  V30 4525 C 437.95 1.47105 0.692732 0
M  V30 4526 O 439.134 1.7641 0.664222 0
M  V30 4527 C 436.261 3.28577 0.821883 0
M  V30 4528 C 435.307 4.26422 0.0814771 0
M  V30 4529 S 436.14 5.20919 -1.24112 0
M  V30 4530 C 437.296 6.25212 -0.293409 0
M  V30 4531 H 437.529 2.83229 -0.903811 0
M  V30 4532 H 435.062 1.43046 -0.581144 0
M  V30 4533 H 437.02 3.87123 1.3655 0
M  V30 4534 H 435.681 2.72096 1.56916 0
M  V30 4535 H 434.874 4.97554 0.803485 0
M  V30 4536 H 434.476 3.71944 -0.391589 0
M  V30 4537 H 436.768 6.75435 0.528622 0
M  V30 4538 H 437.711 7.01378 -0.973344 0
M  V30 4539 H 438.119 5.64407 0.102196 0
M  V30 4540 N 437.518 0.538854 1.48102 0
M  V30 4541 C 438.465 -0.219042 2.29758 0
M  V30 4542 C 439.435 -0.925562 1.37922 0
M  V30 4543 O 440.62 -0.924855 1.66886 0
M  V30 4544 C 437.76 -1.25452 3.2149 0
M  V30 4545 C 436.873 -0.555943 4.28408 0
M  V30 4546 C 436.008 -1.57512 5.0731 0
M  V30 4547 C 435.047 -0.860498 6.06021 0
M  V30 4548 N 434.184 -1.82564 6.77949 0
M  V30 4549 H 439.024 0.483449 2.94052 0
M  V30 4550 H 436.561 0.250247 1.44956 0
M  V30 4551 H 438.519 -1.86727 3.7308 0
M  V30 4552 H 437.149 -1.92528 2.591 0
M  V30 4553 H 436.201 0.170938 3.80016 0
M  V30 4554 H 437.513 0.00474616 4.988 0
M  V30 4555 H 436.667 -2.26191 5.62959 0
M  V30 4556 H 435.406 -2.16972 4.36778 0
M  V30 4557 H 434.411 -0.159686 5.49568 0
M  V30 4558 H 435.636 -0.271897 6.78555 0
M  V30 4559 H 433.582 -2.40915 6.10161 0
M  V30 4560 H 433.499 -1.31662 7.44447 0
M  V30 4561 H 434.767 -2.50414 7.38182 0
M  V30 4562 N 438.996 -1.55193 0.274407 0
M  V30 4563 C 439.906 -2.26164 -0.623473 0
M  V30 4564 C 440.922 -1.28729 -1.17068 0
M  V30 4565 O 442.098 -1.61663 -1.20112 0
M  V30 4566 C 439.163 -2.96833 -1.7914 0
M  V30 4567 C 438.224 -4.09745 -1.28093 0
M  V30 4568 C 437.457 -4.77034 -2.3932 0
M  V30 4569 O 437.68 -4.4353 -3.5866 0
M  V30 4570 O 436.614 -5.64996 -2.07516 0
M  V30 4571 H 440.44 -3.03661 -0.0485661 0
M  V30 4572 H 438.025 -1.49341 0.0418382 0
M  V30 4573 H 439.907 -3.41248 -2.4724 0
M  V30 4574 H 438.582 -2.22253 -2.35341 0
M  V30 4575 H 437.489 -3.69787 -0.566416 0
M  V30 4576 H 438.822 -4.86224 -0.764683 0
M  V30 4577 N 440.474 -0.00167713 -1.576 0
M  V30 4578 C 441.384 1.00548 -2.1196 0
M  V30 4579 C 442.4 1.3758 -1.06526 0
M  V30 4580 O 443.576 1.46278 -1.38436 0
M  V30 4581 C 440.641 2.27809 -2.6135 0
M  V30 4582 C 439.702 1.97074 -3.81393 0
M  V30 4583 C 438.935 3.18267 -4.28417 0
M  V30 4584 O 439.158 4.30009 -3.74765 0
M  V30 4585 O 438.092 3.02167 -5.20556 0
M  V30 4586 H 441.918 0.573373 -2.98238 0
M  V30 4587 H 439.503 0.217255 -1.47812 0
M  V30 4588 H 441.385 3.02568 -2.93309 0
M  V30 4589 H 440.06 2.70254 -1.78169 0
M  V30 4590 H 438.967 1.19785 -3.54404 0
M  V30 4591 H 440.3 1.59464 -4.65652 0
M  V30 4592 N 441.952 1.55251 0.271103 0
M  V30 4593 C 443.199 1.75946 1.00245 0
M  V30 4594 C 443.527 0.561611 1.86215 0
M  V30 4595 O 442.782 -0.455832 1.90317 0
M  V30 4596 C 443.081 3.01879 1.91321 0
M  V30 4597 C 442.747 4.34337 1.21086 0
M  V30 4598 C 441.409 4.70338 1.01666 0
M  V30 4599 C 443.761 5.16325 0.71119 0
M  V30 4600 C 441.089 5.8588 0.310099 0
M  V30 4601 C 443.441 6.32597 0.0182157 0
M  V30 4602 C 442.105 6.67236 -0.18768 0
M  V30 4603 H 441.375 0.643833 0.366824 0
M  V30 4604 H 444.022 1.89521 0.27458 0
M  V30 4605 H 442.327 2.83212 2.70736 0
M  V30 4606 H 444.024 3.15088 2.48033 0
M  V30 4607 H 440.614 4.06043 1.37213 0
M  V30 4608 H 444.798 4.88987 0.848844 0
M  V30 4609 H 440.054 6.1124 0.139873 0
M  V30 4610 H 444.228 6.9538 -0.376711 0
M  V30 4611 H 441.855 7.56618 -0.73715 0
M  V30 4612 N 443.43 -0.535701 1.48216 0
M  V30 4613 C 444.34 -1.66785 1.64985 0
M  V30 4614 C 445.356 -1.65654 0.532414 0
M  V30 4615 O 446.532 -1.8471 0.80275 0
M  V30 4616 C 443.597 -3.0326 1.68031 0
M  V30 4617 C 442.658 -3.1529 2.9136 0
M  V30 4618 C 441.891 -4.45255 2.94252 0
M  V30 4619 O 442.114 -5.32011 2.05719 0
M  V30 4620 O 441.048 -4.6153 3.86359 0
M  V30 4621 H 444.874 -1.55576 2.60825 0
M  V30 4622 H 442.459 -0.70815 1.31551 0
M  V30 4623 H 444.341 -3.84436 1.72589 0
M  V30 4624 H 443.016 -3.14805 0.753628 0
M  V30 4625 H 441.923 -2.3343 2.92337 0
M  V30 4626 H 443.256 -3.08658 3.83394 0
M  V30 4627 N 444.908 -1.36708 -0.784132 0
M  V30 4628 C 446.136 -1.34398 -1.57305 0
M  V30 4629 C 446.551 0.0735577 -1.88657 0
M  V30 4630 O 445.908 1.03193 -1.50524 0
M  V30 4631 C 445.959 -2.17053 -2.89085 0
M  V30 4632 O 445.68 -3.53281 -2.59083 0
M  V30 4633 C 447.181 -2.22583 -3.83369 0
M  V30 4634 H 444.401 -0.460819 -0.487736 0
M  V30 4635 H 446.945 -1.79879 -0.972819 0
M  V30 4636 H 445.1 -1.75113 -3.45564 0
M  V30 4637 H 445.514 -3.9647 -3.43383 0
M  V30 4638 H 446.988 -2.84763 -4.72878 0
M  V30 4639 H 447.465 -1.23075 -4.21603 0
M  V30 4640 H 448.071 -2.64781 -3.32823 0
M  V30 4641 N 446.386 1.0089 -1.21074 0
M  V30 4642 C 447.616 1.77933 -1.04993 0
M  V30 4643 C 448.024 1.84847 0.403495 0
M  V30 4644 O 447.367 1.30606 1.29181 0
M  V30 4645 C 447.429 3.23541 -1.56722 0
M  V30 4646 C 447.093 3.40214 -3.05129 0
M  V30 4647 C 448.09 3.2881 -4.02716 0
M  V30 4648 C 445.775 3.65781 -3.44252 0
M  V30 4649 C 447.769 3.42732 -5.37414 0
M  V30 4650 C 445.456 3.79346 -4.79103 0
M  V30 4651 C 446.454 3.67827 -5.75493 0
M  V30 4652 O 446.142 3.80965 -7.07899 0
M  V30 4653 H 445.874 0.566157 -0.369381 0
M  V30 4654 H 448.428 1.27826 -1.60779 0
M  V30 4655 H 446.658 3.74766 -0.953285 0
M  V30 4656 H 448.347 3.82245 -1.36543 0
M  V30 4657 H 449.113 3.08986 -3.73835 0
M  V30 4658 H 444.992 3.73831 -2.69762 0
M  V30 4659 H 448.536 3.33658 -6.12632 0
M  V30 4660 H 444.433 3.98672 -5.07672 0
M  V30 4661 H 445.201 3.97937 -7.15254 0
M  V30 4662 N 447.864 1.01787 1.20321 0
M  V30 4663 C 448.827 0.593972 2.2137 0
M  V30 4664 C 449.827 -0.336553 1.57239 0
M  V30 4665 O 451.017 -0.125069 1.7375 0
M  V30 4666 C 448.149 -0.132433 3.40643 0
M  V30 4667 H 449.342 1.48791 2.60387 0
M  V30 4668 H 446.895 0.807803 1.33807 0
M  V30 4669 H 447.63 -1.04123 3.0713 0
M  V30 4670 H 447.415 0.53605 3.88418 0
M  V30 4671 H 448.905 -0.416314 4.1552 0
M  V30 4672 N 449.342 -1.36122 0.79427 0
M  V30 4673 C 450.619 -1.93398 0.292685 0
M  V30 4674 C 450.999 -1.72567 -1.21589 0
M  V30 4675 O 450.347 -1.08745 -2.00965 0
M  V30 4676 C 450.557 -3.42099 0.690614 0
M  V30 4677 C 451.905 -4.19231 0.673105 0
M  V30 4678 O 452.929 -3.50559 0.631389 0
M  V30 4679 O 451.788 -5.41732 0.720362 0
M  V30 4680 H 448.882 -0.823712 0.0736693 0
M  V30 4681 H 451.428 -1.45273 0.87714 0
M  V30 4682 H 450.2 -3.50938 1.73085 0
M  V30 4683 H 449.823 -3.97519 0.0803036 0
M  V30 4684 N 450.82 -0.546701 -1.47814 0
M  V30 4685 C 451.783 0.196287 -2.28358 0
M  V30 4686 C 452.783 0.852437 -1.36346 0
M  V30 4687 O 453.973 0.709913 -1.59078 0
M  V30 4688 C 451.105 1.28579 -3.15722 0
M  V30 4689 H 452.298 -0.511086 -2.95513 0
M  V30 4690 H 449.851 -0.303248 -1.5333 0
M  V30 4691 H 450.586 2.0259 -2.53235 0
M  V30 4692 H 450.371 0.820229 -3.83425 0
M  V30 4693 H 451.861 1.80793 -3.76435 0
M  V30 4694 N 452.299 1.55045 -0.282633 0
M  V30 4695 C 453.229 2.2579 0.595066 0
M  V30 4696 C 454.21 1.25074 1.15284 0
M  V30 4697 O 455.395 1.5381 1.18559 0
M  V30 4698 C 452.525 2.98472 1.77572 0
M  V30 4699 C 451.479 4.0618 1.34914 0
M  V30 4700 C 450.805 4.66477 2.6135 0
M  V30 4701 C 452.105 5.1996 0.493821 0
M  V30 4702 H 453.799 2.994 0.00505653 0
M  V30 4703 H 451.345 1.44 0.000992001 0
M  V30 4704 H 453.298 3.46677 2.39568 0
M  V30 4705 H 452.022 2.2241 2.39168 0
M  V30 4706 H 450.681 3.58797 0.752338 0
M  V30 4707 H 450.329 3.87074 3.2122 0
M  V30 4708 H 450.029 5.39207 2.33516 0
M  V30 4709 H 451.553 5.17435 3.24181 0
M  V30 4710 H 452.967 5.64172 1.01898 0
M  V30 4711 H 451.364 5.99299 0.310047 0
M  V30 4712 H 452.434 4.82462 -0.485593 0
M  V30 4713 N 453.777 0.010035 1.57597 0
M  V30 4714 C 455.023 -0.668011 1.92118 0
M  V30 4715 C 455.378 -1.70821 0.885328 0
M  V30 4716 O 454.671 -1.91333 -0.101187 0
M  V30 4717 C 454.865 -1.34434 3.31153 0
M  V30 4718 C 454.694 -0.371176 4.48166 0
M  V30 4719 C 453.464 0.0220686 5.05295 0
M  V30 4720 C 455.662 0.366731 5.12991 0
M  V30 4721 N 453.644 0.9924 6.05826 0
M  V30 4722 C 455.015 1.19142 6.08445 0
M  V30 4723 C 457.07 0.429489 4.96044 0
M  V30 4724 C 455.773 2.07317 6.88776 0
M  V30 4725 C 457.799 1.2985 5.76969 0
M  V30 4726 C 457.161 2.11101 6.72023 0
M  V30 4727 H 453.26 -0.217337 0.751192 0
M  V30 4728 H 455.844 0.0727375 1.94564 0
M  V30 4729 H 454.015 -2.05533 3.29561 0
M  V30 4730 H 455.747 -1.97789 3.53075 0
M  V30 4731 H 452.502 -0.348409 4.72317 0
M  V30 4732 H 452.926 1.47324 6.60776 0
M  V30 4733 H 457.568 -0.18442 4.22398 0
M  V30 4734 H 455.286 2.69771 7.61741 0
M  V30 4735 H 458.872 1.3511 5.65894 0
M  V30 4736 H 457.752 2.77257 7.33552 0
M  V30 4737 N 455.255 -1.55392 -0.262866 0
M  V30 4738 C 456.501 -1.77657 -0.990424 0
M  V30 4739 C 456.856 -0.576333 -1.83565 0
M  V30 4740 O 456.149 0.430795 -1.86694 0
M  V30 4741 C 456.343 -3.02889 -1.89718 0
M  V30 4742 C 456.172 -4.34979 -1.14121 0
M  V30 4743 C 454.942 -4.98052 -0.852768 0
M  V30 4744 C 457.14 -5.11597 -0.526625 0
M  V30 4745 N 455.122 -6.13859 -0.0710649 0
M  V30 4746 C 456.493 -6.19883 0.12042 0
M  V30 4747 C 458.548 -4.95992 -0.435485 0
M  V30 4748 C 457.251 -7.14262 0.849833 0
M  V30 4749 C 459.277 -5.90735 0.280359 0
M  V30 4750 C 458.639 -6.98417 0.916103 0
M  V30 4751 H 454.738 -0.702242 -0.344064 0
M  V30 4752 H 457.322 -1.92887 -0.265088 0
M  V30 4753 H 455.493 -2.89017 -2.59468 0
M  V30 4754 H 457.225 -3.13516 -2.5591 0
M  V30 4755 H 453.98 -4.5916 -1.16058 0
M  V30 4756 H 454.404 -6.76302 0.307413 0
M  V30 4757 H 459.046 -4.12832 -0.912671 0
M  V30 4758 H 456.764 -7.96935 1.33867 0
M  V30 4759 H 460.35 -5.80738 0.351332 0
M  V30 4760 H 459.23 -7.70467 1.46119 0
M  V30 4761 N 456.733 0.527833 -1.48498 0
M  V30 4762 C 457.981 1.28101 -1.56316 0
M  V30 4763 C 458.302 1.9352 -0.239781 0
M  V30 4764 O 457.572 1.81433 0.738849 0
M  V30 4765 H 456.152 0.475793 -0.575873 0
M  V30 4766 H 458.814 0.614052 -1.84974 0
M  V30 4767 H 457.91 2.05916 -2.34532 0
M  V30 4768 N 458.211 1.37122 0.776871 0
M  V30 4769 C 459.141 1.35164 1.90402 0
M  V30 4770 C 460.122 0.221069 1.68657 0
M  V30 4771 O 461.307 0.420642 1.8959 0
M  V30 4772 C 458.437 1.15274 3.27611 0
M  V30 4773 C 457.391 2.25289 3.63908 0
M  V30 4774 C 456.717 1.90527 4.99603 0
M  V30 4775 C 458.017 3.67446 3.71188 0
M  V30 4776 H 459.711 2.29482 1.92297 0
M  V30 4777 H 457.257 1.10465 0.923773 0
M  V30 4778 H 459.21 1.12536 4.06096 0
M  V30 4779 H 457.934 0.174102 3.26136 0
M  V30 4780 H 456.593 2.27174 2.87728 0
M  V30 4781 H 456.241 0.91206 4.94662 0
M  V30 4782 H 455.941 2.64193 5.24858 0
M  V30 4783 H 457.465 1.89367 5.80493 0
M  V30 4784 H 458.879 3.67719 4.39836 0
M  V30 4785 H 457.276 4.40123 4.07936 0
M  V30 4786 H 458.346 4.01443 2.71977 0
M  V30 4787 N 459.689 -1.00246 1.21608 0
M  V30 4788 C 460.938 -1.73476 1.02902 0
M  V30 4789 C 461.251 -1.90643 -0.437561 0
M  V30 4790 O 462.457 -2.61105 -0.74407 0
M  V30 4791 C 460.913 -3.12079 1.79261 0
M  V30 4792 C 460.521 -3.02877 3.30106 0
M  V30 4793 C 462.265 -3.89421 1.68972 0
M  V30 4794 C 460.172 -4.36575 3.98944 0
M  V30 4795 H 459.102 -0.650408 0.381425 0
M  V30 4796 H 461.753 -1.11985 1.45367 0
M  V30 4797 H 460.135 -3.74196 1.2959 0
M  V30 4798 H 461.309 -2.49983 3.87098 0
M  V30 4799 H 459.624 -2.39022 3.40965 0
M  V30 4800 H 462.221 -4.88362 2.17731 0
M  V30 4801 H 462.564 -4.1122 0.648397 0
M  V30 4802 H 463.097 -3.33963 2.16133 0
M  V30 4803 H 459.836 -4.19978 5.03288 0
M  V30 4804 H 459.356 -4.8942 3.4674 0
M  V30 4805 H 461.035 -5.05364 4.04 0
M  V30 4806 N 461.167 -1.02423 -1.1978 0
M  V30 4807 C 462.395 -0.737456 -1.93311 0
M  V30 4808 C 462.81 0.703023 -1.75223 0
M  V30 4809 O 462.167 1.47761 -1.07112 0
M  V30 4810 C 462.218 -1.0733 -3.45199 0
M  V30 4811 O 461.939 -2.4572 -3.62702 0
M  V30 4812 C 463.44 -0.80866 -4.35862 0
M  V30 4813 H 460.66 -0.2702 -0.614193 0
M  V30 4814 H 463.204 -1.36747 -1.52054 0
M  V30 4815 H 461.359 -0.488545 -3.84307 0
M  V30 4816 H 461.773 -2.58081 -4.56612 0
M  V30 4817 H 463.247 -1.09365 -5.41057 0
M  V30 4818 H 463.724 0.257025 -4.38447 0
M  V30 4819 H 464.33 -1.37592 -4.02428 0
M  V30 4820 N 462.645 1.35699 -0.801477 0
M  V30 4821 C 463.575 2.32436 -0.222658 0
M  V30 4822 C 464.556 1.5723 0.649057 0
M  V30 4823 O 465.741 1.85324 0.580387 0
M  V30 4824 C 462.871 3.41469 0.633719 0
M  V30 4825 C 461.825 4.27774 -0.139083 0
M  V30 4826 C 461.151 5.28082 0.838666 0
M  V30 4827 C 462.451 5.04946 -1.33517 0
M  V30 4828 H 464.145 2.81094 -1.03086 0
M  V30 4829 H 461.691 1.35146 -0.497155 0
M  V30 4830 H 463.644 4.08143 1.04868 0
M  V30 4831 H 462.368 2.91408 1.47475 0
M  V30 4832 H 461.027 3.62673 -0.535156 0
M  V30 4833 H 460.675 4.7429 1.67506 0
M  V30 4834 H 460.375 5.86695 0.32594 0
M  V30 4835 H 461.899 5.97628 1.25194 0
M  V30 4836 H 463.313 5.64593 -0.995349 0
M  V30 4837 H 461.71 5.7303 -1.78202 0
M  V30 4838 H 462.78 4.35886 -2.12442 0
M  V30 4839 N 464.123 0.554532 1.47522 0
M  V30 4840 C 465.086 -0.184174 2.28459 0
M  V30 4841 C 466.086 -0.845195 1.36796 0
M  V30 4842 O 467.276 -0.701467 1.59452 0
M  V30 4843 C 464.408 -1.26903 3.16399 0
M  V30 4844 H 465.601 0.526751 2.95238 0
M  V30 4845 H 463.154 0.311375 1.53167 0
M  V30 4846 H 463.889 -2.01244 2.54306 0
M  V30 4847 H 463.674 -0.799883 3.83854 0
M  V30 4848 H 465.164 -1.78794 3.77389 0
M  V30 4849 N 465.601 -1.54893 0.290851 0
M  V30 4850 C 466.829 -2.04343 -0.324288 0
M  V30 4851 C 467.244 -1.16859 -1.48289 0
M  V30 4852 O 466.601 -0.192018 -1.81487 0
M  V30 4853 C 466.652 -3.52756 -0.79026 0
M  V30 4854 O 466.373 -4.36913 0.322213 0
M  V30 4855 C 467.874 -4.18161 -1.4716 0
M  V30 4856 H 465.094 -0.667135 -0.0719173 0
M  V30 4857 H 467.638 -1.99981 0.427529 0
M  V30 4858 H 465.793 -3.57511 -1.49213 0
M  V30 4859 H 466.207 -5.24486 -0.0387372 0
M  V30 4860 H 467.681 -5.23562 -1.7489 0
M  V30 4861 H 468.158 -3.67282 -2.40834 0
M  V30 4862 H 468.764 -4.17454 -0.813178 0
M  V30 4863 N 467.08 -0.0183926 -1.57589 0
M  V30 4864 C 468.329 0.66185 -1.90532 0
M  V30 4865 C 468.642 1.73904 -0.895366 0
M  V30 4866 O 469.848 2.47518 -1.11566 0
M  V30 4867 C 468.304 1.22844 -3.38286 0
M  V30 4868 C 467.912 0.185103 -4.47617 0
M  V30 4869 C 469.656 1.88581 -3.80312 0
M  V30 4870 C 467.563 0.762723 -5.86461 0
M  V30 4871 H 466.493 0.250972 -0.711006 0
M  V30 4872 H 469.144 -0.0819435 -1.83317 0
M  V30 4873 H 467.526 2.0235 -3.40398 0
M  V30 4874 H 468.7 -0.58671 -4.5705 0
M  V30 4875 H 467.015 -0.372889 -4.14727 0
M  V30 4876 H 469.612 2.32735 -4.81392 0
M  V30 4877 H 469.955 2.72408 -3.14801 0
M  V30 4878 H 470.488 1.15782 -3.80578 0
M  V30 4879 H 467.227 -0.0371713 -6.55489 0
M  V30 4880 H 466.747 1.50327 -5.80656 0
M  V30 4881 H 468.426 1.25576 -6.34697 0
M  V30 4882 N 468.558 1.5553 0.254621 0
M  V30 4883 C 469.806 1.7665 0.981793 0
M  V30 4884 C 470.127 0.580963 1.86145 0
M  V30 4885 O 469.397 -0.403537 1.91699 0
M  V30 4886 H 467.977 0.651475 0.365498 0
M  V30 4887 H 470.639 1.92958 0.274426 0
M  V30 4888 H 469.735 2.67486 1.60802 0
M  V30 4889 N 470.036 -0.519951 1.48776 0
M  V30 4890 C 471.266 -1.29783 1.60748 0
M  V30 4891 C 471.674 -1.87253 0.27072 0
M  V30 4892 O 471.017 -1.67628 -0.751438 0
M  V30 4893 C 471.079 -2.47984 2.60277 0
M  V30 4894 C 470.743 -2.11526 4.051 0
M  V30 4895 C 471.74 -1.66608 4.92481 0
M  V30 4896 C 469.425 -2.21742 4.50706 0
M  V30 4897 C 471.419 -1.32384 6.23501 0
M  V30 4898 C 469.106 -1.87129 5.81744 0
M  V30 4899 C 470.104 -1.42523 6.67964 0
M  V30 4900 O 469.792 -1.0837 7.96562 0
M  V30 4901 H 469.524 -0.400562 0.544542 0
M  V30 4902 H 472.078 -0.632879 1.95407 0
M  V30 4903 H 470.308 -3.17493 2.2076 0
M  V30 4904 H 471.997 -3.10036 2.61978 0
M  V30 4905 H 472.763 -1.58178 4.58481 0
M  V30 4906 H 468.642 -2.55415 3.83776 0
M  V30 4907 H 472.186 -0.974949 6.90754 0
M  V30 4908 H 468.083 -1.95204 6.15277 0
M  V30 4909 H 468.851 -1.21681 8.09405 0
M  V30 4910 N 471.514 -1.37532 -0.769588 0
M  V30 4911 C 472.762 -1.32597 -1.5252 0
M  V30 4912 C 473.083 0.0884294 -1.94799 0
M  V30 4913 O 472.353 1.03289 -1.66458 0
M  V30 4914 H 470.933 -0.487846 -0.565699 0
M  V30 4915 H 473.595 -1.72044 -0.915806 0
M  V30 4916 H 472.691 -1.96643 -2.42359 0
M  V30 4917 N 472.992 0.995999 -1.22138 0
M  V30 4918 C 474.269 1.70834 -0.952642 0
M  V30 4919 C 474.649 2.04257 0.533119 0
M  V30 4920 O 473.997 1.72343 1.50034 0
M  V30 4921 C 474.207 2.96119 -1.84701 0
M  V30 4922 C 475.555 3.68962 -2.10124 0
M  V30 4923 O 476.579 3.0612 -1.82124 0
M  V30 4924 O 475.438 4.82017 -2.57531 0
M  V30 4925 H 472.532 0.745498 -0.357997 0
M  V30 4926 H 475.078 1.05262 -1.33109 0
M  V30 4927 H 473.85 2.67898 -2.85213 0
M  V30 4928 H 473.473 3.6943 -1.46995 0
M  V30 4929 N 474.47 1.03057 1.19235 0
M  V30 4930 C 475.417 0.612832 2.22515 0
M  V30 4931 C 476.387 -0.374224 1.61829 0
M  V30 4932 O 477.572 -0.270501 1.88873 0
M  V30 4933 C 474.712 -0.028475 3.45088 0
M  V30 4934 C 473.825 1.00483 4.20151 0
M  V30 4935 C 472.96 0.333102 5.30155 0
M  V30 4936 C 471.999 1.3522 5.96977 0
M  V30 4937 N 471.136 0.70616 6.9854 0
M  V30 4938 H 475.976 1.49812 2.57605 0
M  V30 4939 H 473.513 0.749658 1.26564 0
M  V30 4940 H 475.471 -0.417548 4.15105 0
M  V30 4941 H 474.101 -0.877334 3.10649 0
M  V30 4942 H 473.153 1.51194 3.49062 0
M  V30 4943 H 474.465 1.77929 4.65986 0
M  V30 4944 H 473.619 -0.110725 6.06599 0
M  V30 4945 H 472.358 -0.473547 4.85396 0
M  V30 4946 H 471.363 1.80627 5.19282 0
M  V30 4947 H 472.588 2.16037 6.4382 0
M  V30 4948 H 470.534 -0.0803667 6.55951 0
M  V30 4949 H 470.451 1.41848 7.42573 0
M  V30 4950 H 471.719 0.286391 7.78974 0
M  V30 4951 N 475.948 -1.35272 0.808662 0
M  V30 4952 C 477.176 -2.02946 0.402537 0
M  V30 4953 C 477.591 -1.60937 -0.987147 0
M  V30 4954 O 476.948 -0.807917 -1.63643 0
M  V30 4955 C 476.999 -3.58317 0.47868 0
M  V30 4956 O 476.72 -3.98799 1.81358 0
M  V30 4957 C 478.221 -4.43251 0.0656281 0
M  V30 4958 H 475.441 -0.650831 0.163279 0
M  V30 4959 H 477.985 -1.72849 1.09286 0
M  V30 4960 H 476.14 -3.87055 -0.163415 0
M  V30 4961 H 476.554 -4.93451 1.77781 0
M  V30 4962 H 478.028 -5.51738 0.170017 0
M  V30 4963 H 478.505 -4.27913 -0.989278 0
M  V30 4964 H 479.111 -4.19813 0.68096 0
M  V30 4965 N 477.426 -0.562348 -1.47226 0
M  V30 4966 C 478.837 -0.130325 -1.86245 0
M  V30 4967 C 479.188 1.30128 -1.46838 0
M  V30 4968 O 478.313 1.97974 -0.873805 0
M  V30 4969 C 478.908 -0.229738 -3.3802 0
M  V30 4970 C 477.467 0.14728 -3.76112 0
M  V30 4971 C 476.614 -0.574971 -2.71274 0
M  V30 4972 H 479.565 -0.771773 -1.3867 0
M  V30 4973 H 479.586 0.550316 -3.76499 0
M  V30 4974 H 479.098 -1.27178 -3.66671 0
M  V30 4975 H 477.199 1.19023 -3.53078 0
M  V30 4976 H 477.312 -0.214858 -4.78618 0
M  V30 4977 H 475.676 -0.0174756 -2.54694 0
M  V30 4978 H 476.459 -1.61827 -3.02766 0
M  V30 4979 N 478.904 1.54736 -0.299062 0
M  V30 4980 C 479.851 2.23448 0.577899 0
M  V30 4981 C 480.821 1.21637 1.13109 0
M  V30 4982 O 482.006 1.50252 1.17597 0
M  V30 4983 C 479.146 2.9774 1.74484 0
M  V30 4984 C 478.259 4.1432 1.22323 0
M  V30 4985 C 477.394 4.76199 2.35388 0
M  V30 4986 C 476.433 5.84927 1.80351 0
M  V30 4987 N 475.57 6.4077 2.86982 0
M  V30 4988 H 480.41 2.97996 -0.0146545 0
M  V30 4989 H 477.947 1.47088 -0.0190013 0
M  V30 4990 H 479.905 3.39045 2.43114 0
M  V30 4991 H 478.535 2.25572 2.30905 0
M  V30 4992 H 477.587 3.7797 0.429249 0
M  V30 4993 H 478.899 4.92659 0.780309 0
M  V30 4994 H 478.053 5.20346 3.11969 0
M  V30 4995 H 476.792 3.97188 2.83006 0
M  V30 4996 H 475.797 5.40207 1.02259 0
M  V30 4997 H 477.022 6.65821 1.3364 0
M  V30 4998 H 474.968 5.64643 3.33938 0
M  V30 4999 H 474.885 7.1445 2.4718 0
M  V30 5000 H 476.153 6.89574 3.63466 0
M  V30 5001 N 480.382 0.0267497 1.57577 0
M  V30 5002 C 481.61 -0.662661 1.96001 0
M  V30 5003 C 482.025 -1.65799 0.903117 0
M  V30 5004 O 481.382 -1.82135 -0.115317 0
M  V30 5005 C 481.433 -1.37112 3.34488 0
M  V30 5006 O 481.154 -0.415683 4.36123 0
M  V30 5007 C 482.655 -2.15257 3.8753 0
M  V30 5008 H 479.875 -0.18287 0.6456 0
M  V30 5009 H 482.419 0.0858116 2.0432 0
M  V30 5010 H 480.574 -2.07101 3.27395 0
M  V30 5011 H 480.988 -0.918496 5.16395 0
M  V30 5012 H 482.462 -2.60285 4.86781 0
M  V30 5013 H 482.939 -2.99063 3.21649 0
M  V30 5014 H 483.545 -1.50231 3.97883 0
M  V30 5015 N 481.861 -1.55662 -0.24637 0
M  V30 5016 C 483.107 -1.78698 -0.971525 0
M  V30 5017 C 483.462 -0.59577 -1.82944 0
M  V30 5018 O 482.755 0.41097 -1.87141 0
M  V30 5019 C 482.949 -3.04885 -1.86494 0
M  V30 5020 C 482.778 -4.36165 -1.09501 0
M  V30 5021 C 481.548 -4.98929 -0.799895 0
M  V30 5022 C 483.746 -5.12126 -0.472334 0
M  V30 5023 N 481.728 -6.139 -0.00595299 0
M  V30 5024 C 483.099 -6.1972 0.18616 0
M  V30 5025 C 485.154 -4.96426 -0.382854 0
M  V30 5026 C 483.857 -7.13321 0.925542 0
M  V30 5027 C 485.883 -5.90405 0.342999 0
M  V30 5028 C 485.245 -6.97407 0.990128 0
M  V30 5029 H 481.344 -0.705852 -0.336597 0
M  V30 5030 H 483.928 -1.93157 -0.244615 0
M  V30 5031 H 482.099 -2.91753 -2.56388 0
M  V30 5032 H 483.831 -3.16212 -2.5257 0
M  V30 5033 H 480.586 -4.60365 -1.11181 0
M  V30 5034 H 481.01 -6.75938 0.379127 0
M  V30 5035 H 485.652 -4.13777 -0.868834 0
M  V30 5036 H 483.37 -7.9547 1.42312 0
M  V30 5037 H 486.956 -5.80333 0.412907 0
M  V30 5038 H 485.836 -7.68874 1.54282 0
M  V30 5039 N 483.339 0.512053 -1.4905 0
M  V30 5040 C 484.249 1.64139 -1.67617 0
M  V30 5041 C 485.265 1.64786 -0.558701 0
M  V30 5042 O 486.441 1.8341 -0.832034 0
M  V30 5043 C 483.506 3.00548 -1.72835 0
M  V30 5044 C 482.567 3.10615 -2.96339 0
M  V30 5045 C 481.8 4.40517 -3.01298 0
M  V30 5046 O 482.023 5.28671 -2.14157 0
M  V30 5047 O 480.957 4.55325 -3.93653 0
M  V30 5048 H 484.783 1.51407 -2.63267 0
M  V30 5049 H 482.368 0.687131 -1.32661 0
M  V30 5050 H 484.25 3.81641 -1.78683 0
M  V30 5051 H 482.925 3.13566 -0.803616 0
M  V30 5052 H 481.832 2.2875 -2.96014 0
M  V30 5053 H 483.165 3.0252 -3.88256 0
M  V30 5054 N 484.817 1.37938 0.762283 0
M  V30 5055 C 486.065 1.33404 1.51815 0
M  V30 5056 C 486.386 -0.0780975 1.94844 0
M  V30 5057 O 485.656 -1.02405 1.67003 0
M  V30 5058 H 484.236 0.490839 0.563104 0
M  V30 5059 H 486.898 1.72527 0.906669 0
M  V30 5060 H 485.994 1.97926 2.41313 0
M  V30 5061 N 486.295 -0.989507 1.22664 0
M  V30 5062 C 487.711 -1.25395 0.987331 0
M  V30 5063 C 487.911 -1.9899 -0.317056 0
M  V30 5064 O 486.967 -2.30141 -1.03882 0
M  V30 5065 C 488.28 -2.06242 2.18826 0
M  V30 5066 C 489.828 -2.19413 2.23219 0
M  V30 5067 C 490.303 -3.03648 3.42873 0
M  V30 5068 N 491.794 -3.11234 3.43056 0
M  V30 5069 C 492.529 -3.7671 4.32293 0
M  V30 5070 N 492.025 -4.44085 5.31752 0
M  V30 5071 N 493.818 -3.73505 4.2006 0
M  V30 5072 H 485.969 -0.496212 2.06522 0
M  V30 5073 H 488.232 -0.281784 0.905153 0
M  V30 5074 H 487.938 -1.59531 3.13437 0
M  V30 5075 H 487.812 -3.06996 2.19165 0
M  V30 5076 H 490.199 -2.65336 1.29154 0
M  V30 5077 H 490.28 -1.18078 2.26917 0
M  V30 5078 H 489.924 -2.58424 4.37241 0
M  V30 5079 H 489.854 -4.05132 3.36416 0
M  V30 5080 H 492.345 -2.63287 2.71088 0
M  V30 5081 H 492.658 -4.91797 5.96117 0
M  V30 5082 H 491.003 -4.42822 5.35662 0
M  V30 5083 H 494.194 -3.20033 3.41609 0
M  V30 5084 H 494.367 -4.24253 4.8981 0
M  V30 5085 N 487.773 -1.03688 -1.18687 0
M  V30 5086 C 488.703 -0.645407 -2.24403 0
M  V30 5087 C 489.684 0.349511 -1.66471 0
M  V30 5088 O 490.869 0.230453 -1.92828 0
M  V30 5089 C 487.999 -0.00365337 -3.473 0
M  V30 5090 C 486.953 -0.921705 -4.17958 0
M  V30 5091 C 486.279 -0.144629 -5.34504 0
M  V30 5092 C 487.579 -2.23909 -4.71871 0
M  V30 5093 H 489.273 -1.52917 -2.57404 0
M  V30 5094 H 486.819 -0.736711 -1.23728 0
M  V30 5095 H 488.772 0.281908 -4.20456 0
M  V30 5096 H 487.496 0.914963 -3.13522 0
M  V30 5097 H 486.155 -1.19159 -3.46694 0
M  V30 5098 H 485.803 0.776274 -4.96974 0
M  V30 5099 H 485.503 -0.756206 -5.82714 0
M  V30 5100 H 487.027 0.134004 -6.10453 0
M  V30 5101 H 488.441 -2.0145 -5.36741 0
M  V30 5102 H 486.838 -2.8033 -5.30599 0
M  V30 5103 H 487.908 -2.88822 -3.895 0
M  V30 5104 N 489.251 1.34841 -0.815825 0
M  V30 5105 C 490.5 1.97755 -0.396976 0
M  V30 5106 C 490.813 1.65422 1.04379 0
M  V30 5107 O 492.019 2.21771 1.5662 0
M  V30 5108 C 490.475 3.53818 -0.658869 0
M  V30 5109 C 490.083 3.95051 -2.11278 0
M  V30 5110 C 491.827 4.23397 -0.305834 0
M  V30 5111 C 489.734 5.43997 -2.31994 0
M  V30 5112 H 488.664 0.739985 -0.1447 0
M  V30 5113 H 491.315 1.53781 -1.00118 0
M  V30 5114 H 489.697 3.95997 0.0154112 0
M  V30 5115 H 490.871 3.63998 -2.82564 0
M  V30 5116 H 489.186 3.38388 -2.42657 0
M  V30 5117 H 491.783 5.32899 -0.43854 0
M  V30 5118 H 492.126 4.09508 0.748952 0
M  V30 5119 H 492.659 3.8667 -0.934403 0
M  V30 5120 H 489.398 5.62865 -3.35952 0
M  V30 5121 H 488.918 5.76589 -1.65244 0
M  V30 5122 H 490.597 6.10584 -2.14001 0
M  V30 5123 N 490.729 0.570148 1.46925 0
M  V30 5124 C 491.692 -0.159933 2.28641 0
M  V30 5125 C 492.692 -0.830638 1.37685 0
M  V30 5126 O 493.882 -0.684516 1.60187 0
M  V30 5127 C 491.014 -1.2354 3.17727 0
M  V30 5128 H 492.207 0.558035 2.94662 0
M  V30 5129 H 489.76 0.327603 1.52828 0
M  V30 5130 H 490.495 -1.98535 2.56426 0
M  V30 5131 H 490.28 -0.759125 3.84681 0
M  V30 5132 H 491.77 -1.74782 3.79264 0
M  V30 5133 N 492.207 -1.54576 0.307264 0
M  V30 5134 C 493.17 -2.22423 -0.553224 0
M  V30 5135 C 494.17 -1.21231 -1.05639 0
M  V30 5136 O 495.36 -1.45923 -0.951419 0
M  V30 5137 C 492.492 -2.91552 -1.76664 0
M  V30 5138 H 493.685 -2.99874 0.0396484 0
M  V30 5139 H 491.238 -1.56192 0.0581629 0
M  V30 5140 H 491.973 -2.18196 -2.39918 0
M  V30 5141 H 491.758 -3.65738 -1.41343 0
M  V30 5142 H 493.248 -3.43292 -2.37783 0
M  V30 5143 N 493.685 -0.035106 -1.57561 0
M  V30 5144 C 494.913 0.652258 -1.9635 0
M  V30 5145 C 495.328 1.65317 -0.911897 0
M  V30 5146 O 494.685 1.82194 0.105657 0
M  V30 5147 C 494.736 1.35337 -3.35211 0
M  V30 5148 O 494.457 0.392548 -4.36338 0
M  V30 5149 C 495.958 2.13199 -3.88666 0
M  V30 5150 H 493.178 0.179444 -0.646561 0
M  V30 5151 H 495.722 -0.0966459 -2.04271 0
M  V30 5152 H 493.877 2.05362 -3.28489 0
M  V30 5153 H 494.291 0.891097 -5.16875 0
M  V30 5154 H 495.765 2.577 -4.88154 0
M  V30 5155 H 496.242 2.97353 -3.23231 0
M  V30 5156 H 496.848 1.48118 -3.98674 0
M  V30 5157 N 495.163 1.55791 0.238111 0
M  V30 5158 C 496.41 1.78033 0.964907 0
M  V30 5159 C 496.738 0.600984 1.84982 0
M  V30 5160 O 495.993 -0.41536 1.91241 0
M  V30 5161 C 496.292 3.05869 1.84875 0
M  V30 5162 C 495.958 4.36808 1.11846 0
M  V30 5163 C 494.62 4.72388 0.916662 0
M  V30 5164 C 496.972 5.17717 0.60151 0
M  V30 5165 C 494.3 5.86406 0.185756 0
M  V30 5166 C 496.652 6.32494 -0.115972 0
M  V30 5167 C 495.316 6.66688 -0.329168 0
M  V30 5168 H 494.586 0.651469 0.353085 0
M  V30 5169 H 497.233 1.90061 0.234318 0
M  V30 5170 H 495.538 2.88891 2.64668 0
M  V30 5171 H 497.235 3.20278 2.41294 0
M  V30 5172 H 493.825 4.08862 1.28569 0
M  V30 5173 H 498.009 4.90678 0.744932 0
M  V30 5174 H 493.265 6.11399 0.0101886 0
M  V30 5175 H 497.439 6.94425 -0.524127 0
M  V30 5176 H 495.066 7.54884 -0.897474 0
M  V30 5177 N 496.642 -0.504142 1.49319 0
M  V30 5178 C 497.867 -1.28729 1.62615 0
M  V30 5179 C 498.292 -1.85752 0.296309 0
M  V30 5180 O 497.65 -1.65704 -0.735649 0
M  V30 5181 C 497.698 -2.39561 2.69524 0
M  V30 5182 O 496.802 -3.43324 2.28478 0
M  V30 5183 H 496.143 -0.380172 0.544395 0
M  V30 5184 H 498.673 -0.603872 1.95485 0
M  V30 5185 H 498.683 -2.8537 2.91595 0
M  V30 5186 H 497.358 -1.97423 3.66056 0
M  V30 5187 H 495.935 -3.03455 2.16725 0
M  V30 5188 N 498.12 -1.38341 -0.754957 0
M  V30 5189 C 499.05 -1.38176 -1.88227 0
M  V30 5190 C 500.031 -0.247873 -1.68284 0
M  V30 5191 O 501.216 -0.45075 -1.88896 0
M  V30 5192 C 498.346 -1.20471 -3.25736 0
M  V30 5193 C 497.3 -2.3105 -3.60278 0
M  V30 5194 C 496.626 -1.98452 -4.96509 0
M  V30 5195 C 497.926 -3.73305 -3.65295 0
M  V30 5196 H 499.62 -2.32512 -1.88622 0
M  V30 5197 H 497.166 -1.1192 -0.906082 0
M  V30 5198 H 499.119 -1.18982 -4.04254 0
M  V30 5199 H 497.843 -0.225965 -3.25817 0
M  V30 5200 H 496.502 -2.31723 -2.84078 0
M  V30 5201 H 496.15 -0.990641 -4.93148 0
M  V30 5202 H 495.85 -2.7251 -5.20588 0
M  V30 5203 H 497.374 -1.98578 -5.77407 0
M  V30 5204 H 498.788 -3.7467 -4.3393 0
M  V30 5205 H 497.185 -4.46557 -4.00883 0
M  V30 5206 H 498.255 -4.05719 -2.65556 0
M  V30 5207 N 499.598 0.982988 -1.23187 0
M  V30 5208 C 500.847 1.71817 -1.05649 0
M  V30 5209 C 501.16 1.91315 0.407176 0
M  V30 5210 O 502.366 2.62256 0.702436 0
M  V30 5211 C 500.822 3.09188 -1.84203 0
M  V30 5212 C 500.43 2.97586 -3.34882 0
M  V30 5213 C 502.174 3.86684 -1.75146 0
M  V30 5214 C 500.081 4.30173 -4.05839 0
M  V30 5215 H 499.011 0.644258 -0.391724 0
M  V30 5216 H 501.662 1.09659 -1.4713 0
M  V30 5217 H 500.044 3.72087 -1.35527 0
M  V30 5218 H 501.218 2.43793 -3.91026 0
M  V30 5219 H 499.533 2.33567 -3.44725 0
M  V30 5220 H 502.13 4.84836 -2.25473 0
M  V30 5221 H 502.473 4.10136 -0.713737 0
M  V30 5222 H 503.006 3.30482 -2.21419 0
M  V30 5223 H 499.745 4.11918 -5.09906 0
M  V30 5224 H 499.265 4.83841 -3.54482 0
M  V30 5225 H 500.944 4.98873 -4.11989 0
M  V30 5226 N 501.076 1.04316 1.18135 0
M  V30 5227 C 502.324 0.746542 1.87806 0
M  V30 5228 C 502.645 -0.728082 1.80898 0
M  V30 5229 O 501.915 -1.52554 1.22899 0
M  V30 5230 H 500.495 0.273157 0.695265 0
M  V30 5231 H 503.157 1.32044 1.43354 0
M  V30 5232 H 502.253 1.05362 2.93778 0
M  V30 5233 N 502.554 -1.34406 0.822964 0
M  V30 5234 C 503.8 -1.98578 0.411666 0
M  V30 5235 C 504.133 -1.65093 -1.02264 0
M  V30 5236 O 503.408 -0.92258 -1.71227 0
M  V30 5237 C 503.691 -3.54823 0.614235 0
M  V30 5238 C 503.544 -3.9805 2.09466 0
M  V30 5239 C 504.863 -4.40071 0.050221 0
M  V30 5240 H 501.982 -0.721355 0.151047 0
M  V30 5241 H 504.624 -1.59301 1.03554 0
M  V30 5242 H 502.774 -3.88411 0.0831774 0
M  V30 5243 H 504.446 -3.74795 2.68936 0
M  V30 5244 H 502.689 -3.4836 2.5851 0
M  V30 5245 H 503.36 -5.06819 2.18721 0
M  V30 5246 H 505.836 -4.13037 0.503953 0
M  V30 5247 H 504.712 -5.48452 0.221759 0
M  V30 5248 H 504.973 -4.29576 -1.04482 0
M  V30 5249 N 504.032 -0.577932 -1.46621 0
M  V30 5250 C 505.257 -0.0652536 -2.07297 0
M  V30 5251 C 505.682 1.22828 -1.4246 0
M  V30 5252 O 505.04 1.74075 -0.506718 0
M  V30 5253 C 505.088 0.0920589 -3.60482 0
M  V30 5254 O 504.192 1.14972 -3.96049 0
M  V30 5255 H 503.533 -0.06065 -0.661224 0
M  V30 5256 H 506.063 -0.799515 -1.88332 0
M  V30 5257 H 506.073 0.299741 -4.06897 0
M  V30 5258 H 504.748 -0.852612 -4.07067 0
M  V30 5259 H 503.325 0.920879 -3.61351 0
M  V30 5260 N 505.51 1.54411 -0.315457 0
M  V30 5261 C 506.757 2.00419 0.289543 0
M  V30 5262 C 507.085 1.20373 1.52776 0
M  V30 5263 O 506.34 0.271769 1.93804 0
M  V30 5264 C 506.639 3.50936 0.676652 0
M  V30 5265 C 506.305 4.48532 -0.461472 0
M  V30 5266 C 504.967 4.74936 -0.773879 0
M  V30 5267 C 507.319 5.06567 -1.22637 0
M  V30 5268 C 504.647 5.56634 -1.85405 0
M  V30 5269 C 506.999 5.89441 -2.29657 0
M  V30 5270 C 505.663 6.1415 -2.61488 0
M  V30 5271 H 504.933 0.733386 0.105951 0
M  V30 5272 H 507.58 1.86434 -0.437554 0
M  V30 5273 H 505.885 3.62606 1.48405 0
M  V30 5274 H 507.582 3.83971 1.15618 0
M  V30 5275 H 504.172 4.28096 -0.207893 0
M  V30 5276 H 508.356 4.86157 -0.998271 0
M  V30 5277 H 503.612 5.74012 -2.10523 0
M  V30 5278 H 507.786 6.33432 -2.89374 0
M  V30 5279 H 505.413 6.77245 -3.45317 0
M  V30 5280 N 506.988 0.0434614 1.5754 0
M  V30 5281 C 508.235 -0.632035 1.92384 0
M  V30 5282 C 508.563 -1.71304 0.921157 0
M  V30 5283 O 507.818 -1.95583 -0.067744 0
M  V30 5284 C 508.117 -1.2738 3.3393 0
M  V30 5285 C 507.783 -0.321757 4.49751 0
M  V30 5286 C 506.445 -0.0597611 4.81163 0
M  V30 5287 C 508.797 0.331158 5.20147 0
M  V30 5288 C 506.125 0.862715 5.80322 0
M  V30 5289 C 508.477 1.24178 6.20292 0
M  V30 5290 C 507.141 1.51252 6.50138 0
M  V30 5291 H 506.411 -0.231278 0.703983 0
M  V30 5292 H 509.058 0.108294 1.91194 0
M  V30 5293 H 507.363 -2.08921 3.3145 0
M  V30 5294 H 509.06 -1.80326 3.58167 0
M  V30 5295 H 505.65 -0.53614 4.25233 0
M  V30 5296 H 509.834 0.141826 4.96097 0
M  V30 5297 H 505.09 1.08003 6.01785 0
M  V30 5298 H 509.264 1.75381 6.73954 0
M  V30 5299 H 506.891 2.22897 7.26788 0
M  V30 5300 N 508.466 -1.55915 -0.229846 0
M  V30 5301 C 509.429 -1.90914 -1.26824 0
M  V30 5302 C 510.429 -0.786999 -1.40225 0
M  V30 5303 O 511.619 -1.05484 -1.38632 0
M  V30 5304 C 508.751 -2.15264 -2.64337 0
M  V30 5305 H 509.944 -2.8378 -0.969998 0
M  V30 5306 H 507.497 -1.49069 -0.4699 0
M  V30 5307 H 508.232 -1.24923 -2.99274 0
M  V30 5308 H 508.017 -2.97005 -2.55989 0
M  V30 5309 H 509.507 -2.43467 -3.39284 0
M  V30 5310 N 509.944 0.496216 -1.49584 0
M  V30 5311 C 510.874 1.60576 -1.69521 0
M  V30 5312 C 511.855 1.61169 -0.543933 0
M  V30 5313 O 513.04 1.77834 -0.78031 0
M  V30 5314 C 510.17 2.99038 -1.76616 0
M  V30 5315 C 509.124 3.13312 -2.91581 0
M  V30 5316 C 508.45 4.53172 -2.83794 0
M  V30 5317 C 509.75 2.92886 -4.32452 0
M  V30 5318 H 511.444 1.44146 -2.62416 0
M  V30 5319 H 508.99 0.692024 -1.26282 0
M  V30 5320 H 510.943 3.76564 -1.8915 0
M  V30 5321 H 509.667 3.16568 -0.80324 0
M  V30 5322 H 508.326 2.38213 -2.78658 0
M  V30 5323 H 507.974 4.67585 -1.854 0
M  V30 5324 H 507.674 4.63662 -3.60958 0
M  V30 5325 H 509.198 5.32752 -2.98342 0
M  V30 5326 H 510.612 3.60178 -4.46032 0
M  V30 5327 H 509.009 3.14844 -5.10875 0
M  V30 5328 H 510.079 1.88966 -4.46565 0
M  V30 5329 N 511.423 1.38739 0.74761 0
M  V30 5330 C 512.834 1.31507 1.32524 0
M  V30 5331 C 513.185 -0.0263963 1.96182 0
M  V30 5332 O 512.31 -0.92849 1.95469 0
M  V30 5333 C 512.905 2.38162 2.40966 0
M  V30 5334 C 511.464 2.34489 2.94434 0
M  V30 5335 C 510.611 2.20712 1.67873 0
M  V30 5336 H 513.562 1.4901 0.546043 0
M  V30 5337 H 513.583 2.04222 3.21051 0
M  V30 5338 H 513.095 3.35783 1.94605 0
M  V30 5339 H 511.196 1.40467 3.45108 0
M  V30 5340 H 511.309 3.28861 3.48407 0
M  V30 5341 H 509.673 1.67667 1.91729 0
M  V30 5342 H 510.456 3.20285 1.23582 0
M  V30 5343 N 512.901 -0.976442 1.23707 0
M  V30 5344 C 513.864 -2.0511 1.02287 0
M  V30 5345 C 514.864 -1.60791 -0.0167195 0
M  V30 5346 O 516.054 -1.72761 0.223408 0
M  V30 5347 C 513.186 -3.36458 0.548507 0
M  V30 5348 H 514.379 -2.25545 1.9766 0
M  V30 5349 H 511.932 -1.15042 1.05806 0
M  V30 5350 H 512.667 -3.21713 -0.408818 0
M  V30 5351 H 512.452 -3.69967 1.29874 0
M  V30 5352 H 513.942 -4.15489 0.419406 0
M  V30 5353 N 514.379 -1.04941 -1.1758 0
M  V30 5354 C 515.627 -0.756492 -1.87408 0
M  V30 5355 C 515.948 0.718478 -1.81281 0
M  V30 5356 O 515.218 1.519 -1.23706 0
M  V30 5357 H 513.798 -0.276841 -0.693807 0
M  V30 5358 H 516.46 -1.32803 -1.42652 0
M  V30 5359 H 515.556 -1.06918 -2.93215 0
M  V30 5360 N 515.857 1.33968 -0.830081 0
M  V30 5361 C 517.106 1.97323 -0.417928 0
M  V30 5362 C 517.419 1.6652 1.02618 0
M  V30 5363 O 518.625 2.2342 1.54259 0
M  V30 5364 C 517.081 3.53099 -0.696359 0
M  V30 5365 C 516.689 3.92788 -2.15457 0
M  V30 5366 C 518.433 4.23049 -0.350724 0
M  V30 5367 C 516.34 5.41506 -2.37751 0
M  V30 5368 H 515.27 0.738409 -0.152541 0
M  V30 5369 H 517.921 1.52711 -1.01744 0
M  V30 5370 H 516.303 3.95991 -0.0265904 0
M  V30 5371 H 517.477 3.6098 -2.86408 0
M  V30 5372 H 515.792 3.35795 -2.46232 0
M  V30 5373 H 518.389 5.32403 -0.495036 0
M  V30 5374 H 518.732 4.10279 0.705476 0
M  V30 5375 H 519.265 3.85657 -0.975362 0
M  V30 5376 H 516.004 5.5927 -3.41903 0
M  V30 5377 H 515.524 5.74804 -1.7135 0
M  V30 5378 H 517.203 6.0828 -2.20465 0
M  V30 5379 N 517.335 0.585699 1.46312 0
M  V30 5380 C 518.265 -0.133556 2.33118 0
M  V30 5381 C 519.246 -0.880707 1.45525 0
M  V30 5382 O 520.431 -0.855579 1.74337 0
M  V30 5383 C 517.561 -1.14585 3.27853 0
M  V30 5384 C 516.515 -0.513341 4.2491 0
M  V30 5385 C 515.841 -1.63231 5.09175 0
M  V30 5386 C 517.141 0.551413 5.19381 0
M  V30 5387 H 518.835 0.59121 2.93505 0
M  V30 5388 H 516.381 0.285761 1.41136 0
M  V30 5389 H 518.334 -1.65741 3.87438 0
M  V30 5390 H 517.058 -1.90093 2.65579 0
M  V30 5391 H 515.717 -0.0228349 3.66593 0
M  V30 5392 H 515.365 -2.37713 4.43285 0
M  V30 5393 H 515.065 -1.21473 5.74907 0
M  V30 5394 H 516.589 -2.14658 5.71624 0
M  V30 5395 H 518.003 0.124804 5.73164 0
M  V30 5396 H 516.4 0.889486 5.93471 0
M  V30 5397 H 517.47 1.43655 4.63132 0
M  V30 5398 N 518.813 -1.54241 0.323641 0
M  V30 5399 C 520.061 -2.00174 -0.278359 0
M  V30 5400 C 520.382 -1.2134 -1.52648 0
M  V30 5401 O 519.652 -0.315244 -1.93347 0
M  V30 5402 H 518.232 -0.739463 -0.105845 0
M  V30 5403 H 520.894 -1.89864 0.440204 0
M  V30 5404 H 519.99 -3.07486 -0.5347 0
M  V30 5405 N 520.291 -0.0518155 -1.57515 0
M  V30 5406 C 521.516 0.634896 -1.97443 0
M  V30 5407 C 521.941 1.63546 -0.929207 0
M  V30 5408 O 521.299 1.80981 0.107484 0
M  V30 5409 C 521.347 1.29765 -3.36442 0
M  V30 5410 O 520.451 2.41333 -3.34413 0
M  V30 5411 H 519.792 0.164994 -0.643174 0
M  V30 5412 H 522.322 -0.120407 -2.04245 0
M  V30 5413 H 522.332 1.64918 -3.73184 0
M  V30 5414 H 521.007 0.564361 -4.12053 0
M  V30 5415 H 519.584 2.08122 -3.09418 0
M  V30 5416 N 521.769 1.56035 0.221574 0
M  V30 5417 C 523.017 1.78693 0.944102 0
M  V30 5418 C 523.338 0.620317 1.8487 0
M  V30 5419 O 522.608 -0.362784 1.92512 0
M  V30 5420 H 521.188 0.659082 0.351597 0
M  V30 5421 H 523.85 1.93497 0.233435 0
M  V30 5422 H 522.946 2.70837 1.55093 0
M  V30 5423 N 523.247 -0.488276 1.49845 0
M  V30 5424 C 524.177 -1.59675 1.70371 0
M  V30 5425 C 525.158 -1.60878 0.552473 0
M  V30 5426 O 526.343 -1.77417 0.78973 0
M  V30 5427 C 523.473 -2.98098 1.782 0
M  V30 5428 C 522.427 -3.11761 2.93239 0
M  V30 5429 C 521.753 -4.51661 2.86193 0
M  V30 5430 C 523.053 -2.90589 4.33999 0
M  V30 5431 H 524.747 -1.42752 2.63177 0
M  V30 5432 H 522.293 -0.685317 1.26647 0
M  V30 5433 H 524.246 -3.75555 1.91144 0
M  V30 5434 H 522.97 -3.16138 0.820018 0
M  V30 5435 H 521.629 -2.36732 2.79917 0
M  V30 5436 H 521.277 -4.66595 1.87877 0
M  V30 5437 H 520.977 -4.61742 3.63412 0
M  V30 5438 H 522.501 -5.31162 3.01163 0
M  V30 5439 H 523.915 -3.57807 4.47936 0
M  V30 5440 H 522.312 -3.1213 5.12538 0
M  V30 5441 H 523.382 -1.86595 4.4756 0
M  V30 5442 N 524.725 -1.39134 -0.740242 0
M  V30 5443 C 525.688 -1.37217 -1.83587 0
M  V30 5444 C 526.688 -0.270221 -1.58513 0
M  V30 5445 O 527.878 -0.527843 -1.6601 0
M  V30 5446 C 525.01 -1.13959 -3.21288 0
M  V30 5447 H 526.203 -2.34705 -1.86691 0
M  V30 5448 H 523.756 -1.24622 -0.94335 0
M  V30 5449 H 524.491 -0.17131 -3.23847 0
M  V30 5450 H 524.276 -1.93754 -3.40884 0
M  V30 5451 H 525.766 -1.15346 -4.01354 0
M  V30 5452 N 526.204 0.969867 -1.24223 0
M  V30 5453 C 527.134 2.08191 -1.05729 0
M  V30 5454 C 528.115 1.70075 0.0290765 0
M  V30 5455 O 529.3 1.93712 -0.137583 0
M  V30 5456 C 526.43 3.40991 -0.658995 0
M  V30 5457 C 525.384 3.93054 -1.69389 0
M  V30 5458 C 524.71 5.22171 -1.15072 0
M  V30 5459 C 526.01 4.21137 -3.08935 0
M  V30 5460 H 527.704 2.23921 -1.98746 0
M  V30 5461 H 525.25 1.07602 -0.956967 0
M  V30 5462 H 527.203 4.18221 -0.51662 0
M  V30 5463 H 525.927 3.25155 0.30686 0
M  V30 5464 H 524.586 3.17977 -1.82444 0
M  V30 5465 H 524.234 5.02694 -0.175539 0
M  V30 5466 H 523.934 5.57973 -1.84229 0
M  V30 5467 H 525.458 6.02013 -1.02042 0
M  V30 5468 H 526.872 4.8908 -2.99121 0
M  V30 5469 H 525.269 4.68163 -3.75425 0
M  V30 5470 H 526.339 3.27996 -3.57137 0
M  V30 5471 N 527.682 1.05563 1.17022 0
M  V30 5472 C 528.629 0.659893 2.21165 0
M  V30 5473 C 529.599 -0.339813 1.62587 0
M  V30 5474 O 530.784 -0.230378 1.89404 0
M  V30 5475 C 527.924 0.0447297 3.45071 0
M  V30 5476 C 527.037 1.09372 4.17926 0
M  V30 5477 C 526.172 0.445481 5.29329 0
M  V30 5478 C 525.211 1.47852 5.93975 0
M  V30 5479 N 524.348 0.854172 6.96885 0
M  V30 5480 H 529.188 1.55243 2.54369 0
M  V30 5481 H 526.725 0.776336 1.24946 0
M  V30 5482 H 528.683 -0.329404 4.15898 0
M  V30 5483 H 527.313 -0.811244 3.1244 0
M  V30 5484 H 526.365 1.58564 3.45777 0
M  V30 5485 H 527.677 1.87773 4.62107 0
M  V30 5486 H 526.831 0.0179688 6.06697 0
M  V30 5487 H 525.57 -0.370481 4.86291 0
M  V30 5488 H 524.575 1.91601 5.15334 0
M  V30 5489 H 525.8 2.29645 6.39093 0
M  V30 5490 H 523.746 0.0587882 6.55974 0
M  V30 5491 H 523.663 1.57567 7.39397 0
M  V30 5492 H 524.931 0.451559 7.78191 0
M  V30 5493 N 529.16 -1.33526 0.837174 0
M  V30 5494 C 530.406 -1.9813 0.432704 0
M  V30 5495 C 530.739 -1.66168 -1.00508 0
M  V30 5496 O 530.014 -0.94069 -1.70239 0
M  V30 5497 C 530.297 -3.54151 0.651834 0
M  V30 5498 C 530.15 -3.95806 2.13676 0
M  V30 5499 C 531.469 -4.39993 0.0968937 0
M  V30 5500 H 528.588 -0.719713 0.15869 0
M  V30 5501 H 531.23 -1.58193 1.05237 0
M  V30 5502 H 529.38 -3.88301 0.124369 0
M  V30 5503 H 531.052 -3.71921 2.72896 0
M  V30 5504 H 529.295 -3.45599 2.62191 0
M  V30 5505 H 529.966 -5.0447 2.24084 0
M  V30 5506 H 532.442 -4.12479 0.547733 0
M  V30 5507 H 531.318 -5.48186 0.279917 0
M  V30 5508 H 531.579 -4.3066 -0.9992 0
M  V30 5509 N 530.638 -0.59345 -1.46 0
M  V30 5510 C 531.57 0.171569 -2.28557 0
M  V30 5511 C 532.583 0.845273 -1.39137 0
M  V30 5512 O 533.772 0.713033 -1.6364 0
M  V30 5513 C 530.872 1.26311 -3.14482 0
M  V30 5514 C 530.045 0.679258 -4.32094 0
M  V30 5515 C 529.104 1.65987 -4.99334 0
M  V30 5516 O 528.13 1.19171 -5.56585 0
M  V30 5517 N 529.332 2.99414 -4.97324 0
M  V30 5518 H 532.097 -0.536771 -2.94854 0
M  V30 5519 H 529.658 -0.431954 -1.56031 0
M  V30 5520 H 531.65 1.91863 -3.5633 0
M  V30 5521 H 530.22 1.87416 -2.50188 0
M  V30 5522 H 529.44 -0.153992 -3.93899 0
M  V30 5523 H 530.728 0.26916 -5.08088 0
M  V30 5524 H 530.126 3.40064 -4.52076 0
M  V30 5525 H 528.683 3.60426 -5.4308 0
M  V30 5526 N 532.116 1.54067 -0.331816 0
M  V30 5527 C 533.026 2.28322 0.539104 0
M  V30 5528 C 534.042 1.32985 1.1221 0
M  V30 5529 O 535.218 1.6601 1.1403 0
M  V30 5530 C 532.283 3.03277 1.68 0
M  V30 5531 C 531.344 4.14216 1.12798 0
M  V30 5532 C 530.577 4.85588 2.2145 0
M  V30 5533 O 530.8 4.56536 3.41952 0
M  V30 5534 O 529.734 5.72309 1.86404 0
M  V30 5535 H 533.56 3.03632 -0.0641692 0
M  V30 5536 H 531.145 1.49083 -0.0972365 0
M  V30 5537 H 533.027 3.50189 2.34405 0
M  V30 5538 H 531.702 2.30834 2.2693 0
M  V30 5539 H 530.609 3.71635 0.428782 0
M  V30 5540 H 531.942 4.88727 0.583698 0
M  V30 5541 N 533.594 0.0601682 1.57485 0
M  V30 5542 C 534.526 -0.94047 2.09016 0
M  V30 5543 C 535.539 -1.26897 1.01985 0
M  V30 5544 O 536.728 -1.22819 1.29529 0
M  V30 5545 C 533.828 -2.25955 2.52582 0
M  V30 5546 C 533.001 -2.11163 3.83052 0
M  V30 5547 C 532.06 -3.26273 4.12835 0
M  V30 5548 O 531.086 -3.01779 4.82616 0
M  V30 5549 N 532.288 -4.51022 3.65458 0
M  V30 5550 H 535.053 -0.500578 2.9549 0
M  V30 5551 H 532.614 -0.125852 1.6141 0
M  V30 5552 H 534.606 -3.01846 2.69575 0
M  V30 5553 H 533.176 -2.61481 1.71308 0
M  V30 5554 H 532.396 -1.19808 3.75552 0
M  V30 5555 H 533.684 -1.98517 4.68475 0
M  V30 5556 H 533.082 -4.73811 3.09062 0
M  V30 5557 H 531.639 -5.23978 3.87673 0
M  V30 5558 N 535.072 -1.5615 -0.213296 0
M  V30 5559 C 536.022 -1.89485 -1.26804 0
M  V30 5560 C 537.006 -0.758713 -1.41889 0
M  V30 5561 O 538.198 -1.02127 -1.44565 0
M  V30 5562 C 535.327 -2.22219 -2.61675 0
M  V30 5563 C 534.413 -3.42245 -2.50458 0
M  V30 5564 N 534.804 -4.60645 -2.089 0
M  V30 5565 C 533.102 -3.46023 -2.81397 0
M  V30 5566 C 533.803 -5.42805 -2.09135 0
M  V30 5567 N 532.779 -4.82732 -2.49941 0
M  V30 5568 H 536.581 -2.78537 -0.937771 0
M  V30 5569 H 534.095 -1.56826 -0.421824 0
M  V30 5570 H 536.092 -2.44278 -3.37837 0
M  V30 5571 H 534.752 -1.34484 -2.95541 0
M  V30 5572 H 535.763 -4.85651 -1.79899 0
M  V30 5573 H 532.44 -2.68654 -3.1958 0
M  V30 5574 H 533.83 -6.47601 -1.79059 0
M  V30 5575 N 536.55 0.480323 -1.50102 0
M  V30 5576 C 537.966 0.813295 -1.37323 0
M  V30 5577 C 538.166 1.97027 -0.422206 0
M  V30 5578 O 537.222 2.5212 0.138563 0
M  V30 5579 C 538.535 1.13404 -2.78496 0
M  V30 5580 C 540.083 1.24104 -2.87345 0
M  V30 5581 C 540.558 1.59497 -4.29331 0
M  V30 5582 N 542.049 1.66507 -4.32238 0
M  V30 5583 C 542.784 1.95378 -5.39087 0
M  V30 5584 N 542.28 2.22333 -6.56155 0
M  V30 5585 N 544.073 1.96803 -5.26522 0
M  V30 5586 H 536.224 -0.282291 -2.10516 0
M  V30 5587 H 538.487 -0.063752 -0.945854 0
M  V30 5588 H 538.193 0.357064 -3.49883 0
M  V30 5589 H 538.067 2.07251 -3.15162 0
M  V30 5590 H 540.454 2.00871 -2.16183 0
M  V30 5591 H 540.535 0.282593 -2.54234 0
M  V30 5592 H 540.179 0.832736 -5.01027 0
M  V30 5593 H 540.109 2.56477 -4.59921 0
M  V30 5594 H 542.6 1.47753 -3.47818 0
M  V30 5595 H 542.913 2.43611 -7.33399 0
M  V30 5596 H 541.258 2.19745 -6.59346 0
M  V30 5597 H 544.449 1.75235 -4.34062 0
M  V30 5598 H 544.622 2.18969 -6.09883 0
M  V30 5599 N 538.028 1.39524 0.732853 0
M  V30 5600 C 538.96 1.34318 1.85718 0
M  V30 5601 C 539.973 0.251576 1.60844 0
M  V30 5602 O 541.162 0.510685 1.71039 0
M  V30 5603 C 538.262 1.06334 3.21786 0
M  V30 5604 C 537.435 2.26813 3.73998 0
M  V30 5605 C 536.494 1.95253 4.88634 0
M  V30 5606 O 535.52 2.67957 5.02183 0
M  V30 5607 N 536.722 0.919984 5.73164 0
M  V30 5608 H 539.487 2.3121 1.90688 0
M  V30 5609 H 537.048 1.33654 0.91368 0
M  V30 5610 H 539.04 0.832363 3.96048 0
M  V30 5611 H 537.61 0.181682 3.12072 0
M  V30 5612 H 536.83 2.65849 2.91064 0
M  V30 5613 H 538.118 3.0717 4.05616 0
M  V30 5614 H 537.516 0.317487 5.64808 0
M  V30 5615 H 536.073 0.748905 6.47483 0
M  V30 5616 N 539.506 -0.963266 1.24736 0
M  V30 5617 C 540.453 -2.05857 1.04363 0
M  V30 5618 C 541.423 -1.6604 -0.0444951 0
M  V30 5619 O 542.608 -1.90477 0.110999 0
M  V30 5620 C 539.748 -3.38745 0.659235 0
M  V30 5621 C 538.861 -3.9173 1.82131 0
M  V30 5622 C 537.996 -5.12906 1.38208 0
M  V30 5623 C 537.035 -5.58098 2.51382 0
M  V30 5624 N 536.172 -6.7049 2.08295 0
M  V30 5625 H 541.012 -2.22616 1.98107 0
M  V30 5626 H 538.549 -1.09103 0.986661 0
M  V30 5627 H 540.507 -4.15107 0.417371 0
M  V30 5628 H 539.137 -3.21898 -0.241201 0
M  V30 5629 H 538.189 -3.11966 2.17672 0
M  V30 5630 H 539.501 -4.21225 2.67153 0
M  V30 5631 H 538.655 -5.96657 1.09935 0
M  V30 5632 H 537.394 -4.85105 0.502456 0
M  V30 5633 H 536.399 -4.72917 2.80409 0
M  V30 5634 H 537.624 -5.87911 3.39909 0
M  V30 5635 H 535.57 -6.44416 1.22737 0
M  V30 5636 H 535.487 -6.99458 2.86869 0
M  V30 5637 H 536.755 -7.57672 1.83175 0
M  V30 5638 N 540.985 -1.06182 -1.16461 0
M  V30 5639 C 541.935 -0.641619 -2.18786 0
M  V30 5640 C 542.919 0.327122 -1.5754 0
M  V30 5641 O 544.111 0.142746 -1.76423 0
M  V30 5642 C 541.24 -0.0283734 -3.43288 0
M  V30 5643 C 540.326 -1.02154 -4.11613 0
M  V30 5644 N 540.717 -2.19671 -4.55608 0
M  V30 5645 C 539.015 -0.852229 -4.37782 0
M  V30 5646 C 539.716 -2.82583 -5.0845 0
M  V30 5647 N 538.692 -2.10318 -5.01266 0
M  V30 5648 H 542.494 -1.53684 -2.50516 0
M  V30 5649 H 540.008 -0.933349 -1.329 0
M  V30 5650 H 542.005 0.29049 -4.15887 0
M  V30 5651 H 540.665 0.862118 -3.13046 0
M  V30 5652 H 541.676 -2.57453 -4.49375 0
M  V30 5653 H 538.353 -0.0136314 -4.17498 0
M  V30 5654 H 539.743 -3.82298 -5.52538 0
M  V30 5655 N 542.463 1.3308 -0.844243 0
M  V30 5656 C 543.71 1.97605 -0.44255 0
M  V30 5657 C 544.038 1.66856 0.999458 0
M  V30 5658 O 543.293 0.943586 1.7145 0
M  V30 5659 C 543.592 3.52045 -0.616354 0
M  V30 5660 C 543.258 4.02757 -2.02726 0
M  V30 5661 C 541.92 4.16316 -2.41317 0
M  V30 5662 C 544.272 4.29776 -2.9486 0
M  V30 5663 C 541.6 4.54232 -3.71335 0
M  V30 5664 C 543.952 4.69146 -4.24364 0
M  V30 5665 C 542.616 4.80911 -4.62904 0
M  V30 5666 H 541.886 0.723088 -0.161941 0
M  V30 5667 H 544.533 1.58663 -1.0723 0
M  V30 5668 H 542.838 3.91681 0.0966812 0
M  V30 5669 H 544.535 3.99981 -0.285756 0
M  V30 5670 H 541.125 3.9268 -1.71756 0
M  V30 5671 H 545.309 4.18818 -2.6628 0
M  V30 5672 H 540.565 4.61535 -4.00993 0
M  V30 5673 H 544.739 4.89008 -4.95827 0
M  V30 5674 H 542.366 5.10048 -5.63698 0
M  V30 5675 N 543.941 0.601185 1.45683 0
M  V30 5676 C 544.851 -0.123395 2.34275 0
M  V30 5677 C 545.867 -0.86702 1.5086 0
M  V30 5678 O 547.043 -0.826049 1.8368 0
M  V30 5679 C 544.108 -1.11237 3.2837 0
M  V30 5680 C 543.169 -0.371405 4.2769 0
M  V30 5681 C 542.402 -1.31327 5.1729 0
M  V30 5682 O 542.625 -2.55078 5.10188 0
M  V30 5683 O 541.559 -0.813811 5.96373 0
M  V30 5684 H 545.385 0.604483 2.97623 0
M  V30 5685 H 542.97 0.361477 1.44961 0
M  V30 5686 H 544.852 -1.68214 3.8637 0
M  V30 5687 H 543.527 -1.82139 2.67595 0
M  V30 5688 H 542.434 0.24067 3.73325 0
M  V30 5689 H 543.767 0.296998 4.91303 0
M  V30 5690 N 545.419 -1.53889 0.339982 0
M  V30 5691 C 546.366 -2.24902 -0.518452 0
M  V30 5692 C 547.336 -1.24593 -1.09844 0
M  V30 5693 O 548.521 -1.53317 -1.13572 0
M  V30 5694 C 545.661 -3.02262 -1.66529 0
M  V30 5695 C 544.774 -4.17418 -1.11295 0
M  V30 5696 C 543.909 -4.82273 -2.2268 0
M  V30 5697 C 542.948 -5.89503 -1.6478 0
M  V30 5698 N 542.085 -6.48153 -2.69893 0
M  V30 5699 H 546.925 -2.97853 0.0936579 0
M  V30 5700 H 544.462 -1.46986 0.0579924 0
M  V30 5701 H 546.42 -3.45371 -2.3404 0
M  V30 5702 H 545.05 -2.31614 -2.24844 0
M  V30 5703 H 544.102 -3.78976 -0.328886 0
M  V30 5704 H 545.414 -4.94554 -0.649414 0
M  V30 5705 H 544.568 -5.28435 -2.98063 0
M  V30 5706 H 543.307 -4.04552 -2.72376 0
M  V30 5707 H 542.312 -5.42728 -0.879004 0
M  V30 5708 H 543.537 -6.6913 -1.1594 0
M  V30 5709 H 541.483 -5.73298 -3.1885 0
M  V30 5710 H 541.4 -7.20752 -2.28151 0
M  V30 5711 H 542.668 -6.98968 -3.45056 0
M  V30 5712 N 546.897 -0.0685191 -1.57451 0
M  V30 5713 C 548.313 0.288101 -1.56978 0
M  V30 5714 C 548.513 1.70262 -1.07765 0
M  V30 5715 O 547.569 2.4135 -0.742054 0
M  V30 5716 C 548.882 0.100745 -3.00531 0
M  V30 5717 C 550.43 0.170531 -3.12535 0
M  V30 5718 C 550.905 0.0114944 -4.57999 0
M  V30 5719 N 552.396 0.0672065 -4.63151 0
M  V30 5720 C 553.131 -0.0314813 -5.73391 0
M  V30 5721 N 552.627 -0.183503 -6.92557 0
M  V30 5722 N 554.42 0.0253489 -5.62094 0
M  V30 5723 H 546.571 -0.993026 -1.87757 0
M  V30 5724 H 548.834 -0.386981 -0.865419 0
M  V30 5725 H 548.54 -0.875197 -3.40636 0
M  V30 5726 H 548.414 0.854457 -3.67395 0
M  V30 5727 H 550.801 1.13696 -2.72318 0
M  V30 5728 H 550.882 -0.614229 -2.48316 0
M  V30 5729 H 550.526 -0.951684 -4.98904 0
M  V30 5730 H 550.456 0.815617 -5.20245 0
M  V30 5731 H 552.947 0.183246 -3.77455 0
M  V30 5732 H 553.26 -0.251041 -7.72392 0
M  V30 5733 H 551.605 -0.218822 -6.94655 0
M  V30 5734 H 554.796 0.142794 -4.67882 0
M  V30 5735 H 554.969 -0.0550166 -6.47977 0
M  V30 5736 N 548.375 1.56261 0.205012 0
M  V30 5737 C 549.791 1.49623 0.555433 0
M  V30 5738 C 549.991 0.766719 1.86343 0
M  V30 5739 O 549.047 0.313158 2.50551 0
M  V30 5740 C 550.36 2.94253 0.619347 0
M  V30 5741 C 551.908 3.04868 0.708855 0
M  V30 5742 C 552.383 4.50888 0.803969 0
M  V30 5743 N 553.874 4.54999 0.867758 0
M  V30 5744 C 554.609 5.65284 0.96135 0
M  V30 5745 N 554.105 6.85282 1.01786 0
M  V30 5746 N 555.898 5.53174 0.997771 0
M  V30 5747 H 548.049 2.0211 -0.653094 0
M  V30 5748 H 550.312 0.919333 -0.231366 0
M  V30 5749 H 550.018 3.50643 -0.272458 0
M  V30 5750 H 549.892 3.47063 1.47741 0
M  V30 5751 H 552.279 2.48532 1.5911 0
M  V30 5752 H 552.36 2.55199 -0.175205 0
M  V30 5753 H 552.004 5.07846 -0.0738798 0
M  V30 5754 H 551.934 4.98279 1.70369 0
M  V30 5755 H 554.425 3.68588 0.833735 0
M  V30 5756 H 554.738 7.65081 1.08951 0
M  V30 5757 H 553.083 6.8796 0.986706 0
M  V30 5758 H 556.274 4.5835 0.950392 0
M  V30 5759 H 556.447 6.39151 1.06725 0
M  V30 5760 N 549.853 -0.472356 1.50355 0
M  V30 5761 C 550.8 -1.57051 1.69126 0
M  V30 5762 C 551.77 -1.5733 0.532574 0
M  V30 5763 O 552.955 -1.7488 0.762994 0
M  V30 5764 C 550.095 -2.95033 1.79024 0
M  V30 5765 C 549.208 -3.04552 3.06386 0
M  V30 5766 C 548.343 -4.33441 3.07087 0
M  V30 5767 C 547.382 -4.36697 4.28908 0
M  V30 5768 N 546.519 -5.57056 4.27356 0
M  V30 5769 H 551.359 -1.40351 2.62879 0
M  V30 5770 H 548.896 -0.682403 1.30314 0
M  V30 5771 H 550.854 -3.75048 1.82744 0
M  V30 5772 H 549.484 -3.10371 0.887109 0
M  V30 5773 H 548.536 -2.17419 3.12143 0
M  V30 5774 H 549.848 -3.02818 3.96362 0
M  V30 5775 H 549.002 -5.21801 3.09529 0
M  V30 5776 H 547.741 -4.37782 2.14939 0
M  V30 5777 H 546.746 -3.46734 4.2668 0
M  V30 5778 H 547.971 -4.34049 5.22282 0
M  V30 5779 H 545.917 -5.62184 3.3806 0
M  V30 5780 H 545.834 -5.57058 5.111 0
M  V30 5781 H 547.102 -6.47545 4.33942 0
M  V30 5782 N 551.331 -1.39911 -0.725443 0
M  V30 5783 C 552.742 -1.33599 -1.30415 0
M  V30 5784 C 553.093 -0.00481792 -1.96199 0
M  V30 5785 O 552.218 0.897275 -1.96921 0
M  V30 5786 C 552.813 -2.41965 -2.37146 0
M  V30 5787 C 551.372 -2.39144 -2.90667 0
M  V30 5788 C 550.519 -2.23355 -1.64341 0
M  V30 5789 H 553.47 -1.4986 -0.522267 0
M  V30 5790 H 553.491 -2.09304 -3.17761 0
M  V30 5791 H 553.003 -3.38837 -1.89238 0
M  V30 5792 H 551.104 -1.4594 -3.4283 0
M  V30 5793 H 551.217 -3.34362 -3.43131 0
M  V30 5794 H 549.581 -1.70696 -1.89037 0
M  V30 5795 H 550.364 -3.2221 -1.18471 0
M  V30 5796 N 552.809 0.956637 -1.25245 0
M  V30 5797 C 553.772 2.03457 -1.05537 0
M  V30 5798 C 554.772 1.60798 -0.00886317 0
M  V30 5799 O 555.962 1.72384 -0.250865 0
M  V30 5800 C 553.094 3.35543 -0.601965 0
M  V30 5801 H 554.287 2.22372 -2.01223 0
M  V30 5802 H 551.84 1.13344 -1.07623 0
M  V30 5803 H 552.575 3.22323 0.357584 0
M  V30 5804 H 552.36 3.67854 -1.35743 0
M  V30 5805 H 553.85 4.14769 -0.485454 0
M  V30 5806 N 554.287 1.06798 1.15896 0
M  V30 5807 C 555.25 0.687328 2.18651 0
M  V30 5808 C 556.25 -0.269559 1.58524 0
M  V30 5809 O 557.44 -0.0512627 1.74125 0
M  V30 5810 C 554.572 0.0121642 3.40898 0
M  V30 5811 H 555.765 1.59701 2.53842 0
M  V30 5812 H 553.318 0.863828 1.3026 0
M  V30 5813 H 554.053 -0.910025 3.1127 0
M  V30 5814 H 553.838 0.700309 3.85795 0
M  V30 5815 H 555.328 -0.239703 4.16911 0
M  V30 5816 N 555.766 -1.3263 0.851289 0
M  V30 5817 C 556.676 -2.32722 0.296268 0
M  V30 5818 C 557.692 -1.63901 -0.584162 0
M  V30 5819 O 558.868 -1.95465 -0.485334 0
M  V30 5820 C 555.933 -3.42942 -0.509103 0
M  V30 5821 C 554.994 -4.2746 0.397069 0
M  V30 5822 C 554.227 -5.32416 -0.36996 0
M  V30 5823 O 554.45 -5.47491 -1.6003 0
M  V30 5824 O 553.384 -6.01327 0.262493 0
M  V30 5825 H 557.21 -2.82078 1.12543 0
M  V30 5826 H 554.795 -1.36194 0.614135 0
M  V30 5827 H 556.677 -4.1017 -0.96634 0
M  V30 5828 H 555.352 -2.95781 -1.31512 0
M  V30 5829 H 554.259 -3.63053 0.902411 0
M  V30 5830 H 555.592 -4.78136 1.16818 0
M  V30 5831 N 557.244 -0.608902 -1.45362 0
M  V30 5832 C 558.174 0.0964526 -2.33301 0
M  V30 5833 C 559.155 0.857444 -1.46908 0
M  V30 5834 O 560.34 0.827735 -1.75676 0
M  V30 5835 C 557.47 1.09354 -3.29635 0
M  V30 5836 C 556.424 0.445676 -4.25673 0
M  V30 5837 C 555.75 1.5511 -5.11708 0
M  V30 5838 C 557.05 -0.633972 -5.18438 0
M  V30 5839 H 558.744 -0.637829 -2.92527 0
M  V30 5840 H 556.29 -0.308178 -1.40664 0
M  V30 5841 H 558.243 1.59556 -3.90025 0
M  V30 5842 H 556.967 1.85843 -2.6857 0
M  V30 5843 H 555.626 -0.0354897 -3.66583 0
M  V30 5844 H 555.274 2.30631 -4.4701 0
M  V30 5845 H 554.974 1.12311 -5.76767 0
M  V30 5846 H 556.498 2.05537 -5.74967 0
M  V30 5847 H 557.912 -0.215974 -5.72893 0
M  V30 5848 H 556.309 -0.983789 -5.91981 0
M  V30 5849 H 557.379 -1.51005 -4.60788 0
M  V30 5850 N 558.722 1.53707 -0.348139 0
M  V30 5851 C 559.971 2.0017 0.247992 0
M  V30 5852 C 560.284 1.23983 1.51286 0
M  V30 5853 O 561.49 1.60946 2.18652 0
M  V30 5854 C 559.946 3.56515 0.492459 0
M  V30 5855 C 559.554 4.41562 -0.756777 0
M  V30 5856 C 561.298 4.11381 1.0472 0
M  V30 5857 C 559.205 5.89426 -0.482856 0
M  V30 5858 H 558.135 0.747806 0.0964452 0
M  V30 5859 H 560.786 1.77532 -0.464179 0
M  V30 5860 H 559.168 3.75236 1.26545 0
M  V30 5861 H 560.342 4.34615 -1.53122 0
M  V30 5862 H 558.657 3.97711 -1.23348 0
M  V30 5863 H 561.254 5.19468 1.26717 0
M  V30 5864 H 561.597 3.64885 2.00411 0
M  V30 5865 H 562.13 3.96389 0.334801 0
M  V30 5866 H 558.869 6.40164 -1.40962 0
M  V30 5867 H 558.389 5.99264 0.253416 0
M  V30 5868 H 560.068 6.4692 -0.101816 0
M  V30 5869 N 560.2 0.0768682 1.57412 0
M  V30 5870 C 561.132 -0.918248 2.10002 0
M  V30 5871 C 562.145 -1.25808 1.03325 0
M  V30 5872 O 563.334 -1.21438 1.30824 0
M  V30 5873 C 560.434 -2.23263 2.54964 0
M  V30 5874 C 559.607 -2.07088 3.8527 0
M  V30 5875 C 558.666 -3.21876 4.16272 0
M  V30 5876 O 557.692 -2.96643 4.8579 0
M  V30 5877 N 558.894 -4.4712 3.70221 0
M  V30 5878 H 561.659 -0.469209 2.96004 0
M  V30 5879 H 559.22 -0.108725 1.61535 0
M  V30 5880 H 561.212 -2.9897 2.72762 0
M  V30 5881 H 559.782 -2.59649 1.74072 0
M  V30 5882 H 559.002 -1.15818 3.76802 0
M  V30 5883 H 560.29 -1.93537 4.70554 0
M  V30 5884 H 559.688 -4.70506 3.1407 0
M  V30 5885 H 558.245 -5.19837 3.93209 0
M  V30 5886 N 561.678 -1.56367 -0.196722 0
M  V30 5887 C 562.641 -1.93561 -1.22746 0
M  V30 5888 C 563.641 -0.816566 -1.38524 0
M  V30 5889 O 564.831 -1.084 -1.36363 0
M  V30 5890 C 561.963 -2.20823 -2.59712 0
M  V30 5891 H 563.156 -2.85774 -0.909586 0
M  V30 5892 H 560.709 -1.50032 -0.438174 0
M  V30 5893 H 561.444 -1.31243 -2.96557 0
M  V30 5894 H 561.229 -3.02368 -2.49632 0
M  V30 5895 H 562.719 -2.50608 -3.34044 0
M  V30 5896 N 563.156 0.464375 -1.50603 0
M  V30 5897 C 564.119 1.54393 -1.69397 0
M  V30 5898 C 565.119 1.50566 -0.564504 0
M  V30 5899 O 566.309 1.53066 -0.831645 0
M  V30 5900 C 563.441 2.9401 -1.72543 0
M  V30 5901 H 564.634 1.39044 -2.65719 0
M  V30 5902 H 562.187 0.69122 -1.40185 0
M  V30 5903 H 562.922 3.14795 -0.77938 0
M  V30 5904 H 562.707 2.98195 -2.54602 0
M  V30 5905 H 564.197 3.72375 -1.89015 0
M  V30 5906 N 564.634 1.40294 0.718013 0
M  V30 5907 C 565.88 1.39648 1.47885 0
M  V30 5908 C 566.235 -0.0023879 1.924 0
M  V30 5909 O 565.528 -0.972304 1.65096 0
M  V30 5910 C 565.722 2.31814 2.72024 0
M  V30 5911 C 565.551 3.80523 2.3965 0
M  V30 5912 C 564.321 4.49351 2.3111 0
M  V30 5913 C 566.519 4.72077 2.04079 0
M  V30 5914 N 564.501 5.83305 1.91385 0
M  V30 5915 C 565.872 5.94809 1.74935 0
M  V30 5916 C 567.927 4.59935 1.90694 0
M  V30 5917 C 566.63 7.06755 1.33753 0
M  V30 5918 C 568.656 5.7182 1.50915 0
M  V30 5919 C 568.018 6.93637 1.22668 0
M  V30 5920 H 564.117 0.566263 0.539324 0
M  V30 5921 H 566.701 1.75986 0.832891 0
M  V30 5922 H 564.872 1.97607 3.34374 0
M  V30 5923 H 566.604 2.22042 3.38348 0
M  V30 5924 H 563.359 4.03002 2.4877 0
M  V30 5925 H 563.783 6.54239 1.74068 0
M  V30 5926 H 568.425 3.66274 2.11194 0
M  V30 5927 H 566.143 8.00302 1.11995 0
M  V30 5928 H 569.729 5.64421 1.4114 0
M  V30 5929 H 568.609 7.78743 0.923502 0
M  V30 5930 N 566.112 -0.949982 1.2575 0
M  V30 5931 C 567.528 -1.22191 1.02672 0
M  V30 5932 C 567.728 -1.99898 -0.253588 0
M  V30 5933 O 566.784 -2.33329 -0.965076 0
M  V30 5934 C 568.097 -1.99175 2.25277 0
M  V30 5935 C 569.645 -2.12201 2.30087 0
M  V30 5936 C 570.12 -2.92586 3.5236 0
M  V30 5937 N 571.611 -3.00163 3.52784 0
M  V30 5938 C 572.346 -3.62766 4.44059 0
M  V30 5939 N 571.842 -4.26943 5.45611 0
M  V30 5940 N 573.635 -3.59953 4.3173 0
M  V30 5941 H 565.786 -0.430258 2.07996 0
M  V30 5942 H 568.049 -0.252844 0.91366 0
M  V30 5943 H 567.755 -1.49479 3.18354 0
M  V30 5944 H 567.629 -2.99868 2.28821 0
M  V30 5945 H 570.016 -2.61093 1.3753 0
M  V30 5946 H 570.097 -1.10799 2.30559 0
M  V30 5947 H 569.741 -2.44383 4.45241 0
M  V30 5948 H 569.671 -3.94224 3.49134 0
M  V30 5949 H 572.162 -2.54529 2.79327 0
M  V30 5950 H 572.475 -4.72583 6.11461 0
M  V30 5951 H 570.82 -4.25557 5.49478 0
M  V30 5952 H 574.011 -3.09003 3.51617 0
M  V30 5953 H 574.184 -4.08455 5.03059 0
M  V30 5954 N 567.59 -1.07411 -1.15328 0
M  V30 5955 C 568.82 -0.817595 -1.89734 0
M  V30 5956 C 569.228 0.63297 -1.78298 0
M  V30 5957 O 568.571 1.44594 -1.13306 0
M  V30 5958 C 568.633 -1.14748 -3.40695 0
M  V30 5959 C 568.297 -2.59876 -3.75917 0
M  V30 5960 C 569.294 -3.58122 -3.76888 0
M  V30 5961 C 566.979 -2.95469 -4.06206 0
M  V30 5962 C 568.973 -4.89996 -4.07655 0
M  V30 5963 C 566.66 -4.2754 -4.36638 0
M  V30 5964 C 567.658 -5.24614 -4.37344 0
M  V30 5965 O 567.346 -6.54312 -4.67045 0
M  V30 5966 H 567.078 -0.295175 -0.608151 0
M  V30 5967 H 569.632 -1.43409 -1.47048 0
M  V30 5968 H 567.862 -0.47395 -3.83785 0
M  V30 5969 H 569.551 -0.873397 -3.96392 0
M  V30 5970 H 570.317 -3.31966 -3.53587 0
M  V30 5971 H 566.196 -2.20558 -4.04815 0
M  V30 5972 H 569.74 -5.65759 -4.08121 0
M  V30 5973 H 565.637 -4.53449 -4.59407 0
M  V30 5974 H 566.405 -6.59473 -4.84807 0
M  V30 5975 N 569.068 1.32177 -0.85831 0
M  V30 5976 C 570.298 2.01021 -0.476889 0
M  V30 5977 C 570.706 1.64653 0.931995 0
M  V30 5978 O 570.049 0.865713 1.62022 0
M  V30 5979 C 570.111 3.55413 -0.540528 0
M  V30 5980 C 569.775 4.1522 -1.90895 0
M  V30 5981 C 570.772 4.3318 -2.87491 0
M  V30 5982 C 568.457 4.51212 -2.20709 0
M  V30 5983 C 570.451 4.86306 -4.1205 0
M  V30 5984 C 568.138 5.04042 -3.45521 0
M  V30 5985 C 569.136 5.21538 -4.41007 0
M  V30 5986 O 568.824 5.73238 -5.63608 0
M  V30 5987 H 568.556 0.650059 -0.18547 0
M  V30 5988 H 571.11 1.69648 -1.15796 0
M  V30 5989 H 569.34 3.86196 0.19741 0
M  V30 5990 H 571.029 4.05526 -0.174191 0
M  V30 5991 H 571.795 4.05704 -2.65762 0
M  V30 5992 H 567.674 4.36878 -1.4717 0
M  V30 5993 H 571.218 4.99877 -4.86589 0
M  V30 5994 H 567.115 5.30952 -3.67098 0
M  V30 5995 H 567.883 5.91625 -5.65617 0
M  V30 5996 N 570.547 0.616602 1.45037 0
M  V30 5997 C 571.51 -0.0871112 2.29034 0
M  V30 5998 C 572.51 -0.786414 1.40258 0
M  V30 5999 O 573.7 -0.633207 1.62284 0
M  V30 6000 C 570.832 -1.13369 3.21497 0
M  V30 6001 H 572.025 0.651497 2.92738 0
M  V30 6002 H 569.578 0.376058 1.51709 0
M  V30 6003 H 570.313 -1.90277 2.62612 0
M  V30 6004 H 570.098 -0.636358 3.86902 0
M  V30 6005 H 571.588 -1.62627 3.84633 0
M  V30 6006 N 572.025 -1.5352 0.356285 0
M  V30 6007 C 573.253 -2.05534 -0.237328 0
M  V30 6008 C 573.668 -1.23043 -1.43199 0
M  V30 6009 O 573.025 -0.268821 -1.80509 0
M  V30 6010 C 573.076 -3.55791 -0.639933 0
M  V30 6011 O 572.797 -4.35154 0.507233 0
M  V30 6012 C 574.298 -4.24027 -1.29292 0
M  V30 6013 H 571.518 -0.669585 -0.0435572 0
M  V30 6014 H 574.062 -1.97988 0.511963 0
M  V30 6015 H 572.217 -3.63518 -1.33915 0
M  V30 6016 H 572.631 -5.24178 0.18375 0
M  V30 6017 H 574.105 -5.30509 -1.52527 0
M  V30 6018 H 574.582 -3.77166 -2.25039 0
M  V30 6019 H 575.188 -4.20527 -0.63539 0
M  V30 6020 N 573.503 -0.0852151 -1.57369 0
M  V30 6021 C 574.451 0.894856 -2.14698 0
M  V30 6022 C 575.445 1.29903 -1.08727 0
M  V30 6023 O 576.651 1.27471 -1.27088 0
M  V30 6024 H 573.026 0.306569 -0.686673 0
M  V30 6025 H 574.997 0.386542 -2.95886 0
M  V30 6026 C 573.746 2.14798 -2.73417 0
M  V30 6027 H 573.069 1.84585 -3.54638 0
M  V30 6028 H 574.509 2.81456 -3.1711 0
M  V30 6029 C 572.968 2.91546 -1.68828 0
M  V30 6030 O 573.498 3.85733 -1.12129 0
M  V30 6031 N 571.704 2.54901 -1.39549 0
M  V30 6032 H 571.251 1.7838 -1.85845 0
M  V30 6033 H 571.209 3.06553 -0.698054 0
M  V30 6034 N 574.981 1.5647 0.188427 0
M  V30 6035 C 576.392 1.70864 0.752494 0
M  V30 6036 C 576.743 0.692905 1.83557 0
M  V30 6037 O 575.868 -0.149307 2.15884 0
M  V30 6038 C 576.463 3.09789 1.37173 0
M  V30 6039 C 575.022 3.25925 1.88281 0
M  V30 6040 C 574.169 2.66817 0.755259 0
M  V30 6041 H 577.12 1.58657 -0.0367408 0
M  V30 6042 H 577.141 3.07489 2.24122 0
M  V30 6043 H 576.653 3.83693 0.583219 0
M  V30 6044 H 574.754 2.56948 2.6983 0
M  V30 6045 H 574.867 4.33498 2.04001 0
M  V30 6046 H 573.231 2.2617 1.17128 0
M  V30 6047 H 574.014 3.43294 -0.0211237 0
M  V30 6048 N 576.459 -0.456382 1.50847 0
M  V30 6049 C 577.407 -1.57318 1.71329 0
M  V30 6050 C 578.401 -1.59187 0.579287 0
M  V30 6051 O 579.607 -1.6316 0.76018 0
M  V30 6052 H 575.982 -0.5223 0.541024 0
M  V30 6053 H 577.953 -1.3721 2.64983 0
M  V30 6054 C 576.702 -2.95142 1.83811 0
M  V30 6055 H 576.025 -2.94428 2.70467 0
M  V30 6056 H 577.465 -3.72702 2.02161 0
M  V30 6057 C 575.924 -3.31636 0.593224 0
M  V30 6058 O 576.454 -4.00852 -0.260898 0
M  V30 6059 N 574.66 -2.87205 0.442902 0
M  V30 6060 H 574.207 -2.31051 1.13901 0
M  V30 6061 H 574.165 -3.11986 -0.38884 0
M  V30 6062 N 577.937 -1.40673 -0.710563 0
M  V30 6063 C 579.353 -1.22813 -1.01928 0
M  V30 6064 C 579.553 -0.10687 -2.01216 0
M  V30 6065 O 578.609 0.533614 -2.46797 0
M  V30 6066 C 579.922 -2.57178 -1.5582 0
M  V30 6067 C 581.47 -2.64233 -1.67779 0
M  V30 6068 C 581.945 -3.98879 -2.25076 0
M  V30 6069 N 583.436 -4.00647 -2.32456 0
M  V30 6070 C 584.171 -5.01621 -2.77784 0
M  V30 6071 N 583.667 -6.12989 -3.22826 0
M  V30 6072 N 585.46 -4.88988 -2.77213 0
M  V30 6073 H 577.611 -2.12335 -0.05253 0
M  V30 6074 H 579.874 -0.9441 -0.085898 0
M  V30 6075 H 579.58 -3.39903 -0.903249 0
M  V30 6076 H 579.454 -2.78618 -2.54267 0
M  V30 6077 H 581.841 -1.81876 -2.3239 0
M  V30 6078 H 581.922 -2.46619 -0.679178 0
M  V30 6079 H 581.566 -4.81678 -1.61086 0
M  V30 6080 H 581.496 -4.13826 -3.25661 0
M  V30 6081 H 583.987 -3.20231 -2.0065 0
M  V30 6082 H 584.3 -6.85921 -3.55995 0
M  V30 6083 H 582.645 -6.16547 -3.20773 0
M  V30 6084 H 585.836 -4.01075 -2.41363 0
M  V30 6085 H 586.009 -5.67822 -3.12221 0
M  V30 6086 N 579.415 0.9433 -1.26252 0
M  V30 6087 C 580.664 1.68369 -1.11062 0
M  V30 6088 C 580.977 1.92514 0.346104 0
M  V30 6089 O 582.183 2.64358 0.618646 0
M  V30 6090 C 580.639 3.03171 -1.93946 0
M  V30 6091 C 580.247 2.86782 -3.4418 0
M  V30 6092 C 581.991 3.80916 -1.87359 0
M  V30 6093 C 579.898 4.17044 -4.19319 0
M  V30 6094 H 578.828 0.631469 -0.412023 0
M  V30 6095 H 581.479 1.04922 -1.50544 0
M  V30 6096 H 579.861 3.67587 -1.47296 0
M  V30 6097 H 581.035 2.31229 -3.98585 0
M  V30 6098 H 579.35 2.22482 -3.51981 0
M  V30 6099 H 581.947 4.77417 -2.40784 0
M  V30 6100 H 582.29 4.07658 -0.843857 0
M  V30 6101 H 582.823 3.2327 -2.31821 0
M  V30 6102 H 579.562 3.95487 -5.22753 0
M  V30 6103 H 579.082 4.72319 -3.69696 0
M  V30 6104 H 580.761 4.85513 -4.27651 0
M  V30 6105 N 580.893 1.08022 1.14757 0
M  V30 6106 C 582.17 0.720386 1.81851 0
M  V30 6107 C 582.55 -0.796375 1.95502 0
M  V30 6108 O 581.898 -1.71339 1.51179 0
M  V30 6109 C 582.108 1.44273 3.17783 0
M  V30 6110 C 583.456 1.59925 3.93331 0
M  V30 6111 O 584.48 1.40407 3.2736 0
M  V30 6112 O 583.339 1.92096 5.11626 0
M  V30 6113 H 580.433 0.257142 0.786007 0
M  V30 6114 H 582.979 1.18155 1.21809 0
M  V30 6115 H 581.751 2.47618 3.02987 0
M  V30 6116 H 581.374 0.97279 3.85516 0
M  V30 6117 N 582.371 -1.3172 0.865308 0
M  V30 6118 C 583.301 -2.31109 0.333302 0
M  V30 6119 C 584.282 -1.60148 -0.573301 0
M  V30 6120 O 585.467 -1.87882 -0.491305 0
M  V30 6121 C 582.597 -3.44104 -0.470078 0
M  V30 6122 C 581.551 -4.26623 0.343021 0
M  V30 6123 C 580.877 -5.31482 -0.585756 0
M  V30 6124 C 582.177 -4.98001 1.57456 0
M  V30 6125 H 583.871 -2.75855 1.1638 0
M  V30 6126 H 581.417 -1.3262 0.561069 0
M  V30 6127 H 583.37 -4.12682 -0.852752 0
M  V30 6128 H 582.094 -2.98112 -1.33404 0
M  V30 6129 H 580.753 -3.59707 0.707583 0
M  V30 6130 H 580.401 -4.81741 -1.44686 0
M  V30 6131 H 580.101 -5.87582 -0.0456494 0
M  V30 6132 H 581.625 -6.0292 -0.965375 0
M  V30 6133 H 583.039 -5.59201 1.26359 0
M  V30 6134 H 581.436 -5.63876 2.05339 0
M  V30 6135 H 582.506 -4.25253 2.32997 0
M  V30 6136 N 583.85 -0.624285 -1.44708 0
M  V30 6137 C 585.096 -0.126237 -2.02407 0
M  V30 6138 C 585.428 1.24618 -1.48943 0
M  V30 6139 O 584.704 1.82569 -0.670742 0
M  V30 6140 C 584.986 -0.105449 -3.59946 0
M  V30 6141 C 584.84 -1.50972 -4.23707 0
M  V30 6142 C 586.159 0.573629 -4.36346 0
M  V30 6143 H 583.278 -0.0473472 -0.735478 0
M  V30 6144 H 585.92 -0.799452 -1.72362 0
M  V30 6145 H 584.07 0.46783 -3.85673 0
M  V30 6146 H 585.742 -2.13136 -4.0911 0
M  V30 6147 H 583.985 -2.0656 -3.81465 0
M  V30 6148 H 584.656 -1.44727 -5.32689 0
M  V30 6149 H 587.132 0.0861787 -4.16011 0
M  V30 6150 H 586.008 0.557338 -5.46063 0
M  V30 6151 H 586.269 1.64276 -4.10446 0
M  V30 6152 N 585.328 1.53329 -0.364422 0
M  V30 6153 C 586.291 2.24323 0.470292 0
M  V30 6154 C 587.291 1.25068 1.01067 0
M  V30 6155 O 588.481 1.49354 0.896605 0
M  V30 6156 C 585.613 2.97908 1.65722 0
M  V30 6157 H 586.806 2.9952 -0.150917 0
M  V30 6158 H 584.359 1.55868 -0.116092 0
M  V30 6159 H 585.094 2.2695 2.31655 0
M  V30 6160 H 584.879 3.70732 1.27671 0
M  V30 6161 H 586.369 3.5188 2.24878 0
M  V30 6162 N 586.806 0.0935595 1.57322 0
M  V30 6163 C 588.034 -0.578934 1.98635 0
M  V30 6164 C 588.449 -1.61819 0.972626 0
M  V30 6165 O 587.806 -1.82461 -0.0379638 0
M  V30 6166 C 587.857 -1.22802 3.40003 0
M  V30 6167 O 587.578 -0.230334 4.37494 0
M  V30 6168 C 589.079 -1.98627 3.96311 0
M  V30 6169 H 586.299 -0.155324 0.652775 0
M  V30 6170 H 588.843 0.172393 2.03772 0
M  V30 6171 H 586.998 -1.93029 3.35885 0
M  V30 6172 H 587.412 -0.698649 5.19826 0
M  V30 6173 H 588.886 -2.39405 4.97382 0
M  V30 6174 H 589.363 -2.85151 3.34044 0
M  V30 6175 H 589.969 -1.3322 4.03897 0
M  V30 6176 N 588.284 -1.56567 -0.180126 0
M  V30 6177 C 589.53 -1.82658 -0.894859 0
M  V30 6178 C 589.885 -0.672826 -1.80252 0
M  V30 6179 O 589.178 0.331227 -1.88715 0
M  V30 6180 C 589.372 -3.1252 -1.73395 0
M  V30 6181 C 589.201 -4.40417 -0.909028 0
M  V30 6182 C 587.971 -5.01872 -0.587562 0
M  V30 6183 C 590.169 -5.13669 -0.254698 0
M  V30 6184 N 588.151 -6.13373 0.254428 0
M  V30 6185 C 589.522 -6.18373 0.448837 0
M  V30 6186 C 591.577 -4.97603 -0.171958 0
M  V30 6187 C 590.28 -7.08753 1.22725 0
M  V30 6188 C 592.306 -5.88418 0.593101 0
M  V30 6189 C 591.668 -6.92579 1.28503 0
M  V30 6190 H 587.767 -0.719493 -0.306356 0
M  V30 6191 H 590.351 -1.94021 -0.16247 0
M  V30 6192 H 588.522 -3.02365 -2.43783 0
M  V30 6193 H 590.254 -3.2664 -2.38931 0
M  V30 6194 H 587.009 -4.64666 -0.915557 0
M  V30 6195 H 587.433 -6.73721 0.665474 0
M  V30 6196 H 592.075 -4.17089 -0.692555 0
M  V30 6197 H 589.793 -7.88718 1.75923 0
M  V30 6198 H 593.379 -5.78059 0.658674 0
M  V30 6199 H 592.259 -7.61638 1.86754 0
M  V30 6200 N 589.762 0.448376 -1.51087 0
M  V30 6201 C 591.178 0.783984 -1.39017 0
M  V30 6202 C 591.378 1.96087 -0.463904 0
M  V30 6203 O 590.434 2.52357 0.0850534 0
M  V30 6204 C 591.747 1.07471 -2.80839 0
M  V30 6205 C 593.295 1.17981 -2.89913 0
M  V30 6206 C 593.77 1.50354 -4.32617 0
M  V30 6207 N 595.261 1.57301 -4.35673 0
M  V30 6208 C 595.996 1.839 -5.4311 0
M  V30 6209 N 595.492 2.08365 -6.60724 0
M  V30 6210 N 597.285 1.8559 -5.30578 0
M  V30 6211 H 589.436 -0.326881 -2.0987 0
M  V30 6212 H 591.699 -0.0838006 -0.944289 0
M  V30 6213 H 591.405 0.282768 -3.50561 0
M  V30 6214 H 591.279 2.00519 -3.19487 0
M  V30 6215 H 593.666 1.9624 -2.20395 0
M  V30 6216 H 593.747 0.228603 -2.54776 0
M  V30 6217 H 593.391 0.726273 -5.0268 0
M  V30 6218 H 593.321 2.46663 -4.65258 0
M  V30 6219 H 595.812 1.40342 -3.50874 0
M  V30 6220 H 596.125 2.27999 -7.38401 0
M  V30 6221 H 594.47 2.0571 -6.63859 0
M  V30 6222 H 597.661 1.65989 -4.37682 0
M  V30 6223 H 597.834 2.05983 -6.1439 0
M  V30 6224 N 591.24 1.41047 0.703093 0
M  V30 6225 C 592.487 1.4 1.46309 0
M  V30 6226 C 592.815 0.00654574 1.94499 0
M  V30 6227 O 592.07 -0.980255 1.6938 0
M  V30 6228 C 592.369 2.34686 2.6955 0
M  V30 6229 C 592.035 3.81684 2.40058 0
M  V30 6230 C 590.697 4.21731 2.31725 0
M  V30 6231 C 593.049 4.74525 2.15581 0
M  V30 6232 C 590.377 5.52637 1.97001 0
M  V30 6233 C 592.729 6.05744 1.82366 0
M  V30 6234 C 591.393 6.44819 1.72524 0
M  V30 6235 H 590.663 0.512295 0.535382 0
M  V30 6236 H 593.31 1.73792 0.804275 0
M  V30 6237 H 591.615 1.94122 3.40329 0
M  V30 6238 H 593.312 2.31152 3.27673 0
M  V30 6239 H 589.902 3.49963 2.47435 0
M  V30 6240 H 594.086 4.44395 2.20968 0
M  V30 6241 H 589.342 5.81802 1.87928 0
M  V30 6242 H 593.516 6.77189 1.62444 0
M  V30 6243 H 591.143 7.46168 1.45385 0
M  V30 6244 N 592.718 -0.936591 1.26751 0
M  V30 6245 C 593.948 -1.71509 1.15188 0
M  V30 6246 C 594.356 -1.86885 -0.295037 0
M  V30 6247 O 593.699 -1.37915 -1.21347 0
M  V30 6248 C 593.761 -3.13853 1.75318 0
M  V30 6249 C 593.425 -3.21845 3.24445 0
M  V30 6250 C 594.422 -3.04771 4.21201 0
M  V30 6251 C 592.107 -3.45088 3.64992 0
M  V30 6252 C 594.101 -3.10816 5.56482 0
M  V30 6253 C 591.788 -3.50767 5.00405 0
M  V30 6254 C 592.786 -3.33648 5.9596 0
M  V30 6255 O 592.474 -3.39045 7.28906 0
M  V30 6256 H 592.206 -0.543658 0.401761 0
M  V30 6257 H 594.76 -1.18234 1.67958 0
M  V30 6258 H 592.99 -3.6857 1.17016 0
M  V30 6259 H 594.679 -3.73634 1.58596 0
M  V30 6260 H 595.445 -2.86665 3.91214 0
M  V30 6261 H 591.324 -3.57467 2.91098 0
M  V30 6262 H 594.868 -2.97372 6.31043 0
M  V30 6263 H 590.765 -3.68396 5.30052 0
M  V30 6264 H 591.533 -3.55558 7.37238 0
M  V30 6265 N 594.196 -1.08629 -1.14182 0
M  V30 6266 C 595.106 -0.730126 -2.22949 0
M  V30 6267 C 596.122 0.26436 -1.7198 0
M  V30 6268 O 597.298 0.107742 -2.01112 0
M  V30 6269 C 594.363 -0.147227 -3.46387 0
M  V30 6270 C 593.424 -1.19662 -4.12286 0
M  V30 6271 C 592.657 -0.641437 -5.29831 0
M  V30 6272 O 592.88 0.538351 -5.67854 0
M  V30 6273 O 591.814 -1.39257 -5.85569 0
M  V30 6274 H 595.64 -1.63753 -2.55771 0
M  V30 6275 H 593.225 -0.860118 -1.22157 0
M  V30 6276 H 595.107 0.174923 -4.21037 0
M  V30 6277 H 593.782 0.733304 -3.15285 0
M  V30 6278 H 592.689 -1.57133 -3.395 0
M  V30 6279 H 594.022 -2.0495 -4.475 0
M  V30 6280 N 595.674 1.31259 -0.872281 0
M  V30 6281 C 596.899 2.0133 -0.498099 0
M  V30 6282 C 597.324 1.65031 0.902568 0
M  V30 6283 O 596.682 0.860164 1.59596 0
M  V30 6284 C 596.73 3.54411 -0.665205 0
M  V30 6285 O 595.834 4.11347 0.294473 0
M  V30 6286 H 595.175 0.633844 -0.197832 0
M  V30 6287 H 597.705 1.67402 -1.17633 0
M  V30 6288 H 597.715 4.04147 -0.559373 0
M  V30 6289 H 596.39 3.80171 -1.68651 0
M  V30 6290 H 594.967 3.72624 0.143403 0
M  V30 6291 N 597.152 0.631951 1.44375 0
M  V30 6292 C 598.398 0.13697 2.02337 0
M  V30 6293 C 598.731 -1.23826 1.49602 0
M  V30 6294 O 598.006 -1.8221 0.680415 0
M  V30 6295 C 598.289 0.124536 3.59885 0
M  V30 6296 C 598.142 1.53217 4.229 0
M  V30 6297 C 599.461 -0.550481 4.36644 0
M  V30 6298 H 596.58 0.051247 0.735216 0
M  V30 6299 H 599.222 0.808581 1.71936 0
M  V30 6300 H 597.372 -0.44737 3.85916 0
M  V30 6301 H 599.044 2.15303 4.07973 0
M  V30 6302 H 597.287 2.0858 3.80364 0
M  V30 6303 H 597.958 1.4755 5.31914 0
M  V30 6304 H 600.434 -0.0641154 4.16051 0
M  V30 6305 H 599.31 -0.528371 5.46351 0
M  V30 6306 H 599.571 -1.62097 4.11311 0
M  V30 6307 N 598.631 -1.53133 0.372548 0
M  V30 6308 C 599.877 -2.01654 -0.215277 0
M  V30 6309 C 600.21 -1.25914 -1.47849 0
M  V30 6310 O 599.485 -0.3548 -1.91237 0
M  V30 6311 C 599.768 -3.56609 -0.500187 0
M  V30 6312 C 599.621 -4.43036 0.777145 0
M  V30 6313 C 600.94 -4.20528 -1.29786 0
M  V30 6314 H 598.059 -0.732991 -0.0767686 0
M  V30 6315 H 600.701 -1.83335 0.498814 0
M  V30 6316 H 598.851 -3.7235 -1.10852 0
M  V30 6317 H 600.523 -4.39079 1.41447 0
M  V30 6318 H 598.766 -4.10723 1.39604 0
M  V30 6319 H 599.437 -5.49424 0.532662 0
M  V30 6320 H 601.913 -4.08663 -0.783198 0
M  V30 6321 H 600.789 -5.28962 -1.46596 0
M  V30 6322 H 601.05 -3.77051 -2.30836 0
M  V30 6323 N 600.109 -0.101901 -1.5727 0
M  V30 6324 C 601.334 0.571759 -1.99363 0
M  V30 6325 C 601.759 1.60507 -0.980768 0
M  V30 6326 O 601.117 1.81231 0.0498517 0
M  V30 6327 C 601.165 1.18996 -3.404 0
M  V30 6328 O 600.269 2.30572 -3.41922 0
M  V30 6329 H 599.61 0.144449 -0.648098 0
M  V30 6330 H 602.14 -0.185325 -2.03759 0
M  V30 6331 H 602.15 1.52962 -3.78241 0
M  V30 6332 H 600.825 0.432984 -4.1364 0
M  V30 6333 H 599.402 1.98173 -3.15883 0
M  V30 6334 N 601.587 1.56661 0.17182 0
M  V30 6335 C 602.834 1.81965 0.888529 0
M  V30 6336 C 603.162 0.6789 1.82267 0
M  V30 6337 O 602.417 -0.333875 1.92831 0
M  V30 6338 C 602.716 3.13435 1.71736 0
M  V30 6339 C 602.382 4.41159 0.932184 0
M  V30 6340 C 601.044 4.75851 0.715481 0
M  V30 6341 C 603.396 5.19803 0.381387 0
M  V30 6342 C 600.724 5.86666 -0.063126 0
M  V30 6343 C 603.076 6.31433 -0.384129 0
M  V30 6344 C 601.74 6.64692 -0.611637 0
M  V30 6345 H 601.01 0.665859 0.325136 0
M  V30 6346 H 603.657 1.90884 0.153495 0
M  V30 6347 H 601.962 2.99857 2.52177 0
M  V30 6348 H 603.659 3.30224 2.27493 0
M  V30 6349 H 600.249 4.13947 1.11112 0
M  V30 6350 H 604.433 4.93396 0.536148 0
M  V30 6351 H 599.689 6.10892 -0.249136 0
M  V30 6352 H 603.863 6.91577 -0.818185 0
M  V30 6353 H 601.49 7.50398 -1.21684 0
M  V30 6354 N 603.065 -0.440357 1.51323 0
M  V30 6355 C 604.476 -1.02032 1.56353 0
M  V30 6356 C 604.827 -1.92382 0.385197 0
M  V30 6357 O 603.952 -2.10583 -0.498373 0
M  V30 6358 C 604.547 -1.85723 2.83359 0
M  V30 6359 C 603.106 -2.38774 2.90971 0
M  V30 6360 C 602.253 -1.17908 2.50984 0
M  V30 6361 H 605.204 -0.221744 1.57143 0
M  V30 6362 H 605.225 -2.71141 2.66951 0
M  V30 6363 H 604.737 -1.19939 3.69102 0
M  V30 6364 H 602.838 -3.08021 2.09651 0
M  V30 6365 H 602.951 -2.71778 3.94555 0
M  V30 6366 H 601.315 -1.52347 2.04114 0
M  V30 6367 H 602.098 -0.537393 3.39068 0
M  V30 6368 N 604.543 -1.41418 -0.695603 0
M  V30 6369 C 605.79 -1.40774 -1.45564 0
M  V30 6370 C 606.118 -0.0168604 -1.94493 0
M  V30 6371 O 605.373 0.971259 -1.69897 0
M  V30 6372 C 605.672 -2.36112 -2.68302 0
M  V30 6373 C 605.338 -3.82952 -2.38031 0
M  V30 6374 C 604 -4.22954 -2.29486 0
M  V30 6375 C 606.352 -4.75662 -2.13061 0
M  V30 6376 C 603.68 -5.53674 -1.94067 0
M  V30 6377 C 606.032 -6.06702 -1.79151 0
M  V30 6378 C 604.696 -6.45725 -1.69102 0
M  V30 6379 H 603.966 -0.515128 -0.532658 0
M  V30 6380 H 606.613 -1.74216 -0.795047 0
M  V30 6381 H 604.918 -1.95924 -3.39295 0
M  V30 6382 H 606.615 -2.32887 -3.26442 0
M  V30 6383 H 603.205 -3.5127 -2.45576 0
M  V30 6384 H 607.389 -4.45561 -2.18608 0
M  V30 6385 H 602.645 -5.8279 -1.8484 0
M  V30 6386 H 606.819 -6.78041 -1.5885 0
M  V30 6387 H 604.446 -7.46929 -1.41426 0
M  V30 6388 N 606.021 0.929856 -1.27246 0
M  V30 6389 C 607.268 1.67731 -1.13457 0
M  V30 6390 C 607.596 1.9185 0.319998 0
M  V30 6391 O 606.851 1.50524 1.25064 0
M  V30 6392 C 607.15 3.05116 -1.86115 0
M  V30 6393 C 606.816 3.00715 -3.35978 0
M  V30 6394 C 605.478 2.99222 -3.76855 0
M  V30 6395 C 607.83 2.92168 -4.3161 0
M  V30 6396 C 605.158 2.86962 -5.11732 0
M  V30 6397 C 607.51 2.81449 -5.66542 0
M  V30 6398 C 606.174 2.78305 -6.06715 0
M  V30 6399 H 605.444 0.613772 -0.415168 0
M  V30 6400 H 608.091 1.08456 -1.57827 0
M  V30 6401 H 606.396 3.68083 -1.34246 0
M  V30 6402 H 608.093 3.61822 -1.72876 0
M  V30 6403 H 604.683 3.02664 -3.03468 0
M  V30 6404 H 608.867 2.92421 -4.01003 0
M  V30 6405 H 604.123 2.82913 -5.42006 0
M  V30 6406 H 608.297 2.738 -6.40317 0
M  V30 6407 H 605.924 2.68561 -7.11181 0
M  V30 6408 N 607.499 1.09233 1.13605 0
M  V30 6409 C 608.915 0.82163 1.36826 0
M  V30 6410 C 609.115 -0.565021 1.93416 0
M  V30 6411 O 608.171 -1.32026 2.15234 0
M  V30 6412 C 609.484 1.91124 2.32147 0
M  V30 6413 C 611.032 1.93824 2.45767 0
M  V30 6414 C 611.507 3.01923 3.44393 0
M  V30 6415 N 612.998 3.01149 3.51942 0
M  V30 6416 C 613.733 3.81434 4.2813 0
M  V30 6417 N 613.229 4.71621 5.07489 0
M  V30 6418 N 615.022 3.69702 4.23411 0
M  V30 6419 H 607.173 1.98633 0.752234 0
M  V30 6420 H 609.436 0.862482 0.393482 0
M  V30 6421 H 609.142 2.90862 1.97717 0
M  V30 6422 H 609.016 1.78777 3.32142 0
M  V30 6423 H 611.403 0.94726 2.79483 0
M  V30 6424 H 611.484 2.10248 1.45703 0
M  V30 6425 H 611.128 4.01232 3.11408 0
M  V30 6426 H 611.058 2.82742 4.44257 0
M  V30 6427 H 613.549 2.35789 2.95317 0
M  V30 6428 H 613.862 5.29468 5.62924 0
M  V30 6429 H 612.207 4.75658 5.06729 0
M  V30 6430 H 615.398 2.98606 3.60489 0
M  V30 6431 H 615.571 4.32509 4.82535 0
M  V30 6432 N 608.977 -1.30795 0.87923 0
M  V30 6433 C 609.924 -2.28282 0.339968 0
M  V30 6434 C 610.894 -1.56134 -0.566685 0
M  V30 6435 O 612.079 -1.84231 -0.496338 0
M  V30 6436 C 609.219 -3.42225 -0.444501 0
M  V30 6437 C 608.332 -4.29204 0.490717 0
M  V30 6438 C 607.467 -5.30302 -0.308784 0
M  V30 6439 C 606.506 -6.08929 0.622272 0
M  V30 6440 N 605.643 -7.01957 -0.14155 0
M  V30 6441 H 610.483 -2.73794 1.17647 0
M  V30 6442 H 608.02 -1.34682 0.591527 0
M  V30 6443 H 609.978 -4.07038 -0.915186 0
M  V30 6444 H 608.608 -2.97799 -1.24562 0
M  V30 6445 H 607.66 -3.6475 1.07988 0
M  V30 6446 H 608.972 -4.84045 1.20425 0
M  V30 6447 H 608.126 -6.00835 -0.841575 0
M  V30 6448 H 606.865 -4.7614 -1.05556 0
M  V30 6449 H 605.87 -5.37278 1.16674 0
M  V30 6450 H 607.095 -6.65178 1.36804 0
M  V30 6451 H 605.041 -6.50192 -0.870966 0
M  V30 6452 H 604.958 -7.54261 0.51246 0
M  V30 6453 H 606.226 -7.76741 -0.655271 0
M  V30 6454 N 610.455 -0.639598 -1.44038 0
M  V30 6455 C 611.365 0.0612377 -2.3452 0
M  V30 6456 C 612.381 0.826717 -1.53106 0
M  V30 6457 O 613.557 0.777059 -1.85806 0
M  V30 6458 C 610.622 1.02492 -3.31204 0
M  V30 6459 C 609.683 0.25788 -4.28525 0
M  V30 6460 C 608.916 1.17566 -5.2059 0
M  V30 6461 O 609.139 2.41461 -5.16771 0
M  V30 6462 O 608.073 0.655407 -5.98321 0
M  V30 6463 H 611.899 -0.68318 -2.95916 0
M  V30 6464 H 609.484 -0.399784 -1.43952 0
M  V30 6465 H 611.366 1.57911 -3.90694 0
M  V30 6466 H 610.041 1.7498 -2.7233 0
M  V30 6467 H 608.948 -0.339566 -3.72556 0
M  V30 6468 H 610.281 -0.427154 -4.90343 0
M  V30 6469 N 611.933 1.52934 -0.380664 0
M  V30 6470 C 612.865 2.23822 0.493581 0
M  V30 6471 C 613.878 1.25761 1.03383 0
M  V30 6472 O 615.067 1.5189 0.937633 0
M  V30 6473 C 612.167 2.9342 1.69582 0
M  V30 6474 C 611.34 4.18115 1.28445 0
M  V30 6475 C 610.399 4.70788 2.35042 0
M  V30 6476 O 609.425 5.34093 1.96807 0
M  V30 6477 N 610.627 4.49899 3.66839 0
M  V30 6478 H 613.392 2.99484 -0.11371 0
M  V30 6479 H 610.953 1.60577 -0.206587 0
M  V30 6480 H 612.945 3.2556 2.40401 0
M  V30 6481 H 611.515 2.21119 2.20965 0
M  V30 6482 H 610.735 3.92109 0.405503 0
M  V30 6483 H 612.023 4.99152 0.986132 0
M  V30 6484 H 611.421 3.99349 4.0067 0
M  V30 6485 H 609.978 4.86551 4.33718 0
M  V30 6486 N 613.412 0.11024 1.57214 0
M  V30 6487 C 614.342 -0.840002 2.17867 0
M  V30 6488 C 615.323 -1.28352 1.11624 0
M  V30 6489 O 616.508 -1.3477 1.39824 0
M  V30 6490 C 613.638 -2.09349 2.77111 0
M  V30 6491 C 612.592 -1.78807 3.8886 0
M  V30 6492 C 611.918 -3.11112 4.34872 0
M  V30 6493 C 613.218 -1.0632 5.11364 0
M  V30 6494 H 614.912 -0.334608 2.97524 0
M  V30 6495 H 612.458 -0.159502 1.43114 0
M  V30 6496 H 614.411 -2.76275 3.18198 0
M  V30 6497 H 613.135 -2.62198 1.9473 0
M  V30 6498 H 611.794 -1.14273 3.48335 0
M  V30 6499 H 611.442 -3.61877 3.49362 0
M  V30 6500 H 611.142 -2.91453 5.10224 0
M  V30 6501 H 612.666 -3.79171 4.78604 0
M  V30 6502 H 614.08 -1.63383 5.49526 0
M  V30 6503 H 612.477 -0.967876 5.92243 0
M  V30 6504 H 613.547 -0.0484569 4.84876 0
M  V30 6505 N 614.89 -1.56749 -0.16351 0
M  V30 6506 C 615.8 -2.00255 -1.2221 0
M  V30 6507 C 616.816 -0.915194 -1.47987 0
M  V30 6508 O 617.992 -1.22342 -1.59982 0
M  V30 6509 C 615.057 -2.36035 -2.53946 0
M  V30 6510 C 614.118 -3.58637 -2.35962 0
M  V30 6511 C 613.351 -3.92701 -3.61416 0
M  V30 6512 O 613.574 -3.27632 -4.66919 0
M  V30 6513 O 612.508 -4.86019 -3.55062 0
M  V30 6514 H 616.334 -2.90586 -0.882794 0
M  V30 6515 H 613.919 -1.44721 -0.370978 0
M  V30 6516 H 615.801 -2.59982 -3.31643 0
M  V30 6517 H 614.476 -1.48863 -2.8744 0
M  V30 6518 H 613.383 -3.39898 -1.5627 0
M  V30 6519 H 614.716 -4.46374 -2.0739 0
M  V30 6520 N 616.368 0.432326 -1.51554 0
M  V30 6521 C 617.331 1.50765 -1.72634 0
M  V30 6522 C 618.331 1.49334 -0.596314 0
M  V30 6523 O 619.521 1.51268 -0.863925 0
M  V30 6524 C 616.653 2.90284 -1.7874 0
M  V30 6525 H 617.846 1.33377 -2.68609 0
M  V30 6526 H 615.399 0.661329 -1.4162 0
M  V30 6527 H 616.134 3.13071 -0.845977 0
M  V30 6528 H 615.919 2.92727 -2.6087 0
M  V30 6529 H 617.409 3.68282 -1.96871 0
M  V30 6530 N 617.846 1.41785 0.688094 0
M  V30 6531 C 618.809 1.43936 1.78368 0
M  V30 6532 C 619.809 0.328866 1.57401 0
M  V30 6533 O 620.999 0.589093 1.63937 0
M  V30 6534 C 618.131 1.25804 3.16838 0
M  V30 6535 H 619.324 2.41472 1.77852 0
M  V30 6536 H 616.877 1.28037 0.896448 0
M  V30 6537 H 617.612 0.291386 3.22988 0
M  V30 6538 H 617.397 2.06272 3.33458 0
M  V30 6539 H 618.887 1.30162 3.96797 0
M  V30 6540 N 619.324 -0.923095 1.27737 0
M  V30 6541 C 620.549 -1.71054 1.17283 0
M  V30 6542 C 620.974 -1.86208 -0.266153 0
M  V30 6543 O 620.332 -1.36545 -1.1927 0
M  V30 6544 C 620.38 -3.0854 1.86642 0
M  V30 6545 O 619.484 -3.95528 1.16752 0
M  V30 6546 H 618.825 -0.524136 0.407649 0
M  V30 6547 H 621.355 -1.15487 1.6889 0
M  V30 6548 H 621.365 -3.58828 1.94182 0
M  V30 6549 H 620.04 -2.96828 2.91317 0
M  V30 6550 H 618.617 -3.53967 1.17312 0
M  V30 6551 N 620.802 -1.09834 -1.13024 0
M  V30 6552 C 622.027 -0.85909 -1.88771 0
M  V30 6553 C 622.452 0.584402 -1.78791 0
M  V30 6554 O 621.81 1.41101 -1.13842 0
M  V30 6555 C 621.858 -1.30427 -3.36186 0
M  V30 6556 O 620.962 -0.465368 -4.09766 0
M  V30 6557 H 620.303 -0.310786 -0.586778 0
M  V30 6558 H 622.833 -1.46355 -1.42973 0
M  V30 6559 H 622.843 -1.2915 -3.8702 0
M  V30 6560 H 621.518 -2.3555 -3.42767 0
M  V30 6561 H 620.095 -0.542814 -3.68928 0
M  V30 6562 N 622.28 1.30327 -0.886154 0
M  V30 6563 C 623.212 2.27079 -0.311072 0
M  V30 6564 C 624.225 1.53758 0.53502 0
M  V30 6565 O 625.414 1.74947 0.354378 0
M  V30 6566 C 622.514 3.33965 0.576228 0
M  V30 6567 C 621.687 4.36735 -0.241064 0
M  V30 6568 C 620.746 5.23028 0.576916 0
M  V30 6569 O 619.772 5.692 -0.000802231 0
M  V30 6570 N 620.974 5.49016 1.88579 0
M  V30 6571 H 623.739 2.77065 -1.14259 0
M  V30 6572 H 621.3 1.43519 -0.749258 0
M  V30 6573 H 623.292 3.88618 1.12953 0
M  V30 6574 H 621.862 2.839 1.30842 0
M  V30 6575 H 621.082 3.81932 -0.975805 0
M  V30 6576 H 622.37 5.02451 -0.801272 0
M  V30 6577 H 621.768 5.13288 2.37806 0
M  V30 6578 H 620.325 6.06539 2.38651 0
M  V30 6579 N 623.758 0.647228 1.43697 0
M  V30 6580 C 624.705 -0.0480092 2.3075 0
M  V30 6581 C 625.675 -0.820705 1.44408 0
M  V30 6582 O 626.86 -0.798515 1.73287 0
M  V30 6583 C 624 -1.01259 3.2991 0
M  V30 6584 C 623.113 -0.236629 4.31351 0
M  V30 6585 C 622.248 -1.19447 5.17596 0
M  V30 6586 C 621.287 -0.408595 6.10735 0
M  V30 6587 N 620.424 -1.31772 6.89623 0
M  V30 6588 H 625.264 0.700238 2.89656 0
M  V30 6589 H 622.801 0.357082 1.427 0
M  V30 6590 H 624.759 -1.58538 3.85903 0
M  V30 6591 H 623.389 -1.72778 2.72667 0
M  V30 6592 H 622.441 0.452353 3.77701 0
M  V30 6593 H 623.753 0.374731 4.9739 0
M  V30 6594 H 622.907 -1.83809 5.78186 0
M  V30 6595 H 621.646 -1.83975 4.51669 0
M  V30 6596 H 620.651 0.24841 5.49239 0
M  V30 6597 H 621.876 0.232188 6.78703 0
M  V30 6598 H 619.822 -1.94991 6.2635 0
M  V30 6599 H 619.739 -0.760779 7.52162 0
M  V30 6600 H 621.007 -1.94967 7.54724 0
M  V30 6601 N 625.236 -1.5273 0.388769 0
M  V30 6602 C 626.166 -2.29353 -0.438111 0
M  V30 6603 C 627.147 -1.32719 -1.06394 0
M  V30 6604 O 628.332 -1.61612 -1.07681 0
M  V30 6605 C 625.462 -3.09995 -1.56589 0
M  V30 6606 C 624.416 -4.14509 -1.06613 0
M  V30 6607 C 623.742 -4.83372 -2.28594 0
M  V30 6608 C 625.042 -5.22127 -0.134459 0
M  V30 6609 H 626.736 -2.98723 0.201206 0
M  V30 6610 H 624.282 -1.43665 0.0982089 0
M  V30 6611 H 626.235 -3.62357 -2.15118 0
M  V30 6612 H 624.959 -2.38357 -2.23279 0
M  V30 6613 H 623.618 -3.63128 -0.503383 0
M  V30 6614 H 623.266 -4.08283 -2.93792 0
M  V30 6615 H 622.966 -5.54012 -1.95817 0
M  V30 6616 H 624.49 -5.38538 -2.87766 0
M  V30 6617 H 625.904 -5.69851 -0.627914 0
M  V30 6618 H 624.301 -6.00011 0.103534 0
M  V30 6619 H 625.371 -4.77971 0.816798 0
M  V30 6620 N 626.714 -0.118576 -1.57153 0
M  V30 6621 C 627.962 0.538461 -1.94795 0
M  V30 6622 C 628.283 1.67243 -1.00274 0
M  V30 6623 O 627.553 1.95811 -0.0589692 0
M  V30 6624 H 626.133 0.201904 -0.719197 0
M  V30 6625 H 628.795 -0.187418 -1.93997 0
M  V30 6626 H 627.891 0.933315 -2.97818 0
M  V30 6627 N 628.193 1.56834 0.155195 0
M  V30 6628 C 629.123 2.00678 1.19376 0
M  V30 6629 C 630.104 0.884973 1.45266 0
M  V30 6630 O 631.289 1.1522 1.56326 0
M  V30 6631 C 628.419 2.38042 2.5289 0
M  V30 6632 C 627.373 3.53332 2.41538 0
M  V30 6633 C 626.699 3.76485 3.79688 0
M  V30 6634 C 627.999 4.86265 1.9064 0
M  V30 6635 H 629.693 2.87688 0.829232 0
M  V30 6636 H 627.239 1.38407 0.397445 0
M  V30 6637 H 629.192 2.67314 3.25763 0
M  V30 6638 H 627.916 1.4796 2.91162 0
M  V30 6639 H 626.575 3.24213 1.71117 0
M  V30 6640 H 626.223 2.83667 4.15382 0
M  V30 6641 H 625.923 4.54068 3.72956 0
M  V30 6642 H 627.447 4.08174 4.54122 0
M  V30 6643 H 628.861 5.14308 2.53299 0
M  V30 6644 H 627.258 5.67597 1.94818 0
M  V30 6645 H 628.328 4.77184 0.861596 0
M  V30 6646 N 629.671 -0.424282 1.51781 0
M  V30 6647 C 630.601 -1.52305 1.7699 0
M  V30 6648 C 631.582 -1.5839 0.620209 0
M  V30 6649 O 632.767 -1.73908 0.864268 0
M  V30 6650 C 629.897 -2.90271 1.90683 0
M  V30 6651 C 628.851 -2.99043 3.06198 0
M  V30 6652 C 628.177 -4.39116 3.05092 0
M  V30 6653 C 629.477 -2.7192 4.45934 0
M  V30 6654 H 631.171 -1.31461 2.68995 0
M  V30 6655 H 628.717 -0.630985 1.29439 0
M  V30 6656 H 630.67 -3.6711 2.06901 0
M  V30 6657 H 629.394 -3.12376 0.953365 0
M  V30 6658 H 628.053 -2.24646 2.89706 0
M  V30 6659 H 627.701 -4.58207 2.07498 0
M  V30 6660 H 627.401 -4.45912 3.82669 0
M  V30 6661 H 628.925 -5.17911 3.2342 0
M  V30 6662 H 630.339 -3.38487 4.62709 0
M  V30 6663 H 628.736 -2.90111 5.25315 0
M  V30 6664 H 629.806 -1.67445 4.55072 0
M  V30 6665 N 631.149 -1.42148 -0.680565 0
M  V30 6666 C 632.426 -1.32795 -1.43614 0
M  V30 6667 C 632.806 0.037415 -2.11067 0
M  V30 6668 O 632.154 1.05258 -2.02813 0
M  V30 6669 C 632.364 -2.49206 -2.44331 0
M  V30 6670 C 633.712 -2.91059 -3.09144 0
M  V30 6671 O 634.736 -2.49054 -2.54657 0
M  V30 6672 O 633.595 -3.63741 -4.07866 0
M  V30 6673 H 630.689 -0.523397 -0.640301 0
M  V30 6674 H 633.235 -1.54144 -0.709775 0
M  V30 6675 H 632.007 -3.40252 -1.93247 0
M  V30 6676 H 631.63 -2.29813 -3.24456 0
M  V30 6677 N 632.627 0.916307 -1.28225 0
M  V30 6678 C 634.043 1.19425 -1.05876 0
M  V30 6679 C 634.243 2.005 0.2005 0
M  V30 6680 O 633.299 2.35806 0.902873 0
M  V30 6681 C 634.612 1.93133 -2.30478 0
M  V30 6682 C 636.16 2.06026 -2.35632 0
M  V30 6683 C 636.635 2.83141 -3.59994 0
M  V30 6684 N 638.126 2.90704 -3.60618 0
M  V30 6685 C 638.861 3.50865 -4.53521 0
M  V30 6686 N 638.357 4.12327 -5.56739 0
M  V30 6687 N 640.15 3.48379 -4.41122 0
M  V30 6688 H 632.301 0.37496 -2.09064 0
M  V30 6689 H 634.564 0.228531 -0.920042 0
M  V30 6690 H 634.27 1.40985 -3.22205 0
M  V30 6691 H 634.144 2.93696 -2.36691 0
M  V30 6692 H 636.531 2.57355 -1.44404 0
M  V30 6693 H 636.612 1.04647 -2.33415 0
M  V30 6694 H 636.256 2.32492 -4.51564 0
M  V30 6695 H 636.186 3.84829 -3.59464 0
M  V30 6696 H 638.677 2.47034 -2.85977 0
M  V30 6697 H 638.99 4.56205 -6.23776 0
M  V30 6698 H 637.335 4.10839 -5.60568 0
M  V30 6699 H 640.526 2.99572 -3.59686 0
M  V30 6700 H 640.699 3.94974 -5.13712 0
M  V30 6701 N 634.105 1.10431 1.1244 0
M  V30 6702 C 635.351 0.847972 1.84221 0
M  V30 6703 C 635.684 -0.624903 1.83871 0
M  V30 6704 O 634.959 -1.46074 1.28423 0
M  V30 6705 C 635.242 1.39695 3.319 0
M  V30 6706 C 635.095 2.93668 3.40704 0
M  V30 6707 C 636.414 1.03924 4.27654 0
M  V30 6708 H 633.533 0.309502 0.668863 0
M  V30 6709 H 636.175 1.36745 1.31912 0
M  V30 6710 H 634.325 0.955095 3.76577 0
M  V30 6711 H 635.997 3.46379 3.04662 0
M  V30 6712 H 634.24 3.30272 2.81252 0
M  V30 6713 H 634.911 3.27162 4.446 0
M  V30 6714 H 637.387 1.42049 3.91102 0
M  V30 6715 H 636.263 1.45027 5.29394 0
M  V30 6716 H 636.524 -0.051336 4.4207 0
M  V30 6717 N 635.583 -1.29855 0.893053 0
M  V30 6718 C 636.999 -1.48366 0.588199 0
M  V30 6719 C 637.199 -1.81654 -0.872018 0
M  V30 6720 O 636.255 -1.909 -1.65268 0
M  V30 6721 C 637.568 -2.60136 1.5083 0
M  V30 6722 C 639.116 -2.74014 1.51279 0
M  V30 6723 C 639.591 -3.88905 2.41902 0
M  V30 6724 N 641.082 -3.96228 2.39911 0
M  V30 6725 C 641.817 -4.84458 3.06738 0
M  V30 6726 N 641.313 -5.77426 3.8282 0
M  V30 6727 N 643.106 -4.77894 2.95929 0
M  V30 6728 H 635.257 -1.06522 1.83757 0
M  V30 6729 H 637.52 -0.528495 0.787018 0
M  V30 6730 H 637.226 -2.42383 2.54839 0
M  V30 6731 H 637.1 -3.56793 1.22388 0
M  V30 6732 H 639.487 -2.91167 0.480179 0
M  V30 6733 H 639.568 -1.77952 1.83757 0
M  V30 6734 H 639.212 -3.72508 3.45253 0
M  V30 6735 H 639.142 -4.84322 2.06737 0
M  V30 6736 H 641.633 -3.29728 1.84629 0
M  V30 6737 H 641.946 -6.41529 4.30883 0
M  V30 6738 H 640.291 -5.77332 3.86927 0
M  V30 6739 H 643.482 -4.04248 2.36012 0
M  V30 6740 H 643.655 -5.46444 3.48286 0
M  V30 6741 N 637.061 -0.65484 -1.43351 0
M  V30 6742 C 637.991 0.0221809 -2.33489 0
M  V30 6743 C 638.972 0.810272 -1.49561 0
M  V30 6744 O 640.157 0.771426 -1.78221 0
M  V30 6745 C 637.287 0.988117 -3.32947 0
M  V30 6746 C 636.241 0.310026 -4.26876 0
M  V30 6747 C 635.567 1.38752 -5.16384 0
M  V30 6748 C 636.867 -0.798589 -5.16159 0
M  V30 6749 H 638.561 -0.730571 -2.9035 0
M  V30 6750 H 636.107 -0.352773 -1.39612 0
M  V30 6751 H 638.06 1.47067 -3.94904 0
M  V30 6752 H 636.784 1.77205 -2.74346 0
M  V30 6753 H 635.443 -0.152097 -3.66284 0
M  V30 6754 H 635.091 2.16293 -4.54121 0
M  V30 6755 H 634.791 0.939051 -5.80048 0
M  V30 6756 H 636.315 1.87141 -5.81215 0
M  V30 6757 H 637.729 -0.398126 -5.71916 0
M  V30 6758 H 636.126 -1.17163 -5.88552 0
M  V30 6759 H 637.196 -1.65588 -4.55751 0
M  V30 6760 N 638.539 1.52521 -0.396863 0
M  V30 6761 C 639.764 2.06571 0.185258 0
M  V30 6762 C 640.189 1.26605 1.39115 0
M  V30 6763 O 639.547 0.293055 1.78916 0
M  V30 6764 C 639.595 3.5674 0.526189 0
M  V30 6765 O 638.699 3.7929 1.61903 0
M  V30 6766 H 638.04 0.663712 0.0195474 0
M  V30 6767 H 640.57 1.966 -0.566519 0
M  V30 6768 H 640.58 4.00311 0.788338 0
M  V30 6769 H 639.255 4.14379 -0.355397 0
M  V30 6770 H 637.832 3.47605 1.35 0
M  V30 6771 N 640.017 0.126909 1.57088 0
M  V30 6772 C 640.965 -0.837618 2.16995 0
M  V30 6773 C 641.959 -1.26974 1.12133 0
M  V30 6774 O 643.165 -1.24056 1.30423 0
M  V30 6775 H 639.54 -0.288256 0.694559 0
M  V30 6776 H 641.511 -0.307957 2.96807 0
M  V30 6777 C 640.26 -2.07474 2.79016 0
M  V30 6778 H 639.583 -1.75117 3.59408 0
M  V30 6779 H 641.023 -2.72949 3.24461 0
M  V30 6780 C 639.482 -2.86967 1.76498 0
M  V30 6781 O 640.012 -3.82625 1.22316 0
M  V30 6782 N 638.218 -2.51111 1.46258 0
M  V30 6783 H 637.765 -1.73389 1.90509 0
M  V30 6784 H 637.723 -3.04594 0.779085 0
M  V30 6785 N 641.495 -1.56914 -0.146875 0
M  V30 6786 C 642.906 -1.72799 -0.706928 0
M  V30 6787 C 643.257 -0.741329 -1.81656 0
M  V30 6788 O 642.382 0.0920162 -2.16204 0
M  V30 6789 C 642.977 -3.13317 -1.28911 0
M  V30 6790 C 641.536 -3.30803 -1.79573 0
M  V30 6791 C 640.683 -2.68725 -0.684252 0
M  V30 6792 H 643.634 -1.58504 0.0787931 0
M  V30 6793 H 643.655 -3.13323 -2.15891 0
M  V30 6794 H 643.167 -3.85104 -0.481284 0
M  V30 6795 H 641.268 -2.64012 -2.62923 0
M  V30 6796 H 641.381 -4.38754 -1.92436 0
M  V30 6797 H 639.745 -2.29196 -1.11091 0
M  V30 6798 H 640.528 -3.43117 0.112134 0
M  V30 6799 N 642.974 0.416227 -1.52004 0
M  V30 6800 C 644.39 0.754319 -1.40649 0
M  V30 6801 C 644.59 1.95059 -0.505392 0
M  V30 6802 O 643.646 2.5248 0.0315057 0
M  V30 6803 C 644.959 1.0149 -2.83055 0
M  V30 6804 C 646.507 1.11805 -2.9235 0
M  V30 6805 C 646.982 1.41144 -4.35709 0
M  V30 6806 N 648.473 1.48024 -4.38911 0
M  V30 6807 C 649.208 1.72338 -5.46889 0
M  V30 6808 N 648.704 1.94303 -6.64995 0
M  V30 6809 N 650.497 1.74294 -5.34395 0
M  V30 6810 H 642.648 -0.371324 -2.09129 0
M  V30 6811 H 644.911 -0.103811 -0.942299 0
M  V30 6812 H 644.617 0.208345 -3.51082 0
M  V30 6813 H 644.491 1.93697 -3.23668 0
M  V30 6814 H 646.878 1.91521 -2.24508 0
M  V30 6815 H 646.959 0.17451 -2.55204 0
M  V30 6816 H 646.603 0.619484 -5.04108 0
M  V30 6817 H 646.533 2.36739 -4.70385 0
M  V30 6818 H 649.024 1.32868 -3.53772 0
M  V30 6819 H 649.337 2.12286 -7.43071 0
M  V30 6820 H 647.682 1.91582 -6.68073 0
M  V30 6821 H 650.873 1.56667 -4.41104 0
M  V30 6822 H 651.046 1.92904 -6.18621 0
M  V30 6823 N 644.452 1.42507 0.673017 0
M  V30 6824 C 645.7 1.42789 1.43023 0
M  V30 6825 C 646.021 0.0459738 1.94946 0
M  V30 6826 O 645.291 -0.915765 1.73178 0
M  V30 6827 H 643.871 0.525657 0.530748 0
M  V30 6828 H 646.533 1.77944 0.795113 0
M  V30 6829 H 645.629 2.12872 2.28237 0
M  V30 6830 N 645.93 -0.909495 1.28709 0
M  V30 6831 C 647.155 -1.69801 1.1909 0
M  V30 6832 C 647.58 -1.86479 -0.246388 0
M  V30 6833 O 646.938 -1.37802 -1.17815 0
M  V30 6834 C 646.986 -3.06543 1.89904 0
M  V30 6835 O 646.09 -3.94268 1.2094 0
M  V30 6836 H 645.431 -0.519783 0.413185 0
M  V30 6837 H 647.961 -1.13689 1.70106 0
M  V30 6838 H 647.971 -3.56748 1.97977 0
M  V30 6839 H 646.646 -2.93722 2.94449 0
M  V30 6840 H 645.223 -3.52702 1.2106 0
M  V30 6841 N 647.408 -1.11026 -1.11852 0
M  V30 6842 C 648.356 -0.759643 -2.19846 0
M  V30 6843 C 649.35 0.246964 -1.6759 0
M  V30 6844 O 650.556 0.106693 -1.79684 0
M  V30 6845 H 646.931 -0.22775 -0.716683 0
M  V30 6846 H 648.902 -1.6792 -2.46669 0
M  V30 6847 C 647.651 -0.214364 -3.47039 0
M  V30 6848 H 646.974 -0.980175 -3.87599 0
M  V30 6849 H 648.414 -0.00717047 -4.23999 0
M  V30 6850 C 646.873 1.05436 -3.19976 0
M  V30 6851 O 647.403 2.13483 -3.40276 0
M  V30 6852 N 645.609 0.975436 -2.7374 0
M  V30 6853 H 645.156 0.0960853 -2.57421 0
M  V30 6854 H 645.114 1.82501 -2.5601 0
M  V30 6855 N 648.886 1.2938 -0.899927 0
M  V30 6856 C 650.114 1.99691 -0.541386 0
M  V30 6857 C 650.529 1.67355 0.873936 0
M  V30 6858 O 649.886 0.918728 1.57688 0
M  V30 6859 C 649.937 3.54168 -0.72438 0
M  V30 6860 O 649.658 3.85359 -2.08399 0
M  V30 6861 C 651.159 4.41746 -0.370819 0
M  V30 6862 H 648.379 0.638037 -0.207726 0
M  V30 6863 H 650.923 1.6491 -1.20934 0
M  V30 6864 H 649.078 3.87261 -0.103607 0
M  V30 6865 H 649.492 4.80032 -2.11352 0
M  V30 6866 H 650.966 5.49256 -0.549693 0
M  V30 6867 H 651.443 4.33712 0.692148 0
M  V30 6868 H 652.049 4.14125 -0.968543 0
M  V30 6869 N 650.364 0.662433 1.43002 0
M  V30 6870 C 651.311 -0.0235324 2.30788 0
M  V30 6871 C 652.281 -0.805342 1.4527 0
M  V30 6872 O 653.466 -0.78009 1.74124 0
M  V30 6873 C 650.606 -0.977545 3.30965 0
M  V30 6874 C 649.719 -0.190865 4.31578 0
M  V30 6875 C 648.854 -1.13951 5.18834 0
M  V30 6876 C 647.893 -0.343796 6.11134 0
M  V30 6877 N 647.03 -1.2445 6.90982 0
M  V30 6878 H 651.87 0.730921 2.88897 0
M  V30 6879 H 649.407 0.372197 1.42313 0
M  V30 6880 H 651.365 -1.54437 3.87563 0
M  V30 6881 H 649.995 -1.69877 2.74484 0
M  V30 6882 H 649.047 0.492388 3.772 0
M  V30 6883 H 650.359 0.427464 4.96965 0
M  V30 6884 H 649.513 -1.77666 5.80103 0
M  V30 6885 H 648.252 -1.79174 4.53595 0
M  V30 6886 H 647.257 0.30665 5.48944 0
M  V30 6887 H 648.482 0.304161 6.78419 0
M  V30 6888 H 646.428 -1.88336 6.28383 0
M  V30 6889 H 646.345 -0.680959 7.52927 0
M  V30 6890 H 647.613 -1.86952 7.56749 0
M  V30 6891 N 651.842 -1.52309 0.404946 0
M  V30 6892 C 653.09 -2.01368 -0.17186 0
M  V30 6893 C 653.411 -1.29261 -1.46002 0
M  V30 6894 O 652.681 -0.41729 -1.91404 0
M  V30 6895 H 651.261 -0.744034 -0.0664993 0
M  V30 6896 H 653.923 -1.87263 0.540228 0
M  V30 6897 H 653.019 -3.09888 -0.370957 0
M  V30 6898 N 653.32 -0.135238 -1.57019 0
M  V30 6899 C 654.267 0.808908 -2.1616 0
M  V30 6900 C 655.237 1.25234 -1.09113 0
M  V30 6901 O 656.422 1.32697 -1.37099 0
M  V30 6902 C 653.562 2.04729 -2.77813 0
M  V30 6903 C 652.675 1.65074 -3.99218 0
M  V30 6904 C 651.81 2.84002 -4.48906 0
M  V30 6905 C 650.849 2.40663 -5.62803 0
M  V30 6906 N 649.986 3.5256 -6.07162 0
M  V30 6907 H 654.826 0.297751 -2.96509 0
M  V30 6908 H 652.363 0.135264 -1.46477 0
M  V30 6909 H 654.321 2.7731 -3.11697 0
M  V30 6910 H 652.951 2.53275 -2.00128 0
M  V30 6911 H 652.003 0.823029 -3.7139 0
M  V30 6912 H 653.315 1.29236 -4.81767 0
M  V30 6913 H 652.469 3.64788 -4.84783 0
M  V30 6914 H 651.208 3.23076 -3.65339 0
M  V30 6915 H 650.213 1.58314 -5.26514 0
M  V30 6916 H 651.438 2.02687 -6.48147 0
M  V30 6917 H 649.384 3.91278 -5.26534 0
M  V30 6918 H 649.301 3.20699 -6.84608 0
M  V30 6919 H 650.569 4.33738 -6.47682 0
M  V30 6920 N 654.798 1.5699 0.138552 0
M  V30 6921 C 655.728 2.01933 1.17241 0
M  V30 6922 C 656.709 0.90033 1.44319 0
M  V30 6923 O 657.894 1.16872 1.55095 0
M  V30 6924 C 655.024 2.40711 2.50351 0
M  V30 6925 C 653.978 3.55874 2.37776 0
M  V30 6926 C 653.304 3.80491 3.75674 0
M  V30 6927 C 654.604 4.8826 1.85472 0
M  V30 6928 H 656.298 2.88551 0.798672 0
M  V30 6929 H 653.844 1.3882 0.382743 0
M  V30 6930 H 655.797 2.70754 3.22909 0
M  V30 6931 H 654.521 1.5104 2.89576 0
M  V30 6932 H 653.18 3.2601 1.67669 0
M  V30 6933 H 652.828 2.88057 4.12349 0
M  V30 6934 H 652.528 4.57998 3.68119 0
M  V30 6935 H 654.052 4.12967 4.49767 0
M  V30 6936 H 655.466 5.16965 2.4783 0
M  V30 6937 H 653.863 5.69631 1.88787 0
M  V30 6938 H 654.933 4.78071 0.810935 0
M  V30 6939 N 656.276 -0.40816 1.52223 0
M  V30 6940 C 657.523 -1.15502 1.66329 0
M  V30 6941 C 657.851 -1.90474 0.393701 0
M  V30 6942 O 657.106 -1.85507 -0.623356 0
M  V30 6943 C 657.405 -2.17422 2.83659 0
M  V30 6944 C 657.071 -1.5925 4.21841 0
M  V30 6945 C 655.733 -1.4311 4.59427 0
M  V30 6946 C 658.085 -1.16776 5.0795 0
M  V30 6947 C 655.413 -0.830148 5.80797 0
M  V30 6948 C 657.765 -0.580988 6.29926 0
M  V30 6949 C 656.429 -0.406729 6.6626 0
M  V30 6950 H 655.699 -0.422653 0.608642 0
M  V30 6951 H 658.346 -0.442114 1.86327 0
M  V30 6952 H 656.651 -2.94861 2.58001 0
M  V30 6953 H 658.348 -2.75084 2.9177 0
M  V30 6954 H 654.938 -1.72796 3.92224 0
M  V30 6955 H 659.122 -1.28055 4.79495 0
M  V30 6956 H 654.378 -0.68316 6.07571 0
M  V30 6957 H 658.552 -0.243488 6.95974 0
M  V30 6958 H 656.179 0.0610366 7.60175 0
M  V30 6959 N 657.755 -1.42862 -0.66545 0
M  V30 6960 C 658.983 -1.47246 -1.45349 0
M  V30 6961 C 659.398 -0.0865944 -1.88601 0
M  V30 6962 O 658.755 0.900652 -1.58728 0
M  V30 6963 C 658.806 -2.40772 -2.6965 0
M  V30 6964 O 658.527 -3.73968 -2.2821 0
M  V30 6965 C 660.028 -2.54272 -3.63126 0
M  V30 6966 H 657.248 -0.500497 -0.446927 0
M  V30 6967 H 659.792 -1.87477 -0.816871 0
M  V30 6968 H 657.947 -2.0377 -3.29479 0
M  V30 6969 H 658.361 -4.24146 -3.08546 0
M  V30 6970 H 659.835 -3.23815 -4.47043 0
M  V30 6971 H 660.312 -1.58364 -4.09656 0
M  V30 6972 H 660.918 -2.92036 -3.09185 0
M  V30 6973 N 659.233 0.902656 -1.29189 0
M  V30 6974 C 660.644 1.46809 -1.15343 0
M  V30 6975 C 660.995 1.94568 0.252517 0
M  V30 6976 O 660.12 1.83454 1.14777 0
M  V30 6977 C 660.715 2.66829 -2.08776 0
M  V30 6978 C 659.274 3.19518 -1.98961 0
M  V30 6979 C 658.421 1.92212 -1.99874 0
M  V30 6980 H 661.372 0.714282 -1.41717 0
M  V30 6981 H 661.393 3.42465 -1.65826 0
M  V30 6982 H 660.905 2.32039 -3.11094 0
M  V30 6983 H 659.006 3.59008 -0.99721 0
M  V30 6984 H 659.119 3.84016 -2.86477 0
M  V30 6985 H 657.483 2.0979 -1.44431 0
M  V30 6986 H 658.266 1.59702 -3.03891 0
M  V30 6987 N 660.711 1.11618 1.11262 0
M  V30 6988 C 661.641 0.79846 2.19424 0
M  V30 6989 C 662.622 -0.234003 1.68483 0
M  V30 6990 O 663.807 -0.0970704 1.93957 0
M  V30 6991 C 660.937 0.242892 3.4645 0
M  V30 6992 C 659.891 1.20744 4.10615 0
M  V30 6993 C 659.217 0.512494 5.32238 0
M  V30 6994 C 660.517 2.55884 4.55325 0
M  V30 6995 H 662.211 1.70286 2.46258 0
M  V30 6996 H 659.757 0.820195 1.18359 0
M  V30 6997 H 661.71 0.00840447 4.21399 0
M  V30 6998 H 660.434 -0.696811 3.1908 0
M  V30 6999 H 659.093 1.42759 3.37662 0
M  V30 7000 H 658.741 -0.432075 5.01141 0
M  V30 7001 H 658.441 1.15583 5.7612 0
M  V30 7002 H 659.965 0.286842 6.09926 0
M  V30 7003 H 661.379 2.37946 5.21588 0
M  V30 7004 H 659.776 3.16216 5.10027 0
M  V30 7005 H 660.846 3.14968 3.68678 0
M  V30 7006 N 662.189 -1.289 0.906776 0
M  V30 7007 C 663.137 -2.29477 0.379873 0
M  V30 7008 C 664.131 -1.61068 -0.524747 0
M  V30 7009 O 665.337 -1.75344 -0.406765 0
M  V30 7010 H 661.712 -0.744742 0.10423 0
M  V30 7011 H 663.683 -2.71353 1.24137 0
M  V30 7012 C 662.432 -3.45713 -0.371154 0
M  V30 7013 H 661.755 -3.98551 0.315716 0
M  V30 7014 H 663.195 -4.18105 -0.704581 0
M  V30 7015 C 661.654 -2.9774 -1.57646 0
M  V30 7016 O 662.184 -2.99618 -2.67567 0
M  V30 7017 N 660.39 -2.53485 -1.42105 0
M  V30 7018 H 659.937 -2.52156 -0.526783 0
M  V30 7019 H 659.895 -2.21747 -2.22881 0
M  V30 7020 N 663.667 -0.670007 -1.42649 0
M  V30 7021 C 664.913 -0.190568 -2.01903 0
M  V30 7022 C 665.246 1.19817 -1.52832 0
M  V30 7023 O 664.521 1.80342 -0.728485 0
M  V30 7024 C 664.804 -0.21991 -3.59428 0
M  V30 7025 C 664.657 -1.64376 -4.18689 0
M  V30 7026 C 665.976 0.434519 -4.3795 0
M  V30 7027 H 663.095 -0.0707219 -0.733599 0
M  V30 7028 H 665.737 -0.853883 -1.69732 0
M  V30 7029 H 663.887 0.344894 -3.86966 0
M  V30 7030 H 665.559 -2.26044 -4.02122 0
M  V30 7031 H 663.802 -2.18591 -3.747 0
M  V30 7032 H 664.473 -1.61601 -5.27815 0
M  V30 7033 H 666.949 -0.0462156 -4.16074 0
M  V30 7034 H 665.825 0.38333 -5.4756 0
M  V30 7035 H 666.086 1.51135 -4.15464 0
M  V30 7036 N 665.145 1.52092 -0.413018 0
M  V30 7037 C 666.422 1.94356 0.22024 0
M  V30 7038 C 666.802 1.35017 1.62277 0
M  V30 7039 O 666.15 0.527511 2.22328 0
M  V30 7040 C 666.36 3.48289 0.222638 0
M  V30 7041 C 667.708 4.22313 0.440098 0
M  V30 7042 O 668.732 3.54919 0.301826 0
M  V30 7043 O 667.591 5.41829 0.712984 0
M  V30 7044 H 664.685 0.814536 0.14304 0
M  V30 7045 H 667.231 1.63083 -0.469242 0
M  V30 7046 H 666.003 3.83872 -0.758836 0
M  V30 7047 H 665.626 3.85934 0.956057 0
M  V30 7048 N 666.623 0.143563 1.56945 0
M  V30 7049 C 667.586 -0.783295 2.154 0
M  V30 7050 C 668.586 -1.17763 1.09492 0
M  V30 7051 O 669.776 -1.09912 1.35148 0
M  V30 7052 C 666.908 -2.06248 2.7143 0
M  V30 7053 H 668.101 -0.274863 2.98638 0
M  V30 7054 H 665.654 -0.105859 1.55941 0
M  V30 7055 H 666.389 -2.61466 1.91849 0
M  V30 7056 H 666.174 -1.78897 3.4891 0
M  V30 7057 H 667.664 -2.72453 3.16479 0
M  V30 7058 N 668.101 -1.57061 -0.130224 0
M  V30 7059 C 669.35 -1.83446 -0.838488 0
M  V30 7060 C 669.663 -0.727468 -1.81569 0
M  V30 7061 O 670.869 -0.877394 -2.56932 0
M  V30 7062 C 669.325 -3.25201 -1.54182 0
M  V30 7063 C 668.933 -4.4388 -0.606178 0
M  V30 7064 C 670.677 -3.60844 -2.23588 0
M  V30 7065 C 668.584 -5.76661 -1.31209 0
M  V30 7066 H 667.514 -0.684185 -0.316871 0
M  V30 7067 H 670.165 -1.83273 -0.0912059 0
M  V30 7068 H 668.547 -3.1981 -2.33533 0
M  V30 7069 H 669.721 -4.60545 0.153308 0
M  V30 7070 H 668.036 -4.16395 -0.0196705 0
M  V30 7071 H 670.633 -4.57313 -2.77072 0
M  V30 7072 H 670.976 -2.87724 -3.00867 0
M  V30 7073 H 671.509 -3.67971 -1.51137 0
M  V30 7074 H 668.248 -6.52922 -0.580823 0
M  V30 7075 H 667.768 -5.63902 -2.04387 0
M  V30 7076 H 669.447 -6.20035 -1.8484 0
M  V30 7077 N 669.579 0.400081 -1.52437 0
M  V30 7078 C 670.489 1.51253 -1.79331 0
M  V30 7079 C 671.505 1.60188 -0.679396 0
M  V30 7080 O 672.681 1.76733 -0.965791 0
M  V30 7081 C 669.746 2.869 -1.94652 0
M  V30 7082 C 668.807 2.87777 -3.18564 0
M  V30 7083 C 668.04 4.16954 -3.33145 0
M  V30 7084 O 668.263 5.11329 -2.52783 0
M  V30 7085 O 667.197 4.2487 -4.26343 0
M  V30 7086 H 671.023 1.31461 -2.73773 0
M  V30 7087 H 668.608 0.586834 -1.37392 0
M  V30 7088 H 670.49 3.67336 -2.065 0
M  V30 7089 H 669.165 3.06741 -1.034 0
M  V30 7090 H 668.072 2.06162 -3.12167 0
M  V30 7091 H 669.405 2.72886 -4.09627 0
M  V30 7092 N 671.057 1.43213 0.657864 0
M  V30 7093 C 671.967 1.50448 1.80007 0
M  V30 7094 C 672.983 0.39191 1.69529 0
M  V30 7095 O 674.159 0.645349 1.90781 0
M  V30 7096 C 671.224 1.42062 3.16258 0
M  V30 7097 C 670.285 2.63951 3.38568 0
M  V30 7098 C 669.518 2.55956 4.68318 0
M  V30 7099 O 669.741 1.60473 5.47361 0
M  V30 7100 O 668.675 3.46378 4.92245 0
M  V30 7101 H 672.501 2.4689 1.76858 0
M  V30 7102 H 670.086 1.25163 0.81576 0
M  V30 7103 H 671.968 1.3981 3.97531 0
M  V30 7104 H 670.643 0.487524 3.20008 0
M  V30 7105 H 669.55 2.71776 2.57077 0
M  V30 7106 H 670.883 3.56217 3.39662 0
M  V30 7107 N 672.536 -0.895792 1.29666 0
M  V30 7108 C 673.761 -1.68528 1.20885 0
M  V30 7109 C 674.186 -1.8673 -0.226595 0
M  V30 7110 O 673.544 -1.39044 -1.16347 0
M  V30 7111 C 673.592 -3.04512 1.93144 0
M  V30 7112 O 672.696 -3.92963 1.25115 0
M  V30 7113 H 672.037 -0.515371 0.418675 0
M  V30 7114 H 674.567 -1.11878 1.71302 0
M  V30 7115 H 674.577 -3.54628 2.0175 0
M  V30 7116 H 673.252 -2.90582 2.97548 0
M  V30 7117 H 671.829 -3.51399 1.24794 0
M  V30 7118 N 674.014 -1.12206 -1.10668 0
M  V30 7119 C 675.425 -0.890657 -1.64086 0
M  V30 7120 C 675.776 0.575502 -1.8757 0
M  V30 7121 O 674.901 1.4394 -1.61587 0
M  V30 7122 C 675.496 -1.61029 -2.98085 0
M  V30 7123 C 674.055 -1.4251 -3.48379 0
M  V30 7124 C 673.202 -1.64778 -2.23033 0
M  V30 7125 H 676.153 -1.27718 -0.94201 0
M  V30 7126 H 676.174 -1.05993 -3.65439 0
M  V30 7127 H 675.686 -2.67735 -2.80962 0
M  V30 7128 H 673.787 -0.380497 -3.70652 0
M  V30 7129 H 673.9 -2.17959 -4.26651 0
M  V30 7130 H 672.264 -1.07171 -2.31055 0
M  V30 7131 H 673.047 -2.72776 -2.08443 0
M  V30 7132 N 675.492 1.28418 -0.913599 0
M  V30 7133 C 676.717 1.99643 -0.561899 0
M  V30 7134 C 677.142 1.67819 0.849608 0
M  V30 7135 O 676.5 0.910503 1.56779 0
M  V30 7136 C 676.548 3.52116 -0.777622 0
M  V30 7137 O 675.652 4.12076 0.163457 0
M  V30 7138 H 674.993 0.627229 -0.217898 0
M  V30 7139 H 677.523 1.63575 -1.229 0
M  V30 7140 H 677.533 4.02163 -0.687666 0
M  V30 7141 H 676.208 3.74613 -1.8066 0
M  V30 7142 H 674.785 3.72892 0.0247827 0
M  V30 7143 N 676.97 0.677563 1.42291 0
M  V30 7144 C 677.917 0.000947061 2.308 0
M  V30 7145 C 678.887 -0.789889 1.46116 0
M  V30 7146 O 680.072 -0.761578 1.74942 0
M  V30 7147 C 677.212 -0.942387 3.31984 0
M  V30 7148 C 676.325 -0.14508 4.31756 0
M  V30 7149 C 675.46 -1.08442 5.20013 0
M  V30 7150 C 674.499 -0.278958 6.11464 0
M  V30 7151 N 673.636 -1.17115 6.92263 0
M  V30 7152 H 678.476 0.761521 2.88106 0
M  V30 7153 H 676.013 0.38727 1.41911 0
M  V30 7154 H 677.971 -1.50317 3.89179 0
M  V30 7155 H 676.601 -1.66956 2.76271 0
M  V30 7156 H 675.653 0.532368 3.76656 0
M  V30 7157 H 676.965 0.48015 4.96484 0
M  V30 7158 H 676.119 -1.71504 5.81955 0
M  V30 7159 H 674.858 -1.74353 4.55469 0
M  V30 7160 H 673.863 0.364856 5.48588 0
M  V30 7161 H 675.088 0.376099 6.78058 0
M  V30 7162 H 673.034 -1.81661 6.30345 0
M  V30 7163 H 672.951 -0.601063 7.53607 0
M  V30 7164 H 674.219 -1.78915 7.58689 0
M  V30 7165 N 678.448 -1.51871 0.421078 0
M  V30 7166 C 679.358 -2.31077 -0.405069 0
M  V30 7167 C 680.374 -1.39301 -1.04265 0
M  V30 7168 O 681.55 -1.72376 -1.04157 0
M  V30 7169 C 678.615 -3.12556 -1.50032 0
M  V30 7170 C 677.676 -4.20088 -0.884559 0
M  V30 7171 C 676.909 -4.97673 -1.92762 0
M  V30 7172 O 677.132 -4.75696 -3.14753 0
M  V30 7173 O 676.066 -5.82203 -1.52719 0
M  V30 7174 H 679.892 -3.02742 0.241086 0
M  V30 7175 H 677.477 -1.48263 0.183991 0
M  V30 7176 H 679.359 -3.6326 -2.13589 0
M  V30 7177 H 678.034 -2.43672 -2.13086 0
M  V30 7178 H 676.941 -3.73502 -0.211379 0
M  V30 7179 H 678.274 -4.91298 -0.297763 0
M  V30 7180 N 679.926 -0.151884 -1.56866 0
M  V30 7181 C 681.337 0.368128 -1.83035 0
M  V30 7182 C 681.688 1.64402 -1.07082 0
M  V30 7183 O 680.813 2.14056 -0.317647 0
M  V30 7184 C 681.408 0.674676 -3.32014 0
M  V30 7185 C 679.967 1.13919 -3.58747 0
M  V30 7186 C 679.114 0.164833 -2.7681 0
M  V30 7187 H 682.065 -0.376499 -1.54169 0
M  V30 7188 H 682.086 1.52883 -3.48435 0
M  V30 7189 H 681.598 -0.254113 -3.87267 0
M  V30 7190 H 679.699 2.08375 -3.08886 0
M  V30 7191 H 679.812 1.06179 -4.67186 0
M  V30 7192 H 678.176 0.658419 -2.46043 0
M  V30 7193 H 678.959 -0.757633 -3.34836 0
M  V30 7194 N 681.404 1.57128 0.121893 0
M  V30 7195 C 682.351 2.0013 1.14964 0
M  V30 7196 C 683.321 0.872959 1.4131 0
M  V30 7197 O 684.506 1.13696 1.53225 0
M  V30 7198 C 681.646 2.40824 2.4718 0
M  V30 7199 C 680.759 3.67061 2.27794 0
M  V30 7200 C 679.894 3.96749 3.53219 0
M  V30 7201 C 678.933 5.16178 3.28978 0
M  V30 7202 N 678.07 5.41751 4.46599 0
M  V30 7203 H 682.91 2.8772 0.775947 0
M  V30 7204 H 680.447 1.42328 0.371652 0
M  V30 7205 H 682.405 2.62454 3.24305 0
M  V30 7206 H 681.035 1.56279 2.82448 0
M  V30 7207 H 680.087 3.53063 1.416 0
M  V30 7208 H 681.399 4.5434 2.05857 0
M  V30 7209 H 680.553 4.19012 4.38764 0
M  V30 7210 H 679.292 3.07941 3.78185 0
M  V30 7211 H 678.297 4.93762 2.41824 0
M  V30 7212 H 679.522 6.06561 3.05386 0
M  V30 7213 H 677.468 4.55899 4.71691 0
M  V30 7214 H 677.385 6.23347 4.27756 0
M  V30 7215 H 678.653 5.68531 5.33285 0
M  V30 7216 N 682.882 -0.391992 1.52647 0
M  V30 7217 C 684.293 -0.970064 1.5952 0
M  V30 7218 C 684.644 -1.91059 0.446207 0
M  V30 7219 O 683.769 -2.12062 -0.431125 0
M  V30 7220 C 684.364 -1.76614 2.89125 0
M  V30 7221 C 682.923 -2.29396 2.9842 0
M  V30 7222 C 682.07 -1.09864 2.54608 0
M  V30 7223 H 685.021 -0.171638 1.57769 0
M  V30 7224 H 685.042 -2.62511 2.75442 0
M  V30 7225 H 684.554 -1.08135 3.72731 0
M  V30 7226 H 682.655 -3.01196 2.19344 0
M  V30 7227 H 682.768 -2.59088 4.03002 0
M  V30 7228 H 681.132 -1.45777 2.08857 0
M  V30 7229 H 681.915 -0.429249 3.40606 0
M  V30 7230 N 684.36 -1.4356 -0.65026 0
M  V30 7231 C 685.606 -1.45549 -1.41221 0
M  V30 7232 C 685.939 -0.0805472 -1.94033 0
M  V30 7233 O 685.214 0.899043 -1.72475 0
M  V30 7234 C 685.497 -2.50028 -2.59148 0
M  V30 7235 C 685.35 -3.96808 -2.1181 0
M  V30 7236 C 686.669 -2.51212 -3.61359 0
M  V30 7237 H 683.788 -0.529967 -0.512156 0
M  V30 7238 H 686.43 -1.75127 -0.736933 0
M  V30 7239 H 684.58 -2.24937 -3.16758 0
M  V30 7240 H 686.252 -4.32966 -1.59178 0
M  V30 7241 H 684.495 -4.09498 -1.43156 0
M  V30 7242 H 685.166 -4.6553 -2.96625 0
M  V30 7243 H 687.642 -2.73583 -3.13515 0
M  V30 7244 H 686.518 -3.26252 -4.41419 0
M  V30 7245 H 686.779 -1.54701 -4.1415 0
M  V30 7246 N 685.838 0.888903 -1.30139 0
M  V30 7247 C 687.086 1.63713 -1.18501 0
M  V30 7248 C 687.407 1.9324 0.261399 0
M  V30 7249 O 686.677 1.56608 1.17689 0
M  V30 7250 H 685.257 0.606861 -0.435579 0
M  V30 7251 H 687.919 1.06525 -1.63213 0
M  V30 7252 H 687.015 2.58894 -1.743 0
M  V30 7253 N 687.317 1.12792 1.10072 0
M  V30 7254 C 688.247 0.821688 2.18565 0
M  V30 7255 C 689.228 -0.21612 1.68721 0
M  V30 7256 O 690.413 -0.0764932 1.94049 0
M  V30 7257 C 687.543 0.279624 3.46172 0
M  V30 7258 C 686.497 1.25092 4.09312 0
M  V30 7259 C 685.823 0.568916 5.31665 0
M  V30 7260 C 687.123 2.60699 4.52585 0
M  V30 7261 H 688.817 1.72888 2.44438 0
M  V30 7262 H 686.363 0.832702 1.17482 0
M  V30 7263 H 688.316 0.053099 4.21367 0
M  V30 7264 H 687.04 -0.662929 3.19801 0
M  V30 7265 H 685.699 1.46332 3.36129 0
M  V30 7266 H 685.347 -0.378898 5.01571 0
M  V30 7267 H 685.047 1.21687 5.74862 0
M  V30 7268 H 686.571 0.351517 6.09587 0
M  V30 7269 H 687.985 2.43465 5.19035 0
M  V30 7270 H 686.382 3.21608 5.06644 0
M  V30 7271 H 687.452 3.1886 3.65317 0
M  V30 7272 N 688.795 -1.27931 0.920396 0
M  V30 7273 C 689.743 -2.29061 0.404191 0
M  V30 7274 C 690.737 -1.61615 -0.507634 0
M  V30 7275 O 691.943 -1.75765 -0.388144 0
M  V30 7276 H 688.318 -0.743594 0.112123 0
M  V30 7277 H 690.289 -2.70021 1.27008 0
M  V30 7278 C 689.038 -3.46088 -0.334466 0
M  V30 7279 H 688.361 -3.98194 0.35797 0
M  V30 7280 H 689.801 -4.18829 -0.660196 0
M  V30 7281 C 688.26 -2.99396 -1.54479 0
M  V30 7282 O 688.79 -3.02439 -2.64374 0
M  V30 7283 N 686.996 -2.54978 -1.39408 0
M  V30 7284 H 686.543 -2.52701 -0.500009 0
M  V30 7285 H 686.501 -2.24098 -2.20516 0
M  V30 7286 N 690.273 -0.685099 -1.4193 0
M  V30 7287 C 691.221 -0.00165985 -2.326 0
M  V30 7288 C 692.215 0.779678 -1.50391 0
M  V30 7289 O 693.421 0.68648 -1.66395 0
M  V30 7290 H 689.796 0.0182616 -0.751778 0
M  V30 7291 H 691.767 -0.783592 -2.87928 0
M  V30 7292 C 690.516 0.928385 -3.35077 0
M  V30 7293 H 689.839 0.336578 -3.98381 0
M  V30 7294 H 691.279 1.37509 -4.01083 0
M  V30 7295 C 689.738 2.03964 -2.68142 0
M  V30 7296 O 690.268 3.12727 -2.5212 0
M  V30 7297 N 688.474 1.81433 -2.27003 0
M  V30 7298 H 688.021 0.929807 -2.40234 0
M  V30 7299 H 687.979 2.55973 -1.82552 0
M  V30 7300 N 691.751 1.51645 -0.429126 0
M  V30 7301 C 692.698 2.27542 0.386446 0
M  V30 7302 C 693.668 1.30786 1.02393 0
M  V30 7303 O 694.853 1.59678 1.0444 0
M  V30 7304 C 691.993 3.11457 1.48623 0
M  V30 7305 C 691.106 4.23196 0.867691 0
M  V30 7306 C 690.241 4.94435 1.94183 0
M  V30 7307 C 689.28 5.98108 1.30129 0
M  V30 7308 N 688.417 6.62786 2.31644 0
M  V30 7309 H 693.257 2.968 -0.267155 0
M  V30 7310 H 690.794 1.46397 -0.143591 0
M  V30 7311 H 692.752 3.58429 2.13506 0
M  V30 7312 H 691.382 2.44329 2.10957 0
M  V30 7313 H 690.434 3.80248 0.107373 0
M  V30 7314 H 691.746 4.97499 0.35997 0
M  V30 7315 H 690.9 5.44914 2.66747 0
M  V30 7316 H 689.639 4.19744 2.48326 0
M  V30 7317 H 688.644 5.4693 0.561082 0
M  V30 7318 H 689.869 6.74751 0.767303 0
M  V30 7319 H 687.815 5.90913 2.84883 0
M  V30 7320 H 687.732 7.32828 1.85741 0
M  V30 7321 H 689 7.17897 3.03717 0
M  V30 7322 N 693.229 0.160201 1.56784 0
M  V30 7323 C 694.139 -0.787167 2.21 0
M  V30 7324 C 695.155 -1.26167 1.19825 0
M  V30 7325 O 696.331 -1.31611 1.52448 0
M  V30 7326 C 693.396 -2.00364 2.8294 0
M  V30 7327 C 692.457 -1.5771 3.99282 0
M  V30 7328 C 691.69 -2.73558 4.58259 0
M  V30 7329 O 691.913 -3.90129 4.16119 0
M  V30 7330 O 690.847 -2.48271 5.48311 0
M  V30 7331 H 694.673 -0.270462 3.02493 0
M  V30 7332 H 692.258 -0.0674666 1.49248 0
M  V30 7333 H 694.14 -2.71529 3.22257 0
M  V30 7334 H 692.815 -2.50961 2.04451 0
M  V30 7335 H 691.722 -0.835274 3.64656 0
M  V30 7336 H 693.055 -1.11815 4.79331 0
M  V30 7337 N 694.707 -1.5719 -0.113559 0
M  V30 7338 C 696.123 -1.52607 -0.467253 0
M  V30 7339 C 696.323 -0.874058 -1.81556 0
M  V30 7340 O 695.379 -0.458703 -2.48299 0
M  V30 7341 C 696.692 -2.97363 -0.446736 0
M  V30 7342 C 698.24 -3.08482 -0.529903 0
M  V30 7343 C 698.715 -4.54809 -0.539721 0
M  V30 7344 N 700.206 -4.59284 -0.601005 0
M  V30 7345 C 700.941 -5.69927 -0.630138 0
M  V30 7346 N 700.437 -6.90051 -0.616589 0
M  V30 7347 N 702.23 -5.5805 -0.673558 0
M  V30 7348 H 694.381 -1.97958 0.769819 0
M  V30 7349 H 696.644 -0.90428 0.284572 0
M  V30 7350 H 696.35 -3.48458 0.47643 0
M  V30 7351 H 696.224 -3.55086 -1.27254 0
M  V30 7352 H 698.611 -2.57386 -1.44349 0
M  V30 7353 H 698.692 -2.53744 0.323695 0
M  V30 7354 H 698.336 -5.06552 0.369843 0
M  V30 7355 H 698.266 -5.07364 -1.41028 0
M  V30 7356 H 700.757 -3.72822 -0.617419 0
M  V30 7357 H 701.07 -7.70132 -0.641592 0
M  V30 7358 H 699.415 -6.92543 -0.583927 0
M  V30 7359 H 702.606 -4.63112 -0.681544 0
M  V30 7360 H 702.779 -6.44286 -0.692794 0
M  V30 7361 N 696.185 0.383891 -1.52853 0
M  V30 7362 C 697.432 1.12842 -1.68146 0
M  V30 7363 C 697.76 1.89823 -0.423954 0
M  V30 7364 O 697.015 1.86475 0.593765 0
M  V30 7365 C 697.314 2.12881 -2.87082 0
M  V30 7366 C 696.98 1.52519 -4.24322 0
M  V30 7367 C 695.642 1.35783 -4.61645 0
M  V30 7368 C 697.994 1.0868 -5.09743 0
M  V30 7369 C 695.322 0.737643 -5.82044 0
M  V30 7370 C 697.674 0.480699 -6.30771 0
M  V30 7371 C 696.338 0.300681 -6.66822 0
M  V30 7372 H 695.608 0.412917 -0.615289 0
M  V30 7373 H 698.255 0.412416 -1.87006 0
M  V30 7374 H 696.56 2.90719 -2.62659 0
M  V30 7375 H 698.257 2.70408 -2.96109 0
M  V30 7376 H 694.847 1.66534 -3.94923 0
M  V30 7377 H 699.031 1.2041 -4.81472 0
M  V30 7378 H 694.287 0.586415 -6.08581 0
M  V30 7379 H 698.461 0.132733 -6.96273 0
M  V30 7380 H 696.088 -0.181966 -7.59982 0
M  V30 7381 N 697.663 1.43903 0.642637 0
M  V30 7382 C 699.079 1.27536 0.959519 0
M  V30 7383 C 699.279 0.202751 2.00477 0
M  V30 7384 O 698.335 -0.415256 2.49062 0
M  V30 7385 C 699.648 2.6432 1.43372 0
M  V30 7386 C 701.196 2.71937 1.54981 0
M  V30 7387 C 701.671 4.09164 2.05789 0
M  V30 7388 N 703.162 4.11282 2.13076 0
M  V30 7389 C 703.897 5.14303 2.53534 0
M  V30 7390 N 703.393 6.27693 2.93212 0
M  V30 7391 N 705.186 5.01657 2.53567 0
M  V30 7392 H 697.337 2.12344 -0.0488376 0
M  V30 7393 H 699.6 0.947124 0.0407559 0
M  V30 7394 H 699.306 3.43826 0.740048 0
M  V30 7395 H 699.18 2.90432 2.40685 0
M  V30 7396 H 701.567 1.92757 2.23448 0
M  V30 7397 H 701.648 2.49578 0.560739 0
M  V30 7398 H 701.292 4.88815 1.37921 0
M  V30 7399 H 701.222 4.28893 3.05546 0
M  V30 7400 H 703.713 3.2944 1.85143 0
M  V30 7401 H 704.026 7.02125 3.22863 0
M  V30 7402 H 702.371 6.31149 2.90991 0
M  V30 7403 H 705.562 4.12134 2.21952 0
M  V30 7404 H 705.735 5.82072 2.84774 0
M  V30 7405 N 699.141 -0.881989 1.30609 0
M  V30 7406 C 700.369 -1.66711 1.22536 0
M  V30 7407 C 700.784 -1.87614 -0.2113 0
M  V30 7408 O 700.141 -1.42576 -1.13923 0
M  V30 7409 C 700.192 -3.04182 1.95335 0
M  V30 7410 O 699.913 -2.8422 3.33393 0
M  V30 7411 C 701.414 -3.98617 1.93956 0
M  V30 7412 H 698.634 -0.520124 0.423925 0
M  V30 7413 H 701.178 -1.10174 1.72285 0
M  V30 7414 H 699.333 -3.57442 1.49378 0
M  V30 7415 H 699.747 -3.71452 3.70302 0
M  V30 7416 H 701.221 -4.92433 2.49426 0
M  V30 7417 H 701.698 -4.29473 0.919198 0
M  V30 7418 H 702.304 -3.51292 2.39738 0
M  V30 7419 N 700.619 -1.13374 -1.09472 0
M  V30 7420 C 701.582 -0.813639 -2.14272 0
M  V30 7421 C 702.582 0.176677 -1.59826 0
M  V30 7422 O 703.772 -0.0503441 -1.74127 0
M  V30 7423 C 700.904 -0.210897 -3.40247 0
M  V30 7424 H 702.097 -1.74229 -2.44099 0
M  V30 7425 H 699.65 -0.938304 -1.25002 0
M  V30 7426 H 700.385 0.726998 -3.16046 0
M  V30 7427 H 700.17 -0.924048 -3.81056 0
M  V30 7428 H 701.66 -0.00377603 -4.176 0
M  V30 7429 N 702.098 1.27442 -0.927168 0
M  V30 7430 C 703.345 1.94391 -0.567324 0
M  V30 7431 C 703.673 1.72875 0.891321 0
M  V30 7432 O 702.928 1.05071 1.65102 0
M  V30 7433 C 703.227 3.47413 -0.838994 0
M  V30 7434 C 702.893 3.89049 -2.2793 0
M  V30 7435 C 701.555 4.00127 -2.67305 0
M  V30 7436 C 703.907 4.10154 -3.21595 0
M  V30 7437 C 701.235 4.29697 -3.99471 0
M  V30 7438 C 703.587 4.41208 -4.53341 0
M  V30 7439 C 702.251 4.50499 -4.92551 0
M  V30 7440 H 701.521 0.711325 -0.207598 0
M  V30 7441 H 704.168 1.51523 -1.17103 0
M  V30 7442 H 702.473 3.91503 -0.152609 0
M  V30 7443 H 704.17 3.97354 -0.53955 0
M  V30 7444 H 700.76 3.80962 -1.96381 0
M  V30 7445 H 704.944 4.01036 -2.92377 0
M  V30 7446 H 700.2 4.35099 -4.29533 0
M  V30 7447 H 704.374 4.56486 -5.25922 0
M  V30 7448 H 702.001 4.73167 -5.94994 0
M  V30 7449 N 703.576 0.692616 1.41565 0
M  V30 7450 C 704.992 0.363878 1.55397 0
M  V30 7451 C 705.192 -1.1294 1.66874 0
M  V30 7452 O 704.248 -1.91517 1.64552 0
M  V30 7453 C 705.561 1.10982 2.7947 0
M  V30 7454 C 707.109 1.09387 2.93263 0
M  V30 7455 C 707.584 1.8215 4.20221 0
M  V30 7456 N 709.075 1.79105 4.27172 0
M  V30 7457 C 709.81 2.32247 5.2426 0
M  V30 7458 N 709.306 2.93847 6.27396 0
M  V30 7459 N 711.099 2.22519 5.1618 0
M  V30 7460 H 703.25 1.66116 1.3236 0
M  V30 7461 H 705.513 0.700848 0.63837 0
M  V30 7462 H 705.219 2.1647 2.77188 0
M  V30 7463 H 705.093 0.686492 3.709 0
M  V30 7464 H 707.48 0.0472638 2.95062 0
M  V30 7465 H 707.561 1.55623 2.03015 0
M  V30 7466 H 707.205 2.86789 4.19183 0
M  V30 7467 H 707.135 1.33351 5.09436 0
M  V30 7468 H 709.626 1.34191 3.53272 0
M  V30 7469 H 709.939 3.31972 6.97864 0
M  V30 7470 H 708.284 2.97924 6.27906 0
M  V30 7471 H 711.475 1.7407 4.34531 0
M  V30 7472 H 711.648 2.64239 5.91677 0
M  V30 7473 N 705.054 -1.51416 0.437162 0
M  V30 7474 C 705.987 -2.24309 -0.419602 0
M  V30 7475 C 706.965 -1.26236 -1.02485 0
M  V30 7476 O 708.149 -1.5537 -1.06735 0
M  V30 7477 C 705.276 -2.99335 -1.58482 0
M  V30 7478 C 704.322 -4.12064 -1.10027 0
M  V30 7479 S 705.155 -5.35483 -0.0424476 0
M  V30 7480 C 706.311 -6.14047 -1.21234 0
M  V30 7481 H 706.544 -2.96632 0.199259 0
M  V30 7482 H 704.077 -1.528 0.22168 0
M  V30 7483 H 706.035 -3.43159 -2.25282 0
M  V30 7484 H 704.696 -2.26602 -2.17509 0
M  V30 7485 H 703.889 -4.63836 -1.97161 0
M  V30 7486 H 703.491 -3.70499 -0.510507 0
M  V30 7487 H 705.783 -6.43123 -2.13072 0
M  V30 7488 H 706.726 -7.04279 -0.734582 0
M  V30 7489 H 707.134 -5.45538 -1.45082 0
M  V30 7490 N 706.532 -0.168513 -1.56696 0
M  V30 7491 C 707.479 0.762875 -2.17828 0
M  V30 7492 C 708.449 1.22892 -1.11745 0
M  V30 7493 O 709.634 1.29759 -1.39883 0
M  V30 7494 C 706.774 1.9879 -2.82093 0
M  V30 7495 C 705.887 1.56568 -4.02629 0
M  V30 7496 C 705.022 2.74416 -4.54829 0
M  V30 7497 C 704.061 2.28671 -5.67782 0
M  V30 7498 N 703.198 3.39602 -6.14504 0
M  V30 7499 H 708.038 0.23479 -2.97074 0
M  V30 7500 H 705.575 0.104163 -1.46731 0
M  V30 7501 H 707.533 2.70636 -3.17509 0
M  V30 7502 H 706.163 2.48973 -2.05456 0
M  V30 7503 H 705.215 0.744067 -3.73052 0
M  V30 7504 H 706.527 1.18988 -4.844 0
M  V30 7505 H 705.681 3.54423 -4.92412 0
M  V30 7506 H 704.42 3.15254 -3.7211 0
M  V30 7507 H 703.425 1.4711 -5.29753 0
M  V30 7508 H 704.65 1.88894 -6.52301 0
M  V30 7509 H 702.596 3.80021 -5.34715 0
M  V30 7510 H 702.513 3.06105 -6.91257 0
M  V30 7511 H 703.781 4.19902 -6.56737 0
M  V30 7512 N 708.01 1.57248 0.105221 0
M  V30 7513 C 708.973 2.00388 1.11252 0
M  V30 7514 C 709.973 0.89594 1.33527 0
M  V30 7515 O 711.163 1.16166 1.29811 0
M  V30 7516 C 708.295 2.35589 2.46395 0
M  V30 7517 H 709.488 2.90591 0.741424 0
M  V30 7518 H 707.041 1.52332 0.349956 0
M  V30 7519 H 707.776 1.4831 2.884 0
M  V30 7520 H 707.561 3.16408 2.31578 0
M  V30 7521 H 709.051 2.69658 3.18864 0
M  V30 7522 N 709.488 -0.375779 1.53054 0
M  V30 7523 C 710.718 -1.1387 1.72386 0
M  V30 7524 C 711.126 -1.8382 0.447966 0
M  V30 7525 O 710.469 -1.74027 -0.588244 0
M  V30 7526 C 710.531 -2.22047 2.82728 0
M  V30 7527 C 710.195 -1.71951 4.23417 0
M  V30 7528 C 711.192 -1.18909 5.06119 0
M  V30 7529 C 708.877 -1.77773 4.69789 0
M  V30 7530 C 710.871 -0.723529 6.3328 0
M  V30 7531 C 708.558 -1.30829 5.96931 0
M  V30 7532 C 709.556 -0.782077 6.78508 0
M  V30 7533 O 709.244 -0.319529 8.03265 0
M  V30 7534 H 708.976 -0.346835 0.580242 0
M  V30 7535 H 711.53 -0.443748 2.00549 0
M  V30 7536 H 709.76 -2.95006 2.50017 0
M  V30 7537 H 711.449 -2.83654 2.90336 0
M  V30 7538 H 712.215 -1.13758 4.7147 0
M  V30 7539 H 708.094 -2.17673 4.06373 0
M  V30 7540 H 711.638 -0.312126 6.96901 0
M  V30 7541 H 707.535 -1.3567 6.31081 0
M  V30 7542 H 708.303 -0.439796 8.17318 0
M  V30 7543 N 710.966 -1.44241 -0.634997 0
M  V30 7544 C 711.929 -1.50457 -1.72903 0
M  V30 7545 C 712.929 -0.387058 -1.56072 0
M  V30 7546 O 714.119 -0.649531 -1.61638 0
M  V30 7547 C 711.251 -1.37477 -3.1195 0
M  V30 7548 H 712.444 -2.47907 -1.68767 0
M  V30 7549 H 709.997 -1.31276 -0.84831 0
M  V30 7550 H 710.732 -0.41106 -3.21684 0
M  V30 7551 H 710.517 -2.18506 -3.25573 0
M  V30 7552 H 712.007 -1.44799 -3.91692 0
M  V30 7553 N 712.444 0.87505 -1.31075 0
M  V30 7554 C 713.691 1.62768 -1.20469 0
M  V30 7555 C 714.019 1.93034 0.23834 0
M  V30 7556 O 713.274 1.55693 1.18567 0
M  V30 7557 C 713.573 2.96948 -1.98888 0
M  V30 7558 C 713.239 2.86195 -3.4843 0
M  V30 7559 C 711.901 2.82969 -3.89207 0
M  V30 7560 C 714.253 2.73599 -4.43614 0
M  V30 7561 C 711.581 2.64999 -5.23443 0
M  V30 7562 C 713.933 2.57166 -5.77969 0
M  V30 7563 C 712.597 2.52321 -6.17973 0
M  V30 7564 H 711.867 0.595611 -0.440827 0
M  V30 7565 H 714.514 1.01665 -1.62285 0
M  V30 7566 H 712.819 3.62058 -1.49737 0
M  V30 7567 H 714.516 3.54164 -1.88067 0
M  V30 7568 H 711.106 2.8952 -3.16032 0
M  V30 7569 H 715.29 2.7515 -4.13045 0
M  V30 7570 H 710.546 2.5967 -5.53517 0
M  V30 7571 H 714.72 2.46396 -6.51354 0
M  V30 7572 H 712.347 2.38156 -7.21932 0
M  V30 7573 N 713.922 1.13953 1.08869 0
M  V30 7574 C 715.168 0.916103 1.81602 0
M  V30 7575 C 715.523 -0.551633 1.84322 0
M  V30 7576 O 714.816 -1.40322 1.30462 0
M  V30 7577 C 715.01 1.44495 3.26888 0
M  V30 7578 C 714.839 2.96257 3.38322 0
M  V30 7579 C 713.609 3.64658 3.49789 0
M  V30 7580 C 715.807 3.94156 3.30372 0
M  V30 7581 N 713.789 5.04379 3.49965 0
M  V30 7582 C 715.16 5.20101 3.37484 0
M  V30 7583 C 717.215 3.86342 3.14077 0
M  V30 7584 C 715.918 6.39145 3.29979 0
M  V30 7585 C 717.944 5.04927 3.07901 0
M  V30 7586 C 717.306 6.29738 3.1561 0
M  V30 7587 H 713.405 0.388701 0.678554 0
M  V30 7588 H 715.989 1.44879 1.3007 0
M  V30 7589 H 714.16 0.939102 3.76876 0
M  V30 7590 H 715.892 1.16193 3.87661 0
M  V30 7591 H 712.647 3.15196 3.5348 0
M  V30 7592 H 713.071 5.77305 3.53622 0
M  V30 7593 H 717.713 2.90726 3.06982 0
M  V30 7594 H 715.431 7.3501 3.35836 0
M  V30 7595 H 719.017 5.00626 2.9642 0
M  V30 7596 H 717.897 7.19958 3.10854 0
M  V30 7597 N 715.4 -1.26948 0.933913 0
M  V30 7598 C 716.332 -2.25768 0.395137 0
M  V30 7599 C 717.345 -1.55637 -0.477585 0
M  V30 7600 O 718.534 -1.76142 -0.289204 0
M  V30 7601 C 715.634 -3.35874 -0.451882 0
M  V30 7602 C 714.807 -4.3554 0.40299 0
M  V30 7603 C 713.866 -5.24809 -0.3824 0
M  V30 7604 O 712.892 -5.68805 0.212057 0
M  V30 7605 N 714.094 -5.55636 -1.68072 0
M  V30 7606 H 716.859 -2.72634 1.24463 0
M  V30 7607 H 714.42 -1.40639 0.802008 0
M  V30 7608 H 716.412 -3.92542 -0.984516 0
M  V30 7609 H 714.982 -2.8856 -1.20215 0
M  V30 7610 H 714.202 -3.78047 1.11688 0
M  V30 7611 H 715.49 -4.99131 0.987201 0
M  V30 7612 H 714.888 -5.2176 -2.18592 0
M  V30 7613 H 713.445 -6.14978 -2.15975 0
M  V30 7614 N 716.879 -0.700114 -1.41195 0
M  V30 7615 C 718.104 -0.240704 -2.05998 0
M  V30 7616 C 718.529 1.10313 -1.52357 0
M  V30 7617 O 717.887 1.69154 -0.652424 0
M  V30 7618 C 717.935 -0.213783 -3.59966 0
M  V30 7619 O 717.039 0.809933 -4.04368 0
M  V30 7620 H 716.38 -0.116471 -0.653705 0
M  V30 7621 H 718.91 -0.956251 -1.80878 0
M  V30 7622 H 718.92 -0.0461852 -4.07974 0
M  V30 7623 H 717.595 -1.19454 -3.98376 0
M  V30 7624 H 716.172 0.611319 -3.67855 0
M  V30 7625 N 718.357 1.51182 -0.445186 0
M  V30 7626 C 719.582 2.07056 0.119445 0
M  V30 7627 C 720.007 1.30966 1.35016 0
M  V30 7628 O 719.365 0.349827 1.77893 0
M  V30 7629 C 719.413 3.58234 0.412428 0
M  V30 7630 O 718.517 3.84249 1.49754 0
M  V30 7631 H 717.858 0.663998 -0.00157797 0
M  V30 7632 H 720.388 1.94699 -0.628779 0
M  V30 7633 H 720.398 4.02617 0.660583 0
M  V30 7634 H 719.073 4.13038 -0.487049 0
M  V30 7635 H 717.65 3.51724 1.23873 0
M  V30 7636 N 719.835 0.176821 1.56605 0
M  V30 7637 C 720.745 -0.763682 2.21822 0
M  V30 7638 C 721.761 -1.24889 1.21156 0
M  V30 7639 O 722.937 -1.29987 1.53836 0
M  V30 7640 C 720.002 -1.97352 2.8505 0
M  V30 7641 C 719.063 -1.53466 4.00932 0
M  V30 7642 C 718.296 -2.68682 4.61135 0
M  V30 7643 O 718.519 -3.85694 4.20234 0
M  V30 7644 O 717.453 -2.42442 5.50913 0
M  V30 7645 H 721.279 -0.238363 3.02763 0
M  V30 7646 H 718.864 -0.0516331 1.49311 0
M  V30 7647 H 720.746 -2.68096 3.25119 0
M  V30 7648 H 719.421 -2.48779 2.07101 0
M  V30 7649 H 718.328 -0.796551 3.65521 0
M  V30 7650 H 719.661 -1.06724 4.8049 0
M  V30 7651 N 721.313 -1.57302 -0.09688 0
M  V30 7652 C 722.59 -1.7701 -0.832272 0
M  V30 7653 C 722.97 -0.758025 -1.97021 0
M  V30 7654 O 722.318 0.213824 -2.27497 0
M  V30 7655 C 722.528 -3.22725 -1.32851 0
M  V30 7656 C 723.876 -3.85856 -1.772 0
M  V30 7657 O 724.9 -3.26464 -1.42478 0
M  V30 7658 O 723.759 -4.90295 -2.41398 0
M  V30 7659 H 720.853 -0.725558 -0.396856 0
M  V30 7660 H 723.399 -1.69516 -0.0789005 0
M  V30 7661 H 722.171 -3.87921 -0.51312 0
M  V30 7662 H 721.794 -3.34845 -2.14394 0
M  V30 7663 N 722.791 0.367657 -1.53252 0
M  V30 7664 C 723.754 1.43308 -1.78873 0
M  V30 7665 C 724.754 1.46671 -0.659115 0
M  V30 7666 O 725.944 1.47468 -0.927306 0
M  V30 7667 C 723.076 2.82442 -1.90892 0
M  V30 7668 H 724.269 1.21864 -2.74024 0
M  V30 7669 H 721.822 0.600668 -1.44297 0
M  V30 7670 H 722.557 3.09202 -0.978 0
M  V30 7671 H 722.342 2.81399 -2.73051 0
M  V30 7672 H 723.832 3.59601 -2.12314 0
M  V30 7673 N 724.269 1.44576 0.627338 0
M  V30 7674 C 725.517 1.47267 1.38408 0
M  V30 7675 C 725.838 0.107971 1.94701 0
M  V30 7676 O 725.108 -0.860206 1.76004 0
M  V30 7677 H 723.688 0.542276 0.513756 0
M  V30 7678 H 726.35 1.80383 0.738099 0
M  V30 7679 H 725.446 2.20025 2.21349 0
M  V30 7680 N 725.747 -0.868086 1.31537 0
M  V30 7681 C 726.975 -1.65402 1.24298 0
M  V30 7682 C 727.39 -1.87827 -0.191389 0
M  V30 7683 O 726.747 -1.43776 -1.12404 0
M  V30 7684 C 726.798 -3.02093 1.9855 0
M  V30 7685 O 726.519 -2.80668 3.36388 0
M  V30 7686 C 728.02 -3.96538 1.98173 0
M  V30 7687 H 725.24 -0.515598 0.429417 0
M  V30 7688 H 727.784 -1.0834 1.73444 0
M  V30 7689 H 725.939 -3.55838 1.53161 0
M  V30 7690 H 726.353 -3.67504 3.74221 0
M  V30 7691 H 727.827 -4.8976 2.54635 0
M  V30 7692 H 728.304 -4.28474 0.964697 0
M  V30 7693 H 728.91 -3.48729 2.4345 0
M  V30 7694 N 727.225 -1.14528 -1.08264 0
M  V30 7695 C 728.473 -0.912599 -1.80322 0
M  V30 7696 C 728.794 0.562256 -1.86718 0
M  V30 7697 O 728.064 1.40869 -1.36135 0
M  V30 7698 H 726.644 -0.334645 -0.667849 0
M  V30 7699 H 729.306 -1.44415 -1.30883 0
M  V30 7700 H 728.402 -1.31384 -2.83098 0
M  V30 7701 N 728.703 1.26451 -0.940633 0
M  V30 7702 C 729.98 1.88947 -0.505811 0
M  V30 7703 C 730.36 1.85011 1.01657 0
M  V30 7704 O 729.708 1.30406 1.87634 0
M  V30 7705 C 729.918 3.32304 -1.06654 0
M  V30 7706 C 731.266 4.09153 -1.13486 0
M  V30 7707 O 732.29 3.41371 -1.01708 0
M  V30 7708 O 731.149 5.30369 -1.31797 0
M  V30 7709 H 728.243 0.810422 -0.164759 0
M  V30 7710 H 730.789 1.34625 -1.03316 0
M  V30 7711 H 729.561 3.29527 -2.11015 0
M  V30 7712 H 729.184 3.94164 -0.521603 0
M  V30 7713 N 730.181 0.707592 1.40822 0
M  V30 7714 C 731.592 0.317011 1.83989 0
M  V30 7715 C 731.943 -1.14697 1.59182 0
M  V30 7716 O 731.068 -1.8818 1.06852 0
M  V30 7717 C 731.663 0.568593 3.33995 0
M  V30 7718 C 730.222 0.231804 3.75686 0
M  V30 7719 C 729.369 0.844933 2.64114 0
M  V30 7720 H 732.32 0.907349 1.30203 0
M  V30 7721 H 732.341 -0.168798 3.80125 0
M  V30 7722 H 731.853 1.63417 3.52018 0
M  V30 7723 H 729.954 -0.82903 3.6326 0
M  V30 7724 H 730.067 0.695219 4.74029 0
M  V30 7725 H 728.431 0.273588 2.53226 0
M  V30 7726 H 729.214 1.91462 2.84951 0
M  V30 7727 N 731.66 -1.50943 0.453197 0
M  V30 7728 C 732.593 -2.24742 -0.395787 0
M  V30 7729 C 733.571 -1.27316 -1.01141 0
M  V30 7730 O 734.755 -1.56494 -1.05081 0
M  V30 7731 C 731.882 -3.00999 -1.55298 0
M  V30 7732 C 730.928 -4.13207 -1.0565 0
M  V30 7733 S 731.761 -5.35498 0.01435 0
M  V30 7734 C 732.917 -6.15298 -1.14714 0
M  V30 7735 H 733.15 -2.96403 0.23071 0
M  V30 7736 H 730.683 -1.52557 0.237874 0
M  V30 7737 H 732.641 -3.45529 -2.2163 0
M  V30 7738 H 731.302 -2.28896 -2.15094 0
M  V30 7739 H 730.495 -4.65901 -1.9223 0
M  V30 7740 H 730.097 -3.7102 -0.471182 0
M  V30 7741 H 732.389 -6.45346 -2.06239 0
M  V30 7742 H 733.332 -7.05019 -0.659842 0
M  V30 7743 H 733.74 -5.47046 -1.39288 0
M  V30 7744 N 733.138 -0.185124 -1.56509 0
M  V30 7745 C 734.101 0.72591 -2.17401 0
M  V30 7746 C 735.101 1.14819 -1.12575 0
M  V30 7747 O 736.291 1.0629 -1.38015 0
M  V30 7748 C 733.423 1.98979 -2.76803 0
M  V30 7749 H 734.616 0.195588 -2.99262 0
M  V30 7750 H 732.169 0.0644772 -1.56167 0
M  V30 7751 H 732.904 2.56287 -1.98714 0
M  V30 7752 H 732.689 1.69583 -3.53531 0
M  V30 7753 H 734.179 2.63966 -3.23592 0
M  V30 7754 N 734.616 1.57351 0.0885366 0
M  V30 7755 C 735.526 2.05858 1.12516 0
M  V30 7756 C 736.542 0.984758 1.43452 0
M  V30 7757 O 737.718 1.29836 1.53963 0
M  V30 7758 C 734.783 2.47882 2.42395 0
M  V30 7759 C 733.844 3.69487 2.18582 0
M  V30 7760 C 733.077 4.09497 3.42268 0
M  V30 7761 O 733.3 3.49536 4.50755 0
M  V30 7762 O 732.234 5.02406 3.31469 0
M  V30 7763 H 736.06 2.94467 0.743146 0
M  V30 7764 H 733.645 1.46326 0.301507 0
M  V30 7765 H 735.527 2.75509 3.18862 0
M  V30 7766 H 734.202 1.62408 2.8001 0
M  V30 7767 H 733.109 3.46967 1.39875 0
M  V30 7768 H 734.442 4.55761 1.85857 0
M  V30 7769 N 736.094 -0.359525 1.53444 0
M  V30 7770 C 737.371 -1.11756 1.6053 0
M  V30 7771 C 737.751 -2.06949 0.416587 0
M  V30 7772 O 737.099 -2.20681 -0.592628 0
M  V30 7773 C 737.309 -1.85133 2.95849 0
M  V30 7774 C 738.657 -2.3945 3.50641 0
M  V30 7775 O 739.681 -1.95251 2.97918 0
M  V30 7776 O 738.54 -3.20266 4.42823 0
M  V30 7777 H 735.634 -0.513005 0.648656 0
M  V30 7778 H 738.18 -0.362301 1.65787 0
M  V30 7779 H 736.952 -1.15694 3.73806 0
M  V30 7780 H 736.575 -2.67554 2.9411 0
M  V30 7781 N 737.572 -1.44907 -0.619662 0
M  V30 7782 C 738.988 -1.29046 -0.939107 0
M  V30 7783 C 739.188 -0.23462 -2.00129 0
M  V30 7784 O 738.244 0.37558 -2.49691 0
M  V30 7785 C 739.557 -2.66567 -1.39149 0
M  V30 7786 C 741.105 -2.74368 -1.50635 0
M  V30 7787 C 741.58 -4.12386 -1.99253 0
M  V30 7788 N 743.071 -4.1462 -2.06506 0
M  V30 7789 C 743.806 -5.18272 -2.4532 0
M  V30 7790 N 743.302 -6.32278 -2.83189 0
M  V30 7791 N 745.095 -5.05628 -2.45554 0
M  V30 7792 H 737.246 -2.12239 0.0826135 0
M  V30 7793 H 739.509 -0.947652 -0.0256829 0
M  V30 7794 H 739.215 -3.4496 -0.685254 0
M  V30 7795 H 739.089 -2.94224 -2.36034 0
M  V30 7796 H 741.476 -1.96287 -2.20353 0
M  V30 7797 H 741.557 -2.50439 -0.520963 0
M  V30 7798 H 741.201 -4.90947 -1.30127 0
M  V30 7799 H 741.131 -4.33699 -2.98684 0
M  V30 7800 H 743.622 -3.32343 -1.79878 0
M  V30 7801 H 743.935 -7.07172 -3.11652 0
M  V30 7802 H 742.28 -6.35699 -2.80913 0
M  V30 7803 H 745.471 -4.15613 -2.15367 0
M  V30 7804 H 745.644 -5.86529 -2.75478 0
M  V30 7805 N 739.05 0.861098 -1.31996 0
M  V30 7806 C 740.298 1.61162 -1.21947 0
M  V30 7807 C 740.619 1.93751 0.220351 0
M  V30 7808 O 739.889 1.59069 1.14341 0
M  V30 7809 H 738.469 0.597485 -0.448353 0
M  V30 7810 H 741.131 1.03039 -1.65436 0
M  V30 7811 H 740.227 2.55138 -1.79752 0
M  V30 7812 N 740.528 1.15101 1.07655 0
M  V30 7813 C 741.758 0.946357 1.83651 0
M  V30 7814 C 742.166 -0.508641 1.82235 0
M  V30 7815 O 741.509 -1.36445 1.22997 0
M  V30 7816 C 741.571 1.37945 3.31981 0
M  V30 7817 C 741.235 2.85155 3.57122 0
M  V30 7818 C 742.232 3.83234 3.51323 0
M  V30 7819 C 739.917 3.2275 3.84887 0
M  V30 7820 C 741.911 5.16914 3.72932 0
M  V30 7821 C 739.598 4.56604 4.06148 0
M  V30 7822 C 740.596 5.53495 4.00165 0
M  V30 7823 O 740.284 6.84931 4.20861 0
M  V30 7824 H 740.016 0.336368 0.586372 0
M  V30 7825 H 742.57 1.53198 1.36819 0
M  V30 7826 H 740.8 0.737205 3.79608 0
M  V30 7827 H 742.489 1.14439 3.89434 0
M  V30 7828 H 743.255 3.55535 3.29878 0
M  V30 7829 H 739.134 2.47921 3.88659 0
M  V30 7830 H 742.678 5.92529 3.68178 0
M  V30 7831 H 738.575 4.84019 4.27078 0
M  V30 7832 H 739.343 6.91304 4.38226 0
M  V30 7833 N 742.006 -1.2595 0.947325 0
M  V30 7834 C 743.254 -1.93081 0.596996 0
M  V30 7835 C 743.575 -1.74632 -0.867672 0
M  V30 7836 O 742.845 -1.1056 -1.6172 0
M  V30 7837 H 741.425 -0.714542 0.217805 0
M  V30 7838 H 744.087 -1.53265 1.20398 0
M  V30 7839 H 743.183 -3.01134 0.82004 0
M  V30 7840 N 743.484 -0.715051 -1.40445 0
M  V30 7841 C 744.432 -0.0509974 -2.32544 0
M  V30 7842 C 745.426 0.747602 -1.52011 0
M  V30 7843 O 746.632 0.651031 -1.67814 0
M  V30 7844 H 743.007 0.00231113 -0.751996 0
M  V30 7845 H 744.978 -0.84449 -2.86201 0
M  V30 7846 C 743.727 0.857101 -3.3697 0
M  V30 7847 H 743.05 0.252 -3.99005 0
M  V30 7848 H 744.49 1.28971 -4.03909 0
M  V30 7849 C 742.949 1.98231 -2.72408 0
M  V30 7850 O 743.479 3.07309 -2.58697 0
M  V30 7851 N 741.685 1.76577 -2.308 0
M  V30 7852 H 741.232 0.878641 -2.42152 0
M  V30 7853 H 741.19 2.52043 -1.87941 0
M  V30 7854 N 744.962 1.50701 -0.461195 0
M  V30 7855 C 746.239 1.94958 0.158296 0
M  V30 7856 C 746.619 1.40111 1.57899 0
M  V30 7857 O 745.967 0.597976 2.20537 0
M  V30 7858 C 746.177 3.48821 0.11172 0
M  V30 7859 C 747.525 4.23499 0.30552 0
M  V30 7860 O 748.549 3.557 0.188758 0
M  V30 7861 O 747.408 5.43823 0.540244 0
M  V30 7862 H 744.502 0.818674 0.117054 0
M  V30 7863 H 747.048 1.61508 -0.520888 0
M  V30 7864 H 745.82 3.81263 -0.880577 0
M  V30 7865 H 745.443 3.88781 0.832791 0
M  V30 7866 N 746.441 0.193421 1.56409 0
M  V30 7867 C 747.688 -0.445789 1.97532 0
M  V30 7868 C 748.016 -1.61744 1.08024 0
M  V30 7869 O 747.271 -1.95338 0.118982 0
M  V30 7870 C 747.57 -0.949718 3.44551 0
M  V30 7871 C 747.236 0.108383 4.5077 0
M  V30 7872 C 745.898 0.399126 4.79542 0
M  V30 7873 C 748.25 0.825423 5.14622 0
M  V30 7874 C 745.578 1.41192 5.69457 0
M  V30 7875 C 747.93 1.82735 6.05632 0
M  V30 7876 C 746.594 2.12531 6.32761 0
M  V30 7877 H 745.864 -0.163126 0.722822 0
M  V30 7878 H 748.511 0.290035 1.89291 0
M  V30 7879 H 746.816 -1.76378 3.49854 0
M  V30 7880 H 748.513 -1.45367 3.73724 0
M  V30 7881 H 745.103 -0.128392 4.28408 0
M  V30 7882 H 749.287 0.61403 4.92487 0
M  V30 7883 H 744.543 1.6487 5.88751 0
M  V30 7884 H 748.717 2.3882 6.5417 0
M  V30 7885 H 746.344 2.91155 7.02234 0
M  V30 7886 N 747.919 -1.57396 -0.0801906 0
M  V30 7887 C 749.33 -1.75642 -0.633002 0
M  V30 7888 C 749.681 -0.817708 -1.78348 0
M  V30 7889 O 748.806 0.000233743 -2.164 0
M  V30 7890 C 749.401 -3.18502 -1.15507 0
M  V30 7891 C 747.96 -3.38121 -1.65381 0
M  V30 7892 C 747.107 -2.71386 -0.569661 0
M  V30 7893 H 750.058 -1.58027 0.145949 0
M  V30 7894 H 750.079 -3.22198 -2.02408 0
M  V30 7895 H 749.591 -3.86799 -0.317515 0
M  V30 7896 H 747.692 -2.74926 -2.51488 0
M  V30 7897 H 747.805 -4.46521 -1.73654 0
M  V30 7898 H 746.169 -2.33702 -1.0127 0
M  V30 7899 H 746.952 -3.42332 0.257561 0
M  V30 7900 N 749.397 0.351382 -1.53633 0
M  V30 7901 C 750.646 1.08988 -1.69719 0
M  V30 7902 C 750.959 1.90043 -0.462948 0
M  V30 7903 O 752.165 2.66769 -0.504613 0
M  V30 7904 C 750.621 1.98691 -3.00083 0
M  V30 7905 C 750.229 1.22881 -4.30818 0
M  V30 7906 C 751.973 2.72446 -3.25536 0
M  V30 7907 C 749.88 2.11568 -5.52262 0
M  V30 7908 H 748.81 0.410588 -0.632403 0
M  V30 7909 H 751.461 0.349886 -1.80133 0
M  V30 7910 H 749.843 2.76478 -2.83506 0
M  V30 7911 H 751.017 0.500582 -4.58073 0
M  V30 7912 H 749.332 0.60928 -4.11918 0
M  V30 7913 H 751.929 3.39055 -4.13456 0
M  V30 7914 H 752.272 3.38588 -2.42206 0
M  V30 7915 H 752.805 2.01735 -3.42852 0
M  V30 7916 H 749.544 1.4998 -6.38111 0
M  V30 7917 H 749.064 2.82201 -5.29266 0
M  V30 7918 H 750.743 2.70802 -5.87601 0
M  V30 7919 N 750.875 1.45233 0.611969 0
M  V30 7920 C 751.785 1.56098 1.7513 0
M  V30 7921 C 752.801 0.445646 1.68196 0
M  V30 7922 O 753.977 0.705718 1.88631 0
M  V30 7923 C 751.042 1.52052 3.11579 0
M  V30 7924 C 750.103 2.74589 3.29999 0
M  V30 7925 C 749.336 2.70726 4.59938 0
M  V30 7926 O 749.559 1.77806 5.41979 0
M  V30 7927 O 748.493 3.61864 4.80976 0
M  V30 7928 H 752.319 2.52392 1.68914 0
M  V30 7929 H 749.904 1.27695 0.775528 0
M  V30 7930 H 751.786 1.52387 3.92882 0
M  V30 7931 H 750.461 0.589085 3.18295 0
M  V30 7932 H 749.368 2.79817 2.48301 0
M  V30 7933 H 750.701 3.66843 3.28157 0
M  V30 7934 N 752.353 -0.854086 1.3245 0
M  V30 7935 C 753.63 -1.59188 1.1366 0
M  V30 7936 C 754.01 -2.08917 -0.302807 0
M  V30 7937 O 753.358 -1.8795 -1.29951 0
M  V30 7938 C 753.568 -2.73757 2.16467 0
M  V30 7939 C 754.916 -3.43323 2.49829 0
M  V30 7940 O 755.94 -2.83983 2.15017 0
M  V30 7941 O 754.799 -4.50409 3.09506 0
M  V30 7942 H 751.893 -0.701092 0.438633 0
M  V30 7943 H 754.439 -0.898165 1.43983 0
M  V30 7944 H 753.211 -2.3454 3.1322 0
M  V30 7945 H 752.834 -3.50804 1.87142 0
M  V30 7946 N 753.831 -1.1567 -1.07043 0
M  V30 7947 C 754.764 -0.799867 -2.13723 0
M  V30 7948 C 755.742 0.225098 -1.61034 0
M  V30 7949 O 756.926 0.11093 -1.88173 0
M  V30 7950 C 754.053 -0.18997 -3.38167 0
M  V30 7951 C 753.099 -1.18733 -4.0964 0
M  V30 7952 S 753.932 -2.73074 -4.60642 0
M  V30 7953 C 755.088 -2.13512 -5.88356 0
M  V30 7954 H 755.321 -1.70342 -2.43661 0
M  V30 7955 H 752.854 -0.979377 -1.19363 0
M  V30 7956 H 754.812 0.155471 -4.10205 0
M  V30 7957 H 753.473 0.691229 -3.064 0
M  V30 7958 H 752.666 -0.708873 -4.9899 0
M  V30 7959 H 752.268 -1.47747 -3.43579 0
M  V30 7960 H 754.56 -1.49911 -6.60706 0
M  V30 7961 H 755.503 -3.01042 -6.40921 0
M  V30 7962 H 755.911 -1.57693 -5.42027 0
M  V30 7963 N 755.309 1.25446 -0.953992 0
M  V30 7964 C 756.558 1.92441 -0.604101 0
M  V30 7965 C 756.871 1.75543 0.862796 0
M  V30 7966 O 758.077 2.37106 1.32262 0
M  V30 7967 C 756.533 3.44854 -1.02974 0
M  V30 7968 C 756.141 3.70464 -2.51914 0
M  V30 7969 C 757.885 4.1778 -0.752352 0
M  V30 7970 C 755.792 5.1638 -2.88281 0
M  V30 7971 H 754.722 0.720508 -0.222227 0
M  V30 7972 H 757.373 1.42318 -1.15836 0
M  V30 7973 H 755.755 3.93935 -0.403904 0
M  V30 7974 H 756.929 3.32038 -3.19511 0
M  V30 7975 H 755.244 3.10797 -2.77117 0
M  V30 7976 H 757.841 5.25261 -1.00024 0
M  V30 7977 H 758.184 4.15135 0.311212 0
M  V30 7978 H 758.717 3.74605 -1.33851 0
M  V30 7979 H 755.456 5.24135 -3.93653 0
M  V30 7980 H 754.976 5.55855 -2.25357 0
M  V30 7981 H 756.655 5.84497 -2.77439 0
M  V30 7982 N 756.787 0.722489 1.40064 0
M  V30 7983 C 758.198 0.336507 1.83642 0
M  V30 7984 C 758.549 -1.13002 1.6039 0
M  V30 7985 O 757.674 -1.87036 1.08842 0
M  V30 7986 C 758.269 0.603985 3.33373 0
M  V30 7987 C 756.828 0.271637 3.75419 0
M  V30 7988 C 755.975 0.872898 2.63203 0
M  V30 7989 H 758.926 0.921108 1.29233 0
M  V30 7990 H 758.947 -0.128471 3.80283 0
M  V30 7991 H 758.459 1.67141 3.50265 0
M  V30 7992 H 756.56 -0.790455 3.64119 0
M  V30 7993 H 756.673 0.745457 4.73265 0
M  V30 7994 H 755.037 0.300431 2.52922 0
M  V30 7995 H 755.82 1.94473 2.82905 0
M  V30 7996 N 758.265 -1.50454 0.469181 0
M  V30 7997 C 759.493 -2.06729 -0.0842134 0
M  V30 7998 C 759.908 -1.33326 -1.33677 0
M  V30 7999 O 759.265 -0.401977 -1.78018 0
M  V30 8000 C 759.316 -3.59557 -0.374253 0
M  V30 8001 O 759.037 -4.30192 0.828622 0
M  V30 8002 C 760.538 -4.32449 -0.974824 0
M  V30 8003 H 757.758 -0.670971 0.006231 0
M  V30 8004 H 760.302 -1.93645 0.657415 0
M  V30 8005 H 758.457 -3.7245 -1.06581 0
M  V30 8006 H 758.871 -5.21371 0.572066 0
M  V30 8007 H 760.345 -5.40361 -1.12755 0
M  V30 8008 H 760.822 -3.92819 -1.96442 0
M  V30 8009 H 761.428 -4.24082 -0.321703 0
M  V30 8010 N 759.743 -0.201713 -1.56304 0
M  V30 8011 C 760.673 0.71155 -2.22394 0
M  V30 8012 C 761.654 1.21625 -1.18917 0
M  V30 8013 O 762.839 1.26388 -1.47444 0
M  V30 8014 C 759.969 1.92837 -2.88845 0
M  V30 8015 C 758.923 1.55831 -3.98623 0
M  V30 8016 C 758.249 2.85228 -4.52271 0
M  V30 8017 C 759.549 0.763249 -5.16693 0
M  V30 8018 H 761.243 0.160573 -2.98969 0
M  V30 8019 H 758.789 0.0757916 -1.438 0
M  V30 8020 H 760.742 2.57253 -3.33764 0
M  V30 8021 H 759.466 2.50398 -2.09686 0
M  V30 8022 H 758.125 0.9377 -3.54405 0
M  V30 8023 H 757.773 3.40893 -3.69866 0
M  V30 8024 H 757.473 2.6121 -5.26349 0
M  V30 8025 H 758.997 3.50622 -4.99897 0
M  V30 8026 H 760.411 1.31066 -5.58117 0
M  V30 8027 H 758.808 0.620935 -5.96879 0
M  V30 8028 H 759.878 -0.234322 -4.84334 0
M  V30 8029 N 761.222 1.57436 0.0718424 0
M  V30 8030 C 762.169 2.03686 1.08539 0
M  V30 8031 C 763.139 0.917474 1.38462 0
M  V30 8032 O 764.324 1.18513 1.4953 0
M  V30 8033 C 761.464 2.48566 2.39393 0
M  V30 8034 C 760.577 3.74122 2.16001 0
M  V30 8035 C 759.712 4.07786 3.40418 0
M  V30 8036 C 758.751 5.26383 3.1239 0
M  V30 8037 N 757.888 5.55685 4.29138 0
M  V30 8038 H 762.728 2.90043 0.684018 0
M  V30 8039 H 760.265 1.43438 0.326183 0
M  V30 8040 H 762.223 2.72639 3.15791 0
M  V30 8041 H 760.853 1.65186 2.77333 0
M  V30 8042 H 759.905 3.57389 1.30296 0
M  V30 8043 H 761.217 4.60659 1.91298 0
M  V30 8044 H 760.371 4.32759 4.25211 0
M  V30 8045 H 759.11 3.19817 3.68197 0
M  V30 8046 H 758.115 5.01206 2.25993 0
M  V30 8047 H 759.34 6.1597 2.85934 0
M  V30 8048 H 757.286 4.70675 4.56948 0
M  V30 8049 H 757.203 6.3664 4.07708 0
M  V30 8050 H 758.471 5.85209 5.14928 0
M  V30 8051 N 762.7 -0.34323 1.53817 0
M  V30 8052 C 763.663 -1.40444 1.8113 0
M  V30 8053 C 764.663 -1.45604 0.682366 0
M  V30 8054 O 765.853 -1.45974 0.950649 0
M  V30 8055 C 762.985 -2.79369 1.95361 0
M  V30 8056 H 764.178 -1.17489 2.75928 0
M  V30 8057 H 761.731 -0.577636 1.45234 0
M  V30 8058 H 762.466 -3.07607 1.02707 0
M  V30 8059 H 762.251 -2.7702 2.77493 0
M  V30 8060 H 763.741 -3.56178 2.18008 0
M  V30 8061 N 764.178 -1.45556 -0.604258 0
M  V30 8062 C 765.141 -1.54091 -1.69672 0
M  V30 8063 C 766.141 -0.420076 -1.55216 0
M  V30 8064 O 767.331 -0.683671 -1.60224 0
M  V30 8065 C 764.463 -1.44063 -3.08964 0
M  V30 8066 H 765.656 -2.51431 -1.6347 0
M  V30 8067 H 763.209 -1.33046 -0.820273 0
M  V30 8068 H 763.944 -0.479201 -3.2074 0
M  V30 8069 H 763.729 -2.25362 -3.20865 0
M  V30 8070 H 765.219 -1.53075 -3.88533 0
M  V30 8071 N 765.656 0.84705 -1.32902 0
M  V30 8072 C 766.905 1.59667 -1.23245 0
M  V30 8073 C 767.218 1.94551 0.202349 0
M  V30 8074 O 768.424 2.68218 0.420847 0
M  V30 8075 C 766.88 2.8795 -2.15901 0
M  V30 8076 C 766.488 2.60461 -3.64505 0
M  V30 8077 C 768.232 3.65968 -2.15098 0
M  V30 8078 C 766.139 3.84791 -4.49099 0
M  V30 8079 H 765.069 0.599167 -0.457728 0
M  V30 8080 H 767.72 0.934662 -1.57912 0
M  V30 8081 H 766.102 3.55648 -1.74157 0
M  V30 8082 H 767.276 2.01026 -4.14639 0
M  V30 8083 H 765.591 1.9576 -3.67515 0
M  V30 8084 H 768.188 4.58241 -2.75534 0
M  V30 8085 H 768.531 4.00275 -1.14392 0
M  V30 8086 H 769.064 3.05184 -2.55162 0
M  V30 8087 H 765.803 3.55621 -5.50649 0
M  V30 8088 H 765.323 4.43594 -4.03713 0
M  V30 8089 H 767.002 4.52454 -4.62487 0
M  V30 8090 N 767.134 1.16236 1.06428 0
M  V30 8091 C 768.55 0.906983 1.31324 0
M  V30 8092 C 768.75 -0.440872 1.96618 0
M  V30 8093 O 767.806 -1.1807 2.23194 0
M  V30 8094 C 769.119 2.05501 2.19522 0
M  V30 8095 C 770.667 2.09061 2.32943 0
M  V30 8096 C 771.142 3.23214 3.24495 0
M  V30 8097 N 772.633 3.22922 3.32078 0
M  V30 8098 C 773.368 4.07889 4.03006 0
M  V30 8099 N 772.864 5.02941 4.76469 0
M  V30 8100 N 774.657 3.95881 3.99043 0
M  V30 8101 H 766.808 2.03015 0.624388 0
M  V30 8102 H 769.071 0.88576 0.337835 0
M  V30 8103 H 768.777 3.02847 1.78819 0
M  V30 8104 H 768.651 1.99538 3.201 0
M  V30 8105 H 771.038 1.12308 2.72893 0
M  V30 8106 H 771.119 2.19089 1.32037 0
M  V30 8107 H 770.763 4.20225 2.85261 0
M  V30 8108 H 770.693 3.10423 4.25377 0
M  V30 8109 H 773.184 2.54093 2.79724 0
M  V30 8110 H 773.497 5.64196 5.28112 0
M  V30 8111 H 771.842 5.06922 4.75453 0
M  V30 8112 H 775.033 3.20927 3.40769 0
M  V30 8113 H 775.206 4.62321 4.54052 0
M  V30 8114 N 768.612 -1.24939 0.960631 0
M  V30 8115 C 769.575 -2.239 0.49006 0
M  V30 8116 C 770.575 -1.55497 -0.409535 0
M  V30 8117 O 771.765 -1.72978 -0.205984 0
M  V30 8118 C 768.897 -3.39654 -0.291193 0
M  V30 8119 H 770.09 -2.67044 1.36482 0
M  V30 8120 H 767.643 -1.37429 0.744505 0
M  V30 8121 H 768.378 -3.01939 -1.18336 0
M  V30 8122 H 768.163 -3.90496 0.354276 0
M  V30 8123 H 769.653 -4.13125 -0.609693 0
M  V30 8124 N 770.09 -0.729906 -1.39679 0
M  V30 8125 C 771.336 -0.27603 -2.00913 0
M  V30 8126 C 771.669 1.13227 -1.57776 0
M  V30 8127 O 770.944 1.7709 -0.804319 0
M  V30 8128 C 771.227 -0.372157 -3.58172 0
M  V30 8129 C 771.08 -1.81986 -4.11341 0
M  V30 8130 C 772.399 0.248378 -4.39399 0
M  V30 8131 H 769.518 -0.101773 -0.729939 0
M  V30 8132 H 772.16 -0.925104 -1.65957 0
M  V30 8133 H 770.31 0.180459 -3.88081 0
M  V30 8134 H 771.982 -2.42896 -3.92172 0
M  V30 8135 H 770.225 -2.34287 -3.65092 0
M  V30 8136 H 770.896 -1.83842 -5.20486 0
M  V30 8137 H 773.372 -0.222645 -4.15504 0
M  V30 8138 H 772.248 0.150746 -5.48693 0
M  V30 8139 H 772.509 1.33378 -4.21501 0
M  V30 8140 N 771.568 1.50203 -0.477153 0
M  V30 8141 C 772.984 1.59056 -0.131663 0
M  V30 8142 C 773.184 1.48473 1.36227 0
M  V30 8143 O 772.24 1.34635 2.13611 0
M  V30 8144 C 773.553 2.92741 -0.687254 0
M  V30 8145 C 775.101 3.0615 -0.651223 0
M  V30 8146 C 775.576 4.42419 -1.18446 0
M  V30 8147 N 777.067 4.48847 -1.14413 0
M  V30 8148 C 777.802 5.52689 -1.52717 0
M  V30 8149 N 777.298 6.63754 -1.98499 0
M  V30 8150 N 779.091 5.43267 -1.44282 0
M  V30 8151 H 771.242 1.55325 -1.44872 0
M  V30 8152 H 773.505 0.734395 -0.599473 0
M  V30 8153 H 773.211 3.0598 -1.73405 0
M  V30 8154 H 773.085 3.76961 -0.134215 0
M  V30 8155 H 775.472 2.92556 0.386677 0
M  V30 8156 H 775.553 2.23673 -1.24114 0
M  V30 8157 H 775.197 4.56763 -2.22103 0
M  V30 8158 H 775.127 5.23498 -0.570709 0
M  V30 8159 H 777.618 3.69152 -0.808416 0
M  V30 8160 H 777.931 7.39059 -2.25859 0
M  V30 8161 H 776.276 6.64858 -2.02456 0
M  V30 8162 H 779.467 4.55387 -1.08352 0
M  V30 8163 H 779.64 6.24074 -1.74459 0
M  V30 8164 N 773.046 0.209999 1.56195 0
M  V30 8165 C 774.295 -0.425106 1.97169 0
M  V30 8166 C 774.608 -1.61718 1.10031 0
M  V30 8167 O 775.814 -2.32105 1.40853 0
M  V30 8168 C 774.27 -0.80771 3.50719 0
M  V30 8169 C 773.878 0.360902 4.46544 0
M  V30 8170 C 775.622 -1.40906 4.00432 0
M  V30 8171 C 773.529 -0.0434919 5.91384 0
M  V30 8172 H 772.459 -0.162598 0.736259 0
M  V30 8173 H 775.11 0.304382 1.80958 0
M  V30 8174 H 773.492 -1.59429 3.62489 0
M  V30 8175 H 774.666 1.13846 4.46515 0
M  V30 8176 H 772.981 0.874729 4.07109 0
M  V30 8177 H 775.578 -1.72433 5.06133 0
M  V30 8178 H 775.921 -2.32081 3.45607 0
M  V30 8179 H 776.454 -0.686154 3.91838 0
M  V30 8180 H 773.193 0.834448 6.50167 0
M  V30 8181 H 772.713 -0.785598 5.94633 0
M  V30 8182 H 774.392 -0.474176 6.4526 0
M  V30 8183 N 774.524 -1.57472 -0.0634922 0
M  V30 8184 C 775.454 -2.07297 -1.07473 0
M  V30 8185 C 776.435 -0.968162 -1.39859 0
M  V30 8186 O 777.62 -1.24139 -1.49343 0
M  V30 8187 C 774.75 -2.52381 -2.38581 0
M  V30 8188 C 773.704 -3.66813 -2.20526 0
M  V30 8189 C 773.03 -3.97982 -3.57092 0
M  V30 8190 C 774.33 -4.96553 -1.61965 0
M  V30 8191 H 776.024 -2.92033 -0.660092 0
M  V30 8192 H 773.57 -1.40488 -0.316074 0
M  V30 8193 H 775.523 -2.85852 -3.09624 0
M  V30 8194 H 774.247 -1.64684 -2.8204 0
M  V30 8195 H 772.906 -3.33639 -1.51924 0
M  V30 8196 H 772.554 -3.07403 -3.98136 0
M  V30 8197 H 772.254 -4.7504 -3.45848 0
M  V30 8198 H 773.778 -4.33956 -4.29552 0
M  V30 8199 H 775.192 -5.28201 -2.22883 0
M  V30 8200 H 773.589 -5.7799 -1.61394 0
M  V30 8201 H 774.659 -4.81396 -0.581918 0
M  V30 8202 N 776.003 0.335068 -1.53997 0
M  V30 8203 C 776.935 1.4327 -1.78903 0
M  V30 8204 C 777.948 1.48347 -0.670598 0
M  V30 8205 O 779.137 1.51277 -0.947494 0
M  V30 8206 C 776.237 2.81878 -1.88144 0
M  V30 8207 C 775.41 3.00141 -3.18174 0
M  V30 8208 C 774.469 4.19041 -3.18263 0
M  V30 8209 O 773.495 4.12751 -3.9195 0
M  V30 8210 N 774.697 5.28004 -2.41231 0
M  V30 8211 H 777.462 1.22272 -2.73623 0
M  V30 8212 H 775.023 0.524996 -1.53152 0
M  V30 8213 H 777.015 3.59609 -1.85644 0
M  V30 8214 H 775.585 2.9598 -1.00572 0
M  V30 8215 H 774.805 2.09808 -3.33728 0
M  V30 8216 H 776.093 3.0923 -4.04047 0
M  V30 8217 H 775.491 5.35986 -1.8093 0
M  V30 8218 H 774.048 6.04196 -2.44521 0
M  V30 8219 N 777.481 1.45874 0.596531 0
M  V30 8220 C 778.728 1.50467 1.35521 0
M  V30 8221 C 779.056 0.150802 1.93915 0
M  V30 8222 O 778.311 -0.851913 1.76184 0
M  V30 8223 C 778.61 2.54034 2.51399 0
M  V30 8224 C 778.276 3.9844 2.11085 0
M  V30 8225 C 776.938 4.37758 1.99804 0
M  V30 8226 C 779.29 4.89209 1.79788 0
M  V30 8227 C 776.618 5.65727 1.55465 0
M  V30 8228 C 778.97 6.17602 1.36931 0
M  V30 8229 C 777.634 6.5584 1.24218 0
M  V30 8230 H 776.904 0.550597 0.495907 0
M  V30 8231 H 779.551 1.79279 0.673145 0
M  V30 8232 H 777.856 2.18832 3.24992 0
M  V30 8233 H 779.553 2.54822 3.09624 0
M  V30 8234 H 776.143 3.67353 2.20794 0
M  V30 8235 H 780.327 4.59562 1.87395 0
M  V30 8236 H 775.583 5.94139 1.44253 0
M  V30 8237 H 779.757 6.87373 1.11764 0
M  V30 8238 H 777.384 7.54897 0.896353 0
M  V30 8239 N 778.959 -0.83999 1.33349 0
M  V30 8240 C 780.375 -1.13049 1.12659 0
M  V30 8241 C 780.575 -2.01328 -0.0832613 0
M  V30 8242 O 779.631 -2.40669 -0.763856 0
M  V30 8243 C 780.944 -1.79366 2.41347 0
M  V30 8244 C 782.492 -1.91937 2.47243 0
M  V30 8245 C 782.967 -2.6167 3.75889 0
M  V30 8246 N 784.458 -2.69184 3.76954 0
M  V30 8247 C 785.193 -3.23827 4.73206 0
M  V30 8248 N 784.689 -3.79166 5.79832 0
M  V30 8249 N 786.482 -3.22068 4.60683 0
M  V30 8250 H 778.633 -0.252432 2.10895 0
M  V30 8251 H 780.896 -0.174501 0.931801 0
M  V30 8252 H 780.602 -1.2196 3.29877 0
M  V30 8253 H 780.476 -2.79396 2.53412 0
M  V30 8254 H 782.863 -2.48498 1.59163 0
M  V30 8255 H 782.944 -0.908604 2.39119 0
M  V30 8256 H 782.588 -2.05769 4.64351 0
M  V30 8257 H 782.518 -3.63217 3.81289 0
M  V30 8258 H 785.009 -2.2994 2.99893 0
M  V30 8259 H 785.322 -4.19061 6.49313 0
M  V30 8260 H 783.667 -3.77457 5.83568 0
M  V30 8261 H 786.858 -2.78092 3.7654 0
M  V30 8262 H 787.031 -3.64351 5.35866 0
M  V30 8263 N 780.437 -1.16799 -1.0581 0
M  V30 8264 C 781.367 -0.902241 -2.15364 0
M  V30 8265 C 782.348 0.153351 -1.69407 0
M  V30 8266 O 783.533 0.00442032 -1.94199 0
M  V30 8267 C 780.663 -0.407911 -3.44896 0
M  V30 8268 C 779.617 -1.40197 -4.04387 0
M  V30 8269 C 778.943 -0.765848 -5.29187 0
M  V30 8270 C 780.243 -2.77316 -4.42598 0
M  V30 8271 H 781.937 -1.81841 -2.37853 0
M  V30 8272 H 779.483 -0.875731 -1.14311 0
M  V30 8273 H 781.436 -0.20945 -4.20879 0
M  V30 8274 H 780.16 0.54378 -3.22041 0
M  V30 8275 H 778.819 -1.58707 -3.30466 0
M  V30 8276 H 778.467 0.192482 -5.02632 0
M  V30 8277 H 778.167 -1.42939 -5.69949 0
M  V30 8278 H 779.691 -0.577519 -6.07863 0
M  V30 8279 H 781.105 -2.62561 -5.09642 0
M  V30 8280 H 779.502 -3.4019 -4.94359 0
M  V30 8281 H 780.572 -3.32199 -3.53231 0
M  V30 8282 N 781.915 1.24427 -0.967243 0
M  V30 8283 C 783.145 1.96256 -0.64554 0
M  V30 8284 C 783.553 1.71959 0.789098 0
M  V30 8285 O 782.896 0.999913 1.54102 0
M  V30 8286 C 782.958 3.49553 -0.839798 0
M  V30 8287 C 782.622 3.97548 -2.25399 0
M  V30 8288 C 783.619 4.07257 -3.23168 0
M  V30 8289 C 781.304 4.30884 -2.58156 0
M  V30 8290 C 783.298 4.49635 -4.51782 0
M  V30 8291 C 780.985 4.72946 -3.86996 0
M  V30 8292 C 781.983 4.82286 -4.83621 0
M  V30 8293 O 781.671 5.23409 -6.10162 0
M  V30 8294 H 781.403 0.632002 -0.239895 0
M  V30 8295 H 783.957 1.59224 -1.29757 0
M  V30 8296 H 782.187 3.86479 -0.130603 0
M  V30 8297 H 783.876 4.02591 -0.517249 0
M  V30 8298 H 784.642 3.8172 -2.9919 0
M  V30 8299 H 780.521 4.22833 -1.83666 0
M  V30 8300 H 784.065 4.5684 -5.27203 0
M  V30 8301 H 779.962 4.9793 -4.10775 0
M  V30 8302 H 780.73 5.4156 -6.13722 0
M  V30 8303 N 783.393 0.737304 1.3929 0
M  V30 8304 C 784.34 0.0988364 2.30588 0
M  V30 8305 C 785.31 -0.727206 1.49335 0
M  V30 8306 O 786.495 -0.686694 1.78014 0
M  V30 8307 C 783.635 -0.800734 3.35682 0
M  V30 8308 C 782.748 0.0381731 4.31983 0
M  V30 8309 C 781.883 -0.862884 5.24145 0
M  V30 8310 C 780.922 -0.0193639 6.12097 0
M  V30 8311 N 780.059 -0.87648 6.96608 0
M  V30 8312 H 784.899 0.883031 2.84617 0
M  V30 8313 H 782.436 0.447111 1.4014 0
M  V30 8314 H 784.394 -1.33676 3.95205 0
M  V30 8315 H 783.024 -1.55088 2.83103 0
M  V30 8316 H 782.076 0.691641 3.74059 0
M  V30 8317 H 783.388 0.690294 4.94 0
M  V30 8318 H 782.542 -1.46667 5.88705 0
M  V30 8319 H 781.281 -1.54878 4.62454 0
M  V30 8320 H 780.286 0.597202 5.46547 0
M  V30 8321 H 781.511 0.663348 6.75852 0
M  V30 8322 H 779.457 -1.54762 6.37483 0
M  V30 8323 H 779.374 -0.280892 7.55478 0
M  V30 8324 H 780.642 -1.46575 7.65595 0
M  V30 8325 N 784.871 -1.49948 0.485112 0
M  V30 8326 C 785.818 -2.28819 -0.301729 0
M  V30 8327 C 786.788 -1.34496 -0.974683 0
M  V30 8328 O 787.973 -1.63444 -0.984418 0
M  V30 8329 C 785.113 -3.16758 -1.36961 0
M  V30 8330 C 784.226 -4.26125 -0.710027 0
M  V30 8331 C 783.361 -5.01302 -1.75699 0
M  V30 8332 C 782.4 -6.02525 -1.07841 0
M  V30 8333 N 781.537 -6.70927 -2.06886 0
M  V30 8334 H 786.377 -2.95604 0.377127 0
M  V30 8335 H 783.914 -1.45764 0.197826 0
M  V30 8336 H 785.872 -3.66106 -2.00056 0
M  V30 8337 H 784.502 -2.51991 -2.01744 0
M  V30 8338 H 783.554 -3.80385 0.0338278 0
M  V30 8339 H 784.866 -4.98493 -0.175079 0
M  V30 8340 H 784.02 -5.54438 -2.46339 0
M  V30 8341 H 782.759 -4.28672 -2.32577 0
M  V30 8342 H 781.764 -5.48635 -0.357706 0
M  V30 8343 H 782.989 -6.77134 -0.516345 0
M  V30 8344 H 780.935 -6.01079 -2.62755 0
M  V30 8345 H 780.852 -7.39216 -1.58414 0
M  V30 8346 H 782.12 -7.28675 -2.76863 0
M  V30 8347 N 786.349 -0.21828 -1.56081 0
M  V30 8348 C 787.296 0.693189 -2.20144 0
M  V30 8349 C 788.266 1.19274 -1.15598 0
M  V30 8350 O 789.451 1.25243 -1.4394 0
M  V30 8351 C 786.591 1.89715 -2.88275 0
M  V30 8352 C 785.704 1.4368 -4.07407 0
M  V30 8353 C 784.839 2.59807 -4.63329 0
M  V30 8354 C 783.878 2.10492 -5.74769 0
M  V30 8355 N 783.015 3.1988 -6.24997 0
M  V30 8356 H 787.855 0.14016 -2.9767 0
M  V30 8357 H 785.392 0.0574292 -1.46988 0
M  V30 8358 H 787.35 2.60398 -3.25958 0
M  V30 8359 H 785.98 2.42311 -2.13273 0
M  V30 8360 H 785.032 0.625007 -3.7523 0
M  V30 8361 H 786.344 1.03517 -4.8794 0
M  V30 8362 H 785.498 3.38577 -5.03438 0
M  V30 8363 H 784.237 3.03256 -3.81951 0
M  V30 8364 H 783.242 1.30182 -5.34165 0
M  V30 8365 H 784.467 1.68045 -6.5798 0
M  V30 8366 H 782.413 3.62817 -5.46534 0
M  V30 8367 H 782.33 2.83958 -7.00645 0
M  V30 8368 H 783.598 3.98796 -6.69763 0
M  V30 8369 N 787.827 1.57504 0.0551401 0
M  V30 8370 C 789.074 1.88055 0.751104 0
M  V30 8371 C 789.402 0.812231 1.76729 0
M  V30 8372 O 788.657 -0.189918 1.94776 0
M  V30 8373 C 788.956 3.25311 1.48013 0
M  V30 8374 C 788.622 4.46858 0.602375 0
M  V30 8375 C 787.284 4.79847 0.360536 0
M  V30 8376 C 789.636 5.212 -0.00524047 0
M  V30 8377 C 786.964 5.84582 -0.498127 0
M  V30 8378 C 789.316 6.26844 -0.851453 0
M  V30 8379 C 787.98 6.58324 -1.103 0
M  V30 8380 H 787.25 0.688142 0.274848 0
M  V30 8381 H 789.897 1.91497 0.0114795 0
M  V30 8382 H 788.202 3.17737 2.29239 0
M  V30 8383 H 789.899 3.46189 2.02371 0
M  V30 8384 H 786.489 4.21049 0.801007 0
M  V30 8385 H 790.673 4.96013 0.168682 0
M  V30 8386 H 785.929 6.07361 -0.701594 0
M  V30 8387 H 790.103 6.83603 -1.32893 0
M  V30 8388 H 787.73 7.39304 -1.77011 0
M  V30 8389 N 789.305 -0.326896 1.54172 0
M  V30 8390 C 790.252 -1.40216 1.83325 0
M  V30 8391 C 791.222 -1.51538 0.680107 0
M  V30 8392 O 792.407 -1.66811 0.926206 0
M  V30 8393 C 789.547 -2.76626 2.0633 0
M  V30 8394 C 788.66 -2.73963 3.34019 0
M  V30 8395 C 787.795 -4.02198 3.47002 0
M  V30 8396 C 786.834 -3.93828 4.68578 0
M  V30 8397 N 785.971 -5.13787 4.78506 0
M  V30 8398 H 790.811 -1.14656 2.7506 0
M  V30 8399 H 788.348 -0.555089 1.36225 0
M  V30 8400 H 790.306 -3.55922 2.17659 0
M  V30 8401 H 788.936 -3.00503 1.1789 0
M  V30 8402 H 787.988 -1.86677 3.31445 0
M  V30 8403 H 789.3 -2.6366 4.2342 0
M  V30 8404 H 788.454 -4.89923 3.57855 0
M  V30 8405 H 787.193 -4.15302 2.55687 0
M  V30 8406 H 786.198 -3.04487 4.57786 0
M  V30 8407 H 787.423 -3.82292 5.61275 0
M  V30 8408 H 785.369 -5.27403 3.90105 0
M  V30 8409 H 785.286 -5.05807 5.61868 0
M  V30 8410 H 786.554 -6.03236 4.93686 0
M  V30 8411 N 790.784 -1.46188 -0.588786 0
M  V30 8412 C 791.694 -1.58865 -1.72624 0
M  V30 8413 C 792.71 -0.472348 -1.67466 0
M  V30 8414 O 793.886 -0.735638 -1.87484 0
M  V30 8415 C 790.951 -1.56989 -3.0912 0
M  V30 8416 C 790.012 -2.79804 -3.25589 0
M  V30 8417 C 789.245 -2.78009 -4.55573 0
M  V30 8418 O 789.468 -1.86406 -5.39082 0
M  V30 8419 O 788.402 -3.6947 -4.75159 0
M  V30 8420 H 792.228 -2.55047 -1.64878 0
M  V30 8421 H 789.813 -1.28912 -0.755115 0
M  V30 8422 H 791.695 -1.58618 -3.90408 0
M  V30 8423 H 790.37 -0.639648 -3.17317 0
M  V30 8424 H 789.277 -2.83732 -2.43818 0
M  V30 8425 H 790.61 -3.72017 -3.22279 0
M  V30 8426 N 792.262 0.832906 -1.33792 0
M  V30 8427 C 793.49 1.62048 -1.28639 0
M  V30 8428 C 793.905 1.88269 0.141522 0
M  V30 8429 O 793.262 1.46706 1.08553 0
M  V30 8430 C 793.313 2.96722 -2.0649 0
M  V30 8431 O 793.034 2.7165 -3.43712 0
M  V30 8432 C 794.535 3.91144 -2.08617 0
M  V30 8433 H 791.755 0.504032 -0.442937 0
M  V30 8434 H 794.299 1.03704 -1.76255 0
M  V30 8435 H 792.454 3.51652 -1.62541 0
M  V30 8436 H 792.868 3.57453 -3.83833 0
M  V30 8437 H 794.342 4.82837 -2.67531 0
M  V30 8438 H 794.819 4.25766 -1.07796 0
M  V30 8439 H 795.425 3.42152 -2.52611 0
M  V30 8440 N 793.74 1.17359 1.05189 0
M  V30 8441 C 794.67 0.91365 2.14883 0
M  V30 8442 C 795.651 -0.144365 1.69486 0
M  V30 8443 O 796.836 0.00587861 1.94199 0
M  V30 8444 C 793.966 0.426196 3.44675 0
M  V30 8445 C 792.92 1.4234 4.03638 0
M  V30 8446 C 792.246 0.793902 5.28773 0
M  V30 8447 C 793.546 2.7966 4.41121 0
M  V30 8448 H 795.24 1.831 2.36885 0
M  V30 8449 H 792.786 0.881781 1.13845 0
M  V30 8450 H 794.739 0.231767 4.20762 0
M  V30 8451 H 793.463 -0.526693 3.22325 0
M  V30 8452 H 792.122 1.60457 3.2962 0
M  V30 8453 H 791.77 -0.165824 5.02727 0
M  V30 8454 H 791.47 1.45959 5.69183 0
M  V30 8455 H 792.994 0.609747 6.07548 0
M  V30 8456 H 794.408 2.6526 5.08242 0
M  V30 8457 H 792.805 3.42807 4.92548 0
M  V30 8458 H 793.875 3.34068 3.51464 0
M  V30 8459 N 795.218 -1.23913 0.973828 0
M  V30 8460 C 796.634 -1.44325 0.681363 0
M  V30 8461 C 796.834 -1.86832 -0.754728 0
M  V30 8462 O 795.89 -2.01024 -1.52793 0
M  V30 8463 C 797.203 -2.50017 1.67069 0
M  V30 8464 C 798.751 -2.63838 1.68399 0
M  V30 8465 C 799.226 -3.72734 2.66145 0
M  V30 8466 N 800.717 -3.80169 2.64624 0
M  V30 8467 C 801.452 -4.6397 3.36927 0
M  V30 8468 N 800.948 -5.51911 4.18767 0
M  V30 8469 N 802.741 -4.58106 3.25722 0
M  V30 8470 H 794.892 -0.946204 1.9016 0
M  V30 8471 H 797.155 -0.477374 0.819035 0
M  V30 8472 H 796.861 -2.25686 2.69738 0
M  V30 8473 H 796.735 -3.48287 1.4483 0
M  V30 8474 H 799.122 -2.87524 0.664379 0
M  V30 8475 H 799.203 -1.65906 1.94702 0
M  V30 8476 H 798.847 -3.49797 3.68245 0
M  V30 8477 H 798.777 -4.70193 2.3712 0
M  V30 8478 H 801.268 -3.17319 2.05224 0
M  V30 8479 H 801.581 -6.12828 4.70809 0
M  V30 8480 H 799.926 -5.51556 4.2286 0
M  V30 8481 H 803.117 -3.8842 2.61242 0
M  V30 8482 H 803.29 -5.23188 3.82333 0
M  V30 8483 N 796.696 -0.74468 -1.38897 0
M  V30 8484 C 798.107 -0.36568 -1.83084 0
M  V30 8485 C 798.458 1.10436 -1.62168 0
M  V30 8486 O 797.583 1.85281 -1.11804 0
M  V30 8487 C 798.178 -0.656946 -3.3237 0
M  V30 8488 C 796.737 -0.331329 -3.74939 0
M  V30 8489 C 795.884 -0.914661 -2.61781 0
M  V30 8490 H 798.835 -0.941551 -1.27752 0
M  V30 8491 H 798.856 0.0679546 -3.80439 0
M  V30 8492 H 798.368 -1.72693 -3.47561 0
M  V30 8493 H 796.469 0.732426 -3.6533 0
M  V30 8494 H 796.582 -0.820655 -4.72019 0
M  V30 8495 H 794.946 -0.34063 -2.52412 0
M  V30 8496 H 795.729 -1.98949 -2.79775 0
M  V30 8497 N 798.174 1.49689 -0.493057 0
M  V30 8498 C 799.404 2.06536 0.0512397 0
M  V30 8499 C 799.812 1.35459 1.32089 0
M  V30 8500 O 799.155 0.424145 1.78736 0
M  V30 8501 C 799.217 3.57452 0.383231 0
M  V30 8502 C 798.881 4.50163 -0.787555 0
M  V30 8503 C 799.878 4.92151 -1.67582 0
M  V30 8504 C 797.563 4.92565 -0.984109 0
M  V30 8505 C 799.557 5.7527 -2.74487 0
M  V30 8506 C 797.244 5.75463 -2.05634 0
M  V30 8507 C 798.242 6.16719 -2.93507 0
M  V30 8508 O 797.93 6.97961 -3.98881 0
M  V30 8509 H 797.662 0.675862 -0.0136516 0
M  V30 8510 H 800.216 1.9356 -0.687298 0
M  V30 8511 H 798.446 3.68408 1.17526 0
M  V30 8512 H 800.135 3.96572 0.8652 0
M  V30 8513 H 800.901 4.60043 -1.53575 0
M  V30 8514 H 796.78 4.5996 -0.309541 0
M  V30 8515 H 800.324 6.07392 -3.43104 0
M  V30 8516 H 796.221 6.06983 -2.19639 0
M  V30 8517 H 796.989 7.16253 -3.96137 0
M  V30 8518 N 799.652 0.226554 1.55963 0
M  V30 8519 C 800.929 -0.453058 1.90281 0
M  V30 8520 C 801.309 -1.77377 1.14458 0
M  V30 8521 O 800.657 -2.27067 0.255496 0
M  V30 8522 C 800.867 -0.641108 3.43061 0
M  V30 8523 C 802.215 -0.946265 4.13921 0
M  V30 8524 O 803.239 -0.727713 3.48687 0
M  V30 8525 O 802.098 -1.36131 5.29274 0
M  V30 8526 H 799.192 -0.240242 0.791336 0
M  V30 8527 H 801.738 0.26911 1.67553 0
M  V30 8528 H 800.51 0.290283 3.90222 0
M  V30 8529 H 800.133 -1.41458 3.71585 0
M  V30 8530 N 801.13 -1.57531 -0.0467866 0
M  V30 8531 C 802.376 -1.8873 -0.742218 0
M  V30 8532 C 802.709 -0.822084 -1.75941 0
M  V30 8533 O 801.984 0.164922 -1.938 0
M  V30 8534 C 802.267 -3.30586 -1.42776 0
M  V30 8535 C 802.12 -4.47785 -0.425285 0
M  V30 8536 C 803.439 -3.71068 -2.36636 0
M  V30 8537 H 800.558 -0.686406 -0.268359 0
M  V30 8538 H 803.2 -1.89999 -0.00511341 0
M  V30 8539 H 801.35 -3.29634 -2.05605 0
M  V30 8540 H 803.022 -4.60867 0.199721 0
M  V30 8541 H 801.265 -4.33037 0.25713 0
M  V30 8542 H 801.936 -5.43884 -0.943086 0
M  V30 8543 H 804.412 -3.73273 -1.83866 0
M  V30 8544 H 803.288 -4.71165 -2.81593 0
M  V30 8545 H 803.549 -3.02355 -3.22542 0
M  V30 8546 N 802.608 0.318715 -1.54344 0
M  V30 8547 C 803.555 1.39242 -1.84066 0
M  V30 8548 C 804.525 1.51175 -0.688134 0
M  V30 8549 O 805.71 1.66318 -0.935039 0
M  V30 8550 C 802.85 2.75528 -2.07794 0
M  V30 8551 C 801.963 2.72187 -3.35467 0
M  V30 8552 C 801.098 4.00352 -3.4913 0
M  V30 8553 C 800.137 3.91338 -4.7066 0
M  V30 8554 N 799.274 5.11242 -4.81224 0
M  V30 8555 H 804.114 1.13196 -2.75664 0
M  V30 8556 H 801.651 0.547857 -1.36517 0
M  V30 8557 H 803.609 3.54763 -2.19543 0
M  V30 8558 H 802.239 2.99873 -1.19482 0
M  V30 8559 H 801.291 1.84917 -3.3243 0
M  V30 8560 H 802.603 2.61411 -4.24812 0
M  V30 8561 H 801.757 4.88019 -3.60448 0
M  V30 8562 H 800.496 4.1394 -2.57886 0
M  V30 8563 H 799.501 3.02055 -4.59394 0
M  V30 8564 H 800.726 3.7931 -5.63294 0
M  V30 8565 H 798.672 5.25327 -3.92897 0
M  V30 8566 H 798.589 5.0282 -5.64543 0
M  V30 8567 H 799.857 6.0061 -4.96879 0
M  V30 8568 N 804.086 1.46499 0.581025 0
M  V30 8569 C 805.363 1.42372 1.34125 0
M  V30 8570 C 805.743 0.108073 2.10823 0
M  V30 8571 O 805.091 -0.910366 2.09582 0
M  V30 8572 C 805.301 2.65445 2.26583 0
M  V30 8573 C 806.649 3.11664 2.88359 0
M  V30 8574 O 807.673 2.66006 2.36896 0
M  V30 8575 O 806.532 3.90974 3.81839 0
M  V30 8576 H 803.626 0.566262 0.602724 0
M  V30 8577 H 806.172 1.58667 0.601903 0
M  V30 8578 H 804.944 3.52756 1.69348 0
M  V30 8579 H 804.567 2.51618 3.07854 0
M  V30 8580 N 805.565 -0.825799 1.34232 0
M  V30 8581 C 806.811 -1.58419 1.26614 0
M  V30 8582 C 807.144 -1.93503 -0.164341 0
M  V30 8583 O 806.419 -1.59785 -1.109 0
M  V30 8584 C 806.702 -2.8856 2.15418 0
M  V30 8585 C 806.555 -2.60075 3.66989 0
M  V30 8586 C 807.874 -3.90107 2.03726 0
M  V30 8587 H 804.993 -0.574794 0.461282 0
M  V30 8588 H 807.635 -0.951519 1.64457 0
M  V30 8589 H 805.785 -3.42553 1.83275 0
M  V30 8590 H 807.457 -2.12414 4.09485 0
M  V30 8591 H 805.7 -1.93565 3.88221 0
M  V30 8592 H 806.371 -3.52866 4.24488 0
M  V30 8593 H 808.847 -3.45459 2.31942 0
M  V30 8594 H 807.723 -4.78976 2.68092 0
M  V30 8595 H 807.984 -4.30329 1.01337 0
M  V30 8596 N 807.043 -1.17915 -1.04565 0
M  V30 8597 C 808.292 -0.965816 -1.77073 0
M  V30 8598 C 808.605 0.506005 -1.88942 0
M  V30 8599 O 809.811 0.837717 -2.58253 0
M  V30 8600 C 808.267 -1.67894 -3.18339 0
M  V30 8601 C 807.875 -3.18972 -3.1458 0
M  V30 8602 C 809.619 -1.54823 -3.9526 0
M  V30 8603 C 807.526 -3.82946 -4.50674 0
M  V30 8604 H 806.456 -0.357729 -0.663736 0
M  V30 8605 H 809.107 -1.41235 -1.17153 0
M  V30 8606 H 807.489 -1.16016 -3.78624 0
M  V30 8607 H 808.663 -3.77835 -2.63776 0
M  V30 8608 H 806.978 -3.32127 -2.51159 0
M  V30 8609 H 809.575 -1.99984 -4.95894 0
M  V30 8610 H 809.918 -0.499727 -4.1329 0
M  V30 8611 H 810.451 -2.03953 -3.41538 0
M  V30 8612 H 807.19 -4.8782 -4.37849 0
M  V30 8613 H 806.71 -3.2887 -5.01602 0
M  V30 8614 H 808.389 -3.85518 -5.196 0
M  V30 8615 N 808.521 1.23394 -0.980386 0
M  V30 8616 C 809.431 2.28561 -0.528864 0
M  V30 8617 C 810.447 1.68946 0.416329 0
M  V30 8618 O 811.623 1.99355 0.286251 0
M  V30 8619 C 808.688 3.46323 0.16155 0
M  V30 8620 C 807.749 4.21297 -0.825044 0
M  V30 8621 C 806.982 5.33437 -0.167483 0
M  V30 8622 O 807.205 5.60812 1.04146 0
M  V30 8623 O 806.139 5.95637 -0.866047 0
M  V30 8624 H 809.965 2.69326 -1.40346 0
M  V30 8625 H 807.55 1.29325 -0.748019 0
M  V30 8626 H 809.432 4.17811 0.548841 0
M  V30 8627 H 808.107 3.0751 1.01092 0
M  V30 8628 H 807.014 3.52134 -1.26303 0
M  V30 8629 H 808.347 4.6396 -1.64322 0
M  V30 8630 N 809.999 0.752036 1.385 0
M  V30 8631 C 810.931 0.0835089 2.29048 0
M  V30 8632 C 811.944 -0.685402 1.47669 0
M  V30 8633 O 813.133 -0.526748 1.70551 0
M  V30 8634 C 810.233 -0.905772 3.26572 0
M  V30 8635 C 809.406 -0.194828 4.36966 0
M  V30 8636 C 808.465 -1.09464 5.14688 0
M  V30 8637 O 807.491 -0.565743 5.66381 0
M  V30 8638 N 808.693 -2.42287 5.2752 0
M  V30 8639 H 811.458 0.861142 2.87062 0
M  V30 8640 H 809.019 0.602689 1.50264 0
M  V30 8641 H 811.011 -1.51072 3.75446 0
M  V30 8642 H 809.581 -1.58449 2.69467 0
M  V30 8643 H 808.801 0.590812 3.89747 0
M  V30 8644 H 810.089 0.297189 5.07931 0
M  V30 8645 H 809.487 -2.87715 4.8707 0
M  V30 8646 H 808.044 -2.97836 5.79773 0
M  V30 8647 N 811.477 -1.49425 0.500989 0
M  V30 8648 C 812.707 -2.06561 -0.0402858 0
M  V30 8649 C 813.115 -1.36157 -1.31369 0
M  V30 8650 O 812.458 -0.433618 -1.78509 0
M  V30 8651 C 812.52 -3.5765 -0.364269 0
M  V30 8652 C 812.184 -4.49739 0.811417 0
M  V30 8653 C 813.181 -4.91255 1.7019 0
M  V30 8654 C 810.866 -4.92036 1.01022 0
M  V30 8655 C 812.86 -5.73806 2.77534 0
M  V30 8656 C 810.547 -5.74364 2.08683 0
M  V30 8657 C 811.545 -6.15154 2.96774 0
M  V30 8658 O 811.233 -6.95836 4.02577 0
M  V30 8659 H 810.965 -0.67578 0.0172357 0
M  V30 8660 H 813.519 -1.93193 0.697553 0
M  V30 8661 H 811.749 -3.69026 -1.1557 0
M  V30 8662 H 813.438 -3.97025 -0.844156 0
M  V30 8663 H 814.204 -4.59222 1.56013 0
M  V30 8664 H 810.083 -4.59789 0.333929 0
M  V30 8665 H 813.627 -6.05564 3.4632 0
M  V30 8666 H 809.524 -6.0581 2.22855 0
M  V30 8667 H 810.292 -7.14142 3.9993 0
M  V30 8668 N 812.955 -0.234822 -1.55841 0
M  V30 8669 C 814.18 0.400741 -2.03492 0
M  V30 8670 C 814.605 1.51618 -1.11327 0
M  V30 8671 O 813.963 1.81002 -0.103922 0
M  V30 8672 C 814.011 0.897184 -3.49261 0
M  V30 8673 O 813.115 2.00764 -3.60233 0
M  V30 8674 H 812.456 0.0890023 -0.658008 0
M  V30 8675 H 814.986 -0.357345 -2.01455 0
M  V30 8676 H 814.996 1.20356 -3.89844 0
M  V30 8677 H 813.671 0.0808639 -4.15821 0
M  V30 8678 H 812.248 1.70689 -3.31541 0
M  V30 8679 N 814.433 1.57553 0.0384317 0
M  V30 8680 C 815.396 2.04927 1.02653 0
M  V30 8681 C 816.396 0.951768 1.29607 0
M  V30 8682 O 817.586 1.21568 1.24768 0
M  V30 8683 C 814.718 2.45828 2.36181 0
M  V30 8684 H 815.911 2.93474 0.617508 0
M  V30 8685 H 813.464 1.53679 0.285031 0
M  V30 8686 H 814.199 1.60408 2.8185 0
M  V30 8687 H 813.984 3.25945 2.1795 0
M  V30 8688 H 815.474 2.82939 3.0714 0
M  V30 8689 N 815.911 -0.310526 1.54511 0
M  V30 8690 C 817.159 -1.04484 1.72996 0
M  V30 8691 C 817.48 -1.88118 0.513479 0
M  V30 8692 O 816.75 -1.90119 -0.472384 0
M  V30 8693 H 815.33 -0.388747 0.637875 0
M  V30 8694 H 817.992 -0.343811 1.91844 0
M  V30 8695 H 817.088 -1.70341 2.61515 0
M  V30 8696 N 817.389 -1.46805 -0.573248 0
M  V30 8697 C 818.339 -1.54497 -1.67674 0
M  V30 8698 C 819.323 -0.405117 -1.55716 0
M  V30 8699 O 820.515 -0.654097 -1.64471 0
M  V30 8700 C 817.644 -1.54717 -3.0646 0
M  V30 8701 C 816.73 -2.7403 -3.2368 0
M  V30 8702 N 817.121 -3.98871 -3.11023 0
M  V30 8703 C 815.419 -2.70453 -3.54642 0
M  V30 8704 C 816.12 -4.78689 -3.30502 0
M  V30 8705 N 815.096 -4.10727 -3.56096 0
M  V30 8706 H 818.898 -2.48809 -1.56433 0
M  V30 8707 H 816.412 -1.42576 -0.777554 0
M  V30 8708 H 818.409 -1.58316 -3.8567 0
M  V30 8709 H 817.069 -0.614886 -3.18825 0
M  V30 8710 H 818.08 -4.29976 -2.88688 0
M  V30 8711 H 814.757 -1.86291 -3.73633 0
M  V30 8712 H 816.147 -5.87615 -3.2582 0
M  V30 8713 N 818.867 0.818669 -1.34668 0
M  V30 8714 C 819.797 1.94468 -1.29245 0
M  V30 8715 C 820.778 1.69257 -0.169101 0
M  V30 8716 O 821.963 1.90794 -0.362143 0
M  V30 8717 C 819.093 3.31001 -1.05145 0
M  V30 8718 C 818.047 3.70663 -2.13992 0
M  V30 8719 C 817.373 5.05226 -1.75074 0
M  V30 8720 C 818.673 3.82312 -3.55858 0
M  V30 8721 H 820.367 1.99263 -2.2346 0
M  V30 8722 H 817.913 0.957304 -1.07572 0
M  V30 8723 H 819.866 4.09364 -0.999949 0
M  V30 8724 H 818.59 3.26517 -0.0737312 0
M  V30 8725 H 817.249 2.94578 -2.18219 0
M  V30 8726 H 816.897 4.97233 -0.759518 0
M  V30 8727 H 816.597 5.32734 -2.47928 0
M  V30 8728 H 818.121 5.86042 -1.71427 0
M  V30 8729 H 819.535 4.50935 -3.5402 0
M  V30 8730 H 817.932 4.21278 -4.2737 0
M  V30 8731 H 819.002 2.84193 -3.9289 0
M  V30 8732 N 820.346 1.18468 1.03938 0
M  V30 8733 C 821.623 0.890435 1.74157 0
M  V30 8734 C 822.003 -0.606409 2.02203 0
M  V30 8735 O 821.351 -1.5615 1.66822 0
M  V30 8736 C 821.561 1.73906 3.02585 0
M  V30 8737 C 822.909 1.96686 3.76297 0
M  V30 8738 O 823.933 1.70969 3.12487 0
M  V30 8739 O 822.792 2.39986 4.90988 0
M  V30 8740 H 819.886 0.330889 0.757919 0
M  V30 8741 H 822.432 1.29228 1.09992 0
M  V30 8742 H 821.204 2.75369 2.78006 0
M  V30 8743 H 820.827 1.33581 3.74489 0
M  V30 8744 N 821.824 -1.22873 0.986916 0
M  V30 8745 C 822.757 -2.23154 0.477245 0
M  V30 8746 C 823.735 -1.55981 -0.459206 0
M  V30 8747 O 824.919 -1.84503 -0.386141 0
M  V30 8748 C 822.046 -3.37289 -0.308838 0
M  V30 8749 C 821.092 -4.22637 0.572717 0
M  V30 8750 S 821.925 -4.95758 2.02446 0
M  V30 8751 C 823.081 -6.13338 1.2477 0
M  V30 8752 H 823.314 -2.6604 1.32702 0
M  V30 8753 H 820.847 -1.32455 0.793415 0
M  V30 8754 H 822.805 -4.03472 -0.756351 0
M  V30 8755 H 821.466 -2.92922 -1.13381 0
M  V30 8756 H 820.659 -5.0399 -0.0318024 0
M  V30 8757 H 820.261 -3.61555 0.956746 0
M  V30 8758 H 822.553 -6.7556 0.51231 0
M  V30 8759 H 823.496 -6.78189 2.03629 0
M  V30 8760 H 823.904 -5.59311 0.763622 0
M  V30 8761 N 823.302 -0.75937 -1.38099 0
M  V30 8762 C 824.232 -0.151077 -2.33011 0
M  V30 8763 C 825.213 0.697099 -1.5516 0
M  V30 8764 O 826.398 0.637101 -1.83452 0
M  V30 8765 C 823.528 0.738423 -3.39359 0
M  V30 8766 C 822.482 -0.0074741 -4.27999 0
M  V30 8767 C 821.808 1.00066 -5.25253 0
M  V30 8768 C 823.108 -1.17926 -5.08813 0
M  V30 8769 H 824.802 -0.943933 -2.84131 0
M  V30 8770 H 822.348 -0.455362 -1.36611 0
M  V30 8771 H 824.301 1.17369 -4.04725 0
M  V30 8772 H 823.025 1.56366 -2.86735 0
M  V30 8773 H 821.684 -0.423379 -3.64147 0
M  V30 8774 H 821.332 1.82012 -4.68914 0
M  V30 8775 H 821.032 0.506199 -5.85416 0
M  V30 8776 H 822.556 1.43512 -5.93495 0
M  V30 8777 H 823.97 -0.821262 -5.67387 0
M  V30 8778 H 822.367 -1.60497 -5.78239 0
M  V30 8779 H 823.437 -1.98938 -4.42212 0
M  V30 8780 N 824.78 1.49157 -0.508906 0
M  V30 8781 C 826.005 2.07376 0.0315182 0
M  V30 8782 C 826.43 1.36575 1.2934 0
M  V30 8783 O 825.788 0.424963 1.76249 0
M  V30 8784 C 825.836 3.59661 0.260118 0
M  V30 8785 O 824.94 3.90255 1.33322 0
M  V30 8786 H 824.281 0.663334 -0.029739 0
M  V30 8787 H 826.811 1.91857 -0.710791 0
M  V30 8788 H 826.821 4.05056 0.489225 0
M  V30 8789 H 825.496 4.10601 -0.661794 0
M  V30 8790 H 824.073 3.56661 1.08844 0
M  V30 8791 N 826.258 0.243083 1.55714 0
M  V30 8792 C 827.674 -0.111853 1.59208 0
M  V30 8793 C 827.874 -1.5723 1.2602 0
M  V30 8794 O 826.93 -2.31608 1.00569 0
M  V30 8795 C 828.243 0.233885 2.99789 0
M  V30 8796 C 829.791 0.177873 3.12494 0
M  V30 8797 C 830.266 0.49759 4.55289 0
M  V30 8798 N 831.757 0.447949 4.61029 0
M  V30 8799 C 832.492 0.668545 5.69489 0
M  V30 8800 N 831.988 0.952064 6.86227 0
M  V30 8801 N 833.781 0.599512 5.58894 0
M  V30 8802 H 825.932 1.19554 1.75558 0
M  V30 8803 H 828.195 0.480765 0.817049 0
M  V30 8804 H 827.901 1.24835 3.28799 0
M  V30 8805 H 827.775 -0.440846 3.74615 0
M  V30 8806 H 830.162 -0.827263 2.83267 0
M  V30 8807 H 830.243 0.886399 2.39951 0
M  V30 8808 H 829.887 1.50026 4.85237 0
M  V30 8809 H 829.817 -0.232371 5.26087 0
M  V30 8810 H 832.308 0.237388 3.77154 0
M  V30 8811 H 832.621 1.10791 7.64817 0
M  V30 8812 H 830.966 0.989496 6.8792 0
M  V30 8813 H 834.157 0.378088 4.66571 0
M  V30 8814 H 834.33 0.774828 6.43351 0
M  V30 8815 N 827.736 -1.57571 -0.0300757 0
M  V30 8816 C 828.985 -1.88407 -0.720126 0
M  V30 8817 C 829.298 -0.841466 -1.76575 0
M  V30 8818 O 830.504 -1.03902 -2.50832 0
M  V30 8819 C 828.96 -3.34348 -1.33188 0
M  V30 8820 C 828.568 -4.46837 -0.32266 0
M  V30 8821 C 830.312 -3.74333 -2.00187 0
M  V30 8822 C 828.219 -5.83838 -0.942703 0
M  V30 8823 H 827.149 -0.702952 -0.272718 0
M  V30 8824 H 829.8 -1.83482 0.0255337 0
M  V30 8825 H 828.182 -3.34014 -2.12721 0
M  V30 8826 H 829.356 -4.58638 0.445887 0
M  V30 8827 H 827.671 -4.15678 0.245181 0
M  V30 8828 H 830.268 -4.74008 -2.47428 0
M  V30 8829 H 830.611 -3.06275 -2.81959 0
M  V30 8830 H 831.144 -3.76837 -1.2743 0
M  V30 8831 H 827.883 -6.55294 -0.164413 0
M  V30 8832 H 827.403 -5.75759 -1.68111 0
M  V30 8833 H 829.082 -6.30535 -1.45034 0
M  V30 8834 N 829.214 0.302327 -1.54673 0
M  V30 8835 C 830.161 1.37282 -1.85532 0
M  V30 8836 C 831.131 1.50437 -0.704129 0
M  V30 8837 O 832.316 1.65317 -0.952627 0
M  V30 8838 C 829.456 2.73309 -2.10704 0
M  V30 8839 C 828.569 2.68614 -3.38335 0
M  V30 8840 C 827.704 3.96626 -3.53357 0
M  V30 8841 C 826.743 3.86324 -4.74784 0
M  V30 8842 N 825.88 5.06109 -4.86619 0
M  V30 8843 H 830.72 1.10265 -2.76849 0
M  V30 8844 H 828.257 0.533346 -1.37091 0
M  V30 8845 H 830.215 3.52414 -2.23294 0
M  V30 8846 H 828.845 2.98589 -1.22656 0
M  V30 8847 H 827.897 1.81381 -3.34373 0
M  V30 8848 H 829.209 2.56891 -4.27561 0
M  V30 8849 H 828.363 4.84168 -3.65604 0
M  V30 8850 H 827.102 4.11182 -2.62261 0
M  V30 8851 H 826.107 2.97166 -4.62572 0
M  V30 8852 H 827.332 3.73315 -5.67286 0
M  V30 8853 H 825.278 5.2113 -3.98446 0
M  V30 8854 H 825.195 4.96804 -5.69844 0
M  V30 8855 H 826.463 5.95306 -5.03221 0
M  V30 8856 N 830.692 1.47107 0.565454 0
M  V30 8857 C 831.922 1.56681 1.34664 0
M  V30 8858 C 832.33 0.213011 1.87997 0
M  V30 8859 O 831.673 -0.802629 1.65238 0
M  V30 8860 C 831.735 2.52528 2.55871 0
M  V30 8861 C 831.399 3.98403 2.23883 0
M  V30 8862 C 832.396 4.87125 1.81673 0
M  V30 8863 C 830.081 4.43674 2.35496 0
M  V30 8864 C 832.075 6.19135 1.51494 0
M  V30 8865 C 829.762 5.75714 2.0493 0
M  V30 8866 C 830.76 6.63266 1.62996 0
M  V30 8867 O 830.448 7.92853 1.32813 0
M  V30 8868 H 830.18 0.531967 0.417117 0
M  V30 8869 H 832.734 1.93368 0.692669 0
M  V30 8870 H 830.964 2.10893 3.24131 0
M  V30 8871 H 832.653 2.5232 3.17945 0
M  V30 8872 H 833.419 4.534 1.72201 0
M  V30 8873 H 829.298 3.7574 2.67096 0
M  V30 8874 H 832.842 6.87429 1.1869 0
M  V30 8875 H 828.739 6.08983 2.14031 0
M  V30 8876 H 829.507 8.0528 1.46513 0
M  V30 8877 N 832.17 -0.811516 1.35101 0
M  V30 8878 C 833.1 -1.9378 1.30275 0
M  V30 8879 C 834.081 -1.69165 0.178075 0
M  V30 8880 O 835.266 -1.90599 0.372256 0
M  V30 8881 C 832.396 -3.30439 1.06899 0
M  V30 8882 C 831.35 -3.69523 2.15955 0
M  V30 8883 C 830.676 -5.0429 1.77751 0
M  V30 8884 C 831.976 -3.80419 3.57881 0
M  V30 8885 H 833.67 -1.98075 2.24514 0
M  V30 8886 H 831.216 -0.951586 1.08078 0
M  V30 8887 H 833.169 -4.08828 1.02164 0
M  V30 8888 H 831.893 -3.26473 0.0910462 0
M  V30 8889 H 830.552 -2.93416 2.19778 0
M  V30 8890 H 830.2 -4.96823 0.785876 0
M  V30 8891 H 829.9 -5.31411 2.5075 0
M  V30 8892 H 831.424 -5.85125 1.74533 0
M  V30 8893 H 832.838 -4.49051 3.56407 0
M  V30 8894 H 831.235 -4.19005 4.29598 0
M  V30 8895 H 832.305 -2.82105 3.94391 0
M  V30 8896 N 833.648 -1.19017 -1.03309 0
M  V30 8897 C 834.58 -0.881847 -2.11556 0
M  V30 8898 C 835.593 0.123711 -1.62329 0
M  V30 8899 O 836.782 -0.105141 -1.7819 0
M  V30 8900 C 833.882 -0.297634 -3.37591 0
M  V30 8901 C 833.055 -1.35072 -4.16022 0
M  V30 8902 C 832.114 -0.780812 -5.20375 0
M  V30 8903 O 831.14 -1.45745 -5.50224 0
M  V30 8904 N 832.342 0.417964 -5.78993 0
M  V30 8905 H 835.107 -1.81359 -2.38598 0
M  V30 8906 H 832.668 -1.0916 -1.19565 0
M  V30 8907 H 834.66 0.097374 -4.04583 0
M  V30 8908 H 833.23 0.538299 -3.0793 0
M  V30 8909 H 832.45 -1.92074 -3.4424 0
M  V30 8910 H 833.738 -2.06044 -4.65213 0
M  V30 8911 H 833.136 0.985281 -5.57054 0
M  V30 8912 H 831.693 0.754802 -6.47415 0
M  V30 8913 N 835.127 1.22348 -0.993418 0
M  V30 8914 C 836.355 1.95125 -0.688021 0
M  V30 8915 C 836.77 1.73377 0.747388 0
M  V30 8916 O 836.127 1.03317 1.50439 0
M  V30 8917 C 836.178 3.47819 -0.985097 0
M  V30 8918 O 835.899 3.68838 -2.3641 0
M  V30 8919 C 837.4 4.37779 -0.697474 0
M  V30 8920 H 834.62 0.62087 -0.254481 0
M  V30 8921 H 837.164 1.55485 -1.32833 0
M  V30 8922 H 835.319 3.85426 -0.390583 0
M  V30 8923 H 835.733 4.63032 -2.46377 0
M  V30 8924 H 837.207 5.43666 -0.955604 0
M  V30 8925 H 837.684 4.37651 0.368524 0
M  V30 8926 H 838.29 4.05799 -1.27306 0
M  V30 8927 N 836.605 0.766683 1.37694 0
M  V30 8928 C 838.021 0.445739 1.53249 0
M  V30 8929 C 838.221 -1.03935 1.72626 0
M  V30 8930 O 837.277 -1.82525 1.74473 0
M  V30 8931 C 838.59 1.2564 2.73194 0
M  V30 8932 C 840.138 1.24779 2.87053 0
M  V30 8933 C 840.613 2.04169 4.09974 0
M  V30 8934 N 842.104 2.01497 4.17077 0
M  V30 8935 C 842.839 2.5971 5.11212 0
M  V30 8936 N 842.335 3.26691 6.10938 0
M  V30 8937 N 844.128 2.49568 5.03659 0
M  V30 8938 H 836.279 1.72899 1.23368 0
M  V30 8939 H 838.542 0.733701 0.600322 0
M  V30 8940 H 838.248 2.30859 2.65324 0
M  V30 8941 H 838.122 0.882133 3.6674 0
M  V30 8942 H 840.509 0.203603 2.94397 0
M  V30 8943 H 840.59 1.66166 1.9448 0
M  V30 8944 H 840.234 3.08606 4.03392 0
M  V30 8945 H 840.164 1.60167 5.01651 0
M  V30 8946 H 842.655 1.52728 3.45662 0
M  V30 8947 H 842.968 3.68497 6.79286 0
M  V30 8948 H 841.313 3.30789 6.11231 0
M  V30 8949 H 844.504 1.96859 4.24693 0
M  V30 8950 H 844.677 2.95231 5.76839 0
M  V30 8951 N 838.083 -1.48885 0.516809 0
M  V30 8952 C 839.332 -2.01686 -0.0239899 0
M  V30 8953 C 839.645 -1.40029 -1.3657 0
M  V30 8954 O 840.851 -1.84249 -1.9941 0
M  V30 8955 C 839.307 -3.59779 -0.0931825 0
M  V30 8956 C 838.915 -4.30416 1.24283 0
M  V30 8957 C 840.659 -4.20471 -0.583507 0
M  V30 8958 C 838.566 -5.80408 1.13494 0
M  V30 8959 H 837.496 -0.753892 -0.0127376 0
M  V30 8960 H 840.147 -1.71273 0.65861 0
M  V30 8961 H 838.529 -3.86976 -0.840577 0
M  V30 8962 H 839.703 -4.14905 2.00476 0
M  V30 8963 H 838.018 -3.81539 1.66785 0
M  V30 8964 H 840.615 -5.30333 -0.681987 0
M  V30 8965 H 840.958 -3.84898 -1.58617 0
M  V30 8966 H 841.491 -3.97654 0.107814 0
M  V30 8967 H 838.23 -6.20532 2.11235 0
M  V30 8968 H 837.75 -5.98368 0.414167 0
M  V30 8969 H 839.429 -6.41781 0.820162 0
M  V30 8970 N 839.561 -0.251338 -1.55583 0
M  V30 8971 C 840.838 0.422729 -1.90977 0
M  V30 8972 C 841.218 1.75534 -1.17265 0
M  V30 8973 O 840.566 2.26632 -0.291588 0
M  V30 8974 C 840.776 0.586448 -3.44037 0
M  V30 8975 C 842.124 0.880294 -4.15375 0
M  V30 8976 O 843.148 0.672148 -3.49801 0
M  V30 8977 O 842.007 1.27694 -5.31372 0
M  V30 8978 H 839.101 0.227622 -0.795058 0
M  V30 8979 H 841.647 -0.295733 -1.67103 0
M  V30 8980 H 840.419 -0.352327 -3.89711 0
M  V30 8981 H 840.042 1.35528 -3.73789 0
M  V30 8982 N 841.039 1.57585 0.0217189 0
M  V30 8983 C 841.972 2.02435 1.05334 0
M  V30 8984 C 842.95 0.91006 1.34747 0
M  V30 8985 O 844.134 1.17648 1.47279 0
M  V30 8986 C 841.261 2.40362 2.38629 0
M  V30 8987 C 840.307 3.62307 2.25025 0
M  V30 8988 S 841.14 5.11141 1.59673 0
M  V30 8989 C 842.296 5.52316 2.94444 0
M  V30 8990 H 842.529 2.89621 0.671354 0
M  V30 8991 H 840.062 1.52648 0.231925 0
M  V30 8992 H 842.02 2.62883 3.15282 0
M  V30 8993 H 840.681 1.53615 2.73973 0
M  V30 8994 H 839.874 3.86523 3.23443 0
M  V30 8995 H 839.476 3.39675 1.56515 0
M  V30 8996 H 841.768 5.53449 3.90768 0
M  V30 8997 H 842.711 6.52539 2.74952 0
M  V30 8998 H 843.119 4.79834 2.97355 0
M  V30 8999 N 842.517 -0.29412 1.54831 0
M  V30 9000 C 843.766 -1.02614 1.73647 0
M  V30 9001 C 844.079 -1.88193 0.533162 0
M  V30 9002 O 845.285 -2.64713 0.603275 0
M  V30 9003 C 843.741 -1.87417 3.07251 0
M  V30 9004 C 843.349 -1.06806 4.35082 0
M  V30 9005 C 845.093 -2.60176 3.35423 0
M  V30 9006 C 843 -1.90926 5.59733 0
M  V30 9007 H 841.93 -0.386834 0.647206 0
M  V30 9008 H 844.581 -0.282789 1.81308 0
M  V30 9009 H 842.963 -2.65765 2.93572 0
M  V30 9010 H 844.137 -0.330226 4.59615 0
M  V30 9011 H 842.452 -0.455979 4.13896 0
M  V30 9012 H 845.049 -3.23476 4.25755 0
M  V30 9013 H 845.392 -3.29365 2.54606 0
M  V30 9014 H 845.925 -1.88871 3.50103 0
M  V30 9015 H 842.664 -1.26194 6.43238 0
M  V30 9016 H 842.184 -2.62363 5.39375 0
M  V30 9017 H 843.863 -2.48807 5.97247 0
M  V30 9018 N 843.995 -1.47404 -0.557645 0
M  V30 9019 C 845.242 -1.54007 -1.31484 0
M  V30 9020 C 845.57 -0.202162 -1.93447 0
M  V30 9021 O 844.825 0.804901 -1.78381 0
M  V30 9022 C 845.124 -2.6061 -2.44575 0
M  V30 9023 C 844.79 -4.03896 -2.00446 0
M  V30 9024 C 843.452 -4.42901 -1.88127 0
M  V30 9025 C 845.804 -4.93804 -1.66754 0
M  V30 9026 C 843.132 -5.6965 -1.40411 0
M  V30 9027 C 845.484 -6.21016 -1.20509 0
M  V30 9028 C 844.148 -6.58903 -1.06786 0
M  V30 9029 H 843.418 -0.563552 -0.481134 0
M  V30 9030 H 846.065 -1.81001 -0.625375 0
M  V30 9031 H 844.37 -2.27371 -3.19076 0
M  V30 9032 H 846.067 -2.62941 -3.02759 0
M  V30 9033 H 842.657 -3.73077 -2.10977 0
M  V30 9034 H 846.841 -4.64369 -1.75144 0
M  V30 9035 H 842.097 -5.97755 -1.2845 0
M  V30 9036 H 846.271 -6.90095 -0.935001 0
M  V30 9037 H 843.898 -7.57008 -0.695891 0
M  V30 9038 N 845.473 0.80434 -1.35529 0
M  V30 9039 C 846.701 1.59283 -1.32048 0
M  V30 9040 C 847.116 1.88527 0.101556 0
M  V30 9041 O 846.473 1.48975 1.05417 0
M  V30 9042 C 846.524 2.92276 -2.12737 0
M  V30 9043 O 846.245 2.64299 -3.49396 0
M  V30 9044 C 847.746 3.86631 -2.16867 0
M  V30 9045 H 844.966 0.494523 -0.453528 0
M  V30 9046 H 847.51 0.999415 -1.78415 0
M  V30 9047 H 845.665 3.48125 -1.69964 0
M  V30 9048 H 846.079 3.4923 -3.91329 0
M  V30 9049 H 847.553 4.77053 -2.77712 0
M  V30 9050 H 848.03 4.23384 -1.16803 0
M  V30 9051 H 848.636 3.36717 -2.59811 0
M  V30 9052 N 846.951 1.19563 1.02676 0
M  V30 9053 C 848.362 1.00158 1.57561 0
M  V30 9054 C 848.713 -0.444922 1.91089 0
M  V30 9055 O 847.838 -1.32466 1.71119 0
M  V30 9056 C 848.433 1.81181 2.86284 0
M  V30 9057 C 846.992 1.66171 3.37734 0
M  V30 9058 C 846.139 1.7975 2.11152 0
M  V30 9059 H 849.09 1.33904 0.85179 0
M  V30 9060 H 849.111 1.30916 3.57269 0
M  V30 9061 H 848.623 2.86454 2.6185 0
M  V30 9062 H 846.724 0.634927 3.6715 0
M  V30 9063 H 846.837 2.46832 4.10622 0
M  V30 9064 H 845.201 1.22833 2.23123 0
M  V30 9065 H 845.984 2.86487 1.89157 0
M  V30 9066 N 848.429 -1.21819 0.999893 0
M  V30 9067 C 849.677 -1.90375 0.678351 0
M  V30 9068 C 849.998 -1.78155 -0.792824 0
M  V30 9069 O 849.268 -1.17319 -1.56885 0
M  V30 9070 H 847.848 -0.704661 0.247915 0
M  V30 9071 H 850.51 -1.48021 1.2679 0
M  V30 9072 H 849.606 -2.97385 0.947023 0
M  V30 9073 N 849.908 -0.773975 -1.37286 0
M  V30 9074 C 851.319 -0.404433 -1.82267 0
M  V30 9075 C 851.67 1.06971 -1.64474 0
M  V30 9076 O 850.795 1.82867 -1.15708 0
M  V30 9077 C 851.39 -0.727298 -3.30902 0
M  V30 9078 C 849.949 -0.410784 -3.74152 0
M  V30 9079 C 849.096 -0.969983 -2.59782 0
M  V30 9080 H 852.047 -0.968437 -1.25726 0
M  V30 9081 H 852.068 -0.0127575 -3.80498 0
M  V30 9082 H 851.58 -1.80026 -3.4382 0
M  V30 9083 H 849.681 0.65477 -3.66802 0
M  V30 9084 H 849.794 -0.920592 -4.70172 0
M  V30 9085 H 848.158 -0.394094 -2.51633 0
M  V30 9086 H 848.941 -2.04839 -2.75492 0
M  V30 9087 N 851.386 1.48609 -0.524698 0
M  V30 9088 C 852.797 1.86516 -0.0828846 0
M  V30 9089 C 853.148 1.43478 1.33822 0
M  V30 9090 O 852.273 0.823139 2.00133 0
M  V30 9091 C 852.868 3.38495 -0.143639 0
M  V30 9092 C 851.427 3.75615 0.242951 0
M  V30 9093 C 850.574 2.72649 -0.505747 0
M  V30 9094 H 853.525 1.40589 -0.736233 0
M  V30 9095 H 853.546 3.74977 0.645955 0
M  V30 9096 H 853.058 3.69789 -1.17805 0
M  V30 9097 H 851.159 3.49935 1.27971 0
M  V30 9098 H 851.272 4.7901 -0.0929834 0
M  V30 9099 H 849.636 2.54656 0.0473482 0
M  V30 9100 H 850.419 3.06786 -1.54069 0
M  V30 9101 N 852.864 0.259585 1.55447 0
M  V30 9102 C 854.089 -0.368317 2.04103 0
M  V30 9103 C 854.514 -1.49827 1.13725 0
M  V30 9104 O 853.872 -1.80814 0.132705 0
M  V30 9105 C 853.92 -0.841506 3.50644 0
M  V30 9106 O 853.024 -1.95008 3.63381 0
M  V30 9107 H 852.365 -0.0785227 0.659341 0
M  V30 9108 H 854.895 0.389349 2.00861 0
M  V30 9109 H 854.905 -1.14138 3.9171 0
M  V30 9110 H 853.58 -0.0147001 4.15897 0
M  V30 9111 H 852.157 -1.65393 3.34215 0
M  V30 9112 N 854.342 -1.57594 -0.0133615 0
M  V30 9113 C 855.57 -1.94251 -0.712328 0
M  V30 9114 C 855.985 -0.86063 -1.68043 0
M  V30 9115 O 855.342 0.161632 -1.81783 0
M  V30 9116 C 855.393 -3.30891 -1.45581 0
M  V30 9117 O 855.114 -4.34924 -0.526539 0
M  V30 9118 C 856.615 -3.81926 -2.2505 0
M  V30 9119 H 853.835 -0.640737 -0.199241 0
M  V30 9120 H 856.379 -2.04472 0.0337855 0
M  V30 9121 H 854.534 -3.22019 -2.15366 0
M  V30 9122 H 854.948 -5.1389 -1.04962 0
M  V30 9123 H 856.422 -4.79999 -2.72589 0
M  V30 9124 H 856.899 -3.13934 -3.07152 0
M  V30 9125 H 857.505 -3.93931 -1.60308 0
M  V30 9126 N 855.82 0.285905 -1.54985 0
M  V30 9127 C 857.231 0.857869 -1.65824 0
M  V30 9128 C 857.582 1.87531 -0.576763 0
M  V30 9129 O 856.707 2.14528 0.284016 0
M  V30 9130 C 857.302 1.56277 -3.00604 0
M  V30 9131 C 855.861 2.08294 -3.13513 0
M  V30 9132 C 855.008 0.920633 -2.61571 0
M  V30 9133 H 857.959 0.0625463 -1.58577 0
M  V30 9134 H 857.98 2.42912 -2.92872 0
M  V30 9135 H 857.492 0.822017 -3.79295 0
M  V30 9136 H 855.593 2.8537 -2.39572 0
M  V30 9137 H 855.706 2.3071 -4.19892 0
M  V30 9138 H 854.07 1.31043 -2.18403 0
M  V30 9139 H 854.853 0.193594 -3.42754 0
M  V30 9140 N 857.298 1.47698 0.54982 0
M  V30 9141 C 858.245 1.60739 1.65625 0
M  V30 9142 C 859.215 0.450129 1.59884 0
M  V30 9143 O 860.4 0.671123 1.78607 0
M  V30 9144 C 857.54 1.63457 3.03934 0
M  V30 9145 C 856.653 2.90152 3.20056 0
M  V30 9146 C 855.788 2.84157 4.48807 0
M  V30 9147 C 854.827 4.05644 4.58387 0
M  V30 9148 N 853.964 3.97843 5.78503 0
M  V30 9149 H 858.804 2.55234 1.53817 0
M  V30 9150 H 856.341 1.26593 0.749173 0
M  V30 9151 H 858.299 1.63015 3.84034 0
M  V30 9152 H 856.929 0.724689 3.1456 0
M  V30 9153 H 855.981 3.00428 2.33339 0
M  V30 9154 H 857.293 3.80097 3.22998 0
M  V30 9155 H 856.447 2.82006 5.37175 0
M  V30 9156 H 855.186 1.91908 4.48356 0
M  V30 9157 H 854.191 4.08092 3.6843 0
M  V30 9158 H 855.416 4.9903 4.60593 0
M  V30 9159 H 853.362 3.08401 5.78986 0
M  V30 9160 H 853.279 4.81473 5.82855 0
M  V30 9161 H 854.547 3.99719 6.69212 0
M  V30 9162 N 858.776 -0.797141 1.35954 0
M  V30 9163 C 859.726 -1.89899 1.26184 0
M  V30 9164 C 860.71 -1.60152 0.155007 0
M  V30 9165 O 861.902 -1.72715 0.387108 0
M  V30 9166 C 859.031 -3.2699 1.04559 0
M  V30 9167 C 858.117 -3.62772 2.19675 0
M  V30 9168 N 858.508 -3.6992 3.44953 0
M  V30 9169 C 856.806 -3.92786 2.1127 0
M  V30 9170 C 857.507 -4.01718 4.20711 0
M  V30 9171 N 856.483 -4.16298 3.49567 0
M  V30 9172 H 860.285 -1.9364 2.2109 0
M  V30 9173 H 857.799 -0.992246 1.28562 0
M  V30 9174 H 859.796 -4.0578 0.956474 0
M  V30 9175 H 858.456 -3.24529 0.105467 0
M  V30 9176 H 859.467 -3.52759 3.79185 0
M  V30 9177 H 856.144 -3.98295 1.25168 0
M  V30 9178 H 857.534 -4.14237 5.29016 0
M  V30 9179 N 860.254 -1.20106 -1.0204 0
M  V30 9180 C 861.201 -0.946468 -2.10501 0
M  V30 9181 C 862.171 0.121902 -1.65652 0
M  V30 9182 O 863.356 -0.0220244 -1.90787 0
M  V30 9183 C 860.496 -0.500499 -3.41451 0
M  V30 9184 C 859.609 -1.63659 -3.998 0
M  V30 9185 C 858.744 -1.14131 -5.18794 0
M  V30 9186 C 857.783 -2.25074 -5.69217 0
M  V30 9187 N 856.92 -1.76791 -6.79477 0
M  V30 9188 H 861.76 -1.87506 -2.31615 0
M  V30 9189 H 859.297 -0.934693 -1.13587 0
M  V30 9190 H 861.255 -0.223276 -4.16602 0
M  V30 9191 H 859.885 0.391099 -3.20422 0
M  V30 9192 H 858.937 -2.02882 -3.21781 0
M  V30 9193 H 860.249 -2.47213 -4.33229 0
M  V30 9194 H 859.403 -0.819826 -6.01135 0
M  V30 9195 H 858.142 -0.275615 -4.86921 0
M  V30 9196 H 857.147 -2.58043 -4.85483 0
M  V30 9197 H 858.372 -3.12114 -6.03127 0
M  V30 9198 H 856.318 -0.925428 -6.4944 0
M  V30 9199 H 856.235 -2.53928 -7.12079 0
M  V30 9200 H 857.503 -1.47631 -7.65392 0
M  V30 9201 N 861.732 1.21287 -1.00634 0
M  V30 9202 C 862.679 2.23705 -0.567876 0
M  V30 9203 C 863.649 1.61043 0.406753 0
M  V30 9204 O 864.834 1.88289 0.308499 0
M  V30 9205 C 861.974 3.44961 0.097996 0
M  V30 9206 C 861.087 4.22091 -0.919972 0
M  V30 9207 C 860.222 5.30718 -0.226222 0
M  V30 9208 C 859.261 5.99581 -1.23165 0
M  V30 9209 N 858.398 6.99821 -0.565278 0
M  V30 9210 H 863.238 2.60571 -1.44592 0
M  V30 9211 H 860.775 1.28049 -0.724006 0
M  V30 9212 H 862.733 4.1418 0.501097 0
M  V30 9213 H 861.363 3.08818 0.939744 0
M  V30 9214 H 860.415 3.52038 -1.44131 0
M  V30 9215 H 861.727 4.69476 -1.68505 0
M  V30 9216 H 860.881 6.06253 0.232917 0
M  V30 9217 H 859.62 4.84343 0.571247 0
M  V30 9218 H 858.625 5.22816 -1.70128 0
M  V30 9219 H 859.85 6.48042 -2.03022 0
M  V30 9220 H 857.796 6.55656 0.212508 0
M  V30 9221 H 857.713 7.4528 -1.26858 0
M  V30 9222 H 858.981 7.79393 -0.129389 0
M  V30 9223 N 863.21 0.781244 1.36873 0
M  V30 9224 C 864.435 0.360398 2.04245 0
M  V30 9225 C 864.86 -1.01242 1.58529 0
M  V30 9226 O 864.218 -1.65063 0.749936 0
M  V30 9227 C 864.266 0.42329 3.58107 0
M  V30 9228 O 863.37 -0.572796 4.08403 0
M  V30 9229 H 862.711 0.154386 0.645803 0
M  V30 9230 H 865.241 1.06008 1.74996 0
M  V30 9231 H 865.251 0.283967 4.07011 0
M  V30 9232 H 863.926 1.42477 3.90734 0
M  V30 9233 H 862.503 -0.395809 3.70793 0
M  V30 9234 N 864.689 -1.48329 0.532571 0
M  V30 9235 C 865.621 -2.27652 -0.265931 0
M  V30 9236 C 866.634 -1.35522 -0.902083 0
M  V30 9237 O 867.823 -1.60552 -0.780088 0
M  V30 9238 C 864.923 -3.0899 -1.39207 0
M  V30 9239 C 864.096 -4.28915 -0.857349 0
M  V30 9240 C 863.155 -4.92044 -1.86493 0
M  V30 9241 O 862.181 -5.51181 -1.42084 0
M  V30 9242 N 863.383 -4.84518 -3.19723 0
M  V30 9243 H 866.148 -2.96821 0.414389 0
M  V30 9244 H 863.709 -1.57684 0.367066 0
M  V30 9245 H 865.701 -3.48091 -2.06433 0
M  V30 9246 H 864.271 -2.42224 -1.97601 0
M  V30 9247 H 863.491 -3.94199 -0.00901765 0
M  V30 9248 H 864.779 -5.0654 -0.479025 0
M  V30 9249 H 864.177 -4.37628 -3.58467 0
M  V30 9250 H 862.734 -5.27712 -3.82575 0
M  V30 9251 N 866.167 -0.267825 -1.55308 0
M  V30 9252 C 867.114 0.6228 -2.22238 0
M  V30 9253 C 868.084 1.15536 -1.19334 0
M  V30 9254 O 869.269 1.206 -1.47852 0
M  V30 9255 C 866.409 1.80447 -2.94164 0
M  V30 9256 C 865.522 1.30646 -4.11771 0
M  V30 9257 C 864.657 2.44935 -4.7136 0
M  V30 9258 C 863.696 1.92099 -5.81175 0
M  V30 9259 N 862.833 2.99834 -6.34857 0
M  V30 9260 H 867.673 0.0453874 -2.97965 0
M  V30 9261 H 865.21 0.0106371 -1.47096 0
M  V30 9262 H 867.168 2.49896 -3.34078 0
M  V30 9263 H 865.798 2.35403 -2.20874 0
M  V30 9264 H 864.85 0.505314 -3.77029 0
M  V30 9265 H 866.162 0.879409 -4.90987 0
M  V30 9266 H 865.316 3.2239 -5.13955 0
M  V30 9267 H 864.055 2.90951 -3.91406 0
M  V30 9268 H 863.06 1.13122 -5.38037 0
M  V30 9269 H 864.285 1.47027 -6.62993 0
M  V30 9270 H 862.231 3.45246 -5.578 0
M  V30 9271 H 862.148 2.61524 -7.09324 0
M  V30 9272 H 863.416 3.77286 -6.82111 0
M  V30 9273 N 867.645 1.57599 0.00500368 0
M  V30 9274 C 868.893 1.89973 0.68953 0
M  V30 9275 C 869.214 0.868531 1.7459 0
M  V30 9276 O 868.484 -0.0947367 1.95671 0
M  V30 9277 H 867.064 0.701153 0.25767 0
M  V30 9278 H 869.726 1.94869 -0.0347392 0
M  V30 9279 H 868.822 2.89584 1.16394 0
M  V30 9280 N 869.123 -0.277682 1.55134 0
M  V30 9281 C 870.348 -1.03254 1.7987 0
M  V30 9282 C 870.773 -1.79324 0.567861 0
M  V30 9283 O 870.131 -1.74764 -0.4824 0
M  V30 9284 C 870.179 -1.9705 3.02 0
M  V30 9285 O 869.283 -3.05744 2.76757 0
M  V30 9286 H 868.624 -0.295447 0.594649 0
M  V30 9287 H 871.154 -0.308013 2.02268 0
M  V30 9288 H 871.164 -2.3909 3.30606 0
M  V30 9289 H 869.839 -1.41094 3.91236 0
M  V30 9290 H 868.416 -2.68052 2.59235 0
M  V30 9291 N 870.601 -1.47988 -0.541979 0
M  V30 9292 C 871.564 -1.61148 -1.62984 0
M  V30 9293 C 872.564 -0.48553 -1.53295 0
M  V30 9294 O 873.754 -0.751012 -1.5718 0
M  V30 9295 C 870.886 -1.57038 -3.02576 0
M  V30 9296 H 872.079 -2.58138 -1.52659 0
M  V30 9297 H 869.632 -1.36405 -0.763106 0
M  V30 9298 H 870.367 -0.614807 -3.18419 0
M  V30 9299 H 870.152 -2.38769 -3.11018 0
M  V30 9300 H 871.642 -1.69416 -3.81691 0
M  V30 9301 N 872.079 0.78992 -1.36375 0
M  V30 9302 C 873.326 1.54777 -1.30576 0
M  V30 9303 C 873.654 1.94159 0.115095 0
M  V30 9304 O 872.909 1.62918 1.08426 0
M  V30 9305 C 873.208 2.83698 -2.17371 0
M  V30 9306 C 872.874 2.63457 -3.65925 0
M  V30 9307 C 871.536 2.57645 -4.06415 0
M  V30 9308 C 873.888 2.44833 -4.60115 0
M  V30 9309 C 871.216 2.31174 -5.39236 0
M  V30 9310 C 873.568 2.19889 -5.93154 0
M  V30 9311 C 872.232 2.1251 -6.32768 0
M  V30 9312 H 871.502 0.566371 -0.477813 0
M  V30 9313 H 874.149 0.91138 -1.68422 0
M  V30 9314 H 872.454 3.51802 -1.72459 0
M  V30 9315 H 874.151 3.41487 -2.10209 0
M  V30 9316 H 870.741 2.68836 -3.33804 0
M  V30 9317 H 874.925 2.48325 -4.29707 0
M  V30 9318 H 870.181 2.23942 -5.68911 0
M  V30 9319 H 874.355 2.04473 -6.65705 0
M  V30 9320 H 871.982 1.91761 -7.35616 0
M  V30 9321 N 873.557 1.20646 1.01402 0
M  V30 9322 C 874.785 1.04389 1.78635 0
M  V30 9323 C 875.2 -0.406771 1.84366 0
M  V30 9324 O 874.557 -1.28239 1.2985 0
M  V30 9325 C 874.608 1.62378 3.22979 0
M  V30 9326 O 874.329 3.01768 3.17597 0
M  V30 9327 C 875.83 1.5111 4.1675 0
M  V30 9328 H 873.05 0.367077 0.56169 0
M  V30 9329 H 875.594 1.59789 1.27624 0
M  V30 9330 H 873.749 1.11092 3.7113 0
M  V30 9331 H 874.163 3.29331 4.08217 0
M  V30 9332 H 875.637 1.96441 5.15863 0
M  V30 9333 H 876.114 0.464011 4.36742 0
M  V30 9334 H 876.72 2.01599 3.74483 0
M  V30 9335 N 875.035 -1.20752 1.01276 0
M  V30 9336 C 876.282 -1.90021 0.699887 0
M  V30 9337 C 876.61 -1.78604 -0.770113 0
M  V30 9338 O 875.865 -1.16195 -1.57471 0
M  V30 9339 C 876.164 -3.40808 1.07633 0
M  V30 9340 C 875.83 -3.72423 2.54189 0
M  V30 9341 C 874.492 -3.80762 2.94234 0
M  V30 9342 C 876.844 -3.87025 3.49086 0
M  V30 9343 C 874.172 -4.01158 4.28123 0
M  V30 9344 C 876.524 -4.0893 4.82658 0
M  V30 9345 C 875.188 -4.15498 5.22415 0
M  V30 9346 H 874.458 -0.695335 0.256107 0
M  V30 9347 H 877.105 -1.43096 1.27263 0
M  V30 9348 H 875.41 -3.89521 0.421944 0
M  V30 9349 H 877.107 -3.92693 0.811997 0
M  V30 9350 H 873.697 -3.66529 2.22158 0
M  V30 9351 H 877.881 -3.79942 3.19309 0
M  V30 9352 H 873.137 -4.04476 4.58486 0
M  V30 9353 H 877.311 -4.19172 5.56119 0
M  V30 9354 H 874.938 -4.31055 6.26176 0
M  V30 9355 N 876.513 -0.788492 -1.36457 0
M  V30 9356 C 877.924 -0.423742 -1.81828 0
M  V30 9357 C 878.275 1.05221 -1.65599 0
M  V30 9358 O 877.4 1.8163 -1.17641 0
M  V30 9359 C 877.995 -0.762354 -3.30112 0
M  V30 9360 C 876.554 -0.450445 -3.73695 0
M  V30 9361 C 875.701 -0.997482 -2.58738 0
M  V30 9362 H 878.652 -0.981718 -1.24692 0
M  V30 9363 H 878.673 -0.0531136 -3.80463 0
M  V30 9364 H 878.185 -1.83662 -3.41891 0
M  V30 9365 H 876.286 0.615829 -3.67476 0
M  V30 9366 H 876.399 -0.970408 -4.69169 0
M  V30 9367 H 874.763 -0.420761 -2.51201 0
M  V30 9368 H 875.546 -2.07749 -2.73304 0
M  V30 9369 N 877.991 1.48044 -0.54043 0
M  V30 9370 C 879.216 2.07396 -0.0124765 0
M  V30 9371 C 879.641 1.39288 1.26414 0
M  V30 9372 O 878.999 0.462252 1.75308 0
M  V30 9373 C 879.047 3.60131 0.18377 0
M  V30 9374 O 878.151 3.92995 1.25014 0
M  V30 9375 H 877.492 0.662554 -0.0438026 0
M  V30 9376 H 880.022 1.90306 -0.751327 0
M  V30 9377 H 880.032 4.06003 0.403197 0
M  V30 9378 H 878.707 4.09105 -0.74874 0
M  V30 9379 H 877.284 3.5889 1.01254 0
M  V30 9380 N 879.47 0.276058 1.55163 0
M  V30 9381 C 880.402 -0.644254 2.19959 0
M  V30 9382 C 881.415 -1.11675 1.18459 0
M  V30 9383 O 882.604 -1.0385 1.45181 0
M  V30 9384 C 879.704 -1.89093 2.81242 0
M  V30 9385 C 878.877 -1.56509 4.08441 0
M  V30 9386 C 877.936 -2.66433 4.53762 0
M  V30 9387 O 876.962 -2.32579 5.19515 0
M  V30 9388 N 878.164 -3.96509 4.23982 0
M  V30 9389 H 880.929 -0.0896808 2.99566 0
M  V30 9390 H 878.49 0.0971981 1.61608 0
M  V30 9391 H 880.482 -2.61929 3.08505 0
M  V30 9392 H 879.052 -2.35453 2.05622 0
M  V30 9393 H 878.272 -0.670522 3.88455 0
M  V30 9394 H 879.56 -1.32242 4.91314 0
M  V30 9395 H 878.958 -4.26834 3.71254 0
M  V30 9396 H 877.515 -4.6572 4.56014 0
M  V30 9397 N 880.948 -1.576 0.00335426 0
M  V30 9398 C 881.88 -2.0549 -1.01521 0
M  V30 9399 C 882.893 -0.973441 -1.30491 0
M  V30 9400 O 884.082 -1.25017 -1.27409 0
M  V30 9401 C 881.182 -2.44272 -2.34914 0
M  V30 9402 C 880.355 -3.75191 -2.24835 0
M  V30 9403 C 879.414 -4.00804 -3.40944 0
M  V30 9404 O 878.44 -4.71423 -3.18981 0
M  V30 9405 N 879.642 -3.48961 -4.63904 0
M  V30 9406 H 882.407 -2.93493 -0.60678 0
M  V30 9407 H 879.968 -1.60851 -0.18396 0
M  V30 9408 H 881.96 -2.58518 -3.11369 0
M  V30 9409 H 880.53 -1.6177 -2.67487 0
M  V30 9410 H 879.75 -3.70989 -1.3327 0
M  V30 9411 H 881.038 -4.61013 -2.15277 0
M  V30 9412 H 880.436 -2.9178 -4.84645 0
M  V30 9413 H 878.993 -3.68531 -5.37613 0
M  V30 9414 N 882.426 0.269451 -1.5528 0
M  V30 9415 C 883.651 1.02299 -1.80415 0
M  V30 9416 C 884.076 1.7902 -0.577363 0
M  V30 9417 O 883.434 1.75018 0.473125 0
M  V30 9418 C 883.482 1.95445 -3.0304 0
M  V30 9419 O 882.586 3.04271 -2.78375 0
M  V30 9420 H 881.927 0.292289 -0.596207 0
M  V30 9421 H 884.457 0.297282 -2.02429 0
M  V30 9422 H 884.467 2.37333 -3.31869 0
M  V30 9423 H 883.142 1.39017 -3.91978 0
M  V30 9424 H 881.719 2.66673 -2.60653 0
M  V30 9425 N 883.904 1.48273 0.534124 0
M  V30 9426 C 885.315 1.49667 1.1161 0
M  V30 9427 C 885.666 0.264139 1.94414 0
M  V30 9428 O 884.791 -0.629084 2.07054 0
M  V30 9429 C 885.386 2.71191 2.03079 0
M  V30 9430 C 883.945 2.7547 2.56502 0
M  V30 9431 C 883.092 2.43119 1.33373 0
M  V30 9432 H 886.043 1.55449 0.319578 0
M  V30 9433 H 886.064 2.49473 2.87304 0
M  V30 9434 H 885.576 3.60879 1.42785 0
M  V30 9435 H 883.677 1.89979 3.20529 0
M  V30 9436 H 883.79 3.76787 2.95919 0
M  V30 9437 H 882.154 1.94187 1.64813 0
M  V30 9438 H 882.937 3.35044 0.748375 0
M  V30 9439 N 885.382 -0.782676 1.36792 0
M  V30 9440 C 886.798 -1.08169 1.17352 0
M  V30 9441 C 886.998 -2.015 0.0022037 0
M  V30 9442 O 886.054 -2.43692 -0.661093 0
M  V30 9443 C 887.367 -1.68969 2.48737 0
M  V30 9444 C 888.915 -1.81278 2.55161 0
M  V30 9445 C 889.39 -2.45492 3.86649 0
M  V30 9446 N 890.881 -2.52954 3.88032 0
M  V30 9447 C 891.616 -3.03465 4.86515 0
M  V30 9448 N 891.112 -3.54232 5.95392 0
M  V30 9449 N 892.905 -3.02239 4.73928 0
M  V30 9450 H 885.056 -0.162757 2.11775 0
M  V30 9451 H 887.319 -0.134823 0.938364 0
M  V30 9452 H 887.025 -1.07859 3.34753 0
M  V30 9453 H 886.899 -2.68397 2.65034 0
M  V30 9454 H 889.286 -2.41524 1.69559 0
M  V30 9455 H 889.367 -0.806367 2.42758 0
M  V30 9456 H 889.011 -1.85889 4.7266 0
M  V30 9457 H 888.941 -3.46718 3.96351 0
M  V30 9458 H 891.432 -2.17014 3.09376 0
M  V30 9459 H 891.745 -3.91145 6.66503 0
M  V30 9460 H 890.09 -3.52366 5.99052 0
M  V30 9461 H 893.281 -2.61871 3.87996 0
M  V30 9462 H 893.454 -3.41295 5.50837 0
M  V30 9463 N 886.86 -1.21182 -1.00761 0
M  V30 9464 C 887.808 -0.965728 -2.11604 0
M  V30 9465 C 888.802 0.0861028 -1.69181 0
M  V30 9466 O 890.008 -0.0650558 -1.79882 0
M  V30 9467 H 886.383 -0.295023 -0.691712 0
M  V30 9468 H 888.354 -1.90667 -2.2954 0
M  V30 9469 C 887.103 -0.544164 -3.43415 0
M  V30 9470 H 886.426 -1.34515 -3.76491 0
M  V30 9471 H 887.866 -0.411268 -4.22001 0
M  V30 9472 C 886.325 0.744583 -3.28569 0
M  V30 9473 O 886.855 1.80078 -3.59075 0
M  V30 9474 N 885.061 0.710083 -2.81791 0
M  V30 9475 H 884.608 -0.14971 -2.57165 0
M  V30 9476 H 884.566 1.57268 -2.72239 0
M  V30 9477 N 888.338 1.20213 -1.01915 0
M  V30 9478 C 889.248 2.26763 -0.601311 0
M  V30 9479 C 890.264 1.70185 0.362369 0
M  V30 9480 O 891.44 2.00165 0.222682 0
M  V30 9481 C 888.505 3.46662 0.0512879 0
M  V30 9482 C 887.566 4.18459 -0.958659 0
M  V30 9483 C 886.799 5.32634 -0.337107 0
M  V30 9484 O 887.022 5.63841 0.86251 0
M  V30 9485 O 885.956 5.9258 -1.05511 0
M  V30 9486 H 889.782 2.64725 -1.48844 0
M  V30 9487 H 887.367 1.2688 -0.788784 0
M  V30 9488 H 889.249 4.19345 0.41564 0
M  V30 9489 H 887.924 3.1057 0.912572 0
M  V30 9490 H 886.831 3.47937 -1.37442 0
M  V30 9491 H 888.164 4.58498 -1.78999 0
M  V30 9492 N 889.816 0.795718 1.36037 0
M  V30 9493 C 891.227 0.433379 1.816 0
M  V30 9494 C 891.578 -1.04341 1.66155 0
M  V30 9495 O 890.703 -1.81004 1.18603 0
M  V30 9496 C 891.298 0.77985 3.29703 0
M  V30 9497 C 889.857 0.470256 3.73451 0
M  V30 9498 C 889.004 1.01119 2.58206 0
M  V30 9499 H 891.955 0.988317 1.24169 0
M  V30 9500 H 891.976 0.0732898 3.80429 0
M  V30 9501 H 891.488 1.85473 3.40913 0
M  V30 9502 H 889.589 -0.596332 3.67797 0
M  V30 9503 H 889.702 0.995276 4.68648 0
M  V30 9504 H 888.066 0.434077 2.50974 0
M  V30 9505 H 888.849 2.09196 2.72198 0
M  V30 9506 N 891.294 -1.47756 0.548274 0
M  V30 9507 C 892.524 -2.06584 0.0254503 0
M  V30 9508 C 892.932 -1.40268 -1.26971 0
M  V30 9509 O 892.275 -0.49019 -1.77039 0
M  V30 9510 C 892.337 -3.58628 -0.250301 0
M  V30 9511 C 892.001 -4.4693 0.954087 0
M  V30 9512 C 892.998 -4.85592 1.85733 0
M  V30 9513 C 890.683 -4.88573 1.16624 0
M  V30 9514 C 892.677 -5.64686 2.95648 0
M  V30 9515 C 890.364 -5.67435 2.2685 0
M  V30 9516 C 891.362 -6.05401 3.16194 0
M  V30 9517 O 891.05 -6.82676 4.24511 0
M  V30 9518 H 890.782 -0.67489 0.0387264 0
M  V30 9519 H 893.336 -1.90876 0.758663 0
M  V30 9520 H 891.566 -3.72516 -1.03771 0
M  V30 9521 H 893.255 -3.9951 -0.717419 0
M  V30 9522 H 894.021 -4.54026 1.70544 0
M  V30 9523 H 889.9 -4.58494 0.480039 0
M  V30 9524 H 893.444 -5.9424 3.65411 0
M  V30 9525 H 889.341 -5.98413 2.42016 0
M  V30 9526 H 890.109 -7.01057 4.22447 0
M  V30 9527 N 892.772 -0.284283 -1.55015 0
M  V30 9528 C 894.018 0.330352 -2.00091 0
M  V30 9529 C 894.351 1.54814 -1.17244 0
M  V30 9530 O 893.626 1.92954 -0.244753 0
M  V30 9531 C 893.909 0.703492 -3.53161 0
M  V30 9532 C 893.762 -0.522275 -4.46758 0
M  V30 9533 C 895.081 1.53645 -4.12409 0
M  V30 9534 H 892.2 0.118599 -0.727395 0
M  V30 9535 H 894.842 -0.393054 -1.8589 0
M  V30 9536 H 892.992 1.31983 -3.65394 0
M  V30 9537 H 894.664 -1.16082 -4.46456 0
M  V30 9538 H 892.907 -1.15865 -4.1804 0
M  V30 9539 H 893.578 -0.217295 -5.51572 0
M  V30 9540 H 896.054 1.01583 -4.0351 0
M  V30 9541 H 894.93 1.76633 -5.19704 0
M  V30 9542 H 895.191 2.5204 -3.63219 0
M  V30 9543 N 894.251 1.57596 -0.0117121 0
M  V30 9544 C 895.214 2.08089 0.960816 0
M  V30 9545 C 896.214 0.992519 1.26514 0
M  V30 9546 O 897.404 1.25475 1.20837 0
M  V30 9547 C 894.536 2.53217 2.28241 0
M  V30 9548 H 895.729 2.9529 0.523829 0
M  V30 9549 H 893.282 1.54508 0.235995 0
M  V30 9550 H 894.017 1.69294 2.76604 0
M  V30 9551 H 893.802 3.32714 2.0747 0
M  V30 9552 H 895.292 2.92568 2.97983 0
M  V30 9553 N 895.729 -0.261212 1.5542 0
M  V30 9554 C 897.145 -0.609012 1.47524 0
M  V30 9555 C 897.345 -1.88986 0.699042 0
M  V30 9556 O 896.401 -2.51517 0.222628 0
M  V30 9557 C 897.714 -0.725025 2.91828 0
M  V30 9558 C 899.262 -0.818302 3.02114 0
M  V30 9559 C 899.737 -0.965996 4.47697 0
M  V30 9560 N 901.228 -1.03123 4.51575 0
M  V30 9561 C 901.963 -1.16451 5.6145 0
M  V30 9562 N 901.459 -1.26425 6.81167 0
M  V30 9563 N 903.252 -1.19655 5.49217 0
M  V30 9564 H 895.403 0.579807 2.04333 0
M  V30 9565 H 897.666 0.198072 0.927077 0
M  V30 9566 H 897.372 0.145871 3.51397 0
M  V30 9567 H 897.246 -1.60156 3.41511 0
M  V30 9568 H 899.633 -1.67966 2.42634 0
M  V30 9569 H 899.714 0.0830895 2.55665 0
M  V30 9570 H 899.358 -0.109251 5.07782 0
M  V30 9571 H 899.288 -1.88221 4.91813 0
M  V30 9572 H 901.779 -0.966072 3.65343 0
M  V30 9573 H 902.092 -1.36462 7.60656 0
M  V30 9574 H 900.437 -1.23408 6.83956 0
M  V30 9575 H 903.628 -1.11501 4.54626 0
M  V30 9576 H 903.801 -1.29698 6.34888 0
M  V30 9577 N 897.207 -1.48554 -0.526253 0
M  V30 9578 C 898.618 -1.50256 -1.10815 0
M  V30 9579 C 898.969 -0.274445 -1.94271 0
M  V30 9580 O 898.094 0.618094 -2.07385 0
M  V30 9581 C 898.689 -2.72264 -2.01638 0
M  V30 9582 C 897.248 -2.76826 -2.55038 0
M  V30 9583 C 896.395 -2.43823 -1.32081 0
M  V30 9584 H 899.346 -1.55616 -0.31133 0
M  V30 9585 H 899.367 -2.50993 -2.85977 0
M  V30 9586 H 898.879 -3.61632 -1.4087 0
M  V30 9587 H 896.98 -1.91676 -3.19517 0
M  V30 9588 H 897.093 -3.78351 -2.93917 0
M  V30 9589 H 895.457 -1.95058 -1.63781 0
M  V30 9590 H 896.24 -3.35436 -0.730596 0
M  V30 9591 N 898.685 0.775411 -1.37205 0
M  V30 9592 C 899.91 1.5696 -1.35567 0
M  V30 9593 C 900.335 1.88012 0.0575554 0
M  V30 9594 O 899.693 1.48954 1.03355 0
M  V30 9595 C 899.741 2.85886 -2.19776 0
M  V30 9596 O 898.845 3.80103 -1.59987 0
M  V30 9597 H 898.186 0.475583 -0.463375 0
M  V30 9598 H 900.716 0.96001 -1.80679 0
M  V30 9599 H 900.726 3.35024 -2.32859 0
M  V30 9600 H 899.401 2.62613 -3.22502 0
M  V30 9601 H 897.978 3.38736 -1.55924 0
M  V30 9602 N 900.163 1.21714 1.00117 0
M  V30 9603 C 901.391 1.06278 1.77518 0
M  V30 9604 C 901.806 -0.387193 1.84787 0
M  V30 9605 O 901.163 -1.26854 1.31203 0
M  V30 9606 C 901.214 1.65795 3.21239 0
M  V30 9607 O 900.935 3.05119 3.14378 0
M  V30 9608 C 902.436 1.55521 4.15124 0
M  V30 9609 H 899.656 0.373013 0.557765 0
M  V30 9610 H 902.2 1.61133 1.25922 0
M  V30 9611 H 900.355 1.15022 3.69931 0
M  V30 9612 H 900.769 3.33643 4.04701 0
M  V30 9613 H 902.243 2.01902 5.13751 0
M  V30 9614 H 902.72 0.510307 4.36225 0
M  V30 9615 H 903.326 2.0556 3.72324 0
M  V30 9616 N 901.641 -1.19671 1.02551 0
M  V30 9617 C 902.866 -1.93774 0.739363 0
M  V30 9618 C 903.291 -1.74787 -0.695064 0
M  V30 9619 O 902.649 -1.04796 -1.47944 0
M  V30 9620 C 902.697 -3.43684 1.09149 0
M  V30 9621 O 901.801 -4.11874 0.208213 0
M  V30 9622 H 901.142 -0.605064 0.273484 0
M  V30 9623 H 903.672 -1.51846 1.37128 0
M  V30 9624 H 903.682 -3.94339 1.04695 0
M  V30 9625 H 902.357 -3.56826 2.13654 0
M  V30 9626 H 900.934 -3.716 0.311045 0
M  V30 9627 N 903.119 -0.802921 -1.35613 0
M  V30 9628 C 904.029 -0.212177 -2.33639 0
M  V30 9629 C 905.045 0.642871 -1.61689 0
M  V30 9630 O 906.221 0.555485 -1.93588 0
M  V30 9631 C 903.286 0.632406 -3.40883 0
M  V30 9632 C 902.347 -0.242708 -4.28613 0
M  V30 9633 C 901.58 0.56166 -5.30736 0
M  V30 9634 O 901.803 1.79664 -5.41366 0
M  V30 9635 O 900.737 -0.0455387 -6.01883 0
M  V30 9636 H 904.563 -1.023 -2.85952 0
M  V30 9637 H 902.148 -0.564636 -1.38319 0
M  V30 9638 H 904.03 1.11358 -4.0642 0
M  V30 9639 H 902.705 1.42089 -2.90848 0
M  V30 9640 H 901.612 -0.77094 -3.6607 0
M  V30 9641 H 902.945 -0.995046 -4.82037 0
M  V30 9642 N 904.597 1.47463 -0.556102 0
M  V30 9643 C 905.846 2.01678 -0.029492 0
M  V30 9644 C 906.159 1.436 1.32809 0
M  V30 9645 O 907.365 1.89472 1.94455 0
M  V30 9646 C 905.821 3.599 -0.00223937 0
M  V30 9647 C 905.429 4.26969 -1.35651 0
M  V30 9648 C 907.173 4.2187 0.471822 0
M  V30 9649 C 905.08 5.77194 -1.28843 0
M  V30 9650 H 904.01 0.753965 -0.00725504 0
M  V30 9651 H 906.661 1.69467 -0.703789 0
M  V30 9652 H 905.043 3.89068 0.737682 0
M  V30 9653 H 906.217 4.09444 -2.11406 0
M  V30 9654 H 904.532 3.76983 -1.76842 0
M  V30 9655 H 907.129 5.31955 0.541139 0
M  V30 9656 H 907.472 3.88968 1.48356 0
M  V30 9657 H 908.005 3.97228 -0.213207 0
M  V30 9658 H 904.744 6.14713 -2.27613 0
M  V30 9659 H 904.264 5.9706 -0.572668 0
M  V30 9660 H 905.943 6.3938 -0.990031 0
M  V30 9661 N 906.075 0.2925 1.54862 0
M  V30 9662 C 906.985 -0.597036 2.26876 0
M  V30 9663 C 908.001 -1.15558 1.30086 0
M  V30 9664 O 909.177 -1.18217 1.63054 0
M  V30 9665 C 906.242 -1.75664 2.98903 0
M  V30 9666 C 905.303 -1.23303 4.11212 0
M  V30 9667 C 904.536 -2.33736 4.79795 0
M  V30 9668 O 904.759 -3.53459 4.47686 0
M  V30 9669 O 903.693 -2.00908 5.67379 0
M  V30 9670 H 907.519 -0.0131242 3.03697 0
M  V30 9671 H 905.104 0.0592642 1.49282 0
M  V30 9672 H 906.986 -2.43241 3.4411 0
M  V30 9673 H 905.661 -2.32731 2.24984 0
M  V30 9674 H 904.568 -0.523222 3.70423 0
M  V30 9675 H 905.901 -0.707887 4.87083 0
M  V30 9676 N 907.553 -1.57587 0.0200696 0
M  V30 9677 C 908.83 -1.82696 -0.698677 0
M  V30 9678 C 909.21 -0.902082 -1.90855 0
M  V30 9679 O 908.558 0.0444834 -2.28457 0
M  V30 9680 C 908.768 -3.31691 -1.08546 0
M  V30 9681 C 910.116 -3.97938 -1.4809 0
M  V30 9682 O 911.14 -3.36133 -1.17869 0
M  V30 9683 O 909.999 -5.06851 -2.04364 0
M  V30 9684 H 907.093 -0.752997 -0.341942 0
M  V30 9685 H 909.639 -1.69635 0.04706 0
M  V30 9686 H 908.411 -3.90659 -0.223956 0
M  V30 9687 H 908.034 -3.49825 -1.88965 0
M  V30 9688 N 909.032 0.252966 -1.55557 0
M  V30 9689 C 909.964 1.33585 -1.86246 0
M  V30 9690 C 910.977 1.44584 -0.748291 0
M  V30 9691 O 912.166 1.46042 -1.02635 0
M  V30 9692 C 909.266 2.71509 -2.02821 0
M  V30 9693 C 908.439 2.82853 -3.33636 0
M  V30 9694 C 907.498 4.01581 -3.40028 0
M  V30 9695 O 906.524 3.91394 -4.13278 0
M  V30 9696 N 907.726 5.14474 -2.6888 0
M  V30 9697 H 910.491 1.07596 -2.7972 0
M  V30 9698 H 908.052 0.443075 -1.55719 0
M  V30 9699 H 910.044 3.49262 -2.04445 0
M  V30 9700 H 908.614 2.90232 -1.1612 0
M  V30 9701 H 907.834 1.91823 -3.4438 0
M  V30 9702 H 909.122 2.87378 -4.19871 0
M  V30 9703 H 908.52 5.25641 -2.09087 0
M  V30 9704 H 907.077 5.90385 -2.76204 0
M  V30 9705 N 910.51 1.48831 0.518367 0
M  V30 9706 C 911.735 1.61379 1.30275 0
M  V30 9707 C 912.16 0.278571 1.86026 0
M  V30 9708 O 911.518 -0.751427 1.64995 0
M  V30 9709 C 911.566 2.67225 2.42122 0
M  V30 9710 O 910.67 2.25192 3.45489 0
M  V30 9711 H 910.011 0.540742 0.385349 0
M  V30 9712 H 912.541 1.949 0.622498 0
M  V30 9713 H 912.551 2.88859 2.8814 0
M  V30 9714 H 911.226 3.64155 2.00907 0
M  V30 9715 H 909.803 2.13819 3.05509 0
M  V30 9716 N 911.988 -0.768124 1.37614 0
M  V30 9717 C 912.921 -1.88894 1.2804 0
M  V30 9718 C 913.899 -1.61809 0.160226 0
M  V30 9719 O 915.083 -1.85498 0.33506 0
M  V30 9720 C 912.21 -3.24197 0.980523 0
M  V30 9721 C 911.256 -3.70188 2.11808 0
M  V30 9722 S 912.089 -3.83433 3.73817 0
M  V30 9723 C 913.245 -5.21578 3.45987 0
M  V30 9724 H 913.478 -1.96726 2.22904 0
M  V30 9725 H 911.011 -0.929602 1.23279 0
M  V30 9726 H 912.969 -4.02342 0.814331 0
M  V30 9727 H 911.63 -3.14061 0.0493122 0
M  V30 9728 H 910.823 -4.6829 1.86335 0
M  V30 9729 H 910.425 -2.99155 2.2446 0
M  V30 9730 H 912.717 -6.06865 3.012 0
M  V30 9731 H 913.66 -5.52065 4.43429 0
M  V30 9732 H 914.068 -4.89687 2.80832 0
M  V30 9733 N 913.466 -1.22244 -0.994698 0
M  V30 9734 C 914.399 -0.934168 -2.08203 0
M  V30 9735 C 915.377 0.122231 -1.6214 0
M  V30 9736 O 916.561 -0.00896598 -1.88498 0
M  V30 9737 C 913.688 -0.404646 -3.36274 0
M  V30 9738 C 912.734 -1.44544 -4.01259 0
M  V30 9739 S 913.567 -3.01816 -4.42343 0
M  V30 9740 C 914.723 -2.50497 -5.73587 0
M  V30 9741 H 914.956 -1.85493 -2.32335 0
M  V30 9742 H 912.489 -1.0533 -1.12893 0
M  V30 9743 H 914.447 -0.105719 -4.10364 0
M  V30 9744 H 913.108 0.494971 -3.10176 0
M  V30 9745 H 912.301 -1.02478 -4.93472 0
M  V30 9746 H 911.903 -1.69298 -3.33488 0
M  V30 9747 H 914.195 -1.91626 -6.49835 0
M  V30 9748 H 915.138 -3.41193 -6.20478 0
M  V30 9749 H 915.546 -1.91845 -5.30901 0
M  V30 9750 N 914.944 1.19125 -1.03184 0
M  V30 9751 C 916.192 1.8851 -0.728587 0
M  V30 9752 C 916.513 1.80195 0.74531 0
M  V30 9753 O 915.783 1.21437 1.5372 0
M  V30 9754 H 914.363 0.69784 -0.266511 0
M  V30 9755 H 917.025 1.44607 -1.3067 0
M  V30 9756 H 916.121 2.9477 -1.02554 0
M  V30 9757 N 916.422 0.810101 1.35185 0
M  V30 9758 C 917.369 0.220927 2.2974 0
M  V30 9759 C 918.339 -0.647024 1.5298 0
M  V30 9760 O 919.524 -0.591367 1.81404 0
M  V30 9761 C 916.664 -0.62167 3.39454 0
M  V30 9762 C 915.777 0.267104 4.31173 0
M  V30 9763 C 914.912 -0.583833 5.27982 0
M  V30 9764 C 913.951 0.305123 6.11339 0
M  V30 9765 N 913.088 -0.505992 7.00274 0
M  V30 9766 H 917.928 1.03266 2.79536 0
M  V30 9767 H 915.465 0.520768 1.37573 0
M  V30 9768 H 917.423 -1.12539 4.01735 0
M  V30 9769 H 916.053 -1.39863 2.90926 0
M  V30 9770 H 915.105 0.88895 3.69867 0
M  V30 9771 H 916.417 0.951182 4.89647 0
M  V30 9772 H 915.571 -1.15254 5.95652 0
M  V30 9773 H 914.31 -1.30146 4.70014 0
M  V30 9774 H 913.315 0.886075 5.42613 0
M  V30 9775 H 914.54 1.02067 6.71386 0
M  V30 9776 H 912.486 -1.20753 6.4479 0
M  V30 9777 H 912.403 0.119966 7.55905 0
M  V30 9778 H 913.671 -1.05787 7.72288 0
M  V30 9779 N 917.9 -1.47166 0.563914 0
M  V30 9780 C 919.147 -2.02456 0.042371 0
M  V30 9781 C 919.475 -1.43753 -1.31016 0
M  V30 9782 O 918.73 -0.585287 -1.86743 0
M  V30 9783 C 919.029 -3.57279 -0.0931797 0
M  V30 9784 C 918.695 -4.34932 1.18933 0
M  V30 9785 C 917.357 -4.55867 1.54073 0
M  V30 9786 C 919.709 -4.79665 2.03889 0
M  V30 9787 C 917.037 -5.18785 2.74005 0
M  V30 9788 C 919.389 -5.43907 3.23029 0
M  V30 9789 C 918.053 -5.63074 3.58475 0
M  V30 9790 H 917.323 -0.740838 0.0155047 0
M  V30 9791 H 919.97 -1.76759 0.736776 0
M  V30 9792 H 918.275 -3.82005 -0.870596 0
M  V30 9793 H 919.972 -3.97716 -0.512176 0
M  V30 9794 H 916.562 -4.18921 0.905718 0
M  V30 9795 H 920.746 -4.63264 1.78046 0
M  V30 9796 H 916.002 -5.31818 3.01628 0
M  V30 9797 H 920.176 -5.77531 3.89141 0
M  V30 9798 H 917.803 -6.11598 4.515 0
M  V30 9799 N 919.378 -0.300708 -1.54705 0
M  V30 9800 C 920.624 0.309111 -2.0043 0
M  V30 9801 C 920.957 1.53562 -1.1888 0
M  V30 9802 O 920.232 1.92683 -0.265205 0
M  V30 9803 C 920.515 0.665995 -3.53888 0
M  V30 9804 C 920.368 -0.56963 -4.46178 0
M  V30 9805 C 921.687 1.49262 -4.14016 0
M  V30 9806 H 918.806 0.110878 -0.728612 0
M  V30 9807 H 921.448 -0.412748 -1.85463 0
M  V30 9808 H 919.598 1.281 -3.66773 0
M  V30 9809 H 921.27 -1.20811 -4.45199 0
M  V30 9810 H 919.513 -1.20292 -4.16788 0
M  V30 9811 H 920.184 -0.275785 -5.51311 0
M  V30 9812 H 922.66 0.972979 -4.04564 0
M  V30 9813 H 921.536 1.71111 -5.21548 0
M  V30 9814 H 921.797 2.48174 -3.65872 0
M  V30 9815 N 920.856 1.57574 -0.0284266 0
M  V30 9816 C 921.803 2.10176 0.953658 0
M  V30 9817 C 922.773 1.00367 1.32347 0
M  V30 9818 O 923.958 1.27783 1.4169 0
M  V30 9819 C 921.098 2.63287 2.231 0
M  V30 9820 C 920.211 3.87102 1.91771 0
M  V30 9821 C 919.346 4.28609 3.13795 0
M  V30 9822 C 918.385 5.45184 2.78282 0
M  V30 9823 N 917.522 5.81851 3.92929 0
M  V30 9824 H 922.362 2.93806 0.498176 0
M  V30 9825 H 919.899 1.45222 0.234302 0
M  V30 9826 H 921.857 2.9217 2.97813 0
M  V30 9827 H 920.487 1.82489 2.66266 0
M  V30 9828 H 919.539 3.64952 1.07303 0
M  V30 9829 H 920.851 4.71892 1.61615 0
M  V30 9830 H 920.005 4.58925 3.96829 0
M  V30 9831 H 918.744 3.42585 3.47112 0
M  V30 9832 H 917.749 5.14563 1.93661 0
M  V30 9833 H 918.974 6.32907 2.46182 0
M  V30 9834 H 916.92 4.98782 4.2609 0
M  V30 9835 H 916.837 6.6128 3.66395 0
M  V30 9836 H 918.105 6.16772 4.76669 0
M  V30 9837 N 922.334 -0.244713 1.55689 0
M  V30 9838 C 923.58 -0.973886 1.77886 0
M  V30 9839 C 923.913 -1.8489 0.594071 0
M  V30 9840 O 923.188 -1.90182 -0.407564 0
M  V30 9841 C 923.471 -1.83255 3.09983 0
M  V30 9842 C 923.324 -0.985571 4.3887 0
M  V30 9843 C 924.643 -2.81464 3.38329 0
M  V30 9844 H 921.762 -0.352629 0.647165 0
M  V30 9845 H 924.404 -0.244243 1.88424 0
M  V30 9846 H 922.554 -2.45464 3.01131 0
M  V30 9847 H 924.226 -0.382005 4.59716 0
M  V30 9848 H 922.469 -0.29002 4.32829 0
M  V30 9849 H 923.14 -1.62022 5.27686 0
M  V30 9850 H 925.616 -2.2939 3.47159 0
M  V30 9851 H 924.492 -3.38663 4.31971 0
M  V30 9852 H 924.753 -3.58037 2.59349 0
M  V30 9853 N 923.813 -1.49104 -0.510467 0
M  V30 9854 C 924.723 -1.67792 -1.6396 0
M  V30 9855 C 925.739 -0.560454 -1.64727 0
M  V30 9856 O 926.915 -0.833985 -1.83321 0
M  V30 9857 C 923.98 -1.73154 -3.00364 0
M  V30 9858 C 923.041 -2.9667 -3.10299 0
M  V30 9859 C 922.274 -3.01767 -4.40196 0
M  V30 9860 O 922.497 -2.1472 -5.28443 0
M  V30 9861 O 921.431 -3.94137 -4.54906 0
M  V30 9862 H 925.257 -2.63428 -1.51126 0
M  V30 9863 H 922.842 -1.32734 -0.685719 0
M  V30 9864 H 924.724 -1.79089 -3.81451 0
M  V30 9865 H 923.399 -0.806952 -3.1348 0
M  V30 9866 H 922.306 -2.96257 -2.28435 0
M  V30 9867 H 923.639 -3.88578 -3.02106 0
M  V30 9868 N 925.291 0.760815 -1.38019 0
M  V30 9869 C 926.707 1.06289 -1.19058 0
M  V30 9870 C 926.907 2.01471 -0.0342603 0
M  V30 9871 O 925.963 2.44713 0.62224 0
M  V30 9872 C 927.276 1.6499 -2.51394 0
M  V30 9873 C 928.824 1.77196 -2.58013 0
M  V30 9874 C 929.299 2.3931 -3.90506 0
M  V30 9875 N 930.79 2.46749 -3.92007 0
M  V30 9876 C 931.525 2.95687 -4.91281 0
M  V30 9877 N 931.021 3.44715 -6.00952 0
M  V30 9878 N 932.814 2.94661 -4.78677 0
M  V30 9879 H 924.965 0.129045 -2.12008 0
M  V30 9880 H 927.228 0.119878 -0.94039 0
M  V30 9881 H 926.934 1.0252 -3.36426 0
M  V30 9882 H 926.808 2.64146 -2.6927 0
M  V30 9883 H 929.195 2.38796 -1.7338 0
M  V30 9884 H 929.276 0.767645 -2.4401 0
M  V30 9885 H 928.92 1.78346 -4.75558 0
M  V30 9886 H 928.85 3.40369 -4.01817 0
M  V30 9887 H 931.341 2.12064 -3.12789 0
M  V30 9888 H 931.654 3.80492 -6.72641 0
M  V30 9889 H 929.999 3.42791 -6.04582 0
M  V30 9890 H 933.19 2.55665 -3.92113 0
M  V30 9891 H 933.363 3.32489 -5.56197 0
M  V30 9892 N 926.769 1.22769 0.988202 0
M  V30 9893 C 927.701 0.959757 2.08138 0
M  V30 9894 C 928.714 -0.0633787 1.62677 0
M  V30 9895 O 929.903 0.171203 1.77677 0
M  V30 9896 C 927.003 0.422724 3.36253 0
M  V30 9897 C 926.176 1.50419 4.10722 0
M  V30 9898 C 925.235 0.973407 5.17118 0
M  V30 9899 O 924.261 1.66066 5.44436 0
M  V30 9900 N 925.463 -0.202787 5.80146 0
M  V30 9901 H 928.228 1.9009 2.31702 0
M  V30 9902 H 925.789 1.13522 1.15431 0
M  V30 9903 H 927.781 0.0528514 4.04665 0
M  V30 9904 H 926.351 -0.423642 3.09716 0
M  V30 9905 H 925.571 2.04718 3.36874 0
M  V30 9906 H 926.859 2.23169 4.57245 0
M  V30 9907 H 926.257 -0.777856 5.60327 0
M  V30 9908 H 924.814 -0.513998 6.4977 0
M  V30 9909 N 928.247 -1.18576 1.03814 0
M  V30 9910 C 929.493 -1.88773 0.741132 0
M  V30 9911 C 929.826 -1.79993 -0.729127 0
M  V30 9912 O 929.101 -1.19851 -1.53186 0
M  V30 9913 C 929.384 -3.39352 1.20468 0
M  V30 9914 C 929.237 -3.56955 2.73684 0
M  V30 9915 C 930.556 -4.32901 0.792741 0
M  V30 9916 H 927.675 -0.685482 0.270708 0
M  V30 9917 H 930.317 -1.39523 1.2897 0
M  V30 9918 H 928.467 -3.81427 0.737974 0
M  V30 9919 H 930.139 -3.2399 3.28372 0
M  V30 9920 H 928.382 -2.99696 3.13632 0
M  V30 9921 H 929.053 -4.62598 3.01176 0
M  V30 9922 H 931.529 -3.98592 1.1943 0
M  V30 9923 H 930.405 -5.36828 1.14486 0
M  V30 9924 H 930.666 -4.41052 -0.304295 0
M  V30 9925 N 929.725 -0.817259 -1.34754 0
M  V30 9926 C 930.657 -0.192695 -2.28389 0
M  V30 9927 C 931.67 0.614167 -1.50771 0
M  V30 9928 O 932.859 0.444776 -1.7287 0
M  V30 9929 C 929.959 0.748929 -3.30521 0
M  V30 9930 C 929.132 -0.0138762 -4.37398 0
M  V30 9931 C 928.191 0.847825 -5.19325 0
M  V30 9932 O 927.217 0.29487 -5.68436 0
M  V30 9933 N 928.419 2.16843 -5.38479 0
M  V30 9934 H 931.184 -0.997122 -2.82626 0
M  V30 9935 H 928.745 -0.673696 -1.47217 0
M  V30 9936 H 930.737 1.32987 -3.82226 0
M  V30 9937 H 929.307 1.45412 -2.7672 0
M  V30 9938 H 928.527 -0.776093 -3.86485 0
M  V30 9939 H 929.815 -0.539191 -5.05935 0
M  V30 9940 H 929.213 2.64148 -5.00242 0
M  V30 9941 H 927.77 2.69835 -5.93323 0
M  V30 9942 N 931.203 1.46865 -0.571711 0
M  V30 9943 C 932.48 1.95596 0.0132445 0
M  V30 9944 C 932.86 1.51438 1.47071 0
M  V30 9945 O 932.208 0.759917 2.15494 0
M  V30 9946 C 932.418 3.48689 -0.147335 0
M  V30 9947 C 933.766 4.24599 -0.00946329 0
M  V30 9948 O 934.79 3.5612 -0.0756112 0
M  V30 9949 O 933.649 5.46332 0.135361 0
M  V30 9950 H 930.743 0.825102 0.0560039 0
M  V30 9951 H 933.289 1.57199 -0.639256 0
M  V30 9952 H 932.061 3.73681 -1.16096 0
M  V30 9953 H 931.684 3.93887 0.542109 0
M  V30 9954 N 932.681 0.308908 1.54543 0
M  V30 9955 C 933.614 -0.605854 2.20011 0
M  V30 9956 C 934.592 -1.1269 1.17216 0
M  V30 9957 O 935.776 -1.19363 1.45893 0
M  V30 9958 C 932.903 -1.82977 2.85021 0
M  V30 9959 C 931.949 -1.44126 4.0141 0
M  V30 9960 S 932.782 -0.490445 5.33249 0
M  V30 9961 C 933.938 -1.72198 6.01746 0
M  V30 9962 H 934.171 -0.0496911 2.97258 0
M  V30 9963 H 931.704 0.0930238 1.5412 0
M  V30 9964 H 933.662 -2.53211 3.23102 0
M  V30 9965 H 932.323 -2.35711 2.07604 0
M  V30 9966 H 931.516 -2.35288 4.45708 0
M  V30 9967 H 931.118 -0.818788 3.64927 0
M  V30 9968 H 933.41 -2.66147 6.23034 0
M  V30 9969 H 934.353 -1.32142 6.95661 0
M  V30 9970 H 934.761 -1.90229 5.31482 0
M  V30 9971 N 934.159 -1.57557 0.0367827 0
M  V30 9972 C 935.407 -1.91735 -0.63892 0
M  V30 9973 C 935.728 -0.914515 -1.72226 0
M  V30 9974 O 934.998 0.0428248 -1.95853 0
M  V30 9975 H 933.578 -0.707738 -0.23899 0
M  V30 9976 H 936.24 -1.94708 0.0863931 0
M  V30 9977 H 935.336 -2.92568 -1.08676 0
M  V30 9978 N 935.637 0.236453 -1.55816 0
M  V30 9979 C 936.584 1.29289 -1.91188 0
M  V30 9980 C 937.554 1.47315 -0.767301 0
M  V30 9981 O 938.739 1.61128 -1.02189 0
M  V30 9982 C 935.879 2.64126 -2.22107 0
M  V30 9983 C 934.992 2.54022 -3.49423 0
M  V30 9984 C 934.127 3.81282 -3.69861 0
M  V30 9985 C 933.166 3.65839 -4.90743 0
M  V30 9986 N 932.303 4.85014 -5.07647 0
M  V30 9987 H 937.143 0.98424 -2.81277 0
M  V30 9988 H 934.68 0.474722 -1.39229 0
M  V30 9989 H 936.638 3.42626 -2.3804 0
M  V30 9990 H 935.268 2.93118 -1.35209 0
M  V30 9991 H 934.32 1.67036 -3.41765 0
M  V30 9992 H 935.632 2.38525 -4.38072 0
M  V30 9993 H 934.786 4.68226 -3.8581 0
M  V30 9994 H 933.525 3.99688 -2.79465 0
M  V30 9995 H 932.53 2.77279 -4.74759 0
M  V30 9996 H 933.755 3.48918 -5.82609 0
M  V30 9997 H 931.701 5.03762 -4.20191 0
M  V30 9998 H 931.618 4.72188 -5.90402 0
M  V30 9999 H 932.886 5.73427 -5.28017 0
M  V30 10000 N 937.115 1.49373 0.502552 0
M  V30 10001 C 938.062 1.65927 1.60427 0
M  V30 10002 C 939.032 0.500768 1.58371 0
M  V30 10003 O 940.217 0.727606 1.76382 0
M  V30 10004 C 937.357 1.73043 2.9858 0
M  V30 10005 C 936.47 3.00187 3.10663 0
M  V30 10006 C 935.605 2.98292 4.3954 0
M  V30 10007 C 934.644 4.20022 4.4525 0
M  V30 10008 N 933.781 4.16046 5.65553 0
M  V30 10009 H 938.621 2.59998 1.45619 0
M  V30 10010 H 936.158 1.28912 0.708519 0
M  V30 10011 H 938.116 1.7515 3.78653 0
M  V30 10012 H 936.746 0.824397 3.12095 0
M  V30 10013 H 935.798 3.07699 2.23663 0
M  V30 10014 H 937.11 3.9018 3.10742 0
M  V30 10015 H 936.264 2.98953 5.27932 0
M  V30 10016 H 935.003 2.06075 4.42023 0
M  V30 10017 H 934.008 4.19607 3.5526 0
M  V30 10018 H 935.233 5.13431 4.44484 0
M  V30 10019 H 933.179 3.26665 5.68881 0
M  V30 10020 H 933.096 4.99773 5.67242 0
M  V30 10021 H 934.364 4.20807 6.56156 0
M  V30 10022 N 938.594 -0.753485 1.38421 0
M  V30 10023 C 939.524 -1.8808 1.38377 0
M  V30 10024 C 940.505 -1.68258 0.249664 0
M  V30 10025 O 941.69 -1.88848 0.45276 0
M  V30 10026 C 938.82 -3.25608 1.20818 0
M  V30 10027 C 937.774 -3.60032 2.31433 0
M  V30 10028 C 937.1 -4.96297 1.9898 0
M  V30 10029 C 938.4 -3.64898 3.73694 0
M  V30 10030 H 940.094 -1.88375 2.32713 0
M  V30 10031 H 937.64 -0.90489 1.12017 0
M  V30 10032 H 939.593 -4.04127 1.19412 0
M  V30 10033 H 938.317 -3.25793 0.229433 0
M  V30 10034 H 936.976 -2.83831 2.32025 0
M  V30 10035 H 936.624 -4.93043 0.995889 0
M  V30 10036 H 936.324 -5.20298 2.73063 0
M  V30 10037 H 937.848 -5.77196 1.99193 0
M  V30 10038 H 939.262 -4.33531 3.75132 0
M  V30 10039 H 937.659 -4.00407 4.46983 0
M  V30 10040 H 938.729 -2.65124 4.06002 0
M  V30 10041 N 940.072 -1.23292 -0.981677 0
M  V30 10042 C 941.349 -0.972514 -1.6971 0
M  V30 10043 C 941.729 0.509244 -2.04866 0
M  V30 10044 O 941.077 1.48013 -1.74082 0
M  V30 10045 C 941.287 -1.88144 -2.93943 0
M  V30 10046 C 942.635 -2.14416 -3.66485 0
M  V30 10047 O 943.659 -1.85684 -3.03974 0
M  V30 10048 O 942.518 -2.63139 -4.78978 0
M  V30 10049 H 939.612 -0.366673 -0.741269 0
M  V30 10050 H 942.158 -1.34328 -1.03701 0
M  V30 10051 H 940.93 -2.8832 -2.64551 0
M  V30 10052 H 940.553 -1.51296 -3.67689 0
M  V30 10053 N 941.55 1.18024 -1.04442 0
M  V30 10054 C 942.797 1.88098 -0.750022 0
M  V30 10055 C 943.125 1.80583 0.722489 0
M  V30 10056 O 942.38 1.20329 1.54335 0
M  V30 10057 C 942.679 3.37834 -1.16631 0
M  V30 10058 C 942.345 3.65553 -2.63974 0
M  V30 10059 C 941.007 3.72827 -3.04226 0
M  V30 10060 C 943.359 3.77634 -3.59224 0
M  V30 10061 C 940.687 3.89666 -4.38608 0
M  V30 10062 C 943.039 3.9599 -4.9333 0
M  V30 10063 C 941.703 4.01501 -5.33248 0
M  V30 10064 H 940.973 0.6883 -0.274452 0
M  V30 10065 H 943.62 1.39671 -1.31012 0
M  V30 10066 H 941.925 3.88266 -0.525071 0
M  V30 10067 H 943.622 3.90402 -0.915827 0
M  V30 10068 H 940.212 3.6051 -2.31798 0
M  V30 10069 H 944.396 3.71342 -3.2927 0
M  V30 10070 H 939.652 3.92178 -4.69048 0
M  V30 10071 H 943.826 4.0428 -5.67037 0
M  V30 10072 H 941.453 4.14301 -6.37384 0
M  V30 10073 N 943.028 0.824394 1.34319 0
M  V30 10074 C 943.958 0.262077 2.32025 0
M  V30 10075 C 944.939 -0.622277 1.58309 0
M  V30 10076 O 946.124 -0.548848 1.86283 0
M  V30 10077 C 943.254 -0.57567 3.42496 0
M  V30 10078 C 942.208 0.21167 4.27476 0
M  V30 10079 C 941.534 -0.748913 5.29429 0
M  V30 10080 C 942.834 1.42068 5.02607 0
M  V30 10081 H 944.528 1.07842 2.79304 0
M  V30 10082 H 942.074 0.520022 1.34282 0
M  V30 10083 H 944.027 -0.979251 4.09864 0
M  V30 10084 H 942.751 -1.42508 2.93869 0
M  V30 10085 H 941.41 0.596636 3.61712 0
M  V30 10086 H 941.058 -1.59432 4.77064 0
M  V30 10087 H 940.758 -0.226313 5.87164 0
M  V30 10088 H 942.282 -1.15032 5.99667 0
M  V30 10089 H 943.696 1.09103 5.62823 0
M  V30 10090 H 942.093 1.87903 5.69923 0
M  V30 10091 H 943.163 2.1981 4.32217 0
M  V30 10092 N 944.506 -1.46559 0.579492 0
M  V30 10093 C 945.752 -2.02699 0.0639363 0
M  V30 10094 C 946.085 -1.4504 -1.29139 0
M  V30 10095 O 945.36 -0.614284 -1.84545 0
M  V30 10096 C 945.643 -3.601 -0.00528618 0
M  V30 10097 C 945.496 -4.28149 1.37871 0
M  V30 10098 C 946.815 -4.34375 -0.707537 0
M  V30 10099 H 943.934 -0.736586 0.0247085 0
M  V30 10100 H 946.576 -1.74739 0.746071 0
M  V30 10101 H 944.726 -3.84052 -0.586206 0
M  V30 10102 H 946.398 -4.1547 2.00455 0
M  V30 10103 H 944.641 -3.87636 1.94732 0
M  V30 10104 H 945.312 -5.36888 1.28278 0
M  V30 10105 H 947.788 -4.15549 -0.214064 0
M  V30 10106 H 946.664 -5.44091 -0.724992 0
M  V30 10107 H 946.925 -4.052 -1.7682 0
M  V30 10108 N 945.984 -0.3171 -1.54377 0
M  V30 10109 C 947.261 0.341348 -1.92598 0
M  V30 10110 C 947.641 1.70402 -1.24605 0
M  V30 10111 O 946.989 2.25191 -0.387448 0
M  V30 10112 C 947.199 0.440003 -3.46215 0
M  V30 10113 C 948.547 0.703327 -4.18734 0
M  V30 10114 O 949.571 0.523181 -3.52337 0
M  V30 10115 O 948.43 1.05042 -5.3631 0
M  V30 10116 H 945.524 0.193696 -0.803997 0
M  V30 10117 H 948.07 -0.366341 -1.65699 0
M  V30 10118 H 946.842 -0.517299 -3.87866 0
M  V30 10119 H 946.465 1.19553 -3.792 0
M  V30 10120 N 947.462 1.57535 -0.0451378 0
M  V30 10121 C 948.395 2.06721 0.96653 0
M  V30 10122 C 949.373 0.966392 1.30766 0
M  V30 10123 O 950.557 1.23789 1.42157 0
M  V30 10124 C 947.684 2.50266 2.2822 0
M  V30 10125 C 946.73 3.71525 2.09455 0
M  V30 10126 S 947.563 5.17453 1.37851 0
M  V30 10127 C 948.719 5.64308 2.70753 0
M  V30 10128 H 948.952 2.92207 0.547911 0
M  V30 10129 H 946.485 1.53494 0.166973 0
M  V30 10130 H 948.443 2.76019 3.03849 0
M  V30 10131 H 947.104 1.65097 2.67211 0
M  V30 10132 H 946.297 3.99894 3.06759 0
M  V30 10133 H 945.899 3.46008 1.41967 0
M  V30 10134 H 948.191 5.69525 3.66943 0
M  V30 10135 H 949.134 6.63613 2.47028 0
M  V30 10136 H 949.542 4.92014 2.76736 0
M  V30 10137 N 948.94 -0.228186 1.55939 0
M  V30 10138 C 949.89 -1.28607 1.88267 0
M  V30 10139 C 950.874 -1.42606 0.745139 0
M  V30 10140 O 952.066 -1.45533 1.00743 0
M  V30 10141 C 949.195 -2.63783 2.19712 0
M  V30 10142 C 948.281 -2.53712 3.3984 0
M  V30 10143 N 948.672 -2.13287 4.58631 0
M  V30 10144 C 946.97 -2.84686 3.43322 0
M  V30 10145 C 947.671 -2.14305 5.40785 0
M  V30 10146 N 946.647 -2.54536 4.80325 0
M  V30 10147 H 950.449 -0.964307 2.7763 0
M  V30 10148 H 947.963 -0.436769 1.56416 0
M  V30 10149 H 949.96 -3.40152 2.41044 0
M  V30 10150 H 948.62 -2.9681 1.31657 0
M  V30 10151 H 949.631 -1.84525 4.83912 0
M  V30 10152 H 946.308 -3.22129 2.65592 0
M  V30 10153 H 947.698 -1.85231 6.45863 0
M  V30 10154 N 950.418 -1.49637 -0.494624 0
M  V30 10155 C 951.351 -1.61387 -1.61337 0
M  V30 10156 C 952.329 -0.462704 -1.55878 0
M  V30 10157 O 953.513 -0.679103 -1.75842 0
M  V30 10158 C 950.64 -1.57471 -2.99867 0
M  V30 10159 C 949.686 -2.77863 -3.23565 0
M  V30 10160 S 950.519 -4.3946 -3.05999 0
M  V30 10161 C 951.675 -4.382 -4.46914 0
M  V30 10162 H 951.908 -2.56024 -1.51126 0
M  V30 10163 H 949.441 -1.38607 -0.680253 0
M  V30 10164 H 951.399 -1.55898 -3.79745 0
M  V30 10165 H 950.06 -0.641107 -3.07488 0
M  V30 10166 H 949.253 -2.71361 -4.24711 0
M  V30 10167 H 948.855 -2.76882 -2.51421 0
M  V30 10168 H 951.147 -4.10312 -5.3912 0
M  V30 10169 H 952.09 -5.39645 -4.58464 0
M  V30 10170 H 952.498 -3.68197 -4.27891 0
M  V30 10171 N 951.896 0.746133 -1.38819 0
M  V30 10172 C 952.828 1.86991 -1.3254 0
M  V30 10173 C 953.841 1.61077 -0.236216 0
M  V30 10174 O 955.03 1.71518 -0.494341 0
M  V30 10175 C 952.13 3.22786 -1.03258 0
M  V30 10176 C 951.303 3.76145 -2.23234 0
M  V30 10177 C 950.362 4.90474 -1.90581 0
M  V30 10178 O 949.388 5.04717 -2.63153 0
M  V30 10179 N 950.59 5.74015 -0.86525 0
M  V30 10180 H 953.355 1.92885 -2.2938 0
M  V30 10181 H 950.916 0.926392 -1.32776 0
M  V30 10182 H 952.908 3.96824 -0.794533 0
M  V30 10183 H 951.478 3.12231 -0.151895 0
M  V30 10184 H 950.698 2.93587 -2.63059 0
M  V30 10185 H 951.986 4.08528 -3.03285 0
M  V30 10186 H 951.384 5.65086 -0.263577 0
M  V30 10187 H 949.941 6.48168 -0.687087 0
M  V30 10188 N 953.375 1.23811 0.975125 0
M  V30 10189 C 954.325 0.991036 2.05335 0
M  V30 10190 C 955.309 -0.0648793 1.60769 0
M  V30 10191 O 956.501 0.147917 1.76381 0
M  V30 10192 C 953.63 0.589822 3.38195 0
M  V30 10193 C 952.716 1.68142 3.89344 0
M  V30 10194 N 953.107 2.91274 4.13513 0
M  V30 10195 C 951.405 1.55722 4.17931 0
M  V30 10196 C 952.106 3.61987 4.55347 0
M  V30 10197 N 951.082 2.8952 4.60086 0
M  V30 10198 H 954.884 1.92612 2.21986 0
M  V30 10199 H 952.398 1.13827 1.15832 0
M  V30 10200 H 954.395 0.394075 4.15033 0
M  V30 10201 H 953.055 -0.338157 3.22934 0
M  V30 10202 H 954.066 3.27528 4.01181 0
M  V30 10203 H 950.743 0.696732 4.11645 0
M  V30 10204 H 952.133 4.67572 4.8252 0
M  V30 10205 N 954.853 -1.17469 1.05066 0
M  V30 10206 C 955.786 -2.2031 0.594863 0
M  V30 10207 C 956.764 -1.58196 -0.375878 0
M  V30 10208 O 957.948 -1.8629 -0.287798 0
M  V30 10209 C 955.075 -3.38452 -0.129614 0
M  V30 10210 C 954.121 -4.19007 0.795943 0
M  V30 10211 S 954.954 -4.8433 2.28441 0
M  V30 10212 C 956.11 -6.05862 1.57107 0
M  V30 10213 H 956.343 -2.58632 1.46618 0
M  V30 10214 H 953.876 -1.28063 0.862511 0
M  V30 10215 H 955.834 -4.06914 -0.541416 0
M  V30 10216 H 954.495 -2.98521 -0.976948 0
M  V30 10217 H 953.688 -5.0345 0.235396 0
M  V30 10218 H 953.29 -3.55976 1.14705 0
M  V30 10219 H 955.582 -6.71895 0.86969 0
M  V30 10220 H 956.525 -6.66442 2.39292 0
M  V30 10221 H 956.933 -5.54477 1.05903 0
M  V30 10222 N 956.331 -0.831506 -1.3388 0
M  V30 10223 C 957.241 -0.261688 -2.33136 0
M  V30 10224 C 958.257 0.608429 -1.63016 0
M  V30 10225 O 959.433 0.514297 -1.94723 0
M  V30 10226 C 956.498 0.559957 -3.42148 0
M  V30 10227 C 955.559 -0.333569 -4.28002 0
M  V30 10228 C 954.792 0.448956 -5.31808 0
M  V30 10229 O 955.015 1.6814 -5.45055 0
M  V30 10230 O 953.949 -0.173197 -6.01651 0
M  V30 10231 H 957.775 -1.08343 -2.83717 0
M  V30 10232 H 955.36 -0.593849 -1.3709 0
M  V30 10233 H 957.242 1.02712 -4.08691 0
M  V30 10234 H 955.917 1.35888 -2.93796 0
M  V30 10235 H 954.824 -0.848416 -3.64352 0
M  V30 10236 H 956.157 -1.09707 -4.79818 0
M  V30 10237 N 957.809 1.4625 -0.587256 0
M  V30 10238 C 959.225 1.57641 -0.249284 0
M  V30 10239 C 959.425 1.58169 1.24839 0
M  V30 10240 O 958.481 1.50109 2.03036 0
M  V30 10241 C 959.794 2.86837 -0.902509 0
M  V30 10242 C 961.342 3.00476 -0.876524 0
M  V30 10243 C 961.817 4.32414 -1.50938 0
M  V30 10244 N 963.308 4.39124 -1.47392 0
M  V30 10245 C 964.043 5.39838 -1.93293 0
M  V30 10246 N 963.539 6.47202 -2.47188 0
M  V30 10247 N 965.332 5.31068 -1.84183 0
M  V30 10248 H 957.483 1.44151 -1.55994 0
M  V30 10249 H 959.746 0.687905 -0.652297 0
M  V30 10250 H 959.452 2.92274 -1.95624 0
M  V30 10251 H 959.326 3.74927 -0.413466 0
M  V30 10252 H 961.713 2.94618 0.168601 0
M  V30 10253 H 961.794 2.1385 -1.40363 0
M  V30 10254 H 961.438 4.3903 -2.55372 0
M  V30 10255 H 961.368 5.17823 -0.957455 0
M  V30 10256 H 963.859 3.62138 -1.08002 0
M  V30 10257 H 964.172 7.20269 -2.80058 0
M  V30 10258 H 962.517 6.48009 -2.51216 0
M  V30 10259 H 965.708 4.46095 -1.41833 0
M  V30 10260 H 965.881 6.09414 -2.2027 0
M  V30 10261 N 959.287 0.325282 1.54207 0
M  V30 10262 C 960.217 -0.532574 2.27345 0
M  V30 10263 C 961.198 -1.11791 1.28206 0
M  V30 10264 O 962.383 -1.14272 1.57021 0
M  V30 10265 C 959.513 -1.69274 3.03255 0
M  V30 10266 C 958.467 -1.23662 4.09746 0
M  V30 10267 C 957.793 -2.48386 4.73506 0
M  V30 10268 C 959.093 -0.350244 5.21124 0
M  V30 10269 H 960.787 0.0775108 2.993 0
M  V30 10270 H 958.333 0.0387193 1.43948 0
M  V30 10271 H 960.286 -2.29917 3.53152 0
M  V30 10272 H 959.01 -2.32944 2.28921 0
M  V30 10273 H 957.669 -0.653106 3.60735 0
M  V30 10274 H 957.317 -3.10424 3.95786 0
M  V30 10275 H 957.017 -2.18558 5.45441 0
M  V30 10276 H 958.541 -3.09789 5.26178 0
M  V30 10277 H 959.955 -0.863011 5.66767 0
M  V30 10278 H 958.352 -0.14466 5.99926 0
M  V30 10279 H 959.422 0.618457 4.8094 0
M  V30 10280 N 960.765 -1.57509 0.0534917 0
M  V30 10281 C 961.697 -2.08616 -0.949322 0
M  V30 10282 C 962.71 -1.01446 -1.27328 0
M  V30 10283 O 963.899 -1.29007 -1.23367 0
M  V30 10284 C 960.999 -2.51622 -2.27024 0
M  V30 10285 C 960.172 -3.82154 -2.12785 0
M  V30 10286 C 959.231 -4.11448 -3.2802 0
M  V30 10287 O 958.257 -4.81333 -3.03822 0
M  V30 10288 N 959.459 -3.63543 -4.52567 0
M  V30 10289 H 962.224 -2.95275 -0.5131 0
M  V30 10290 H 959.785 -1.61355 -0.132693 0
M  V30 10291 H 961.777 -2.68293 -3.02986 0
M  V30 10292 H 960.347 -1.70198 -2.62205 0
M  V30 10293 H 959.567 -3.75041 -1.21399 0
M  V30 10294 H 960.855 -4.67629 -2.00501 0
M  V30 10295 H 960.253 -3.07051 -4.75117 0
M  V30 10296 H 958.81 -3.85448 -5.25617 0
M  V30 10297 N 962.243 0.219913 -1.56058 0
M  V30 10298 C 963.489 0.945463 -1.79412 0
M  V30 10299 C 963.822 1.83922 -0.62341 0
M  V30 10300 O 963.097 1.90806 0.377256 0
M  V30 10301 C 963.38 1.783 -3.1286 0
M  V30 10302 C 963.233 0.915626 -4.40382 0
M  V30 10303 C 964.552 2.76045 -3.42764 0
M  V30 10304 H 961.671 0.342288 -0.652693 0
M  V30 10305 H 964.313 0.214235 -1.88788 0
M  V30 10306 H 962.463 2.40642 -3.04998 0
M  V30 10307 H 964.135 0.30882 -4.60265 0
M  V30 10308 H 962.378 0.221124 -4.33236 0
M  V30 10309 H 963.049 1.53607 -5.30197 0
M  V30 10310 H 965.525 2.23838 -3.50764 0
M  V30 10311 H 964.401 3.31748 -4.37304 0
M  V30 10312 H 964.662 3.53866 -2.65012 0
M  V30 10313 N 963.721 1.49897 0.486681 0
M  V30 10314 C 964.653 1.63755 1.60365 0
M  V30 10315 C 965.666 0.519614 1.54285 0
M  V30 10316 O 966.855 0.792219 1.59957 0
M  V30 10317 C 963.955 1.59153 2.99205 0
M  V30 10318 C 963.128 2.8672 3.30319 0
M  V30 10319 C 962.187 2.74974 4.48638 0
M  V30 10320 O 961.213 3.48922 4.49714 0
M  V30 10321 N 962.415 1.87479 5.49392 0
M  V30 10322 H 965.18 2.60094 1.48899 0
M  V30 10323 H 962.741 1.47166 0.674825 0
M  V30 10324 H 964.733 1.4893 3.76301 0
M  V30 10325 H 963.303 0.706133 3.0452 0
M  V30 10326 H 962.523 3.11188 2.41983 0
M  V30 10327 H 963.811 3.71262 3.47911 0
M  V30 10328 H 963.209 1.26684 5.51333 0
M  V30 10329 H 961.766 1.83169 6.25534 0
M  V30 10330 N 965.199 -0.738761 1.39212 0
M  V30 10331 C 966.445 -1.50046 1.36433 0
M  V30 10332 C 966.778 -1.94157 -0.0409474 0
M  V30 10333 O 966.053 -1.66515 -1.00514 0
M  V30 10334 C 966.336 -2.74277 2.33333 0
M  V30 10335 C 966.189 -2.36209 3.82786 0
M  V30 10336 C 967.508 -3.76361 2.28123 0
M  V30 10337 H 964.627 -0.544294 0.496903 0
M  V30 10338 H 967.269 -0.845005 1.70175 0
M  V30 10339 H 965.419 -3.30204 2.04689 0
M  V30 10340 H 967.091 -1.85942 4.22165 0
M  V30 10341 H 965.334 -1.68483 3.99745 0
M  V30 10342 H 966.005 -3.25156 4.46069 0
M  V30 10343 H 968.481 -3.30009 2.53443 0
M  V30 10344 H 967.357 -4.60957 2.9801 0
M  V30 10345 H 967.618 -4.23013 1.28499 0
M  V30 10346 N 966.677 -1.24326 -0.968545 0
M  V30 10347 C 967.905 -1.10947 -1.74638 0
M  V30 10348 C 968.32 0.338064 -1.85749 0
M  V30 10349 O 967.677 1.23331 -1.3452 0
M  V30 10350 C 967.728 -1.74254 -3.1673 0
M  V30 10351 O 967.449 -3.13347 -3.06178 0
M  V30 10352 C 968.95 -1.66473 -4.10855 0
M  V30 10353 H 966.17 -0.38767 -0.547679 0
M  V30 10354 H 968.714 -1.64415 -1.21605 0
M  V30 10355 H 966.869 -1.2479 -3.66751 0
M  V30 10356 H 967.283 -3.44255 -3.95713 0
M  V30 10357 H 968.757 -2.15452 -5.08217 0
M  V30 10358 H 969.234 -0.625785 -4.34719 0
M  V30 10359 H 969.84 -2.15359 -3.66743 0
M  V30 10360 N 968.156 1.1691 -1.05688 0
M  V30 10361 C 969.066 2.24735 -0.67315 0
M  V30 10362 C 970.082 1.71252 0.308043 0
M  V30 10363 O 971.258 2.00772 0.158889 0
M  V30 10364 C 968.323 3.4665 -0.059026 0
M  V30 10365 C 967.384 4.15198 -1.0913 0
M  V30 10366 C 966.617 5.31292 -0.50639 0
M  V30 10367 O 966.84 5.663 0.682692 0
M  V30 10368 O 965.774 5.88923 -1.2431 0
M  V30 10369 H 969.6 2.59855 -1.57191 0
M  V30 10370 H 967.185 1.24306 -0.828751 0
M  V30 10371 H 969.067 4.20455 0.282018 0
M  V30 10372 H 967.742 3.13316 0.813304 0
M  V30 10373 H 966.649 3.43389 -1.48442 0
M  V30 10374 H 967.982 4.52571 -1.93495 0
M  V30 10375 N 969.634 0.838594 1.33437 0
M  V30 10376 C 970.864 0.446995 2.01707 0
M  V30 10377 C 971.272 -0.956335 1.63251 0
M  V30 10378 O 970.615 -1.63289 0.841566 0
M  V30 10379 C 970.677 0.487707 3.56176 0
M  V30 10380 C 970.341 1.8471 4.18009 0
M  V30 10381 C 971.338 2.81028 4.374 0
M  V30 10382 C 969.023 2.13987 4.54439 0
M  V30 10383 C 971.017 4.04785 4.92369 0
M  V30 10384 C 968.704 3.38 5.09116 0
M  V30 10385 C 969.702 4.33216 5.28027 0
M  V30 10386 O 969.39 5.55036 5.81541 0
M  V30 10387 H 969.122 0.175799 0.652741 0
M  V30 10388 H 971.676 1.13265 1.71348 0
M  V30 10389 H 969.906 -0.254719 3.8586 0
M  V30 10390 H 971.595 0.113971 4.0574 0
M  V30 10391 H 972.361 2.5971 4.09604 0
M  V30 10392 H 968.24 1.40668 4.39014 0
M  V30 10393 H 971.784 4.79114 5.07046 0
M  V30 10394 H 967.681 3.59175 5.36343 0
M  V30 10395 H 968.449 5.56772 5.99956 0
M  V30 10396 N 971.112 -1.45937 0.595003 0
M  V30 10397 C 972.342 -2.06399 0.0911607 0
M  V30 10398 C 972.75 -1.44236 -1.22444 0
M  V30 10399 O 972.093 -0.546265 -1.7539 0
M  V30 10400 C 972.155 -3.59242 -0.136079 0
M  V30 10401 C 971.819 -4.43668 1.09579 0
M  V30 10402 C 972.816 -4.79437 2.01088 0
M  V30 10403 C 970.501 -4.84616 1.32109 0
M  V30 10404 C 972.495 -5.54995 3.13464 0
M  V30 10405 C 970.182 -5.5993 2.44788 0
M  V30 10406 C 971.18 -5.95035 3.35294 0
M  V30 10407 O 970.868 -6.68825 4.46014 0
M  V30 10408 H 970.6 -0.673316 0.0601779 0
M  V30 10409 H 973.154 -1.88365 0.819005 0
M  V30 10410 H 971.384 -3.75629 -0.918676 0
M  V30 10411 H 973.073 -4.0159 -0.589954 0
M  V30 10412 H 973.839 -4.48371 1.84902 0
M  V30 10413 H 969.718 -4.56735 0.625662 0
M  V30 10414 H 973.262 -5.82314 3.84131 0
M  V30 10415 H 969.159 -5.90411 2.60931 0
M  V30 10416 H 969.927 -6.87262 4.44537 0
M  V30 10417 N 972.59 -0.333456 -1.54032 0
M  V30 10418 C 974.001 0.15256 -1.86076 0
M  V30 10419 C 974.352 1.50819 -1.25492 0
M  V30 10420 O 973.477 2.08903 -0.564665 0
M  V30 10421 C 974.072 0.283599 -3.37611 0
M  V30 10422 C 972.631 0.713841 -3.69569 0
M  V30 10423 C 971.778 -0.158515 -2.76847 0
M  V30 10424 H 974.729 -0.553404 -1.48738 0
M  V30 10425 H 974.75 1.11284 -3.63863 0
M  V30 10426 H 974.262 -0.703193 -3.81676 0
M  V30 10427 H 972.363 1.71002 -3.31042 0
M  V30 10428 H 972.476 0.510731 -4.7637 0
M  V30 10429 H 970.84 0.367531 -2.52034 0
M  V30 10430 H 971.623 -1.14226 -3.2374 0
M  V30 10431 N 974.068 1.57479 -0.061844 0
M  V30 10432 C 975.296 1.97429 0.618837 0
M  V30 10433 C 975.711 0.939826 1.63746 0
M  V30 10434 O 975.068 -0.0747173 1.82347 0
M  V30 10435 C 975.119 3.3746 1.29628 0
M  V30 10436 O 974.84 4.36941 0.318431 0
M  V30 10437 C 976.341 3.92228 2.06572 0
M  V30 10438 H 973.561 0.649513 0.168444 0
M  V30 10439 H 976.105 2.04078 -0.131303 0
M  V30 10440 H 974.26 3.31928 1.99757 0
M  V30 10441 H 974.674 5.18313 0.803239 0
M  V30 10442 H 976.148 4.92458 2.49377 0
M  V30 10443 H 976.625 3.28231 2.91824 0
M  V30 10444 H 977.231 4.01131 1.4133 0
M  V30 10445 N 975.546 -0.211634 1.56173 0
M  V30 10446 C 976.493 -1.26231 1.93221 0
M  V30 10447 C 977.463 -1.46076 0.790641 0
M  V30 10448 O 978.648 -1.59482 1.04739 0
M  V30 10449 C 975.788 -2.60559 2.26281 0
M  V30 10450 C 974.901 -2.48431 3.5342 0
M  V30 10451 C 974.036 -3.7535 3.7588 0
M  V30 10452 C 973.075 -3.57985 4.96501 0
M  V30 10453 N 972.212 -4.76877 5.15299 0
M  V30 10454 H 977.052 -0.939367 2.82807 0
M  V30 10455 H 974.589 -0.452511 1.39967 0
M  V30 10456 H 976.547 -3.38796 2.43461 0
M  V30 10457 H 975.177 -2.9093 1.39855 0
M  V30 10458 H 974.229 -1.61577 3.44379 0
M  V30 10459 H 975.541 -2.31526 4.41811 0
M  V30 10460 H 974.695 -4.62029 3.9321 0
M  V30 10461 H 973.434 -3.95191 2.85788 0
M  V30 10462 H 972.439 -2.69691 4.79111 0
M  V30 10463 H 973.664 -3.39605 5.88086 0
M  V30 10464 H 971.61 -4.97013 4.28152 0
M  V30 10465 H 971.527 -4.62735 5.9784 0
M  V30 10466 H 972.795 -5.64954 5.37073 0
M  V30 10467 N 977.024 -1.50153 -0.478725 0
M  V30 10468 C 978.272 -1.60443 -1.22892 0
M  V30 10469 C 978.593 -0.303276 -1.92627 0
M  V30 10470 O 977.863 0.678798 -1.83764 0
M  V30 10471 H 976.443 -0.591205 -0.456602 0
M  V30 10472 H 979.105 -1.86893 -0.552905 0
M  V30 10473 H 978.201 -2.41175 -1.98094 0
M  V30 10474 N 978.502 0.731368 -1.39602 0
M  V30 10475 C 979.73 1.52059 -1.40305 0
M  V30 10476 C 980.145 1.888 0.00147921 0
M  V30 10477 O 979.502 1.54354 0.973715 0
M  V30 10478 C 979.553 2.80588 -2.27931 0
M  V30 10479 O 979.274 2.45406 -3.62915 0
M  V30 10480 C 980.775 3.74592 -2.37056 0
M  V30 10481 H 977.995 0.469787 -0.479104 0
M  V30 10482 H 980.539 0.903436 -1.83462 0
M  V30 10483 H 978.694 3.38626 -1.88178 0
M  V30 10484 H 979.108 3.27996 -4.09291 0
M  V30 10485 H 980.582 4.61662 -3.02609 0
M  V30 10486 H 981.059 4.16597 -1.39081 0
M  V30 10487 H 981.665 3.22471 -2.77295 0
M  V30 10488 N 979.98 1.24838 0.961938 0
M  V30 10489 C 981.205 1.11967 1.7458 0
M  V30 10490 C 981.63 -0.323287 1.85301 0
M  V30 10491 O 980.988 -1.23412 1.32812 0
M  V30 10492 C 981.036 1.77066 3.14134 0
M  V30 10493 O 980.14 1.04534 3.98932 0
M  V30 10494 H 979.481 0.391338 0.536424 0
M  V30 10495 H 982.011 1.65259 1.20626 0
M  V30 10496 H 982.021 1.83056 3.64629 0
M  V30 10497 H 980.696 2.82052 3.05646 0
M  V30 10498 H 979.273 1.06372 3.57407 0
M  V30 10499 N 981.458 -1.16348 1.06306 0
M  V30 10500 C 982.683 -1.91323 0.800636 0
M  V30 10501 C 983.108 -1.7691 -0.639105 0
M  V30 10502 O 982.466 -1.0945 -1.44535 0
M  V30 10503 C 982.514 -3.40038 1.20027 0
M  V30 10504 O 981.618 -4.11003 0.339142 0
M  V30 10505 H 980.959 -0.596057 0.292595 0
M  V30 10506 H 983.489 -1.47406 1.41889 0
M  V30 10507 H 983.499 -3.90808 1.17188 0
M  V30 10508 H 982.174 -3.49848 2.24898 0
M  V30 10509 H 980.751 -3.70423 0.42911 0
M  V30 10510 N 982.937 -0.845659 -1.3299 0
M  V30 10511 C 984.348 -0.50048 -1.79867 0
M  V30 10512 C 984.699 0.981027 -1.69913 0
M  V30 10513 O 983.824 1.76477 -1.25239 0
M  V30 10514 C 984.419 -0.901679 -3.26581 0
M  V30 10515 C 982.978 -0.608536 -3.71448 0
M  V30 10516 C 982.125 -1.10632 -2.54275 0
M  V30 10517 H 985.076 -1.03372 -1.20416 0
M  V30 10518 H 985.097 -0.214433 -3.79895 0
M  V30 10519 H 984.609 -1.97998 -3.33794 0
M  V30 10520 H 982.71 0.459416 -3.69757 0
M  V30 10521 H 982.823 -1.16853 -4.64631 0
M  V30 10522 H 981.187 -0.526925 -2.4919 0
M  V30 10523 H 981.97 -2.19154 -2.64247 0
M  V30 10524 N 984.415 1.45619 -0.602734 0
M  V30 10525 C 985.378 2.28941 0.108962 0
M  V30 10526 C 986.378 1.39501 0.799762 0
M  V30 10527 O 987.568 1.61673 0.648663 0
M  V30 10528 C 984.7 3.204 1.16432 0
M  V30 10529 H 985.893 2.93346 -0.623534 0
M  V30 10530 H 983.446 1.52061 -0.361565 0
M  V30 10531 H 984.181 2.60785 1.92774 0
M  V30 10532 H 983.966 3.86277 0.673248 0
M  V30 10533 H 985.456 3.83063 1.6629 0
M  V30 10534 N 985.893 0.34162 1.53853 0
M  V30 10535 C 986.803 -0.524555 2.2866 0
M  V30 10536 C 987.819 -1.1136 1.33697 0
M  V30 10537 O 988.995 -1.1297 1.66732 0
M  V30 10538 C 986.06 -1.66065 3.04341 0
M  V30 10539 C 985.121 -1.10158 4.14926 0
M  V30 10540 C 984.354 -2.18353 4.86988 0
M  V30 10541 O 984.577 -3.39038 4.58704 0
M  V30 10542 O 983.511 -1.82756 5.73484 0
M  V30 10543 H 987.337 0.0835014 3.03585 0
M  V30 10544 H 984.922 0.106727 1.49018 0
M  V30 10545 H 986.804 -2.3217 3.51674 0
M  V30 10546 H 985.479 -2.25456 2.32275 0
M  V30 10547 H 984.386 -0.405109 3.719 0
M  V30 10548 H 985.719 -0.552567 4.89088 0
M  V30 10549 N 987.371 -1.57444 0.0701946 0
M  V30 10550 C 988.334 -2.11511 -0.882923 0
M  V30 10551 C 989.334 -1.03879 -1.22743 0
M  V30 10552 O 990.524 -1.29874 -1.16097 0
M  V30 10553 C 987.656 -2.61514 -2.18686 0
M  V30 10554 H 988.849 -2.9703 -0.413873 0
M  V30 10555 H 986.402 -1.55278 -0.178488 0
M  V30 10556 H 987.137 -1.79443 -2.70131 0
M  V30 10557 H 986.922 -3.40185 -1.94978 0
M  V30 10558 H 988.412 -3.03425 -2.86919 0
M  V30 10559 N 988.849 0.203349 -1.56283 0
M  V30 10560 C 989.759 1.27266 -1.9708 0
M  V30 10561 C 990.775 1.50268 -0.877236 0
M  V30 10562 O 991.951 1.63044 -1.18231 0
M  V30 10563 C 989.016 2.59871 -2.29495 0
M  V30 10564 C 988.077 2.45012 -3.52516 0
M  V30 10565 C 987.31 3.71293 -3.83376 0
M  V30 10566 O 987.533 4.75106 -3.15643 0
M  V30 10567 O 986.467 3.67316 -4.76826 0
M  V30 10568 H 990.293 0.956461 -2.88246 0
M  V30 10569 H 987.878 0.407688 -1.4373 0
M  V30 10570 H 989.76 3.38152 -2.51458 0
M  V30 10571 H 988.435 2.91135 -1.415 0
M  V30 10572 H 987.342 1.6487 -3.35811 0
M  V30 10573 H 988.675 2.18683 -4.40952 0
M  V30 10574 N 990.327 1.50405 0.470755 0
M  V30 10575 C 991.274 1.69293 1.56871 0
M  V30 10576 C 992.244 0.534248 1.57274 0
M  V30 10577 O 993.429 0.764855 1.74799 0
M  V30 10578 C 990.569 1.79338 2.94842 0
M  V30 10579 C 989.682 3.06709 3.04226 0
M  V30 10580 C 988.817 3.07548 4.33114 0
M  V30 10581 C 987.856 4.29372 4.36241 0
M  V30 10582 N 986.993 4.27949 5.56601 0
M  V30 10583 H 991.833 2.63029 1.40071 0
M  V30 10584 H 989.37 1.30386 0.681016 0
M  V30 10585 H 991.328 1.83143 3.74853 0
M  V30 10586 H 989.958 0.890411 3.10277 0
M  V30 10587 H 989.01 3.12374 2.17086 0
M  V30 10588 H 990.322 3.96684 3.02396 0
M  V30 10589 H 989.476 3.10084 5.21472 0
M  V30 10590 H 988.215 2.15404 4.37553 0
M  V30 10591 H 987.22 4.27048 3.4628 0
M  V30 10592 H 988.445 5.22743 4.33493 0
M  V30 10593 H 986.391 3.38658 5.61824 0
M  V30 10594 H 986.308 5.11692 5.56513 0
M  V30 10595 H 987.576 4.34631 6.47083 0
M  V30 10596 N 991.805 -0.723954 1.39988 0
M  V30 10597 C 992.752 -1.83803 1.39589 0
M  V30 10598 C 993.722 -1.64146 0.253996 0
M  V30 10599 O 994.907 -1.85398 0.450793 0
M  V30 10600 C 992.047 -3.21431 1.25604 0
M  V30 10601 C 991.16 -3.52717 2.49429 0
M  V30 10602 C 990.295 -4.79805 2.27949 0
M  V30 10603 C 989.334 -5.03968 3.47394 0
M  V30 10604 N 988.471 -6.22266 3.25161 0
M  V30 10605 H 993.311 -1.83479 2.34818 0
M  V30 10606 H 990.848 -0.896396 1.16633 0
M  V30 10607 H 992.806 -4.00892 1.15504 0
M  V30 10608 H 991.436 -3.21005 0.339986 0
M  V30 10609 H 990.488 -2.67872 2.7009 0
M  V30 10610 H 991.8 -3.66486 3.38363 0
M  V30 10611 H 990.954 -5.67268 2.15155 0
M  V30 10612 H 989.693 -4.68229 1.36428 0
M  V30 10613 H 988.698 -4.14963 3.60674 0
M  V30 10614 H 989.923 -5.17422 4.39831 0
M  V30 10615 H 987.869 -6.11957 2.36314 0
M  V30 10616 H 987.786 -6.36673 4.07656 0
M  V30 10617 H 989.054 -7.12539 3.16083 0
M  V30 10618 N 993.283 -1.25346 -0.955304 0
M  V30 10619 C 994.193 -1.07412 -2.08566 0
M  V30 10620 C 995.209 -0.0114424 -1.73996 0
M  V30 10621 O 996.385 -0.212236 -2.00279 0
M  V30 10622 C 993.45 -0.694141 -3.3968 0
M  V30 10623 C 992.511 -1.83468 -3.88121 0
M  V30 10624 C 991.744 -1.47274 -5.12978 0
M  V30 10625 O 991.967 -0.368086 -5.69211 0
M  V30 10626 O 990.901 -2.30269 -5.56111 0
M  V30 10627 H 994.727 -2.02206 -2.26598 0
M  V30 10628 H 992.312 -1.04279 -1.06988 0
M  V30 10629 H 994.194 -0.494325 -4.18491 0
M  V30 10630 H 992.869 0.224545 -3.2292 0
M  V30 10631 H 991.776 -2.08935 -3.10318 0
M  V30 10632 H 993.109 -2.73258 -4.09379 0
M  V30 10633 N 994.761 1.15782 -1.06922 0
M  V30 10634 C 996.038 1.8253 -0.703 0
M  V30 10635 C 996.418 1.94733 0.814994 0
M  V30 10636 O 995.766 1.49537 1.72774 0
M  V30 10637 C 995.976 3.19145 -1.41234 0
M  V30 10638 C 997.324 3.94839 -1.56164 0
M  V30 10639 O 998.348 3.28685 -1.37277 0
M  V30 10640 O 997.207 5.13436 -1.87205 0
M  V30 10641 H 994.301 0.788425 -0.24963 0
M  V30 10642 H 996.847 1.22931 -1.16988 0
M  V30 10643 H 995.619 3.05336 -2.44715 0
M  V30 10644 H 995.242 3.86427 -0.935959 0
M  V30 10645 N 996.239 0.8527 1.3254 0
M  V30 10646 C 997.187 0.284659 2.30852 0
M  V30 10647 C 998.181 -0.5909 1.5876 0
M  V30 10648 O 999.387 -0.478922 1.73512 0
M  V30 10649 H 995.762 0.0733452 0.748415 0
M  V30 10650 H 997.733 1.1281 2.76254 0
M  V30 10651 C 996.482 -0.51379 3.43883 0
M  V30 10652 H 995.805 0.150644 3.99516 0
M  V30 10653 H 997.245 -0.876866 4.14834 0
M  V30 10654 C 995.704 -1.69823 2.90967 0
M  V30 10655 O 996.234 -2.79727 2.88298 0
M  V30 10656 N 994.44 -1.52465 2.47392 0
M  V30 10657 H 993.987 -0.630599 2.49762 0
M  V30 10658 H 993.945 -2.31859 2.12341 0
M  V30 10659 N 997.718 -1.45297 0.610449 0
M  V30 10660 C 999.134 -1.57225 0.274332 0
M  V30 10661 C 999.334 -1.60136 -1.22306 0
M  V30 10662 O 998.39 -1.5332 -2.00622 0
M  V30 10663 C 999.703 -2.85365 0.948028 0
M  V30 10664 C 1001.25 -2.99044 0.924216 0
M  V30 10665 C 1001.73 -4.29958 1.57798 0
M  V30 10666 N 1003.22 -4.36723 1.5436 0
M  V30 10667 C 1003.95 -5.36695 2.01857 0
M  V30 10668 N 1003.45 -6.43187 2.57453 0
M  V30 10669 N 1005.24 -5.28071 1.92608 0
M  V30 10670 H 997.392 -1.41651 1.58268 0
M  V30 10671 H 999.655 -0.67744 0.663158 0
M  V30 10672 H 999.361 -2.89125 2.00249 0
M  V30 10673 H 999.235 -3.74222 0.473062 0
M  V30 10674 H 1001.62 -2.94849 -0.121709 0
M  V30 10675 H 1001.7 -2.1159 1.43748 0
M  V30 10676 H 1001.35 -4.34912 2.62325 0
M  V30 10677 H 1001.28 -5.16234 1.03972 0
M  V30 10678 H 1003.77 -3.60374 1.13749 0
M  V30 10679 H 1004.08 -7.15722 2.91482 0
M  V30 10680 H 1002.43 -6.4393 2.61493 0
M  V30 10681 H 1005.62 -4.43783 1.48912 0
M  V30 10682 H 1005.79 -6.05832 2.29938 0
M  V30 10683 N 999.196 -0.349774 -1.5367 0
M  V30 10684 C 1000.43 0.245682 -2.05134 0
M  V30 10685 C 1000.83 1.44269 -1.22406 0
M  V30 10686 O 1000.18 1.81938 -0.25379 0
M  V30 10687 C 1000.24 0.718439 -3.52248 0
M  V30 10688 C 999.903 -0.35975 -4.55582 0
M  V30 10689 C 1000.9 -1.20449 -5.05755 0
M  V30 10690 C 998.585 -0.515463 -4.99648 0
M  V30 10691 C 1000.58 -2.19043 -5.98581 0
M  V30 10692 C 998.266 -1.50479 -5.92283 0
M  V30 10693 C 999.264 -2.34072 -6.41638 0
M  V30 10694 O 998.952 -3.31319 -7.3245 0
M  V30 10695 H 998.684 0.0501122 -0.67414 0
M  V30 10696 H 1001.24 -0.5018 -1.99176 0
M  V30 10697 H 999.468 1.51727 -3.55691 0
M  V30 10698 H 1001.16 1.23513 -3.86651 0
M  V30 10699 H 1001.92 -1.09531 -4.7247 0
M  V30 10700 H 997.802 0.12537 -4.60829 0
M  V30 10701 H 1001.35 -2.84327 -6.37027 0
M  V30 10702 H 997.243 -1.61451 -6.24983 0
M  V30 10703 H 998.011 -3.26863 -7.50402 0
M  V30 10704 N 1000.67 1.57404 -0.0785433 0
M  V30 10705 C 1001.9 1.98492 0.601292 0
M  V30 10706 C 1002.32 0.956832 1.61945 0
M  V30 10707 O 1001.68 -0.0767502 1.81137 0
M  V30 10708 C 1001.73 3.38596 1.24036 0
M  V30 10709 O 1000.83 3.38461 2.35622 0
M  V30 10710 H 1000.17 0.645882 0.154054 0
M  V30 10711 H 1002.7 2.04012 -0.155056 0
M  V30 10712 H 1002.71 3.75929 1.5856 0
M  V30 10713 H 1001.39 4.12952 0.494341 0
M  V30 10714 H 999.967 3.12906 2.02841 0
M  V30 10715 N 1002.15 -0.195058 1.56388 0
M  V30 10716 C 1003.43 -0.941335 1.71459 0
M  V30 10717 C 1003.81 -2.01375 0.633336 0
M  V30 10718 O 1003.16 -2.25715 -0.35567 0
M  V30 10719 C 1003.37 -1.52772 3.13786 0
M  V30 10720 C 1004.71 -2.00983 3.7402 0
M  V30 10721 O 1005.74 -1.62614 3.16915 0
M  V30 10722 O 1004.6 -2.71586 4.7424 0
M  V30 10723 H 1001.69 -0.441451 0.699321 0
M  V30 10724 H 1004.24 -0.184752 1.68691 0
M  V30 10725 H 1003.01 -0.754699 3.83953 0
M  V30 10726 H 1002.63 -2.34914 3.20782 0
M  V30 10727 N 1003.63 -1.50653 -0.462772 0
M  V30 10728 C 1004.56 -1.73056 -1.5676 0
M  V30 10729 C 1005.54 -0.579699 -1.59917 0
M  V30 10730 O 1006.73 -0.819729 -1.76051 0
M  V30 10731 C 1003.86 -1.83234 -2.9503 0
M  V30 10732 C 1002.81 -2.98488 -3.06739 0
M  V30 10733 C 1002.14 -2.93818 -4.46738 0
M  V30 10734 C 1003.44 -4.38869 -2.83181 0
M  V30 10735 H 1005.13 -2.65562 -1.38265 0
M  V30 10736 H 1002.68 -1.27792 -0.663722 0
M  V30 10737 H 1004.63 -1.97491 -3.72257 0
M  V30 10738 H 1003.35 -0.873558 -3.14701 0
M  V30 10739 H 1002.01 -2.83895 -2.31946 0
M  V30 10740 H 1001.66 -1.95769 -4.63339 0
M  V30 10741 H 1001.36 -3.71197 -4.55507 0
M  V30 10742 H 1002.88 -3.10135 -5.25974 0
M  V30 10743 H 1004.3 -4.53945 -3.50153 0
M  V30 10744 H 1002.69 -5.17762 -3.03386 0
M  V30 10745 H 1003.76 -4.50663 -1.78972 0
M  V30 10746 N 1005.11 0.71652 -1.4037 0
M  V30 10747 C 1006.06 1.8306 -1.40562 0
M  V30 10748 C 1007.03 1.64009 -0.262697 0
M  V30 10749 O 1008.21 1.85157 -0.460619 0
M  V30 10750 C 1005.35 3.2076 -1.27307 0
M  V30 10751 C 1004.46 3.51389 -2.51296 0
M  V30 10752 C 1003.6 4.78589 -2.30491 0
M  V30 10753 C 1002.64 5.02119 -3.50061 0
M  V30 10754 N 1001.77 6.20533 -3.28457 0
M  V30 10755 H 1006.61 1.82231 -2.35788 0
M  V30 10756 H 1004.15 0.890198 -1.17106 0
M  V30 10757 H 1006.11 4.00274 -1.17628 0
M  V30 10758 H 1004.74 3.2082 -0.357005 0
M  V30 10759 H 1003.79 2.66436 -2.71507 0
M  V30 10760 H 1005.1 3.64686 -3.40302 0
M  V30 10761 H 1004.26 5.66119 -2.1816 0
M  V30 10762 H 1003 4.67499 -1.38909 0
M  V30 10763 H 1002 4.13044 -3.6287 0
M  V30 10764 H 1003.23 5.15082 -4.42569 0
M  V30 10765 H 1001.17 6.10695 -2.39556 0
M  V30 10766 H 1001.09 6.34502 -4.11027 0
M  V30 10767 H 1002.36 7.10853 -3.19857 0
M  V30 10768 N 1006.59 1.25851 0.948643 0
M  V30 10769 C 1007.81 1.13711 1.72851 0
M  V30 10770 C 1008.23 -0.308471 1.86263 0
M  V30 10771 O 1007.59 -1.21175 1.36465 0
M  V30 10772 C 1007.64 1.79271 3.13918 0
M  V30 10773 O 1007.36 3.18179 3.01154 0
M  V30 10774 C 1008.86 1.72988 4.08154 0
M  V30 10775 H 1006.08 0.396334 0.541443 0
M  V30 10776 H 1008.62 1.66329 1.18974 0
M  V30 10777 H 1006.78 1.30609 3.64719 0
M  V30 10778 H 1007.19 3.50507 3.90186 0
M  V30 10779 H 1008.67 2.2351 5.04725 0
M  V30 10780 H 1009.14 0.694866 4.33668 0
M  V30 10781 H 1009.75 2.21166 3.63271 0
M  V30 10782 N 1008.06 -1.15214 1.07534 0
M  V30 10783 C 1009.31 -1.85388 0.794617 0
M  V30 10784 C 1009.63 -1.83331 -0.681838 0
M  V30 10785 O 1010.83 -2.49207 -1.0774 0
M  V30 10786 C 1009.29 -3.32747 1.37141 0
M  V30 10787 C 1008.9 -3.43244 2.87902 0
M  V30 10788 C 1010.64 -4.08093 1.16879 0
M  V30 10789 C 1008.55 -4.84762 3.38763 0
M  V30 10790 H 1007.48 -0.694499 0.293577 0
M  V30 10791 H 1010.13 -1.29944 1.29564 0
M  V30 10792 H 1008.51 -3.87874 0.798121 0
M  V30 10793 H 1009.68 -2.98214 3.51291 0
M  V30 10794 H 1008 -2.81345 3.06975 0
M  V30 10795 H 1010.6 -5.12535 1.52353 0
M  V30 10796 H 1010.94 -4.1616 0.107958 0
M  V30 10797 H 1011.47 -3.59241 1.70854 0
M  V30 10798 H 1008.21 -4.81879 4.4438 0
M  V30 10799 H 1007.73 -5.30366 2.80128 0
M  V30 10800 H 1009.41 -5.53624 3.34827 0
M  V30 10801 N 1009.54 -0.859717 -1.32086 0
M  V30 10802 C 1010.79 -0.461779 -1.96343 0
M  V30 10803 C 1011.1 0.988837 -1.68764 0
M  V30 10804 O 1012.31 1.49244 -2.268 0
M  V30 10805 C 1010.77 -0.77484 -3.5146 0
M  V30 10806 C 1010.37 -2.24153 -3.87891 0
M  V30 10807 C 1012.12 -0.444873 -4.22162 0
M  V30 10808 C 1010.03 -2.49754 -5.36075 0
M  V30 10809 H 1008.96 -0.168951 -0.734828 0
M  V30 10810 H 1011.61 -1.0512 -1.50406 0
M  V30 10811 H 1009.99 -0.114792 -3.95834 0
M  V30 10812 H 1011.16 -2.94378 -3.54511 0
M  V30 10813 H 1009.48 -2.53651 -3.30227 0
M  V30 10814 H 1012.07 -0.613508 -5.31169 0
M  V30 10815 H 1012.42 0.61391 -4.11749 0
M  V30 10816 H 1012.95 -1.06103 -3.83389 0
M  V30 10817 H 1009.69 -3.54276 -5.51515 0
M  V30 10818 H 1009.21 -1.84112 -5.70844 0
M  V30 10819 H 1010.89 -2.3396 -6.03218 0
M  V30 10820 N 1011.02 1.44971 -0.618145 0
M  V30 10821 C 1012.26 2.04044 -0.120625 0
M  V30 10822 C 1012.62 1.47472 1.22947 0
M  V30 10823 O 1013.83 1.97965 1.81834 0
M  V30 10824 C 1012.1 3.57279 -0.0930863 0
M  V30 10825 S 1013.66 4.37468 0.341705 0
M  V30 10826 H 1010.47 0.708891 -0.0547272 0
M  V30 10827 H 1013.08 1.77535 -0.818621 0
M  V30 10828 H 1011.78 3.95961 -1.07903 0
M  V30 10829 H 1011.31 3.88378 0.62657 0
M  V30 10830 H 1013.33 4.70073 1.58888 0
M  V30 10831 N 1012.5 0.357919 1.53482 0
M  V30 10832 C 1013.45 -0.507364 2.26999 0
M  V30 10833 C 1014.44 -1.08987 1.29685 0
M  V30 10834 O 1015.65 -1.03396 1.47341 0
M  V30 10835 H 1012.02 -0.182326 0.729562 0
M  V30 10836 H 1013.99 0.134547 2.98097 0
M  V30 10837 C 1012.74 -1.63911 3.06641 0
M  V30 10838 H 1012.06 -1.20017 3.81361 0
M  V30 10839 H 1013.5 -2.21943 3.61272 0
M  V30 10840 C 1011.96 -2.57697 2.17011 0
M  V30 10841 O 1012.49 -3.60318 1.77578 0
M  V30 10842 N 1010.7 -2.2671 1.818 0
M  V30 10843 H 1010.25 -1.43296 2.14065 0
M  V30 10844 H 1010.2 -2.89716 1.22115 0
M  V30 10845 N 1013.98 -1.5736 0.0868897 0
M  V30 10846 C 1015.21 -1.981 -0.586498 0
M  V30 10847 C 1015.61 -0.96455 -1.62767 0
M  V30 10848 O 1014.96 0.0551801 -1.83617 0
M  V30 10849 C 1015.02 -3.35193 -1.29947 0
M  V30 10850 C 1014.68 -4.55157 -0.410012 0
M  V30 10851 C 1015.68 -5.18797 0.338532 0
M  V30 10852 C 1013.37 -5.01212 -0.33047 0
M  V30 10853 C 1015.36 -6.26854 1.15468 0
M  V30 10854 C 1013.05 -6.09138 0.48934 0
M  V30 10855 C 1014.04 -6.71823 1.23057 0
M  V30 10856 O 1013.73 -7.77669 2.03683 0
M  V30 10857 H 1013.46 -0.656166 -0.16255 0
M  V30 10858 H 1016.02 -2.04773 0.160379 0
M  V30 10859 H 1014.25 -3.25179 -2.09274 0
M  V30 10860 H 1015.94 -3.60435 -1.86658 0
M  V30 10861 H 1016.7 -4.84151 0.286764 0
M  V30 10862 H 1012.58 -4.52188 -0.897058 0
M  V30 10863 H 1016.13 -6.75712 1.73374 0
M  V30 10864 H 1012.02 -6.43215 0.542618 0
M  V30 10865 H 1012.79 -7.94618 1.96277 0
M  V30 10866 N 1015.45 0.186762 -1.56489 0
M  V30 10867 C 1016.68 0.925916 -1.85584 0
M  V30 10868 C 1017.1 1.75708 -0.671446 0
M  V30 10869 O 1016.46 1.7728 0.379687 0
M  V30 10870 C 1016.51 1.79107 -3.12975 0
M  V30 10871 O 1015.61 2.89088 -2.94112 0
M  V30 10872 H 1014.96 0.260275 -0.610863 0
M  V30 10873 H 1017.49 0.189561 -2.0372 0
M  V30 10874 H 1017.5 2.19408 -3.43983 0
M  V30 10875 H 1016.17 1.18044 -3.98796 0
M  V30 10876 H 1014.75 2.52482 -2.74422 0
M  V30 10877 N 1016.93 1.50896 0.454776 0
M  V30 10878 C 1017.84 1.73762 1.5762 0
M  V30 10879 C 1018.86 0.621206 1.62533 0
M  V30 10880 O 1020.03 0.901449 1.801 0
M  V30 10881 C 1017.1 1.84183 2.9373 0
M  V30 10882 C 1016.16 3.07982 2.99075 0
M  V30 10883 C 1015.39 3.17896 4.28693 0
M  V30 10884 O 1015.62 2.34184 5.20109 0
M  V30 10885 O 1014.55 4.10749 4.39964 0
M  V30 10886 H 1018.38 2.68856 1.41245 0
M  V30 10887 H 1015.96 1.35187 0.635984 0
M  V30 10888 H 1017.84 1.93123 3.74542 0
M  V30 10889 H 1016.52 0.922742 3.10269 0
M  V30 10890 H 1015.43 3.04531 2.17282 0
M  V30 10891 H 1016.76 3.99523 2.87476 0
M  V30 10892 N 1018.41 -0.709066 1.40748 0
M  V30 10893 C 1019.64 -1.49808 1.42707 0
M  V30 10894 C 1020.05 -1.88778 0.0285574 0
M  V30 10895 O 1019.41 -1.55883 -0.949035 0
M  V30 10896 C 1019.46 -2.76926 2.32366 0
M  V30 10897 O 1019.18 -2.39602 3.66773 0
M  V30 10898 C 1020.68 -3.70773 2.42986 0
M  V30 10899 H 1017.9 -0.462106 0.486517 0
M  V30 10900 H 1020.45 -0.874135 1.84876 0
M  V30 10901 H 1018.6 -3.3559 1.93541 0
M  V30 10902 H 1019.02 -3.21443 4.14457 0
M  V30 10903 H 1020.49 -4.56789 3.09916 0
M  V30 10904 H 1020.97 -4.14332 1.45691 0
M  V30 10905 H 1021.57 -3.18019 2.8239 0
M  V30 10906 N 1019.89 -1.26353 -0.941956 0
M  V30 10907 C 1021.14 -1.1163 -1.68473 0
M  V30 10908 C 1021.46 0.34108 -1.91994 0
M  V30 10909 O 1020.73 1.24065 -1.51607 0
M  V30 10910 H 1019.31 -0.410113 -0.624353 0
M  V30 10911 H 1021.97 -1.58669 -1.13182 0
M  V30 10912 H 1021.07 -1.63445 -2.6588 0
M  V30 10913 N 1021.37 1.14642 -1.08144 0
M  V30 10914 C 1022.78 1.6719 -0.830923 0
M  V30 10915 C 1023.13 1.85373 0.642749 0
M  V30 10916 O 1022.25 1.56293 1.49671 0
M  V30 10917 C 1022.85 3.03697 -1.50179 0
M  V30 10918 C 1021.41 3.5329 -1.29858 0
M  V30 10919 C 1020.56 2.28828 -1.5663 0
M  V30 10920 H 1023.51 0.987441 -1.24239 0
M  V30 10921 H 1023.53 3.69023 -0.9275 0
M  V30 10922 H 1023.04 2.90431 -2.57432 0
M  V30 10923 H 1021.14 3.71783 -0.246626 0
M  V30 10924 H 1021.25 4.34231 -2.02436 0
M  V30 10925 H 1019.62 2.34769 -0.987716 0
M  V30 10926 H 1020.4 2.18141 -2.65084 0
M  V30 10927 N 1022.85 0.866709 1.31628 0
M  V30 10928 C 1024.26 0.529032 1.79048 0
M  V30 10929 C 1024.61 -0.953871 1.71452 0
M  V30 10930 O 1023.73 -1.74462 1.28031 0
M  V30 10931 C 1024.33 0.953522 3.25105 0
M  V30 10932 C 1022.89 0.667554 3.70433 0
M  V30 10933 C 1022.03 1.14664 2.52483 0
M  V30 10934 H 1024.98 1.05275 1.18756 0
M  V30 10935 H 1025.01 0.274844 3.79506 0
M  V30 10936 H 1024.52 2.03283 3.30602 0
M  V30 10937 H 1022.62 -0.400532 3.70441 0
M  V30 10938 H 1022.73 1.2423 4.62714 0
M  V30 10939 H 1021.1 0.566502 2.4832 0
M  V30 10940 H 1021.88 2.2333 2.60727 0
M  V30 10941 N 1024.32 -1.44642 0.625825 0
M  V30 10942 C 1025.23 -2.34451 -0.0836134 0
M  V30 10943 C 1026.25 -1.5231 -0.841289 0
M  V30 10944 O 1027.43 -1.85056 -0.794754 0
M  V30 10945 C 1024.49 -3.30211 -1.05648 0
M  V30 10946 C 1023.55 -4.28259 -0.298759 0
M  V30 10947 C 1022.78 -5.19444 -1.22528 0
M  V30 10948 O 1023.01 -5.14444 -2.46382 0
M  V30 10949 O 1021.94 -5.97668 -0.71247 0
M  V30 10950 H 1025.77 -2.96555 0.654912 0
M  V30 10951 H 1023.35 -1.44327 0.386029 0
M  V30 10952 H 1025.23 -3.8917 -1.61632 0
M  V30 10953 H 1023.91 -2.70648 -1.77571 0
M  V30 10954 H 1022.82 -3.72863 0.304001 0
M  V30 10955 H 1024.15 -4.90728 0.380345 0
M  V30 10956 N 1025.8 -0.366053 -1.5329 0
M  V30 10957 C 1027.21 0.113056 -1.86357 0
M  V30 10958 C 1027.56 1.48123 -1.28662 0
M  V30 10959 O 1026.69 2.07658 -0.608849 0
M  V30 10960 C 1027.28 0.211923 -3.38137 0
M  V30 10961 C 1025.84 0.635289 -3.71 0
M  V30 10962 C 1024.99 -0.217203 -2.76448 0
M  V30 10963 H 1027.94 -0.584829 -1.47531 0
M  V30 10964 H 1027.96 1.0354 -3.66142 0
M  V30 10965 H 1027.47 -0.783994 -3.80099 0
M  V30 10966 H 1025.57 1.63942 -3.34595 0
M  V30 10967 H 1025.69 0.409571 -4.77346 0
M  V30 10968 H 1024.05 0.313988 -2.52757 0
M  V30 10969 H 1024.83 -1.21067 -3.21244 0
M  V30 10970 N 1027.28 1.57312 -0.0952337 0
M  V30 10971 C 1028.69 1.81589 0.433875 0
M  V30 10972 C 1029.04 1.01086 1.68155 0
M  V30 10973 O 1028.17 0.240272 2.15062 0
M  V30 10974 C 1028.76 3.29366 0.793931 0
M  V30 10975 C 1027.32 3.54407 1.26778 0
M  V30 10976 C 1026.47 2.76035 0.264518 0
M  V30 10977 H 1029.42 1.55426 -0.320675 0
M  V30 10978 H 1029.44 3.42697 1.65345 0
M  V30 10979 H 1028.95 3.87932 -0.114334 0
M  V30 10980 H 1027.05 3.01173 2.19376 0
M  V30 10981 H 1027.17 4.63055 1.22952 0
M  V30 10982 H 1025.53 2.43509 0.746691 0
M  V30 10983 H 1026.31 3.37349 -0.636429 0
M  V30 10984 N 1028.76 -0.17846 1.56586 0
M  V30 10985 C 1029.99 -0.910674 1.85446 0
M  V30 10986 C 1030.4 -1.76647 0.677675 0
M  V30 10987 O 1029.74 -1.80086 -0.362584 0
M  V30 10988 C 1029.8 -1.84363 3.08627 0
M  V30 10989 C 1029.46 -1.16814 4.41818 0
M  V30 10990 C 1030.46 -0.53703 5.17119 0
M  V30 10991 C 1028.15 -1.16703 4.88555 0
M  V30 10992 C 1030.14 0.0861778 6.37342 0
M  V30 10993 C 1027.83 -0.539992 6.0871 0
M  V30 10994 C 1028.83 0.0855135 6.82946 0
M  V30 10995 O 1028.51 0.70268 8.00823 0
M  V30 10996 H 1028.25 -0.270377 0.619574 0
M  V30 10997 H 1030.8 -0.185591 2.0456 0
M  V30 10998 H 1029.03 -2.60884 2.85441 0
M  V30 10999 H 1030.72 -2.44506 3.23993 0
M  V30 11000 H 1031.48 -0.529915 4.82096 0
M  V30 11001 H 1027.36 -1.64329 4.30717 0
M  V30 11002 H 1030.91 0.575011 6.95226 0
M  V30 11003 H 1026.8 -0.544666 6.43198 0
M  V30 11004 H 1027.57 0.601224 8.16289 0
M  V30 11005 N 1030.24 -1.51135 -0.446768 0
M  V30 11006 C 1031.46 -1.67411 -1.22427 0
M  V30 11007 C 1031.89 -0.367009 -1.84485 0
M  V30 11008 O 1031.24 0.67185 -1.68392 0
M  V30 11009 C 1031.29 -2.78473 -2.29096 0
M  V30 11010 O 1030.4 -2.41419 -3.34351 0
M  V30 11011 H 1029.74 -0.558512 -0.359111 0
M  V30 11012 H 1032.27 -1.97648 -0.5288 0
M  V30 11013 H 1032.28 -3.02277 -2.7403 0
M  V30 11014 H 1030.95 -3.73326 -1.83304 0
M  V30 11015 H 1029.53 -2.28152 -2.9496 0
M  V30 11016 N 1031.71 0.701592 -1.41122 0
M  V30 11017 C 1032.96 1.4616 -1.40155 0
M  V30 11018 C 1033.29 1.94498 -0.00861553 0
M  V30 11019 O 1032.54 1.69484 0.978452 0
M  V30 11020 C 1032.84 2.693 -2.34973 0
M  V30 11021 C 1032.51 2.39652 -3.81939 0
M  V30 11022 C 1031.17 2.31277 -4.21977 0
M  V30 11023 C 1033.52 2.15076 -4.74755 0
M  V30 11024 C 1030.85 1.96413 -5.52846 0
M  V30 11025 C 1033.2 1.81722 -6.05937 0
M  V30 11026 C 1031.87 1.71838 -6.45002 0
M  V30 11027 H 1031.14 0.534837 -0.512865 0
M  V30 11028 H 1033.78 0.802425 -1.73878 0
M  V30 11029 H 1032.09 3.40123 -1.94484 0
M  V30 11030 H 1033.79 3.27427 -2.31501 0
M  V30 11031 H 1030.38 2.47063 -3.50226 0
M  V30 11032 H 1034.56 2.20495 -4.4463 0
M  V30 11033 H 1029.82 1.87308 -5.82001 0
M  V30 11034 H 1033.99 1.61723 -6.77362 0
M  V30 11035 H 1031.62 1.44591 -7.46323 0
M  V30 11036 N 1033.19 1.2685 0.935242 0
M  V30 11037 C 1034.14 1.05586 2.02078 0
M  V30 11038 C 1035.13 -0.013699 1.60894 0
M  V30 11039 O 1036.32 0.203956 1.75821 0
M  V30 11040 C 1033.45 0.697118 3.36148 0
M  V30 11041 C 1032.53 1.80444 3.83798 0
M  V30 11042 N 1032.92 3.04283 4.04037 0
M  V30 11043 C 1031.22 1.68939 4.12766 0
M  V30 11044 C 1031.92 3.7629 4.436 0
M  V30 11045 N 1030.9 3.04011 4.50642 0
M  V30 11046 H 1034.7 1.99577 2.15746 0
M  V30 11047 H 1032.21 1.17455 1.12153 0
M  V30 11048 H 1034.21 0.525915 4.1357 0
M  V30 11049 H 1032.87 -0.235247 3.23847 0
M  V30 11050 H 1033.88 3.40125 3.90558 0
M  V30 11051 H 1030.56 0.827341 4.0922 0
M  V30 11052 H 1031.95 4.82687 4.67401 0
M  V30 11053 N 1034.67 -1.14067 1.0875 0
M  V30 11054 C 1035.6 -2.18926 0.67852 0
M  V30 11055 C 1036.62 -1.60441 -0.276163 0
M  V30 11056 O 1037.8 -1.78388 -0.0632788 0
M  V30 11057 C 1034.9 -3.38893 -0.0218852 0
M  V30 11058 C 1034.08 -4.26901 0.952582 0
M  V30 11059 C 1033.14 -5.25418 0.286859 0
M  V30 11060 O 1032.16 -5.61512 0.932354 0
M  V30 11061 N 1033.36 -5.72476 -0.961831 0
M  V30 11062 H 1036.13 -2.54629 1.58063 0
M  V30 11063 H 1033.69 -1.29321 0.974042 0
M  V30 11064 H 1035.68 -4.01864 -0.478278 0
M  V30 11065 H 1034.25 -3.01486 -0.826141 0
M  V30 11066 H 1033.47 -3.60812 1.58772 0
M  V30 11067 H 1034.76 -4.82563 1.61279 0
M  V30 11068 H 1034.16 -5.45287 -1.50594 0
M  V30 11069 H 1032.72 -6.37418 -1.36166 0
M  V30 11070 N 1036.15 -0.873678 -1.31166 0
M  V30 11071 C 1037.39 -0.487178 -1.96861 0
M  V30 11072 C 1037.73 0.95887 -1.68877 0
M  V30 11073 O 1037 1.6758 -0.987279 0
M  V30 11074 C 1037.29 -0.74925 -3.52219 0
M  V30 11075 C 1037.14 -2.2451 -3.89763 0
M  V30 11076 C 1038.46 -0.218194 -4.39559 0
M  V30 11077 H 1035.58 -0.178477 -0.715063 0
M  V30 11078 H 1038.22 -1.0956 -1.55231 0
M  V30 11079 H 1036.37 -0.231403 -3.8781 0
M  V30 11080 H 1038.04 -2.83049 -3.64254 0
M  V30 11081 H 1036.28 -2.71621 -3.38237 0
M  V30 11082 H 1036.95 -2.37911 -4.98099 0
M  V30 11083 H 1039.43 -0.661274 -4.10812 0
M  V30 11084 H 1038.31 -0.430983 -5.47205 0
M  V30 11085 H 1038.57 0.880056 -4.33252 0
M  V30 11086 N 1037.63 1.44308 -0.633487 0
M  V30 11087 C 1038.85 2.06384 -0.146063 0
M  V30 11088 C 1039.27 1.47357 1.18031 0
M  V30 11089 O 1038.63 0.597334 1.72448 0
M  V30 11090 C 1038.68 3.61489 -0.0276722 0
M  V30 11091 O 1038.4 4.18318 -1.3016 0
M  V30 11092 C 1039.9 4.40604 0.488168 0
M  V30 11093 H 1037.12 0.666122 -0.0807632 0
M  V30 11094 H 1039.66 1.85139 -0.868557 0
M  V30 11095 H 1037.82 3.81988 0.645273 0
M  V30 11096 H 1038.23 5.11783 -1.14797 0
M  V30 11097 H 1039.71 5.49545 0.520013 0
M  V30 11098 H 1040.18 4.12218 1.51568 0
M  V30 11099 H 1040.79 4.2503 -0.151608 0
M  V30 11100 N 1039.1 0.374177 1.53094 0
M  V30 11101 C 1040.35 -0.213981 2.00562 0
M  V30 11102 C 1040.67 -1.4916 1.26533 0
M  V30 11103 O 1041.87 -2.15889 1.64634 0
M  V30 11104 C 1040.33 -0.431876 3.57299 0
M  V30 11105 C 1039.94 0.831615 4.40214 0
M  V30 11106 C 1041.68 -0.977222 4.13099 0
M  V30 11107 C 1039.59 0.582831 5.88521 0
M  V30 11108 H 1038.52 -0.0837386 0.749336 0
M  V30 11109 H 1041.17 0.494245 1.76719 0
M  V30 11110 H 1039.55 -1.20158 3.7733 0
M  V30 11111 H 1040.72 1.60477 4.31953 0
M  V30 11112 H 1039.04 1.30081 3.9556 0
M  V30 11113 H 1041.64 -1.17881 5.21544 0
M  V30 11114 H 1041.98 -1.94189 3.68234 0
M  V30 11115 H 1042.51 -0.267473 3.969 0
M  V30 11116 H 1039.25 1.51807 6.37679 0
M  V30 11117 H 1038.77 -0.151666 5.99608 0
M  V30 11118 H 1040.45 0.211604 6.46654 0
M  V30 11119 N 1040.58 -1.57259 0.103575 0
M  V30 11120 C 1041.86 -1.86143 -0.600852 0
M  V30 11121 C 1042.24 -1.00198 -1.85805 0
M  V30 11122 O 1041.59 -0.0766791 -2.28371 0
M  V30 11123 C 1041.8 -3.36978 -0.908108 0
M  V30 11124 C 1043.15 -4.05228 -1.26788 0
M  V30 11125 O 1044.17 -3.41908 -0.998859 0
M  V30 11126 O 1043.03 -5.16971 -1.7721 0
M  V30 11127 H 1040.12 -0.770064 -0.301547 0
M  V30 11128 H 1042.67 -1.69147 0.136914 0
M  V30 11129 H 1041.44 -3.91296 -0.0165615 0
M  V30 11130 H 1041.06 -3.5935 -1.70156 0
M  V30 11131 N 1042.06 0.170153 -1.56679 0
M  V30 11132 C 1043.01 1.21064 -1.965 0
M  V30 11133 C 1043.98 1.43928 -0.829092 0
M  V30 11134 O 1045.16 1.56649 -1.08931 0
M  V30 11135 C 1042.3 2.54468 -2.33109 0
M  V30 11136 C 1041.42 2.38974 -3.59883 0
M  V30 11137 C 1040.55 3.65252 -3.857 0
M  V30 11138 C 1039.59 3.44696 -5.05817 0
M  V30 11139 N 1038.73 4.63047 -5.27761 0
M  V30 11140 H 1043.57 0.864055 -2.85198 0
M  V30 11141 H 1041.1 0.415243 -1.41117 0
M  V30 11142 H 1043.06 3.32222 -2.52358 0
M  V30 11143 H 1041.69 2.8712 -1.4752 0
M  V30 11144 H 1040.74 1.5239 -3.48542 0
M  V30 11145 H 1042.06 2.19731 -4.47794 0
M  V30 11146 H 1041.21 4.51441 -4.05322 0
M  V30 11147 H 1039.95 3.87475 -2.96166 0
M  V30 11148 H 1038.95 2.56893 -4.86092 0
M  V30 11149 H 1040.18 3.23894 -5.96883 0
M  V30 11150 H 1038.12 4.85487 -4.41179 0
M  V30 11151 H 1038.04 4.46722 -6.09898 0
M  V30 11152 H 1039.31 5.50516 -5.51863 0
M  V30 11153 N 1043.54 1.5137 0.438746 0
M  V30 11154 C 1044.78 1.64211 1.19006 0
M  V30 11155 C 1045.12 0.356607 1.90898 0
M  V30 11156 O 1044.39 -0.643722 1.83539 0
M  V30 11157 C 1044.68 2.8445 2.20817 0
M  V30 11158 C 1044.53 4.22972 1.53018 0
M  V30 11159 C 1045.85 3.00207 3.21813 0
M  V30 11160 H 1042.97 0.597628 0.431288 0
M  V30 11161 H 1045.61 1.8385 0.479487 0
M  V30 11162 H 1043.76 2.67836 2.81418 0
M  V30 11163 H 1045.43 4.5125 0.957654 0
M  V30 11164 H 1043.67 4.25736 0.832556 0
M  V30 11165 H 1044.34 5.03094 2.27158 0
M  V30 11166 H 1046.82 3.15522 2.71266 0
M  V30 11167 H 1045.7 3.85904 3.90345 0
M  V30 11168 H 1045.96 2.12216 3.87836 0
M  V30 11169 N 1045.02 -0.694098 1.41492 0
M  V30 11170 C 1046.24 -1.48789 1.44488 0
M  V30 11171 C 1046.67 -1.88028 0.0521588 0
M  V30 11172 O 1046.02 -1.54727 -0.944952 0
M  V30 11173 C 1046.07 -2.72586 2.3607 0
M  V30 11174 O 1045.18 -3.70128 1.81876 0
M  V30 11175 H 1044.52 -0.447758 0.490315 0
M  V30 11176 H 1047.05 -0.853036 1.85969 0
M  V30 11177 H 1047.06 -3.20877 2.51995 0
M  V30 11178 H 1045.73 -2.43363 3.37264 0
M  V30 11179 H 1044.31 -3.29069 1.75408 0
M  V30 11180 N 1046.49 -1.27344 -0.928501 0
M  V30 11181 C 1047.91 -1.12361 -1.49103 0
M  V30 11182 C 1048.26 0.291667 -1.9402 0
M  V30 11183 O 1047.38 1.18449 -1.81104 0
M  V30 11184 C 1047.98 -2.03358 -2.70981 0
M  V30 11185 C 1046.54 -1.92483 -3.23461 0
M  V30 11186 C 1045.68 -1.95961 -1.962 0
M  V30 11187 H 1048.63 -1.40249 -0.742689 0
M  V30 11188 H 1048.65 -1.58892 -3.45736 0
M  V30 11189 H 1048.17 -3.06356 -2.38259 0
M  V30 11190 H 1046.27 -0.924676 -3.60944 0
M  V30 11191 H 1046.38 -2.78682 -3.89709 0
M  V30 11192 H 1044.74 -1.40175 -2.12657 0
M  V30 11193 H 1045.53 -3.00612 -1.65793 0
M  V30 11194 N 1047.97 1.13488 -1.09353 0
M  V30 11195 C 1049.2 1.88319 -0.849681 0
M  V30 11196 C 1049.61 1.79347 0.602616 0
M  V30 11197 O 1048.95 1.15744 1.4265 0
M  V30 11198 C 1049.02 3.38698 -1.20514 0
M  V30 11199 C 1048.68 3.71452 -2.66219 0
M  V30 11200 C 1049.68 3.70755 -3.64467 0
M  V30 11201 C 1047.36 4.01132 -3.02321 0
M  V30 11202 C 1049.36 3.9928 -4.96845 0
M  V30 11203 C 1047.04 4.29318 -4.3489 0
M  V30 11204 C 1048.04 4.28376 -5.31961 0
M  V30 11205 O 1047.73 4.55872 -6.62145 0
M  V30 11206 H 1047.46 0.603053 -0.305455 0
M  V30 11207 H 1050.01 1.44592 -1.45884 0
M  V30 11208 H 1048.24 3.82925 -0.539022 0
M  V30 11209 H 1049.93 3.94852 -0.940552 0
M  V30 11210 H 1050.7 3.47901 -3.3792 0
M  V30 11211 H 1046.58 4.01013 -2.27398 0
M  V30 11212 H 1050.12 3.9846 -5.72604 0
M  V30 11213 H 1046.02 4.51644 -4.61181 0
M  V30 11214 H 1046.79 4.73544 -6.67607 0
M  V30 11215 N 1049.45 0.880621 1.30701 0
M  V30 11216 C 1050.7 0.495894 1.95922 0
M  V30 11217 C 1051.02 -0.957214 1.69889 0
M  V30 11218 O 1050.29 -1.67245 1.0201 0
M  V30 11219 H 1048.87 0.180394 0.724891 0
M  V30 11220 H 1051.53 1.12274 1.59313 0
M  V30 11221 H 1050.63 0.662508 3.04987 0
M  V30 11222 N 1050.93 -1.4397 0.641131 0
M  V30 11223 C 1052.18 -2.01946 0.149629 0
M  V30 11224 C 1052.5 -1.50496 -1.23212 0
M  V30 11225 O 1051.76 -0.683453 -1.83378 0
M  V30 11226 C 1052.06 -3.5727 0.0963368 0
M  V30 11227 C 1051.72 -4.28016 1.4182 0
M  V30 11228 C 1050.39 -4.47059 1.78021 0
M  V30 11229 C 1052.74 -4.68183 2.29028 0
M  V30 11230 C 1050.07 -5.03532 3.01119 0
M  V30 11231 C 1052.42 -5.26019 3.51406 0
M  V30 11232 C 1051.08 -5.4328 3.87818 0
M  V30 11233 H 1050.35 -0.738974 0.0547531 0
M  V30 11234 H 1053 -1.72605 0.829436 0
M  V30 11235 H 1051.3 -3.86083 -0.666879 0
M  V30 11236 H 1053 -3.99871 -0.300635 0
M  V30 11237 H 1049.59 -4.13531 1.12651 0
M  V30 11238 H 1053.78 -4.53175 2.02353 0
M  V30 11239 H 1049.03 -5.15082 3.29395 0
M  V30 11240 H 1053.21 -5.56092 4.19208 0
M  V30 11241 H 1050.83 -5.86805 4.83284 0
M  V30 11242 N 1052.41 -0.382291 -1.52893 0
M  V30 11243 C 1053.65 0.202133 -2.01489 0
M  V30 11244 C 1053.98 1.47399 -1.26901 0
M  V30 11245 O 1053.24 1.92439 -0.355771 0
M  V30 11246 C 1053.54 0.523437 -3.53546 0
M  V30 11247 C 1053.2 -0.656042 -4.46102 0
M  V30 11248 C 1051.86 -0.979633 -4.71123 0
M  V30 11249 C 1054.22 -1.44545 -5.00756 0
M  V30 11250 C 1051.54 -2.0943 -5.48047 0
M  V30 11251 C 1053.9 -2.55066 -5.78899 0
M  V30 11252 C 1052.56 -2.87942 -6.02201 0
M  V30 11253 H 1051.83 0.0739659 -0.737299 0
M  V30 11254 H 1054.48 -0.518196 -1.84356 0
M  V30 11255 H 1052.78 1.325 -3.68715 0
M  V30 11256 H 1054.48 0.988148 -3.88634 0
M  V30 11257 H 1051.07 -0.393818 -4.26787 0
M  V30 11258 H 1055.25 -1.20869 -4.81357 0
M  V30 11259 H 1050.51 -2.3528 -5.64317 0
M  V30 11260 H 1054.68 -3.1664 -6.20252 0
M  V30 11261 H 1052.31 -3.74435 -6.61591 0
M  V30 11262 N 1053.89 1.57202 -0.111913 0
M  V30 11263 C 1054.85 2.13778 0.826534 0
M  V30 11264 C 1055.85 1.07097 1.19945 0
M  V30 11265 O 1057.04 1.32906 1.12613 0
M  V30 11266 C 1054.17 2.6722 2.11675 0
M  V30 11267 H 1055.36 2.98023 0.334975 0
M  V30 11268 H 1052.92 1.55696 0.137256 0
M  V30 11269 H 1053.65 1.86542 2.65278 0
M  V30 11270 H 1053.44 3.45235 1.8589 0
M  V30 11271 H 1054.93 3.10926 2.78774 0
M  V30 11272 N 1055.36 -0.161842 1.56767 0
M  V30 11273 C 1056.31 -1.20506 1.93552 0
M  V30 11274 C 1057.3 -1.39317 0.804952 0
M  V30 11275 O 1058.49 -1.41129 1.06825 0
M  V30 11276 C 1055.62 -2.54227 2.30702 0
M  V30 11277 C 1054.7 -2.3907 3.50295 0
M  V30 11278 N 1055.1 -1.93642 4.67265 0
M  V30 11279 C 1053.39 -2.69868 3.55088 0
M  V30 11280 C 1054.09 -1.91175 5.49388 0
M  V30 11281 N 1053.07 -2.33935 4.90689 0
M  V30 11282 H 1056.87 -0.845687 2.8147 0
M  V30 11283 H 1054.39 -0.370034 1.58128 0
M  V30 11284 H 1056.38 -3.29623 2.55254 0
M  V30 11285 H 1055.04 -2.90959 1.44128 0
M  V30 11286 H 1056.05 -1.63834 4.91303 0
M  V30 11287 H 1052.73 -3.10574 2.79016 0
M  V30 11288 H 1054.12 -1.57671 6.53138 0
M  V30 11289 N 1056.84 -1.516 -0.430713 0
M  V30 11290 C 1058.12 -1.55142 -1.19123 0
M  V30 11291 C 1058.5 -0.319596 -2.08667 0
M  V30 11292 O 1057.85 0.694927 -2.17676 0
M  V30 11293 C 1058.06 -2.86891 -1.98732 0
M  V30 11294 C 1059.4 -3.39089 -2.55546 0
M  V30 11295 O 1060.43 -2.88486 -2.08936 0
M  V30 11296 O 1059.29 -4.27401 -3.40574 0
M  V30 11297 H 1056.38 -0.624019 -0.542705 0
M  V30 11298 H 1058.93 -1.63917 -0.439244 0
M  V30 11299 H 1057.7 -3.68002 -1.33005 0
M  V30 11300 H 1057.32 -2.81309 -2.80982 0
M  V30 11301 N 1058.32 0.686584 -1.41858 0
M  V30 11302 C 1059.73 1.26682 -1.37145 0
M  V30 11303 C 1060.08 1.96112 -0.058922 0
M  V30 11304 O 1059.21 1.99321 0.842629 0
M  V30 11305 C 1059.8 2.30383 -2.48413 0
M  V30 11306 C 1058.36 2.83961 -2.47069 0
M  V30 11307 C 1057.51 1.58119 -2.27802 0
M  V30 11308 H 1060.46 0.480742 -1.51243 0
M  V30 11309 H 1060.48 3.11868 -2.17987 0
M  V30 11310 H 1059.99 1.79822 -3.43927 0
M  V30 11311 H 1058.09 3.38675 -1.55338 0
M  V30 11312 H 1058.21 3.3378 -3.43697 0
M  V30 11313 H 1056.57 1.84258 -1.75844 0
M  V30 11314 H 1057.35 1.09541 -3.25355 0
M  V30 11315 N 1059.8 1.27835 0.921735 0
M  V30 11316 C 1061.04 1.14692 1.67253 0
M  V30 11317 C 1061.38 -0.305384 1.91784 0
M  V30 11318 O 1060.65 -1.22286 1.51249 0
M  V30 11319 C 1060.93 1.93743 3.03539 0
M  V30 11320 C 1060.79 3.46991 2.86212 0
M  V30 11321 C 1062.11 1.74658 4.03959 0
M  V30 11322 H 1059.23 0.418021 0.606983 0
M  V30 11323 H 1061.87 1.5706 1.06922 0
M  V30 11324 H 1060.02 1.57738 3.55037 0
M  V30 11325 H 1061.69 3.92858 2.41785 0
M  V30 11326 H 1059.93 3.73029 2.21432 0
M  V30 11327 H 1060.6 3.97551 3.82958 0
M  V30 11328 H 1063.08 2.06063 3.61493 0
M  V30 11329 H 1061.96 2.32353 4.97296 0
M  V30 11330 H 1062.22 0.696019 4.36587 0
M  V30 11331 N 1061.28 -1.12907 1.09954 0
M  V30 11332 C 1062.22 -2.20561 0.73863 0
M  V30 11333 C 1063.22 -1.67347 -0.262944 0
M  V30 11334 O 1064.42 -1.79574 -0.123834 0
M  V30 11335 H 1060.8 -0.718823 0.220901 0
M  V30 11336 H 1062.77 -2.4826 1.65559 0
M  V30 11337 C 1061.52 -3.47227 0.181239 0
M  V30 11338 H 1060.84 -3.88516 0.943144 0
M  V30 11339 H 1062.28 -4.23987 -0.0332888 0
M  V30 11340 C 1060.74 -3.18956 -1.08485 0
M  V30 11341 O 1061.27 -3.38224 -2.1672 0
M  V30 11342 N 1059.48 -2.72797 -1.00151 0
M  V30 11343 H 1059.02 -2.57317 -0.120645 0
M  V30 11344 H 1058.98 -2.54256 -1.84935 0
M  V30 11345 N 1062.75 -0.88754 -1.30232 0
M  V30 11346 C 1063.68 -0.372481 -2.3051 0
M  V30 11347 C 1064.66 0.546037 -1.61098 0
M  V30 11348 O 1065.85 0.459345 -1.88689 0
M  V30 11349 C 1062.98 0.411605 -3.44852 0
M  V30 11350 C 1061.93 -0.415383 -4.2598 0
M  V30 11351 C 1061.26 0.495463 -5.324 0
M  V30 11352 C 1062.56 -1.65886 -4.95257 0
M  V30 11353 H 1064.25 -1.21045 -2.7384 0
M  V30 11354 H 1061.8 -0.583498 -1.31648 0
M  V30 11355 H 1063.75 0.782584 -4.1407 0
M  V30 11356 H 1062.48 1.28325 -3.00334 0
M  V30 11357 H 1061.14 -0.768534 -3.58454 0
M  V30 11358 H 1060.78 1.36489 -4.84128 0
M  V30 11359 H 1060.48 -0.0540885 -5.87575 0
M  V30 11360 H 1062.01 0.862901 -6.04472 0
M  V30 11361 H 1063.42 -1.35832 -5.56976 0
M  V30 11362 H 1061.82 -2.14881 -5.60309 0
M  V30 11363 H 1062.89 -2.40181 -4.21237 0
M  V30 11364 N 1064.23 1.43628 -0.648757 0
M  V30 11365 C 1065.64 1.85142 -0.24066 0
M  V30 11366 C 1065.99 1.54304 1.21181 0
M  V30 11367 O 1065.12 0.989792 1.92437 0
M  V30 11368 C 1065.71 3.3606 -0.429999 0
M  V30 11369 C 1064.27 3.76323 -0.0762588 0
M  V30 11370 C 1063.42 2.67382 -0.734999 0
M  V30 11371 H 1066.37 1.33844 -0.852734 0
M  V30 11372 H 1066.39 3.79102 0.325836 0
M  V30 11373 H 1065.9 3.58474 -1.48721 0
M  V30 11374 H 1064.01 3.59521 0.978529 0
M  V30 11375 H 1064.12 4.76498 -0.498612 0
M  V30 11376 H 1062.48 2.54141 -0.168644 0
M  V30 11377 H 1063.27 2.92625 -1.79515 0
M  V30 11378 N 1065.71 0.390394 1.52688 0
M  V30 11379 C 1067.13 0.0404028 1.59549 0
M  V30 11380 C 1067.33 -1.44503 1.40432 0
M  V30 11381 O 1066.38 -2.20968 1.22187 0
M  V30 11382 C 1067.7 0.518561 2.96195 0
M  V30 11383 C 1069.24 0.474913 3.09376 0
M  V30 11384 C 1069.72 0.929278 4.48473 0
M  V30 11385 N 1071.21 0.885335 4.5466 0
M  V30 11386 C 1071.94 1.2083 5.60524 0
M  V30 11387 N 1071.44 1.6018 6.74028 0
M  V30 11388 N 1073.23 1.12949 5.50635 0
M  V30 11389 H 1065.38 1.35743 1.63363 0
M  V30 11390 H 1067.65 0.556453 0.767505 0
M  V30 11391 H 1067.35 1.55606 3.15404 0
M  V30 11392 H 1067.23 -0.081779 3.77111 0
M  V30 11393 H 1069.61 -0.553503 2.89863 0
M  V30 11394 H 1069.7 1.11107 2.3041 0
M  V30 11395 H 1069.34 1.95593 4.68728 0
M  V30 11396 H 1069.27 0.270121 5.25907 0
M  V30 11397 H 1071.76 0.595787 3.73174 0
M  V30 11398 H 1072.07 1.83184 7.50775 0
M  V30 11399 H 1070.42 1.64067 6.75357 0
M  V30 11400 H 1073.61 0.821074 4.60843 0
M  V30 11401 H 1073.78 1.3845 6.33037 0
M  V30 11402 N 1067.19 -1.57141 0.120249 0
M  V30 11403 C 1068.44 -1.94852 -0.536387 0
M  V30 11404 C 1068.76 -1.00452 -1.67136 0
M  V30 11405 O 1068.03 -0.061053 -1.95805 0
M  V30 11406 H 1066.61 -0.719411 -0.201138 0
M  V30 11407 H 1069.27 -1.93977 0.189482 0
M  V30 11408 H 1068.37 -2.97917 -0.930145 0
M  V30 11409 N 1068.67 0.153526 -1.5685 0
M  V30 11410 C 1069.91 0.865519 -1.82629 0
M  V30 11411 C 1070.24 1.81999 -0.700105 0
M  V30 11412 O 1069.51 1.93907 0.278744 0
M  V30 11413 H 1068.09 0.32261 -0.673745 0
M  V30 11414 H 1070.75 0.149088 -1.94329 0
M  V30 11415 H 1069.84 1.43171 -2.77324 0
M  V30 11416 N 1070.14 1.51827 0.422667 0
M  V30 11417 C 1071.56 1.57533 1.00201 0
M  V30 11418 C 1071.91 0.407623 1.91919 0
M  V30 11419 O 1071.03 -0.473763 2.1115 0
M  V30 11420 C 1071.63 2.85508 1.82403 0
M  V30 11421 C 1070.19 2.93737 2.35362 0
M  V30 11422 C 1069.33 2.52343 1.14971 0
M  V30 11423 H 1072.28 1.57391 0.20339 0
M  V30 11424 H 1072.3 2.70097 2.68007 0
M  V30 11425 H 1071.82 3.70477 1.15623 0
M  V30 11426 H 1069.92 2.13231 3.05554 0
M  V30 11427 H 1070.03 3.977 2.67155 0
M  V30 11428 H 1068.39 2.05878 1.49955 0
M  V30 11429 H 1069.18 3.39672 0.497786 0
M  V30 11430 N 1071.62 -0.679052 1.4222 0
M  V30 11431 C 1072.85 -1.47248 1.46058 0
M  V30 11432 C 1073.27 -1.87962 0.0720987 0
M  V30 11433 O 1072.63 -1.5572 -0.928488 0
M  V30 11434 C 1072.68 -2.70067 2.38948 0
M  V30 11435 O 1071.78 -3.68178 1.85791 0
M  V30 11436 H 1071.12 -0.442533 0.495036 0
M  V30 11437 H 1073.65 -0.833263 1.86863 0
M  V30 11438 H 1073.66 -3.18187 2.55385 0
M  V30 11439 H 1072.34 -2.39773 3.39826 0
M  V30 11440 H 1070.92 -3.2719 1.78889 0
M  V30 11441 N 1073.1 -1.28322 -0.914942 0
M  V30 11442 C 1074.33 -1.1837 -1.70304 0
M  V30 11443 C 1074.75 0.254291 -1.86373 0
M  V30 11444 O 1074.11 1.18398 -1.37301 0
M  V30 11445 C 1074.16 -1.88603 -3.07346 0
M  V30 11446 O 1073.26 -1.19268 -3.94777 0
M  V30 11447 H 1072.6 -0.410978 -0.52153 0
M  V30 11448 H 1075.13 -1.69622 -1.14409 0
M  V30 11449 H 1075.14 -1.96463 -3.57584 0
M  V30 11450 H 1073.82 -2.93201 -2.94967 0
M  V30 11451 H 1072.39 -1.19563 -3.53212 0
M  V30 11452 N 1074.58 1.12322 -1.10551 0
M  V30 11453 C 1075.83 1.83495 -0.846998 0
M  V30 11454 C 1076.15 1.8457 0.629205 0
M  V30 11455 O 1075.42 1.30968 1.45686 0
M  V30 11456 H 1074 0.679479 -0.310351 0
M  V30 11457 H 1076.66 1.36004 -1.39602 0
M  V30 11458 H 1075.76 2.87651 -1.21092 0
M  V30 11459 N 1076.06 0.894434 1.2976 0
M  V30 11460 C 1077 0.366586 2.2787 0
M  V30 11461 C 1077.97 -0.548425 1.56785 0
M  V30 11462 O 1079.16 -0.474804 1.84798 0
M  V30 11463 C 1076.3 -0.404531 3.42721 0
M  V30 11464 C 1075.41 0.540774 4.28602 0
M  V30 11465 C 1074.55 -0.246875 5.30626 0
M  V30 11466 C 1073.59 0.693294 6.08161 0
M  V30 11467 N 1072.72 -0.059619 7.02075 0
M  V30 11468 H 1077.56 1.20834 2.72402 0
M  V30 11469 H 1075.1 0.607205 1.33983 0
M  V30 11470 H 1077.06 -0.86762 4.08079 0
M  V30 11471 H 1075.69 -1.21078 2.99232 0
M  V30 11472 H 1074.74 1.12237 3.63465 0
M  V30 11473 H 1076.05 1.26065 4.82606 0
M  V30 11474 H 1075.21 -0.771398 6.01776 0
M  V30 11475 H 1073.94 -0.999918 4.77339 0
M  V30 11476 H 1072.95 1.22936 5.35879 0
M  V30 11477 H 1074.17 1.44558 6.63536 0
M  V30 11478 H 1072.12 -0.795026 6.51165 0
M  V30 11479 H 1072.04 0.60045 7.53612 0
M  V30 11480 H 1073.31 -0.564577 7.77453 0
M  V30 11481 N 1077.53 -1.43282 0.656365 0
M  V30 11482 C 1078.78 -2.02075 0.171293 0
M  V30 11483 C 1079.11 -1.51682 -1.21269 0
M  V30 11484 O 1078.39 -0.711243 -1.81029 0
M  V30 11485 C 1078.67 -3.59621 0.185602 0
M  V30 11486 C 1078.52 -4.20239 1.60373 0
M  V30 11487 C 1079.84 -4.37515 -0.476289 0
M  V30 11488 H 1076.96 -0.73424 0.0637185 0
M  V30 11489 H 1079.6 -1.70539 0.837648 0
M  V30 11490 H 1077.75 -3.86619 -0.381804 0
M  V30 11491 H 1079.43 -4.0426 2.22197 0
M  V30 11492 H 1077.67 -3.76769 2.15006 0
M  V30 11493 H 1078.34 -5.29333 1.56557 0
M  V30 11494 H 1080.82 -4.16099 0.00651073 0
M  V30 11495 H 1079.69 -5.47169 -0.435562 0
M  V30 11496 H 1079.95 -4.14003 -1.55093 0
M  V30 11497 N 1079.01 -0.398486 -1.52479 0
M  V30 11498 C 1079.95 0.467426 -2.24383 0
M  V30 11499 C 1080.96 1.01908 -1.26959 0
M  V30 11500 O 1082.15 0.919843 -1.52974 0
M  V30 11501 C 1079.25 1.66146 -2.95379 0
M  V30 11502 C 1078.42 1.23557 -4.19586 0
M  V30 11503 C 1077.48 2.29532 -4.73499 0
M  V30 11504 O 1076.51 1.90561 -5.36354 0
M  V30 11505 N 1077.71 3.61564 -4.5415 0
M  V30 11506 H 1080.47 -0.148653 -2.99331 0
M  V30 11507 H 1078.03 -0.225313 -1.60325 0
M  V30 11508 H 1080.03 2.36585 -3.28344 0
M  V30 11509 H 1078.6 2.18369 -2.23682 0
M  V30 11510 H 1077.82 0.359715 -3.92555 0
M  V30 11511 H 1079.1 0.927812 -5.00269 0
M  V30 11512 H 1078.5 3.95983 -4.03998 0
M  V30 11513 H 1077.06 4.2801 -4.9158 0
M  V30 11514 N 1080.49 1.57075 -0.12858 0
M  V30 11515 C 1081.45 2.14643 0.803813 0
M  V30 11516 C 1082.45 1.08363 1.18803 0
M  V30 11517 O 1083.64 1.34093 1.11197 0
M  V30 11518 C 1080.78 2.6945 2.08829 0
M  V30 11519 H 1081.97 2.98362 0.303347 0
M  V30 11520 H 1079.52 1.55833 0.120735 0
M  V30 11521 H 1080.26 1.89345 2.63285 0
M  V30 11522 H 1080.04 3.47187 1.82218 0
M  V30 11523 H 1081.53 3.13865 2.7546 0
M  V30 11524 N 1081.97 -0.145205 1.5693 0
M  V30 11525 C 1083.2 -0.872398 1.87608 0
M  V30 11526 C 1083.61 -1.74657 0.716975 0
M  V30 11527 O 1082.97 -1.79792 -0.3132 0
M  V30 11528 C 1083.02 -1.72762 3.17546 0
M  V30 11529 O 1082.74 -0.888681 4.28992 0
M  V30 11530 C 1084.24 -2.56224 3.61751 0
M  V30 11531 H 1081.46 -0.252166 0.621815 0
M  V30 11532 H 1084.01 -0.137456 2.04038 0
M  V30 11533 H 1082.16 -2.41561 3.02865 0
M  V30 11534 H 1082.58 -1.47601 5.03303 0
M  V30 11535 H 1084.05 -3.11804 4.55502 0
M  V30 11536 H 1084.53 -3.32347 2.87127 0
M  V30 11537 H 1085.13 -1.92714 3.79133 0
M  V30 11538 N 1083.45 -1.52049 -0.414609 0
M  V30 11539 C 1084.86 -1.58062 -0.993638 0
M  V30 11540 C 1085.21 -0.417795 -1.917 0
M  V30 11541 O 1084.33 0.462558 -2.11399 0
M  V30 11542 C 1084.93 -2.86471 -1.80886 0
M  V30 11543 C 1083.49 -2.94981 -2.33801 0
M  V30 11544 C 1082.64 -2.52949 -1.13631 0
M  V30 11545 H 1085.59 -1.57497 -0.19504 0
M  V30 11546 H 1085.61 -2.71515 -2.66571 0
M  V30 11547 H 1085.12 -3.71085 -1.13657 0
M  V30 11548 H 1083.22 -2.14849 -3.04419 0
M  V30 11549 H 1083.33 -3.99111 -2.65042 0
M  V30 11550 H 1081.7 -2.0667 -1.48861 0
M  V30 11551 H 1082.48 -3.39931 -0.479765 0
M  V30 11552 N 1084.93 0.6715 -1.42579 0
M  V30 11553 C 1086.34 1.2522 -1.38481 0
M  V30 11554 C 1086.69 1.96038 -0.079719 0
M  V30 11555 O 1085.81 2.00203 0.821441 0
M  V30 11556 C 1086.41 2.27736 -2.50842 0
M  V30 11557 C 1084.97 2.81325 -2.50067 0
M  V30 11558 C 1084.11 1.55694 -2.29466 0
M  V30 11559 H 1087.06 0.464673 -1.51745 0
M  V30 11560 H 1087.09 3.09539 -2.21283 0
M  V30 11561 H 1086.6 1.76164 -3.45815 0
M  V30 11562 H 1084.7 3.37008 -1.58922 0
M  V30 11563 H 1084.81 3.30116 -3.47218 0
M  V30 11564 H 1083.18 1.82383 -1.77788 0
M  V30 11565 H 1083.96 1.06084 -3.26498 0
M  V30 11566 N 1086.4 1.28806 0.908124 0
M  V30 11567 C 1087.63 1.19271 1.69674 0
M  V30 11568 C 1088.05 -0.244403 1.86505 0
M  V30 11569 O 1087.41 -1.17668 1.37927 0
M  V30 11570 C 1087.46 1.9023 3.06341 0
M  V30 11571 O 1086.56 1.2136 3.94139 0
M  V30 11572 H 1085.9 0.413738 0.519343 0
M  V30 11573 H 1088.43 1.70227 1.13508 0
M  V30 11574 H 1088.44 1.98356 3.56537 0
M  V30 11575 H 1087.12 2.94762 2.93408 0
M  V30 11576 H 1085.7 1.21435 3.52573 0
M  V30 11577 N 1087.88 -1.11734 1.11145 0
M  V30 11578 C 1089.11 -1.87755 0.881062 0
M  V30 11579 C 1089.53 -1.79461 -0.563496 0
M  V30 11580 O 1088.89 -1.15481 -1.39763 0
M  V30 11581 C 1088.94 -3.34641 1.34342 0
M  V30 11582 O 1088.04 -4.09195 0.513157 0
M  V30 11583 H 1087.38 -0.583111 0.317613 0
M  V30 11584 H 1089.91 -1.41256 1.48013 0
M  V30 11585 H 1089.92 -3.85486 1.33658 0
M  V30 11586 H 1088.6 -3.39994 2.39534 0
M  V30 11587 H 1087.17 -3.68269 0.585833 0
M  V30 11588 N 1089.36 -0.901303 -1.29284 0
M  V30 11589 C 1090.32 -0.385081 -2.25942 0
M  V30 11590 C 1091.32 0.481626 -1.53418 0
M  V30 11591 O 1092.51 0.286451 -1.71829 0
M  V30 11592 C 1089.64 0.449319 -3.37926 0
M  V30 11593 H 1090.84 -1.23877 -2.7312 0
M  V30 11594 H 1088.39 -0.679586 -1.40753 0
M  V30 11595 H 1089.13 1.32292 -2.9609 0
M  V30 11596 H 1088.91 -0.171731 -3.91724 0
M  V30 11597 H 1090.4 0.801746 -4.09831 0
M  V30 11598 N 1090.84 1.42931 -0.663954 0
M  V30 11599 C 1092.07 2.06028 -0.189808 0
M  V30 11600 C 1092.48 1.49827 1.14879 0
M  V30 11601 O 1091.84 0.633778 1.71142 0
M  V30 11602 C 1091.89 3.61349 -0.104343 0
M  V30 11603 O 1091.61 4.15463 -1.39004 0
M  V30 11604 C 1093.11 4.4154 0.394599 0
M  V30 11605 H 1090.33 0.664259 -0.0948744 0
M  V30 11606 H 1092.87 1.83255 -0.907632 0
M  V30 11607 H 1091.03 3.83271 0.564103 0
M  V30 11608 H 1091.44 5.09233 -1.25626 0
M  V30 11609 H 1092.92 5.50525 0.403329 0
M  V30 11610 H 1093.39 4.1534 1.4279 0
M  V30 11611 H 1094 4.24612 -0.241729 0
M  V30 11612 N 1092.32 0.406567 1.52266 0
M  V30 11613 C 1093.54 -0.169624 2.06204 0
M  V30 11614 C 1093.96 -1.39076 1.27684 0
M  V30 11615 O 1093.32 -1.79528 0.328023 0
M  V30 11616 C 1093.37 -0.522611 3.57702 0
M  V30 11617 O 1093.09 0.650028 4.33251 0
M  V30 11618 C 1094.59 -1.15281 4.28048 0
M  V30 11619 H 1091.81 -0.0215191 0.670655 0
M  V30 11620 H 1094.35 0.576781 1.96198 0
M  V30 11621 H 1092.51 -1.21891 3.67725 0
M  V30 11622 H 1092.92 0.355989 5.23291 0
M  V30 11623 H 1094.4 -1.35002 5.35237 0
M  V30 11624 H 1094.87 -2.12517 3.84361 0
M  V30 11625 H 1095.48 -0.496786 4.22389 0
M  V30 11626 N 1093.79 -1.57004 0.136909 0
M  V30 11627 C 1095.02 -1.99866 -0.523177 0
M  V30 11628 C 1095.43 -1.01584 -1.59616 0
M  V30 11629 O 1094.78 -0.00326426 -1.837 0
M  V30 11630 C 1094.84 -3.39157 -1.19217 0
M  V30 11631 C 1094.5 -4.56231 -0.265 0
M  V30 11632 C 1095.5 -5.17457 0.503412 0
M  V30 11633 C 1093.18 -5.02009 -0.170846 0
M  V30 11634 C 1095.18 -6.22863 1.35353 0
M  V30 11635 C 1092.86 -6.07273 0.682884 0
M  V30 11636 C 1093.86 -6.67568 1.44369 0
M  V30 11637 O 1093.55 -7.70795 2.28321 0
M  V30 11638 H 1093.28 -0.661005 -0.141593 0
M  V30 11639 H 1095.84 -2.04159 0.225445 0
M  V30 11640 H 1094.07 -3.31672 -1.98823 0
M  V30 11641 H 1095.76 -3.66191 -1.75096 0
M  V30 11642 H 1096.52 -4.82994 0.440648 0
M  V30 11643 H 1092.4 -4.54813 -0.752744 0
M  V30 11644 H 1095.94 -6.69855 1.94783 0
M  V30 11645 H 1091.84 -6.41163 0.746978 0
M  V30 11646 H 1092.61 -7.87971 2.21458 0
M  V30 11647 N 1095.27 0.136881 -1.57004 0
M  V30 11648 C 1096.52 0.849031 -1.84172 0
M  V30 11649 C 1096.85 1.80359 -0.720027 0
M  V30 11650 O 1096.13 1.92538 0.275584 0
M  V30 11651 C 1096.41 1.61465 -3.21871 0
M  V30 11652 C 1096.26 0.680902 -4.44616 0
M  V30 11653 C 1097.58 2.57488 -3.56914 0
M  V30 11654 H 1094.7 0.307209 -0.669919 0
M  V30 11655 H 1097.34 0.113862 -1.89659 0
M  V30 11656 H 1095.49 2.24137 -3.17325 0
M  V30 11657 H 1097.16 0.0644094 -4.61255 0
M  V30 11658 H 1095.41 -0.00883629 -4.33799 0
M  V30 11659 H 1096.08 1.25286 -5.37594 0
M  V30 11660 H 1098.55 2.0493 -3.62136 0
M  V30 11661 H 1097.43 3.08101 -4.54274 0
M  V30 11662 H 1097.69 3.39321 -2.83397 0
M  V30 11663 N 1096.75 1.52266 0.40654 0
M  V30 11664 C 1097.66 1.78688 1.52012 0
M  V30 11665 C 1098.68 0.6726 1.60475 0
M  V30 11666 O 1099.85 0.95829 1.77141 0
M  V30 11667 C 1096.92 1.93434 2.87722 0
M  V30 11668 C 1095.98 3.17341 2.89125 0
M  V30 11669 C 1095.21 3.31374 4.18362 0
M  V30 11670 O 1095.43 2.50613 5.12396 0
M  V30 11671 O 1094.37 4.24539 4.26674 0
M  V30 11672 H 1098.19 2.73213 1.3262 0
M  V30 11673 H 1095.78 1.37142 0.592653 0
M  V30 11674 H 1097.66 2.04941 3.68208 0
M  V30 11675 H 1096.34 1.02099 3.07177 0
M  V30 11676 H 1095.24 3.1129 2.07483 0
M  V30 11677 H 1096.58 4.08466 2.7462 0
M  V30 11678 N 1098.23 -0.663929 1.42933 0
M  V30 11679 C 1099.64 -0.978346 1.26097 0
M  V30 11680 C 1099.84 -2.00756 0.172968 0
M  V30 11681 O 1098.9 -2.48418 -0.452184 0
M  V30 11682 C 1100.21 -1.4728 2.62162 0
M  V30 11683 C 1101.76 -1.59001 2.69606 0
M  V30 11684 C 1102.24 -2.1184 4.06064 0
M  V30 11685 N 1103.73 -2.19158 4.08074 0
M  V30 11686 C 1104.46 -2.61141 5.10483 0
M  V30 11687 N 1103.96 -3.02498 6.23271 0
M  V30 11688 N 1105.75 -2.60986 4.97838 0
M  V30 11689 H 1097.9 0.0173096 2.12393 0
M  V30 11690 H 1100.17 -0.0548116 0.946414 0
M  V30 11691 H 1099.87 -0.791008 3.42689 0
M  V30 11692 H 1099.75 -2.4497 2.86827 0
M  V30 11693 H 1102.13 -2.26284 1.89418 0
M  V30 11694 H 1102.21 -0.597728 2.48718 0
M  V30 11695 H 1101.86 -1.45162 4.86714 0
M  V30 11696 H 1101.79 -3.1188 4.2431 0
M  V30 11697 H 1104.28 -1.90013 3.26655 0
M  V30 11698 H 1104.59 -3.33251 6.97254 0
M  V30 11699 H 1102.94 -3.00328 6.2676 0
M  V30 11700 H 1106.13 -2.28046 4.08794 0
M  V30 11701 H 1106.3 -2.93384 5.7778 0
M  V30 11702 N 1099.71 -1.29285 -0.901281 0
M  V30 11703 C 1101.12 -1.15499 -1.46686 0
M  V30 11704 C 1101.47 0.250446 -1.94595 0
M  V30 11705 O 1100.59 1.14581 -1.83576 0
M  V30 11706 C 1101.19 -2.0906 -2.66607 0
M  V30 11707 C 1099.75 -1.99301 -3.19306 0
M  V30 11708 C 1098.89 -2.00079 -1.91999 0
M  V30 11709 H 1101.85 -1.41793 -0.712773 0
M  V30 11710 H 1101.87 -1.6619 -3.42288 0
M  V30 11711 H 1101.38 -3.11341 -2.31707 0
M  V30 11712 H 1099.48 -1.00103 -3.58901 0
M  V30 11713 H 1099.59 -2.86885 -3.8371 0
M  V30 11714 H 1097.96 -1.44655 -2.09636 0
M  V30 11715 H 1098.74 -3.04061 -1.59379 0
M  V30 11716 N 1101.18 1.11143 -1.11736 0
M  V30 11717 C 1102.41 1.86745 -0.890727 0
M  V30 11718 C 1102.83 1.80315 0.55964 0
M  V30 11719 O 1102.18 1.18663 1.38656 0
M  V30 11720 C 1102.24 3.35436 -1.34779 0
M  V30 11721 O 1101.96 3.41738 -2.74129 0
M  V30 11722 C 1103.46 4.27935 -1.15702 0
M  V30 11723 H 1100.68 0.59044 -0.318781 0
M  V30 11724 H 1103.22 1.40549 -1.48547 0
M  V30 11725 H 1101.38 3.79125 -0.796425 0
M  V30 11726 H 1101.79 4.34347 -2.94012 0
M  V30 11727 H 1103.26 5.30494 -1.52579 0
M  V30 11728 H 1103.74 4.39093 -0.0968735 0
M  V30 11729 H 1104.35 3.90042 -1.69551 0
M  V30 11730 N 1102.66 0.908147 1.28804 0
M  V30 11731 C 1103.91 0.539201 1.95501 0
M  V30 11732 C 1104.24 -0.913759 1.7136 0
M  V30 11733 O 1103.52 -1.64904 1.03136 0
M  V30 11734 C 1103.8 0.842372 3.50109 0
M  V30 11735 C 1103.65 2.34765 3.83673 0
M  V30 11736 C 1104.97 0.334658 4.38826 0
M  V30 11737 H 1102.09 0.197373 0.71008 0
M  V30 11738 H 1104.73 1.13637 1.52272 0
M  V30 11739 H 1102.88 0.334143 3.8706 0
M  V30 11740 H 1104.55 2.92607 3.56621 0
M  V30 11741 H 1102.8 2.80494 3.30916 0
M  V30 11742 H 1103.47 2.51034 4.91616 0
M  V30 11743 H 1105.94 0.769961 4.08914 0
M  V30 11744 H 1104.82 0.575914 5.4587 0
M  V30 11745 H 1105.08 -0.764878 4.35433 0
M  V30 11746 N 1104.14 -1.42577 0.671525 0
M  V30 11747 C 1105.07 -2.33499 0.00506984 0
M  V30 11748 C 1106.05 -1.50497 -0.792763 0
M  V30 11749 O 1107.24 -1.79109 -0.750574 0
M  V30 11750 C 1104.37 -3.34077 -0.949194 0
M  V30 11751 C 1103.32 -4.27208 -0.260187 0
M  V30 11752 C 1102.65 -5.17968 -1.32716 0
M  V30 11753 C 1103.95 -5.15192 0.858772 0
M  V30 11754 H 1105.64 -2.89477 0.764407 0
M  V30 11755 H 1103.19 -1.39191 0.369043 0
M  V30 11756 H 1105.14 -3.96594 -1.42448 0
M  V30 11757 H 1103.86 -2.76396 -1.73991 0
M  V30 11758 H 1102.52 -3.66082 0.194834 0
M  V30 11759 H 1102.17 -4.56615 -2.10979 0
M  V30 11760 H 1101.87 -5.81104 -0.871293 0
M  V30 11761 H 1103.39 -5.83359 -1.80345 0
M  V30 11762 H 1104.81 -5.71412 0.464844 0
M  V30 11763 H 1103.21 -5.87144 1.24023 0
M  V30 11764 H 1104.28 -4.53787 1.70895 0
M  V30 11765 N 1105.62 -0.414636 -1.52048 0
M  V30 11766 C 1107.03 0.0537107 -1.86623 0
M  V30 11767 C 1107.38 1.43955 -1.3331 0
M  V30 11768 O 1106.51 2.05616 -0.674606 0
M  V30 11769 C 1107.1 0.104241 -3.3864 0
M  V30 11770 C 1105.66 0.516936 -3.72833 0
M  V30 11771 C 1104.81 -0.305042 -2.75617 0
M  V30 11772 H 1107.76 -0.631469 -1.45596 0
M  V30 11773 H 1107.78 0.918395 -3.6925 0
M  V30 11774 H 1107.29 -0.904523 -3.77412 0
M  V30 11775 H 1105.39 1.53214 -3.39641 0
M  V30 11776 H 1105.5 0.2575 -4.78408 0
M  V30 11777 H 1103.87 0.233416 -2.53628 0
M  V30 11778 H 1104.65 -1.31226 -3.1723 0
M  V30 11779 N 1107.1 1.56929 -0.145233 0
M  V30 11780 C 1108.35 1.95243 0.506273 0
M  V30 11781 C 1108.66 1.0325 1.66129 0
M  V30 11782 O 1109.86 1.31135 2.37731 0
M  V30 11783 C 1108.32 3.47079 0.952042 0
M  V30 11784 C 1107.93 4.47654 -0.175947 0
M  V30 11785 C 1109.67 3.94263 1.57344 0
M  V30 11786 C 1107.58 5.90698 0.287993 0
M  V30 11787 H 1106.51 0.728906 0.192903 0
M  V30 11788 H 1109.16 1.82062 -0.229295 0
M  V30 11789 H 1107.54 3.55587 1.74282 0
M  V30 11790 H 1108.72 4.50841 -0.952848 0
M  V30 11791 H 1107.03 4.10377 -0.70564 0
M  V30 11792 H 1109.63 4.9857 1.93214 0
M  V30 11793 H 1109.97 3.35714 2.46174 0
M  V30 11794 H 1110.5 3.88665 0.847593 0
M  V30 11795 H 1107.24 6.53061 -0.564889 0
M  V30 11796 H 1106.76 5.90876 1.03081 0
M  V30 11797 H 1108.44 6.42747 0.740586 0
M  V30 11798 N 1108.58 -0.128553 1.57075 0
M  V30 11799 C 1109.51 -1.15953 2.02675 0
M  V30 11800 C 1110.49 -1.43743 0.909501 0
M  V30 11801 O 1111.67 -1.54348 1.17857 0
M  V30 11802 C 1108.8 -2.48813 2.423 0
M  V30 11803 C 1107.76 -2.35506 3.57381 0
M  V30 11804 C 1107.08 -3.73243 3.82875 0
M  V30 11805 C 1108.38 -1.82359 4.89431 0
M  V30 11806 H 1110.08 -0.780283 2.89054 0
M  V30 11807 H 1107.62 -0.373896 1.39061 0
M  V30 11808 H 1109.57 -3.21179 2.72804 0
M  V30 11809 H 1108.3 -2.88609 1.52881 0
M  V30 11810 H 1106.96 -1.6559 3.27071 0
M  V30 11811 H 1106.61 -4.10507 2.90677 0
M  V30 11812 H 1106.31 -3.65195 4.60333 0
M  V30 11813 H 1107.83 -4.47128 4.15823 0
M  V30 11814 H 1109.24 -2.44533 5.18533 0
M  V30 11815 H 1107.64 -1.85156 5.70822 0
M  V30 11816 H 1108.71 -0.780478 4.78578 0
M  V30 11817 N 1110.05 -1.5248 -0.398459 0
M  V30 11818 C 1111.28 -1.70925 -1.16586 0
M  V30 11819 C 1111.7 -0.42342 -1.83991 0
M  V30 11820 O 1111.05 0.601395 -1.72306 0
M  V30 11821 C 1111.1 -2.85226 -2.22099 0
M  V30 11822 O 1110.83 -4.08831 -1.57444 0
M  V30 11823 C 1112.33 -3.15272 -3.11639 0
M  V30 11824 H 1109.55 -0.572533 -0.349924 0
M  V30 11825 H 1112.09 -1.99087 -0.467416 0
M  V30 11826 H 1110.25 -2.59553 -2.87595 0
M  V30 11827 H 1110.66 -4.72603 -2.2748 0
M  V30 11828 H 1112.13 -3.98737 -3.81724 0
M  V30 11829 H 1112.61 -2.29262 -3.74614 0
M  V30 11830 H 1113.22 -3.42749 -2.518 0
M  V30 11831 N 1111.53 0.65634 -1.43283 0
M  V30 11832 C 1112.46 1.78101 -1.51004 0
M  V30 11833 C 1113.44 1.66138 -0.36498 0
M  V30 11834 O 1114.63 1.85281 -0.581778 0
M  V30 11835 C 1111.76 3.16511 -1.42961 0
M  V30 11836 C 1110.71 3.43233 -2.55685 0
M  V30 11837 C 1110.04 4.81411 -2.32696 0
M  V30 11838 C 1111.34 3.38288 -3.97943 0
M  V30 11839 H 1113.03 1.71896 -2.45137 0
M  V30 11840 H 1110.58 0.825575 -1.17984 0
M  V30 11841 H 1112.53 3.94941 -1.46968 0
M  V30 11842 H 1111.25 3.23439 -0.45332 0
M  V30 11843 H 1109.91 2.67173 -2.51026 0
M  V30 11844 H 1109.56 4.85011 -1.33317 0
M  V30 11845 H 1109.26 5.00251 -3.08257 0
M  V30 11846 H 1110.79 5.62102 -2.38481 0
M  V30 11847 H 1112.2 4.06659 -4.04106 0
M  V30 11848 H 1110.6 3.68664 -4.73505 0
M  V30 11849 H 1111.67 2.36525 -4.23301 0
M  V30 11850 N 1113.01 1.29761 0.894412 0
M  V30 11851 C 1113.94 1.17902 2.01547 0
M  V30 11852 C 1114.92 0.0719402 1.69948 0
M  V30 11853 O 1116.11 0.252338 1.92554 0
M  V30 11854 C 1113.24 0.860262 3.36477 0
M  V30 11855 C 1112.19 1.92424 3.82305 0
M  V30 11856 C 1111.52 1.45868 5.14419 0
M  V30 11857 C 1112.82 3.33391 4.02054 0
M  V30 11858 H 1114.51 2.11688 2.11727 0
M  V30 11859 H 1112.06 1.01916 1.01731 0
M  V30 11860 H 1114.01 0.763987 4.14417 0
M  V30 11861 H 1112.73 -0.113289 3.26403 0
M  V30 11862 H 1111.39 2.00999 3.06586 0
M  V30 11863 H 1111.04 0.473654 5.00765 0
M  V30 11864 H 1110.74 2.17028 5.46052 0
M  V30 11865 H 1112.26 1.37601 5.94894 0
M  V30 11866 H 1113.68 3.27628 4.7046 0
M  V30 11867 H 1112.07 4.02555 4.4505 0
M  V30 11868 H 1113.14 3.75978 3.06216 0
M  V30 11869 N 1114.49 -1.10549 1.12324 0
M  V30 11870 C 1115.76 -1.78968 0.789287 0
M  V30 11871 C 1116.14 -1.984 -0.721156 0
M  V30 11872 O 1115.49 -1.5761 -1.65443 0
M  V30 11873 C 1115.7 -3.12044 1.563 0
M  V30 11874 C 1117.05 -3.86939 1.74825 0
M  V30 11875 O 1118.07 -3.21761 1.52802 0
M  V30 11876 O 1116.93 -5.0392 2.11488 0
M  V30 11877 H 1114.03 -0.775617 0.286962 0
M  V30 11878 H 1116.57 -1.17209 1.2272 0
M  V30 11879 H 1115.35 -2.93313 2.59005 0
M  V30 11880 H 1114.97 -3.81521 1.11926 0
M  V30 11881 N 1115.97 -0.914965 -1.28321 0
M  V30 11882 C 1117.19 -0.564023 -1.99583 0
M  V30 11883 C 1117.62 0.847821 -1.6791 0
M  V30 11884 O 1116.97 1.56682 -0.912171 0
M  V30 11885 C 1117.02 -0.781368 -3.52033 0
M  V30 11886 O 1116.13 0.159072 -4.12093 0
M  V30 11887 H 1115.47 -0.218565 -0.626997 0
M  V30 11888 H 1118 -1.23074 -1.63444 0
M  V30 11889 H 1118.01 -0.691946 -4.0209 0
M  V30 11890 H 1116.68 -1.81059 -3.7442 0
M  V30 11891 H 1115.26 0.0208145 -3.72894 0
M  V30 11892 N 1117.44 1.42219 -0.679077 0
M  V30 11893 C 1118.86 1.55737 -0.349034 0
M  V30 11894 C 1119.06 1.65789 1.14527 0
M  V30 11895 O 1118.12 1.62717 1.93079 0
M  V30 11896 C 1119.43 2.80516 -1.0831 0
M  V30 11897 C 1120.98 2.94294 -1.06584 0
M  V30 11898 C 1121.45 4.2194 -1.78132 0
M  V30 11899 N 1122.94 4.28861 -1.75021 0
M  V30 11900 C 1123.68 5.26453 -2.27234 0
M  V30 11901 N 1123.17 6.30171 -2.87847 0
M  V30 11902 N 1124.97 5.1828 -2.17584 0
M  V30 11903 H 1117.12 1.33939 -1.64846 0
M  V30 11904 H 1119.38 0.645029 -0.694725 0
M  V30 11905 H 1119.09 2.79241 -2.13816 0
M  V30 11906 H 1118.96 3.71539 -0.651069 0
M  V30 11907 H 1121.35 2.95094 -0.0191061 0
M  V30 11908 H 1121.43 2.04491 -1.53679 0
M  V30 11909 H 1121.07 4.21901 -2.82776 0
M  V30 11910 H 1121 5.10685 -1.28483 0
M  V30 11911 H 1123.49 3.54537 -1.30814 0
M  V30 11912 H 1123.81 7.01 -3.25298 0
M  V30 11913 H 1122.15 6.30721 -2.91918 0
M  V30 11914 H 1125.34 4.36172 -1.69916 0
M  V30 11915 H 1125.52 5.94172 -2.58581 0
M  V30 11916 N 1118.92 0.422693 1.51826 0
M  V30 11917 C 1120.17 -0.148861 2.02253 0
M  V30 11918 C 1120.5 -1.43629 1.30707 0
M  V30 11919 O 1119.78 -1.89967 0.417482 0
M  V30 11920 C 1120.06 -0.382672 3.58061 0
M  V30 11921 C 1119.91 0.922386 4.40241 0
M  V30 11922 C 1121.23 -1.1589 4.24567 0
M  V30 11923 H 1118.35 -0.0526279 0.735119 0
M  V30 11924 H 1120.99 0.558821 1.81596 0
M  V30 11925 H 1119.14 -0.985495 3.75793 0
M  V30 11926 H 1120.81 1.55806 4.34191 0
M  V30 11927 H 1119.06 1.53032 4.05911 0
M  V30 11928 H 1119.73 0.713012 5.47376 0
M  V30 11929 H 1122.2 -0.648415 4.11017 0
M  V30 11930 H 1121.08 -1.29125 5.33496 0
M  V30 11931 H 1121.34 -2.18315 3.84436 0
M  V30 11932 N 1120.4 -1.5685 0.153553 0
M  V30 11933 C 1121.62 -2.01135 -0.505904 0
M  V30 11934 C 1122.05 -1.03301 -1.57196 0
M  V30 11935 O 1121.41 -0.00976022 -1.81297 0
M  V30 11936 C 1121.46 -3.44129 -1.0774 0
M  V30 11937 O 1120.56 -3.49318 -2.19205 0
M  V30 11938 H 1119.9 -0.652496 -0.123062 0
M  V30 11939 H 1122.43 -2.03039 0.252216 0
M  V30 11940 H 1122.44 -3.83066 -1.40444 0
M  V30 11941 H 1121.12 -4.1484 -0.296754 0
M  V30 11942 H 1119.69 -3.22227 -1.8768 0
M  V30 11943 N 1121.88 0.120221 -1.57141 0
M  V30 11944 C 1123.12 0.834128 -1.86606 0
M  V30 11945 C 1123.48 1.77109 -0.741383 0
M  V30 11946 O 1124.68 2.52647 -0.917769 0
M  V30 11947 C 1122.95 1.56536 -3.21296 0
M  V30 11948 S 1124.51 2.32101 -3.7239 0
M  V30 11949 H 1121.33 0.278419 -0.65422 0
M  V30 11950 H 1123.93 0.0925474 -1.95281 0
M  V30 11951 H 1122.64 0.868987 -4.01094 0
M  V30 11952 H 1122.17 2.34734 -3.15696 0
M  V30 11953 H 1124.18 3.57799 -3.43794 0
M  V30 11954 N 1123.36 1.52689 0.390367 0
M  V30 11955 C 1124.31 1.73751 1.4763 0
M  V30 11956 C 1125.29 0.591572 1.4963 0
M  V30 11957 O 1126.48 0.849354 1.5529 0
M  V30 11958 C 1123.61 1.90855 2.85358 0
M  V30 11959 C 1122.7 3.11377 2.87933 0
M  V30 11960 N 1123.09 4.33751 2.6018 0
M  V30 11961 C 1121.39 3.11594 3.19101 0
M  V30 11962 C 1122.09 5.15346 2.69803 0
M  V30 11963 N 1121.06 4.51002 3.03476 0
M  V30 11964 H 1124.87 2.65994 1.24997 0
M  V30 11965 H 1122.38 1.50977 0.598301 0
M  V30 11966 H 1124.38 2.04065 3.63542 0
M  V30 11967 H 1123.04 0.998241 3.08974 0
M  V30 11968 H 1124.05 4.61907 2.34227 0
M  V30 11969 H 1120.72 2.30368 3.48191 0
M  V30 11970 H 1122.11 6.22892 2.51902 0
M  V30 11971 N 1124.83 -0.648732 1.43629 0
M  V30 11972 C 1126.06 -1.44117 1.49148 0
M  V30 11973 C 1126.48 -1.87767 0.111952 0
M  V30 11974 O 1125.84 -1.57655 -0.895249 0
M  V30 11975 C 1125.89 -2.64938 2.44623 0
M  V30 11976 O 1124.99 -3.64155 1.93559 0
M  V30 11977 H 1124.34 -0.431933 0.504312 0
M  V30 11978 H 1126.87 -0.793439 1.88589 0
M  V30 11979 H 1126.88 -3.12698 2.62076 0
M  V30 11980 H 1125.55 -2.3251 3.44836 0
M  V30 11981 H 1124.13 -3.23322 1.85789 0
M  V30 11982 N 1126.31 -1.30234 -0.887518 0
M  V30 11983 C 1127.24 -1.12212 -1.99853 0
M  V30 11984 C 1128.26 -0.0660929 -1.62666 0
M  V30 11985 O 1129.45 -0.311853 -1.75755 0
M  V30 11986 C 1126.55 -0.688591 -3.31831 0
M  V30 11987 C 1125.72 -1.82581 -3.97471 0
M  V30 11988 C 1124.78 -1.38126 -5.07748 0
M  V30 11989 O 1123.8 -2.08805 -5.29518 0
M  V30 11990 N 1125.01 -0.258868 -5.79923 0
M  V30 11991 H 1127.77 -2.07901 -2.15864 0
M  V30 11992 H 1125.33 -1.22336 -1.06045 0
M  V30 11993 H 1127.32 -0.374252 -4.02966 0
M  V30 11994 H 1125.89 0.176185 -3.12103 0
M  V30 11995 H 1125.11 -2.3084 -3.19541 0
M  V30 11996 H 1126.4 -2.58798 -4.38065 0
M  V30 11997 H 1125.8 0.330131 -5.64736 0
M  V30 11998 H 1124.36 -0.00396813 -6.518 0
M  V30 11999 N 1127.79 1.09952 -1.12909 0
M  V30 12000 C 1128.75 2.14615 -0.804548 0
M  V30 12001 C 1129.75 1.5975 0.18345 0
M  V30 12002 O 1130.94 1.74147 -0.0429623 0
M  V30 12003 C 1128.08 3.40333 -0.196471 0
M  V30 12004 H 1129.27 2.44835 -1.73193 0
M  V30 12005 H 1126.82 1.25399 -0.932997 0
M  V30 12006 H 1127.56 3.15735 0.740388 0
M  V30 12007 H 1127.34 3.81444 -0.907886 0
M  V30 12008 H 1128.83 4.17598 0.0139264 0
M  V30 12009 N 1129.27 0.921757 1.27833 0
M  V30 12010 C 1130.55 0.477706 1.89677 0
M  V30 12011 C 1130.93 -1.04392 1.83481 0
M  V30 12012 O 1130.27 -1.89549 1.27606 0
M  V30 12013 C 1130.48 1.01709 3.33851 0
M  V30 12014 C 1131.83 1.074 4.10792 0
M  V30 12015 O 1132.86 0.966295 3.42843 0
M  V30 12016 O 1131.71 1.23909 5.32268 0
M  V30 12017 H 1128.81 0.15271 0.812778 0
M  V30 12018 H 1131.35 1.01306 1.36144 0
M  V30 12019 H 1130.13 2.061 3.32623 0
M  V30 12020 H 1129.75 0.463031 3.94895 0
M  V30 12021 N 1130.75 -1.41857 0.686609 0
M  V30 12022 C 1131.68 -2.33481 0.0298353 0
M  V30 12023 C 1132.66 -1.51329 -0.776756 0
M  V30 12024 O 1133.84 -1.79895 -0.731535 0
M  V30 12025 C 1130.97 -3.35065 -0.913707 0
M  V30 12026 C 1129.93 -4.2746 -0.214861 0
M  V30 12027 C 1129.25 -5.19346 -1.27215 0
M  V30 12028 C 1130.55 -5.14252 0.913367 0
M  V30 12029 H 1132.25 -2.8865 0.795067 0
M  V30 12030 H 1129.79 -1.38792 0.383785 0
M  V30 12031 H 1131.75 -3.98082 -1.38234 0
M  V30 12032 H 1130.47 -2.78226 -1.7105 0
M  V30 12033 H 1129.13 -3.65855 0.233651 0
M  V30 12034 H 1128.78 -4.58827 -2.06124 0
M  V30 12035 H 1128.48 -5.81996 -0.80961 0
M  V30 12036 H 1130 -5.85239 -1.74147 0
M  V30 12037 H 1131.41 -5.70887 0.525424 0
M  V30 12038 H 1129.81 -5.85796 1.30244 0
M  V30 12039 H 1130.88 -4.51949 1.75699 0
M  V30 12040 N 1132.22 -0.430739 -1.51599 0
M  V30 12041 C 1133.16 0.419726 -2.25324 0
M  V30 12042 C 1134.17 0.991925 -1.29092 0
M  V30 12043 O 1135.36 0.887188 -1.54891 0
M  V30 12044 C 1132.46 1.59844 -2.98836 0
M  V30 12045 C 1131.63 1.14629 -4.22112 0
M  V30 12046 C 1130.69 2.19437 -4.78261 0
M  V30 12047 O 1129.72 1.79141 -5.40275 0
M  V30 12048 N 1130.92 3.51849 -4.61717 0
M  V30 12049 H 1133.68 -0.212112 -2.98948 0
M  V30 12050 H 1131.24 -0.259269 -1.59811 0
M  V30 12051 H 1133.24 2.29567 -3.33288 0
M  V30 12052 H 1131.81 2.13575 -2.28264 0
M  V30 12053 H 1131.03 0.276367 -3.9323 0
M  V30 12054 H 1132.31 0.821488 -5.02124 0
M  V30 12055 H 1131.71 3.87324 -4.12306 0
M  V30 12056 H 1130.27 4.17486 -5.00548 0
M  V30 12057 N 1133.7 1.56767 -0.161869 0
M  V30 12058 C 1134.95 1.96206 0.484537 0
M  V30 12059 C 1135.27 1.04848 1.64414 0
M  V30 12060 O 1134.54 0.112946 1.95574 0
M  V30 12061 H 1133.12 0.724491 0.181994 0
M  V30 12062 H 1135.78 1.93406 -0.240845 0
M  V30 12063 H 1134.88 3.00279 0.85083 0
M  V30 12064 N 1135.18 -0.111886 1.57202 0
M  V30 12065 C 1136.59 -0.668261 1.74331 0
M  V30 12066 C 1136.94 -1.79959 0.781609 0
M  V30 12067 O 1136.07 -2.16356 -0.043833 0
M  V30 12068 C 1136.66 -1.219 3.1611 0
M  V30 12069 C 1135.22 -1.7216 3.34721 0
M  V30 12070 C 1134.37 -0.624223 2.70183 0
M  V30 12071 H 1137.32 0.114081 1.58289 0
M  V30 12072 H 1137.34 -2.08858 3.18054 0
M  V30 12073 H 1136.85 -0.395381 3.86081 0
M  V30 12074 H 1134.95 -2.56976 2.69803 0
M  V30 12075 H 1135.07 -1.82615 4.42932 0
M  V30 12076 H 1133.43 -1.05958 2.31614 0
M  V30 12077 H 1134.21 0.188537 3.42782 0
M  V30 12078 N 1136.66 -1.52894 -0.382264 0
M  V30 12079 C 1137.89 -1.71902 -1.146 0
M  V30 12080 C 1138.3 -0.44017 -1.84009 0
M  V30 12081 O 1137.64 0.595616 -1.73776 0
M  V30 12082 C 1137.7 -2.81785 -2.23244 0
M  V30 12083 C 1137.37 -4.22684 -1.73745 0
M  V30 12084 C 1138.36 -5.05611 -1.21054 0
M  V30 12085 C 1136.05 -4.69031 -1.79763 0
M  V30 12086 C 1138.04 -6.32968 -0.750368 0
M  V30 12087 C 1135.73 -5.96371 -1.33358 0
M  V30 12088 C 1136.73 -6.7817 -0.810832 0
M  V30 12089 O 1136.41 -8.03122 -0.353577 0
M  V30 12090 H 1136.15 -0.578767 -0.349292 0
M  V30 12091 H 1138.7 -2.00359 -0.452246 0
M  V30 12092 H 1136.93 -2.48764 -2.96063 0
M  V30 12093 H 1138.62 -2.89131 -2.84883 0
M  V30 12094 H 1139.39 -4.70984 -1.15755 0
M  V30 12095 H 1135.26 -4.05447 -2.19394 0
M  V30 12096 H 1138.81 -6.96763 -0.341666 0
M  V30 12097 H 1134.71 -6.30501 -1.38344 0
M  V30 12098 H 1135.47 -8.17124 -0.474439 0
M  V30 12099 N 1138.14 0.641106 -1.43971 0
M  V30 12100 C 1139.36 1.43324 -1.4991 0
M  V30 12101 C 1139.79 1.87705 -0.121908 0
M  V30 12102 O 1139.15 1.58127 0.886875 0
M  V30 12103 C 1139.19 2.63637 -2.46025 0
M  V30 12104 O 1138.3 3.63123 -1.95488 0
M  V30 12105 H 1137.64 0.429252 -0.506595 0
M  V30 12106 H 1140.17 0.783427 -1.89007 0
M  V30 12107 H 1140.18 3.11304 -2.63731 0
M  V30 12108 H 1138.85 2.30678 -3.46064 0
M  V30 12109 H 1137.43 3.22332 -1.87501 0
M  V30 12110 N 1139.62 1.30703 0.880598 0
M  V30 12111 C 1140.89 1.1043 1.61445 0
M  V30 12112 C 1141.27 -0.344837 2.08264 0
M  V30 12113 O 1140.62 -1.33711 1.85293 0
M  V30 12114 C 1140.83 2.10908 2.78063 0
M  V30 12115 C 1142.18 2.42861 3.48287 0
M  V30 12116 O 1143.2 2.09252 2.88257 0
M  V30 12117 O 1142.06 3.00369 4.56553 0
M  V30 12118 H 1139.16 0.424419 0.709787 0
M  V30 12119 H 1141.7 1.42144 0.926991 0
M  V30 12120 H 1140.47 3.08431 2.40803 0
M  V30 12121 H 1140.1 1.80036 3.54503 0
M  V30 12122 N 1141.09 -1.09351 1.1349 0
M  V30 12123 C 1142.51 -1.3359 0.873269 0
M  V30 12124 C 1142.71 -1.95432 -0.490767 0
M  V30 12125 O 1141.77 -2.20117 -1.23712 0
M  V30 12126 C 1143.08 -2.24681 1.99847 0
M  V30 12127 C 1144.63 -2.38188 2.03065 0
M  V30 12128 C 1145.1 -3.32615 3.14851 0
M  V30 12129 N 1146.59 -3.40188 3.14366 0
M  V30 12130 C 1147.33 -4.13256 3.97501 0
M  V30 12131 N 1146.82 -4.89114 4.90652 0
M  V30 12132 N 1148.62 -4.08988 3.85597 0
M  V30 12133 H 1140.77 -0.675852 2.0136 0
M  V30 12134 H 1143.03 -0.360268 0.876876 0
M  V30 12135 H 1142.74 -1.86469 2.98198 0
M  V30 12136 H 1142.61 -3.25075 1.91327 0
M  V30 12137 H 1145 -2.75663 1.05327 0
M  V30 12138 H 1145.08 -1.3757 2.15658 0
M  V30 12139 H 1144.72 -2.95863 4.12829 0
M  V30 12140 H 1144.65 -4.33139 2.99496 0
M  V30 12141 H 1147.14 -2.861 2.46892 0
M  V30 12142 H 1147.46 -5.423 5.50573 0
M  V30 12143 H 1145.8 -4.882 4.94657 0
M  V30 12144 H 1148.99 -3.48826 3.12151 0
M  V30 12145 H 1149.17 -4.65671 4.50615 0
M  V30 12146 N 1142.57 -0.928524 -1.27343 0
M  V30 12147 C 1143.82 -0.565207 -1.93619 0
M  V30 12148 C 1144.13 0.897988 -1.73769 0
M  V30 12149 O 1145.34 1.37012 -2.34393 0
M  V30 12150 C 1143.8 -0.960052 -3.46859 0
M  V30 12151 C 1143.4 -2.44399 -3.75464 0
M  V30 12152 C 1145.15 -0.668026 -4.19211 0
M  V30 12153 C 1143.05 -2.77819 -5.22083 0
M  V30 12154 H 1141.98 -0.207665 -0.724839 0
M  V30 12155 H 1144.64 -1.12945 -1.44623 0
M  V30 12156 H 1143.02 -0.324454 -3.94669 0
M  V30 12157 H 1144.19 -3.12756 -3.38408 0
M  V30 12158 H 1142.51 -2.70799 -3.16317 0
M  V30 12159 H 1145.1 -0.894207 -5.2717 0
M  V30 12160 H 1145.45 0.394788 -4.14424 0
M  V30 12161 H 1145.98 -1.26276 -3.77226 0
M  V30 12162 H 1142.72 -3.83013 -5.3196 0
M  V30 12163 H 1142.24 -2.14112 -5.60282 0
M  V30 12164 H 1143.92 -2.65607 -5.89968 0
M  V30 12165 N 1144.05 1.41491 -0.694123 0
M  V30 12166 C 1145.27 2.06099 -0.23197 0
M  V30 12167 C 1145.7 1.51888 1.10958 0
M  V30 12168 O 1145.06 0.645247 1.69429 0
M  V30 12169 C 1145.11 3.60053 -0.198522 0
M  V30 12170 O 1144.21 4.04021 0.827067 0
M  V30 12171 H 1143.55 0.654193 -0.113699 0
M  V30 12172 H 1146.08 1.81282 -0.948575 0
M  V30 12173 H 1146.09 4.0799 -0.0288904 0
M  V30 12174 H 1144.77 3.98879 -1.17764 0
M  V30 12175 H 1143.34 3.67593 0.626908 0
M  V30 12176 N 1145.53 0.438773 1.51369 0
M  V30 12177 C 1146.94 -0.0240139 1.86685 0
M  V30 12178 C 1147.29 -1.41816 1.35583 0
M  V30 12179 O 1146.41 -2.04517 0.707232 0
M  V30 12180 C 1147.01 -0.0503527 3.38763 0
M  V30 12181 C 1145.57 -0.457556 3.73609 0
M  V30 12182 C 1144.72 0.348852 2.75097 0
M  V30 12183 H 1147.67 0.654552 1.44573 0
M  V30 12184 H 1147.69 -0.859534 3.70665 0
M  V30 12185 H 1147.2 0.964451 3.75925 0
M  V30 12186 H 1145.3 -1.47791 3.42036 0
M  V30 12187 H 1145.41 -0.181357 4.78757 0
M  V30 12188 H 1143.78 -0.193037 2.53967 0
M  V30 12189 H 1144.56 1.36256 3.15102 0
M  V30 12190 N 1147.01 -1.56678 0.170181 0
M  V30 12191 C 1148.42 -1.58512 -0.185999 0
M  V30 12192 C 1148.62 -1.18548 -1.62937 0
M  V30 12193 O 1147.68 -0.896554 -2.36047 0
M  V30 12194 C 1148.99 -3.00554 0.0937842 0
M  V30 12195 C 1150.54 -3.12984 0.0319057 0
M  V30 12196 C 1151.01 -4.57115 0.284664 0
M  V30 12197 N 1152.5 -4.62617 0.2324 0
M  V30 12198 C 1153.24 -5.71988 0.40216 0
M  V30 12199 N 1152.74 -6.89921 0.630915 0
M  V30 12200 N 1154.53 -5.61082 0.338144 0
M  V30 12201 H 1146.68 -1.80944 1.11235 0
M  V30 12202 H 1148.94 -0.838586 0.442128 0
M  V30 12203 H 1148.65 -3.34265 1.09362 0
M  V30 12204 H 1148.52 -3.72151 -0.615118 0
M  V30 12205 H 1150.91 -2.791 -0.958502 0
M  V30 12206 H 1150.99 -2.43825 0.773501 0
M  V30 12207 H 1150.63 -4.91707 1.27227 0
M  V30 12208 H 1150.56 -5.2443 -0.477529 0
M  V30 12209 H 1153.06 -3.7785 0.0611933 0
M  V30 12210 H 1153.37 -7.69153 0.749931 0
M  V30 12211 H 1151.71 -6.91787 0.667516 0
M  V30 12212 H 1154.9 -4.67826 0.16003 0
M  V30 12213 H 1155.08 -6.46265 0.473872 0
M  V30 12214 N 1148.48 0.103547 -1.57259 0
M  V30 12215 C 1149.42 1.15225 -1.98131 0
M  V30 12216 C 1150.43 1.36793 -0.882692 0
M  V30 12217 O 1151.62 1.35595 -1.16088 0
M  V30 12218 C 1148.72 2.50941 -2.27776 0
M  V30 12219 C 1147.89 2.49765 -3.59077 0
M  V30 12220 C 1146.95 3.67344 -3.76756 0
M  V30 12221 O 1145.98 3.50221 -4.48702 0
M  V30 12222 N 1147.18 4.86504 -3.16692 0
M  V30 12223 H 1149.94 0.804448 -2.88702 0
M  V30 12224 H 1147.5 0.292636 -1.59233 0
M  V30 12225 H 1149.5 3.28186 -2.36804 0
M  V30 12226 H 1148.07 2.77843 -1.43255 0
M  V30 12227 H 1147.29 1.58125 -3.61096 0
M  V30 12228 H 1148.57 2.4605 -4.4535 0
M  V30 12229 H 1147.97 5.03319 -2.58236 0
M  V30 12230 H 1146.53 5.61371 -3.31218 0
M  V30 12231 N 1149.96 1.53094 0.37415 0
M  V30 12232 C 1151.38 1.42676 0.715246 0
M  V30 12233 C 1151.58 0.558992 1.93591 0
M  V30 12234 O 1150.63 0.0381328 2.52471 0
M  V30 12235 C 1151.95 2.85746 0.936459 0
M  V30 12236 C 1153.49 2.95322 1.03701 0
M  V30 12237 C 1153.97 4.39436 1.29075 0
M  V30 12238 N 1155.46 4.42826 1.35864 0
M  V30 12239 C 1156.2 5.51433 1.57191 0
M  V30 12240 N 1155.69 6.701 1.75891 0
M  V30 12241 N 1157.48 5.38998 1.59491 0
M  V30 12242 H 1149.64 2.08025 -0.428854 0
M  V30 12243 H 1151.9 0.939078 -0.129758 0
M  V30 12244 H 1151.6 3.51523 0.111448 0
M  V30 12245 H 1151.48 3.28887 1.84698 0
M  V30 12246 H 1153.87 2.29704 1.85257 0
M  V30 12247 H 1153.95 2.55588 0.104066 0
M  V30 12248 H 1153.59 5.05625 0.480231 0
M  V30 12249 H 1153.52 4.76735 2.23677 0
M  V30 12250 H 1156.01 3.57301 1.23061 0
M  V30 12251 H 1156.32 7.48643 1.91713 0
M  V30 12252 H 1154.67 6.73102 1.73086 0
M  V30 12253 H 1157.86 4.45257 1.44444 0
M  V30 12254 H 1158.03 6.23705 1.75771 0
M  V30 12255 N 1151.44 -0.633461 1.44309 0
M  V30 12256 C 1152.86 -0.951379 1.28144 0
M  V30 12257 C 1153.06 -2.00344 0.215512 0
M  V30 12258 O 1152.11 -2.49321 -0.399389 0
M  V30 12259 C 1153.42 -1.41686 2.65227 0
M  V30 12260 C 1154.97 -1.53247 2.72918 0
M  V30 12261 C 1155.45 -2.03179 4.10466 0
M  V30 12262 N 1156.94 -2.10453 4.1263 0
M  V30 12263 C 1157.67 -2.50254 5.15907 0
M  V30 12264 N 1157.17 -2.89209 6.29547 0
M  V30 12265 N 1158.96 -2.50368 5.03262 0
M  V30 12266 H 1151.11 0.0623574 2.12308 0
M  V30 12267 H 1153.38 -0.0347244 0.947364 0
M  V30 12268 H 1153.08 -0.71814 3.4429 0
M  V30 12269 H 1152.96 -2.3883 2.91959 0
M  V30 12270 H 1155.34 -2.22216 1.94176 0
M  V30 12271 H 1155.42 -0.544836 2.4993 0
M  V30 12272 H 1155.07 -1.34806 4.89683 0
M  V30 12273 H 1155 -3.02809 4.3083 0
M  V30 12274 H 1157.49 -1.83042 3.30612 0
M  V30 12275 H 1157.8 -3.18386 7.04166 0
M  V30 12276 H 1156.15 -2.86966 6.32989 0
M  V30 12277 H 1159.34 -2.19324 4.13539 0
M  V30 12278 H 1159.51 -2.81062 5.83873 0
M  V30 12279 N 1152.92 -1.31168 -0.873655 0
M  V30 12280 C 1154.14 -1.23728 -1.66452 0
M  V30 12281 C 1154.57 0.194869 -1.87088 0
M  V30 12282 O 1153.93 1.1397 -1.40998 0
M  V30 12283 C 1153.97 -1.98285 -3.0119 0
M  V30 12284 O 1153.08 -1.31767 -3.90783 0
M  V30 12285 H 1152.42 -0.427362 -0.508191 0
M  V30 12286 H 1154.95 -1.73176 -1.08955 0
M  V30 12287 H 1154.96 -2.0774 -3.51153 0
M  V30 12288 H 1153.63 -3.02437 -2.8549 0
M  V30 12289 H 1152.21 -1.3074 -3.4923 0
M  V30 12290 N 1154.4 1.08748 -1.14068 0
M  V30 12291 C 1155.65 1.8044 -0.901352 0
M  V30 12292 C 1155.96 1.86995 0.573791 0
M  V30 12293 O 1157.16 2.55065 0.930275 0
M  V30 12294 C 1155.62 3.24185 -1.56308 0
M  V30 12295 C 1155.23 3.25875 -3.07424 0
M  V30 12296 C 1156.97 4.00584 -1.40473 0
M  V30 12297 C 1154.88 4.64186 -3.66449 0
M  V30 12298 H 1153.81 0.676201 -0.333569 0
M  V30 12299 H 1156.46 1.22169 -1.3692 0
M  V30 12300 H 1154.84 3.82561 -1.0229 0
M  V30 12301 H 1156.02 2.77225 -3.6808 0
M  V30 12302 H 1154.33 2.62969 -3.22856 0
M  V30 12303 H 1156.93 5.02781 -1.81976 0
M  V30 12304 H 1157.27 4.14823 -0.350408 0
M  V30 12305 H 1157.8 3.48668 -1.91508 0
M  V30 12306 H 1154.54 4.5515 -4.71719 0
M  V30 12307 H 1154.06 5.13132 -3.10574 0
M  V30 12308 H 1155.74 5.33161 -3.66536 0
M  V30 12309 N 1155.87 0.935264 1.26849 0
M  V30 12310 C 1157.1 0.596249 1.98122 0
M  V30 12311 C 1157.52 -0.827452 1.69702 0
M  V30 12312 O 1156.87 -1.55095 0.961864 0
M  V30 12313 C 1156.93 0.821773 3.52036 0
M  V30 12314 O 1156.65 2.18947 3.79465 0
M  V30 12315 C 1158.15 0.492498 4.40556 0
M  V30 12316 H 1155.37 0.225242 0.632066 0
M  V30 12317 H 1157.91 1.25435 1.61512 0
M  V30 12318 H 1156.07 0.210363 3.86828 0
M  V30 12319 H 1156.48 2.24509 4.74021 0
M  V30 12320 H 1157.95 0.700953 5.47531 0
M  V30 12321 H 1158.43 -0.57228 4.35456 0
M  V30 12322 H 1159.04 1.08238 4.11296 0
M  V30 12323 N 1157.35 -1.41121 0.701616 0
M  V30 12324 C 1158.77 -1.55162 0.373766 0
M  V30 12325 C 1158.97 -1.6759 -1.11875 0
M  V30 12326 O 1158.02 -1.65768 -1.90465 0
M  V30 12327 C 1159.34 -2.78758 1.12759 0
M  V30 12328 C 1160.89 -2.92561 1.11253 0
M  V30 12329 C 1161.36 -4.19052 1.84822 0
M  V30 12330 N 1162.85 -4.26023 1.81821 0
M  V30 12331 C 1163.59 -5.22771 2.3558 0
M  V30 12332 N 1163.08 -6.25512 2.97836 0
M  V30 12333 N 1164.88 -5.14752 2.25802 0
M  V30 12334 H 1157.03 -1.31299 1.66956 0
M  V30 12335 H 1159.29 -0.633894 0.704898 0
M  V30 12336 H 1159 -2.75804 2.18231 0
M  V30 12337 H 1158.87 -3.70456 0.710095 0
M  V30 12338 H 1161.26 -2.95026 0.0660506 0
M  V30 12339 H 1161.34 -2.0202 1.56913 0
M  V30 12340 H 1160.98 -4.17349 2.89452 0
M  V30 12341 H 1160.91 -5.08577 1.36592 0
M  V30 12342 H 1163.4 -3.52411 1.36438 0
M  V30 12343 H 1163.72 -6.95736 3.36409 0
M  V30 12344 H 1162.06 -6.25997 3.01916 0
M  V30 12345 H 1165.25 -4.33414 1.76833 0
M  V30 12346 H 1165.42 -5.89983 2.68001 0
M  V30 12347 N 1158.83 -0.446794 -1.51134 0
M  V30 12348 C 1160.11 0.176892 -1.94798 0
M  V30 12349 C 1160.49 1.59229 -1.38598 0
M  V30 12350 O 1159.84 2.21097 -0.576905 0
M  V30 12351 C 1160.05 0.145 -3.48699 0
M  V30 12352 C 1161.39 0.345917 -4.23189 0
M  V30 12353 O 1162.42 0.222691 -3.55503 0
M  V30 12354 O 1161.28 0.592112 -5.43283 0
M  V30 12355 H 1158.37 0.12486 -0.81752 0
M  V30 12356 H 1160.92 -0.505453 -1.61998 0
M  V30 12357 H 1159.69 -0.844156 -3.82086 0
M  V30 12358 H 1159.31 0.869851 -3.87968 0
M  V30 12359 N 1160.31 1.56586 -0.178487 0
M  V30 12360 C 1161.53 2.01915 0.473841 0
M  V30 12361 C 1161.96 1.05789 1.55533 0
M  V30 12362 O 1161.32 0.0386018 1.81259 0
M  V30 12363 C 1161.36 3.45799 1.02251 0
M  V30 12364 O 1160.47 3.52761 2.1362 0
M  V30 12365 H 1159.81 0.654372 0.112666 0
M  V30 12366 H 1162.34 2.02613 -0.284486 0
M  V30 12367 H 1162.35 3.85252 1.34332 0
M  V30 12368 H 1161.02 4.1526 0.230719 0
M  V30 12369 H 1159.6 3.25172 1.8253 0
M  V30 12370 N 1161.79 -0.095206 1.57312 0
M  V30 12371 C 1163.06 -0.830388 1.77099 0
M  V30 12372 C 1163.44 -1.9694 0.760121 0
M  V30 12373 O 1162.79 -2.2752 -0.211403 0
M  V30 12374 C 1163 -1.32507 3.22867 0
M  V30 12375 C 1164.35 -1.7679 3.86045 0
M  V30 12376 O 1165.37 -1.42131 3.26615 0
M  V30 12377 O 1164.23 -2.40876 4.90552 0
M  V30 12378 H 1161.33 -0.396083 0.72598 0
M  V30 12379 H 1163.87 -0.0770965 1.69525 0
M  V30 12380 H 1162.64 -0.508992 3.87975 0
M  V30 12381 H 1162.27 -2.14037 3.35073 0
M  V30 12382 N 1163.26 -1.53291 -0.366026 0
M  V30 12383 C 1164.49 -1.73359 -1.12934 0
M  V30 12384 C 1164.91 -0.462352 -1.83051 0
M  V30 12385 O 1164.26 0.564711 -1.73543 0
M  V30 12386 C 1164.32 -2.89873 -2.15999 0
M  V30 12387 O 1164.04 -4.12079 -1.48737 0
M  V30 12388 C 1165.54 -3.21811 -3.04881 0
M  V30 12389 H 1162.76 -0.579827 -0.337701 0
M  V30 12390 H 1165.3 -2.00033 -0.425081 0
M  V30 12391 H 1163.46 -2.65595 -2.82025 0
M  V30 12392 H 1163.87 -4.77322 -2.17404 0
M  V30 12393 H 1165.34 -4.06744 -3.7318 0
M  V30 12394 H 1165.82 -2.37156 -3.69667 0
M  V30 12395 H 1166.43 -3.48013 -2.44473 0
M  V30 12396 N 1164.74 0.6258 -1.44643 0
M  V30 12397 C 1166.15 1.20751 -1.42394 0
M  V30 12398 C 1166.5 1.95685 -0.142047 0
M  V30 12399 O 1165.63 2.02715 0.757332 0
M  V30 12400 C 1166.22 2.1964 -2.57961 0
M  V30 12401 C 1164.78 2.73227 -2.5889 0
M  V30 12402 C 1163.93 1.48315 -2.34303 0
M  V30 12403 H 1166.88 0.416162 -1.53146 0
M  V30 12404 H 1166.9 3.02342 -2.31019 0
M  V30 12405 H 1166.41 1.65073 -3.51244 0
M  V30 12406 H 1164.52 3.31782 -1.69563 0
M  V30 12407 H 1164.63 3.18902 -3.57545 0
M  V30 12408 H 1162.99 1.76634 -1.83501 0
M  V30 12409 H 1163.78 0.956427 -3.29708 0
M  V30 12410 N 1166.22 1.31629 0.866686 0
M  V30 12411 C 1167.15 1.22151 1.99001 0
M  V30 12412 C 1168.13 0.107972 1.69757 0
M  V30 12413 O 1169.32 0.293125 1.91975 0
M  V30 12414 C 1166.45 0.93144 3.34577 0
M  V30 12415 C 1165.4 2.0049 3.78137 0
M  V30 12416 C 1164.73 1.56747 5.11209 0
M  V30 12417 C 1166.03 3.41844 3.94892 0
M  V30 12418 H 1167.72 2.16132 2.0719 0
M  V30 12419 H 1165.27 1.04051 0.995463 0
M  V30 12420 H 1167.22 0.851719 4.12703 0
M  V30 12421 H 1165.94 -0.0440289 3.2657 0
M  V30 12422 H 1164.6 2.07457 3.02253 0
M  V30 12423 H 1164.25 0.579767 4.99648 0
M  V30 12424 H 1163.95 2.28562 5.41326 0
M  V30 12425 H 1165.47 1.50188 5.91841 0
M  V30 12426 H 1166.89 3.37534 4.63405 0
M  V30 12427 H 1165.29 4.11905 4.36411 0
M  V30 12428 H 1166.36 3.82389 2.98172 0
M  V30 12429 N 1167.7 -1.08142 1.14644 0
M  V30 12430 C 1168.92 -1.84857 0.940349 0
M  V30 12431 C 1169.35 -1.81163 -0.506117 0
M  V30 12432 O 1168.71 -1.19869 -1.36019 0
M  V30 12433 C 1168.76 -3.30198 1.4492 0
M  V30 12434 O 1167.86 -4.07355 0.64308 0
M  V30 12435 H 1167.2 -0.572711 0.336003 0
M  V30 12436 H 1169.73 -1.36475 1.52432 0
M  V30 12437 H 1169.74 -3.81039 1.45854 0
M  V30 12438 H 1168.42 -3.32202 2.50229 0
M  V30 12439 H 1166.99 -3.66219 0.702698 0
M  V30 12440 N 1169.18 -0.941978 -1.26351 0
M  V30 12441 C 1170.11 -0.469913 -2.28723 0
M  V30 12442 C 1171.09 0.477218 -1.63269 0
M  V30 12443 O 1172.27 0.378902 -1.90468 0
M  V30 12444 C 1169.4 0.264971 -3.46288 0
M  V30 12445 C 1168.36 -0.595682 -4.23834 0
M  V30 12446 C 1167.68 0.269208 -5.34022 0
M  V30 12447 C 1168.98 -1.86743 -4.87775 0
M  V30 12448 H 1170.68 -1.32551 -2.6846 0
M  V30 12449 H 1168.22 -0.638809 -1.29055 0
M  V30 12450 H 1170.18 0.606259 -4.17016 0
M  V30 12451 H 1168.9 1.15471 -3.05506 0
M  V30 12452 H 1167.56 -0.919875 -3.54872 0
M  V30 12453 H 1167.21 1.15832 -4.89481 0
M  V30 12454 H 1166.91 -0.30325 -5.86817 0
M  V30 12455 H 1168.43 0.605748 -6.07588 0
M  V30 12456 H 1169.85 -1.59333 -5.50714 0
M  V30 12457 H 1168.24 -2.38452 -5.50691 0
M  V30 12458 H 1169.31 -2.57831 -4.10671 0
M  V30 12459 N 1170.66 1.40747 -0.709091 0
M  V30 12460 C 1171.59 2.282 -0.00156906 0
M  V30 12461 C 1172.57 1.42981 0.774279 0
M  V30 12462 O 1173.75 1.724 0.762276 0
M  V30 12463 C 1170.88 3.23441 1.00517 0
M  V30 12464 C 1169.92 4.25291 0.320904 0
M  V30 12465 S 1170.76 5.27069 -0.946518 0
M  V30 12466 C 1171.91 6.25873 0.0582856 0
M  V30 12467 H 1172.15 2.87859 -0.743271 0
M  V30 12468 H 1169.68 1.46085 -0.499866 0
M  V30 12469 H 1171.64 3.78841 1.58082 0
M  V30 12470 H 1170.3 2.62851 1.71954 0
M  V30 12471 H 1169.49 4.92255 1.08173 0
M  V30 12472 H 1169.09 3.73557 -0.18202 0
M  V30 12473 H 1171.38 6.71398 0.907233 0
M  V30 12474 H 1172.33 7.05739 -0.577787 0
M  V30 12475 H 1172.74 5.62942 0.419108 0
M  V30 12476 N 1172.13 0.454803 1.50895 0
M  V30 12477 C 1173.36 -0.106259 2.07128 0
M  V30 12478 C 1173.78 -1.3418 1.31823 0
M  V30 12479 O 1173.14 -1.77667 0.361147 0
M  V30 12480 C 1173.19 -0.389609 3.58489 0
M  V30 12481 O 1172.29 -1.47305 3.85195 0
M  V30 12482 H 1171.63 0.00580588 0.663975 0
M  V30 12483 H 1174.16 0.641163 1.94294 0
M  V30 12484 H 1174.17 -0.634934 4.03029 0
M  V30 12485 H 1172.85 0.513338 4.1272 0
M  V30 12486 H 1171.43 -1.21631 3.52506 0
M  V30 12487 N 1173.61 -1.56489 0.186789 0
M  V30 12488 C 1174.86 -1.97634 -0.454831 0
M  V30 12489 C 1175.19 -1.07334 -1.61843 0
M  V30 12490 O 1174.47 -0.123612 -1.94107 0
M  V30 12491 C 1174.75 -3.48071 -0.922962 0
M  V30 12492 C 1174.6 -4.49149 0.241877 0
M  V30 12493 C 1175.92 -4.01994 -1.79134 0
M  V30 12494 H 1173.04 -0.718555 -0.163854 0
M  V30 12495 H 1175.68 -1.87984 0.27604 0
M  V30 12496 H 1173.83 -3.56425 -1.54575 0
M  V30 12497 H 1175.5 -4.52841 0.87936 0
M  V30 12498 H 1173.75 -4.24468 0.894964 0
M  V30 12499 H 1174.42 -5.51851 -0.128051 0
M  V30 12500 H 1176.89 -3.96367 -1.26618 0
M  V30 12501 H 1175.77 -5.07641 -2.08787 0
M  V30 12502 H 1176.03 -3.46747 -2.74261 0
M  V30 12503 N 1175.09 0.086862 -1.5736 0
M  V30 12504 C 1176.04 1.12359 -2.03662 0
M  V30 12505 C 1177.03 1.40982 -0.939169 0
M  V30 12506 O 1178.24 1.40566 -1.12433 0
M  V30 12507 H 1174.61 0.379605 -0.649156 0
M  V30 12508 H 1176.58 0.706822 -2.89908 0
M  V30 12509 C 1175.33 2.43327 -2.48369 0
M  V30 12510 H 1174.66 2.22148 -3.324 0
M  V30 12511 H 1176.1 3.14351 -2.84534 0
M  V30 12512 C 1174.55 3.08214 -1.36036 0
M  V30 12513 O 1175.08 3.95659 -0.694063 0
M  V30 12514 N 1173.29 2.68596 -1.10927 0
M  V30 12515 H 1172.84 1.97578 -1.6529 0
M  V30 12516 H 1172.8 3.12336 -0.359679 0
M  V30 12517 N 1176.57 1.53483 0.357892 0
M  V30 12518 C 1177.52 1.76843 1.43911 0
M  V30 12519 C 1178.5 0.623178 1.48342 0
M  V30 12520 O 1179.69 0.882102 1.53453 0
M  V30 12521 C 1176.82 1.96865 2.81246 0
M  V30 12522 C 1175.91 3.17414 2.81263 0
M  V30 12523 N 1176.3 4.39172 2.50921 0
M  V30 12524 C 1174.6 3.18292 3.1242 0
M  V30 12525 C 1175.3 5.20953 2.58811 0
M  V30 12526 N 1174.27 4.57338 2.93841 0
M  V30 12527 H 1178.08 2.68586 1.19327 0
M  V30 12528 H 1175.59 1.52212 0.566142 0
M  V30 12529 H 1177.59 2.11731 3.59132 0
M  V30 12530 H 1176.25 1.06355 3.06788 0
M  V30 12531 H 1177.26 4.66772 2.24376 0
M  V30 12532 H 1173.94 2.37702 3.43226 0
M  V30 12533 H 1175.33 6.28095 2.38633 0
M  V30 12534 N 1178.05 -0.61812 1.44973 0
M  V30 12535 C 1178.96 -1.7579 1.55355 0
M  V30 12536 C 1179.97 -1.68384 0.438512 0
M  V30 12537 O 1181.15 -1.88928 0.697715 0
M  V30 12538 C 1178.21 -3.1222 1.50729 0
M  V30 12539 C 1177.27 -3.3116 2.73188 0
M  V30 12540 C 1176.51 -4.61082 2.68774 0
M  V30 12541 O 1176.73 -5.42728 1.75507 0
M  V30 12542 O 1175.66 -4.82506 3.59821 0
M  V30 12543 H 1179.49 -1.69983 2.51674 0
M  V30 12544 H 1177.07 -0.780934 1.27365 0
M  V30 12545 H 1178.96 -3.93524 1.5072 0
M  V30 12546 H 1177.63 -3.18541 0.575587 0
M  V30 12547 H 1176.54 -2.49485 2.78762 0
M  V30 12548 H 1177.87 -3.29709 3.65449 0
M  V30 12549 N 1179.52 -1.32087 -0.859693 0
M  V30 12550 C 1180.43 -1.22587 -2.00024 0
M  V30 12551 C 1181.45 -0.140477 -1.73432 0
M  V30 12552 O 1182.63 -0.360213 -1.98153 0
M  V30 12553 C 1179.69 -0.944195 -3.33595 0
M  V30 12554 C 1178.75 -2.11752 -3.73443 0
M  V30 12555 C 1177.98 -1.84919 -5.0064 0
M  V30 12556 O 1178.21 -0.789299 -5.64913 0
M  V30 12557 O 1177.14 -2.70885 -5.37499 0
M  V30 12558 H 1180.97 -2.18457 -2.10974 0
M  V30 12559 H 1178.55 -1.11927 -0.989577 0
M  V30 12560 H 1180.43 -0.803389 -4.13671 0
M  V30 12561 H 1179.11 -0.0156083 -3.23696 0
M  V30 12562 H 1178.02 -2.31378 -2.93965 0
M  V30 12563 H 1179.35 -3.02872 -3.87981 0
M  V30 12564 N 1181 1.07532 -1.15215 0
M  V30 12565 C 1181.93 2.1668 -0.870171 0
M  V30 12566 C 1182.91 1.69161 0.178483 0
M  V30 12567 O 1184.1 1.94172 0.0332489 0
M  V30 12568 C 1181.23 3.45464 -0.356666 0
M  V30 12569 C 1180.18 4.06424 -1.34179 0
M  V30 12570 C 1179.51 5.30266 -0.687206 0
M  V30 12571 C 1180.81 4.46666 -2.70715 0
M  V30 12572 H 1182.5 2.40526 -1.7829 0
M  V30 12573 H 1180.05 1.15598 -0.858665 0
M  V30 12574 H 1182 4.21144 -0.146947 0
M  V30 12575 H 1180.72 3.21199 0.591527 0
M  V30 12576 H 1179.38 3.32786 -1.53783 0
M  V30 12577 H 1179.03 5.0229 0.267077 0
M  V30 12578 H 1178.73 5.72009 -1.34462 0
M  V30 12579 H 1180.26 6.08653 -0.487218 0
M  V30 12580 H 1181.67 5.13483 -2.54966 0
M  V30 12581 H 1180.07 4.99355 -3.32813 0
M  V30 12582 H 1181.14 3.58123 -3.26919 0
M  V30 12583 N 1182.48 0.948665 1.2585 0
M  V30 12584 C 1183.39 0.470525 2.29833 0
M  V30 12585 C 1184.41 -0.45919 1.67832 0
M  V30 12586 O 1185.58 -0.336893 1.98562 0
M  V30 12587 C 1182.65 -0.249635 3.458 0
M  V30 12588 C 1181.71 0.717559 4.23261 0
M  V30 12589 C 1180.94 0.0316724 5.33691 0
M  V30 12590 O 1181.16 -1.18384 5.5798 0
M  V30 12591 O 1180.1 0.71418 5.97648 0
M  V30 12592 H 1183.92 1.33447 2.72811 0
M  V30 12593 H 1181.51 0.714864 1.31187 0
M  V30 12594 H 1183.39 -0.654993 4.16279 0
M  V30 12595 H 1182.07 -1.08885 3.04837 0
M  V30 12596 H 1180.97 1.17301 3.55234 0
M  V30 12597 H 1182.31 1.52461 4.67992 0
M  V30 12598 N 1183.96 -1.40369 0.716545 0
M  V30 12599 C 1185.37 -1.54757 0.390202 0
M  V30 12600 C 1185.57 -1.68767 -1.10091 0
M  V30 12601 O 1184.63 -1.67779 -1.88697 0
M  V30 12602 C 1185.94 -2.77546 1.15709 0
M  V30 12603 C 1187.49 -2.91364 1.14349 0
M  V30 12604 C 1187.97 -4.17068 1.89256 0
M  V30 12605 N 1189.46 -4.2407 1.8633 0
M  V30 12606 C 1190.19 -5.20243 2.41112 0
M  V30 12607 N 1189.69 -6.22318 3.04454 0
M  V30 12608 N 1191.48 -5.12328 2.31249 0
M  V30 12609 H 1183.63 -1.29521 1.68339 0
M  V30 12610 H 1185.9 -0.626382 0.711582 0
M  V30 12611 H 1185.6 -2.73474 2.21144 0
M  V30 12612 H 1185.48 -3.69682 0.749347 0
M  V30 12613 H 1187.86 -2.94939 0.0973383 0
M  V30 12614 H 1187.94 -2.00344 1.59047 0
M  V30 12615 H 1187.59 -4.14255 2.93863 0
M  V30 12616 H 1187.52 -5.07099 1.41978 0
M  V30 12617 H 1190.01 -3.50944 1.40168 0
M  V30 12618 H 1190.32 -6.92129 3.43769 0
M  V30 12619 H 1188.67 -6.22759 3.08538 0
M  V30 12620 H 1191.86 -4.31514 1.8142 0
M  V30 12621 H 1192.03 -5.87107 2.74243 0
M  V30 12622 N 1185.44 -0.462799 -1.50652 0
M  V30 12623 C 1186.66 0.0952726 -2.07181 0
M  V30 12624 C 1187.09 1.33479 -1.32533 0
M  V30 12625 O 1186.44 1.77473 -0.370564 0
M  V30 12626 C 1186.49 0.370592 -3.58691 0
M  V30 12627 O 1185.6 1.4526 -3.85971 0
M  V30 12628 H 1184.94 -0.00932702 -0.663934 0
M  V30 12629 H 1187.47 -0.651458 -1.93951 0
M  V30 12630 H 1187.48 0.613551 -4.0336 0
M  V30 12631 H 1186.15 -0.535219 -4.12442 0
M  V30 12632 H 1184.73 1.1976 -3.53146 0
M  V30 12633 N 1186.91 1.56388 -0.195085 0
M  V30 12634 C 1188.33 1.8398 0.317513 0
M  V30 12635 C 1188.68 1.11575 1.61386 0
M  V30 12636 O 1187.8 0.376557 2.13099 0
M  V30 12637 C 1188.4 3.33749 0.582859 0
M  V30 12638 C 1186.96 3.61752 1.03983 0
M  V30 12639 C 1186.1 2.77159 0.088434 0
M  V30 12640 H 1189.05 1.53072 -0.418871 0
M  V30 12641 H 1189.07 3.52519 1.43216 0
M  V30 12642 H 1188.59 3.86419 -0.360813 0
M  V30 12643 H 1186.69 3.14515 1.99778 0
M  V30 12644 H 1186.8 4.69937 0.932549 0
M  V30 12645 H 1185.16 2.47765 0.590317 0
M  V30 12646 H 1185.95 3.32619 -0.849682 0
M  V30 12647 N 1188.39 -0.0785156 1.57404 0
M  V30 12648 C 1189.62 -0.795871 1.91522 0
M  V30 12649 C 1190.04 -1.70665 0.790892 0
M  V30 12650 O 1189.4 -1.79474 -0.25666 0
M  V30 12651 C 1189.45 -1.57121 3.24569 0
M  V30 12652 O 1188.55 -2.6814 3.13328 0
M  V30 12653 H 1187.89 -0.217575 0.627341 0
M  V30 12654 H 1190.42 -0.0487724 2.04542 0
M  V30 12655 H 1190.43 -1.9519 3.5828 0
M  V30 12656 H 1189.11 -0.902909 4.05981 0
M  V30 12657 H 1187.69 -2.32978 2.91163 0
M  V30 12658 N 1189.87 -1.5367 -0.349747 0
M  V30 12659 C 1191.12 -1.70281 -1.08853 0
M  V30 12660 C 1191.44 -0.465438 -1.89364 0
M  V30 12661 O 1190.71 0.520615 -1.88856 0
M  V30 12662 H 1189.29 -0.627775 -0.404854 0
M  V30 12663 H 1191.95 -1.90906 -0.392523 0
M  V30 12664 H 1191.05 -2.57096 -1.76941 0
M  V30 12665 N 1191.35 0.610423 -1.45298 0
M  V30 12666 C 1192.6 1.36951 -1.49167 0
M  V30 12667 C 1192.92 1.9405 -0.132292 0
M  V30 12668 O 1192.18 1.75363 0.868686 0
M  V30 12669 C 1192.48 2.53812 -2.51623 0
M  V30 12670 C 1192.14 2.14877 -3.96407 0
M  V30 12671 C 1190.81 2.03972 -4.35831 0
M  V30 12672 C 1193.16 1.84448 -4.87472 0
M  V30 12673 C 1190.49 1.60856 -5.64218 0
M  V30 12674 C 1192.84 1.42818 -6.16268 0
M  V30 12675 C 1191.5 1.3047 -6.54625 0
M  V30 12676 H 1190.77 0.501138 -0.54584 0
M  V30 12677 H 1193.42 0.690221 -1.78629 0
M  V30 12678 H 1191.72 3.27066 -2.1572 0
M  V30 12679 H 1193.42 3.12041 -2.51856 0
M  V30 12680 H 1190.01 2.2429 -3.65229 0
M  V30 12681 H 1194.19 1.91771 -4.57753 0
M  V30 12682 H 1189.45 1.49916 -5.92735 0
M  V30 12683 H 1193.62 1.18318 -6.86275 0
M  V30 12684 H 1191.25 0.968347 -7.54007 0
M  V30 12685 N 1192.83 1.32541 0.852676 0
M  V30 12686 C 1194.05 1.2636 1.64462 0
M  V30 12687 C 1194.48 -0.16508 1.87374 0
M  V30 12688 O 1193.83 -1.11712 1.42794 0
M  V30 12689 C 1193.88 2.03052 2.97997 0
M  V30 12690 O 1192.99 1.37967 3.88637 0
M  V30 12691 H 1192.33 0.435393 0.501327 0
M  V30 12692 H 1194.86 1.74888 1.06186 0
M  V30 12693 H 1194.87 2.133 3.47803 0
M  V30 12694 H 1193.54 3.06941 2.80642 0
M  V30 12695 H 1192.12 1.36279 3.47106 0
M  V30 12696 N 1194.3 -1.0692 1.15784 0
M  V30 12697 C 1195.55 -1.78983 0.929944 0
M  V30 12698 C 1195.87 -1.87884 -0.543969 0
M  V30 12699 O 1197.07 -2.56513 -0.889578 0
M  V30 12700 C 1195.53 -3.21657 1.61446 0
M  V30 12701 C 1195.14 -3.20943 3.12569 0
M  V30 12702 C 1196.88 -3.98299 1.46828 0
M  V30 12703 C 1194.79 -4.58298 3.73788 0
M  V30 12704 H 1193.72 -0.670809 0.344284 0
M  V30 12705 H 1196.37 -1.19975 1.38846 0
M  V30 12706 H 1194.75 -3.80885 1.08364 0
M  V30 12707 H 1195.92 -2.71334 3.72444 0
M  V30 12708 H 1194.24 -2.57799 3.26999 0
M  V30 12709 H 1196.84 -4.99822 1.89952 0
M  V30 12710 H 1197.18 -4.14213 0.416358 0
M  V30 12711 H 1197.71 -3.45577 1.97031 0
M  V30 12712 H 1194.45 -4.47588 4.789 0
M  V30 12713 H 1193.97 -5.08126 3.18698 0
M  V30 12714 H 1195.65 -5.27262 3.74972 0
M  V30 12715 N 1195.78 -0.955326 -1.25345 0
M  V30 12716 C 1197.01 -0.627233 -1.97688 0
M  V30 12717 C 1197.43 0.793973 -1.70522 0
M  V30 12718 O 1196.79 1.537 -0.961556 0
M  V30 12719 C 1196.84 -0.892969 -3.49369 0
M  V30 12720 O 1195.94 0.0278871 -4.12391 0
M  V30 12721 H 1195.28 -0.238402 -0.619726 0
M  V30 12722 H 1197.81 -1.28211 -1.59446 0
M  V30 12723 H 1197.82 -0.819517 -3.99685 0
M  V30 12724 H 1196.5 -1.92879 -3.6847 0
M  V30 12725 H 1195.08 -0.0978295 -3.72772 0
M  V30 12726 N 1197.26 1.39987 -0.723979 0
M  V30 12727 C 1198.19 2.2917 -0.0373445 0
M  V30 12728 C 1199.21 1.46258 0.715015 0
M  V30 12729 O 1200.4 1.69455 0.561003 0
M  V30 12730 C 1197.5 3.2468 0.971384 0
M  V30 12731 C 1196.67 4.36485 0.282826 0
M  V30 12732 C 1195.73 5.12379 1.19811 0
M  V30 12733 O 1194.75 5.65127 0.67974 0
M  V30 12734 N 1195.96 5.22531 2.52866 0
M  V30 12735 H 1198.72 2.88738 -0.803131 0
M  V30 12736 H 1196.28 1.51448 -0.572292 0
M  V30 12737 H 1198.27 3.72326 1.58606 0
M  V30 12738 H 1196.84 2.6622 1.63846 0
M  V30 12739 H 1196.06 3.90859 -0.512167 0
M  V30 12740 H 1197.35 5.08427 -0.194793 0
M  V30 12741 H 1196.75 4.81174 2.97469 0
M  V30 12742 H 1195.31 5.73655 3.09457 0
M  V30 12743 N 1198.74 0.470782 1.50404 0
M  V30 12744 C 1200.02 -0.145879 1.95055 0
M  V30 12745 C 1200.4 -1.57004 1.41114 0
M  V30 12746 O 1199.74 -2.20152 0.612006 0
M  V30 12747 C 1199.95 -0.0895071 3.48885 0
M  V30 12748 C 1201.3 -0.278548 4.23685 0
M  V30 12749 O 1202.33 -0.166105 3.55812 0
M  V30 12750 O 1201.19 -0.505606 5.44156 0
M  V30 12751 H 1198.28 -0.111838 0.819403 0
M  V30 12752 H 1200.83 0.531162 1.61173 0
M  V30 12753 H 1199.6 0.904836 3.80695 0
M  V30 12754 H 1199.22 -0.808019 3.89303 0
M  V30 12755 N 1200.22 -1.56282 0.203376 0
M  V30 12756 C 1201.63 -1.58871 -0.152335 0
M  V30 12757 C 1201.83 -1.21978 -1.60386 0
M  V30 12758 O 1200.89 -0.946422 -2.34092 0
M  V30 12759 C 1202.2 -3.00287 0.157515 0
M  V30 12760 C 1203.75 -3.12846 0.098287 0
M  V30 12761 C 1204.23 -4.56408 0.38156 0
M  V30 12762 N 1205.72 -4.6202 0.330475 0
M  V30 12763 C 1206.45 -5.71006 0.523397 0
M  V30 12764 N 1205.95 -6.88428 0.777115 0
M  V30 12765 N 1207.74 -5.60238 0.457082 0
M  V30 12766 H 1199.89 -1.78543 1.15048 0
M  V30 12767 H 1202.15 -0.829019 0.459816 0
M  V30 12768 H 1201.86 -3.3187 1.16427 0
M  V30 12769 H 1201.73 -3.73372 -0.536041 0
M  V30 12770 H 1204.12 -2.8107 -0.899085 0
M  V30 12771 H 1204.2 -2.42129 0.825045 0
M  V30 12772 H 1203.85 -4.88897 1.37629 0
M  V30 12773 H 1203.78 -5.25325 -0.366182 0
M  V30 12774 H 1206.27 -3.77636 0.141327 0
M  V30 12775 H 1206.58 -7.67389 0.912911 0
M  V30 12776 H 1204.93 -6.90215 0.814104 0
M  V30 12777 H 1208.12 -4.67382 0.259226 0
M  V30 12778 H 1208.29 -6.45114 0.610848 0
M  V30 12779 N 1201.7 0.070167 -1.57444 0
M  V30 12780 C 1202.97 0.802108 -1.78397 0
M  V30 12781 C 1203.35 1.95706 -0.791356 0
M  V30 12782 O 1202.7 2.27827 0.17518 0
M  V30 12783 C 1202.91 1.27354 -3.24934 0
M  V30 12784 C 1204.26 1.70626 -3.88808 0
M  V30 12785 O 1205.28 1.36916 -3.28835 0
M  V30 12786 O 1204.14 2.33041 -4.94322 0
M  V30 12787 H 1201.24 0.384483 -0.73219 0
M  V30 12788 H 1203.78 0.0501168 -1.69626 0
M  V30 12789 H 1202.55 0.447204 -3.88736 0
M  V30 12790 H 1202.18 2.0868 -3.38435 0
M  V30 12791 N 1203.17 1.53854 0.341593 0
M  V30 12792 C 1204.45 1.61823 1.09875 0
M  V30 12793 C 1204.83 0.440711 2.06448 0
M  V30 12794 O 1204.18 -0.566833 2.21358 0
M  V30 12795 C 1204.39 2.9799 1.81668 0
M  V30 12796 C 1205.74 3.53411 2.35341 0
M  V30 12797 O 1206.76 3.00177 1.91761 0
M  V30 12798 O 1205.62 4.4653 3.15076 0
M  V30 12799 H 1202.71 0.654599 0.5054 0
M  V30 12800 H 1205.26 1.66199 0.342929 0
M  V30 12801 H 1204.03 3.7513 1.11323 0
M  V30 12802 H 1203.65 2.97213 2.64103 0
M  V30 12803 N 1204.65 -0.602709 1.4562 0
M  V30 12804 C 1205.88 -1.38608 1.53203 0
M  V30 12805 C 1206.29 -1.88478 0.165098 0
M  V30 12806 O 1205.63 -1.63142 -0.844421 0
M  V30 12807 C 1205.69 -2.62214 2.45935 0
M  V30 12808 C 1205.36 -2.3395 3.92577 0
M  V30 12809 C 1206.36 -1.94011 4.82344 0
M  V30 12810 C 1204.04 -2.46711 4.37537 0
M  V30 12811 C 1206.03 -1.67202 6.15079 0
M  V30 12812 C 1203.72 -2.19515 5.70313 0
M  V30 12813 C 1204.72 -1.79823 6.58903 0
M  V30 12814 O 1204.41 -1.52948 7.89216 0
M  V30 12815 H 1204.14 -0.43052 0.52118 0
M  V30 12816 H 1206.69 -0.741655 1.91543 0
M  V30 12817 H 1204.92 -3.29394 2.02575 0
M  V30 12818 H 1206.61 -3.24264 2.44147 0
M  V30 12819 H 1207.38 -1.83684 4.48871 0
M  V30 12820 H 1203.26 -2.76572 3.68821 0
M  V30 12821 H 1206.8 -1.36146 6.84186 0
M  V30 12822 H 1202.7 -2.2946 6.03339 0
M  V30 12823 H 1203.47 -1.6696 8.01291 0
M  V30 12824 N 1206.13 -1.32992 -0.845635 0
M  V30 12825 C 1207.38 -1.24249 -1.60281 0
M  V30 12826 C 1207.71 0.193049 -1.93238 0
M  V30 12827 O 1206.98 1.1326 -1.58122 0
M  V30 12828 C 1207.27 -2.1111 -2.91727 0
M  V30 12829 C 1207.12 -3.63088 -2.65494 0
M  V30 12830 C 1208.44 -1.97913 -3.93089 0
M  V30 12831 H 1205.56 -0.452698 -0.581578 0
M  V30 12832 H 1208.2 -1.63026 -0.975828 0
M  V30 12833 H 1206.35 -1.78169 -3.45236 0
M  V30 12834 H 1208.02 -4.06287 -2.18469 0
M  V30 12835 H 1206.26 -3.85304 -1.99306 0
M  V30 12836 H 1206.94 -4.19202 -3.59129 0
M  V30 12837 H 1209.41 -2.26788 -3.48864 0
M  V30 12838 H 1208.29 -2.60952 -4.82903 0
M  V30 12839 H 1208.55 -0.949378 -4.31786 0
M  V30 12840 N 1207.61 1.06304 -1.1635 0
M  V30 12841 C 1208.85 1.79101 -0.94494 0
M  V30 12842 C 1209.18 1.87217 0.527251 0
M  V30 12843 O 1208.44 1.35992 1.40729 0
M  V30 12844 C 1208.74 3.23589 -1.51741 0
M  V30 12845 C 1208.4 3.35552 -3.0119 0
M  V30 12846 C 1207.06 3.38525 -3.41986 0
M  V30 12847 C 1209.42 3.37482 -3.97184 0
M  V30 12848 C 1206.74 3.41042 -4.77396 0
M  V30 12849 C 1209.1 3.41537 -5.3248 0
M  V30 12850 C 1207.76 3.42792 -5.72757 0
M  V30 12851 H 1207.03 0.655377 -0.345778 0
M  V30 12852 H 1209.68 1.25017 -1.45062 0
M  V30 12853 H 1207.98 3.80525 -0.933164 0
M  V30 12854 H 1209.68 3.78512 -1.32399 0
M  V30 12855 H 1206.27 3.33944 -2.68662 0
M  V30 12856 H 1210.45 3.34397 -3.66732 0
M  V30 12857 H 1205.71 3.40317 -5.07931 0
M  V30 12858 H 1209.88 3.41977 -6.0665 0
M  V30 12859 H 1207.51 3.44495 -6.77663 0
M  V30 12860 N 1209.09 0.96196 1.24836 0
M  V30 12861 C 1210.33 0.619489 1.92371 0
M  V30 12862 C 1210.65 -0.847233 1.75633 0
M  V30 12863 O 1209.92 -1.60419 1.12439 0
M  V30 12864 H 1208.5 0.226129 0.711951 0
M  V30 12865 H 1211.17 1.22179 1.5185 0
M  V30 12866 H 1210.26 0.855128 3.00157 0
M  V30 12867 N 1210.56 -1.39601 0.731392 0
M  V30 12868 C 1211.97 -1.83424 0.348194 0
M  V30 12869 C 1212.33 -1.61106 -1.11979 0
M  V30 12870 O 1211.45 -1.1003 -1.86339 0
M  V30 12871 C 1212.05 -3.32982 0.6252 0
M  V30 12872 C 1210.6 -3.75238 0.295536 0
M  V30 12873 C 1209.75 -2.62642 0.88964 0
M  V30 12874 H 1212.7 -1.28644 0.929318 0
M  V30 12875 H 1212.72 -3.80357 -0.104254 0
M  V30 12876 H 1212.24 -3.49193 1.69368 0
M  V30 12877 H 1210.34 -3.64615 -0.767254 0
M  V30 12878 H 1210.45 -4.72781 0.775576 0
M  V30 12879 H 1208.81 -2.52726 0.316529 0
M  V30 12880 H 1209.6 -2.81661 1.96271 0
M  V30 12881 N 1212.04 -0.478751 -1.50152 0
M  V30 12882 C 1212.99 0.325375 -2.30313 0
M  V30 12883 C 1213.98 0.983372 -1.37935 0
M  V30 12884 O 1215.19 0.913601 -1.55091 0
M  V30 12885 H 1211.57 0.123775 -0.741744 0
M  V30 12886 H 1213.54 -0.371004 -2.96085 0
M  V30 12887 C 1212.29 1.39026 -3.18696 0
M  V30 12888 H 1211.61 0.893329 -3.89692 0
M  V30 12889 H 1213.05 1.92533 -3.77766 0
M  V30 12890 C 1211.51 2.39637 -2.36803 0
M  V30 12891 O 1212.04 3.45067 -2.05649 0
M  V30 12892 N 1210.24 2.11546 -1.9924 0
M  V30 12893 H 1209.79 1.25832 -2.24775 0
M  V30 12894 H 1209.75 2.79096 -1.44751 0
M  V30 12895 N 1213.52 1.56172 -0.211661 0
M  V30 12896 C 1214.77 1.97648 0.421871 0
M  V30 12897 C 1215.09 1.10026 1.60995 0
M  V30 12898 O 1214.36 0.175109 1.95116 0
M  V30 12899 H 1212.94 0.729914 0.158852 0
M  V30 12900 H 1215.6 1.92542 -0.302254 0
M  V30 12901 H 1214.7 3.02834 0.754868 0
M  V30 12902 N 1215 -0.0618163 1.57479 0
M  V30 12903 C 1216.25 -0.757569 1.87364 0
M  V30 12904 C 1216.57 -1.77607 0.805025 0
M  V30 12905 O 1215.84 -1.95202 -0.165216 0
M  V30 12906 H 1214.42 -0.28278 0.691408 0
M  V30 12907 H 1217.08 -0.0355354 1.94868 0
M  V30 12908 H 1216.18 -1.26758 2.85199 0
M  V30 12909 N 1216.48 -1.54033 -0.333429 0
M  V30 12910 C 1217.7 -1.76031 -1.09672 0
M  V30 12911 C 1218.13 -0.502844 -1.81254 0
M  V30 12912 O 1217.48 0.54509 -1.72912 0
M  V30 12913 C 1217.53 -2.947 -2.07809 0
M  V30 12914 O 1216.64 -2.65555 -3.15522 0
M  V30 12915 H 1215.98 -0.583611 -0.316692 0
M  V30 12916 H 1218.51 -2.01026 -0.380732 0
M  V30 12917 H 1218.52 -3.21771 -2.50853 0
M  V30 12918 H 1217.19 -3.85895 -1.55106 0
M  V30 12919 H 1215.77 -2.49403 -2.77223 0
M  V30 12920 N 1217.95 0.594978 -1.45938 0
M  V30 12921 C 1219.18 1.38482 -1.54394 0
M  V30 12922 C 1219.6 1.87222 -0.181563 0
M  V30 12923 O 1218.96 1.60869 0.836119 0
M  V30 12924 C 1219.01 2.55676 -2.54287 0
M  V30 12925 O 1218.11 3.5672 -2.06941 0
M  V30 12926 H 1217.46 0.412918 -0.519995 0
M  V30 12927 H 1219.99 0.722899 -1.91404 0
M  V30 12928 H 1220 3.02756 -2.73501 0
M  V30 12929 H 1218.67 2.19552 -3.53228 0
M  V30 12930 H 1217.25 3.16204 -1.97661 0
M  V30 12931 N 1219.43 1.33438 0.838571 0
M  V30 12932 C 1220.68 1.26106 1.59589 0
M  V30 12933 C 1221.03 -0.171524 1.91634 0
M  V30 12934 O 1220.33 -1.11368 1.55909 0
M  V30 12935 C 1220.52 2.07002 2.9135 0
M  V30 12936 C 1220.35 3.57981 2.72175 0
M  V30 12937 C 1219.12 4.27293 2.69719 0
M  V30 12938 C 1221.32 4.52308 2.4479 0
M  V30 12939 N 1219.3 5.64221 2.41925 0
M  V30 12940 C 1220.67 5.77127 2.26549 0
M  V30 12941 C 1222.73 4.4139 2.3039 0
M  V30 12942 C 1221.43 6.9226 1.95368 0
M  V30 12943 C 1223.45 5.56339 2.00602 0
M  V30 12944 C 1222.82 6.80167 1.83173 0
M  V30 12945 H 1218.92 0.516656 0.587018 0
M  V30 12946 H 1221.5 1.67982 0.984382 0
M  V30 12947 H 1219.67 1.67446 3.50452 0
M  V30 12948 H 1221.4 1.91437 3.56558 0
M  V30 12949 H 1218.16 3.79571 2.83236 0
M  V30 12950 H 1218.58 6.36403 2.30911 0
M  V30 12951 H 1223.22 3.46289 2.42577 0
M  V30 12952 H 1220.94 7.87357 1.81918 0
M  V30 12953 H 1224.53 5.49827 1.90214 0
M  V30 12954 H 1223.41 7.67609 1.60455 0
M  V30 12955 N 1220.91 -1.05686 1.16912 0
M  V30 12956 C 1221.84 -2.12775 0.824755 0
M  V30 12957 C 1222.82 -1.61286 -0.206289 0
M  V30 12958 O 1224.01 -1.8829 -0.0889616 0
M  V30 12959 C 1221.13 -3.37922 0.229422 0
M  V30 12960 C 1220.18 -4.08226 1.23506 0
M  V30 12961 S 1221.01 -4.57424 2.78431 0
M  V30 12962 C 1222.17 -5.85825 2.20364 0
M  V30 12963 H 1222.4 -2.41657 1.73174 0
M  V30 12964 H 1219.93 -1.18212 0.99324 0
M  V30 12965 H 1221.89 -4.10359 -0.107588 0
M  V30 12966 H 1220.55 -3.07186 -0.655424 0
M  V30 12967 H 1219.75 -4.98129 0.767059 0
M  V30 12968 H 1219.35 -3.41832 1.51747 0
M  V30 12969 H 1221.64 -6.58912 1.57611 0
M  V30 12970 H 1222.58 -6.37364 3.08501 0
M  V30 12971 H 1222.99 -5.4015 1.64008 0
M  V30 12972 N 1222.39 -0.968567 -1.24324 0
M  V30 12973 C 1223.8 -0.675239 -1.44612 0
M  V30 12974 C 1224 0.762641 -1.8651 0
M  V30 12975 O 1223.06 1.53644 -2.00374 0
M  V30 12976 C 1224.37 -1.66007 -2.50723 0
M  V30 12977 C 1225.92 -1.6728 -2.6455 0
M  V30 12978 C 1226.4 -2.64563 -3.73859 0
M  V30 12979 N 1227.89 -2.6301 -3.81287 0
M  V30 12980 C 1228.62 -3.34957 -4.65394 0
M  V30 12981 N 1228.12 -4.16424 -5.53681 0
M  V30 12982 N 1229.91 -3.23778 -4.59483 0
M  V30 12983 H 1222.06 -1.89757 -0.954257 0
M  V30 12984 H 1224.33 -0.817004 -0.480841 0
M  V30 12985 H 1224.03 -2.68779 -2.26827 0
M  V30 12986 H 1223.91 -1.43353 -3.48898 0
M  V30 12987 H 1226.29 -0.652184 -2.87803 0
M  V30 12988 H 1226.37 -1.93997 -1.6673 0
M  V30 12989 H 1226.02 -3.66759 -3.51355 0
M  V30 12990 H 1225.95 -2.35124 -4.71194 0
M  V30 12991 H 1228.44 -2.03877 -3.18186 0
M  V30 12992 H 1228.75 -4.68207 -6.14818 0
M  V30 12993 H 1227.1 -4.20518 -5.53344 0
M  V30 12994 H 1230.29 -2.59594 -3.89524 0
M  V30 12995 H 1230.46 -3.80112 -5.24804 0
M  V30 12996 N 1223.87 1.39211 -0.738786 0
M  V30 12997 C 1224.78 2.34374 -0.102958 0
M  V30 12998 C 1225.79 1.58514 0.717596 0
M  V30 12999 O 1226.97 1.90786 0.645186 0
M  V30 13000 C 1224.03 3.37562 0.790733 0
M  V30 13001 C 1223.09 4.29279 -0.0425028 0
M  V30 13002 C 1222.33 5.27539 0.808628 0
M  V30 13003 O 1222.55 5.32396 2.04722 0
M  V30 13004 O 1221.48 6.0144 0.235279 0
M  V30 13005 H 1225.31 2.90412 -0.888498 0
M  V30 13006 H 1222.9 1.40803 -0.499498 0
M  V30 13007 H 1224.78 4.00783 1.30196 0
M  V30 13008 H 1223.45 2.83903 1.55502 0
M  V30 13009 H 1222.36 3.69268 -0.599335 0
M  V30 13010 H 1223.69 4.86154 -0.7691 0
M  V30 13011 N 1225.34 0.486708 1.49896 0
M  V30 13012 C 1226.29 -0.299294 2.28851 0
M  V30 13013 C 1227.26 -0.973251 1.346 0
M  V30 13014 O 1228.45 -0.982678 1.63548 0
M  V30 13015 C 1225.59 -1.36624 3.16904 0
M  V30 13016 C 1224.7 -0.705492 4.262 0
M  V30 13017 C 1223.83 -1.75165 5.01488 0
M  V30 13018 C 1222.87 -1.072 6.0264 0
M  V30 13019 N 1222.01 -2.06172 6.71147 0
M  V30 13020 H 1226.85 0.380272 2.95564 0
M  V30 13021 H 1224.39 0.199377 1.45743 0
M  V30 13022 H 1226.35 -1.99666 3.66319 0
M  V30 13023 H 1224.98 -2.01476 2.52205 0
M  V30 13024 H 1224.03 0.0378757 3.80381 0
M  V30 13025 H 1225.34 -0.169774 4.98511 0
M  V30 13026 H 1224.49 -2.45749 5.547 0
M  V30 13027 H 1223.23 -2.3212 4.28919 0
M  V30 13028 H 1222.24 -0.351868 5.48673 0
M  V30 13029 H 1223.46 -0.509139 6.77189 0
M  V30 13030 H 1221.41 -2.62115 6.01358 0
M  V30 13031 H 1221.33 -1.57627 7.39385 0
M  V30 13032 H 1222.59 -2.76088 7.28969 0
M  V30 13033 N 1226.82 -1.56058 0.219941 0
M  V30 13034 C 1228.24 -1.59024 -0.135476 0
M  V30 13035 C 1228.44 -1.23672 -1.59083 0
M  V30 13036 O 1227.5 -0.971197 -2.33075 0
M  V30 13037 C 1228.81 -3.00103 0.189356 0
M  V30 13038 C 1230.36 -3.12724 0.131463 0
M  V30 13039 C 1230.83 -4.55977 0.429947 0
M  V30 13040 N 1232.32 -4.61643 0.37946 0
M  V30 13041 C 1233.06 -5.70419 0.58393 0
M  V30 13042 N 1232.55 -6.87565 0.850088 0
M  V30 13043 N 1234.35 -5.59722 0.516477 0
M  V30 13044 H 1226.5 -1.77313 1.16935 0
M  V30 13045 H 1228.76 -0.824096 0.468583 0
M  V30 13046 H 1228.47 -3.30616 1.19941 0
M  V30 13047 H 1228.34 -3.73919 -0.49641 0
M  V30 13048 H 1230.73 -2.82008 -0.869223 0
M  V30 13049 H 1230.81 -2.41241 0.85068 0
M  V30 13050 H 1230.45 -4.8741 1.42806 0
M  V30 13051 H 1230.38 -5.25684 -0.310444 0
M  V30 13052 H 1232.87 -3.77465 0.181373 0
M  V30 13053 H 1233.19 -7.66378 0.994251 0
M  V30 13054 H 1231.53 -6.89313 0.887265 0
M  V30 13055 H 1234.72 -4.6708 0.308784 0
M  V30 13056 H 1234.9 -6.4443 0.679236 0
M  V30 13057 N 1228.3 0.053464 -1.57509 0
M  V30 13058 C 1229.53 0.760429 -1.92096 0
M  V30 13059 C 1229.94 1.70703 -0.815905 0
M  V30 13060 O 1229.28 1.82398 0.218332 0
M  V30 13061 C 1229.34 1.59255 -3.22301 0
M  V30 13062 C 1229.01 0.813355 -4.49704 0
M  V30 13063 C 1230.01 0.124402 -5.19751 0
M  V30 13064 C 1227.69 0.775106 -4.96284 0
M  V30 13065 C 1229.68 -0.59237 -6.34641 0
M  V30 13066 C 1227.37 0.0545728 -6.11076 0
M  V30 13067 C 1228.37 -0.627948 -6.80107 0
M  V30 13068 O 1228.06 -1.33683 -7.92707 0
M  V30 13069 H 1227.79 0.220287 -0.639101 0
M  V30 13070 H 1230.34 0.0224505 -2.05388 0
M  V30 13071 H 1228.57 2.37376 -3.05269 0
M  V30 13072 H 1230.26 2.17987 -3.42398 0
M  V30 13073 H 1231.03 0.145141 -4.84783 0
M  V30 13074 H 1226.91 1.29583 -4.42413 0
M  V30 13075 H 1230.45 -1.12565 -6.88458 0
M  V30 13076 H 1226.35 0.0318254 -6.45492 0
M  V30 13077 H 1227.12 -1.24799 -8.0893 0
M  V30 13078 N 1229.78 1.54207 0.325255 0
M  V30 13079 C 1230.71 1.86467 1.40543 0
M  V30 13080 C 1231.69 0.721324 1.54048 0
M  V30 13081 O 1232.88 0.974905 1.67956 0
M  V30 13082 C 1230.01 2.09052 2.77335 0
M  V30 13083 C 1228.96 3.24893 2.78619 0
M  V30 13084 C 1228.29 3.32846 4.1847 0
M  V30 13085 C 1229.59 4.62582 2.42518 0
M  V30 13086 H 1231.28 2.76932 1.13794 0
M  V30 13087 H 1228.83 1.33248 0.545971 0
M  V30 13088 H 1230.78 2.30204 3.52964 0
M  V30 13089 H 1229.5 1.15335 3.05558 0
M  V30 13090 H 1228.16 3.03625 2.05444 0
M  V30 13091 H 1227.81 2.3669 4.43832 0
M  V30 13092 H 1227.51 4.10701 4.20237 0
M  V30 13093 H 1229.03 3.56231 4.95915 0
M  V30 13094 H 1230.45 4.83627 3.07861 0
M  V30 13095 H 1228.84 5.42974 2.55538 0
M  V30 13096 H 1229.91 4.64946 1.3767 0
M  V30 13097 N 1231.26 -0.58723 1.46251 0
M  V30 13098 C 1232.22 -1.67863 1.5606 0
M  V30 13099 C 1233.22 -1.54715 0.438162 0
M  V30 13100 O 1234.41 -1.59415 0.702323 0
M  V30 13101 C 1231.54 -3.07262 1.47659 0
M  V30 13102 H 1232.74 -1.60525 2.53321 0
M  V30 13103 H 1230.29 -0.804691 1.33994 0
M  V30 13104 H 1231.02 -3.20159 0.5166 0
M  V30 13105 H 1230.81 -3.18213 2.29092 0
M  V30 13106 H 1232.3 -3.8672 1.57599 0
M  V30 13107 N 1232.74 -1.33881 -0.831482 0
M  V30 13108 C 1233.65 -1.26802 -1.97379 0
M  V30 13109 C 1234.66 -0.177233 -1.73095 0
M  V30 13110 O 1235.84 -0.402163 -1.97344 0
M  V30 13111 C 1232.9 -1.01474 -3.31517 0
M  V30 13112 C 1231.96 -2.19626 -3.68867 0
M  V30 13113 C 1231.2 -1.95497 -4.96605 0
M  V30 13114 O 1231.42 -0.908948 -5.63111 0
M  V30 13115 O 1230.35 -2.82226 -5.31632 0
M  V30 13116 H 1234.18 -2.22883 -2.06293 0
M  V30 13117 H 1231.76 -1.14001 -0.965613 0
M  V30 13118 H 1233.65 -0.890954 -4.11874 0
M  V30 13119 H 1232.32 -0.0842656 -3.2359 0
M  V30 13120 H 1231.23 -2.37561 -2.88991 0
M  V30 13121 H 1232.56 -3.11034 -3.81469 0
M  V30 13122 N 1234.21 1.05064 -1.1747 0
M  V30 13123 C 1235.46 1.77737 -0.961979 0
M  V30 13124 C 1235.78 1.88198 0.510551 0
M  V30 13125 O 1235.05 1.39968 1.37062 0
M  V30 13126 H 1233.63 0.658366 -0.352935 0
M  V30 13127 H 1236.29 1.26851 -1.47969 0
M  V30 13128 H 1235.39 2.79368 -1.39141 0
M  V30 13129 N 1235.69 0.975146 1.23809 0
M  V30 13130 C 1236.6 0.51917 2.28783 0
M  V30 13131 C 1237.62 -0.423487 1.68768 0
M  V30 13132 O 1238.79 -0.294699 1.99232 0
M  V30 13133 C 1235.86 -0.176229 3.46252 0
M  V30 13134 C 1234.92 0.807177 4.21643 0
M  V30 13135 C 1234.15 0.144869 5.33503 0
M  V30 13136 O 1234.38 -1.06522 5.60365 0
M  V30 13137 O 1233.31 0.84079 5.95999 0
M  V30 13138 H 1237.14 1.39204 2.69919 0
M  V30 13139 H 1234.72 0.74253 1.29641 0
M  V30 13140 H 1236.6 -0.566547 4.17574 0
M  V30 13141 H 1235.28 -1.02394 3.07078 0
M  V30 13142 H 1234.18 1.2481 3.52666 0
M  V30 13143 H 1235.52 1.62354 4.64653 0
M  V30 13144 N 1237.17 -1.38817 0.746158 0
M  V30 13145 C 1238.4 -2.0457 0.309605 0
M  V30 13146 C 1238.81 -1.5627 -1.05948 0
M  V30 13147 O 1238.17 -0.73248 -1.67156 0
M  V30 13148 C 1238.22 -3.60126 0.314843 0
M  V30 13149 O 1237.94 -4.06652 1.6299 0
M  V30 13150 C 1239.44 -4.4309 -0.136497 0
M  V30 13151 H 1236.66 -0.657597 0.133441 0
M  V30 13152 H 1239.21 -1.77651 1.01293 0
M  V30 13153 H 1237.36 -3.85908 -0.339685 0
M  V30 13154 H 1237.78 -5.01042 1.55103 0
M  V30 13155 H 1239.25 -5.5194 -0.0816714 0
M  V30 13156 H 1239.73 -4.22959 -1.18332 0
M  V30 13157 H 1240.33 -4.22481 0.488879 0
M  V30 13158 N 1238.65 -0.49465 -1.49636 0
M  V30 13159 C 1239.92 0.114829 -1.95263 0
M  V30 13160 C 1240.3 1.54739 -1.43593 0
M  V30 13161 O 1239.65 2.1915 -0.646953 0
M  V30 13162 C 1239.86 0.0339912 -3.48983 0
M  V30 13163 C 1241.21 0.211108 -4.24075 0
M  V30 13164 O 1242.23 0.109478 -3.56032 0
M  V30 13165 O 1241.09 0.418971 -5.44892 0
M  V30 13166 H 1238.19 0.0987883 -0.821078 0
M  V30 13167 H 1240.73 -0.556736 -1.60308 0
M  V30 13168 H 1239.51 -0.965287 -3.79207 0
M  V30 13169 H 1239.13 0.745982 -3.90539 0
M  V30 13170 N 1240.13 1.55939 -0.228214 0
M  V30 13171 C 1241.35 2.0287 0.406348 0
M  V30 13172 C 1241.77 1.1079 1.52876 0
M  V30 13173 O 1241.13 0.118747 1.82113 0
M  V30 13174 C 1241.18 3.49286 0.931734 0
M  V30 13175 O 1240.9 4.37857 -0.145933 0
M  V30 13176 C 1242.4 4.11893 1.63887 0
M  V30 13177 H 1239.62 0.663696 0.0987358 0
M  V30 13178 H 1242.16 2.01541 -0.346616 0
M  V30 13179 H 1240.32 3.5121 1.63494 0
M  V30 13180 H 1240.73 5.23904 0.250005 0
M  V30 13181 H 1242.21 5.16091 1.95841 0
M  V30 13182 H 1242.68 3.57281 2.55435 0
M  V30 13183 H 1243.29 4.13839 0.980697 0
M  V30 13184 N 1241.6 -0.0451101 1.57535 0
M  V30 13185 C 1242.88 -0.773625 1.79651 0
M  V30 13186 C 1243.26 -1.94422 0.822391 0
M  V30 13187 O 1242.61 -2.28077 -0.138913 0
M  V30 13188 C 1242.82 -1.22168 3.26919 0
M  V30 13189 C 1244.17 -1.64419 3.91474 0
M  V30 13190 O 1245.19 -1.31668 3.30971 0
M  V30 13191 O 1244.05 -2.25148 4.97967 0
M  V30 13192 H 1241.14 -0.372786 0.738214 0
M  V30 13193 H 1243.69 -0.0231245 1.69684 0
M  V30 13194 H 1242.46 -0.385302 3.89398 0
M  V30 13195 H 1242.09 -2.03269 3.41713 0
M  V30 13196 N 1243.08 -1.54377 -0.317073 0
M  V30 13197 C 1244.31 -1.76865 -1.07362 0
M  V30 13198 C 1244.73 -0.520354 -1.81488 0
M  V30 13199 O 1244.08 0.509213 -1.75252 0
M  V30 13200 C 1244.13 -2.96598 -2.06668 0
M  V30 13201 O 1243.85 -4.16602 -1.35552 0
M  V30 13202 C 1245.36 -3.31348 -2.94489 0
M  V30 13203 H 1242.58 -0.590277 -0.319083 0
M  V30 13204 H 1245.12 -2.01284 -0.361227 0
M  V30 13205 H 1243.27 -2.74433 -2.73432 0
M  V30 13206 H 1243.69 -4.83996 -2.02108 0
M  V30 13207 H 1245.16 -4.1841 -3.60051 0
M  V30 13208 H 1245.64 -2.48797 -3.61935 0
M  V30 13209 H 1246.25 -3.55614 -2.33278 0
M  V30 13210 N 1244.56 0.579466 -1.4656 0
M  V30 13211 C 1245.84 1.33973 -1.42515 0
M  V30 13212 C 1246.22 2.10812 -0.110317 0
M  V30 13213 O 1245.57 2.09679 0.908135 0
M  V30 13214 C 1245.78 2.26301 -2.65686 0
M  V30 13215 C 1247.12 2.88027 -3.1197 0
M  V30 13216 O 1248.15 2.36612 -2.66257 0
M  V30 13217 O 1247.01 3.81423 -3.9138 0
M  V30 13218 H 1244.1 0.602121 -0.566903 0
M  V30 13219 H 1246.65 0.600214 -1.58731 0
M  V30 13220 H 1245.42 1.68973 -3.52936 0
M  V30 13221 H 1245.04 3.07586 -2.51945 0
M  V30 13222 N 1246.04 1.3432 0.824371 0
M  V30 13223 C 1247.45 1.23855 1.39703 0
M  V30 13224 C 1247.8 -0.136566 1.95724 0
M  V30 13225 O 1246.93 -1.03683 1.89944 0
M  V30 13226 C 1247.52 2.24249 2.53965 0
M  V30 13227 C 1246.08 2.17578 3.07143 0
M  V30 13228 C 1245.23 2.10933 1.80008 0
M  V30 13229 H 1248.18 1.45707 0.628891 0
M  V30 13230 H 1248.2 1.85864 3.32016 0
M  V30 13231 H 1247.71 3.24321 2.13161 0
M  V30 13232 H 1245.81 1.20858 3.52455 0
M  V30 13233 H 1245.92 3.08769 3.66331 0
M  V30 13234 H 1244.29 1.56631 2.00845 0
M  V30 13235 H 1245.07 3.12836 1.4138 0
M  V30 13236 N 1247.52 -1.0444 1.18026 0
M  V30 13237 C 1248.76 -1.77575 0.973314 0
M  V30 13238 C 1249.09 -1.88032 -0.4974 0
M  V30 13239 O 1248.35 -1.38214 -1.38548 0
M  V30 13240 C 1248.65 -3.21134 1.56869 0
M  V30 13241 C 1248.31 -3.30718 3.0649 0
M  V30 13242 C 1246.97 -3.33041 3.47328 0
M  V30 13243 C 1249.33 -3.3112 4.02503 0
M  V30 13244 C 1246.65 -3.33404 4.82762 0
M  V30 13245 C 1249.01 -3.33023 5.37846 0
M  V30 13246 C 1247.67 -3.33636 5.78138 0
M  V30 13247 H 1246.94 -0.649793 0.356161 0
M  V30 13248 H 1249.59 -1.22693 1.47033 0
M  V30 13249 H 1247.89 -3.78992 0.993584 0
M  V30 13250 H 1249.59 -3.76358 1.38404 0
M  V30 13251 H 1246.18 -3.29628 2.7394 0
M  V30 13252 H 1250.36 -3.2852 3.72006 0
M  V30 13253 H 1245.62 -3.32194 5.13281 0
M  V30 13254 H 1249.79 -3.32283 6.12014 0
M  V30 13255 H 1247.42 -3.33671 6.83058 0
M  V30 13256 N 1248.99 -0.981699 -1.2329 0
M  V30 13257 C 1250.22 -0.66937 -1.95773 0
M  V30 13258 C 1250.64 0.763898 -1.72656 0
M  V30 13259 O 1249.99 1.51418 -1.01876 0
M  V30 13260 C 1250.05 -0.951863 -3.48743 0
M  V30 13261 O 1249.77 -2.3288 -3.71078 0
M  V30 13262 C 1251.27 -0.655668 -4.38424 0
M  V30 13263 H 1248.49 -0.248545 -0.623271 0
M  V30 13264 H 1251.03 -1.31343 -1.56746 0
M  V30 13265 H 1249.19 -0.353787 -3.85781 0
M  V30 13266 H 1249.6 -2.41948 -4.65362 0
M  V30 13267 H 1251.07 -0.903683 -5.44553 0
M  V30 13268 H 1251.55 0.410269 -4.3728 0
M  V30 13269 H 1252.16 -1.23428 -4.06996 0
M  V30 13270 N 1250.47 1.3842 -0.753509 0
M  V30 13271 C 1251.88 1.82847 -0.377331 0
M  V30 13272 C 1252.23 1.62867 1.09401 0
M  V30 13273 O 1251.36 1.12981 1.84565 0
M  V30 13274 C 1251.95 3.31945 -0.678095 0
M  V30 13275 C 1250.51 3.7472 -0.355196 0
M  V30 13276 C 1249.66 2.61193 -0.931311 0
M  V30 13277 H 1252.61 1.2715 -0.949667 0
M  V30 13278 H 1252.63 3.80475 0.0437292 0
M  V30 13279 H 1252.14 3.46455 -1.74902 0
M  V30 13280 H 1250.25 3.65789 0.70915 0
M  V30 13281 H 1250.36 4.71487 -0.850693 0
M  V30 13282 H 1248.72 2.5219 -0.356695 0
M  V30 13283 H 1249.51 2.78503 -2.00727 0
M  V30 13284 N 1251.95 0.502579 1.49372 0
M  V30 13285 C 1253.18 -0.0403087 2.07361 0
M  V30 13286 C 1253.6 -1.29918 1.36026 0
M  V30 13287 O 1252.96 -1.76428 0.417488 0
M  V30 13288 C 1253.01 -0.275362 3.59547 0
M  V30 13289 O 1252.11 -1.34975 3.89686 0
M  V30 13290 H 1251.45 0.0269268 0.663454 0
M  V30 13291 H 1253.98 0.702652 1.92156 0
M  V30 13292 H 1253.99 -0.506392 4.04845 0
M  V30 13293 H 1252.67 0.644382 4.10878 0
M  V30 13294 H 1251.24 -1.10355 3.56197 0
M  V30 13295 N 1253.43 -1.55816 0.23648 0
M  V30 13296 C 1254.68 -1.98294 -0.390373 0
M  V30 13297 C 1255 -1.12573 -1.59224 0
M  V30 13298 O 1254.27 -0.206128 -1.94813 0
M  V30 13299 H 1252.85 -0.732349 -0.14722 0
M  V30 13300 H 1255.51 -1.92037 0.332848 0
M  V30 13301 H 1254.61 -3.03996 -0.706595 0
M  V30 13302 N 1254.91 0.036755 -1.57557 0
M  V30 13303 C 1256.13 0.744813 -1.93565 0
M  V30 13304 C 1256.56 1.68508 -0.835863 0
M  V30 13305 O 1255.91 1.80091 0.208986 0
M  V30 13306 C 1255.96 1.48461 -3.28621 0
M  V30 13307 O 1255.07 2.59739 -3.20327 0
M  V30 13308 H 1254.41 0.200866 -0.632889 0
M  V30 13309 H 1256.94 -0.00547543 -2.04599 0
M  V30 13310 H 1256.95 1.85622 -3.63329 0
M  V30 13311 H 1255.62 0.794953 -4.08232 0
M  V30 13312 H 1254.2 2.25176 -2.97237 0
M  V30 13313 N 1256.39 1.54543 0.308881 0
M  V30 13314 C 1257.32 1.79818 1.40502 0
M  V30 13315 C 1258.3 0.648927 1.4909 0
M  V30 13316 O 1259.48 0.888009 1.66273 0
M  V30 13317 C 1256.61 1.92787 2.7848 0
M  V30 13318 C 1255.65 3.15167 2.87353 0
M  V30 13319 S 1256.49 4.73427 2.50255 0
M  V30 13320 C 1257.64 4.89321 3.90276 0
M  V30 13321 H 1257.88 2.7251 1.18852 0
M  V30 13322 H 1255.41 1.45854 0.506551 0
M  V30 13323 H 1257.37 2.00944 3.57955 0
M  V30 13324 H 1256.03 1.01047 2.97403 0
M  V30 13325 H 1255.22 3.2102 3.88538 0
M  V30 13326 H 1254.82 3.05416 2.15864 0
M  V30 13327 H 1257.11 4.7286 4.8519 0
M  V30 13328 H 1258.06 5.91418 3.89398 0
M  V30 13329 H 1258.47 4.17524 3.79913 0
M  V30 13330 N 1257.86 -0.571685 1.46866 0
M  V30 13331 C 1259.27 -1.15383 1.46778 0
M  V30 13332 C 1259.63 -1.95023 0.214576 0
M  V30 13333 O 1258.75 -2.05386 -0.681574 0
M  V30 13334 C 1259.35 -2.09915 2.65935 0
M  V30 13335 C 1257.9 -2.6343 2.68852 0
M  V30 13336 C 1257.05 -1.39517 2.39646 0
M  V30 13337 H 1260 -0.359036 1.54585 0
M  V30 13338 H 1260.02 -2.9356 2.42081 0
M  V30 13339 H 1259.54 -1.51923 3.57129 0
M  V30 13340 H 1257.64 -3.2526 1.8176 0
M  V30 13341 H 1257.75 -3.05412 3.69134 0
M  V30 13342 H 1256.11 -1.69702 1.8993 0
M  V30 13343 H 1256.9 -0.833399 3.33031 0
M  V30 13344 N 1259.34 -1.34755 -0.817236 0
M  V30 13345 C 1260.27 -1.29452 -1.94331 0
M  V30 13346 C 1261.25 -0.170902 -1.69239 0
M  V30 13347 O 1262.44 -0.364173 -1.90755 0
M  V30 13348 C 1259.57 -1.05497 -3.30889 0
M  V30 13349 C 1258.52 -2.14386 -3.70436 0
M  V30 13350 C 1257.85 -1.75612 -5.05039 0
M  V30 13351 C 1259.15 -3.56265 -3.81933 0
M  V30 13352 H 1260.84 -2.23672 -1.99025 0
M  V30 13353 H 1258.39 -1.07674 -0.956159 0
M  V30 13354 H 1260.34 -1.0043 -4.09257 0
M  V30 13355 H 1259.06 -0.0772059 -3.26509 0
M  V30 13356 H 1257.72 -2.18532 -2.94345 0
M  V30 13357 H 1257.37 -0.764809 -4.97152 0
M  V30 13358 H 1257.07 -2.48495 -5.3247 0
M  V30 13359 H 1258.6 -1.72051 -5.85859 0
M  V30 13360 H 1260.01 -3.545 -4.50558 0
M  V30 13361 H 1258.41 -4.27818 -4.20822 0
M  V30 13362 H 1259.48 -3.93192 -2.83775 0
M  V30 13363 N 1260.82 1.03812 -1.18578 0
M  V30 13364 C 1262.04 1.8124 -1.00831 0
M  V30 13365 C 1262.47 1.82917 0.43853 0
M  V30 13366 O 1261.83 1.24835 1.31476 0
M  V30 13367 C 1261.88 3.24592 -1.57075 0
M  V30 13368 O 1260.98 4.04688 -0.793824 0
M  V30 13369 H 1260.32 0.559846 -0.357028 0
M  V30 13370 H 1262.85 1.30724 -1.57393 0
M  V30 13371 H 1262.86 3.75363 -1.59896 0
M  V30 13372 H 1261.54 3.22686 -2.62387 0
M  V30 13373 H 1260.11 3.63359 -0.838134 0
M  V30 13374 N 1262.3 0.988223 1.22768 0
M  V30 13375 C 1263.52 0.679426 1.95955 0
M  V30 13376 C 1263.95 -0.748483 1.72567 0
M  V30 13377 O 1263.31 -1.51097 1.00197 0
M  V30 13378 C 1263.35 0.985284 3.46878 0
M  V30 13379 O 1262.46 0.0814607 4.1232 0
M  V30 13380 H 1261.8 0.254749 0.613188 0
M  V30 13381 H 1264.33 1.32393 1.55991 0
M  V30 13382 H 1264.34 0.925198 3.97371 0
M  V30 13383 H 1263.01 2.02581 3.63227 0
M  V30 13384 H 1261.59 0.196629 3.72381 0
M  V30 13385 N 1263.78 -1.38018 0.760839 0
M  V30 13386 C 1265 -2.04231 0.331285 0
M  V30 13387 C 1265.42 -1.57385 -1.04285 0
M  V30 13388 O 1264.78 -0.750168 -1.66369 0
M  V30 13389 C 1264.83 -3.59772 0.353021 0
M  V30 13390 O 1264.55 -4.049 1.67294 0
M  V30 13391 C 1266.05 -4.4321 -0.0894942 0
M  V30 13392 H 1263.27 -0.656145 0.140408 0
M  V30 13393 H 1265.81 -1.76567 1.03172 0
M  V30 13394 H 1263.97 -3.86246 -0.298735 0
M  V30 13395 H 1264.38 -4.99369 1.60408 0
M  V30 13396 H 1265.86 -5.51995 -0.0231262 0
M  V30 13397 H 1266.33 -4.2419 -1.13839 0
M  V30 13398 H 1266.94 -4.21939 0.533661 0
M  V30 13399 N 1265.25 -0.510493 -1.49103 0
M  V30 13400 C 1266.5 0.0305831 -2.02077 0
M  V30 13401 C 1266.82 1.36602 -1.39157 0
M  V30 13402 O 1266.09 1.88016 -0.550154 0
M  V30 13403 H 1264.67 0.0142916 -0.746863 0
M  V30 13404 H 1267.33 -0.669895 -1.83026 0
M  V30 13405 H 1266.43 0.153283 -3.11723 0
M  V30 13406 N 1266.73 1.55688 -0.24474 0
M  V30 13407 C 1268.01 1.90796 0.430821 0
M  V30 13408 C 1268.39 1.1652 1.76029 0
M  V30 13409 O 1267.74 0.281978 2.26753 0
M  V30 13410 C 1267.95 3.43786 0.601027 0
M  V30 13411 C 1269.29 4.14998 0.897894 0
M  V30 13412 O 1270.32 3.49513 0.68697 0
M  V30 13413 O 1269.18 5.30826 1.29945 0
M  V30 13414 H 1266.27 0.794086 0.230991 0
M  V30 13415 H 1268.82 1.67227 -0.288646 0
M  V30 13416 H 1267.59 3.89856 -0.335804 0
M  V30 13417 H 1267.21 3.73211 1.37112 0
M  V30 13418 N 1268.21 -0.0283989 1.57574 0
M  V30 13419 C 1269.46 -0.717656 1.88929 0
M  V30 13420 C 1269.78 -1.7586 0.842517 0
M  V30 13421 O 1269.05 -1.95509 -0.123774 0
M  V30 13422 H 1267.63 -0.268051 0.69725 0
M  V30 13423 H 1270.29 0.00580691 1.94899 0
M  V30 13424 H 1269.39 -1.2068 2.87824 0
M  V30 13425 N 1269.69 -1.54705 -0.300681 0
M  V30 13426 C 1270.94 -1.73211 -1.03349 0
M  V30 13427 C 1271.25 -0.52518 -1.88418 0
M  V30 13428 O 1272.46 -0.592049 -2.64966 0
M  V30 13429 C 1270.91 -3.06453 -1.88717 0
M  V30 13430 C 1270.52 -4.34625 -1.0865 0
M  V30 13431 C 1272.26 -3.34317 -2.61595 0
M  V30 13432 C 1270.17 -5.58919 -1.93297 0
M  V30 13433 H 1269.1 -0.64556 -0.389574 0
M  V30 13434 H 1271.75 -1.81186 -0.290472 0
M  V30 13435 H 1270.13 -2.92443 -2.67008 0
M  V30 13436 H 1271.31 -4.59471 -0.349707 0
M  V30 13437 H 1269.62 -4.13699 -0.473521 0
M  V30 13438 H 1272.22 -4.2438 -3.25278 0
M  V30 13439 H 1272.56 -2.53207 -3.30442 0
M  V30 13440 H 1273.1 -3.493 -1.90354 0
M  V30 13441 H 1269.83 -6.42697 -1.2892 0
M  V30 13442 H 1269.35 -5.38258 -2.64647 0
M  V30 13443 H 1271.03 -5.96187 -2.51336 0
M  V30 13444 N 1271.17 0.563888 -1.47167 0
M  V30 13445 C 1272.39 1.35176 -1.57297 0
M  V30 13446 C 1272.82 1.86794 -0.221235 0
M  V30 13447 O 1272.17 1.62606 0.801809 0
M  V30 13448 C 1272.22 2.50225 -2.59654 0
M  V30 13449 O 1271.33 3.5225 -2.14461 0
M  V30 13450 H 1270.67 0.401795 -0.528637 0
M  V30 13451 H 1273.2 0.682137 -1.92894 0
M  V30 13452 H 1273.21 2.96886 -2.79862 0
M  V30 13453 H 1271.88 2.1201 -3.57805 0
M  V30 13454 H 1270.46 3.1194 -2.04323 0
M  V30 13455 N 1272.64 1.35187 0.810078 0
M  V30 13456 C 1273.92 1.18832 1.55365 0
M  V30 13457 C 1274.3 -0.233956 2.098 0
M  V30 13458 O 1273.65 -1.23701 1.92121 0
M  V30 13459 C 1273.86 2.25351 2.66492 0
M  V30 13460 C 1275.21 2.60981 3.34924 0
M  V30 13461 O 1276.23 2.24238 2.7676 0
M  V30 13462 O 1275.09 3.24147 4.3999 0
M  V30 13463 H 1272.18 0.461446 0.686292 0
M  V30 13464 H 1274.73 1.46858 0.850341 0
M  V30 13465 H 1273.5 3.20762 2.24115 0
M  V30 13466 H 1273.13 1.98575 3.44462 0
M  V30 13467 N 1274.12 -1.03182 1.19127 0
M  V30 13468 C 1275.35 -1.80703 1.01791 0
M  V30 13469 C 1275.77 -1.83147 -0.428824 0
M  V30 13470 O 1275.13 -1.2553 -1.30812 0
M  V30 13471 C 1275.18 -3.23754 1.58794 0
M  V30 13472 O 1274.28 -4.04261 0.815274 0
M  V30 13473 H 1273.62 -0.557944 0.359992 0
M  V30 13474 H 1276.15 -1.29887 1.58084 0
M  V30 13475 H 1276.16 -3.7451 1.61884 0
M  V30 13476 H 1274.84 -3.2129 2.64094 0
M  V30 13477 H 1273.42 -3.62909 0.857392 0
M  V30 13478 N 1275.6 -0.99472 -1.22242 0
M  V30 13479 C 1276.85 -0.672596 -1.91322 0
M  V30 13480 C 1277.18 0.793542 -1.77247 0
M  V30 13481 O 1276.45 1.57407 -1.14251 0
M  V30 13482 C 1276.74 -1.08155 -3.43474 0
M  V30 13483 C 1276.59 -2.60638 -3.6659 0
M  V30 13484 C 1277.91 -0.636161 -4.35478 0
M  V30 13485 H 1275.03 -0.24582 -0.694796 0
M  V30 13486 H 1277.67 -1.23857 -1.44082 0
M  V30 13487 H 1275.82 -0.599987 -3.83839 0
M  V30 13488 H 1277.49 -3.16479 -3.35617 0
M  V30 13489 H 1275.74 -3.02624 -3.10808 0
M  V30 13490 H 1276.41 -2.84304 -4.73155 0
M  V30 13491 H 1278.88 -1.04982 -4.02639 0
M  V30 13492 H 1277.76 -0.950584 -5.40606 0
M  V30 13493 H 1278.02 0.4631 -4.39668 0
M  V30 13494 N 1277.08 1.37613 -0.768148 0
M  V30 13495 C 1278.32 2.00532 -0.340335 0
M  V30 13496 C 1278.68 1.59885 1.07026 0
M  V30 13497 O 1277.97 0.833239 1.72533 0
M  V30 13498 C 1278.17 3.54952 -0.417608 0
M  V30 13499 C 1278 4.10595 -1.83417 0
M  V30 13500 C 1276.77 4.41708 -2.45402 0
M  V30 13501 C 1278.96 4.31844 -2.79312 0
M  V30 13502 N 1276.95 4.83045 -3.78868 0
M  V30 13503 C 1278.32 4.75751 -3.97569 0
M  V30 13504 C 1280.37 4.13971 -2.76645 0
M  V30 13505 C 1279.07 5.03656 -5.13539 0
M  V30 13506 C 1281.1 4.4301 -3.91786 0
M  V30 13507 C 1280.46 4.87153 -5.08784 0
M  V30 13508 H 1276.56 0.762961 -0.171505 0
M  V30 13509 H 1279.15 1.66984 -1.00121 0
M  V30 13510 H 1277.32 3.87815 0.213071 0
M  V30 13511 H 1279.05 4.04687 0.0319154 0
M  V30 13512 H 1275.8 4.30661 -1.97048 0
M  V30 13513 H 1276.23 5.08028 -4.47478 0
M  V30 13514 H 1280.87 3.79017 -1.87365 0
M  V30 13515 H 1278.59 5.375 -6.03423 0
M  V30 13516 H 1282.17 4.30772 -3.91059 0
M  V30 13517 H 1281.05 5.09192 -5.964 0
M  V30 13518 N 1278.56 0.518393 1.4883 0
M  V30 13519 C 1279.78 -0.0162 2.06894 0
M  V30 13520 C 1280.2 -1.29222 1.37649 0
M  V30 13521 O 1279.56 -1.766 0.460288 0
M  V30 13522 C 1279.61 -0.255836 3.60594 0
M  V30 13523 O 1279.33 0.969612 4.27235 0
M  V30 13524 C 1280.83 -0.832117 4.3542 0
M  V30 13525 H 1278.05 0.0282877 0.670403 0
M  V30 13526 H 1280.59 0.720726 1.91379 0
M  V30 13527 H 1278.75 -0.942782 3.75753 0
M  V30 13528 H 1279.16 0.743172 5.19208 0
M  V30 13529 H 1280.64 -0.949279 5.43776 0
M  V30 13530 H 1281.11 -1.83421 3.99066 0
M  V30 13531 H 1281.72 -0.1821 4.2491 0
M  V30 13532 N 1280.03 -1.55556 0.252993 0
M  V30 13533 C 1281.45 -1.85032 -0.249011 0
M  V30 13534 C 1281.8 -1.17488 -1.57134 0
M  V30 13535 O 1280.92 -0.455387 -2.11554 0
M  V30 13536 C 1281.52 -3.35682 -0.458589 0
M  V30 13537 C 1280.08 -3.65362 -0.90485 0
M  V30 13538 C 1279.22 -2.77296 0.0144927 0
M  V30 13539 H 1282.17 -1.51412 0.475394 0
M  V30 13540 H 1282.19 -3.57591 -1.30034 0
M  V30 13541 H 1281.71 -3.84814 0.503981 0
M  V30 13542 H 1279.81 -3.21713 -1.87967 0
M  V30 13543 H 1279.92 -4.73074 -0.757492 0
M  V30 13544 H 1278.28 -2.49785 -0.497954 0
M  V30 13545 H 1279.07 -3.29236 0.972546 0
M  V30 13546 N 1281.51 0.0200419 -1.57587 0
M  V30 13547 C 1282.74 0.724241 -1.94344 0
M  V30 13548 C 1283.16 1.67612 -0.853688 0
M  V30 13549 O 1282.52 1.80303 0.189873 0
M  V30 13550 C 1282.57 1.44967 -3.30177 0
M  V30 13551 O 1281.67 2.56326 -3.23064 0
M  V30 13552 H 1281.01 0.194142 -0.634984 0
M  V30 13553 H 1283.54 -0.0271756 -2.04582 0
M  V30 13554 H 1283.55 1.81758 -3.65278 0
M  V30 13555 H 1282.23 0.75161 -4.09052 0
M  V30 13556 H 1280.81 2.22011 -2.99609 0
M  V30 13557 N 1282.99 1.54862 0.292472 0
M  V30 13558 C 1283.94 1.87168 1.38097 0
M  V30 13559 C 1284.93 0.746176 1.52081 0
M  V30 13560 O 1286.14 0.930281 1.54097 0
M  V30 13561 H 1282.51 0.593769 0.461456 0
M  V30 13562 H 1284.48 2.78135 1.0809 0
M  V30 13563 C 1283.23 2.14315 2.73796 0
M  V30 13564 H 1282.56 3.00398 2.63821 0
M  V30 13565 H 1284 2.40853 3.48949 0
M  V30 13566 C 1282.46 0.944424 3.23392 0
M  V30 13567 O 1282.99 0.169208 4.01343 0
M  V30 13568 N 1281.19 0.747456 2.80823 0
M  V30 13569 H 1280.74 1.37953 2.17547 0
M  V30 13570 H 1280.7 -0.0530199 3.14355 0
M  V30 13571 N 1284.47 -0.556076 1.47464 0
M  V30 13572 C 1285.42 -1.66304 1.60036 0
M  V30 13573 C 1286.39 -1.60074 0.443348 0
M  V30 13574 O 1287.57 -1.7889 0.663545 0
M  V30 13575 C 1284.71 -3.04624 1.62167 0
M  V30 13576 C 1283.82 -3.21283 2.88793 0
M  V30 13577 C 1282.96 -4.50008 2.82252 0
M  V30 13578 C 1282 -4.60103 4.03698 0
M  V30 13579 N 1281.13 -5.80184 3.95387 0
M  V30 13580 H 1285.97 -1.54897 2.5458 0
M  V30 13581 H 1283.51 -0.754533 1.26274 0
M  V30 13582 H 1285.47 -3.84721 1.61386 0
M  V30 13583 H 1284.1 -3.14865 0.711348 0
M  V30 13584 H 1283.15 -2.34611 2.99436 0
M  V30 13585 H 1284.46 -3.24607 3.78724 0
M  V30 13586 H 1283.62 -5.38366 2.79726 0
M  V30 13587 H 1282.36 -4.49165 1.90005 0
M  V30 13588 H 1281.36 -3.70157 4.06527 0
M  V30 13589 H 1282.59 -4.62704 4.97073 0
M  V30 13590 H 1280.53 -5.80288 3.05944 0
M  V30 13591 H 1280.45 -5.8489 4.78998 0
M  V30 13592 H 1281.72 -6.709 3.96879 0
M  V30 13593 N 1285.95 -1.35615 -0.802897 0
M  V30 13594 C 1287.36 -1.26062 -1.37715 0
M  V30 13595 C 1287.71 0.105411 -1.95917 0
M  V30 13596 O 1286.83 1.00648 -1.91569 0
M  V30 13597 C 1287.43 -2.28261 -2.50365 0
M  V30 13598 C 1285.99 -2.22437 -3.03642 0
M  V30 13599 C 1285.14 -2.1377 -1.76629 0
M  V30 13600 H 1288.09 -1.46689 -0.605631 0
M  V30 13601 H 1288.11 -1.91122 -3.29017 0
M  V30 13602 H 1287.62 -3.27671 -2.07975 0
M  V30 13603 H 1285.72 -1.2645 -3.50487 0
M  V30 13604 H 1285.83 -3.14558 -3.61373 0
M  V30 13605 H 1284.2 -1.59806 -1.98328 0
M  V30 13606 H 1284.98 -3.15046 -1.36385 0
M  V30 13607 N 1287.43 1.02549 -1.19673 0
M  V30 13608 C 1288.67 1.75408 -0.995732 0
M  V30 13609 C 1288.99 1.89773 0.473863 0
M  V30 13610 O 1290.19 2.59638 0.793762 0
M  V30 13611 C 1288.65 3.15444 -1.73273 0
M  V30 13612 C 1288.26 3.09121 -3.24266 0
M  V30 13613 C 1290 3.92575 -1.61509 0
M  V30 13614 C 1287.91 4.44109 -3.9054 0
M  V30 13615 H 1286.84 0.657569 -0.368944 0
M  V30 13616 H 1289.49 1.14739 -1.43203 0
M  V30 13617 H 1287.87 3.76601 -1.22425 0
M  V30 13618 H 1289.05 2.57325 -3.82257 0
M  V30 13619 H 1287.36 2.45485 -3.36342 0
M  V30 13620 H 1289.96 4.92428 -2.08372 0
M  V30 13621 H 1290.3 4.12382 -0.569804 0
M  V30 13622 H 1290.83 3.38027 -2.09721 0
M  V30 13623 H 1287.57 4.29506 -4.95182 0
M  V30 13624 H 1287.09 4.95947 -3.37337 0
M  V30 13625 H 1288.77 5.12982 -3.94282 0
M  V30 13626 O 1288.94 1.129 1.15481 0
M  V30 13627 H 1289.63 0.842704 1.74408 0
M  V30 END ATOM
M  V30 BEGIN BOND
M  V30 END BOND
M  V30 END CTAB
M  END
$$$$
