drugbank_target|Q8NEV4 Myosin-IIIa (DB12010)
 OpenBabel12092121173D

  0  0  0     0  0            999 V3000
M  V30 BEGIN CTAB
M  V30 COUNTS 26276 26530 0 0 0
M  V30 BEGIN ATOM
M  V30 1 H -0.908 1.98254 -0.117106 0
M  V30 2 N 0 1.576 0 0
M  V30 3 C 0.933 2.03868 1.02534 0
M  V30 4 C 1.911 0.928543 1.3348 0
M  V30 5 O 3.095 1.19667 1.45644 0
M  V30 6 C 0.222 2.43627 2.35294 0
M  V30 7 C -0.732 3.65373 2.2001 0
M  V30 8 S 0.101 5.13292 1.52614 0
M  V30 9 C 1.257 5.56322 2.86805 0
M  V30 10 H 1.49 2.90518 0.631377 0
M  V30 11 H -0.977 1.52953 0.210867 0
M  V30 12 H 0.981 2.67203 3.11629 0
M  V30 13 H -0.358 1.57376 2.7183 0
M  V30 14 H -1.165 3.90944 3.18086 0
M  V30 15 H -1.563 3.418 1.51819 0
M  V30 16 H 0.729 5.58782 3.83104 0
M  V30 17 H 1.672 6.56266 2.65933 0
M  V30 18 H 2.08 4.83886 2.90714 0
M  V30 19 N 1.4781 -0.272755 1.55222 0
M  V30 20 C 2.7251 -1.00433 1.7584 0
M  V30 21 C 3.0531 -1.86275 0.559629 0
M  V30 22 O 2.3081 -1.90269 -0.457857 0
M  V30 23 C 2.6071 -1.91642 3.01675 0
M  V30 24 C 2.2731 -1.21548 4.34208 0
M  V30 25 C 0.9351 -1.02166 4.70229 0
M  V30 26 C 3.2871 -0.716684 5.16249 0
M  V30 27 C 0.6151 -0.316334 5.85847 0
M  V30 28 C 2.9671 -0.0249476 6.32595 0
M  V30 29 C 1.6311 0.180579 6.67256 0
M  V30 30 H 0.9011 -0.367509 0.643443 0
M  V30 31 H 3.5481 -0.276596 1.89492 0
M  V30 32 H 1.8531 -2.71037 2.82924 0
M  V30 33 H 3.5501 -2.48369 3.14824 0
M  V30 34 H 0.1401 -1.37645 4.05896 0
M  V30 35 H 4.3241 -0.854047 4.88896 0
M  V30 36 H -0.4199 -0.146378 6.11225 0
M  V30 37 H 3.7541 0.369311 6.9542 0
M  V30 38 H 1.3811 0.729098 7.56696 0
M  V30 39 N 2.9562 -1.48159 -0.537278 0
M  V30 40 C 4.3672 -1.49429 -1.11928 0
M  V30 41 C 4.7182 -0.26 -1.9447 0
M  V30 42 O 3.8432 0.633489 -2.0692 0
M  V30 43 C 4.4382 -2.70758 -2.03656 0
M  V30 44 C 2.9972 -2.74923 -2.57088 0
M  V30 45 C 2.1442 -2.42835 -1.3389 0
M  V30 46 H 5.0952 -1.55381 -0.322886 0
M  V30 47 H 5.1162 -2.48861 -2.87834 0
M  V30 48 H 4.6282 -3.60575 -1.43553 0
M  V30 49 H 2.7292 -1.89296 -3.20933 0
M  V30 50 H 2.8422 -3.76157 -2.9672 0
M  V30 51 H 1.2062 -1.93836 -1.65226 0
M  V30 52 H 1.9892 -3.34884 -0.755504 0
M  V30 53 N 4.4343 0.785586 -1.36625 0
M  V30 54 C 5.3643 1.91259 -1.33949 0
M  V30 55 C 6.3453 1.68795 -0.210325 0
M  V30 56 O 7.5303 1.89854 -0.408561 0
M  V30 57 C 4.6603 3.28339 -1.13186 0
M  V30 58 C 3.6143 3.65335 -2.22967 0
M  V30 59 C 2.9403 5.00806 -1.87342 0
M  V30 60 C 4.2403 3.7352 -3.65075 0
M  V30 61 H 5.9343 1.93755 -2.28253 0
M  V30 62 H 3.4803 0.930788 -1.09874 0
M  V30 63 H 5.4333 4.06804 -1.09948 0
M  V30 64 H 4.1573 3.2624 -0.153332 0
M  V30 65 H 2.8163 2.89169 -2.25337 0
M  V30 66 H 2.4643 4.95233 -0.880545 0
M  V30 67 H 2.1643 5.26529 -2.60846 0
M  V30 68 H 3.6883 5.81687 -1.85667 0
M  V30 69 H 5.1023 4.42168 -3.64911 0
M  V30 70 H 3.4993 4.10731 -4.37516 0
M  V30 71 H 4.5693 2.74527 -3.99703 0
M  V30 72 N 5.9124 1.20967 1.01018 0
M  V30 73 C 7.1614 1.01796 1.74128 0
M  V30 74 C 7.4744 -0.449691 1.90361 0
M  V30 75 O 8.6804 -0.76068 2.60626 0
M  V30 76 C 7.1364 1.7727 3.13215 0
M  V30 77 C 6.7444 3.28171 3.04972 0
M  V30 78 C 8.4884 1.66489 3.90489 0
M  V30 79 C 6.3954 3.96156 4.39107 0
M  V30 80 H 5.3254 0.377276 0.652824 0
M  V30 81 H 7.9764 1.44651 1.12909 0
M  V30 82 H 6.3584 1.27205 3.75013 0
M  V30 83 H 7.5324 3.85499 2.52443 0
M  V30 84 H 5.8474 3.39437 2.41188 0
M  V30 85 H 8.4444 2.14617 4.89738 0
M  V30 86 H 8.7874 0.6222 4.11624 0
M  V30 87 H 9.3204 2.14003 3.35332 0
M  V30 88 H 6.0594 5.00604 4.23174 0
M  V30 89 H 5.5794 3.43617 4.91617 0
M  V30 90 H 7.2584 4.00774 5.07926 0
M  V30 91 N 7.3905 -1.2043 1.01659 0
M  V30 92 C 8.6385 -1.89423 0.704522 0
M  V30 93 C 8.9595 -1.79231 -0.768197 0
M  V30 94 O 8.2295 -1.1947 -1.55254 0
M  V30 95 H 6.8095 -0.701178 0.257602 0
M  V30 96 H 9.4715 -1.4626 1.28818 0
M  V30 97 H 8.5675 -2.96052 0.987916 0
M  V30 98 N 8.8686 -0.792821 -1.36206 0
M  V30 99 C 9.8156 -0.191653 -2.30003 0
M  V30 100 C 10.7856 0.666453 -1.52143 0
M  V30 101 O 11.9706 0.61442 -1.80636 0
M  V30 102 C 9.1106 0.664848 -3.38635 0
M  V30 103 C 8.2236 -0.212175 -4.31479 0
M  V30 104 C 7.3586 0.651022 -5.27196 0
M  V30 105 C 6.3976 -0.227247 -6.11678 0
M  V30 106 N 5.5346 0.595127 -6.99573 0
M  V30 107 H 10.3746 -0.996978 -2.80828 0
M  V30 108 H 7.9116 -0.503206 -1.38225 0
M  V30 109 H 9.8696 1.17645 -4.00269 0
M  V30 110 H 8.4996 1.43557 -2.89122 0
M  V30 111 H 7.5516 -0.841777 -3.70969 0
M  V30 112 H 8.8636 -0.888751 -4.90818 0
M  V30 113 H 8.0176 1.2283 -5.94136 0
M  V30 114 H 6.7566 1.36121 -4.68319 0
M  V30 115 H 5.7616 -0.816904 -5.43697 0
M  V30 116 H 6.9866 -0.93509 -6.72631 0
M  V30 117 H 4.9326 1.28955 -6.432 0
M  V30 118 H 4.8496 -0.0236952 -7.55996 0
M  V30 119 H 6.1176 1.15613 -7.70879 0
M  V30 120 N 10.3467 1.47872 -0.545128 0
M  V30 121 C 11.5747 2.06889 -0.021084 0
M  V30 122 C 11.9897 1.39955 1.2672 0
M  V30 123 O 11.3467 0.492036 1.75742 0
M  V30 124 C 11.3977 3.60996 0.190817 0
M  V30 125 O 11.1187 4.25419 -1.04644 0
M  V30 126 C 12.6197 4.36849 0.753521 0
M  V30 127 H 9.8397 0.669785 -0.0403635 0
M  V30 128 H 12.3837 1.90049 -0.755095 0
M  V30 129 H 10.5387 3.77391 0.87492 0
M  V30 130 H 10.9527 5.17785 -0.836611 0
M  V30 131 H 12.4267 5.45399 0.851139 0
M  V30 132 H 12.9037 4.02306 1.762 0
M  V30 133 H 13.5097 4.25169 0.105503 0
M  V30 134 N 11.8248 0.280983 1.55075 0
M  V30 135 C 13.0738 -0.334784 1.98902 0
M  V30 136 C 13.3868 -1.56534 1.17288 0
M  V30 137 O 14.5928 -2.25443 1.51287 0
M  V30 138 C 13.0488 -0.646994 3.54037 0
M  V30 139 C 12.6568 0.564085 4.44435 0
M  V30 140 C 14.4008 -1.22506 4.06439 0
M  V30 141 C 12.3078 0.226137 5.90967 0
M  V30 142 H 11.2378 -0.128866 0.742906 0
M  V30 143 H 13.8888 0.386556 1.79382 0
M  V30 144 H 12.2708 -1.42739 3.6938 0
M  V30 145 H 13.4448 1.34082 4.40861 0
M  V30 146 H 11.7598 1.0594 4.02698 0
M  V30 147 H 14.3568 -1.49182 5.13468 0
M  V30 148 H 14.6998 -2.16085 3.55827 0
M  V30 149 H 15.2328 -0.50682 3.94558 0
M  V30 150 H 11.9718 1.12996 6.45687 0
M  V30 151 H 11.4918 -0.513717 5.97596 0
M  V30 152 H 13.1708 -0.179539 6.46751 0
M  V30 153 N 13.3029 -1.57598 0.00835791 0
M  V30 154 C 14.5519 -1.90107 -0.673968 0
M  V30 155 C 14.8649 -0.884275 -1.7447 0
M  V30 156 O 16.0709 -1.09987 -2.48224 0
M  V30 157 C 14.5269 -3.37497 -1.24995 0
M  V30 158 C 14.1349 -4.47491 -0.2136 0
M  V30 159 C 15.8789 -3.79104 -1.90999 0
M  V30 160 C 13.7859 -5.85963 -0.80005 0
M  V30 161 H 12.7159 -0.709393 -0.255495 0
M  V30 162 H 15.3669 -1.83365 0.0702693 0
M  V30 163 H 13.7489 -3.39102 -2.04513 0
M  V30 164 H 14.9229 -4.57414 0.557596 0
M  V30 165 H 13.2379 -4.14956 0.346474 0
M  V30 166 H 15.8349 -4.79901 -2.35795 0
M  V30 167 H 16.1779 -3.1306 -2.74407 0
M  V30 168 H 16.7109 -3.79833 -1.18203 0
M  V30 169 H 13.4499 -6.555 -0.00456708 0
M  V30 170 H 12.9699 -5.79687 -1.54021 0
M  V30 171 H 14.6489 -6.33884 -1.29615 0
M  V30 172 N 14.781 0.264519 -1.55364 0
M  V30 173 C 16.028 0.994986 -1.7637 0
M  V30 174 C 16.356 1.85976 -0.5695 0
M  V30 175 O 15.611 1.90509 0.44776 0
M  V30 176 C 15.91 1.9004 -3.02687 0
M  V30 177 C 15.576 1.19243 -4.34847 0
M  V30 178 C 14.238 0.996709 -4.70764 0
M  V30 179 C 16.59 0.689296 -5.16622 0
M  V30 180 C 13.918 0.285261 -5.86006 0
M  V30 181 C 16.27 -0.00860079 -6.32599 0
M  V30 182 C 14.934 -0.215963 -6.67151 0
M  V30 183 H 14.204 0.364091 -0.645383 0
M  V30 184 H 16.851 0.266543 -1.89636 0
M  V30 185 H 15.156 2.69533 -2.84357 0
M  V30 186 H 16.853 2.46695 -3.16137 0
M  V30 187 H 13.443 1.3549 -4.06621 0
M  V30 188 H 17.627 0.828108 -4.89342 0
M  V30 189 H 12.883 0.113961 -6.11294 0
M  V30 190 H 17.057 -0.406186 -6.95214 0
M  V30 191 H 14.684 -0.769217 -7.56298 0
M  V30 192 N 16.2591 1.48442 0.529413 0
M  V30 193 C 17.5361 1.46978 1.29062 0
M  V30 194 C 17.9161 0.181769 2.10316 0
M  V30 195 O 17.2641 -0.836481 2.12639 0
M  V30 196 C 17.4741 2.7321 2.17157 0
M  V30 197 C 18.8221 3.21562 2.77278 0
M  V30 198 O 19.8461 2.74131 2.27444 0
M  V30 199 O 18.7051 4.04094 3.67927 0
M  V30 200 H 15.7991 0.587003 0.582543 0
M  V30 201 H 18.3451 1.60676 0.546021 0
M  V30 202 H 17.1171 3.58465 1.56903 0
M  V30 203 H 16.7401 2.62235 2.98862 0
M  V30 204 N 17.7372 -0.778329 1.37039 0
M  V30 205 C 18.6852 -1.91278 1.32345 0
M  V30 206 C 19.6792 -1.68051 0.213331 0
M  V30 207 O 20.8852 -1.75922 0.38098 0
M  V30 208 H 17.2602 -0.628909 0.412283 0
M  V30 209 H 19.2312 -1.92355 2.28127 0
M  V30 210 C 17.9802 -3.28455 1.14073 0
M  V30 211 H 17.3032 -3.46901 1.98746 0
M  V30 212 H 18.7432 -4.08152 1.14837 0
M  V30 213 C 17.2022 -3.36548 -0.154015 0
M  V30 214 O 17.7322 -3.85186 -1.13993 0
M  V30 215 N 15.9382 -2.89894 -0.202475 0
M  V30 216 H 15.4852 -2.50504 0.600476 0
M  V30 217 H 15.4432 -2.9569 -1.06841 0
M  V30 218 N 19.2153 -1.21501 -1.00376 0
M  V30 219 C 20.4623 -1.03299 -1.74171 0
M  V30 220 C 20.7903 0.433326 -1.89612 0
M  V30 221 O 20.0453 1.33779 -1.42834 0
M  V30 222 C 20.3443 -1.67673 -3.15627 0
M  V30 223 C 20.0103 -3.17533 -3.2013 0
M  V30 224 C 18.6723 -3.58427 -3.21067 0
M  V30 225 C 21.0243 -4.13504 -3.17275 0
M  V30 226 C 18.3523 -4.93794 -3.16835 0
M  V30 227 C 20.7043 -5.48834 -3.14585 0
M  V30 228 C 19.3683 -5.89123 -3.13831 0
M  V30 229 H 18.6383 -0.377999 -0.637336 0
M  V30 230 H 21.2853 -1.51111 -1.17634 0
M  V30 231 H 19.5903 -1.12158 -3.75404 0
M  V30 232 H 21.2873 -1.51091 -3.71446 0
M  V30 233 H 17.8773 -2.84965 -3.20145 0
M  V30 234 H 22.0613 -3.82936 -3.15711 0
M  V30 235 H 17.3173 -5.24255 -3.1459 0
M  V30 236 H 21.4913 -6.22934 -3.1133 0
M  V30 237 H 19.1183 -6.93984 -3.10307 0
M  V30 238 N 20.6934 1.19889 -1.02296 0
M  V30 239 C 22.1044 1.71124 -0.746568 0
M  V30 240 C 22.4554 1.81939 0.734335 0
M  V30 241 O 21.5804 1.48639 1.57275 0
M  V30 242 C 22.1754 3.10804 -1.34857 0
M  V30 243 C 20.7344 3.59323 -1.1209 0
M  V30 244 C 19.8814 2.3635 -1.45031 0
M  V30 245 H 22.8324 1.04813 -1.19163 0
M  V30 246 H 22.8534 3.73186 -0.742437 0
M  V30 247 H 22.3654 3.029 -2.42638 0
M  V30 248 H 20.4664 3.7255 -0.0610337 0
M  V30 249 H 20.5794 4.4378 -1.80544 0
M  V30 250 H 18.9434 2.39399 -0.869487 0
M  V30 251 H 19.7264 2.31081 -2.53883 0
M  V30 252 N 22.1715 0.800033 1.35784 0
M  V30 253 C 23.4485 0.30088 1.93272 0
M  V30 254 C 23.8285 -1.20857 1.73081 0
M  V30 255 O 23.1765 -2.00502 1.09596 0
M  V30 256 C 23.3865 0.70511 3.41803 0
M  V30 257 C 24.7345 0.690871 4.18942 0
M  V30 258 O 25.7585 0.646244 3.50289 0
M  V30 259 O 24.6175 0.74332 5.41421 0
M  V30 260 H 21.7115 0.0771605 0.823393 0
M  V30 261 H 24.2575 0.88329 1.449 0
M  V30 262 H 23.0295 1.74571 3.50201 0
M  V30 263 H 22.6525 0.0971541 3.97481 0
M  V30 264 N 23.6496 -1.47581 0.552962 0
M  V30 265 C 25.0606 -1.86324 0.118463 0
M  V30 266 C 25.4116 -1.46006 -1.3106 0
M  V30 267 O 24.5366 -0.861182 -1.98526 0
M  V30 268 C 25.1316 -3.3816 0.20821 0
M  V30 269 C 23.6906 -3.7601 -0.171226 0
M  V30 270 C 22.8376 -2.71634 0.557686 0
M  V30 271 H 25.7886 -1.39159 0.762928 0
M  V30 272 H 25.8096 -3.76141 -0.574278 0
M  V30 273 H 25.3216 -3.67473 1.24841 0
M  V30 274 H 23.4226 -3.52313 -1.21269 0
M  V30 275 H 23.5356 -4.78745 0.184379 0
M  V30 276 H 21.8996 -2.547 0.00125792 0
M  V30 277 H 22.6826 -3.0379 1.59896 0
M  V30 278 N 25.1277 -0.289203 -1.54924 0
M  V30 279 C 26.3527 0.329299 -2.04769 0
M  V30 280 C 26.7777 1.4763 -1.16564 0
M  V30 281 O 26.1357 1.80527 -0.167186 0
M  V30 282 C 26.1837 0.774438 -3.52186 0
M  V30 283 O 25.2877 1.88038 -3.67036 0
M  V30 284 H 24.6287 0.0659259 -0.660719 0
M  V30 285 H 27.1587 -0.42761 -2.00082 0
M  V30 286 H 27.1687 1.06642 -3.93816 0
M  V30 287 H 25.8437 -0.0646707 -4.1585 0
M  V30 288 H 24.4207 1.58985 -3.3731 0
M  V30 289 N 26.6058 1.57591 -0.0167156 0
M  V30 290 C 27.8828 1.82547 0.702564 0
M  V30 291 C 28.2628 0.898018 1.91047 0
M  V30 292 O 27.6108 -0.0493456 2.28447 0
M  V30 293 C 27.8208 3.31459 1.09251 0
M  V30 294 C 29.1688 3.97622 1.48937 0
M  V30 295 O 30.1928 3.35881 1.18584 0
M  V30 296 O 29.0518 5.06415 2.05442 0
M  V30 297 H 26.1458 0.752268 0.343544 0
M  V30 298 H 28.6918 1.69644 -0.0434495 0
M  V30 299 H 27.4638 3.9061 0.23227 0
M  V30 300 H 27.0868 3.49422 1.89709 0
M  V30 301 N 28.0839 -0.256276 1.55502 0
M  V30 302 C 29.3119 -1.00342 1.8094 0
M  V30 303 C 29.7269 -1.79307 0.59114 0
M  V30 304 O 29.0839 -1.77114 -0.440081 0
M  V30 305 C 29.1349 -1.94875 3.04476 0
M  V30 306 O 28.8559 -1.19107 4.21598 0
M  V30 307 C 30.3569 -2.81266 3.42644 0
M  V30 308 H 27.5769 -0.295685 0.602338 0
M  V30 309 H 30.1209 -0.281998 2.02546 0
M  V30 310 H 28.2759 -2.62457 2.84947 0
M  V30 311 H 28.6899 -1.82969 4.91551 0
M  V30 312 H 30.1639 -3.43362 4.32211 0
M  V30 313 H 30.6409 -3.51897 2.62802 0
M  V30 314 H 31.2469 -2.1915 3.64491 0
M  V30 315 N 29.562 -1.4872 -0.521534 0
M  V30 316 C 30.808 -1.58378 -1.27624 0
M  V30 317 C 31.163 -0.258028 -1.90662 0
M  V30 318 O 30.456 0.739917 -1.76736 0
M  V30 319 C 30.65 -2.66497 -2.38148 0
M  V30 320 C 30.479 -4.09456 -1.85945 0
M  V30 321 C 29.249 -4.76495 -1.68168 0
M  V30 322 C 31.447 -4.95353 -1.3831 0
M  V30 323 N 29.429 -6.0384 -1.1068 0
M  V30 324 C 30.8 -6.13012 -0.928238 0
M  V30 325 C 32.855 -4.81512 -1.26692 0
M  V30 326 C 31.558 -7.18354 -0.368701 0
M  V30 327 C 33.584 -5.86984 -0.721368 0
M  V30 328 C 32.946 -7.03857 -0.276623 0
M  V30 329 H 29.045 -0.634045 -0.457724 0
M  V30 330 H 31.629 -1.85639 -0.587049 0
M  V30 331 H 29.8 -2.41043 -3.04553 0
M  V30 332 H 31.532 -2.65791 -3.05184 0
M  V30 333 H 28.287 -4.32962 -1.91939 0
M  V30 334 H 28.711 -6.71778 -0.839217 0
M  V30 335 H 33.353 -3.91487 -1.5968 0
M  V30 336 H 31.071 -8.08096 -0.0265122 0
M  V30 337 H 34.657 -5.78329 -0.634531 0
M  V30 338 H 33.537 -7.84077 0.138947 0
M  V30 339 N 31.0401 0.771051 -1.3745 0
M  V30 340 C 31.9501 1.91538 -1.35464 0
M  V30 341 C 32.9661 1.72134 -0.254123 0
M  V30 342 O 34.1421 1.95358 -0.489626 0
M  V30 343 C 31.2071 3.26671 -1.16134 0
M  V30 344 C 30.2681 3.58723 -2.35831 0
M  V30 345 C 29.5011 4.87409 -2.17413 0
M  V30 346 O 29.7241 5.58506 -1.15876 0
M  V30 347 O 28.6581 5.18539 -3.05615 0
M  V30 348 H 32.4841 1.96165 -2.31847 0
M  V30 349 H 30.0691 0.9139 -1.18187 0
M  V30 350 H 31.9511 4.07499 -1.07345 0
M  V30 351 H 30.6261 3.22894 -0.228251 0
M  V30 352 H 29.5331 2.78127 -2.50192 0
M  V30 353 H 30.8661 3.67243 -3.27709 0
M  V30 354 N 32.5182 1.22032 0.997298 0
M  V30 355 C 33.7672 1.03637 1.73038 0
M  V30 356 C 34.0802 -0.429475 1.90827 0
M  V30 357 O 35.2862 -0.732995 2.61418 0
M  V30 358 C 33.7422 1.80582 3.11317 0
M  V30 359 C 33.3502 3.31387 3.01474 0
M  V30 360 C 35.0942 1.70621 3.88701 0
M  V30 361 C 33.0012 4.00791 4.3488 0
M  V30 362 H 31.9312 0.384179 0.648785 0
M  V30 363 H 34.5822 1.4584 1.11368 0
M  V30 364 H 32.9642 1.31175 3.73643 0
M  V30 365 H 34.1382 3.88155 2.4834 0
M  V30 366 H 32.4532 3.41976 2.37575 0
M  V30 367 H 35.0502 2.19799 4.87434 0
M  V30 368 H 35.3932 0.665823 4.10941 0
M  V30 369 H 35.9262 2.17547 3.33044 0
M  V30 370 H 32.6652 5.05064 4.1784 0
M  V30 371 H 32.1852 3.48811 4.87945 0
M  V30 372 H 33.8642 4.06139 5.03647 0
M  V30 373 N 33.9963 -1.19345 1.0293 0
M  V30 374 C 35.2243 -1.92997 0.745644 0
M  V30 375 C 35.6393 -1.75519 -0.695589 0
M  V30 376 O 34.9963 -1.07737 -1.47306 0
M  V30 377 C 35.0473 -3.44741 1.08792 0
M  V30 378 O 34.7683 -3.61658 2.47256 0
M  V30 379 C 36.2693 -4.35515 0.827129 0
M  V30 380 H 33.4893 -0.613042 0.272801 0
M  V30 381 H 36.0333 -1.51473 1.3739 0
M  V30 382 H 34.1883 -3.84097 0.504832 0
M  V30 383 H 34.6023 -4.55514 2.60015 0
M  V30 384 H 36.0763 -5.40589 1.11658 0
M  V30 385 H 36.5533 -4.38552 -0.238436 0
M  V30 386 H 37.1593 -4.01841 1.39297 0
M  V30 387 N 35.4744 -0.807222 -1.35358 0
M  V30 388 C 36.3844 -0.219594 -2.3357 0
M  V30 389 C 37.4004 0.637734 -1.61892 0
M  V30 390 O 38.5764 0.549336 -1.93763 0
M  V30 391 C 35.6414 0.62158 -3.41083 0
M  V30 392 C 34.7024 -0.256315 -4.28534 0
M  V30 393 C 33.9354 0.544807 -5.30912 0
M  V30 394 O 34.1584 1.77944 -5.41934 0
M  V30 395 O 33.0924 -0.0646478 -6.01865 0
M  V30 396 H 36.9184 -1.03208 -2.85625 0
M  V30 397 H 34.5034 -0.569025 -1.38139 0
M  V30 398 H 36.3854 1.10067 -4.06772 0
M  V30 399 H 35.0604 1.41165 -2.91297 0
M  V30 400 H 33.9674 -0.782559 -3.65823 0
M  V30 401 H 35.3004 -1.01034 -4.81719 0
M  V30 402 N 36.9525 1.47285 -0.560781 0
M  V30 403 C 38.1805 2.06855 -0.0430262 0
M  V30 404 C 38.5955 1.41291 1.25229 0
M  V30 405 O 37.9525 0.510648 1.7521 0
M  V30 406 C 38.0035 3.61178 0.152518 0
M  V30 407 O 37.7245 4.24285 -1.0915 0
M  V30 408 C 39.2255 4.37624 0.707145 0
M  V30 409 H 36.4455 0.669319 -0.0474652 0
M  V30 410 H 38.9895 1.89237 -0.77521 0
M  V30 411 H 37.1445 3.78298 0.834843 0
M  V30 412 H 37.5585 5.16868 -0.891482 0
M  V30 413 H 39.0325 5.46271 0.793244 0
M  V30 414 H 39.5095 4.04152 1.71923 0
M  V30 415 H 40.1155 4.25257 0.0604027 0
M  V30 416 N 38.4306 0.297415 1.54768 0
M  V30 417 C 39.6796 -0.313669 1.99246 0
M  V30 418 C 39.9926 -1.55281 1.18942 0
M  V30 419 O 41.1986 -2.23825 1.5367 0
M  V30 420 C 39.6546 -0.609407 3.54703 0
M  V30 421 C 39.2626 0.611192 4.43811 0
M  V30 422 C 41.0066 -1.18188 4.07715 0
M  V30 423 C 38.9136 0.288805 5.90694 0
M  V30 424 H 37.8436 -0.120979 0.744231 0
M  V30 425 H 40.4946 0.40556 1.78962 0
M  V30 426 H 38.8766 -1.38813 3.70873 0
M  V30 427 H 40.0506 1.3875 4.39414 0
M  V30 428 H 38.3656 1.10205 4.01552 0
M  V30 429 H 40.9626 -1.43727 5.15021 0
M  V30 430 H 41.3056 -2.12299 3.58099 0
M  V30 431 H 41.8386 -0.464944 3.95074 0
M  V30 432 H 38.5776 1.19838 6.44453 0
M  V30 433 H 38.0976 -0.450305 5.98107 0
M  V30 434 H 39.7766 -0.110933 6.46905 0
M  V30 435 N 39.9087 -1.5758 0.0250728 0
M  V30 436 C 41.1567 -1.91255 -0.653151 0
M  V30 437 C 41.4777 -0.901691 -1.729 0
M  V30 438 O 40.7477 0.0573785 -1.95816 0
M  V30 439 H 39.3277 -0.705942 -0.244243 0
M  V30 440 H 41.9897 -1.94767 0.0719209 0
M  V30 441 H 41.0857 -2.91752 -1.10847 0
M  V30 442 N 41.3868 0.248026 -1.55636 0
M  V30 443 C 42.3338 1.30707 -1.90222 0
M  V30 444 C 43.3038 1.47881 -0.756332 0
M  V30 445 O 44.4888 1.61883 -1.00988 0
M  V30 446 C 41.6288 2.65769 -2.20138 0
M  V30 447 C 40.7418 2.56612 -3.47526 0
M  V30 448 C 39.8768 3.8402 -3.67017 0
M  V30 449 C 38.9158 3.69476 -4.8801 0
M  V30 450 N 38.0528 4.88774 -5.04029 0
M  V30 451 H 42.8928 1.00512 -2.80538 0
M  V30 452 H 40.4298 0.485055 -1.38873 0
M  V30 453 H 42.3878 3.44386 -2.35487 0
M  V30 454 H 41.0178 2.94115 -1.33027 0
M  V30 455 H 40.0698 1.69571 -3.40514 0
M  V30 456 H 41.3818 2.41774 -4.36287 0
M  V30 457 H 40.5358 4.7108 -3.8232 0
M  V30 458 H 39.2748 4.01754 -2.76487 0
M  V30 459 H 38.2798 2.80799 -4.72686 0
M  V30 460 H 39.5048 3.53238 -5.8 0
M  V30 461 H 37.4508 5.0687 -4.16435 0
M  V30 462 H 37.3678 4.76562 -5.86877 0
M  V30 463 H 38.6358 5.77335 -5.23741 0
M  V30 464 N 42.8649 1.48995 0.513639 0
M  V30 465 C 44.1129 1.57531 1.26604 0
M  V30 466 C 44.4339 0.258236 1.93283 0
M  V30 467 O 43.7039 -0.721502 1.8213 0
M  V30 468 H 42.2839 0.580387 0.470276 0
M  V30 469 H 44.9459 1.85552 0.596373 0
M  V30 470 H 44.0419 2.36486 2.03669 0
M  V30 471 N 44.343 -0.763751 1.37857 0
M  V30 472 C 45.571 -1.55293 1.36718 0
M  V30 473 C 45.986 -1.88745 -0.0455434 0
M  V30 474 O 45.343 -1.52039 -1.00947 0
M  V30 475 C 45.394 -2.85831 2.2132 0
M  V30 476 O 45.115 -2.5381 3.57089 0
M  V30 477 C 46.616 -3.80023 2.28249 0
M  V30 478 H 43.836 -0.480841 0.468009 0
M  V30 479 H 46.38 -0.946009 1.81303 0
M  V30 480 H 44.535 -3.42926 1.80223 0
M  V30 481 H 44.949 -3.37459 4.01524 0
M  V30 482 H 46.423 -4.68599 2.91752 0
M  V30 483 H 46.9 -4.1973 1.2932 0
M  V30 484 H 47.506 -3.28855 2.69693 0
M  V30 485 N 45.8211 -1.22559 -0.990812 0
M  V30 486 C 47.0511 -1.07623 -1.76355 0
M  V30 487 C 47.4591 0.37601 -1.85426 0
M  V30 488 O 46.8021 1.27228 -1.32509 0
M  V30 489 C 46.8641 -1.61507 -3.21179 0
M  V30 490 C 46.5281 -3.10146 -3.35646 0
M  V30 491 C 47.5251 -4.07553 -3.22796 0
M  V30 492 C 45.2101 -3.49644 -3.60631 0
M  V30 493 C 47.2041 -5.42442 -3.34716 0
M  V30 494 C 44.8911 -4.84682 -3.72192 0
M  V30 495 C 45.8891 -5.8089 -3.59243 0
M  V30 496 O 45.5771 -7.13476 -3.70415 0
M  V30 497 H 45.3091 -0.377745 -0.560611 0
M  V30 498 H 47.8631 -1.62658 -1.25425 0
M  V30 499 H 46.0931 -1.00881 -3.73309 0
M  V30 500 H 47.7821 -1.42202 -3.80175 0
M  V30 501 H 48.5481 -3.78381 -3.03403 0
M  V30 502 H 44.4271 -2.75282 -3.69785 0
M  V30 503 H 47.9711 -6.17518 -3.24526 0
M  V30 504 H 43.8681 -5.13534 -3.91092 0
M  V30 505 H 44.6361 -7.21083 -3.87275 0
M  V30 506 N 47.2992 1.18797 -1.03562 0
M  V30 507 C 48.5472 1.88278 -0.734569 0
M  V30 508 C 48.8682 1.8043 0.739586 0
M  V30 509 O 48.1382 1.21925 1.53333 0
M  V30 510 H 46.7182 0.696991 -0.268725 0
M  V30 511 H 49.3802 1.44192 -1.31129 0
M  V30 512 H 48.4762 2.94443 -1.03489 0
M  V30 513 N 48.7773 0.814389 1.34928 0
M  V30 514 C 49.7243 0.22822 2.29669 0
M  V30 515 C 50.6943 -0.642164 1.53184 0
M  V30 516 O 51.8793 -0.585605 1.81591 0
M  V30 517 C 49.0193 -0.61089 3.3965 0
M  V30 518 C 48.1323 0.280792 4.31086 0
M  V30 519 C 47.2673 -0.567067 5.28165 0
M  V30 520 C 46.3063 0.324531 6.11239 0
M  V30 521 N 45.4433 -0.483756 7.00431 0
M  V30 522 H 50.2833 1.04153 2.79206 0
M  V30 523 H 47.8203 0.525133 1.37407 0
M  V30 524 H 49.7783 -1.11263 4.0209 0
M  V30 525 H 48.4083 -1.38939 2.91369 0
M  V30 526 H 47.4603 0.900688 3.69583 0
M  V30 527 H 48.7723 0.966723 4.89342 0
M  V30 528 H 47.9263 -1.13363 5.96015 0
M  V30 529 H 46.6653 -1.28654 4.70425 0
M  V30 530 H 45.6703 0.903298 5.42329 0
M  V30 531 H 46.8953 1.04198 6.71059 0
M  V30 532 H 44.8413 -1.18706 6.45171 0
M  V30 533 H 44.7583 0.143965 7.55863 0
M  V30 534 H 46.0263 -1.03334 7.7262 0
M  V30 535 N 50.2554 -1.46986 0.568584 0
M  V30 536 C 51.5014 -2.02741 0.0488709 0
M  V30 537 C 51.8344 -1.44077 -1.30214 0
M  V30 538 O 51.1094 -0.600552 -1.84996 0
M  V30 539 C 51.3924 -3.60086 -0.032047 0
M  V30 540 C 51.2454 -4.29162 1.34686 0
M  V30 541 C 52.5644 -4.33838 -0.739798 0
M  V30 542 H 49.6834 -0.736749 0.0192338 0
M  V30 543 H 52.3254 -1.75289 0.733065 0
M  V30 544 H 50.4754 -3.83606 -0.61473 0
M  V30 545 H 52.1474 -4.16948 1.97362 0
M  V30 546 H 50.3904 -3.89073 1.91846 0
M  V30 547 H 51.0614 -5.37826 1.24285 0
M  V30 548 H 53.5374 -4.15378 -0.244939 0
M  V30 549 H 52.4134 -5.43537 -0.765406 0
M  V30 550 H 52.6744 -4.03875 -1.79827 0
M  V30 551 N 51.7335 -0.305618 -1.54608 0
M  V30 552 C 52.9805 0.302298 -2.00231 0
M  V30 553 C 53.3085 1.5354 -1.19398 0
M  V30 554 O 52.5635 1.93973 -0.259423 0
M  V30 555 C 52.8625 0.698983 -3.50498 0
M  V30 556 C 52.5285 -0.432903 -4.48817 0
M  V30 557 C 51.1905 -0.743622 -4.75419 0
M  V30 558 C 53.5425 -1.19409 -5.07337 0
M  V30 559 C 50.8705 -1.81857 -5.57804 0
M  V30 560 C 53.2225 -2.25899 -5.90891 0
M  V30 561 C 51.8865 -2.57572 -6.15803 0
M  V30 562 H 51.1565 0.110619 -0.732697 0
M  V30 563 H 53.8035 -0.425674 -1.86709 0
M  V30 564 H 52.1085 1.50711 -3.61654 0
M  V30 565 H 53.8055 1.1806 -3.83227 0
M  V30 566 H 50.3955 -0.18063 -4.28219 0
M  V30 567 H 54.5795 -0.967295 -4.86782 0
M  V30 568 H 49.8355 -2.06864 -5.75341 0
M  V30 569 H 54.0095 -2.85335 -6.35261 0
M  V30 570 H 51.6365 -3.40998 -6.7943 0
M  V30 571 N 53.2116 1.57565 -0.0334293 0
M  V30 572 C 54.1586 2.10478 0.946981 0
M  V30 573 C 55.1286 1.00787 1.32027 0
M  V30 574 O 56.3136 1.28232 1.41284 0
M  V30 575 C 53.4536 2.63994 2.22263 0
M  V30 576 C 52.5666 3.87709 1.90541 0
M  V30 577 C 51.7016 4.29604 3.12433 0
M  V30 578 C 50.7406 5.46065 2.76549 0
M  V30 579 N 49.8776 5.83096 3.9108 0
M  V30 580 H 54.7176 2.93963 0.488846 0
M  V30 581 H 52.2546 1.45296 0.22969 0
M  V30 582 H 54.2126 2.93114 2.96884 0
M  V30 583 H 52.8426 1.83333 2.65685 0
M  V30 584 H 51.8946 3.65291 1.06144 0
M  V30 585 H 53.2066 4.72403 1.60116 0
M  V30 586 H 52.3606 4.60182 3.9537 0
M  V30 587 H 51.0996 3.43685 3.46023 0
M  V30 588 H 50.1046 5.15176 1.92026 0
M  V30 589 H 51.3296 6.33685 2.44171 0
M  V30 590 H 49.2756 5.00132 4.24504 0
M  V30 591 H 49.1926 6.6244 3.64293 0
M  V30 592 H 50.4606 6.18282 4.74708 0
M  V30 593 N 54.6897 -0.239769 1.55765 0
M  V30 594 C 55.9357 -0.968234 1.78194 0
M  V30 595 C 56.2687 -1.84701 0.599938 0
M  V30 596 O 55.5437 -1.9031 -0.401524 0
M  V30 597 C 55.8267 -1.8227 3.10564 0
M  V30 598 C 55.6797 -0.971633 4.3918 0
M  V30 599 C 56.9987 -2.80388 3.39221 0
M  V30 600 H 54.1177 -0.350572 0.648281 0
M  V30 601 H 56.7597 -0.238259 1.885 0
M  V30 602 H 54.9097 -2.44507 3.01908 0
M  V30 603 H 56.5817 -0.367408 4.59835 0
M  V30 604 H 54.8247 -0.276276 4.32919 0
M  V30 605 H 55.4957 -1.60346 5.28198 0
M  V30 606 H 57.9717 -2.28287 3.47885 0
M  V30 607 H 56.8477 -3.3729 4.33044 0
M  V30 608 H 57.1087 -3.57212 2.60484 0
M  V30 609 N 56.1678 -1.49265 -0.50573 0
M  V30 610 C 57.0978 -1.68495 -1.61653 0
M  V30 611 C 58.0788 -0.53366 -1.61512 0
M  V30 612 O 59.2638 -0.76897 -1.78327 0
M  V30 613 C 56.3938 -1.74709 -3.00157 0
M  V30 614 C 55.3478 -2.89581 -3.15162 0
M  V30 615 C 54.6738 -2.80903 -4.5497 0
M  V30 616 C 55.9738 -4.30578 -2.95634 0
M  V30 617 H 57.6678 -2.61493 -1.45814 0
M  V30 618 H 55.2138 -1.25838 -0.70005 0
M  V30 619 H 57.1668 -1.86748 -3.77761 0
M  V30 620 H 55.8908 -0.783067 -3.17074 0
M  V30 621 H 54.5498 -2.77136 -2.39982 0
M  V30 622 H 54.1978 -1.82419 -4.68756 0
M  V30 623 H 53.8978 -3.57999 -4.65951 0
M  V30 624 H 55.4218 -2.94944 -5.34641 0
M  V30 625 H 56.8358 -4.4373 -3.63011 0
M  V30 626 H 55.2328 -5.0886 -3.18091 0
M  V30 627 H 56.3028 -4.45352 -1.91806 0
M  V30 628 N 57.6459 0.756429 -1.3826 0
M  V30 629 C 58.5939 1.89149 -1.35372 0
M  V30 630 C 59.5879 1.67691 -0.24004 0
M  V30 631 O 60.7939 1.75294 -0.408919 0
M  V30 632 H 57.1689 0.622271 -0.422236 0
M  V30 633 H 59.1399 1.88701 -2.31159 0
M  V30 634 C 57.8889 3.26599 -1.19284 0
M  V30 635 H 57.2119 3.43695 -2.0424 0
M  V30 636 H 58.6519 4.06274 -1.21316 0
M  V30 637 C 57.1109 3.3675 0.100454 0
M  V30 638 O 57.6409 3.86951 1.07851 0
M  V30 639 N 55.8469 2.90179 0.15633 0
M  V30 640 H 55.3939 2.49517 -0.640253 0
M  V30 641 H 55.3519 2.97352 1.02123 0
M  V30 642 N 59.124 1.23083 0.984299 0
M  V30 643 C 60.071 1.00854 2.07598 0
M  V30 644 C 61.041 -0.0726709 1.65941 0
M  V30 645 O 62.226 0.0786535 1.90638 0
M  V30 646 C 59.366 0.601645 3.39815 0
M  V30 647 C 58.479 1.75456 3.94765 0
M  V30 648 C 57.614 1.29482 5.15177 0
M  V30 649 C 56.653 2.41873 5.62284 0
M  V30 650 N 55.79 1.96885 6.73929 0
M  V30 651 H 60.63 1.943 2.25946 0
M  V30 652 H 58.167 0.968001 1.10762 0
M  V30 653 H 60.125 0.346854 4.15756 0
M  V30 654 H 58.755 -0.295803 3.21442 0
M  V30 655 H 57.807 2.12346 3.15616 0
M  V30 656 H 59.119 2.59965 4.25699 0
M  V30 657 H 58.273 0.997923 5.98437 0
M  V30 658 H 57.012 0.420046 4.85888 0
M  V30 659 H 56.017 2.72342 4.77608 0
M  V30 660 H 57.242 3.29881 5.93595 0
M  V30 661 H 55.188 1.11782 6.46406 0
M  V30 662 H 55.105 2.74956 7.04227 0
M  V30 663 H 56.373 1.70289 7.60672 0
M  V30 664 N 60.6021 -1.18246 1.0419 0
M  V30 665 C 61.5491 -2.2192 0.634037 0
M  V30 666 C 62.5191 -1.62179 -0.358765 0
M  V30 667 O 63.7041 -1.89122 -0.252466 0
M  V30 668 C 60.8441 -3.451 0.00445535 0
M  V30 669 C 59.9571 -4.19174 1.04487 0
M  V30 670 C 59.0921 -5.29813 0.383676 0
M  V30 671 C 58.1311 -5.9566 1.4091 0
M  V30 672 N 57.2681 -6.97834 0.772784 0
M  V30 673 H 62.1081 -2.56164 1.52263 0
M  V30 674 H 59.6451 -1.25843 0.761701 0
M  V30 675 H 61.6031 -4.15485 -0.377919 0
M  V30 676 H 60.2331 -3.11472 -0.847652 0
M  V30 677 H 59.2851 -3.47604 1.54518 0
M  V30 678 H 60.5971 -4.64267 1.82368 0
M  V30 679 H 59.7511 -6.06677 -0.0528366 0
M  V30 680 H 58.4901 -4.85825 -0.427208 0
M  V30 681 H 57.4951 -5.17535 1.85574 0
M  V30 682 H 58.7201 -6.4173 2.22171 0
M  V30 683 H 56.6661 -6.55998 -0.0177708 0
M  V30 684 H 56.5831 -7.41186 1.48928 0
M  V30 685 H 57.8511 -7.78665 0.36071 0
M  V30 686 N 62.0802 -0.821533 -1.34494 0
M  V30 687 C 63.0282 -0.230702 -2.31453 0
M  V30 688 C 64.0222 0.627793 -1.57338 0
M  V30 689 O 65.2282 0.519288 -1.72347 0
M  V30 690 H 61.6032 -0.0558577 -0.749923 0
M  V30 691 H 63.5742 -1.06332 -2.78812 0
M  V30 692 C 62.3232 0.59391 -3.4259 0
M  V30 693 H 61.6462 -0.0573588 -3.99759 0
M  V30 694 H 63.0862 0.973446 -4.12674 0
M  V30 695 C 61.5452 1.76568 -2.86924 0
M  V30 696 O 62.0752 2.8638 -2.81691 0
M  V30 697 N 60.2812 1.58198 -2.43766 0
M  V30 698 H 59.8282 0.68872 -2.48222 0
M  V30 699 H 59.7862 2.36752 -2.06871 0
M  V30 700 N 63.5583 1.46682 -0.576371 0
M  V30 701 C 64.8063 2.02013 -0.0594163 0
M  V30 702 C 65.1273 1.45101 1.30271 0
M  V30 703 O 64.3973 0.633317 1.8538 0
M  V30 704 H 62.9773 0.746759 -0.0189745 0
M  V30 705 H 65.6393 1.79862 -0.750717 0
M  V30 706 H 64.7353 3.12097 0.014345 0
M  V30 707 N 65.0364 0.313813 1.54444 0
M  V30 708 C 65.9684 -0.590425 2.21465 0
M  V30 709 C 66.9814 -1.08753 1.21147 0
M  V30 710 O 68.1704 -1.00278 1.4767 0
M  V30 711 C 65.2704 -1.82179 2.85769 0
M  V30 712 C 64.4434 -1.46502 4.12136 0
M  V30 713 C 63.5024 -2.55288 4.60124 0
M  V30 714 O 62.5284 -2.19842 5.25032 0
M  V30 715 N 63.7304 -3.86053 4.33525 0
M  V30 716 H 66.4954 -0.0166033 2.99695 0
M  V30 717 H 64.0564 0.136578 1.61323 0
M  V30 718 H 66.0484 -2.54328 3.14801 0
M  V30 719 H 64.6184 -2.30369 2.11303 0
M  V30 720 H 63.8384 -0.575595 3.89975 0
M  V30 721 H 65.1264 -1.20221 4.94393 0
M  V30 722 H 64.5244 -4.17654 3.81552 0
M  V30 723 H 63.0814 -4.54461 4.67235 0
M  V30 724 N 66.5145 -1.57545 0.0417849 0
M  V30 725 C 67.4615 -2.10977 -0.935805 0
M  V30 726 C 68.4315 -1.01486 -1.31491 0
M  V30 727 O 69.6165 -1.2898 -1.40602 0
M  V30 728 C 66.7565 -2.65169 -2.2086 0
M  V30 729 C 65.8695 -3.88714 -1.88482 0
M  V30 730 C 65.0045 -4.31254 -3.1015 0
M  V30 731 C 64.0435 -5.47524 -2.7365 0
M  V30 732 N 63.1805 -5.85162 -3.87982 0
M  V30 733 H 68.0205 -2.94218 -0.473249 0
M  V30 734 H 65.5575 -1.45415 -0.221981 0
M  V30 735 H 67.5155 -2.94685 -2.95325 0
M  V30 736 H 66.1455 -1.8474 -2.64709 0
M  V30 737 H 65.1975 -3.65849 -1.04205 0
M  V30 738 H 66.5095 -4.73245 -1.57608 0
M  V30 739 H 65.6635 -4.62273 -3.92923 0
M  V30 740 H 64.4025 -3.45516 -3.44195 0
M  V30 741 H 63.4075 -5.16187 -1.89291 0
M  V30 742 H 64.6325 -6.34971 -2.40807 0
M  V30 743 H 62.5785 -5.02377 -4.21846 0
M  V30 744 H 62.4955 -6.64362 -3.60775 0
M  V30 745 H 63.7635 -6.20791 -4.71422 0
M  V30 746 N 67.9926 0.231505 -1.5589 0
M  V30 747 C 68.9556 1.27028 -1.90779 0
M  V30 748 C 69.9556 1.40308 -0.785507 0
M  V30 749 O 71.1456 1.38744 -1.05336 0
M  V30 750 C 68.2776 2.64566 -2.14983 0
M  V30 751 H 69.4706 0.973017 -2.83677 0
M  V30 752 H 67.0236 0.471486 -1.49019 0
M  V30 753 H 67.7586 2.99406 -1.24604 0
M  V30 754 H 67.5436 2.56305 -2.96732 0
M  V30 755 H 69.0336 3.39543 -2.43105 0
M  V30 756 N 69.4707 1.49531 0.497807 0
M  V30 757 C 70.4337 1.65916 1.58128 0
M  V30 758 C 71.4337 0.530825 1.51786 0
M  V30 759 O 72.6237 0.797342 1.54881 0
M  V30 760 C 69.7557 1.65951 2.9778 0
M  V30 761 H 70.9487 2.62556 1.44929 0
M  V30 762 H 68.5017 1.38611 0.722275 0
M  V30 763 H 69.2367 0.709065 3.16453 0
M  V30 764 H 69.0217 2.47897 3.03792 0
M  V30 765 H 70.5117 1.80673 3.76493 0
M  V30 766 N 70.9488 -0.749086 1.3866 0
M  V30 767 C 72.1948 -1.51056 1.35314 0
M  V30 768 C 72.5278 -1.94121 -0.0553751 0
M  V30 769 O 71.8028 -1.65763 -1.01749 0
M  V30 770 C 72.0858 -2.76003 2.31288 0
M  V30 771 C 71.9388 -2.39047 3.8102 0
M  V30 772 C 73.2578 -3.78046 2.2532 0
M  V30 773 H 70.3768 -0.547972 0.492844 0
M  V30 774 H 73.0188 -0.857628 1.69543 0
M  V30 775 H 71.1688 -3.31716 2.02229 0
M  V30 776 H 72.8408 -1.89074 4.20771 0
M  V30 777 H 71.0838 -1.71449 3.98482 0
M  V30 778 H 71.7548 -3.28462 4.4364 0
M  V30 779 H 74.2308 -3.31884 2.50983 0
M  V30 780 H 73.1068 -4.63159 2.94576 0
M  V30 781 H 73.3678 -4.23957 1.25352 0
M  V30 782 N 72.4269 -1.23603 -0.977757 0
M  V30 783 C 73.3739 -1.01954 -2.07061 0
M  V30 784 C 74.3439 0.0638697 -1.65977 0
M  V30 785 O 75.5289 -0.0887624 -1.90593 0
M  V30 786 C 72.6689 -0.619658 -3.39491 0
M  V30 787 C 71.7819 -1.77547 -3.93829 0
M  V30 788 C 70.9169 -1.32212 -5.14484 0
M  V30 789 C 69.9559 -2.44852 -5.60994 0
M  V30 790 N 69.0929 -2.00456 -6.72876 0
M  V30 791 H 73.9329 -1.95495 -2.24913 0
M  V30 792 H 71.4699 -0.973861 -1.10247 0
M  V30 793 H 73.4279 -0.368898 -4.15566 0
M  V30 794 H 72.0579 0.278752 -3.21594 0
M  V30 795 H 71.1099 -2.14016 -3.14486 0
M  V30 796 H 72.4219 -2.62219 -4.24314 0
M  V30 797 H 71.5759 -1.02965 -5.97899 0
M  V30 798 H 70.3149 -0.445808 -4.85658 0
M  V30 799 H 69.3199 -2.74871 -4.76157 0
M  V30 800 H 70.5449 -3.33024 -5.91837 0
M  V30 801 H 68.4909 -1.15208 -6.45804 0
M  V30 802 H 68.4079 -2.78687 -7.02759 0
M  V30 803 H 69.6759 -1.7432 -7.59758 0
M  V30 804 N 73.905 1.17692 -1.04816 0
M  V30 805 C 75.154 1.87192 -0.751132 0
M  V30 806 C 75.467 1.8169 0.724441 0
M  V30 807 O 76.673 2.46625 1.13527 0
M  V30 808 C 75.129 3.35857 -1.29338 0
M  V30 809 C 74.737 3.4987 -2.79812 0
M  V30 810 C 76.481 4.10709 -1.07322 0
M  V30 811 C 74.388 4.92536 -3.27356 0
M  V30 812 H 73.318 0.701162 -0.277288 0
M  V30 813 H 75.969 1.32932 -1.26496 0
M  V30 814 H 74.351 3.89631 -0.707376 0
M  V30 815 H 75.525 3.06332 -3.44235 0
M  V30 816 H 73.84 2.88433 -3.00325 0
M  V30 817 H 76.437 5.15952 -1.4035 0
M  V30 818 H 76.78 4.16299 -0.0108001 0
M  V30 819 H 77.313 3.6313 -1.62423 0
M  V30 820 H 74.052 4.92119 -4.33012 0
M  V30 821 H 73.572 5.3676 -2.67673 0
M  V30 822 H 75.251 5.61288 -3.21815 0
M  V30 823 N 75.3831 0.828654 1.34056 0
M  V30 824 C 76.3131 0.269443 2.3194 0
M  V30 825 C 77.2941 -0.617247 1.58506 0
M  V30 826 O 78.4791 -0.542931 1.86456 0
M  V30 827 C 75.6091 -0.564793 3.42677 0
M  V30 828 C 74.5631 0.225241 4.27407 0
M  V30 829 C 73.8891 -0.7321 5.29664 0
M  V30 830 C 75.1891 1.43663 5.02154 0
M  V30 831 H 76.8831 1.08728 2.7896 0
M  V30 832 H 74.4291 0.524283 1.34117 0
M  V30 833 H 76.3821 -0.966233 4.10173 0
M  V30 834 H 75.1061 -1.41574 2.9432 0
M  V30 835 H 73.7651 0.608117 3.61521 0
M  V30 836 H 73.4131 -1.57916 4.77568 0
M  V30 837 H 73.1131 -0.20767 5.87233 0
M  V30 838 H 74.6371 -1.13128 6.00029 0
M  V30 839 H 76.0511 1.1089 5.62473 0
M  V30 840 H 74.4481 1.89711 5.69324 0
M  V30 841 H 75.5181 2.21181 4.31517 0
M  V30 842 N 76.8612 -1.46375 0.584142 0
M  V30 843 C 78.1382 -1.956 0.0033388 0
M  V30 844 C 78.5182 -1.52679 -1.45782 0
M  V30 845 O 77.8662 -0.77816 -2.14842 0
M  V30 846 C 78.0762 -3.48551 0.176891 0
M  V30 847 C 79.4242 -4.24576 0.0454609 0
M  V30 848 O 80.4482 -3.56043 0.105801 0
M  V30 849 O 79.3072 -5.46427 -0.0890376 0
M  V30 850 H 76.4012 -0.825547 -0.0490066 0
M  V30 851 H 78.9472 -1.56652 0.65256 0
M  V30 852 H 77.7192 -3.72683 1.1926 0
M  V30 853 H 77.3422 -3.94332 -0.508695 0
M  V30 854 N 78.3393 -0.321999 -1.54275 0
M  V30 855 C 79.7503 0.166384 -1.85957 0
M  V30 856 C 80.1013 1.51747 -1.24367 0
M  V30 857 O 79.2263 2.09317 -0.549124 0
M  V30 858 C 79.8213 0.308681 -3.37391 0
M  V30 859 C 78.3803 0.741286 -3.69028 0
M  V30 860 C 77.5273 -0.137937 -2.76957 0
M  V30 861 H 80.4783 -0.542335 -1.49146 0
M  V30 862 H 80.4993 1.13984 -3.63026 0
M  V30 863 H 80.0113 -0.674809 -3.82188 0
M  V30 864 H 78.1123 1.73458 -3.29762 0
M  V30 865 H 78.2253 0.546118 -4.75977 0
M  V30 866 H 76.5893 0.386251 -2.51754 0
M  V30 867 H 77.3723 -1.11816 -3.2458 0
M  V30 868 N 79.8174 1.5752 -0.0501392 0
M  V30 869 C 81.0664 1.91827 0.623328 0
M  V30 870 C 81.3794 0.930222 1.72065 0
M  V30 871 O 82.5854 1.1653 2.4522 0
M  V30 872 C 81.0414 3.40692 1.16003 0
M  V30 873 C 80.6494 4.479 0.0948811 0
M  V30 874 C 82.3934 3.84034 1.80881 0
M  V30 875 C 80.3004 5.87879 0.644411 0
M  V30 876 H 79.2304 0.715918 0.236596 0
M  V30 877 H 81.8814 1.83115 -0.118861 0
M  V30 878 H 80.2634 3.44405 1.9545 0
M  V30 879 H 81.4374 4.55775 -0.678675 0
M  V30 880 H 79.7524 4.13892 -0.45637 0
M  V30 881 H 82.3494 4.85984 2.22988 0
M  V30 882 H 82.6924 3.20225 2.6601 0
M  V30 883 H 83.2254 3.82833 1.0809 0
M  V30 884 H 79.9644 6.55282 -0.169229 0
M  V30 885 H 79.4844 5.83567 1.38598 0
M  V30 886 H 81.1634 6.37098 1.12763 0
M  V30 887 N 81.2955 -0.223234 1.56011 0
M  V30 888 C 82.2455 -1.28008 1.88674 0
M  V30 889 C 83.2295 -1.42369 0.749663 0
M  V30 890 O 84.4215 -1.45212 1.01205 0
M  V30 891 C 81.5505 -2.63084 2.20548 0
M  V30 892 C 80.6365 -2.52632 3.40643 0
M  V30 893 N 81.0275 -2.11829 4.59306 0
M  V30 894 C 79.3255 -2.83594 3.44224 0
M  V30 895 C 80.0265 -2.12587 5.41463 0
M  V30 896 N 79.0025 -2.5301 4.81131 0
M  V30 897 H 82.8045 -0.955487 2.77935 0
M  V30 898 H 80.3185 -0.431801 1.56554 0
M  V30 899 H 82.3155 -3.39385 2.42122 0
M  V30 900 H 80.9755 -2.96391 1.32599 0
M  V30 901 H 81.9865 -1.82988 4.84496 0
M  V30 902 H 78.6635 -3.21284 2.66614 0
M  V30 903 H 80.0535 -1.83179 6.46448 0
M  V30 904 N 82.7736 -1.49793 -0.48987 0
M  V30 905 C 84.0506 -1.50348 -1.25119 0
M  V30 906 C 84.4306 -0.237466 -2.0976 0
M  V30 907 O 83.7786 0.77981 -2.14782 0
M  V30 908 C 83.9886 -2.78872 -2.09837 0
M  V30 909 C 85.3366 -3.288 -2.68655 0
M  V30 910 O 86.3606 -2.80065 -2.20096 0
M  V30 911 O 85.2196 -4.13707 -3.57083 0
M  V30 912 H 82.3136 -0.602242 -0.566775 0
M  V30 913 H 84.8596 -1.62067 -0.503229 0
M  V30 914 H 83.6316 -3.62499 -1.47343 0
M  V30 915 H 83.2546 -2.70066 -2.91805 0
M  V30 916 N 84.2517 0.741722 -1.39055 0
M  V30 917 C 85.5007 1.49656 -1.35225 0
M  V30 918 C 85.8137 1.95533 0.0512708 0
M  V30 919 O 87.0197 2.7067 0.212138 0
M  V30 920 C 85.4757 2.70389 -2.37525 0
M  V30 921 C 85.0837 2.31489 -3.83558 0
M  V30 922 C 86.8277 3.48236 -2.42759 0
M  V30 923 C 84.7347 3.48903 -4.77515 0
M  V30 924 H 83.6647 0.56197 -0.502699 0
M  V30 925 H 86.3157 0.809727 -1.64668 0
M  V30 926 H 84.6977 3.41113 -2.01142 0
M  V30 927 H 85.8717 1.68354 -4.28945 0
M  V30 928 H 84.1867 1.66749 -3.81554 0
M  V30 929 H 86.7837 4.35558 -3.1015 0
M  V30 930 H 87.1267 3.90229 -1.45008 0
M  V30 931 H 87.6597 2.84535 -2.78002 0
M  V30 932 H 84.3987 3.11966 -5.76504 0
M  V30 933 H 83.9187 4.11041 -4.36813 0
M  V30 934 H 85.5977 4.15328 -4.96096 0
M  V30 935 N 85.7298 1.2412 0.971189 0
M  V30 936 C 87.0068 0.986867 1.6888 0
M  V30 937 C 87.3868 -0.491857 2.0529 0
M  V30 938 O 86.7348 -1.46531 1.75331 0
M  V30 939 C 86.9448 1.9063 2.92338 0
M  V30 940 C 88.2928 2.17515 3.64654 0
M  V30 941 O 89.3168 1.88254 3.02388 0
M  V30 942 O 88.1758 2.6719 4.7673 0
M  V30 943 H 85.2698 0.372944 0.738134 0
M  V30 944 H 87.8158 1.35203 1.02559 0
M  V30 945 H 86.5878 2.90552 2.62097 0
M  V30 946 H 86.2108 1.54408 3.66393 0
M  V30 947 N 87.2079 -1.17134 1.05439 0
M  V30 948 C 88.1179 -2.24878 0.668365 0
M  V30 949 C 89.1339 -1.71186 -0.311687 0
M  V30 950 O 90.3099 -2.00738 -0.163161 0
M  V30 951 C 87.3749 -3.46662 0.051648 0
M  V30 952 C 86.4359 -4.15429 1.08246 0
M  V30 953 C 85.6689 -5.31399 0.495082 0
M  V30 954 O 85.8919 -5.66153 -0.694743 0
M  V30 955 O 84.8259 -5.89187 1.23056 0
M  V30 956 H 88.6519 -2.60189 1.56637 0
M  V30 957 H 86.2369 -1.24482 0.826104 0
M  V30 958 H 88.1189 -4.20394 -0.290966 0
M  V30 959 H 86.7939 -3.13142 -0.819971 0
M  V30 960 H 85.7009 -3.43704 1.47711 0
M  V30 961 H 87.0339 -4.52982 1.92532 0
M  V30 962 N 88.686 -0.835752 -1.33615 0
M  V30 963 C 89.596 -0.269088 -2.33052 0
M  V30 964 C 90.612 0.603251 -1.63208 0
M  V30 965 O 91.788 0.508112 -1.94885 0
M  V30 966 C 88.853 0.549091 -3.42324 0
M  V30 967 C 87.914 -0.347156 -4.27894 0
M  V30 968 C 87.147 0.43207 -5.31948 0
M  V30 969 O 87.37 1.66409 -5.45586 0
M  V30 970 O 86.304 -0.192298 -6.01593 0
M  V30 971 H 90.13 -1.09243 -2.83372 0
M  V30 972 H 87.715 -0.598198 -1.36901 0
M  V30 973 H 89.597 1.01414 -4.09015 0
M  V30 974 H 88.272 1.34955 -2.94226 0
M  V30 975 H 87.179 -0.859979 -3.64081 0
M  V30 976 H 88.512 -1.1123 -4.79467 0
M  V30 977 N 90.1641 1.46063 -0.591896 0
M  V30 978 C 91.4131 2.01547 -0.0786637 0
M  V30 979 C 91.7261 1.46796 1.29268 0
M  V30 980 O 92.9321 1.94157 1.89777 0
M  V30 981 C 91.3881 3.59787 -0.0900024 0
M  V30 982 C 90.9961 4.23534 -1.46023 0
M  V30 983 C 92.7401 4.22895 0.368806 0
M  V30 984 C 90.6471 5.73881 -1.4288 0
M  V30 985 H 89.5771 0.753564 -0.0256388 0
M  V30 986 H 92.2281 1.677 -0.744905 0
M  V30 987 H 90.6101 3.90752 0.642586 0
M  V30 988 H 91.7841 4.04167 -2.21328 0
M  V30 989 H 90.0991 3.72558 -1.85982 0
M  V30 990 H 92.6961 5.33116 0.411258 0
M  V30 991 H 93.0391 3.9247 1.38827 0
M  V30 992 H 93.5721 3.9659 -0.31001 0
M  V30 993 H 90.3111 6.0898 -2.42536 0
M  V30 994 H 89.8311 5.95486 -0.718095 0
M  V30 995 H 91.5101 6.36776 -1.14565 0
M  V30 996 N 91.6422 0.330177 1.54103 0
M  V30 997 C 92.5522 -0.541534 2.28264 0
M  V30 998 C 93.5682 -1.12351 1.32866 0
M  V30 999 O 94.7442 -1.14206 1.65888 0
M  V30 1000 C 91.8092 -1.68322 3.03098 0
M  V30 1001 C 90.8702 -1.13238 4.14096 0
M  V30 1002 C 90.1032 -2.21966 4.85352 0
M  V30 1003 O 90.3262 -3.42437 4.56172 0
M  V30 1004 O 89.2602 -1.87013 5.7211 0
M  V30 1005 H 93.0862 0.060938 3.03639 0
M  V30 1006 H 90.6712 0.09565 1.49093 0
M  V30 1007 H 92.5532 -2.34777 3.49939 0
M  V30 1008 H 91.2282 -2.27176 2.30593 0
M  V30 1009 H 90.1352 -0.432736 3.71589 0
M  V30 1010 H 91.4682 -0.588898 4.88664 0
M  V30 1011 N 93.1203 -1.57491 0.0584922 0
M  V30 1012 C 94.0833 -2.1085 -0.898617 0
M  V30 1013 C 95.0833 -1.02964 -1.23511 0
M  V30 1014 O 96.2733 -1.29007 -1.17059 0
M  V30 1015 C 93.4053 -2.59881 -2.20623 0
M  V30 1016 H 94.5983 -2.96715 -0.435936 0
M  V30 1017 H 92.1513 -1.55141 -0.190023 0
M  V30 1018 H 92.8863 -1.77431 -2.71457 0
M  V30 1019 H 92.6713 -3.38727 -1.97501 0
M  V30 1020 H 94.1613 -3.01285 -2.89166 0
M  V30 1021 N 94.5984 0.214957 -1.56127 0
M  V30 1022 C 95.5084 1.28727 -1.96129 0
M  V30 1023 C 96.5244 1.50916 -0.866044 0
M  V30 1024 O 97.7004 1.63918 -1.17016 0
M  V30 1025 C 94.7654 2.61569 -2.27558 0
M  V30 1026 C 93.8264 2.47625 -3.50685 0
M  V30 1027 C 93.0594 3.74132 -3.80606 0
M  V30 1028 O 93.2824 4.77438 -3.12104 0
M  V30 1029 O 92.2164 3.70849 -4.74083 0
M  V30 1030 H 96.0424 0.977855 -2.87527 0
M  V30 1031 H 93.6274 0.418358 -1.43423 0
M  V30 1032 H 95.5094 3.40012 -2.48938 0
M  V30 1033 H 94.1844 2.92178 -1.39332 0
M  V30 1034 H 93.0914 1.67361 -3.34576 0
M  V30 1035 H 94.4244 2.21954 -4.39315 0
M  V30 1036 N 96.0765 1.50051 0.48192 0
M  V30 1037 C 97.3065 1.63999 1.2565 0
M  V30 1038 C 97.7145 0.318288 1.86504 0
M  V30 1039 O 97.0575 -0.708534 1.69486 0
M  V30 1040 C 97.1195 2.66504 2.4128 0
M  V30 1041 C 96.7835 4.10352 2.01148 0
M  V30 1042 C 97.7805 4.96562 1.54021 0
M  V30 1043 C 95.4655 4.56203 2.10199 0
M  V30 1044 C 97.4595 6.26668 1.16473 0
M  V30 1045 C 95.1465 5.86318 1.72264 0
M  V30 1046 C 96.1445 6.71375 1.25477 0
M  V30 1047 O 95.8325 7.99062 0.880626 0
M  V30 1048 H 95.5645 0.55456 0.386574 0
M  V30 1049 H 98.1185 1.96954 0.582944 0
M  V30 1050 H 96.3485 2.28769 3.11772 0
M  V30 1051 H 98.0375 2.69783 3.03268 0
M  V30 1052 H 98.8035 4.62358 1.46458 0
M  V30 1053 H 94.6825 3.90152 2.45566 0
M  V30 1054 H 98.2265 6.93011 0.798841 0
M  V30 1055 H 94.1235 6.20046 1.79482 0
M  V30 1056 H 94.8915 8.12239 1.01043 0
M  V30 1057 N 97.5546 -0.734337 1.39446 0
M  V30 1058 C 98.5026 -1.86971 1.38364 0
M  V30 1059 C 99.4966 -1.67288 0.266687 0
M  V30 1060 O 100.703 -1.74621 0.436755 0
M  V30 1061 H 97.0776 -0.615474 0.432082 0
M  V30 1062 H 99.0486 -1.85 2.34132 0
M  V30 1063 C 97.7976 -3.2466 1.24465 0
M  V30 1064 H 97.1206 -3.40402 2.09682 0
M  V30 1065 H 98.5606 -4.04292 1.27764 0
M  V30 1066 C 97.0196 -3.36867 -0.0468674 0
M  V30 1067 O 97.5496 -3.88618 -1.01681 0
M  V30 1068 N 95.7556 -2.90391 -0.110145 0
M  V30 1069 H 95.3026 -2.48466 0.679868 0
M  V30 1070 H 95.2606 -2.98939 -0.973799 0
M  V30 1071 N 99.0327 -1.24633 -0.964593 0
M  V30 1072 C 100.282 -1.08188 -1.7023 0
M  V30 1073 C 100.595 0.37873 -1.91898 0
M  V30 1074 O 101.801 0.663427 -2.6327 0
M  V30 1075 C 100.257 -1.88773 -3.06419 0
M  V30 1076 C 99.8647 -3.39263 -2.92582 0
M  V30 1077 C 101.609 -1.80867 -3.84041 0
M  V30 1078 C 99.5157 -4.1218 -4.24101 0
M  V30 1079 H 98.4457 -0.401245 -0.638372 0
M  V30 1080 H 101.097 -1.48742 -1.07462 0
M  V30 1081 H 99.4787 -1.41035 -3.70034 0
M  V30 1082 H 100.653 -3.94603 -2.37961 0
M  V30 1083 H 98.9677 -3.48154 -2.28424 0
M  V30 1084 H 101.565 -2.32646 -4.81435 0
M  V30 1085 H 101.908 -0.774543 -4.09031 0
M  V30 1086 H 102.441 -2.26301 -3.27159 0
M  V30 1087 H 99.1797 -5.15965 -4.04303 0
M  V30 1088 H 98.6997 -3.61626 -4.78526 0
M  V30 1089 H 100.379 -4.19349 -4.92702 0
M  V30 1090 N 100.511 1.16574 -1.06058 0
M  V30 1091 C 101.441 2.23057 -0.690488 0
M  V30 1092 C 102.422 1.67141 0.315901 0
M  V30 1093 O 103.607 1.93253 0.191556 0
M  V30 1094 C 100.737 3.47222 -0.073625 0
M  V30 1095 C 99.6908 4.16016 -1.00573 0
M  V30 1096 C 99.0168 5.34104 -0.252289 0
M  V30 1097 C 100.317 4.67264 -2.33371 0
M  V30 1098 H 102.011 2.54271 -1.58072 0
M  V30 1099 H 99.5568 1.22218 -0.76149 0
M  V30 1100 H 101.51 4.20939 0.19714 0
M  V30 1101 H 100.234 3.15302 0.85161 0
M  V30 1102 H 98.8928 3.44223 -1.2612 0
M  V30 1103 H 98.5408 4.98437 0.675988 0
M  V30 1104 H 98.2408 5.81072 -0.873455 0
M  V30 1105 H 99.7648 6.10599 0.0109857 0
M  V30 1106 H 101.179 5.32573 -2.12223 0
M  V30 1107 H 99.5758 5.24843 -2.90963 0
M  V30 1108 H 100.646 3.83602 -2.96611 0
M  V30 1109 N 101.989 0.842826 1.3317 0
M  V30 1110 C 102.936 0.276885 2.29133 0
M  V30 1111 C 103.906 -0.609527 1.54512 0
M  V30 1112 O 105.091 -0.546955 1.82792 0
M  V30 1113 C 102.231 -0.538707 3.40869 0
M  V30 1114 C 101.344 0.372169 4.30394 0
M  V30 1115 C 100.479 -0.454908 5.29249 0
M  V30 1116 C 99.5179 0.45411 6.10413 0
M  V30 1117 N 98.6549 -0.335075 7.013 0
M  V30 1118 H 103.495 1.10052 2.76934 0
M  V30 1119 H 101.032 0.554161 1.36262 0
M  V30 1120 H 102.99 -1.02709 4.0436 0
M  V30 1121 H 101.62 -1.32727 2.9425 0
M  V30 1122 H 100.672 0.97888 3.6759 0
M  V30 1123 H 101.984 1.0703 4.87182 0
M  V30 1124 H 101.138 -1.00695 5.98285 0
M  V30 1125 H 99.8769 -1.18646 4.73048 0
M  V30 1126 H 98.8819 1.01813 5.40291 0
M  V30 1127 H 100.107 1.18409 6.68697 0
M  V30 1128 H 98.0529 -1.04994 6.47543 0
M  V30 1129 H 97.9699 0.304262 7.55387 0
M  V30 1130 H 99.2379 -0.869224 7.74638 0
M  V30 1131 N 103.467 -1.45747 0.599634 0
M  V30 1132 C 104.43 -2.28917 -0.113835 0
M  V30 1133 C 105.43 -1.3933 -0.802729 0
M  V30 1134 O 106.62 -1.61534 -0.652103 0
M  V30 1135 C 103.752 -3.20152 -1.17114 0
M  V30 1136 H 104.945 -2.93478 0.617289 0
M  V30 1137 H 102.498 -1.52137 0.358327 0
M  V30 1138 H 103.233 -2.60374 -1.93329 0
M  V30 1139 H 103.018 -3.86133 -0.681468 0
M  V30 1140 H 104.508 -3.82708 -1.67105 0
M  V30 1141 N 104.945 -0.338344 -1.53925 0
M  V30 1142 C 105.875 0.51328 -2.27789 0
M  V30 1143 C 106.856 1.107 -1.29149 0
M  V30 1144 O 108.041 1.12937 -1.57984 0
M  V30 1145 C 105.171 1.66697 -3.04679 0
M  V30 1146 C 104.125 1.20183 -4.1078 0
M  V30 1147 C 103.451 2.44363 -4.75595 0
M  V30 1148 C 104.751 0.30605 -5.21403 0
M  V30 1149 H 106.445 -0.102883 -2.99223 0
M  V30 1150 H 103.991 -0.0509219 -1.4391 0
M  V30 1151 H 105.944 2.26915 -3.55088 0
M  V30 1152 H 104.668 2.30995 -2.30887 0
M  V30 1153 H 103.327 0.622499 -3.61276 0
M  V30 1154 H 102.975 3.07057 -3.98403 0
M  V30 1155 H 102.675 2.13925 -5.47275 0
M  V30 1156 H 104.199 3.05317 -5.28786 0
M  V30 1157 H 105.613 0.814929 -5.67478 0
M  V30 1158 H 104.01 0.0937929 -6.00027 0
M  V30 1159 H 105.08 -0.65921 -4.80398 0
M  V30 1160 N 106.423 1.57458 -0.0668435 0
M  V30 1161 C 107.648 1.9804 0.616027 0
M  V30 1162 C 108.073 0.944771 1.62652 0
M  V30 1163 O 107.431 -0.0902094 1.81075 0
M  V30 1164 C 107.479 3.37665 1.26549 0
M  V30 1165 O 106.583 3.36701 2.38131 0
M  V30 1166 H 105.924 0.644719 0.158849 0
M  V30 1167 H 108.454 2.04121 -0.139891 0
M  V30 1168 H 108.464 3.7474 1.6135 0
M  V30 1169 H 107.139 4.12573 0.525016 0
M  V30 1170 H 105.716 3.1139 2.0516 0
M  V30 1171 N 107.901 -0.206675 1.56239 0
M  V30 1172 C 109.178 -0.954051 1.70755 0
M  V30 1173 C 109.558 -2.01841 0.618353 0
M  V30 1174 O 108.906 -2.25444 -0.372434 0
M  V30 1175 C 109.116 -1.551 3.12642 0
M  V30 1176 C 110.464 -2.03757 3.72516 0
M  V30 1177 O 111.488 -1.64965 3.15698 0
M  V30 1178 O 110.347 -2.75103 4.72208 0
M  V30 1179 H 107.441 -0.446636 0.696021 0
M  V30 1180 H 109.987 -0.197283 1.68549 0
M  V30 1181 H 108.759 -0.783212 3.83382 0
M  V30 1182 H 108.382 -2.37291 3.19028 0
M  V30 1183 N 109.379 -1.50304 -0.473955 0
M  V30 1184 C 110.329 -1.65347 -1.56985 0
M  V30 1185 C 111.313 -0.508176 -1.52664 0
M  V30 1186 O 112.505 -0.762446 -1.59737 0
M  V30 1187 C 109.634 -1.74832 -2.95447 0
M  V30 1188 C 108.72 -2.95028 -3.04662 0
M  V30 1189 N 109.111 -4.18747 -2.83698 0
M  V30 1190 C 107.409 -2.93527 -3.35795 0
M  V30 1191 C 108.11 -4.99687 -2.97805 0
M  V30 1192 N 107.086 -4.33585 -3.2788 0
M  V30 1193 H 110.888 -2.58698 -1.39472 0
M  V30 1194 H 108.402 -1.47449 -0.680629 0
M  V30 1195 H 110.399 -1.83712 -3.7424 0
M  V30 1196 H 109.059 -0.826376 -3.14008 0
M  V30 1197 H 110.07 -4.48291 -2.59337 0
M  V30 1198 H 106.747 -2.10821 -3.60362 0
M  V30 1199 H 108.137 -6.08057 -2.85861 0
M  V30 1200 N 110.857 0.726932 -1.39834 0
M  V30 1201 C 112.268 1.30558 -1.3346 0
M  V30 1202 C 112.619 1.962 -0.00273003 0
M  V30 1203 O 111.744 1.96826 0.899371 0
M  V30 1204 C 112.339 2.37404 -2.41713 0
M  V30 1205 C 110.898 2.90921 -2.38835 0
M  V30 1206 C 110.045 1.64578 -2.2318 0
M  V30 1207 H 112.996 0.523862 -1.49804 0
M  V30 1208 H 113.017 3.17984 -2.08966 0
M  V30 1209 H 112.529 1.89599 -3.38635 0
M  V30 1210 H 110.63 3.42985 -1.45575 0
M  V30 1211 H 110.743 3.43487 -3.33997 0
M  V30 1212 H 109.107 1.89219 -1.70494 0
M  V30 1213 H 109.89 1.18814 -3.22084 0
M  V30 1214 N 112.336 1.25143 0.95797 0
M  V30 1215 C 113.284 1.05019 2.07542 0
M  V30 1216 C 114.278 -0.0178751 1.69391 0
M  V30 1217 O 115.484 0.137472 1.79474 0
M  V30 1218 H 111.859 0.32265 0.679265 0
M  V30 1219 H 113.83 1.99759 2.21673 0
M  V30 1220 C 112.579 0.682074 3.40944 0
M  V30 1221 H 111.902 1.49573 3.70767 0
M  V30 1222 H 113.342 0.580945 4.20001 0
M  V30 1223 C 111.801 -0.611608 3.31302 0
M  V30 1224 O 112.331 -1.65465 3.66038 0
M  V30 1225 N 110.537 -0.595982 2.84423 0
M  V30 1226 H 110.084 0.253192 2.56353 0
M  V30 1227 H 110.042 -1.46173 2.78354 0
M  V30 1228 N 113.814 -1.1601 1.06675 0
M  V30 1229 C 115.06 -1.86909 0.786945 0
M  V30 1230 C 115.393 -1.81717 -0.685018 0
M  V30 1231 O 114.668 -1.23551 -1.50218 0
M  V30 1232 C 114.951 -3.36313 1.28707 0
M  V30 1233 C 114.804 -3.50175 2.82308 0
M  V30 1234 C 116.123 -4.3084 0.898071 0
M  V30 1235 H 113.242 -0.678677 0.287343 0
M  V30 1236 H 115.884 -1.36336 1.32334 0
M  V30 1237 H 114.034 -3.79513 0.830768 0
M  V30 1238 H 115.706 -3.15886 3.36175 0
M  V30 1239 H 113.949 -2.91959 3.20847 0
M  V30 1240 H 114.62 -4.55116 3.12368 0
M  V30 1241 H 117.096 -3.95561 1.29114 0
M  V30 1242 H 115.972 -5.33876 1.27543 0
M  V30 1243 H 116.233 -4.41662 -0.196651 0
M  V30 1244 N 115.292 -0.849877 -1.32721 0
M  V30 1245 C 116.538 -0.451591 -1.97708 0
M  V30 1246 C 116.871 0.989175 -1.6712 0
M  V30 1247 O 116.146 1.69334 -0.956891 0
M  V30 1248 C 116.429 -0.685598 -3.53513 0
M  V30 1249 C 116.282 -2.17444 -3.93749 0
M  V30 1250 C 117.601 -0.138874 -4.39881 0
M  V30 1251 H 114.72 -0.16555 -0.718166 0
M  V30 1252 H 117.362 -1.06742 -1.57182 0
M  V30 1253 H 115.512 -0.161416 -3.88165 0
M  V30 1254 H 117.184 -2.76433 -3.693 0
M  V30 1255 H 115.427 -2.65476 -3.43081 0
M  V30 1256 H 116.098 -2.28888 -5.02309 0
M  V30 1257 H 118.574 -0.587068 -4.11938 0
M  V30 1258 H 117.45 -0.332213 -5.47894 0
M  V30 1259 H 117.711 0.95806 -4.31594 0
M  V30 1260 N 116.77 1.45427 -0.607355 0
M  V30 1261 C 118.186 1.57283 -0.270985 0
M  V30 1262 C 118.386 1.59875 1.22647 0
M  V30 1263 O 117.442 1.52893 2.00948 0
M  V30 1264 C 118.755 2.85566 -0.941952 0
M  V30 1265 C 120.303 2.9924 -0.917849 0
M  V30 1266 C 120.778 4.30293 -1.56882 0
M  V30 1267 N 122.269 4.37051 -1.5343 0
M  V30 1268 C 123.004 5.37123 -2.00715 0
M  V30 1269 N 122.5 6.43734 -2.56084 0
M  V30 1270 N 124.293 5.28479 -1.91484 0
M  V30 1271 H 116.444 1.41988 -1.57966 0
M  V30 1272 H 118.707 0.67885 -0.661715 0
M  V30 1273 H 118.413 2.8955 -1.99633 0
M  V30 1274 H 118.287 3.74322 -0.465096 0
M  V30 1275 H 120.674 2.94822 0.127984 0
M  V30 1276 H 120.755 2.11895 -1.43297 0
M  V30 1277 H 120.399 4.35469 -2.61398 0
M  V30 1278 H 120.329 5.16454 -1.02873 0
M  V30 1279 H 122.82 3.60615 -1.12982 0
M  V30 1280 H 123.133 7.16341 -2.89958 0
M  V30 1281 H 121.478 6.44485 -2.60122 0
M  V30 1282 H 124.669 4.44098 -1.47967 0
M  V30 1283 H 124.842 6.0632 -2.28648 0
M  V30 1284 N 118.248 0.346503 1.53744 0
M  V30 1285 C 119.495 -0.249104 2.00962 0
M  V30 1286 C 119.823 -1.5032 1.23426 0
M  V30 1287 O 119.078 -1.93217 0.310761 0
M  V30 1288 C 119.377 -0.605809 3.52228 0
M  V30 1289 C 119.043 0.551747 4.47512 0
M  V30 1290 C 117.705 0.86941 4.73281 0
M  V30 1291 C 120.057 1.32818 5.03993 0
M  V30 1292 C 117.385 1.96582 5.52786 0
M  V30 1293 C 119.737 2.41486 5.84694 0
M  V30 1294 C 118.401 2.73808 6.08757 0
M  V30 1295 H 117.671 -0.0911538 0.735372 0
M  V30 1296 H 120.318 0.475027 1.85515 0
M  V30 1297 H 118.623 -1.4107 3.65522 0
M  V30 1298 H 120.32 -1.07858 3.86222 0
M  V30 1299 H 116.91 0.294102 4.2759 0
M  V30 1300 H 121.094 1.09602 4.84047 0
M  V30 1301 H 116.35 2.22045 5.69654 0
M  V30 1302 H 120.524 3.02078 6.27473 0
M  V30 1303 H 118.151 3.58892 6.7015 0
M  V30 1304 N 119.726 -1.57421 0.075193 0
M  V30 1305 C 120.956 -1.97659 -0.601203 0
M  V30 1306 C 121.364 -0.952427 -1.63479 0
M  V30 1307 O 120.707 0.0688241 -1.83571 0
M  V30 1308 C 120.769 -3.34218 -1.32434 0
M  V30 1309 C 120.433 -4.5484 -0.443826 0
M  V30 1310 C 121.43 -5.19034 0.299969 0
M  V30 1311 C 119.115 -5.00952 -0.367709 0
M  V30 1312 C 121.109 -6.27695 1.10807 0
M  V30 1313 C 118.796 -6.09484 0.444058 0
M  V30 1314 C 119.794 -6.72719 1.18061 0
M  V30 1315 O 119.482 -7.79161 1.97898 0
M  V30 1316 H 119.214 -0.65494 -0.167422 0
M  V30 1317 H 121.768 -2.04886 0.145157 0
M  V30 1318 H 119.998 -3.23615 -2.11685 0
M  V30 1319 H 121.687 -3.59038 -1.89331 0
M  V30 1320 H 122.453 -4.84351 0.250776 0
M  V30 1321 H 118.332 -4.51509 -0.930638 0
M  V30 1322 H 121.876 -6.76982 1.68347 0
M  V30 1323 H 117.773 -6.43601 0.494803 0
M  V30 1324 H 118.541 -7.96055 1.90367 0
M  V30 1325 N 121.204 0.198386 -1.56346 0
M  V30 1326 C 122.452 0.91747 -1.80075 0
M  V30 1327 C 122.773 1.83929 -0.647692 0
M  V30 1328 O 122.043 1.93029 0.334166 0
M  V30 1329 H 120.623 0.341774 -0.664228 0
M  V30 1330 H 123.285 0.204684 -1.93822 0
M  V30 1331 H 122.381 1.51055 -2.7311 0
M  V30 1332 N 122.682 1.50554 0.465978 0
M  V30 1333 C 123.931 1.61038 1.21448 0
M  V30 1334 C 124.244 0.31865 1.92987 0
M  V30 1335 O 125.45 0.302469 2.6981 0
M  V30 1336 C 123.906 2.84283 2.20706 0
M  V30 1337 C 123.514 4.20352 1.54946 0
M  V30 1338 C 125.258 3.04115 2.96166 0
M  V30 1339 C 123.165 5.34778 2.5252 0
M  V30 1340 H 122.095 0.599718 0.457005 0
M  V30 1341 H 124.746 1.7699 0.484424 0
M  V30 1342 H 123.128 2.61901 2.97025 0
M  V30 1343 H 124.302 4.53008 0.843811 0
M  V30 1344 H 122.617 4.06167 0.917475 0
M  V30 1345 H 125.214 3.86774 3.69202 0
M  V30 1346 H 125.557 2.16045 3.55852 0
M  V30 1347 H 126.09 3.26702 2.26959 0
M  V30 1348 H 122.829 6.25018 1.97566 0
M  V30 1349 H 122.349 5.06534 3.21222 0
M  V30 1350 H 124.028 5.65561 3.14245 0
M  V30 1351 N 124.16 -0.719506 1.40217 0
M  V30 1352 C 125.39 -1.50646 1.41384 0
M  V30 1353 C 125.798 -1.89197 0.0107743 0
M  V30 1354 O 125.141 -1.55709 -0.974708 0
M  V30 1355 C 125.203 -2.81405 2.23722 0
M  V30 1356 C 124.867 -2.65199 3.72181 0
M  V30 1357 C 125.864 -2.32717 4.64907 0
M  V30 1358 C 123.549 -2.81586 4.1595 0
M  V30 1359 C 125.543 -2.16827 5.99387 0
M  V30 1360 C 123.23 -2.65313 5.50502 0
M  V30 1361 C 124.228 -2.32981 6.42035 0
M  V30 1362 O 123.916 -2.16827 7.74107 0
M  V30 1363 H 123.648 -0.471606 0.484318 0
M  V30 1364 H 126.202 -0.895456 1.84853 0
M  V30 1365 H 124.432 -3.44823 1.75026 0
M  V30 1366 H 126.121 -3.43102 2.16878 0
M  V30 1367 H 126.887 -2.19694 4.32388 0
M  V30 1368 H 122.766 -3.0574 3.45027 0
M  V30 1369 H 126.31 -1.91513 6.70797 0
M  V30 1370 H 122.207 -2.7792 5.82607 0
M  V30 1371 H 122.975 -2.31778 7.84998 0
M  V30 1372 N 125.638 -1.25649 -0.95132 0
M  V30 1373 C 126.885 -1.10594 -1.69633 0
M  V30 1374 C 127.213 0.352515 -1.91279 0
M  V30 1375 O 126.468 1.27601 -1.4838 0
M  V30 1376 C 126.767 -1.80909 -3.08231 0
M  V30 1377 C 126.433 -3.30825 -3.06375 0
M  V30 1378 C 125.095 -3.71722 -3.05576 0
M  V30 1379 C 127.447 -4.26589 -2.99452 0
M  V30 1380 C 124.775 -5.06788 -2.95606 0
M  V30 1381 C 127.127 -5.61683 -2.91024 0
M  V30 1382 C 125.791 -6.01904 -2.88562 0
M  V30 1383 H 125.061 -0.404691 -0.620731 0
M  V30 1384 H 127.708 -1.55964 -1.11119 0
M  V30 1385 H 126.013 -1.27979 -3.70309 0
M  V30 1386 H 127.71 -1.6671 -3.64704 0
M  V30 1387 H 124.3 -2.98287 -3.07771 0
M  V30 1388 H 128.484 -3.95982 -2.99185 0
M  V30 1389 H 123.74 -5.37126 -2.92071 0
M  V30 1390 H 127.914 -6.35578 -2.84629 0
M  V30 1391 H 125.541 -7.06521 -2.80593 0
M  V30 1392 N 127.117 1.15442 -1.07289 0
M  V30 1393 C 128.064 2.20161 -0.692653 0
M  V30 1394 C 129.034 1.63073 0.31564 0
M  V30 1395 O 130.219 1.89725 0.202235 0
M  V30 1396 C 127.359 3.44967 -0.0959509 0
M  V30 1397 C 126.472 4.16256 -1.15564 0
M  V30 1398 C 125.607 5.28609 -0.524011 0
M  V30 1399 C 124.646 5.91715 -1.56653 0
M  V30 1400 N 123.783 6.9554 -0.957531 0
M  V30 1401 H 128.623 2.52037 -1.59002 0
M  V30 1402 H 126.16 1.2378 -0.794798 0
M  V30 1403 H 128.118 4.16341 0.267628 0
M  V30 1404 H 126.748 3.1361 0.764772 0
M  V30 1405 H 125.8 3.43385 -1.6368 0
M  V30 1406 H 127.112 4.59268 -1.94613 0
M  V30 1407 H 126.266 6.06604 -0.108032 0
M  V30 1408 H 125.005 4.86787 0.29825 0
M  V30 1409 H 124.01 5.12433 -1.9923 0
M  V30 1410 H 125.235 6.35614 -2.39107 0
M  V30 1411 H 123.181 6.55814 -0.156162 0
M  V30 1412 H 123.098 7.36977 -1.68526 0
M  V30 1413 H 124.366 7.77435 -0.567032 0
M  V30 1414 N 128.595 0.856903 1.32268 0
M  V30 1415 C 129.542 0.301172 2.28827 0
M  V30 1416 C 130.512 -0.593104 1.5515 0
M  V30 1417 O 131.697 -0.527537 1.83362 0
M  V30 1418 C 128.837 -0.502523 3.41422 0
M  V30 1419 C 127.95 0.417797 4.29975 0
M  V30 1420 C 127.085 -0.398749 5.29701 0
M  V30 1421 C 126.124 0.518827 6.09897 0
M  V30 1422 N 125.261 -0.260674 7.01616 0
M  V30 1423 H 130.101 1.12983 2.75751 0
M  V30 1424 H 127.638 0.568582 1.35667 0
M  V30 1425 H 129.596 -0.984141 4.05426 0
M  V30 1426 H 128.226 -1.29599 2.95642 0
M  V30 1427 H 127.278 1.01781 3.66531 0
M  V30 1428 H 128.59 1.12191 4.86019 0
M  V30 1429 H 127.744 -0.943435 5.9932 0
M  V30 1430 H 126.483 -1.13622 4.7428 0
M  V30 1431 H 125.488 1.07538 5.39181 0
M  V30 1432 H 126.713 1.25495 6.67404 0
M  V30 1433 H 124.659 -0.981198 6.4862 0
M  V30 1434 H 124.576 0.384364 7.55022 0
M  V30 1435 H 125.844 -0.787014 7.75517 0
M  V30 1436 N 130.073 -1.45103 0.615059 0
M  V30 1437 C 131.35 -1.95549 0.0448276 0
M  V30 1438 C 131.73 -1.55737 -1.4251 0
M  V30 1439 O 131.078 -0.823556 -2.13143 0
M  V30 1440 C 131.288 -3.48098 0.250785 0
M  V30 1441 C 132.636 -4.24384 0.135509 0
M  V30 1442 O 133.66 -3.55738 0.181299 0
M  V30 1443 O 132.519 -5.46493 0.0268878 0
M  V30 1444 H 129.613 -0.8264 -0.0314845 0
M  V30 1445 H 132.159 -1.55232 0.685642 0
M  V30 1446 H 130.931 -3.7007 1.27139 0
M  V30 1447 H 130.554 -3.95323 -0.424937 0
M  V30 1448 N 131.551 -0.354651 -1.53558 0
M  V30 1449 C 132.498 0.496968 -2.25386 0
M  V30 1450 C 133.468 1.0865 -1.25636 0
M  V30 1451 O 134.653 1.12104 -1.54394 0
M  V30 1452 C 131.793 1.63637 -3.03837 0
M  V30 1453 C 130.906 1.07307 -4.18461 0
M  V30 1454 C 130.041 2.18068 -4.84376 0
M  V30 1455 C 129.08 1.59147 -5.91049 0
M  V30 1456 N 128.217 2.63695 -6.50699 0
M  V30 1457 H 133.057 -0.122075 -2.9775 0
M  V30 1458 H 130.594 -0.0720154 -1.46924 0
M  V30 1459 H 132.552 2.30734 -3.47589 0
M  V30 1460 H 131.182 2.22623 -2.33749 0
M  V30 1461 H 130.234 0.292708 -3.79272 0
M  V30 1462 H 131.546 0.602193 -4.95152 0
M  V30 1463 H 130.7 2.93007 -5.31255 0
M  V30 1464 H 129.439 2.68504 -4.07133 0
M  V30 1465 H 128.444 0.827175 -5.43542 0
M  V30 1466 H 129.669 1.09549 -6.70206 0
M  V30 1467 H 127.615 3.13365 -5.76315 0
M  V30 1468 H 127.532 2.21263 -7.22896 0
M  V30 1469 H 128.8 3.3837 -7.02229 0
M  V30 1470 N 133.029 1.57378 -0.0835403 0
M  V30 1471 C 134.275 1.94217 0.583733 0
M  V30 1472 C 134.608 0.964653 1.68547 0
M  V30 1473 O 133.883 -0.00422258 1.945 0
M  V30 1474 C 134.166 3.41253 1.14972 0
M  V30 1475 C 134.019 4.49768 0.0538277 0
M  V30 1476 C 135.338 3.89352 2.05166 0
M  V30 1477 H 132.457 0.706233 0.210724 0
M  V30 1478 H 135.099 1.89392 -0.1519 0
M  V30 1479 H 133.249 3.45496 1.77665 0
M  V30 1480 H 134.921 4.57641 -0.579851 0
M  V30 1481 H 133.164 4.29432 -0.614068 0
M  V30 1482 H 133.835 5.49817 0.490452 0
M  V30 1483 H 136.311 3.87189 1.52393 0
M  V30 1484 H 135.187 4.92822 2.41698 0
M  V30 1485 H 135.448 3.27973 2.96456 0
M  V30 1486 N 134.507 -0.190092 1.56449 0
M  V30 1487 C 135.455 -1.25501 1.95837 0
M  V30 1488 C 136.449 -1.4685 0.844485 0
M  V30 1489 O 137.655 -1.47651 1.02952 0
M  V30 1490 H 134.03 -0.421447 0.622805 0
M  V30 1491 H 136.001 -0.895821 2.84636 0
M  V30 1492 C 134.75 -2.59124 2.31841 0
M  V30 1493 H 134.073 -2.43514 3.17082 0
M  V30 1494 H 135.513 -3.32371 2.6326 0
M  V30 1495 C 133.972 -3.16488 1.15486 0
M  V30 1496 O 134.502 -3.99365 0.432535 0
M  V30 1497 N 132.708 -2.75305 0.930349 0
M  V30 1498 H 132.255 -2.08013 1.51948 0
M  V30 1499 H 132.213 -3.14024 0.153634 0
M  V30 1500 N 135.985 -1.50799 -0.457987 0
M  V30 1501 C 137.233 -1.62121 -1.2067 0
M  V30 1502 C 137.554 -0.329793 -1.92191 0
M  V30 1503 O 136.824 0.653409 -1.84682 0
M  V30 1504 H 135.404 -0.597441 -0.448411 0
M  V30 1505 H 138.066 -1.87637 -0.527096 0
M  V30 1506 H 137.162 -2.43882 -1.94751 0
M  V30 1507 N 137.463 0.71206 -1.40597 0
M  V30 1508 C 138.74 1.46536 -1.29563 0
M  V30 1509 C 139.12 2.10931 0.0844217 0
M  V30 1510 O 138.468 2.00418 1.0975 0
M  V30 1511 C 138.678 2.49821 -2.43701 0
M  V30 1512 C 140.026 3.15551 -2.841 0
M  V30 1513 O 141.05 2.60142 -2.4332 0
M  V30 1514 O 139.909 4.15867 -3.54566 0
M  V30 1515 H 137.003 0.651801 -0.509004 0
M  V30 1516 H 139.549 0.743935 -1.52524 0
M  V30 1517 H 138.321 2.00778 -3.35863 0
M  V30 1518 H 137.944 3.29495 -2.22528 0
M  V30 1519 N 138.941 1.26152 0.944643 0
M  V30 1520 C 139.888 1.07408 2.04285 0
M  V30 1521 C 140.858 -0.0198413 1.66088 0
M  V30 1522 O 142.043 0.139264 1.90291 0
M  V30 1523 C 139.183 0.70945 3.37729 0
M  V30 1524 C 138.296 1.87926 3.88983 0
M  V30 1525 C 137.431 1.45807 5.10797 0
M  V30 1526 C 136.47 2.5964 5.54305 0
M  V30 1527 N 135.607 2.18226 6.67324 0
M  V30 1528 H 140.447 2.01389 2.1965 0
M  V30 1529 H 137.984 1.00275 1.07626 0
M  V30 1530 H 139.942 0.478948 4.14442 0
M  V30 1531 H 138.572 -0.193389 3.2222 0
M  V30 1532 H 137.624 2.22279 3.08701 0
M  V30 1533 H 138.936 2.73377 4.17213 0
M  V30 1534 H 138.09 1.18781 5.94959 0
M  V30 1535 H 136.829 0.574414 4.84305 0
M  V30 1536 H 135.834 2.87399 4.68702 0
M  V30 1537 H 137.059 3.48599 5.828 0
M  V30 1538 H 135.005 1.3229 6.42523 0
M  V30 1539 H 134.922 2.97221 6.95123 0
M  V30 1540 H 136.19 1.94403 7.54869 0
M  V30 1541 N 140.419 -1.14872 1.07899 0
M  V30 1542 C 141.349 -2.2193 0.725887 0
M  V30 1543 C 142.33 -1.67622 -0.28927 0
M  V30 1544 O 143.515 -1.93533 -0.160787 0
M  V30 1545 C 140.645 -3.47061 0.128856 0
M  V30 1546 C 139.599 -4.14363 1.07178 0
M  V30 1547 C 138.925 -5.33636 0.337229 0
M  V30 1548 C 140.225 -4.63492 2.40775 0
M  V30 1549 H 141.919 -2.51724 1.62097 0
M  V30 1550 H 139.465 -1.20991 0.780838 0
M  V30 1551 H 141.418 -4.21199 -0.130147 0
M  V30 1552 H 140.142 -3.16617 -0.80134 0
M  V30 1553 H 138.801 -3.42173 1.3158 0
M  V30 1554 H 138.449 -4.99449 -0.596606 0
M  V30 1555 H 138.149 -5.79609 0.965788 0
M  V30 1556 H 139.673 -6.10539 0.0861567 0
M  V30 1557 H 141.087 -5.2913 2.20669 0
M  V30 1558 H 139.484 -5.20148 2.99276 0
M  V30 1559 H 140.554 -3.78834 3.02676 0
M  V30 1560 N 141.898 -0.863906 -1.31812 0
M  V30 1561 C 143.144 -0.481841 -1.9761 0
M  V30 1562 C 143.499 0.954048 -1.6708 0
M  V30 1563 O 142.792 1.66182 -0.953624 0
M  V30 1564 C 142.986 -0.668547 -3.51091 0
M  V30 1565 C 142.815 -2.12103 -3.96538 0
M  V30 1566 C 141.585 -2.76141 -4.23171 0
M  V30 1567 C 143.783 -3.09265 -4.10925 0
M  V30 1568 N 141.765 -4.12205 -4.54929 0
M  V30 1569 C 143.136 -4.30341 -4.46326 0
M  V30 1570 C 145.191 -3.05337 -3.93286 0
M  V30 1571 C 143.894 -5.48 -4.65928 0
M  V30 1572 C 145.92 -4.22248 -4.14078 0
M  V30 1573 C 145.282 -5.42085 -4.49804 0
M  V30 1574 H 141.381 -0.225238 -0.74886 0
M  V30 1575 H 143.965 -1.11723 -1.59455 0
M  V30 1576 H 142.136 -0.0627898 -3.88349 0
M  V30 1577 H 143.868 -0.255467 -4.03893 0
M  V30 1578 H 140.623 -2.27125 -4.15585 0
M  V30 1579 H 141.047 -4.82416 -4.74978 0
M  V30 1580 H 145.689 -2.138 -3.64759 0
M  V30 1581 H 143.407 -6.40059 -4.93305 0
M  V30 1582 H 146.993 -4.20654 -4.01922 0
M  V30 1583 H 145.873 -6.31044 -4.65567 0
M  V30 1584 N 143.376 1.44774 -0.622745 0
M  V30 1585 C 144.306 2.33382 0.0741861 0
M  V30 1586 C 145.287 1.47719 0.843387 0
M  V30 1587 O 146.472 1.76458 0.810934 0
M  V30 1588 C 143.602 3.30663 1.06204 0
M  V30 1589 C 142.556 4.26079 0.405037 0
M  V30 1590 C 141.882 5.13165 1.5022 0
M  V30 1591 C 143.182 5.1781 -0.683414 0
M  V30 1592 H 144.876 2.91905 -0.665713 0
M  V30 1593 H 142.422 1.40363 -0.321587 0
M  V30 1594 H 144.375 3.9153 1.55827 0
M  V30 1595 H 143.099 2.70331 1.83272 0
M  V30 1596 H 141.758 3.66532 -0.0704683 0
M  V30 1597 H 141.406 4.49191 2.26355 0
M  V30 1598 H 141.106 5.77812 1.06803 0
M  V30 1599 H 142.63 5.76902 2.00041 0
M  V30 1600 H 144.044 5.72661 -0.270631 0
M  V30 1601 H 142.441 5.91015 -1.04023 0
M  V30 1602 H 143.511 4.59326 -1.55395 0
M  V30 1603 N 144.854 0.36279 1.53368 0
M  V30 1604 C 146.1 -0.228113 2.01513 0
M  V30 1605 C 146.433 -1.48648 1.2497 0
M  V30 1606 O 145.708 -1.91459 0.342616 0
M  V30 1607 C 145.991 -0.522884 3.56284 0
M  V30 1608 C 145.844 0.74892 4.43521 0
M  V30 1609 C 147.163 -1.32461 4.19693 0
M  V30 1610 H 144.282 -0.0814343 0.732487 0
M  V30 1611 H 146.924 0.48713 1.83649 0
M  V30 1612 H 145.074 -1.1322 3.71636 0
M  V30 1613 H 146.746 1.38648 4.39971 0
M  V30 1614 H 144.989 1.36986 4.11603 0
M  V30 1615 H 145.66 0.497667 5.49752 0
M  V30 1616 H 148.136 -0.809203 4.08156 0
M  V30 1617 H 147.012 -1.49961 5.28018 0
M  V30 1618 H 147.273 -2.33232 3.75573 0
M  V30 1619 N 146.332 -1.57332 0.0918853 0
M  V30 1620 C 147.262 -2.16872 -0.865371 0
M  V30 1621 C 148.243 -1.10118 -1.29646 0
M  V30 1622 O 149.428 -1.38242 -1.36392 0
M  V30 1623 C 146.558 -2.74649 -2.12569 0
M  V30 1624 C 145.512 -3.86747 -1.83333 0
M  V30 1625 C 144.838 -4.31212 -3.16166 0
M  V30 1626 C 146.138 -5.10089 -1.1228 0
M  V30 1627 H 147.832 -2.97114 -0.369307 0
M  V30 1628 H 145.378 -1.42918 -0.176194 0
M  V30 1629 H 147.331 -3.14952 -2.7997 0
M  V30 1630 H 146.055 -1.91657 -2.64452 0
M  V30 1631 H 144.714 -3.46978 -1.18331 0
M  V30 1632 H 144.362 -3.45115 -3.6593 0
M  V30 1633 H 144.062 -5.06788 -2.97388 0
M  V30 1634 H 145.586 -4.74146 -3.84731 0
M  V30 1635 H 147 -5.47582 -1.69785 0
M  V30 1636 H 145.397 -5.91073 -1.03693 0
M  V30 1637 H 146.467 -4.84786 -0.105041 0
M  V30 1638 N 147.81 0.181792 -1.56548 0
M  V30 1639 C 148.72 1.24538 -1.98815 0
M  V30 1640 C 149.736 1.49045 -0.897861 0
M  V30 1641 O 150.912 1.61399 -1.20467 0
M  V30 1642 C 147.977 2.56683 -2.33055 0
M  V30 1643 C 147.038 2.40131 -3.55859 0
M  V30 1644 C 146.271 3.65975 -3.88456 0
M  V30 1645 O 146.494 4.70711 -3.22161 0
M  V30 1646 O 145.428 3.6071 -4.81842 0
M  V30 1647 H 149.254 0.916647 -2.89536 0
M  V30 1648 H 146.839 0.387842 -1.44278 0
M  V30 1649 H 148.721 3.34655 -2.56094 0
M  V30 1650 H 147.396 2.89157 -1.45498 0
M  V30 1651 H 146.303 1.60226 -3.38051 0
M  V30 1652 H 147.636 2.12585 -4.43924 0
M  V30 1653 N 149.288 1.51039 0.449983 0
M  V30 1654 C 150.218 1.74379 1.55288 0
M  V30 1655 C 151.199 0.593236 1.5942 0
M  V30 1656 O 152.384 0.834625 1.7535 0
M  V30 1657 C 149.514 1.85728 2.93466 0
M  V30 1658 C 148.468 3.01078 3.04197 0
M  V30 1659 C 147.794 2.97595 4.44231 0
M  V30 1660 C 149.094 4.41254 2.7945 0
M  V30 1661 H 150.788 2.66725 1.36008 0
M  V30 1662 H 148.334 1.2835 0.652864 0
M  V30 1663 H 150.287 2.0064 3.70569 0
M  V30 1664 H 149.011 0.900207 3.13949 0
M  V30 1665 H 147.67 2.85851 2.29531 0
M  V30 1666 H 147.318 1.99691 4.61663 0
M  V30 1667 H 147.018 3.75046 4.52343 0
M  V30 1668 H 148.542 3.14583 5.23326 0
M  V30 1669 H 149.956 4.56897 3.46292 0
M  V30 1670 H 148.353 5.20315 2.98985 0
M  V30 1671 H 149.423 4.52164 1.75144 0
M  V30 1672 N 150.766 -0.704594 1.40972 0
M  V30 1673 C 152.006 -1.47691 1.41304 0
M  V30 1674 C 152.37 -1.91992 0.0178582 0
M  V30 1675 O 153.571 -2.68599 -0.103996 0
M  V30 1676 C 151.842 -2.66254 2.38419 0
M  V30 1677 S 153.401 -3.55516 2.57204 0
M  V30 1678 H 150.219 -0.504808 0.500689 0
M  V30 1679 H 152.821 -0.822962 1.77335 0
M  V30 1680 H 151.525 -2.31897 3.38603 0
M  V30 1681 H 151.056 -3.3655 2.03711 0
M  V30 1682 H 153.071 -4.61115 1.83268 0
M  V30 1683 N 152.244 -1.26651 -0.937939 0
M  V30 1684 C 153.469 -1.15279 -1.72411 0
M  V30 1685 C 153.894 0.287866 -1.85884 0
M  V30 1686 O 153.252 1.20855 -1.35143 0
M  V30 1687 C 153.3 -1.83028 -3.10698 0
M  V30 1688 O 152.404 -1.12128 -3.96864 0
M  V30 1689 H 151.745 -0.401504 -0.528858 0
M  V30 1690 H 154.275 -1.67531 -1.1745 0
M  V30 1691 H 154.285 -1.89981 -3.6107 0
M  V30 1692 H 152.96 -2.87833 -3.00208 0
M  V30 1693 H 151.537 -1.13173 -3.55312 0
M  V30 1694 N 153.722 1.14298 -1.08507 0
M  V30 1695 C 154.97 1.84993 -0.813763 0
M  V30 1696 C 155.291 1.83405 0.662393 0
M  V30 1697 O 154.561 1.28319 1.48024 0
M  V30 1698 H 153.141 0.684966 -0.298045 0
M  V30 1699 H 155.803 1.385 -1.37126 0
M  V30 1700 H 154.899 2.89788 -1.15884 0
M  V30 1701 N 155.201 0.870884 1.31352 0
M  V30 1702 C 156.449 0.48132 1.96285 0
M  V30 1703 C 156.77 -0.969813 1.69173 0
M  V30 1704 O 156.04 -1.67998 1.00764 0
M  V30 1705 H 154.62 0.175002 0.726212 0
M  V30 1706 H 157.282 1.11087 1.60143 0
M  V30 1707 H 156.378 0.639825 3.05471 0
M  V30 1708 N 156.679 -1.44442 0.630414 0
M  V30 1709 C 157.904 -2.06927 0.139944 0
M  V30 1710 C 158.329 -1.46795 -1.17613 0
M  V30 1711 O 157.687 -0.569144 -1.72135 0
M  V30 1712 C 157.735 -3.6058 0.0379581 0
M  V30 1713 O 156.839 -3.99937 -1.0062 0
M  V30 1714 H 156.18 -0.658608 0.0844483 0
M  V30 1715 H 158.71 -1.85327 0.866891 0
M  V30 1716 H 158.72 -4.07714 -0.152856 0
M  V30 1717 H 157.395 -4.03728 0.998809 0
M  V30 1718 H 155.972 -3.64436 -0.79001 0
M  V30 1719 N 158.157 -0.370918 -1.53173 0
M  V30 1720 C 159.403 0.217423 -2.01631 0
M  V30 1721 C 159.736 1.47983 -1.25756 0
M  V30 1722 O 159.011 1.91274 -0.352764 0
M  V30 1723 C 159.294 0.503982 -3.56556 0
M  V30 1724 C 159.147 -0.77243 -4.43118 0
M  V30 1725 C 160.466 1.30234 -4.20389 0
M  V30 1726 H 157.585 0.0775486 -0.732909 0
M  V30 1727 H 160.227 -0.496863 -1.83388 0
M  V30 1728 H 158.377 1.11248 -3.72231 0
M  V30 1729 H 160.049 -1.4098 -4.39229 0
M  V30 1730 H 158.292 -1.39167 -4.10871 0
M  V30 1731 H 158.963 -0.526815 -5.4948 0
M  V30 1732 H 161.439 0.787546 -4.08579 0
M  V30 1733 H 160.315 1.47158 -5.28806 0
M  V30 1734 H 160.576 2.31237 -3.76805 0
M  V30 1735 N 159.635 1.57281 -0.100228 0
M  V30 1736 C 160.863 1.98879 0.570509 0
M  V30 1737 C 161.278 0.979476 1.61405 0
M  V30 1738 O 160.635 -0.0302288 1.82475 0
M  V30 1739 C 160.686 3.4052 1.2136 0
M  V30 1740 O 160.407 4.37588 0.211786 0
M  V30 1741 C 161.908 3.97149 1.96945 0
M  V30 1742 H 159.128 0.653428 0.152555 0
M  V30 1743 H 161.672 2.03697 -0.18103 0
M  V30 1744 H 159.827 3.367 1.91603 0
M  V30 1745 H 160.241 5.20118 0.676607 0
M  V30 1746 H 161.715 4.98393 2.37294 0
M  V30 1747 H 162.192 3.3525 2.83733 0
M  V30 1748 H 162.798 4.04458 1.31506 0
M  V30 1749 N 161.113 -0.173488 1.56642 0
M  V30 1750 C 162.39 -0.917617 1.7274 0
M  V30 1751 C 162.77 -2.00484 0.661027 0
M  V30 1752 O 162.118 -2.26184 -0.32453 0
M  V30 1753 C 162.328 -1.48433 3.15862 0
M  V30 1754 C 163.676 -1.95809 3.76754 0
M  V30 1755 O 164.7 -1.58231 3.19126 0
M  V30 1756 O 163.559 -2.65024 4.77938 0
M  V30 1757 H 160.653 -0.431772 0.705338 0
M  V30 1758 H 163.199 -0.161487 1.6893 0
M  V30 1759 H 161.971 -0.701715 3.84957 0
M  V30 1760 H 161.594 -2.30471 3.23989 0
M  V30 1761 N 162.591 -1.51276 -0.441967 0
M  V30 1762 C 163.521 -1.752 -1.54361 0
M  V30 1763 C 164.502 -0.601682 -1.59103 0
M  V30 1764 O 165.687 -0.843913 -1.74905 0
M  V30 1765 C 162.817 -1.87282 -2.92477 0
M  V30 1766 C 161.771 -3.02687 -3.02596 0
M  V30 1767 C 161.097 -2.99947 -4.42647 0
M  V30 1768 C 162.397 -4.4273 -2.77106 0
M  V30 1769 H 164.091 -2.67442 -1.34592 0
M  V30 1770 H 161.637 -1.28694 -0.646048 0
M  V30 1771 H 163.59 -2.02602 -3.695 0
M  V30 1772 H 162.314 -0.916844 -3.13467 0
M  V30 1773 H 160.973 -2.87065 -2.28012 0
M  V30 1774 H 160.621 -2.02136 -4.60597 0
M  V30 1775 H 160.321 -3.77439 -4.50348 0
M  V30 1776 H 161.845 -3.17354 -5.2165 0
M  V30 1777 H 163.259 -4.58727 -3.43864 0
M  V30 1778 H 161.656 -5.21893 -2.96222 0
M  V30 1779 H 162.726 -4.53087 -1.72744 0
M  V30 1780 N 164.069 0.697108 -1.41344 0
M  V30 1781 C 165.315 1.4593 -1.40827 0
M  V30 1782 C 165.648 1.94193 -0.0167098 0
M  V30 1783 O 164.923 1.69425 0.955263 0
M  V30 1784 C 165.206 2.67229 -2.41373 0
M  V30 1785 C 165.059 2.24741 -3.8963 0
M  V30 1786 C 166.378 3.69423 -2.39196 0
M  V30 1787 H 163.497 0.529303 -0.512842 0
M  V30 1788 H 166.139 0.794112 -1.72609 0
M  V30 1789 H 164.289 3.23982 -2.14401 0
M  V30 1790 H 165.961 1.73327 -4.27499 0
M  V30 1791 H 164.204 1.56542 -4.0457 0
M  V30 1792 H 164.875 3.1177 -4.55525 0
M  V30 1793 H 167.351 3.2234 -2.63128 0
M  V30 1794 H 166.227 4.51907 -3.11563 0
M  V30 1795 H 166.488 4.19012 -1.41001 0
M  V30 1796 N 165.547 1.27147 0.931209 0
M  V30 1797 C 166.494 1.09568 2.03134 0
M  V30 1798 C 167.464 -0.00222433 1.661 0
M  V30 1799 O 168.649 0.159439 1.90133 0
M  V30 1800 C 165.789 0.745231 3.36957 0
M  V30 1801 C 164.902 1.92041 3.86968 0
M  V30 1802 C 164.037 1.51216 5.09222 0
M  V30 1803 C 163.076 2.65504 5.5152 0
M  V30 1804 N 162.213 2.25291 6.64972 0
M  V30 1805 H 167.053 2.03708 2.17502 0
M  V30 1806 H 164.59 1.01411 1.06556 0
M  V30 1807 H 166.548 0.522878 4.1391 0
M  V30 1808 H 165.178 -0.159202 3.22407 0
M  V30 1809 H 164.23 2.25541 3.06326 0
M  V30 1810 H 165.542 2.77787 4.1429 0
M  V30 1811 H 164.696 1.25084 5.93666 0
M  V30 1812 H 163.435 0.625749 4.83669 0
M  V30 1813 H 162.44 2.92354 4.65628 0
M  V30 1814 H 163.665 3.54761 5.7907 0
M  V30 1815 H 161.611 1.39098 6.41083 0
M  V30 1816 H 161.528 3.04577 6.91931 0
M  V30 1817 H 162.796 2.02398 7.52765 0
M  V30 1818 N 167.025 -1.13721 1.09112 0
M  V30 1819 C 168.273 -1.84559 0.823562 0
M  V30 1820 C 168.594 -1.83754 -0.652658 0
M  V30 1821 O 167.864 -1.29102 -1.47342 0
M  V30 1822 H 166.444 -0.683376 0.301673 0
M  V30 1823 H 169.106 -1.37771 1.37859 0
M  V30 1824 H 168.202 -2.8917 1.17419 0
M  V30 1825 N 168.503 -0.877838 -1.30888 0
M  V30 1826 C 169.75 -0.492696 -1.96415 0
M  V30 1827 C 170.078 0.956671 -1.69346 0
M  V30 1828 O 169.333 1.68993 -0.986913 0
M  V30 1829 C 169.632 -0.705748 -3.50363 0
M  V30 1830 C 169.298 -2.1291 -3.97467 0
M  V30 1831 C 167.96 -2.51834 -4.1004 0
M  V30 1832 C 170.312 -3.05702 -4.22132 0
M  V30 1833 C 167.64 -3.82775 -4.44635 0
M  V30 1834 C 169.992 -4.36166 -4.58194 0
M  V30 1835 C 168.656 -4.74993 -4.68975 0
M  V30 1836 H 167.926 -0.18029 -0.718733 0
M  V30 1837 H 170.573 -1.11233 -1.55883 0
M  V30 1838 H 168.878 -0.00303058 -3.918 0
M  V30 1839 H 170.575 -0.387456 -3.99124 0
M  V30 1840 H 167.165 -1.81694 -3.88182 0
M  V30 1841 H 171.349 -2.76853 -4.11906 0
M  V30 1842 H 166.605 -4.12609 -4.51181 0
M  V30 1843 H 170.779 -5.08111 -4.76231 0
M  V30 1844 H 168.406 -5.76495 -4.95537 0
M  V30 1845 N 169.982 1.44106 -0.638065 0
M  V30 1846 C 170.912 2.33448 0.0494287 0
M  V30 1847 C 171.893 1.48606 0.827672 0
M  V30 1848 O 173.078 1.77308 0.792173 0
M  V30 1849 C 170.208 3.31771 1.02691 0
M  V30 1850 C 169.162 4.26485 0.359823 0
M  V30 1851 C 168.488 5.14729 1.44769 0
M  V30 1852 C 169.788 5.17056 -0.738296 0
M  V30 1853 H 171.482 2.91183 -0.696636 0
M  V30 1854 H 169.028 1.40014 -0.336456 0
M  V30 1855 H 170.981 3.93161 1.51666 0
M  V30 1856 H 169.705 2.7226 1.80395 0
M  V30 1857 H 168.364 3.66437 -0.10934 0
M  V30 1858 H 168.012 4.51566 2.21578 0
M  V30 1859 H 167.712 5.78913 1.00668 0
M  V30 1860 H 169.236 5.78991 1.93911 0
M  V30 1861 H 170.65 5.72342 -0.331354 0
M  V30 1862 H 169.047 5.89879 -1.10286 0
M  V30 1863 H 170.117 4.57652 -1.60258 0
M  V30 1864 N 171.46 0.379036 1.52974 0
M  V30 1865 C 172.407 -0.461048 2.26148 0
M  V30 1866 C 173.377 -1.06637 1.27349 0
M  V30 1867 O 174.562 -1.09633 1.56157 0
M  V30 1868 C 171.702 -1.58782 3.06402 0
M  V30 1869 C 170.815 -1.00636 4.20115 0
M  V30 1870 C 169.95 -2.10334 4.87784 0
M  V30 1871 C 168.989 -1.49724 5.93506 0
M  V30 1872 N 168.126 -2.5331 6.54812 0
M  V30 1873 H 172.966 0.169429 2.97518 0
M  V30 1874 H 170.503 0.0953806 1.4679 0
M  V30 1875 H 172.461 -2.25174 3.51215 0
M  V30 1876 H 171.091 -2.18876 2.37261 0
M  V30 1877 H 170.143 -0.232332 3.7969 0
M  V30 1878 H 171.455 -0.523343 4.96047 0
M  V30 1879 H 170.609 -2.84519 5.35849 0
M  V30 1880 H 169.348 -2.61992 4.11353 0
M  V30 1881 H 168.353 -0.740598 5.44789 0
M  V30 1882 H 169.578 -0.988732 6.71864 0
M  V30 1883 H 167.524 -3.04156 5.81227 0
M  V30 1884 H 167.441 -2.09734 7.26325 0
M  V30 1885 H 168.709 -3.27155 7.07524 0
M  V30 1886 N 172.938 -1.57226 0.108567 0
M  V30 1887 C 174.354 -1.5766 -0.248058 0
M  V30 1888 C 174.554 -1.12063 -1.67464 0
M  V30 1889 O 173.61 -0.803236 -2.39383 0
M  V30 1890 C 174.923 -3.0069 -0.0242287 0
M  V30 1891 C 176.471 -3.12868 -0.0909372 0
M  V30 1892 C 176.946 -4.57879 0.105067 0
M  V30 1893 N 178.437 -4.63172 0.0506846 0
M  V30 1894 C 179.172 -5.73126 0.177396 0
M  V30 1895 N 178.668 -6.91866 0.359696 0
M  V30 1896 N 180.461 -5.61977 0.117709 0
M  V30 1897 H 172.612 -1.85169 1.04049 0
M  V30 1898 H 174.875 -0.85529 0.40888 0
M  V30 1899 H 174.581 -3.38299 0.961604 0
M  V30 1900 H 174.455 -3.6945 -0.76068 0
M  V30 1901 H 176.842 -2.75124 -1.06729 0
M  V30 1902 H 176.923 -2.46672 0.677225 0
M  V30 1903 H 176.567 -4.96321 1.07834 0
M  V30 1904 H 176.497 -5.22153 -0.682954 0
M  V30 1905 H 178.988 -3.778 -0.0871266 0
M  V30 1906 H 179.301 -7.71503 0.447529 0
M  V30 1907 H 177.646 -6.93874 0.395536 0
M  V30 1908 H 180.837 -4.68094 -0.0236741 0
M  V30 1909 H 181.01 -6.47627 0.219905 0
M  V30 1910 N 174.416 0.165178 -1.56732 0
M  V30 1911 C 175.664 0.879068 -1.8198 0
M  V30 1912 C 175.985 1.82514 -0.686561 0
M  V30 1913 O 175.255 1.93694 0.293146 0
M  V30 1914 H 173.835 0.327608 -0.671329 0
M  V30 1915 H 176.497 0.163526 -1.94213 0
M  V30 1916 H 175.593 1.45228 -2.76252 0
M  V30 1917 N 175.894 1.51508 0.433938 0
M  V30 1918 C 176.804 1.75917 1.5521 0
M  V30 1919 C 177.82 0.643545 1.61662 0
M  V30 1920 O 178.996 0.926183 1.7884 0
M  V30 1921 C 176.061 1.88213 2.91164 0
M  V30 1922 C 175.122 3.12074 2.94802 0
M  V30 1923 C 174.355 3.23774 4.24271 0
M  V30 1924 O 174.578 2.4133 5.16833 0
M  V30 1925 O 173.512 4.16774 4.34262 0
M  V30 1926 H 177.338 2.70777 1.37527 0
M  V30 1927 H 174.923 1.36051 0.617293 0
M  V30 1928 H 176.805 1.98267 3.71845 0
M  V30 1929 H 175.48 0.965413 3.08968 0
M  V30 1930 H 174.387 3.07497 2.13065 0
M  V30 1931 H 175.72 4.03446 2.81943 0
M  V30 1932 N 177.372 -0.689602 1.41712 0
M  V30 1933 C 178.788 -1.00093 1.24312 0
M  V30 1934 C 178.988 -2.01036 0.136729 0
M  V30 1935 O 178.044 -2.47562 -0.496918 0
M  V30 1936 C 179.357 -1.51985 2.59463 0
M  V30 1937 C 180.905 -1.63838 2.66695 0
M  V30 1938 C 181.38 -2.1913 4.02177 0
M  V30 1939 N 182.871 -2.26483 4.04054 0
M  V30 1940 C 183.606 -2.70306 5.0569 0
M  V30 1941 N 183.102 -3.13691 6.17713 0
M  V30 1942 N 184.895 -2.69923 4.9305 0
M  V30 1943 H 177.046 -0.0210029 2.1239 0
M  V30 1944 H 179.309 -0.0718733 0.945272 0
M  V30 1945 H 179.015 -0.85269 3.41207 0
M  V30 1946 H 178.889 -2.50103 2.82362 0
M  V30 1947 H 181.276 -2.29664 1.85306 0
M  V30 1948 H 181.357 -0.642492 2.476 0
M  V30 1949 H 181.001 -1.53918 4.84016 0
M  V30 1950 H 180.931 -3.19482 4.18615 0
M  V30 1951 H 183.422 -1.95874 3.23174 0
M  V30 1952 H 183.735 -3.45773 6.9113 0
M  V30 1953 H 182.08 -3.11585 6.21241 0
M  V30 1954 H 185.271 -2.35382 4.04614 0
M  V30 1955 H 185.444 -3.03758 5.72394 0
M  V30 1956 N 178.85 -1.27639 -0.924453 0
M  V30 1957 C 179.783 -1.04966 -2.02626 0
M  V30 1958 C 180.761 0.0309505 -1.62571 0
M  V30 1959 O 181.945 -0.114846 -1.8815 0
M  V30 1960 C 179.072 -0.59292 -3.3347 0
M  V30 1961 C 178.118 -1.66858 -3.92506 0
M  V30 1962 S 178.951 -3.2619 -4.24689 0
M  V30 1963 C 180.107 -2.82325 -5.58609 0
M  V30 1964 H 180.34 -1.98252 -2.21547 0
M  V30 1965 H 177.873 -1.11506 -1.06798 0
M  V30 1966 H 179.831 -0.336086 -4.09122 0
M  V30 1967 H 178.492 0.319939 -3.12466 0
M  V30 1968 H 177.685 -1.30038 -4.86935 0
M  V30 1969 H 177.287 -1.87766 -3.2345 0
M  V30 1970 H 179.579 -2.2783 -6.38044 0
M  V30 1971 H 180.522 -3.75511 -6.00331 0
M  V30 1972 H 180.93 -2.21367 -5.19285 0
M  V30 1973 N 180.328 1.1314 -1.09713 0
M  V30 1974 C 181.553 1.88862 -0.857081 0
M  V30 1975 C 181.978 1.78729 0.586304 0
M  V30 1976 O 181.336 1.13692 1.41222 0
M  V30 1977 C 181.384 3.36325 -1.30069 0
M  V30 1978 O 180.488 4.09815 -0.461007 0
M  V30 1979 H 179.829 0.587108 -0.310162 0
M  V30 1980 H 182.359 1.43129 -1.46203 0
M  V30 1981 H 182.369 3.87157 -1.28738 0
M  V30 1982 H 181.044 3.43017 -2.35185 0
M  V30 1983 H 179.621 3.68986 -0.538888 0
M  V30 1984 N 181.806 0.884767 1.30421 0
M  V30 1985 C 182.716 0.355398 2.31892 0
M  V30 1986 C 183.732 -0.542261 1.65335 0
M  V30 1987 O 184.908 -0.435432 1.96637 0
M  V30 1988 C 181.973 -0.421661 3.44126 0
M  V30 1989 C 181.034 0.505727 4.26311 0
M  V30 1990 C 180.267 -0.234343 5.33185 0
M  V30 1991 O 180.49 -1.46045 5.51386 0
M  V30 1992 O 179.424 0.415443 6.00465 0
M  V30 1993 H 183.25 1.19685 2.79122 0
M  V30 1994 H 180.835 0.648596 1.34587 0
M  V30 1995 H 182.717 -0.861641 4.12497 0
M  V30 1996 H 181.392 -1.23942 2.99032 0
M  V30 1997 H 180.299 0.994513 3.60639 0
M  V30 1998 H 181.632 1.28948 4.75009 0
M  V30 1999 N 183.284 -1.43765 0.645699 0
M  V30 2000 C 184.695 -1.85193 0.236719 0
M  V30 2001 C 185.046 -1.54045 -1.21509 0
M  V30 2002 O 184.171 -0.985694 -1.92647 0
M  V30 2003 C 184.766 -3.36151 0.422845 0
M  V30 2004 C 183.325 -3.76338 0.0682492 0
M  V30 2005 C 182.472 -2.67538 0.729306 0
M  V30 2006 H 185.423 -1.34025 0.849883 0
M  V30 2007 H 185.444 -3.79032 -0.333904 0
M  V30 2008 H 184.956 -3.5879 1.47958 0
M  V30 2009 H 183.057 -3.59312 -0.986179 0
M  V30 2010 H 183.17 -4.76603 0.488469 0
M  V30 2011 H 181.534 -2.54176 0.163235 0
M  V30 2012 H 182.317 -2.93006 1.78892 0
M  V30 2013 N 184.763 -0.387143 -1.52771 0
M  V30 2014 C 185.693 0.440551 -2.29306 0
M  V30 2015 C 186.674 1.06535 -1.32606 0
M  V30 2016 O 187.859 1.07853 -1.61497 0
M  V30 2017 C 184.989 1.56919 -3.09829 0
M  V30 2018 C 183.943 1.07054 -4.14395 0
M  V30 2019 C 183.269 2.29109 -4.83129 0
M  V30 2020 C 184.569 0.140015 -5.22112 0
M  V30 2021 H 186.263 -0.198026 -2.98744 0
M  V30 2022 H 183.809 -0.09668 -1.43675 0
M  V30 2023 H 185.762 2.15503 -3.62128 0
M  V30 2024 H 184.486 2.23532 -2.3812 0
M  V30 2025 H 183.145 0.507247 -3.63074 0
M  V30 2026 H 182.793 2.94227 -4.0797 0
M  V30 2027 H 182.493 1.96406 -5.53804 0
M  V30 2028 H 184.017 2.88339 -5.38231 0
M  V30 2029 H 185.431 0.633978 -5.69784 0
M  V30 2030 H 183.828 -0.0971485 -6.00021 0
M  V30 2031 H 184.898 -0.811711 -4.78058 0
M  V30 2032 N 186.241 1.57166 -0.116904 0
M  V30 2033 C 187.49 1.94298 0.541407 0
M  V30 2034 C 187.803 1.00236 1.67964 0
M  V30 2035 O 189.009 1.26826 2.40057 0
M  V30 2036 C 187.465 3.45306 1.01449 0
M  V30 2037 C 187.073 4.47899 -0.0951738 0
M  V30 2038 C 188.817 3.91361 1.6443 0
M  V30 2039 C 186.724 5.90083 0.394491 0
M  V30 2040 H 185.654 0.725308 0.206019 0
M  V30 2041 H 188.305 1.82446 -0.196419 0
M  V30 2042 H 186.687 3.52385 1.80667 0
M  V30 2043 H 187.861 4.52486 -0.871374 0
M  V30 2044 H 186.176 4.11583 -0.631505 0
M  V30 2045 H 188.773 4.95004 2.02176 0
M  V30 2046 H 189.116 3.3122 2.52189 0
M  V30 2047 H 189.649 3.87073 0.917559 0
M  V30 2048 H 186.388 6.53974 -0.447004 0
M  V30 2049 H 185.908 5.88921 1.13722 0
M  V30 2050 H 187.587 6.41307 0.856399 0
M  V30 2051 N 187.719 -0.156864 1.56817 0
M  V30 2052 C 188.682 -1.17781 1.96622 0
M  V30 2053 C 189.682 -1.36401 0.851555 0
M  V30 2054 O 190.872 -1.33561 1.11836 0
M  V30 2055 C 188.004 -2.54008 2.27361 0
M  V30 2056 H 189.197 -0.836564 2.87996 0
M  V30 2057 H 186.75 -0.39985 1.51099 0
M  V30 2058 H 187.485 -2.9312 1.38748 0
M  V30 2059 H 187.27 -2.41856 3.08623 0
M  V30 2060 H 188.76 -3.27558 2.59029 0
M  V30 2061 N 189.197 -1.51736 -0.425897 0
M  V30 2062 C 190.427 -1.68549 -1.19476 0
M  V30 2063 C 190.835 -0.387288 -1.85194 0
M  V30 2064 O 190.178 0.645142 -1.71999 0
M  V30 2065 C 190.24 -2.75275 -2.31223 0
M  V30 2066 C 189.904 -4.17534 -1.8578 0
M  V30 2067 C 190.901 -5.01936 -1.35485 0
M  V30 2068 C 188.586 -4.6369 -1.93123 0
M  V30 2069 C 190.58 -6.30559 -0.931347 0
M  V30 2070 C 188.267 -5.92307 -1.50384 0
M  V30 2071 C 189.265 -6.75569 -1.00473 0
M  V30 2072 O 188.953 -8.0178 -0.583452 0
M  V30 2073 H 188.685 -0.568525 -0.365725 0
M  V30 2074 H 191.239 -1.98982 -0.509444 0
M  V30 2075 H 189.469 -2.40182 -3.03067 0
M  V30 2076 H 191.158 -2.80853 -2.93047 0
M  V30 2077 H 191.924 -4.67475 -1.29197 0
M  V30 2078 H 187.803 -3.98997 -2.30916 0
M  V30 2079 H 191.347 -6.95498 -0.541084 0
M  V30 2080 H 187.244 -6.2628 -1.56346 0
M  V30 2081 H 188.012 -8.1543 -0.708275 0
M  V30 2082 N 190.675 0.682077 -1.42076 0
M  V30 2083 C 191.924 1.43786 -1.41451 0
M  V30 2084 C 192.237 1.95574 -0.0317074 0
M  V30 2085 O 193.443 2.71326 0.0971462 0
M  V30 2086 C 191.899 2.60071 -2.48779 0
M  V30 2087 C 191.507 2.15013 -3.93031 0
M  V30 2088 C 193.251 3.37626 -2.57311 0
M  V30 2089 C 191.158 3.28336 -4.91883 0
M  V30 2090 H 190.088 0.540143 -0.526082 0
M  V30 2091 H 192.739 0.739157 -1.67955 0
M  V30 2092 H 191.121 3.32275 -2.15429 0
M  V30 2093 H 192.295 1.5001 -4.35699 0
M  V30 2094 H 190.61 1.50416 -3.88284 0
M  V30 2095 H 193.207 4.22012 -3.28345 0
M  V30 2096 H 193.55 3.83727 -1.61429 0
M  V30 2097 H 194.083 2.72488 -2.89819 0
M  V30 2098 H 190.822 2.87234 -5.89217 0
M  V30 2099 H 190.342 3.92145 -4.53853 0
M  V30 2100 H 192.021 3.93913 -5.13265 0
M  V30 2101 N 192.153 1.28127 0.917671 0
M  V30 2102 C 193.083 1.14248 2.03641 0
M  V30 2103 C 194.064 0.0412748 1.7005 0
M  V30 2104 O 195.249 0.217566 1.92977 0
M  V30 2105 C 192.379 0.799431 3.37974 0
M  V30 2106 C 191.333 1.85497 3.85713 0
M  V30 2107 C 190.659 1.36565 5.16966 0
M  V30 2108 C 191.959 3.26085 4.08002 0
M  V30 2109 H 193.653 2.07835 2.15511 0
M  V30 2110 H 191.199 1.00064 1.03553 0
M  V30 2111 H 193.152 0.689114 4.15727 0
M  V30 2112 H 191.876 -0.172145 3.26146 0
M  V30 2113 H 190.535 1.95437 3.10161 0
M  V30 2114 H 190.183 0.383253 5.01538 0
M  V30 2115 H 189.883 2.07143 5.49878 0
M  V30 2116 H 191.407 1.26848 5.97279 0
M  V30 2117 H 192.821 3.19089 4.76293 0
M  V30 2118 H 191.218 3.94462 4.52238 0
M  V30 2119 H 192.288 3.70394 3.12948 0
M  V30 2120 N 193.631 -1.12557 1.10312 0
M  V30 2121 C 194.581 -2.16331 0.720076 0
M  V30 2122 C 195.565 -1.58616 -0.270115 0
M  V30 2123 O 196.757 -1.76823 -0.0790507 0
M  V30 2124 C 193.886 -3.42963 0.152113 0
M  V30 2125 C 192.972 -4.07663 1.16927 0
M  V30 2126 N 193.363 -4.47392 2.35953 0
M  V30 2127 C 191.661 -4.34425 1.0095 0
M  V30 2128 C 192.362 -4.97932 3.0073 0
M  V30 2129 N 191.338 -4.93358 2.28252 0
M  V30 2130 H 195.14 -2.44813 1.62616 0
M  V30 2131 H 192.654 -1.29449 0.980654 0
M  V30 2132 H 194.651 -4.16664 -0.14037 0
M  V30 2133 H 193.311 -3.1595 -0.748701 0
M  V30 2134 H 194.322 -4.39802 2.73486 0
M  V30 2135 H 190.999 -4.17177 0.164134 0
M  V30 2136 H 192.389 -5.38397 4.01969 0
M  V30 2137 N 195.109 -0.891671 -1.2995 0
M  V30 2138 C 196.019 -0.367691 -2.31701 0
M  V30 2139 C 197.035 0.533486 -1.6562 0
M  V30 2140 O 198.211 0.424997 -1.96865 0
M  V30 2141 C 195.276 0.403406 -3.44345 0
M  V30 2142 C 194.337 -0.528328 -4.26037 0
M  V30 2143 C 193.57 0.206063 -5.33302 0
M  V30 2144 O 193.793 1.43119 -5.52153 0
M  V30 2145 O 192.727 -0.447281 -6.00236 0
M  V30 2146 H 196.553 -1.21163 -2.78484 0
M  V30 2147 H 194.138 -0.655725 -1.34241 0
M  V30 2148 H 196.02 0.839753 -4.12948 0
M  V30 2149 H 194.695 1.22354 -2.99685 0
M  V30 2150 H 193.602 -1.01362 -3.60106 0
M  V30 2151 H 194.935 -1.31465 -4.74318 0
M  V30 2152 N 196.587 1.43421 -0.653314 0
M  V30 2153 C 197.55 2.29182 0.0287951 0
M  V30 2154 C 198.55 1.42213 0.750465 0
M  V30 2155 O 199.74 1.63843 0.591701 0
M  V30 2156 C 196.872 3.24278 1.05151 0
M  V30 2157 H 198.065 2.90985 -0.725786 0
M  V30 2158 H 195.618 1.50702 -0.414545 0
M  V30 2159 H 196.353 2.6737 1.83532 0
M  V30 2160 H 196.138 3.88396 0.537687 0
M  V30 2161 H 197.628 3.88647 1.52786 0
M  V30 2162 N 198.065 0.39524 1.52563 0
M  V30 2163 C 198.995 -0.428384 2.29537 0
M  V30 2164 C 199.976 -1.05831 1.33169 0
M  V30 2165 O 201.161 -1.06995 1.62067 0
M  V30 2166 C 198.291 -1.55274 3.10656 0
M  V30 2167 C 197.245 -1.04855 4.14957 0
M  V30 2168 C 196.571 -2.26543 4.84337 0
M  V30 2169 C 197.871 -0.112324 5.22179 0
M  V30 2170 H 199.565 0.213867 2.98635 0
M  V30 2171 H 197.111 0.104298 1.43622 0
M  V30 2172 H 199.064 -2.1358 3.63265 0
M  V30 2173 H 197.788 -2.22266 2.39302 0
M  V30 2174 H 196.447 -0.487985 3.63338 0
M  V30 2175 H 196.095 -2.92059 4.09525 0
M  V30 2176 H 195.795 -1.93466 5.54837 0
M  V30 2177 H 197.319 -2.85481 5.39753 0
M  V30 2178 H 198.733 -0.603752 5.70112 0
M  V30 2179 H 197.13 0.128968 5.99961 0
M  V30 2180 H 198.2 0.837052 4.77621 0
M  V30 2181 N 199.544 -1.57102 0.125237 0
M  V30 2182 C 200.477 -2.11371 -0.860094 0
M  V30 2183 C 201.455 -1.03168 -1.25679 0
M  V30 2184 O 202.639 -1.30862 -1.35674 0
M  V30 2185 C 199.766 -2.61555 -2.1519 0
M  V30 2186 C 198.812 -3.81701 -1.9028 0
M  V30 2187 S 199.645 -5.23797 -1.11343 0
M  V30 2188 C 200.801 -5.77353 -2.41689 0
M  V30 2189 H 201.034 -2.94617 -0.39852 0
M  V30 2190 H 198.567 -1.54145 -0.0886555 0
M  V30 2191 H 200.525 -2.91122 -2.89411 0
M  V30 2192 H 199.186 -1.78479 -2.58465 0
M  V30 2193 H 198.379 -4.14985 -2.86014 0
M  V30 2194 H 197.981 -3.52783 -1.24178 0
M  V30 2195 H 200.273 -5.87458 -3.37489 0
M  V30 2196 H 201.216 -6.75323 -2.12942 0
M  V30 2197 H 201.624 -5.05457 -2.51342 0
M  V30 2198 N 201.022 0.148545 -1.56898 0
M  V30 2199 C 202.27 0.859717 -1.82902 0
M  V30 2200 C 202.591 1.81775 -0.70588 0
M  V30 2201 O 201.861 1.93994 0.272586 0
M  V30 2202 H 200.441 0.320469 -0.674766 0
M  V30 2203 H 203.103 0.142918 -1.94375 0
M  V30 2204 H 202.199 1.4229 -2.77777 0
M  V30 2205 N 202.5 1.5196 0.417844 0
M  V30 2206 C 203.43 1.77634 1.51554 0
M  V30 2207 C 204.411 0.626918 1.58126 0
M  V30 2208 O 205.596 0.871632 1.7354 0
M  V30 2209 C 202.726 1.91911 2.8946 0
M  V30 2210 C 201.68 3.07463 2.97743 0
M  V30 2211 C 201.006 3.06951 4.37819 0
M  V30 2212 C 202.306 4.47082 2.70027 0
M  V30 2213 H 204 2.6955 1.3032 0
M  V30 2214 H 201.546 1.29706 0.625492 0
M  V30 2215 H 203.499 2.08455 3.6623 0
M  V30 2216 H 202.223 0.966598 3.11969 0
M  V30 2217 H 200.882 2.90656 2.23416 0
M  V30 2218 H 200.53 2.09438 4.57323 0
M  V30 2219 H 200.23 3.84556 4.44286 0
M  V30 2220 H 201.754 3.25613 5.16535 0
M  V30 2221 H 203.168 4.6414 3.36522 0
M  V30 2222 H 201.565 5.2654 2.87881 0
M  V30 2223 H 202.635 4.55777 1.65514 0
M  V30 2224 N 203.978 -0.674533 1.42435 0
M  V30 2225 C 204.91 -1.80005 1.41883 0
M  V30 2226 C 205.923 -1.59667 0.31787 0
M  V30 2227 O 207.112 -1.68781 0.580973 0
M  V30 2228 C 204.212 -3.17114 1.19549 0
M  V30 2229 C 203.385 -3.64299 2.42084 0
M  V30 2230 C 202.444 -4.80142 2.15291 0
M  V30 2231 O 201.47 -4.90673 2.88493 0
M  V30 2232 N 202.672 -5.68869 1.1562 0
M  V30 2233 H 205.437 -1.80964 2.38898 0
M  V30 2234 H 202.998 -0.857633 1.37318 0
M  V30 2235 H 204.99 -3.92267 0.995417 0
M  V30 2236 H 203.56 -3.11053 0.310569 0
M  V30 2237 H 202.78 -2.79822 2.77657 0
M  V30 2238 H 204.068 -3.92567 3.23679 0
M  V30 2239 H 203.466 -5.63012 0.550765 0
M  V30 2240 H 202.023 -6.43833 1.016 0
M  V30 2241 N 205.456 -1.28612 -0.910864 0
M  V30 2242 C 206.406 -1.09423 -2.00026 0
M  V30 2243 C 207.39 -0.0170079 -1.60891 0
M  V30 2244 O 208.582 -0.237472 -1.754 0
M  V30 2245 C 205.711 -0.76114 -3.34756 0
M  V30 2246 C 204.797 -1.87735 -3.80285 0
M  V30 2247 N 205.188 -3.11938 -3.98156 0
M  V30 2248 C 203.486 -1.76786 -4.09467 0
M  V30 2249 C 204.187 -3.84687 -4.36338 0
M  V30 2250 N 203.163 -3.12555 -4.44759 0
M  V30 2251 H 206.965 -2.03658 -2.11898 0
M  V30 2252 H 204.479 -1.19573 -1.09891 0
M  V30 2253 H 206.476 -0.604743 -4.12491 0
M  V30 2254 H 205.136 0.173403 -3.24237 0
M  V30 2255 H 206.147 -3.47516 -3.83996 0
M  V30 2256 H 202.824 -0.905284 -4.07567 0
M  V30 2257 H 204.214 -4.91518 -4.58104 0
M  V30 2258 N 206.934 1.1197 -1.10907 0
M  V30 2259 C 207.864 2.19928 -0.784473 0
M  V30 2260 C 208.845 1.6833 0.244726 0
M  V30 2261 O 210.03 1.93892 0.109418 0
M  V30 2262 C 207.16 3.46597 -0.220827 0
M  V30 2263 C 206.114 4.11376 -1.18127 0
M  V30 2264 C 205.44 5.32554 -0.478594 0
M  V30 2265 C 206.74 4.56945 -2.52979 0
M  V30 2266 H 208.434 2.47337 -1.68715 0
M  V30 2267 H 205.98 1.18879 -0.812642 0
M  V30 2268 H 207.933 4.21396 0.0184278 0
M  V30 2269 H 206.657 3.1863 0.717113 0
M  V30 2270 H 205.316 3.38564 -1.40606 0
M  V30 2271 H 204.964 5.00856 0.463976 0
M  V30 2272 H 204.664 5.76844 -1.11912 0
M  V30 2273 H 206.188 6.10096 -0.248 0
M  V30 2274 H 207.602 5.23093 -2.3462 0
M  V30 2275 H 205.999 5.1203 -3.12962 0
M  V30 2276 H 207.069 3.70676 -3.12614 0
M  V30 2277 N 208.412 0.89855 1.29475 0
M  V30 2278 C 209.362 0.346767 2.25348 0
M  V30 2279 C 210.346 -0.532509 1.51833 0
M  V30 2280 O 211.538 -0.374714 1.72988 0
M  V30 2281 C 208.667 -0.425681 3.40651 0
M  V30 2282 C 207.753 0.46845 4.21505 0
M  V30 2283 N 208.144 1.57514 4.80648 0
M  V30 2284 C 206.442 0.26603 4.45206 0
M  V30 2285 C 207.143 2.12889 5.41344 0
M  V30 2286 N 206.119 1.42208 5.24669 0
M  V30 2287 H 209.921 1.19219 2.68634 0
M  V30 2288 H 207.435 0.749473 1.44072 0
M  V30 2289 H 209.432 -0.837716 4.08397 0
M  V30 2290 H 208.092 -1.26838 2.98902 0
M  V30 2291 H 209.103 1.95789 4.79465 0
M  V30 2292 H 205.78 -0.538394 4.14014 0
M  V30 2293 H 207.17 3.05901 5.98226 0
M  V30 2294 N 209.89 -1.43072 0.660911 0
M  V30 2295 C 210.838 -2.32569 -0.0378199 0
M  V30 2296 C 211.832 -1.49046 -0.805092 0
M  V30 2297 O 213.038 -1.65206 -0.714624 0
M  V30 2298 H 209.413 -0.75136 -0.031019 0
M  V30 2299 H 211.384 -2.89216 0.734609 0
M  V30 2300 C 210.133 -3.33453 -0.985124 0
M  V30 2301 H 209.456 -3.97752 -0.404147 0
M  V30 2302 H 210.896 -3.98691 -1.44297 0
M  V30 2303 C 209.355 -2.64642 -2.08486 0
M  V30 2304 O 209.885 -2.46776 -3.16961 0
M  V30 2305 N 208.091 -2.23891 -1.8526 0
M  V30 2306 H 207.638 -2.38621 -0.970449 0
M  V30 2307 H 207.596 -1.78181 -2.59034 0
M  V30 2308 N 211.368 -0.403325 -1.52352 0
M  V30 2309 C 212.316 0.439752 -2.28405 0
M  V30 2310 C 213.31 1.05089 -1.32863 0
M  V30 2311 O 214.516 0.989759 -1.50345 0
M  V30 2312 H 210.891 0.160587 -0.734653 0
M  V30 2313 H 212.862 -0.222983 -2.97566 0
M  V30 2314 C 211.611 1.54736 -3.11371 0
M  V30 2315 H 210.934 1.08643 -3.84755 0
M  V30 2316 H 212.374 2.1112 -3.67701 0
M  V30 2317 C 210.833 2.51141 -2.24566 0
M  V30 2318 O 211.363 3.54887 -1.88196 0
M  V30 2319 N 209.569 2.21213 -1.8845 0
M  V30 2320 H 209.116 1.36878 -2.18225 0
M  V30 2321 H 209.074 2.85963 -1.30662 0
M  V30 2322 N 212.846 1.57033 -0.133567 0
M  V30 2323 C 213.793 2.16074 0.811208 0
M  V30 2324 C 214.763 1.08979 1.2535 0
M  V30 2325 O 215.948 1.36958 1.32843 0
M  V30 2326 C 213.088 2.77595 2.05024 0
M  V30 2327 C 212.201 3.99042 1.65498 0
M  V30 2328 C 211.336 4.48603 2.84479 0
M  V30 2329 C 210.375 5.62547 2.41262 0
M  V30 2330 N 209.512 6.06787 3.53206 0
M  V30 2331 H 214.352 2.96477 0.300906 0
M  V30 2332 H 211.889 1.46462 0.136822 0
M  V30 2333 H 213.847 3.11402 2.77642 0
M  V30 2334 H 212.477 1.99859 2.53488 0
M  V30 2335 H 211.529 3.71302 0.826981 0
M  V30 2336 H 212.841 4.81629 1.29748 0
M  V30 2337 H 211.995 4.84395 3.65303 0
M  V30 2338 H 210.734 3.64995 3.23465 0
M  V30 2339 H 209.739 5.26345 1.58874 0
M  V30 2340 H 210.964 6.47931 2.03377 0
M  V30 2341 H 208.91 5.26117 3.91838 0
M  V30 2342 H 208.827 6.84266 3.21427 0
M  V30 2343 H 210.095 6.4722 4.34427 0
M  V30 2344 N 214.325 -0.140222 1.56975 0
M  V30 2345 C 215.553 -0.866437 1.87884 0
M  V30 2346 C 215.968 -1.74428 0.722517 0
M  V30 2347 O 215.325 -1.79891 -0.30749 0
M  V30 2348 C 215.376 -1.71753 3.18093 0
M  V30 2349 O 215.097 -0.875056 4.29272 0
M  V30 2350 C 216.598 -2.55074 3.62563 0
M  V30 2351 H 213.818 -0.25019 0.622612 0
M  V30 2352 H 216.362 -0.130977 2.0408 0
M  V30 2353 H 214.517 -2.40598 3.03631 0
M  V30 2354 H 214.931 -1.46002 5.03769 0
M  V30 2355 H 216.405 -3.10356 4.5649 0
M  V30 2356 H 216.882 -3.31434 2.88181 0
M  V30 2357 H 217.488 -1.91509 3.79743 0
M  V30 2358 N 215.803 -1.52179 -0.40978 0
M  V30 2359 C 217.052 -1.65434 -1.15388 0
M  V30 2360 C 217.365 -0.390056 -1.91671 0
M  V30 2361 O 218.571 -0.402399 -2.68501 0
M  V30 2362 C 217.027 -2.92279 -2.10003 0
M  V30 2363 C 216.635 -4.25813 -1.39239 0
M  V30 2364 C 218.379 -3.14897 -2.84675 0
M  V30 2365 C 216.286 -5.43782 -2.32498 0
M  V30 2366 H 215.216 -0.616267 -0.434432 0
M  V30 2367 H 217.867 -1.78666 -0.418401 0
M  V30 2368 H 216.249 -2.72744 -2.871 0
M  V30 2369 H 217.423 -4.55828 -0.675099 0
M  V30 2370 H 215.738 -4.09292 -0.766097 0
M  V30 2371 H 218.335 -4.0021 -3.54593 0
M  V30 2372 H 218.678 -2.29103 -3.47588 0
M  V30 2373 H 219.211 -3.34901 -2.14677 0
M  V30 2374 H 215.95 -6.3192 -1.74233 0
M  V30 2375 H 215.47 -5.18106 -3.02201 0
M  V30 2376 H 217.149 -5.76834 -2.93038 0
M  V30 2377 N 217.281 0.66697 -1.42791 0
M  V30 2378 C 218.231 1.77313 -1.43332 0
M  V30 2379 C 219.215 1.5801 -0.303586 0
M  V30 2380 O 220.407 1.68356 -0.546385 0
M  V30 2381 C 217.536 3.15822 -1.34578 0
M  V30 2382 C 216.622 3.40721 -2.52528 0
M  V30 2383 N 217.013 3.36162 -3.77927 0
M  V30 2384 C 215.311 3.71387 -2.46956 0
M  V30 2385 C 216.012 3.60762 -4.56318 0
M  V30 2386 N 214.988 3.81908 -3.86843 0
M  V30 2387 H 218.79 1.72193 -2.38174 0
M  V30 2388 H 216.304 0.868114 -1.3725 0
M  V30 2389 H 218.301 3.951 -1.33048 0
M  V30 2390 H 216.961 3.22133 -0.407453 0
M  V30 2391 H 217.972 3.15885 -4.10411 0
M  V30 2392 H 214.649 3.84897 -1.61743 0
M  V30 2393 H 216.039 3.63132 -5.65318 0
M  V30 2394 N 218.759 1.29093 0.90403 0
M  V30 2395 C 220.175 1.07011 1.1841 0
M  V30 2396 C 220.375 -0.181358 2.00682 0
M  V30 2397 O 219.431 -0.880331 2.36657 0
M  V30 2398 C 220.744 2.32311 1.90924 0
M  V30 2399 C 222.292 2.37587 2.03768 0
M  V30 2400 C 222.767 3.62679 2.79693 0
M  V30 2401 N 224.258 3.63376 2.87249 0
M  V30 2402 C 224.993 4.56848 3.46522 0
M  V30 2403 N 224.489 5.60648 4.06996 0
M  V30 2404 N 226.282 4.44426 3.44154 0
M  V30 2405 H 218.433 2.09412 0.354993 0
M  V30 2406 H 220.696 0.922181 0.219742 0
M  V30 2407 H 220.402 3.23536 1.37905 0
M  V30 2408 H 220.276 2.39483 2.91424 0
M  V30 2409 H 222.663 1.46853 2.55965 0
M  V30 2410 H 222.744 2.34403 1.02415 0
M  V30 2411 H 222.388 4.53762 2.28173 0
M  V30 2412 H 222.318 3.63119 3.81381 0
M  V30 2413 H 224.809 2.88321 2.44293 0
M  V30 2414 H 225.122 6.28101 4.50232 0
M  V30 2415 H 223.467 5.64463 4.05471 0
M  V30 2416 H 226.658 3.62529 2.96126 0
M  V30 2417 H 226.831 5.17457 3.90054 0
M  V30 2418 N 220.237 -1.11381 1.11499 0
M  V30 2419 C 221.514 -1.7955 0.775965 0
M  V30 2420 C 221.894 -1.97859 -0.73588 0
M  V30 2421 O 221.242 -1.56376 -1.66609 0
M  V30 2422 C 221.452 -3.13196 1.53977 0
M  V30 2423 C 222.8 -3.88227 1.71944 0
M  V30 2424 O 223.824 -3.22887 1.50407 0
M  V30 2425 O 222.683 -5.05477 2.07738 0
M  V30 2426 H 219.777 -0.777728 0.28119 0
M  V30 2427 H 222.323 -1.18118 1.21845 0
M  V30 2428 H 221.095 -2.95229 2.56818 0
M  V30 2429 H 220.718 -3.82342 1.09088 0
M  V30 2430 N 221.715 -0.905404 -1.28997 0
M  V30 2431 C 222.961 -0.535039 -1.95615 0
M  V30 2432 C 223.294 0.917404 -1.71165 0
M  V30 2433 O 222.569 1.65123 -1.02785 0
M  V30 2434 C 222.852 -0.834918 -3.50287 0
M  V30 2435 C 222.705 -2.33948 -3.84172 0
M  V30 2436 C 224.024 -0.325318 -4.38896 0
M  V30 2437 H 221.143 -0.195861 -0.710498 0
M  V30 2438 H 223.785 -1.13313 -1.52513 0
M  V30 2439 H 221.935 -0.325904 -3.87131 0
M  V30 2440 H 223.607 -2.91847 -3.57243 0
M  V30 2441 H 221.85 -2.79789 -3.31513 0
M  V30 2442 H 222.521 -2.49987 -4.92149 0
M  V30 2443 H 224.997 -0.761256 -4.09077 0
M  V30 2444 H 223.873 -0.564295 -5.45992 0
M  V30 2445 H 224.134 0.774144 -4.35269 0
M  V30 2446 N 223.193 1.4272 -0.668489 0
M  V30 2447 C 224.14 2.30796 0.0137489 0
M  V30 2448 C 225.11 1.4561 0.799177 0
M  V30 2449 O 226.295 1.74453 0.772702 0
M  V30 2450 C 223.435 3.31377 0.963507 0
M  V30 2451 C 222.548 4.31655 0.172569 0
M  V30 2452 C 221.683 5.19312 1.1175 0
M  V30 2453 C 220.722 6.11274 0.317886 0
M  V30 2454 N 219.859 6.91504 1.2152 0
M  V30 2455 H 224.699 2.88585 -0.743161 0
M  V30 2456 H 222.236 1.42154 -0.378226 0
M  V30 2457 H 224.194 3.88214 1.52792 0
M  V30 2458 H 222.824 2.75202 1.68712 0
M  V30 2459 H 221.876 3.76988 -0.508374 0
M  V30 2460 H 223.188 4.96779 -0.448527 0
M  V30 2461 H 222.342 5.80851 1.75206 0
M  V30 2462 H 221.081 4.5435 1.77249 0
M  V30 2463 H 220.086 5.48809 -0.329918 0
M  V30 2464 H 221.311 6.78283 -0.332917 0
M  V30 2465 H 219.257 6.29176 1.85671 0
M  V30 2466 H 219.174 7.53209 0.649036 0
M  V30 2467 H 220.442 7.57535 1.83742 0
M  V30 2468 N 224.671 0.411399 1.52136 0
M  V30 2469 C 225.919 -0.163322 2.01439 0
M  V30 2470 C 226.24 -1.45453 1.29879 0
M  V30 2471 O 225.51 -1.91225 0.4254 0
M  V30 2472 H 224.09 -0.0633447 0.744309 0
M  V30 2473 H 226.752 0.548161 1.87033 0
M  V30 2474 H 225.848 -0.357817 3.10042 0
M  V30 2475 N 226.149 -1.5696 0.141893 0
M  V30 2476 C 227.097 -2.17784 -0.816874 0
M  V30 2477 C 228.091 -1.1334 -1.25899 0
M  V30 2478 O 229.297 -1.316 -1.22806 0
M  V30 2479 H 225.672 -0.697278 -0.281615 0
M  V30 2480 H 227.643 -2.97087 -0.279621 0
M  V30 2481 C 226.392 -2.80983 -2.04802 0
M  V30 2482 H 225.715 -3.61062 -1.7168 0
M  V30 2483 H 227.155 -3.2705 -2.69841 0
M  V30 2484 C 225.614 -1.79228 -2.8527 0
M  V30 2485 O 226.144 -1.25962 -3.8144 0
M  V30 2486 N 224.35 -1.48647 -2.49704 0
M  V30 2487 H 223.897 -1.92155 -1.71564 0
M  V30 2488 H 223.855 -0.808115 -3.03837 0
M  V30 2489 N 227.627 0.131896 -1.57047 0
M  V30 2490 C 228.575 1.18146 -2.0036 0
M  V30 2491 C 229.569 1.43614 -0.898406 0
M  V30 2492 O 230.775 1.43729 -1.08361 0
M  V30 2493 H 227.15 0.398042 -0.638018 0
M  V30 2494 H 229.121 0.789564 -2.87765 0
M  V30 2495 C 227.87 2.50341 -2.41298 0
M  V30 2496 H 227.193 2.31578 -3.25902 0
M  V30 2497 H 228.633 3.22371 -2.75414 0
M  V30 2498 C 227.092 3.11984 -1.27153 0
M  V30 2499 O 227.622 3.97484 -0.580459 0
M  V30 2500 N 225.828 2.71662 -1.03189 0
M  V30 2501 H 225.375 2.02231 -1.59564 0
M  V30 2502 H 225.333 3.13238 -0.270077 0
M  V30 2503 N 229.106 1.52395 0.401703 0
M  V30 2504 C 230.355 1.66044 1.14509 0
M  V30 2505 C 230.668 0.400216 1.91462 0
M  V30 2506 O 231.874 0.416632 2.68284 0
M  V30 2507 C 230.33 2.93388 2.0845 0
M  V30 2508 C 229.938 4.26545 1.36978 0
M  V30 2509 C 231.682 3.16402 2.83001 0
M  V30 2510 C 229.589 5.45007 2.29611 0
M  V30 2511 H 228.519 0.618562 0.431158 0
M  V30 2512 H 231.17 1.78886 0.40892 0
M  V30 2513 H 229.552 2.74263 2.8565 0
M  V30 2514 H 230.726 4.56179 0.650916 0
M  V30 2515 H 229.041 4.09692 0.74438 0
M  V30 2516 H 231.638 4.02085 3.52465 0
M  V30 2517 H 231.981 2.30943 3.46368 0
M  V30 2518 H 232.514 3.36034 2.12898 0
M  V30 2519 H 229.253 6.32835 1.70879 0
M  V30 2520 H 228.773 5.19702 2.9945 0
M  V30 2521 H 230.452 5.7838 2.89974 0
M  V30 2522 N 230.584 -0.659388 1.43143 0
M  V30 2523 C 231.514 -1.78422 1.50625 0
M  V30 2524 C 232.495 -1.66216 0.361443 0
M  V30 2525 O 233.68 -1.85404 0.577834 0
M  V30 2526 C 230.81 -3.16815 1.42287 0
M  V30 2527 C 229.764 -3.43777 2.54954 0
M  V30 2528 C 229.09 -4.81905 2.31671 0
M  V30 2529 C 230.39 -3.39134 3.97222 0
M  V30 2530 H 232.084 -1.72417 2.44771 0
M  V30 2531 H 229.63 -0.828084 1.17808 0
M  V30 2532 H 231.583 -3.95253 1.46127 0
M  V30 2533 H 230.307 -3.23534 0.446435 0
M  V30 2534 H 228.966 -2.67707 2.50457 0
M  V30 2535 H 228.614 -4.85294 1.32284 0
M  V30 2536 H 228.314 -5.00906 3.07192 0
M  V30 2537 H 229.838 -5.62609 2.37284 0
M  V30 2538 H 231.252 -4.07518 4.03239 0
M  V30 2539 H 229.649 -3.69671 4.72719 0
M  V30 2540 H 230.719 -2.37426 4.22797 0
M  V30 2541 N 232.062 -1.29571 -0.897171 0
M  V30 2542 C 232.992 -1.17473 -2.01798 0
M  V30 2543 C 233.973 -0.068323 -1.69963 0
M  V30 2544 O 235.158 -0.248239 -1.92607 0
M  V30 2545 C 232.288 -0.853099 -3.36659 0
M  V30 2546 C 231.242 -1.9161 -3.82713 0
M  V30 2547 C 230.568 -1.44773 -5.14728 0
M  V30 2548 C 231.868 -3.32535 -4.02763 0
M  V30 2549 H 233.562 -2.11237 -2.12177 0
M  V30 2550 H 231.108 -1.01699 -1.01948 0
M  V30 2551 H 233.061 -0.755165 -4.14578 0
M  V30 2552 H 231.785 0.120236 -3.26379 0
M  V30 2553 H 230.444 -2.00346 -3.07013 0
M  V30 2554 H 230.092 -0.462995 -5.00865 0
M  V30 2555 H 229.792 -2.15865 -5.46513 0
M  V30 2556 H 231.316 -1.36334 -5.95185 0
M  V30 2557 H 232.73 -3.26626 -4.71156 0
M  V30 2558 H 231.127 -4.01607 -4.45905 0
M  V30 2559 H 232.197 -3.75326 -3.07016 0
M  V30 2560 N 233.54 1.10788 -1.12088 0
M  V30 2561 C 234.768 1.86461 -0.896651 0
M  V30 2562 C 235.183 1.80492 0.553912 0
M  V30 2563 O 234.54 1.19102 1.38278 0
M  V30 2564 C 234.591 3.35006 -1.35843 0
M  V30 2565 O 234.312 3.40866 -2.75213 0
M  V30 2566 C 235.813 4.27565 -1.1706 0
M  V30 2567 H 233.033 0.589425 -0.320654 0
M  V30 2568 H 235.577 1.40076 -1.48993 0
M  V30 2569 H 233.732 3.7887 -0.808458 0
M  V30 2570 H 234.146 4.33411 -2.9539 0
M  V30 2571 H 235.62 5.30007 -1.54263 0
M  V30 2572 H 236.097 4.3906 -0.110814 0
M  V30 2573 H 236.703 3.89501 -1.70789 0
M  V30 2574 N 235.018 0.912232 1.28515 0
M  V30 2575 C 236.246 0.560416 1.99166 0
M  V30 2576 C 236.661 -0.857927 1.68182 0
M  V30 2577 O 236.018 -1.56805 0.933733 0
M  V30 2578 C 236.069 0.758142 3.53461 0
M  V30 2579 O 235.79 2.12067 3.83352 0
M  V30 2580 C 237.291 0.412954 4.41372 0
M  V30 2581 H 234.511 0.213805 0.636026 0
M  V30 2582 H 237.055 1.22502 1.63749 0
M  V30 2583 H 235.21 0.140556 3.87145 0
M  V30 2584 H 235.624 2.15923 4.77993 0
M  V30 2585 H 237.098 0.60208 5.48707 0
M  V30 2586 H 237.575 -0.65073 4.34353 0
M  V30 2587 H 238.181 1.00802 4.13182 0
M  V30 2588 N 236.496 -1.42363 0.676048 0
M  V30 2589 C 237.406 -2.346 -0.00153389 0
M  V30 2590 C 238.422 -1.5516 -0.787485 0
M  V30 2591 O 239.598 -1.87723 -0.729521 0
M  V30 2592 C 236.663 -3.33705 -0.940298 0
M  V30 2593 C 235.724 -4.29042 -0.148739 0
M  V30 2594 C 234.957 -5.23413 -1.04279 0
M  V30 2595 O 235.18 -5.22749 -2.28232 0
M  V30 2596 O 234.114 -5.99795 -0.502925 0
M  V30 2597 H 237.94 -2.94082 0.758268 0
M  V30 2598 H 235.525 -1.42888 0.436289 0
M  V30 2599 H 237.407 -3.94586 -1.47917 0
M  V30 2600 H 236.082 -2.76695 -1.67993 0
M  V30 2601 H 234.989 -3.71571 0.43427 0
M  V30 2602 H 236.322 -4.89097 0.551805 0
M  V30 2603 N 237.974 -0.419461 -1.51915 0
M  V30 2604 C 239.222 0.152637 -2.01523 0
M  V30 2605 C 239.543 1.44762 -1.30649 0
M  V30 2606 O 238.813 1.90997 -0.435535 0
M  V30 2607 H 237.393 0.0593966 -0.744635 0
M  V30 2608 H 240.055 -0.558073 -1.86739 0
M  V30 2609 H 239.151 0.341369 -3.10227 0
M  V30 2610 N 239.452 1.56882 -0.150215 0
M  V30 2611 C 240.7 1.9584 0.499105 0
M  V30 2612 C 241.021 1.03623 1.65188 0
M  V30 2613 O 240.291 0.0984084 1.95653 0
M  V30 2614 H 238.871 0.723119 0.187373 0
M  V30 2615 H 241.533 1.9358 -0.226466 0
M  V30 2616 H 240.629 2.99638 0.873122 0
M  V30 2617 N 240.93 -0.123565 1.57115 0
M  V30 2618 C 242.176 -0.833386 1.84885 0
M  V30 2619 C 242.509 -1.79742 0.735292 0
M  V30 2620 O 241.784 -1.92764 -0.25925 0
M  V30 2621 C 242.067 -1.5873 3.23228 0
M  V30 2622 C 241.92 -0.643183 4.45178 0
M  V30 2623 C 243.239 -2.54453 3.59085 0
M  V30 2624 H 240.358 -0.301518 0.6725 0
M  V30 2625 H 243 -0.097778 1.89748 0
M  V30 2626 H 241.15 -2.21438 3.19214 0
M  V30 2627 H 242.822 -0.0253015 4.61293 0
M  V30 2628 H 241.065 0.0456139 4.33776 0
M  V30 2629 H 241.736 -1.20724 5.38637 0
M  V30 2630 H 244.212 -2.01853 3.63861 0
M  V30 2631 H 243.088 -3.04238 4.5687 0
M  V30 2632 H 243.349 -3.36906 2.86264 0
M  V30 2633 N 242.408 -1.52605 -0.393616 0
M  V30 2634 C 243.355 -1.77055 -1.48054 0
M  V30 2635 C 244.325 -0.61358 -1.54352 0
M  V30 2636 O 245.51 -0.852806 -1.70681 0
M  V30 2637 C 242.65 -1.94108 -2.85335 0
M  V30 2638 C 241.763 -3.21792 -2.88226 0
M  V30 2639 C 240.898 -3.29188 -4.16904 0
M  V30 2640 C 239.937 -4.51013 -4.13828 0
M  V30 2641 N 239.074 -4.55716 -5.34105 0
M  V30 2642 H 243.914 -2.69815 -1.26506 0
M  V30 2643 H 241.451 -1.33683 -0.61379 0
M  V30 2644 H 243.409 -2.01979 -3.65049 0
M  V30 2645 H 242.039 -1.04713 -3.05344 0
M  V30 2646 H 241.091 -3.23015 -2.00911 0
M  V30 2647 H 242.403 -4.11557 -2.8182 0
M  V30 2648 H 241.557 -3.36216 -5.05018 0
M  V30 2649 H 240.296 -2.37389 -4.26026 0
M  V30 2650 H 239.301 -4.44115 -3.24102 0
M  V30 2651 H 240.526 -5.44123 -4.06333 0
M  V30 2652 H 238.472 -3.66807 -5.43865 0
M  V30 2653 H 238.389 -5.39346 -5.29756 0
M  V30 2654 H 239.657 -4.66993 -6.2413 0
M  V30 2655 N 243.887 0.651787 -1.4349 0
M  V30 2656 C 244.817 1.77621 -1.51569 0
M  V30 2657 C 245.798 1.66022 -0.370253 0
M  V30 2658 O 246.983 1.85095 -0.587658 0
M  V30 2659 C 244.113 3.16056 -1.43966 0
M  V30 2660 C 243.067 3.4242 -2.56774 0
M  V30 2661 C 242.393 4.8067 -2.34223 0
M  V30 2662 C 243.693 3.37023 -3.99015 0
M  V30 2663 H 245.387 1.71117 -2.45681 0
M  V30 2664 H 242.933 0.821825 -1.18246 0
M  V30 2665 H 244.886 3.94472 -1.48221 0
M  V30 2666 H 243.61 3.23293 -0.463586 0
M  V30 2667 H 242.269 2.66375 -2.51873 0
M  V30 2668 H 241.917 4.84585 -1.34856 0
M  V30 2669 H 241.617 4.9927 -3.09844 0
M  V30 2670 H 243.141 5.61342 -2.40265 0
M  V30 2671 H 244.555 4.05374 -4.05395 0
M  V30 2672 H 242.952 3.67159 -4.74673 0
M  V30 2673 H 244.022 2.3518 -4.2405 0
M  V30 2674 N 245.365 1.30045 0.890287 0
M  V30 2675 C 246.611 1.18737 1.64406 0
M  V30 2676 C 246.944 -0.258525 1.92472 0
M  V30 2677 O 246.219 -1.18562 1.54186 0
M  V30 2678 C 246.502 2.01087 2.98724 0
M  V30 2679 C 246.355 3.53867 2.77665 0
M  V30 2680 C 247.674 1.84457 3.9958 0
M  V30 2681 H 244.793 0.432698 0.596608 0
M  V30 2682 H 247.435 1.5962 1.0306 0
M  V30 2683 H 245.585 1.66349 3.51084 0
M  V30 2684 H 247.257 3.98637 2.32133 0
M  V30 2685 H 245.5 3.78318 2.12269 0
M  V30 2686 H 246.171 4.06772 3.7315 0
M  V30 2687 H 248.647 2.14817 3.56361 0
M  V30 2688 H 247.523 2.44411 4.91482 0
M  V30 2689 H 247.784 0.802276 4.3476 0
M  V30 2690 N 246.843 -1.10192 1.12674 0
M  V30 2691 C 248.12 -1.78717 0.794965 0
M  V30 2692 C 248.5 -1.98628 -0.714853 0
M  V30 2693 O 247.848 -1.58135 -1.64941 0
M  V30 2694 C 248.058 -3.11546 1.5729 0
M  V30 2695 C 249.406 -3.86382 1.76052 0
M  V30 2696 O 250.43 -3.21274 1.53823 0
M  V30 2697 O 249.289 -5.03246 2.13087 0
M  V30 2698 H 246.383 -0.774702 0.289423 0
M  V30 2699 H 248.929 -1.16819 1.23091 0
M  V30 2700 H 247.701 -2.92489 2.59935 0
M  V30 2701 H 247.324 -3.81164 1.13137 0
M  V30 2702 N 248.321 -0.919034 -1.28029 0
M  V30 2703 C 249.568 -0.554934 -1.94748 0
M  V30 2704 C 249.896 0.90231 -1.72304 0
M  V30 2705 O 249.151 1.65767 -1.04018 0
M  V30 2706 C 249.45 -0.816855 -3.4794 0
M  V30 2707 C 249.116 -2.25448 -3.90492 0
M  V30 2708 C 247.778 -2.64752 -4.01821 0
M  V30 2709 C 250.13 -3.18977 -4.12193 0
M  V30 2710 C 247.458 -3.96727 -4.32232 0
M  V30 2711 C 249.81 -4.50523 -4.44086 0
M  V30 2712 C 248.474 -4.89673 -4.53626 0
M  V30 2713 H 247.744 -0.203065 -0.712633 0
M  V30 2714 H 250.391 -1.16136 -1.52265 0
M  V30 2715 H 248.696 -0.127677 -3.91592 0
M  V30 2716 H 250.393 -0.514238 -3.97689 0
M  V30 2717 H 246.983 -1.93952 -3.82205 0
M  V30 2718 H 251.167 -2.89817 -4.02889 0
M  V30 2719 H 246.423 -4.26754 -4.37825 0
M  V30 2720 H 250.597 -5.23005 -4.59825 0
M  V30 2721 H 248.224 -5.91969 -4.76946 0
M  V30 2722 N 249.799 1.42003 -0.683588 0
M  V30 2723 C 251.047 2.01015 -0.209101 0
M  V30 2724 C 251.368 1.54365 1.19149 0
M  V30 2725 O 250.638 0.769083 1.80172 0
M  V30 2726 H 249.218 0.743294 -0.074315 0
M  V30 2727 H 251.88 1.73798 -0.882066 0
M  V30 2728 H 250.976 3.11343 -0.2172 0
M  V30 2729 N 251.277 0.427512 1.51691 0
M  V30 2730 C 252.523 -0.142439 2.02299 0
M  V30 2731 C 252.856 -1.43214 1.31162 0
M  V30 2732 O 252.131 -1.89833 0.423511 0
M  V30 2733 C 252.414 -0.371301 3.58181 0
M  V30 2734 C 252.267 0.936358 4.39946 0
M  V30 2735 C 253.586 -1.14542 4.24933 0
M  V30 2736 H 250.705 -0.0502937 0.735282 0
M  V30 2737 H 253.347 0.564584 1.81418 0
M  V30 2738 H 251.497 -0.973559 3.76104 0
M  V30 2739 H 253.169 1.57184 4.33694 0
M  V30 2740 H 251.412 1.5432 4.05423 0
M  V30 2741 H 252.083 0.730388 5.47147 0
M  V30 2742 H 254.559 -0.635362 4.11221 0
M  V30 2743 H 253.435 -1.27431 5.33903 0
M  V30 2744 H 253.696 -2.17093 3.85127 0
M  V30 2745 N 252.755 -1.56801 0.158532 0
M  V30 2746 C 253.98 -2.01295 -0.499516 0
M  V30 2747 C 254.405 -1.03799 -1.56867 0
M  V30 2748 O 253.763 -0.0155162 -1.81293 0
M  V30 2749 C 253.811 -3.44469 -1.06647 0
M  V30 2750 O 252.915 -3.50012 -2.18095 0
M  V30 2751 H 252.256 -0.652884 -0.12099 0
M  V30 2752 H 254.786 -2.02958 0.258661 0
M  V30 2753 H 254.796 -3.8351 -1.39227 0
M  V30 2754 H 253.471 -4.14932 -0.283581 0
M  V30 2755 H 252.048 -3.22822 -1.86656 0
M  V30 2756 N 254.233 0.115231 -1.57178 0
M  V30 2757 C 255.196 1.12526 -1.99676 0
M  V30 2758 C 256.196 1.34095 -0.88742 0
M  V30 2759 O 257.386 1.30548 -1.15337 0
M  V30 2760 C 254.518 2.4789 -2.34015 0
M  V30 2761 H 255.711 0.759912 -2.90113 0
M  V30 2762 H 253.264 0.359648 -1.52106 0
M  V30 2763 H 253.999 2.89339 -1.4647 0
M  V30 2764 H 253.784 2.33588 -3.14927 0
M  V30 2765 H 255.274 3.20575 -2.67622 0
M  V30 2766 N 255.711 1.52812 0.385517 0
M  V30 2767 C 256.643 1.74096 1.49074 0
M  V30 2768 C 257.656 0.621462 1.50472 0
M  V30 2769 O 258.845 0.897245 1.54311 0
M  V30 2770 C 255.945 1.78774 2.87911 0
M  V30 2771 C 255.118 3.08134 3.10439 0
M  V30 2772 C 254.177 3.04313 4.29278 0
M  V30 2773 O 253.203 3.78168 4.25415 0
M  V30 2774 N 254.405 2.23741 5.35649 0
M  V30 2775 H 257.17 2.69455 1.31202 0
M  V30 2776 H 254.731 1.51343 0.575065 0
M  V30 2777 H 256.723 1.73721 3.65518 0
M  V30 2778 H 255.293 0.907869 2.99126 0
M  V30 2779 H 254.513 3.26649 2.20667 0
M  V30 2780 H 255.801 3.93662 3.22347 0
M  V30 2781 H 255.199 1.63211 5.41645 0
M  V30 2782 H 253.756 2.24524 6.11909 0
M  V30 2783 N 257.189 -0.644168 1.43834 0
M  V30 2784 C 258.119 -1.76814 1.52509 0
M  V30 2785 C 259.1 -1.65823 0.379052 0
M  V30 2786 O 260.285 -1.84781 0.597466 0
M  V30 2787 C 257.415 -3.15288 1.4564 0
M  V30 2788 C 256.369 -3.41053 2.58586 0
M  V30 2789 C 255.695 -4.79421 2.36769 0
M  V30 2790 C 256.995 -3.34902 4.00797 0
M  V30 2791 H 258.689 -1.69812 2.46586 0
M  V30 2792 H 256.235 -0.815542 1.1868 0
M  V30 2793 H 258.188 -3.93681 1.50311 0
M  V30 2794 H 256.912 -3.23043 0.480725 0
M  V30 2795 H 255.571 -2.65035 2.53282 0
M  V30 2796 H 255.219 -4.83863 1.37424 0
M  V30 2797 H 254.919 -4.9762 3.12487 0
M  V30 2798 H 256.443 -5.6006 2.43238 0
M  V30 2799 H 257.857 -4.03218 4.07539 0
M  V30 2800 H 256.254 -3.64637 4.76613 0
M  V30 2801 H 257.324 -2.32928 4.25291 0
M  V30 2802 N 258.668 -1.30515 -0.883378 0
M  V30 2803 C 259.896 -1.22359 -1.66841 0
M  V30 2804 C 260.311 0.213296 -1.87591 0
M  V30 2805 O 259.668 1.14075 -1.42454 0
M  V30 2806 C 259.719 -1.95011 -3.04389 0
M  V30 2807 O 259.44 -3.3309 -2.84575 0
M  V30 2808 C 260.941 -1.93532 -3.98824 0
M  V30 2809 H 258.161 -0.423371 -0.520575 0
M  V30 2810 H 260.705 -1.72167 -1.10357 0
M  V30 2811 H 258.86 -1.48997 -3.57601 0
M  V30 2812 H 259.274 -3.69907 -3.71846 0
M  V30 2813 H 260.748 -2.48902 -4.92699 0
M  V30 2814 H 261.225 -0.914627 -4.29571 0
M  V30 2815 H 261.831 -2.39364 -3.51547 0
M  V30 2816 N 260.146 1.09593 -1.13257 0
M  V30 2817 C 261.371 1.8604 -0.916732 0
M  V30 2818 C 261.796 1.80504 0.529146 0
M  V30 2819 O 261.154 1.18127 1.37534 0
M  V30 2820 C 261.202 3.32017 -1.40703 0
M  V30 2821 O 260.306 4.08141 -0.591153 0
M  V30 2822 H 259.647 0.576943 -0.328683 0
M  V30 2823 H 262.177 1.38405 -1.50682 0
M  V30 2824 H 262.187 3.82865 -1.4099 0
M  V30 2825 H 260.862 3.35361 -2.45979 0
M  V30 2826 H 259.439 3.67084 -0.656005 0
M  V30 2827 N 261.624 0.925811 1.2754 0
M  V30 2828 C 262.852 0.581509 1.9856 0
M  V30 2829 C 263.267 -0.840041 1.69082 0
M  V30 2830 O 262.624 -1.55805 0.950312 0
M  V30 2831 C 262.675 0.795589 3.52637 0
M  V30 2832 O 262.396 2.16121 3.81082 0
M  V30 2833 C 263.897 0.459744 4.4091 0
M  V30 2834 H 261.117 0.220538 0.633722 0
M  V30 2835 H 263.661 1.24232 1.6244 0
M  V30 2836 H 261.816 0.18161 3.86974 0
M  V30 2837 H 262.23 2.2098 4.75676 0
M  V30 2838 H 263.704 0.660244 5.48037 0
M  V30 2839 H 264.181 -0.604625 4.35018 0
M  V30 2840 H 264.787 1.05178 4.12089 0
M  V30 2841 N 263.102 -1.41638 0.69111 0
M  V30 2842 C 264.518 -1.55435 0.362224 0
M  V30 2843 C 264.718 -1.66754 -1.13117 0
M  V30 2844 O 263.774 -1.64348 -1.91692 0
M  V30 2845 C 265.087 -2.79588 1.10684 0
M  V30 2846 C 266.635 -2.9338 1.09075 0
M  V30 2847 C 267.11 -4.20414 1.81703 0
M  V30 2848 N 268.601 -4.27362 1.7865 0
M  V30 2849 C 269.336 -5.24507 2.31689 0
M  V30 2850 N 268.832 -6.27708 2.93179 0
M  V30 2851 N 270.625 -5.16416 2.2197 0
M  V30 2852 H 262.776 -1.32536 1.65976 0
M  V30 2853 H 265.039 -0.639115 0.700168 0
M  V30 2854 H 264.745 -2.77419 2.16175 0
M  V30 2855 H 264.619 -3.70973 0.682545 0
M  V30 2856 H 267.006 -2.95067 0.0441238 0
M  V30 2857 H 267.087 -2.0318 1.55407 0
M  V30 2858 H 266.731 -4.19488 2.86343 0
M  V30 2859 H 266.661 -5.09578 1.32808 0
M  V30 2860 H 269.152 -3.53415 1.33815 0
M  V30 2861 H 269.465 -6.98217 3.31229 0
M  V30 2862 H 267.81 -6.28223 2.97255 0
M  V30 2863 H 271.001 -4.34716 1.73607 0
M  V30 2864 H 271.174 -5.91958 2.63609 0
M  V30 2865 N 264.58 -0.43555 -1.51462 0
M  V30 2866 C 265.53 0.394701 -2.24558 0
M  V30 2867 C 266.514 0.99157 -1.26715 0
M  V30 2868 O 267.706 0.910007 -1.51815 0
M  V30 2869 C 264.835 1.4963 -3.08975 0
M  V30 2870 C 263.921 0.908912 -4.14246 0
M  V30 2871 N 264.312 0.0505335 -5.05775 0
M  V30 2872 C 262.61 1.17668 -4.30198 0
M  V30 2873 C 263.311 -0.279161 -5.8103 0
M  V30 2874 N 262.287 0.336767 -5.42556 0
M  V30 2875 H 266.089 -0.267106 -2.92684 0
M  V30 2876 H 263.603 -0.247518 -1.60503 0
M  V30 2877 H 265.6 2.10394 -3.59917 0
M  V30 2878 H 264.26 2.16046 -2.42393 0
M  V30 2879 H 265.271 -0.31577 -5.16936 0
M  V30 2880 H 261.948 1.83847 -3.74842 0
M  V30 2881 H 263.338 -0.977553 -6.64751 0
M  V30 2882 N 266.058 1.56714 -0.166846 0
M  V30 2883 C 267.474 1.58473 0.189372 0
M  V30 2884 C 267.674 1.18201 1.63189 0
M  V30 2885 O 266.73 0.891528 2.36237 0
M  V30 2886 C 268.043 3.00573 -0.0873872 0
M  V30 2887 C 269.591 3.1299 -0.0252443 0
M  V30 2888 C 270.066 4.57174 -0.274934 0
M  V30 2889 N 271.557 4.62665 -0.222553 0
M  V30 2890 C 272.292 5.72072 -0.389985 0
M  V30 2891 N 271.788 6.90054 -0.616229 0
M  V30 2892 N 273.581 5.61153 -0.326202 0
M  V30 2893 H 265.732 1.8118 -1.10849 0
M  V30 2894 H 267.995 0.839525 -0.440342 0
M  V30 2895 H 267.701 3.34497 -1.0865 0
M  V30 2896 H 267.575 3.72019 0.623037 0
M  V30 2897 H 269.962 2.78895 0.96444 0
M  V30 2898 H 270.043 2.43989 -0.768309 0
M  V30 2899 H 269.687 4.91976 -1.26181 0
M  V30 2900 H 269.617 5.24328 0.48869 0
M  V30 2901 H 272.108 3.77863 -0.0531512 0
M  V30 2902 H 272.421 7.69311 -0.733559 0
M  V30 2903 H 270.766 6.91927 -0.652791 0
M  V30 2904 H 273.957 4.67859 -0.150072 0
M  V30 2905 H 274.13 6.46364 -0.460116 0
M  V30 2906 N 267.536 -0.106894 1.57237 0
M  V30 2907 C 268.952 -0.46078 1.52804 0
M  V30 2908 C 269.152 -1.81184 0.881746 0
M  V30 2909 O 268.208 -2.48102 0.469224 0
M  V30 2910 C 269.521 -0.434127 2.9755 0
M  V30 2911 C 271.069 -0.516821 3.08704 0
M  V30 2912 C 271.544 -0.520436 4.55033 0
M  V30 2913 N 273.035 -0.58153 4.59535 0
M  V30 2914 C 273.77 -0.605973 5.70189 0
M  V30 2915 N 273.266 -0.587331 6.90306 0
M  V30 2916 N 275.059 -0.649895 5.5833 0
M  V30 2917 H 267.21 0.778203 1.9763 0
M  V30 2918 H 269.473 0.288403 0.903066 0
M  V30 2919 H 269.179 0.491197 3.48253 0
M  V30 2920 H 269.053 -1.25748 3.55622 0
M  V30 2921 H 271.44 -1.43256 2.57995 0
M  V30 2922 H 271.521 0.334449 2.53604 0
M  V30 2923 H 271.165 0.391313 5.0639 0
M  V30 2924 H 271.095 -1.38876 5.07958 0
M  V30 2925 H 273.586 -0.60161 3.73081 0
M  V30 2926 H 273.899 -0.60894 7.70397 0
M  V30 2927 H 272.244 -0.554564 6.92784 0
M  V30 2928 H 275.435 -0.661907 4.63397 0
M  V30 2929 H 275.608 -0.665476 6.44574 0
M  V30 2930 N 269.014 -1.53014 -0.377408 0
M  V30 2931 C 269.962 -1.7927 -1.48206 0
M  V30 2932 C 270.956 -0.661195 -1.55963 0
M  V30 2933 O 272.162 -0.843908 -1.58991 0
M  V30 2934 H 268.537 -0.567425 -0.493491 0
M  V30 2935 H 270.508 -2.71753 -1.2326 0
M  V30 2936 C 269.257 -1.98894 -2.85196 0
M  V30 2937 H 268.58 -2.85395 -2.79981 0
M  V30 2938 H 270.02 -2.21249 -3.61698 0
M  V30 2939 C 268.479 -0.764691 -3.28107 0
M  V30 2940 O 269.009 0.0523226 -4.01666 0
M  V30 2941 N 267.215 -0.591493 -2.84517 0
M  V30 2942 H 266.762 -1.25749 -2.24822 0
M  V30 2943 H 266.72 0.226253 -3.13585 0
M  V30 2944 N 270.492 0.636531 -1.44174 0
M  V30 2945 C 271.72 1.42353 -1.50144 0
M  V30 2946 C 272.135 1.88389 -0.124575 0
M  V30 2947 O 271.492 1.6051 0.868489 0
M  V30 2948 C 271.543 2.64744 -2.46156 0
M  V30 2949 O 271.264 2.20629 -3.7849 0
M  V30 2950 C 272.765 3.57929 -2.61537 0
M  V30 2951 H 269.985 0.436752 -0.5094 0
M  V30 2952 H 272.529 0.778933 -1.89084 0
M  V30 2953 H 270.684 3.25307 -2.10366 0
M  V30 2954 H 271.098 2.99938 -4.30276 0
M  V30 2955 H 272.572 4.40428 -3.32757 0
M  V30 2956 H 273.049 4.06382 -1.66585 0
M  V30 2957 H 273.655 3.03238 -2.98206 0
M  V30 2958 N 271.97 1.30982 0.876444 0
M  V30 2959 C 273.195 1.23373 1.66715 0
M  V30 2960 C 273.62 -0.19885 1.87046 0
M  V30 2961 O 272.978 -1.1427 1.40756 0
M  V30 2962 C 273.026 1.97644 3.01611 0
M  V30 2963 O 272.13 1.30935 3.91062 0
M  V30 2964 H 271.471 0.426279 0.509099 0
M  V30 2965 H 274.001 1.72944 1.09323 0
M  V30 2966 H 274.011 2.06992 3.51594 0
M  V30 2967 H 272.686 3.01829 2.86133 0
M  V30 2968 H 271.263 1.29996 3.49507 0
M  V30 2969 N 273.449 -1.08991 1.13837 0
M  V30 2970 C 274.695 -1.81526 0.90422 0
M  V30 2971 C 275.028 -1.85706 -0.568066 0
M  V30 2972 O 274.303 -1.32855 -1.42056 0
M  V30 2973 C 274.586 -3.27447 1.49835 0
M  V30 2974 C 274.439 -3.31512 3.04006 0
M  V30 2975 C 275.758 -4.24256 1.17025 0
M  V30 2976 H 272.877 -0.659029 0.329923 0
M  V30 2977 H 275.519 -1.27644 1.40737 0
M  V30 2978 H 273.669 -3.73462 1.07044 0
M  V30 2979 H 275.341 -2.93867 3.55584 0
M  V30 2980 H 273.584 -2.70963 3.38765 0
M  V30 2981 H 274.255 -4.34329 3.40679 0
M  V30 2982 H 276.731 -3.86549 1.54009 0
M  V30 2983 H 275.607 -5.24684 1.61237 0
M  V30 2984 H 275.868 -4.42019 0.0846274 0
M  V30 2985 N 274.927 -0.932562 -1.27047 0
M  V30 2986 C 276.175 -0.574422 -1.93765 0
M  V30 2987 C 276.496 0.887993 -1.73608 0
M  V30 2988 O 275.766 1.62999 -1.08665 0
M  V30 2989 H 274.346 -0.209451 -0.717035 0
M  V30 2990 H 277.008 -1.18601 -1.5466 0
M  V30 2991 H 276.104 -0.784841 -3.02071 0
M  V30 2992 N 276.405 1.4127 -0.698611 0
M  V30 2993 C 277.633 2.05503 -0.239992 0
M  V30 2994 C 278.048 1.52584 1.11191 0
M  V30 2995 O 277.405 0.675323 1.69545 0
M  V30 2996 C 277.456 3.60987 -0.192429 0
M  V30 2997 O 277.177 4.1195 -1.49094 0
M  V30 2998 C 278.678 4.42371 0.28681 0
M  V30 2999 H 275.898 0.661748 -0.111045 0
M  V30 3000 H 278.442 1.80987 -0.95205 0
M  V30 3001 H 276.597 3.84533 0.470472 0
M  V30 3002 H 277.011 5.06018 -1.38007 0
M  V30 3003 H 278.485 5.51344 0.26896 0
M  V30 3004 H 278.962 4.18699 1.32619 0
M  V30 3005 H 279.568 4.23897 -0.345201 0
M  V30 3006 N 277.883 0.443576 1.51229 0
M  V30 3007 C 279.294 -0.0180867 1.86691 0
M  V30 3008 C 279.645 -1.41384 1.36033 0
M  V30 3009 O 278.77 -2.04291 0.713722 0
M  V30 3010 C 279.365 -0.039597 3.38777 0
M  V30 3011 C 277.924 -0.445692 3.73752 0
M  V30 3012 C 277.071 0.357584 2.74985 0
M  V30 3013 H 280.022 0.659138 1.44364 0
M  V30 3014 H 280.043 -0.847761 3.70936 0
M  V30 3015 H 279.555 0.976382 3.75617 0
M  V30 3016 H 277.656 -1.46704 3.42503 0
M  V30 3017 H 277.769 -0.166155 4.78812 0
M  V30 3018 H 276.133 -0.184973 2.54027 0
M  V30 3019 H 276.916 1.37256 3.14668 0
M  V30 3020 N 279.361 -1.56624 0.175154 0
M  V30 3021 C 280.608 -1.96999 -0.468811 0
M  V30 3022 C 280.936 -1.06129 -1.62994 0
M  V30 3023 O 280.191 -0.0961771 -1.95464 0
M  V30 3024 C 280.49 -3.43419 -0.989864 0
M  V30 3025 C 280.156 -4.50866 0.0557687 0
M  V30 3026 C 278.818 -4.79975 0.343134 0
M  V30 3027 C 281.17 -5.15551 0.765308 0
M  V30 3028 C 278.498 -5.71066 1.34536 0
M  V30 3029 C 280.85 -6.07724 1.75654 0
M  V30 3030 C 279.514 -6.35199 2.05132 0
M  V30 3031 H 278.784 -0.720869 -0.17155 0
M  V30 3032 H 281.431 -1.89616 0.267924 0
M  V30 3033 H 279.736 -3.47772 -1.80449 0
M  V30 3034 H 281.433 -3.72002 -1.49719 0
M  V30 3035 H 278.023 -4.28229 -0.178381 0
M  V30 3036 H 282.207 -4.9317 0.556513 0
M  V30 3037 H 277.463 -5.90635 1.57988 0
M  V30 3038 H 281.637 -6.56912 2.31169 0
M  V30 3039 H 279.264 -7.05584 2.8294 0
M  V30 3040 N 280.839 0.0985539 -1.57292 0
M  V30 3041 C 282.085 0.798769 -1.87059 0
M  V30 3042 C 282.44 1.76514 -0.76555 0
M  V30 3043 O 281.733 1.90181 0.232752 0
M  V30 3044 C 281.927 1.56927 -3.21105 0
M  V30 3045 C 281.756 0.679026 -4.44544 0
M  V30 3046 C 280.526 0.326071 -5.04247 0
M  V30 3047 C 282.724 -0.0124715 -5.14298 0
M  V30 3048 N 280.706 -0.572702 -6.11223 0
M  V30 3049 C 282.077 -0.769446 -6.15207 0
M  V30 3050 C 284.132 -0.0867545 -4.97824 0
M  V30 3051 C 282.835 -1.59376 -7.01421 0
M  V30 3052 C 284.861 -0.897955 -5.84543 0
M  V30 3053 C 284.223 -1.64306 -6.84969 0
M  V30 3054 H 280.322 0.268568 -0.734435 0
M  V30 3055 H 282.906 0.0614664 -1.94603 0
M  V30 3056 H 281.077 2.27748 -3.1462 0
M  V30 3057 H 282.809 2.21641 -3.38611 0
M  V30 3058 H 279.564 0.67295 -4.68795 0
M  V30 3059 H 279.988 -1.01454 -6.69355 0
M  V30 3060 H 284.63 0.474963 -4.20124 0
M  V30 3061 H 282.348 -2.16655 -7.78515 0
M  V30 3062 H 285.934 -0.958059 -5.73858 0
M  V30 3063 H 284.814 -2.26065 -7.50909 0
M  V30 3064 N 282.317 1.53212 0.369288 0
M  V30 3065 C 283.25 1.74166 1.4745 0
M  V30 3066 C 284.228 0.589923 1.51521 0
M  V30 3067 O 285.412 0.822078 1.69629 0
M  V30 3068 C 282.539 1.81711 2.8583 0
M  V30 3069 C 281.585 3.03649 2.99499 0
M  V30 3070 S 282.418 4.63242 2.6864 0
M  V30 3071 C 283.574 4.7363 4.09177 0
M  V30 3072 H 283.807 2.67636 1.29454 0
M  V30 3073 H 281.34 1.43754 0.563396 0
M  V30 3074 H 283.298 1.86743 3.65564 0
M  V30 3075 H 281.959 0.89299 3.01139 0
M  V30 3076 H 281.152 3.05526 4.00836 0
M  V30 3077 H 280.754 2.9671 2.27683 0
M  V30 3078 H 283.046 4.53456 5.03372 0
M  V30 3079 H 283.989 5.75682 4.12306 0
M  V30 3080 H 284.397 4.02295 3.96004 0
M  V30 3081 N 283.795 -0.628877 1.44509 0
M  V30 3082 C 284.758 -1.72263 1.51188 0
M  V30 3083 C 285.758 -1.55907 0.39367 0
M  V30 3084 O 286.948 -1.61361 0.656377 0
M  V30 3085 C 284.08 -3.11365 1.38798 0
M  V30 3086 H 285.273 -1.67714 2.4862 0
M  V30 3087 H 282.826 -0.842737 1.31634 0
M  V30 3088 H 283.561 -3.21507 0.424693 0
M  V30 3089 H 283.346 -3.24644 2.19884 0
M  V30 3090 H 284.836 -3.91075 1.46458 0
M  V30 3091 N 285.273 -1.31445 -0.869486 0
M  V30 3092 C 286.684 -1.19042 -1.43826 0
M  V30 3093 C 287.035 0.202919 -1.95148 0
M  V30 3094 O 286.16 1.10071 -1.86315 0
M  V30 3095 C 286.755 -2.15499 -2.6143 0
M  V30 3096 C 285.314 -2.07028 -3.14351 0
M  V30 3097 C 284.461 -2.04701 -1.87063 0
M  V30 3098 H 287.412 -1.43489 -0.677984 0
M  V30 3099 H 287.433 -1.74488 -3.38134 0
M  V30 3100 H 286.945 -3.16899 -2.24046 0
M  V30 3101 H 285.046 -1.08825 -3.56354 0
M  V30 3102 H 285.159 -2.96157 -3.766 0
M  V30 3103 H 283.523 -1.49724 -2.06046 0
M  V30 3104 H 284.306 -3.07857 -1.51917 0
M  V30 3105 N 286.751 1.08385 -1.14413 0
M  V30 3106 C 287.661 2.18856 -0.844951 0
M  V30 3107 C 288.677 1.73121 0.174668 0
M  V30 3108 O 289.853 2.014 0.00312857 0
M  V30 3109 C 286.918 3.45155 -0.32696 0
M  V30 3110 C 285.979 4.05513 -1.40916 0
M  V30 3111 C 285.212 5.25784 -0.915793 0
M  V30 3112 O 285.435 5.69884 0.242651 0
M  V30 3113 O 284.369 5.77545 -1.69487 0
M  V30 3114 H 288.195 2.46919 -1.76818 0
M  V30 3115 H 285.78 1.17524 -0.922411 0
M  V30 3116 H 287.662 4.21377 -0.0440211 0
M  V30 3117 H 286.337 3.18668 0.568539 0
M  V30 3118 H 285.244 3.30879 -1.74556 0
M  V30 3119 H 286.577 4.3625 -2.27919 0
M  V30 3120 N 288.23 0.939286 1.26551 0
M  V30 3121 C 289.476 0.586715 1.94128 0
M  V30 3122 C 289.809 -0.8717 1.73537 0
M  V30 3123 O 289.084 -1.62339 1.07127 0
M  V30 3124 C 289.367 0.927497 3.4795 0
M  V30 3125 C 289.22 2.44052 3.77834 0
M  V30 3126 C 290.539 0.441569 4.37879 0
M  V30 3127 H 287.658 0.21463 0.705055 0
M  V30 3128 H 290.3 1.17316 1.49455 0
M  V30 3129 H 288.45 0.428431 3.8613 0
M  V30 3130 H 290.122 3.01216 3.4938 0
M  V30 3131 H 288.365 2.8848 3.23978 0
M  V30 3132 H 289.036 2.62947 4.85348 0
M  V30 3133 H 291.512 0.869448 4.06915 0
M  V30 3134 H 290.388 0.708856 5.44304 0
M  V30 3135 H 290.649 -0.658467 4.37169 0
M  V30 3136 N 289.708 -1.40897 0.706093 0
M  V30 3137 C 290.957 -2.00284 0.238574 0
M  V30 3138 C 291.27 -1.56604 -1.17194 0
M  V30 3139 O 292.476 -2.08624 -1.73748 0
M  V30 3140 C 290.932 -3.57934 0.375623 0
M  V30 3141 C 290.54 -4.10591 1.79217 0
M  V30 3142 C 292.284 -4.24488 -0.0315857 0
M  V30 3143 C 290.191 -5.60712 1.88032 0
M  V30 3144 H 289.121 -0.749144 0.0854398 0
M  V30 3145 H 291.772 -1.61251 0.875813 0
M  V30 3146 H 290.154 -3.94622 -0.330042 0
M  V30 3147 H 291.328 -3.85301 2.52745 0
M  V30 3148 H 289.643 -3.56601 2.15 0
M  V30 3149 H 292.24 -5.34698 0.0136842 0
M  V30 3150 H 292.583 -4.02261 -1.072 0
M  V30 3151 H 293.116 -3.92873 0.624181 0
M  V30 3152 H 289.855 -5.87781 2.90161 0
M  V30 3153 H 289.375 -5.87896 1.18903 0
M  V30 3154 H 291.054 -6.25658 1.64805 0
M  V30 3155 N 291.186 -0.45159 -1.50991 0
M  V30 3156 C 292.149 0.341117 -2.26647 0
M  V30 3157 C 293.149 0.937422 -1.30649 0
M  V30 3158 O 294.339 0.809644 -1.54241 0
M  V30 3159 C 291.471 1.48398 -3.06905 0
M  V30 3160 H 292.664 -0.322117 -2.98165 0
M  V30 3161 H 290.217 -0.205122 -1.54948 0
M  V30 3162 H 290.952 2.18284 -2.39838 0
M  V30 3163 H 290.737 1.06241 -3.77432 0
M  V30 3164 H 292.227 2.04367 -3.64176 0
M  V30 3165 N 292.664 1.56529 -0.183458 0
M  V30 3166 C 293.904 1.99141 0.460667 0
M  V30 3167 C 294.268 1.06736 1.59597 0
M  V30 3168 O 295.469 1.38538 2.30349 0
M  V30 3169 C 293.74 3.45358 0.919939 0
M  V30 3170 S 295.299 4.09999 1.56354 0
M  V30 3171 H 292.117 0.695479 0.147748 0
M  V30 3172 H 294.719 1.93429 -0.283782 0
M  V30 3173 H 293.423 4.10315 0.0834208 0
M  V30 3174 H 292.954 3.54862 1.69814 0
M  V30 3175 H 294.969 4.06046 2.85203 0
M  V30 3176 N 294.142 -0.090211 1.57342 0
M  V30 3177 C 295.052 -1.12735 2.05738 0
M  V30 3178 C 296.068 -1.43557 0.983231 0
M  V30 3179 O 297.244 -1.54101 1.29672 0
M  V30 3180 C 294.309 -2.42659 2.47624 0
M  V30 3181 C 293.37 -2.18975 3.69254 0
M  V30 3182 C 292.603 -3.42704 4.09133 0
M  V30 3183 O 292.826 -4.51127 3.49057 0
M  V30 3184 O 291.76 -3.32003 5.02053 0
M  V30 3185 H 295.586 -0.746279 2.94388 0
M  V30 3186 H 293.171 -0.303064 1.46294 0
M  V30 3187 H 295.053 -3.19155 2.7517 0
M  V30 3188 H 293.728 -2.80182 1.62109 0
M  V30 3189 H 292.635 -1.40244 3.46818 0
M  V30 3190 H 293.968 -1.86342 4.55563 0
M  V30 3191 N 295.62 -1.53406 -0.361157 0
M  V30 3192 C 296.552 -1.76446 -1.46286 0
M  V30 3193 C 297.565 -0.645322 -1.49464 0
M  V30 3194 O 298.754 -0.921681 -1.52864 0
M  V30 3195 C 295.854 -1.83332 -2.85031 0
M  V30 3196 C 295.027 -3.13033 -3.05498 0
M  V30 3197 C 294.086 -3.11104 -4.24383 0
M  V30 3198 O 293.112 -3.84888 -4.19344 0
M  V30 3199 N 294.314 -2.32234 -5.32022 0
M  V30 3200 H 297.079 -2.71508 -1.26899 0
M  V30 3201 H 294.64 -1.52238 -0.550915 0
M  V30 3202 H 296.632 -1.79514 -3.62708 0
M  V30 3203 H 295.202 -0.955342 -2.97644 0
M  V30 3204 H 294.422 -3.30119 -2.15442 0
M  V30 3205 H 295.71 -3.9874 -3.16044 0
M  V30 3206 H 295.108 -1.71807 -5.38979 0
M  V30 3207 H 293.665 -2.3423 -6.08259 0
M  V30 3208 N 297.098 0.621204 -1.44841 0
M  V30 3209 C 298.03 1.74615 -1.48466 0
M  V30 3210 C 299.043 1.58377 -0.37691 0
M  V30 3211 O 300.232 1.66508 -0.643215 0
M  V30 3212 C 297.332 3.12459 -1.31236 0
M  V30 3213 C 296.505 3.55064 -2.55438 0
M  V30 3214 C 295.564 4.71821 -2.32963 0
M  V30 3215 O 294.59 4.79628 -3.06505 0
M  V30 3216 N 295.792 5.64186 -1.36654 0
M  V30 3217 H 298.557 1.71973 -2.45449 0
M  V30 3218 H 296.118 0.806077 -1.40407 0
M  V30 3219 H 298.11 3.88302 -1.14032 0
M  V30 3220 H 296.68 3.09686 -0.4258 0
M  V30 3221 H 295.9 2.69324 -2.87851 0
M  V30 3222 H 297.188 3.80284 -3.38026 0
M  V30 3223 H 296.586 5.6058 -0.759344 0
M  V30 3224 H 295.143 6.39618 -1.25425 0
M  V30 3225 N 298.576 1.31904 0.862503 0
M  V30 3226 C 299.506 1.22782 1.98612 0
M  V30 3227 C 300.487 0.113362 1.69722 0
M  V30 3228 O 301.672 0.299218 1.91881 0
M  V30 3229 C 298.802 0.942058 3.34279 0
M  V30 3230 C 297.756 2.0169 3.77499 0
M  V30 3231 C 297.082 1.58369 5.10709 0
M  V30 3232 C 298.382 3.43096 3.93805 0
M  V30 3233 H 300.076 2.16788 2.06502 0
M  V30 3234 H 297.622 1.04366 0.992154 0
M  V30 3235 H 299.575 0.864818 4.1243 0
M  V30 3236 H 298.299 -0.0336603 3.26583 0
M  V30 3237 H 296.958 2.08416 3.01593 0
M  V30 3238 H 296.606 0.595628 4.99461 0
M  V30 3239 H 296.306 2.30279 5.40597 0
M  V30 3240 H 297.83 1.52067 5.91361 0
M  V30 3241 H 299.244 3.39003 4.62331 0
M  V30 3242 H 297.641 4.13288 4.35101 0
M  V30 3243 H 298.711 3.83334 2.96957 0
M  V30 3244 N 300.054 -1.07777 1.14986 0
M  V30 3245 C 301.331 -1.7699 0.832695 0
M  V30 3246 C 301.711 -2.001 -0.672561 0
M  V30 3247 O 301.059 -1.61598 -1.6155 0
M  V30 3248 C 301.269 -3.08139 1.63863 0
M  V30 3249 C 302.617 -3.8256 1.84208 0
M  V30 3250 O 303.641 -3.17939 1.60603 0
M  V30 3251 O 302.5 -4.98612 2.23714 0
M  V30 3252 H 299.594 -0.768389 0.305791 0
M  V30 3253 H 302.14 -1.14182 1.25541 0
M  V30 3254 H 300.912 -2.86909 2.6608 0
M  V30 3255 H 300.535 -3.78678 1.21197 0
M  V30 3256 N 301.532 -0.945985 -1.26051 0
M  V30 3257 C 302.76 -0.613025 -1.9761 0
M  V30 3258 C 303.175 0.813035 -1.70397 0
M  V30 3259 O 302.532 1.54274 -0.974979 0
M  V30 3260 C 302.583 -0.85159 -3.51326 0
M  V30 3261 O 302.304 -2.22157 -3.77595 0
M  V30 3262 C 303.805 -0.529831 -4.40122 0
M  V30 3263 H 301.025 -0.230593 -0.630133 0
M  V30 3264 H 303.569 -1.268 -1.60443 0
M  V30 3265 H 301.724 -0.243151 -3.86636 0
M  V30 3266 H 302.138 -2.2852 -4.721 0
M  V30 3267 H 303.612 -0.747348 -5.46917 0
M  V30 3268 H 304.089 0.535341 -4.35925 0
M  V30 3269 H 304.695 -1.11721 -4.10364 0
M  V30 3270 N 303.011 1.40521 -0.713556 0
M  V30 3271 C 304.239 2.05237 -0.261775 0
M  V30 3272 C 304.654 1.53755 1.09567 0
M  V30 3273 O 304.011 0.693268 1.6882 0
M  V30 3274 C 304.062 3.60763 -0.230706 0
M  V30 3275 O 303.783 4.10345 -1.53455 0
M  V30 3276 C 305.284 4.42651 0.239874 0
M  V30 3277 H 302.504 0.660533 -0.118057 0
M  V30 3278 H 305.048 1.79967 -0.971192 0
M  V30 3279 H 303.203 3.8501 0.429661 0
M  V30 3280 H 303.617 5.04526 -1.43366 0
M  V30 3281 H 305.091 5.51599 0.210468 0
M  V30 3282 H 305.568 4.20082 1.28171 0
M  V30 3283 H 306.174 4.23507 -0.390142 0
M  V30 3284 N 304.489 0.459591 1.5075 0
M  V30 3285 C 305.719 -0.0972338 2.06371 0
M  V30 3286 C 306.127 -1.35074 1.32483 0
M  V30 3287 O 305.47 -1.79637 0.384226 0
M  V30 3288 C 305.532 -0.462759 3.56509 0
M  V30 3289 C 305.196 0.687084 4.51805 0
M  V30 3290 C 306.193 1.56578 4.95761 0
M  V30 3291 C 303.878 0.874144 4.94635 0
M  V30 3292 C 305.872 2.61604 5.81242 0
M  V30 3293 C 303.559 1.92765 5.79901 0
M  V30 3294 C 304.557 2.79697 6.23104 0
M  V30 3295 O 304.245 3.83235 7.06673 0
M  V30 3296 H 303.977 -0.00140687 0.675999 0
M  V30 3297 H 306.531 0.644011 1.95043 0
M  V30 3298 H 304.761 -1.25703 3.65699 0
M  V30 3299 H 306.45 -0.953323 3.94546 0
M  V30 3300 H 307.216 1.4329 4.6335 0
M  V30 3301 H 303.095 0.207006 4.60535 0
M  V30 3302 H 306.639 3.29489 6.14884 0
M  V30 3303 H 302.536 2.06064 6.11725 0
M  V30 3304 H 303.304 3.80084 7.24899 0
M  V30 3305 N 305.967 -1.56429 0.191757 0
M  V30 3306 C 307.244 -1.89224 -0.495332 0
M  V30 3307 C 307.624 -1.10478 -1.79883 0
M  V30 3308 O 306.972 -0.204852 -2.2758 0
M  V30 3309 C 307.182 -3.41548 -0.717367 0
M  V30 3310 C 308.53 -4.11711 -1.03823 0
M  V30 3311 O 309.554 -3.4698 -0.805204 0
M  V30 3312 O 308.413 -5.2611 -1.47887 0
M  V30 3313 H 305.507 -0.785788 -0.25781 0
M  V30 3314 H 308.053 -1.68111 0.231721 0
M  V30 3315 H 306.825 -3.90772 0.203287 0
M  V30 3316 H 306.448 -3.68342 -1.497 0
M  V30 3317 N 307.445 0.0818655 -1.57387 0
M  V30 3318 C 308.408 1.08265 -2.02018 0
M  V30 3319 C 309.408 1.32183 -0.915664 0
M  V30 3320 O 310.598 1.28073 -1.18081 0
M  V30 3321 C 307.73 2.42871 -2.39221 0
M  V30 3322 H 308.923 0.698204 -2.91659 0
M  V30 3323 H 306.476 0.327303 -1.52835 0
M  V30 3324 H 307.211 2.86167 -1.52575 0
M  V30 3325 H 306.996 2.26855 -3.19811 0
M  V30 3326 H 308.486 3.14826 -2.74362 0
M  V30 3327 N 308.923 1.53595 0.353017 0
M  V30 3328 C 310.339 1.43648 0.695516 0
M  V30 3329 C 310.539 0.585617 1.92802 0
M  V30 3330 O 309.595 0.0729223 2.52395 0
M  V30 3331 C 310.908 2.8701 0.896991 0
M  V30 3332 C 312.456 2.96723 0.996209 0
M  V30 3333 C 312.931 4.41173 1.23007 0
M  V30 3334 N 314.422 4.44657 1.29749 0
M  V30 3335 C 315.157 5.53547 1.49577 0
M  V30 3336 N 314.653 6.72461 1.66639 0
M  V30 3337 N 316.446 5.41145 1.52048 0
M  V30 3338 H 308.597 2.07415 -0.457481 0
M  V30 3339 H 310.86 0.9372 -0.142687 0
M  V30 3340 H 310.566 3.51644 0.0629938 0
M  V30 3341 H 310.44 3.31401 1.80148 0
M  V30 3342 H 312.827 2.32235 1.82074 0
M  V30 3343 H 312.908 2.55707 0.0688331 0
M  V30 3344 H 312.552 5.06238 0.410505 0
M  V30 3345 H 312.482 4.79772 2.17086 0
M  V30 3346 H 314.973 3.58963 1.18126 0
M  V30 3347 H 315.286 7.51214 1.81378 0
M  V30 3348 H 313.631 6.75423 1.63794 0
M  V30 3349 H 316.822 4.47205 1.38294 0
M  V30 3350 H 316.995 6.26068 1.67159 0
M  V30 3351 N 310.401 -0.613514 1.45168 0
M  V30 3352 C 311.641 -1.38405 1.5041 0
M  V30 3353 C 312.005 -1.91489 0.139922 0
M  V30 3354 O 313.206 -2.68716 0.067033 0
M  V30 3355 C 311.477 -2.50552 2.5487 0
M  V30 3356 S 313.036 -3.38439 2.79292 0
M  V30 3357 H 309.854 -0.471945 0.531779 0
M  V30 3358 H 312.456 -0.708518 1.82209 0
M  V30 3359 H 311.16 -2.09894 3.52665 0
M  V30 3360 H 310.691 -3.22913 2.24701 0
M  V30 3361 H 312.706 -4.48527 2.12222 0
M  V30 3362 N 311.879 -1.3236 -0.855495 0
M  V30 3363 C 313.156 -1.13491 -1.59309 0
M  V30 3364 C 313.536 0.30503 -2.08885 0
M  V30 3365 O 312.884 1.30151 -1.87811 0
M  V30 3366 C 313.094 -2.16176 -2.73987 0
M  V30 3367 C 314.442 -2.49463 -3.43589 0
M  V30 3368 O 315.466 -2.14715 -2.84211 0
M  V30 3369 O 314.325 -3.09027 -4.50738 0
M  V30 3370 H 311.419 -0.437887 -0.701559 0
M  V30 3371 H 313.965 -1.43887 -0.899696 0
M  V30 3372 H 312.737 -3.1297 -2.34873 0
M  V30 3373 H 312.36 -1.86769 -3.51003 0
M  V30 3374 N 313.357 1.07166 -1.15556 0
M  V30 3375 C 314.585 1.83514 -0.955519 0
M  V30 3376 C 315 1.82163 0.49621 0
M  V30 3377 O 314.357 1.23441 1.34419 0
M  V30 3378 C 314.408 3.30515 -1.46432 0
M  V30 3379 O 314.129 3.31937 -2.85918 0
M  V30 3380 C 315.63 4.23625 -1.30603 0
M  V30 3381 H 312.85 0.578926 -0.339244 0
M  V30 3382 H 315.394 1.35265 -1.53374 0
M  V30 3383 H 313.549 3.76106 -0.928584 0
M  V30 3384 H 313.963 4.23794 -3.09029 0
M  V30 3385 H 315.437 5.24831 -1.71047 0
M  V30 3386 H 315.914 4.38485 -0.250441 0
M  V30 3387 H 316.52 3.83871 -1.83094 0
M  V30 3388 N 314.835 0.952656 1.25548 0
M  V30 3389 C 316.081 0.616826 1.93822 0
M  V30 3390 C 316.436 -0.836684 1.73255 0
M  V30 3391 O 315.729 -1.59218 1.06584 0
M  V30 3392 C 315.923 0.908818 3.45652 0
M  V30 3393 C 315.752 2.38916 3.80984 0
M  V30 3394 C 314.522 3.04637 4.03143 0
M  V30 3395 C 316.72 3.36838 3.88645 0
M  V30 3396 N 314.702 4.42565 4.25453 0
M  V30 3397 C 316.073 4.60065 4.1562 0
M  V30 3398 C 318.128 3.31704 3.71318 0
M  V30 3399 C 316.831 5.78795 4.2707 0
M  V30 3400 C 318.857 4.4977 3.84006 0
M  V30 3401 C 318.219 5.71783 4.11392 0
M  V30 3402 H 314.318 0.27629 0.731565 0
M  V30 3403 H 316.902 1.22443 1.5138 0
M  V30 3404 H 315.073 0.330166 3.86994 0
M  V30 3405 H 316.805 0.533093 4.01174 0
M  V30 3406 H 313.56 2.55215 3.98952 0
M  V30 3407 H 313.984 5.1399 4.40617 0
M  V30 3408 H 318.626 2.3842 3.49164 0
M  V30 3409 H 316.344 6.72521 4.48041 0
M  V30 3410 H 319.93 4.47342 3.71989 0
M  V30 3411 H 318.81 6.61617 4.2099 0
M  V30 3412 N 316.313 -1.40141 0.720998 0
M  V30 3413 C 317.538 -2.05618 0.271258 0
M  V30 3414 C 317.963 -1.53978 -1.08039 0
M  V30 3415 O 317.321 -0.677463 -1.68167 0
M  V30 3416 C 317.369 -3.59609 0.267197 0
M  V30 3417 O 316.473 -4.05526 -0.749814 0
M  V30 3418 H 315.814 -0.651904 0.126162 0
M  V30 3419 H 318.344 -1.79439 0.982997 0
M  V30 3420 H 318.354 -4.0786 0.106744 0
M  V30 3421 H 317.029 -3.96559 1.25354 0
M  V30 3422 H 315.606 -3.68722 -0.556644 0
M  V30 3423 N 317.792 -0.46758 -1.50504 0
M  V30 3424 C 318.722 0.318381 -2.31319 0
M  V30 3425 C 319.703 0.993564 -1.38066 0
M  V30 3426 O 320.888 0.991411 -1.66987 0
M  V30 3427 C 318.018 1.40275 -3.17711 0
M  V30 3428 C 316.972 0.849373 -4.19487 0
M  V30 3429 C 316.298 2.03177 -4.94594 0
M  V30 3430 C 317.598 -0.136942 -5.2212 0
M  V30 3431 H 319.292 -0.356106 -2.97275 0
M  V30 3432 H 316.838 -0.172703 -1.42961 0
M  V30 3433 H 318.791 1.96004 -3.73042 0
M  V30 3434 H 317.515 2.10596 -2.49634 0
M  V30 3435 H 316.174 0.314076 -3.65252 0
M  V30 3436 H 315.822 2.72187 -4.22993 0
M  V30 3437 H 315.522 1.66774 -5.63436 0
M  V30 3438 H 317.046 2.59403 -5.52759 0
M  V30 3439 H 318.46 0.331056 -5.72343 0
M  V30 3440 H 316.857 -0.41507 -5.98663 0
M  V30 3441 H 317.927 -1.06398 -4.73083 0
M  V30 3442 N 319.27 1.56325 -0.20005 0
M  V30 3443 C 320.518 1.97329 0.436547 0
M  V30 3444 C 320.839 1.08826 1.61808 0
M  V30 3445 O 320.109 0.160604 1.95241 0
M  V30 3446 H 318.689 0.728714 0.164272 0
M  V30 3447 H 321.351 1.92761 -0.287937 0
M  V30 3448 H 320.447 3.02264 0.777353 0
M  V30 3449 N 320.748 -0.0735177 1.57428 0
M  V30 3450 C 321.997 -0.771809 1.86349 0
M  V30 3451 C 322.31 -1.78828 0.792452 0
M  V30 3452 O 323.516 -2.53602 0.96945 0
M  V30 3453 C 321.972 -1.42358 3.30548 0
M  V30 3454 C 321.58 -0.445761 4.45777 0
M  V30 3455 C 323.324 -2.10434 3.6867 0
M  V30 3456 C 321.231 -1.10335 5.81016 0
M  V30 3457 H 320.161 -0.291999 0.695164 0
M  V30 3458 H 322.812 -0.0250749 1.83483 0
M  V30 3459 H 321.194 -2.21852 3.28021 0
M  V30 3460 H 322.368 0.319239 4.59693 0
M  V30 3461 H 320.683 0.130457 4.16196 0
M  V30 3462 H 323.28 -2.60405 4.67004 0
M  V30 3463 H 323.623 -2.90298 2.98383 0
M  V30 3464 H 324.156 -1.37773 3.7318 0
M  V30 3465 H 320.895 -0.345061 6.54591 0
M  V30 3466 H 320.415 -1.83925 5.70904 0
M  V30 3467 H 322.094 -1.62367 6.26295 0
M  V30 3468 N 322.226 -1.5378 -0.344866 0
M  V30 3469 C 323.454 -1.74899 -1.10534 0
M  V30 3470 C 323.869 -0.487534 -1.82397 0
M  V30 3471 O 323.226 0.540741 -1.74305 0
M  V30 3472 C 323.277 -2.92822 -2.11984 0
M  V30 3473 O 322.998 -4.14089 -1.43044 0
M  V30 3474 C 324.499 -3.25982 -3.00417 0
M  V30 3475 H 321.719 -0.584426 -0.329678 0
M  V30 3476 H 324.263 -2.006 -0.397474 0
M  V30 3477 H 322.418 -2.69457 -2.78338 0
M  V30 3478 H 322.832 -4.80272 -2.10805 0
M  V30 3479 H 324.306 -4.11848 -3.67539 0
M  V30 3480 H 324.783 -2.42228 -3.66363 0
M  V30 3481 H 325.389 -3.51349 -2.39654 0
M  V30 3482 N 323.704 0.605807 -1.45491 0
M  V30 3483 C 324.667 1.69836 -1.5391 0
M  V30 3484 C 325.667 1.55261 -0.418424 0
M  V30 3485 O 326.857 1.60296 -0.681965 0
M  V30 3486 C 323.989 3.09117 -1.43734 0
M  V30 3487 H 325.182 1.63738 -2.51257 0
M  V30 3488 H 322.735 0.821689 -1.32959 0
M  V30 3489 H 323.47 3.20791 -0.475788 0
M  V30 3490 H 323.255 3.21104 -2.25021 0
M  V30 3491 H 324.745 3.88696 -1.52661 0
M  V30 3492 N 325.182 1.32811 0.848464 0
M  V30 3493 C 326.431 1.23075 1.59798 0
M  V30 3494 C 326.744 -0.204419 1.94529 0
M  V30 3495 O 327.95 -0.423701 2.68173 0
M  V30 3496 C 326.406 2.15594 2.88179 0
M  V30 3497 C 326.014 3.64228 2.60849 0
M  V30 3498 C 327.758 2.14709 3.66197 0
M  V30 3499 C 325.665 4.48689 3.85269 0
M  V30 3500 H 324.595 0.457091 0.599653 0
M  V30 3501 H 327.246 1.57813 0.936342 0
M  V30 3502 H 325.628 1.73778 3.55833 0
M  V30 3503 H 326.802 4.14424 2.01467 0
M  V30 3504 H 325.117 3.67306 1.96151 0
M  V30 3505 H 327.714 2.75046 4.58534 0
M  V30 3506 H 328.057 1.13966 4.00397 0
M  V30 3507 H 328.59 2.54837 3.05455 0
M  V30 3508 H 325.329 5.5027 3.56207 0
M  V30 3509 H 324.849 4.03241 4.44024 0
M  V30 3510 H 326.528 4.62006 4.52946 0
M  V30 3511 N 326.66 -1.06551 1.16123 0
M  V30 3512 C 327.57 -2.17484 0.879662 0
M  V30 3513 C 328.586 -1.73377 -0.147104 0
M  V30 3514 O 329.762 -2.01379 0.0289128 0
M  V30 3515 C 326.827 -3.44591 0.381829 0
M  V30 3516 C 325.888 -4.0322 1.4735 0
M  V30 3517 C 325.121 -5.24261 0.999324 0
M  V30 3518 O 325.344 -5.70198 -0.151957 0
M  V30 3519 O 324.278 -5.74775 1.78653 0
M  V30 3520 H 328.104 -2.44075 1.80724 0
M  V30 3521 H 325.689 -1.16042 0.940992 0
M  V30 3522 H 327.571 -4.21254 0.111053 0
M  V30 3523 H 326.246 -3.19532 -0.51777 0
M  V30 3524 H 325.153 -3.2806 1.79798 0
M  V30 3525 H 326.486 -4.32568 2.34831 0
M  V30 3526 N 328.138 -0.959301 -1.25041 0
M  V30 3527 C 329.068 -0.501388 -2.28053 0
M  V30 3528 C 330.049 0.454673 -1.63911 0
M  V30 3529 O 331.234 0.352618 -1.90972 0
M  V30 3530 C 328.364 0.217224 -3.4662 0
M  V30 3531 C 327.318 -0.654034 -4.22973 0
M  V30 3532 C 326.644 0.195589 -5.34342 0
M  V30 3533 C 327.944 -1.93447 -4.85155 0
M  V30 3534 H 329.638 -1.36238 -2.66608 0
M  V30 3535 H 327.184 -0.656534 -1.28163 0
M  V30 3536 H 329.137 0.548732 -4.17812 0
M  V30 3537 H 327.861 1.1125 -3.07068 0
M  V30 3538 H 326.52 -0.968693 -3.5357 0
M  V30 3539 H 326.168 1.09076 -4.91031 0
M  V30 3540 H 325.868 -0.384091 -5.86343 0
M  V30 3541 H 327.392 0.521958 -6.08365 0
M  V30 3542 H 328.806 -1.66908 -5.48466 0
M  V30 3543 H 327.203 -2.46018 -5.47353 0
M  V30 3544 H 328.273 -2.63466 -4.07079 0
M  V30 3545 N 329.616 1.39756 -0.72842 0
M  V30 3546 C 330.864 2.00248 -0.272946 0
M  V30 3547 C 331.185 1.58077 1.14178 0
M  V30 3548 O 330.455 0.826014 1.77634 0
M  V30 3549 H 329.035 0.740554 -0.0979247 0
M  V30 3550 H 331.697 1.70903 -0.936912 0
M  V30 3551 H 330.793 3.10495 -0.316142 0
M  V30 3552 N 331.094 0.475555 1.50254 0
M  V30 3553 C 332.371 -0.139685 1.95101 0
M  V30 3554 C 332.751 -1.56555 1.41611 0
M  V30 3555 O 332.099 -2.19956 0.618993 0
M  V30 3556 C 332.309 -0.0784298 3.48912 0
M  V30 3557 C 333.657 -0.265095 4.23772 0
M  V30 3558 O 334.681 -0.154808 3.55863 0
M  V30 3559 O 333.54 -0.488327 5.44314 0
M  V30 3560 H 330.634 -0.109236 0.819754 0
M  V30 3561 H 333.18 0.536276 1.61004 0
M  V30 3562 H 331.952 0.916918 3.80405 0
M  V30 3563 H 331.575 -0.795655 3.89558 0
M  V30 3564 N 332.573 -1.56217 0.208337 0
M  V30 3565 C 333.821 -1.97558 -0.426076 0
M  V30 3566 C 334.142 -1.09683 -1.61229 0
M  V30 3567 O 333.412 -0.170956 -1.95153 0
M  V30 3568 H 331.992 -0.729575 -0.160405 0
M  V30 3569 H 334.654 -1.92606 0.298155 0
M  V30 3570 H 333.75 -3.02672 -0.761312 0
M  V30 3571 N 334.051 0.0651679 -1.57465 0
M  V30 3572 C 335.328 0.79644 -1.78651 0
M  V30 3573 C 335.708 1.95454 -0.797566 0
M  V30 3574 O 335.056 2.27882 0.167946 0
M  V30 3575 C 335.266 1.26322 -3.25337 0
M  V30 3576 C 336.614 1.6939 -3.89348 0
M  V30 3577 O 337.638 1.35872 -3.29268 0
M  V30 3578 O 336.497 2.31471 -4.95059 0
M  V30 3579 H 333.591 0.382157 -0.733407 0
M  V30 3580 H 336.137 0.0447311 -1.69641 0
M  V30 3581 H 334.909 0.434859 -3.88876 0
M  V30 3582 H 334.532 2.07604 -3.39096 0
M  V30 3583 N 335.529 1.53961 0.336706 0
M  V30 3584 C 336.94 1.62914 0.911925 0
M  V30 3585 C 337.291 0.514795 1.89326 0
M  V30 3586 O 336.416 -0.354395 2.13478 0
M  V30 3587 C 337.011 2.95304 1.66076 0
M  V30 3588 C 335.57 3.06496 2.18489 0
M  V30 3589 C 334.717 2.58403 1.00613 0
M  V30 3590 H 337.668 1.58285 0.114649 0
M  V30 3591 H 337.689 2.84727 2.5241 0
M  V30 3592 H 337.201 3.76387 0.946276 0
M  V30 3593 H 335.302 2.3006 2.93092 0
M  V30 3594 H 335.415 4.1208 2.44391 0
M  V30 3595 H 333.779 2.13977 1.38152 0
M  V30 3596 H 334.562 3.41932 0.306179 0
M  V30 3597 N 337.007 -0.598083 1.45811 0
M  V30 3598 C 338.418 -1.18011 1.44673 0
M  V30 3599 C 338.769 -1.95378 0.179364 0
M  V30 3600 O 337.894 -2.04124 -0.718509 0
M  V30 3601 C 338.489 -2.14677 2.62105 0
M  V30 3602 C 337.048 -2.68236 2.64057 0
M  V30 3603 C 336.195 -1.43816 2.37091 0
M  V30 3604 H 339.146 -0.38686 1.53913 0
M  V30 3605 H 339.167 -2.97878 2.36746 0
M  V30 3606 H 338.679 -1.5834 3.5433 0
M  V30 3607 H 336.78 -3.28486 1.75864 0
M  V30 3608 H 336.893 -3.12021 3.63566 0
M  V30 3609 H 335.257 -1.731 1.86838 0
M  V30 3610 H 336.04 -0.893333 3.31473 0
M  V30 3611 N 338.485 -1.33259 -0.841409 0
M  V30 3612 C 339.415 -1.25926 -1.96634 0
M  V30 3613 C 340.396 -0.140349 -1.6952 0
M  V30 3614 O 341.581 -0.329707 -1.91381 0
M  V30 3615 C 338.711 -0.99512 -3.32738 0
M  V30 3616 C 337.665 -2.0767 -3.74242 0
M  V30 3617 C 336.991 -1.66474 -5.08125 0
M  V30 3618 C 338.291 -3.49318 -3.88297 0
M  V30 3619 H 339.985 -2.20046 -2.03027 0
M  V30 3620 H 337.531 -1.05931 -0.975425 0
M  V30 3621 H 339.484 -0.930323 -4.11002 0
M  V30 3622 H 338.208 -0.0183004 -3.26595 0
M  V30 3623 H 336.867 -2.13187 -2.98239 0
M  V30 3624 H 336.515 -0.675012 -4.9845 0
M  V30 3625 H 336.215 -2.3885 -5.36865 0
M  V30 3626 H 337.739 -1.61455 -5.88867 0
M  V30 3627 H 339.153 -3.46316 -4.56879 0
M  V30 3628 H 337.55 -4.20158 -4.28471 0
M  V30 3629 H 338.62 -3.8801 -2.9082 0
M  V30 3630 N 339.963 1.05934 -1.16686 0
M  V30 3631 C 340.926 2.11669 -0.879144 0
M  V30 3632 C 341.926 1.60294 0.127445 0
M  V30 3633 O 343.116 1.7389 -0.103865 0
M  V30 3634 C 340.248 3.39438 -0.315425 0
M  V30 3635 H 341.441 2.38626 -1.81653 0
M  V30 3636 H 338.994 1.22058 -0.976299 0
M  V30 3637 H 339.729 3.18132 0.629468 0
M  V30 3638 H 339.514 3.78034 -1.04079 0
M  V30 3639 H 341.004 4.17391 -0.132189 0
M  V30 3640 N 341.441 0.965919 1.2453 0
M  V30 3641 C 342.718 0.543777 1.87889 0
M  V30 3642 C 343.098 -0.97909 1.87021 0
M  V30 3643 O 342.446 -1.84969 1.3416 0
M  V30 3644 C 342.656 1.13327 3.30088 0
M  V30 3645 C 344.004 1.21707 4.06783 0
M  V30 3646 O 345.028 1.08566 3.39252 0
M  V30 3647 O 343.887 1.42456 5.27606 0
M  V30 3648 H 340.981 0.181054 0.806938 0
M  V30 3649 H 343.527 1.06007 1.32516 0
M  V30 3650 H 342.299 2.17612 3.25209 0
M  V30 3651 H 341.922 0.600911 3.93033 0
M  V30 3652 N 342.919 -1.39368 0.735821 0
M  V30 3653 C 343.849 -2.33234 0.111506 0
M  V30 3654 C 344.83 -1.53954 -0.723334 0
M  V30 3655 O 346.015 -1.82344 -0.668147 0
M  V30 3656 C 343.145 -3.38057 -0.795917 0
M  V30 3657 C 342.099 -4.2795 -0.065172 0
M  V30 3658 C 341.425 -5.23479 -1.08967 0
M  V30 3659 C 342.725 -5.10741 1.09273 0
M  V30 3660 H 344.419 -2.85692 0.895571 0
M  V30 3661 H 341.965 -1.37364 0.432109 0
M  V30 3662 H 343.918 -4.02675 -1.24221 0
M  V30 3663 H 342.642 -2.8404 -1.61211 0
M  V30 3664 H 341.301 -3.64813 0.361511 0
M  V30 3665 H 340.949 -4.65758 -1.89944 0
M  V30 3666 H 340.649 -5.84472 -0.605489 0
M  V30 3667 H 342.173 -5.90974 -1.53565 0
M  V30 3668 H 343.587 -5.68699 0.724841 0
M  V30 3669 H 341.984 -5.8088 1.50659 0
M  V30 3670 H 343.054 -4.45525 1.91404 0
M  V30 3671 N 344.397 -0.483516 -1.5 0
M  V30 3672 C 345.347 0.32306 -2.257 0
M  V30 3673 C 346.331 0.950755 -1.29805 0
M  V30 3674 O 347.523 0.861247 -1.54634 0
M  V30 3675 C 344.652 1.39724 -3.13579 0
M  V30 3676 C 343.738 0.776663 -4.16928 0
M  V30 3677 N 344.129 -0.1104 -5.0568 0
M  V30 3678 C 342.427 1.03922 -4.33724 0
M  V30 3679 C 343.128 -0.46387 -5.79848 0
M  V30 3680 N 342.104 0.163987 -5.43353 0
M  V30 3681 H 345.906 -0.360086 -2.91686 0
M  V30 3682 H 343.42 -0.298456 -1.59634 0
M  V30 3683 H 345.417 1.98837 -3.66428 0
M  V30 3684 H 344.077 2.08225 -2.49143 0
M  V30 3685 H 345.088 -0.480069 -5.1567 0
M  V30 3686 H 341.765 1.71829 -3.80501 0
M  V30 3687 H 343.155 -1.18854 -6.61304 0
M  V30 3688 N 345.875 1.56104 -0.216619 0
M  V30 3689 C 347.286 1.844 0.292128 0
M  V30 3690 C 347.637 1.13788 1.59833 0
M  V30 3691 O 346.762 0.405888 2.12559 0
M  V30 3692 C 347.357 3.3452 0.53681 0
M  V30 3693 C 345.916 3.63151 0.989876 0
M  V30 3694 C 345.063 2.77255 0.0502302 0
M  V30 3695 H 348.014 1.52481 -0.439926 0
M  V30 3696 H 348.035 3.54459 1.38345 0
M  V30 3697 H 347.547 3.85885 -0.414031 0
M  V30 3698 H 345.648 3.17238 1.95425 0
M  V30 3699 H 345.761 4.71177 0.867698 0
M  V30 3700 H 344.125 2.48555 0.556117 0
M  V30 3701 H 344.908 3.31416 -0.89544 0
M  V30 3702 N 347.353 -0.0568162 1.57498 0
M  V30 3703 C 348.286 -1.09817 2.00039 0
M  V30 3704 C 349.264 -1.3674 0.879819 0
M  V30 3705 O 350.448 -1.49863 1.14338 0
M  V30 3706 C 347.575 -2.43924 2.34986 0
M  V30 3707 C 346.621 -2.33039 3.57204 0
M  V30 3708 S 347.454 -1.7102 5.07457 0
M  V30 3709 C 348.61 -3.06674 5.45621 0
M  V30 3710 H 348.843 -0.735701 2.88053 0
M  V30 3711 H 346.376 -0.265871 1.52094 0
M  V30 3712 H 348.334 -3.2106 2.55795 0
M  V30 3713 H 346.995 -2.77327 1.47474 0
M  V30 3714 H 346.188 -3.31973 3.79223 0
M  V30 3715 H 345.79 -1.64043 3.36104 0
M  V30 3716 H 348.082 -4.03 5.44608 0
M  V30 3717 H 349.025 -2.8942 6.46252 0
M  V30 3718 H 349.433 -3.07969 4.73091 0
M  V30 3719 N 348.832 -1.54138 -0.328536 0
M  V30 3720 C 350.248 -1.44736 -0.672574 0
M  V30 3721 C 350.448 -0.616217 -1.91846 0
M  V30 3722 O 349.504 -0.113067 -2.52247 0
M  V30 3723 C 350.817 -2.884 -0.851217 0
M  V30 3724 C 352.365 -2.98271 -0.948877 0
M  V30 3725 C 352.84 -4.43074 -1.15973 0
M  V30 3726 N 354.331 -4.46665 -1.22658 0
M  V30 3727 C 355.066 -5.55857 -1.40751 0
M  V30 3728 N 354.562 -6.75026 -1.5592 0
M  V30 3729 N 356.355 -5.43495 -1.4342 0
M  V30 3730 H 348.506 -2.06661 0.490421 0
M  V30 3731 H 350.769 -0.934812 0.157579 0
M  V30 3732 H 350.475 -3.51699 -0.00704236 0
M  V30 3733 H 350.349 -3.34225 -1.74853 0
M  V30 3734 H 352.736 -2.35102 -1.78356 0
M  V30 3735 H 352.817 -2.55785 -0.0281435 0
M  V30 3736 H 352.461 -5.06827 -0.329915 0
M  V30 3737 H 352.391 -4.83165 -2.09426 0
M  V30 3738 H 354.882 -3.60797 -1.124 0
M  V30 3739 H 355.195 -7.54004 -1.69404 0
M  V30 3740 H 353.54 -6.77944 -1.53027 0
M  V30 3741 H 356.731 -4.49349 -1.31162 0
M  V30 3742 H 356.904 -6.28649 -1.57178 0
M  V30 3743 N 350.31 0.590341 -1.46126 0
M  V30 3744 C 351.273 1.68194 -1.55703 0
M  V30 3745 C 352.273 1.54808 -0.434868 0
M  V30 3746 O 353.463 1.59564 -0.698928 0
M  V30 3747 C 350.595 3.07575 -1.47005 0
M  V30 3748 H 351.788 1.61064 -2.52979 0
M  V30 3749 H 349.341 0.807541 -1.33823 0
M  V30 3750 H 350.076 3.20268 -0.509785 0
M  V30 3751 H 349.861 3.187 -2.28414 0
M  V30 3752 H 351.351 3.87055 -1.56776 0
M  V30 3753 N 351.788 1.33704 0.83433 0
M  V30 3754 C 352.718 1.26967 1.95963 0
M  V30 3755 C 353.699 0.149337 1.69443 0
M  V30 3756 O 354.884 0.339852 1.91203 0
M  V30 3757 C 352.014 1.01275 3.32206 0
M  V30 3758 C 350.968 2.09652 3.73136 0
M  V30 3759 C 350.294 1.69166 5.07235 0
M  V30 3760 C 351.594 3.51372 3.86439 0
M  V30 3761 H 353.288 2.2112 2.01857 0
M  V30 3762 H 350.834 1.06447 0.969793 0
M  V30 3763 H 352.787 0.952106 4.10503 0
M  V30 3764 H 351.511 0.0356203 3.26581 0
M  V30 3765 H 350.17 2.14766 2.97104 0
M  V30 3766 H 349.818 0.701437 4.98085 0
M  V30 3767 H 349.518 2.41694 5.35591 0
M  V30 3768 H 351.042 1.64576 5.88003 0
M  V30 3769 H 352.456 3.48734 4.55036 0
M  V30 3770 H 350.853 4.22425 4.26236 0
M  V30 3771 H 351.923 3.89546 2.88759 0
M  V30 3772 N 353.266 -1.05314 1.17247 0
M  V30 3773 C 354.513 -1.78293 0.960091 0
M  V30 3774 C 354.841 -1.87658 -0.51136 0
M  V30 3775 O 354.096 -1.3718 -1.39571 0
M  V30 3776 C 354.395 -3.2229 1.54479 0
M  V30 3777 C 354.061 -3.32987 3.04024 0
M  V30 3778 C 352.723 -3.35613 3.44844 0
M  V30 3779 C 355.075 -3.34102 4.00031 0
M  V30 3780 C 352.403 -3.36982 4.8027 0
M  V30 3781 C 354.755 -3.3701 5.35357 0
M  V30 3782 C 353.419 -3.37923 5.75642 0
M  V30 3783 H 352.689 -0.652422 0.351322 0
M  V30 3784 H 355.336 -1.23782 1.46117 0
M  V30 3785 H 353.641 -3.7972 0.965391 0
M  V30 3786 H 355.338 -3.77376 1.35603 0
M  V30 3787 H 351.928 -3.31655 2.71483 0
M  V30 3788 H 356.112 -3.31276 3.69554 0
M  V30 3789 H 351.368 -3.35999 5.10798 0
M  V30 3790 H 355.542 -3.36822 6.09528 0
M  V30 3791 H 353.169 -3.38738 6.80559 0
M  V30 3792 N 354.744 -0.972509 -1.24016 0
M  V30 3793 C 355.691 -0.505969 -2.25186 0
M  V30 3794 C 356.661 0.451009 -1.5986 0
M  V30 3795 O 357.846 0.360307 -1.87367 0
M  V30 3796 C 354.986 0.193089 -3.44559 0
M  V30 3797 C 354.099 -0.803222 -4.24467 0
M  V30 3798 C 353.234 -0.0797793 -5.3114 0
M  V30 3799 C 352.273 -1.06583 -6.02749 0
M  V30 3800 N 351.41 -0.372074 -7.01113 0
M  V30 3801 H 356.25 -1.37351 -2.64459 0
M  V30 3802 H 353.787 -0.688419 -1.29997 0
M  V30 3803 H 355.745 0.615125 -4.1264 0
M  V30 3804 H 354.375 1.02455 -3.06109 0
M  V30 3805 H 353.427 -1.34368 -3.55878 0
M  V30 3806 H 354.739 -1.55494 -4.73944 0
M  V30 3807 H 353.893 0.400015 -6.0538 0
M  V30 3808 H 352.632 0.704597 -4.82583 0
M  V30 3809 H 351.637 -1.55645 -5.27309 0
M  V30 3810 H 352.862 -1.85074 -6.53395 0
M  V30 3811 H 350.808 0.393238 -6.5482 0
M  V30 3812 H 350.725 -1.06258 -7.48495 0
M  V30 3813 H 351.993 0.0855932 -7.79453 0
M  V30 3814 N 356.222 1.38976 -0.743202 0
M  V30 3815 C 357.471 1.99581 -0.291592 0
M  V30 3816 C 357.784 1.59656 1.13001 0
M  V30 3817 O 358.99 2.13157 1.68156 0
M  V30 3818 C 357.446 3.56813 -0.470391 0
M  V30 3819 C 357.054 4.05695 -1.90041 0
M  V30 3820 C 358.798 4.24423 -0.0809709 0
M  V30 3821 C 356.705 5.5553 -2.02832 0
M  V30 3822 H 355.635 0.746615 -0.105272 0
M  V30 3823 H 358.286 1.58872 -0.918258 0
M  V30 3824 H 356.668 3.95359 0.225299 0
M  V30 3825 H 357.842 3.78464 -2.62872 0
M  V30 3826 H 356.157 3.50775 -2.24379 0
M  V30 3827 H 358.754 5.34474 -0.155445 0
M  V30 3828 H 359.097 4.04962 0.96497 0
M  V30 3829 H 359.63 3.9108 -0.728124 0
M  V30 3830 H 356.369 5.79881 -3.05643 0
M  V30 3831 H 355.889 5.84537 -1.34448 0
M  V30 3832 H 357.568 6.21069 -1.81335 0
M  V30 3833 N 357.7 0.491464 1.49741 0
M  V30 3834 C 359.111 0.0413169 1.86654 0
M  V30 3835 C 359.462 -1.36985 1.40462 0
M  V30 3836 O 358.587 -2.01917 0.778354 0
M  V30 3837 C 359.182 0.0682023 3.38731 0
M  V30 3838 C 357.741 -0.32656 3.74981 0
M  V30 3839 C 356.888 0.444888 2.73708 0
M  V30 3840 H 359.839 0.704733 1.42194 0
M  V30 3841 H 359.86 -0.729322 3.73445 0
M  V30 3842 H 359.372 1.09539 3.72321 0
M  V30 3843 H 357.473 -1.35734 3.46997 0
M  V30 3844 H 357.586 -0.013741 4.79098 0
M  V30 3845 H 355.95 -0.104062 2.54487 0
M  V30 3846 H 356.733 1.47197 3.10142 0
M  V30 3847 N 359.178 -1.55987 0.224894 0
M  V30 3848 C 360.594 -1.59066 -0.130426 0
M  V30 3849 C 360.794 -1.24176 -1.5869 0
M  V30 3850 O 359.85 -0.978592 -2.32766 0
M  V30 3851 C 361.163 -3.00042 0.198883 0
M  V30 3852 C 362.711 -3.1268 0.141391 0
M  V30 3853 C 363.186 -4.55839 0.444422 0
M  V30 3854 N 364.677 -4.6152 0.394115 0
M  V30 3855 C 365.412 -5.70231 0.602038 0
M  V30 3856 N 364.908 -6.87291 0.871914 0
M  V30 3857 N 366.701 -5.59555 0.534245 0
M  V30 3858 H 358.852 -1.76941 1.17497 0
M  V30 3859 H 361.115 -0.822604 0.471197 0
M  V30 3860 H 360.821 -3.30234 1.2099 0
M  V30 3861 H 360.695 -3.74075 -0.484535 0
M  V30 3862 H 363.082 -2.82283 -0.860265 0
M  V30 3863 H 363.163 -2.40969 0.858335 0
M  V30 3864 H 362.807 -4.86954 1.44353 0
M  V30 3865 H 362.737 -5.2578 -0.293752 0
M  V30 3866 H 365.228 -3.77405 0.193356 0
M  V30 3867 H 365.541 -7.66058 1.01858 0
M  V30 3868 H 363.886 -6.89028 0.909145 0
M  V30 3869 H 367.077 -4.6698 0.323612 0
M  V30 3870 H 367.25 -6.44211 0.699693 0
M  V30 3871 N 360.656 0.0484629 -1.57525 0
M  V30 3872 C 361.604 1.07359 -2.06341 0
M  V30 3873 C 362.598 1.3865 -0.973269 0
M  V30 3874 O 363.804 1.37783 -1.15827 0
M  V30 3875 H 360.179 0.363662 -0.65822 0
M  V30 3876 H 362.15 0.635916 -2.91545 0
M  V30 3877 C 360.899 2.37198 -2.54229 0
M  V30 3878 H 360.222 2.13977 -3.37719 0
M  V30 3879 H 361.662 3.07319 -2.92115 0
M  V30 3880 C 360.121 3.04805 -1.43511 0
M  V30 3881 O 360.651 3.93848 -0.79034 0
M  V30 3882 N 358.857 2.65811 -1.17444 0
M  V30 3883 H 358.404 1.93488 -1.70059 0
M  V30 3884 H 358.362 3.11366 -0.435737 0
M  V30 3885 N 362.134 1.5431 0.320358 0
M  V30 3886 C 363.545 1.63872 0.894594 0
M  V30 3887 C 363.896 0.534847 1.88769 0
M  V30 3888 O 363.021 -0.331732 2.13842 0
M  V30 3889 C 363.616 2.97049 1.62934 0
M  V30 3890 C 362.175 3.08796 2.15226 0
M  V30 3891 C 361.322 2.59456 0.978671 0
M  V30 3892 H 364.273 1.58398 0.0978544 0
M  V30 3893 H 364.294 2.87388 2.49376 0
M  V30 3894 H 363.806 3.7737 0.906302 0
M  V30 3895 H 361.907 2.33156 2.90636 0
M  V30 3896 H 362.02 4.14649 2.40006 0
M  V30 3897 H 360.384 2.1543 1.35875 0
M  V30 3898 H 361.167 3.42237 0.269895 0
M  V30 3899 N 363.613 -0.582584 1.46437 0
M  V30 3900 C 365.024 -1.1647 1.45916 0
M  V30 3901 C 365.375 -1.95177 0.200077 0
M  V30 3902 O 364.5 -2.04874 -0.696819 0
M  V30 3903 C 365.095 -2.11885 2.64367 0
M  V30 3904 C 363.654 -2.65421 2.66887 0
M  V30 3905 C 362.801 -1.41294 2.38603 0
M  V30 3906 H 365.752 -0.370514 1.54314 0
M  V30 3907 H 365.773 -2.9535 2.39892 0
M  V30 3908 H 365.285 -1.54573 3.5599 0
M  V30 3909 H 363.386 -3.26602 1.79338 0
M  V30 3910 H 363.499 -3.08147 3.66854 0
M  V30 3911 H 361.863 -1.71109 1.88663 0
M  V30 3912 H 362.646 -0.858125 3.32402 0
M  V30 3913 N 365.091 -1.34144 -0.827227 0
M  V30 3914 C 366.502 -1.23557 -1.39966 0
M  V30 3915 C 366.853 0.140731 -1.95695 0
M  V30 3916 O 365.978 1.04087 -1.89723 0
M  V30 3917 C 366.573 -2.23708 -2.54441 0
M  V30 3918 C 365.132 -2.16924 -3.07605 0
M  V30 3919 C 364.279 -2.10549 -1.80456 0
M  V30 3920 H 367.23 -1.45573 -0.631991 0
M  V30 3921 H 367.251 -1.85157 -3.32411 0
M  V30 3922 H 366.763 -3.23866 -2.13851 0
M  V30 3923 H 364.864 -1.20107 -3.52711 0
M  V30 3924 H 364.977 -3.07988 -3.66988 0
M  V30 3925 H 363.341 -1.56203 -2.01178 0
M  V30 3926 H 364.124 -3.12535 -1.42046 0
M  V30 3927 N 366.569 1.04691 -1.17803 0
M  V30 3928 C 367.516 2.12557 -0.899343 0
M  V30 3929 C 368.486 1.65339 0.158771 0
M  V30 3930 O 369.671 1.90789 0.0204797 0
M  V30 3931 C 366.811 3.42481 -0.424315 0
M  V30 3932 C 365.924 4.03346 -1.54713 0
M  V30 3933 C 365.059 5.21208 -1.02546 0
M  V30 3934 C 364.098 5.74089 -2.12339 0
M  V30 3935 N 363.235 6.83247 -1.61612 0
M  V30 3936 H 368.075 2.35734 -1.823 0
M  V30 3937 H 365.612 1.1564 -0.909159 0
M  V30 3938 H 367.57 4.16996 -0.130421 0
M  V30 3939 H 366.2 3.19471 0.462377 0
M  V30 3940 H 365.252 3.2622 -1.95664 0
M  V30 3941 H 366.564 4.38628 -2.37501 0
M  V30 3942 H 365.718 6.02812 -0.685718 0
M  V30 3943 H 364.457 4.87414 -0.167084 0
M  V30 3944 H 363.462 4.91111 -2.47165 0
M  V30 3945 H 364.687 6.0993 -2.98601 0
M  V30 3946 H 362.633 6.5134 -0.780533 0
M  V30 3947 H 362.55 7.17559 -2.38003 0
M  V30 3948 H 363.818 7.68491 -1.30545 0
M  V30 3949 N 368.047 0.979072 1.23499 0
M  V30 3950 C 368.977 0.537606 2.27227 0
M  V30 3951 C 369.958 -0.428539 1.64613 0
M  V30 3952 O 371.143 -0.322191 1.91509 0
M  V30 3953 C 368.273 -0.162052 3.46922 0
M  V30 3954 C 367.227 0.721242 4.21879 0
M  V30 3955 C 366.553 -0.110555 5.34586 0
M  V30 3956 C 367.853 2.01141 4.82016 0
M  V30 3957 H 369.547 1.40462 2.64406 0
M  V30 3958 H 367.093 0.67684 1.27102 0
M  V30 3959 H 369.046 -0.482192 4.18632 0
M  V30 3960 H 367.77 -1.06351 3.08799 0
M  V30 3961 H 366.429 1.02482 3.51984 0
M  V30 3962 H 366.077 -1.0125 4.92704 0
M  V30 3963 H 365.777 0.477325 5.85658 0
M  V30 3964 H 367.301 -0.425107 6.09118 0
M  V30 3965 H 368.715 1.75612 5.45741 0
M  V30 3966 H 367.112 2.54695 5.43369 0
M  V30 3967 H 368.182 2.69909 4.02836 0
M  V30 3968 N 369.525 -1.3858 0.750561 0
M  V30 3969 C 370.941 -1.53759 0.427824 0
M  V30 3970 C 371.141 -1.71401 -1.05943 0
M  V30 3971 O 370.197 -1.72331 -1.84549 0
M  V30 3972 C 371.51 -2.74642 1.22443 0
M  V30 3973 C 373.058 -2.88489 1.2142 0
M  V30 3974 C 373.533 -4.12329 1.9937 0
M  V30 3975 N 375.024 -4.194 1.96616 0
M  V30 3976 C 375.759 -5.14209 2.53727 0
M  V30 3977 N 375.255 -6.14709 3.19539 0
M  V30 3978 N 377.048 -5.06537 2.43673 0
M  V30 3979 H 369.199 -1.25377 1.71447 0
M  V30 3980 H 371.462 -0.608844 0.726645 0
M  V30 3981 H 371.168 -2.68 2.27747 0
M  V30 3982 H 371.042 -3.67745 0.839273 0
M  V30 3983 H 373.429 -2.94614 0.169232 0
M  V30 3984 H 373.51 -1.96406 1.63885 0
M  V30 3985 H 373.154 -4.06966 3.03877 0
M  V30 3986 H 373.084 -5.03486 1.54302 0
M  V30 3987 H 375.575 -3.47421 1.48684 0
M  V30 3988 H 375.888 -6.8354 3.60545 0
M  V30 3989 H 374.233 -6.1505 3.23633 0
M  V30 3990 H 377.424 -4.26962 1.91889 0
M  V30 3991 H 377.597 -5.80245 2.88479 0
M  V30 3992 N 371.003 -0.499398 -1.49478 0
M  V30 3993 C 371.935 0.316575 -2.27003 0
M  V30 3994 C 372.948 0.932047 -1.33479 0
M  V30 3995 O 374.137 0.815658 -1.58774 0
M  V30 3996 C 371.237 1.46055 -3.05812 0
M  V30 3997 C 370.41 0.952679 -4.26899 0
M  V30 3998 C 369.469 1.97407 -4.87767 0
M  V30 3999 O 368.495 1.54326 -5.4788 0
M  V30 4000 N 369.697 3.30436 -4.77276 0
M  V30 4001 H 372.462 -0.348168 -2.97671 0
M  V30 4002 H 370.023 -0.33185 -1.58463 0
M  V30 4003 H 372.015 2.14135 -3.43407 0
M  V30 4004 H 370.585 2.02948 -2.37762 0
M  V30 4005 H 369.805 0.0968248 -3.94081 0
M  V30 4006 H 371.093 0.59174 -5.05347 0
M  V30 4007 H 370.491 3.68126 -4.29534 0
M  V30 4008 H 369.048 3.94235 -5.19059 0
M  V30 4009 N 372.481 1.55866 -0.233164 0
M  V30 4010 C 373.892 1.847 0.272554 0
M  V30 4011 C 374.243 1.15477 1.58617 0
M  V30 4012 O 373.368 0.42841 2.12117 0
M  V30 4013 C 373.963 3.35071 0.501299 0
M  V30 4014 C 372.522 3.6418 0.951304 0
M  V30 4015 C 371.669 2.77292 0.0208209 0
M  V30 4016 H 374.62 1.52005 -0.456074 0
M  V30 4017 H 374.641 3.55906 1.34577 0
M  V30 4018 H 374.153 3.85424 -0.454936 0
M  V30 4019 H 372.254 3.19293 1.92049 0
M  V30 4020 H 372.367 4.72071 0.817675 0
M  V30 4021 H 370.731 2.49131 0.529723 0
M  V30 4022 H 371.514 3.30448 -0.93054 0
M  V30 4023 N 373.959 -0.0401083 1.57549 0
M  V30 4024 C 374.869 -1.06133 2.0922 0
M  V30 4025 C 375.885 -1.40356 1.0284 0
M  V30 4026 O 377.061 -1.49897 1.34509 0
M  V30 4027 C 374.126 -2.34658 2.55218 0
M  V30 4028 C 373.187 -2.07117 3.76033 0
M  V30 4029 C 372.42 -3.29514 4.19829 0
M  V30 4030 O 372.643 -4.39794 3.63232 0
M  V30 4031 O 371.577 -3.15863 5.12362 0
M  V30 4032 H 375.403 -0.652244 2.96613 0
M  V30 4033 H 372.988 -0.256368 1.47184 0
M  V30 4034 H 374.87 -3.10239 2.85184 0
M  V30 4035 H 373.545 -2.74883 1.70941 0
M  V30 4036 H 372.452 -1.29139 3.51104 0
M  V30 4037 H 373.785 -1.71754 4.61261 0
M  V30 4038 N 375.437 -1.54477 -0.31217 0
M  V30 4039 C 376.367 -1.87652 -1.38957 0
M  V30 4040 C 377.348 -0.734358 -1.53431 0
M  V30 4041 O 378.533 -0.98911 -1.67123 0
M  V30 4042 C 375.663 -2.11396 -2.75552 0
M  V30 4043 C 374.617 -3.27243 -2.75855 0
M  V30 4044 C 373.943 -3.36382 -4.15633 0
M  V30 4045 C 375.243 -4.64622 -2.38587 0
M  V30 4046 H 376.937 -2.77887 -1.11442 0
M  V30 4047 H 374.483 -1.33707 -0.534655 0
M  V30 4048 H 376.436 -2.33189 -3.51 0
M  V30 4049 H 375.16 -1.17921 -3.04569 0
M  V30 4050 H 373.819 -3.05356 -2.02863 0
M  V30 4051 H 373.467 -2.40445 -4.41809 0
M  V30 4052 H 373.167 -4.14249 -4.1674 0
M  V30 4053 H 374.691 -3.60422 -4.92877 0
M  V30 4054 H 376.105 -4.86219 -3.03749 0
M  V30 4055 H 374.502 -5.45121 -2.50925 0
M  V30 4056 H 375.572 -4.66097 -1.33723 0
M  V30 4057 N 376.915 0.57481 -1.46744 0
M  V30 4058 C 378.161 1.33251 -1.53674 0
M  V30 4059 C 378.516 1.91468 -0.189125 0
M  V30 4060 O 377.809 1.73954 0.803151 0
M  V30 4061 C 378.003 2.476 -2.57738 0
M  V30 4062 C 377.832 2.00586 -4.02487 0
M  V30 4063 C 376.602 1.85237 -4.70123 0
M  V30 4064 C 378.8 1.56078 -4.90045 0
M  V30 4065 N 376.782 1.32377 -5.99458 0
M  V30 4066 C 378.153 1.14863 -6.09267 0
M  V30 4067 C 380.208 1.43968 -4.76632 0
M  V30 4068 C 378.911 0.627435 -7.16558 0
M  V30 4069 C 380.937 0.932512 -5.84002 0
M  V30 4070 C 380.299 0.53019 -7.02402 0
M  V30 4071 H 376.398 0.480284 -0.617131 0
M  V30 4072 H 378.982 0.653592 -1.83402 0
M  V30 4073 H 377.153 3.13045 -2.29907 0
M  V30 4074 H 378.885 3.14567 -2.54616 0
M  V30 4075 H 375.64 2.07423 -4.25761 0
M  V30 4076 H 376.064 1.08085 -6.68316 0
M  V30 4077 H 380.706 1.73689 -3.85476 0
M  V30 4078 H 378.424 0.317821 -8.07475 0
M  V30 4079 H 382.01 0.842611 -5.75666 0
M  V30 4080 H 380.89 0.14381 -7.84068 0
M  V30 4081 N 378.394 1.34581 0.820102 0
M  V30 4082 C 379.619 1.30333 1.61332 0
M  V30 4083 C 380.044 -0.119339 1.87721 0
M  V30 4084 O 379.402 -1.08197 1.45475 0
M  V30 4085 C 379.45 2.10258 2.92957 0
M  V30 4086 O 378.554 1.47404 3.85157 0
M  V30 4087 H 377.895 0.447488 0.490561 0
M  V30 4088 H 380.425 1.77425 1.01889 0
M  V30 4089 H 380.435 2.21718 3.42498 0
M  V30 4090 H 379.11 3.13693 2.73074 0
M  V30 4091 H 377.687 1.44703 3.43679 0
M  V30 4092 N 379.872 -1.04064 1.18357 0
M  V30 4093 C 380.835 -2.10243 0.912707 0
M  V30 4094 C 381.835 -1.60477 -0.101928 0
M  V30 4095 O 383.025 -1.73703 0.131517 0
M  V30 4096 C 380.157 -3.38893 0.369387 0
M  V30 4097 H 381.35 -2.35706 1.85426 0
M  V30 4098 H 378.903 -1.20489 0.995594 0
M  V30 4099 H 379.638 -3.19094 -0.578776 0
M  V30 4100 H 379.423 -3.76331 1.1008 0
M  V30 4101 H 380.913 -4.17128 0.198575 0
M  V30 4102 N 381.35 -0.985608 -1.22978 0
M  V30 4103 C 382.26 -0.538548 -2.28335 0
M  V30 4104 C 383.276 0.409163 -1.69121 0
M  V30 4105 O 384.452 0.277797 -1.99475 0
M  V30 4106 C 381.517 0.146867 -3.46389 0
M  V30 4107 C 380.578 -0.842896 -4.20944 0
M  V30 4108 C 379.811 -0.190095 -5.33361 0
M  V30 4109 O 380.034 1.01767 -5.61248 0
M  V30 4110 O 378.968 -0.891289 -5.95264 0
M  V30 4111 H 382.794 -1.41487 -2.68729 0
M  V30 4112 H 380.379 -0.753495 -1.29007 0
M  V30 4113 H 382.261 0.531125 -4.1804 0
M  V30 4114 H 380.936 0.997871 -3.07935 0
M  V30 4115 H 379.843 -1.27795 -3.51595 0
M  V30 4116 H 381.176 -1.66287 -4.6326 0
M  V30 4117 N 382.828 1.3818 -0.7579 0
M  V30 4118 C 384.075 2.00019 -0.315985 0
M  V30 4119 C 384.403 1.60163 1.10355 0
M  V30 4120 O 383.658 0.83264 1.77103 0
M  V30 4121 C 383.957 3.55252 -0.391218 0
M  V30 4122 C 383.623 4.14834 -1.76702 0
M  V30 4123 C 382.285 4.30821 -2.14353 0
M  V30 4124 C 384.637 4.47658 -2.66931 0
M  V30 4125 C 381.965 4.76928 -3.41696 0
M  V30 4126 C 384.317 4.95184 -3.93669 0
M  V30 4127 C 382.981 5.09377 -4.31383 0
M  V30 4128 H 382.251 0.731923 -0.115627 0
M  V30 4129 H 384.898 1.65161 -0.969223 0
M  V30 4130 H 383.203 3.90273 0.34558 0
M  V30 4131 H 384.9 4.00988 -0.030805 0
M  V30 4132 H 381.49 4.02808 -1.46435 0
M  V30 4133 H 385.674 4.34904 -2.39106 0
M  V30 4134 H 380.93 4.86103 -3.70829 0
M  V30 4135 H 385.104 5.19551 -4.63724 0
M  V30 4136 H 382.731 5.44865 -5.30119 0
M  V30 4137 N 384.306 0.507319 1.49211 0
M  V30 4138 C 385.254 -0.281364 2.30892 0
M  V30 4139 C 386.248 -0.95687 1.39787 0
M  V30 4140 O 387.454 -0.883838 1.56807 0
M  V30 4141 H 383.829 -0.109597 0.743971 0
M  V30 4142 H 385.8 0.42744 2.95323 0
M  V30 4143 C 384.549 -1.32918 3.21291 0
M  V30 4144 H 383.872 -0.818799 3.91326 0
M  V30 4145 H 385.312 -1.85288 3.81372 0
M  V30 4146 C 383.771 -2.35074 2.41333 0
M  V30 4147 O 384.301 -3.4108 2.12197 0
M  V30 4148 N 382.507 -2.07705 2.03241 0
M  V30 4149 H 382.054 -1.2152 2.27136 0
M  V30 4150 H 382.012 -2.76283 1.50051 0
M  V30 4151 N 385.784 -1.5574 0.241426 0
M  V30 4152 C 387.061 -1.90704 -0.434881 0
M  V30 4153 C 387.441 -1.16145 -1.76277 0
M  V30 4154 O 386.789 -0.277152 -2.26813 0
M  V30 4155 C 386.999 -3.43657 -0.608343 0
M  V30 4156 C 388.347 -4.14806 -0.906725 0
M  V30 4157 O 389.371 -3.49366 -0.694408 0
M  V30 4158 O 388.23 -5.30548 -1.31075 0
M  V30 4159 H 385.324 -0.793592 -0.23268 0
M  V30 4160 H 387.87 -1.67288 0.285086 0
M  V30 4161 H 386.642 -3.89927 0.327505 0
M  V30 4162 H 386.265 -3.72918 -1.37906 0
M  V30 4163 N 387.262 0.0317525 -1.57568 0
M  V30 4164 C 388.509 0.723104 -1.89149 0
M  V30 4165 C 388.837 1.75504 -0.838377 0
M  V30 4166 O 388.092 1.95037 0.160982 0
M  V30 4167 C 388.391 1.43167 -3.27472 0
M  V30 4168 C 388.057 0.535972 -4.47703 0
M  V30 4169 C 386.719 0.289262 -4.8033 0
M  V30 4170 C 389.071 -0.0826125 -5.21135 0
M  V30 4171 C 386.399 -0.584853 -5.83778 0
M  V30 4172 C 388.751 -0.944414 -6.25511 0
M  V30 4173 C 387.415 -1.20061 -6.56614 0
M  V30 4174 H 386.685 0.264602 -0.692146 0
M  V30 4175 H 389.332 -0.0169496 -1.91492 0
M  V30 4176 H 387.637 2.24497 -3.21105 0
M  V30 4177 H 389.334 1.97209 -3.49155 0
M  V30 4178 H 385.924 0.738414 -4.22191 0
M  V30 4179 H 390.108 0.0950302 -4.96209 0
M  V30 4180 H 385.364 -0.79168 -6.06253 0
M  V30 4181 H 389.538 -1.43026 -6.81554 0
M  V30 4182 H 387.165 -1.87967 -7.36595 0
M  V30 4183 N 388.74 1.54641 0.303973 0
M  V30 4184 C 389.989 1.7299 1.03717 0
M  V30 4185 C 390.302 0.521168 1.88529 0
M  V30 4186 O 391.508 0.586408 2.65092 0
M  V30 4187 C 389.964 3.06051 1.89369 0
M  V30 4188 C 389.572 4.34393 1.09574 0
M  V30 4189 C 391.316 3.3376 2.62306 0
M  V30 4190 C 389.223 5.58506 1.94486 0
M  V30 4191 H 388.153 0.64473 0.390947 0
M  V30 4192 H 390.804 1.81124 0.294328 0
M  V30 4193 H 389.186 2.91874 2.67629 0
M  V30 4194 H 390.36 4.59396 0.359485 0
M  V30 4195 H 388.675 4.13597 0.482324 0
M  V30 4196 H 391.272 4.23687 3.26181 0
M  V30 4197 H 391.615 2.52503 3.3098 0
M  V30 4198 H 392.148 3.48894 1.91097 0
M  V30 4199 H 388.887 6.42422 1.30287 0
M  V30 4200 H 388.407 5.37694 2.65792 0
M  V30 4201 H 390.086 5.95651 2.52605 0
M  V30 4202 N 390.218 -0.567019 1.47046 0
M  V30 4203 C 391.443 -1.3551 1.57009 0
M  V30 4204 C 391.868 -1.86841 0.217259 0
M  V30 4205 O 391.226 -1.62435 -0.805268 0
M  V30 4206 C 391.274 -2.50777 2.5912 0
M  V30 4207 O 390.378 -3.52706 2.13711 0
M  V30 4208 H 389.719 -0.402919 0.52778 0
M  V30 4209 H 392.249 -0.686241 1.92748 0
M  V30 4210 H 392.259 -2.97481 2.79229 0
M  V30 4211 H 390.934 -2.12771 3.57353 0
M  V30 4212 H 389.511 -3.12374 2.03659 0
M  V30 4213 N 391.696 -1.35014 -0.812953 0
M  V30 4214 C 392.643 -1.27412 -1.92444 0
M  V30 4215 C 393.613 -0.14733 -1.65445 0
M  V30 4216 O 394.798 -0.329974 -1.87925 0
M  V30 4217 C 391.938 -1.04558 -3.28879 0
M  V30 4218 C 391.051 -2.26101 -3.68106 0
M  V30 4219 C 390.186 -1.96449 -4.9354 0
M  V30 4220 C 389.225 -3.14081 -5.25376 0
M  V30 4221 N 388.362 -2.84246 -6.41988 0
M  V30 4222 H 393.202 -2.22463 -1.98278 0
M  V30 4223 H 390.739 -1.10593 -0.969933 0
M  V30 4224 H 392.697 -0.893413 -4.07522 0
M  V30 4225 H 391.327 -0.131719 -3.22531 0
M  V30 4226 H 390.379 -2.52204 -2.84775 0
M  V30 4227 H 391.691 -3.13959 -3.87597 0
M  V30 4228 H 390.845 -1.78026 -5.79993 0
M  V30 4229 H 389.584 -1.05867 -4.76071 0
M  V30 4230 H 388.589 -3.33089 -4.37415 0
M  V30 4231 H 389.814 -4.05455 -5.44778 0
M  V30 4232 H 387.76 -1.96252 -6.25956 0
M  V30 4233 H 387.677 -3.65637 -6.61699 0
M  V30 4234 H 388.945 -2.6935 -7.31485 0
M  V30 4235 N 393.175 1.03435 -1.18907 0
M  V30 4236 C 394.415 1.78302 -0.999391 0
M  V30 4237 C 394.779 1.86353 0.462219 0
M  V30 4238 O 395.98 2.57489 0.771543 0
M  V30 4239 C 394.251 3.17362 -1.64365 0
M  V30 4240 S 395.81 4.08488 -1.6026 0
M  V30 4241 H 392.628 0.613861 -0.358742 0
M  V30 4242 H 395.23 1.23979 -1.51161 0
M  V30 4243 H 393.934 3.09116 -2.69955 0
M  V30 4244 H 393.465 3.76762 -1.13199 0
M  V30 4245 H 395.48 4.92274 -0.622932 0
M  V30 4246 N 394.653 0.992116 1.22453 0
M  V30 4247 C 395.583 0.561677 2.26644 0
M  V30 4248 C 396.564 -0.411055 1.65059 0
M  V30 4249 O 397.749 -0.301861 1.9184 0
M  V30 4250 C 394.879 -0.125247 3.47074 0
M  V30 4251 C 393.833 0.765948 4.21091 0
M  V30 4252 C 393.159 -0.0538484 5.34673 0
M  V30 4253 C 394.459 2.06242 4.79856 0
M  V30 4254 H 396.153 1.43259 2.62902 0
M  V30 4255 H 393.699 0.690283 1.26377 0
M  V30 4256 H 395.652 -0.437764 4.1912 0
M  V30 4257 H 394.376 -1.03069 3.0991 0
M  V30 4258 H 393.035 1.0621 3.50878 0
M  V30 4259 H 392.683 -0.960188 4.9375 0
M  V30 4260 H 392.383 0.539415 5.85119 0
M  V30 4261 H 393.907 -0.360477 6.09535 0
M  V30 4262 H 395.321 1.8139 5.43848 0
M  V30 4263 H 393.718 2.60444 5.40638 0
M  V30 4264 H 394.788 2.74167 3.99951 0
M  V30 4265 N 396.131 -1.37776 0.765217 0
M  V30 4266 C 397.359 -2.04124 0.337767 0
M  V30 4267 C 397.774 -1.57715 -1.03785 0
M  V30 4268 O 397.131 -0.755447 -1.6613 0
M  V30 4269 C 397.182 -3.59658 0.364442 0
M  V30 4270 O 396.903 -4.04367 1.68579 0
M  V30 4271 C 398.404 -4.43236 -0.0754221 0
M  V30 4272 H 395.624 -0.655696 0.142491 0
M  V30 4273 H 398.168 -1.76238 1.03732 0
M  V30 4274 H 396.323 -3.86339 -0.286471 0
M  V30 4275 H 396.737 -4.98857 1.61993 0
M  V30 4276 H 398.211 -5.52 -0.00560067 0
M  V30 4277 H 398.688 -4.2455 -1.12491 0
M  V30 4278 H 399.294 -4.21767 0.547055 0
M  V30 4279 N 397.609 -0.515225 -1.4894 0
M  V30 4280 C 398.556 0.255567 -2.29381 0
M  V30 4281 C 399.526 0.947387 -1.36432 0
M  V30 4282 O 400.711 0.951288 -1.65394 0
M  V30 4283 C 397.851 1.30551 -3.19453 0
M  V30 4284 C 396.964 0.624029 -4.27469 0
M  V30 4285 C 396.099 1.65563 -5.0474 0
M  V30 4286 C 395.138 0.956802 -6.04576 0
M  V30 4287 N 394.275 1.93326 -6.74959 0
M  V30 4288 H 399.115 -0.436607 -2.94784 0
M  V30 4289 H 396.652 -0.227154 -1.45336 0
M  V30 4290 H 398.61 1.92639 -3.70062 0
M  V30 4291 H 397.24 1.96626 -2.56004 0
M  V30 4292 H 396.292 -0.110459 -3.8024 0
M  V30 4293 H 397.604 0.0746092 -4.98744 0
M  V30 4294 H 396.758 2.35119 -5.59289 0
M  V30 4295 H 395.497 2.23893 -4.3327 0
M  V30 4296 H 394.502 0.247097 -5.49244 0
M  V30 4297 H 395.727 0.379814 -6.78037 0
M  V30 4298 H 393.673 2.50591 -6.06251 0
M  V30 4299 H 393.59 1.43489 -7.42258 0
M  V30 4300 H 394.858 2.62126 -7.34105 0
M  V30 4301 N 399.087 1.5561 -0.249682 0
M  V30 4302 C 400.364 1.90932 0.424761 0
M  V30 4303 C 400.744 1.17078 1.75658 0
M  V30 4304 O 400.092 0.289176 2.26663 0
M  V30 4305 C 400.302 3.43975 0.590109 0
M  V30 4306 C 401.65 4.15281 0.884714 0
M  V30 4307 O 402.674 3.49729 0.67587 0
M  V30 4308 O 401.533 5.31236 1.28259 0
M  V30 4309 H 398.627 0.794815 0.228468 0
M  V30 4310 H 401.173 1.67135 -0.293954 0
M  V30 4311 H 399.945 3.89748 -0.34818 0
M  V30 4312 H 399.568 3.73644 1.35926 0
M  V30 4313 N 400.565 -0.0233959 1.57583 0
M  V30 4314 C 401.795 -0.723631 1.93513 0
M  V30 4315 C 402.203 -1.69115 0.848333 0
M  V30 4316 O 401.546 -1.82781 -0.183484 0
M  V30 4317 C 401.608 -1.53075 3.25282 0
M  V30 4318 C 401.272 -0.727388 4.51174 0
M  V30 4319 C 402.269 -0.0251924 5.19894 0
M  V30 4320 C 399.954 -0.680256 4.97672 0
M  V30 4321 C 401.948 0.713374 6.33395 0
M  V30 4322 C 399.635 0.0620523 6.11068 0
M  V30 4323 C 400.633 0.757622 6.78785 0
M  V30 4324 O 400.321 1.48787 7.90011 0
M  V30 4325 H 400.053 -0.208051 0.643188 0
M  V30 4326 H 402.607 0.0167489 2.05393 0
M  V30 4327 H 400.837 -2.31508 3.09744 0
M  V30 4328 H 402.526 -2.11413 3.46496 0
M  V30 4329 H 403.292 -0.0526003 4.84971 0
M  V30 4330 H 399.171 -1.21116 4.44805 0
M  V30 4331 H 402.715 1.25683 6.86185 0
M  V30 4332 H 398.612 0.0913634 6.45435 0
M  V30 4333 H 399.38 1.40213 8.06401 0
M  V30 4334 N 402.043 -1.548 -0.295768 0
M  V30 4335 C 402.953 -1.89177 -1.38742 0
M  V30 4336 C 403.969 -0.786481 -1.55211 0
M  V30 4337 O 405.145 -1.08344 -1.69775 0
M  V30 4338 C 402.21 -2.13663 -2.73036 0
M  V30 4339 C 401.271 -3.37349 -2.65508 0
M  V30 4340 C 400.504 -3.60658 -3.93398 0
M  V30 4341 O 400.727 -2.86882 -4.93006 0
M  V30 4342 O 399.661 -4.54179 -3.94975 0
M  V30 4343 H 403.487 -2.82059 -1.12589 0
M  V30 4344 H 401.072 -1.41056 -0.492295 0
M  V30 4345 H 402.954 -2.3094 -3.52484 0
M  V30 4346 H 401.629 -1.23967 -2.99022 0
M  V30 4347 H 400.536 -3.25431 -1.84514 0
M  V30 4348 H 401.869 -4.27192 -2.44474 0
M  V30 4349 N 403.521 0.559213 -1.47345 0
M  V30 4350 C 404.468 1.66645 -1.59682 0
M  V30 4351 C 405.438 1.60168 -0.43994 0
M  V30 4352 O 406.623 1.79031 -0.659736 0
M  V30 4353 C 403.763 3.04969 -1.61518 0
M  V30 4354 C 402.876 3.21897 -2.88108 0
M  V30 4355 C 402.011 4.50608 -2.81294 0
M  V30 4356 C 401.05 4.60961 -4.02717 0
M  V30 4357 N 400.187 5.81024 -3.94151 0
M  V30 4358 H 405.027 1.55439 -2.54249 0
M  V30 4359 H 402.564 0.757219 -1.26113 0
M  V30 4360 H 404.522 3.85064 -1.60566 0
M  V30 4361 H 403.152 3.15015 -0.704645 0
M  V30 4362 H 402.204 2.35248 -2.98936 0
M  V30 4363 H 403.516 3.25412 -3.78032 0
M  V30 4364 H 402.67 5.3896 -2.7858 0
M  V30 4365 H 401.409 4.49568 -1.89049 0
M  V30 4366 H 400.414 3.71021 -4.05738 0
M  V30 4367 H 401.639 4.63761 -4.96087 0
M  V30 4368 H 399.585 5.80938 -3.04708 0
M  V30 4369 H 399.502 5.85909 -4.77752 0
M  V30 4370 H 400.77 6.71744 -3.9545 0
M  V30 4371 N 404.999 1.35443 0.805782 0
M  V30 4372 C 406.415 1.15499 1.10146 0
M  V30 4373 C 406.615 -0.0319975 2.01475 0
M  V30 4374 O 405.671 -0.70236 2.42535 0
M  V30 4375 C 406.984 2.45833 1.73166 0
M  V30 4376 C 408.532 2.52047 1.85583 0
M  V30 4377 C 409.007 3.82427 2.52019 0
M  V30 4378 N 410.498 3.83682 2.59504 0
M  V30 4379 C 411.233 4.81294 3.11679 0
M  V30 4380 N 410.729 5.89294 3.64287 0
M  V30 4381 N 412.522 4.6873 3.1024 0
M  V30 4382 H 404.673 2.11469 0.198678 0
M  V30 4383 H 406.936 0.93594 0.150731 0
M  V30 4384 H 406.642 3.32874 1.13526 0
M  V30 4385 H 406.516 2.6044 2.72857 0
M  V30 4386 H 408.903 1.65435 2.44367 0
M  V30 4387 H 408.984 2.41354 0.847455 0
M  V30 4388 H 408.628 4.69437 1.93885 0
M  V30 4389 H 408.558 3.90409 3.53395 0
M  V30 4390 H 411.049 3.05648 2.22234 0
M  V30 4391 H 411.362 6.59768 4.02401 0
M  V30 4392 H 409.707 5.92985 3.62483 0
M  V30 4393 H 412.898 3.83496 2.68419 0
M  V30 4394 H 413.071 5.44965 3.50596 0
M  V30 4395 N 406.477 -1.02803 1.19454 0
M  V30 4396 C 407.888 -1.57667 0.999899 0
M  V30 4397 C 408.239 -1.91041 -0.446956 0
M  V30 4398 O 407.364 -1.70978 -1.32648 0
M  V30 4399 C 407.959 -2.86477 1.80877 0
M  V30 4400 C 406.518 -3.37911 1.65811 0
M  V30 4401 C 405.665 -2.11343 1.79526 0
M  V30 4402 H 408.616 -0.853214 1.33813 0
M  V30 4403 H 408.637 -3.57408 1.30536 0
M  V30 4404 H 408.149 -2.62155 2.86175 0
M  V30 4405 H 406.25 -3.67218 0.63102 0
M  V30 4406 H 406.363 -4.10885 2.46395 0
M  V30 4407 H 404.727 -2.23254 1.22596 0
M  V30 4408 H 405.51 -1.89461 2.86285 0
M  V30 4409 N 407.956 -0.998596 -1.21925 0
M  V30 4410 C 409.184 -0.696286 -1.94832 0
M  V30 4411 C 409.599 0.740032 -1.73692 0
M  V30 4412 O 408.956 1.5 -1.03953 0
M  V30 4413 C 409.007 -0.999833 -3.47398 0
M  V30 4414 O 408.728 -2.37972 -3.67833 0
M  V30 4415 C 410.229 -0.716025 -4.37479 0
M  V30 4416 H 407.449 -0.257111 -0.619786 0
M  V30 4417 H 409.993 -1.33491 -1.54921 0
M  V30 4418 H 408.148 -0.406918 -3.85257 0
M  V30 4419 H 408.562 -2.48338 -4.61983 0
M  V30 4420 H 410.036 -0.978642 -5.43256 0
M  V30 4421 H 410.513 0.349968 -4.37803 0
M  V30 4422 H 411.119 -1.29025 -4.05256 0
M  V30 4423 N 409.434 1.37368 -0.772513 0
M  V30 4424 C 410.68 1.99969 -0.337681 0
M  V30 4425 C 411.013 1.61184 1.08321 0
M  V30 4426 O 410.288 0.858395 1.74533 0
M  V30 4427 C 410.571 3.56858 -0.482121 0
M  V30 4428 C 410.424 4.0555 -1.94549 0
M  V30 4429 C 411.743 4.39955 0.113143 0
M  V30 4430 H 408.862 0.726464 -0.124171 0
M  V30 4431 H 411.504 1.63034 -0.975699 0
M  V30 4432 H 409.654 3.88452 0.0610361 0
M  V30 4433 H 411.326 3.84518 -2.54841 0
M  V30 4434 H 409.569 3.57715 -2.45403 0
M  V30 4435 H 410.24 5.14587 -1.9976 0
M  V30 4436 H 412.716 4.14623 -0.35031 0
M  V30 4437 H 411.592 5.48897 -0.0180514 0
M  V30 4438 H 411.853 4.25403 1.20354 0
M  V30 4439 N 410.912 0.523116 1.48665 0
M  V30 4440 C 412.137 -0.0117284 2.07397 0
M  V30 4441 C 412.562 -1.28031 1.37803 0
M  V30 4442 O 411.92 -1.75836 0.441762 0
M  V30 4443 C 411.968 -0.225786 3.59892 0
M  V30 4444 O 411.072 -1.29592 3.91509 0
M  V30 4445 H 410.413 0.0360673 0.66302 0
M  V30 4446 H 412.943 0.729066 1.9117 0
M  V30 4447 H 412.953 -0.450552 4.05505 0
M  V30 4448 H 411.628 0.700944 4.09951 0
M  V30 4449 H 410.205 -1.05436 3.57684 0
M  V30 4450 N 412.39 -1.55475 0.257931 0
M  V30 4451 C 413.3 -2.2549 -0.647425 0
M  V30 4452 C 414.316 -1.2748 -1.18427 0
M  V30 4453 O 415.492 -1.6038 -1.2182 0
M  V30 4454 C 412.557 -2.94916 -1.82278 0
M  V30 4455 C 411.618 -4.08363 -1.32432 0
M  V30 4456 C 410.851 -4.74469 -2.44366 0
M  V30 4457 O 411.074 -4.39701 -3.63344 0
M  V30 4458 O 410.008 -5.62763 -2.13497 0
M  V30 4459 H 413.834 -3.03593 -0.0807707 0
M  V30 4460 H 411.419 -1.49377 0.0259962 0
M  V30 4461 H 413.301 -3.38606 -2.50846 0
M  V30 4462 H 411.976 -2.19744 -2.37685 0
M  V30 4463 H 410.883 -3.69166 -0.605605 0
M  V30 4464 H 412.216 -4.85385 -0.816211 0
M  V30 4465 N 413.868 0.0150385 -1.57593 0
M  V30 4466 C 414.798 1.01047 -2.10503 0
M  V30 4467 C 415.779 1.36816 -1.01071 0
M  V30 4468 O 416.964 1.45455 -1.28672 0
M  V30 4469 C 414.094 2.30708 -2.59598 0
M  V30 4470 C 413.048 2.09142 -3.73421 0
M  V30 4471 C 412.374 3.44685 -4.08774 0
M  V30 4472 C 413.674 1.46619 -5.01298 0
M  V30 4473 H 415.368 0.569978 -2.93925 0
M  V30 4474 H 412.914 0.272724 -1.41394 0
M  V30 4475 H 414.867 3.00687 -2.95238 0
M  V30 4476 H 413.591 2.76843 -1.73279 0
M  V30 4477 H 412.25 1.41592 -3.38153 0
M  V30 4478 H 411.898 3.88495 -3.195 0
M  V30 4479 H 411.598 3.31077 -4.8545 0
M  V30 4480 H 413.122 4.16004 -4.4696 0
M  V30 4481 H 414.536 2.06535 -5.34805 0
M  V30 4482 H 412.933 1.43544 -5.82679 0
M  V30 4483 H 414.003 0.433611 -4.82957 0
M  V30 4484 N 415.346 1.54954 0.287554 0
M  V30 4485 C 416.276 1.89839 1.35954 0
M  V30 4486 C 417.257 0.758675 1.52244 0
M  V30 4487 O 418.442 1.01557 1.65529 0
M  V30 4488 C 415.572 2.15753 2.72154 0
M  V30 4489 C 414.526 3.3159 2.70614 0
M  V30 4490 C 413.852 3.42952 4.10229 0
M  V30 4491 C 415.152 4.68359 2.31165 0
M  V30 4492 H 416.846 2.79625 1.07007 0
M  V30 4493 H 414.392 1.3454 0.513316 0
M  V30 4494 H 416.345 2.38743 3.47246 0
M  V30 4495 H 415.069 1.22752 3.02654 0
M  V30 4496 H 413.728 3.08545 1.97979 0
M  V30 4497 H 413.376 2.47443 4.37928 0
M  V30 4498 H 413.076 4.20826 4.10097 0
M  V30 4499 H 414.6 3.68218 4.87081 0
M  V30 4500 H 416.014 4.9099 2.95976 0
M  V30 4501 H 414.411 5.49044 2.42221 0
M  V30 4502 H 415.481 4.68165 1.26291 0
M  V30 4503 N 416.824 -0.551391 1.4764 0
M  V30 4504 C 417.756 -1.67333 1.56628 0
M  V30 4505 C 418.769 -1.56398 0.452045 0
M  V30 4506 O 419.958 -1.6325 0.721926 0
M  V30 4507 C 417.058 -3.05841 1.45994 0
M  V30 4508 C 416.231 -3.42472 2.72088 0
M  V30 4509 C 415.29 -4.60168 2.55209 0
M  V30 4510 O 414.316 -4.64458 3.2904 0
M  V30 4511 N 415.518 -5.57024 1.63416 0
M  V30 4512 H 418.283 -1.60066 2.53375 0
M  V30 4513 H 415.844 -0.738169 1.44093 0
M  V30 4514 H 417.836 -3.8242 1.32428 0
M  V30 4515 H 416.406 -3.07302 0.573071 0
M  V30 4516 H 415.626 -2.55284 3.00373 0
M  V30 4517 H 416.914 -3.63723 3.55785 0
M  V30 4518 H 416.312 -5.56319 1.02594 0
M  V30 4519 H 414.869 -6.32906 1.558 0
M  V30 4520 N 418.302 -1.35869 -0.798587 0
M  V30 4521 C 419.252 -1.25982 -1.90033 0
M  V30 4522 C 420.236 -0.153303 -1.60168 0
M  V30 4523 O 421.428 -0.38527 -1.72756 0
M  V30 4524 C 418.557 -1.04211 -3.27101 0
M  V30 4525 C 417.643 -2.19289 -3.63006 0
M  V30 4526 N 418.034 -3.44559 -3.70287 0
M  V30 4527 C 416.332 -2.10852 -3.93011 0
M  V30 4528 C 417.033 -4.20283 -4.02166 0
M  V30 4529 N 416.009 -3.49124 -4.16669 0
M  V30 4530 H 419.811 -2.20883 -1.93876 0
M  V30 4531 H 417.325 -1.28457 -0.993614 0
M  V30 4532 H 419.322 -0.952155 -4.05881 0
M  V30 4533 H 417.982 -0.102013 -3.2454 0
M  V30 4534 H 418.993 -3.7881 -3.53162 0
M  V30 4535 H 415.67 -1.24744 -3.98428 0
M  V30 4536 H 417.06 -5.28575 -4.14799 0
M  V30 4537 N 419.78 1.02168 -1.19998 0
M  V30 4538 C 420.727 2.10601 -0.944228 0
M  V30 4539 C 421.697 1.65639 0.123664 0
M  V30 4540 O 422.882 1.9079 -0.0199941 0
M  V30 4541 C 420.022 3.41504 -0.496865 0
M  V30 4542 C 419.135 3.99973 -1.63234 0
M  V30 4543 C 418.27 5.18915 -1.13579 0
M  V30 4544 C 417.309 5.69456 -2.24468 0
M  V30 4545 N 416.446 6.79665 -1.76068 0
M  V30 4546 H 421.286 2.31814 -1.8726 0
M  V30 4547 H 418.823 1.13686 -0.933483 0
M  V30 4548 H 420.781 4.16626 -0.218843 0
M  V30 4549 H 419.411 3.2038 0.394508 0
M  V30 4550 H 418.463 3.21997 -2.0254 0
M  V30 4551 H 419.775 4.33492 -2.46752 0
M  V30 4552 H 418.929 6.01222 -0.813429 0
M  V30 4553 H 417.668 4.8695 -0.270434 0
M  V30 4554 H 416.673 4.85757 -2.57526 0
M  V30 4555 H 417.898 6.03459 -3.11472 0
M  V30 4556 H 415.844 6.49538 -0.918516 0
M  V30 4557 H 415.761 7.12349 -2.5317 0
M  V30 4558 H 417.029 7.65549 -1.46817 0
M  V30 4559 N 421.258 1.00505 1.21394 0
M  V30 4560 C 422.505 0.687774 1.90462 0
M  V30 4561 C 422.833 -0.78147 1.7811 0
M  V30 4562 O 422.088 -1.58208 1.1519 0
M  V30 4563 C 422.387 1.0546 3.41486 0
M  V30 4564 C 422.053 2.51812 3.74034 0
M  V30 4565 C 420.715 2.91804 3.82628 0
M  V30 4566 C 423.067 3.46614 3.8924 0
M  V30 4567 C 420.395 4.2556 4.03876 0
M  V30 4568 C 422.747 4.80044 4.11995 0
M  V30 4569 C 421.411 5.19759 4.18816 0
M  V30 4570 H 420.681 0.251674 0.696951 0
M  V30 4571 H 423.328 1.26349 1.43903 0
M  V30 4572 H 421.633 0.397133 3.89782 0
M  V30 4573 H 423.33 0.786976 3.93202 0
M  V30 4574 H 419.92 2.1982 3.67936 0
M  V30 4575 H 424.104 3.16883 3.81967 0
M  V30 4576 H 419.36 4.55901 4.07387 0
M  V30 4577 H 423.534 5.53439 4.22704 0
M  V30 4578 H 421.161 6.23418 4.35033 0
M  V30 4579 N 422.737 -1.36956 0.779787 0
M  V30 4580 C 423.986 -1.98738 0.344405 0
M  V30 4581 C 424.299 -1.62596 -1.08728 0
M  V30 4582 O 425.505 -2.1754 -1.62445 0
M  V30 4583 C 423.961 -3.5544 0.564829 0
M  V30 4584 C 423.569 -4.00514 2.0073 0
M  V30 4585 C 425.313 -4.24059 0.193471 0
M  V30 4586 C 423.22 -5.49957 2.17489 0
M  V30 4587 H 422.15 -0.743561 0.12503 0
M  V30 4588 H 424.801 -1.56381 0.960057 0
M  V30 4589 H 423.183 -3.95817 -0.120397 0
M  V30 4590 H 424.357 -3.71362 2.72814 0
M  V30 4591 H 422.672 -3.44703 2.336 0
M  V30 4592 H 425.269 -5.33874 0.297097 0
M  V30 4593 H 425.612 -4.07378 -0.857263 0
M  V30 4594 H 426.145 -3.89012 0.831556 0
M  V30 4595 H 422.884 -5.71574 3.2091 0
M  V30 4596 H 422.404 -5.80767 1.49899 0
M  V30 4597 H 424.083 -6.16043 1.97738 0
M  V30 4598 N 424.215 -0.530993 -1.48385 0
M  V30 4599 C 425.443 -0.00134122 -2.069 0
M  V30 4600 C 425.858 1.2805 -1.3874 0
M  V30 4601 O 425.215 1.76204 -0.475244 0
M  V30 4602 C 425.266 0.225256 -3.60798 0
M  V30 4603 O 424.987 -1.0058 -4.26398 0
M  V30 4604 C 426.488 0.795172 -4.3611 0
M  V30 4605 H 423.708 -0.0339704 -0.67014 0
M  V30 4606 H 426.252 -0.736926 -1.90761 0
M  V30 4607 H 424.407 0.910891 -3.76539 0
M  V30 4608 H 424.821 -0.787165 -5.1856 0
M  V30 4609 H 426.295 0.903143 -5.44562 0
M  V30 4610 H 426.772 1.80031 -4.00606 0
M  V30 4611 H 427.378 0.146069 -4.25049 0
M  V30 4612 N 425.693 1.55336 -0.266172 0
M  V30 4613 C 426.625 2.19544 0.658247 0
M  V30 4614 C 427.638 1.17746 1.12427 0
M  V30 4615 O 428.827 1.44517 1.04772 0
M  V30 4616 C 425.927 2.80032 1.9088 0
M  V30 4617 C 425.1 4.07436 1.59106 0
M  V30 4618 C 424.159 4.52056 2.69317 0
M  V30 4619 O 423.185 5.18023 2.35883 0
M  V30 4620 N 424.387 4.21448 3.99201 0
M  V30 4621 H 427.152 2.99503 0.108754 0
M  V30 4622 H 424.713 1.61667 -0.0869059 0
M  V30 4623 H 426.705 3.06831 2.63888 0
M  V30 4624 H 425.275 2.04119 2.36758 0
M  V30 4625 H 424.495 3.88021 0.695243 0
M  V30 4626 H 425.783 4.90462 1.35367 0
M  V30 4627 H 425.181 3.68528 4.29189 0
M  V30 4628 H 423.738 4.53039 4.68614 0
M  V30 4629 N 427.171 -0.0066808 1.57599 0
M  V30 4630 C 428.42 -0.692078 1.89455 0
M  V30 4631 C 428.733 -1.75306 0.867586 0
M  V30 4632 O 429.939 -2.49262 1.07614 0
M  V30 4633 C 428.395 -1.2821 3.36289 0
M  V30 4634 C 428.003 -0.256291 4.47266 0
M  V30 4635 C 429.747 -1.94608 3.77264 0
M  V30 4636 C 427.654 -0.855927 5.85173 0
M  V30 4637 H 426.584 -0.262252 0.706923 0
M  V30 4638 H 429.235 0.052769 1.83424 0
M  V30 4639 H 427.617 -2.0774 3.37135 0
M  V30 4640 H 428.791 0.513923 4.57925 0
M  V30 4641 H 427.106 0.306862 4.15268 0
M  V30 4642 H 429.703 -2.40364 4.77629 0
M  V30 4643 H 430.046 -2.77382 3.10427 0
M  V30 4644 H 430.579 -1.21822 3.78688 0
M  V30 4645 H 427.318 -0.0671161 6.55466 0
M  V30 4646 H 426.838 -1.59546 5.78191 0
M  V30 4647 H 428.517 -1.35658 6.32618 0
M  V30 4648 N 428.649 -1.55105 -0.279332 0
M  V30 4649 C 429.559 -1.90638 -1.36727 0
M  V30 4650 C 430.575 -0.802899 -1.54368 0
M  V30 4651 O 431.751 -1.10138 -1.68616 0
M  V30 4652 C 428.816 -2.16547 -2.70755 0
M  V30 4653 C 427.877 -3.40146 -2.61915 0
M  V30 4654 C 427.11 -3.6481 -3.8955 0
M  V30 4655 O 427.333 -2.92095 -4.89935 0
M  V30 4656 O 426.267 -4.58343 -3.90135 0
M  V30 4657 H 430.093 -2.83237 -1.09591 0
M  V30 4658 H 427.678 -1.4157 -0.477306 0
M  V30 4659 H 429.56 -2.34665 -3.50014 0
M  V30 4660 H 428.235 -1.27131 -2.9769 0
M  V30 4661 H 427.142 -3.2737 -1.81052 0
M  V30 4662 H 428.475 -4.29761 -2.3993 0
M  V30 4663 N 430.127 0.543554 -1.4793 0
M  V30 4664 C 431.375 1.29752 -1.54948 0
M  V30 4665 C 431.696 1.93764 -0.219242 0
M  V30 4666 O 430.966 1.80639 0.75805 0
M  V30 4667 H 429.546 0.481874 -0.570795 0
M  V30 4668 H 432.208 0.633636 -1.84312 0
M  V30 4669 H 431.304 2.08392 -2.32334 0
M  V30 4670 N 431.605 1.3629 0.791371 0
M  V30 4671 C 432.552 1.30458 1.90393 0
M  V30 4672 C 433.522 0.173632 1.6519 0
M  V30 4673 O 434.707 0.35983 1.87376 0
M  V30 4674 C 431.847 1.09777 3.27174 0
M  V30 4675 C 430.96 2.31929 3.64462 0
M  V30 4676 C 430.095 2.04276 4.90352 0
M  V30 4677 C 429.134 3.224 5.20312 0
M  V30 4678 N 428.271 2.94424 6.37385 0
M  V30 4679 H 433.111 2.25589 1.94714 0
M  V30 4680 H 430.648 1.12122 0.952216 0
M  V30 4681 H 432.606 0.958133 4.06049 0
M  V30 4682 H 431.236 0.183014 3.22281 0
M  V30 4683 H 430.288 2.56703 2.80727 0
M  V30 4684 H 431.6 3.20085 3.82553 0
M  V30 4685 H 430.754 1.87231 5.77087 0
M  V30 4686 H 429.493 1.13428 4.74326 0
M  V30 4687 H 428.498 3.40005 4.32061 0
M  V30 4688 H 429.723 4.14071 5.38258 0
M  V30 4689 H 427.669 2.06185 6.22755 0
M  V30 4690 H 427.586 3.76118 6.55798 0
M  V30 4691 H 428.854 2.80953 7.27108 0
M  V30 4692 N 433.083 -1.0153 1.20538 0
M  V30 4693 C 434.36 -1.72327 0.925343 0
M  V30 4694 C 434.74 -2.03383 -0.565547 0
M  V30 4695 O 434.088 -1.69934 -1.52757 0
M  V30 4696 C 434.298 -2.9902 1.79967 0
M  V30 4697 C 435.646 -3.72258 2.04228 0
M  V30 4698 O 436.67 -3.08979 1.77231 0
M  V30 4699 O 435.529 -4.86053 2.4983 0
M  V30 4700 H 432.623 -0.751099 0.346092 0
M  V30 4701 H 435.169 -1.07366 1.31417 0
M  V30 4702 H 433.941 -2.72402 2.80915 0
M  V30 4703 H 433.564 -3.71721 1.41099 0
M  V30 4704 N 434.561 -1.01147 -1.20859 0
M  V30 4705 C 435.807 -0.698899 -1.90377 0
M  V30 4706 C 436.14 0.76904 -1.78324 0
M  V30 4707 O 435.415 1.55817 -1.16409 0
M  V30 4708 C 435.698 -1.12878 -3.41951 0
M  V30 4709 C 435.551 -2.65665 -3.62963 0
M  V30 4710 C 436.87 -0.696114 -4.3456 0
M  V30 4711 H 433.989 -0.255372 -0.691342 0
M  V30 4712 H 436.631 -1.25831 -1.42361 0
M  V30 4713 H 434.781 -0.652827 -3.82976 0
M  V30 4714 H 436.453 -3.21074 -3.31224 0
M  V30 4715 H 434.696 -3.06878 -3.06608 0
M  V30 4716 H 435.367 -2.90797 -4.69192 0
M  V30 4717 H 437.843 -1.10521 -4.01154 0
M  V30 4718 H 436.719 -1.025 -5.39245 0
M  V30 4719 H 436.98 0.402465 -4.40264 0
M  V30 4720 N 436.039 1.36541 -0.78704 0
M  V30 4721 C 436.972 2.27831 -0.129765 0
M  V30 4722 C 437.95 1.47105 0.692732 0
M  V30 4723 O 439.134 1.7641 0.664222 0
M  V30 4724 C 436.261 3.28577 0.821883 0
M  V30 4725 C 435.307 4.26422 0.0814771 0
M  V30 4726 S 436.14 5.20919 -1.24112 0
M  V30 4727 C 437.296 6.25212 -0.293409 0
M  V30 4728 H 437.529 2.83229 -0.903811 0
M  V30 4729 H 435.062 1.43046 -0.581144 0
M  V30 4730 H 437.02 3.87123 1.3655 0
M  V30 4731 H 435.681 2.72096 1.56916 0
M  V30 4732 H 434.874 4.97554 0.803485 0
M  V30 4733 H 434.476 3.71944 -0.391589 0
M  V30 4734 H 436.768 6.75435 0.528622 0
M  V30 4735 H 437.711 7.01378 -0.973344 0
M  V30 4736 H 438.119 5.64407 0.102196 0
M  V30 4737 N 437.518 0.538854 1.48102 0
M  V30 4738 C 438.448 -0.207654 2.32575 0
M  V30 4739 C 439.429 -0.926559 1.4265 0
M  V30 4740 O 440.614 -0.91061 1.71527 0
M  V30 4741 C 437.744 -1.24957 3.24042 0
M  V30 4742 C 436.698 -0.648263 4.23062 0
M  V30 4743 C 436.024 -1.79348 5.03725 0
M  V30 4744 C 437.324 0.385897 5.20872 0
M  V30 4745 H 439.018 0.497534 2.95237 0
M  V30 4746 H 436.564 0.240715 1.41974 0
M  V30 4747 H 438.517 -1.77983 3.81969 0
M  V30 4748 H 437.241 -1.98446 2.59397 0
M  V30 4749 H 435.9 -0.139452 3.66335 0
M  V30 4750 H 435.548 -2.51696 4.35498 0
M  V30 4751 H 435.248 -1.39702 5.70751 0
M  V30 4752 H 436.772 -2.32735 5.64506 0
M  V30 4753 H 438.186 -0.057607 5.73271 0
M  V30 4754 H 436.583 0.700227 5.96001 0
M  V30 4755 H 437.653 1.28848 4.67468 0
M  V30 4756 N 438.996 -1.55193 0.274407 0
M  V30 4757 C 439.928 -2.1989 -0.646595 0
M  V30 4758 C 440.941 -1.1834 -1.11801 0
M  V30 4759 O 442.13 -1.4507 -1.04004 0
M  V30 4760 C 439.23 -2.8104 -1.89393 0
M  V30 4761 C 438.403 -4.08274 -1.56943 0
M  V30 4762 C 437.462 -4.53478 -2.66916 0
M  V30 4763 O 436.488 -5.19267 -2.33132 0
M  V30 4764 N 437.69 -4.2356 -3.9696 0
M  V30 4765 H 440.455 -2.99556 -0.0928686 0
M  V30 4766 H 438.016 -1.61618 0.0954783 0
M  V30 4767 H 440.008 -3.08226 -2.62257 0
M  V30 4768 H 438.578 -2.05372 -2.35672 0
M  V30 4769 H 437.798 -3.88384 -0.674655 0
M  V30 4770 H 439.086 -4.91173 -1.32764 0
M  V30 4771 H 438.484 -3.70799 -4.27229 0
M  V30 4772 H 437.041 -4.55518 -4.66205 0
M  V30 4773 N 440.474 -0.00167713 -1.576 0
M  V30 4774 C 441.421 0.989195 -2.08527 0
M  V30 4775 C 442.391 1.34031 -0.981065 0
M  V30 4776 O 443.576 1.43839 -1.2536 0
M  V30 4777 C 440.716 2.27537 -2.59463 0
M  V30 4778 C 439.829 1.98314 -3.83791 0
M  V30 4779 C 438.964 3.21025 -4.23222 0
M  V30 4780 C 438.003 2.87495 -5.40382 0
M  V30 4781 N 437.14 4.02749 -5.75098 0
M  V30 4782 H 441.98 0.547973 -2.92919 0
M  V30 4783 H 439.517 0.258917 -1.44803 0
M  V30 4784 H 441.475 3.02729 -2.87073 0
M  V30 4785 H 440.105 2.69325 -1.77943 0
M  V30 4786 H 439.157 1.13482 -3.63078 0
M  V30 4787 H 440.469 1.69601 -4.69081 0
M  V30 4788 H 439.623 4.04561 -4.52123 0
M  V30 4789 H 438.362 3.52877 -3.36644 0
M  V30 4790 H 437.367 2.02367 -5.11202 0
M  V30 4791 H 438.592 2.56889 -6.28637 0
M  V30 4792 H 436.538 4.34494 -4.91478 0
M  V30 4793 H 436.455 3.77566 -6.54966 0
M  V30 4794 H 437.723 4.87068 -6.08592 0
M  V30 4795 N 441.952 1.55251 0.271103 0
M  V30 4796 C 442.884 1.84675 1.35749 0
M  V30 4797 C 443.897 0.731366 1.45447 0
M  V30 4798 O 445.086 1.00924 1.4723 0
M  V30 4799 C 442.186 1.99638 2.73857 0
M  V30 4800 C 441.359 3.30312 2.86727 0
M  V30 4801 C 440.418 3.35318 4.05522 0
M  V30 4802 O 439.444 4.08682 3.96191 0
M  V30 4803 N 440.646 2.62857 5.17577 0
M  V30 4804 H 443.411 2.78445 1.10853 0
M  V30 4805 H 440.972 1.55191 0.461218 0
M  V30 4806 H 442.964 2.00355 3.51625 0
M  V30 4807 H 441.534 1.12725 2.91568 0
M  V30 4808 H 440.754 3.42118 1.95829 0
M  V30 4809 H 442.042 4.16488 2.92258 0
M  V30 4810 H 441.44 2.02939 5.28046 0
M  V30 4811 H 439.997 2.69295 5.93568 0
M  V30 4812 N 443.43 -0.535701 1.48216 0
M  V30 4813 C 444.36 -1.65014 1.65204 0
M  V30 4814 C 445.341 -1.62554 0.501011 0
M  V30 4815 O 446.526 -1.7984 0.732886 0
M  V30 4816 C 443.656 -3.03616 1.68626 0
M  V30 4817 C 442.61 -3.20932 2.83172 0
M  V30 4818 C 441.936 -4.60537 2.71679 0
M  V30 4819 C 443.236 -3.04249 4.24535 0
M  V30 4820 H 444.93 -1.51053 2.58502 0
M  V30 4821 H 442.476 -0.725262 1.24402 0
M  V30 4822 H 444.429 -3.81446 1.79099 0
M  V30 4823 H 443.153 -3.18587 0.719026 0
M  V30 4824 H 441.812 -2.45517 2.72244 0
M  V30 4825 H 441.46 -4.72336 1.72937 0
M  V30 4826 H 441.16 -4.73069 3.48538 0
M  V30 4827 H 442.684 -5.40475 2.84112 0
M  V30 4828 H 444.098 -3.71877 4.36326 0
M  V30 4829 H 442.495 -3.28278 5.02348 0
M  V30 4830 H 443.565 -2.00739 4.41397 0
M  V30 4831 N 444.908 -1.36708 -0.784132 0
M  V30 4832 C 446.136 -1.34398 -1.57305 0
M  V30 4833 C 446.551 0.0735577 -1.88657 0
M  V30 4834 O 445.908 1.03193 -1.50524 0
M  V30 4835 C 445.959 -2.17053 -2.89085 0
M  V30 4836 O 445.68 -3.53281 -2.59083 0
M  V30 4837 C 447.181 -2.22583 -3.83369 0
M  V30 4838 H 444.401 -0.460819 -0.487736 0
M  V30 4839 H 446.945 -1.79879 -0.972819 0
M  V30 4840 H 445.1 -1.75113 -3.45564 0
M  V30 4841 H 445.514 -3.9647 -3.43383 0
M  V30 4842 H 446.988 -2.84763 -4.72878 0
M  V30 4843 H 447.465 -1.23075 -4.21603 0
M  V30 4844 H 448.071 -2.64781 -3.32823 0
M  V30 4845 N 446.386 1.0089 -1.21074 0
M  V30 4846 C 447.296 2.13039 -0.982425 0
M  V30 4847 C 448.312 1.73881 0.0642161 0
M  V30 4848 O 449.488 2.01012 -0.12496 0
M  V30 4849 C 446.553 3.42377 -0.545803 0
M  V30 4850 C 445.614 3.95731 -1.6642 0
M  V30 4851 C 444.847 5.18896 -1.24832 0
M  V30 4852 O 445.07 5.70273 -0.120265 0
M  V30 4853 O 444.004 5.65597 -2.05873 0
M  V30 4854 H 447.83 2.35175 -1.92163 0
M  V30 4855 H 445.415 1.1142 -0.995285 0
M  V30 4856 H 447.297 4.20244 -0.311912 0
M  V30 4857 H 445.972 3.21639 0.364727 0
M  V30 4858 H 444.879 3.19108 -1.95246 0
M  V30 4859 H 446.212 4.20872 -2.55201 0
M  V30 4860 N 447.864 1.01787 1.20321 0
M  V30 4861 C 449.111 0.707936 1.89722 0
M  V30 4862 C 449.439 -0.762535 1.78929 0
M  V30 4863 O 448.694 -1.56977 1.16861 0
M  V30 4864 C 448.993 1.09076 3.40349 0
M  V30 4865 C 448.659 2.55765 3.71342 0
M  V30 4866 C 447.321 2.95845 3.79511 0
M  V30 4867 C 449.673 3.50723 3.85542 0
M  V30 4868 C 447.001 4.2982 3.99339 0
M  V30 4869 C 449.353 4.84387 4.06881 0
M  V30 4870 C 448.017 5.24172 4.1328 0
M  V30 4871 H 447.287 0.259052 0.694243 0
M  V30 4872 H 449.934 1.27868 1.42555 0
M  V30 4873 H 448.239 0.438453 3.89339 0
M  V30 4874 H 449.936 0.828636 3.92345 0
M  V30 4875 H 446.526 2.2371 3.65584 0
M  V30 4876 H 450.71 3.20916 3.78585 0
M  V30 4877 H 445.966 4.60196 4.02529 0
M  V30 4878 H 450.14 5.57891 4.1681 0
M  V30 4879 H 447.767 6.27997 4.28396 0
M  V30 4880 N 449.342 -1.36122 0.79427 0
M  V30 4881 C 450.591 -1.98361 0.365464 0
M  V30 4882 C 450.904 -1.6374 -1.06997 0
M  V30 4883 O 452.11 -2.19251 -1.60129 0
M  V30 4884 C 450.566 -3.54821 0.602496 0
M  V30 4885 C 450.174 -3.98362 2.04967 0
M  V30 4886 C 451.918 -4.2383 0.238437 0
M  V30 4887 C 449.825 -5.47619 2.2331 0
M  V30 4888 H 448.755 -0.742193 0.13291 0
M  V30 4889 H 451.406 -1.55354 0.976589 0
M  V30 4890 H 449.788 -3.95922 -0.078409 0
M  V30 4891 H 450.962 -3.68447 2.76737 0
M  V30 4892 H 449.277 -3.42206 2.37243 0
M  V30 4893 H 451.874 -5.33529 0.353705 0
M  V30 4894 H 452.217 -4.08264 -0.814006 0
M  V30 4895 H 452.75 -3.88108 0.872769 0
M  V30 4896 H 449.489 -5.68138 3.26955 0
M  V30 4897 H 449.009 -5.79145 1.5605 0
M  V30 4898 H 450.688 -6.13911 2.0426 0
M  V30 4899 N 450.82 -0.546701 -1.47814 0
M  V30 4900 C 452.068 -0.0187037 -2.02091 0
M  V30 4901 C 452.389 1.33168 -1.42447 0
M  V30 4902 O 451.659 1.86619 -0.595839 0
M  V30 4903 H 450.239 -0.00392531 -0.74699 0
M  V30 4904 H 452.901 -0.714327 -1.81338 0
M  V30 4905 H 451.997 0.0772219 -3.12004 0
M  V30 4906 N 452.299 1.55045 -0.282633 0
M  V30 4907 C 453.548 1.98938 0.332667 0
M  V30 4908 C 453.861 1.17455 1.56409 0
M  V30 4909 O 455.067 1.51527 2.25282 0
M  V30 4910 C 453.523 3.54105 0.643226 0
M  V30 4911 C 453.131 4.44374 -0.568814 0
M  V30 4912 C 454.875 4.06569 1.22074 0
M  V30 4913 C 452.782 5.90943 -0.232426 0
M  V30 4914 H 451.712 0.743043 0.128075 0
M  V30 4915 H 454.363 1.79341 -0.388464 0
M  V30 4916 H 452.745 3.69532 1.42346 0
M  V30 4917 H 453.919 4.40718 -1.34551 0
M  V30 4918 H 452.234 4.02585 -1.06369 0
M  V30 4919 H 454.831 5.13626 1.48635 0
M  V30 4920 H 455.174 3.56057 2.15707 0
M  V30 4921 H 455.707 3.94612 0.502621 0
M  V30 4922 H 452.446 6.45567 -1.13683 0
M  V30 4923 H 451.966 5.9765 0.507357 0
M  V30 4924 H 453.645 6.4677 0.172657 0
M  V30 4925 N 453.777 0.010035 1.57597 0
M  V30 4926 C 454.727 -0.986858 2.05536 0
M  V30 4927 C 455.711 -1.29711 0.952042 0
M  V30 4928 O 456.903 -1.28641 1.21575 0
M  V30 4929 C 454.032 -2.2756 2.57043 0
M  V30 4930 C 453.118 -1.99455 3.74271 0
M  V30 4931 N 453.509 -1.41546 4.85591 0
M  V30 4932 C 451.807 -2.29547 3.82393 0
M  V30 4933 C 452.508 -1.3014 5.66956 0
M  V30 4934 N 451.484 -1.79044 5.13268 0
M  V30 4935 H 455.286 -0.533778 2.89012 0
M  V30 4936 H 452.8 -0.195432 1.6122 0
M  V30 4937 H 454.797 -2.99829 2.89669 0
M  V30 4938 H 453.457 -2.73512 1.7499 0
M  V30 4939 H 454.468 -1.09294 5.06236 0
M  V30 4940 H 451.145 -2.78304 3.11213 0
M  V30 4941 H 452.535 -0.855237 6.66435 0
M  V30 4942 N 455.255 -1.55392 -0.262866 0
M  V30 4943 C 456.187 -1.85392 -1.34768 0
M  V30 4944 C 457.2 -0.739069 -1.45057 0
M  V30 4945 O 458.389 -1.01703 -1.46693 0
M  V30 4946 C 455.489 -2.01088 -2.72795 0
M  V30 4947 C 454.662 -3.31828 -2.84972 0
M  V30 4948 C 453.721 -3.37464 -4.03738 0
M  V30 4949 O 452.747 -4.10778 -3.94018 0
M  V30 4950 N 453.949 -2.65599 -5.16176 0
M  V30 4951 H 456.714 -2.79029 -1.09375 0
M  V30 4952 H 454.275 -1.55434 -0.452981 0
M  V30 4953 H 456.267 -2.02217 -3.50557 0
M  V30 4954 H 454.837 -1.1427 -2.90966 0
M  V30 4955 H 454.057 -3.43152 -1.94012 0
M  V30 4956 H 455.345 -4.18032 -2.90045 0
M  V30 4957 H 454.743 -2.05736 -5.26962 0
M  V30 4958 H 453.3 -2.72439 -5.92132 0
M  V30 4959 N 456.733 0.527833 -1.48498 0
M  V30 4960 C 457.973 1.29401 -1.58224 0
M  V30 4961 C 458.337 1.90348 -0.251327 0
M  V30 4962 O 459.538 2.67868 -0.223588 0
M  V30 4963 C 457.809 2.35266 -2.69044 0
M  V30 4964 S 459.368 3.2158 -2.98549 0
M  V30 4965 H 456.186 0.440138 -0.558391 0
M  V30 4966 H 458.788 0.601079 -1.8603 0
M  V30 4967 H 457.492 1.88975 -3.64303 0
M  V30 4968 H 457.023 3.09263 -2.43146 0
M  V30 4969 H 459.038 4.35391 -2.38011 0
M  V30 4970 N 458.211 1.37122 0.776871 0
M  V30 4971 C 459.144 1.26835 1.89705 0
M  V30 4972 C 460.122 0.14992 1.61907 0
M  V30 4973 O 461.306 0.323242 1.85708 0
M  V30 4974 C 458.433 0.95986 3.24814 0
M  V30 4975 C 457.479 2.09447 3.7153 0
M  V30 4976 S 458.312 3.71368 3.85806 0
M  V30 4977 C 459.468 3.42659 5.23771 0
M  V30 4978 H 459.701 2.21647 1.98141 0
M  V30 4979 H 457.234 1.22685 0.937433 0
M  V30 4980 H 459.192 0.788696 4.02852 0
M  V30 4981 H 457.853 0.0293137 3.14086 0
M  V30 4982 H 457.046 1.8335 4.69467 0
M  V30 4983 H 456.648 2.2255 3.00578 0
M  V30 4984 H 458.94 2.9733 6.0877 0
M  V30 4985 H 459.883 4.39905 5.54878 0
M  V30 4986 H 460.291 2.77708 4.91466 0
M  V30 4987 N 459.689 -1.00246 1.21608 0
M  V30 4988 C 460.937 -1.73717 1.0328 0
M  V30 4989 C 461.258 -1.90102 -0.434318 0
M  V30 4990 O 460.528 -1.45376 -1.31311 0
M  V30 4991 H 459.108 -0.643613 0.379172 0
M  V30 4992 H 461.77 -1.20787 1.52959 0
M  V30 4993 H 460.866 -2.73535 1.50283 0
M  V30 4994 N 461.167 -1.02423 -1.1978 0
M  V30 4995 C 462.415 -0.716569 -1.8897 0
M  V30 4996 C 462.736 0.756769 -1.79716 0
M  V30 4997 O 462.006 1.5449 -1.20456 0
M  V30 4998 H 460.586 -0.262062 -0.699523 0
M  V30 4999 H 463.248 -1.29747 -1.45436 0
M  V30 5000 H 462.344 -1.00675 -2.95417 0
M  V30 5001 N 462.645 1.35699 -0.801477 0
M  V30 5002 C 463.873 2.03157 -0.391768 0
M  V30 5003 C 464.288 1.60412 0.995668 0
M  V30 5004 O 463.645 0.799228 1.64069 0
M  V30 5005 C 463.696 3.58566 -0.459671 0
M  V30 5006 O 463.417 3.99756 -1.7924 0
M  V30 5007 C 464.918 4.4328 -0.0421205 0
M  V30 5008 H 462.138 0.651688 -0.159825 0
M  V30 5009 H 464.682 1.73426 -1.08368 0
M  V30 5010 H 462.837 3.86963 0.183939 0
M  V30 5011 H 463.251 4.94387 -1.75162 0
M  V30 5012 H 464.725 5.51821 -0.140754 0
M  V30 5013 H 465.202 4.27383 1.01196 0
M  V30 5014 H 465.808 4.20168 -0.658687 0
M  V30 5015 N 464.123 0.554532 1.47522 0
M  V30 5016 C 465.033 -0.197865 2.33764 0
M  V30 5017 C 466.049 -0.914576 1.48025 0
M  V30 5018 O 467.225 -0.884067 1.80959 0
M  V30 5019 C 464.29 -1.21628 3.24665 0
M  V30 5020 C 463.351 -0.507283 4.26292 0
M  V30 5021 C 462.584 -1.47718 5.1285 0
M  V30 5022 O 462.807 -2.7118 5.01814 0
M  V30 5023 O 461.741 -1.00313 5.93482 0
M  V30 5024 H 465.567 0.50949 2.99396 0
M  V30 5025 H 463.152 0.315176 1.46038 0
M  V30 5026 H 465.034 -1.80421 3.80823 0
M  V30 5027 H 463.709 -1.9056 2.61665 0
M  V30 5028 H 462.616 0.121778 3.73902 0
M  V30 5029 H 463.949 0.140544 4.91999 0
M  V30 5030 N 465.601 -1.54893 0.290851 0
M  V30 5031 C 466.548 -2.23138 -0.58974 0
M  V30 5032 C 467.518 -1.21036 -1.13752 0
M  V30 5033 O 468.703 -1.49626 -1.18392 0
M  V30 5034 C 465.843 -2.96811 -1.76061 0
M  V30 5035 C 464.956 -4.13665 -1.24519 0
M  V30 5036 C 464.091 -4.74944 -2.3791 0
M  V30 5037 C 463.13 -5.83963 -1.83451 0
M  V30 5038 N 462.267 -6.39239 -2.90376 0
M  V30 5039 H 467.107 -2.98 -0.00114915 0
M  V30 5040 H 464.644 -1.47096 0.0112006 0
M  V30 5041 H 466.602 -3.37751 -2.44909 0
M  V30 5042 H 465.232 -2.24344 -2.32098 0
M  V30 5043 H 464.284 -3.77737 -0.449288 0
M  V30 5044 H 465.596 -4.92238 -0.806424 0
M  V30 5045 H 464.75 -5.18684 -3.14724 0
M  V30 5046 H 463.489 -3.95682 -2.85109 0
M  V30 5047 H 462.494 -5.39657 -1.05122 0
M  V30 5048 H 463.719 -6.65103 -1.37169 0
M  V30 5049 H 461.665 -5.62864 -3.36927 0
M  V30 5050 H 461.582 -7.13129 -2.50965 0
M  V30 5051 H 462.85 -6.87637 -3.67118 0
M  V30 5052 N 467.08 -0.0183926 -1.57589 0
M  V30 5053 C 468.043 0.951986 -2.08494 0
M  V30 5054 C 469.043 1.26092 -0.997874 0
M  V30 5055 O 470.233 1.20304 -1.25987 0
M  V30 5056 C 467.365 2.27165 -2.54182 0
M  V30 5057 H 468.558 0.511307 -2.95509 0
M  V30 5058 H 466.111 0.229444 -1.54607 0
M  V30 5059 H 466.846 2.75884 -1.70465 0
M  V30 5060 H 466.631 2.06057 -3.33591 0
M  V30 5061 H 468.121 2.9674 -2.93828 0
M  V30 5062 N 468.558 1.5553 0.254621 0
M  V30 5063 C 469.974 1.4778 0.602753 0
M  V30 5064 C 470.174 0.707047 1.88688 0
M  V30 5065 O 469.23 0.233288 2.5142 0
M  V30 5066 C 470.543 2.92133 0.712648 0
M  V30 5067 C 472.091 3.02458 0.805488 0
M  V30 5068 C 472.566 4.48102 0.947009 0
M  V30 5069 N 474.057 4.52008 1.01207 0
M  V30 5070 C 474.792 5.61939 1.1407 0
M  V30 5071 N 474.288 6.81697 1.23536 0
M  V30 5072 N 476.081 5.49719 1.17325 0
M  V30 5073 H 468.232 2.04085 -0.588463 0
M  V30 5074 H 470.495 0.926229 -0.202001 0
M  V30 5075 H 470.201 3.51332 -0.160766 0
M  V30 5076 H 470.075 3.42187 1.58707 0
M  V30 5077 H 472.462 2.43344 1.66936 0
M  V30 5078 H 472.543 2.55627 -0.0939266 0
M  V30 5079 H 472.187 5.07824 0.087725 0
M  V30 5080 H 472.117 4.92607 1.86135 0
M  V30 5081 H 474.608 3.65749 0.950577 0
M  V30 5082 H 474.921 7.61228 1.33236 0
M  V30 5083 H 473.266 6.84473 1.20508 0
M  V30 5084 H 476.457 4.55095 1.09573 0
M  V30 5085 H 476.63 6.35432 1.27005 0
M  V30 5086 N 470.036 -0.519951 1.48776 0
M  V30 5087 C 471.452 -0.849418 1.35119 0
M  V30 5088 C 471.652 -1.98077 0.36982 0
M  V30 5089 O 470.708 -2.51664 -0.205359 0
M  V30 5090 C 472.021 -1.20748 2.75391 0
M  V30 5091 C 473.569 -1.31679 2.83954 0
M  V30 5092 C 474.044 -1.70824 4.24951 0
M  V30 5093 N 475.535 -1.77908 4.27672 0
M  V30 5094 C 476.27 -2.09603 5.33717 0
M  V30 5095 N 475.766 -2.39652 6.5003 0
M  V30 5096 N 477.559 -2.10694 5.21119 0
M  V30 5097 H 469.71 0.226377 2.1119 0
M  V30 5098 H 471.973 0.0386519 0.947212 0
M  V30 5099 H 471.679 -0.449703 3.48813 0
M  V30 5100 H 471.553 -2.15534 3.09556 0
M  V30 5101 H 473.94 -2.06532 2.10781 0
M  V30 5102 H 474.021 -0.3499 2.53396 0
M  V30 5103 H 473.665 -0.965282 4.98643 0
M  V30 5104 H 473.595 -2.6858 4.52959 0
M  V30 5105 H 476.086 -1.56923 3.43779 0
M  V30 5106 H 476.399 -2.6297 7.26682 0
M  V30 5107 H 474.744 -2.37149 6.53288 0
M  V30 5108 H 477.935 -1.86682 4.29264 0
M  V30 5109 H 478.108 -2.35062 6.03863 0
M  V30 5110 N 471.514 -1.37532 -0.769588 0
M  V30 5111 C 472.424 -1.35668 -1.91393 0
M  V30 5112 C 473.44 -0.255954 -1.72107 0
M  V30 5113 O 474.616 -0.491704 -1.95305 0
M  V30 5114 C 471.681 -1.16481 -3.26547 0
M  V30 5115 C 470.742 -2.36212 -3.58472 0
M  V30 5116 C 469.975 -2.17932 -4.87177 0
M  V30 5117 O 470.198 -1.1647 -5.58382 0
M  V30 5118 O 469.132 -3.06167 -5.18214 0
M  V30 5119 H 472.958 -2.32055 -1.95918 0
M  V30 5120 H 470.543 -1.18284 -0.912641 0
M  V30 5121 H 472.425 -1.07778 -4.07384 0
M  V30 5122 H 471.1 -0.231687 -3.2287 0
M  V30 5123 H 470.007 -2.50488 -2.77861 0
M  V30 5124 H 471.34 -3.281 -3.66894 0
M  V30 5125 N 472.992 0.995999 -1.22138 0
M  V30 5126 C 474.408 1.25917 -0.980667 0
M  V30 5127 C 474.608 1.98819 0.327604 0
M  V30 5128 O 473.664 2.29587 1.05101 0
M  V30 5129 C 474.977 2.07399 -2.17729 0
M  V30 5130 C 476.525 2.20594 -2.22052 0
M  V30 5131 C 477 3.05462 -3.41258 0
M  V30 5132 N 478.491 3.13049 -3.41401 0
M  V30 5133 C 479.226 3.78997 -4.30289 0
M  V30 5134 N 478.722 4.46899 -5.2939 0
M  V30 5135 N 480.515 3.75728 -4.18073 0
M  V30 5136 H 472.666 0.507158 -2.06256 0
M  V30 5137 H 474.929 0.28658 -0.903646 0
M  V30 5138 H 474.635 1.61191 -3.12586 0
M  V30 5139 H 474.509 3.08154 -2.17534 0
M  V30 5140 H 476.896 2.66017 -1.27745 0
M  V30 5141 H 476.977 1.1928 -2.26287 0
M  V30 5142 H 476.621 2.60739 -4.35864 0
M  V30 5143 H 476.551 4.06911 -3.34262 0
M  V30 5144 H 479.042 2.64721 -2.69688 0
M  V30 5145 H 479.355 4.94952 -5.935 0
M  V30 5146 H 477.7 4.45657 -5.33306 0
M  V30 5147 H 480.891 3.2184 -3.39907 0
M  V30 5148 H 481.064 4.26845 -4.87553 0
M  V30 5149 N 474.47 1.03057 1.19235 0
M  V30 5150 C 475.719 0.72326 1.88287 0
M  V30 5151 C 476.032 -0.751333 1.80594 0
M  V30 5152 O 477.238 -1.17176 2.44912 0
M  V30 5153 C 475.694 1.24338 3.3774 0
M  V30 5154 C 475.302 2.74587 3.53986 0
M  V30 5155 C 477.046 1.01213 4.12257 0
M  V30 5156 C 474.953 3.20009 4.97341 0
M  V30 5157 H 473.883 0.266848 0.705201 0
M  V30 5158 H 476.534 1.24509 1.34795 0
M  V30 5159 H 474.916 0.649457 3.90638 0
M  V30 5160 H 476.09 3.39649 3.11408 0
M  V30 5161 H 474.405 2.9601 2.9286 0
M  V30 5162 H 477.002 1.32675 5.17978 0
M  V30 5163 H 477.345 -0.051001 4.16269 0
M  V30 5164 H 477.878 1.57014 3.65501 0
M  V30 5165 H 474.617 4.25659 4.98493 0
M  V30 5166 H 474.137 2.59676 5.40674 0
M  V30 5167 H 475.816 3.13447 5.66003 0
M  V30 5168 N 475.948 -1.35272 0.808662 0
M  V30 5169 C 476.898 -2.27181 0.193124 0
M  V30 5170 C 477.882 -1.47871 -0.634265 0
M  V30 5171 O 479.074 -1.70048 -0.491182 0
M  V30 5172 C 476.203 -3.36979 -0.655751 0
M  V30 5173 C 475.289 -4.23712 0.181481 0
M  V30 5174 N 475.68 -4.90225 1.24551 0
M  V30 5175 C 473.978 -4.45985 -0.0365493 0
M  V30 5176 C 474.679 -5.54537 1.75682 0
M  V30 5177 N 473.655 -5.33107 1.06294 0
M  V30 5178 H 477.457 -2.76101 1.00724 0
M  V30 5179 H 474.971 -1.48823 0.650029 0
M  V30 5180 H 476.968 -4.01774 -1.11279 0
M  V30 5181 H 475.628 -2.89611 -1.46819 0
M  V30 5182 H 476.639 -4.91641 1.62818 0
M  V30 5183 H 473.316 -4.09409 -0.817964 0
M  V30 5184 H 474.706 -6.17597 2.64621 0
M  V30 5185 N 477.426 -0.562348 -1.47226 0
M  V30 5186 C 478.654 -0.0452275 -2.06851 0
M  V30 5187 C 479.069 1.25078 -1.41424 0
M  V30 5188 O 478.426 1.75156 -0.512513 0
M  V30 5189 C 478.477 0.148674 -3.61194 0
M  V30 5190 O 478.198 -1.09602 -4.24169 0
M  V30 5191 C 479.699 0.702488 -4.37699 0
M  V30 5192 H 476.919 -0.0481775 -0.669268 0
M  V30 5193 H 479.463 -0.777223 -1.89155 0
M  V30 5194 H 477.618 0.830817 -3.78386 0
M  V30 5195 H 478.032 -0.896982 -5.16773 0
M  V30 5196 H 479.506 0.78743 -5.46355 0
M  V30 5197 H 479.983 1.71493 -4.04335 0
M  V30 5198 H 480.589 0.0558772 -4.25263 0
M  V30 5199 N 478.904 1.54736 -0.299062 0
M  V30 5200 C 479.851 2.23448 0.577899 0
M  V30 5201 C 480.821 1.21637 1.13109 0
M  V30 5202 O 482.006 1.50252 1.17597 0
M  V30 5203 C 479.146 2.9774 1.74484 0
M  V30 5204 C 478.259 4.1432 1.22323 0
M  V30 5205 C 477.394 4.76199 2.35388 0
M  V30 5206 C 476.433 5.84927 1.80351 0
M  V30 5207 N 475.57 6.4077 2.86982 0
M  V30 5208 H 480.41 2.97996 -0.0146545 0
M  V30 5209 H 477.947 1.47088 -0.0190013 0
M  V30 5210 H 479.905 3.39045 2.43114 0
M  V30 5211 H 478.535 2.25572 2.30905 0
M  V30 5212 H 477.587 3.7797 0.429249 0
M  V30 5213 H 478.899 4.92659 0.780309 0
M  V30 5214 H 478.053 5.20346 3.11969 0
M  V30 5215 H 476.792 3.97188 2.83006 0
M  V30 5216 H 475.797 5.40207 1.02259 0
M  V30 5217 H 477.022 6.65821 1.3364 0
M  V30 5218 H 474.968 5.64643 3.33938 0
M  V30 5219 H 474.885 7.1445 2.4718 0
M  V30 5220 H 476.153 6.89574 3.63466 0
M  V30 5221 N 480.382 0.0267497 1.57577 0
M  V30 5222 C 481.329 -0.955894 2.10075 0
M  V30 5223 C 482.299 -1.32453 1.00226 0
M  V30 5224 O 483.484 -1.41826 1.27632 0
M  V30 5225 C 480.624 -2.2338 2.6305 0
M  V30 5226 C 479.737 -1.92183 3.86898 0
M  V30 5227 C 478.872 -3.14251 4.28275 0
M  V30 5228 C 477.911 -2.78862 5.44888 0
M  V30 5229 N 477.048 -3.93548 5.81433 0
M  V30 5230 H 481.888 -0.501303 2.93753 0
M  V30 5231 H 479.425 -0.235847 1.45197 0
M  V30 5232 H 481.383 -2.98124 2.91853 0
M  V30 5233 H 480.013 -2.6646 1.82205 0
M  V30 5234 H 479.065 -1.07692 3.64838 0
M  V30 5235 H 480.377 -1.62117 4.7172 0
M  V30 5236 H 479.531 -3.97317 4.58502 0
M  V30 5237 H 478.27 -3.47476 3.42215 0
M  V30 5238 H 477.275 -1.94208 5.14357 0
M  V30 5239 H 478.5 -2.46855 6.32645 0
M  V30 5240 H 476.446 -4.2662 4.98328 0
M  V30 5241 H 476.363 -3.67098 6.6089 0
M  V30 5242 H 477.631 -4.77325 6.16264 0
M  V30 5243 N 481.861 -1.55662 -0.24637 0
M  V30 5244 C 483.109 -1.77168 -0.972411 0
M  V30 5245 C 483.43 -0.590827 -1.85834 0
M  V30 5246 O 482.7 0.393365 -1.9191 0
M  V30 5247 H 481.28 -0.653405 -0.362038 0
M  V30 5248 H 483.942 -1.93101 -0.264189 0
M  V30 5249 H 483.038 -2.68335 -1.59382 0
M  V30 5250 N 483.339 0.512053 -1.4905 0
M  V30 5251 C 484.287 1.63568 -1.65373 0
M  V30 5252 C 485.281 1.61228 -0.519806 0
M  V30 5253 O 486.487 1.65869 -0.699101 0
M  V30 5254 H 482.862 0.542019 -0.521267 0
M  V30 5255 H 484.833 1.4695 -2.59708 0
M  V30 5256 C 483.582 3.01761 -1.7273 0
M  V30 5257 H 482.905 3.04263 -2.59353 0
M  V30 5258 H 484.345 3.79948 -1.8819 0
M  V30 5259 C 482.804 3.33609 -0.46973 0
M  V30 5260 O 483.334 3.99607 0.409492 0
M  V30 5261 N 481.54 2.88651 -0.336003 0
M  V30 5262 H 481.087 2.35119 -1.05247 0
M  V30 5263 H 481.045 3.10328 0.504363 0
M  V30 5264 N 484.817 1.37938 0.762283 0
M  V30 5265 C 486.064 1.33668 1.52115 0
M  V30 5266 C 486.392 -0.0759538 1.94352 0
M  V30 5267 O 485.647 -1.05121 1.6507 0
M  V30 5268 C 485.946 2.23042 2.79261 0
M  V30 5269 C 485.612 3.71159 2.56031 0
M  V30 5270 C 484.274 4.11523 2.49404 0
M  V30 5271 C 486.626 4.64955 2.35513 0
M  V30 5272 C 483.954 5.43784 2.20263 0
M  V30 5273 C 486.306 5.97464 2.07894 0
M  V30 5274 C 484.97 6.36922 1.99718 0
M  V30 5275 H 484.24 0.489127 0.556629 0
M  V30 5276 H 486.887 1.70224 0.877262 0
M  V30 5277 H 485.192 1.79512 3.48256 0
M  V30 5278 H 486.889 2.17047 3.37182 0
M  V30 5279 H 483.479 3.39153 2.62056 0
M  V30 5280 H 487.663 4.34623 2.39617 0
M  V30 5281 H 482.919 5.73307 2.12435 0
M  V30 5282 H 487.093 6.6969 1.91019 0
M  V30 5283 H 484.72 7.39331 1.76902 0
M  V30 5284 N 486.295 -0.989507 1.22664 0
M  V30 5285 C 487.243 -2.10148 0.997035 0
M  V30 5286 C 488.237 -1.6929 -0.0609783 0
M  V30 5287 O 489.443 -1.79766 0.0917523 0
M  V30 5288 H 485.818 -0.687256 0.305259 0
M  V30 5289 H 487.789 -2.26685 1.94053 0
M  V30 5290 C 486.538 -3.4257 0.595085 0
M  V30 5291 H 485.861 -3.74453 1.40089 0
M  V30 5292 H 487.301 -4.21344 0.473869 0
M  V30 5293 C 485.76 -3.29638 -0.695725 0
M  V30 5294 O 486.29 -3.61709 -1.74727 0
M  V30 5295 N 484.496 -2.82814 -0.668173 0
M  V30 5296 H 484.043 -2.56914 0.18787 0
M  V30 5297 H 484.001 -2.74544 -1.5321 0
M  V30 5298 N 487.773 -1.03688 -1.18687 0
M  V30 5299 C 489.189 -0.755413 -1.4059 0
M  V30 5300 C 489.389 0.656659 -1.905 0
M  V30 5301 O 488.445 1.42144 -2.08689 0
M  V30 5302 C 489.758 -1.7983 -2.41001 0
M  V30 5303 C 491.306 -1.81877 -2.54735 0
M  V30 5304 C 491.781 -2.85148 -3.58406 0
M  V30 5305 N 493.272 -2.84015 -3.6591 0
M  V30 5306 C 494.007 -3.60573 -4.45841 0
M  V30 5307 N 493.503 -4.46871 -5.29413 0
M  V30 5308 N 495.296 -3.49079 -4.40568 0
M  V30 5309 H 487.447 -1.94818 -0.846148 0
M  V30 5310 H 489.71 -0.842727 -0.434184 0
M  V30 5311 H 489.416 -2.81097 -2.1137 0
M  V30 5312 H 489.29 -1.62727 -3.40294 0
M  V30 5313 H 491.677 -0.812836 -2.83685 0
M  V30 5314 H 491.758 -2.03057 -1.55568 0
M  V30 5315 H 491.402 -3.85918 -3.30197 0
M  V30 5316 H 491.332 -2.61224 -4.57241 0
M  V30 5317 H 493.823 -2.21431 -3.0623 0
M  V30 5318 H 494.136 -5.02007 -5.87545 0
M  V30 5319 H 492.481 -4.5094 -5.28846 0
M  V30 5320 H 495.672 -2.81066 -3.74325 0
M  V30 5321 H 495.845 -4.08994 -5.02621 0
M  V30 5322 N 489.251 1.34841 -0.815825 0
M  V30 5323 C 490.662 1.80937 -0.46029 0
M  V30 5324 C 491.013 1.67685 1.01863 0
M  V30 5325 O 490.138 1.21277 1.79223 0
M  V30 5326 C 490.733 3.28509 -0.828708 0
M  V30 5327 C 489.292 3.72712 -0.525644 0
M  V30 5328 C 488.439 2.56676 -1.04941 0
M  V30 5329 H 491.39 1.22688 -1.00664 0
M  V30 5330 H 491.411 3.80279 -0.129757 0
M  V30 5331 H 490.923 3.38122 -1.90513 0
M  V30 5332 H 489.024 3.68642 0.541666 0
M  V30 5333 H 489.137 4.67119 -1.06474 0
M  V30 5334 H 487.501 2.50302 -0.471286 0
M  V30 5335 H 488.284 2.69063 -2.13214 0
M  V30 5336 N 490.729 0.570148 1.46925 0
M  V30 5337 C 491.659 -0.158274 2.32963 0
M  V30 5338 C 492.64 -0.896093 1.44583 0
M  V30 5339 O 493.825 -0.874022 1.7342 0
M  V30 5340 C 490.955 -1.18055 3.26619 0
M  V30 5341 C 489.909 -0.558379 4.24342 0
M  V30 5342 C 489.235 -1.68623 5.07415 0
M  V30 5343 C 490.535 0.496295 5.19937 0
M  V30 5344 H 492.229 0.560046 2.94115 0
M  V30 5345 H 489.775 0.270775 1.41431 0
M  V30 5346 H 491.728 -1.69841 3.85658 0
M  V30 5347 H 490.452 -1.92899 2.63548 0
M  V30 5348 H 489.111 -0.0617157 3.66548 0
M  V30 5349 H 488.759 -2.42402 4.40738 0
M  V30 5350 H 488.459 -1.27564 5.73586 0
M  V30 5351 H 489.983 -2.20709 5.69315 0
M  V30 5352 H 491.397 0.0640052 5.73264 0
M  V30 5353 H 489.794 0.82649 5.94381 0
M  V30 5354 H 490.864 1.38735 4.6463 0
M  V30 5355 N 492.207 -1.54576 0.307264 0
M  V30 5356 C 493.456 -1.99442 -0.300976 0
M  V30 5357 C 493.769 -1.19928 -1.5452 0
M  V30 5358 O 494.975 -1.55092 -2.22842 0
M  V30 5359 C 493.431 -3.55084 -0.586809 0
M  V30 5360 C 493.039 -4.43413 0.639438 0
M  V30 5361 C 494.783 -4.0846 -1.1559 0
M  V30 5362 C 492.69 -5.90499 0.326411 0
M  V30 5363 H 491.62 -0.744986 -0.116238 0
M  V30 5364 H 494.271 -1.787 0.416947 0
M  V30 5365 H 492.653 -3.71749 -1.36449 0
M  V30 5366 H 493.827 -4.38522 1.41545 0
M  V30 5367 H 492.142 -4.00842 1.1276 0
M  V30 5368 H 494.739 -5.15926 -1.40445 0
M  V30 5369 H 495.082 -3.59443 -2.10015 0
M  V30 5370 H 495.615 -3.95362 -0.439778 0
M  V30 5371 H 492.354 -6.43676 1.23939 0
M  V30 5372 H 491.874 -5.98382 -0.412212 0
M  V30 5373 H 493.553 -6.46962 -0.0697393 0
M  V30 5374 N 493.685 -0.035106 -1.57561 0
M  V30 5375 C 494.91 0.655802 -1.96759 0
M  V30 5376 C 495.335 1.64523 -0.911809 0
M  V30 5377 O 494.693 1.80857 0.126673 0
M  V30 5378 C 494.741 1.33326 -3.35047 0
M  V30 5379 O 493.845 2.44866 -3.31835 0
M  V30 5380 H 493.186 0.171807 -0.641388 0
M  V30 5381 H 495.716 -0.0987369 -2.04362 0
M  V30 5382 H 495.726 1.68867 -3.71413 0
M  V30 5383 H 494.401 0.608033 -4.11431 0
M  V30 5384 H 492.978 2.11392 -3.07193 0
M  V30 5385 N 495.163 1.55791 0.238111 0
M  V30 5386 C 496.111 1.91885 1.31464 0
M  V30 5387 C 497.105 0.798929 1.49377 0
M  V30 5388 O 498.311 0.983626 1.50747 0
M  V30 5389 H 494.686 0.609551 0.440399 0
M  V30 5390 H 496.657 2.81747 0.982925 0
M  V30 5391 C 495.406 2.23763 2.6613 0
M  V30 5392 H 494.729 3.09444 2.53149 0
M  V30 5393 H 496.169 2.52915 3.40309 0
M  V30 5394 C 494.628 1.05699 3.1989 0
M  V30 5395 O 495.158 0.309524 4.00506 0
M  V30 5396 N 493.364 0.845251 2.78036 0
M  V30 5397 H 492.911 1.4548 2.12588 0
M  V30 5398 H 492.869 0.0569973 3.14348 0
M  V30 5399 N 496.642 -0.504142 1.49319 0
M  V30 5400 C 497.572 -1.61473 1.68667 0
M  V30 5401 C 498.553 -1.61455 0.535378 0
M  V30 5402 O 499.738 -1.78245 0.770868 0
M  V30 5403 C 496.868 -2.99971 1.75028 0
M  V30 5404 C 495.822 -3.14854 2.89916 0
M  V30 5405 C 495.148 -4.54671 2.81387 0
M  V30 5406 C 496.448 -2.95176 4.30893 0
M  V30 5407 H 498.142 -1.45535 2.61648 0
M  V30 5408 H 495.688 -0.698711 1.25913 0
M  V30 5409 H 497.641 -3.77562 1.8715 0
M  V30 5410 H 496.365 -3.1699 0.786441 0
M  V30 5411 H 495.024 -2.39687 2.77391 0
M  V30 5412 H 494.672 -4.68562 1.82917 0
M  V30 5413 H 494.372 -4.6557 3.58494 0
M  V30 5414 H 495.896 -5.34327 2.95512 0
M  V30 5415 H 497.31 -3.62538 4.44116 0
M  V30 5416 H 495.707 -3.17549 5.09198 0
M  V30 5417 H 496.777 -1.91332 4.45556 0
M  V30 5418 N 498.12 -1.38341 -0.754957 0
M  V30 5419 C 499.067 -1.3546 -1.86867 0
M  V30 5420 C 500.037 -0.217369 -1.64672 0
M  V30 5421 O 501.222 -0.409383 -1.86356 0
M  V30 5422 C 498.362 -1.18413 -3.24149 0
M  V30 5423 C 497.475 -2.41511 -3.58185 0
M  V30 5424 C 496.61 -2.17205 -4.84763 0
M  V30 5425 C 495.649 -3.36081 -5.11582 0
M  V30 5426 N 494.786 -3.11219 -6.29354 0
M  V30 5427 H 499.626 -2.30672 -1.88664 0
M  V30 5428 H 497.163 -1.14607 -0.922154 0
M  V30 5429 H 499.121 -1.06545 -4.03366 0
M  V30 5430 H 497.751 -0.268397 -3.21682 0
M  V30 5431 H 496.803 -2.64056 -2.73822 0
M  V30 5432 H 498.115 -3.30115 -3.73932 0
M  V30 5433 H 497.269 -2.02465 -5.7192 0
M  V30 5434 H 496.008 -1.25964 -4.71152 0
M  V30 5435 H 495.013 -3.51341 -4.22894 0
M  V30 5436 H 496.238 -4.28196 -5.27091 0
M  V30 5437 H 494.184 -2.22624 -6.17069 0
M  V30 5438 H 494.101 -3.93373 -6.45596 0
M  V30 5439 H 495.369 -3.00132 -7.19403 0
M  V30 5440 N 499.598 0.982988 -1.23187 0
M  V30 5441 C 500.875 1.69814 -0.970707 0
M  V30 5442 C 501.255 2.04811 0.511424 0
M  V30 5443 O 500.603 1.73924 1.48198 0
M  V30 5444 C 500.813 2.94143 -1.87831 0
M  V30 5445 C 502.161 3.66712 -2.14026 0
M  V30 5446 O 503.185 3.04171 -1.8536 0
M  V30 5447 O 502.044 4.79258 -2.62629 0
M  V30 5448 H 499.138 0.741659 -0.365884 0
M  V30 5449 H 501.684 1.03844 -1.34218 0
M  V30 5450 H 500.456 2.64858 -2.88038 0
M  V30 5451 H 500.079 3.6785 -1.50905 0
M  V30 5452 N 501.076 1.04316 1.18135 0
M  V30 5453 C 502.322 0.749128 1.88457 0
M  V30 5454 C 502.655 -0.72149 1.803 0
M  V30 5455 O 501.93 -1.52676 1.205 0
M  V30 5456 C 502.213 1.21905 3.38838 0
M  V30 5457 C 502.066 2.75195 3.55792 0
M  V30 5458 C 503.385 0.811085 4.32561 0
M  V30 5459 H 500.504 0.273611 0.684329 0
M  V30 5460 H 503.146 1.29561 1.38975 0
M  V30 5461 H 501.296 0.754137 3.8111 0
M  V30 5462 H 502.968 3.29743 3.22595 0
M  V30 5463 H 501.211 3.14899 2.98364 0
M  V30 5464 H 501.882 3.03135 4.61317 0
M  V30 5465 H 504.358 1.21118 3.98082 0
M  V30 5466 H 503.234 1.16761 5.36338 0
M  V30 5467 H 503.495 -0.285596 4.41177 0
M  V30 5468 N 502.554 -1.34406 0.822964 0
M  V30 5469 C 503.831 -1.92733 0.333641 0
M  V30 5470 C 504.211 -1.75107 -1.17901 0
M  V30 5471 O 503.559 -1.12983 -1.98613 0
M  V30 5472 C 503.769 -3.40557 0.763023 0
M  V30 5473 C 505.117 -4.17709 0.761879 0
M  V30 5474 O 506.141 -3.49141 0.705606 0
M  V30 5475 O 505 -5.40082 0.835109 0
M  V30 5476 H 502.094 -0.821964 0.0911249 0
M  V30 5477 H 504.64 -1.4338 0.907757 0
M  V30 5478 H 503.412 -3.47187 1.8049 0
M  V30 5479 H 503.035 -3.97259 0.164605 0
M  V30 5480 N 504.032 -0.577932 -1.46621 0
M  V30 5481 C 505.309 0.00495287 -1.95599 0
M  V30 5482 C 505.689 1.46428 -1.5206 0
M  V30 5483 O 505.037 2.1517 -0.769046 0
M  V30 5484 C 505.247 -0.162114 -3.48623 0
M  V30 5485 C 506.595 -0.0274623 -4.24591 0
M  V30 5486 O 507.619 -0.0907067 -3.56084 0
M  V30 5487 O 506.478 0.1122 -5.46385 0
M  V30 5488 H 503.572 0.0525057 -0.825332 0
M  V30 5489 H 506.118 -0.645914 -1.56927 0
M  V30 5490 H 504.89 -1.17679 -3.73185 0
M  V30 5491 H 504.513 0.525407 -3.94113 0
M  V30 5492 N 505.51 1.54411 -0.315457 0
M  V30 5493 C 506.44 2.27002 0.547039 0
M  V30 5494 C 507.421 1.27492 1.12605 0
M  V30 5495 O 508.606 1.5629 1.15269 0
M  V30 5496 C 505.736 3.02171 1.71201 0
M  V30 5497 C 504.69 4.0895 1.26268 0
M  V30 5498 C 504.016 4.71915 2.51396 0
M  V30 5499 C 505.316 5.20891 0.383419 0
M  V30 5500 H 507.01 2.99343 -0.0584517 0
M  V30 5501 H 504.556 1.4397 -0.0295527 0
M  V30 5502 H 506.509 3.51681 2.32161 0
M  V30 5503 H 505.233 2.27433 2.34397 0
M  V30 5504 H 503.892 3.60312 0.676062 0
M  V30 5505 H 503.54 3.93801 3.12937 0
M  V30 5506 H 503.24 5.44039 2.22026 0
M  V30 5507 H 504.764 5.24195 3.13133 0
M  V30 5508 H 506.178 5.66206 0.899082 0
M  V30 5509 H 504.575 5.99821 0.182857 0
M  V30 5510 H 505.645 4.81324 -0.587821 0
M  V30 5511 N 506.988 0.0434614 1.5754 0
M  V30 5512 C 507.951 -0.918696 2.09982 0
M  V30 5513 C 508.951 -1.24488 1.01781 0
M  V30 5514 O 510.141 -1.18284 1.27885 0
M  V30 5515 C 507.273 -2.23093 2.57764 0
M  V30 5516 H 508.466 -0.464229 2.96285 0
M  V30 5517 H 506.019 -0.204818 1.54952 0
M  V30 5518 H 506.754 -2.73137 1.74832 0
M  V30 5519 H 506.539 -2.00724 3.36827 0
M  V30 5520 H 508.029 -2.92028 2.98512 0
M  V30 5521 N 508.466 -1.55915 -0.229846 0
M  V30 5522 C 509.694 -1.82617 -0.972562 0
M  V30 5523 C 510.109 -0.621488 -1.78278 0
M  V30 5524 O 509.466 0.409956 -1.77836 0
M  V30 5525 C 509.517 -3.0774 -1.89679 0
M  V30 5526 O 509.238 -4.23559 -1.11934 0
M  V30 5527 C 510.739 -3.47368 -2.75409 0
M  V30 5528 H 507.959 -0.60727 -0.285419 0
M  V30 5529 H 510.503 -2.02996 -0.247579 0
M  V30 5530 H 508.658 -2.89361 -2.57583 0
M  V30 5531 H 509.072 -4.94586 -1.74599 0
M  V30 5532 H 510.546 -4.37977 -3.35977 0
M  V30 5533 H 511.023 -2.68737 -3.47386 0
M  V30 5534 H 511.629 -3.68158 -2.12931 0
M  V30 5535 N 509.944 0.496216 -1.49584 0
M  V30 5536 C 510.874 1.60576 -1.69521 0
M  V30 5537 C 511.855 1.61169 -0.543933 0
M  V30 5538 O 513.04 1.77834 -0.78031 0
M  V30 5539 C 510.17 2.99038 -1.76616 0
M  V30 5540 C 509.124 3.13312 -2.91581 0
M  V30 5541 C 508.45 4.53172 -2.83794 0
M  V30 5542 C 509.75 2.92886 -4.32452 0
M  V30 5543 H 511.444 1.44146 -2.62416 0
M  V30 5544 H 508.99 0.692024 -1.26282 0
M  V30 5545 H 510.943 3.76564 -1.8915 0
M  V30 5546 H 509.667 3.16568 -0.80324 0
M  V30 5547 H 508.326 2.38213 -2.78658 0
M  V30 5548 H 507.974 4.67585 -1.854 0
M  V30 5549 H 507.674 4.63662 -3.60958 0
M  V30 5550 H 509.198 5.32752 -2.98342 0
M  V30 5551 H 510.612 3.60178 -4.46032 0
M  V30 5552 H 509.009 3.14844 -5.10875 0
M  V30 5553 H 510.079 1.88966 -4.46565 0
M  V30 5554 N 511.423 1.38739 0.74761 0
M  V30 5555 C 512.333 1.38696 1.89211 0
M  V30 5556 C 513.349 0.283303 1.71678 0
M  V30 5557 O 514.525 0.522713 1.94498 0
M  V30 5558 C 511.59 1.21662 3.24653 0
M  V30 5559 C 510.651 2.41886 3.54669 0
M  V30 5560 C 509.884 2.25655 4.83648 0
M  V30 5561 O 510.107 1.25339 5.56459 0
M  V30 5562 O 509.041 3.14372 5.13277 0
M  V30 5563 H 512.867 2.35143 1.92202 0
M  V30 5564 H 510.452 1.19721 0.893708 0
M  V30 5565 H 512.334 1.14246 4.05618 0
M  V30 5566 H 511.009 0.283024 3.2246 0
M  V30 5567 H 509.916 2.54877 2.73841 0
M  V30 5568 H 511.249 3.33895 3.61628 0
M  V30 5569 N 512.901 -0.976442 1.23707 0
M  V30 5570 C 514.15 -1.71254 1.06559 0
M  V30 5571 C 514.463 -1.91528 -0.397024 0
M  V30 5572 O 515.669 -2.62625 -0.688518 0
M  V30 5573 C 514.125 -3.08207 1.8584 0
M  V30 5574 C 513.733 -2.95806 3.36456 0
M  V30 5575 C 515.477 -3.85749 1.77194 0
M  V30 5576 C 513.384 -4.28015 4.08114 0
M  V30 5577 H 512.314 -0.642171 0.395136 0
M  V30 5578 H 514.965 -1.08877 1.4771 0
M  V30 5579 H 513.347 -3.71363 1.37498 0
M  V30 5580 H 514.521 -2.41716 3.92314 0
M  V30 5581 H 512.836 -2.31736 3.45959 0
M  V30 5582 H 515.433 -4.83633 2.28041 0
M  V30 5583 H 515.776 -4.09752 0.735477 0
M  V30 5584 H 516.309 -3.29303 2.23169 0
M  V30 5585 H 513.048 -4.09208 5.12083 0
M  V30 5586 H 512.568 -4.81955 3.57043 0
M  V30 5587 H 514.247 -4.96681 4.14629 0
M  V30 5588 N 514.379 -1.04941 -1.1758 0
M  V30 5589 C 515.309 -0.669172 -2.23706 0
M  V30 5590 C 516.29 0.331835 -1.66832 0
M  V30 5591 O 517.475 0.209988 -1.93061 0
M  V30 5592 C 514.605 -0.0404889 -3.47276 0
M  V30 5593 C 513.559 -0.965983 -4.16957 0
M  V30 5594 C 512.885 -0.201312 -5.34321 0
M  V30 5595 C 514.185 -2.28902 -4.69469 0
M  V30 5596 H 515.879 -1.55639 -2.55767 0
M  V30 5597 H 513.425 -0.749793 -1.22939 0
M  V30 5598 H 515.378 0.237298 -4.20731 0
M  V30 5599 H 514.102 0.881658 -3.14475 0
M  V30 5600 H 512.761 -1.22829 -3.45411 0
M  V30 5601 H 512.409 0.723519 -4.97769 0
M  V30 5602 H 512.109 -0.817968 -5.81879 0
M  V30 5603 H 513.633 0.0692499 -6.10561 0
M  V30 5604 H 515.047 -2.07132 -5.34574 0
M  V30 5605 H 513.444 -2.85942 -5.27596 0
M  V30 5606 H 514.514 -2.92937 -3.86414 0
M  V30 5607 N 515.857 1.33968 -0.830081 0
M  V30 5608 C 517.134 1.92554 -0.343858 0
M  V30 5609 C 517.514 1.7573 1.16971 0
M  V30 5610 O 516.862 1.14035 1.98011 0
M  V30 5611 C 517.072 3.40147 -0.781073 0
M  V30 5612 C 518.42 4.17299 -0.78402 0
M  V30 5613 O 519.444 3.48762 -0.724112 0
M  V30 5614 O 518.303 5.39631 -0.863739 0
M  V30 5615 H 515.397 0.821469 -0.0954827 0
M  V30 5616 H 517.943 1.42897 -0.915348 0
M  V30 5617 H 516.715 3.46225 -1.82329 0
M  V30 5618 H 516.338 3.97166 -0.18567 0
M  V30 5619 N 517.335 0.585699 1.46312 0
M  V30 5620 C 518.245 -0.148236 2.34131 0
M  V30 5621 C 519.261 -0.882972 1.49932 0
M  V30 5622 O 520.437 -0.845484 1.82794 0
M  V30 5623 C 517.502 -1.14714 3.27172 0
M  V30 5624 C 516.563 -0.416746 4.27272 0
M  V30 5625 C 515.796 -1.36806 5.15868 0
M  V30 5626 O 516.019 -2.60475 5.07454 0
M  V30 5627 O 514.953 -0.877018 5.95476 0
M  V30 5628 H 518.779 0.572882 2.98248 0
M  V30 5629 H 516.364 0.346082 1.45336 0
M  V30 5630 H 518.246 -1.72303 3.84564 0
M  V30 5631 H 516.921 -1.84967 2.65648 0
M  V30 5632 H 515.828 0.201061 3.73559 0
M  V30 5633 H 517.161 0.244872 4.9159 0
M  V30 5634 N 518.813 -1.54241 0.323641 0
M  V30 5635 C 519.761 -2.25813 -0.557804 0
M  V30 5636 C 520.755 -1.27225 -1.11849 0
M  V30 5637 O 521.961 -1.45001 -1.06652 0
M  V30 5638 H 518.336 -0.72532 -0.198532 0
M  V30 5639 H 520.307 -2.98322 0.0681112 0
M  V30 5640 C 519.056 -3.02913 -1.70701 0
M  V30 5641 H 518.379 -3.78593 -1.28482 0
M  V30 5642 H 519.819 -3.56238 -2.29935 0
M  V30 5643 C 518.278 -2.11217 -2.62467 0
M  V30 5644 O 518.808 -1.69508 -3.64184 0
M  V30 5645 N 517.014 -1.76704 -2.30703 0
M  V30 5646 H 516.561 -2.1082 -1.48029 0
M  V30 5647 H 516.519 -1.15631 -2.92364 0
M  V30 5648 N 520.291 -0.0518155 -1.57515 0
M  V30 5649 C 521.519 0.631395 -1.9703 0
M  V30 5650 C 521.934 1.64341 -0.92938 0
M  V30 5651 O 521.291 1.82296 0.0863266 0
M  V30 5652 C 521.342 1.31774 -3.36627 0
M  V30 5653 O 521.063 0.346247 -4.3673 0
M  V30 5654 C 522.564 2.09065 -3.90905 0
M  V30 5655 H 519.784 0.172576 -0.648428 0
M  V30 5656 H 522.328 -0.118306 -2.04158 0
M  V30 5657 H 520.483 2.01867 -3.30649 0
M  V30 5658 H 520.897 0.836226 -5.17791 0
M  V30 5659 H 522.371 2.52508 -4.9086 0
M  V30 5660 H 522.848 2.93908 -3.26366 0
M  V30 5661 H 523.454 1.43882 -4.00223 0
M  V30 5662 N 521.769 1.56035 0.221574 0
M  V30 5663 C 523.015 1.79312 0.947372 0
M  V30 5664 C 523.348 0.621453 1.83988 0
M  V30 5665 O 522.623 -0.379287 1.90766 0
M  V30 5666 C 522.906 3.1267 1.78633 0
M  V30 5667 C 522.759 4.40284 0.920312 0
M  V30 5668 C 524.078 3.4247 2.7641 0
M  V30 5669 H 521.197 0.652328 0.342982 0
M  V30 5670 H 523.839 1.88765 0.216244 0
M  V30 5671 H 521.989 3.04741 2.40967 0
M  V30 5672 H 523.661 4.60232 0.313718 0
M  V30 5673 H 521.904 4.33212 0.225734 0
M  V30 5674 H 522.575 5.30033 1.54171 0
M  V30 5675 H 525.051 3.50526 2.24211 0
M  V30 5676 H 523.927 4.3695 3.32213 0
M  V30 5677 H 524.188 2.64635 3.54148 0
M  V30 5678 N 523.247 -0.488276 1.49845 0
M  V30 5679 C 524.472 -1.26997 1.63971 0
M  V30 5680 C 524.897 -1.85427 0.315994 0
M  V30 5681 O 524.255 -1.66475 -0.718032 0
M  V30 5682 C 524.303 -2.36689 2.72049 0
M  V30 5683 O 523.407 -3.40882 2.32107 0
M  V30 5684 H 522.748 -0.374376 0.548396 0
M  V30 5685 H 525.278 -0.583104 1.96115 0
M  V30 5686 H 525.288 -2.82262 2.94605 0
M  V30 5687 H 523.963 -1.93529 3.68129 0
M  V30 5688 H 522.54 -3.01139 2.19931 0
M  V30 5689 N 524.725 -1.39134 -0.740242 0
M  V30 5690 C 525.635 -1.39697 -1.88473 0
M  V30 5691 C 526.651 -0.292403 -1.71526 0
M  V30 5692 O 527.827 -0.533021 -1.94219 0
M  V30 5693 C 524.892 -1.23382 -3.24003 0
M  V30 5694 C 523.953 -2.43763 -3.53381 0
M  V30 5695 C 523.186 -2.28216 -4.82445 0
M  V30 5696 O 523.409 -1.28288 -5.55786 0
M  V30 5697 O 522.343 -3.1709 -5.11603 0
M  V30 5698 H 526.169 -2.36159 -1.90952 0
M  V30 5699 H 523.754 -1.20194 -0.887346 0
M  V30 5700 H 525.636 -1.16395 -4.05006 0
M  V30 5701 H 524.311 -0.300121 -3.22306 0
M  V30 5702 H 523.218 -2.56325 -2.72485 0
M  V30 5703 H 524.551 -3.35808 -3.59852 0
M  V30 5704 N 526.204 0.969867 -1.24223 0
M  V30 5705 C 527.136 2.0669 -0.99055 0
M  V30 5706 C 528.149 1.62753 0.0392222 0
M  V30 5707 O 529.338 1.77403 -0.197561 0
M  V30 5708 C 526.438 3.35589 -0.472594 0
M  V30 5709 C 525.611 4.08444 -1.56499 0
M  V30 5710 C 524.67 5.15616 -1.05007 0
M  V30 5711 O 523.696 5.41911 -1.7413 0
M  V30 5712 N 524.898 5.80383 0.116641 0
M  V30 5713 H 527.663 2.28855 -1.93508 0
M  V30 5714 H 525.224 1.13733 -1.15223 0
M  V30 5715 H 527.216 4.04542 -0.112919 0
M  V30 5716 H 525.786 3.10311 0.377617 0
M  V30 5717 H 525.006 3.33798 -2.09696 0
M  V30 5718 H 526.294 4.53882 -2.29932 0
M  V30 5719 H 525.692 5.6142 0.694589 0
M  V30 5720 H 524.249 6.50462 0.417483 0
M  V30 5721 N 527.682 1.05563 1.17022 0
M  V30 5722 C 528.612 0.681026 2.23348 0
M  V30 5723 C 529.593 -0.322983 1.67005 0
M  V30 5724 O 530.778 -0.199746 1.9317 0
M  V30 5725 C 527.908 0.0589053 3.4725 0
M  V30 5726 C 526.862 0.988082 4.16438 0
M  V30 5727 C 526.188 0.229646 5.34207 0
M  V30 5728 C 527.488 2.31388 4.68249 0
M  V30 5729 H 529.182 1.56993 2.54938 0
M  V30 5730 H 526.728 0.756302 1.2254 0
M  V30 5731 H 528.681 -0.214982 4.20851 0
M  V30 5732 H 527.405 -0.864968 3.14938 0
M  V30 5733 H 526.064 1.24659 3.44754 0
M  V30 5734 H 525.712 -0.697111 4.98146 0
M  V30 5735 H 525.412 0.848815 5.81437 0
M  V30 5736 H 526.936 -0.0368694 6.10589 0
M  V30 5737 H 528.35 2.09964 5.33468 0
M  V30 5738 H 526.747 2.88736 5.26072 0
M  V30 5739 H 527.817 2.94982 3.84855 0
M  V30 5740 N 529.16 -1.33526 0.837174 0
M  V30 5741 C 530.07 -2.33023 0.271568 0
M  V30 5742 C 531.086 -1.63272 -0.601514 0
M  V30 5743 O 532.262 -1.94939 -0.506038 0
M  V30 5744 C 529.327 -3.42382 -0.545448 0
M  V30 5745 C 528.388 -4.27857 0.351709 0
M  V30 5746 C 527.621 -5.31994 -0.426409 0
M  V30 5747 O 527.844 -5.45763 -1.65828 0
M  V30 5748 O 526.778 -6.01572 0.1987 0
M  V30 5749 H 530.604 -2.83256 1.09545 0
M  V30 5750 H 528.189 -1.36837 0.599655 0
M  V30 5751 H 530.071 -4.09122 -1.00979 0
M  V30 5752 H 528.746 -2.94369 -1.34641 0
M  V30 5753 H 527.653 -3.6399 0.863853 0
M  V30 5754 H 528.986 -4.79349 1.1174 0
M  V30 5755 N 530.638 -0.59345 -1.46 0
M  V30 5756 C 531.585 0.133618 -2.30413 0
M  V30 5757 C 532.555 0.873736 -1.41262 0
M  V30 5758 O 533.74 0.862279 -1.70204 0
M  V30 5759 C 530.88 1.13434 -3.25924 0
M  V30 5760 C 529.993 0.39656 -4.30176 0
M  V30 5761 C 529.128 1.38575 -5.12806 0
M  V30 5762 C 528.167 0.634984 -6.08797 0
M  V30 5763 N 527.304 1.57276 -6.84258 0
M  V30 5764 H 532.144 -0.592252 -2.92055 0
M  V30 5765 H 529.681 -0.303874 -1.43927 0
M  V30 5766 H 531.639 1.72752 -3.79753 0
M  V30 5767 H 530.269 1.82779 -2.66067 0
M  V30 5768 H 529.321 -0.311861 -3.79119 0
M  V30 5769 H 530.633 -0.189869 -4.98438 0
M  V30 5770 H 529.787 2.05141 -5.70966 0
M  V30 5771 H 528.526 2.00611 -4.44529 0
M  V30 5772 H 527.531 -0.0443925 -5.49782 0
M  V30 5773 H 528.756 0.0198678 -6.79097 0
M  V30 5774 H 526.702 2.18103 -6.18682 0
M  V30 5775 H 526.619 1.03941 -7.48821 0
M  V30 5776 H 527.887 2.22844 -7.46968 0
M  V30 5777 N 532.116 1.54067 -0.331816 0
M  V30 5778 C 533.356 2.02625 0.26876 0
M  V30 5779 C 533.72 1.21462 1.48697 0
M  V30 5780 O 534.921 1.59863 2.16096 0
M  V30 5781 C 533.192 3.52554 0.586577 0
M  V30 5782 S 534.751 4.23035 1.16563 0
M  V30 5783 H 531.569 0.706395 0.0807862 0
M  V30 5784 H 534.171 1.89844 -0.466856 0
M  V30 5785 H 532.875 4.09242 -0.308046 0
M  V30 5786 H 532.406 3.69432 1.35217 0
M  V30 5787 H 534.421 4.31382 2.45203 0
M  V30 5788 N 533.594 0.0601682 1.57485 0
M  V30 5789 C 534.824 -0.620037 1.97076 0
M  V30 5790 C 535.232 -1.64381 0.936784 0
M  V30 5791 O 534.575 -1.83497 -0.0863377 0
M  V30 5792 C 534.637 -1.35617 3.32939 0
M  V30 5793 C 534.301 -0.487208 4.54396 0
M  V30 5794 C 535.298 0.250428 5.19297 0
M  V30 5795 C 532.983 -0.415494 5.00579 0
M  V30 5796 C 534.977 1.04812 6.28723 0
M  V30 5797 C 532.664 0.385879 6.0988 0
M  V30 5798 C 533.662 1.11637 6.73815 0
M  V30 5799 O 533.35 1.90454 7.81014 0
M  V30 5800 H 533.082 -0.173664 0.653312 0
M  V30 5801 H 535.636 0.1256 2.05016 0
M  V30 5802 H 533.866 -2.14763 3.2158 0
M  V30 5803 H 535.555 -1.92749 3.57215 0
M  V30 5804 H 536.321 0.204546 4.84568 0
M  V30 5805 H 532.2 -0.973679 4.506 0
M  V30 5806 H 535.744 1.6188 6.78558 0
M  V30 5807 H 531.641 0.433366 6.44044 0
M  V30 5808 H 532.409 1.82762 7.97835 0
M  V30 5809 N 535.072 -1.5615 -0.213296 0
M  V30 5810 C 536.297 -1.83986 -0.957282 0
M  V30 5811 C 536.722 -0.641526 -1.76822 0
M  V30 5812 O 536.08 0.409722 -1.7661 0
M  V30 5813 C 536.128 -3.09889 -1.84393 0
M  V30 5814 O 535.232 -2.89163 -2.94038 0
M  V30 5815 H 534.573 -0.606357 -0.270605 0
M  V30 5816 H 537.103 -2.03369 -0.224111 0
M  V30 5817 H 537.113 -3.40209 -2.25215 0
M  V30 5818 H 535.788 -3.96735 -1.24795 0
M  V30 5819 H 534.365 -2.70097 -2.57103 0
M  V30 5820 N 536.55 0.480323 -1.50102 0
M  V30 5821 C 537.966 0.813295 -1.37323 0
M  V30 5822 C 538.166 1.97027 -0.422206 0
M  V30 5823 O 537.222 2.5212 0.138563 0
M  V30 5824 C 538.535 1.13404 -2.78496 0
M  V30 5825 C 540.083 1.24104 -2.87345 0
M  V30 5826 C 540.558 1.59497 -4.29331 0
M  V30 5827 N 542.049 1.66507 -4.32238 0
M  V30 5828 C 542.784 1.95378 -5.39087 0
M  V30 5829 N 542.28 2.22333 -6.56155 0
M  V30 5830 N 544.073 1.96803 -5.26522 0
M  V30 5831 H 536.224 -0.282291 -2.10516 0
M  V30 5832 H 538.487 -0.063752 -0.945854 0
M  V30 5833 H 538.193 0.357064 -3.49883 0
M  V30 5834 H 538.067 2.07251 -3.15162 0
M  V30 5835 H 540.454 2.00871 -2.16183 0
M  V30 5836 H 540.535 0.282593 -2.54234 0
M  V30 5837 H 540.179 0.832736 -5.01027 0
M  V30 5838 H 540.109 2.56477 -4.59921 0
M  V30 5839 H 542.6 1.47753 -3.47818 0
M  V30 5840 H 542.913 2.43611 -7.33399 0
M  V30 5841 H 541.258 2.19745 -6.59346 0
M  V30 5842 H 544.449 1.75235 -4.34062 0
M  V30 5843 H 544.622 2.18969 -6.09883 0
M  V30 5844 N 538.028 1.39524 0.732853 0
M  V30 5845 C 539.305 1.27373 1.48444 0
M  V30 5846 C 539.685 -0.115725 2.10783 0
M  V30 5847 O 539.033 -1.12713 1.98766 0
M  V30 5848 C 539.243 2.39966 2.53412 0
M  V30 5849 C 540.591 2.79384 3.19733 0
M  V30 5850 O 541.615 2.39431 2.63725 0
M  V30 5851 O 540.474 3.48353 4.21085 0
M  V30 5852 H 537.568 0.499272 0.659285 0
M  V30 5853 H 540.114 1.51403 0.766496 0
M  V30 5854 H 538.886 3.32845 2.05742 0
M  V30 5855 H 538.509 2.17612 3.32762 0
M  V30 5856 N 539.506 -0.963266 1.24736 0
M  V30 5857 C 540.438 -2.06162 1.0015 0
M  V30 5858 C 541.451 -1.62771 -0.0305905 0
M  V30 5859 O 542.64 -1.77296 0.206966 0
M  V30 5860 C 539.74 -3.35333 0.490385 0
M  V30 5861 C 538.913 -4.07609 1.58663 0
M  V30 5862 C 537.972 -5.15052 1.0774 0
M  V30 5863 O 536.998 -5.4098 1.77002 0
M  V30 5864 N 538.2 -5.80436 -0.0858605 0
M  V30 5865 H 540.965 -2.27825 1.94719 0
M  V30 5866 H 538.526 -1.13121 1.15825 0
M  V30 5867 H 540.518 -4.04477 0.134371 0
M  V30 5868 H 539.088 -3.10507 -0.361155 0
M  V30 5869 H 538.308 -3.32681 2.11463 0
M  V30 5870 H 539.596 -4.52656 2.32336 0
M  V30 5871 H 538.994 -5.6178 -0.664806 0
M  V30 5872 H 537.551 -6.50674 -0.382981 0
M  V30 5873 N 540.985 -1.06182 -1.16461 0
M  V30 5874 C 542.234 -0.772927 -1.86303 0
M  V30 5875 C 542.547 0.703187 -1.82523 0
M  V30 5876 O 543.753 1.10641 -2.47933 0
M  V30 5877 C 542.209 -1.33249 -3.34324 0
M  V30 5878 C 541.817 -2.83876 -3.46581 0
M  V30 5879 C 543.561 -1.12108 -4.09429 0
M  V30 5880 C 541.468 -3.33082 -4.88682 0
M  V30 5881 H 540.398 -0.285452 -0.697878 0
M  V30 5882 H 543.049 -1.28039 -1.31447 0
M  V30 5883 H 541.431 -0.7528 -3.88779 0
M  V30 5884 H 542.605 -3.47786 -3.02293 0
M  V30 5885 H 540.92 -3.03671 -2.84909 0
M  V30 5886 H 543.517 -1.46361 -5.14279 0
M  V30 5887 H 543.86 -0.0593832 -4.16258 0
M  V30 5888 H 544.393 -1.6665 -3.6121 0
M  V30 5889 H 541.132 -4.38726 -4.87032 0
M  V30 5890 H 540.652 -2.73919 -5.33599 0
M  V30 5891 H 542.331 -3.28344 -5.57494 0
M  V30 5892 N 542.463 1.3308 -0.844243 0
M  V30 5893 C 543.693 2.01515 -0.455541 0
M  V30 5894 C 544.101 1.63655 0.949406 0
M  V30 5895 O 543.444 0.84848 1.62931 0
M  V30 5896 C 543.506 3.55967 -0.502801 0
M  V30 5897 C 543.17 4.17222 -1.86481 0
M  V30 5898 C 544.167 4.36205 -2.8288 0
M  V30 5899 C 541.852 4.53528 -2.15911 0
M  V30 5900 C 543.846 4.90649 -4.06869 0
M  V30 5901 C 541.533 5.07679 -3.40155 0
M  V30 5902 C 542.531 5.26186 -4.35451 0
M  V30 5903 O 542.219 5.79183 -5.57496 0
M  V30 5904 H 541.951 0.65199 -0.178565 0
M  V30 5905 H 544.505 1.70867 -1.1399 0
M  V30 5906 H 542.735 3.85965 0.23836 0
M  V30 5907 H 544.424 4.05688 -0.131169 0
M  V30 5908 H 545.19 4.085 -2.61444 0
M  V30 5909 H 541.069 4.38414 -1.42528 0
M  V30 5910 H 544.613 5.0501 -4.81259 0
M  V30 5911 H 540.51 5.34815 -3.61446 0
M  V30 5912 H 541.278 5.97591 -5.5931 0
M  V30 5913 N 543.941 0.601185 1.45683 0
M  V30 5914 C 545.187 0.0940202 2.02582 0
M  V30 5915 C 545.52 -1.26972 1.46941 0
M  V30 5916 O 544.795 -1.83613 0.641612 0
M  V30 5917 C 545.078 0.0481715 3.60068 0
M  V30 5918 C 544.931 1.44212 4.26055 0
M  V30 5919 C 546.25 -0.642975 4.35378 0
M  V30 5920 H 543.369 0.0356404 0.736138 0
M  V30 5921 H 546.011 0.771929 1.73612 0
M  V30 5922 H 544.161 -0.529128 3.8488 0
M  V30 5923 H 545.833 2.06601 4.12449 0
M  V30 5924 H 544.076 2.00465 3.84703 0
M  V30 5925 H 544.747 1.36234 5.34925 0
M  V30 5926 H 547.223 -0.152351 4.15821 0
M  V30 5927 H 546.099 -0.644141 5.45107 0
M  V30 5928 H 546.36 -1.70785 4.0778 0
M  V30 5929 N 545.419 -1.53889 0.339982 0
M  V30 5930 C 546.649 -2.04973 -0.258738 0
M  V30 5931 C 547.057 -1.21485 -1.45045 0
M  V30 5932 O 546.4 -0.2422 -1.82096 0
M  V30 5933 C 546.462 -3.51783 -0.740853 0
M  V30 5934 C 546.126 -4.55802 0.330734 0
M  V30 5935 C 547.123 -5.06512 1.17226 0
M  V30 5936 C 544.808 -4.99966 0.483637 0
M  V30 5937 C 546.802 -5.99963 2.15227 0
M  V30 5938 C 544.489 -5.93229 1.46704 0
M  V30 5939 C 545.487 -6.43115 2.29981 0
M  V30 5940 O 545.175 -7.34545 3.26649 0
M  V30 5941 H 544.907 -0.673807 -0.0544037 0
M  V30 5942 H 547.461 -1.99492 0.489107 0
M  V30 5943 H 545.691 -3.54717 -1.53988 0
M  V30 5944 H 547.38 -3.85857 -1.25973 0
M  V30 5945 H 548.146 -4.73158 1.0652 0
M  V30 5946 H 544.025 -4.6074 -0.15471 0
M  V30 5947 H 547.569 -6.38825 2.80265 0
M  V30 5948 H 543.466 -6.25998 1.57468 0
M  V30 5949 H 544.234 -7.52468 3.22078 0
M  V30 5950 N 546.897 -0.0685191 -1.57451 0
M  V30 5951 C 548.143 0.602239 -1.93652 0
M  V30 5952 C 548.476 1.6946 -0.948526 0
M  V30 5953 O 547.751 1.94487 0.022782 0
M  V30 5954 C 548.034 1.18223 -3.4014 0
M  V30 5955 C 547.887 0.0967431 -4.49696 0
M  V30 5956 C 549.206 2.08872 -3.87377 0
M  V30 5957 H 546.325 0.217453 -0.70419 0
M  V30 5958 H 548.967 -0.133821 -1.89528 0
M  V30 5959 H 547.117 1.80953 -3.43785 0
M  V30 5960 H 548.789 -0.536155 -4.58174 0
M  V30 5961 H 547.032 -0.573063 -4.29998 0
M  V30 5962 H 547.703 0.542894 -5.49324 0
M  V30 5963 H 550.179 1.56081 -3.85717 0
M  V30 5964 H 549.055 2.46389 -4.90493 0
M  V30 5965 H 549.316 2.99572 -3.25129 0
M  V30 5966 N 548.375 1.56261 0.205012 0
M  V30 5967 C 549.623 1.79684 0.925096 0
M  V30 5968 C 549.944 0.63989 1.84202 0
M  V30 5969 O 549.214 -0.342345 1.92885 0
M  V30 5970 H 547.794 0.662774 0.344587 0
M  V30 5971 H 550.456 1.93734 0.212899 0
M  V30 5972 H 549.552 2.72467 1.52211 0
M  V30 5973 N 549.853 -0.472356 1.50355 0
M  V30 5974 C 551.13 -1.23356 1.51798 0
M  V30 5975 C 551.51 -2.09469 0.26193 0
M  V30 5976 O 550.858 -2.15677 -0.754691 0
M  V30 5977 C 551.068 -2.06568 2.81302 0
M  V30 5978 C 552.416 -2.648 3.31913 0
M  V30 5979 O 553.44 -2.16812 2.82614 0
M  V30 5980 O 552.299 -3.52231 4.17846 0
M  V30 5981 H 549.393 -0.559707 0.608816 0
M  V30 5982 H 551.939 -0.48428 1.62643 0
M  V30 5983 H 550.711 -1.43103 3.64194 0
M  V30 5984 H 550.334 -2.88633 2.73454 0
M  V30 5985 N 551.331 -1.39911 -0.725443 0
M  V30 5986 C 552.58 -1.36963 -1.48068 0
M  V30 5987 C 552.893 0.0284478 -1.95579 0
M  V30 5988 O 554.099 0.180535 -2.70899 0
M  V30 5989 C 552.555 -2.40664 -2.67598 0
M  V30 5990 C 552.163 -3.86234 -2.26997 0
M  V30 5991 C 553.907 -2.46807 -3.45379 0
M  V30 5992 C 551.814 -4.81554 -3.43307 0
M  V30 5993 H 550.744 -0.509223 -0.556065 0
M  V30 5994 H 553.395 -1.65602 -0.790454 0
M  V30 5995 H 551.777 -2.05109 -3.38742 0
M  V30 5996 H 552.951 -4.3088 -1.63337 0
M  V30 5997 H 551.266 -3.83475 -1.62284 0
M  V30 5998 H 553.863 -3.15213 -4.31909 0
M  V30 5999 H 554.206 -1.49552 -3.8851 0
M  V30 6000 H 554.739 -2.81303 -2.81271 0
M  V30 6001 H 551.478 -5.80106 -3.05217 0
M  V30 6002 H 550.998 -4.4158 -4.05915 0
M  V30 6003 H 552.677 -5.0091 -4.0951 0
M  V30 6004 N 552.809 0.956637 -1.25245 0
M  V30 6005 C 553.739 2.07058 -1.07931 0
M  V30 6006 C 554.72 1.70096 0.0110361 0
M  V30 6007 O 555.905 1.93555 -0.158121 0
M  V30 6008 C 553.035 3.40272 -0.695124 0
M  V30 6009 C 551.989 3.91235 -1.73549 0
M  V30 6010 C 551.315 5.20921 -1.20604 0
M  V30 6011 C 552.615 4.17837 -3.13385 0
M  V30 6012 H 554.309 2.218 -2.01109 0
M  V30 6013 H 551.855 1.06581 -0.968326 0
M  V30 6014 H 553.808 4.1765 -0.560949 0
M  V30 6015 H 552.532 3.25462 0.272355 0
M  V30 6016 H 551.191 3.16025 -1.85807 0
M  V30 6017 H 550.839 5.02479 -0.228846 0
M  V30 6018 H 550.539 5.55987 -1.90136 0
M  V30 6019 H 552.063 6.00897 -1.08421 0
M  V30 6020 H 553.477 4.8588 -3.04292 0
M  V30 6021 H 551.874 4.64154 -3.80369 0
M  V30 6022 H 552.944 3.2419 -3.60595 0
M  V30 6023 N 554.287 1.06798 1.15896 0
M  V30 6024 C 555.536 0.782796 1.8589 0
M  V30 6025 C 555.849 -0.693498 1.82893 0
M  V30 6026 O 557.055 -1.09325 2.48516 0
M  V30 6027 C 555.511 1.3502 3.33613 0
M  V30 6028 C 555.119 2.8571 3.45071 0
M  V30 6029 C 556.863 1.14278 4.08829 0
M  V30 6030 C 554.77 3.35669 4.86909 0
M  V30 6031 H 553.7 0.289149 0.696354 0
M  V30 6032 H 556.351 1.28734 1.30766 0
M  V30 6033 H 554.733 0.773407 3.88374 0
M  V30 6034 H 555.907 3.49385 3.00445 0
M  V30 6035 H 554.222 3.05178 2.83294 0
M  V30 6036 H 556.819 1.49087 5.13495 0
M  V30 6037 H 557.162 0.0814575 4.1622 0
M  V30 6038 H 557.695 1.68563 3.60321 0
M  V30 6039 H 554.434 4.41302 4.84698 0
M  V30 6040 H 553.954 2.76745 5.32139 0
M  V30 6041 H 555.633 3.31296 5.55745 0
M  V30 6042 N 555.766 -1.3263 0.851289 0
M  V30 6043 C 556.729 -2.27247 0.298541 0
M  V30 6044 C 557.729 -1.51467 -0.539847 0
M  V30 6045 O 558.919 -1.7061 -0.351843 0
M  V30 6046 C 556.051 -3.35964 -0.578004 0
M  V30 6047 H 557.244 -2.7765 1.13359 0
M  V30 6048 H 554.797 -1.43245 0.625354 0
M  V30 6049 H 555.532 -2.90823 -1.435 0
M  V30 6050 H 555.317 -3.92094 0.0220539 0
M  V30 6051 H 556.807 -4.06472 -0.957626 0
M  V30 6052 N 557.244 -0.608902 -1.45362 0
M  V30 6053 C 558.174 0.0964526 -2.33301 0
M  V30 6054 C 559.155 0.857444 -1.46908 0
M  V30 6055 O 560.34 0.827735 -1.75676 0
M  V30 6056 C 557.47 1.09354 -3.29635 0
M  V30 6057 C 556.424 0.445676 -4.25673 0
M  V30 6058 C 555.75 1.5511 -5.11708 0
M  V30 6059 C 557.05 -0.633972 -5.18438 0
M  V30 6060 H 558.744 -0.637829 -2.92527 0
M  V30 6061 H 556.29 -0.308178 -1.40664 0
M  V30 6062 H 558.243 1.59556 -3.90025 0
M  V30 6063 H 556.967 1.85843 -2.6857 0
M  V30 6064 H 555.626 -0.0354897 -3.66583 0
M  V30 6065 H 555.274 2.30631 -4.4701 0
M  V30 6066 H 554.974 1.12311 -5.76767 0
M  V30 6067 H 556.498 2.05537 -5.74967 0
M  V30 6068 H 557.912 -0.215974 -5.72893 0
M  V30 6069 H 556.309 -0.983789 -5.91981 0
M  V30 6070 H 557.379 -1.51005 -4.60788 0
M  V30 6071 N 558.722 1.53707 -0.348139 0
M  V30 6072 C 559.67 2.26671 0.521808 0
M  V30 6073 C 560.664 1.28988 1.09811 0
M  V30 6074 O 561.87 1.4668 1.04332 0
M  V30 6075 H 558.245 0.728387 0.186968 0
M  V30 6076 H 560.216 2.98176 -0.115563 0
M  V30 6077 C 558.965 3.05591 1.6586 0
M  V30 6078 H 558.288 3.80589 1.22443 0
M  V30 6079 H 559.728 3.59851 2.24239 0
M  V30 6080 C 558.187 2.15366 2.59073 0
M  V30 6081 O 558.717 1.7528 3.61441 0
M  V30 6082 N 556.923 1.80352 2.27863 0
M  V30 6083 H 556.47 2.13149 1.44656 0
M  V30 6084 H 556.428 1.20268 2.90488 0
M  V30 6085 N 560.2 0.0768682 1.57412 0
M  V30 6086 C 561.611 -0.455037 1.8107 0
M  V30 6087 C 561.962 -1.69323 0.991162 0
M  V30 6088 O 561.087 -2.15328 0.215156 0
M  V30 6089 C 561.682 -0.832316 3.28417 0
M  V30 6090 C 560.241 -1.30906 3.52903 0
M  V30 6091 C 559.388 -0.296714 2.75708 0
M  V30 6092 H 562.339 0.302514 1.5579 0
M  V30 6093 H 562.36 -1.69333 3.40744 0
M  V30 6094 H 561.872 0.0690532 3.88039 0
M  V30 6095 H 559.973 -2.22875 2.98592 0
M  V30 6096 H 560.086 -1.28348 4.61588 0
M  V30 6097 H 558.45 -0.775059 2.42621 0
M  V30 6098 H 559.233 0.597015 3.38069 0
M  V30 6099 N 561.678 -1.56367 -0.196722 0
M  V30 6100 C 562.925 -1.80529 -0.917366 0
M  V30 6101 C 563.253 -0.649817 -1.83324 0
M  V30 6102 O 562.508 0.36451 -1.92275 0
M  V30 6103 C 562.807 -3.10663 -1.767 0
M  V30 6104 C 562.473 -4.3962 -1.00225 0
M  V30 6105 C 561.135 -4.74653 -0.791095 0
M  V30 6106 C 563.487 -5.1913 -0.464035 0
M  V30 6107 C 560.815 -5.86692 -0.0302155 0
M  V30 6108 C 563.167 -6.31964 0.283625 0
M  V30 6109 C 561.831 -6.65581 0.505813 0
M  V30 6110 H 561.101 -0.660602 -0.335688 0
M  V30 6111 H 563.748 -1.90615 -0.183844 0
M  V30 6112 H 562.053 -2.95807 -2.56915 0
M  V30 6113 H 563.75 -3.26563 -2.32718 0
M  V30 6114 H 560.34 -4.12127 -1.17684 0
M  V30 6115 H 564.524 -4.9248 -0.614575 0
M  V30 6116 H 559.78 -6.11211 0.151917 0
M  V30 6117 H 563.954 -6.92791 0.708057 0
M  V30 6118 H 561.581 -7.52239 1.0973 0
M  V30 6119 N 563.156 0.464375 -1.50603 0
M  V30 6120 C 564.088 1.57916 -1.66118 0
M  V30 6121 C 565.101 1.53497 -0.54246 0
M  V30 6122 O 566.29 1.58763 -0.815877 0
M  V30 6123 C 563.39 2.96809 -1.63577 0
M  V30 6124 C 562.563 3.26026 -2.91592 0
M  V30 6125 C 561.622 4.44506 -2.81604 0
M  V30 6126 O 560.648 4.44484 -3.55559 0
M  V30 6127 N 561.85 5.46549 -1.95614 0
M  V30 6128 H 564.615 1.45022 -2.62276 0
M  V30 6129 H 562.176 0.652903 -1.48151 0
M  V30 6130 H 564.168 3.74048 -1.54499 0
M  V30 6131 H 562.738 3.03438 -0.751262 0
M  V30 6132 H 561.958 2.37337 -3.14746 0
M  V30 6133 H 563.246 3.42361 -3.76386 0
M  V30 6134 H 562.644 5.49391 -1.34854 0
M  V30 6135 H 561.201 6.22746 -1.92435 0
M  V30 6136 N 564.634 1.40294 0.718013 0
M  V30 6137 C 565.859 1.41941 1.5122 0
M  V30 6138 C 566.284 0.0202371 1.88089 0
M  V30 6139 O 565.642 -0.971078 1.53101 0
M  V30 6140 C 565.69 2.3141 2.76554 0
M  V30 6141 O 564.794 1.75567 3.73162 0
M  V30 6142 H 564.135 0.482644 0.456016 0
M  V30 6143 H 566.665 1.84494 0.884478 0
M  V30 6144 H 566.675 2.46513 3.25108 0
M  V30 6145 H 565.35 3.33085 2.49053 0
M  V30 6146 H 563.927 1.69798 3.31999 0
M  V30 6147 N 566.112 -0.949982 1.2575 0
M  V30 6148 C 567.042 -2.06483 1.09028 0
M  V30 6149 C 568.023 -1.701 -0.00201532 0
M  V30 6150 O 569.208 -1.93469 0.168383 0
M  V30 6151 C 566.338 -3.39899 0.71316 0
M  V30 6152 C 565.292 -3.90309 1.75621 0
M  V30 6153 C 564.618 -5.20274 1.23365 0
M  V30 6154 C 565.918 -4.16169 3.15596 0
M  V30 6155 H 567.612 -2.20731 2.02283 0
M  V30 6156 H 565.158 -1.06066 0.973964 0
M  V30 6157 H 567.111 -4.17346 0.58309 0
M  V30 6158 H 565.835 -3.25602 -0.255091 0
M  V30 6159 H 564.494 -3.15035 1.8748 0
M  V30 6160 H 564.142 -5.02351 0.255491 0
M  V30 6161 H 563.842 -5.54971 1.93082 0
M  V30 6162 H 565.366 -6.00314 1.11607 0
M  V30 6163 H 566.78 -4.84259 3.06864 0
M  V30 6164 H 565.177 -4.62131 3.82825 0
M  V30 6165 H 566.247 -3.22273 3.6231 0
M  V30 6166 N 567.59 -1.07411 -1.15328 0
M  V30 6167 C 568.838 -0.796073 -1.85761 0
M  V30 6168 C 569.159 0.679864 -1.82764 0
M  V30 6169 O 568.429 1.49242 -1.269 0
M  V30 6170 H 567.009 -0.291495 -0.687779 0
M  V30 6171 H 569.671 -1.35799 -1.39802 0
M  V30 6172 H 568.767 -1.13114 -2.90881 0
M  V30 6173 N 569.068 1.32177 -0.85831 0
M  V30 6174 C 569.998 2.31282 -0.321041 0
M  V30 6175 C 570.979 1.59841 0.581786 0
M  V30 6176 O 572.164 1.87619 0.501262 0
M  V30 6177 C 569.294 3.4385 0.48832 0
M  V30 6178 C 568.248 4.26799 -0.320391 0
M  V30 6179 C 567.574 5.31164 0.613934 0
M  V30 6180 C 568.874 4.98829 -1.54813 0
M  V30 6181 H 570.568 2.76469 -1.14915 0
M  V30 6182 H 568.114 1.32916 -0.554028 0
M  V30 6183 H 570.067 4.12224 0.874626 0
M  V30 6184 H 568.791 2.97401 1.34983 0
M  V30 6185 H 567.45 3.60077 -0.688497 0
M  V30 6186 H 567.098 4.80967 1.47239 0
M  V30 6187 H 566.798 5.8755 0.0768097 0
M  V30 6188 H 568.322 6.024 0.997336 0
M  V30 6189 H 569.736 5.59864 -1.23392 0
M  V30 6190 H 568.133 5.64957 -2.02346 0
M  V30 6191 H 569.203 4.26483 -2.30739 0
M  V30 6192 N 570.547 0.616602 1.45037 0
M  V30 6193 C 571.777 0.121791 2.06241 0
M  V30 6194 C 572.185 -1.20289 1.46038 0
M  V30 6195 O 571.528 -1.7456 0.572242 0
M  V30 6196 C 571.59 -0.0827345 3.59405 0
M  V30 6197 C 571.254 1.16153 4.41993 0
M  V30 6198 C 572.251 2.08183 4.76399 0
M  V30 6199 C 569.936 1.39288 4.82601 0
M  V30 6200 C 571.93 3.21668 5.5028 0
M  V30 6201 C 569.617 2.53073 5.56235 0
M  V30 6202 C 570.615 3.44091 5.89992 0
M  V30 6203 O 570.303 4.55894 6.6213 0
M  V30 6204 H 570.035 0.0701667 0.672349 0
M  V30 6205 H 572.589 0.846877 1.87129 0
M  V30 6206 H 570.819 -0.862812 3.76952 0
M  V30 6207 H 572.508 -0.530273 4.02421 0
M  V30 6208 H 573.274 1.91538 4.45576 0
M  V30 6209 H 569.153 0.693396 4.55755 0
M  V30 6210 H 572.697 3.92733 5.76547 0
M  V30 6211 H 568.594 2.69667 5.86472 0
M  V30 6212 H 569.362 4.5469 6.80587 0
M  V30 6213 N 572.025 -1.5352 0.356285 0
M  V30 6214 C 573.25 -2.06007 -0.239961 0
M  V30 6215 C 573.675 -1.22872 -1.42422 0
M  V30 6216 O 573.033 -0.245516 -1.7963 0
M  V30 6217 C 573.081 -3.5522 -0.620587 0
M  V30 6218 O 572.185 -3.74864 -1.71902 0
M  V30 6219 H 571.526 -0.662961 -0.0371377 0
M  V30 6220 H 574.056 -1.98033 0.514194 0
M  V30 6221 H 574.066 -3.98081 -0.894197 0
M  V30 6222 H 572.741 -4.15175 0.245407 0
M  V30 6223 H 571.318 -3.43904 -1.44169 0
M  V30 6224 N 573.503 -0.0852151 -1.57369 0
M  V30 6225 C 574.731 0.58946 -1.98325 0
M  V30 6226 C 575.146 1.62333 -0.96403 0
M  V30 6227 O 574.503 1.82438 0.0476395 0
M  V30 6228 C 574.554 1.24604 -3.39347 0
M  V30 6229 O 574.275 0.253532 -4.37366 0
M  V30 6230 C 575.776 2.00726 -3.95252 0
M  V30 6231 H 572.996 0.158783 -0.651942 0
M  V30 6232 H 575.54 -0.161584 -2.03861 0
M  V30 6233 H 573.695 1.94808 -3.34856 0
M  V30 6234 H 574.109 0.726207 -5.19448 0
M  V30 6235 H 575.583 2.42039 -4.96106 0
M  V30 6236 H 576.06 2.86919 -3.32527 0
M  V30 6237 H 576.666 1.3536 -4.03185 0
M  V30 6238 N 574.981 1.5647 0.188427 0
M  V30 6239 C 575.928 1.95073 1.23349 0
M  V30 6240 C 576.898 0.812238 1.44886 0
M  V30 6241 O 578.083 1.07095 1.57909 0
M  V30 6242 C 575.223 2.30124 2.57171 0
M  V30 6243 C 574.336 3.57069 2.43157 0
M  V30 6244 C 573.471 3.81411 3.69729 0
M  V30 6245 C 572.51 5.0176 3.50575 0
M  V30 6246 N 571.647 5.22321 4.69175 0
M  V30 6247 H 576.487 2.84171 0.89728 0
M  V30 6248 H 574.024 1.40623 0.431683 0
M  V30 6249 H 575.982 2.48463 3.35145 0
M  V30 6250 H 574.612 1.44159 2.88822 0
M  V30 6251 H 573.664 3.4674 1.56447 0
M  V30 6252 H 574.976 4.452 2.24942 0
M  V30 6253 H 574.13 4.00026 4.56141 0
M  V30 6254 H 572.869 2.91624 3.90905 0
M  V30 6255 H 571.874 4.83061 2.62549 0
M  V30 6256 H 573.099 5.93063 3.30837 0
M  V30 6257 H 571.045 4.35483 4.90602 0
M  V30 6258 H 570.962 6.04643 4.53809 0
M  V30 6259 H 572.23 5.45401 5.56919 0
M  V30 6260 N 576.459 -0.456382 1.50847 0
M  V30 6261 C 577.409 -1.55045 1.67168 0
M  V30 6262 C 578.393 -1.52061 0.525958 0
M  V30 6263 O 579.585 -1.58836 0.781036 0
M  V30 6264 C 576.714 -2.93386 1.78268 0
M  V30 6265 C 575.8 -3.01198 2.98564 0
M  V30 6266 N 576.191 -2.78792 4.22029 0
M  V30 6267 C 574.489 -3.32346 2.97426 0
M  V30 6268 C 575.19 -2.91953 5.03128 0
M  V30 6269 N 574.166 -3.22797 4.37382 0
M  V30 6270 H 577.968 -1.36444 2.60308 0
M  V30 6271 H 575.482 -0.663375 1.48233 0
M  V30 6272 H 577.479 -3.72071 1.88067 0
M  V30 6273 H 576.139 -3.13022 0.862965 0
M  V30 6274 H 577.15 -2.54087 4.51287 0
M  V30 6275 H 573.827 -3.57877 2.15012 0
M  V30 6276 H 575.217 -2.78745 6.11351 0
M  V30 6277 N 577.937 -1.40673 -0.710563 0
M  V30 6278 C 579.162 -1.42741 -1.50465 0
M  V30 6279 C 579.587 -0.0302116 -1.88076 0
M  V30 6280 O 578.945 0.962945 -1.53613 0
M  V30 6281 C 578.993 -2.32873 -2.75322 0
M  V30 6282 O 578.097 -1.77544 -3.72226 0
M  V30 6283 H 577.438 -0.485056 -0.45345 0
M  V30 6284 H 579.968 -1.84961 -0.874681 0
M  V30 6285 H 579.978 -2.48233 -3.23797 0
M  V30 6286 H 578.653 -3.34401 -2.47283 0
M  V30 6287 H 577.23 -1.71556 -3.31093 0
M  V30 6288 N 579.415 0.9433 -1.26252 0
M  V30 6289 C 580.362 2.0417 -1.07625 0
M  V30 6290 C 581.332 1.6609 0.0180738 0
M  V30 6291 O 582.517 1.90276 -0.141289 0
M  V30 6292 C 579.657 3.37653 -0.713043 0
M  V30 6293 C 578.77 3.88783 -1.8834 0
M  V30 6294 C 577.905 5.10642 -1.4635 0
M  V30 6295 C 576.944 5.54028 -2.60229 0
M  V30 6296 N 576.081 6.67092 -2.18936 0
M  V30 6297 H 580.921 2.19436 -2.01623 0
M  V30 6298 H 578.458 1.07519 -1.00389 0
M  V30 6299 H 580.416 4.14391 -0.483358 0
M  V30 6300 H 579.046 3.22241 0.18996 0
M  V30 6301 H 578.098 3.08464 -2.22608 0
M  V30 6302 H 579.41 4.16922 -2.73821 0
M  V30 6303 H 578.564 5.94832 -1.19414 0
M  V30 6304 H 577.303 4.84244 -0.579568 0
M  V30 6305 H 576.308 4.68396 -2.87898 0
M  V30 6306 H 577.533 5.82429 -3.49219 0
M  V30 6307 H 575.479 6.42381 -1.32974 0
M  V30 6308 H 575.396 6.94806 -2.97961 0
M  V30 6309 H 576.664 7.54662 -1.95206 0
M  V30 6310 N 580.893 1.08022 1.14757 0
M  V30 6311 C 581.823 0.728248 2.21853 0
M  V30 6312 C 582.804 -0.287486 1.67653 0
M  V30 6313 O 583.989 -0.158727 1.9355 0
M  V30 6314 C 581.119 0.132549 3.47047 0
M  V30 6315 C 580.073 1.07619 4.14249 0
M  V30 6316 C 579.399 0.342907 5.33599 0
M  V30 6317 C 580.699 2.41268 4.63235 0
M  V30 6318 H 582.393 1.62365 2.51551 0
M  V30 6319 H 579.939 0.782125 1.20908 0
M  V30 6320 H 581.892 -0.125665 4.21213 0
M  V30 6321 H 580.616 -0.797971 3.16702 0
M  V30 6322 H 579.275 1.31944 3.42033 0
M  V30 6323 H 578.923 -0.59129 4.99513 0
M  V30 6324 H 578.623 0.971955 5.79506 0
M  V30 6325 H 580.147 0.0926538 6.1053 0
M  V30 6326 H 581.561 2.21232 5.28894 0
M  V30 6327 H 579.958 2.9983 5.19829 0
M  V30 6328 H 581.028 3.03079 3.78512 0
M  V30 6329 N 582.371 -1.3172 0.865308 0
M  V30 6330 C 583.601 -2.00765 0.487543 0
M  V30 6331 C 584.009 -1.65145 -0.92325 0
M  V30 6332 O 583.352 -0.874294 -1.61561 0
M  V30 6333 C 583.414 -3.55122 0.559369 0
M  V30 6334 C 583.078 -4.14202 1.93095 0
M  V30 6335 C 584.075 -4.3165 2.89784 0
M  V30 6336 C 581.76 -4.50036 2.23099 0
M  V30 6337 C 583.754 -4.84114 4.14623 0
M  V30 6338 C 581.441 -5.02203 3.48189 0
M  V30 6339 C 582.439 -5.19192 4.43767 0
M  V30 6340 O 582.127 -5.70241 5.6664 0
M  V30 6341 H 581.859 -0.649066 0.188915 0
M  V30 6342 H 584.413 -1.69032 1.16694 0
M  V30 6343 H 582.643 -3.86295 -0.176926 0
M  V30 6344 H 584.332 -4.05428 0.195694 0
M  V30 6345 H 585.098 -4.04288 2.6791 0
M  V30 6346 H 580.977 -4.36091 1.49485 0
M  V30 6347 H 584.521 -4.9729 4.89233 0
M  V30 6348 H 580.418 -5.28997 3.69908 0
M  V30 6349 H 581.186 -5.88617 5.68746 0
M  V30 6350 N 583.85 -0.624285 -1.44708 0
M  V30 6351 C 585.099 -0.123539 -2.01321 0
M  V30 6352 C 585.412 1.25966 -1.49639 0
M  V30 6353 O 586.618 1.85405 -1.98336 0
M  V30 6354 C 585.074 -0.170124 -3.59498 0
M  V30 6355 C 584.682 -1.55421 -4.20176 0
M  V30 6356 C 586.426 0.274513 -4.23611 0
M  V30 6357 C 584.332 -1.55628 -5.70556 0
M  V30 6358 H 583.263 -0.0424183 -0.752806 0
M  V30 6359 H 585.913 -0.782076 -1.65999 0
M  V30 6360 H 584.296 0.555385 -3.92086 0
M  V30 6361 H 585.47 -2.30276 -3.99136 0
M  V30 6362 H 583.784 -1.94235 -3.68323 0
M  V30 6363 H 586.382 0.292402 -5.339 0
M  V30 6364 H 586.725 1.3005 -3.95465 0
M  V30 6365 H 587.258 -0.398275 -3.95801 0
M  V30 6366 H 583.997 -2.56041 -6.03426 0
M  V30 6367 H 583.517 -0.850563 -5.93739 0
M  V30 6368 H 585.196 -1.28721 -6.34066 0
M  V30 6369 N 585.328 1.53329 -0.364422 0
M  V30 6370 C 586.576 2.00842 0.225189 0
M  V30 6371 C 586.897 1.25345 1.49378 0
M  V30 6372 O 586.167 0.366396 1.92443 0
M  V30 6373 H 584.747 0.742009 0.0862027 0
M  V30 6374 H 587.409 1.8863 -0.490389 0
M  V30 6375 H 586.505 3.08795 0.452987 0
M  V30 6376 N 586.806 0.0935595 1.57322 0
M  V30 6377 C 588.031 -0.582324 1.99057 0
M  V30 6378 C 588.456 -1.61025 0.972242 0
M  V30 6379 O 587.814 -1.81202 -0.0594622 0
M  V30 6380 C 587.862 -1.20799 3.39765 0
M  V30 6381 O 586.966 -2.32382 3.40694 0
M  V30 6382 H 586.307 -0.147884 0.647323 0
M  V30 6383 H 588.837 0.174516 2.03854 0
M  V30 6384 H 588.847 -1.54966 3.77425 0
M  V30 6385 H 587.522 -0.454914 4.13405 0
M  V30 6386 H 586.099 -1.99845 3.14827 0
M  V30 6387 N 588.284 -1.56567 -0.180126 0
M  V30 6388 C 589.231 -1.95725 -1.22313 0
M  V30 6389 C 590.201 -0.819911 -1.44453 0
M  V30 6390 O 591.386 -1.07931 -1.57339 0
M  V30 6391 C 588.526 -2.31484 -2.55947 0
M  V30 6392 C 587.639 -3.58354 -2.4126 0
M  V30 6393 C 586.774 -3.83366 -3.67701 0
M  V30 6394 C 585.813 -5.03612 -3.47909 0
M  V30 6395 N 584.95 -5.24802 -4.66398 0
M  V30 6396 H 589.79 -2.84642 -0.882198 0
M  V30 6397 H 587.327 -1.4085 -0.42422 0
M  V30 6398 H 589.285 -2.50237 -3.33822 0
M  V30 6399 H 587.915 -1.45689 -2.88053 0
M  V30 6400 H 586.967 -3.47565 -1.54606 0
M  V30 6401 H 588.279 -4.46386 -2.22577 0
M  V30 6402 H 587.433 -4.02439 -4.54013 0
M  V30 6403 H 586.172 -2.93692 -3.89353 0
M  V30 6404 H 585.177 -4.84447 -2.59983 0
M  V30 6405 H 586.402 -5.94809 -3.27688 0
M  V30 6406 H 584.348 -4.38079 -4.88286 0
M  V30 6407 H 584.265 -6.07041 -4.50596 0
M  V30 6408 H 585.533 -5.48346 -5.54019 0
M  V30 6409 N 589.762 0.448376 -1.51087 0
M  V30 6410 C 591.178 0.783984 -1.39017 0
M  V30 6411 C 591.378 1.96087 -0.463904 0
M  V30 6412 O 590.434 2.52357 0.0850534 0
M  V30 6413 C 591.747 1.07471 -2.80839 0
M  V30 6414 C 593.295 1.17981 -2.89913 0
M  V30 6415 C 593.77 1.50354 -4.32617 0
M  V30 6416 N 595.261 1.57301 -4.35673 0
M  V30 6417 C 595.996 1.839 -5.4311 0
M  V30 6418 N 595.492 2.08365 -6.60724 0
M  V30 6419 N 597.285 1.8559 -5.30578 0
M  V30 6420 H 589.436 -0.326881 -2.0987 0
M  V30 6421 H 591.699 -0.0838006 -0.944289 0
M  V30 6422 H 591.405 0.282768 -3.50561 0
M  V30 6423 H 591.279 2.00519 -3.19487 0
M  V30 6424 H 593.666 1.9624 -2.20395 0
M  V30 6425 H 593.747 0.228603 -2.54776 0
M  V30 6426 H 593.391 0.726273 -5.0268 0
M  V30 6427 H 593.321 2.46663 -4.65258 0
M  V30 6428 H 595.812 1.40342 -3.50874 0
M  V30 6429 H 596.125 2.27999 -7.38401 0
M  V30 6430 H 594.47 2.0571 -6.63859 0
M  V30 6431 H 597.661 1.65989 -4.37682 0
M  V30 6432 H 597.834 2.05983 -6.1439 0
M  V30 6433 N 591.24 1.41047 0.703093 0
M  V30 6434 C 592.468 1.4334 1.49202 0
M  V30 6435 C 592.883 0.0365596 1.88765 0
M  V30 6436 O 592.24 -0.942419 1.56284 0
M  V30 6437 C 592.291 2.33538 2.75939 0
M  V30 6438 O 592.012 3.67786 2.38045 0
M  V30 6439 C 593.513 2.44555 3.6974 0
M  V30 6440 H 590.733 0.488472 0.460039 0
M  V30 6441 H 593.277 1.85245 0.86629 0
M  V30 6442 H 591.432 1.94962 3.34766 0
M  V30 6443 H 591.846 4.15816 3.19683 0
M  V30 6444 H 593.32 3.11849 4.55471 0
M  V30 6445 H 593.797 1.47447 4.1371 0
M  V30 6446 H 594.403 2.83735 3.16819 0
M  V30 6447 N 592.718 -0.936591 1.26751 0
M  V30 6448 C 593.681 -2.01752 1.08761 0
M  V30 6449 C 594.681 -1.60763 0.0344435 0
M  V30 6450 O 595.871 -1.71963 0.278258 0
M  V30 6451 C 593.003 -3.34543 0.655271 0
M  V30 6452 H 594.196 -2.19143 2.04735 0
M  V30 6453 H 591.749 -1.11618 1.09413 0
M  V30 6454 H 592.484 -3.22851 -0.30626 0
M  V30 6455 H 592.269 -3.65647 1.41578 0
M  V30 6456 H 593.759 -4.13944 0.551378 0
M  V30 6457 N 594.196 -1.08629 -1.14182 0
M  V30 6458 C 595.421 -0.83902 -1.89671 0
M  V30 6459 C 595.846 0.603332 -1.78161 0
M  V30 6460 O 595.204 1.42301 -1.12339 0
M  V30 6461 C 595.252 -1.26854 -3.37551 0
M  V30 6462 O 594.356 -0.42188 -4.10236 0
M  V30 6463 H 593.697 -0.304545 -0.590041 0
M  V30 6464 H 596.227 -1.4483 -1.44518 0
M  V30 6465 H 596.237 -1.25038 -3.88368 0
M  V30 6466 H 594.912 -2.31901 -3.45246 0
M  V30 6467 H 593.489 -0.503654 -3.69483 0
M  V30 6468 N 595.674 1.31259 -0.872281 0
M  V30 6469 C 597.085 1.78822 -0.536617 0
M  V30 6470 C 597.436 1.71855 0.946594 0
M  V30 6471 O 596.561 1.28769 1.73918 0
M  V30 6472 C 597.156 3.24698 -0.967294 0
M  V30 6473 C 595.715 3.70147 -0.683251 0
M  V30 6474 C 594.862 2.51994 -1.15733 0
M  V30 6475 H 597.813 1.18308 -1.05777 0
M  V30 6476 H 597.834 3.79386 -0.290929 0
M  V30 6477 H 597.346 3.29737 -2.04683 0
M  V30 6478 H 595.447 3.70607 0.384825 0
M  V30 6479 H 595.56 4.62183 -1.2619 0
M  V30 6480 H 593.924 2.48078 -0.577024 0
M  V30 6481 H 594.707 2.59778 -2.24434 0
M  V30 6482 N 597.152 0.631951 1.44375 0
M  V30 6483 C 598.563 0.219036 1.85411 0
M  V30 6484 C 598.914 -1.22974 1.52879 0
M  V30 6485 O 598.039 -1.93579 0.967266 0
M  V30 6486 C 598.634 0.39075 3.36539 0
M  V30 6487 C 597.193 0.0323351 3.76386 0
M  V30 6488 C 596.34 0.703744 2.68221 0
M  V30 6489 H 599.291 0.837056 1.3483 0
M  V30 6490 H 599.312 -0.370056 3.78696 0
M  V30 6491 H 598.824 1.44527 3.60185 0
M  V30 6492 H 596.925 -1.02042 3.58355 0
M  V30 6493 H 597.038 0.442969 4.77048 0
M  V30 6494 H 595.402 0.138974 2.54321 0
M  V30 6495 H 596.185 1.76088 2.947 0
M  V30 6496 N 598.631 -1.53133 0.372548 0
M  V30 6497 C 599.581 -2.22733 -0.487218 0
M  V30 6498 C 600.565 -1.22506 -1.04312 0
M  V30 6499 O 601.757 -1.47923 -0.972005 0
M  V30 6500 C 598.886 -3.02524 -1.62278 0
M  V30 6501 C 597.972 -4.10133 -1.07943 0
M  V30 6502 N 598.363 -5.05133 -0.259629 0
M  V30 6503 C 596.661 -4.24964 -1.35356 0
M  V30 6504 C 597.362 -5.81687 0.0386656 0
M  V30 6505 N 596.338 -5.40699 -0.560827 0
M  V30 6506 H 600.14 -2.93538 0.145853 0
M  V30 6507 H 597.654 -1.61389 0.180938 0
M  V30 6508 H 599.651 -3.50909 -2.25096 0
M  V30 6509 H 598.311 -2.33252 -2.25884 0
M  V30 6510 H 599.322 -5.178 0.101746 0
M  V30 6511 H 595.999 -3.66919 -1.9919 0
M  V30 6512 H 597.389 -6.68224 0.701841 0
M  V30 6513 N 600.109 -0.101901 -1.5727 0
M  V30 6514 C 601.358 0.559922 -1.93772 0
M  V30 6515 C 601.671 1.68913 -0.98629 0
M  V30 6516 O 602.877 2.41256 -1.24529 0
M  V30 6517 C 601.333 1.04739 -3.44322 0
M  V30 6518 C 600.941 -0.05243 -4.47969 0
M  V30 6519 C 602.685 1.68157 -3.89774 0
M  V30 6520 C 600.592 0.450781 -5.8968 0
M  V30 6521 H 599.522 0.212931 -0.723309 0
M  V30 6522 H 602.173 -0.179001 -1.82625 0
M  V30 6523 H 600.555 1.84021 -3.50645 0
M  V30 6524 H 601.729 -0.828157 -4.53297 0
M  V30 6525 H 600.044 -0.592202 -4.12167 0
M  V30 6526 H 602.641 2.0689 -4.93052 0
M  V30 6527 H 602.984 2.55338 -3.28798 0
M  V30 6528 H 603.517 0.954453 -3.8618 0
M  V30 6529 H 600.256 -0.38458 -6.54371 0
M  V30 6530 H 599.776 1.19336 -5.87809 0
M  V30 6531 H 601.455 0.917555 -6.40461 0
M  V30 6532 N 601.587 1.56661 0.17182 0
M  V30 6533 C 602.834 1.81965 0.888529 0
M  V30 6534 C 603.162 0.6789 1.82267 0
M  V30 6535 O 602.417 -0.333875 1.92831 0
M  V30 6536 C 602.716 3.13435 1.71736 0
M  V30 6537 C 602.382 4.41159 0.932184 0
M  V30 6538 C 601.044 4.75851 0.715481 0
M  V30 6539 C 603.396 5.19803 0.381387 0
M  V30 6540 C 600.724 5.86666 -0.063126 0
M  V30 6541 C 603.076 6.31433 -0.384129 0
M  V30 6542 C 601.74 6.64692 -0.611637 0
M  V30 6543 H 601.01 0.665859 0.325136 0
M  V30 6544 H 603.657 1.90884 0.153495 0
M  V30 6545 H 601.962 2.99857 2.52177 0
M  V30 6546 H 603.659 3.30224 2.27493 0
M  V30 6547 H 600.249 4.13947 1.11112 0
M  V30 6548 H 604.433 4.93396 0.536148 0
M  V30 6549 H 599.689 6.10892 -0.249136 0
M  V30 6550 H 603.863 6.91577 -0.818185 0
M  V30 6551 H 601.49 7.50398 -1.21684 0
M  V30 6552 N 603.065 -0.440357 1.51323 0
M  V30 6553 C 604.028 -1.51679 1.71832 0
M  V30 6554 C 605.028 -1.49648 0.588386 0
M  V30 6555 O 606.218 -1.51724 0.855891 0
M  V30 6556 C 603.35 -2.91228 1.77199 0
M  V30 6557 H 604.543 -1.34799 2.67898 0
M  V30 6558 H 602.096 -0.66883 1.41267 0
M  V30 6559 H 602.831 -3.13516 0.829363 0
M  V30 6560 H 602.616 -2.94107 2.59314 0
M  V30 6561 H 604.106 -3.69321 1.94915 0
M  V30 6562 N 604.543 -1.41418 -0.695603 0
M  V30 6563 C 605.476 -1.3768 -1.81988 0
M  V30 6564 C 606.454 -0.244061 -1.60758 0
M  V30 6565 O 607.638 -0.430965 -1.83507 0
M  V30 6566 C 604.765 -1.1476 -3.18666 0
M  V30 6567 C 603.811 -2.30752 -3.58686 0
M  V30 6568 S 604.644 -3.9323 -3.63498 0
M  V30 6569 C 605.8 -3.72613 -5.02902 0
M  V30 6570 H 606.033 -2.32822 -1.84882 0
M  V30 6571 H 603.566 -1.27942 -0.86431 0
M  V30 6572 H 605.524 -1.02223 -3.97569 0
M  V30 6573 H 604.185 -0.212385 -3.13381 0
M  V30 6574 H 603.378 -2.10409 -4.57978 0
M  V30 6575 H 602.98 -2.39696 -2.87092 0
M  V30 6576 H 605.272 -3.32317 -5.904 0
M  V30 6577 H 606.215 -4.71507 -5.28286 0
M  V30 6578 H 606.623 -3.0589 -4.74438 0
M  V30 6579 N 606.021 0.929856 -1.27246 0
M  V30 6580 C 606.984 2.01172 -1.09829 0
M  V30 6581 C 607.984 1.60743 -0.0429687 0
M  V30 6582 O 609.174 1.71813 -0.287373 0
M  V30 6583 C 606.306 3.34191 -0.673003 0
M  V30 6584 H 607.499 2.18054 -2.05895 0
M  V30 6585 H 605.052 1.11036 -1.10003 0
M  V30 6586 H 605.787 3.23009 0.289134 0
M  V30 6587 H 605.572 3.64892 -1.43515 0
M  V30 6588 H 607.062 4.13646 -0.573323 0
M  V30 6589 N 607.499 1.09233 1.13605 0
M  V30 6590 C 608.776 0.739633 1.81077 0
M  V30 6591 C 609.156 -0.775595 1.96336 0
M  V30 6592 O 608.504 -1.69726 1.52988 0
M  V30 6593 C 608.714 1.47636 3.16235 0
M  V30 6594 C 610.062 1.64087 3.91613 0
M  V30 6595 O 611.086 1.43871 3.25852 0
M  V30 6596 O 609.945 1.97511 5.0956 0
M  V30 6597 H 607.039 0.265464 0.783236 0
M  V30 6598 H 609.585 1.19441 1.20549 0
M  V30 6599 H 608.357 2.50818 3.00344 0
M  V30 6600 H 607.98 1.01362 3.84462 0
M  V30 6601 N 608.977 -1.30795 0.87923 0
M  V30 6602 C 609.907 -2.30742 0.357796 0
M  V30 6603 C 610.888 -1.60747 -0.556283 0
M  V30 6604 O 612.073 -1.88393 -0.47135 0
M  V30 6605 C 609.203 -3.44583 -0.433555 0
M  V30 6606 C 608.157 -4.26235 0.388251 0
M  V30 6607 C 607.483 -5.32073 -0.529352 0
M  V30 6608 C 608.783 -4.96303 1.62729 0
M  V30 6609 H 610.477 -2.74605 1.19299 0
M  V30 6610 H 608.023 -1.32017 0.575104 0
M  V30 6611 H 609.976 -4.13563 -0.808934 0
M  V30 6612 H 608.7 -2.99511 -1.30234 0
M  V30 6613 H 607.359 -3.58936 0.745695 0
M  V30 6614 H 607.007 -4.83249 -1.39569 0
M  V30 6615 H 606.707 -5.87598 0.0166741 0
M  V30 6616 H 608.231 -6.0391 -0.901373 0
M  V30 6617 H 609.645 -5.5783 1.32283 0
M  V30 6618 H 608.042 -5.61666 2.11309 0
M  V30 6619 H 609.112 -4.22758 2.37494 0
M  V30 6620 N 610.455 -0.639598 -1.44038 0
M  V30 6621 C 611.703 -0.147188 -2.01563 0
M  V30 6622 C 612.024 1.2384 -1.50628 0
M  V30 6623 O 611.294 1.82452 -0.713316 0
M  V30 6624 H 609.874 -0.0514231 -0.745228 0
M  V30 6625 H 612.536 -0.828205 -1.76428 0
M  V30 6626 H 611.632 -0.121358 -3.11864 0
M  V30 6627 N 611.933 1.52934 -0.380664 0
M  V30 6628 C 613.163 2.05587 0.204302 0
M  V30 6629 C 613.571 1.25288 1.41773 0
M  V30 6630 O 612.914 0.290394 1.8139 0
M  V30 6631 C 612.976 3.53624 0.647324 0
M  V30 6632 C 612.64 4.54765 -0.451465 0
M  V30 6633 C 613.637 5.03226 -1.30614 0
M  V30 6634 C 611.322 4.98508 -0.616025 0
M  V30 6635 C 613.316 5.94046 -2.31058 0
M  V30 6636 C 611.003 5.89131 -1.62381 0
M  V30 6637 C 612.001 6.36792 -2.46952 0
M  V30 6638 O 611.689 7.25626 -3.46009 0
M  V30 6639 H 611.421 0.675013 0.0365198 0
M  V30 6640 H 613.975 1.98125 -0.541827 0
M  V30 6641 H 612.205 3.58676 1.44529 0
M  V30 6642 H 613.894 3.89061 1.15698 0
M  V30 6643 H 614.66 4.70167 -1.19027 0
M  V30 6644 H 610.539 4.60989 0.0324987 0
M  V30 6645 H 614.083 6.3117 -2.97104 0
M  V30 6646 H 609.98 6.21603 -1.7401 0
M  V30 6647 H 610.748 7.43664 -3.41916 0
M  V30 6648 N 613.412 0.11024 1.57214 0
M  V30 6649 C 614.344 -0.873497 2.11902 0
M  V30 6650 C 615.357 -1.23588 1.05971 0
M  V30 6651 O 616.546 -1.18636 1.33371 0
M  V30 6652 C 613.646 -2.17805 2.59643 0
M  V30 6653 C 612.819 -1.98869 3.89576 0
M  V30 6654 C 611.878 -3.12974 4.23006 0
M  V30 6655 O 610.904 -2.86272 4.91973 0
M  V30 6656 N 612.106 -4.39167 3.79622 0
M  V30 6657 H 614.871 -0.406317 2.96933 0
M  V30 6658 H 612.432 -0.074437 1.61729 0
M  V30 6659 H 614.424 -2.93117 2.79042 0
M  V30 6660 H 612.994 -2.55899 1.7954 0
M  V30 6661 H 612.214 -1.078 3.79174 0
M  V30 6662 H 613.502 -1.83512 4.74553 0
M  V30 6663 H 612.9 -4.63739 3.2398 0
M  V30 6664 H 611.457 -5.11379 4.04147 0
M  V30 6665 N 614.89 -1.56749 -0.16351 0
M  V30 6666 C 616.115 -1.86938 -0.898264 0
M  V30 6667 C 616.54 -0.697456 -1.74692 0
M  V30 6668 O 615.898 0.353327 -1.77824 0
M  V30 6669 C 615.946 -3.15599 -1.74441 0
M  V30 6670 O 615.05 -2.98371 -2.8469 0
M  V30 6671 H 614.391 -0.614659 -0.251178 0
M  V30 6672 H 616.921 -2.03979 -0.159298 0
M  V30 6673 H 616.931 -3.47202 -2.14277 0
M  V30 6674 H 615.606 -4.00505 -1.1211 0
M  V30 6675 H 614.183 -2.7814 -2.4838 0
M  V30 6676 N 616.368 0.432326 -1.51554 0
M  V30 6677 C 617.301 1.54525 -1.6792 0
M  V30 6678 C 618.279 1.53831 -0.526764 0
M  V30 6679 O 619.463 1.72884 -0.751233 0
M  V30 6680 C 616.59 2.931 -1.69736 0
M  V30 6681 C 615.636 3.11799 -2.91005 0
M  V30 6682 S 616.469 2.87565 -4.51737 0
M  V30 6683 C 617.625 4.28412 -4.56305 0
M  V30 6684 H 617.858 1.4041 -2.62054 0
M  V30 6685 H 615.391 0.622357 -1.41301 0
M  V30 6686 H 617.349 3.72974 -1.71467 0
M  V30 6687 H 616.01 3.04574 -0.767705 0
M  V30 6688 H 615.203 4.13127 -2.8869 0
M  V30 6689 H 614.805 2.39757 -2.87041 0
M  V30 6690 H 617.097 5.21692 -4.32254 0
M  V30 6691 H 618.04 4.35758 -5.58141 0
M  V30 6692 H 618.448 4.12301 -3.85576 0
M  V30 6693 N 617.846 1.41785 0.688094 0
M  V30 6694 C 619.095 1.4084 1.44385 0
M  V30 6695 C 619.408 0.0234166 1.95586 0
M  V30 6696 O 620.614 -0.108647 2.71283 0
M  V30 6697 C 619.07 2.47675 2.61123 0
M  V30 6698 C 618.678 3.92116 2.16677 0
M  V30 6699 C 620.422 2.55877 3.38714 0
M  V30 6700 C 618.329 4.90487 3.30419 0
M  V30 6701 H 617.259 0.523787 0.542368 0
M  V30 6702 H 619.91 1.6764 0.74627 0
M  V30 6703 H 618.292 2.14018 3.33185 0
M  V30 6704 H 619.466 4.35059 1.51856 0
M  V30 6705 H 617.781 3.87642 1.5206 0
M  V30 6706 H 620.378 3.26553 4.234 0
M  V30 6707 H 620.721 1.59801 3.84408 0
M  V30 6708 H 621.254 2.88662 2.73714 0
M  V30 6709 H 617.993 5.87994 2.89729 0
M  V30 6710 H 617.513 4.52187 3.94065 0
M  V30 6711 H 619.192 5.11591 3.96085 0
M  V30 6712 N 619.324 -0.923095 1.27737 0
M  V30 6713 C 620.552 -1.70525 1.17171 0
M  V30 6714 C 620.967 -1.86847 -0.270881 0
M  V30 6715 O 620.324 -1.38879 -1.18401 0
M  V30 6716 C 620.375 -3.10242 1.85559 0
M  V30 6717 O 620.096 -2.94683 3.24182 0
M  V30 6718 C 621.597 -4.04586 1.81176 0
M  V30 6719 H 618.817 -0.533347 0.407163 0
M  V30 6720 H 621.361 -1.15599 1.68692 0
M  V30 6721 H 619.516 -3.62014 1.3793 0
M  V30 6722 H 619.93 -3.83045 3.58297 0
M  V30 6723 H 621.404 -5.00119 2.33633 0
M  V30 6724 H 621.881 -4.3218 0.782099 0
M  V30 6725 H 622.487 -3.58741 2.2844 0
M  V30 6726 N 620.802 -1.09834 -1.13024 0
M  V30 6727 C 622.032 -0.857657 -1.87957 0
M  V30 6728 C 622.44 0.595008 -1.796 0
M  V30 6729 O 621.783 1.42158 -1.16347 0
M  V30 6730 C 621.845 -1.21949 -3.38185 0
M  V30 6731 C 621.509 -2.67791 -3.7032 0
M  V30 6732 C 622.506 -3.66036 -3.69207 0
M  V30 6733 C 620.191 -3.04019 -3.99847 0
M  V30 6734 C 622.185 -4.98533 -3.9717 0
M  V30 6735 C 619.872 -4.36706 -4.27471 0
M  V30 6736 C 620.87 -5.33772 -4.26118 0
M  V30 6737 O 620.558 -6.64072 -4.53061 0
M  V30 6738 H 620.29 -0.308009 -0.601753 0
M  V30 6739 H 622.844 -1.46496 -1.43973 0
M  V30 6740 H 621.074 -0.555249 -3.82693 0
M  V30 6741 H 622.763 -0.957281 -3.9445 0
M  V30 6742 H 623.529 -3.39392 -3.46465 0
M  V30 6743 H 619.408 -2.29096 -4.00045 0
M  V30 6744 H 622.952 -5.74288 -3.96029 0
M  V30 6745 H 618.849 -4.63091 -4.49685 0
M  V30 6746 H 619.617 -6.69608 -4.7071 0
M  V30 6747 N 622.28 1.30327 -0.886154 0
M  V30 6748 C 623.228 2.30052 -0.343317 0
M  V30 6749 C 624.222 1.60212 0.550305 0
M  V30 6750 O 625.428 1.74674 0.434609 0
M  V30 6751 H 621.803 0.746306 -0.0923681 0
M  V30 6752 H 623.774 2.73294 -1.19804 0
M  V30 6753 C 622.523 3.45079 0.426107 0
M  V30 6754 H 621.846 3.99003 -0.25227 0
M  V30 6755 H 623.286 4.16931 0.771009 0
M  V30 6756 C 621.745 2.95195 1.62363 0
M  V30 6757 O 622.275 2.95323 2.723 0
M  V30 6758 N 620.481 2.51192 1.4612 0
M  V30 6759 H 620.028 2.51286 0.566832 0
M  V30 6760 H 619.986 2.18173 2.2638 0
M  V30 6761 N 623.758 0.647228 1.43697 0
M  V30 6762 C 624.983 0.164083 2.0675 0
M  V30 6763 C 625.408 -1.15892 1.48158 0
M  V30 6764 O 624.766 -1.71459 0.589194 0
M  V30 6765 C 624.814 0.0800368 3.60511 0
M  V30 6766 O 623.918 -0.959453 4.01084 0
M  V30 6767 H 623.259 0.0921288 0.657578 0
M  V30 6768 H 625.789 0.88846 1.84303 0
M  V30 6769 H 625.799 -0.105263 4.07864 0
M  V30 6770 H 624.474 1.04586 4.02535 0
M  V30 6771 H 623.051 -0.747425 3.65333 0
M  V30 6772 N 625.236 -1.5273 0.388769 0
M  V30 6773 C 626.513 -1.93981 -0.251133 0
M  V30 6774 C 626.893 -1.32418 -1.64404 0
M  V30 6775 O 626.241 -0.492074 -2.23139 0
M  V30 6776 C 626.451 -3.47891 -0.27802 0
M  V30 6777 C 627.799 -4.21559 -0.507229 0
M  V30 6778 O 628.823 -3.54394 -0.358252 0
M  V30 6779 O 627.682 -5.40626 -0.799094 0
M  V30 6780 H 624.776 -0.812157 -0.15598 0
M  V30 6781 H 627.322 -1.63809 0.443237 0
M  V30 6782 H 626.094 -3.8503 0.697669 0
M  V30 6783 H 625.717 -3.84364 -1.01733 0
M  V30 6784 N 626.714 -0.118576 -1.57153 0
M  V30 6785 C 627.646 0.862247 -2.12363 0
M  V30 6786 C 628.659 1.23025 -1.06625 0
M  V30 6787 O 629.848 1.17927 -1.33998 0
M  V30 6788 C 626.948 2.16425 -2.60794 0
M  V30 6789 C 626.121 1.96801 -3.90626 0
M  V30 6790 C 625.18 3.10726 -4.2466 0
M  V30 6791 O 624.206 2.83659 -4.93484 0
M  V30 6792 N 625.408 4.37147 -3.81946 0
M  V30 6793 H 628.173 0.390564 -2.97144 0
M  V30 6794 H 625.734 0.0658591 -1.61766 0
M  V30 6795 H 627.726 2.91633 -2.80593 0
M  V30 6796 H 626.296 2.54943 -1.80895 0
M  V30 6797 H 625.516 1.05787 -3.7974 0
M  V30 6798 H 626.804 1.80993 -4.7552 0
M  V30 6799 H 626.202 4.62014 -3.26435 0
M  V30 6800 H 624.759 5.09229 -4.06853 0
M  V30 6801 N 628.193 1.56834 0.155195 0
M  V30 6802 C 629.433 1.84701 0.875488 0
M  V30 6803 C 629.797 0.701747 1.78716 0
M  V30 6804 O 630.998 0.861263 2.54629 0
M  V30 6805 C 629.269 3.1773 1.63654 0
M  V30 6806 S 630.828 3.67128 2.40338 0
M  V30 6807 H 627.646 0.647856 0.292923 0
M  V30 6808 H 630.248 1.95026 0.136024 0
M  V30 6809 H 628.952 3.99059 0.958117 0
M  V30 6810 H 628.483 3.10388 2.41708 0
M  V30 6811 H 630.498 3.35739 3.65368 0
M  V30 6812 N 629.671 -0.424282 1.51781 0
M  V30 6813 C 630.92 -1.16961 1.64326 0
M  V30 6814 C 631.233 -1.92035 0.371749 0
M  V30 6815 O 632.439 -2.68873 0.37676 0
M  V30 6816 C 630.895 -2.12782 2.90262 0
M  V30 6817 C 630.503 -1.43295 4.24465 0
M  V30 6818 C 632.247 -2.87667 3.12166 0
M  V30 6819 C 630.154 -2.37676 5.41538 0
M  V30 6820 H 629.084 -0.440293 0.612093 0
M  V30 6821 H 631.735 -0.435431 1.78259 0
M  V30 6822 H 630.117 -2.8969 2.69992 0
M  V30 6823 H 631.291 -0.718564 4.55163 0
M  V30 6824 H 629.606 -0.805118 4.08542 0
M  V30 6825 H 632.203 -3.58395 3.96808 0
M  V30 6826 H 632.546 -3.49758 2.25776 0
M  V30 6827 H 633.079 -2.17863 3.32837 0
M  V30 6828 H 629.818 -1.80255 6.30229 0
M  V30 6829 H 629.338 -3.07132 5.15199 0
M  V30 6830 H 631.017 -2.98529 5.74012 0
M  V30 6831 N 631.149 -1.42148 -0.680565 0
M  V30 6832 C 632.395 -1.42521 -1.44277 0
M  V30 6833 C 632.728 -0.0393718 -1.9416 0
M  V30 6834 O 632.003 0.935425 -1.70529 0
M  V30 6835 C 632.286 -2.44475 -2.64394 0
M  V30 6836 C 632.139 -3.92226 -2.20179 0
M  V30 6837 C 633.458 -2.43491 -3.66606 0
M  V30 6838 H 630.577 -0.518985 -0.523282 0
M  V30 6839 H 633.219 -1.73524 -0.773914 0
M  V30 6840 H 631.369 -2.18168 -3.21458 0
M  V30 6841 H 633.041 -4.29493 -1.68327 0
M  V30 6842 H 631.284 -4.0637 -1.5181 0
M  V30 6843 H 631.955 -4.59133 -3.06433 0
M  V30 6844 H 634.431 -2.66872 -3.19247 0
M  V30 6845 H 633.307 -3.16816 -4.4824 0
M  V30 6846 H 633.568 -1.45881 -4.17338 0
M  V30 6847 N 632.627 0.916307 -1.28225 0
M  V30 6848 C 633.876 1.65975 -1.14608 0
M  V30 6849 C 634.189 1.93204 0.305191 0
M  V30 6850 O 635.395 2.65611 0.562432 0
M  V30 6851 C 633.851 2.98989 -2.00333 0
M  V30 6852 C 633.459 2.79417 -3.50186 0
M  V30 6853 C 635.203 3.76856 -1.95397 0
M  V30 6854 C 633.11 4.08056 -4.28071 0
M  V30 6855 H 632.04 0.622587 -0.425324 0
M  V30 6856 H 634.691 1.01705 -1.52736 0
M  V30 6857 H 633.073 3.6438 -1.5506 0
M  V30 6858 H 634.247 2.22723 -4.034 0
M  V30 6859 H 632.562 2.14966 -3.56621 0
M  V30 6860 H 635.159 4.72203 -2.50856 0
M  V30 6861 H 635.502 4.05776 -0.930137 0
M  V30 6862 H 636.035 3.1828 -2.38626 0
M  V30 6863 H 632.774 3.8431 -5.31024 0
M  V30 6864 H 632.294 4.64371 -3.79631 0
M  V30 6865 H 633.973 4.76333 -4.37854 0
M  V30 6866 N 634.105 1.10431 1.1244 0
M  V30 6867 C 635.33 0.869089 1.88313 0
M  V30 6868 C 635.755 -0.574912 1.79099 0
M  V30 6869 O 635.113 -1.40496 1.14589 0
M  V30 6870 C 635.161 1.32208 3.3549 0
M  V30 6871 O 634.265 0.487092 4.09513 0
M  V30 6872 H 633.606 0.313894 0.585121 0
M  V30 6873 H 636.136 1.47111 1.42195 0
M  V30 6874 H 636.146 1.31201 3.86329 0
M  V30 6875 H 634.821 2.37364 3.41513 0
M  V30 6876 H 633.398 0.562372 3.68635 0
M  V30 6877 N 635.583 -1.29855 0.893053 0
M  V30 6878 C 636.831 -1.9544 0.514566 0
M  V30 6879 C 637.152 -1.70795 -0.940959 0
M  V30 6880 O 636.422 -1.03601 -1.66264 0
M  V30 6881 H 635.002 -0.723137 0.187302 0
M  V30 6882 H 637.664 -1.58234 1.13789 0
M  V30 6883 H 636.76 -3.04341 0.691581 0
M  V30 6884 N 637.061 -0.65484 -1.43351 0
M  V30 6885 C 637.971 0.0363603 -2.34572 0
M  V30 6886 C 638.987 0.810432 -1.53974 0
M  V30 6887 O 640.163 0.757308 -1.86619 0
M  V30 6888 C 637.228 0.989733 -3.32273 0
M  V30 6889 C 636.289 0.212414 -4.28774 0
M  V30 6890 C 635.522 1.12038 -5.21808 0
M  V30 6891 O 635.745 2.35967 -5.19303 0
M  V30 6892 O 634.679 0.59191 -5.98982 0
M  V30 6893 H 638.505 -0.714527 -2.95175 0
M  V30 6894 H 636.09 -0.415029 -1.4352 0
M  V30 6895 H 637.972 1.53759 -3.92347 0
M  V30 6896 H 636.647 1.72082 -2.74171 0
M  V30 6897 H 635.554 -0.379062 -3.72175 0
M  V30 6898 H 636.887 -0.479138 -4.89862 0
M  V30 6899 N 638.539 1.52521 -0.396863 0
M  V30 6900 C 639.764 2.06571 0.185258 0
M  V30 6901 C 640.189 1.26605 1.39115 0
M  V30 6902 O 639.547 0.293055 1.78916 0
M  V30 6903 C 639.595 3.5674 0.526189 0
M  V30 6904 O 638.699 3.7929 1.61903 0
M  V30 6905 H 638.04 0.663712 0.0195474 0
M  V30 6906 H 640.57 1.966 -0.566519 0
M  V30 6907 H 640.58 4.00311 0.788338 0
M  V30 6908 H 639.255 4.14379 -0.355397 0
M  V30 6909 H 637.832 3.47605 1.35 0
M  V30 6910 N 640.017 0.126909 1.57088 0
M  V30 6911 C 641.265 -0.528123 1.95078 0
M  V30 6912 C 641.586 -1.66708 1.0116 0
M  V30 6913 O 640.856 -1.95777 0.0693527 0
M  V30 6914 H 639.436 -0.198087 0.720257 0
M  V30 6915 H 642.098 0.197703 1.93895 0
M  V30 6916 H 641.194 -0.917507 2.98309 0
M  V30 6917 N 641.495 -1.56914 -0.146875 0
M  V30 6918 C 642.458 -1.97368 -1.16526 0
M  V30 6919 C 643.458 -0.860223 -1.35856 0
M  V30 6920 O 644.648 -1.12684 -1.32846 0
M  V30 6921 C 641.78 -2.28974 -2.52555 0
M  V30 6922 H 642.973 -2.88523 -0.818209 0
M  V30 6923 H 640.526 -1.5135 -0.390221 0
M  V30 6924 H 641.261 -1.40611 -2.92231 0
M  V30 6925 H 641.046 -3.10157 -2.39886 0
M  V30 6926 H 642.536 -2.61109 -3.25902 0
M  V30 6927 N 642.974 0.416227 -1.52004 0
M  V30 6928 C 644.222 1.16153 -1.65387 0
M  V30 6929 C 644.543 1.91208 -0.382669 0
M  V30 6930 O 643.813 1.86413 0.602231 0
M  V30 6931 H 642.393 0.431765 -0.60958 0
M  V30 6932 H 645.055 0.475151 -1.89019 0
M  V30 6933 H 644.151 1.87952 -2.4916 0
M  V30 6934 N 644.452 1.42507 0.673017 0
M  V30 6935 C 645.399 1.46124 1.78651 0
M  V30 6936 C 646.369 0.313007 1.63124 0
M  V30 6937 O 647.554 0.517337 1.83653 0
M  V30 6938 C 644.694 1.3711 3.16694 0
M  V30 6939 C 643.807 2.61983 3.43495 0
M  V30 6940 C 642.942 2.45098 4.71275 0
M  V30 6941 C 641.981 3.65336 4.91117 0
M  V30 6942 N 641.118 3.47383 6.10139 0
M  V30 6943 H 645.958 2.4128 1.74895 0
M  V30 6944 H 643.495 1.19788 0.853766 0
M  V30 6945 H 645.453 1.29881 3.96468 0
M  V30 6946 H 644.083 0.45549 3.1957 0
M  V30 6947 H 643.135 2.79571 2.57961 0
M  V30 6948 H 644.447 3.51355 3.5405 0
M  V30 6949 H 643.601 2.35466 5.59143 0
M  V30 6950 H 642.34 1.53219 4.63007 0
M  V30 6951 H 641.345 3.754 4.0169 0
M  V30 6952 H 642.57 4.58199 5.01229 0
M  V30 6953 H 640.516 2.58222 6.0304 0
M  V30 6954 H 640.433 4.30344 6.21563 0
M  V30 6955 H 641.701 3.41565 7.00681 0
M  V30 6956 N 645.93 -0.909495 1.28709 0
M  V30 6957 C 647.158 -1.69272 1.18973 0
M  V30 6958 C 647.573 -1.87123 -0.251048 0
M  V30 6959 O 646.93 -1.40127 -1.16922 0
M  V30 6960 C 646.981 -3.08257 1.88839 0
M  V30 6961 O 646.702 -2.91228 3.27289 0
M  V30 6962 C 648.203 -4.02642 1.85457 0
M  V30 6963 H 645.423 -0.528999 0.412797 0
M  V30 6964 H 647.967 -1.13803 1.69909 0
M  V30 6965 H 646.122 -3.6053 1.41762 0
M  V30 6966 H 646.536 -3.79223 3.6234 0
M  V30 6967 H 648.01 -4.97613 2.38925 0
M  V30 6968 H 648.487 -4.31327 0.827893 0
M  V30 6969 H 649.093 -3.56298 2.32233 0
M  V30 6970 N 647.408 -1.11026 -1.11852 0
M  V30 6971 C 648.318 -0.777252 -2.2135 0
M  V30 6972 C 649.334 0.227821 -1.72502 0
M  V30 6973 O 650.51 0.0650587 -2.01295 0
M  V30 6974 C 647.575 -0.220668 -3.45997 0
M  V30 6975 C 646.636 -1.2838 -4.09655 0
M  V30 6976 C 645.869 -0.753678 -5.28352 0
M  V30 6977 O 646.092 0.417779 -5.68868 0
M  V30 6978 O 645.026 -1.51647 -5.82483 0
M  V30 6979 H 648.852 -1.69141 -2.5224 0
M  V30 6980 H 646.437 -0.885836 -1.20305 0
M  V30 6981 H 648.319 0.0855756 -4.21313 0
M  V30 6982 H 646.994 0.666262 -3.16769 0
M  V30 6983 H 645.901 -1.64299 -3.3609 0
M  V30 6984 H 647.234 -2.14396 -4.43052 0
M  V30 6985 N 648.886 1.2938 -0.899927 0
M  V30 6986 C 649.834 2.29675 -0.367698 0
M  V30 6987 C 650.828 1.60787 0.533282 0
M  V30 6988 O 652.034 1.75126 0.416058 0
M  V30 6989 H 648.409 0.745284 -0.100279 0
M  V30 6990 H 650.38 2.72008 -1.22696 0
M  V30 6991 C 649.129 3.45512 0.389483 0
M  V30 6992 H 648.452 3.98713 -0.294575 0
M  V30 6993 H 649.892 4.17725 0.726744 0
M  V30 6994 C 648.351 2.969 1.59223 0
M  V30 6995 O 648.881 2.98195 2.69152 0
M  V30 6996 N 647.087 2.52728 1.43447 0
M  V30 6997 H 646.634 2.51873 0.540148 0
M  V30 6998 H 646.592 2.20561 2.24054 0
M  V30 6999 N 650.364 0.662433 1.43002 0
M  V30 7000 C 651.327 -0.0142016 2.29196 0
M  V30 7001 C 652.327 -0.741394 1.42688 0
M  V30 7002 O 653.517 -0.581257 1.64216 0
M  V30 7003 C 650.649 -1.03084 3.24941 0
M  V30 7004 H 651.842 0.7443 2.90517 0
M  V30 7005 H 649.395 0.424133 1.50435 0
M  V30 7006 H 650.13 -1.81826 2.68533 0
M  V30 7007 H 649.915 -0.512946 3.8873 0
M  V30 7008 H 651.405 -1.50308 3.89612 0
M  V30 7009 N 651.842 -1.52309 0.404946 0
M  V30 7010 C 652.792 -2.23717 -0.439864 0
M  V30 7011 C 653.776 -1.24692 -1.0169 0
M  V30 7012 O 654.968 -1.49951 -0.940409 0
M  V30 7013 C 652.097 -3.05898 -1.55825 0
M  V30 7014 C 651.183 -4.12331 -0.992188 0
M  V30 7015 N 651.574 -5.0557 -0.152424 0
M  V30 7016 C 649.872 -4.2774 -1.26312 0
M  V30 7017 C 650.573 -5.81474 0.162041 0
M  V30 7018 N 649.549 -5.41767 -0.44601 0
M  V30 7019 H 653.351 -2.93162 0.208084 0
M  V30 7020 H 650.865 -1.60969 0.215131 0
M  V30 7021 H 652.862 -3.55605 -2.17603 0
M  V30 7022 H 651.522 -2.37991 -2.20886 0
M  V30 7023 H 652.533 -5.17468 0.211556 0
M  V30 7024 H 649.21 -3.71062 -1.91362 0
M  V30 7025 H 650.6 -6.66585 0.843423 0
M  V30 7026 N 653.32 -0.135238 -1.57019 0
M  V30 7027 C 654.25 0.805235 -2.19176 0
M  V30 7028 C 655.231 1.2656 -1.13651 0
M  V30 7029 O 656.416 1.32528 -1.4195 0
M  V30 7030 C 653.546 2.04914 -2.80406 0
M  V30 7031 C 652.5 1.72598 -3.91655 0
M  V30 7032 C 651.826 3.04154 -4.39766 0
M  V30 7033 C 653.126 0.981709 -5.12991 0
M  V30 7034 H 654.82 0.287232 -2.98019 0
M  V30 7035 H 652.366 0.136714 -1.4335 0
M  V30 7036 H 654.319 2.71178 -3.22553 0
M  V30 7037 H 653.043 2.59067 -1.98877 0
M  V30 7038 H 651.702 1.08717 -3.50109 0
M  V30 7039 H 651.35 3.56274 -3.55075 0
M  V30 7040 H 651.05 2.83299 -5.14796 0
M  V30 7041 H 652.574 3.71509 -4.84576 0
M  V30 7042 H 653.988 1.5462 -5.52056 0
M  V30 7043 H 652.385 0.873533 -5.93708 0
M  V30 7044 H 653.455 -0.0286887 -4.84892 0
M  V30 7045 N 654.798 1.5699 0.138552 0
M  V30 7046 C 655.728 2.01933 1.17241 0
M  V30 7047 C 656.709 0.90033 1.44319 0
M  V30 7048 O 657.894 1.16872 1.55095 0
M  V30 7049 C 655.024 2.40711 2.50351 0
M  V30 7050 C 653.978 3.55874 2.37776 0
M  V30 7051 C 653.304 3.80491 3.75674 0
M  V30 7052 C 654.604 4.8826 1.85472 0
M  V30 7053 H 656.298 2.88551 0.798672 0
M  V30 7054 H 653.844 1.3882 0.382743 0
M  V30 7055 H 655.797 2.70754 3.22909 0
M  V30 7056 H 654.521 1.5104 2.89576 0
M  V30 7057 H 653.18 3.2601 1.67669 0
M  V30 7058 H 652.828 2.88057 4.12349 0
M  V30 7059 H 652.528 4.57998 3.68119 0
M  V30 7060 H 654.052 4.12967 4.49767 0
M  V30 7061 H 655.466 5.16965 2.4783 0
M  V30 7062 H 653.863 5.69631 1.88787 0
M  V30 7063 H 654.933 4.78071 0.810935 0
M  V30 7064 N 656.276 -0.40816 1.52223 0
M  V30 7065 C 657.522 -1.15673 1.66576 0
M  V30 7066 C 657.855 -1.90141 0.394996 0
M  V30 7067 O 657.13 -1.84798 -0.606613 0
M  V30 7068 C 657.413 -2.15042 2.88841 0
M  V30 7069 C 657.266 -1.44465 4.25969 0
M  V30 7070 C 658.585 -3.15699 3.0663 0
M  V30 7071 H 655.704 -0.41916 0.606196 0
M  V30 7072 H 658.346 -0.442348 1.84779 0
M  V30 7073 H 656.496 -2.75964 2.73452 0
M  V30 7074 H 658.168 -0.866544 4.53088 0
M  V30 7075 H 656.411 -0.746612 4.27327 0
M  V30 7076 H 657.082 -2.16976 5.07568 0
M  V30 7077 H 659.558 -2.64854 3.20923 0
M  V30 7078 H 658.434 -3.82491 3.9369 0
M  V30 7079 H 658.695 -3.83481 2.19987 0
M  V30 7080 N 657.755 -1.42862 -0.66545 0
M  V30 7081 C 658.687 -1.43026 -1.79098 0
M  V30 7082 C 659.7 -0.32803 -1.59461 0
M  V30 7083 O 660.889 -0.591709 -1.68407 0
M  V30 7084 C 657.989 -1.21566 -3.16346 0
M  V30 7085 C 657.162 -2.44399 -3.62751 0
M  V30 7086 C 656.221 -2.18344 -4.78761 0
M  V30 7087 O 655.247 -2.91611 -4.88827 0
M  V30 7088 N 656.449 -1.1924 -5.68122 0
M  V30 7089 H 659.214 -2.40045 -1.79439 0
M  V30 7090 H 656.775 -1.37861 -0.848872 0
M  V30 7091 H 658.767 -1.02037 -3.91625 0
M  V30 7092 H 657.337 -0.330368 -3.10849 0
M  V30 7093 H 656.557 -2.79433 -2.78048 0
M  V30 7094 H 657.845 -3.26173 -3.90498 0
M  V30 7095 H 657.243 -0.586603 -5.6265 0
M  V30 7096 H 655.8 -1.05698 -6.43173 0
M  V30 7097 N 659.233 0.902656 -1.29189 0
M  V30 7098 C 660.165 2.01149 -1.09872 0
M  V30 7099 C 661.178 1.62732 -0.0471046 0
M  V30 7100 O 662.367 1.76107 -0.29132 0
M  V30 7101 C 659.467 3.32612 -0.649818 0
M  V30 7102 C 658.64 3.99574 -1.7793 0
M  V30 7103 C 657.699 5.09325 -1.32191 0
M  V30 7104 O 656.725 5.31919 -2.02611 0
M  V30 7105 N 657.927 5.80185 -0.191171 0
M  V30 7106 H 660.692 2.18276 -2.05368 0
M  V30 7107 H 658.253 1.07466 -1.2109 0
M  V30 7108 H 660.245 4.03375 -0.327199 0
M  V30 7109 H 658.815 3.11876 0.212597 0
M  V30 7110 H 658.035 3.22213 -2.27095 0
M  V30 7111 H 659.323 4.41056 -2.53668 0
M  V30 7112 H 658.721 5.64312 0.396016 0
M  V30 7113 H 657.278 6.5176 0.0721001 0
M  V30 7114 N 660.711 1.11618 1.11262 0
M  V30 7115 C 661.641 0.79846 2.19424 0
M  V30 7116 C 662.622 -0.234003 1.68483 0
M  V30 7117 O 663.807 -0.0970704 1.93957 0
M  V30 7118 C 660.937 0.242892 3.4645 0
M  V30 7119 C 659.891 1.20744 4.10615 0
M  V30 7120 C 659.217 0.512494 5.32238 0
M  V30 7121 C 660.517 2.55884 4.55325 0
M  V30 7122 H 662.211 1.70286 2.46258 0
M  V30 7123 H 659.757 0.820195 1.18359 0
M  V30 7124 H 661.71 0.00840447 4.21399 0
M  V30 7125 H 660.434 -0.696811 3.1908 0
M  V30 7126 H 659.093 1.42759 3.37662 0
M  V30 7127 H 658.741 -0.432075 5.01141 0
M  V30 7128 H 658.441 1.15583 5.7612 0
M  V30 7129 H 659.965 0.286842 6.09926 0
M  V30 7130 H 661.379 2.37946 5.21588 0
M  V30 7131 H 659.776 3.16216 5.10027 0
M  V30 7132 H 660.846 3.14968 3.68678 0
M  V30 7133 N 662.189 -1.289 0.906776 0
M  V30 7134 C 663.417 -1.99401 0.551969 0
M  V30 7135 C 663.832 -1.67816 -0.865048 0
M  V30 7136 O 663.189 -0.927078 -1.57199 0
M  V30 7137 C 663.24 -3.53779 0.743152 0
M  V30 7138 O 662.961 -3.84248 2.1044 0
M  V30 7139 C 664.462 -4.41543 0.39424 0
M  V30 7140 H 661.682 -0.636926 0.211106 0
M  V30 7141 H 664.226 -1.64266 1.21807 0
M  V30 7142 H 662.381 -3.87201 0.124143 0
M  V30 7143 H 662.795 -4.78904 2.13895 0
M  V30 7144 H 664.269 -5.48957 0.578814 0
M  V30 7145 H 664.746 -4.34073 -0.669137 0
M  V30 7146 H 665.352 -4.13605 0.990491 0
M  V30 7147 N 663.667 -0.670007 -1.42649 0
M  V30 7148 C 664.913 -0.190568 -2.01903 0
M  V30 7149 C 665.246 1.19817 -1.52832 0
M  V30 7150 O 664.521 1.80342 -0.728485 0
M  V30 7151 C 664.804 -0.21991 -3.59428 0
M  V30 7152 C 664.657 -1.64376 -4.18689 0
M  V30 7153 C 665.976 0.434519 -4.3795 0
M  V30 7154 H 663.095 -0.0707219 -0.733599 0
M  V30 7155 H 665.737 -0.853883 -1.69732 0
M  V30 7156 H 663.887 0.344894 -3.86966 0
M  V30 7157 H 665.559 -2.26044 -4.02122 0
M  V30 7158 H 663.802 -2.18591 -3.747 0
M  V30 7159 H 664.473 -1.61601 -5.27815 0
M  V30 7160 H 666.949 -0.0462156 -4.16074 0
M  V30 7161 H 665.825 0.38333 -5.4756 0
M  V30 7162 H 666.086 1.51135 -4.15464 0
M  V30 7163 N 665.145 1.52092 -0.413018 0
M  V30 7164 C 666.075 2.30021 0.401567 0
M  V30 7165 C 667.056 1.34395 1.04269 0
M  V30 7166 O 668.241 1.63304 1.05097 0
M  V30 7167 C 665.371 3.12447 1.51638 0
M  V30 7168 C 664.325 4.16153 1.00005 0
M  V30 7169 C 663.651 4.86948 2.20875 0
M  V30 7170 C 664.951 5.22275 0.0513757 0
M  V30 7171 H 666.645 2.98365 -0.248704 0
M  V30 7172 H 664.191 1.4349 -0.121052 0
M  V30 7173 H 666.144 3.65733 2.09326 0
M  V30 7174 H 664.868 2.41879 2.19458 0
M  V30 7175 H 663.527 3.63882 0.445549 0
M  V30 7176 H 663.175 4.12905 2.8726 0
M  V30 7177 H 662.875 5.57057 1.86978 0
M  V30 7178 H 664.399 5.43048 2.79162 0
M  V30 7179 H 665.813 5.70778 0.537176 0
M  V30 7180 H 664.21 5.9977 -0.198977 0
M  V30 7181 H 665.28 4.76611 -0.892736 0
M  V30 7182 N 666.623 0.143563 1.56945 0
M  V30 7183 C 667.871 -0.507402 1.95627 0
M  V30 7184 C 668.192 -1.65626 1.02922 0
M  V30 7185 O 667.462 -1.95693 0.0901136 0
M  V30 7186 H 666.042 -0.190436 0.722318 0
M  V30 7187 H 668.704 0.218257 1.93674 0
M  V30 7188 H 667.8 -0.885816 2.99265 0
M  V30 7189 N 668.101 -1.57061 -0.130224 0
M  V30 7190 C 669.048 -1.99517 -1.16024 0
M  V30 7191 C 670.018 -0.865452 -1.41771 0
M  V30 7192 O 671.203 -1.12882 -1.53826 0
M  V30 7193 C 668.343 -2.3951 -2.48453 0
M  V30 7194 C 667.456 -3.65848 -2.29737 0
M  V30 7195 C 666.591 -3.9487 -3.55318 0
M  V30 7196 C 665.63 -5.14426 -3.31711 0
M  V30 7197 N 664.767 -5.39375 -4.49466 0
M  V30 7198 H 669.607 -2.87305 -0.791194 0
M  V30 7199 H 667.144 -1.42129 -0.379195 0
M  V30 7200 H 669.102 -2.60731 -3.25692 0
M  V30 7201 H 667.732 -1.54779 -2.83272 0
M  V30 7202 H 666.784 -3.52307 -1.4347 0
M  V30 7203 H 668.096 -4.53241 -2.08263 0
M  V30 7204 H 667.25 -4.16679 -4.4098 0
M  V30 7205 H 665.989 -3.05931 -3.79813 0
M  V30 7206 H 664.994 -4.92473 -2.44439 0
M  V30 7207 H 666.219 -6.04933 -3.08598 0
M  V30 7208 H 664.165 -4.53391 -4.74102 0
M  V30 7209 H 664.082 -6.21069 -4.31055 0
M  V30 7210 H 665.35 -5.65694 -5.36293 0
M  V30 7211 N 669.579 0.400081 -1.52437 0
M  V30 7212 C 670.542 1.4707 -1.75793 0
M  V30 7213 C 671.542 1.48036 -0.627856 0
M  V30 7214 O 672.732 1.49401 -0.895817 0
M  V30 7215 C 669.864 2.86427 -1.84858 0
M  V30 7216 H 671.057 1.27649 -2.71377 0
M  V30 7217 H 668.61 0.631141 -1.42991 0
M  V30 7218 H 669.345 3.11207 -0.912194 0
M  V30 7219 H 669.13 2.87128 -2.6702 0
M  V30 7220 H 670.62 3.64023 -2.04638 0
M  V30 7221 N 671.057 1.43213 0.657864 0
M  V30 7222 C 672.005 1.48271 1.79216 0
M  V30 7223 C 672.999 0.35675 1.65601 0
M  V30 7224 O 674.205 0.530535 1.72004 0
M  V30 7225 H 670.58 0.464729 0.591211 0
M  V30 7226 H 672.551 2.43792 1.7207 0
M  V30 7227 C 671.3 1.41837 3.17455 0
M  V30 7228 H 670.623 2.27781 3.28567 0
M  V30 7229 H 672.063 1.49438 3.96793 0
M  V30 7230 C 670.522 0.135347 3.36628 0
M  V30 7231 O 671.052 -0.805199 3.93547 0
M  V30 7232 N 669.258 0.0470316 2.90562 0
M  V30 7233 H 668.805 0.813221 2.44427 0
M  V30 7234 H 668.763 -0.810737 3.03767 0
M  V30 7235 N 672.536 -0.895792 1.29666 0
M  V30 7236 C 673.484 -2.02173 1.15017 0
M  V30 7237 C 674.478 -1.69276 0.0647651 0
M  V30 7238 O 675.684 -1.7859 0.224846 0
M  V30 7239 H 672.059 -0.662719 0.355397 0
M  V30 7240 H 674.03 -2.11666 2.10334 0
M  V30 7241 C 672.779 -3.37212 0.847555 0
M  V30 7242 H 672.102 -3.6303 1.67479 0
M  V30 7243 H 673.542 -4.16668 0.785106 0
M  V30 7244 C 672.001 -3.33891 -0.44929 0
M  V30 7245 O 672.531 -3.73673 -1.47415 0
M  V30 7246 N 670.737 -2.86991 -0.456547 0
M  V30 7247 H 670.284 -2.54813 0.377925 0
M  V30 7248 H 670.242 -2.85152 -1.32423 0
M  V30 7249 N 674.014 -1.12206 -1.10668 0
M  V30 7250 C 675.43 -0.857619 -1.346 0
M  V30 7251 C 675.63 0.513542 -1.94846 0
M  V30 7252 O 674.686 1.26273 -2.18658 0
M  V30 7253 C 675.999 -1.97212 -2.26998 0
M  V30 7254 C 677.547 -2.00272 -2.40542 0
M  V30 7255 C 678.022 -3.10948 -3.36267 0
M  V30 7256 N 679.513 -3.10375 -3.43834 0
M  V30 7257 C 680.248 -3.92651 -4.17867 0
M  V30 7258 N 679.744 -4.84911 -4.94807 0
M  V30 7259 N 681.537 -3.80798 -4.1346 0
M  V30 7260 H 673.688 -2.00558 -0.699306 0
M  V30 7261 H 675.951 -0.872612 -0.370477 0
M  V30 7262 H 675.657 -2.96002 -1.89936 0
M  V30 7263 H 675.531 -1.87521 -3.27286 0
M  V30 7264 H 677.918 -1.02103 -2.76874 0
M  V30 7265 H 677.999 -2.14037 -1.40077 0
M  V30 7266 H 677.643 -4.09348 -3.00661 0
M  V30 7267 H 677.573 -2.94421 -4.36605 0
M  V30 7268 H 680.064 -2.43536 -2.88961 0
M  V30 7269 H 680.377 -5.44207 -5.48688 0
M  V30 7270 H 678.722 -4.88926 -4.93939 0
M  V30 7271 H 681.913 -3.08058 -3.52445 0
M  V30 7272 H 682.086 -4.4515 -4.70898 0
M  V30 7273 N 675.492 1.28418 -0.913599 0
M  V30 7274 C 676.72 1.99106 -0.562536 0
M  V30 7275 C 677.135 1.68273 0.856137 0
M  V30 7276 O 676.492 0.935401 1.56705 0
M  V30 7277 C 676.543 3.5338 -0.761903 0
M  V30 7278 O 676.264 3.83127 -2.12475 0
M  V30 7279 C 677.765 4.41328 -0.417651 0
M  V30 7280 H 674.985 0.635798 -0.214481 0
M  V30 7281 H 677.529 1.63618 -1.22676 0
M  V30 7282 H 675.684 3.8713 -0.144676 0
M  V30 7283 H 676.098 4.77763 -2.16431 0
M  V30 7284 H 677.572 5.48642 -0.607919 0
M  V30 7285 H 678.049 4.34422 0.646108 0
M  V30 7286 H 678.655 4.13074 -1.01241 0
M  V30 7287 N 676.97 0.677563 1.42291 0
M  V30 7288 C 677.9 0.014968 2.33495 0
M  V30 7289 C 678.881 -0.786376 1.50831 0
M  V30 7290 O 680.066 -0.742975 1.79426 0
M  V30 7291 C 677.196 -0.935023 3.34477 0
M  V30 7292 C 676.15 -0.242074 4.27315 0
M  V30 7293 C 675.476 -1.30519 5.18526 0
M  V30 7294 C 676.776 0.880604 5.14823 0
M  V30 7295 H 678.47 0.776671 2.89151 0
M  V30 7296 H 676.016 0.37494 1.39033 0
M  V30 7297 H 677.969 -1.40766 3.97194 0
M  V30 7298 H 676.693 -1.72818 2.77131 0
M  V30 7299 H 675.352 0.210351 3.65996 0
M  V30 7300 H 675 -2.09041 4.57505 0
M  V30 7301 H 674.7 -0.846652 5.81468 0
M  V30 7302 H 676.224 -1.7787 5.84119 0
M  V30 7303 H 677.638 0.489062 5.7121 0
M  V30 7304 H 676.035 1.26511 5.86613 0
M  V30 7305 H 677.105 1.72818 4.53059 0
M  V30 7306 N 678.448 -1.51871 0.421078 0
M  V30 7307 C 679.38 -2.25052 -0.434065 0
M  V30 7308 C 680.393 -1.28458 -1.00013 0
M  V30 7309 O 681.582 -1.54323 -0.897033 0
M  V30 7310 C 678.682 -2.97813 -1.61743 0
M  V30 7311 C 677.855 -4.21374 -1.17315 0
M  V30 7312 C 676.914 -4.76854 -2.22478 0
M  V30 7313 O 675.94 -5.39123 -1.82577 0
M  V30 7314 N 677.142 -4.59467 -3.54782 0
M  V30 7315 H 679.907 -2.99077 0.193073 0
M  V30 7316 H 677.468 -1.59972 0.249088 0
M  V30 7317 H 679.46 -3.3182 -2.31685 0
M  V30 7318 H 678.03 -2.26899 -2.15024 0
M  V30 7319 H 677.25 -3.93046 -0.3014 0
M  V30 7320 H 678.538 -5.01591 -0.853444 0
M  V30 7321 H 677.936 -4.09832 -3.89941 0
M  V30 7322 H 676.493 -4.9788 -4.20665 0
M  V30 7323 N 679.926 -0.151884 -1.56866 0
M  V30 7324 C 680.836 0.798876 -2.20579 0
M  V30 7325 C 681.852 1.268 -1.19154 0
M  V30 7326 O 683.028 1.32418 -1.51748 0
M  V30 7327 C 680.093 2.01861 -2.81874 0
M  V30 7328 C 679.154 1.59825 -3.9844 0
M  V30 7329 C 678.387 2.75984 -4.56802 0
M  V30 7330 O 678.61 3.92331 -4.14044 0
M  V30 7331 O 677.544 2.51175 -5.46987 0
M  V30 7332 H 681.37 0.2865 -3.02346 0
M  V30 7333 H 678.955 0.0753806 -1.4921 0
M  V30 7334 H 680.837 2.73235 -3.20813 0
M  V30 7335 H 679.512 2.52042 -2.03117 0
M  V30 7336 H 678.419 0.854601 -3.64208 0
M  V30 7337 H 679.752 1.14355 -4.78731 0
M  V30 7338 N 681.404 1.57128 0.121893 0
M  V30 7339 C 682.351 2.0013 1.14964 0
M  V30 7340 C 683.321 0.872959 1.4131 0
M  V30 7341 O 684.506 1.13696 1.53225 0
M  V30 7342 C 681.646 2.40824 2.4718 0
M  V30 7343 C 680.759 3.67061 2.27794 0
M  V30 7344 C 679.894 3.96749 3.53219 0
M  V30 7345 C 678.933 5.16178 3.28978 0
M  V30 7346 N 678.07 5.41751 4.46599 0
M  V30 7347 H 682.91 2.8772 0.775947 0
M  V30 7348 H 680.447 1.42328 0.371652 0
M  V30 7349 H 682.405 2.62454 3.24305 0
M  V30 7350 H 681.035 1.56279 2.82448 0
M  V30 7351 H 680.087 3.53063 1.416 0
M  V30 7352 H 681.399 4.5434 2.05857 0
M  V30 7353 H 680.553 4.19012 4.38764 0
M  V30 7354 H 679.292 3.07941 3.78185 0
M  V30 7355 H 678.297 4.93762 2.41824 0
M  V30 7356 H 679.522 6.06561 3.05386 0
M  V30 7357 H 677.468 4.55899 4.71691 0
M  V30 7358 H 677.385 6.23347 4.27756 0
M  V30 7359 H 678.653 5.68531 5.33285 0
M  V30 7360 N 682.882 -0.391992 1.52647 0
M  V30 7361 C 684.131 -1.13449 1.6677 0
M  V30 7362 C 684.444 -1.91203 0.412399 0
M  V30 7363 O 685.65 -2.68013 0.433707 0
M  V30 7364 C 684.106 -2.06577 2.9471 0
M  V30 7365 C 683.714 -1.3426 4.27409 0
M  V30 7366 C 685.458 -2.80981 3.18198 0
M  V30 7367 C 683.365 -2.26136 5.46458 0
M  V30 7368 H 682.295 -0.427211 0.621295 0
M  V30 7369 H 684.946 -0.397522 1.79142 0
M  V30 7370 H 683.328 -2.83898 2.76076 0
M  V30 7371 H 684.502 -0.621856 4.56585 0
M  V30 7372 H 682.817 -0.718279 4.10158 0
M  V30 7373 H 685.414 -3.49898 4.04321 0
M  V30 7374 H 685.757 -3.44891 2.33144 0
M  V30 7375 H 686.29 -2.10754 3.37383 0
M  V30 7376 H 683.029 -1.66846 6.33911 0
M  V30 7377 H 682.549 -2.96134 5.21598 0
M  V30 7378 H 684.228 -2.86286 5.80215 0
M  V30 7379 N 684.36 -1.4356 -0.65026 0
M  V30 7380 C 685.29 -1.51758 -1.77459 0
M  V30 7381 C 686.271 -0.372019 -1.65982 0
M  V30 7382 O 687.456 -0.589627 -1.85033 0
M  V30 7383 C 684.586 -1.44302 -3.15902 0
M  V30 7384 C 683.54 -2.57138 -3.42146 0
M  V30 7385 C 682.866 -2.34735 -4.8042 0
M  V30 7386 C 684.166 -3.99373 -3.36598 0
M  V30 7387 H 685.86 -2.45863 -1.70855 0
M  V30 7388 H 683.406 -1.18333 -0.820566 0
M  V30 7389 H 685.359 -1.48641 -3.94314 0
M  V30 7390 H 684.083 -0.467026 -3.23244 0
M  V30 7391 H 682.742 -2.52157 -2.66106 0
M  V30 7392 H 682.39 -1.35372 -4.84441 0
M  V30 7393 H 682.09 -3.10375 -4.9894 0
M  V30 7394 H 683.614 -2.40862 -5.61086 0
M  V30 7395 H 685.028 -4.05826 -4.04942 0
M  V30 7396 H 683.425 -4.75063 -3.66654 0
M  V30 7397 H 684.495 -4.243 -2.34729 0
M  V30 7398 N 685.838 0.888903 -1.30139 0
M  V30 7399 C 686.77 1.99972 -1.11999 0
M  V30 7400 C 687.783 1.62673 -0.0643619 0
M  V30 7401 O 688.972 1.75788 -0.309983 0
M  V30 7402 C 686.072 3.31904 -0.685059 0
M  V30 7403 C 685.245 3.97665 -1.82158 0
M  V30 7404 C 684.304 5.07894 -1.37585 0
M  V30 7405 O 683.33 5.2974 -2.08241 0
M  V30 7406 N 684.532 5.7995 -0.252697 0
M  V30 7407 H 687.297 2.16085 -2.07671 0
M  V30 7408 H 684.858 1.06175 -1.22223 0
M  V30 7409 H 686.85 4.03005 -0.369964 0
M  V30 7410 H 685.42 3.12084 0.179507 0
M  V30 7411 H 684.64 3.19787 -2.305 0
M  V30 7412 H 685.928 4.3834 -2.58332 0
M  V30 7413 H 685.326 5.647 0.336141 0
M  V30 7414 H 683.883 6.518 0.00296813 0
M  V30 7415 N 687.317 1.12792 1.10072 0
M  V30 7416 C 688.563 0.886857 1.82381 0
M  V30 7417 C 688.896 -0.58576 1.85155 0
M  V30 7418 O 688.171 -1.43317 1.31493 0
M  V30 7419 C 688.454 1.46703 3.28862 0
M  V30 7420 C 688.307 3.00829 3.34398 0
M  V30 7421 C 689.626 1.12971 4.25353 0
M  V30 7422 H 686.745 0.32362 0.662148 0
M  V30 7423 H 689.387 1.39513 1.28982 0
M  V30 7424 H 687.537 1.03476 3.74466 0
M  V30 7425 H 689.209 3.52764 2.97247 0
M  V30 7426 H 687.452 3.36164 2.74183 0
M  V30 7427 H 688.123 3.36519 4.3756 0
M  V30 7428 H 690.599 1.50313 3.88001 0
M  V30 7429 H 689.475 1.56223 5.26199 0
M  V30 7430 H 689.736 0.0424452 4.4208 0
M  V30 7431 N 688.795 -1.27931 0.920396 0
M  V30 7432 C 689.743 -2.29061 0.404191 0
M  V30 7433 C 690.737 -1.61615 -0.507634 0
M  V30 7434 O 691.943 -1.75765 -0.388144 0
M  V30 7435 H 688.318 -0.743594 0.112123 0
M  V30 7436 H 690.289 -2.70021 1.27008 0
M  V30 7437 C 689.038 -3.46088 -0.334466 0
M  V30 7438 H 688.361 -3.98194 0.35797 0
M  V30 7439 H 689.801 -4.18829 -0.660196 0
M  V30 7440 C 688.26 -2.99396 -1.54479 0
M  V30 7441 O 688.79 -3.02439 -2.64374 0
M  V30 7442 N 686.996 -2.54978 -1.39408 0
M  V30 7443 H 686.543 -2.52701 -0.500009 0
M  V30 7444 H 686.501 -2.24098 -2.20516 0
M  V30 7445 N 690.273 -0.685099 -1.4193 0
M  V30 7446 C 691.221 -0.00165985 -2.326 0
M  V30 7447 C 692.215 0.779678 -1.50391 0
M  V30 7448 O 693.421 0.68648 -1.66395 0
M  V30 7449 H 689.796 0.0182616 -0.751778 0
M  V30 7450 H 691.767 -0.783592 -2.87928 0
M  V30 7451 C 690.516 0.928385 -3.35077 0
M  V30 7452 H 689.839 0.336578 -3.98381 0
M  V30 7453 H 691.279 1.37509 -4.01083 0
M  V30 7454 C 689.738 2.03964 -2.68142 0
M  V30 7455 O 690.268 3.12727 -2.5212 0
M  V30 7456 N 688.474 1.81433 -2.27003 0
M  V30 7457 H 688.021 0.929807 -2.40234 0
M  V30 7458 H 687.979 2.55973 -1.82552 0
M  V30 7459 N 691.751 1.51645 -0.429126 0
M  V30 7460 C 692.681 2.30434 0.377148 0
M  V30 7461 C 693.662 1.35493 1.02838 0
M  V30 7462 O 694.847 1.6441 1.03359 0
M  V30 7463 C 691.977 3.14038 1.48315 0
M  V30 7464 C 690.931 4.1719 0.955855 0
M  V30 7465 C 690.257 4.89263 2.15698 0
M  V30 7466 C 691.557 5.223 -0.00402136 0
M  V30 7467 H 693.251 2.98085 -0.280336 0
M  V30 7468 H 690.797 1.43354 -0.136265 0
M  V30 7469 H 692.75 3.67933 2.05435 0
M  V30 7470 H 691.474 2.44193 2.16881 0
M  V30 7471 H 690.133 3.64335 0.406929 0
M  V30 7472 H 689.781 4.15929 2.82864 0
M  V30 7473 H 689.481 5.59009 1.81059 0
M  V30 7474 H 691.005 5.45978 2.73387 0
M  V30 7475 H 692.419 5.71315 0.476607 0
M  V30 7476 H 690.816 5.99525 -0.26258 0
M  V30 7477 H 691.886 4.75638 -0.943236 0
M  V30 7478 N 693.229 0.160201 1.56784 0
M  V30 7479 C 694.475 -0.48831 1.96833 0
M  V30 7480 C 694.808 -1.63641 1.04571 0
M  V30 7481 O 694.083 -1.94289 0.0906481 0
M  V30 7482 C 694.366 -0.981908 3.46454 0
M  V30 7483 C 694.219 0.165607 4.49495 0
M  V30 7484 C 695.538 -1.85931 3.98896 0
M  V30 7485 H 692.657 -0.176027 0.71567 0
M  V30 7486 H 695.299 0.244093 1.88426 0
M  V30 7487 H 693.449 -1.60602 3.5375 0
M  V30 7488 H 695.121 0.802372 4.54268 0
M  V30 7489 H 693.364 0.822789 4.25926 0
M  V30 7490 H 694.035 -0.221699 5.51555 0
M  V30 7491 H 696.511 -1.33327 3.94161 0
M  V30 7492 H 695.387 -2.17373 5.04024 0
M  V30 7493 H 695.648 -2.80106 3.42042 0
M  V30 7494 N 694.707 -1.5719 -0.113559 0
M  V30 7495 C 695.617 -2.04041 -1.15777 0
M  V30 7496 C 696.633 -0.961812 -1.45001 0
M  V30 7497 O 697.809 -1.2737 -1.56009 0
M  V30 7498 C 694.874 -2.43994 -2.46308 0
M  V30 7499 C 693.935 -3.65962 -2.24433 0
M  V30 7500 C 693.168 -4.04 -3.4874 0
M  V30 7501 O 693.391 -3.42321 -4.56259 0
M  V30 7502 O 692.325 -4.97069 -3.3942 0
M  V30 7503 H 696.151 -2.93248 -0.789899 0
M  V30 7504 H 693.736 -1.45828 -0.324748 0
M  V30 7505 H 695.618 -2.70401 -3.23204 0
M  V30 7506 H 694.293 -1.57932 -2.82558 0
M  V30 7507 H 693.2 -3.44697 -1.45377 0
M  V30 7508 H 694.533 -4.52746 -1.93084 0
M  V30 7509 N 696.185 0.383891 -1.52853 0
M  V30 7510 C 697.148 1.45197 -1.77343 0
M  V30 7511 C 698.148 1.47362 -0.643522 0
M  V30 7512 O 699.338 1.48443 -0.911613 0
M  V30 7513 C 696.47 2.8445 -1.87885 0
M  V30 7514 H 697.663 1.24764 -2.72716 0
M  V30 7515 H 695.216 0.615939 -1.43652 0
M  V30 7516 H 695.951 3.10222 -0.94515 0
M  V30 7517 H 695.736 2.8428 -2.70051 0
M  V30 7518 H 697.226 3.61832 -2.08488 0
M  V30 7519 N 697.663 1.43903 0.642637 0
M  V30 7520 C 698.91 1.46079 1.40239 0
M  V30 7521 C 699.238 0.0890335 1.94296 0
M  V30 7522 O 698.493 -0.907533 1.73385 0
M  V30 7523 C 698.792 2.45907 2.59354 0
M  V30 7524 C 698.458 3.91522 2.23654 0
M  V30 7525 C 697.12 4.31179 2.1363 0
M  V30 7526 C 699.472 4.83242 1.95261 0
M  V30 7527 C 696.8 5.60495 1.73384 0
M  V30 7528 C 699.152 6.12933 1.56511 0
M  V30 7529 C 697.816 6.51556 1.4502 0
M  V30 7530 H 697.086 0.534542 0.513172 0
M  V30 7531 H 699.733 1.77047 0.72984 0
M  V30 7532 H 698.038 2.08381 3.3179 0
M  V30 7533 H 699.735 2.44842 3.17574 0
M  V30 7534 H 696.325 3.60142 2.32369 0
M  V30 7535 H 700.509 4.53367 2.0192 0
M  V30 7536 H 695.765 5.89249 1.63082 0
M  V30 7537 H 699.939 6.83469 1.33576 0
M  V30 7538 H 697.566 7.51663 1.13606 0
M  V30 7539 N 699.141 -0.881989 1.30609 0
M  V30 7540 C 700.389 -1.63082 1.19368 0
M  V30 7541 C 700.71 -1.93376 -0.251147 0
M  V30 7542 O 699.98 -1.5723 -1.16857 0
M  V30 7543 H 698.56 -0.604542 0.438791 0
M  V30 7544 H 701.222 -1.05658 1.63776 0
M  V30 7545 H 700.318 -2.57966 1.7567 0
M  V30 7546 N 700.619 -1.13374 -1.09472 0
M  V30 7547 C 701.567 -0.806105 -2.18185 0
M  V30 7548 C 702.561 0.21136 -1.68076 0
M  V30 7549 O 703.767 0.0685558 -1.79869 0
M  V30 7550 H 700.142 -0.242901 -0.71169 0
M  V30 7551 H 702.113 -1.73115 -2.43051 0
M  V30 7552 C 700.862 -0.287928 -3.46506 0
M  V30 7553 H 700.185 -1.06217 -3.85432 0
M  V30 7554 H 701.625 -0.0971054 -4.23889 0
M  V30 7555 C 700.084 0.986256 -3.22141 0
M  V30 7556 O 700.614 2.06217 -3.44728 0
M  V30 7557 N 698.82 0.917153 -2.75747 0
M  V30 7558 H 698.367 0.0414609 -2.57567 0
M  V30 7559 H 698.325 1.77029 -2.59823 0
M  V30 7560 N 702.098 1.27442 -0.927168 0
M  V30 7561 C 703.061 2.2512 -0.430525 0
M  V30 7562 C 704.061 1.54357 0.450619 0
M  V30 7563 O 705.251 1.72371 0.251774 0
M  V30 7564 C 702.383 3.38763 0.381144 0
M  V30 7565 H 703.576 2.70569 -1.29354 0
M  V30 7566 H 701.129 1.39355 -0.707806 0
M  V30 7567 H 701.864 2.98695 1.263 0
M  V30 7568 H 701.649 3.91298 -0.250618 0
M  V30 7569 H 703.139 4.11364 0.719012 0
M  V30 7570 N 703.576 0.692616 1.41565 0
M  V30 7571 C 704.816 0.226453 2.03142 0
M  V30 7572 C 705.18 -1.1512 1.5366 0
M  V30 7573 O 706.381 -1.71305 2.07143 0
M  V30 7574 C 704.652 0.27855 3.56313 0
M  V30 7575 S 706.211 -0.114001 4.38652 0
M  V30 7576 H 703.029 0.0914767 0.705091 0
M  V30 7577 H 705.631 0.909737 1.73043 0
M  V30 7578 H 704.335 1.28325 3.89821 0
M  V30 7579 H 703.866 -0.423981 3.91109 0
M  V30 7580 H 705.881 -1.34256 4.77692 0
M  V30 7581 N 705.054 -1.51416 0.437162 0
M  V30 7582 C 706.282 -2.06503 -0.128045 0
M  V30 7583 C 706.697 -1.30461 -1.36475 0
M  V30 7584 O 706.054 -0.364127 -1.78831 0
M  V30 7585 C 706.105 -3.58683 -0.450437 0
M  V30 7586 O 705.826 -4.31853 0.737186 0
M  V30 7587 C 707.327 -4.30284 -1.06633 0
M  V30 7588 H 704.547 -0.670952 -0.00800269 0
M  V30 7589 H 707.091 -1.94996 0.616193 0
M  V30 7590 H 705.246 -3.70106 -1.14457 0
M  V30 7591 H 705.66 -5.22467 0.461347 0
M  V30 7592 H 707.134 -5.37848 -1.24191 0
M  V30 7593 H 707.611 -3.88564 -2.0473 0
M  V30 7594 H 708.217 -4.23304 -0.411585 0
M  V30 7595 N 706.532 -0.168513 -1.56696 0
M  V30 7596 C 707.781 0.477233 -1.95973 0
M  V30 7597 C 708.094 1.64578 -1.05704 0
M  V30 7598 O 709.3 2.35758 -1.3465 0
M  V30 7599 C 707.756 0.900413 -3.48455 0
M  V30 7600 C 707.364 -0.242382 -4.47344 0
M  V30 7601 C 709.108 1.51474 -3.96555 0
M  V30 7602 C 707.015 0.200272 -5.91061 0
M  V30 7603 H 705.945 0.182061 -0.73169 0
M  V30 7604 H 708.596 -0.256297 -1.81701 0
M  V30 7605 H 706.978 1.68984 -3.58135 0
M  V30 7606 H 708.152 -1.01967 -4.49377 0
M  V30 7607 H 706.467 -0.766484 -4.09285 0
M  V30 7608 H 709.064 1.85792 -5.01384 0
M  V30 7609 H 709.407 2.41163 -3.39332 0
M  V30 7610 H 709.94 0.789802 -3.89881 0
M  V30 7611 H 706.679 -0.661775 -6.52151 0
M  V30 7612 H 706.199 0.942979 -5.92341 0
M  V30 7613 H 707.878 0.645088 -6.43776 0
M  V30 7614 N 708.01 1.57248 0.105221 0
M  V30 7615 C 709.259 1.84756 0.809198 0
M  V30 7616 C 709.572 0.756262 1.80389 0
M  V30 7617 O 710.778 0.918158 2.55504 0
M  V30 7618 C 709.234 3.27613 1.48989 0
M  V30 7619 C 708.842 4.44788 0.535484 0
M  V30 7620 C 710.586 3.64356 2.17819 0
M  V30 7621 C 708.493 5.78676 1.22019 0
M  V30 7622 H 707.423 0.689139 0.305946 0
M  V30 7623 H 710.074 1.83395 0.0620371 0
M  V30 7624 H 708.456 3.23485 2.28415 0
M  V30 7625 H 709.63 4.60243 -0.226557 0
M  V30 7626 H 707.945 4.16374 -0.0465769 0
M  V30 7627 H 710.542 4.61663 2.69761 0
M  V30 7628 H 710.885 2.92474 2.96251 0
M  V30 7629 H 711.418 3.70328 1.45264 0
M  V30 7630 H 708.157 6.53763 0.476875 0
M  V30 7631 H 707.677 5.67083 1.9539 0
M  V30 7632 H 709.356 6.22897 1.74952 0
M  V30 7633 N 709.488 -0.375779 1.53054 0
M  V30 7634 C 710.436 -1.48015 1.79428 0
M  V30 7635 C 711.43 -1.55893 0.662854 0
M  V30 7636 O 712.636 -1.58901 0.845599 0
M  V30 7637 H 709.011 -0.492887 0.56795 0
M  V30 7638 H 710.982 -1.22971 2.71884 0
M  V30 7639 C 709.731 -2.84984 1.99197 0
M  V30 7640 H 709.054 -2.79677 2.85693 0
M  V30 7641 H 710.494 -3.61462 2.21633 0
M  V30 7642 C 708.953 -3.28025 0.768183 0
M  V30 7643 O 709.483 -4.01671 -0.0480482 0
M  V30 7644 N 707.689 -2.84454 0.594521 0
M  V30 7645 H 707.236 -2.24688 1.25988 0
M  V30 7646 H 707.194 -3.13609 -0.222916 0
M  V30 7647 N 710.966 -1.44241 -0.634997 0
M  V30 7648 C 712.243 -1.37296 -1.39317 0
M  V30 7649 C 712.623 -0.0297532 -2.11079 0
M  V30 7650 O 711.971 0.987524 -2.06059 0
M  V30 7651 C 712.181 -2.56853 -2.36279 0
M  V30 7652 C 713.529 -3.00747 -2.99728 0
M  V30 7653 O 714.553 -2.5703 -2.46605 0
M  V30 7654 O 713.412 -3.76533 -3.96087 0
M  V30 7655 H 710.506 -0.543503 -0.623325 0
M  V30 7656 H 713.052 -1.56324 -0.660376 0
M  V30 7657 H 711.824 -3.46228 -1.82324 0
M  V30 7658 H 711.447 -2.40019 -3.16981 0
M  V30 7659 N 712.444 0.87505 -1.31075 0
M  V30 7660 C 713.392 2.00317 -1.18219 0
M  V30 7661 C 714.386 1.69152 -0.0916872 0
M  V30 7662 O 715.592 1.7821 -0.253229 0
M  V30 7663 H 711.967 0.656981 -0.365895 0
M  V30 7664 H 713.938 2.08293 -2.13674 0
M  V30 7665 C 712.687 3.35821 -0.901095 0
M  V30 7666 H 712.01 3.6032 -1.73233 0
M  V30 7667 H 713.45 4.15366 -0.851295 0
M  V30 7668 C 711.909 3.34563 0.396114 0
M  V30 7669 O 712.439 3.75971 1.41452 0
M  V30 7670 N 710.645 2.87681 0.410832 0
M  V30 7671 H 710.192 2.54179 -0.418415 0
M  V30 7672 H 710.15 2.87223 1.27869 0
M  V30 7673 N 713.922 1.13953 1.08869 0
M  V30 7674 C 715.147 0.928559 1.85452 0
M  V30 7675 C 715.572 -0.517642 1.80837 0
M  V30 7676 O 714.93 -1.36779 1.19001 0
M  V30 7677 C 714.978 1.42814 3.31114 0
M  V30 7678 O 714.082 0.617129 4.07756 0
M  V30 7679 H 713.423 0.33235 0.574839 0
M  V30 7680 H 715.953 1.5156 1.37443 0
M  V30 7681 H 715.963 1.43425 3.8196 0
M  V30 7682 H 714.638 2.48109 3.33788 0
M  V30 7683 H 713.215 0.679365 3.66659 0
M  V30 7684 N 715.4 -1.26948 0.933913 0
M  V30 7685 C 716.625 -1.98724 0.593589 0
M  V30 7686 C 717.05 -1.6915 -0.822801 0
M  V30 7687 O 716.408 -0.93533 -1.5531 0
M  V30 7688 C 716.456 -3.50834 0.833542 0
M  V30 7689 O 715.56 -4.12284 -0.0978788 0
M  V30 7690 H 714.901 -0.623683 0.227849 0
M  V30 7691 H 717.431 -1.61599 1.25486 0
M  V30 7692 H 717.441 -4.01018 0.75156 0
M  V30 7693 H 716.116 -3.71691 1.86597 0
M  V30 7694 H 714.693 -3.72884 0.0345443 0
M  V30 7695 N 716.879 -0.700114 -1.41195 0
M  V30 7696 C 718.295 -0.372114 -1.55201 0
M  V30 7697 C 718.495 1.12053 -1.6747 0
M  V30 7698 O 717.551 1.90642 -1.65566 0
M  V30 7699 C 718.864 -1.12462 -2.78878 0
M  V30 7700 C 720.412 -1.10941 -2.92679 0
M  V30 7701 C 720.887 -1.84376 -4.19249 0
M  V30 7702 N 722.378 -1.81368 -4.26216 0
M  V30 7703 C 723.113 -2.35024 -5.23021 0
M  V30 7704 N 722.609 -2.9717 -6.25829 0
M  V30 7705 N 724.402 -2.25254 -5.14992 0
M  V30 7706 H 716.553 -1.66816 -1.31477 0
M  V30 7707 H 718.816 -0.704223 -0.634644 0
M  V30 7708 H 718.522 -2.17937 -2.76037 0
M  V30 7709 H 718.396 -0.706152 -3.70531 0
M  V30 7710 H 720.783 -0.062911 -2.95033 0
M  V30 7711 H 720.864 -1.56698 -2.02187 0
M  V30 7712 H 720.508 -2.89008 -4.17656 0
M  V30 7713 H 720.438 -1.3605 -5.08722 0
M  V30 7714 H 722.929 -1.36062 -3.52556 0
M  V30 7715 H 723.242 -3.35668 -6.96094 0
M  V30 7716 H 721.587 -3.01249 -6.26318 0
M  V30 7717 H 724.778 -1.76372 -4.33602 0
M  V30 7718 H 724.951 -2.67373 -5.90268 0
M  V30 7719 N 718.357 1.51182 -0.445186 0
M  V30 7720 C 719.604 2.02152 0.118645 0
M  V30 7721 C 719.932 1.32888 1.42025 0
M  V30 7722 O 719.187 0.435041 1.90803 0
M  V30 7723 C 719.486 3.55408 0.376797 0
M  V30 7724 C 719.152 4.43008 -0.839945 0
M  V30 7725 C 717.814 4.66669 -1.17361 0
M  V30 7726 C 720.166 4.9435 -1.65127 0
M  V30 7727 C 717.494 5.38919 -2.31913 0
M  V30 7728 C 719.846 5.67857 -2.78786 0
M  V30 7729 C 718.51 5.89779 -3.12597 0
M  V30 7730 H 717.78 0.739727 0.0434152 0
M  V30 7731 H 720.427 1.82055 -0.593984 0
M  V30 7732 H 718.732 3.73879 1.1714 0
M  V30 7733 H 720.429 3.92388 0.826602 0
M  V30 7734 H 717.019 4.24793 -0.569958 0
M  V30 7735 H 721.203 4.75947 -1.4067 0
M  V30 7736 H 716.459 5.54105 -2.58413 0
M  V30 7737 H 720.633 6.06628 -3.42017 0
M  V30 7738 H 718.26 6.45542 -4.01471 0
M  V30 7739 N 719.835 0.176821 1.56605 0
M  V30 7740 C 721.083 -0.465793 1.96659 0
M  V30 7741 C 721.404 -1.63406 1.06412 0
M  V30 7742 O 720.674 -1.95457 0.131603 0
M  V30 7743 H 719.254 -0.175072 0.726195 0
M  V30 7744 H 721.916 0.25929 1.93168 0
M  V30 7745 H 721.012 -0.822138 3.01077 0
M  V30 7746 N 721.313 -1.57302 -0.09688 0
M  V30 7747 C 722.26 -2.01933 -1.11766 0
M  V30 7748 C 723.23 -0.895329 -1.39904 0
M  V30 7749 O 724.415 -1.16119 -1.51397 0
M  V30 7750 C 721.555 -2.44726 -2.43317 0
M  V30 7751 C 720.668 -3.70639 -2.21925 0
M  V30 7752 C 719.803 -4.02318 -3.46862 0
M  V30 7753 C 718.842 -5.21346 -3.20725 0
M  V30 7754 N 717.979 -5.48787 -4.37924 0
M  V30 7755 H 722.819 -2.88919 -0.730075 0
M  V30 7756 H 720.356 -1.42901 -0.348962 0
M  V30 7757 H 722.314 -2.6758 -3.20088 0
M  V30 7758 H 720.944 -1.60753 -2.79926 0
M  V30 7759 H 719.996 -3.55271 -1.35965 0
M  V30 7760 H 721.308 -4.57557 -1.98603 0
M  V30 7761 H 720.462 -4.25939 -4.32042 0
M  V30 7762 H 719.201 -3.13918 -3.73238 0
M  V30 7763 H 718.206 -4.97547 -2.33938 0
M  V30 7764 H 719.431 -6.11343 -2.95697 0
M  V30 7765 H 717.377 -4.63346 -4.64378 0
M  V30 7766 H 717.294 -6.30073 -4.17785 0
M  V30 7767 H 718.562 -5.76943 -5.24173 0
M  V30 7768 N 722.791 0.367657 -1.53252 0
M  V30 7769 C 724.021 1.12955 -1.72988 0
M  V30 7770 C 724.429 1.8358 -0.457708 0
M  V30 7771 O 723.772 1.74336 0.579006 0
M  V30 7772 C 723.834 2.20545 -2.83902 0
M  V30 7773 C 723.498 1.69704 -4.24323 0
M  V30 7774 C 724.495 1.16223 -5.06743 0
M  V30 7775 C 722.18 1.7528 -4.70725 0
M  V30 7776 C 724.174 0.689935 -6.33655 0
M  V30 7777 C 721.861 1.27662 -5.97617 0
M  V30 7778 C 722.859 0.746083 -6.78913 0
M  V30 7779 O 722.547 0.276925 -8.03423 0
M  V30 7780 H 722.279 0.343753 -0.582074 0
M  V30 7781 H 724.833 0.433106 -2.00782 0
M  V30 7782 H 723.063 2.93676 -2.51577 0
M  V30 7783 H 724.752 2.82111 -2.91836 0
M  V30 7784 H 725.518 1.11256 -4.72067 0
M  V30 7785 H 721.397 2.15515 -4.07522 0
M  V30 7786 H 724.941 0.275164 -6.97057 0
M  V30 7787 H 720.838 1.32322 -6.31792 0
M  V30 7788 H 721.606 0.396445 -8.17539 0
M  V30 7789 N 724.269 1.44576 0.627338 0
M  V30 7790 C 725.199 1.54562 1.75022 0
M  V30 7791 C 726.18 0.398378 1.65369 0
M  V30 7792 O 727.365 0.61899 1.84071 0
M  V30 7793 C 724.495 1.49309 3.13567 0
M  V30 7794 C 723.449 2.62549 3.38012 0
M  V30 7795 C 722.775 2.42348 4.76625 0
M  V30 7796 C 724.075 4.04678 3.30202 0
M  V30 7797 H 725.769 2.4855 1.66922 0
M  V30 7798 H 723.315 1.19624 0.801636 0
M  V30 7799 H 725.268 1.54895 3.919 0
M  V30 7800 H 723.992 0.518392 3.2246 0
M  V30 7801 H 722.651 2.56358 2.62061 0
M  V30 7802 H 722.299 1.43062 4.82226 0
M  V30 7803 H 721.999 3.18273 4.93939 0
M  V30 7804 H 723.523 2.49758 5.57183 0
M  V30 7805 H 724.937 4.12217 3.98435 0
M  V30 7806 H 723.334 4.80836 3.5905 0
M  V30 7807 H 724.404 4.2798 2.27949 0
M  V30 7808 N 725.747 -0.868086 1.31537 0
M  V30 7809 C 726.657 -2.00801 1.21311 0
M  V30 7810 C 727.673 -1.73518 0.129431 0
M  V30 7811 O 728.849 -1.98378 0.347588 0
M  V30 7812 C 725.914 -3.3419 0.922935 0
M  V30 7813 C 724.975 -3.74783 2.0937 0
M  V30 7814 C 724.208 -5.01807 1.81728 0
M  V30 7815 O 724.431 -5.65404 0.753313 0
M  V30 7816 O 723.365 -5.39213 2.67457 0
M  V30 7817 H 727.191 -2.12361 2.17109 0
M  V30 7818 H 724.776 -0.996684 1.11295 0
M  V30 7819 H 726.658 -4.14174 0.777033 0
M  V30 7820 H 725.333 -3.237 -0.00500301 0
M  V30 7821 H 724.24 -2.95432 2.29501 0
M  V30 7822 H 725.573 -3.89902 3.00396 0
M  V30 7823 N 727.225 -1.14528 -1.08264 0
M  V30 7824 C 728.158 -0.777154 -2.14559 0
M  V30 7825 C 729.136 0.242165 -1.60787 0
M  V30 7826 O 730.32 0.130882 -1.88045 0
M  V30 7827 C 727.447 -0.154092 -3.38349 0
M  V30 7828 C 726.493 -1.14382 -4.10876 0
M  V30 7829 S 727.326 -2.68173 -4.63512 0
M  V30 7830 C 728.482 -2.0726 -5.90588 0
M  V30 7831 H 728.715 -1.67748 -2.45454 0
M  V30 7832 H 726.248 -0.966661 -1.20395 0
M  V30 7833 H 728.206 0.19897 -4.10018 0
M  V30 7834 H 726.867 0.723688 -3.05649 0
M  V30 7835 H 726.06 -0.655908 -4.99714 0
M  V30 7836 H 725.662 -1.44095 -3.45127 0
M  V30 7837 H 727.954 -1.42895 -6.62259 0
M  V30 7838 H 728.897 -2.94227 -6.44078 0
M  V30 7839 H 729.305 -1.51935 -5.43669 0
M  V30 7840 N 728.703 1.26451 -0.940633 0
M  V30 7841 C 729.65 2.264 -0.448497 0
M  V30 7842 C 730.62 1.5866 0.491546 0
M  V30 7843 O 731.805 1.86389 0.407874 0
M  V30 7844 C 728.945 3.43956 0.280715 0
M  V30 7845 C 728.058 4.26374 -0.694937 0
M  V30 7846 C 727.193 5.31171 0.0554186 0
M  V30 7847 C 726.232 6.05266 -0.912091 0
M  V30 7848 N 725.369 7.01833 -0.193524 0
M  V30 7849 H 730.209 2.67869 -1.30576 0
M  V30 7850 H 727.746 1.31707 -0.655112 0
M  V30 7851 H 729.704 4.10941 0.71994 0
M  V30 7852 H 728.334 3.03403 1.10212 0
M  V30 7853 H 727.386 3.59183 -1.25267 0
M  V30 7854 H 728.698 4.77748 -1.43382 0
M  V30 7855 H 727.852 6.04166 0.553951 0
M  V30 7856 H 726.591 4.80634 0.827183 0
M  V30 7857 H 725.596 5.31099 -1.42175 0
M  V30 7858 H 726.821 6.57893 -1.68385 0
M  V30 7859 H 724.767 6.53607 0.559758 0
M  V30 7860 H 724.684 7.50957 -0.871744 0
M  V30 7861 H 725.952 7.78983 0.283932 0
M  V30 7862 N 730.181 0.707592 1.40822 0
M  V30 7863 C 731.428 0.243671 2.01029 0
M  V30 7864 C 731.756 -1.16057 1.5608 0
M  V30 7865 O 731.011 -1.7999 0.768251 0
M  V30 7866 C 731.31 0.262892 3.56432 0
M  V30 7867 C 730.976 1.61632 4.20935 0
M  V30 7868 C 729.638 1.98682 4.38268 0
M  V30 7869 C 731.99 2.50619 4.5699 0
M  V30 7870 C 729.318 3.2428 4.88937 0
M  V30 7871 C 731.67 3.75562 5.09054 0
M  V30 7872 C 730.334 4.12739 5.24598 0
M  V30 7873 H 729.604 0.0891654 0.735616 0
M  V30 7874 H 732.251 0.909051 1.68548 0
M  V30 7875 H 730.556 -0.486052 3.88773 0
M  V30 7876 H 732.253 -0.113775 4.00839 0
M  V30 7877 H 728.843 1.31818 4.07826 0
M  V30 7878 H 733.027 2.23272 4.43242 0
M  V30 7879 H 728.283 3.53064 4.99155 0
M  V30 7880 H 732.457 4.44692 5.35931 0
M  V30 7881 H 730.084 5.10132 5.63622 0
M  V30 7882 N 731.66 -1.50943 0.453197 0
M  V30 7883 C 732.888 -2.06628 -0.106135 0
M  V30 7884 C 733.303 -1.31901 -1.35084 0
M  V30 7885 O 732.66 -0.383074 -1.78434 0
M  V30 7886 C 732.711 -3.5914 -0.412368 0
M  V30 7887 O 732.432 -4.31047 0.782948 0
M  V30 7888 C 733.933 -4.31391 -1.02064 0
M  V30 7889 H 731.153 -0.670999 -0.000885896 0
M  V30 7890 H 733.697 -1.94331 0.63684 0
M  V30 7891 H 731.852 -3.71299 -1.10526 0
M  V30 7892 H 732.266 -5.21948 0.516736 0
M  V30 7893 H 733.74 -5.39135 -1.1848 0
M  V30 7894 H 734.217 -3.90714 -2.00598 0
M  V30 7895 H 734.823 -4.23716 -0.366664 0
M  V30 7896 N 733.138 -0.185124 -1.56509 0
M  V30 7897 C 734.363 0.465278 -2.02114 0
M  V30 7898 C 734.788 1.55083 -1.06447 0
M  V30 7899 O 734.146 1.81241 -0.0462852 0
M  V30 7900 C 734.194 1.00784 -3.46229 0
M  V30 7901 O 733.298 2.12123 -3.53663 0
M  V30 7902 H 732.639 0.109891 -0.654843 0
M  V30 7903 H 735.169 -0.293072 -2.0249 0
M  V30 7904 H 735.179 1.32697 -3.85818 0
M  V30 7905 H 733.854 0.213113 -4.15354 0
M  V30 7906 H 732.431 1.8115 -3.25943 0
M  V30 7907 N 734.616 1.57351 0.0885366 0
M  V30 7908 C 735.841 1.91011 0.80805 0
M  V30 7909 C 736.266 0.780009 1.71165 0
M  V30 7910 O 735.624 -0.268083 1.79307 0
M  V30 7911 C 735.672 3.23562 1.59185 0
M  V30 7912 O 734.776 3.11615 2.7013 0
M  V30 7913 H 734.117 0.625943 0.221565 0
M  V30 7914 H 736.647 2.04507 0.0617954 0
M  V30 7915 H 736.657 3.5703 1.97468 0
M  V30 7916 H 735.332 4.05398 0.928741 0
M  V30 7917 H 733.909 2.89673 2.34827 0
M  V30 7918 N 736.094 -0.359525 1.53444 0
M  V30 7919 C 737.342 -1.09935 1.69584 0
M  V30 7920 C 737.663 -1.89656 0.453371 0
M  V30 7921 O 736.933 -1.8852 -0.53263 0
M  V30 7922 H 735.513 -0.408843 0.625185 0
M  V30 7923 H 738.175 -0.40467 1.90653 0
M  V30 7924 H 737.271 -1.78575 2.55964 0
M  V30 7925 N 737.572 -1.44907 -0.619662 0
M  V30 7926 C 738.535 -1.52282 -1.71297 0
M  V30 7927 C 739.535 -0.40359 -1.55653 0
M  V30 7928 O 740.725 -0.666638 -1.6094 0
M  V30 7929 C 737.857 -1.40778 -3.10474 0
M  V30 7930 H 739.05 -2.49683 -1.66128 0
M  V30 7931 H 736.603 -1.32168 -0.834339 0
M  V30 7932 H 737.338 -0.445156 -3.2123 0
M  V30 7933 H 737.123 -2.21947 -3.23237 0
M  V30 7934 H 738.613 -1.48946 -3.90135 0
M  V30 7935 N 739.05 0.861098 -1.31996 0
M  V30 7936 C 740.296 1.61721 -1.22369 0
M  V30 7937 C 740.629 1.93 0.215587 0
M  V30 7938 O 739.904 1.56789 1.15098 0
M  V30 7939 C 740.187 2.9417 -2.07691 0
M  V30 7940 C 740.04 2.69714 -3.59965 0
M  V30 7941 C 741.359 3.95372 -1.93312 0
M  V30 7942 H 738.478 0.586822 -0.44588 0
M  V30 7943 H 741.12 0.994788 -1.61876 0
M  V30 7944 H 739.27 3.47292 -1.74128 0
M  V30 7945 H 740.942 2.23196 -4.03709 0
M  V30 7946 H 739.185 2.03789 -3.82952 0
M  V30 7947 H 739.856 3.63996 -4.14983 0
M  V30 7948 H 742.332 3.51487 -2.22701 0
M  V30 7949 H 741.208 4.85916 -2.55298 0
M  V30 7950 H 741.469 4.32865 -0.898922 0
M  V30 7951 N 740.528 1.15101 1.07655 0
M  V30 7952 C 741.774 0.925343 1.80458 0
M  V30 7953 C 742.107 -0.546354 1.86356 0
M  V30 7954 O 741.382 -1.40496 1.34503 0
M  V30 7955 C 741.665 1.53646 3.25676 0
M  V30 7956 C 741.518 3.07854 3.27942 0
M  V30 7957 C 742.837 1.21968 4.22861 0
M  V30 7958 H 739.956 0.337592 0.655134 0
M  V30 7959 H 742.598 1.42217 1.25993 0
M  V30 7960 H 740.748 1.11395 3.72187 0
M  V30 7961 H 742.42 3.58989 2.89697 0
M  V30 7962 H 740.663 3.41904 2.66991 0
M  V30 7963 H 741.334 3.45725 4.30324 0
M  V30 7964 H 743.81 1.5851 3.84726 0
M  V30 7965 H 742.686 1.67349 5.22767 0
M  V30 7966 H 742.947 0.136207 4.4189 0
M  V30 7967 N 742.006 -1.2595 0.947325 0
M  V30 7968 C 743.254 -1.93081 0.596996 0
M  V30 7969 C 743.575 -1.74632 -0.867672 0
M  V30 7970 O 742.845 -1.1056 -1.6172 0
M  V30 7971 H 741.425 -0.714542 0.217805 0
M  V30 7972 H 744.087 -1.53265 1.20398 0
M  V30 7973 H 743.183 -3.01134 0.82004 0
M  V30 7974 N 743.484 -0.715051 -1.40445 0
M  V30 7975 C 744.447 -0.0708726 -2.2909 0
M  V30 7976 C 745.447 0.687926 -1.45342 0
M  V30 7977 O 746.637 0.519908 -1.66261 0
M  V30 7978 C 743.769 0.909528 -3.28543 0
M  V30 7979 H 744.962 -0.851611 -2.87555 0
M  V30 7980 H 742.515 -0.479674 -1.48758 0
M  V30 7981 H 743.25 1.71734 -2.75096 0
M  V30 7982 H 743.035 0.368318 -3.90366 0
M  V30 7983 H 744.525 1.35744 -3.94922 0
M  V30 7984 N 744.962 1.50701 -0.461195 0
M  V30 7985 C 745.894 2.26124 0.374244 0
M  V30 7986 C 746.907 1.31064 0.965715 0
M  V30 7987 O 748.096 1.56647 0.855801 0
M  V30 7988 C 745.196 3.01996 1.5379 0
M  V30 7989 C 744.369 4.24336 1.06101 0
M  V30 7990 C 743.428 4.82585 2.09756 0
M  V30 7991 O 742.454 5.43775 1.68219 0
M  V30 7992 N 743.656 4.68712 3.42475 0
M  V30 7993 H 746.421 2.9846 -0.2723 0
M  V30 7994 H 743.982 1.59256 -0.291415 0
M  V30 7995 H 745.974 3.37846 2.22806 0
M  V30 7996 H 744.544 2.32521 2.08933 0
M  V30 7997 H 743.764 3.93707 0.197085 0
M  V30 7998 H 745.052 5.03678 0.720156 0
M  V30 7999 H 744.45 4.20026 3.78938 0
M  V30 8000 H 743.007 5.08858 4.07317 0
M  V30 8001 N 746.441 0.193421 1.56409 0
M  V30 8002 C 747.69 -0.445995 1.96707 0
M  V30 8003 C 748.003 -1.62876 1.08309 0
M  V30 8004 O 749.209 -2.33586 1.38383 0
M  V30 8005 C 747.665 -0.844863 3.49843 0
M  V30 8006 C 747.273 0.31352 4.46902 0
M  V30 8007 C 749.017 -1.45146 3.98915 0
M  V30 8008 C 746.924 -0.106214 5.91305 0
M  V30 8009 H 745.854 -0.170398 0.734493 0
M  V30 8010 H 748.505 0.285172 1.81271 0
M  V30 8011 H 746.887 -1.63265 3.60778 0
M  V30 8012 H 748.061 1.09103 4.47698 0
M  V30 8013 H 746.376 0.8315 4.08014 0
M  V30 8014 H 748.973 -1.77792 5.04276 0
M  V30 8015 H 749.316 -2.35734 3.43126 0
M  V30 8016 H 749.849 -0.727675 3.91088 0
M  V30 8017 H 746.588 0.765442 6.51016 0
M  V30 8018 H 746.108 -0.848623 5.93766 0
M  V30 8019 H 747.787 -0.542588 6.44721 0
M  V30 8020 N 747.919 -1.57396 -0.0801906 0
M  V30 8021 C 749.144 -1.91437 -0.797909 0
M  V30 8022 C 749.569 -0.789075 -1.70749 0
M  V30 8023 O 748.927 0.25857 -1.79447 0
M  V30 8024 C 748.975 -3.24402 -1.57467 0
M  V30 8025 O 748.079 -3.13043 -2.68473 0
M  V30 8026 H 747.42 -0.627109 -0.218243 0
M  V30 8027 H 749.95 -2.04537 -0.050949 0
M  V30 8028 H 749.96 -3.58072 -1.95571 0
M  V30 8029 H 748.635 -4.05884 -0.907229 0
M  V30 8030 H 747.212 -2.90915 -2.33287 0
M  V30 8031 N 749.397 0.351382 -1.53633 0
M  V30 8032 C 750.307 1.45471 -1.84052 0
M  V30 8033 C 751.323 1.57945 -0.730015 0
M  V30 8034 O 752.499 1.73571 -1.02153 0
M  V30 8035 C 749.564 2.80562 -2.03681 0
M  V30 8036 C 748.625 2.77497 -3.27558 0
M  V30 8037 C 747.858 4.06144 -3.46241 0
M  V30 8038 O 748.081 5.03028 -2.68922 0
M  V30 8039 O 747.015 4.11092 -4.39645 0
M  V30 8040 H 750.841 1.22684 -2.77817 0
M  V30 8041 H 748.426 0.542827 -1.3919 0
M  V30 8042 H 750.308 3.6058 -2.18082 0
M  V30 8043 H 748.983 3.03296 -1.13106 0
M  V30 8044 H 747.89 1.96126 -3.18568 0
M  V30 8045 H 749.223 2.59716 -4.18101 0
M  V30 8046 N 750.875 1.45233 0.611969 0
M  V30 8047 C 752.105 1.52318 1.39581 0
M  V30 8048 C 752.513 0.153093 1.8858 0
M  V30 8049 O 751.856 -0.854792 1.62601 0
M  V30 8050 C 751.918 2.4426 2.63775 0
M  V30 8051 C 751.582 3.91079 2.36445 0
M  V30 8052 C 752.579 4.81099 1.97079 0
M  V30 8053 C 750.264 4.35958 2.49492 0
M  V30 8054 C 752.258 6.14002 1.71115 0
M  V30 8055 C 749.945 5.68903 2.23142 0
M  V30 8056 C 750.943 6.57744 1.84015 0
M  V30 8057 O 750.631 7.88226 1.5797 0
M  V30 8058 H 750.363 0.518428 0.43383 0
M  V30 8059 H 752.917 1.91067 0.753837 0
M  V30 8060 H 751.147 2.00474 3.30677 0
M  V30 8061 H 752.836 2.42077 3.25812 0
M  V30 8062 H 753.602 4.47692 1.86539 0
M  V30 8063 H 749.481 3.67053 2.78914 0
M  V30 8064 H 753.025 6.83305 1.405 0
M  V30 8065 H 748.922 6.01866 2.33297 0
M  V30 8066 H 749.69 8.00211 1.72058 0
M  V30 8067 N 752.353 -0.854086 1.3245 0
M  V30 8068 C 753.283 -1.97827 1.24044 0
M  V30 8069 C 754.264 -1.69646 0.124166 0
M  V30 8070 O 755.449 -1.91687 0.31143 0
M  V30 8071 C 752.579 -3.33673 0.963324 0
M  V30 8072 C 751.533 -3.76207 2.04089 0
M  V30 8073 C 750.859 -5.0969 1.61618 0
M  V30 8074 C 752.159 -3.91612 3.45597 0
M  V30 8075 H 753.853 -2.05118 2.18099 0
M  V30 8076 H 751.399 -0.985489 1.04996 0
M  V30 8077 H 753.352 -4.11871 0.891061 0
M  V30 8078 H 752.076 -3.26597 -0.0128649 0
M  V30 8079 H 750.735 -3.0026 2.10332 0
M  V30 8080 H 750.383 -4.99072 0.627418 0
M  V30 8081 H 750.083 -5.3912 2.33717 0
M  V30 8082 H 751.607 -5.90381 1.55829 0
M  V30 8083 H 753.021 -4.60163 3.4194 0
M  V30 8084 H 751.418 -4.3246 4.16051 0
M  V30 8085 H 752.488 -2.9451 3.85217 0
M  V30 8086 N 753.831 -1.1567 -1.07043 0
M  V30 8087 C 754.761 -0.879348 -2.16309 0
M  V30 8088 C 755.742 0.171311 -1.69235 0
M  V30 8089 O 756.927 0.0250175 -1.94184 0
M  V30 8090 C 754.057 -0.371307 -3.45309 0
M  V30 8091 C 753.011 -1.359 -4.05851 0
M  V30 8092 C 752.337 -0.709678 -5.29969 0
M  V30 8093 C 753.637 -2.72606 -4.45514 0
M  V30 8094 H 755.331 -1.79308 -2.39768 0
M  V30 8095 H 752.877 -0.863558 -1.15233 0
M  V30 8096 H 754.83 -0.164798 -4.21078 0
M  V30 8097 H 753.554 0.577906 -3.21446 0
M  V30 8098 H 752.213 -1.55193 -3.32131 0
M  V30 8099 H 751.861 0.245782 -5.02399 0
M  V30 8100 H 751.561 -1.36886 -5.71433 0
M  V30 8101 H 753.085 -0.513015 -6.08441 0
M  V30 8102 H 754.499 -2.57141 -5.12398 0
M  V30 8103 H 752.896 -3.34927 -4.97939 0
M  V30 8104 H 753.966 -3.28434 -3.56734 0
M  V30 8105 N 755.309 1.25446 -0.953992 0
M  V30 8106 C 756.219 2.29632 -0.480264 0
M  V30 8107 C 757.235 1.68025 0.452071 0
M  V30 8108 O 758.411 1.98703 0.328472 0
M  V30 8109 C 755.476 3.45903 0.234974 0
M  V30 8110 C 754.537 4.22953 -0.735495 0
M  V30 8111 C 753.77 5.33672 -0.0542957 0
M  V30 8112 O 753.993 5.58477 1.16018 0
M  V30 8113 O 752.927 5.9734 -0.739509 0
M  V30 8114 H 756.753 2.72242 -1.34602 0
M  V30 8115 H 754.338 1.30883 -0.720419 0
M  V30 8116 H 756.22 4.16552 0.637341 0
M  V30 8117 H 754.895 3.05296 1.07592 0
M  V30 8118 H 753.802 3.54734 -1.18806 0
M  V30 8119 H 755.135 4.67341 -1.54444 0
M  V30 8120 N 756.787 0.722489 1.40064 0
M  V30 8121 C 757.734 0.0743738 2.3068 0
M  V30 8122 C 758.704 -0.743004 1.48555 0
M  V30 8123 O 759.889 -0.705536 1.77276 0
M  V30 8124 C 757.029 -0.836292 3.34814 0
M  V30 8125 C 756.142 -0.00764663 4.31999 0
M  V30 8126 C 755.277 -0.918428 5.232 0
M  V30 8127 C 754.316 -0.0842838 6.12042 0
M  V30 8128 N 753.453 -0.950316 6.95639 0
M  V30 8129 H 758.293 0.852794 2.85537 0
M  V30 8130 H 755.83 0.432222 1.40607 0
M  V30 8131 H 757.788 -1.3786 3.93765 0
M  V30 8132 H 756.418 -1.58082 2.81443 0
M  V30 8133 H 755.47 0.651928 3.74772 0
M  V30 8134 H 756.782 0.63786 4.94705 0
M  V30 8135 H 755.936 -1.52902 5.87116 0
M  V30 8136 H 754.675 -1.59774 4.60786 0
M  V30 8137 H 753.68 0.5392 5.4715 0
M  V30 8138 H 754.905 0.591628 6.76518 0
M  V30 8139 H 752.851 -1.61515 6.35806 0
M  V30 8140 H 752.768 -0.361004 7.55138 0
M  V30 8141 H 754.036 -1.54687 7.63997 0
M  V30 8142 N 758.265 -1.50454 0.469181 0
M  V30 8143 C 759.49 -2.0722 -0.0864892 0
M  V30 8144 C 759.915 -1.33098 -1.32916 0
M  V30 8145 O 759.273 -0.378084 -1.77314 0
M  V30 8146 C 759.321 -3.58845 -0.355384 0
M  V30 8147 O 758.425 -3.86583 -1.43622 0
M  V30 8148 H 757.766 -0.663889 0.0121414 0
M  V30 8149 H 760.296 -1.93674 0.659674 0
M  V30 8150 H 760.306 -4.03617 -0.596447 0
M  V30 8151 H 758.981 -4.12211 0.552698 0
M  V30 8152 H 757.558 -3.5365 -1.18262 0
M  V30 8153 N 759.743 -0.201713 -1.56304 0
M  V30 8154 C 761.159 0.154025 -1.58855 0
M  V30 8155 C 761.359 1.60516 -1.21807 0
M  V30 8156 O 760.415 2.34193 -0.94393 0
M  V30 8157 C 761.728 -0.154319 -3.00304 0
M  V30 8158 C 763.276 -0.0949578 -3.12856 0
M  V30 8159 C 763.751 -0.376703 -4.56448 0
M  V30 8160 N 765.242 -0.325558 -4.62054 0
M  V30 8161 C 765.977 -0.51732 -5.71062 0
M  V30 8162 N 765.473 -0.769789 -6.8851 0
M  V30 8163 N 767.266 -0.45112 -5.60287 0
M  V30 8164 H 759.417 -1.14858 -1.78666 0
M  V30 8165 H 761.68 -0.458934 -0.829508 0
M  V30 8166 H 761.386 -1.16074 -3.31994 0
M  V30 8167 H 761.26 0.540014 -3.73314 0
M  V30 8168 H 763.647 0.902075 -2.80974 0
M  V30 8169 H 763.728 -0.822468 -2.42217 0
M  V30 8170 H 763.372 -1.37108 -4.89044 0
M  V30 8171 H 763.302 0.371772 -5.25286 0
M  V30 8172 H 765.793 -0.137308 -3.7765 0
M  V30 8173 H 766.106 -0.904744 -7.67486 0
M  V30 8174 H 764.451 -0.806758 -6.90302 0
M  V30 8175 H 767.642 -0.254253 -4.67409 0
M  V30 8176 H 767.815 -0.603982 -6.45179 0
M  V30 8177 N 761.222 1.57436 0.0718424 0
M  V30 8178 C 762.468 1.87525 0.772149 0
M  V30 8179 C 762.801 0.79399 1.77227 0
M  V30 8180 O 762.076 -0.195733 1.93513 0
M  V30 8181 C 762.359 3.28272 1.48018 0
M  V30 8182 C 762.212 4.47052 0.49647 0
M  V30 8183 C 763.531 3.67256 2.42509 0
M  V30 8184 H 760.65 0.682049 0.279245 0
M  V30 8185 H 763.292 1.89967 0.03534 0
M  V30 8186 H 761.442 3.26321 2.10824 0
M  V30 8187 H 763.114 4.61127 -0.126375 0
M  V30 8188 H 761.357 4.33392 -0.188205 0
M  V30 8189 H 762.028 5.42315 1.02949 0
M  V30 8190 H 764.504 3.70301 1.89781 0
M  V30 8191 H 763.38 4.66626 2.89053 0
M  V30 8192 H 763.641 2.97186 3.27312 0
M  V30 8193 N 762.7 -0.34323 1.53817 0
M  V30 8194 C 763.949 -1.08086 1.70295 0
M  V30 8195 C 764.262 -1.89794 0.47302 0
M  V30 8196 O 765.468 -2.66498 0.518754 0
M  V30 8197 C 763.924 -1.97097 3.01133 0
M  V30 8198 C 763.532 -1.20594 4.31464 0
M  V30 8199 C 765.276 -2.70715 3.26976 0
M  V30 8200 C 763.183 -2.08636 5.53376 0
M  V30 8201 H 762.113 -0.407228 0.634572 0
M  V30 8202 H 764.764 -0.340328 1.80316 0
M  V30 8203 H 763.146 -2.74971 2.84969 0
M  V30 8204 H 764.32 -0.476282 4.58332 0
M  V30 8205 H 762.635 -0.587426 4.12236 0
M  V30 8206 H 765.232 -3.36857 4.15248 0
M  V30 8207 H 765.575 -3.37299 2.43998 0
M  V30 8208 H 766.108 -1.99914 3.43917 0
M  V30 8209 H 762.847 -1.46594 6.38898 0
M  V30 8210 H 762.367 -2.7939 5.30755 0
M  V30 8211 H 764.046 -2.67682 5.89029 0
M  V30 8212 N 764.178 -1.45556 -0.604258 0
M  V30 8213 C 765.128 -1.50906 -1.70913 0
M  V30 8214 C 766.112 -0.371996 -1.56541 0
M  V30 8215 O 767.304 -0.619064 -1.65821 0
M  V30 8216 C 764.433 -1.48181 -3.09673 0
M  V30 8217 C 763.519 -2.67102 -3.2942 0
M  V30 8218 N 763.91 -3.92184 -3.19414 0
M  V30 8219 C 762.208 -2.6287 -3.60299 0
M  V30 8220 C 762.909 -4.71571 -3.40581 0
M  V30 8221 N 761.885 -4.03081 -3.64728 0
M  V30 8222 H 765.687 -2.45435 -1.61675 0
M  V30 8223 H 763.201 -1.40894 -0.807622 0
M  V30 8224 H 765.198 -1.501 -3.88942 0
M  V30 8225 H 763.858 -0.54712 -3.20057 0
M  V30 8226 H 764.869 -4.23756 -2.97743 0
M  V30 8227 H 761.546 -1.78324 -3.77501 0
M  V30 8228 H 762.936 -5.80571 -3.38211 0
M  V30 8229 N 765.656 0.84705 -1.32902 0
M  V30 8230 C 766.588 1.96308 -1.18304 0
M  V30 8231 C 767.601 1.62386 -0.116082 0
M  V30 8232 O 768.79 1.74713 -0.365751 0
M  V30 8233 C 765.89 3.29556 -0.790305 0
M  V30 8234 C 765.063 3.91668 -1.94717 0
M  V30 8235 C 764.122 5.0326 -1.53674 0
M  V30 8236 O 763.148 5.22847 -2.24989 0
M  V30 8237 N 764.35 5.78852 -0.437075 0
M  V30 8238 H 767.115 2.09369 -2.14441 0
M  V30 8239 H 764.676 1.02233 -1.25539 0
M  V30 8240 H 766.668 4.01624 -0.49799 0
M  V30 8241 H 765.238 3.12497 0.0801286 0
M  V30 8242 H 764.458 3.12292 -2.40557 0
M  V30 8243 H 765.746 4.299 -2.72146 0
M  V30 8244 H 765.144 5.65484 0.156316 0
M  V30 8245 H 763.701 6.51479 -0.204399 0
M  V30 8246 N 767.134 1.16236 1.06428 0
M  V30 8247 C 768.097 0.870163 2.1204 0
M  V30 8248 C 769.097 -0.134239 1.60239 0
M  V30 8249 O 770.287 0.0964932 1.73933 0
M  V30 8250 C 767.419 0.301033 3.39568 0
M  V30 8251 H 768.612 1.8064 2.39394 0
M  V30 8252 H 766.165 0.971116 1.2247 0
M  V30 8253 H 766.9 -0.642948 3.17863 0
M  V30 8254 H 766.685 1.02475 3.78472 0
M  V30 8255 H 768.175 0.114494 4.17443 0
M  V30 8256 N 768.612 -1.24939 0.960631 0
M  V30 8257 C 769.861 -1.92118 0.614298 0
M  V30 8258 C 770.174 -1.75998 -0.853474 0
M  V30 8259 O 771.38 -2.37804 -1.31003 0
M  V30 8260 C 769.836 -3.44303 1.04801 0
M  V30 8261 C 769.444 -3.69123 2.53875 0
M  V30 8262 C 771.188 -4.17375 0.774497 0
M  V30 8263 C 769.095 -5.14843 2.91016 0
M  V30 8264 H 768.025 -0.719319 0.226045 0
M  V30 8265 H 770.676 -1.41701 1.16589 0
M  V30 8266 H 769.058 -3.93715 0.42479 0
M  V30 8267 H 770.232 -3.30339 3.21267 0
M  V30 8268 H 768.547 -3.09323 2.78762 0
M  V30 8269 H 771.144 -5.24723 1.02808 0
M  V30 8270 H 771.487 -4.15294 -0.289192 0
M  V30 8271 H 772.02 -3.7389 1.35835 0
M  V30 8272 H 768.759 -5.2204 3.96427 0
M  V30 8273 H 768.279 -5.54652 2.28302 0
M  V30 8274 H 769.958 -5.83017 2.80535 0
M  V30 8275 N 770.09 -0.729906 -1.39679 0
M  V30 8276 C 771.338 -0.275077 -2.00219 0
M  V30 8277 C 771.659 1.1401 -1.58199 0
M  V30 8278 O 770.929 1.77546 -0.827904 0
M  V30 8279 H 769.509 -0.0987127 -0.740449 0
M  V30 8280 H 772.171 -0.93873 -1.70804 0
M  V30 8281 H 771.267 -0.319446 -3.10461 0
M  V30 8282 N 771.568 1.50203 -0.477153 0
M  V30 8283 C 772.478 2.32421 0.319027 0
M  V30 8284 C 773.494 1.43075 0.990233 0
M  V30 8285 O 774.67 1.76123 0.976873 0
M  V30 8286 C 771.735 3.17909 1.38328 0
M  V30 8287 C 770.796 4.23082 0.728036 0
M  V30 8288 C 770.029 5.04484 1.74158 0
M  V30 8289 O 770.252 4.8705 2.96881 0
M  V30 8290 O 769.186 5.8747 1.31006 0
M  V30 8291 H 773.012 3.01638 -0.353281 0
M  V30 8292 H 770.597 1.47478 -0.238891 0
M  V30 8293 H 772.479 3.70937 1.9996 0
M  V30 8294 H 771.154 2.51413 2.03895 0
M  V30 8295 H 770.061 3.7403 0.07261 0
M  V30 8296 H 771.394 4.92065 0.115216 0
M  V30 8297 N 773.046 0.209999 1.56195 0
M  V30 8298 C 773.993 -0.704854 2.19774 0
M  V30 8299 C 774.963 -1.19886 1.14964 0
M  V30 8300 O 776.148 -1.26005 1.43274 0
M  V30 8301 C 773.288 -1.91241 2.87265 0
M  V30 8302 C 772.401 -1.45838 4.06639 0
M  V30 8303 C 771.536 -2.6226 4.61945 0
M  V30 8304 C 770.575 -2.13537 5.73645 0
M  V30 8305 N 769.712 -3.2319 6.23292 0
M  V30 8306 H 774.552 -0.155944 2.97592 0
M  V30 8307 H 772.089 -0.0652235 1.46955 0
M  V30 8308 H 774.047 -2.62123 3.24573 0
M  V30 8309 H 772.677 -2.43439 2.11985 0
M  V30 8310 H 771.729 -0.644897 3.74894 0
M  V30 8311 H 773.041 -1.06103 4.87384 0
M  V30 8312 H 772.195 -3.41243 5.01636 0
M  V30 8313 H 770.934 -3.05278 3.80338 0
M  V30 8314 H 769.939 -1.33013 5.33468 0
M  V30 8315 H 771.164 -1.71533 6.57079 0
M  V30 8316 H 769.11 -3.65711 5.44602 0
M  V30 8317 H 769.027 -2.8767 6.99129 0
M  V30 8318 H 770.295 -4.02342 6.67639 0
M  V30 8319 N 774.524 -1.57472 -0.0634922 0
M  V30 8320 C 775.472 -2.05307 -1.09323 0
M  V30 8321 C 776.466 -0.959995 -1.39572 0
M  V30 8322 O 777.672 -1.14507 -1.38882 0
M  V30 8323 H 774.047 -0.65472 -0.369927 0
M  V30 8324 H 776.018 -2.90925 -0.663707 0
M  V30 8325 C 774.767 -2.51954 -2.39613 0
M  V30 8326 H 774.09 -3.35662 -2.1719 0
M  V30 8327 H 775.53 -2.89169 -3.10092 0
M  V30 8328 C 773.989 -1.40596 -3.06161 0
M  V30 8329 O 774.519 -0.752722 -3.94585 0
M  V30 8330 N 772.725 -1.14902 -2.66919 0
M  V30 8331 H 772.272 -1.68205 -1.95102 0
M  V30 8332 H 772.23 -0.406006 -3.11767 0
M  V30 8333 N 776.003 0.335068 -1.53997 0
M  V30 8334 C 777.25 1.07435 -1.71651 0
M  V30 8335 C 777.578 1.88378 -0.48413 0
M  V30 8336 O 776.833 1.8827 0.534139 0
M  V30 8337 C 777.132 2.0364 -2.9371 0
M  V30 8338 C 776.798 1.38942 -4.28959 0
M  V30 8339 C 775.46 1.21027 -4.65732 0
M  V30 8340 C 777.812 0.924083 -5.12943 0
M  V30 8341 C 775.14 0.552097 -5.84097 0
M  V30 8342 C 777.492 0.27978 -6.31981 0
M  V30 8343 C 776.156 0.0883843 -6.67441 0
M  V30 8344 H 775.426 0.393133 -0.628114 0
M  V30 8345 H 778.073 0.352712 -1.88224 0
M  V30 8346 H 776.378 2.82215 -2.71775 0
M  V30 8347 H 778.075 2.6085 -3.04562 0
M  V30 8348 H 774.665 1.53885 -4.00022 0
M  V30 8349 H 778.849 1.05032 -4.85059 0
M  V30 8350 H 774.105 0.392502 -6.10139 0
M  V30 8351 H 778.279 -0.0888479 -6.96343 0
M  V30 8352 H 775.906 -0.423657 -7.59019 0
M  V30 8353 N 777.481 1.45874 0.596531 0
M  V30 8354 C 778.431 1.5181 1.70111 0
M  V30 8355 C 779.415 0.380293 1.56341 0
M  V30 8356 O 780.607 0.627849 1.6549 0
M  V30 8357 C 777.736 1.49822 3.08883 0
M  V30 8358 C 776.822 2.68845 3.27998 0
M  V30 8359 N 777.213 3.93873 3.17329 0
M  V30 8360 C 775.511 2.64777 3.589 0
M  V30 8361 C 776.212 4.73371 3.38076 0
M  V30 8362 N 775.188 4.0501 3.62585 0
M  V30 8363 H 778.99 2.46289 1.60372 0
M  V30 8364 H 776.504 1.41321 0.800138 0
M  V30 8365 H 778.501 1.5216 3.8814 0
M  V30 8366 H 777.161 0.564086 3.19763 0
M  V30 8367 H 778.172 4.25329 2.95492 0
M  V30 8368 H 774.849 1.80323 3.7655 0
M  V30 8369 H 776.239 5.82357 3.35127 0
M  V30 8370 N 778.959 -0.83999 1.33349 0
M  V30 8371 C 780.208 -1.59011 1.2409 0
M  V30 8372 C 780.521 -1.94655 -0.192029 0
M  V30 8373 O 781.727 -2.68438 -0.406617 0
M  V30 8374 C 780.183 -2.86801 2.17425 0
M  V30 8375 C 779.791 -2.58525 3.65881 0
M  V30 8376 C 781.535 -3.64823 2.17036 0
M  V30 8377 C 779.442 -3.82404 4.51133 0
M  V30 8378 H 778.372 -0.596731 0.460899 0
M  V30 8379 H 781.023 -0.926274 1.58406 0
M  V30 8380 H 779.405 -3.54719 1.7604 0
M  V30 8381 H 780.579 -1.98824 4.15699 0
M  V30 8382 H 778.894 -1.93808 3.68548 0
M  V30 8383 H 781.491 -4.56774 2.7796 0
M  V30 8384 H 781.834 -3.99663 1.16513 0
M  V30 8385 H 782.367 -3.03826 2.56777 0
M  V30 8386 H 779.106 -3.52696 5.52527 0
M  V30 8387 H 778.626 -4.41447 4.0606 0
M  V30 8388 H 780.305 -4.49995 4.6488 0
M  V30 8389 N 780.437 -1.16799 -1.0581 0
M  V30 8390 C 781.684 -0.952524 -1.78699 0
M  V30 8391 C 782.012 0.51931 -1.87439 0
M  V30 8392 O 781.267 1.40151 -1.36587 0
M  V30 8393 C 781.566 -1.53111 -3.22942 0
M  V30 8394 C 781.232 -3.0261 -3.34273 0
M  V30 8395 C 779.894 -3.43418 -3.37072 0
M  V30 8396 C 782.246 -3.98611 -3.35795 0
M  V30 8397 C 779.574 -4.78838 -3.39015 0
M  V30 8398 C 781.926 -5.33923 -3.39277 0
M  V30 8399 C 780.59 -5.74205 -3.40361 0
M  V30 8400 H 779.86 -0.348553 -0.653905 0
M  V30 8401 H 782.507 -1.45591 -1.244 0
M  V30 8402 H 780.812 -0.949286 -3.80126 0
M  V30 8403 H 782.509 -1.34002 -3.77948 0
M  V30 8404 H 779.099 -2.70075 -3.32803 0
M  V30 8405 H 783.283 -3.68146 -3.32839 0
M  V30 8406 H 778.539 -5.09369 -3.38161 0
M  V30 8407 H 782.713 -6.08094 -3.39403 0
M  V30 8408 H 780.34 -6.79117 -3.4162 0
M  V30 8409 N 781.915 1.24427 -0.967243 0
M  V30 8410 C 783.145 1.96256 -0.64554 0
M  V30 8411 C 783.553 1.71959 0.789098 0
M  V30 8412 O 782.896 0.999913 1.54102 0
M  V30 8413 C 782.958 3.49553 -0.839798 0
M  V30 8414 C 782.622 3.97548 -2.25399 0
M  V30 8415 C 783.619 4.07257 -3.23168 0
M  V30 8416 C 781.304 4.30884 -2.58156 0
M  V30 8417 C 783.298 4.49635 -4.51782 0
M  V30 8418 C 780.985 4.72946 -3.86996 0
M  V30 8419 C 781.983 4.82286 -4.83621 0
M  V30 8420 O 781.671 5.23409 -6.10162 0
M  V30 8421 H 781.403 0.632002 -0.239895 0
M  V30 8422 H 783.957 1.59224 -1.29757 0
M  V30 8423 H 782.187 3.86479 -0.130603 0
M  V30 8424 H 783.876 4.02591 -0.517249 0
M  V30 8425 H 784.642 3.8172 -2.9919 0
M  V30 8426 H 780.521 4.22833 -1.83666 0
M  V30 8427 H 784.065 4.5684 -5.27203 0
M  V30 8428 H 779.962 4.9793 -4.10775 0
M  V30 8429 H 780.73 5.4156 -6.13722 0
M  V30 8430 N 783.393 0.737304 1.3929 0
M  V30 8431 C 784.623 0.296143 2.04467 0
M  V30 8432 C 785.031 -1.0748 1.55707 0
M  V30 8433 O 784.374 -1.69082 0.718123 0
M  V30 8434 C 784.436 0.222161 3.58813 0
M  V30 8435 C 784.1 1.53195 4.30558 0
M  V30 8436 C 785.097 2.47809 4.57041 0
M  V30 8437 C 782.782 1.79688 4.6906 0
M  V30 8438 C 784.776 3.67147 5.21039 0
M  V30 8439 C 782.463 2.99304 5.32785 0
M  V30 8440 C 783.461 3.92855 5.58708 0
M  V30 8441 O 783.149 5.1037 6.2111 0
M  V30 8442 H 782.881 0.126896 0.663983 0
M  V30 8443 H 785.435 1.00242 1.79278 0
M  V30 8444 H 783.665 -0.540239 3.82908 0
M  V30 8445 H 785.354 -0.187311 4.05468 0
M  V30 8446 H 786.12 2.28611 4.2774 0
M  V30 8447 H 781.999 1.07716 4.48239 0
M  V30 8448 H 785.543 4.40183 5.41188 0
M  V30 8449 H 781.44 3.18401 5.61508 0
M  V30 8450 H 782.208 5.10735 6.39603 0
M  V30 8451 N 784.871 -1.49948 0.485112 0
M  V30 8452 C 786.12 -2.01589 -0.066765 0
M  V30 8453 C 786.433 -1.371 -1.39509 0
M  V30 8454 O 787.639 -1.79978 -2.03274 0
M  V30 8455 C 786.095 -3.59501 -0.169476 0
M  V30 8456 C 785.703 -4.32955 1.15126 0
M  V30 8457 C 787.447 -4.19138 -0.672564 0
M  V30 8458 C 785.354 -5.82684 1.01158 0
M  V30 8459 H 784.284 -0.753453 -0.0287259 0
M  V30 8460 H 786.935 -1.72632 0.622132 0
M  V30 8461 H 785.317 -3.85106 -0.922471 0
M  V30 8462 H 786.491 -4.19064 1.9163 0
M  V30 8463 H 784.806 -3.84991 1.58654 0
M  V30 8464 H 787.403 -5.28767 -0.794325 0
M  V30 8465 H 787.746 -3.81447 -1.66745 0
M  V30 8466 H 788.279 -3.97793 0.0234415 0
M  V30 8467 H 785.018 -6.24873 1.98025 0
M  V30 8468 H 784.538 -5.99112 0.287151 0
M  V30 8469 H 786.217 -6.43376 0.683847 0
M  V30 8470 N 786.349 -0.21828 -1.56081 0
M  V30 8471 C 787.579 0.41865 -2.02314 0
M  V30 8472 C 787.987 1.54124 -1.09739 0
M  V30 8473 O 787.33 1.83435 -0.0986829 0
M  V30 8474 C 787.392 1.01439 -3.44892 0
M  V30 8475 C 787.056 0.0276523 -4.56992 0
M  V30 8476 C 788.053 -0.771526 -5.14143 0
M  V30 8477 C 785.738 -0.0901537 -5.02219 0
M  V30 8478 C 787.732 -1.67525 -6.14991 0
M  V30 8479 C 785.419 -0.997411 -6.02905 0
M  V30 8480 C 786.417 -1.78851 -6.59167 0
M  V30 8481 O 786.105 -2.68052 -7.57894 0
M  V30 8482 H 785.837 0.107066 -0.667468 0
M  V30 8483 H 788.391 -0.331191 -2.02712 0
M  V30 8484 H 786.621 1.81326 -3.41552 0
M  V30 8485 H 788.31 1.55838 -3.74792 0
M  V30 8486 H 789.076 -0.690945 -4.80053 0
M  V30 8487 H 784.955 0.515474 -4.58109 0
M  V30 8488 H 788.499 -2.29316 -6.58832 0
M  V30 8489 H 784.396 -1.07902 -6.36418 0
M  V30 8490 H 785.164 -2.6209 -7.75404 0
M  V30 8491 N 787.827 1.57504 0.0551401 0
M  V30 8492 C 788.79 2.03826 1.04821 0
M  V30 8493 C 789.79 0.937968 1.30609 0
M  V30 8494 O 790.98 1.20237 1.2605 0
M  V30 8495 C 788.112 2.43309 2.38775 0
M  V30 8496 H 789.305 2.92802 0.6486 0
M  V30 8497 H 786.858 1.53368 0.301315 0
M  V30 8498 H 787.593 1.5741 2.83536 0
M  V30 8499 H 787.378 3.23615 2.21395 0
M  V30 8500 H 788.868 2.79666 3.10124 0
M  V30 8501 N 789.305 -0.326896 1.54172 0
M  V30 8502 C 790.553 -1.06313 1.71878 0
M  V30 8503 C 790.874 -1.88652 0.493498 0
M  V30 8504 O 790.144 -1.89608 -0.492522 0
M  V30 8505 H 788.724 -0.39549 0.633716 0
M  V30 8506 H 791.386 -0.364139 1.91468 0
M  V30 8507 H 790.482 -1.73105 2.59694 0
M  V30 8508 N 790.784 -1.46188 -0.588786 0
M  V30 8509 C 791.714 -1.59148 -1.70863 0
M  V30 8510 C 792.695 -0.442083 -1.64255 0
M  V30 8511 O 793.88 -0.667575 -1.82365 0
M  V30 8512 C 791.01 -1.5757 -3.09498 0
M  V30 8513 C 789.964 -2.71418 -3.30932 0
M  V30 8514 C 789.29 -2.549 -4.70032 0
M  V30 8515 C 790.59 -4.1329 -3.19356 0
M  V30 8516 H 792.284 -2.52889 -1.60274 0
M  V30 8517 H 789.83 -1.21707 -0.769638 0
M  V30 8518 H 791.783 -1.65231 -3.87655 0
M  V30 8519 H 790.507 -0.603705 -3.20972 0
M  V30 8520 H 789.166 -2.63216 -2.55172 0
M  V30 8521 H 788.814 -1.55797 -4.78264 0
M  V30 8522 H 788.514 -3.31257 -4.85327 0
M  V30 8523 H 790.038 -2.64443 -5.50366 0
M  V30 8524 H 791.452 -4.22636 -3.87365 0
M  V30 8525 H 789.849 -4.90187 -3.46175 0
M  V30 8526 H 790.919 -4.33874 -2.16522 0
M  V30 8527 N 792.262 0.832906 -1.33792 0
M  V30 8528 C 793.225 1.92471 -1.24449 0
M  V30 8529 C 794.225 1.59981 -0.162085 0
M  V30 8530 O 795.415 1.69208 -0.414029 0
M  V30 8531 C 792.547 3.28278 -0.919044 0
M  V30 8532 H 793.74 2.0218 -2.21502 0
M  V30 8533 H 791.293 1.0257 -1.17936 0
M  V30 8534 H 792.028 3.24263 0.048738 0
M  V30 8535 H 791.813 3.53241 -1.70187 0
M  V30 8536 H 793.303 4.08253 -0.878576 0
M  V30 8537 N 793.74 1.17359 1.05189 0
M  V30 8538 C 794.65 0.904984 2.16442 0
M  V30 8539 C 795.666 -0.12686 1.73537 0
M  V30 8540 O 796.842 0.0524127 2.01332 0
M  V30 8541 C 793.907 0.422019 3.44122 0
M  V30 8542 C 792.968 1.52045 4.01473 0
M  V30 8543 C 792.201 1.06044 5.23059 0
M  V30 8544 O 792.424 -0.0854023 5.70336 0
M  V30 8545 O 791.358 1.85349 5.72651 0
M  V30 8546 H 795.184 1.8356 2.41949 0
M  V30 8547 H 792.769 0.95447 1.14936 0
M  V30 8548 H 794.651 0.160208 4.21095 0
M  V30 8549 H 793.326 -0.480444 3.20115 0
M  V30 8550 H 792.233 1.83615 3.25939 0
M  V30 8551 H 793.566 2.39863 4.29798 0
M  V30 8552 N 795.218 -1.23913 0.973828 0
M  V30 8553 C 796.165 -2.25132 0.508366 0
M  V30 8554 C 797.135 -1.59908 -0.449307 0
M  V30 8555 O 798.32 -1.87405 -0.358313 0
M  V30 8556 C 795.46 -3.4458 -0.189422 0
M  V30 8557 C 794.573 -4.24381 0.807738 0
M  V30 8558 C 793.708 -5.31131 0.0854315 0
M  V30 8559 C 792.747 -6.02635 1.07225 0
M  V30 8560 N 791.884 -7.01073 0.379535 0
M  V30 8561 H 796.724 -2.64313 1.37632 0
M  V30 8562 H 794.261 -1.29924 0.689802 0
M  V30 8563 H 796.219 -4.12706 -0.610733 0
M  V30 8564 H 794.849 -3.06218 -1.02129 0
M  V30 8565 H 793.901 -3.55735 1.34747 0
M  V30 8566 H 795.213 -4.73778 1.55998 0
M  V30 8567 H 794.367 -6.05422 -0.393572 0
M  V30 8568 H 793.106 -4.82658 -0.699461 0
M  V30 8569 H 792.111 -5.27143 1.56207 0
M  V30 8570 H 793.336 -6.53197 1.85769 0
M  V30 8571 H 791.282 -6.54862 -0.386269 0
M  V30 8572 H 791.199 -7.48382 1.07054 0
M  V30 8573 H 792.467 -7.79462 -0.0772984 0
M  V30 8574 N 796.696 -0.74468 -1.38897 0
M  V30 8575 C 797.643 -0.111064 -2.30533 0
M  V30 8576 C 798.613 0.719276 -1.49719 0
M  V30 8577 O 799.798 0.677244 -1.78376 0
M  V30 8578 C 796.938 0.78292 -3.36102 0
M  V30 8579 C 796.051 -0.0610817 -4.31957 0
M  V30 8580 C 795.186 0.835075 -5.24595 0
M  V30 8581 C 794.225 -0.0130974 -6.12099 0
M  V30 8582 N 793.362 0.839525 -6.97063 0
M  V30 8583 H 798.202 -0.898113 -2.84144 0
M  V30 8584 H 795.739 -0.454537 -1.39901 0
M  V30 8585 H 797.697 1.31578 -3.95908 0
M  V30 8586 H 796.327 1.53585 -2.83922 0
M  V30 8587 H 795.379 -0.711469 -3.73687 0
M  V30 8588 H 796.691 -0.716482 -4.93627 0
M  V30 8589 H 795.845 1.43542 -5.89475 0
M  V30 8590 H 794.584 1.52423 -4.63269 0
M  V30 8591 H 793.589 -0.626179 -5.46223 0
M  V30 8592 H 794.814 -0.699181 -6.75491 0
M  V30 8593 H 792.76 1.5138 -6.38295 0
M  V30 8594 H 792.677 0.240823 -7.55616 0
M  V30 8595 H 793.945 1.42513 -7.66362 0
M  V30 8596 N 798.174 1.49689 -0.493057 0
M  V30 8597 C 799.121 2.28976 0.28959 0
M  V30 8598 C 800.091 1.35011 0.967536 0
M  V30 8599 O 801.276 1.63964 0.975736 0
M  V30 8600 C 798.416 3.1748 1.35279 0
M  V30 8601 C 797.529 4.26496 0.687418 0
M  V30 8602 C 796.664 5.02226 1.73038 0
M  V30 8603 C 795.703 6.03089 1.04645 0
M  V30 8604 N 794.84 6.72014 2.03325 0
M  V30 8605 H 799.68 2.954 -0.392798 0
M  V30 8606 H 797.217 1.45657 -0.205554 0
M  V30 8607 H 799.175 3.67162 1.98111 0
M  V30 8608 H 797.805 2.53057 2.00405 0
M  V30 8609 H 796.857 3.80362 -0.0540001 0
M  V30 8610 H 798.169 4.98578 0.14864 0
M  V30 8611 H 797.323 5.55737 2.43395 0
M  V30 8612 H 796.062 4.29899 2.303 0
M  V30 8613 H 795.067 5.48817 0.328606 0
M  V30 8614 H 796.292 6.77398 0.480428 0
M  V30 8615 H 794.238 6.02464 2.59564 0
M  V30 8616 H 794.155 7.40046 1.54492 0
M  V30 8617 H 795.423 7.30133 2.72995 0
M  V30 8618 N 799.652 0.226554 1.55963 0
M  V30 8619 C 800.582 -0.676079 2.23498 0
M  V30 8620 C 801.563 -1.19718 1.20837 0
M  V30 8621 O 802.748 -1.24027 1.49436 0
M  V30 8622 C 799.878 -1.88217 2.91876 0
M  V30 8623 C 798.832 -1.4947 4.01052 0
M  V30 8624 C 798.158 -2.77997 4.56751 0
M  V30 8625 C 799.458 -0.680951 5.17842 0
M  V30 8626 H 801.152 -0.112989 2.99187 0
M  V30 8627 H 798.698 -0.0529046 1.43903 0
M  V30 8628 H 800.651 -2.51911 3.37815 0
M  V30 8629 H 799.375 -2.47031 2.13643 0
M  V30 8630 H 798.034 -0.881199 3.55852 0
M  V30 8631 H 797.682 -3.34966 3.75243 0
M  V30 8632 H 797.382 -2.52803 5.30438 0
M  V30 8633 H 798.906 -3.42625 5.05411 0
M  V30 8634 H 800.32 -1.22171 5.60131 0
M  V30 8635 H 798.717 -0.525898 5.97791 0
M  V30 8636 H 799.787 0.311346 4.83899 0
M  V30 8637 N 801.13 -1.57531 -0.0467866 0
M  V30 8638 C 802.093 -2.04379 -1.03738 0
M  V30 8639 C 803.093 -0.944881 -1.3011 0
M  V30 8640 O 804.283 -1.20904 -1.25411 0
M  V30 8641 C 801.415 -2.44572 -2.37482 0
M  V30 8642 H 802.608 -2.93142 -0.633063 0
M  V30 8643 H 800.161 -1.53526 -0.293177 0
M  V30 8644 H 800.896 -1.58911 -2.82697 0
M  V30 8645 H 800.681 -3.24785 -2.19675 0
M  V30 8646 H 802.171 -2.81307 -3.08636 0
M  V30 8647 N 802.608 0.318715 -1.54344 0
M  V30 8648 C 803.558 1.39364 -1.80448 0
M  V30 8649 C 804.542 1.46708 -0.660728 0
M  V30 8650 O 805.734 1.51159 -0.920869 0
M  V30 8651 C 802.863 2.76144 -2.03959 0
M  V30 8652 C 801.949 2.73094 -3.24469 0
M  V30 8653 N 802.34 2.39663 -4.45416 0
M  V30 8654 C 800.638 3.04218 -3.2614 0
M  V30 8655 C 801.339 2.45469 -5.27371 0
M  V30 8656 N 800.315 2.82107 -4.64668 0
M  V30 8657 H 804.117 1.12453 -2.71535 0
M  V30 8658 H 801.631 0.527221 -1.53604 0
M  V30 8659 H 803.628 3.53627 -2.20802 0
M  V30 8660 H 802.288 3.03982 -1.14129 0
M  V30 8661 H 803.299 2.12424 -4.72331 0
M  V30 8662 H 799.976 3.37066 -2.4636 0
M  V30 8663 H 801.366 2.22571 -6.33965 0
M  V30 8664 N 804.086 1.46499 0.581025 0
M  V30 8665 C 805.316 1.55244 1.36319 0
M  V30 8666 C 805.724 0.193059 1.88212 0
M  V30 8667 O 805.067 -0.820109 1.64377 0
M  V30 8668 C 805.129 2.498 2.58535 0
M  V30 8669 C 804.793 3.96007 2.28096 0
M  V30 8670 C 805.79 4.85171 1.8683 0
M  V30 8671 C 803.475 4.41152 2.40189 0
M  V30 8672 C 805.469 6.17493 1.58053 0
M  V30 8673 C 803.156 5.73508 2.11024 0
M  V30 8674 C 804.154 6.615 1.70021 0
M  V30 8675 O 803.842 7.914 1.41215 0
M  V30 8676 H 803.574 0.527513 0.422736 0
M  V30 8677 H 806.128 1.92623 0.713139 0
M  V30 8678 H 804.358 2.07443 3.2635 0
M  V30 8679 H 806.047 2.48934 3.20604 0
M  V30 8680 H 806.813 4.51548 1.77001 0
M  V30 8681 H 802.692 3.72886 2.71066 0
M  V30 8682 H 806.236 6.86131 1.25974 0
M  V30 8683 H 802.133 6.06679 2.20478 0
M  V30 8684 H 802.901 8.03681 1.55046 0
M  V30 8685 N 805.565 -0.825799 1.34232 0
M  V30 8686 C 806.512 -1.93651 1.2557 0
M  V30 8687 C 807.482 -1.65578 0.131536 0
M  V30 8688 O 808.667 -1.88231 0.312027 0
M  V30 8689 C 805.807 -3.29862 1.01415 0
M  V30 8690 C 804.92 -3.70247 2.22579 0
M  V30 8691 C 804.055 -4.95392 1.91731 0
M  V30 8692 C 803.094 -5.28349 3.09053 0
M  V30 8693 N 802.231 -6.44671 2.78107 0
M  V30 8694 H 807.071 -2.00392 2.20561 0
M  V30 8695 H 804.608 -0.980441 1.09662 0
M  V30 8696 H 806.566 -4.08356 0.854485 0
M  V30 8697 H 805.196 -3.22642 0.100936 0
M  V30 8698 H 804.248 -2.87169 2.49476 0
M  V30 8699 H 805.56 -3.90575 3.10246 0
M  V30 8700 H 804.714 -5.81665 1.72484 0
M  V30 8701 H 803.453 -4.77059 1.0132 0
M  V30 8702 H 802.458 -4.40574 3.289 0
M  V30 8703 H 803.683 -5.48622 4.00239 0
M  V30 8704 H 801.629 -6.278 1.9027 0
M  V30 8705 H 801.546 -6.65158 3.59306 0
M  V30 8706 H 802.814 -7.34022 2.62358 0
M  V30 8707 N 807.043 -1.17915 -1.04565 0
M  V30 8708 C 807.973 -0.925033 -2.14395 0
M  V30 8709 C 808.954 0.135375 -1.6956 0
M  V30 8710 O 810.139 -0.0161774 -1.94193 0
M  V30 8711 C 807.269 -0.444469 -3.44444 0
M  V30 8712 C 806.223 -1.44478 -4.02877 0
M  V30 8713 C 805.549 -0.821933 -5.28345 0
M  V30 8714 C 806.849 -2.81995 -4.39632 0
M  V30 8715 H 808.543 -1.84354 -2.35911 0
M  V30 8716 H 806.089 -0.887806 -1.13375 0
M  V30 8717 H 808.042 -0.254078 -4.20633 0
M  V30 8718 H 806.766 0.509592 -3.226 0
M  V30 8719 H 805.425 -1.62203 -3.28764 0
M  V30 8720 H 805.073 0.139161 -5.02807 0
M  V30 8721 H 804.773 -1.48976 -5.68401 0
M  V30 8722 H 806.297 -0.641959 -6.07216 0
M  V30 8723 H 807.711 -2.67952 -5.06828 0
M  V30 8724 H 806.108 -3.45414 -4.90723 0
M  V30 8725 H 807.178 -3.35927 -3.49687 0
M  V30 8726 N 808.521 1.23394 -0.980386 0
M  V30 8727 C 809.932 1.73631 -0.686239 0
M  V30 8728 C 810.283 1.79259 0.797541 0
M  V30 8729 O 809.408 1.43046 1.62379 0
M  V30 8730 C 810.003 3.15332 -1.239 0
M  V30 8731 C 808.562 3.63024 -0.994494 0
M  V30 8732 C 807.709 2.41279 -1.36673 0
M  V30 8733 H 810.66 1.08918 -1.15423 0
M  V30 8734 H 810.681 3.75556 -0.611414 0
M  V30 8735 H 810.193 3.11204 -2.31892 0
M  V30 8736 H 808.294 3.72535 0.0693492 0
M  V30 8737 H 808.407 4.49825 -1.64906 0
M  V30 8738 H 806.771 2.42295 -0.785195 0
M  V30 8739 H 807.554 2.39822 -2.45642 0
M  V30 8740 N 809.999 0.752036 1.385 0
M  V30 8741 C 810.909 0.125318 2.34265 0
M  V30 8742 C 811.925 -0.702437 1.59191 0
M  V30 8743 O 813.101 -0.626951 1.91393 0
M  V30 8744 C 810.166 -0.758486 3.38301 0
M  V30 8745 C 809.227 0.0834636 4.29219 0
M  V30 8746 C 808.46 -0.758252 5.28286 0
M  V30 8747 O 808.683 -1.99632 5.34325 0
M  V30 8748 O 807.617 -0.177878 6.01637 0
M  V30 8749 H 811.443 0.91617 2.89551 0
M  V30 8750 H 809.028 0.512911 1.4032 0
M  V30 8751 H 810.91 -1.26365 4.02007 0
M  V30 8752 H 809.585 -1.52786 2.85374 0
M  V30 8753 H 808.492 0.634545 3.68679 0
M  V30 8754 H 809.825 0.815455 4.85398 0
M  V30 8755 N 811.477 -1.49425 0.500989 0
M  V30 8756 C 812.425 -2.30771 -0.291149 0
M  V30 8757 C 813.419 -1.3938 -0.962787 0
M  V30 8758 O 814.625 -1.56431 -0.890477 0
M  V30 8759 H 811 -0.743499 -0.11275 0
M  V30 8760 H 812.971 -2.95501 0.414917 0
M  V30 8761 C 811.72 -3.20725 -1.34279 0
M  V30 8762 H 811.043 -3.90975 -0.83538 0
M  V30 8763 H 812.483 -3.80583 -1.86903 0
M  V30 8764 C 810.942 -2.40334 -2.36095 0
M  V30 8765 O 811.472 -2.10749 -3.41976 0
M  V30 8766 N 809.678 -2.02359 -2.08565 0
M  V30 8767 H 809.225 -2.26619 -1.22482 0
M  V30 8768 H 809.183 -1.48878 -2.76916 0
M  V30 8769 N 812.955 -0.234822 -1.55841 0
M  V30 8770 C 813.902 0.6698 -2.20867 0
M  V30 8771 C 814.872 1.18042 -1.16856 0
M  V30 8772 O 816.057 1.23709 -1.45261 0
M  V30 8773 C 813.197 1.86646 -2.90271 0
M  V30 8774 C 812.31 1.39351 -4.08908 0
M  V30 8775 C 811.445 2.54878 -4.66059 0
M  V30 8776 C 810.484 2.04384 -5.76969 0
M  V30 8777 N 809.621 3.13233 -6.28355 0
M  V30 8778 H 814.461 0.10858 -2.97802 0
M  V30 8779 H 811.998 0.041836 -1.4704 0
M  V30 8780 H 813.956 2.56926 -3.28702 0
M  V30 8781 H 812.586 2.40035 -2.15831 0
M  V30 8782 H 811.638 0.585173 -3.75872 0
M  V30 8783 H 812.95 0.983356 -4.89011 0
M  V30 8784 H 812.104 3.33219 -5.07001 0
M  V30 8785 H 810.843 2.99188 -3.85146 0
M  V30 8786 H 809.848 1.24509 -5.35516 0
M  V30 8787 H 811.073 1.61057 -6.59725 0
M  V30 8788 H 809.019 3.57 -5.50352 0
M  V30 8789 H 808.936 2.76511 -7.03618 0
M  V30 8790 H 810.204 3.91669 -6.73955 0
M  V30 8791 N 814.433 1.57553 0.0384317 0
M  V30 8792 C 815.844 1.77258 0.586211 0
M  V30 8793 C 816.195 0.864706 1.76117 0
M  V30 8794 O 815.32 0.057141 2.16325 0
M  V30 8795 C 815.915 3.21453 1.07021 0
M  V30 8796 C 814.474 3.42387 1.56358 0
M  V30 8797 C 813.621 2.72801 0.497508 0
M  V30 8798 H 816.572 1.57585 -0.187796 0
M  V30 8799 H 816.593 3.27451 1.93794 0
M  V30 8800 H 816.105 3.87505 0.214851 0
M  V30 8801 H 814.206 2.81497 2.44111 0
M  V30 8802 H 814.319 4.50968 1.61754 0
M  V30 8803 H 812.683 2.36305 0.95038 0
M  V30 8804 H 813.466 3.41529 -0.348234 0
M  V30 8805 N 815.911 -0.310526 1.54511 0
M  V30 8806 C 817.322 -0.884142 1.64438 0
M  V30 8807 C 817.673 -1.88425 0.546855 0
M  V30 8808 O 816.798 -2.14049 -0.31811 0
M  V30 8809 C 817.393 -1.6104 2.9808 0
M  V30 8810 C 815.952 -2.13255 3.1016 0
M  V30 8811 C 815.099 -0.96213 2.60074 0
M  V30 8812 H 818.05 -0.0877666 1.58457 0
M  V30 8813 H 818.071 -2.47541 2.8897 0
M  V30 8814 H 817.583 -0.882255 3.77939 0
M  V30 8815 H 815.684 -2.89145 2.35002 0
M  V30 8816 H 815.797 -2.37361 4.16169 0
M  V30 8817 H 814.161 -1.34501 2.16291 0
M  V30 8818 H 814.944 -0.248098 3.42402 0
M  V30 8819 N 817.389 -1.46805 -0.573248 0
M  V30 8820 C 818.805 -1.31969 -0.897577 0
M  V30 8821 C 819.005 -0.298171 -1.99282 0
M  V30 8822 O 818.061 0.295953 -2.5076 0
M  V30 8823 C 819.374 -2.70859 -1.30598 0
M  V30 8824 C 820.922 -2.79022 -1.4183 0
M  V30 8825 C 821.397 -4.18516 -1.86033 0
M  V30 8826 N 822.888 -4.2098 -1.9321 0
M  V30 8827 C 823.623 -5.25814 -2.28707 0
M  V30 8828 N 823.119 -6.40968 -2.6293 0
M  V30 8829 N 824.912 -5.13184 -2.29343 0
M  V30 8830 H 817.063 -2.11869 0.150094 0
M  V30 8831 H 819.326 -0.947989 0.00447895 0
M  V30 8832 H 819.032 -3.46965 -0.575161 0
M  V30 8833 H 818.906 -3.01585 -2.26554 0
M  V30 8834 H 821.293 -2.03198 -2.13996 0
M  V30 8835 H 821.374 -2.51969 -0.441024 0
M  V30 8836 H 821.018 -4.94839 -1.14442 0
M  V30 8837 H 820.948 -4.42982 -2.84735 0
M  V30 8838 H 823.439 -3.37898 -1.69214 0
M  V30 8839 H 823.752 -7.16729 -2.88996 0
M  V30 8840 H 822.097 -6.44314 -2.60547 0
M  V30 8841 H 825.288 -4.22255 -2.02036 0
M  V30 8842 H 825.461 -5.94996 -2.56679 0
M  V30 8843 N 818.867 0.818669 -1.34668 0
M  V30 8844 C 820.097 1.60441 -1.30162 0
M  V30 8845 C 820.505 1.88783 0.125579 0
M  V30 8846 O 819.848 1.48281 1.08437 0
M  V30 8847 C 819.91 2.96794 -2.02864 0
M  V30 8848 C 819.574 2.91327 -3.52105 0
M  V30 8849 C 820.571 2.65611 -4.4693 0
M  V30 8850 C 818.256 3.10825 -3.9458 0
M  V30 8851 C 820.25 2.59452 -5.82206 0
M  V30 8852 C 817.937 3.0429 -5.29954 0
M  V30 8853 C 818.935 2.78637 -6.23579 0
M  V30 8854 O 818.623 2.72042 -7.56471 0
M  V30 8855 H 818.355 0.505278 -0.449077 0
M  V30 8856 H 820.909 1.02632 -1.77921 0
M  V30 8857 H 819.139 3.56538 -1.49725 0
M  V30 8858 H 820.828 3.57837 -1.91592 0
M  V30 8859 H 821.594 2.50278 -4.15434 0
M  V30 8860 H 817.473 3.29807 -3.221 0
M  V30 8861 H 821.017 2.39349 -6.55254 0
M  V30 8862 H 816.914 3.19177 -5.61067 0
M  V30 8863 H 817.682 2.87738 -7.66257 0
M  V30 8864 N 820.346 1.18468 1.03938 0
M  V30 8865 C 821.276 0.936389 2.13902 0
M  V30 8866 C 822.257 -0.126381 1.6963 0
M  V30 8867 O 823.442 0.0264757 1.94182 0
M  V30 8868 C 820.572 0.462729 3.44204 0
M  V30 8869 C 819.526 1.46613 4.02105 0
M  V30 8870 C 818.852 0.84994 5.27902 0
M  V30 8871 C 820.152 2.84323 4.3813 0
M  V30 8872 H 821.846 1.85602 2.3493 0
M  V30 8873 H 819.392 0.893806 1.12903 0
M  V30 8874 H 821.345 0.276382 4.20493 0
M  V30 8875 H 820.069 -0.492477 3.22866 0
M  V30 8876 H 818.728 1.63944 3.27899 0
M  V30 8877 H 818.376 -0.112493 5.02874 0
M  V30 8878 H 818.076 1.51988 5.67603 0
M  V30 8879 H 819.6 0.674152 6.06867 0
M  V30 8880 H 821.014 2.70636 5.054 0
M  V30 8881 H 819.411 3.48012 4.88884 0
M  V30 8882 H 820.481 3.37776 3.47901 0
M  V30 8883 N 821.824 -1.22873 0.986916 0
M  V30 8884 C 822.756 -2.23889 0.490537 0
M  V30 8885 C 823.769 -1.57523 -0.411144 0
M  V30 8886 O 824.958 -1.7721 -0.214236 0
M  V30 8887 C 822.058 -3.37488 -0.30902 0
M  V30 8888 C 821.231 -4.33438 0.587354 0
M  V30 8889 C 820.29 -5.25958 -0.159467 0
M  V30 8890 O 819.316 -5.67394 0.453115 0
M  V30 8891 N 820.518 -5.62265 -1.44355 0
M  V30 8892 H 823.283 -2.67109 1.35914 0
M  V30 8893 H 820.844 -1.37111 0.860937 0
M  V30 8894 H 822.836 -3.96365 -0.817139 0
M  V30 8895 H 821.406 -2.934 -1.07868 0
M  V30 8896 H 820.626 -3.72969 1.27622 0
M  V30 8897 H 821.914 -4.94495 1.19801 0
M  V30 8898 H 821.312 -5.30562 -1.96266 0
M  V30 8899 H 819.869 -6.23585 -1.89698 0
M  V30 8900 N 823.302 -0.75937 -1.38099 0
M  V30 8901 C 824.25 -0.124954 -2.32264 0
M  V30 8902 C 825.244 0.698863 -1.54312 0
M  V30 8903 O 826.45 0.597312 -1.698 0
M  V30 8904 H 822.825 -0.0216142 -0.751689 0
M  V30 8905 H 824.796 -0.935115 -2.83369 0
M  V30 8906 C 823.545 0.749463 -3.39527 0
M  V30 8907 H 822.868 0.124932 -3.99605 0
M  V30 8908 H 824.308 1.16055 -4.07808 0
M  V30 8909 C 822.767 1.89464 -2.78577 0
M  V30 8910 O 823.297 2.98923 -2.68343 0
M  V30 8911 N 821.503 1.69145 -2.36301 0
M  V30 8912 H 821.05 0.801157 -2.44825 0
M  V30 8913 H 821.008 2.45936 -1.95864 0
M  V30 8914 N 824.78 1.49157 -0.508906 0
M  V30 8915 C 826.057 1.95363 0.0961913 0
M  V30 8916 C 826.437 1.45064 1.53362 0
M  V30 8917 O 825.785 0.667835 2.18523 0
M  V30 8918 C 825.995 3.49 0.000688881 0
M  V30 8919 C 827.343 4.24257 0.170632 0
M  V30 8920 O 828.367 3.5612 0.0754994 0
M  V30 8921 O 827.226 5.45267 0.366957 0
M  V30 8922 H 824.32 0.821984 0.0909489 0
M  V30 8923 H 826.866 1.59769 -0.572007 0
M  V30 8924 H 825.638 3.78269 -1.00143 0
M  V30 8925 H 825.261 3.91233 0.708682 0
M  V30 8926 N 826.258 0.243083 1.55714 0
M  V30 8927 C 827.208 -0.671915 2.17875 0
M  V30 8928 C 828.192 -1.14199 1.13347 0
M  V30 8929 O 829.384 -1.09239 1.39269 0
M  V30 8930 C 826.513 -1.87027 2.87881 0
M  V30 8931 C 825.599 -1.41888 3.99661 0
M  V30 8932 N 825.99 -0.681465 5.01188 0
M  V30 8933 C 824.288 -1.70447 4.12145 0
M  V30 8934 C 824.989 -0.448285 5.7997 0
M  V30 8935 N 823.965 -1.01137 5.34109 0
M  V30 8936 H 827.767 -0.100321 2.93729 0
M  V30 8937 H 825.281 0.0452371 1.62337 0
M  V30 8938 H 827.278 -2.53674 3.3084 0
M  V30 8939 H 825.938 -2.44613 2.13529 0
M  V30 8940 H 826.949 -0.331959 5.16835 0
M  V30 8941 H 823.626 -2.29198 3.48962 0
M  V30 8942 H 825.016 0.140141 6.71754 0
M  V30 8943 N 827.736 -1.57571 -0.0300757 0
M  V30 8944 C 828.666 -2.0953 -1.03051 0
M  V30 8945 C 829.647 -0.99761 -1.37774 0
M  V30 8946 O 830.832 -1.27279 -1.46676 0
M  V30 8947 C 827.962 -2.57385 -2.33174 0
M  V30 8948 C 826.916 -3.71409 -2.12696 0
M  V30 8949 C 826.242 -4.05467 -3.4857 0
M  V30 8950 C 827.542 -4.99877 -1.51396 0
M  V30 8951 H 829.236 -2.93367 -0.597999 0
M  V30 8952 H 826.782 -1.41127 -0.286203 0
M  V30 8953 H 828.735 -2.92355 -3.03491 0
M  V30 8954 H 827.459 -1.70629 -2.78484 0
M  V30 8955 H 826.118 -3.36786 -1.44813 0
M  V30 8956 H 825.766 -3.15779 -3.91526 0
M  V30 8957 H 825.466 -4.82269 -3.35694 0
M  V30 8958 H 826.99 -4.4297 -4.2025 0
M  V30 8959 H 828.404 -5.3281 -2.11629 0
M  V30 8960 H 826.801 -5.81283 -1.49098 0
M  V30 8961 H 827.871 -4.82522 -0.479676 0
M  V30 8962 N 829.214 0.302327 -1.54673 0
M  V30 8963 C 830.63 0.647911 -1.45857 0
M  V30 8964 C 830.83 1.90773 -0.64869 0
M  V30 8965 O 829.886 2.52018 -0.155865 0
M  V30 8966 C 831.199 0.802144 -2.89804 0
M  V30 8967 C 832.747 0.898114 -2.99838 0
M  V30 8968 C 833.222 1.08436 -4.44978 0
M  V30 8969 N 834.713 1.15059 -4.48682 0
M  V30 8970 C 835.448 1.31296 -5.58166 0
M  V30 8971 N 834.944 1.4444 -6.77576 0
M  V30 8972 N 836.737 1.34174 -5.45851 0
M  V30 8973 H 828.888 -0.525428 -2.05798 0
M  V30 8974 H 831.151 -0.173423 -0.932002 0
M  V30 8975 H 830.857 -0.0526531 -3.51661 0
M  V30 8976 H 830.731 1.69155 -3.37145 0
M  V30 8977 H 833.118 1.7434 -2.38096 0
M  V30 8978 H 833.199 -0.0152752 -2.55795 0
M  V30 8979 H 832.843 0.243843 -5.07314 0
M  V30 8980 H 832.773 2.01195 -4.8665 0
M  V30 8981 H 835.264 1.0626 -3.62653 0
M  V30 8982 H 835.577 1.56582 -7.56771 0
M  V30 8983 H 833.922 1.41499 -6.80443 0
M  V30 8984 H 837.113 1.23516 -4.5151 0
M  V30 8985 H 837.286 1.46485 -6.31226 0
M  V30 8986 N 830.692 1.47107 0.565454 0
M  V30 8987 C 831.92 1.56909 1.3486 0
M  V30 8988 C 832.335 0.216312 1.87557 0
M  V30 8989 O 831.692 -0.789168 1.64555 0
M  V30 8990 C 831.743 2.58776 2.52423 0
M  V30 8991 O 831.464 3.888 2.01906 0
M  V30 8992 C 832.965 2.78683 3.44747 0
M  V30 8993 H 830.185 0.530096 0.411387 0
M  V30 8994 H 832.729 1.92658 0.685782 0
M  V30 8995 H 830.884 2.25983 3.1466 0
M  V30 8996 H 831.298 4.44393 2.78595 0
M  V30 8997 H 832.772 3.53842 4.23674 0
M  V30 8998 H 833.249 1.86208 3.97773 0
M  V30 8999 H 833.855 3.12641 2.88333 0
M  V30 9000 N 832.17 -0.811516 1.35101 0
M  V30 9001 C 833.416 -1.57068 1.28287 0
M  V30 9002 C 833.749 -1.93667 -0.143808 0
M  V30 9003 O 833.024 -1.60953 -1.09199 0
M  V30 9004 C 833.307 -2.86259 2.18466 0
M  V30 9005 C 833.16 -2.56168 3.69727 0
M  V30 9006 C 834.479 -3.87924 2.07852 0
M  V30 9007 H 831.598 -0.569869 0.467353 0
M  V30 9008 H 834.24 -0.934023 1.65457 0
M  V30 9009 H 832.39 -3.4059 1.86898 0
M  V30 9010 H 834.062 -2.08059 4.11715 0
M  V30 9011 H 832.305 -1.89436 3.90252 0
M  V30 9012 H 832.976 -3.48344 4.28206 0
M  V30 9013 H 835.452 -3.4298 2.35593 0
M  V30 9014 H 834.328 -4.76106 2.73157 0
M  V30 9015 H 834.589 -4.2923 1.05896 0
M  V30 9016 N 833.648 -1.19017 -1.03309 0
M  V30 9017 C 834.58 -0.881847 -2.11556 0
M  V30 9018 C 835.593 0.123711 -1.62329 0
M  V30 9019 O 836.782 -0.105141 -1.7819 0
M  V30 9020 C 833.882 -0.297634 -3.37591 0
M  V30 9021 C 833.055 -1.35072 -4.16022 0
M  V30 9022 C 832.114 -0.780812 -5.20375 0
M  V30 9023 O 831.14 -1.45745 -5.50224 0
M  V30 9024 N 832.342 0.417964 -5.78993 0
M  V30 9025 H 835.107 -1.81359 -2.38598 0
M  V30 9026 H 832.668 -1.0916 -1.19565 0
M  V30 9027 H 834.66 0.097374 -4.04583 0
M  V30 9028 H 833.23 0.538299 -3.0793 0
M  V30 9029 H 832.45 -1.92074 -3.4424 0
M  V30 9030 H 833.738 -2.06044 -4.65213 0
M  V30 9031 H 833.136 0.985281 -5.57054 0
M  V30 9032 H 831.693 0.754802 -6.47415 0
M  V30 9033 N 835.127 1.22348 -0.993418 0
M  V30 9034 C 836.404 1.86632 -0.585495 0
M  V30 9035 C 836.784 1.89156 0.937187 0
M  V30 9036 O 836.132 1.38247 1.81934 0
M  V30 9037 C 836.342 3.27481 -1.20652 0
M  V30 9038 C 837.69 4.03971 -1.30738 0
M  V30 9039 O 838.714 3.3675 -1.16096 0
M  V30 9040 O 837.573 5.24302 -1.54173 0
M  V30 9041 H 834.667 0.802704 -0.198984 0
M  V30 9042 H 837.213 1.30122 -1.08933 0
M  V30 9043 H 835.985 3.20281 -2.24802 0
M  V30 9044 H 835.608 3.91597 -0.688312 0
M  V30 9045 N 836.605 0.766683 1.37694 0
M  V30 9046 C 837.854 0.325425 1.99057 0
M  V30 9047 C 838.167 -1.10275 1.61551 0
M  V30 9048 O 839.373 -1.64513 2.1598 0
M  V30 9049 C 837.829 0.530886 3.55963 0
M  V30 9050 C 837.437 1.96899 4.02411 0
M  V30 9051 C 839.181 0.152997 4.24224 0
M  V30 9052 C 837.088 2.12232 5.52007 0
M  V30 9053 H 836.018 0.117929 0.744721 0
M  V30 9054 H 838.669 0.945091 1.5729 0
M  V30 9055 H 837.051 -0.158162 3.95684 0
M  V30 9056 H 838.225 2.69258 3.73948 0
M  V30 9057 H 836.54 2.303 3.46916 0
M  V30 9058 H 839.137 0.24614 5.34133 0
M  V30 9059 H 839.48 -0.896096 4.06541 0
M  V30 9060 H 840.013 0.794398 3.89787 0
M  V30 9061 H 836.752 3.15442 5.7461 0
M  V30 9062 H 836.272 1.4435 5.82171 0
M  V30 9063 H 837.951 1.9185 6.17902 0
M  V30 9064 N 838.083 -1.48885 0.516809 0
M  V30 9065 C 839.016 -2.26218 -0.30011 0
M  V30 9066 C 839.994 -1.31491 -0.956496 0
M  V30 9067 O 841.178 -1.6081 -0.983488 0
M  V30 9068 C 838.305 -3.07315 -1.42392 0
M  V30 9069 C 837.351 -4.17316 -0.880295 0
M  V30 9070 S 838.184 -5.34955 0.24146 0
M  V30 9071 C 839.34 -6.1961 -0.885138 0
M  V30 9072 H 839.573 -2.95158 0.356217 0
M  V30 9073 H 837.106 -1.5141 0.302365 0
M  V30 9074 H 839.064 -3.54619 -2.06775 0
M  V30 9075 H 837.725 -2.37813 -2.05192 0
M  V30 9076 H 836.918 -4.73635 -1.72297 0
M  V30 9077 H 836.52 -3.72685 -0.313396 0
M  V30 9078 H 838.812 -6.53513 -1.78682 0
M  V30 9079 H 839.755 -7.07183 -0.360226 0
M  V30 9080 H 840.163 -5.52461 -1.1596 0
M  V30 9081 N 839.561 -0.251338 -1.55583 0
M  V30 9082 C 840.509 0.662534 -2.22965 0
M  V30 9083 C 841.503 1.17662 -1.21869 0
M  V30 9084 O 842.709 1.133 -1.39868 0
M  V30 9085 H 839.084 0.232151 -0.715269 0
M  V30 9086 H 841.055 0.0711252 -2.98315 0
M  V30 9087 C 839.804 1.84646 -2.94621 0
M  V30 9088 H 839.127 1.46003 -3.72187 0
M  V30 9089 H 840.567 2.46303 -3.45124 0
M  V30 9090 C 839.026 2.72034 -1.98744 0
M  V30 9091 O 839.556 3.71695 -1.52335 0
M  V30 9092 N 837.762 2.38695 -1.6575 0
M  V30 9093 H 837.309 1.57702 -2.03685 0
M  V30 9094 H 837.267 2.9744 -1.01867 0
M  V30 9095 N 841.039 1.57585 0.0217189 0
M  V30 9096 C 841.987 2.08134 1.03842 0
M  V30 9097 C 842.981 0.996662 1.36978 0
M  V30 9098 O 844.187 1.18149 1.35797 0
M  V30 9099 H 840.562 0.664298 0.352438 0
M  V30 9100 H 842.533 2.92583 0.58634 0
M  V30 9101 C 841.282 2.58218 2.32849 0
M  V30 9102 H 840.605 3.41302 2.08214 0
M  V30 9103 H 842.045 2.97289 3.02316 0
M  V30 9104 C 840.504 1.48664 3.02325 0
M  V30 9105 O 841.034 0.857075 3.9245 0
M  V30 9106 N 839.24 1.21938 2.63779 0
M  V30 9107 H 838.787 1.73319 1.90574 0
M  V30 9108 H 838.745 0.488523 3.10581 0
M  V30 9109 N 842.517 -0.29412 1.54831 0
M  V30 9110 C 843.742 -1.05156 1.78765 0
M  V30 9111 C 844.167 -1.79916 0.548809 0
M  V30 9112 O 843.525 -1.74243 -0.500909 0
M  V30 9113 C 843.573 -2.00242 2.99893 0
M  V30 9114 O 842.677 -3.08662 2.73499 0
M  V30 9115 H 842.018 -0.301737 0.591482 0
M  V30 9116 H 844.548 -0.329449 2.0193 0
M  V30 9117 H 844.558 -2.42583 3.28051 0
M  V30 9118 H 843.233 -1.45235 3.89717 0
M  V30 9119 H 841.81 -2.70786 2.56377 0
M  V30 9120 N 843.995 -1.47404 -0.557645 0
M  V30 9121 C 845.242 -1.54007 -1.31484 0
M  V30 9122 C 845.57 -0.202162 -1.93447 0
M  V30 9123 O 844.825 0.804901 -1.78381 0
M  V30 9124 C 845.124 -2.6061 -2.44575 0
M  V30 9125 C 844.79 -4.03896 -2.00446 0
M  V30 9126 C 843.452 -4.42901 -1.88127 0
M  V30 9127 C 845.804 -4.93804 -1.66754 0
M  V30 9128 C 843.132 -5.6965 -1.40411 0
M  V30 9129 C 845.484 -6.21016 -1.20509 0
M  V30 9130 C 844.148 -6.58903 -1.06786 0
M  V30 9131 H 843.418 -0.563552 -0.481134 0
M  V30 9132 H 846.065 -1.81001 -0.625375 0
M  V30 9133 H 844.37 -2.27371 -3.19076 0
M  V30 9134 H 846.067 -2.62941 -3.02759 0
M  V30 9135 H 842.657 -3.73077 -2.10977 0
M  V30 9136 H 846.841 -4.64369 -1.75144 0
M  V30 9137 H 842.097 -5.97755 -1.2845 0
M  V30 9138 H 846.271 -6.90095 -0.935001 0
M  V30 9139 H 843.898 -7.57008 -0.695891 0
M  V30 9140 N 845.473 0.80434 -1.35529 0
M  V30 9141 C 846.703 1.59052 -1.31856 0
M  V30 9142 C 847.111 1.88905 0.105549 0
M  V30 9143 O 846.454 1.49422 1.06858 0
M  V30 9144 C 846.516 2.94626 -2.06 0
M  V30 9145 C 846.18 2.87576 -3.55175 0
M  V30 9146 C 847.177 2.60856 -4.49722 0
M  V30 9147 C 844.862 3.06623 -3.97854 0
M  V30 9148 C 846.856 2.53262 -5.84925 0
M  V30 9149 C 844.543 2.98652 -5.33151 0
M  V30 9150 C 845.541 2.72007 -6.26499 0
M  V30 9151 O 845.229 2.64003 -7.59314 0
M  V30 9152 H 844.961 0.500486 -0.454411 0
M  V30 9153 H 847.515 1.0074 -1.78999 0
M  V30 9154 H 845.745 3.5493 -1.53498 0
M  V30 9155 H 847.434 3.55785 -1.95376 0
M  V30 9156 H 848.2 2.45858 -4.18066 0
M  V30 9157 H 844.079 3.26372 -3.2558 0
M  V30 9158 H 847.623 2.32386 -6.57756 0
M  V30 9159 H 843.52 3.13208 -5.64421 0
M  V30 9160 H 844.288 2.79595 -7.69265 0
M  V30 9161 N 846.951 1.19563 1.02676 0
M  V30 9162 C 847.898 0.935291 2.11 0
M  V30 9163 C 848.868 -0.130685 1.65585 0
M  V30 9164 O 850.053 0.0119062 1.90796 0
M  V30 9165 C 847.193 0.482384 3.41712 0
M  V30 9166 C 846.306 1.61537 4.00662 0
M  V30 9167 C 845.441 1.11378 5.19392 0
M  V30 9168 C 844.48 2.22052 5.70403 0
M  V30 9169 N 843.617 1.73185 6.80405 0
M  V30 9170 H 848.457 1.86275 2.32606 0
M  V30 9171 H 845.994 0.928656 1.14081 0
M  V30 9172 H 847.952 0.20118 4.16715 0
M  V30 9173 H 846.582 -0.408086 3.2021 0
M  V30 9174 H 845.634 2.01173 3.22852 0
M  V30 9175 H 846.946 2.44912 4.34534 0
M  V30 9176 H 846.1 0.787935 6.01562 0
M  V30 9177 H 844.839 0.249789 4.8706 0
M  V30 9178 H 843.844 2.55465 4.86845 0
M  V30 9179 H 845.069 3.08911 6.04774 0
M  V30 9180 H 843.015 0.890973 6.49921 0
M  V30 9181 H 842.932 2.50148 7.13416 0
M  V30 9182 H 844.2 1.4357 7.66164 0
M  V30 9183 N 848.429 -1.21819 0.999893 0
M  V30 9184 C 849.654 -1.95298 0.698094 0
M  V30 9185 C 850.079 -1.73273 -0.731982 0
M  V30 9186 O 849.437 -1.01634 -1.50134 0
M  V30 9187 C 849.485 -3.45922 1.01834 0
M  V30 9188 O 848.589 -4.12223 0.120801 0
M  V30 9189 H 847.93 -0.610729 0.260588 0
M  V30 9190 H 850.46 -1.5472 1.33876 0
M  V30 9191 H 850.47 -3.96471 0.963074 0
M  V30 9192 H 849.145 -3.61278 2.06037 0
M  V30 9193 H 847.722 -3.72177 0.232153 0
M  V30 9194 N 849.908 -0.773975 -1.37286 0
M  V30 9195 C 850.84 -0.119938 -2.28886 0
M  V30 9196 C 851.853 0.661822 -1.48741 0
M  V30 9197 O 853.042 0.499548 -1.71367 0
M  V30 9198 C 850.142 0.853703 -3.27971 0
M  V30 9199 C 849.315 0.125286 -4.37221 0
M  V30 9200 C 848.374 1.01261 -5.16365 0
M  V30 9201 O 847.4 0.475565 -5.6721 0
M  V30 9202 N 848.602 2.33864 -5.31308 0
M  V30 9203 H 851.367 -0.906702 -2.85655 0
M  V30 9204 H 848.928 -0.626519 -1.49286 0
M  V30 9205 H 850.92 1.4508 -3.77801 0
M  V30 9206 H 849.49 1.54142 -2.71954 0
M  V30 9207 H 848.71 -0.652742 -3.88758 0
M  V30 9208 H 849.998 -0.377959 -5.07394 0
M  V30 9209 H 849.396 2.79929 -4.91585 0
M  V30 9210 H 847.953 2.88575 -5.84438 0
M  V30 9211 N 851.386 1.48609 -0.524698 0
M  V30 9212 C 852.616 2.06599 0.00741868 0
M  V30 9213 C 853.024 1.3823 1.29186 0
M  V30 9214 O 852.367 0.461962 1.77797 0
M  V30 9215 C 852.429 3.58184 0.307324 0
M  V30 9216 C 852.093 4.48391 -0.882864 0
M  V30 9217 C 853.09 4.88485 -1.77984 0
M  V30 9218 C 850.775 4.90367 -1.08837 0
M  V30 9219 C 852.769 5.69319 -2.86627 0
M  V30 9220 C 850.456 5.70972 -2.17794 0
M  V30 9221 C 851.454 6.10355 -3.06523 0
M  V30 9222 O 851.142 6.89343 -4.13596 0
M  V30 9223 H 850.874 0.675421 -0.0279846 0
M  V30 9224 H 853.428 1.92058 -0.7282 0
M  V30 9225 H 851.658 3.70818 1.09685 0
M  V30 9226 H 853.347 3.98318 0.780886 0
M  V30 9227 H 854.113 4.56682 -1.63299 0
M  V30 9228 H 849.992 4.592 -0.407035 0
M  V30 9229 H 853.536 5.99978 -3.55911 0
M  V30 9230 H 849.433 6.02188 -2.32465 0
M  V30 9231 H 850.201 7.07689 -4.1124 0
M  V30 9232 N 852.864 0.259585 1.55447 0
M  V30 9233 C 853.774 -0.645026 2.25558 0
M  V30 9234 C 854.79 -1.18291 1.27606 0
M  V30 9235 O 855.966 -1.21649 1.6051 0
M  V30 9236 C 853.031 -1.81964 2.9511 0
M  V30 9237 C 852.092 -1.31997 4.08504 0
M  V30 9238 C 851.325 -2.43861 4.74729 0
M  V30 9239 O 851.548 -3.62876 4.40088 0
M  V30 9240 O 850.482 -2.12898 5.6299 0
M  V30 9241 H 854.308 -0.0775399 3.03601 0
M  V30 9242 H 851.893 0.0275859 1.49375 0
M  V30 9243 H 853.775 -2.50485 3.38873 0
M  V30 9244 H 852.45 -2.37451 2.19997 0
M  V30 9245 H 851.357 -0.601676 3.6923 0
M  V30 9246 H 852.69 -0.811045 4.85472 0
M  V30 9247 N 854.342 -1.57594 -0.0133615 0
M  V30 9248 C 855.272 -2.10611 -1.00823 0
M  V30 9249 C 856.253 -1.01217 -1.36708 0
M  V30 9250 O 857.438 -1.28827 -1.45318 0
M  V30 9251 C 854.568 -2.59844 -2.30431 0
M  V30 9252 C 853.522 -3.73644 -2.08745 0
M  V30 9253 C 852.848 -4.09141 -3.4425 0
M  V30 9254 C 854.148 -5.01454 -1.46086 0
M  V30 9255 H 855.842 -2.93985 -0.566849 0
M  V30 9256 H 853.388 -1.41423 -0.271219 0
M  V30 9257 H 855.341 -2.95557 -3.00373 0
M  V30 9258 H 854.065 -1.73573 -2.76658 0
M  V30 9259 H 852.724 -3.38303 -1.41232 0
M  V30 9260 H 852.372 -3.19914 -3.88155 0
M  V30 9261 H 852.072 -4.85802 -3.3056 0
M  V30 9262 H 853.596 -4.47402 -4.15528 0
M  V30 9263 H 855.01 -5.35024 -2.05966 0
M  V30 9264 H 853.407 -5.82832 -1.42924 0
M  V30 9265 H 854.477 -4.83003 -0.428471 0
M  V30 9266 N 855.82 0.285905 -1.54985 0
M  V30 9267 C 857.069 1.01691 -1.74189 0
M  V30 9268 C 857.382 1.87908 -0.543135 0
M  V30 9269 O 858.588 2.64389 -0.617305 0
M  V30 9270 C 857.044 1.85785 -3.0824 0
M  V30 9271 C 856.652 1.04497 -4.35642 0
M  V30 9272 C 858.396 2.58393 -3.36798 0
M  V30 9273 C 856.303 1.87955 -5.60738 0
M  V30 9274 H 855.233 0.383396 -0.649248 0
M  V30 9275 H 857.884 0.27317 -1.81455 0
M  V30 9276 H 856.266 2.64205 -2.94978 0
M  V30 9277 H 857.44 0.305847 -4.59784 0
M  V30 9278 H 855.755 0.434023 -4.14132 0
M  V30 9279 H 858.352 3.21214 -4.27464 0
M  V30 9280 H 858.695 3.28011 -2.56349 0
M  V30 9281 H 859.228 1.87012 -3.511 0
M  V30 9282 H 855.967 1.22781 -6.43898 0
M  V30 9283 H 855.487 2.59499 -5.40759 0
M  V30 9284 H 857.166 2.45636 -5.98558 0
M  V30 9285 N 857.298 1.47698 0.54982 0
M  V30 9286 C 858.208 1.63386 1.68351 0
M  V30 9287 C 859.224 0.516583 1.66155 0
M  V30 9288 O 860.4 0.785088 1.85468 0
M  V30 9289 C 857.465 1.6513 3.04849 0
M  V30 9290 C 856.526 2.88338 3.18056 0
M  V30 9291 C 855.759 2.8999 4.48042 0
M  V30 9292 O 855.982 2.00633 5.3395 0
M  V30 9293 O 854.916 3.81938 4.65196 0
M  V30 9294 H 858.742 2.59329 1.58057 0
M  V30 9295 H 856.327 1.30869 0.72067 0
M  V30 9296 H 858.209 1.68913 3.86065 0
M  V30 9297 H 856.884 0.723555 3.1551 0
M  V30 9298 H 855.791 2.90097 2.36209 0
M  V30 9299 H 857.124 3.80431 3.12302 0
M  V30 9300 N 858.776 -0.797141 1.35954 0
M  V30 9301 C 859.708 -1.91782 1.25509 0
M  V30 9302 C 860.721 -1.61843 0.176271 0
M  V30 9303 O 861.91 -1.73235 0.430343 0
M  V30 9304 C 859.01 -3.26396 0.912073 0
M  V30 9305 C 858.183 -3.84171 2.0912 0
M  V30 9306 C 857.242 -4.9721 1.72246 0
M  V30 9307 O 856.268 -5.14136 2.44239 0
M  V30 9308 N 857.47 -5.76831 0.651611 0
M  V30 9309 H 860.235 -2.01266 2.22063 0
M  V30 9310 H 857.796 -0.975033 1.29247 0
M  V30 9311 H 859.788 -3.99499 0.646707 0
M  V30 9312 H 858.358 -3.12579 0.0359079 0
M  V30 9313 H 857.578 -3.03148 2.51982 0
M  V30 9314 H 858.866 -4.19503 2.87914 0
M  V30 9315 H 858.264 -5.65675 0.0536678 0
M  V30 9316 H 856.821 -6.50272 0.44605 0
M  V30 9317 N 860.254 -1.20106 -1.0204 0
M  V30 9318 C 861.494 -1.02013 -1.77123 0
M  V30 9319 C 861.858 0.440439 -1.8688 0
M  V30 9320 O 863.059 0.74144 -2.58372 0
M  V30 9321 C 861.33 -1.68058 -3.15423 0
M  V30 9322 S 862.889 -1.65016 -4.0659 0
M  V30 9323 H 859.707 -0.365882 -0.609632 0
M  V30 9324 H 862.309 -1.52597 -1.22206 0
M  V30 9325 H 861.013 -2.73544 -3.05944 0
M  V30 9326 H 860.544 -1.17589 -3.75415 0
M  V30 9327 H 862.559 -0.680341 -4.91514 0
M  V30 9328 N 861.732 1.21287 -1.00634 0
M  V30 9329 C 862.979 1.90389 -0.6898 0
M  V30 9330 C 863.307 1.78193 0.779574 0
M  V30 9331 O 862.562 1.15358 1.58085 0
M  V30 9332 C 862.861 3.41374 -1.05824 0
M  V30 9333 C 862.527 3.73766 -2.5221 0
M  V30 9334 C 861.189 3.82317 -2.92211 0
M  V30 9335 C 863.541 3.88871 -3.47028 0
M  V30 9336 C 860.869 4.03423 -4.2599 0
M  V30 9337 C 863.221 4.11484 -4.80483 0
M  V30 9338 C 861.885 4.18263 -5.20204 0
M  V30 9339 H 861.155 0.696683 -0.252416 0
M  V30 9340 H 863.802 1.43769 -1.26502 0
M  V30 9341 H 862.107 3.8974 -0.401281 0
M  V30 9342 H 863.804 3.93118 -0.79116 0
M  V30 9343 H 860.394 3.67702 -2.20212 0
M  V30 9344 H 864.578 3.8163 -3.17289 0
M  V30 9345 H 859.834 4.06902 -4.56334 0
M  V30 9346 H 864.008 4.22115 -5.53888 0
M  V30 9347 H 861.635 4.34369 -6.23881 0
M  V30 9348 N 863.21 0.781244 1.36873 0
M  V30 9349 C 864.157 0.172146 2.30157 0
M  V30 9350 C 865.127 -0.679328 1.51573 0
M  V30 9351 O 866.312 -0.629713 1.80109 0
M  V30 9352 C 863.452 -0.693534 3.38059 0
M  V30 9353 C 862.565 0.175586 4.31643 0
M  V30 9354 C 861.7 -0.695695 5.26625 0
M  V30 9355 C 860.739 0.17538 6.11849 0
M  V30 9356 N 859.876 -0.654416 6.99043 0
M  V30 9357 H 864.716 0.973133 2.81663 0
M  V30 9358 H 862.253 0.491469 1.38647 0
M  V30 9359 H 864.211 -1.21035 3.99257 0
M  V30 9360 H 862.841 -1.46003 2.87894 0
M  V30 9361 H 861.893 0.810295 3.7167 0
M  V30 9362 H 863.205 0.847107 4.91554 0
M  V30 9363 H 862.359 -1.27863 5.93073 0
M  V30 9364 H 861.098 -1.40087 4.67148 0
M  V30 9365 H 860.103 0.77078 5.4437 0
M  V30 9366 H 861.328 0.87803 6.734 0
M  V30 9367 H 859.274 -1.34403 6.42084 0
M  V30 9368 H 859.191 -0.0403998 7.55989 0
M  V30 9369 H 860.459 -1.22144 7.69871 0
M  V30 9370 N 864.689 -1.48329 0.532571 0
M  V30 9371 C 865.935 -2.028 -0.000583219 0
M  V30 9372 C 866.268 -1.40858 -1.33688 0
M  V30 9373 O 865.543 -0.555261 -1.86406 0
M  V30 9374 C 865.826 -3.59901 -0.119846 0
M  V30 9375 C 865.679 -4.32318 1.2418 0
M  V30 9376 C 866.998 -4.31904 -0.845372 0
M  V30 9377 H 864.117 -0.736999 0.00126205 0
M  V30 9378 H 866.759 -1.77024 0.690102 0
M  V30 9379 H 864.909 -3.81993 -0.708092 0
M  V30 9380 H 866.581 -4.21637 1.87136 0
M  V30 9381 H 864.824 -3.93635 1.82301 0
M  V30 9382 H 865.495 -5.40697 1.11132 0
M  V30 9383 H 867.971 -4.14658 -0.346159 0
M  V30 9384 H 866.847 -5.41509 -0.897723 0
M  V30 9385 H 867.108 -3.99369 -1.89622 0
M  V30 9386 N 866.167 -0.267825 -1.55308 0
M  V30 9387 C 867.416 0.351635 -1.98611 0
M  V30 9388 C 867.729 1.57522 -1.15957 0
M  V30 9389 O 868.935 2.26717 -1.49371 0
M  V30 9390 C 867.391 0.676986 -3.53475 0
M  V30 9391 C 866.999 -0.526385 -4.44897 0
M  V30 9392 C 868.743 1.25948 -4.05386 0
M  V30 9393 C 866.65 -0.176026 -5.91138 0
M  V30 9394 H 865.58 0.13516 -0.741787 0
M  V30 9395 H 868.231 -0.371333 -1.79704 0
M  V30 9396 H 866.613 1.45866 -3.68156 0
M  V30 9397 H 867.787 -1.30339 -4.41982 0
M  V30 9398 H 866.102 -1.02522 -4.03582 0
M  V30 9399 H 868.699 1.53529 -5.12184 0
M  V30 9400 H 869.042 2.19094 -3.53982 0
M  V30 9401 H 869.575 0.540253 -3.94114 0
M  V30 9402 H 866.314 -1.07518 -6.46622 0
M  V30 9403 H 865.834 0.564363 -5.97139 0
M  V30 9404 H 867.513 0.234365 -6.46575 0
M  V30 9405 N 867.645 1.57599 0.00500368 0
M  V30 9406 C 868.893 1.89973 0.68953 0
M  V30 9407 C 869.214 0.868531 1.7459 0
M  V30 9408 O 868.484 -0.0947367 1.95671 0
M  V30 9409 H 867.064 0.701153 0.25767 0
M  V30 9410 H 869.726 1.94869 -0.0347392 0
M  V30 9411 H 868.822 2.89584 1.16394 0
M  V30 9412 N 869.123 -0.277682 1.55134 0
M  V30 9413 C 870.37 -1.0099 1.7552 0
M  V30 9414 C 870.698 -1.86452 0.553712 0
M  V30 9415 O 869.953 -1.90122 -0.463896 0
M  V30 9416 C 870.252 -1.92599 3.01065 0
M  V30 9417 C 869.918 -1.22926 4.3382 0
M  V30 9418 C 868.58 -1.03659 4.69902 0
M  V30 9419 C 870.932 -0.733071 5.16019 0
M  V30 9420 C 868.26 -0.334933 5.85743 0
M  V30 9421 C 870.612 -0.0450319 6.32584 0
M  V30 9422 C 869.276 0.159393 6.6731 0
M  V30 9423 H 868.546 -0.36955 0.642273 0
M  V30 9424 H 871.193 -0.282611 1.89403 0
M  V30 9425 H 869.498 -2.71934 2.82062 0
M  V30 9426 H 871.195 -2.49367 3.14034 0
M  V30 9427 H 867.785 -1.38933 4.05457 0
M  V30 9428 H 871.969 -0.869565 4.88623 0
M  V30 9429 H 867.225 -0.165783 6.11175 0
M  V30 9430 H 871.399 0.34723 6.95534 0
M  V30 9431 H 869.026 0.70507 7.56923 0
M  V30 9432 N 870.601 -1.47988 -0.541979 0
M  V30 9433 C 871.829 -1.59034 -1.32347 0
M  V30 9434 C 872.244 -0.246123 -1.87189 0
M  V30 9435 O 871.601 0.762889 -1.6579 0
M  V30 9436 C 871.652 -2.62759 -2.48274 0
M  V30 9437 O 871.373 -3.91963 -1.95695 0
M  V30 9438 C 872.874 -2.84133 -3.4027 0
M  V30 9439 H 870.094 -0.536574 -0.402901 0
M  V30 9440 H 872.638 -1.93725 -0.655045 0
M  V30 9441 H 870.793 -2.3096 -3.11025 0
M  V30 9442 H 871.207 -4.48769 -2.7149 0
M  V30 9443 H 872.681 -3.60538 -4.17991 0
M  V30 9444 H 873.158 -1.92512 -3.9476 0
M  V30 9445 H 873.764 -3.17188 -2.83322 0
M  V30 9446 N 872.079 0.78992 -1.36375 0
M  V30 9447 C 873.012 1.90907 -1.25019 0
M  V30 9448 C 873.99 1.62043 -0.134463 0
M  V30 9449 O 875.174 1.86008 -0.305506 0
M  V30 9450 C 872.301 3.25716 -0.928822 0
M  V30 9451 C 871.347 3.73511 -2.05892 0
M  V30 9452 S 872.18 3.89332 -3.6767 0
M  V30 9453 C 873.336 5.27017 -3.37645 0
M  V30 9454 H 873.569 2.00247 -2.19746 0
M  V30 9455 H 871.102 0.949097 -1.21785 0
M  V30 9456 H 873.06 4.03586 -0.750219 0
M  V30 9457 H 871.721 3.141 0.000658424 0
M  V30 9458 H 870.914 4.71195 -1.78862 0
M  V30 9459 H 870.516 3.02688 -2.19672 0
M  V30 9460 H 872.808 6.1158 -2.91507 0
M  V30 9461 H 873.751 5.5905 -4.3459 0
M  V30 9462 H 874.159 4.94093 -2.73006 0
M  V30 9463 N 873.557 1.20646 1.01402 0
M  V30 9464 C 874.467 0.973385 2.13453 0
M  V30 9465 C 875.483 -0.0715865 1.73853 0
M  V30 9466 O 876.659 0.116438 2.01063 0
M  V30 9467 C 873.724 0.531285 3.42605 0
M  V30 9468 C 872.785 1.64741 3.96433 0
M  V30 9469 C 872.018 1.22631 5.1942 0
M  V30 9470 O 872.241 0.0960891 5.70319 0
M  V30 9471 O 871.175 2.03474 5.66465 0
M  V30 9472 H 875.001 1.91164 2.35987 0
M  V30 9473 H 872.586 0.990553 1.11841 0
M  V30 9474 H 874.468 0.294095 4.20373 0
M  V30 9475 H 873.143 -0.378358 3.21481 0
M  V30 9476 H 872.05 1.93891 3.19933 0
M  V30 9477 H 873.383 2.53415 4.2195 0
M  V30 9478 N 875.035 -1.20752 1.01276 0
M  V30 9479 C 875.967 -2.22798 0.537917 0
M  V30 9480 C 876.98 -1.5836 -0.377638 0
M  V30 9481 O 878.169 -1.77624 -0.176599 0
M  V30 9482 C 875.269 -3.38068 -0.237364 0
M  V30 9483 C 874.442 -4.32095 0.679161 0
M  V30 9484 C 873.501 -5.26178 -0.0478676 0
M  V30 9485 O 872.527 -5.66305 0.573366 0
M  V30 9486 N 873.729 -5.65201 -1.32396 0
M  V30 9487 H 876.494 -2.64166 1.4155 0
M  V30 9488 H 874.055 -1.35254 0.889826 0
M  V30 9489 H 876.047 -3.98009 -0.73288 0
M  V30 9490 H 874.617 -2.95622 -1.0162 0
M  V30 9491 H 873.837 -3.70179 1.35505 0
M  V30 9492 H 875.125 -4.91842 1.30263 0
M  V30 9493 H 874.523 -5.34606 -1.84968 0
M  V30 9494 H 873.08 -6.27468 -1.76428 0
M  V30 9495 N 876.513 -0.788492 -1.36457 0
M  V30 9496 C 877.443 -0.200468 -2.32638 0
M  V30 9497 C 878.424 0.664031 -1.56603 0
M  V30 9498 O 879.609 0.598045 -1.84762 0
M  V30 9499 C 876.739 0.666274 -3.40849 0
M  V30 9500 C 875.693 -0.0982574 -4.27887 0
M  V30 9501 C 875.019 0.889018 -5.27258 0
M  V30 9502 C 876.319 -1.28692 -5.06197 0
M  V30 9503 H 878.013 -1.00399 -2.82065 0
M  V30 9504 H 875.559 -0.484237 -1.35614 0
M  V30 9505 H 877.512 1.08757 -4.07124 0
M  V30 9506 H 876.236 1.50249 -2.89987 0
M  V30 9507 H 874.895 -0.500525 -3.63167 0
M  V30 9508 H 874.543 1.72024 -4.7267 0
M  V30 9509 H 874.243 0.381909 -5.86358 0
M  V30 9510 H 875.767 1.30891 -5.96406 0
M  V30 9511 H 877.181 -0.941429 -5.65517 0
M  V30 9512 H 875.578 -1.72726 -5.74705 0
M  V30 9513 H 876.648 -2.08273 -4.37893 0
M  V30 9514 N 877.991 1.48044 -0.54043 0
M  V30 9515 C 879.239 2.02097 -0.0101367 0
M  V30 9516 C 879.56 1.41881 1.33771 0
M  V30 9517 O 878.83 0.587923 1.8687 0
M  V30 9518 H 877.41 0.747 -0.000758716 0
M  V30 9519 H 880.072 1.81639 -0.706634 0
M  V30 9520 H 879.168 3.11969 0.0904474 0
M  V30 9521 N 879.47 0.276058 1.55163 0
M  V30 9522 C 880.695 -0.346648 2.04483 0
M  V30 9523 C 881.12 -1.48613 1.15308 0
M  V30 9524 O 880.478 -1.80663 0.151875 0
M  V30 9525 C 880.526 -0.804268 3.51517 0
M  V30 9526 O 879.63 -1.91143 3.65429 0
M  V30 9527 H 878.971 -0.0715251 0.660136 0
M  V30 9528 H 881.501 0.410631 2.00437 0
M  V30 9529 H 881.511 -1.09977 3.92898 0
M  V30 9530 H 880.186 0.0294123 4.1589 0
M  V30 9531 H 878.763 -1.61839 3.3595 0
M  V30 9532 N 880.948 -1.576 0.00335426 0
M  V30 9533 C 882.197 -1.89892 -0.680001 0
M  V30 9534 C 882.51 -0.878731 -1.7475 0
M  V30 9535 O 883.716 -1.09199 -2.48572 0
M  V30 9536 C 882.172 -3.37098 -1.26066 0
M  V30 9537 C 881.78 -4.4742 -0.227807 0
M  V30 9538 C 883.524 -3.78495 -1.92202 0
M  V30 9539 C 881.431 -5.85706 -0.81865 0
M  V30 9540 H 880.361 -0.708578 -0.257746 0
M  V30 9541 H 883.012 -1.83387 0.0644472 0
M  V30 9542 H 881.394 -3.38451 -2.05589 0
M  V30 9543 H 882.568 -4.57589 0.54307 0
M  V30 9544 H 880.883 -4.15064 0.333297 0
M  V30 9545 H 883.48 -4.7915 -2.37318 0
M  V30 9546 H 883.823 -3.12187 -2.75399 0
M  V30 9547 H 884.356 -3.79456 -1.19408 0
M  V30 9548 H 881.095 -6.55495 -0.0253787 0
M  V30 9549 H 880.615 -5.79196 -1.55861 0
M  V30 9550 H 882.294 -6.33469 -1.31627 0
M  V30 9551 N 882.426 0.269451 -1.5528 0
M  V30 9552 C 883.656 1.01724 -1.79821 0
M  V30 9553 C 884.064 1.80298 -0.573532 0
M  V30 9554 O 883.407 1.77666 0.466963 0
M  V30 9555 C 883.469 2.02043 -2.97353 0
M  V30 9556 C 883.133 1.42375 -4.34256 0
M  V30 9557 C 884.13 0.837611 -5.13108 0
M  V30 9558 C 881.815 1.44988 -4.8092 0
M  V30 9559 C 883.809 0.285557 -6.3676 0
M  V30 9560 C 881.496 0.893969 -6.04526 0
M  V30 9561 C 882.494 0.312809 -6.82283 0
M  V30 9562 O 882.182 -0.234582 -8.03558 0
M  V30 9563 H 881.914 0.30604 -0.602757 0
M  V30 9564 H 884.468 0.30454 -2.0313 0
M  V30 9565 H 882.698 2.77082 -2.69745 0
M  V30 9566 H 884.387 2.6298 -3.09187 0
M  V30 9567 H 885.153 0.81009 -4.78187 0
M  V30 9568 H 881.032 1.89162 -4.20403 0
M  V30 9569 H 884.576 -0.168696 -6.97396 0
M  V30 9570 H 880.473 0.918742 -6.38928 0
M  V30 9571 H 881.241 -0.124282 -8.18406 0
M  V30 9572 N 883.904 1.48273 0.534124 0
M  V30 9573 C 885.129 1.59988 1.31979 0
M  V30 9574 C 885.554 0.258824 1.86311 0
M  V30 9575 O 884.912 -0.768885 1.64188 0
M  V30 9576 C 884.96 2.64642 2.44943 0
M  V30 9577 O 884.064 2.21515 3.47858 0
M  V30 9578 H 883.405 0.536625 0.391063 0
M  V30 9579 H 885.935 1.94229 0.643135 0
M  V30 9580 H 885.945 2.85786 2.91187 0
M  V30 9581 H 884.62 3.62004 2.04758 0
M  V30 9582 H 883.197 2.10567 3.0776 0
M  V30 9583 N 885.382 -0.782676 1.36792 0
M  V30 9584 C 886.631 -1.53605 1.30723 0
M  V30 9585 C 886.944 -1.95294 -0.109296 0
M  V30 9586 O 888.15 -2.69921 -0.292398 0
M  V30 9587 C 886.606 -2.77321 2.29393 0
M  V30 9588 C 886.214 -2.42774 3.76517 0
M  V30 9589 C 887.958 -3.55289 2.32314 0
M  V30 9590 C 885.865 -3.62926 4.66947 0
M  V30 9591 H 884.795 -0.576646 0.485794 0
M  V30 9592 H 887.446 -0.858255 1.62192 0
M  V30 9593 H 885.828 -3.46934 1.90927 0
M  V30 9594 H 887.002 -1.81014 4.23758 0
M  V30 9595 H 885.317 -1.78002 3.76436 0
M  V30 9596 H 887.914 -4.44573 2.97083 0
M  V30 9597 H 888.257 -3.94361 1.3336 0
M  V30 9598 H 888.79 -2.92662 2.69432 0
M  V30 9599 H 885.529 -3.28944 5.66989 0
M  V30 9600 H 885.049 -4.23828 4.24418 0
M  V30 9601 H 886.728 -4.29873 4.83548 0
M  V30 9602 N 886.86 -1.21182 -1.00761 0
M  V30 9603 C 887.79 -0.992773 -2.11344 0
M  V30 9604 C 888.771 0.0813618 -1.69905 0
M  V30 9605 O 889.956 -0.0779503 -1.94043 0
M  V30 9606 C 887.086 -0.553826 -3.42856 0
M  V30 9607 C 886.04 -1.57223 -3.98077 0
M  V30 9608 C 885.366 -0.989605 -5.25463 0
M  V30 9609 C 886.666 -2.95839 -4.30438 0
M  V30 9610 H 888.36 -1.91766 -2.29927 0
M  V30 9611 H 885.906 -0.923426 -1.10494 0
M  V30 9612 H 887.859 -0.387771 -4.19612 0
M  V30 9613 H 886.583 0.406702 -3.24058 0
M  V30 9614 H 885.242 -1.7258 -3.23437 0
M  V30 9615 H 884.89 -0.0208743 -5.02996 0
M  V30 9616 H 884.59 -1.66984 -5.63374 0
M  V30 9617 H 886.114 -0.834815 -6.04866 0
M  V30 9618 H 887.528 -2.8394 -4.98047 0
M  V30 9619 H 885.925 -3.60851 -4.79486 0
M  V30 9620 H 886.995 -3.46882 -3.38823 0
M  V30 9621 N 888.338 1.20213 -1.01915 0
M  V30 9622 C 889.301 2.21307 -0.596327 0
M  V30 9623 C 890.301 1.57274 0.334879 0
M  V30 9624 O 891.491 1.73764 0.12322 0
M  V30 9625 C 888.623 3.40657 0.128808 0
M  V30 9626 H 889.816 2.60228 -1.49068 0
M  V30 9627 H 887.369 1.33721 -0.809226 0
M  V30 9628 H 888.104 3.07241 1.03796 0
M  V30 9629 H 887.889 3.88361 -0.540183 0
M  V30 9630 H 889.379 4.15564 0.411892 0
M  V30 9631 N 889.816 0.795718 1.36037 0
M  V30 9632 C 890.779 0.204318 2.28287 0
M  V30 9633 C 891.779 -0.602017 1.49105 0
M  V30 9634 O 892.969 -0.422089 1.69009 0
M  V30 9635 C 890.101 -0.716431 3.33287 0
M  V30 9636 H 891.294 1.01781 2.821 0
M  V30 9637 H 888.847 0.565588 1.45708 0
M  V30 9638 H 889.582 -1.55403 2.84641 0
M  V30 9639 H 889.367 -0.140096 3.9185 0
M  V30 9640 H 890.857 -1.12488 4.02164 0
M  V30 9641 N 891.294 -1.47756 0.548274 0
M  V30 9642 C 892.543 -2.01691 0.0187961 0
M  V30 9643 C 892.856 -1.42894 -1.33569 0
M  V30 9644 O 894.062 -1.88438 -1.95457 0
M  V30 9645 C 892.518 -3.59896 -0.016847 0
M  V30 9646 C 892.126 -4.27683 1.33385 0
M  V30 9647 C 893.87 -4.21614 -0.494188 0
M  V30 9648 C 891.777 -5.7787 1.2578 0
M  V30 9649 H 890.707 -0.753993 0.00325648 0
M  V30 9650 H 893.358 -1.69838 0.694792 0
M  V30 9651 H 891.74 -3.88672 -0.758304 0
M  V30 9652 H 892.914 -4.10559 2.09232 0
M  V30 9653 H 891.229 -3.77915 1.7484 0
M  V30 9654 H 893.826 -5.3166 -0.569342 0
M  V30 9655 H 894.169 -3.88176 -1.50417 0
M  V30 9656 H 894.702 -3.97336 0.192138 0
M  V30 9657 H 891.441 -6.15912 2.2435 0
M  V30 9658 H 890.961 -5.97355 0.540997 0
M  V30 9659 H 892.64 -6.39897 0.956109 0
M  V30 9660 N 892.772 -0.284283 -1.55015 0
M  V30 9661 C 893.702 0.592663 -2.25853 0
M  V30 9662 C 894.683 1.15151 -1.25197 0
M  V30 9663 O 895.868 1.18395 -1.53936 0
M  V30 9664 C 892.998 1.77254 -2.98661 0
M  V30 9665 C 891.952 1.34482 -4.06323 0
M  V30 9666 C 891.278 2.60853 -4.66754 0
M  V30 9667 C 892.578 0.488288 -5.20013 0
M  V30 9668 H 894.272 0.00187041 -2.994 0
M  V30 9669 H 891.818 -0.000540402 -1.44 0
M  V30 9670 H 893.771 2.39199 -3.46932 0
M  V30 9671 H 892.495 2.38931 -2.22664 0
M  V30 9672 H 891.154 0.748519 -3.58877 0
M  V30 9673 H 890.802 3.20808 -3.87416 0
M  V30 9674 H 890.502 2.32942 -5.39455 0
M  V30 9675 H 892.026 3.23631 -5.1778 0
M  V30 9676 H 893.44 1.01298 -5.6428 0
M  V30 9677 H 891.837 0.303669 -5.99331 0
M  V30 9678 H 892.907 -0.490727 -4.8241 0
M  V30 9679 N 894.251 1.57596 -0.0117121 0
M  V30 9680 C 895.199 2.1029 0.994035 0
M  V30 9681 C 896.193 1.02549 1.34833 0
M  V30 9682 O 897.399 1.21003 1.3326 0
M  V30 9683 H 893.774 0.671624 0.338268 0
M  V30 9684 H 895.745 2.93761 0.524147 0
M  V30 9685 C 894.494 2.63099 2.27319 0
M  V30 9686 H 893.817 3.45642 2.00927 0
M  V30 9687 H 895.257 3.03635 2.95942 0
M  V30 9688 C 893.716 1.55044 2.99104 0
M  V30 9689 O 894.246 0.940127 3.90544 0
M  V30 9690 N 892.452 1.27506 2.61133 0
M  V30 9691 H 891.999 1.77322 1.86855 0
M  V30 9692 H 891.957 0.554292 3.09475 0
M  V30 9693 N 895.729 -0.261212 1.5542 0
M  V30 9694 C 896.975 -0.992699 1.76843 0
M  V30 9695 C 897.308 -1.8551 0.574428 0
M  V30 9696 O 896.583 -1.89739 -0.427713 0
M  V30 9697 C 896.866 -1.86532 3.08022 0
M  V30 9698 C 896.719 -1.03206 4.378 0
M  V30 9699 C 898.038 -2.85036 3.35324 0
M  V30 9700 H 895.157 -0.359473 0.643388 0
M  V30 9701 H 897.799 -0.264214 1.88154 0
M  V30 9702 H 895.949 -2.48644 2.9851 0
M  V30 9703 H 897.621 -0.430743 4.59285 0
M  V30 9704 H 895.864 -0.335911 4.32497 0
M  V30 9705 H 896.535 -1.6761 5.25938 0
M  V30 9706 H 899.011 -2.3306 3.44706 0
M  V30 9707 H 897.887 -3.43226 4.28354 0
M  V30 9708 H 898.148 -3.60768 2.55537 0
M  V30 9709 N 897.207 -1.48554 -0.526253 0
M  V30 9710 C 898.455 -1.56452 -1.27935 0
M  V30 9711 C 898.776 -0.24184 -1.93495 0
M  V30 9712 O 898.046 0.736917 -1.81511 0
M  V30 9713 H 896.626 -0.576379 -0.47518 0
M  V30 9714 H 899.288 -1.85039 -0.612083 0
M  V30 9715 H 898.384 -2.34751 -2.05666 0
M  V30 9716 N 898.685 0.775411 -1.37205 0
M  V30 9717 C 899.633 1.90996 -1.32752 0
M  V30 9718 C 900.627 1.68006 -0.216907 0
M  V30 9719 O 901.833 1.7584 -0.384723 0
M  V30 9720 H 898.208 0.62803 -0.413621 0
M  V30 9721 H 900.179 1.91869 -2.28536 0
M  V30 9722 C 898.928 3.28211 -1.14772 0
M  V30 9723 H 898.251 3.46477 -1.99484 0
M  V30 9724 H 899.691 4.07907 -1.15706 0
M  V30 9725 C 898.15 3.3658 0.146852 0
M  V30 9726 O 898.68 3.85428 1.13173 0
M  V30 9727 N 896.886 2.89936 0.196305 0
M  V30 9728 H 896.433 2.50375 -0.605807 0
M  V30 9729 H 896.391 2.95916 1.06212 0
M  V30 9730 N 900.163 1.21714 1.00117 0
M  V30 9731 C 901.412 1.03087 1.73367 0
M  V30 9732 C 901.725 -0.435532 1.90689 0
M  V30 9733 O 902.931 -0.741291 2.61184 0
M  V30 9734 C 901.387 1.79593 3.11888 0
M  V30 9735 C 900.995 3.30428 3.02525 0
M  V30 9736 C 902.739 1.69386 3.89241 0
M  V30 9737 C 900.646 3.99408 4.3615 0
M  V30 9738 H 899.576 0.382117 0.650002 0
M  V30 9739 H 902.227 1.45486 1.11831 0
M  V30 9740 H 900.609 1.29988 3.74058 0
M  V30 9741 H 901.783 3.87364 2.49571 0
M  V30 9742 H 900.098 3.4122 2.38659 0
M  V30 9743 H 902.695 2.18251 4.8813 0
M  V30 9744 H 903.038 0.652773 4.1115 0
M  V30 9745 H 903.571 2.16489 3.33733 0
M  V30 9746 H 900.31 5.03735 4.19442 0
M  V30 9747 H 899.83 3.47261 4.8905 0
M  V30 9748 H 901.509 4.04537 5.04934 0
M  V30 9749 N 901.641 -1.19671 1.02551 0
M  V30 9750 C 902.551 -2.26441 0.613329 0
M  V30 9751 C 903.567 -1.70375 -0.353339 0
M  V30 9752 O 904.743 -2.0028 -0.212064 0
M  V30 9753 C 901.808 -3.46684 -0.0329028 0
M  V30 9754 C 900.869 -4.17945 0.980837 0
M  V30 9755 C 900.102 -5.32448 0.36535 0
M  V30 9756 O 900.325 -5.64291 -0.832596 0
M  V30 9757 O 899.259 -5.92012 1.08652 0
M  V30 9758 H 903.085 -2.63932 1.50246 0
M  V30 9759 H 900.67 -1.2646 0.795502 0
M  V30 9760 H 902.552 -4.1956 -0.393395 0
M  V30 9761 H 901.227 -3.1105 -0.896089 0
M  V30 9762 H 900.134 -3.47204 1.39286 0
M  V30 9763 H 901.467 -4.57542 1.81428 0
M  V30 9764 N 903.119 -0.802921 -1.35613 0
M  V30 9765 C 904.366 -0.381576 -1.98872 0
M  V30 9766 C 904.694 1.0503 -1.63704 0
M  V30 9767 O 903.949 1.7427 -0.890418 0
M  V30 9768 C 904.248 -0.507806 -3.53774 0
M  V30 9769 C 903.914 -1.90245 -4.088 0
M  V30 9770 C 902.576 -2.28401 -4.2354 0
M  V30 9771 C 904.928 -2.81504 -4.3864 0
M  V30 9772 C 902.256 -3.57192 -4.65436 0
M  V30 9773 C 904.608 -4.09737 -4.81973 0
M  V30 9774 C 903.272 -4.47897 -4.94919 0
M  V30 9775 H 902.542 -0.139629 -0.727726 0
M  V30 9776 H 905.189 -1.023 -1.61886 0
M  V30 9777 H 903.494 0.21708 -3.91198 0
M  V30 9778 H 905.191 -0.162625 -4.0067 0
M  V30 9779 H 901.781 -1.596 -3.97776 0
M  V30 9780 H 905.965 -2.53276 -4.26808 0
M  V30 9781 H 901.221 -3.86611 -4.73648 0
M  V30 9782 H 905.395 -4.80555 -5.04024 0
M  V30 9783 H 903.022 -5.47747 -5.27141 0
M  V30 9784 N 904.597 1.47463 -0.556102 0
M  V30 9785 C 905.822 2.07371 -0.0344729 0
M  V30 9786 C 906.247 1.40621 1.2493 0
M  V30 9787 O 905.605 0.48082 1.74808 0
M  V30 9788 C 905.653 3.60306 0.145563 0
M  V30 9789 O 904.757 3.94299 1.20839 0
M  V30 9790 H 904.098 0.662052 -0.0508274 0
M  V30 9791 H 906.628 1.89498 -0.771469 0
M  V30 9792 H 906.638 4.06408 0.360112 0
M  V30 9793 H 905.313 4.08288 -0.792089 0
M  V30 9794 H 903.89 3.59944 0.97442 0
M  V30 9795 N 906.075 0.2925 1.54862 0
M  V30 9796 C 907.3 -0.32494 2.04839 0
M  V30 9797 C 907.725 -1.47381 1.16877 0
M  V30 9798 O 907.083 -1.80492 0.171028 0
M  V30 9799 C 907.131 -0.76694 3.5235 0
M  V30 9800 O 906.235 -1.87256 3.67436 0
M  V30 9801 H 905.576 -0.0645195 0.660858 0
M  V30 9802 H 908.106 0.431867 1.9999 0
M  V30 9803 H 908.116 -1.05804 3.94043 0
M  V30 9804 H 906.791 0.0735212 4.15835 0
M  V30 9805 H 905.368 -1.58266 3.37648 0
M  V30 9806 N 907.553 -1.57587 0.0200696 0
M  V30 9807 C 908.799 -1.91708 -0.661503 0
M  V30 9808 C 909.132 -0.895968 -1.72296 0
M  V30 9809 O 908.407 0.082577 -1.94325 0
M  V30 9810 C 908.69 -3.36344 -1.28627 0
M  V30 9811 C 908.543 -4.49186 -0.234982 0
M  V30 9812 C 909.862 -3.80771 -2.20685 0
M  V30 9813 H 906.981 -0.69717 -0.239005 0
M  V30 9814 H 909.623 -1.8985 0.0754764 0
M  V30 9815 H 907.773 -3.38058 -1.91439 0
M  V30 9816 H 909.445 -4.59606 0.395011 0
M  V30 9817 H 907.688 -4.31557 0.440565 0
M  V30 9818 H 908.359 -5.47395 -0.711558 0
M  V30 9819 H 910.835 -3.80735 -1.67868 0
M  V30 9820 H 909.711 -4.82685 -2.61356 0
M  V30 9821 H 909.972 -3.15764 -3.09428 0
M  V30 9822 N 909.032 0.252966 -1.55557 0
M  V30 9823 C 909.995 1.29645 -1.8901 0
M  V30 9824 C 910.995 1.41378 -0.766096 0
M  V30 9825 O 912.185 1.40183 -1.03414 0
M  V30 9826 C 909.317 2.67504 -2.11316 0
M  V30 9827 H 910.51 1.01202 -2.82309 0
M  V30 9828 H 908.063 0.491977 -1.48355 0
M  V30 9829 H 908.798 3.01095 -1.20466 0
M  V30 9830 H 908.583 2.6037 -2.93172 0
M  V30 9831 H 910.073 3.42861 -2.38403 0
M  V30 9832 N 910.51 1.48831 0.518367 0
M  V30 9833 C 911.738 1.6112 1.298 0
M  V30 9834 C 912.153 0.275872 1.86774 0
M  V30 9835 O 911.51 -0.736416 1.66983 0
M  V30 9836 C 911.561 2.66675 2.44063 0
M  V30 9837 O 911.282 3.95027 1.89434 0
M  V30 9838 C 912.783 2.8951 3.35706 0
M  V30 9839 H 910.003 0.542916 0.394314 0
M  V30 9840 H 912.547 1.94743 0.624142 0
M  V30 9841 H 910.702 2.35879 3.07311 0
M  V30 9842 H 911.116 4.53031 2.64316 0
M  V30 9843 H 912.59 3.67142 4.12202 0
M  V30 9844 H 913.067 1.98768 3.91648 0
M  V30 9845 H 913.673 3.21656 2.7824 0
M  V30 9846 N 911.988 -0.768124 1.37614 0
M  V30 9847 C 912.898 -1.91249 1.35871 0
M  V30 9848 C 913.914 -1.7208 0.257786 0
M  V30 9849 O 915.09 -1.95253 0.493782 0
M  V30 9850 C 912.155 -3.26423 1.16829 0
M  V30 9851 C 911.216 -3.5822 2.36594 0
M  V30 9852 C 910.449 -4.86945 2.1845 0
M  V30 9853 O 910.672 -5.58258 1.17064 0
M  V30 9854 O 909.606 -5.17888 3.06718 0
M  V30 9855 H 913.432 -1.95671 2.32264 0
M  V30 9856 H 911.017 -0.911382 1.18382 0
M  V30 9857 H 912.899 -4.07269 1.08212 0
M  V30 9858 H 911.574 -3.22845 0.235123 0
M  V30 9859 H 910.481 -2.77594 2.50783 0
M  V30 9860 H 911.814 -3.66545 3.2849 0
M  V30 9861 N 913.466 -1.22244 -0.994698 0
M  V30 9862 C 914.416 -0.958244 -2.06886 0
M  V30 9863 C 915.4 0.0904481 -1.60646 0
M  V30 9864 O 916.592 -0.119837 -1.76594 0
M  V30 9865 C 913.721 -0.535944 -3.39091 0
M  V30 9866 C 912.807 -1.61927 -3.9197 0
M  V30 9867 N 913.198 -2.84659 -4.18094 0
M  V30 9868 C 911.496 -1.49053 -4.20356 0
M  V30 9869 C 912.197 -3.54697 -4.61048 0
M  V30 9870 N 911.173 -2.82164 -4.64634 0
M  V30 9871 H 914.975 -1.89056 -2.25022 0
M  V30 9872 H 912.489 -1.1197 -1.17629 0
M  V30 9873 H 914.486 -0.327997 -4.15608 0
M  V30 9874 H 913.146 0.38949 -3.22355 0
M  V30 9875 H 914.157 -3.21104 -4.06341 0
M  V30 9876 H 910.834 -0.631154 -4.12702 0
M  V30 9877 H 912.224 -4.59837 -4.89898 0
M  V30 9878 N 914.944 1.19125 -1.03184 0
M  V30 9879 C 915.876 2.21914 -0.573294 0
M  V30 9880 C 916.889 1.5894 0.352397 0
M  V30 9881 O 918.078 1.77883 0.148318 0
M  V30 9882 C 915.178 3.38403 0.18355 0
M  V30 9883 C 914.351 4.3096 -0.747817 0
M  V30 9884 C 913.41 5.26188 -0.0358489 0
M  V30 9885 O 912.436 5.65321 -0.663388 0
M  V30 9886 N 913.638 5.67235 1.23387 0
M  V30 9887 H 916.403 2.61881 -1.45734 0
M  V30 9888 H 913.964 1.33821 -0.911231 0
M  V30 9889 H 915.956 3.99124 0.669468 0
M  V30 9890 H 914.526 2.97201 0.969043 0
M  V30 9891 H 913.746 3.67976 -1.41377 0
M  V30 9892 H 915.034 4.89708 -1.38071 0
M  V30 9893 H 914.432 5.37481 1.76439 0
M  V30 9894 H 912.989 6.30196 1.66423 0
M  V30 9895 N 916.422 0.810101 1.35185 0
M  V30 9896 C 917.671 0.388589 1.97921 0
M  V30 9897 C 917.984 -1.05079 1.64978 0
M  V30 9898 O 919.19 -1.57559 2.21105 0
M  V30 9899 C 917.646 0.643864 3.54094 0
M  V30 9900 C 917.254 2.09602 3.95943 0
M  V30 9901 C 918.998 0.287883 4.23523 0
M  V30 9902 C 916.905 2.29686 5.44976 0
M  V30 9903 H 915.835 0.141562 0.740592 0
M  V30 9904 H 918.486 0.994653 1.54204 0
M  V30 9905 H 916.868 -0.0321978 3.95987 0
M  V30 9906 H 918.042 2.81018 3.65192 0
M  V30 9907 H 916.357 2.4122 3.39414 0
M  V30 9908 H 918.954 0.415946 5.3308 0
M  V30 9909 H 919.297 -0.766305 4.09186 0
M  V30 9910 H 919.83 0.918004 3.87063 0
M  V30 9911 H 916.569 3.33563 5.64284 0
M  V30 9912 H 916.089 1.62798 5.77284 0
M  V30 9913 H 917.768 2.11411 6.11485 0
M  V30 9914 N 917.9 -1.47166 0.563914 0
M  V30 9915 C 919.177 -1.95586 -0.0236172 0
M  V30 9916 C 919.557 -1.50655 -1.47872 0
M  V30 9917 O 918.905 -0.748479 -2.15894 0
M  V30 9918 C 919.115 -3.48762 0.128841 0
M  V30 9919 C 920.463 -4.24598 -0.0130544 0
M  V30 9920 O 921.487 -3.56155 0.0567242 0
M  V30 9921 O 920.346 -5.46253 -0.164332 0
M  V30 9922 H 917.44 -0.824793 -0.0603789 0
M  V30 9923 H 919.986 -1.57536 0.63091 0
M  V30 9924 H 918.758 -3.74291 1.14113 0
M  V30 9925 H 918.381 -3.93594 -0.56299 0
M  V30 9926 N 919.378 -0.300708 -1.54705 0
M  V30 9927 C 920.325 0.57552 -2.23509 0
M  V30 9928 C 921.295 1.12979 -1.21758 0
M  V30 9929 O 922.48 1.17437 -1.50377 0
M  V30 9930 C 919.62 1.74167 -2.97926 0
M  V30 9931 C 918.733 1.21882 -4.1445 0
M  V30 9932 C 917.868 2.34881 -4.7645 0
M  V30 9933 C 916.907 1.79729 -5.85119 0
M  V30 9934 N 916.044 2.863 -6.41075 0
M  V30 9935 H 920.884 -0.0178257 -2.97995 0
M  V30 9936 H 918.421 -0.0205666 -1.47086 0
M  V30 9937 H 920.379 2.42753 -3.39303 0
M  V30 9938 H 919.009 2.30665 -2.25817 0
M  V30 9939 H 918.061 0.425227 -3.78016 0
M  V30 9940 H 919.373 0.775065 -4.92741 0
M  V30 9941 H 918.527 3.11415 -5.20678 0
M  V30 9942 H 917.266 2.82584 -3.97489 0
M  V30 9943 H 916.271 1.01684 -5.40315 0
M  V30 9944 H 917.496 1.32931 -6.65963 0
M  V30 9945 H 915.442 3.33337 -5.64998 0
M  V30 9946 H 915.359 2.46419 -7.14712 0
M  V30 9947 H 916.627 3.62732 -6.89961 0
M  V30 9948 N 920.856 1.57574 -0.0284266 0
M  V30 9949 C 922.081 1.96479 0.664137 0
M  V30 9950 C 922.506 0.904826 1.64908 0
M  V30 9951 O 921.864 -0.134339 1.80802 0
M  V30 9952 C 921.912 3.34479 1.34745 0
M  V30 9953 O 921.016 3.30794 2.46271 0
M  V30 9954 H 920.357 0.640654 0.174524 0
M  V30 9955 H 922.887 2.04402 -0.0900729 0
M  V30 9956 H 922.897 3.70694 1.7044 0
M  V30 9957 H 921.572 4.1117 0.625468 0
M  V30 9958 H 920.149 3.06294 2.12693 0
M  V30 9959 N 922.334 -0.244713 1.55689 0
M  V30 9960 C 923.284 -1.30596 1.86892 0
M  V30 9961 C 924.268 -1.43388 0.729972 0
M  V30 9962 O 925.46 -1.46593 0.99194 0
M  V30 9963 C 922.589 -2.66099 2.16902 0
M  V30 9964 C 921.675 -2.57302 3.37129 0
M  V30 9965 N 922.066 -2.18139 4.56343 0
M  V30 9966 C 920.364 -2.88311 3.40283 0
M  V30 9967 C 921.065 -2.20028 5.38482 0
M  V30 9968 N 920.041 -2.59616 4.77599 0
M  V30 9969 H 923.843 -0.993699 2.76591 0
M  V30 9970 H 921.357 -0.453334 1.55944 0
M  V30 9971 H 923.354 -3.4269 2.37422 0
M  V30 9972 H 922.014 -2.9819 1.28502 0
M  V30 9973 H 923.025 -1.89647 4.81928 0
M  V30 9974 H 919.702 -3.24928 2.62161 0
M  V30 9975 H 921.092 -1.9207 6.43862 0
M  V30 9976 N 923.813 -1.49104 -0.510467 0
M  V30 9977 C 925.062 -1.57362 -1.26175 0
M  V30 9978 C 925.375 -0.261218 -1.93848 0
M  V30 9979 O 926.581 -0.222238 -2.70589 0
M  V30 9980 C 925.037 -2.77606 -2.29048 0
M  V30 9981 C 924.645 -4.15567 -1.67357 0
M  V30 9982 C 926.389 -2.95188 -3.05064 0
M  V30 9983 C 924.296 -5.27046 -2.68285 0
M  V30 9984 H 923.226 -0.585887 -0.474608 0
M  V30 9985 H 925.877 -1.75474 -0.536753 0
M  V30 9986 H 924.259 -2.52968 -3.04669 0
M  V30 9987 H 925.433 -4.50304 -0.977924 0
M  V30 9988 H 923.748 -4.03264 -1.03765 0
M  V30 9989 H 926.345 -3.75643 -3.80521 0
M  V30 9990 H 926.688 -2.05385 -3.62108 0
M  V30 9991 H 927.221 -3.19821 -2.36558 0
M  V30 9992 H 923.96 -6.18878 -2.16034 0
M  V30 9993 H 923.48 -4.96774 -3.36118 0
M  V30 9994 H 925.159 -5.55983 -3.30896 0
M  V30 9995 N 925.291 0.760815 -1.38019 0
M  V30 9996 C 926.516 1.55513 -1.37224 0
M  V30 9997 C 926.941 1.88062 0.037611 0
M  V30 9998 O 926.299 1.50042 1.0177 0
M  V30 9999 C 926.347 2.83539 -2.22796 0
M  V30 10000 O 925.451 3.78384 -1.64009 0
M  V30 10001 H 924.792 0.470642 -0.468393 0
M  V30 10002 H 927.322 0.940792 -1.81687 0
M  V30 10003 H 927.332 3.32535 -2.36399 0
M  V30 10004 H 926.007 2.59178 -3.25269 0
M  V30 10005 H 924.584 3.37063 -1.59508 0
M  V30 10006 N 926.769 1.22769 0.988202 0
M  V30 10007 C 927.717 0.999271 2.10041 0
M  V30 10008 C 928.711 -0.0591767 1.69297 0
M  V30 10009 O 929.917 0.0936653 1.79756 0
M  V30 10010 H 926.292 0.30599 0.686931 0
M  V30 10011 H 928.263 1.94294 2.26478 0
M  V30 10012 C 927.012 0.59873 3.42506 0
M  V30 10013 H 926.335 1.40487 3.74304 0
M  V30 10014 H 927.775 0.478353 4.21293 0
M  V30 10015 C 926.234 -0.692216 3.29712 0
M  V30 10016 O 926.764 -1.74342 3.61895 0
M  V30 10017 N 924.97 -0.665163 2.82885 0
M  V30 10018 H 924.517 0.190604 2.56894 0
M  V30 10019 H 924.475 -1.52917 2.74706 0
M  V30 10020 N 928.247 -1.18576 1.03814 0
M  V30 10021 C 929.197 -2.20034 0.597409 0
M  V30 10022 C 930.181 -1.56849 -0.358796 0
M  V30 10023 O 931.373 -1.761 -0.178262 0
M  V30 10024 C 928.502 -3.43276 -0.0407965 0
M  V30 10025 C 927.588 -4.13588 0.938404 0
M  V30 10026 N 927.979 -4.59941 2.10447 0
M  V30 10027 C 926.277 -4.3941 0.763853 0
M  V30 10028 C 926.978 -5.1404 2.72282 0
M  V30 10029 N 925.954 -5.05401 2.00176 0
M  V30 10030 H 929.756 -2.53562 1.48606 0
M  V30 10031 H 927.27 -1.34753 0.906384 0
M  V30 10032 H 929.267 -4.15217 -0.374222 0
M  V30 10033 H 927.927 -3.11245 -0.925014 0
M  V30 10034 H 928.938 -4.54471 2.48347 0
M  V30 10035 H 925.615 -4.1744 -0.0704869 0
M  V30 10036 H 927.005 -5.60128 3.71088 0
M  V30 10037 N 929.725 -0.817259 -1.34754 0
M  V30 10038 C 930.953 -0.415451 -2.02686 0
M  V30 10039 C 931.368 0.97688 -1.61563 0
M  V30 10040 O 930.725 1.63125 -0.818321 0
M  V30 10041 C 930.776 -0.501486 -3.58005 0
M  V30 10042 O 930.497 -1.83893 -3.97637 0
M  V30 10043 C 931.998 -0.0938504 -4.43201 0
M  V30 10044 H 929.218 -0.16742 -0.649778 0
M  V30 10045 H 931.762 -1.10384 -1.7215 0
M  V30 10046 H 929.917 0.138766 -3.87151 0
M  V30 10047 H 930.331 -1.8092 -4.92309 0
M  V30 10048 H 931.805 -0.205145 -5.51619 0
M  V30 10049 H 932.282 0.962011 -4.28535 0
M  V30 10050 H 932.888 -0.707677 -4.19371 0
M  V30 10051 N 931.203 1.46865 -0.571711 0
M  V30 10052 C 932.166 2.28658 0.157499 0
M  V30 10053 C 933.166 1.37773 0.829172 0
M  V30 10054 O 934.356 1.6026 0.682811 0
M  V30 10055 C 931.488 3.17859 1.23202 0
M  V30 10056 H 932.681 2.94603 -0.561171 0
M  V30 10057 H 930.234 1.52793 -0.329229 0
M  V30 10058 H 930.969 2.56637 1.98262 0
M  V30 10059 H 930.754 3.84762 0.755031 0
M  V30 10060 H 932.244 3.7945 1.74378 0
M  V30 10061 N 932.681 0.308908 1.54543 0
M  V30 10062 C 933.611 -0.556657 2.26768 0
M  V30 10063 C 934.592 -1.13145 1.27013 0
M  V30 10064 O 935.777 -1.15931 1.558 0
M  V30 10065 C 932.907 -1.72481 3.01443 0
M  V30 10066 C 931.861 -1.28001 4.08411 0
M  V30 10067 C 931.187 -2.53395 4.70845 0
M  V30 10068 C 932.487 -0.405497 5.20724 0
M  V30 10069 H 934.181 0.0457618 2.99365 0
M  V30 10070 H 931.727 0.0234495 1.43981 0
M  V30 10071 H 933.68 -2.3365 3.50693 0
M  V30 10072 H 932.404 -2.35359 2.26437 0
M  V30 10073 H 931.063 -0.69133 3.60022 0
M  V30 10074 H 930.711 -3.14604 3.92471 0
M  V30 10075 H 930.411 -2.2433 5.43093 0
M  V30 10076 H 931.935 -3.15352 5.22863 0
M  V30 10077 H 933.349 -0.923076 5.6582 0
M  V30 10078 H 931.746 -0.208282 5.99738 0
M  V30 10079 H 932.816 0.567412 4.81569 0
M  V30 10080 N 934.159 -1.57557 0.0367827 0
M  V30 10081 C 935.069 -2.14148 -0.958017 0
M  V30 10082 C 936.085 -1.09564 -1.35173 0
M  V30 10083 O 937.261 -1.4166 -1.43158 0
M  V30 10084 C 934.326 -2.6636 -2.21931 0
M  V30 10085 C 933.387 -3.85688 -1.8853 0
M  V30 10086 C 932.62 -4.35401 -3.08645 0
M  V30 10087 O 932.843 -3.8425 -4.21554 0
M  V30 10088 O 931.777 -5.27158 -2.90497 0
M  V30 10089 H 935.603 -2.99442 -0.506797 0
M  V30 10090 H 933.188 -1.48259 -0.184275 0
M  V30 10091 H 935.07 -2.99976 -2.9596 0
M  V30 10092 H 933.745 -1.84145 -2.66219 0
M  V30 10093 H 932.652 -3.56985 -1.11861 0
M  V30 10094 H 933.985 -4.69089 -1.49052 0
M  V30 10095 N 935.637 0.236453 -1.55816 0
M  V30 10096 C 936.585 1.31259 -1.92025 0
M  V30 10097 C 937.579 1.49292 -0.800518 0
M  V30 10098 O 938.785 1.50643 -0.985229 0
M  V30 10099 H 935.16 0.439751 -0.610019 0
M  V30 10100 H 937.131 0.979926 -2.81851 0
M  V30 10101 C 935.88 2.65892 -2.24046 0
M  V30 10102 H 935.203 2.5282 -3.09713 0
M  V30 10103 H 936.643 3.40039 -2.53277 0
M  V30 10104 C 935.102 3.19777 -1.0604 0
M  V30 10105 O 935.632 4.00473 -0.313786 0
M  V30 10106 N 933.838 2.77946 -0.848209 0
M  V30 10107 H 933.385 2.12433 -1.45706 0
M  V30 10108 H 933.343 3.14342 -0.0603424 0
M  V30 10109 N 937.115 1.49373 0.502552 0
M  V30 10110 C 938.355 1.60398 1.26696 0
M  V30 10111 C 938.719 0.283599 1.89894 0
M  V30 10112 O 939.92 0.269022 2.6745 0
M  V30 10113 C 938.191 2.72998 2.30666 0
M  V30 10114 S 939.75 3.03964 3.16466 0
M  V30 10115 H 936.568 0.565781 0.430596 0
M  V30 10116 H 939.17 1.87024 0.569418 0
M  V30 10117 H 937.874 3.67458 1.82765 0
M  V30 10118 H 937.405 2.4836 3.05091 0
M  V30 10119 H 939.42 2.45367 4.31288 0
M  V30 10120 N 938.594 -0.753485 1.38421 0
M  V30 10121 C 939.557 -1.84888 1.35459 0
M  V30 10122 C 940.557 -1.58764 0.255083 0
M  V30 10123 O 941.747 -1.66507 0.511978 0
M  V30 10124 C 938.879 -3.22361 1.10888 0
M  V30 10125 H 940.072 -1.88922 2.32913 0
M  V30 10126 H 937.625 -0.955199 1.23716 0
M  V30 10127 H 938.36 -3.23996 0.1404 0
M  V30 10128 H 938.145 -3.42717 1.90492 0
M  V30 10129 H 939.635 -4.02437 1.1151 0
M  V30 10130 N 940.072 -1.23292 -0.981677 0
M  V30 10131 C 941.297 -1.09176 -1.76339 0
M  V30 10132 C 941.722 0.352726 -1.84763 0
M  V30 10133 O 941.08 1.25509 -1.30832 0
M  V30 10134 C 941.128 -1.72046 -3.16911 0
M  V30 10135 O 940.232 -0.98174 -4.00544 0
M  V30 10136 H 939.573 -0.382755 -0.542581 0
M  V30 10137 H 942.103 -1.63319 -1.23239 0
M  V30 10138 H 942.113 -1.77232 -3.67495 0
M  V30 10139 H 940.788 -2.77154 -3.10095 0
M  V30 10140 H 939.365 -1.00672 -3.59054 0
M  V30 10141 N 941.55 1.18024 -1.04442 0
M  V30 10142 C 942.48 2.23988 -0.659683 0
M  V30 10143 C 943.461 1.6669 0.338904 0
M  V30 10144 O 944.646 1.92971 0.21817 0
M  V30 10145 C 941.776 3.4729 -0.0257672 0
M  V30 10146 C 940.73 4.17362 -0.948299 0
M  V30 10147 C 940.056 5.34401 -0.17866 0
M  V30 10148 C 941.356 4.70435 -2.26909 0
M  V30 10149 H 943.05 2.56425 -1.54553 0
M  V30 10150 H 940.596 1.23256 -0.744575 0
M  V30 10151 H 942.549 4.20627 0.255131 0
M  V30 10152 H 941.273 3.14098 0.894981 0
M  V30 10153 H 939.932 3.45928 -1.21364 0
M  V30 10154 H 939.58 4.97458 0.744614 0
M  V30 10155 H 939.28 5.8222 -0.793294 0
M  V30 10156 H 940.804 6.10526 0.0951315 0
M  V30 10157 H 942.218 5.35447 -2.04864 0
M  V30 10158 H 940.615 5.28803 -2.83703 0
M  V30 10159 H 941.685 3.87653 -2.91296 0
M  V30 10160 N 943.028 0.824394 1.34319 0
M  V30 10161 C 943.958 0.262077 2.32025 0
M  V30 10162 C 944.939 -0.622277 1.58309 0
M  V30 10163 O 946.124 -0.548848 1.86283 0
M  V30 10164 C 943.254 -0.57567 3.42496 0
M  V30 10165 C 942.208 0.21167 4.27476 0
M  V30 10166 C 941.534 -0.748913 5.29429 0
M  V30 10167 C 942.834 1.42068 5.02607 0
M  V30 10168 H 944.528 1.07842 2.79304 0
M  V30 10169 H 942.074 0.520022 1.34282 0
M  V30 10170 H 944.027 -0.979251 4.09864 0
M  V30 10171 H 942.751 -1.42508 2.93869 0
M  V30 10172 H 941.41 0.596636 3.61712 0
M  V30 10173 H 941.058 -1.59432 4.77064 0
M  V30 10174 H 940.758 -0.226313 5.87164 0
M  V30 10175 H 942.282 -1.15032 5.99667 0
M  V30 10176 H 943.696 1.09103 5.62823 0
M  V30 10177 H 942.093 1.87903 5.69923 0
M  V30 10178 H 943.163 2.1981 4.32217 0
M  V30 10179 N 944.506 -1.46559 0.579492 0
M  V30 10180 C 945.746 -2.04292 0.0664837 0
M  V30 10181 C 946.11 -1.44161 -1.26814 0
M  V30 10182 O 947.311 -1.93074 -1.87018 0
M  V30 10183 C 945.582 -3.574 -0.00167254 0
M  V30 10184 S 947.141 -4.36408 -0.457572 0
M  V30 10185 H 943.959 -0.710092 0.035913 0
M  V30 10186 H 946.561 -1.79644 0.771263 0
M  V30 10187 H 945.265 -3.98683 0.973666 0
M  V30 10188 H 944.796 -3.8658 -0.729321 0
M  V30 10189 H 946.811 -4.65695 -1.71296 0
M  V30 10190 N 945.984 -0.3171 -1.54377 0
M  V30 10191 C 947.233 0.288271 -1.99629 0
M  V30 10192 C 947.546 1.53754 -1.2091 0
M  V30 10193 O 948.752 2.2185 -1.56508 0
M  V30 10194 C 947.208 0.564188 -3.5545 0
M  V30 10195 C 946.816 -0.667659 -4.42997 0
M  V30 10196 C 948.56 1.12987 -4.09187 0
M  V30 10197 C 946.467 -0.364003 -5.90279 0
M  V30 10198 H 945.397 0.111492 -0.745711 0
M  V30 10199 H 948.048 -0.428317 -1.78431 0
M  V30 10200 H 946.43 1.34079 -3.72611 0
M  V30 10201 H 947.604 -1.44335 -4.37612 0
M  V30 10202 H 945.919 -1.1531 -4.00116 0
M  V30 10203 H 948.516 1.37157 -5.1681 0
M  V30 10204 H 948.859 2.07722 -3.60773 0
M  V30 10205 H 949.392 0.414595 -3.95634 0
M  V30 10206 H 946.131 -1.28035 -6.42874 0
M  V30 10207 H 945.651 0.374102 -5.98632 0
M  V30 10208 H 947.33 0.0285433 -6.46994 0
M  V30 10209 N 947.462 1.57535 -0.0451378 0
M  V30 10210 C 948.878 1.56533 0.311373 0
M  V30 10211 C 949.078 1.05225 1.71843 0
M  V30 10212 O 948.134 0.706144 2.42425 0
M  V30 10213 C 949.447 3.00349 0.145348 0
M  V30 10214 C 950.995 3.12248 0.216908 0
M  V30 10215 C 951.47 4.57931 0.0794834 0
M  V30 10216 N 952.961 4.63 0.135954 0
M  V30 10217 C 953.696 5.73375 0.0536426 0
M  V30 10218 N 953.192 6.92753 -0.0806725 0
M  V30 10219 N 954.985 5.61995 0.108789 0
M  V30 10220 H 947.136 1.89211 -0.965044 0
M  V30 10221 H 949.399 0.871068 -0.374091 0
M  V30 10222 H 949.105 3.41898 -0.824533 0
M  V30 10223 H 948.979 3.66086 0.908903 0
M  V30 10224 H 951.366 2.70601 1.17726 0
M  V30 10225 H 951.447 2.49201 -0.577299 0
M  V30 10226 H 951.091 5.00262 -0.877516 0
M  V30 10227 H 951.021 5.18977 0.892758 0
M  V30 10228 H 953.512 3.77142 0.23926 0
M  V30 10229 H 953.825 7.7268 -0.136351 0
M  V30 10230 H 952.17 6.94904 -0.115675 0
M  V30 10231 H 955.361 4.67619 0.212235 0
M  V30 10232 H 955.534 6.47987 0.0411822 0
M  V30 10233 N 948.94 -0.228186 1.55939 0
M  V30 10234 C 949.903 -1.26621 1.91049 0
M  V30 10235 C 950.903 -1.40141 0.788491 0
M  V30 10236 O 952.093 -1.3852 1.05631 0
M  V30 10237 C 949.225 -2.64108 2.15545 0
M  V30 10238 H 950.418 -0.966978 2.83883 0
M  V30 10239 H 947.971 -0.468313 1.49119 0
M  V30 10240 H 948.706 -2.99141 1.25241 0
M  V30 10241 H 948.491 -2.55673 2.97277 0
M  V30 10242 H 949.981 -3.39025 2.43827 0
M  V30 10243 N 950.418 -1.49637 -0.494624 0
M  V30 10244 C 951.695 -1.4995 -1.25596 0
M  V30 10245 C 952.075 -0.230805 -2.09834 0
M  V30 10246 O 951.423 0.786625 -2.14533 0
M  V30 10247 C 951.633 -2.78204 -2.10721 0
M  V30 10248 C 952.981 -3.27946 -2.69698 0
M  V30 10249 O 954.005 -2.79365 -2.20984 0
M  V30 10250 O 952.864 -4.12571 -3.58395 0
M  V30 10251 H 949.958 -0.60044 -0.568684 0
M  V30 10252 H 952.504 -1.61906 -0.508371 0
M  V30 10253 H 951.276 -3.62029 -1.48494 0
M  V30 10254 H 950.899 -2.69139 -2.92661 0
M  V30 10255 N 951.896 0.746133 -1.38819 0
M  V30 10256 C 952.806 1.89063 -1.38897 0
M  V30 10257 C 953.822 1.71648 -0.28513 0
M  V30 10258 O 954.998 1.94443 -0.524783 0
M  V30 10259 C 952.063 3.24523 -1.22007 0
M  V30 10260 C 951.124 3.54411 -2.42263 0
M  V30 10261 C 950.357 4.83408 -2.26169 0
M  V30 10262 O 950.58 5.56325 -1.25931 0
M  V30 10263 O 949.514 5.12943 -3.14918 0
M  V30 10264 H 953.34 1.91951 -2.35347 0
M  V30 10265 H 950.925 0.892433 -1.19816 0
M  V30 10266 H 952.807 4.05496 -1.14677 0
M  V30 10267 H 951.482 3.2243 -0.286455 0
M  V30 10268 H 950.389 2.73569 -2.55168 0
M  V30 10269 H 951.722 3.61273 -3.3428 0
M  V30 10270 N 953.375 1.23811 0.975125 0
M  V30 10271 C 954.305 1.04846 2.08638 0
M  V30 10272 C 955.286 -0.0362859 1.70061 0
M  V30 10273 O 956.471 0.12937 1.93769 0
M  V30 10274 C 953.601 0.644534 3.41267 0
M  V30 10275 C 952.555 1.67722 3.93768 0
M  V30 10276 C 951.881 1.12857 5.22654 0
M  V30 10277 C 953.181 3.07147 4.22443 0
M  V30 10278 H 954.875 1.97795 2.24761 0
M  V30 10279 H 952.421 0.952397 1.08006 0
M  V30 10280 H 954.374 0.498887 4.18436 0
M  V30 10281 H 953.098 -0.320641 3.25022 0
M  V30 10282 H 951.757 1.81095 3.18748 0
M  V30 10283 H 951.405 0.154227 5.02764 0
M  V30 10284 H 951.105 1.81862 5.58749 0
M  V30 10285 H 952.629 0.994891 6.0244 0
M  V30 10286 H 954.043 2.97045 4.90344 0
M  V30 10287 H 952.44 3.73437 4.6975 0
M  V30 10288 H 953.51 3.55743 3.29507 0
M  V30 10289 N 954.853 -1.17469 1.05066 0
M  V30 10290 C 955.785 -2.20974 0.608526 0
M  V30 10291 C 956.798 -1.59481 -0.327066 0
M  V30 10292 O 957.987 -1.78096 -0.12 0
M  V30 10293 C 955.087 -3.38652 -0.12969 0
M  V30 10294 C 954.26 -4.29716 0.816285 0
M  V30 10295 C 953.319 -5.26064 0.119556 0
M  V30 10296 O 952.345 -5.64194 0.753241 0
M  V30 10297 N 953.547 -5.69126 -1.14347 0
M  V30 10298 H 956.312 -2.59529 1.49882 0
M  V30 10299 H 953.873 -1.32355 0.932406 0
M  V30 10300 H 955.865 -4.00139 -0.605886 0
M  V30 10301 H 954.435 -2.98705 -0.921638 0
M  V30 10302 H 953.655 -3.6568 1.47213 0
M  V30 10303 H 954.943 -4.87449 1.45845 0
M  V30 10304 H 954.341 -5.4022 -1.67866 0
M  V30 10305 H 952.898 -6.32764 -1.56376 0
M  V30 10306 N 956.331 -0.831506 -1.3388 0
M  V30 10307 C 957.241 -0.261688 -2.33136 0
M  V30 10308 C 958.257 0.608429 -1.63016 0
M  V30 10309 O 959.433 0.514297 -1.94723 0
M  V30 10310 C 956.498 0.559957 -3.42148 0
M  V30 10311 C 955.559 -0.333569 -4.28002 0
M  V30 10312 C 954.792 0.448956 -5.31808 0
M  V30 10313 O 955.015 1.6814 -5.45055 0
M  V30 10314 O 953.949 -0.173197 -6.01651 0
M  V30 10315 H 957.775 -1.08343 -2.83717 0
M  V30 10316 H 955.36 -0.593849 -1.3709 0
M  V30 10317 H 957.242 1.02712 -4.08691 0
M  V30 10318 H 955.917 1.35888 -2.93796 0
M  V30 10319 H 954.824 -0.848416 -3.64352 0
M  V30 10320 H 956.157 -1.09707 -4.79818 0
M  V30 10321 N 957.809 1.4625 -0.587256 0
M  V30 10322 C 958.772 2.28812 0.133238 0
M  V30 10323 C 959.772 1.38645 0.814513 0
M  V30 10324 O 960.962 1.60975 0.665774 0
M  V30 10325 C 958.094 3.19147 1.19824 0
M  V30 10326 H 959.287 2.93991 -0.592386 0
M  V30 10327 H 956.84 1.52435 -0.345416 0
M  V30 10328 H 957.575 2.58725 1.95529 0
M  V30 10329 H 957.36 3.85541 0.71418 0
M  V30 10330 H 958.85 3.81278 1.70344 0
M  V30 10331 N 959.287 0.325282 1.54207 0
M  V30 10332 C 960.217 -0.532574 2.27345 0
M  V30 10333 C 961.198 -1.11791 1.28206 0
M  V30 10334 O 962.383 -1.14272 1.57021 0
M  V30 10335 C 959.513 -1.69274 3.03255 0
M  V30 10336 C 958.467 -1.23662 4.09746 0
M  V30 10337 C 957.793 -2.48386 4.73506 0
M  V30 10338 C 959.093 -0.350244 5.21124 0
M  V30 10339 H 960.787 0.0775108 2.993 0
M  V30 10340 H 958.333 0.0387193 1.43948 0
M  V30 10341 H 960.286 -2.29917 3.53152 0
M  V30 10342 H 959.01 -2.32944 2.28921 0
M  V30 10343 H 957.669 -0.653106 3.60735 0
M  V30 10344 H 957.317 -3.10424 3.95786 0
M  V30 10345 H 957.017 -2.18558 5.45441 0
M  V30 10346 H 958.541 -3.09789 5.26178 0
M  V30 10347 H 959.955 -0.863011 5.66767 0
M  V30 10348 H 958.352 -0.14466 5.99926 0
M  V30 10349 H 959.422 0.618457 4.8094 0
M  V30 10350 N 960.765 -1.57509 0.0534917 0
M  V30 10351 C 961.993 -1.97098 -0.629298 0
M  V30 10352 C 962.408 -0.931128 -1.64242 0
M  V30 10353 O 961.765 0.0843866 -1.82305 0
M  V30 10354 C 961.816 -3.36767 -1.31415 0
M  V30 10355 O 961.537 -4.36766 -0.341599 0
M  V30 10356 C 963.038 -3.91127 -2.08649 0
M  V30 10357 H 960.258 -0.648611 -0.171886 0
M  V30 10358 H 962.802 -2.04145 0.120479 0
M  V30 10359 H 960.957 -3.30863 -2.01515 0
M  V30 10360 H 961.371 -5.1788 -0.830715 0
M  V30 10361 H 962.845 -4.91129 -2.51985 0
M  V30 10362 H 963.322 -3.26679 -2.9356 0
M  V30 10363 H 963.928 -4.00376 -1.43456 0
M  V30 10364 N 962.243 0.219913 -1.56058 0
M  V30 10365 C 963.468 0.965073 -1.83579 0
M  V30 10366 C 963.893 1.77092 -0.634024 0
M  V30 10367 O 963.251 1.76434 0.417205 0
M  V30 10368 C 963.299 1.85705 -3.09105 0
M  V30 10369 O 962.403 2.95261 -2.87914 0
M  V30 10370 H 961.744 0.273173 -0.605204 0
M  V30 10371 H 964.274 0.23273 -2.03272 0
M  V30 10372 H 964.284 2.26655 -3.39252 0
M  V30 10373 H 962.959 1.26476 -3.96203 0
M  V30 10374 H 961.536 2.58246 -2.69005 0
M  V30 10375 N 963.721 1.49897 0.486681 0
M  V30 10376 C 964.671 1.6401 1.58381 0
M  V30 10377 C 965.655 0.495215 1.5309 0
M  V30 10378 O 966.847 0.748876 1.60377 0
M  V30 10379 C 963.976 1.72321 2.96918 0
M  V30 10380 C 963.062 2.92435 3.07152 0
M  V30 10381 N 963.453 4.16326 2.87238 0
M  V30 10382 C 961.751 2.90669 3.38271 0
M  V30 10383 C 962.452 4.97144 3.02031 0
M  V30 10384 N 961.428 4.3079 3.31544 0
M  V30 10385 H 965.23 2.57506 1.41661 0
M  V30 10386 H 962.744 1.46867 0.693106 0
M  V30 10387 H 964.741 1.80532 3.75784 0
M  V30 10388 H 963.401 0.799724 3.14697 0
M  V30 10389 H 964.412 4.46076 2.63128 0
M  V30 10390 H 961.089 2.07758 3.62137 0
M  V30 10391 H 962.479 6.05611 2.91006 0
M  V30 10392 N 965.199 -0.738761 1.39212 0
M  V30 10393 C 966.439 -1.51093 1.3766 0
M  V30 10394 C 966.803 -1.91978 -0.0289655 0
M  V30 10395 O 968.004 -2.68265 -0.169465 0
M  V30 10396 C 966.275 -2.71988 2.31856 0
M  V30 10397 S 967.834 -3.61683 2.48458 0
M  V30 10398 H 964.652 -0.516868 0.48823 0
M  V30 10399 H 967.254 -0.865961 1.75275 0
M  V30 10400 H 965.958 -2.40085 3.32847 0
M  V30 10401 H 965.489 -3.41417 1.95443 0
M  V30 10402 H 967.504 -4.65447 1.71969 0
M  V30 10403 N 966.677 -1.24326 -0.968545 0
M  V30 10404 C 967.923 -1.08406 -1.71394 0
M  V30 10405 C 968.256 0.376353 -1.90518 0
M  V30 10406 O 967.531 1.27816 -1.46606 0
M  V30 10407 C 967.814 -1.82344 -3.1052 0
M  V30 10408 C 967.667 -3.3613 -2.98893 0
M  V30 10409 C 968.986 -1.59545 -4.10163 0
M  V30 10410 H 966.105 -0.395205 -0.622079 0
M  V30 10411 H 968.747 -1.52983 -1.12677 0
M  V30 10412 H 966.897 -1.44452 -3.60646 0
M  V30 10413 H 968.569 -3.83614 -2.56199 0
M  V30 10414 H 966.812 -3.64553 -2.35124 0
M  V30 10415 H 967.483 -3.83064 -3.97449 0
M  V30 10416 H 969.959 -1.92504 -3.68892 0
M  V30 10417 H 968.835 -2.13736 -5.05577 0
M  V30 10418 H 969.096 -0.533503 -4.38869 0
M  V30 10419 N 968.156 1.1691 -1.05688 0
M  V30 10420 C 969.402 1.8757 -0.771071 0
M  V30 10421 C 969.735 1.8113 0.700399 0
M  V30 10422 O 969.01 1.22273 1.5126 0
M  V30 10423 C 969.293 3.37392 -1.25851 0
M  V30 10424 C 969.146 3.52556 -2.79329 0
M  V30 10425 C 970.465 4.31585 -0.861512 0
M  V30 10426 H 967.584 0.681089 -0.281579 0
M  V30 10427 H 970.226 1.37453 -1.31174 0
M  V30 10428 H 968.376 3.80204 -0.798563 0
M  V30 10429 H 970.048 3.18725 -3.33485 0
M  V30 10430 H 968.291 2.94668 -3.1836 0
M  V30 10431 H 968.962 4.57748 -3.08498 0
M  V30 10432 H 971.438 3.96642 -1.25756 0
M  V30 10433 H 970.314 5.34939 -1.23012 0
M  V30 10434 H 970.575 4.4148 0.234089 0
M  V30 10435 N 969.634 0.838594 1.33437 0
M  V30 10436 C 970.862 0.447644 2.01999 0
M  V30 10437 C 971.277 -0.951053 1.63096 0
M  V30 10438 O 970.634 -1.61802 0.844169 0
M  V30 10439 C 970.685 0.558378 3.57162 0
M  V30 10440 O 970.406 1.90196 3.94661 0
M  V30 10441 C 971.907 0.164348 4.42995 0
M  V30 10442 H 969.127 0.177736 0.647032 0
M  V30 10443 H 971.671 1.13109 1.70372 0
M  V30 10444 H 969.826 -0.0771563 3.87323 0
M  V30 10445 H 970.24 1.88729 4.89369 0
M  V30 10446 H 971.714 0.292876 5.51222 0
M  V30 10447 H 972.191 -0.893713 4.30011 0
M  V30 10448 H 972.797 0.774306 4.18192 0
M  V30 10449 N 971.112 -1.45937 0.595003 0
M  V30 10450 C 972.528 -1.57507 0.257641 0
M  V30 10451 C 972.728 -1.58829 -1.23998 0
M  V30 10452 O 971.784 -1.51183 -2.02237 0
M  V30 10453 C 973.097 -2.86354 0.917708 0
M  V30 10454 C 974.645 -3.00007 0.892446 0
M  V30 10455 C 975.12 -4.31607 1.53229 0
M  V30 10456 N 976.611 -4.38336 1.49719 0
M  V30 10457 C 977.346 -5.38805 1.96154 0
M  V30 10458 N 976.842 -6.45882 2.50617 0
M  V30 10459 N 978.635 -5.30084 1.86997 0
M  V30 10460 H 970.786 -1.43322 1.56756 0
M  V30 10461 H 973.049 -0.684436 0.655936 0
M  V30 10462 H 972.755 -2.91233 1.97171 0
M  V30 10463 H 972.629 -3.74703 0.433344 0
M  V30 10464 H 975.016 -2.94703 -0.152975 0
M  V30 10465 H 975.097 -2.13103 1.41495 0
M  V30 10466 H 974.741 -4.3767 2.57697 0
M  V30 10467 H 974.671 -5.17308 0.984903 0
M  V30 10468 H 977.162 -3.6156 1.09921 0
M  V30 10469 H 977.475 -7.18774 2.83874 0
M  V30 10470 H 975.82 -6.46668 2.54649 0
M  V30 10471 H 979.011 -4.45337 1.44196 0
M  V30 10472 H 979.184 -6.08237 2.23499 0
M  V30 10473 N 972.59 -0.333456 -1.54032 0
M  V30 10474 C 973.838 0.265608 -2.00347 0
M  V30 10475 C 974.159 1.51873 -1.2231 0
M  V30 10476 O 973.429 1.93142 -0.327549 0
M  V30 10477 H 972.009 0.101135 -0.740122 0
M  V30 10478 H 974.671 -0.452285 -1.8958 0
M  V30 10479 H 973.767 0.51511 -3.0782 0
M  V30 10480 N 974.068 1.57479 -0.061844 0
M  V30 10481 C 974.978 2.15645 0.923826 0
M  V30 10482 C 975.994 1.117 1.33413 0
M  V30 10483 O 977.17 1.4392 1.40887 0
M  V30 10484 C 974.235 2.69857 2.17665 0
M  V30 10485 C 973.296 3.88638 1.8237 0
M  V30 10486 C 972.529 4.40256 3.01679 0
M  V30 10487 O 972.752 3.90908 4.15388 0
M  V30 10488 O 971.686 5.31713 2.82073 0
M  V30 10489 H 975.512 3.0021 0.459094 0
M  V30 10490 H 973.097 1.48534 0.160665 0
M  V30 10491 H 974.979 3.04647 2.9115 0
M  V30 10492 H 973.654 1.88357 2.63255 0
M  V30 10493 H 972.561 3.58719 1.06167 0
M  V30 10494 H 973.894 4.71401 1.4157 0
M  V30 10495 N 975.546 -0.211634 1.56173 0
M  V30 10496 C 976.774 -0.951184 1.83739 0
M  V30 10497 C 977.189 -1.7754 0.642252 0
M  V30 10498 O 976.546 -1.78302 -0.389174 0
M  V30 10499 C 976.597 -1.86075 3.09933 0
M  V30 10500 O 976.318 -1.06983 4.24837 0
M  V30 10501 C 977.819 -2.71337 3.50559 0
M  V30 10502 H 975.039 -0.278312 0.61056 0
M  V30 10503 H 977.583 -0.223871 2.03271 0
M  V30 10504 H 975.738 -2.54189 2.92347 0
M  V30 10505 H 976.152 -1.68815 4.9659 0
M  V30 10506 H 977.626 -3.30843 4.41868 0
M  V30 10507 H 978.103 -3.44226 2.72773 0
M  V30 10508 H 978.709 -2.0862 3.70618 0
M  V30 10509 N 977.024 -1.50153 -0.478725 0
M  V30 10510 C 978.273 -1.60002 -1.22809 0
M  V30 10511 C 978.586 -0.302277 -1.9325 0
M  V30 10512 O 979.792 -0.279583 -2.70057 0
M  V30 10513 C 978.248 -2.82402 -2.23108 0
M  V30 10514 C 977.856 -4.19023 -1.58505 0
M  V30 10515 C 979.6 -3.01593 -2.98734 0
M  V30 10516 C 977.507 -5.32618 -2.57045 0
M  V30 10517 H 976.437 -0.595822 -0.462073 0
M  V30 10518 H 979.088 -1.76573 -0.499412 0
M  V30 10519 H 977.47 -2.59373 -2.99235 0
M  V30 10520 H 978.644 -4.52277 -0.882187 0
M  V30 10521 H 976.959 -4.05374 -0.951877 0
M  V30 10522 H 979.556 -3.8363 -3.72468 0
M  V30 10523 H 979.899 -2.1302 -3.57671 0
M  V30 10524 H 980.432 -3.24766 -2.29721 0
M  V30 10525 H 977.171 -6.23321 -2.02858 0
M  V30 10526 H 976.691 -5.03792 -3.25505 0
M  V30 10527 H 978.37 -5.62877 -3.19028 0
M  V30 10528 N 978.502 0.731368 -1.39602 0
M  V30 10529 C 979.751 1.48647 -1.36334 0
M  V30 10530 C 980.064 1.95565 0.0367383 0
M  V30 10531 O 981.27 2.7082 0.192017 0
M  V30 10532 C 979.726 2.68616 -2.39528 0
M  V30 10533 C 979.334 2.28632 -3.85268 0
M  V30 10534 C 981.078 3.46422 -2.45341 0
M  V30 10535 C 978.985 3.45345 -4.80095 0
M  V30 10536 H 977.915 0.558218 -0.506861 0
M  V30 10537 H 980.566 0.797467 -1.65266 0
M  V30 10538 H 978.948 3.39609 -2.03671 0
M  V30 10539 H 980.122 1.65162 -4.30184 0
M  V30 10540 H 978.437 1.63909 -3.82783 0
M  V30 10541 H 981.034 4.33241 -3.13379 0
M  V30 10542 H 981.377 3.8914 -1.47904 0
M  V30 10543 H 981.91 2.82461 -2.80108 0
M  V30 10544 H 978.649 3.07674 -5.78807 0
M  V30 10545 H 978.169 4.07784 -4.39855 0
M  V30 10546 H 979.848 4.1163 -4.99169 0
M  V30 10547 N 979.98 1.24838 0.961938 0
M  V30 10548 C 981.396 1.01502 1.23165 0
M  V30 10549 C 981.596 -0.272651 1.99647 0
M  V30 10550 O 980.652 -0.987297 2.32398 0
M  V30 10551 C 981.965 2.23366 2.01316 0
M  V30 10552 C 983.513 2.28051 2.14387 0
M  V30 10553 C 983.988 3.49552 2.95935 0
M  V30 10554 N 985.479 3.49904 3.03515 0
M  V30 10555 C 986.214 4.40577 3.66987 0
M  V30 10556 N 985.71 5.41512 4.3213 0
M  V30 10557 N 987.503 4.28275 3.64056 0
M  V30 10558 H 979.654 2.07576 0.450086 0
M  V30 10559 H 981.917 0.911205 0.261551 0
M  V30 10560 H 981.623 3.16913 1.5251 0
M  V30 10561 H 981.497 2.25949 3.02038 0
M  V30 10562 H 983.884 1.35032 2.62393 0
M  V30 10563 H 983.965 2.29491 1.12994 0
M  V30 10564 H 983.609 4.42889 2.4862 0
M  V30 10565 H 983.539 3.45357 3.97538 0
M  V30 10566 H 986.03 2.76885 2.57183 0
M  V30 10567 H 986.343 6.06924 4.78396 0
M  V30 10568 H 984.688 5.45393 4.3078 0
M  V30 10569 H 987.879 3.48653 3.12344 0
M  V30 10570 H 988.052 4.99138 4.13237 0
M  V30 10571 N 981.458 -1.16348 1.06306 0
M  V30 10572 C 982.869 -1.68491 0.80422 0
M  V30 10573 C 983.22 -1.84327 -0.672159 0
M  V30 10574 O 982.345 -1.53892 -1.52139 0
M  V30 10575 C 982.94 -3.06048 1.45328 0
M  V30 10576 C 981.499 -3.55311 1.24221 0
M  V30 10577 C 980.646 -2.31291 1.5297 0
M  V30 10578 H 983.597 -1.00708 1.22652 0
M  V30 10579 H 983.618 -3.70451 0.868674 0
M  V30 10580 H 983.13 -2.9449 2.52779 0
M  V30 10581 H 981.231 -3.72128 0.187447 0
M  V30 10582 H 981.344 -4.37397 1.95502 0
M  V30 10583 H 979.708 -2.3631 0.950241 0
M  V30 10584 H 980.491 -2.22331 2.6158 0
M  V30 10585 N 982.937 -0.845659 -1.3299 0
M  V30 10586 C 983.885 -0.272412 -2.30999 0
M  V30 10587 C 984.879 0.599311 -1.58444 0
M  V30 10588 O 986.085 0.488117 -1.73255 0
M  V30 10589 H 982.46 -0.0693751 -0.748793 0
M  V30 10590 H 984.431 -1.11343 -2.76849 0
M  V30 10591 C 983.18 0.532019 -3.43606 0
M  V30 10592 H 982.503 -0.129455 -3.9959 0
M  V30 10593 H 983.943 0.898853 -4.14363 0
M  V30 10594 C 982.402 1.71364 -2.90062 0
M  V30 10595 O 982.932 2.81252 -2.8681 0
M  V30 10596 N 981.138 1.53775 -2.4658 0
M  V30 10597 H 980.685 0.643836 -2.49424 0
M  V30 10598 H 980.643 2.32982 -2.11108 0
M  V30 10599 N 984.415 1.45619 -0.602734 0
M  V30 10600 C 985.643 2.06647 -0.102253 0
M  V30 10601 C 986.058 1.4482 1.21131 0
M  V30 10602 O 985.415 0.560621 1.73676 0
M  V30 10603 C 985.466 3.61467 0.0490113 0
M  V30 10604 O 985.187 4.20985 -1.21257 0
M  V30 10605 C 986.688 4.39469 0.581517 0
M  V30 10606 H 983.908 0.667685 -0.0666155 0
M  V30 10607 H 986.452 1.86939 -0.829091 0
M  V30 10608 H 984.607 3.80534 0.726153 0
M  V30 10609 H 985.021 5.14103 -1.03915 0
M  V30 10610 H 986.495 5.48318 0.636462 0
M  V30 10611 H 986.972 4.0891 1.60277 0
M  V30 10612 H 987.578 4.25256 -0.061419 0
M  V30 10613 N 985.893 0.34162 1.53853 0
M  V30 10614 C 987.139 -0.255862 2.01179 0
M  V30 10615 C 987.472 -1.50356 1.22909 0
M  V30 10616 O 986.747 -1.91913 0.316198 0
M  V30 10617 C 987.03 -0.571934 3.55529 0
M  V30 10618 C 986.883 0.687727 4.44511 0
M  V30 10619 C 988.202 -1.38233 4.17827 0
M  V30 10620 H 985.321 -0.091521 0.731295 0
M  V30 10621 H 987.963 0.461775 1.84303 0
M  V30 10622 H 986.113 -1.18331 3.70041 0
M  V30 10623 H 987.785 1.32572 4.4184 0
M  V30 10624 H 986.028 1.313 4.13452 0
M  V30 10625 H 986.699 0.421858 5.50386 0
M  V30 10626 H 989.175 -0.865374 4.07002 0
M  V30 10627 H 988.051 -1.57223 5.25901 0
M  V30 10628 H 988.312 -2.38386 3.72323 0
M  V30 10629 N 987.371 -1.57444 0.0701946 0
M  V30 10630 C 988.281 -2.16132 -0.912377 0
M  V30 10631 C 989.297 -1.12406 -1.32819 0
M  V30 10632 O 990.473 -1.44665 -1.40121 0
M  V30 10633 C 987.538 -2.71008 -2.16231 0
M  V30 10634 C 986.599 -3.896 -1.80306 0
M  V30 10635 C 985.832 -4.4185 -2.9934 0
M  V30 10636 O 986.055 -3.93106 -4.13309 0
M  V30 10637 O 984.989 -5.33201 -2.7925 0
M  V30 10638 H 988.815 -3.00449 -0.443167 0
M  V30 10639 H 986.4 -1.48617 -0.152786 0
M  V30 10640 H 988.282 -3.06186 -2.8953 0
M  V30 10641 H 986.957 -1.8975 -2.62253 0
M  V30 10642 H 985.864 -3.59277 -1.04264 0
M  V30 10643 H 987.197 -4.72145 -1.39068 0
M  V30 10644 N 988.849 0.203349 -1.56283 0
M  V30 10645 C 989.796 1.25205 -1.93888 0
M  V30 10646 C 990.766 1.45654 -0.798376 0
M  V30 10647 O 991.951 1.58924 -1.05583 0
M  V30 10648 C 989.091 2.59355 -2.27659 0
M  V30 10649 C 988.204 2.46553 -3.54733 0
M  V30 10650 C 987.339 3.73351 -3.77865 0
M  V30 10651 C 986.378 3.55347 -4.98392 0
M  V30 10652 N 985.515 4.74137 -5.17821 0
M  V30 10653 H 990.355 0.924356 -2.83301 0
M  V30 10654 H 987.892 0.445082 -1.40205 0
M  V30 10655 H 989.85 3.375 -2.45254 0
M  V30 10656 H 988.48 2.90184 -1.41396 0
M  V30 10657 H 987.532 1.59749 -3.45231 0
M  V30 10658 H 988.844 2.2918 -4.43033 0
M  V30 10659 H 987.998 4.59937 -3.95655 0
M  V30 10660 H 986.737 3.9367 -2.8788 0
M  V30 10661 H 985.742 2.67146 -4.80534 0
M  V30 10662 H 986.967 3.36482 -5.89879 0
M  V30 10663 H 984.913 4.94735 -4.30782 0
M  V30 10664 H 984.83 4.59558 -6.00285 0
M  V30 10665 H 986.098 5.62098 -5.40061 0
M  V30 10666 N 990.327 1.50405 0.470755 0
M  V30 10667 C 991.29 1.68741 1.5511 0
M  V30 10668 C 992.29 0.558116 1.50804 0
M  V30 10669 O 993.48 0.825149 1.53418 0
M  V30 10670 C 990.612 1.71295 2.94739 0
M  V30 10671 H 991.805 2.65127 1.40169 0
M  V30 10672 H 989.358 1.39891 0.697156 0
M  V30 10673 H 990.093 0.766029 3.15123 0
M  V30 10674 H 989.878 2.53336 2.99271 0
M  V30 10675 H 991.368 1.87434 3.73173 0
M  V30 10676 N 991.805 -0.723954 1.39988 0
M  V30 10677 C 993.033 -1.51313 1.4111 0
M  V30 10678 C 993.448 -1.88798 0.00853333 0
M  V30 10679 O 992.805 -1.54868 -0.965516 0
M  V30 10680 C 992.856 -2.79375 2.29416 0
M  V30 10681 O 992.577 -2.43478 3.64211 0
M  V30 10682 C 994.078 -3.7333 2.3904 0
M  V30 10683 H 991.298 -0.46724 0.481589 0
M  V30 10684 H 993.842 -0.893694 1.83938 0
M  V30 10685 H 991.997 -3.37624 1.89971 0
M  V30 10686 H 992.411 -3.25821 4.11024 0
M  V30 10687 H 993.885 -4.60051 3.05053 0
M  V30 10688 H 994.362 -4.15854 1.41289 0
M  V30 10689 H 994.968 -3.20996 2.79001 0
M  V30 10690 N 993.283 -1.25346 -0.955304 0
M  V30 10691 C 994.56 -1.00829 -1.67609 0
M  V30 10692 C 994.94 0.465675 -2.059 0
M  V30 10693 O 994.288 1.44287 -1.77182 0
M  V30 10694 C 994.498 -1.94337 -2.89886 0
M  V30 10695 C 995.846 -2.22142 -3.61854 0
M  V30 10696 O 996.87 -1.9209 -2.99967 0
M  V30 10697 O 995.729 -2.73239 -4.73289 0
M  V30 10698 H 992.823 -0.382314 -0.733325 0
M  V30 10699 H 995.369 -1.36498 -1.00829 0
M  V30 10700 H 994.141 -2.93867 -2.58376 0
M  V30 10701 H 993.764 -1.59062 -3.64397 0
M  V30 10702 N 994.761 1.15782 -1.06922 0
M  V30 10703 C 996.007 1.86741 -0.790922 0
M  V30 10704 C 996.34 1.81863 0.681149 0
M  V30 10705 O 995.615 1.23871 1.49954 0
M  V30 10706 C 995.898 3.36038 -1.29422 0
M  V30 10707 C 995.751 3.49573 -2.83052 0
M  V30 10708 C 997.07 4.30647 -0.907239 0
M  V30 10709 H 994.189 0.678064 -0.288787 0
M  V30 10710 H 996.831 1.36054 -1.32624 0
M  V30 10711 H 994.981 3.79336 -0.838843 0
M  V30 10712 H 996.653 3.1517 -3.36847 0
M  V30 10713 H 994.896 2.91275 -3.21467 0
M  V30 10714 H 995.567 4.5445 -3.13335 0
M  V30 10715 H 998.043 3.95286 -1.29956 0
M  V30 10716 H 996.919 5.33604 -1.28679 0
M  V30 10717 H 997.18 4.41703 0.187251 0
M  V30 10718 N 996.239 0.8527 1.3254 0
M  V30 10719 C 997.655 0.542298 1.50104 0
M  V30 10720 C 997.855 -0.927465 1.78886 0
M  V30 10721 O 996.911 -1.7106 1.85728 0
M  V30 10722 C 998.224 1.4276 2.64651 0
M  V30 10723 C 999.772 1.42782 2.78536 0
M  V30 10724 C 1000.25 2.29828 3.9616 0
M  V30 10725 N 1001.74 2.27613 4.03418 0
M  V30 10726 C 1002.47 2.91696 4.93661 0
M  V30 10727 N 1001.97 3.64883 5.88925 0
M  V30 10728 N 1003.76 2.81094 4.86768 0
M  V30 10729 H 995.913 1.80395 1.12123 0
M  V30 10730 H 998.176 0.770394 0.552446 0
M  V30 10731 H 997.882 2.47266 2.50105 0
M  V30 10732 H 997.756 1.11358 3.60388 0
M  V30 10733 H 1000.14 0.390417 2.92506 0
M  V30 10734 H 1000.22 1.78198 1.83519 0
M  V30 10735 H 999.868 3.33635 3.82949 0
M  V30 10736 H 999.798 1.91746 4.9045 0
M  V30 10737 H 1002.29 1.74402 3.3525 0
M  V30 10738 H 1002.6 4.10952 6.54476 0
M  V30 10739 H 1000.95 3.68991 5.88957 0
M  V30 10740 H 1004.14 2.23469 4.11314 0
M  V30 10741 H 1004.31 3.31318 5.56895 0
M  V30 10742 N 997.718 -1.45297 0.610449 0
M  V30 10743 C 998.995 -1.95562 0.0386189 0
M  V30 10744 C 999.375 -1.55284 -1.43004 0
M  V30 10745 O 998.723 -0.816785 -2.13403 0
M  V30 10746 C 998.933 -3.48176 0.239731 0
M  V30 10747 C 1000.28 -4.24425 0.122035 0
M  V30 10748 O 1001.3 -3.55794 0.170003 0
M  V30 10749 O 1000.16 -5.46499 0.00953695 0
M  V30 10750 H 997.258 -0.826296 -0.0341081 0
M  V30 10751 H 999.804 -1.55449 0.68071 0
M  V30 10752 H 998.576 -3.70471 1.25963 0
M  V30 10753 H 998.199 -3.95186 -0.437486 0
M  V30 10754 N 999.196 -0.349774 -1.5367 0
M  V30 10755 C 1000.16 0.491676 -2.23864 0
M  V30 10756 C 1001.16 1.02256 -1.24098 0
M  V30 10757 O 1002.35 0.910816 -1.48492 0
M  V30 10758 C 999.481 1.68557 -2.96313 0
M  V30 10759 H 1000.67 -0.12233 -2.9965 0
M  V30 10760 H 998.227 -0.101214 -1.55972 0
M  V30 10761 H 998.962 2.3381 -2.2473 0
M  V30 10762 H 998.747 1.31203 -3.69497 0
M  V30 10763 H 1000.24 2.28225 -3.49718 0
M  V30 10764 N 1000.67 1.57404 -0.0785433 0
M  V30 10765 C 1001.61 2.08724 0.922464 0
M  V30 10766 C 1002.58 0.993912 1.28686 0
M  V30 10767 O 1003.77 1.26776 1.39499 0
M  V30 10768 C 1000.9 2.55051 2.2286 0
M  V30 10769 C 999.942 3.75884 2.01528 0
M  V30 10770 S 1000.77 5.2026 1.26844 0
M  V30 10771 C 1001.93 5.69924 2.58723 0
M  V30 10772 H 1002.16 2.93304 0.485807 0
M  V30 10773 H 999.697 1.53814 0.134377 0
M  V30 10774 H 1001.65 2.82402 2.97926 0
M  V30 10775 H 1000.32 1.70727 2.63649 0
M  V30 10776 H 999.509 4.06311 2.98207 0
M  V30 10777 H 999.111 3.48941 1.34596 0
M  V30 10778 H 1001.4 5.7718 3.5478 0
M  V30 10779 H 1002.35 6.68704 2.32897 0
M  V30 10780 H 1002.75 4.97773 2.66237 0
M  V30 10781 N 1002.15 -0.195058 1.56388 0
M  V30 10782 C 1003.11 -1.2254 1.93692 0
M  V30 10783 C 1004.11 -1.38437 0.81804 0
M  V30 10784 O 1005.3 -1.36248 1.08545 0
M  V30 10785 C 1002.44 -2.59476 2.21099 0
M  V30 10786 H 1003.63 -0.906544 2.8587 0
M  V30 10787 H 1001.18 -0.436577 1.50079 0
M  V30 10788 H 1001.92 -2.96417 1.31558 0
M  V30 10789 H 1001.7 -2.4931 3.02634 0
M  V30 10790 H 1003.19 -3.33777 2.50964 0
M  V30 10791 N 1003.63 -1.50653 -0.462772 0
M  V30 10792 C 1004.58 -1.70122 -1.55971 0
M  V30 10793 C 1005.55 -0.542581 -1.56988 0
M  V30 10794 O 1006.73 -0.774114 -1.74391 0
M  V30 10795 C 1003.87 -1.80899 -2.93887 0
M  V30 10796 C 1002.98 -3.08318 -3.02595 0
M  V30 10797 C 1002.12 -3.09841 -4.31477 0
M  V30 10798 C 1001.16 -4.3168 -4.33957 0
M  V30 10799 N 1000.3 -4.30894 -5.54323 0
M  V30 10800 H 1005.14 -2.63768 -1.38674 0
M  V30 10801 H 1002.67 -1.30746 -0.674091 0
M  V30 10802 H 1004.63 -1.85128 -3.73876 0
M  V30 10803 H 1003.26 -0.906854 -3.098 0
M  V30 10804 H 1002.31 -3.13521 -2.15427 0
M  V30 10805 H 1003.62 -3.98282 -3.00288 0
M  V30 10806 H 1002.78 -3.12845 -5.1982 0
M  V30 10807 H 1001.52 -2.17722 -4.36404 0
M  V30 10808 H 1000.52 -4.28879 -3.4401 0
M  V30 10809 H 1001.75 -5.25035 -4.30715 0
M  V30 10810 H 999.694 -3.41633 -5.6002 0
M  V30 10811 H 999.611 -5.14636 -5.53792 0
M  V30 10812 H 1000.88 -4.38056 -6.44769 0
M  V30 10813 N 1005.11 0.71652 -1.4037 0
M  V30 10814 C 1006.34 1.50563 -1.4191 0
M  V30 10815 C 1006.75 1.88791 -0.0185456 0
M  V30 10816 O 1006.11 1.55378 0.957289 0
M  V30 10817 C 1006.16 2.78155 -2.30894 0
M  V30 10818 O 1005.88 2.41543 -3.65497 0
M  V30 10819 C 1007.38 3.72057 -2.41016 0
M  V30 10820 H 1004.6 0.464679 -0.48406 0
M  V30 10821 H 1007.15 0.883927 -1.8441 0
M  V30 10822 H 1005.3 3.36611 -1.91759 0
M  V30 10823 H 1005.71 3.23636 -4.12747 0
M  V30 10824 H 1007.19 4.58426 -3.07489 0
M  V30 10825 H 1007.67 4.15098 -1.43492 0
M  V30 10826 H 1008.27 3.19512 -2.80699 0
M  V30 10827 N 1006.59 1.25851 0.948643 0
M  V30 10828 C 1007.52 1.09248 2.06367 0
M  V30 10829 C 1008.5 -0.000205168 1.701 0
M  V30 10830 O 1009.68 0.170442 1.93451 0
M  V30 10831 C 1006.81 0.716777 3.39823 0
M  V30 10832 C 1005.77 1.76036 3.90122 0
M  V30 10833 C 1005.09 1.23918 5.20143 0
M  V30 10834 C 1006.39 3.16039 4.15833 0
M  V30 10835 H 1008.09 2.02518 2.20515 0
M  V30 10836 H 1005.63 0.975093 1.05962 0
M  V30 10837 H 1007.59 0.587531 4.17284 0
M  V30 10838 H 1006.31 -0.251626 3.25629 0
M  V30 10839 H 1004.97 1.87815 3.14835 0
M  V30 10840 H 1004.62 0.260836 5.02323 0
M  V30 10841 H 1004.32 1.93673 5.54765 0
M  V30 10842 H 1005.84 1.12245 6.00194 0
M  V30 10843 H 1007.25 3.0738 4.83933 0
M  V30 10844 H 1005.65 3.83317 4.61723 0
M  V30 10845 H 1006.72 3.62652 3.21887 0
M  V30 10846 N 1008.06 -1.15214 1.07534 0
M  V30 10847 C 1009.29 -1.89647 0.819614 0
M  V30 10848 C 1009.7 -1.78365 -0.631072 0
M  V30 10849 O 1009.05 -1.1346 -1.44474 0
M  V30 10850 C 1009.11 -3.40573 1.1511 0
M  V30 10851 C 1008.77 -3.7564 2.60276 0
M  V30 10852 C 1009.77 -3.76507 3.58523 0
M  V30 10853 C 1007.45 -4.05891 2.95901 0
M  V30 10854 C 1009.45 -4.07133 4.9043 0
M  V30 10855 C 1007.13 -4.36182 4.28005 0
M  V30 10856 C 1008.13 -4.36785 5.25079 0
M  V30 10857 O 1007.82 -4.66348 6.54809 0
M  V30 10858 H 1007.55 -0.607836 0.295822 0
M  V30 10859 H 1010.11 -1.46895 1.43565 0
M  V30 10860 H 1008.34 -3.83734 0.478033 0
M  V30 10861 H 1010.03 -3.96299 0.877615 0
M  V30 10862 H 1010.79 -3.53233 3.32342 0
M  V30 10863 H 1006.67 -4.0458 2.20989 0
M  V30 10864 H 1010.21 -4.07519 5.66193 0
M  V30 10865 H 1006.11 -4.58924 4.53937 0
M  V30 10866 H 1006.88 -4.84105 6.59988 0
M  V30 10867 N 1009.54 -0.859717 -1.32086 0
M  V30 10868 C 1010.79 -0.464662 -1.96686 0
M  V30 10869 C 1011.11 0.98412 -1.68345 0
M  V30 10870 O 1010.38 1.68847 -0.993361 0
M  V30 10871 H 1008.96 -0.168838 -0.727669 0
M  V30 10872 H 1011.62 -1.09726 -1.61079 0
M  V30 10873 H 1010.72 -0.613904 -3.06003 0
M  V30 10874 N 1011.02 1.44971 -0.618145 0
M  V30 10875 C 1012.44 1.57077 -0.282666 0
M  V30 10876 C 1012.64 1.60782 1.21456 0
M  V30 10877 O 1011.69 1.54382 1.99806 0
M  V30 10878 C 1013.01 2.84858 -0.963148 0
M  V30 10879 C 1014.55 2.9855 -0.940062 0
M  V30 10880 C 1015.03 4.29115 -1.60076 0
M  V30 10881 N 1016.52 4.35899 -1.56674 0
M  V30 10882 C 1017.25 5.35617 -2.04701 0
M  V30 10883 N 1016.75 6.41813 -2.6086 0
M  V30 10884 N 1018.54 5.27042 -1.95406 0
M  V30 10885 H 1010.69 1.4081 -1.59017 0
M  V30 10886 H 1012.96 0.673914 -0.666741 0
M  V30 10887 H 1012.66 2.88059 -2.0178 0
M  V30 10888 H 1012.54 3.73966 -0.492901 0
M  V30 10889 H 1014.92 2.94909 0.10607 0
M  V30 10890 H 1015.01 2.10825 -1.44868 0
M  V30 10891 H 1014.65 4.33514 -2.64627 0
M  V30 10892 H 1014.58 5.15675 -1.06708 0
M  V30 10893 H 1017.07 3.59766 -1.15659 0
M  V30 10894 H 1017.38 7.14166 -2.95273 0
M  V30 10895 H 1015.73 6.42534 -2.64905 0
M  V30 10896 H 1018.92 4.42987 -1.51263 0
M  V30 10897 H 1019.09 6.04604 -2.33147 0
M  V30 10898 N 1012.5 0.357919 1.53482 0
M  V30 10899 C 1013.43 -0.484231 2.28424 0
M  V30 10900 C 1014.41 -1.09046 1.30548 0
M  V30 10901 O 1015.59 -1.10916 1.59409 0
M  V30 10902 C 1012.72 -1.62803 3.06778 0
M  V30 10903 C 1011.68 -1.14943 4.12277 0
M  V30 10904 C 1011 -2.38287 4.78669 0
M  V30 10905 C 1012.3 -0.239627 5.2175 0
M  V30 10906 H 1014 0.140979 2.99068 0
M  V30 10907 H 1011.54 0.069244 1.43833 0
M  V30 10908 H 1013.5 -2.22374 3.57949 0
M  V30 10909 H 1012.22 -2.28036 2.3381 0
M  V30 10910 H 1010.88 -0.576442 3.6204 0
M  V30 10911 H 1010.53 -3.01959 4.02281 0
M  V30 10912 H 1010.23 -2.06939 5.49955 0
M  V30 10913 H 1011.75 -2.98558 5.32631 0
M  V30 10914 H 1013.17 -0.742597 5.6847 0
M  V30 10915 H 1011.56 -0.0173747 6.00097 0
M  V30 10916 H 1012.63 0.720333 4.7952 0
M  V30 10917 N 1013.98 -1.5736 0.0868897 0
M  V30 10918 C 1015.22 -1.94054 -0.578741 0
M  V30 10919 C 1015.55 -0.968047 -1.68698 0
M  V30 10920 O 1014.81 0.0137824 -1.95695 0
M  V30 10921 C 1015.11 -3.37316 -1.18123 0
M  V30 10922 C 1014.77 -4.50467 -0.197607 0
M  V30 10923 C 1013.43 -4.81145 0.072952 0
M  V30 10924 C 1015.79 -5.19036 0.474473 0
M  V30 10925 C 1013.11 -5.77723 1.02242 0
M  V30 10926 C 1015.47 -6.16632 1.41236 0
M  V30 10927 C 1014.13 -6.45719 1.69124 0
M  V30 10928 H 1013.4 -0.710093 -0.211776 0
M  V30 10929 H 1016.05 -1.90822 0.160978 0
M  V30 10930 H 1014.35 -3.37085 -1.99701 0
M  V30 10931 H 1016.05 -3.63003 -1.7038 0
M  V30 10932 H 1012.64 -4.2655 -0.418669 0
M  V30 10933 H 1016.82 -4.95518 0.278581 0
M  V30 10934 H 1012.08 -5.98578 1.24557 0
M  V30 10935 H 1016.25 -6.68862 1.939 0
M  V30 10936 H 1013.88 -7.20365 2.42855 0
M  V30 10937 N 1015.45 0.186762 -1.56489 0
M  V30 10938 C 1016.68 0.925916 -1.85584 0
M  V30 10939 C 1017.1 1.75708 -0.671446 0
M  V30 10940 O 1016.46 1.7728 0.379687 0
M  V30 10941 C 1016.51 1.79107 -3.12975 0
M  V30 10942 O 1015.61 2.89088 -2.94112 0
M  V30 10943 H 1014.96 0.260275 -0.610863 0
M  V30 10944 H 1017.49 0.189561 -2.0372 0
M  V30 10945 H 1017.5 2.19408 -3.43983 0
M  V30 10946 H 1016.17 1.18044 -3.98796 0
M  V30 10947 H 1014.75 2.52482 -2.74422 0
M  V30 10948 N 1016.93 1.50896 0.454776 0
M  V30 10949 C 1018.18 1.63905 1.20444 0
M  V30 10950 C 1018.53 0.342692 1.89323 0
M  V30 10951 O 1017.83 -0.660465 1.79857 0
M  V30 10952 C 1018.02 2.76839 2.26042 0
M  V30 10953 C 1017.85 4.17332 1.67524 0
M  V30 10954 C 1016.62 4.83512 1.46779 0
M  V30 10955 C 1018.82 5.01022 1.1611 0
M  V30 10956 N 1016.8 6.08171 0.83675 0
M  V30 10957 C 1018.17 6.16538 0.654283 0
M  V30 10958 C 1020.23 4.86677 1.05119 0
M  V30 10959 C 1018.93 7.19284 0.0483821 0
M  V30 10960 C 1020.95 5.89614 0.459211 0
M  V30 10961 C 1020.32 7.0439 -0.0371476 0
M  V30 10962 H 1016.42 0.653802 0.42903 0
M  V30 10963 H 1019 1.88069 0.503783 0
M  V30 10964 H 1017.17 2.54369 2.93515 0
M  V30 10965 H 1018.9 2.7912 2.93043 0
M  V30 10966 H 1015.66 4.41082 1.72464 0
M  V30 10967 H 1016.08 6.7485 0.539176 0
M  V30 10968 H 1020.72 3.98211 1.42085 0
M  V30 10969 H 1018.44 8.07412 -0.333438 0
M  V30 10970 H 1022.03 5.80582 0.376315 0
M  V30 10971 H 1020.91 7.8268 -0.488035 0
M  V30 10972 N 1018.41 -0.709066 1.40748 0
M  V30 10973 C 1019.66 -1.4646 1.38681 0
M  V30 10974 C 1019.97 -1.95599 -0.0056209 0
M  V30 10975 O 1021.18 -2.71091 -0.148907 0
M  V30 10976 C 1019.63 -2.64771 2.43771 0
M  V30 10977 C 1019.24 -2.22474 3.88856 0
M  V30 10978 C 1020.99 -3.42475 2.50821 0
M  V30 10979 C 1018.89 -3.37663 4.85528 0
M  V30 10980 H 1017.82 -0.550084 0.515678 0
M  V30 10981 H 1020.47 -0.771074 1.66513 0
M  V30 10982 H 1018.86 -3.36325 2.09048 0
M  V30 10983 H 1020.03 -1.58297 4.32757 0
M  V30 10984 H 1018.35 -1.57798 3.85342 0
M  V30 10985 H 1020.94 -4.28201 3.20232 0
M  V30 10986 H 1021.29 -3.86738 1.54076 0
M  V30 10987 H 1021.82 -2.77969 2.84567 0
M  V30 10988 H 1018.56 -2.98426 5.83628 0
M  V30 10989 H 1018.08 -4.00734 4.46287 0
M  V30 10990 H 1019.76 -4.03636 5.05655 0
M  V30 10991 N 1019.89 -1.26353 -0.941956 0
M  V30 10992 C 1021.14 -1.12017 -1.69056 0
M  V30 10993 C 1021.47 0.335856 -1.91274 0
M  V30 10994 O 1020.74 1.24677 -1.49285 0
M  V30 10995 C 1021.03 -1.88889 -3.06583 0
M  V30 10996 C 1020.88 -3.42394 -2.91696 0
M  V30 10997 C 1022.2 -1.68209 -4.06686 0
M  V30 10998 H 1019.32 -0.408311 -0.613556 0
M  V30 10999 H 1021.96 -1.55339 -1.09407 0
M  V30 11000 H 1020.11 -1.5207 -3.57501 0
M  V30 11001 H 1021.78 -3.88962 -2.48005 0
M  V30 11002 H 1020.02 -3.69459 -2.27338 0
M  V30 11003 H 1020.7 -3.91408 -3.89235 0
M  V30 11004 H 1023.17 -2.00286 -3.64726 0
M  V30 11005 H 1022.05 -2.24412 -5.00929 0
M  V30 11006 H 1022.31 -0.626474 -4.37639 0
M  V30 11007 N 1021.37 1.14642 -1.08144 0
M  V30 11008 C 1022.32 2.21708 -0.703448 0
M  V30 11009 C 1023.31 1.66907 0.289535 0
M  V30 11010 O 1024.52 1.79354 0.152387 0
M  V30 11011 H 1020.89 0.722247 -0.209437 0
M  V30 11012 H 1022.86 2.50862 -1.61588 0
M  V30 11013 C 1021.61 3.47472 -0.125975 0
M  V30 11014 H 1020.93 3.89967 -0.881216 0
M  V30 11015 H 1022.37 4.2388 0.100737 0
M  V30 11016 C 1020.83 3.17189 1.13546 0
M  V30 11017 O 1021.36 3.34733 2.22073 0
M  V30 11018 N 1019.57 2.71169 1.04479 0
M  V30 11019 H 1019.12 2.57093 0.161566 0
M  V30 11020 H 1019.07 2.51282 1.88957 0
M  V30 11021 N 1022.85 0.866709 1.31628 0
M  V30 11022 C 1024.09 0.482479 1.98624 0
M  V30 11023 C 1024.45 -0.946844 1.6703 0
M  V30 11024 O 1025.65 -1.43626 2.27212 0
M  V30 11025 C 1023.92 0.728582 3.49895 0
M  V30 11026 S 1025.48 0.443724 4.36551 0
M  V30 11027 H 1022.3 0.180238 0.687776 0
M  V30 11028 H 1024.9 1.12203 1.60096 0
M  V30 11029 H 1023.6 1.76769 3.70379 0
M  V30 11030 H 1023.14 0.075903 3.93327 0
M  V30 11031 H 1025.15 -0.72534 4.9087 0
M  V30 11032 N 1024.32 -1.44642 0.625825 0
M  V30 11033 C 1025.57 -2.01308 0.125682 0
M  V30 11034 C 1025.89 -1.49773 -1.25807 0
M  V30 11035 O 1027.09 -1.98533 -1.85194 0
M  V30 11036 C 1025.55 -3.59479 0.17395 0
M  V30 11037 C 1025.16 -4.20011 1.55868 0
M  V30 11038 C 1026.9 -4.2364 -0.270005 0
M  V30 11039 C 1024.81 -5.7039 1.56235 0
M  V30 11040 H 1023.74 -0.75276 0.0432194 0
M  V30 11041 H 1026.39 -1.65916 0.783842 0
M  V30 11042 H 1024.77 -3.92145 -0.551212 0
M  V30 11043 H 1025.94 -3.98891 2.307 0
M  V30 11044 H 1024.26 -3.68116 1.94627 0
M  V30 11045 H 1026.86 -5.33931 -0.28672 0
M  V30 11046 H 1027.2 -3.95603 -1.29629 0
M  V30 11047 H 1027.73 -3.95759 0.402487 0
M  V30 11048 H 1024.47 -6.03154 2.56683 0
M  V30 11049 H 1023.99 -5.93648 0.856881 0
M  V30 11050 H 1025.67 -6.33929 1.29396 0
M  V30 11051 N 1025.8 -0.366053 -1.5329 0
M  V30 11052 C 1026.75 0.495319 -2.27265 0
M  V30 11053 C 1027.74 1.08298 -1.30261 0
M  V30 11054 O 1028.95 1.02613 -1.47887 0
M  V30 11055 H 1025.32 0.178454 -0.730519 0
M  V30 11056 H 1027.3 -0.150354 -2.98021 0
M  V30 11057 C 1026.04 1.62283 -3.07505 0
M  V30 11058 H 1025.37 1.17993 -3.81992 0
M  V30 11059 H 1026.81 2.20024 -3.62444 0
M  V30 11060 C 1025.27 2.56542 -2.18375 0
M  V30 11061 O 1025.8 3.59371 -1.79486 0
M  V30 11062 N 1024 2.25742 -1.82999 0
M  V30 11063 H 1023.55 1.42159 -2.14822 0
M  V30 11064 H 1023.51 2.89064 -1.2365 0
M  V30 11065 N 1027.28 1.57312 -0.0952337 0
M  V30 11066 C 1028.5 1.99119 0.580206 0
M  V30 11067 C 1028.93 0.973955 1.60922 0
M  V30 11068 O 1028.29 -0.0575338 1.81209 0
M  V30 11069 C 1028.34 3.39893 1.20438 0
M  V30 11070 O 1027.44 3.40941 2.32019 0
M  V30 11071 H 1026.78 0.64748 0.147195 0
M  V30 11072 H 1029.31 2.03836 -0.176686 0
M  V30 11073 H 1029.32 3.7759 1.54564 0
M  V30 11074 H 1028 4.13453 0.450514 0
M  V30 11075 H 1026.57 3.1504 1.9951 0
M  V30 11076 N 1028.76 -0.17846 1.56586 0
M  V30 11077 C 1029.69 -1.22342 1.98884 0
M  V30 11078 C 1030.67 -1.46564 0.86331 0
M  V30 11079 O 1031.85 -1.58019 1.12887 0
M  V30 11080 C 1028.98 -2.56396 2.34261 0
M  V30 11081 C 1027.94 -2.46756 3.49708 0
M  V30 11082 C 1027.26 -3.85235 3.70807 0
M  V30 11083 C 1028.56 -1.97838 4.83381 0
M  V30 11084 H 1030.26 -0.871848 2.86425 0
M  V30 11085 H 1027.8 -0.417948 1.37801 0
M  V30 11086 H 1029.76 -3.29695 2.62448 0
M  V30 11087 H 1028.48 -2.93327 1.43621 0
M  V30 11088 H 1027.14 -1.75912 3.21637 0
M  V30 11089 H 1026.79 -4.19547 2.7747 0
M  V30 11090 H 1026.49 -3.79655 4.48481 0
M  V30 11091 H 1028.01 -4.60131 4.01387 0
M  V30 11092 H 1029.43 -2.60906 5.10491 0
M  V30 11093 H 1027.82 -2.03223 5.64642 0
M  V30 11094 H 1028.89 -0.932339 4.75852 0
M  V30 11095 N 1030.24 -1.51135 -0.446768 0
M  V30 11096 C 1031.17 -1.74709 -1.54916 0
M  V30 11097 C 1032.15 -0.596628 -1.59293 0
M  V30 11098 O 1033.33 -0.838356 -1.75172 0
M  V30 11099 C 1030.46 -1.86353 -2.9307 0
M  V30 11100 C 1029.42 -3.01725 -3.03556 0
M  V30 11101 C 1028.74 -2.9854 -4.43597 0
M  V30 11102 C 1030.04 -4.41848 -2.7851 0
M  V30 11103 H 1031.74 -2.67014 -1.3544 0
M  V30 11104 H 1029.28 -1.28489 -0.650131 0
M  V30 11105 H 1031.23 -2.01428 -3.70141 0
M  V30 11106 H 1029.96 -0.906887 -3.13756 0
M  V30 11107 H 1028.62 -2.86339 -2.28922 0
M  V30 11108 H 1028.27 -2.00673 -4.61237 0
M  V30 11109 H 1027.97 -3.76008 -4.51544 0
M  V30 11110 H 1029.49 -3.15696 -5.22655 0
M  V30 11111 H 1030.9 -4.57633 -3.45319 0
M  V30 11112 H 1029.3 -5.2095 -2.97877 0
M  V30 11113 H 1030.37 -4.52536 -1.74182 0
M  V30 11114 N 1031.71 0.701592 -1.41122 0
M  V30 11115 C 1032.66 1.81559 -1.42495 0
M  V30 11116 C 1033.63 1.63722 -0.280078 0
M  V30 11117 O 1034.82 1.84658 -0.480231 0
M  V30 11118 C 1031.96 3.19392 -1.30702 0
M  V30 11119 C 1031.07 3.48704 -2.55009 0
M  V30 11120 C 1030.2 4.76118 -2.35554 0
M  V30 11121 C 1029.24 4.98378 -3.55367 0
M  V30 11122 N 1028.38 6.17014 -3.3502 0
M  V30 11123 H 1033.22 1.7972 -2.37707 0
M  V30 11124 H 1030.76 0.877727 -1.18044 0
M  V30 11125 H 1032.71 3.99004 -1.21867 0
M  V30 11126 H 1031.34 3.20423 -0.391012 0
M  V30 11127 H 1030.4 2.63542 -2.74317 0
M  V30 11128 H 1031.71 3.61057 -3.44151 0
M  V30 11129 H 1030.86 5.63774 -2.24152 0
M  V30 11130 H 1029.6 4.66 -1.43859 0
M  V30 11131 H 1028.61 4.09172 -3.6723 0
M  V30 11132 H 1029.83 5.10359 -4.48007 0
M  V30 11133 H 1027.78 6.0812 -2.4602 0
M  V30 11134 H 1027.69 6.30107 -4.17733 0
M  V30 11135 H 1028.96 7.0742 -3.27379 0
M  V30 11136 N 1033.19 1.2685 0.935242 0
M  V30 11137 C 1034.14 1.05586 2.02078 0
M  V30 11138 C 1035.13 -0.013699 1.60894 0
M  V30 11139 O 1036.32 0.203956 1.75821 0
M  V30 11140 C 1033.45 0.697118 3.36148 0
M  V30 11141 C 1032.53 1.80444 3.83798 0
M  V30 11142 N 1032.92 3.04283 4.04037 0
M  V30 11143 C 1031.22 1.68939 4.12766 0
M  V30 11144 C 1031.92 3.7629 4.436 0
M  V30 11145 N 1030.9 3.04011 4.50642 0
M  V30 11146 H 1034.7 1.99577 2.15746 0
M  V30 11147 H 1032.21 1.17455 1.12153 0
M  V30 11148 H 1034.21 0.525915 4.1357 0
M  V30 11149 H 1032.87 -0.235247 3.23847 0
M  V30 11150 H 1033.88 3.40125 3.90558 0
M  V30 11151 H 1030.56 0.827341 4.0922 0
M  V30 11152 H 1031.95 4.82687 4.67401 0
M  V30 11153 N 1034.67 -1.14067 1.0875 0
M  V30 11154 C 1035.95 -1.81389 0.73195 0
M  V30 11155 C 1036.33 -1.96005 -0.78391 0
M  V30 11156 O 1035.68 -1.52267 -1.70373 0
M  V30 11157 C 1035.89 -3.16858 1.46294 0
M  V30 11158 C 1037.23 -3.92305 1.62426 0
M  V30 11159 O 1038.26 -3.26459 1.42488 0
M  V30 11160 O 1037.12 -5.10393 1.9535 0
M  V30 11161 H 1034.21 -0.784354 0.262141 0
M  V30 11162 H 1036.76 -1.21054 1.18929 0
M  V30 11163 H 1035.53 -3.01404 2.49542 0
M  V30 11164 H 1035.15 -3.84889 0.997318 0
M  V30 11165 N 1036.15 -0.873678 -1.31166 0
M  V30 11166 C 1037.37 -0.500242 -2.01277 0
M  V30 11167 C 1037.8 0.900811 -1.65127 0
M  V30 11168 O 1037.16 1.59504 -0.861862 0
M  V30 11169 C 1037.2 -0.668976 -3.5434 0
M  V30 11170 O 1036.31 0.290096 -4.11378 0
M  V30 11171 H 1035.65 -0.198507 -0.633633 0
M  V30 11172 H 1038.18 -1.17811 -1.67277 0
M  V30 11173 H 1038.19 -0.563673 -4.04088 0
M  V30 11174 H 1036.86 -1.69055 -3.79991 0
M  V30 11175 H 1035.44 0.139437 -3.72639 0
M  V30 11176 N 1037.63 1.44308 -0.633487 0
M  V30 11177 C 1038.85 2.06897 -0.144347 0
M  V30 11178 C 1039.28 1.47045 1.173 0
M  V30 11179 O 1038.63 0.572806 1.72013 0
M  V30 11180 C 1038.68 3.60571 -0.0456324 0
M  V30 11181 O 1037.79 4.0015 0.997682 0
M  V30 11182 H 1037.13 0.658427 -0.0858499 0
M  V30 11183 H 1039.66 1.85142 -0.870833 0
M  V30 11184 H 1039.67 4.07745 0.144178 0
M  V30 11185 H 1038.34 4.03515 -1.0074 0
M  V30 11186 H 1036.92 3.64603 0.782252 0
M  V30 11187 N 1039.1 0.374177 1.53094 0
M  V30 11188 C 1040.52 -0.103172 1.86415 0
M  V30 11189 C 1040.87 -1.47439 1.29446 0
M  V30 11190 O 1039.99 -2.07333 0.619853 0
M  V30 11191 C 1040.59 -0.193988 3.38244 0
M  V30 11192 C 1039.15 -0.615605 3.71332 0
M  V30 11193 C 1038.29 0.23186 2.76329 0
M  V30 11194 H 1041.24 0.592644 1.47219 0
M  V30 11195 H 1041.26 -1.01597 3.66686 0
M  V30 11196 H 1040.78 0.80414 3.79678 0
M  V30 11197 H 1038.88 -1.62165 3.3546 0
M  V30 11198 H 1038.99 -0.38425 4.77557 0
M  V30 11199 H 1037.35 -0.300579 2.5292 0
M  V30 11200 H 1038.14 1.22769 3.20597 0
M  V30 11201 N 1040.58 -1.57259 0.103575 0
M  V30 11202 C 1041.81 -1.99424 -0.569638 0
M  V30 11203 C 1042.23 -0.982475 -1.60403 0
M  V30 11204 O 1041.59 0.0479231 -1.81237 0
M  V30 11205 C 1041.64 -3.40527 -1.18633 0
M  V30 11206 O 1040.74 -3.42167 -2.30208 0
M  V30 11207 H 1040.08 -0.648251 -0.143759 0
M  V30 11208 H 1042.61 -2.03739 0.187493 0
M  V30 11209 H 1042.62 -3.78404 -1.5256 0
M  V30 11210 H 1041.3 -4.13686 -0.428582 0
M  V30 11211 H 1039.88 -3.16093 -1.97837 0
M  V30 11212 N 1042.06 0.170153 -1.56679 0
M  V30 11213 C 1043.31 0.884841 -1.817 0
M  V30 11214 C 1043.63 1.82731 -0.680763 0
M  V30 11215 O 1042.9 1.936 0.299294 0
M  V30 11216 H 1041.48 0.329738 -0.670285 0
M  V30 11217 H 1044.14 0.169691 -1.9416 0
M  V30 11218 H 1043.24 1.46104 -2.7579 0
M  V30 11219 N 1043.54 1.5137 0.438746 0
M  V30 11220 C 1044.49 1.73154 1.55308 0
M  V30 11221 C 1045.48 0.597825 1.58501 0
M  V30 11222 O 1046.69 0.77917 1.62262 0
M  V30 11223 H 1043.06 0.547083 0.51595 0
M  V30 11224 H 1045.03 2.66566 1.34108 0
M  V30 11225 C 1043.78 1.87242 2.92977 0
M  V30 11226 H 1043.1 2.73884 2.91252 0
M  V30 11227 H 1044.54 2.06497 3.70317 0
M  V30 11228 C 1043 0.631887 3.30921 0
M  V30 11229 O 1043.53 -0.214099 4.01129 0
M  V30 11230 N 1041.74 0.47639 2.86669 0
M  V30 11231 H 1041.29 1.16589 2.29706 0
M  V30 11232 H 1041.24 -0.352403 3.12419 0
M  V30 11233 N 1045.02 -0.694098 1.41492 0
M  V30 11234 C 1046.26 -1.45127 1.4065 0
M  V30 11235 C 1046.59 -1.94993 0.0170289 0
M  V30 11236 O 1045.86 -1.71799 -0.941372 0
M  V30 11237 H 1044.44 -0.538493 0.51772 0
M  V30 11238 H 1047.1 -0.821441 1.76744 0
M  V30 11239 H 1046.19 -2.31372 2.0946 0
M  V30 11240 N 1046.49 -1.27344 -0.928501 0
M  V30 11241 C 1047.77 -1.04362 -1.65433 0
M  V30 11242 C 1048.15 0.421896 -2.06841 0
M  V30 11243 O 1047.5 1.40496 -1.80203 0
M  V30 11244 C 1047.71 -2.00442 -2.85699 0
M  V30 11245 C 1049.06 -2.29767 -3.57061 0
M  V30 11246 O 1050.08 -1.98409 -2.95825 0
M  V30 11247 O 1048.94 -2.83217 -4.67387 0
M  V30 11248 H 1046.03 -0.397783 -0.72505 0
M  V30 11249 H 1048.58 -1.38606 -0.979109 0
M  V30 11250 H 1047.35 -2.99281 -2.52085 0
M  V30 11251 H 1046.98 -1.66755 -3.60941 0
M  V30 11252 N 1047.97 1.13488 -1.09353 0
M  V30 11253 C 1048.88 2.2248 -0.744307 0
M  V30 11254 C 1049.9 1.72145 0.253404 0
M  V30 11255 O 1051.07 2.01176 0.0949339 0
M  V30 11256 C 1048.14 3.46286 -0.16928 0
M  V30 11257 C 1047.2 4.11516 -1.22284 0
M  V30 11258 C 1046.43 5.29412 -0.675161 0
M  V30 11259 O 1046.66 5.68185 0.502182 0
M  V30 11260 O 1045.59 5.8467 -1.42983 0
M  V30 11261 H 1049.42 2.54723 -1.65378 0
M  V30 11262 H 1047 1.21607 -0.867879 0
M  V30 11263 H 1048.88 4.2114 0.14811 0
M  V30 11264 H 1047.56 3.15745 0.713214 0
M  V30 11265 H 1046.47 3.38492 -1.59292 0
M  V30 11266 H 1047.8 4.46186 -2.07796 0
M  V30 11267 N 1049.45 0.880621 1.30701 0
M  V30 11268 C 1050.38 0.360251 2.30704 0
M  V30 11269 C 1051.36 -0.554572 1.60806 0
M  V30 11270 O 1052.55 -0.469345 1.88443 0
M  V30 11271 C 1049.68 -0.429888 3.44629 0
M  V30 11272 C 1048.63 0.392786 4.26194 0
M  V30 11273 C 1047.96 -0.52369 5.32129 0
M  V30 11274 C 1049.26 1.63258 4.96129 0
M  V30 11275 H 1050.95 1.19591 2.74478 0
M  V30 11276 H 1048.5 0.576508 1.31956 0
M  V30 11277 H 1050.45 -0.804532 4.13649 0
M  V30 11278 H 1049.17 -1.29916 2.99649 0
M  V30 11279 H 1047.83 0.749514 3.58856 0
M  V30 11280 H 1047.48 -1.39054 4.83397 0
M  V30 11281 H 1047.18 0.0229272 5.87596 0
M  V30 11282 H 1048.71 -0.894946 6.04006 0
M  V30 11283 H 1050.12 1.32877 5.57689 0
M  V30 11284 H 1048.52 2.11906 5.61441 0
M  V30 11285 H 1049.59 2.37944 4.22505 0
M  V30 11286 N 1050.93 -1.4397 0.641131 0
M  V30 11287 C 1052.15 -2.06818 0.155318 0
M  V30 11288 C 1052.58 -1.47665 -1.16519 0
M  V30 11289 O 1051.94 -0.58192 -1.71707 0
M  V30 11290 C 1051.99 -3.60542 0.0647537 0
M  V30 11291 O 1051.09 -4.00674 -0.976447 0
M  V30 11292 H 1050.43 -0.657962 0.0893404 0
M  V30 11293 H 1052.96 -1.84678 0.88064 0
M  V30 11294 H 1052.97 -4.07816 -0.122552 0
M  V30 11295 H 1051.65 -4.02975 1.02878 0
M  V30 11296 H 1050.22 -3.65013 -0.762905 0
M  V30 11297 N 1052.41 -0.382291 -1.52893 0
M  V30 11298 C 1053.66 0.203342 -2.00672 0
M  V30 11299 C 1053.97 1.48487 -1.27322 0
M  V30 11300 O 1055.18 2.15013 -1.65776 0
M  V30 11301 C 1053.63 0.412922 -3.57523 0
M  V30 11302 C 1053.24 -0.854949 -4.39767 0
M  V30 11303 C 1054.98 0.955301 -4.13611 0
M  V30 11304 C 1052.89 -0.614033 -5.88204 0
M  V30 11305 H 1051.82 0.0797635 -0.749769 0
M  V30 11306 H 1054.47 -0.50361 -1.76454 0
M  V30 11307 H 1052.85 1.18155 -3.77962 0
M  V30 11308 H 1054.03 -1.62765 -4.31096 0
M  V30 11309 H 1052.34 -1.32176 -3.94865 0
M  V30 11310 H 1054.94 1.15114 -5.22162 0
M  V30 11311 H 1055.28 1.92233 -3.69259 0
M  V30 11312 H 1055.82 0.24642 -3.97036 0
M  V30 11313 H 1052.55 -1.55187 -6.36865 0
M  V30 11314 H 1052.07 0.119865 -5.9968 0
M  V30 11315 H 1053.75 -0.245895 -6.46533 0
M  V30 11316 N 1053.89 1.57202 -0.111913 0
M  V30 11317 C 1055.13 1.94565 0.546713 0
M  V30 11318 C 1055.45 0.995644 1.67666 0
M  V30 11319 O 1054.72 0.0506681 1.95834 0
M  V30 11320 H 1053.3 0.718334 0.204951 0
M  V30 11321 H 1055.97 1.94074 -0.179193 0
M  V30 11322 H 1055.06 2.9742 0.945931 0
M  V30 11323 N 1055.36 -0.161842 1.56767 0
M  V30 11324 C 1056.61 -0.875278 1.81719 0
M  V30 11325 C 1056.93 -1.82998 0.690739 0
M  V30 11326 O 1058.13 -2.58648 0.82545 0
M  V30 11327 C 1056.59 -1.60703 3.22029 0
M  V30 11328 C 1056.2 -0.695486 4.42569 0
M  V30 11329 C 1057.94 -2.30813 3.56266 0
M  V30 11330 C 1055.85 -1.42801 5.73901 0
M  V30 11331 H 1054.78 -0.330591 0.677662 0
M  V30 11332 H 1057.43 -0.128112 1.83052 0
M  V30 11333 H 1055.81 -2.39929 3.1504 0
M  V30 11334 H 1056.98 0.0604882 4.6076 0
M  V30 11335 H 1055.3 -0.10356 4.16271 0
M  V30 11336 H 1057.9 -2.86229 4.51638 0
M  V30 11337 H 1058.24 -3.06603 2.81604 0
M  V30 11338 H 1058.77 -1.5852 3.64851 0
M  V30 11339 H 1055.51 -0.712253 6.51619 0
M  V30 11340 H 1055.03 -2.15707 5.5967 0
M  V30 11341 H 1056.71 -1.97295 6.16185 0
M  V30 11342 N 1056.84 -1.516 -0.430713 0
M  V30 11343 C 1057.77 -1.76342 -1.53054 0
M  V30 11344 C 1058.75 -0.61349 -1.58652 0
M  V30 11345 O 1059.94 -0.856888 -1.74273 0
M  V30 11346 C 1057.07 -1.8945 -2.91077 0
M  V30 11347 C 1056.02 -3.04928 -3.00339 0
M  V30 11348 C 1055.35 -3.03228 -4.40405 0
M  V30 11349 C 1056.65 -4.44777 -2.73808 0
M  V30 11350 H 1058.34 -2.68435 -1.326 0
M  V30 11351 H 1055.89 -1.29171 -0.636466 0
M  V30 11352 H 1057.84 -2.05343 -3.67984 0
M  V30 11353 H 1056.56 -0.940114 -3.12777 0
M  V30 11354 H 1055.22 -2.88751 -2.25872 0
M  V30 11355 H 1054.87 -2.05553 -4.59083 0
M  V30 11356 H 1054.57 -3.80776 -4.47531 0
M  V30 11357 H 1056.1 -3.21222 -5.19277 0
M  V30 11358 H 1057.51 -4.6127 -3.40445 0
M  V30 11359 H 1055.91 -5.2408 -2.92335 0
M  V30 11360 H 1056.98 -4.54358 -1.69372 0
M  V30 11361 N 1058.32 0.686584 -1.41858 0
M  V30 11362 C 1059.6 1.44176 -1.32185 0
M  V30 11363 C 1059.98 2.11049 0.046362 0
M  V30 11364 O 1059.32 2.02365 1.06117 0
M  V30 11365 C 1059.53 2.45385 -2.48168 0
M  V30 11366 C 1060.88 3.10375 -2.89746 0
M  V30 11367 O 1061.91 2.55711 -2.47973 0
M  V30 11368 O 1060.77 4.09404 -3.62009 0
M  V30 11369 H 1057.86 0.642513 -0.520678 0
M  V30 11370 H 1060.41 0.716303 -1.53841 0
M  V30 11371 H 1059.18 1.94687 -3.3943 0
M  V30 11372 H 1058.8 3.25428 -2.28435 0
M  V30 11373 N 1059.8 1.27835 0.921735 0
M  V30 11374 C 1061.05 1.13904 1.6646 0
M  V30 11375 C 1061.36 -0.313379 1.93073 0
M  V30 11376 O 1062.57 -0.573687 2.6537 0
M  V30 11377 C 1061.02 1.99064 2.99836 0
M  V30 11378 C 1060.63 3.48998 2.80899 0
M  V30 11379 C 1062.37 1.93797 3.77681 0
M  V30 11380 C 1060.28 4.26337 4.09867 0
M  V30 11381 H 1059.21 0.422681 0.624385 0
M  V30 11382 H 1061.86 1.52303 1.02352 0
M  V30 11383 H 1060.24 1.53514 3.65034 0
M  V30 11384 H 1061.42 4.02452 2.24431 0
M  V30 11385 H 1059.73 3.55707 2.16476 0
M  V30 11386 H 1062.33 2.48852 4.73262 0
M  V30 11387 H 1062.67 0.912928 4.06167 0
M  V30 11388 H 1063.21 2.37275 3.19289 0
M  V30 11389 H 1059.94 5.2939 3.86557 0
M  V30 11390 H 1059.46 3.77659 4.65976 0
M  V30 11391 H 1061.14 4.3583 4.78185 0
M  V30 11392 N 1061.28 -1.12907 1.09954 0
M  V30 11393 C 1062.52 -1.84306 0.838912 0
M  V30 11394 C 1062.85 -1.83825 -0.635508 0
M  V30 11395 O 1062.11 -1.27556 -1.48418 0
M  V30 11396 C 1062.4 -3.31885 1.32616 0
M  V30 11397 C 1062.07 -3.52542 2.81114 0
M  V30 11398 C 1060.73 -3.57888 3.21667 0
M  V30 11399 C 1063.08 -3.60065 3.76833 0
M  V30 11400 C 1060.41 -3.68296 4.567 0
M  V30 11401 C 1062.76 -3.72001 5.11662 0
M  V30 11402 C 1061.43 -3.75602 5.51797 0
M  V30 11403 H 1060.7 -0.674422 0.30698 0
M  V30 11404 H 1063.35 -1.33261 1.37527 0
M  V30 11405 H 1061.65 -3.85318 0.709719 0
M  V30 11406 H 1063.35 -3.85588 1.10105 0
M  V30 11407 H 1059.94 -3.4904 2.48735 0
M  V30 11408 H 1064.12 -3.55209 3.46612 0
M  V30 11409 H 1059.38 -3.69352 4.87226 0
M  V30 11410 H 1063.55 -3.76765 5.8568 0
M  V30 11411 H 1061.18 -3.83419 6.56425 0
M  V30 11412 N 1062.75 -0.88754 -1.30232 0
M  V30 11413 C 1064 -0.506277 -1.95656 0
M  V30 11414 C 1064.32 0.948191 -1.70395 0
M  V30 11415 O 1063.59 1.66701 -1.02895 0
M  V30 11416 H 1062.17 -0.184235 -0.723924 0
M  V30 11417 H 1064.83 -1.13118 -1.58715 0
M  V30 11418 H 1063.93 -0.678673 -3.04632 0
M  V30 11419 N 1064.23 1.43628 -0.648757 0
M  V30 11420 C 1065.48 2.01864 -0.160336 0
M  V30 11421 C 1065.81 1.51148 1.22412 0
M  V30 11422 O 1065.06 0.693168 1.83013 0
M  V30 11423 C 1065.36 3.57214 -0.115282 0
M  V30 11424 C 1065.03 4.27258 -1.44088 0
M  V30 11425 C 1063.69 4.46109 -1.8039 0
M  V30 11426 C 1066.04 4.66962 -2.31508 0
M  V30 11427 C 1063.37 5.01928 -3.03785 0
M  V30 11428 C 1065.72 5.24148 -3.54191 0
M  V30 11429 C 1064.39 5.41216 -3.90694 0
M  V30 11430 H 1063.66 0.738674 -0.0586712 0
M  V30 11431 H 1066.3 1.72163 -0.838578 0
M  V30 11432 H 1064.61 3.86431 0.646395 0
M  V30 11433 H 1066.3 4.00025 0.279425 0
M  V30 11434 H 1062.89 4.12928 -1.14842 0
M  V30 11435 H 1067.08 4.52095 -2.04753 0
M  V30 11436 H 1062.33 5.13328 -3.32122 0
M  V30 11437 H 1066.51 5.53861 -4.22151 0
M  V30 11438 H 1064.14 5.84234 -4.8639 0
M  V30 11439 N 1065.71 0.390394 1.52688 0
M  V30 11440 C 1066.62 -0.451543 2.30213 0
M  V30 11441 C 1067.64 -1.07051 1.37172 0
M  V30 11442 O 1068.81 -1.07609 1.70242 0
M  V30 11443 C 1065.88 -1.56299 3.0947 0
M  V30 11444 C 1064.94 -0.969017 4.18221 0
M  V30 11445 C 1064.17 -2.0275 4.93688 0
M  V30 11446 O 1064.39 -3.24273 4.69258 0
M  V30 11447 O 1063.33 -1.64418 5.79008 0
M  V30 11448 H 1067.15 0.180042 3.03166 0
M  V30 11449 H 1064.74 0.154082 1.48603 0
M  V30 11450 H 1066.62 -2.20864 3.58883 0
M  V30 11451 H 1065.3 -2.17952 2.3933 0
M  V30 11452 H 1064.2 -0.286587 3.73001 0
M  V30 11453 H 1065.54 -0.396687 4.90599 0
M  V30 11454 N 1067.19 -1.57141 0.120249 0
M  V30 11455 C 1068.14 -2.16638 -0.846809 0
M  V30 11456 C 1069.13 -1.11594 -1.27449 0
M  V30 11457 O 1070.34 -1.29895 -1.24608 0
M  V30 11458 H 1066.71 -0.693331 -0.291197 0
M  V30 11459 H 1068.68 -2.96673 -0.320536 0
M  V30 11460 C 1067.43 -2.78134 -2.08655 0
M  V30 11461 H 1066.75 -3.58662 -1.76639 0
M  V30 11462 H 1068.19 -3.23301 -2.74322 0
M  V30 11463 C 1066.65 -1.7528 -2.87713 0
M  V30 11464 O 1067.18 -1.20693 -3.8314 0
M  V30 11465 N 1065.39 -1.45192 -2.51729 0
M  V30 11466 H 1064.94 -1.89773 -1.74195 0
M  V30 11467 H 1064.89 -0.766166 -3.04922 0
M  V30 11468 N 1068.67 0.153526 -1.5685 0
M  V30 11469 C 1069.91 0.867232 -1.8299 0
M  V30 11470 C 1070.24 1.81462 -0.700125 0
M  V30 11471 O 1069.5 1.93207 0.311348 0
M  V30 11472 C 1069.8 1.68066 -3.15418 0
M  V30 11473 C 1069.46 0.880635 -4.42217 0
M  V30 11474 C 1068.12 0.659899 -4.76654 0
M  V30 11475 C 1070.48 0.320698 -5.20212 0
M  V30 11476 C 1067.8 -0.131588 -5.86552 0
M  V30 11477 C 1070.16 -0.457794 -6.30941 0
M  V30 11478 C 1068.82 -0.689168 -6.63933 0
M  V30 11479 H 1068.09 0.317343 -0.669608 0
M  V30 11480 H 1070.74 0.131208 -1.9105 0
M  V30 11481 H 1069.04 2.4866 -3.02779 0
M  V30 11482 H 1070.74 2.23623 -3.32857 0
M  V30 11483 H 1067.33 1.06274 -4.15215 0
M  V30 11484 H 1071.51 0.47853 -4.93988 0
M  V30 11485 H 1066.77 -0.320413 -6.1056 0
M  V30 11486 H 1070.94 -0.898839 -6.90575 0
M  V30 11487 H 1068.57 -1.30433 -7.48927 0
M  V30 11488 N 1070.14 1.51827 0.422667 0
M  V30 11489 C 1071.09 1.74198 1.51406 0
M  V30 11490 C 1072.06 0.584013 1.55494 0
M  V30 11491 O 1073.25 0.820079 1.72277 0
M  V30 11492 C 1070.39 1.88627 2.88988 0
M  V30 11493 C 1069.5 3.16233 2.94314 0
M  V30 11494 C 1068.63 3.21172 4.2311 0
M  V30 11495 C 1067.67 4.43033 4.2236 0
M  V30 11496 N 1066.81 4.4544 5.42704 0
M  V30 11497 H 1071.65 2.67352 1.31632 0
M  V30 11498 H 1069.19 1.32487 0.63919 0
M  V30 11499 H 1071.15 1.94976 3.68837 0
M  V30 11500 H 1069.78 0.988673 3.07287 0
M  V30 11501 H 1068.83 3.19123 2.07039 0
M  V30 11502 H 1070.14 4.06104 2.89623 0
M  V30 11503 H 1069.29 3.26517 5.11343 0
M  V30 11504 H 1068.03 2.29216 4.30478 0
M  V30 11505 H 1067.04 4.37849 3.32518 0
M  V30 11506 H 1068.26 5.3627 4.16643 0
M  V30 11507 H 1066.21 3.56361 5.50766 0
M  V30 11508 H 1066.13 5.29138 5.39953 0
M  V30 11509 H 1067.39 4.54997 6.32928 0
M  V30 11510 N 1071.62 -0.679052 1.4222 0
M  V30 11511 C 1072.57 -1.79269 1.45366 0
M  V30 11512 C 1073.54 -1.63255 0.306089 0
M  V30 11513 O 1074.72 -1.8387 0.509548 0
M  V30 11514 C 1071.86 -3.17272 1.35766 0
M  V30 11515 C 1070.98 -3.44603 2.60525 0
M  V30 11516 C 1070.11 -4.7231 2.43098 0
M  V30 11517 C 1069.15 -4.92661 3.63251 0
M  V30 11518 N 1068.29 -6.11606 3.44794 0
M  V30 11519 H 1073.13 -1.75916 2.40536 0
M  V30 11520 H 1070.67 -0.858836 1.19425 0
M  V30 11521 H 1072.62 -3.97015 1.282 0
M  V30 11522 H 1071.25 -3.1976 0.441939 0
M  V30 11523 H 1070.31 -2.59144 2.78475 0
M  V30 11524 H 1071.62 -3.55536 3.49851 0
M  V30 11525 H 1070.77 -5.60136 2.33093 0
M  V30 11526 H 1069.51 -4.63652 1.51255 0
M  V30 11527 H 1068.52 -4.03278 3.73693 0
M  V30 11528 H 1069.74 -5.03167 4.5607 0
M  V30 11529 H 1067.69 -6.04129 2.55663 0
M  V30 11530 H 1067.6 -6.23381 4.27705 0
M  V30 11531 H 1068.87 -7.02122 3.38592 0
M  V30 11532 N 1073.1 -1.28322 -0.914942 0
M  V30 11533 C 1074.05 -1.12003 -2.03858 0
M  V30 11534 C 1075.04 -0.0396287 -1.69354 0
M  V30 11535 O 1076.25 -0.198309 -1.78904 0
M  V30 11536 H 1072.62 -0.34552 -0.667922 0
M  V30 11537 H 1074.59 -2.07168 -2.14765 0
M  V30 11538 C 1073.34 -0.797402 -3.38433 0
M  V30 11539 H 1072.67 -1.62071 -3.65476 0
M  V30 11540 H 1074.11 -0.723165 -4.17787 0
M  V30 11541 C 1072.57 0.498807 -3.33187 0
M  V30 11542 O 1073.1 1.52946 -3.71444 0
M  V30 11543 N 1071.3 0.499101 -2.86282 0
M  V30 11544 H 1070.85 -0.340056 -2.55346 0
M  V30 11545 H 1070.81 1.36641 -2.83155 0
M  V30 11546 N 1074.58 1.12322 -1.10551 0
M  V30 11547 C 1075.8 1.8822 -0.871093 0
M  V30 11548 C 1076.23 1.7916 0.573005 0
M  V30 11549 O 1075.59 1.14738 1.40374 0
M  V30 11550 C 1075.63 3.35349 -1.32565 0
M  V30 11551 O 1074.74 4.09461 -0.49145 0
M  V30 11552 H 1074.08 0.584787 -0.314516 0
M  V30 11553 H 1076.61 1.42039 -1.47262 0
M  V30 11554 H 1076.62 3.86189 -1.31612 0
M  V30 11555 H 1075.29 3.4126 -2.37728 0
M  V30 11556 H 1073.87 3.68575 -0.566294 0
M  V30 11557 N 1076.06 0.894434 1.2976 0
M  V30 11558 C 1077.3 0.517669 1.95771 0
M  V30 11559 C 1077.63 -0.935028 1.70551 0
M  V30 11560 O 1076.89 -1.67722 1.00835 0
M  V30 11561 C 1077.19 0.750307 3.49435 0
M  V30 11562 C 1076.85 2.17955 3.94723 0
M  V30 11563 C 1075.51 2.57036 4.068 0
M  V30 11564 C 1077.87 3.11053 4.18205 0
M  V30 11565 C 1075.19 3.88406 4.39724 0
M  V30 11566 C 1077.55 4.41966 4.52602 0
M  V30 11567 C 1076.21 4.80927 4.62888 0
M  V30 11568 H 1075.48 0.189428 0.716378 0
M  V30 11569 H 1078.13 1.13209 1.54454 0
M  V30 11570 H 1076.43 0.0529242 3.91764 0
M  V30 11571 H 1078.13 0.438251 3.98598 0
M  V30 11572 H 1074.72 1.86622 3.85837 0
M  V30 11573 H 1078.9 2.82076 4.08347 0
M  V30 11574 H 1074.16 4.18321 4.4589 0
M  V30 11575 H 1078.33 5.14134 4.69722 0
M  V30 11576 H 1075.96 5.82759 4.88156 0
M  V30 11577 N 1077.53 -1.43282 0.656365 0
M  V30 11578 C 1078.44 -2.34576 -0.033864 0
M  V30 11579 C 1079.46 -1.5406 -0.808793 0
M  V30 11580 O 1080.64 -1.867 -0.755322 0
M  V30 11581 C 1077.7 -3.32378 -0.986197 0
M  V30 11582 C 1076.76 -4.28797 -0.207851 0
M  V30 11583 C 1076 -5.21927 -1.11482 0
M  V30 11584 O 1076.22 -5.19554 -2.35414 0
M  V30 11585 O 1075.15 -5.99045 -0.585536 0
M  V30 11586 H 1078.98 -2.95099 0.717668 0
M  V30 11587 H 1076.56 -1.43475 0.416556 0
M  V30 11588 H 1078.45 -3.9251 -1.53341 0
M  V30 11589 H 1077.12 -2.74354 -1.7179 0
M  V30 11590 H 1076.03 -3.72134 0.383022 0
M  V30 11591 H 1077.36 -4.89811 0.48435 0
M  V30 11592 N 1079.01 -0.398486 -1.52479 0
M  V30 11593 C 1079.95 0.467426 -2.24383 0
M  V30 11594 C 1080.96 1.01908 -1.26959 0
M  V30 11595 O 1082.15 0.919843 -1.52974 0
M  V30 11596 C 1079.25 1.66146 -2.95379 0
M  V30 11597 C 1078.42 1.23557 -4.19586 0
M  V30 11598 C 1077.48 2.29532 -4.73499 0
M  V30 11599 O 1076.51 1.90561 -5.36354 0
M  V30 11600 N 1077.71 3.61564 -4.5415 0
M  V30 11601 H 1080.47 -0.148653 -2.99331 0
M  V30 11602 H 1078.03 -0.225313 -1.60325 0
M  V30 11603 H 1080.03 2.36585 -3.28344 0
M  V30 11604 H 1078.6 2.18369 -2.23682 0
M  V30 11605 H 1077.82 0.359715 -3.92555 0
M  V30 11606 H 1079.1 0.927812 -5.00269 0
M  V30 11607 H 1078.5 3.95983 -4.03998 0
M  V30 11608 H 1077.06 4.2801 -4.9158 0
M  V30 11609 N 1080.49 1.57075 -0.12858 0
M  V30 11610 C 1081.42 2.18833 0.814519 0
M  V30 11611 C 1082.4 1.13114 1.2704 0
M  V30 11612 O 1083.59 1.41387 1.33129 0
M  V30 11613 C 1080.72 2.79535 2.06101 0
M  V30 11614 C 1079.67 3.9092 1.74257 0
M  V30 11615 C 1079 4.38473 3.06015 0
M  V30 11616 C 1080.3 5.1257 1.00345 0
M  V30 11617 H 1081.99 2.97895 0.299862 0
M  V30 11618 H 1079.54 1.4329 0.14279 0
M  V30 11619 H 1081.49 3.21401 2.72543 0
M  V30 11620 H 1080.21 1.97777 2.59907 0
M  V30 11621 H 1078.87 3.49645 1.102 0
M  V30 11622 H 1078.52 3.53561 3.57776 0
M  V30 11623 H 1078.22 5.13591 2.85479 0
M  V30 11624 H 1079.75 4.82997 3.7356 0
M  V30 11625 H 1081.16 5.51395 1.56959 0
M  V30 11626 H 1079.56 5.93333 0.898693 0
M  V30 11627 H 1080.63 4.84899 -0.0081335 0
M  V30 11628 N 1081.97 -0.145205 1.5693 0
M  V30 11629 C 1083.21 -0.863709 1.85255 0
M  V30 11630 C 1083.57 -1.78266 0.713112 0
M  V30 11631 O 1084.77 -2.54075 0.877459 0
M  V30 11632 C 1083.05 -1.61628 3.18765 0
M  V30 11633 S 1084.6 -2.37996 3.68651 0
M  V30 11634 H 1081.42 -0.288792 0.649708 0
M  V30 11635 H 1084.02 -0.123603 1.95109 0
M  V30 11636 H 1082.73 -0.932688 3.99661 0
M  V30 11637 H 1082.26 -2.39726 3.11921 0
M  V30 11638 H 1084.27 -3.63223 3.38058 0
M  V30 11639 N 1083.45 -1.52049 -0.414609 0
M  V30 11640 C 1084.7 -1.65067 -1.15912 0
M  V30 11641 C 1085.01 -0.383969 -1.91794 0
M  V30 11642 O 1086.22 -0.393872 -2.68628 0
M  V30 11643 C 1084.67 -2.91611 -2.1093 0
M  V30 11644 C 1084.28 -4.25369 -1.4059 0
M  V30 11645 C 1086.02 -3.13992 -2.85674 0
M  V30 11646 C 1083.93 -5.43041 -2.34223 0
M  V30 11647 H 1082.86 -0.614884 -0.436387 0
M  V30 11648 H 1085.51 -1.78533 -0.424072 0
M  V30 11649 H 1083.89 -2.71831 -2.87965 0
M  V30 11650 H 1085.07 -4.55611 -0.689568 0
M  V30 11651 H 1083.38 -4.09047 -0.779088 0
M  V30 11652 H 1085.98 -3.99082 -3.55861 0
M  V30 11653 H 1086.32 -2.27998 -3.48314 0
M  V30 11654 H 1086.86 -3.34217 -2.1574 0
M  V30 11655 H 1083.59 -6.31364 -1.76238 0
M  V30 11656 H 1083.11 -5.17144 -3.03845 0
M  V30 11657 H 1084.79 -5.75901 -2.94868 0
M  V30 11658 N 1084.93 0.6715 -1.42579 0
M  V30 11659 C 1085.87 1.80623 -1.46554 0
M  V30 11660 C 1086.87 1.65934 -0.340932 0
M  V30 11661 O 1088.07 1.72502 -0.514098 0
M  V30 11662 H 1084.45 0.595619 -0.459067 0
M  V30 11663 H 1086.42 1.74388 -2.42139 0
M  V30 11664 C 1085.17 3.18794 -1.38801 0
M  V30 11665 H 1084.49 3.30725 -2.24635 0
M  V30 11666 H 1085.93 3.98201 -1.45645 0
M  V30 11667 C 1084.39 3.36742 -0.103219 0
M  V30 11668 O 1084.92 3.92761 0.842715 0
M  V30 11669 N 1083.13 2.90594 -0.0193034 0
M  V30 11670 H 1082.67 2.45192 -0.78986 0
M  V30 11671 H 1082.63 3.0298 0.839686 0
M  V30 11672 N 1086.4 1.28806 0.908124 0
M  V30 11673 C 1087.65 1.15663 1.65242 0
M  V30 11674 C 1087.97 -0.292883 1.93395 0
M  V30 11675 O 1089.17 -0.545509 2.65963 0
M  V30 11676 C 1087.63 2.02233 2.97707 0
M  V30 11677 C 1087.24 3.51958 2.77181 0
M  V30 11678 C 1088.98 1.97792 3.75604 0
M  V30 11679 C 1086.89 4.3066 4.05322 0
M  V30 11680 H 1085.82 0.42928 0.619867 0
M  V30 11681 H 1088.47 1.5338 1.00731 0
M  V30 11682 H 1086.85 1.57377 3.63385 0
M  V30 11683 H 1088.02 4.0481 2.20149 0
M  V30 11684 H 1086.34 3.57983 2.12691 0
M  V30 11685 H 1088.94 2.53858 4.70596 0
M  V30 11686 H 1089.28 0.955956 4.05175 0
M  V30 11687 H 1089.81 2.40648 3.16755 0
M  V30 11688 H 1086.55 5.3346 3.8092 0
M  V30 11689 H 1086.07 3.8258 4.61944 0
M  V30 11690 H 1087.75 4.40878 4.73535 0
M  V30 11691 N 1087.88 -1.11734 1.11145 0
M  V30 11692 C 1088.84 -2.15868 0.770303 0
M  V30 11693 C 1089.84 -1.59438 -0.208842 0
M  V30 11694 O 1091.03 -1.74193 0.0152516 0
M  V30 11695 C 1088.17 -3.40603 0.142303 0
M  V30 11696 H 1089.36 -2.4756 1.69276 0
M  V30 11697 H 1086.91 -1.26867 0.912929 0
M  V30 11698 H 1087.65 -3.14517 -0.790526 0
M  V30 11699 H 1087.43 -3.8284 0.847087 0
M  V30 11700 H 1088.92 -4.17523 -0.0803608 0
M  V30 11701 N 1089.36 -0.901303 -1.29284 0
M  V30 11702 C 1090.31 -0.370142 -2.29636 0
M  V30 11703 C 1091.3 0.53157 -1.60844 0
M  V30 11704 O 1092.51 0.414194 -1.7517 0
M  V30 11705 H 1088.88 -0.101072 -0.745177 0
M  V30 11706 H 1090.85 -1.22985 -2.71877 0
M  V30 11707 C 1089.6 0.385806 -3.45553 0
M  V30 11708 H 1088.93 -0.298818 -3.98682 0
M  V30 11709 H 1090.37 0.722299 -4.17802 0
M  V30 11710 C 1088.82 1.58907 -2.97069 0
M  V30 11711 O 1089.35 2.68835 -2.98481 0
M  V30 11712 N 1087.56 1.43178 -2.5288 0
M  V30 11713 H 1087.11 0.537467 -2.51931 0
M  V30 11714 H 1087.07 2.23819 -2.208 0
M  V30 11715 N 1090.84 1.42931 -0.663954 0
M  V30 11716 C 1091.75 2.3459 0.0214234 0
M  V30 11717 C 1092.76 1.54487 0.800611 0
M  V30 11718 O 1093.94 1.87098 0.74541 0
M  V30 11719 C 1091 3.32896 0.968556 0
M  V30 11720 C 1090.07 4.28901 0.185108 0
M  V30 11721 C 1089.3 5.2251 1.08713 0
M  V30 11722 O 1089.52 5.20795 2.32655 0
M  V30 11723 O 1088.46 5.99347 0.553758 0
M  V30 11724 H 1092.28 2.94714 -0.733308 0
M  V30 11725 H 1089.87 1.43252 -0.424159 0
M  V30 11726 H 1091.75 3.93318 1.51257 0
M  V30 11727 H 1090.42 2.75261 1.70333 0
M  V30 11728 H 1089.33 3.71926 -0.402752 0
M  V30 11729 H 1090.66 4.89547 -0.510319 0
M  V30 11730 N 1092.32 0.406567 1.52266 0
M  V30 11731 C 1093.25 -0.45552 2.24628 0
M  V30 11732 C 1094.26 -1.01234 1.27497 0
M  V30 11733 O 1095.45 -0.911718 1.5346 0
M  V30 11734 C 1092.55 -1.64578 2.96256 0
M  V30 11735 C 1091.72 -1.2133 4.20235 0
M  V30 11736 C 1090.78 -2.27018 4.7471 0
M  V30 11737 O 1089.81 -1.87714 5.37357 0
M  V30 11738 N 1091.01 -3.5915 4.56061 0
M  V30 11739 H 1093.77 0.164525 2.99248 0
M  V30 11740 H 1091.34 0.233812 1.60203 0
M  V30 11741 H 1093.33 -2.3484 3.29594 0
M  V30 11742 H 1091.9 -2.1718 2.24837 0
M  V30 11743 H 1091.12 -0.338892 3.92741 0
M  V30 11744 H 1092.41 -0.901268 5.00754 0
M  V30 11745 H 1091.8 -3.93834 4.06092 0
M  V30 11746 H 1090.36 -4.25397 4.93843 0
M  V30 11747 N 1093.79 -1.57004 0.136909 0
M  V30 11748 C 1095.04 -1.94972 -0.51662 0
M  V30 11749 C 1095.36 -1.02367 -1.66674 0
M  V30 11750 O 1096.56 -1.29873 -2.38423 0
M  V30 11751 C 1095.02 -3.4657 -0.970435 0
M  V30 11752 C 1094.63 -4.47741 0.152204 0
M  V30 11753 C 1096.37 -3.93423 -1.59432 0
M  V30 11754 C 1094.28 -5.90537 -0.319315 0
M  V30 11755 H 1093.21 -0.727873 -0.196766 0
M  V30 11756 H 1095.86 -1.82181 0.219637 0
M  V30 11757 H 1094.24 -3.54657 -1.76165 0
M  V30 11758 H 1095.41 -4.5134 0.928925 0
M  V30 11759 H 1093.73 -4.10746 0.683867 0
M  V30 11760 H 1096.33 -4.97539 -1.95856 0
M  V30 11761 H 1096.67 -3.34404 -2.47951 0
M  V30 11762 H 1097.2 -3.8821 -0.868193 0
M  V30 11763 H 1093.94 -6.53352 0.530248 0
M  V30 11764 H 1093.46 -5.90321 -1.06213 0
M  V30 11765 H 1095.14 -6.42346 -0.774662 0
M  V30 11766 N 1095.27 0.136881 -1.57004 0
M  V30 11767 C 1096.2 1.19402 -1.95642 0
M  V30 11768 C 1097.22 1.38635 -0.853478 0
M  V30 11769 O 1098.41 1.38027 -1.13185 0
M  V30 11770 C 1095.51 2.55716 -2.22402 0
M  V30 11771 C 1094.68 2.57325 -3.53698 0
M  V30 11772 C 1093.74 3.75253 -3.68879 0
M  V30 11773 O 1092.76 3.5966 -4.41173 0
M  V30 11774 N 1093.97 4.93112 -3.06302 0
M  V30 11775 H 1096.73 0.865504 -2.8693 0
M  V30 11776 H 1094.29 0.326346 -1.58577 0
M  V30 11777 H 1096.28 3.33135 -2.29789 0
M  V30 11778 H 1094.85 2.80819 -1.37329 0
M  V30 11779 H 1094.07 1.65749 -3.5766 0
M  V30 11780 H 1095.36 2.55441 -4.40031 0
M  V30 11781 H 1094.76 5.08684 -2.47502 0
M  V30 11782 H 1093.32 5.68271 -3.19236 0
M  V30 11783 N 1096.75 1.52266 0.40654 0
M  V30 11784 C 1097.98 1.70057 1.1732 0
M  V30 11785 C 1098.39 0.41084 1.84686 0
M  V30 11786 O 1097.73 -0.623187 1.72806 0
M  V30 11787 C 1097.79 2.78197 2.27698 0
M  V30 11788 C 1097.46 4.19866 1.80447 0
M  V30 11789 C 1098.45 5.03621 1.29082 0
M  V30 11790 C 1096.14 4.66112 1.87202 0
M  V30 11791 C 1098.13 6.31694 0.850973 0
M  V30 11792 C 1095.82 5.94174 1.42829 0
M  V30 11793 C 1096.82 6.76794 0.918621 0
M  V30 11794 O 1096.51 8.02458 0.481302 0
M  V30 11795 H 1096.24 0.573137 0.358455 0
M  V30 11796 H 1098.79 1.99615 0.484064 0
M  V30 11797 H 1097.02 2.44022 2.99983 0
M  V30 11798 H 1098.71 2.84562 2.89446 0
M  V30 11799 H 1099.48 4.69083 1.23234 0
M  V30 11800 H 1095.36 4.01905 2.25816 0
M  V30 11801 H 1098.9 6.96131 0.452471 0
M  V30 11802 H 1094.8 6.2822 1.48358 0
M  V30 11803 H 1095.57 8.16266 0.604376 0
M  V30 11804 N 1098.23 -0.663929 1.42933 0
M  V30 11805 C 1099.46 -1.44981 1.47187 0
M  V30 11806 C 1099.87 -1.89009 0.0850091 0
M  V30 11807 O 1099.21 -1.59413 -0.912855 0
M  V30 11808 C 1099.27 -2.72409 2.34592 0
M  V30 11809 C 1098.94 -2.5039 3.82301 0
M  V30 11810 C 1099.93 -2.14295 4.73681 0
M  V30 11811 C 1097.62 -2.65047 4.2668 0
M  V30 11812 C 1099.61 -1.93139 6.07434 0
M  V30 11813 C 1097.3 -2.43506 5.60489 0
M  V30 11814 C 1098.3 -2.07607 6.50683 0
M  V30 11815 O 1097.98 -1.86284 7.82019 0
M  V30 11816 H 1097.72 -0.452238 0.502451 0
M  V30 11817 H 1100.27 -0.822228 1.88225 0
M  V30 11818 H 1098.5 -3.37689 1.88422 0
M  V30 11819 H 1100.19 -3.34327 2.30174 0
M  V30 11820 H 1100.96 -2.02557 4.40676 0
M  V30 11821 H 1096.83 -2.91966 3.56759 0
M  V30 11822 H 1100.38 -1.65042 6.77796 0
M  V30 11823 H 1096.28 -2.54844 5.93064 0
M  V30 11824 H 1097.04 -2.00795 7.93488 0
M  V30 11825 N 1099.71 -1.29285 -0.901281 0
M  V30 11826 C 1100.94 -1.19874 -1.68267 0
M  V30 11827 C 1101.34 0.243387 -1.87628 0
M  V30 11828 O 1100.69 1.17497 -1.41209 0
M  V30 11829 C 1100.75 -1.83907 -3.08899 0
M  V30 11830 C 1100.41 -3.33198 -3.12775 0
M  V30 11831 C 1101.41 -4.29446 -2.9304 0
M  V30 11832 C 1099.1 -3.7437 -3.34892 0
M  V30 11833 C 1101.09 -5.64842 -2.95352 0
M  V30 11834 C 1098.78 -5.09888 -3.36834 0
M  V30 11835 C 1099.77 -6.04934 -3.17087 0
M  V30 11836 O 1099.46 -7.37979 -3.18815 0
M  V30 11837 H 1099.19 -0.416601 -0.532372 0
M  V30 11838 H 1101.75 -1.71154 -1.13558 0
M  V30 11839 H 1099.98 -1.27136 -3.65203 0
M  V30 11840 H 1101.67 -1.6884 -3.69118 0
M  V30 11841 H 1102.43 -3.9897 -2.75767 0
M  V30 11842 H 1098.31 -3.00846 -3.49303 0
M  V30 11843 H 1101.86 -6.39004 -2.79856 0
M  V30 11844 H 1097.75 -5.40009 -3.53638 0
M  V30 11845 H 1098.52 -7.46763 -3.35092 0
M  V30 11846 N 1101.18 1.11143 -1.11736 0
M  V30 11847 C 1102.13 2.19358 -0.773626 0
M  V30 11848 C 1103.13 1.67744 0.236288 0
M  V30 11849 O 1104.33 1.79748 0.09525 0
M  V30 11850 H 1100.71 0.715218 -0.232309 0
M  V30 11851 H 1102.68 2.45594 -1.69487 0
M  V30 11852 C 1101.43 3.46895 -0.236457 0
M  V30 11853 H 1100.75 3.86967 -1.00483 0
M  V30 11854 H 1102.19 4.23986 -0.034168 0
M  V30 11855 C 1100.65 3.20641 1.03397 0
M  V30 11856 O 1101.18 3.41629 2.11312 0
M  V30 11857 N 1099.39 2.74356 0.957986 0
M  V30 11858 H 1098.93 2.57477 0.0796924 0
M  V30 11859 H 1098.89 2.57166 1.80867 0
M  V30 11860 N 1102.66 0.908147 1.28804 0
M  V30 11861 C 1103.59 0.34957 2.26519 0
M  V30 11862 C 1104.61 -0.508845 1.54643 0
M  V30 11863 O 1105.8 -0.324633 1.75523 0
M  V30 11864 C 1102.9 -0.519461 3.34895 0
M  V30 11865 C 1102.07 0.315157 4.36263 0
M  V30 11866 C 1101.13 -0.488059 5.23932 0
M  V30 11867 O 1100.15 0.0974133 5.69117 0
M  V30 11868 N 1101.36 -1.79233 5.52137 0
M  V30 11869 H 1104.12 1.18945 2.75086 0
M  V30 11870 H 1101.68 0.77351 1.42227 0
M  V30 11871 H 1103.67 -1.0634 3.90479 0
M  V30 11872 H 1102.24 -1.26004 2.8608 0
M  V30 11873 H 1101.46 1.04049 3.8022 0
M  V30 11874 H 1102.75 0.886438 5.01019 0
M  V30 11875 H 1102.15 -2.2906 5.1725 0
M  V30 11876 H 1100.71 -2.28322 6.10502 0
M  V30 11877 N 1104.14 -1.42577 0.671525 0
M  V30 11878 C 1105.09 -2.27978 -0.0315286 0
M  V30 11879 C 1106.07 -1.40907 -0.776796 0
M  V30 11880 O 1107.27 -1.64385 -0.656248 0
M  V30 11881 C 1104.4 -3.28884 -0.9844 0
M  V30 11882 C 1103.48 -4.23439 -0.236647 0
M  V30 11883 N 1103.87 -5.00107 0.756714 0
M  V30 11884 C 1102.17 -4.43457 -0.475551 0
M  V30 11885 C 1102.87 -5.69141 1.20221 0
M  V30 11886 N 1101.85 -5.40983 0.532802 0
M  V30 11887 H 1105.65 -2.84678 0.730455 0
M  V30 11888 H 1103.16 -1.54501 0.500317 0
M  V30 11889 H 1105.16 -3.88864 -1.50302 0
M  V30 11890 H 1103.82 -2.73745 -1.74625 0
M  V30 11891 H 1104.83 -5.05285 1.13613 0
M  V30 11892 H 1101.51 -3.99364 -1.21715 0
M  V30 11893 H 1102.9 -6.40653 2.02517 0
M  V30 11894 N 1105.62 -0.414636 -1.52048 0
M  V30 11895 C 1106.86 0.159585 -2.02171 0
M  V30 11896 C 1107.2 1.44321 -1.29943 0
M  V30 11897 O 1106.47 1.90185 -0.407402 0
M  V30 11898 C 1106.76 0.401655 -3.57853 0
M  V30 11899 C 1106.61 -0.899026 -4.40724 0
M  V30 11900 C 1107.93 1.1814 -4.23947 0
M  V30 11901 H 1105.05 0.0565257 -0.734829 0
M  V30 11902 H 1107.69 -0.549183 -1.8189 0
M  V30 11903 H 1105.84 1.00541 -3.75265 0
M  V30 11904 H 1107.51 -1.53502 -4.35011 0
M  V30 11905 H 1105.75 -1.50877 -4.06717 0
M  V30 11906 H 1106.42 -0.683974 -5.47746 0
M  V30 11907 H 1108.9 0.670203 -4.10667 0
M  V30 11908 H 1107.78 1.31953 -5.32804 0
M  V30 11909 H 1108.04 2.2035 -3.83273 0
M  V30 11910 N 1107.1 1.56929 -0.145233 0
M  V30 11911 C 1108.34 1.96068 0.50632 0
M  V30 11912 C 1108.67 1.02999 1.64989 0
M  V30 11913 O 1107.93 0.0588581 1.95611 0
M  V30 11914 C 1108.23 3.41467 1.05522 0
M  V30 11915 C 1107.89 4.5089 0.0302827 0
M  V30 11916 C 1106.55 4.80542 -0.251475 0
M  V30 11917 C 1108.91 5.16917 -0.666783 0
M  V30 11918 C 1106.23 5.7353 -1.23614 0
M  V30 11919 C 1108.59 6.10965 -1.64025 0
M  V30 11920 C 1107.25 6.38998 -1.92973 0
M  V30 11921 H 1106.52 0.717464 0.185276 0
M  V30 11922 H 1109.17 1.90093 -0.23169 0
M  V30 11923 H 1107.47 3.44265 1.87053 0
M  V30 11924 H 1109.17 3.69077 1.5679 0
M  V30 11925 H 1105.76 4.2781 0.260069 0
M  V30 11926 H 1109.94 4.94142 -0.462297 0
M  V30 11927 H 1105.2 5.93543 -1.46687 0
M  V30 11928 H 1109.37 6.61204 -2.18591 0
M  V30 11929 H 1107 7.10855 -2.69423 0
M  V30 11930 N 1108.58 -0.128553 1.57075 0
M  V30 11931 C 1109.54 -1.14215 1.98715 0
M  V30 11932 C 1110.54 -1.34843 0.876019 0
M  V30 11933 O 1111.73 -1.31522 1.14227 0
M  V30 11934 C 1108.86 -2.49865 2.31905 0
M  V30 11935 H 1110.05 -0.784481 2.89458 0
M  V30 11936 H 1107.61 -0.372531 1.51796 0
M  V30 11937 H 1108.34 -2.9057 1.44012 0
M  V30 11938 H 1108.13 -2.3625 3.12935 0
M  V30 11939 H 1109.62 -3.22832 2.64895 0
M  V30 11940 N 1110.05 -1.5248 -0.398459 0
M  V30 11941 C 1111.3 -1.68262 -1.14277 0
M  V30 11942 C 1111.65 -0.412722 -1.87921 0
M  V30 11943 O 1110.95 0.593257 -1.82184 0
M  V30 11944 C 1111.14 -2.85038 -2.15611 0
M  V30 11945 C 1110.97 -4.23262 -1.51919 0
M  V30 11946 C 1109.74 -4.88627 -1.28732 0
M  V30 11947 C 1111.94 -5.04986 -0.974349 0
M  V30 11948 N 1109.92 -6.10857 -0.610455 0
M  V30 11949 C 1111.29 -6.18542 -0.425008 0
M  V30 11950 C 1113.35 -4.90243 -0.869843 0
M  V30 11951 C 1112.05 -7.18968 0.218609 0
M  V30 11952 C 1114.08 -5.90913 -0.240063 0
M  V30 11953 C 1113.44 -7.03767 0.298552 0
M  V30 11954 H 1109.54 -0.669275 -0.404469 0
M  V30 11955 H 1112.12 -1.8981 -0.433635 0
M  V30 11956 H 1110.29 -2.65087 -2.83872 0
M  V30 11957 H 1112.02 -2.89804 -2.82481 0
M  V30 11958 H 1108.78 -4.47179 -1.55975 0
M  V30 11959 H 1109.2 -6.76386 -0.288338 0
M  V30 11960 H 1113.84 -4.0321 -1.27207 0
M  V30 11961 H 1111.56 -8.05618 0.632874 0
M  V30 11962 H 1115.15 -5.81578 -0.160576 0
M  V30 11963 H 1114.03 -7.80329 0.778185 0
M  V30 11964 N 1111.53 0.65634 -1.43283 0
M  V30 11965 C 1112.44 1.79847 -1.50639 0
M  V30 11966 C 1113.46 1.69487 -0.393714 0
M  V30 11967 O 1114.63 1.90712 -0.647379 0
M  V30 11968 C 1111.7 3.16107 -1.42398 0
M  V30 11969 C 1110.76 3.38287 -2.64312 0
M  V30 11970 C 1109.99 4.68046 -2.56454 0
M  V30 11971 O 1110.22 5.4719 -1.61056 0
M  V30 11972 O 1109.15 4.91877 -3.46902 0
M  V30 11973 H 1112.98 1.76596 -2.47078 0
M  V30 11974 H 1110.56 0.814428 -1.25249 0
M  V30 11975 H 1112.44 3.97382 -1.40233 0
M  V30 11976 H 1111.12 3.19956 -0.490929 0
M  V30 11977 H 1110.02 2.56788 -2.72049 0
M  V30 11978 H 1111.36 3.39282 -3.56579 0
M  V30 11979 N 1113.01 1.29761 0.894412 0
M  V30 11980 C 1113.94 1.1115 2.00445 0
M  V30 11981 C 1114.95 0.0574655 1.62699 0
M  V30 11982 O 1116.14 0.302528 1.75918 0
M  V30 11983 C 1113.24 0.670984 3.32191 0
M  V30 11984 C 1112.42 1.80471 3.98433 0
M  V30 11985 C 1111.48 1.35431 5.08473 0
M  V30 11986 O 1110.5 2.05994 5.30618 0
M  V30 11987 N 1111.7 0.22811 5.80052 0
M  V30 11988 H 1114.47 2.06753 2.16964 0
M  V30 11989 H 1112.03 1.21772 1.06692 0
M  V30 11990 H 1114.02 0.352877 4.03159 0
M  V30 11991 H 1112.59 -0.192735 3.12005 0
M  V30 11992 H 1111.81 2.29142 3.20761 0
M  V30 11993 H 1113.1 2.56471 4.39431 0
M  V30 11994 H 1112.5 -0.360076 5.64553 0
M  V30 11995 H 1111.05 -0.0305985 6.51793 0
M  V30 11996 N 1114.49 -1.10549 1.12324 0
M  V30 11997 C 1115.44 -2.18944 0.785248 0
M  V30 11998 C 1116.43 -1.67867 -0.227389 0
M  V30 11999 O 1117.64 -1.79796 -0.0857162 0
M  V30 12000 H 1114.01 -0.713976 0.236098 0
M  V30 12001 H 1115.98 -2.44692 1.70788 0
M  V30 12002 C 1114.73 -3.46765 0.25485 0
M  V30 12003 H 1114.05 -3.86428 1.02534 0
M  V30 12004 H 1115.49 -4.23962 0.0566526 0
M  V30 12005 C 1113.95 -3.21185 -1.01695 0
M  V30 12006 O 1114.48 -3.42745 -2.09497 0
M  V30 12007 N 1112.69 -2.7486 -0.943423 0
M  V30 12008 H 1112.24 -2.57515 -0.0660366 0
M  V30 12009 H 1112.19 -2.58122 -1.795 0
M  V30 12010 N 1115.97 -0.914965 -1.28321 0
M  V30 12011 C 1116.88 -0.409424 -2.31 0
M  V30 12012 C 1117.89 0.503526 -1.66555 0
M  V30 12013 O 1119.07 0.38942 -1.97599 0
M  V30 12014 C 1116.13 0.34123 -3.45017 0
M  V30 12015 C 1115.19 -0.605087 -4.25014 0
M  V30 12016 C 1114.43 0.109837 -5.33587 0
M  V30 12017 O 1114.65 1.33136 -5.54645 0
M  V30 12018 O 1113.58 -0.555474 -5.99331 0
M  V30 12019 H 1117.41 -1.26167 -2.76253 0
M  V30 12020 H 1114.99 -0.679831 -1.33036 0
M  V30 12021 H 1116.88 0.765132 -4.14396 0
M  V30 12022 H 1115.55 1.16929 -3.01843 0
M  V30 12023 H 1114.46 -1.07841 -3.58219 0
M  V30 12024 H 1115.79 -1.39999 -4.7187 0
M  V30 12025 N 1117.44 1.42219 -0.679077 0
M  V30 12026 C 1118.67 2.05516 -0.211342 0
M  V30 12027 C 1119.08 1.5113 1.13826 0
M  V30 12028 O 1118.42 0.647593 1.71907 0
M  V30 12029 C 1118.49 3.59425 -0.0736007 0
M  V30 12030 C 1118.15 4.36525 -1.3526 0
M  V30 12031 C 1119.15 4.66897 -2.28698 0
M  V30 12032 C 1116.83 4.76089 -1.60139 0
M  V30 12033 C 1118.83 5.35775 -3.45288 0
M  V30 12034 C 1116.51 5.44706 -2.77017 0
M  V30 12035 C 1117.51 5.74474 -3.69416 0
M  V30 12036 O 1117.2 6.41683 -4.8425 0
M  V30 12037 H 1116.93 0.668662 -0.0993318 0
M  V30 12038 H 1119.49 1.8327 -0.927434 0
M  V30 12039 H 1117.72 3.80346 0.69811 0
M  V30 12040 H 1119.4 4.04346 0.354813 0
M  V30 12041 H 1120.17 4.36828 -2.10729 0
M  V30 12042 H 1116.05 4.5231 -0.890887 0
M  V30 12043 H 1119.59 5.58927 -4.17428 0
M  V30 12044 H 1115.49 5.74194 -2.9491 0
M  V30 12045 H 1116.26 6.60175 -4.8385 0
M  V30 12046 N 1118.92 0.422693 1.51826 0
M  V30 12047 C 1119.85 -0.386913 2.30272 0
M  V30 12048 C 1120.83 -1.03411 1.35056 0
M  V30 12049 O 1122.02 -1.04055 1.6397 0
M  V30 12050 C 1119.15 -1.49645 3.13407 0
M  V30 12051 C 1118.1 -0.973532 4.16781 0
M  V30 12052 C 1117.43 -2.1777 4.88344 0
M  V30 12053 C 1118.73 -0.0181194 5.22297 0
M  V30 12054 H 1120.42 0.267697 2.98201 0
M  V30 12055 H 1117.97 0.130186 1.4341 0
M  V30 12056 H 1119.92 -2.06993 3.67059 0
M  V30 12057 H 1118.64 -2.17914 2.43272 0
M  V30 12058 H 1117.3 -0.42237 3.64159 0
M  V30 12059 H 1116.95 -2.84625 4.14726 0
M  V30 12060 H 1116.65 -1.83427 5.58237 0
M  V30 12061 H 1118.18 -2.75699 5.44814 0
M  V30 12062 H 1119.59 -0.500822 5.71108 0
M  V30 12063 H 1117.99 0.237163 5.99631 0
M  V30 12064 H 1119.06 0.923065 4.76033 0
M  V30 12065 N 1120.4 -1.5685 0.153553 0
M  V30 12066 C 1121.35 -2.18385 -0.800667 0
M  V30 12067 C 1122.34 -1.14272 -1.25053 0
M  V30 12068 O 1123.55 -1.32509 -1.21825 0
M  V30 12069 H 1119.92 -0.699352 -0.276425 0
M  V30 12070 H 1121.89 -2.97287 -0.257535 0
M  V30 12071 C 1120.64 -2.82497 -2.02708 0
M  V30 12072 H 1119.97 -3.62328 -1.68992 0
M  V30 12073 H 1121.41 -3.29047 -2.67403 0
M  V30 12074 C 1119.86 -1.81343 -2.8393 0
M  V30 12075 O 1120.39 -1.28793 -3.80493 0
M  V30 12076 N 1118.6 -1.50499 -2.48593 0
M  V30 12077 H 1118.15 -1.93425 -1.70131 0
M  V30 12078 H 1118.11 -0.830672 -3.03228 0
M  V30 12079 N 1121.88 0.120221 -1.57141 0
M  V30 12080 C 1122.79 1.16641 -2.03549 0
M  V30 12081 C 1123.8 1.45407 -0.955656 0
M  V30 12082 O 1124.98 1.56547 -1.26708 0
M  V30 12083 C 1122.04 2.4734 -2.42948 0
M  V30 12084 C 1121.11 2.25982 -3.65008 0
M  V30 12085 C 1120.34 3.50449 -4.02518 0
M  V30 12086 O 1120.56 4.57706 -3.40384 0
M  V30 12087 O 1119.5 3.41524 -4.95626 0
M  V30 12088 H 1123.32 0.802323 -2.9291 0
M  V30 12089 H 1120.91 0.330927 -1.45689 0
M  V30 12090 H 1122.79 3.24348 -2.69029 0
M  V30 12091 H 1121.46 2.83225 -1.56733 0
M  V30 12092 H 1120.37 1.46837 -3.44078 0
M  V30 12093 H 1121.7 1.95002 -4.51924 0
M  V30 12094 N 1123.36 1.52689 0.390367 0
M  V30 12095 C 1124.63 1.58246 1.14968 0
M  V30 12096 C 1125.01 0.374808 2.07746 0
M  V30 12097 O 1124.36 -0.636969 2.19442 0
M  V30 12098 C 1124.57 2.92059 1.91056 0
M  V30 12099 C 1125.92 3.45745 2.46466 0
M  V30 12100 O 1126.94 2.93924 2.01214 0
M  V30 12101 O 1125.8 4.3628 3.29122 0
M  V30 12102 H 1122.9 0.638189 0.52597 0
M  V30 12103 H 1125.44 1.65024 0.39563 0
M  V30 12104 H 1124.21 3.71399 1.23201 0
M  V30 12105 H 1123.84 2.8866 2.73425 0
M  V30 12106 N 1124.83 -0.648732 1.43629 0
M  V30 12107 C 1126.08 -1.41066 1.45699 0
M  V30 12108 C 1126.41 -1.94024 0.082612 0
M  V30 12109 O 1125.69 -1.7257 -0.897207 0
M  V30 12110 C 1125.97 -2.58882 2.50304 0
M  V30 12111 C 1125.82 -2.11387 3.97033 0
M  V30 12112 C 1127.14 -3.61092 2.51597 0
M  V30 12113 H 1124.26 -0.511591 0.530512 0
M  V30 12114 H 1126.9 -0.735069 1.75205 0
M  V30 12115 H 1125.05 -3.16518 2.25274 0
M  V30 12116 H 1126.73 -1.58718 4.33136 0
M  V30 12117 H 1124.97 -1.4272 4.0965 0
M  V30 12118 H 1125.64 -2.96129 4.65845 0
M  V30 12119 H 1128.12 -3.13223 2.73917 0
M  V30 12120 H 1126.99 -4.41071 3.26722 0
M  V30 12121 H 1127.25 -4.13985 1.55141 0
M  V30 12122 N 1126.31 -1.30234 -0.887518 0
M  V30 12123 C 1127.59 -1.09572 -1.62029 0
M  V30 12124 C 1127.97 0.355877 -2.08079 0
M  V30 12125 O 1127.32 1.34692 -1.84582 0
M  V30 12126 C 1127.53 -2.0943 -2.79177 0
M  V30 12127 C 1128.88 -2.4101 -3.4957 0
M  V30 12128 O 1129.9 -2.0772 -2.89363 0
M  V30 12129 O 1128.76 -2.97943 -4.5814 0
M  V30 12130 H 1125.85 -0.420648 -0.712028 0
M  V30 12131 H 1128.4 -1.41651 -0.934517 0
M  V30 12132 H 1127.17 -3.07149 -2.42436 0
M  V30 12133 H 1126.79 -1.78154 -3.55453 0
M  V30 12134 N 1127.79 1.09952 -1.12909 0
M  V30 12135 C 1128.75 2.14615 -0.804548 0
M  V30 12136 C 1129.75 1.5975 0.18345 0
M  V30 12137 O 1130.94 1.74147 -0.0429623 0
M  V30 12138 C 1128.08 3.40333 -0.196471 0
M  V30 12139 H 1129.27 2.44835 -1.73193 0
M  V30 12140 H 1126.82 1.25399 -0.932997 0
M  V30 12141 H 1127.56 3.15735 0.740388 0
M  V30 12142 H 1127.34 3.81444 -0.907886 0
M  V30 12143 H 1128.83 4.17598 0.0139264 0
M  V30 12144 N 1129.27 0.921757 1.27833 0
M  V30 12145 C 1130.68 0.621102 1.47019 0
M  V30 12146 C 1130.88 -0.831338 1.83551 0
M  V30 12147 O 1129.94 -1.60974 1.94534 0
M  V30 12148 C 1131.25 1.56588 2.56712 0
M  V30 12149 C 1132.8 1.57346 2.70576 0
M  V30 12150 C 1133.28 2.50505 3.8342 0
M  V30 12151 N 1134.77 2.48678 3.90786 0
M  V30 12152 C 1135.5 3.17454 4.77505 0
M  V30 12153 N 1135 3.95588 5.68755 0
M  V30 12154 N 1136.79 3.06501 4.71183 0
M  V30 12155 H 1128.94 1.86085 1.02403 0
M  V30 12156 H 1131.21 0.798595 0.510833 0
M  V30 12157 H 1130.91 2.60175 2.36647 0
M  V30 12158 H 1130.79 1.30305 3.53978 0
M  V30 12159 H 1133.17 0.544919 2.90025 0
M  V30 12160 H 1133.25 1.87675 1.73815 0
M  V30 12161 H 1132.9 3.53466 3.64725 0
M  V30 12162 H 1132.83 2.17474 4.79596 0
M  V30 12163 H 1135.32 1.91928 3.25534 0
M  V30 12164 H 1135.63 4.45066 6.31772 0
M  V30 12165 H 1133.98 3.99692 5.6857 0
M  V30 12166 H 1137.17 2.44958 3.9889 0
M  V30 12167 H 1137.34 3.60372 5.3855 0
M  V30 12168 N 1130.75 -1.41857 0.686609 0
M  V30 12169 C 1131.99 -2.01666 0.214118 0
M  V30 12170 C 1132.33 -1.5422 -1.18025 0
M  V30 12171 O 1131.6 -0.749482 -1.7948 0
M  V30 12172 C 1131.88 -3.59147 0.261841 0
M  V30 12173 C 1131.74 -4.16742 1.69251 0
M  V30 12174 C 1133.06 -4.38427 -0.383378 0
M  V30 12175 H 1130.17 -0.732724 0.0792785 0
M  V30 12176 H 1132.82 -1.68724 0.873633 0
M  V30 12177 H 1130.97 -3.87342 -0.29971 0
M  V30 12178 H 1132.64 -3.99456 2.30722 0
M  V30 12179 H 1130.88 -3.72124 2.2295 0
M  V30 12180 H 1131.55 -5.25894 1.6775 0
M  V30 12181 H 1134.03 -4.15992 0.0947701 0
M  V30 12182 H 1132.9 -5.4797 -0.319401 0
M  V30 12183 H 1133.17 -4.172 -1.46276 0
M  V30 12184 N 1132.22 -0.430739 -1.51599 0
M  V30 12185 C 1133.47 0.139396 -2.01218 0
M  V30 12186 C 1133.79 1.44361 -1.31982 0
M  V30 12187 O 1134.99 2.0963 -1.72533 0
M  V30 12188 C 1133.45 0.298969 -3.58656 0
M  V30 12189 C 1133.06 -0.994424 -4.36824 0
M  V30 12190 C 1134.8 0.82323 -4.16441 0
M  V30 12191 C 1132.71 -0.800855 -5.85952 0
M  V30 12192 H 1131.64 0.0558698 -0.751927 0
M  V30 12193 H 1134.29 -0.559493 -1.74762 0
M  V30 12194 H 1132.67 1.06071 -3.8153 0
M  V30 12195 H 1133.84 -1.76398 -4.257 0
M  V30 12196 H 1132.16 -1.44672 -3.9046 0
M  V30 12197 H 1134.76 0.984434 -5.2556 0
M  V30 12198 H 1135.1 1.80388 -3.75188 0
M  V30 12199 H 1135.63 0.119982 -3.97619 0
M  V30 12200 H 1132.37 -1.75369 -6.31606 0
M  V30 12201 H 1131.89 -0.0709793 -5.99758 0
M  V30 12202 H 1133.57 -0.451459 -6.45423 0
M  V30 12203 N 1133.7 1.56767 -0.161869 0
M  V30 12204 C 1134.61 2.21083 0.784814 0
M  V30 12205 C 1135.63 1.19959 1.26039 0
M  V30 12206 O 1136.8 1.52588 1.31449 0
M  V30 12207 C 1133.87 2.83153 2.00063 0
M  V30 12208 C 1132.93 3.9945 1.57285 0
M  V30 12209 C 1132.16 4.5855 2.7307 0
M  V30 12210 O 1132.39 4.16534 3.89686 0
M  V30 12211 O 1131.32 5.48575 2.47688 0
M  V30 12212 H 1135.15 3.02522 0.267243 0
M  V30 12213 H 1132.73 1.49255 0.0658783 0
M  V30 12214 H 1134.61 3.22546 2.71186 0
M  V30 12215 H 1133.29 2.04718 2.50744 0
M  V30 12216 H 1132.2 3.64745 0.831393 0
M  V30 12217 H 1133.53 4.7945 1.11304 0
M  V30 12218 N 1135.18 -0.111886 1.57202 0
M  V30 12219 C 1136.41 -0.8312 1.89142 0
M  V30 12220 C 1136.82 -1.73614 0.751987 0
M  V30 12221 O 1136.16 -1.81462 -0.285877 0
M  V30 12222 C 1136.22 -1.71107 3.16169 0
M  V30 12223 C 1135.89 -0.9797 4.46375 0
M  V30 12224 C 1136.88 -0.317219 5.18931 0
M  V30 12225 C 1134.57 -0.958764 4.93065 0
M  V30 12226 C 1136.56 0.356419 6.36403 0
M  V30 12227 C 1134.25 -0.281332 6.10452 0
M  V30 12228 C 1135.25 0.375098 6.81969 0
M  V30 12229 O 1134.94 1.0417 7.97122 0
M  V30 12230 H 1134.67 -0.243855 0.630484 0
M  V30 12231 H 1137.22 -0.0986634 2.05163 0
M  V30 12232 H 1135.45 -2.48543 2.96249 0
M  V30 12233 H 1137.14 -2.30544 3.34072 0
M  V30 12234 H 1137.91 -0.324965 4.8391 0
M  V30 12235 H 1133.79 -1.45913 4.37299 0
M  V30 12236 H 1137.33 0.869362 6.92162 0
M  V30 12237 H 1133.23 -0.271374 6.44929 0
M  V30 12238 H 1134 0.946899 8.13004 0
M  V30 12239 N 1136.66 -1.52894 -0.382264 0
M  V30 12240 C 1137.57 -1.81084 -1.4915 0
M  V30 12241 C 1138.58 -0.698045 -1.59384 0
M  V30 12242 O 1139.76 -0.98635 -1.75594 0
M  V30 12243 C 1136.83 -1.97987 -2.84608 0
M  V30 12244 C 1135.89 -3.219 -2.8404 0
M  V30 12245 C 1135.12 -3.37988 -4.13037 0
M  V30 12246 O 1135.34 -2.58733 -5.08344 0
M  V30 12247 O 1134.28 -4.31273 -4.19866 0
M  V30 12248 H 1138.1 -2.75289 -1.28257 0
M  V30 12249 H 1135.69 -1.38068 -0.57076 0
M  V30 12250 H 1137.57 -2.10773 -3.64901 0
M  V30 12251 H 1136.24 -1.06972 -3.05514 0
M  V30 12252 H 1135.15 -3.14551 -2.02505 0
M  V30 12253 H 1136.48 -4.12783 -2.68087 0
M  V30 12254 N 1138.14 0.641106 -1.43971 0
M  V30 12255 C 1139.41 1.39897 -1.36704 0
M  V30 12256 C 1139.79 2.1109 -0.0208051 0
M  V30 12257 O 1139.14 2.05638 0.99625 0
M  V30 12258 C 1139.35 2.37366 -2.55849 0
M  V30 12259 C 1140.7 3.01 -2.99473 0
M  V30 12260 O 1141.72 2.47692 -2.55982 0
M  V30 12261 O 1140.58 3.9768 -3.74851 0
M  V30 12262 H 1137.68 0.625623 -0.540855 0
M  V30 12263 H 1140.22 0.666997 -1.56042 0
M  V30 12264 H 1139 1.8379 -3.45452 0
M  V30 12265 H 1138.62 3.17995 -2.38673 0
M  V30 12266 N 1139.62 1.30703 0.880598 0
M  V30 12267 C 1140.56 1.17369 2.00817 0
M  V30 12268 C 1141.56 0.0845159 1.69189 0
M  V30 12269 O 1142.76 0.245673 1.78316 0
M  V30 12270 H 1139.14 0.363107 0.658527 0
M  V30 12271 H 1141.11 2.12789 2.09197 0
M  V30 12272 C 1139.86 0.886851 3.362 0
M  V30 12273 H 1139.18 1.71704 3.61051 0
M  V30 12274 H 1140.62 0.83368 4.15723 0
M  V30 12275 C 1139.08 -0.410293 3.34392 0
M  V30 12276 O 1139.61 -1.43044 3.75368 0
M  V30 12277 N 1137.82 -0.423023 2.87505 0
M  V30 12278 H 1137.36 0.407637 2.54354 0
M  V30 12279 H 1137.32 -1.29086 2.86678 0
M  V30 12280 N 1141.09 -1.09351 1.1349 0
M  V30 12281 C 1142.34 -1.81988 0.908397 0
M  V30 12282 C 1142.69 -1.84087 -0.559442 0
M  V30 12283 O 1141.99 -1.29866 -1.40873 0
M  V30 12284 C 1142.18 -3.27498 1.43108 0
M  V30 12285 C 1142.01 -3.39575 2.9482 0
M  V30 12286 C 1140.78 -3.51332 3.63172 0
M  V30 12287 C 1142.98 -3.3204 3.92752 0
M  V30 12288 N 1140.96 -3.521 5.02891 0
M  V30 12289 C 1142.33 -3.39686 5.18665 0
M  V30 12290 C 1144.39 -3.15712 3.85007 0
M  V30 12291 C 1143.09 -3.32686 6.3774 0
M  V30 12292 C 1145.12 -3.10038 5.03617 0
M  V30 12293 C 1144.48 -3.18277 6.28394 0
M  V30 12294 H 1140.58 -0.680196 0.385821 0
M  V30 12295 H 1143.16 -1.30683 1.44326 0
M  V30 12296 H 1141.33 -3.77271 0.923118 0
M  V30 12297 H 1143.06 -3.8815 1.14549 0
M  V30 12298 H 1139.82 -3.54813 3.13695 0
M  V30 12299 H 1140.24 -3.56066 5.758 0
M  V30 12300 H 1144.88 -3.08212 2.89422 0
M  V30 12301 H 1142.6 -3.38949 7.3358 0
M  V30 12302 H 1146.19 -2.98539 4.99365 0
M  V30 12303 H 1145.07 -3.13904 7.18634 0
M  V30 12304 N 1142.57 -0.928524 -1.27343 0
M  V30 12305 C 1143.98 -0.613856 -1.7632 0
M  V30 12306 C 1144.33 0.870983 -1.75808 0
M  V30 12307 O 1143.46 1.68155 -1.36209 0
M  V30 12308 C 1144.05 -1.10755 -3.20186 0
M  V30 12309 C 1142.61 -0.843532 -3.66826 0
M  V30 12310 C 1141.76 -1.26579 -2.46724 0
M  V30 12311 H 1144.71 -1.10821 -1.13598 0
M  V30 12312 H 1144.73 -0.455598 -3.77763 0
M  V30 12313 H 1144.24 -2.18825 -3.20526 0
M  V30 12314 H 1142.34 0.223334 -3.7193 0
M  V30 12315 H 1142.46 -1.46165 -4.56259 0
M  V30 12316 H 1140.82 -0.684334 -2.45334 0
M  V30 12317 H 1141.6 -2.35516 -2.49774 0
M  V30 12318 N 1144.05 1.41491 -0.694123 0
M  V30 12319 C 1144.98 2.33462 -0.0422169 0
M  V30 12320 C 1145.96 1.51739 0.76872 0
M  V30 12321 O 1147.15 1.8028 0.721985 0
M  V30 12322 C 1144.28 3.35545 0.895925 0
M  V30 12323 C 1143.23 4.27568 0.192188 0
M  V30 12324 C 1142.56 5.20014 1.24459 0
M  V30 12325 C 1143.86 5.1376 -0.940626 0
M  V30 12326 H 1145.55 2.88225 -0.810363 0
M  V30 12327 H 1143.1 1.38586 -0.39114 0
M  V30 12328 H 1145.05 3.9881 1.36121 0
M  V30 12329 H 1143.77 2.79129 1.69572 0
M  V30 12330 H 1142.43 3.65726 -0.25305 0
M  V30 12331 H 1142.08 4.59913 2.03687 0
M  V30 12332 H 1141.78 5.82417 0.778734 0
M  V30 12333 H 1143.3 5.86155 1.71041 0
M  V30 12334 H 1144.72 5.70601 -0.555692 0
M  V30 12335 H 1143.11 5.85097 -1.33349 0
M  V30 12336 H 1144.18 4.51011 -1.78093 0
M  V30 12337 N 1145.53 0.438773 1.51369 0
M  V30 12338 C 1146.46 -0.362467 2.3067 0
M  V30 12339 C 1147.44 -1.01973 1.36145 0
M  V30 12340 O 1148.62 -1.0231 1.65065 0
M  V30 12341 C 1145.75 -1.46313 3.14976 0
M  V30 12342 C 1144.71 -0.929272 4.1779 0
M  V30 12343 C 1144.03 -2.12579 4.90627 0
M  V30 12344 C 1145.33 0.0372782 5.22287 0
M  V30 12345 H 1147.03 0.29931 2.979 0
M  V30 12346 H 1144.57 0.14539 1.43264 0
M  V30 12347 H 1146.53 -2.03088 3.69233 0
M  V30 12348 H 1145.25 -2.15321 2.45569 0
M  V30 12349 H 1143.91 -0.383722 3.64586 0
M  V30 12350 H 1143.56 -2.8021 4.17722 0
M  V30 12351 H 1143.26 -1.77496 5.60151 0
M  V30 12352 H 1144.78 -2.69905 5.47708 0
M  V30 12353 H 1146.2 -0.44022 5.71607 0
M  V30 12354 H 1144.59 0.300748 5.99346 0
M  V30 12355 H 1145.66 0.973503 4.75027 0
M  V30 12356 N 1147.01 -1.56678 0.170181 0
M  V30 12357 C 1148.28 -1.88524 -0.521362 0
M  V30 12358 C 1148.66 -1.07989 -1.81388 0
M  V30 12359 O 1148.01 -0.17347 -2.27841 0
M  V30 12360 C 1148.22 -3.40527 -0.764367 0
M  V30 12361 C 1149.57 -4.10241 -1.09487 0
M  V30 12362 O 1150.59 -3.45837 -0.852945 0
M  V30 12363 O 1149.45 -5.24022 -1.55124 0
M  V30 12364 H 1146.55 -0.782161 -0.268614 0
M  V30 12365 H 1149.09 -1.68414 0.208531 0
M  V30 12366 H 1147.86 -3.91015 0.149416 0
M  V30 12367 H 1147.49 -3.66244 -1.54762 0
M  V30 12368 N 1148.48 0.103547 -1.57259 0
M  V30 12369 C 1149.42 1.15707 -1.9669 0
M  V30 12370 C 1150.39 1.39292 -0.838837 0
M  V30 12371 O 1151.58 1.53192 -1.09839 0
M  V30 12372 C 1148.71 2.50793 -2.27642 0
M  V30 12373 C 1147.75 2.43541 -3.50129 0
M  V30 12374 S 1148.58 1.86009 -5.02156 0
M  V30 12375 C 1149.74 3.22737 -5.36276 0
M  V30 12376 H 1149.97 0.820891 -2.85742 0
M  V30 12377 H 1147.51 0.310906 -1.51237 0
M  V30 12378 H 1149.46 3.28512 -2.46151 0
M  V30 12379 H 1148.13 2.81583 -1.39176 0
M  V30 12380 H 1147.32 3.43085 -3.692 0
M  V30 12381 H 1146.92 1.73948 -3.31086 0
M  V30 12382 H 1149.21 4.1899 -5.32404 0
M  V30 12383 H 1150.16 3.08477 -6.37375 0
M  V30 12384 H 1150.56 3.21878 -4.6374 0
M  V30 12385 N 1149.96 1.53094 0.37415 0
M  V30 12386 C 1151.21 1.68861 1.11769 0
M  V30 12387 C 1151.54 0.436032 1.89549 0
M  V30 12388 O 1150.79 -0.581879 1.86849 0
M  V30 12389 C 1151.09 2.88432 2.11049 0
M  V30 12390 C 1150.76 4.25284 1.49814 0
M  V30 12391 C 1149.42 4.62501 1.32841 0
M  V30 12392 C 1151.77 5.10425 1.05433 0
M  V30 12393 C 1149.1 5.82502 0.700567 0
M  V30 12394 C 1151.45 6.31064 0.440525 0
M  V30 12395 C 1150.11 6.67 0.258216 0
M  V30 12396 H 1149.38 0.617906 0.40899 0
M  V30 12397 H 1152.03 1.87265 0.4005 0
M  V30 12398 H 1150.34 2.64505 2.8904 0
M  V30 12399 H 1152.03 2.97825 2.68517 0
M  V30 12400 H 1148.62 3.95976 1.64016 0
M  V30 12401 H 1152.81 4.82229 1.17342 0
M  V30 12402 H 1148.06 6.08942 0.547652 0
M  V30 12403 H 1152.24 6.96344 0.0883962 0
M  V30 12404 H 1149.86 7.59851 -0.230354 0
M  V30 12405 N 1151.44 -0.633461 1.44309 0
M  V30 12406 C 1152.37 -1.75676 1.53819 0
M  V30 12407 C 1153.35 -1.65537 0.391365 0
M  V30 12408 O 1154.54 -1.84332 0.611181 0
M  V30 12409 C 1151.67 -3.14197 1.47979 0
M  V30 12410 C 1150.62 -3.39122 2.61113 0
M  V30 12411 C 1149.95 -4.77648 2.40325 0
M  V30 12412 C 1151.25 -3.31914 4.03274 0
M  V30 12413 H 1152.94 -1.67974 2.47841 0
M  V30 12414 H 1150.49 -0.8067 1.19283 0
M  V30 12415 H 1152.44 -3.92553 1.53233 0
M  V30 12416 H 1151.16 -3.22677 0.504718 0
M  V30 12417 H 1149.82 -2.63145 2.55245 0
M  V30 12418 H 1149.47 -4.82829 1.41016 0
M  V30 12419 H 1149.17 -4.95284 3.16177 0
M  V30 12420 H 1150.69 -5.58237 2.47394 0
M  V30 12421 H 1152.11 -4.00178 4.10524 0
M  V30 12422 H 1150.5 -3.61085 4.7931 0
M  V30 12423 H 1151.57 -2.29761 4.2701 0
M  V30 12424 N 1152.92 -1.31168 -0.873655 0
M  V30 12425 C 1153.85 -1.14325 -1.98651 0
M  V30 12426 C 1154.86 -0.0833421 -1.62587 0
M  V30 12427 O 1156.05 -0.330477 -1.75414 0
M  V30 12428 C 1153.15 -0.723747 -3.31082 0
M  V30 12429 C 1152.33 -1.86787 -3.95512 0
M  V30 12430 C 1151.38 -1.43503 -5.06254 0
M  V30 12431 O 1150.41 -2.14409 -5.27273 0
M  V30 12432 N 1151.61 -0.320362 -5.79615 0
M  V30 12433 H 1154.38 -2.10179 -2.13647 0
M  V30 12434 H 1151.94 -1.23454 -1.04742 0
M  V30 12435 H 1153.93 -0.416971 -4.02546 0
M  V30 12436 H 1152.5 0.143073 -3.12272 0
M  V30 12437 H 1151.72 -2.34216 -3.17075 0
M  V30 12438 H 1153.01 -2.6343 -4.35296 0
M  V30 12439 H 1152.41 0.270215 -5.65054 0
M  V30 12440 H 1150.96 -0.0731 -6.51759 0
M  V30 12441 N 1154.4 1.08748 -1.14068 0
M  V30 12442 C 1155.34 2.15573 -0.824425 0
M  V30 12443 C 1156.31 1.64683 0.216522 0
M  V30 12444 O 1157.5 1.90601 0.0872193 0
M  V30 12445 C 1154.64 3.43756 -0.30423 0
M  V30 12446 C 1153.75 4.08512 -1.40506 0
M  V30 12447 C 1152.89 5.24477 -0.842479 0
M  V30 12448 C 1151.93 5.81167 -1.92123 0
M  V30 12449 N 1151.06 6.88483 -1.37608 0
M  V30 12450 H 1155.9 2.41968 -1.73941 0
M  V30 12451 H 1153.44 1.18751 -0.868143 0
M  V30 12452 H 1155.4 4.17197 0.0155546 0
M  V30 12453 H 1154.03 3.17658 0.573868 0
M  V30 12454 H 1153.08 3.32866 -1.84131 0
M  V30 12455 H 1154.39 4.46669 -2.2201 0
M  V30 12456 H 1153.55 6.04842 -0.474389 0
M  V30 12457 H 1152.28 4.877 0.00355212 0
M  V30 12458 H 1151.29 4.99458 -2.29831 0
M  V30 12459 H 1152.51 6.20003 -2.77079 0
M  V30 12460 H 1150.46 6.53672 -0.552168 0
M  V30 12461 H 1150.38 7.25446 -2.12752 0
M  V30 12462 H 1151.65 7.72588 -1.03578 0
M  V30 12463 N 1155.87 0.935264 1.26849 0
M  V30 12464 C 1157.29 0.623198 1.75992 0
M  V30 12465 C 1157.64 -0.861647 1.76267 0
M  V30 12466 O 1156.76 -1.6743 1.37099 0
M  V30 12467 C 1157.36 1.12451 3.19594 0
M  V30 12468 C 1155.92 0.862974 3.66374 0
M  V30 12469 C 1155.06 1.27886 2.4605 0
M  V30 12470 H 1158.01 1.11422 1.13008 0
M  V30 12471 H 1158.03 0.475626 3.77516 0
M  V30 12472 H 1157.55 2.20522 3.19361 0
M  V30 12473 H 1155.65 -0.203606 3.72043 0
M  V30 12474 H 1155.76 1.48582 4.55478 0
M  V30 12475 H 1154.12 0.697335 2.44968 0
M  V30 12476 H 1154.91 2.36837 2.48522 0
M  V30 12477 N 1157.35 -1.41121 0.701616 0
M  V30 12478 C 1158.29 -2.28198 -0.010533 0
M  V30 12479 C 1159.26 -1.42569 -0.78185 0
M  V30 12480 O 1160.45 -1.71993 -0.771408 0
M  V30 12481 C 1157.57 -3.22903 -1.02231 0
M  V30 12482 C 1156.62 -4.25115 -0.343454 0
M  V30 12483 S 1157.45 -5.27563 0.918553 0
M  V30 12484 C 1158.61 -6.25833 -0.0914763 0
M  V30 12485 H 1158.84 -2.88249 0.727995 0
M  V30 12486 H 1156.38 -1.46348 0.492112 0
M  V30 12487 H 1158.33 -3.77997 -1.60089 0
M  V30 12488 H 1156.99 -2.61936 -1.73345 0
M  V30 12489 H 1156.19 -4.91674 -1.10782 0
M  V30 12490 H 1155.79 -3.73648 0.162206 0
M  V30 12491 H 1158.08 -6.70908 -0.942826 0
M  V30 12492 H 1159.02 -7.06035 0.540351 0
M  V30 12493 H 1159.43 -5.62712 -0.448956 0
M  V30 12494 N 1158.83 -0.446794 -1.51134 0
M  V30 12495 C 1160.08 0.116263 -2.01765 0
M  V30 12496 C 1160.4 1.42382 -1.33238 0
M  V30 12497 O 1159.67 1.9018 -0.469915 0
M  V30 12498 H 1158.25 0.0459558 -0.745585 0
M  V30 12499 H 1160.91 -0.591664 -1.85702 0
M  V30 12500 H 1160.01 0.285358 -3.10793 0
M  V30 12501 N 1160.31 1.56586 -0.178487 0
M  V30 12502 C 1161.24 2.21313 0.744486 0
M  V30 12503 C 1162.22 1.17098 1.23377 0
M  V30 12504 O 1163.4 1.45551 1.28563 0
M  V30 12505 C 1160.53 2.8595 1.97103 0
M  V30 12506 C 1159.49 3.96266 1.61732 0
M  V30 12507 C 1158.81 4.47987 2.91911 0
M  V30 12508 C 1160.11 5.15503 0.839868 0
M  V30 12509 H 1161.81 2.98698 0.204938 0
M  V30 12510 H 1159.35 1.43672 0.0971306 0
M  V30 12511 H 1161.31 3.29909 2.6218 0
M  V30 12512 H 1160.03 2.05946 2.53484 0
M  V30 12513 H 1158.69 3.52974 0.990208 0
M  V30 12514 H 1158.34 3.64765 3.46346 0
M  V30 12515 H 1158.04 5.22413 2.68995 0
M  V30 12516 H 1159.56 4.94637 3.58004 0
M  V30 12517 H 1160.98 5.5611 1.39337 0
M  V30 12518 H 1159.37 5.95891 0.709473 0
M  V30 12519 H 1160.44 4.84628 -0.162396 0
M  V30 12520 N 1161.79 -0.095206 1.57312 0
M  V30 12521 C 1162.72 -1.11627 2.05089 0
M  V30 12522 C 1163.7 -1.41782 0.939787 0
M  V30 12523 O 1164.88 -1.51813 1.21105 0
M  V30 12524 C 1162.01 -2.43618 2.47523 0
M  V30 12525 C 1160.97 -2.27872 3.62296 0
M  V30 12526 C 1160.29 -3.65038 3.90706 0
M  V30 12527 C 1161.59 -1.71936 4.93189 0
M  V30 12528 H 1163.29 -0.718795 2.90644 0
M  V30 12529 H 1160.83 -0.344315 1.39823 0
M  V30 12530 H 1162.79 -3.1532 2.79556 0
M  V30 12531 H 1161.51 -2.85301 1.58968 0
M  V30 12532 H 1160.17 -1.58615 3.3051 0
M  V30 12533 H 1159.82 -4.04249 2.99319 0
M  V30 12534 H 1159.52 -3.55349 4.67976 0
M  V30 12535 H 1161.04 -4.38208 4.25213 0
M  V30 12536 H 1162.45 -2.33479 5.23603 0
M  V30 12537 H 1160.85 -1.73006 5.74621 0
M  V30 12538 H 1161.92 -0.678789 4.80125 0
M  V30 12539 N 1163.26 -1.53291 -0.366026 0
M  V30 12540 C 1164.49 -1.73665 -1.13381 0
M  V30 12541 C 1164.91 -0.464284 -1.8228 0
M  V30 12542 O 1164.27 0.581645 -1.71717 0
M  V30 12543 C 1164.32 -2.90225 -2.14013 0
M  V30 12544 O 1163.42 -2.58803 -3.21084 0
M  V30 12545 H 1162.77 -0.576762 -0.329 0
M  V30 12546 H 1165.3 -2.00174 -0.423287 0
M  V30 12547 H 1165.31 -3.16378 -2.57622 0
M  V30 12548 H 1163.98 -3.82518 -1.63257 0
M  V30 12549 H 1162.56 -2.43466 -2.82451 0
M  V30 12550 N 1164.74 0.6258 -1.44643 0
M  V30 12551 C 1165.67 1.74858 -1.54748 0
M  V30 12552 C 1166.65 1.65327 -0.400138 0
M  V30 12553 O 1167.84 1.84005 -0.620948 0
M  V30 12554 C 1164.97 3.13408 -1.49643 0
M  V30 12555 C 1163.92 3.37733 -2.62908 0
M  V30 12556 C 1163.25 4.76367 -2.42855 0
M  V30 12557 C 1164.55 3.29771 -4.05029 0
M  V30 12558 H 1166.24 1.66658 -2.48728 0
M  V30 12559 H 1163.79 0.800363 -1.19709 0
M  V30 12560 H 1165.74 3.91735 -1.55312 0
M  V30 12561 H 1164.47 3.22404 -0.521824 0
M  V30 12562 H 1163.12 2.61788 -2.56637 0
M  V30 12563 H 1162.77 4.82074 -1.43575 0
M  V30 12564 H 1162.47 4.936 -3.18799 0
M  V30 12565 H 1164 5.56917 -2.50351 0
M  V30 12566 H 1165.41 3.97996 -4.12641 0
M  V30 12567 H 1163.81 3.58538 -4.81218 0
M  V30 12568 H 1164.88 2.27493 -4.28223 0
M  V30 12569 N 1166.22 1.31629 0.866686 0
M  V30 12570 C 1167.15 1.22151 1.99001 0
M  V30 12571 C 1168.13 0.107972 1.69757 0
M  V30 12572 O 1169.32 0.293125 1.91975 0
M  V30 12573 C 1166.45 0.93144 3.34577 0
M  V30 12574 C 1165.4 2.0049 3.78137 0
M  V30 12575 C 1164.73 1.56747 5.11209 0
M  V30 12576 C 1166.03 3.41844 3.94892 0
M  V30 12577 H 1167.72 2.16132 2.0719 0
M  V30 12578 H 1165.27 1.04051 0.995463 0
M  V30 12579 H 1167.22 0.851719 4.12703 0
M  V30 12580 H 1165.94 -0.0440289 3.2657 0
M  V30 12581 H 1164.6 2.07457 3.02253 0
M  V30 12582 H 1164.25 0.579767 4.99648 0
M  V30 12583 H 1163.95 2.28562 5.41326 0
M  V30 12584 H 1165.47 1.50188 5.91841 0
M  V30 12585 H 1166.89 3.37534 4.63405 0
M  V30 12586 H 1165.29 4.11905 4.36411 0
M  V30 12587 H 1166.36 3.82389 2.98172 0
M  V30 12588 N 1167.7 -1.08142 1.14644 0
M  V30 12589 C 1168.98 -1.77254 0.827071 0
M  V30 12590 C 1169.36 -1.99885 -0.67891 0
M  V30 12591 O 1168.7 -1.61084 -1.62062 0
M  V30 12592 C 1168.91 -3.08658 1.62884 0
M  V30 12593 C 1170.26 -3.83143 1.82993 0
M  V30 12594 O 1171.29 -3.18447 1.59593 0
M  V30 12595 O 1170.15 -4.9932 2.2213 0
M  V30 12596 H 1167.24 -0.769356 0.30335 0
M  V30 12597 H 1169.79 -1.1458 1.25178 0
M  V30 12598 H 1168.56 -2.87753 2.65168 0
M  V30 12599 H 1168.18 -3.79061 1.19994 0
M  V30 12600 N 1169.18 -0.941978 -1.26351 0
M  V30 12601 C 1170.09 -0.45833 -2.30079 0
M  V30 12602 C 1171.1 0.468084 -1.67586 0
M  V30 12603 O 1172.28 0.347418 -1.98381 0
M  V30 12604 C 1169.34 0.26797 -3.45663 0
M  V30 12605 C 1168.41 -0.695102 -4.23635 0
M  V30 12606 C 1167.64 -0.003369 -5.337 0
M  V30 12607 O 1167.86 1.21342 -5.57344 0
M  V30 12608 O 1166.8 -0.682476 -5.98018 0
M  V30 12609 H 1170.62 -1.31998 -2.73514 0
M  V30 12610 H 1168.21 -0.707897 -1.31564 0
M  V30 12611 H 1170.09 0.677061 -4.15925 0
M  V30 12612 H 1168.76 1.105 -3.04256 0
M  V30 12613 H 1167.67 -1.15415 -3.55851 0
M  V30 12614 H 1169 -1.49977 -4.68794 0
M  V30 12615 N 1170.66 1.40747 -0.709091 0
M  V30 12616 C 1171.57 2.3454 -0.0532205 0
M  V30 12617 C 1172.58 1.56956 0.751057 0
M  V30 12618 O 1173.76 1.89375 0.685509 0
M  V30 12619 C 1170.82 3.35809 0.862157 0
M  V30 12620 C 1169.88 4.29273 0.0485632 0
M  V30 12621 C 1169.12 5.25705 0.920345 0
M  V30 12622 O 1169.34 5.27933 2.15969 0
M  V30 12623 O 1168.27 6.00806 0.3628 0
M  V30 12624 H 1172.1 2.92232 -0.826698 0
M  V30 12625 H 1169.68 1.4183 -0.469519 0
M  V30 12626 H 1171.57 3.97931 1.38668 0
M  V30 12627 H 1170.24 2.8054 1.61489 0
M  V30 12628 H 1169.15 3.70456 -0.520873 0
M  V30 12629 H 1170.48 4.87676 -0.665807 0
M  V30 12630 N 1172.13 0.454803 1.50895 0
M  V30 12631 C 1173.36 -0.106259 2.07128 0
M  V30 12632 C 1173.78 -1.3418 1.31823 0
M  V30 12633 O 1173.14 -1.77667 0.361147 0
M  V30 12634 C 1173.19 -0.389609 3.58489 0
M  V30 12635 O 1172.29 -1.47305 3.85195 0
M  V30 12636 H 1171.63 0.00580588 0.663975 0
M  V30 12637 H 1174.16 0.641163 1.94294 0
M  V30 12638 H 1174.17 -0.634934 4.03029 0
M  V30 12639 H 1172.85 0.513338 4.1272 0
M  V30 12640 H 1171.43 -1.21631 3.52506 0
M  V30 12641 N 1173.61 -1.56489 0.186789 0
M  V30 12642 C 1175.03 -1.58701 -0.169176 0
M  V30 12643 C 1175.23 -1.2027 -1.61671 0
M  V30 12644 O 1174.28 -0.92154 -2.35083 0
M  V30 12645 C 1175.6 -3.00437 0.125657 0
M  V30 12646 C 1177.14 -3.12932 0.0651 0
M  V30 12647 C 1177.62 -4.56787 0.333131 0
M  V30 12648 N 1179.11 -4.62344 0.281453 0
M  V30 12649 C 1179.85 -5.71529 0.462805 0
M  V30 12650 N 1179.34 -6.89213 0.704054 0
M  V30 12651 N 1181.13 -5.60692 0.397636 0
M  V30 12652 H 1173.29 -1.79754 1.13148 0
M  V30 12653 H 1175.55 -0.83385 0.450997 0
M  V30 12654 H 1175.25 -3.33086 1.12901 0
M  V30 12655 H 1175.13 -3.72782 -0.575612 0
M  V30 12656 H 1177.52 -2.80101 -0.928845 0
M  V30 12657 H 1177.6 -2.42991 0.799318 0
M  V30 12658 H 1177.24 -4.9033 1.32436 0
M  V30 12659 H 1177.17 -5.24907 -0.421879 0
M  V30 12660 H 1179.66 -3.77764 0.101266 0
M  V30 12661 H 1179.97 -7.68314 0.831468 0
M  V30 12662 H 1178.32 -6.9104 0.740851 0
M  V30 12663 H 1181.51 -4.6763 0.20964 0
M  V30 12664 H 1181.68 -6.45726 0.54239 0
M  V30 12665 N 1175.09 0.086862 -1.5736 0
M  V30 12666 C 1176.34 0.78884 -1.86504 0
M  V30 12667 C 1176.66 1.78329 -0.77646 0
M  V30 12668 O 1175.92 1.94354 0.229122 0
M  V30 12669 C 1176.22 1.54537 -3.22263 0
M  V30 12670 C 1175.88 0.692284 -4.45554 0
M  V30 12671 C 1174.55 0.45714 -4.79024 0
M  V30 12672 C 1176.9 0.0997695 -5.21105 0
M  V30 12673 C 1174.23 -0.380247 -5.85466 0
M  V30 12674 C 1176.58 -0.724986 -6.28432 0
M  V30 12675 C 1175.24 -0.970144 -6.60412 0
M  V30 12676 H 1174.51 0.288657 -0.682465 0
M  V30 12677 H 1177.16 0.050059 -1.91435 0
M  V30 12678 H 1175.46 2.35594 -3.13053 0
M  V30 12679 H 1177.16 2.09305 -3.42042 0
M  V30 12680 H 1173.75 0.885675 -4.19349 0
M  V30 12681 H 1177.94 0.268583 -4.95573 0
M  V30 12682 H 1173.19 -0.579084 -6.08651 0
M  V30 12683 H 1177.37 -1.19093 -6.86141 0
M  V30 12684 H 1174.99 -1.6208 -7.42721 0
M  V30 12685 N 1176.57 1.53483 0.357892 0
M  V30 12686 C 1177.98 1.61641 0.934289 0
M  V30 12687 C 1178.33 0.488655 1.90017 0
M  V30 12688 O 1177.45 -0.38378 2.1297 0
M  V30 12689 C 1178.05 2.92987 1.7013 0
M  V30 12690 C 1176.61 3.03456 2.22692 0
M  V30 12691 C 1175.76 2.56992 1.04165 0
M  V30 12692 H 1178.71 1.58112 0.136452 0
M  V30 12693 H 1178.73 2.81221 2.5631 0
M  V30 12694 H 1178.24 3.75047 0.998056 0
M  V30 12695 H 1176.34 2.25999 2.96235 0
M  V30 12696 H 1176.45 4.08673 2.50046 0
M  V30 12697 H 1174.82 2.12052 1.41088 0
M  V30 12698 H 1175.6 3.41477 0.353272 0
M  V30 12699 N 1178.05 -0.61812 1.44973 0
M  V30 12700 C 1178.99 -1.72942 1.52838 0
M  V30 12701 C 1179.96 -1.6181 0.375056 0
M  V30 12702 O 1181.15 -1.81544 0.587075 0
M  V30 12703 C 1178.29 -3.11228 1.49101 0
M  V30 12704 C 1177.4 -3.33243 2.74906 0
M  V30 12705 C 1176.54 -4.61574 2.62912 0
M  V30 12706 C 1175.57 -4.76811 3.8382 0
M  V30 12707 N 1174.71 -5.96432 3.70424 0
M  V30 12708 H 1179.55 -1.65556 2.47781 0
M  V30 12709 H 1177.09 -0.807411 1.2296 0
M  V30 12710 H 1179.05 -3.9122 1.44923 0
M  V30 12711 H 1177.68 -3.17598 0.577163 0
M  V30 12712 H 1176.73 -2.471 2.89216 0
M  V30 12713 H 1178.04 -3.40377 3.64616 0
M  V30 12714 H 1177.19 -5.49746 2.56641 0
M  V30 12715 H 1175.93 -4.5682 1.70784 0
M  V30 12716 H 1174.94 -3.87066 3.90461 0
M  V30 12717 H 1176.16 -4.83371 4.77001 0
M  V30 12718 H 1174.11 -5.92742 2.81057 0
M  V30 12719 H 1174.03 -6.0468 4.5376 0
M  V30 12720 H 1175.29 -6.8713 3.68067 0
M  V30 12721 N 1179.52 -1.32087 -0.859693 0
M  V30 12722 C 1180.49 -1.20546 -1.94939 0
M  V30 12723 C 1181.49 -0.12982 -1.60275 0
M  V30 12724 O 1182.68 -0.379853 -1.70008 0
M  V30 12725 C 1179.81 -0.852717 -3.30063 0
M  V30 12726 H 1181 -2.17384 -2.06602 0
M  V30 12727 H 1178.55 -1.15846 -1.04926 0
M  V30 12728 H 1179.29 0.114059 -3.24099 0
M  V30 12729 H 1179.07 -1.63035 -3.56598 0
M  V30 12730 H 1180.56 -0.796145 -4.09941 0
M  V30 12731 N 1181 1.07532 -1.15215 0
M  V30 12732 C 1182.23 1.83817 -0.949687 0
M  V30 12733 C 1182.64 1.82004 0.501991 0
M  V30 12734 O 1182 1.23014 1.34811 0
M  V30 12735 C 1182.05 3.30978 -1.45382 0
M  V30 12736 O 1181.77 3.32844 -2.84863 0
M  V30 12737 C 1183.27 4.24037 -1.29257 0
M  V30 12738 H 1180.49 0.58 -0.337404 0
M  V30 12739 H 1183.04 1.35752 -1.52944 0
M  V30 12740 H 1181.19 3.76399 -0.916638 0
M  V30 12741 H 1181.61 4.24773 -3.07682 0
M  V30 12742 H 1183.08 5.25371 -1.69379 0
M  V30 12743 H 1183.56 4.38563 -0.236519 0
M  V30 12744 H 1184.16 3.8445 -1.81874 0
M  V30 12745 N 1182.48 0.948665 1.2585 0
M  V30 12746 C 1183.76 0.517832 1.88621 0
M  V30 12747 C 1184.14 -1.00477 1.85654 0
M  V30 12748 O 1183.49 -1.868 1.31598 0
M  V30 12749 C 1183.7 1.08768 3.31618 0
M  V30 12750 C 1185.04 1.16089 4.08422 0
M  V30 12751 O 1186.07 1.0388 3.40716 0
M  V30 12752 O 1184.93 1.35172 5.29519 0
M  V30 12753 H 1182.02 0.169916 0.809356 0
M  V30 12754 H 1184.57 1.04171 1.33964 0
M  V30 12755 H 1183.34 2.13109 3.28177 0
M  V30 12756 H 1182.96 0.54669 3.93824 0
M  V30 12757 N 1183.96 -1.40369 0.716545 0
M  V30 12758 C 1184.89 -2.29186 0.0251905 0
M  V30 12759 C 1185.9 -1.45877 -0.722761 0
M  V30 12760 O 1187.09 -1.69155 -0.569982 0
M  V30 12761 C 1184.19 -3.24161 -0.988589 0
M  V30 12762 C 1183.37 -4.36329 -0.30597 0
M  V30 12763 C 1182.42 -5.11736 -1.22527 0
M  V30 12764 O 1181.45 -5.64758 -0.7097 0
M  V30 12765 N 1182.65 -5.21183 -2.55634 0
M  V30 12766 H 1185.42 -2.8916 0.787808 0
M  V30 12767 H 1182.98 -1.51749 0.564253 0
M  V30 12768 H 1184.97 -3.71479 -1.60578 0
M  V30 12769 H 1183.54 -2.65347 -1.65256 0
M  V30 12770 H 1182.76 -3.91125 0.491432 0
M  V30 12771 H 1184.05 -5.08523 0.167827 0
M  V30 12772 H 1183.45 -4.7959 -3.00017 0
M  V30 12773 H 1182 -5.72005 -3.12495 0
M  V30 12774 N 1185.44 -0.462799 -1.50652 0
M  V30 12775 C 1186.66 0.0929761 -2.06691 0
M  V30 12776 C 1187.08 1.34241 -1.32758 0
M  V30 12777 O 1186.44 1.78187 -0.394427 0
M  V30 12778 C 1186.49 0.389492 -3.59396 0
M  V30 12779 O 1186.21 -0.810379 -4.3054 0
M  V30 12780 C 1187.71 0.993147 -4.32032 0
M  V30 12781 H 1184.93 -0.00338664 -0.670991 0
M  V30 12782 H 1187.47 -0.649201 -1.93922 0
M  V30 12783 H 1185.63 1.08159 -3.71995 0
M  V30 12784 H 1186.04 -0.54996 -5.21609 0
M  V30 12785 H 1187.52 1.15044 -5.39878 0
M  V30 12786 H 1187.99 1.98106 -3.91983 0
M  V30 12787 H 1188.6 0.339677 -4.23941 0
M  V30 12788 N 1186.91 1.56388 -0.195085 0
M  V30 12789 C 1187.84 2.22091 0.720971 0
M  V30 12790 C 1188.83 1.184 1.22128 0
M  V30 12791 O 1190.01 1.46907 1.27012 0
M  V30 12792 C 1187.14 2.88025 1.94059 0
M  V30 12793 C 1186.09 3.97959 1.5752 0
M  V30 12794 C 1185.42 4.51058 2.87143 0
M  V30 12795 C 1186.72 5.16365 0.785145 0
M  V30 12796 H 1188.41 2.98898 0.173245 0
M  V30 12797 H 1185.96 1.43767 0.0818868 0
M  V30 12798 H 1187.91 3.32671 2.58666 0
M  V30 12799 H 1186.64 2.08623 2.51285 0
M  V30 12800 H 1185.3 3.54004 0.952715 0
M  V30 12801 H 1184.94 3.68418 3.42458 0
M  V30 12802 H 1184.64 5.25237 2.63439 0
M  V30 12803 H 1186.17 4.98406 3.52738 0
M  V30 12804 H 1187.58 5.57556 1.33431 0
M  V30 12805 H 1185.98 5.9661 0.646231 0
M  V30 12806 H 1187.05 4.84428 -0.213789 0
M  V30 12807 N 1188.39 -0.0785156 1.57404 0
M  V30 12808 C 1189.64 -0.780092 1.87196 0
M  V30 12809 C 1189.97 -1.77562 0.78647 0
M  V30 12810 O 1189.25 -1.93428 -0.203935 0
M  V30 12811 C 1189.53 -1.49408 3.27642 0
M  V30 12812 C 1189.38 -0.515416 4.46837 0
M  V30 12813 C 1190.7 -2.44064 3.66225 0
M  V30 12814 H 1187.82 -0.282134 0.680859 0
M  V30 12815 H 1190.46 -0.0433926 1.8995 0
M  V30 12816 H 1188.61 -2.12205 3.25425 0
M  V30 12817 H 1190.28 0.106827 4.61176 0
M  V30 12818 H 1188.53 0.169832 4.33467 0
M  V30 12819 H 1189.2 -1.05247 5.41874 0
M  V30 12820 H 1191.67 -1.91349 3.69493 0
M  V30 12821 H 1190.55 -2.91029 4.65396 0
M  V30 12822 H 1190.81 -3.28569 2.95796 0
M  V30 12823 N 1189.87 -1.5367 -0.349747 0
M  V30 12824 C 1190.78 -1.84207 -1.45275 0
M  V30 12825 C 1191.8 -0.731695 -1.57868 0
M  V30 12826 O 1192.97 -1.02337 -1.73462 0
M  V30 12827 C 1190.04 -2.0398 -2.80345 0
M  V30 12828 C 1189.1 -3.27853 -2.77148 0
M  V30 12829 C 1188.33 -3.46673 -4.05775 0
M  V30 12830 O 1188.55 -2.69457 -5.02741 0
M  V30 12831 O 1187.49 -4.40082 -4.10623 0
M  V30 12832 H 1191.31 -2.77947 -1.22389 0
M  V30 12833 H 1188.9 -1.39247 -0.541345 0
M  V30 12834 H 1190.78 -2.18466 -3.60348 0
M  V30 12835 H 1189.46 -1.13429 -3.03176 0
M  V30 12836 H 1188.36 -3.18776 -1.95787 0
M  V30 12837 H 1189.7 -4.18377 -2.59271 0
M  V30 12838 N 1191.35 0.610423 -1.45298 0
M  V30 12839 C 1192.3 1.7213 -1.53753 0
M  V30 12840 C 1193.27 1.61609 -0.383632 0
M  V30 12841 O 1194.45 1.8123 -0.596694 0
M  V30 12842 C 1191.59 3.10433 -1.50749 0
M  V30 12843 C 1190.7 3.3178 -2.76669 0
M  V30 12844 C 1189.84 4.60173 -2.65356 0
M  V30 12845 C 1188.88 4.74769 -3.86343 0
M  V30 12846 N 1188.01 5.94459 -3.73581 0
M  V30 12847 H 1192.85 1.64239 -2.48655 0
M  V30 12848 H 1190.39 0.800879 -1.23387 0
M  V30 12849 H 1192.35 3.90446 -1.46996 0
M  V30 12850 H 1190.98 3.17288 -0.593998 0
M  V30 12851 H 1190.03 2.45563 -2.90522 0
M  V30 12852 H 1191.34 3.38439 -3.66416 0
M  V30 12853 H 1190.5 5.48377 -2.59553 0
M  V30 12854 H 1189.24 4.55907 -1.73204 0
M  V30 12855 H 1188.24 3.8499 -3.92509 0
M  V30 12856 H 1189.47 4.80834 -4.79557 0
M  V30 12857 H 1187.41 5.91243 -2.84196 0
M  V30 12858 H 1187.33 6.02265 -4.5696 0
M  V30 12859 H 1188.6 6.85168 -3.71705 0
M  V30 12860 N 1192.83 1.32541 0.852676 0
M  V30 12861 C 1194.07 1.23214 1.607 0
M  V30 12862 C 1194.4 -0.205542 1.93411 0
M  V30 12863 O 1193.66 -1.15907 1.57683 0
M  V30 12864 C 1193.96 2.039 2.9353 0
M  V30 12865 C 1193.62 3.53237 2.8024 0
M  V30 12866 C 1192.28 3.93953 2.76323 0
M  V30 12867 C 1194.64 4.48194 2.6603 0
M  V30 12868 C 1191.96 5.27865 2.56077 0
M  V30 12869 C 1194.32 5.82251 2.47319 0
M  V30 12870 C 1192.98 6.22166 2.41796 0
M  V30 12871 H 1192.25 0.450873 0.588043 0
M  V30 12872 H 1194.9 1.63988 0.988954 0
M  V30 12873 H 1193.2 1.55861 3.59464 0
M  V30 12874 H 1194.9 1.94051 3.50921 0
M  V30 12875 H 1191.49 3.209 2.84114 0
M  V30 12876 H 1195.67 4.17656 2.681 0
M  V30 12877 H 1190.93 5.57845 2.50237 0
M  V30 12878 H 1195.1 6.55442 2.35305 0
M  V30 12879 H 1192.73 7.2587 2.25868 0
M  V30 12880 N 1194.3 -1.0692 1.15784 0
M  V30 12881 C 1195.21 -2.17762 0.872753 0
M  V30 12882 C 1196.23 -1.73329 -0.152608 0
M  V30 12883 O 1197.41 -2.01387 0.022519 0
M  V30 12884 C 1194.47 -3.4471 0.370887 0
M  V30 12885 C 1193.53 -4.03686 1.46069 0
M  V30 12886 C 1192.77 -5.24575 0.982675 0
M  V30 12887 O 1192.99 -5.70146 -0.17006 0
M  V30 12888 O 1191.92 -5.7534 1.76828 0
M  V30 12889 H 1195.75 -2.44648 1.79948 0
M  V30 12890 H 1193.33 -1.1634 0.937303 0
M  V30 12891 H 1195.22 -4.21287 0.0976779 0
M  V30 12892 H 1193.89 -3.19366 -0.527912 0
M  V30 12893 H 1192.8 -3.28629 1.78756 0
M  V30 12894 H 1194.13 -4.33312 2.33456 0
M  V30 12895 N 1195.78 -0.955326 -1.25345 0
M  V30 12896 C 1197.03 -0.609278 -1.92697 0
M  V30 12897 C 1197.35 0.856535 -1.75181 0
M  V30 12898 O 1196.62 1.61013 -1.11587 0
M  V30 12899 H 1195.2 -0.22235 -0.713141 0
M  V30 12900 H 1197.86 -1.21372 -1.52496 0
M  V30 12901 H 1196.96 -0.839198 -3.00606 0
M  V30 12902 N 1197.26 1.39987 -0.723979 0
M  V30 12903 C 1198.21 2.32507 -0.0658033 0
M  V30 12904 C 1199.2 1.52484 0.737908 0
M  V30 12905 O 1200.41 1.68225 0.640332 0
M  V30 12906 H 1196.78 0.751996 -0.00247717 0
M  V30 12907 H 1198.76 2.85657 -0.862696 0
M  V30 12908 C 1197.5 3.37509 0.835628 0
M  V30 12909 H 1196.83 3.99157 0.226589 0
M  V30 12910 H 1198.27 4.04722 1.26396 0
M  V30 12911 C 1196.73 2.73665 1.96492 0
M  V30 12912 O 1197.26 2.60649 3.05655 0
M  V30 12913 N 1195.46 2.3192 1.75104 0
M  V30 12914 H 1195.01 2.42707 0.863204 0
M  V30 12915 H 1194.97 1.89542 2.50841 0
M  V30 12916 N 1198.74 0.470782 1.50404 0
M  V30 12917 C 1199.67 -0.313458 2.31386 0
M  V30 12918 C 1200.65 -0.990623 1.38278 0
M  V30 12919 O 1201.84 -0.987854 1.67198 0
M  V30 12920 C 1198.97 -1.39599 3.18009 0
M  V30 12921 C 1197.92 -0.840443 4.19667 0
M  V30 12922 C 1197.25 -2.02124 4.95025 0
M  V30 12923 C 1198.55 0.148055 5.2209 0
M  V30 12924 H 1200.24 0.362432 2.97198 0
M  V30 12925 H 1197.79 0.175745 1.42924 0
M  V30 12926 H 1199.74 -1.9521 3.73458 0
M  V30 12927 H 1198.46 -2.10064 2.50081 0
M  V30 12928 H 1197.12 -0.306302 3.65318 0
M  V30 12929 H 1196.77 -2.71286 4.23571 0
M  V30 12930 H 1196.47 -1.65574 5.6379 0
M  V30 12931 H 1197.99 -2.58226 5.5331 0
M  V30 12932 H 1199.41 -0.318874 5.72413 0
M  V30 12933 H 1197.8 0.427811 5.98573 0
M  V30 12934 H 1198.87 1.07404 4.72855 0
M  V30 12935 N 1200.22 -1.56282 0.203376 0
M  V30 12936 C 1201.16 -2.19473 -0.714164 0
M  V30 12937 C 1202.13 -1.14454 -1.20372 0
M  V30 12938 O 1203.32 -1.42739 -1.26611 0
M  V30 12939 C 1200.46 -2.86451 -1.92457 0
M  V30 12940 C 1199.57 -4.06017 -1.47561 0
M  V30 12941 C 1198.71 -4.60829 -2.64216 0
M  V30 12942 C 1197.75 -5.72734 -2.15967 0
M  V30 12943 N 1196.88 -6.21916 -3.25829 0
M  V30 12944 H 1201.72 -2.97523 -0.168558 0
M  V30 12945 H 1199.26 -1.46926 -0.0714525 0
M  V30 12946 H 1201.22 -3.23459 -2.63496 0
M  V30 12947 H 1199.85 -2.10951 -2.44335 0
M  V30 12948 H 1198.9 -3.74617 -0.660784 0
M  V30 12949 H 1200.21 -4.8693 -1.08168 0
M  V30 12950 H 1199.37 -5.00185 -3.43366 0
M  V30 12951 H 1198.11 -3.7904 -3.06887 0
M  V30 12952 H 1197.11 -5.32899 -1.35273 0
M  V30 12953 H 1198.34 -6.56346 -1.74316 0
M  V30 12954 H 1196.28 -5.43047 -3.68016 0
M  V30 12955 H 1196.2 -6.97904 -2.90631 0
M  V30 12956 H 1197.47 -6.65927 -4.05168 0
M  V30 12957 N 1201.7 0.070167 -1.57444 0
M  V30 12958 C 1202.92 0.785703 -1.91941 0
M  V30 12959 C 1203.35 1.70243 -0.799932 0
M  V30 12960 O 1202.7 1.79608 0.247139 0
M  V30 12961 C 1202.75 1.55398 -3.25398 0
M  V30 12962 O 1201.86 2.66475 -3.14746 0
M  V30 12963 H 1201.2 0.214245 -0.628486 0
M  V30 12964 H 1203.73 0.0379243 -2.04565 0
M  V30 12965 H 1203.74 1.93287 -3.5931 0
M  V30 12966 H 1202.41 0.881366 -4.06454 0
M  V30 12967 H 1200.99 2.3143 -2.92394 0
M  V30 12968 N 1203.17 1.53854 0.341593 0
M  V30 12969 C 1204.11 1.78295 1.44027 0
M  V30 12970 C 1205.12 0.664303 1.4863 0
M  V30 12971 O 1206.31 0.941073 1.51678 0
M  V30 12972 C 1203.41 1.86947 2.82673 0
M  V30 12973 C 1202.58 3.16898 3.01487 0
M  V30 12974 C 1201.64 3.16483 4.20386 0
M  V30 12975 O 1200.67 3.90197 4.14409 0
M  V30 12976 N 1201.87 2.3899 5.29022 0
M  V30 12977 H 1204.63 2.73102 1.23431 0
M  V30 12978 H 1202.19 1.52928 0.531483 0
M  V30 12979 H 1204.19 1.84118 3.60392 0
M  V30 12980 H 1202.76 0.993169 2.96403 0
M  V30 12981 H 1201.98 3.32835 2.11221 0
M  V30 12982 H 1203.26 4.02733 3.1094 0
M  V30 12983 H 1202.66 1.78657 5.36748 0
M  V30 12984 H 1201.22 2.41957 6.05227 0
M  V30 12985 N 1204.65 -0.602709 1.4562 0
M  V30 12986 C 1205.88 -1.38608 1.53203 0
M  V30 12987 C 1206.29 -1.88478 0.165098 0
M  V30 12988 O 1205.63 -1.63142 -0.844421 0
M  V30 12989 C 1205.69 -2.62214 2.45935 0
M  V30 12990 C 1205.36 -2.3395 3.92577 0
M  V30 12991 C 1206.36 -1.94011 4.82344 0
M  V30 12992 C 1204.04 -2.46711 4.37537 0
M  V30 12993 C 1206.03 -1.67202 6.15079 0
M  V30 12994 C 1203.72 -2.19515 5.70313 0
M  V30 12995 C 1204.72 -1.79823 6.58903 0
M  V30 12996 O 1204.41 -1.52948 7.89216 0
M  V30 12997 H 1204.14 -0.43052 0.52118 0
M  V30 12998 H 1206.69 -0.741655 1.91543 0
M  V30 12999 H 1204.92 -3.29394 2.02575 0
M  V30 13000 H 1206.61 -3.24264 2.44147 0
M  V30 13001 H 1207.38 -1.83684 4.48871 0
M  V30 13002 H 1203.26 -2.76572 3.68821 0
M  V30 13003 H 1206.8 -1.36146 6.84186 0
M  V30 13004 H 1202.7 -2.2946 6.03339 0
M  V30 13005 H 1203.47 -1.6696 8.01291 0
M  V30 13006 N 1206.13 -1.32992 -0.845635 0
M  V30 13007 C 1207.38 -1.24065 -1.60044 0
M  V30 13008 C 1207.7 0.195282 -1.93517 0
M  V30 13009 O 1206.96 1.1507 -1.58296 0
M  V30 13010 C 1207.26 -2.05454 -2.92444 0
M  V30 13011 C 1206.92 -3.54718 -2.78362 0
M  V30 13012 C 1205.59 -3.95413 -2.74229 0
M  V30 13013 C 1207.94 -4.49598 -2.63649 0
M  V30 13014 C 1205.27 -5.29216 -2.53274 0
M  V30 13015 C 1207.62 -5.83554 -2.44228 0
M  V30 13016 C 1206.28 -6.2344 -2.38493 0
M  V30 13017 H 1205.55 -0.453985 -0.585644 0
M  V30 13018 H 1208.2 -1.6451 -0.980244 0
M  V30 13019 H 1206.5 -1.57765 -3.58633 0
M  V30 13020 H 1208.2 -1.95909 -3.49887 0
M  V30 13021 H 1204.79 -3.22403 -2.82409 0
M  V30 13022 H 1208.98 -4.19072 -2.65881 0
M  V30 13023 H 1204.23 -5.59164 -2.47275 0
M  V30 13024 H 1208.41 -6.56681 -2.31825 0
M  V30 13025 H 1206.03 -7.27058 -2.22015 0
M  V30 13026 N 1207.61 1.06304 -1.1635 0
M  V30 13027 C 1208.85 1.79516 -0.956328 0
M  V30 13028 C 1209.21 1.85506 0.510438 0
M  V30 13029 O 1208.5 1.33556 1.37381 0
M  V30 13030 C 1208.7 3.23589 -1.51741 0
M  V30 13031 C 1208.52 3.31639 -3.0372 0
M  V30 13032 C 1207.29 3.41579 -3.7236 0
M  V30 13033 C 1209.49 3.2151 -4.01417 0
M  V30 13034 N 1207.47 3.38643 -5.12049 0
M  V30 13035 C 1208.85 3.25815 -5.27489 0
M  V30 13036 C 1210.9 3.05393 -3.93242 0
M  V30 13037 C 1209.6 3.1566 -6.46337 0
M  V30 13038 C 1211.63 2.96577 -5.1166 0
M  V30 13039 C 1210.99 3.01504 -6.36612 0
M  V30 13040 H 1207.09 0.669727 -0.40372 0
M  V30 13041 H 1209.67 1.2681 -1.4774 0
M  V30 13042 H 1207.85 3.7469 -1.02282 0
M  V30 13043 H 1209.58 3.84977 -1.248 0
M  V30 13044 H 1206.33 3.46371 -3.22992 0
M  V30 13045 H 1206.76 3.40674 -5.85038 0
M  V30 13046 H 1211.4 3.0043 -2.97492 0
M  V30 13047 H 1209.12 3.1938 -7.42308 0
M  V30 13048 H 1212.7 2.85195 -5.07105 0
M  V30 13049 H 1211.58 2.9474 -7.26704 0
M  V30 13050 N 1209.09 0.96196 1.24836 0
M  V30 13051 C 1210.5 0.667561 1.44968 0
M  V30 13052 C 1210.7 -0.772521 1.86103 0
M  V30 13053 O 1209.76 -1.54704 1.99557 0
M  V30 13054 C 1211.07 1.64675 2.516 0
M  V30 13055 C 1212.62 1.65874 2.65433 0
M  V30 13056 C 1213.09 2.62576 3.75257 0
M  V30 13057 N 1214.58 2.60984 3.82677 0
M  V30 13058 C 1215.32 3.32484 4.67163 0
M  V30 13059 N 1214.82 4.13482 5.55882 0
M  V30 13060 N 1216.61 3.21336 4.61193 0
M  V30 13061 H 1208.76 1.89248 0.964307 0
M  V30 13062 H 1211.02 0.814443 0.485167 0
M  V30 13063 H 1210.73 2.67572 2.2825 0
M  V30 13064 H 1210.6 1.415 3.49653 0
M  V30 13065 H 1212.99 0.636912 2.88145 0
M  V30 13066 H 1213.07 1.9311 1.67756 0
M  V30 13067 H 1212.71 3.6489 3.53295 0
M  V30 13068 H 1212.64 2.32622 4.72435 0
M  V30 13069 H 1215.14 2.02187 3.19263 0
M  V30 13070 H 1215.45 4.6494 6.17293 0
M  V30 13071 H 1213.79 4.17578 5.55566 0
M  V30 13072 H 1216.98 2.57524 3.90895 0
M  V30 13073 H 1217.16 3.77323 5.26812 0
M  V30 13074 N 1210.56 -1.39601 0.731392 0
M  V30 13075 C 1211.97 -1.83424 0.348194 0
M  V30 13076 C 1212.33 -1.61106 -1.11979 0
M  V30 13077 O 1211.45 -1.1003 -1.86339 0
M  V30 13078 C 1212.05 -3.32982 0.6252 0
M  V30 13079 C 1210.6 -3.75238 0.295536 0
M  V30 13080 C 1209.75 -2.62642 0.88964 0
M  V30 13081 H 1212.7 -1.28644 0.929318 0
M  V30 13082 H 1212.72 -3.80357 -0.104254 0
M  V30 13083 H 1212.24 -3.49193 1.69368 0
M  V30 13084 H 1210.34 -3.64615 -0.767254 0
M  V30 13085 H 1210.45 -4.72781 0.775576 0
M  V30 13086 H 1208.81 -2.52726 0.316529 0
M  V30 13087 H 1209.6 -2.81661 1.96271 0
M  V30 13088 N 1212.04 -0.478751 -1.50152 0
M  V30 13089 C 1212.99 0.311426 -2.28689 0
M  V30 13090 C 1213.96 0.980375 -1.34082 0
M  V30 13091 O 1215.14 0.991337 -1.63025 0
M  V30 13092 C 1212.28 1.38302 -3.16175 0
M  V30 13093 C 1211.4 0.728084 -4.2582 0
M  V30 13094 C 1210.53 1.77822 -5.00552 0
M  V30 13095 C 1209.57 1.10395 -6.02063 0
M  V30 13096 N 1208.71 2.09728 -6.70044 0
M  V30 13097 H 1213.55 -0.364592 -2.95761 0
M  V30 13098 H 1211.09 -0.191645 -1.45846 0
M  V30 13099 H 1213.04 2.01606 -3.65255 0
M  V30 13100 H 1211.67 2.0281 -2.51133 0
M  V30 13101 H 1210.73 -0.0177026 -3.80396 0
M  V30 13102 H 1212.04 0.196209 -4.98414 0
M  V30 13103 H 1211.19 2.48687 -5.53389 0
M  V30 13104 H 1209.93 2.34392 -4.27682 0
M  V30 13105 H 1208.94 0.38096 -5.48479 0
M  V30 13106 H 1210.16 0.545045 -6.76909 0
M  V30 13107 H 1208.11 2.65301 -5.9996 0
M  V30 13108 H 1208.02 1.61546 -7.38538 0
M  V30 13109 H 1209.29 2.7995 -7.27495 0
M  V30 13110 N 1213.52 1.56172 -0.211661 0
M  V30 13111 C 1214.94 1.5895 0.143907 0
M  V30 13112 C 1215.14 1.22826 1.59737 0
M  V30 13113 O 1214.19 0.958823 2.33587 0
M  V30 13114 C 1215.51 3.00199 -0.173438 0
M  V30 13115 C 1217.05 3.12789 -0.114877 0
M  V30 13116 C 1217.53 4.56199 -0.405759 0
M  V30 13117 N 1219.02 4.61838 -0.354973 0
M  V30 13118 C 1219.75 5.70721 -0.553671 0
M  V30 13119 N 1219.25 6.88006 -0.813613 0
M  V30 13120 N 1221.04 5.59988 -0.486787 0
M  V30 13121 H 1213.19 1.77931 -1.15993 0
M  V30 13122 H 1215.46 0.826569 -0.464206 0
M  V30 13123 H 1215.16 3.31248 -1.18186 0
M  V30 13124 H 1215.04 3.73651 0.516232 0
M  V30 13125 H 1217.42 2.81543 0.884166 0
M  V30 13126 H 1217.51 2.41688 -0.837875 0
M  V30 13127 H 1217.15 4.88161 -1.40219 0
M  V30 13128 H 1217.08 5.25512 0.338318 0
M  V30 13129 H 1219.57 3.77555 -0.161352 0
M  V30 13130 H 1219.88 7.66894 -0.953594 0
M  V30 13131 H 1218.23 6.89774 -0.850696 0
M  V30 13132 H 1221.42 4.67238 -0.284009 0
M  V30 13133 H 1221.59 6.44781 -0.645051 0
M  V30 13134 N 1215 -0.0618163 1.57479 0
M  V30 13135 C 1215.93 -1.10452 1.99689 0
M  V30 13136 C 1216.91 -1.37019 0.875473 0
M  V30 13137 O 1218.09 -1.50226 1.13862 0
M  V30 13138 C 1215.22 -2.44669 2.34211 0
M  V30 13139 C 1214.27 -2.34172 3.56463 0
M  V30 13140 S 1215.1 -1.7263 5.06911 0
M  V30 13141 C 1216.26 -3.08405 5.44644 0
M  V30 13142 H 1216.49 -0.744843 2.87818 0
M  V30 13143 H 1214.02 -0.270698 1.52008 0
M  V30 13144 H 1215.98 -3.2187 2.54774 0
M  V30 13145 H 1214.64 -2.77794 1.46592 0
M  V30 13146 H 1213.83 -3.33175 3.78167 0
M  V30 13147 H 1213.44 -1.65109 3.35582 0
M  V30 13148 H 1215.73 -4.04727 5.43325 0
M  V30 13149 H 1216.67 -2.9147 6.4533 0
M  V30 13150 H 1217.08 -3.0947 4.72111 0
M  V30 13151 N 1216.48 -1.54033 -0.333429 0
M  V30 13152 C 1217.39 -1.85737 -1.43314 0
M  V30 13153 C 1218.4 -0.748398 -1.57083 0
M  V30 13154 O 1219.58 -1.04171 -1.72367 0
M  V30 13155 C 1216.64 -2.06942 -2.78165 0
M  V30 13156 C 1215.7 -3.30774 -2.73655 0
M  V30 13157 C 1214.94 -3.50957 -4.02075 0
M  V30 13158 O 1215.16 -2.74774 -4.99855 0
M  V30 13159 O 1214.09 -4.44412 -4.05933 0
M  V30 13160 H 1217.92 -2.7923 -1.19434 0
M  V30 13161 H 1215.51 -1.39814 -0.526546 0
M  V30 13162 H 1217.39 -2.22276 -3.58011 0
M  V30 13163 H 1216.06 -1.16638 -3.01956 0
M  V30 13164 H 1214.97 -3.20835 -1.92395 0
M  V30 13165 H 1216.3 -4.21103 -2.54819 0
M  V30 13166 N 1217.95 0.594978 -1.45938 0
M  V30 13167 C 1218.88 1.71536 -1.58422 0
M  V30 13168 C 1219.87 1.64441 -0.435116 0
M  V30 13169 O 1221.05 1.82647 -0.659839 0
M  V30 13170 C 1218.18 3.10163 -1.56257 0
M  V30 13171 C 1217.13 3.3208 -2.70013 0
M  V30 13172 C 1216.46 4.71108 -2.52905 0
M  V30 13173 C 1217.76 3.21105 -4.11933 0
M  V30 13174 H 1219.45 1.61344 -2.52207 0
M  V30 13175 H 1217 0.774791 -1.2138 0
M  V30 13176 H 1218.95 3.88352 -1.63587 0
M  V30 13177 H 1217.68 3.21225 -0.590093 0
M  V30 13178 H 1216.34 2.56286 -2.62132 0
M  V30 13179 H 1215.98 4.7892 -1.53768 0
M  V30 13180 H 1215.68 4.86727 -3.29197 0
M  V30 13181 H 1217.21 5.51482 -2.62107 0
M  V30 13182 H 1218.62 3.89153 -4.2099 0
M  V30 13183 H 1217.02 3.4825 -4.88715 0
M  V30 13184 H 1218.09 2.18359 -4.32952 0
M  V30 13185 N 1219.43 1.33438 0.838571 0
M  V30 13186 C 1220.66 1.28097 1.63113 0
M  V30 13187 C 1221.08 -0.145197 1.87539 0
M  V30 13188 O 1220.44 -1.10191 1.43971 0
M  V30 13189 C 1220.49 2.06201 2.95827 0
M  V30 13190 O 1219.59 1.42082 3.87152 0
M  V30 13191 H 1218.93 0.440685 0.496681 0
M  V30 13192 H 1221.46 1.76004 1.04325 0
M  V30 13193 H 1221.47 2.16977 3.45521 0
M  V30 13194 H 1220.15 3.099 2.77371 0
M  V30 13195 H 1218.73 1.39953 3.45641 0
M  V30 13196 N 1220.91 -1.05686 1.16912 0
M  V30 13197 C 1222.16 -1.78597 0.954425 0
M  V30 13198 C 1222.49 -1.87494 -0.517315 0
M  V30 13199 O 1221.74 -1.36736 -1.40006 0
M  V30 13200 C 1222.04 -3.22779 1.53455 0
M  V30 13201 C 1221.71 -3.3395 3.02965 0
M  V30 13202 C 1220.37 -3.36706 3.43777 0
M  V30 13203 C 1222.72 -3.35371 3.98969 0
M  V30 13204 C 1220.05 -3.38506 4.79198 0
M  V30 13205 C 1222.4 -3.38708 5.34284 0
M  V30 13206 C 1221.06 -3.39749 5.74567 0
M  V30 13207 H 1220.33 -0.653534 0.349249 0
M  V30 13208 H 1222.98 -1.24245 1.45723 0
M  V30 13209 H 1221.29 -3.80025 0.953331 0
M  V30 13210 H 1222.98 -3.77805 1.34404 0
M  V30 13211 H 1219.57 -3.32515 2.70429 0
M  V30 13212 H 1223.76 -3.32447 3.685 0
M  V30 13213 H 1219.01 -3.37619 5.09729 0
M  V30 13214 H 1223.19 -3.38755 6.08455 0
M  V30 13215 H 1220.81 -3.40897 6.7948 0
M  V30 13216 N 1222.39 -0.968567 -1.24324 0
M  V30 13217 C 1223.64 -0.629682 -1.9204 0
M  V30 13218 C 1223.96 0.837906 -1.7608 0
M  V30 13219 O 1223.23 1.5982 -1.13289 0
M  V30 13220 H 1221.81 -0.229901 -0.710742 0
M  V30 13221 H 1224.47 -1.22982 -1.512 0
M  V30 13222 H 1223.57 -0.871034 -2.99699 0
M  V30 13223 N 1223.87 1.39211 -0.738786 0
M  V30 13224 C 1225.12 1.99673 -0.285254 0
M  V30 13225 C 1225.43 1.59297 1.13507 0
M  V30 13226 O 1226.63 2.12622 1.68832 0
M  V30 13227 C 1225.09 3.5696 -0.45906 0
M  V30 13228 C 1224.7 4.06297 -1.88751 0
M  V30 13229 C 1226.44 4.24446 -0.0674954 0
M  V30 13230 C 1224.35 5.56171 -2.01067 0
M  V30 13231 H 1223.28 0.746945 -0.102901 0
M  V30 13232 H 1225.93 1.59163 -0.913209 0
M  V30 13233 H 1224.31 3.95285 0.23785 0
M  V30 13234 H 1225.49 3.79297 -2.61669 0
M  V30 13235 H 1223.8 3.51486 -2.23264 0
M  V30 13236 H 1226.4 5.34521 -0.138475 0
M  V30 13237 H 1226.74 4.04653 0.977823 0
M  V30 13238 H 1227.27 3.91309 -0.715704 0
M  V30 13239 H 1224.01 5.80849 -3.03801 0
M  V30 13240 H 1223.53 5.84961 -1.32591 0
M  V30 13241 H 1225.21 6.21642 -1.79362 0
M  V30 13242 N 1225.34 0.486708 1.49896 0
M  V30 13243 C 1226.29 -0.318255 2.25768 0
M  V30 13244 C 1227.28 -0.94799 1.30008 0
M  V30 13245 O 1228.47 -0.857954 1.54816 0
M  V30 13246 C 1225.6 -1.39057 3.13876 0
M  V30 13247 C 1224.69 -0.767787 4.17092 0
M  V30 13248 N 1225.08 0.121163 5.05655 0
M  V30 13249 C 1223.37 -1.02999 4.33944 0
M  V30 13250 C 1224.08 0.47621 5.79747 0
M  V30 13251 N 1223.05 -0.152422 5.43386 0
M  V30 13252 H 1226.85 0.366294 2.91608 0
M  V30 13253 H 1224.37 0.301852 1.5957 0
M  V30 13254 H 1226.36 -1.98056 3.6685 0
M  V30 13255 H 1225.02 -2.07694 2.49586 0
M  V30 13256 H 1226.04 0.491043 5.15567 0
M  V30 13257 H 1222.71 -1.71018 3.80866 0
M  V30 13258 H 1224.1 1.20262 6.6105 0
M  V30 13259 N 1226.82 -1.56058 0.219941 0
M  V30 13260 C 1227.77 -2.16853 -0.704185 0
M  V30 13261 C 1228.76 -1.11639 -1.15869 0
M  V30 13262 O 1229.95 -1.37632 -1.11295 0
M  V30 13263 C 1227.08 -2.85073 -1.9128 0
M  V30 13264 C 1226.16 -3.9751 -1.47805 0
M  V30 13265 N 1226.56 -5.00121 -0.755792 0
M  V30 13266 C 1224.85 -4.0957 -1.76546 0
M  V30 13267 C 1225.55 -5.79241 -0.534332 0
M  V30 13268 N 1224.53 -5.32549 -1.09055 0
M  V30 13269 H 1228.33 -2.93547 -0.143914 0
M  V30 13270 H 1225.85 -1.62386 0.021133 0
M  V30 13271 H 1227.84 -3.27037 -2.58558 0
M  V30 13272 H 1226.5 -2.09874 -2.47756 0
M  V30 13273 H 1227.51 -5.16285 -0.408647 0
M  V30 13274 H 1224.19 -3.45521 -2.34353 0
M  V30 13275 H 1225.58 -6.71888 0.0404032 0
M  V30 13276 N 1228.3 0.053464 -1.57509 0
M  V30 13277 C 1229.53 0.760429 -1.92096 0
M  V30 13278 C 1229.94 1.70703 -0.815905 0
M  V30 13279 O 1229.28 1.82398 0.218332 0
M  V30 13280 C 1229.34 1.59255 -3.22301 0
M  V30 13281 C 1229.01 0.813355 -4.49704 0
M  V30 13282 C 1230.01 0.124402 -5.19751 0
M  V30 13283 C 1227.69 0.775106 -4.96284 0
M  V30 13284 C 1229.68 -0.59237 -6.34641 0
M  V30 13285 C 1227.37 0.0545728 -6.11076 0
M  V30 13286 C 1228.37 -0.627948 -6.80107 0
M  V30 13287 O 1228.06 -1.33683 -7.92707 0
M  V30 13288 H 1227.79 0.220287 -0.639101 0
M  V30 13289 H 1230.34 0.0224505 -2.05388 0
M  V30 13290 H 1228.57 2.37376 -3.05269 0
M  V30 13291 H 1230.26 2.17987 -3.42398 0
M  V30 13292 H 1231.03 0.145141 -4.84783 0
M  V30 13293 H 1226.91 1.29583 -4.42413 0
M  V30 13294 H 1230.45 -1.12565 -6.88458 0
M  V30 13295 H 1226.35 0.0318254 -6.45492 0
M  V30 13296 H 1227.12 -1.24799 -8.0893 0
M  V30 13297 N 1229.78 1.54207 0.325255 0
M  V30 13298 C 1230.74 1.82757 1.38321 0
M  V30 13299 C 1231.74 0.699312 1.44797 0
M  V30 13300 O 1232.93 0.96762 1.44854 0
M  V30 13301 C 1230.06 1.98608 2.7707 0
M  V30 13302 H 1231.26 2.7728 1.14261 0
M  V30 13303 H 1228.81 1.45899 0.560647 0
M  V30 13304 H 1229.55 1.0629 3.06387 0
M  V30 13305 H 1229.33 2.80707 2.73763 0
M  V30 13306 H 1230.82 2.2215 3.53609 0
M  V30 13307 N 1231.26 -0.58723 1.46251 0
M  V30 13308 C 1232.51 -1.34294 1.51028 0
M  V30 13309 C 1232.83 -1.94329 0.161623 0
M  V30 13310 O 1232.1 -1.78309 -0.811342 0
M  V30 13311 H 1230.68 -0.498607 0.556238 0
M  V30 13312 H 1233.34 -0.688074 1.8235 0
M  V30 13313 H 1232.43 -2.15197 2.26045 0
M  V30 13314 N 1232.74 -1.33881 -0.831482 0
M  V30 13315 C 1233.68 -1.24748 -1.94182 0
M  V30 13316 C 1234.65 -0.124516 -1.65633 0
M  V30 13317 O 1235.84 -0.304045 -1.88362 0
M  V30 13318 C 1232.98 -1.00016 -3.30289 0
M  V30 13319 C 1232.09 -2.21007 -3.71187 0
M  V30 13320 C 1231.23 -1.89629 -4.962 0
M  V30 13321 C 1230.26 -3.06811 -5.29654 0
M  V30 13322 N 1229.4 -2.75372 -6.45844 0
M  V30 13323 H 1234.24 -2.19709 -2.01325 0
M  V30 13324 H 1231.78 -1.09245 -0.985081 0
M  V30 13325 H 1233.74 -0.837167 -4.08714 0
M  V30 13326 H 1232.37 -0.0872582 -3.22682 0
M  V30 13327 H 1231.42 -2.48256 -2.88224 0
M  V30 13328 H 1232.73 -3.08587 -3.91887 0
M  V30 13329 H 1231.88 -1.70016 -5.82391 0
M  V30 13330 H 1230.62 -0.992964 -4.77485 0
M  V30 13331 H 1229.63 -3.27029 -4.41964 0
M  V30 13332 H 1230.85 -3.97909 -5.50314 0
M  V30 13333 H 1228.8 -1.87607 -6.28601 0
M  V30 13334 H 1228.72 -3.56483 -6.66675 0
M  V30 13335 H 1229.98 -2.59244 -7.35128 0
M  V30 13336 N 1234.21 1.05064 -1.1747 0
M  V30 13337 C 1235.46 1.78352 -0.965311 0
M  V30 13338 C 1235.79 1.87527 0.504707 0
M  V30 13339 O 1235.07 1.376 1.37465 0
M  V30 13340 C 1235.35 3.22173 -1.60862 0
M  V30 13341 C 1235.2 3.21003 -3.15083 0
M  V30 13342 C 1236.52 4.2004 -1.31358 0
M  V30 13343 H 1233.64 0.647452 -0.352101 0
M  V30 13344 H 1236.28 1.22794 -1.44988 0
M  V30 13345 H 1234.43 3.69613 -1.19658 0
M  V30 13346 H 1236.11 2.81629 -3.65353 0
M  V30 13347 H 1234.35 2.59309 -3.47766 0
M  V30 13348 H 1235.02 4.22516 -3.55224 0
M  V30 13349 H 1237.5 3.81099 -1.6704 0
M  V30 13350 H 1236.37 5.1891 -1.78953 0
M  V30 13351 H 1236.63 4.41477 -0.234606 0
M  V30 13352 N 1235.69 0.975146 1.23809 0
M  V30 13353 C 1236.62 0.530389 2.27396 0
M  V30 13354 C 1237.6 -0.433763 1.64476 0
M  V30 13355 O 1238.79 -0.32827 1.91405 0
M  V30 13356 C 1235.92 -0.173066 3.46869 0
M  V30 13357 C 1234.87 0.707844 4.22106 0
M  V30 13358 C 1234.2 -0.127527 5.34548 0
M  V30 13359 C 1235.5 1.99609 4.82652 0
M  V30 13360 H 1237.19 1.39622 2.64851 0
M  V30 13361 H 1234.74 0.672802 1.27316 0
M  V30 13362 H 1236.69 -0.495481 4.18477 0
M  V30 13363 H 1235.41 -1.0733 3.0846 0
M  V30 13364 H 1234.07 1.01364 3.52308 0
M  V30 13365 H 1233.72 -1.02814 4.9238 0
M  V30 13366 H 1233.42 0.458728 5.85807 0
M  V30 13367 H 1234.95 -0.444443 6.0898 0
M  V30 13368 H 1236.36 1.73878 5.46296 0
M  V30 13369 H 1234.76 2.52969 5.44175 0
M  V30 13370 H 1235.83 2.68629 4.03691 0
M  V30 13371 N 1237.17 -1.38817 0.746158 0
M  V30 13372 C 1238.4 -2.04274 0.309156 0
M  V30 13373 C 1238.81 -1.56389 -1.06486 0
M  V30 13374 O 1238.15 -0.728875 -1.68621 0
M  V30 13375 C 1238.21 -3.58664 0.245003 0
M  V30 13376 C 1237.88 -4.29574 1.55933 0
M  V30 13377 C 1238.87 -4.55454 2.50714 0
M  V30 13378 C 1236.56 -4.67907 1.82671 0
M  V30 13379 C 1238.55 -5.18691 3.70458 0
M  V30 13380 C 1236.24 -5.30869 3.0269 0
M  V30 13381 C 1237.24 -5.56195 3.96404 0
M  V30 13382 O 1236.93 -6.17848 5.14314 0
M  V30 13383 H 1236.66 -0.663162 0.131121 0
M  V30 13384 H 1239.21 -1.78636 1.01382 0
M  V30 13385 H 1237.44 -3.83244 -0.515847 0
M  V30 13386 H 1239.13 -4.05579 -0.16149 0
M  V30 13387 H 1239.9 -4.26276 2.3133 0
M  V30 13388 H 1235.78 -4.47544 1.10568 0
M  V30 13389 H 1239.32 -5.38375 4.4362 0
M  V30 13390 H 1235.22 -5.59469 3.2197 0
M  V30 13391 H 1235.98 -6.36338 5.14797 0
M  V30 13392 N 1238.65 -0.49465 -1.49636 0
M  V30 13393 C 1239.6 0.300929 -2.30645 0
M  V30 13394 C 1240.59 0.968687 -1.38971 0
M  V30 13395 O 1241.8 0.897101 -1.56052 0
M  V30 13396 H 1238.17 0.1159 -0.743015 0
M  V30 13397 H 1240.14 -0.402387 -2.95674 0
M  V30 13398 C 1238.89 1.35638 -3.20153 0
M  V30 13399 H 1238.21 0.851946 -3.90617 0
M  V30 13400 H 1239.65 1.88515 -3.79787 0
M  V30 13401 C 1238.11 2.37112 -2.39331 0
M  V30 13402 O 1238.64 3.42867 -2.09298 0
M  V30 13403 N 1236.85 2.09421 -2.01473 0
M  V30 13404 H 1236.4 1.23441 -2.26097 0
M  V30 13405 H 1236.35 2.77545 -1.47703 0
M  V30 13406 N 1240.13 1.55939 -0.228214 0
M  V30 13407 C 1241.09 2.1932 0.665681 0
M  V30 13408 C 1242.09 1.15699 1.11671 0
M  V30 13409 O 1243.28 1.40893 1.02444 0
M  V30 13410 C 1240.41 2.82185 1.9127 0
M  V30 13411 H 1241.6 2.99687 0.112986 0
M  V30 13412 H 1239.16 1.56285 0.0213865 0
M  V30 13413 H 1239.89 2.05706 2.5071 0
M  V30 13414 H 1239.68 3.58073 1.5977 0
M  V30 13415 H 1241.17 3.30748 2.54942 0
M  V30 13416 N 1241.6 -0.0451101 1.57535 0
M  V30 13417 C 1242.83 -0.755068 1.93167 0
M  V30 13418 C 1243.25 -1.68949 0.826915 0
M  V30 13419 O 1242.61 -1.79978 -0.218534 0
M  V30 13420 C 1242.66 -1.50201 3.27829 0
M  V30 13421 O 1241.76 -2.61434 3.18945 0
M  V30 13422 H 1241.11 -0.204219 0.631815 0
M  V30 13423 H 1243.64 -0.00537504 2.04599 0
M  V30 13424 H 1243.65 -1.87547 3.6234 0
M  V30 13425 H 1242.32 -0.816591 4.07805 0
M  V30 13426 H 1240.9 -2.26749 2.96039 0
M  V30 13427 N 1243.08 -1.54377 -0.317073 0
M  V30 13428 C 1244.33 -1.72551 -1.05216 0
M  V30 13429 C 1244.65 -0.5055 -1.88334 0
M  V30 13430 O 1243.92 0.480439 -1.89917 0
M  V30 13431 H 1242.5 -0.636222 -0.391447 0
M  V30 13432 H 1245.16 -1.91696 -0.35194 0
M  V30 13433 H 1244.26 -2.60791 -1.71448 0
M  V30 13434 N 1244.56 0.579466 -1.4656 0
M  V30 13435 C 1245.81 1.33756 -1.52038 0
M  V30 13436 C 1246.14 1.93725 -0.173423 0
M  V30 13437 O 1245.39 1.77167 0.831293 0
M  V30 13438 C 1245.69 2.48417 -2.56951 0
M  V30 13439 C 1245.36 2.0642 -4.00876 0
M  V30 13440 C 1244.02 1.94682 -4.4006 0
M  V30 13441 C 1246.37 1.74066 -4.91274 0
M  V30 13442 C 1243.7 1.48852 -5.67503 0
M  V30 13443 C 1246.05 1.29714 -6.19158 0
M  V30 13444 C 1244.71 1.16555 -6.57245 0
M  V30 13445 H 1243.98 0.489447 -0.556347 0
M  V30 13446 H 1246.63 0.652176 -1.80053 0
M  V30 13447 H 1244.94 3.22416 -2.2261 0
M  V30 13448 H 1246.63 3.06629 -2.58418 0
M  V30 13449 H 1243.22 2.16492 -3.69904 0
M  V30 13450 H 1247.41 1.82019 -4.61717 0
M  V30 13451 H 1242.66 1.3731 -5.95782 0
M  V30 13452 H 1246.84 1.03734 -6.88631 0
M  V30 13453 H 1244.46 0.808193 -7.55892 0
M  V30 13454 N 1246.04 1.3432 0.824371 0
M  V30 13455 C 1246.97 1.2842 1.95014 0
M  V30 13456 C 1247.95 0.161925 1.69328 0
M  V30 13457 O 1249.13 0.354052 1.90945 0
M  V30 13458 C 1246.26 1.03741 3.31444 0
M  V30 13459 C 1245.22 2.12419 3.71567 0
M  V30 13460 C 1244.54 1.72931 5.05963 0
M  V30 13461 C 1245.84 3.54235 3.83817 0
M  V30 13462 H 1247.54 2.22614 2.00209 0
M  V30 13463 H 1245.08 1.07165 0.961856 0
M  V30 13464 H 1247.04 0.982586 4.09784 0
M  V30 13465 H 1245.76 0.0598892 3.26545 0
M  V30 13466 H 1244.42 2.16968 2.955 0
M  V30 13467 H 1244.07 0.738433 4.9755 0
M  V30 13468 H 1243.77 2.45668 5.3378 0
M  V30 13469 H 1245.29 1.68941 5.86763 0
M  V30 13470 H 1246.71 3.52106 4.52432 0
M  V30 13471 H 1245.1 4.25581 4.23085 0
M  V30 13472 H 1246.17 3.91682 2.85856 0
M  V30 13473 N 1247.52 -1.0444 1.18026 0
M  V30 13474 C 1248.48 -2.10532 0.906028 0
M  V30 13475 C 1249.48 -1.60443 -0.107022 0
M  V30 13476 O 1250.67 -1.73744 0.126001 0
M  V30 13477 C 1247.8 -3.39008 0.358625 0
M  V30 13478 H 1248.99 -2.36293 1.84677 0
M  V30 13479 H 1246.55 -1.20805 0.991763 0
M  V30 13480 H 1247.28 -3.18908 -0.588904 0
M  V30 13481 H 1247.07 -3.76678 1.08884 0
M  V30 13482 H 1248.56 -4.17189 0.185331 0
M  V30 13483 N 1248.99 -0.981699 -1.2329 0
M  V30 13484 C 1249.94 -0.52269 -2.24803 0
M  V30 13485 C 1250.91 0.439116 -1.6019 0
M  V30 13486 O 1252.1 0.346372 -1.8763 0
M  V30 13487 C 1249.24 0.167477 -3.44693 0
M  V30 13488 C 1248.35 -0.834744 -4.23858 0
M  V30 13489 C 1247.48 -0.119249 -5.31066 0
M  V30 13490 C 1246.52 -1.1106 -6.0194 0
M  V30 13491 N 1245.66 -0.424167 -7.00818 0
M  V30 13492 H 1250.5 -1.39312 -2.63431 0
M  V30 13493 H 1248.04 -0.698061 -1.29482 0
M  V30 13494 H 1250 0.584442 -4.13086 0
M  V30 13495 H 1248.63 1.00177 -3.06862 0
M  V30 13496 H 1247.68 -1.37009 -3.5487 0
M  V30 13497 H 1248.99 -1.59012 -4.72776 0
M  V30 13498 H 1248.14 0.355015 -6.0566 0
M  V30 13499 H 1246.88 0.668714 -4.83094 0
M  V30 13500 H 1245.89 -1.5956 -5.26138 0
M  V30 13501 H 1247.11 -1.89924 -6.52001 0
M  V30 13502 H 1245.06 0.344564 -6.55094 0
M  V30 13503 H 1244.98 -1.11817 -7.47685 0
M  V30 13504 H 1246.24 0.0276655 -7.79495 0
M  V30 13505 N 1250.47 1.3842 -0.753509 0
M  V30 13506 C 1251.42 2.32315 -0.115107 0
M  V30 13507 C 1252.41 1.54015 0.705398 0
M  V30 13508 O 1253.62 1.69546 0.604505 0
M  V30 13509 H 1250 0.751774 -0.0184276 0
M  V30 13510 H 1251.97 2.83763 -0.923094 0
M  V30 13511 C 1250.72 3.39206 0.763849 0
M  V30 13512 H 1250.04 3.99548 0.14187 0
M  V30 13513 H 1251.48 4.07312 1.17783 0
M  V30 13514 C 1249.94 2.77771 1.90643 0
M  V30 13515 O 1250.47 2.67073 3.00058 0
M  V30 13516 N 1248.67 2.35582 1.70145 0
M  V30 13517 H 1248.22 2.44483 0.811528 0
M  V30 13518 H 1248.18 1.9482 2.46764 0
M  V30 13519 N 1251.95 0.502579 1.49372 0
M  V30 13520 C 1253.37 0.158641 1.5881 0
M  V30 13521 C 1253.57 -1.33688 1.50764 0
M  V30 13522 O 1252.62 -2.11295 1.38241 0
M  V30 13523 C 1253.94 0.736843 2.91532 0
M  V30 13524 C 1255.48 0.703093 3.05001 0
M  V30 13525 C 1255.96 1.25938 4.40345 0
M  V30 13526 N 1257.45 1.22015 4.46841 0
M  V30 13527 C 1258.18 1.62076 5.50017 0
M  V30 13528 N 1257.68 2.09736 6.6029 0
M  V30 13529 N 1259.47 1.53482 5.4074 0
M  V30 13530 H 1251.62 1.47487 1.52844 0
M  V30 13531 H 1253.89 0.611851 0.724115 0
M  V30 13532 H 1253.59 1.78573 3.02992 0
M  V30 13533 H 1253.47 0.198178 3.76679 0
M  V30 13534 H 1255.85 -0.336965 2.9317 0
M  V30 13535 H 1255.94 1.27892 2.21534 0
M  V30 13536 H 1255.58 2.29823 4.52928 0
M  V30 13537 H 1255.51 0.659481 5.22454 0
M  V30 13538 H 1258 0.870957 3.67726 0
M  V30 13539 H 1258.31 2.3837 7.35119 0
M  V30 13540 H 1256.66 2.13712 6.61326 0
M  V30 13541 H 1259.85 1.16065 4.53483 0
M  V30 13542 H 1260.02 1.85026 6.21023 0
M  V30 13543 N 1253.43 -1.55816 0.23648 0
M  V30 13544 C 1254.71 -1.90565 -0.440933 0
M  V30 13545 C 1255.09 -1.15585 -1.76645 0
M  V30 13546 O 1254.43 -0.269949 -2.269 0
M  V30 13547 C 1254.64 -3.43462 -0.61925 0
M  V30 13548 C 1255.99 -4.14516 -0.91989 0
M  V30 13549 O 1257.02 -3.49144 -0.705496 0
M  V30 13550 O 1255.87 -5.3013 -1.32759 0
M  V30 13551 H 1252.97 -0.79285 -0.235199 0
M  V30 13552 H 1255.51 -1.67378 0.279774 0
M  V30 13553 H 1254.29 -3.90029 0.315124 0
M  V30 13554 H 1253.91 -3.72478 -1.39089 0
M  V30 13555 N 1254.91 0.036755 -1.57557 0
M  V30 13556 C 1256.13 0.741086 -1.93172 0
M  V30 13557 C 1256.55 1.69303 -0.835589 0
M  V30 13558 O 1255.91 1.81523 0.1886 0
M  V30 13559 C 1255.96 1.50477 -3.28693 0
M  V30 13560 O 1255.68 0.591046 -4.34095 0
M  V30 13561 C 1257.18 2.30695 -3.78543 0
M  V30 13562 H 1254.4 0.208731 -0.637709 0
M  V30 13563 H 1256.94 -0.00342776 -2.045 0
M  V30 13564 H 1255.1 2.20123 -3.18786 0
M  V30 13565 H 1255.51 1.12579 -5.12276 0
M  V30 13566 H 1256.99 2.79685 -4.759 0
M  V30 13567 H 1257.46 3.11778 -3.0934 0
M  V30 13568 H 1258.07 1.66138 -3.91508 0
M  V30 13569 N 1256.39 1.54543 0.308881 0
M  V30 13570 C 1257.32 1.87947 1.38557 0
M  V30 13571 C 1258.3 0.737622 1.53275 0
M  V30 13572 O 1259.48 0.992664 1.66913 0
M  V30 13573 C 1256.61 2.11982 2.75102 0
M  V30 13574 C 1255.57 3.2783 2.75158 0
M  V30 13575 C 1254.89 3.37266 4.14917 0
M  V30 13576 C 1256.19 4.65129 2.37598 0
M  V30 13577 H 1257.89 2.78123 1.1085 0
M  V30 13578 H 1255.43 1.3382 0.531808 0
M  V30 13579 H 1257.38 2.33935 3.50503 0
M  V30 13580 H 1256.11 1.18569 3.04317 0
M  V30 13581 H 1254.77 3.05787 2.02212 0
M  V30 13582 H 1254.42 2.41384 4.41296 0
M  V30 13583 H 1254.12 4.15135 4.15857 0
M  V30 13584 H 1255.64 3.61471 4.92109 0
M  V30 13585 H 1257.05 4.86865 3.02714 0
M  V30 13586 H 1255.45 5.45653 2.49765 0
M  V30 13587 H 1256.52 4.6638 1.32731 0
M  V30 13588 N 1257.86 -0.571685 1.46866 0
M  V30 13589 C 1259.27 -1.15383 1.46778 0
M  V30 13590 C 1259.63 -1.95023 0.214576 0
M  V30 13591 O 1258.75 -2.05386 -0.681574 0
M  V30 13592 C 1259.35 -2.09915 2.65935 0
M  V30 13593 C 1257.9 -2.6343 2.68852 0
M  V30 13594 C 1257.05 -1.39517 2.39646 0
M  V30 13595 H 1260 -0.359036 1.54585 0
M  V30 13596 H 1260.02 -2.9356 2.42081 0
M  V30 13597 H 1259.54 -1.51923 3.57129 0
M  V30 13598 H 1257.64 -3.2526 1.8176 0
M  V30 13599 H 1257.75 -3.05412 3.69134 0
M  V30 13600 H 1256.11 -1.69702 1.8993 0
M  V30 13601 H 1256.9 -0.833399 3.33031 0
M  V30 13602 N 1259.34 -1.34755 -0.817236 0
M  V30 13603 C 1260.57 -1.30522 -1.60536 0
M  V30 13604 C 1260.98 0.119541 -1.88421 0
M  V30 13605 O 1260.34 1.06833 -1.47962 0
M  V30 13606 C 1260.39 -2.09939 -2.94292 0
M  V30 13607 O 1260.11 -3.46858 -2.67621 0
M  V30 13608 C 1261.61 -2.13168 -3.88683 0
M  V30 13609 H 1258.83 -0.448789 -0.498828 0
M  V30 13610 H 1261.38 -1.77453 -1.01639 0
M  V30 13611 H 1259.53 -1.66634 -3.49731 0
M  V30 13612 H 1259.95 -3.87979 -3.52949 0
M  V30 13613 H 1261.42 -2.73147 -4.79682 0
M  V30 13614 H 1261.9 -1.12758 -4.24479 0
M  V30 13615 H 1262.5 -2.56587 -3.39181 0
M  V30 13616 N 1260.82 1.03812 -1.18578 0
M  V30 13617 C 1262.1 1.74062 -0.892288 0
M  V30 13618 C 1262.48 2.02267 0.604256 0
M  V30 13619 O 1261.82 1.66988 1.55972 0
M  V30 13620 C 1262.03 3.024 -1.74228 0
M  V30 13621 C 1263.38 3.76088 -1.97087 0
M  V30 13622 O 1264.41 3.12305 -1.71302 0
M  V30 13623 O 1263.27 4.90732 -2.40509 0
M  V30 13624 H 1260.36 0.757567 -0.331695 0
M  V30 13625 H 1262.91 1.09855 -1.29345 0
M  V30 13626 H 1261.68 2.77713 -2.75665 0
M  V30 13627 H 1261.3 3.74346 -1.3398 0
M  V30 13628 N 1262.3 0.988223 1.22768 0
M  V30 13629 C 1263.55 0.656941 1.90702 0
M  V30 13630 C 1263.86 -0.814058 1.77855 0
M  V30 13631 O 1265.07 -1.25673 2.40663 0
M  V30 13632 C 1263.52 1.12445 3.41883 0
M  V30 13633 C 1263.13 2.62034 3.63376 0
M  V30 13634 C 1264.87 0.867277 4.15546 0
M  V30 13635 C 1262.78 3.02412 5.08233 0
M  V30 13636 H 1261.71 0.242012 0.714105 0
M  V30 13637 H 1264.36 1.19716 1.39069 0
M  V30 13638 H 1262.74 0.512386 3.92671 0
M  V30 13639 H 1263.92 3.28546 3.23101 0
M  V30 13640 H 1262.23 2.85583 3.03037 0
M  V30 13641 H 1264.83 1.14471 5.22303 0
M  V30 13642 H 1265.17 -0.196611 4.15835 0
M  V30 13643 H 1265.71 1.4413 3.70771 0
M  V30 13644 H 1262.44 4.07957 5.1308 0
M  V30 13645 H 1261.96 2.406 5.49429 0
M  V30 13646 H 1263.64 2.93452 5.76624 0
M  V30 13647 N 1263.78 -1.38018 0.760839 0
M  V30 13648 C 1265.02 -2.00248 0.320716 0
M  V30 13649 C 1265.35 -1.60259 -1.09684 0
M  V30 13650 O 1264.63 -0.843567 -1.75255 0
M  V30 13651 C 1264.91 -3.57254 0.451849 0
M  V30 13652 C 1264.77 -4.07185 1.91103 0
M  V30 13653 C 1266.08 -4.39843 -0.150439 0
M  V30 13654 H 1263.2 -0.727491 0.118007 0
M  V30 13655 H 1265.85 -1.63855 0.961842 0
M  V30 13656 H 1264 -3.88386 -0.0939672 0
M  V30 13657 H 1265.67 -3.86665 2.51571 0
M  V30 13658 H 1263.91 -3.59782 2.42362 0
M  V30 13659 H 1264.58 -5.16262 1.9539 0
M  V30 13660 H 1267.06 -4.14905 0.315145 0
M  V30 13661 H 1265.93 -5.48893 -0.0284853 0
M  V30 13662 H 1266.19 -4.24367 -1.23956 0
M  V30 13663 N 1265.25 -0.510493 -1.49103 0
M  V30 13664 C 1266.18 0.251999 -2.32136 0
M  V30 13665 C 1267.16 0.953613 -1.40855 0
M  V30 13666 O 1268.35 0.943178 -1.69758 0
M  V30 13667 C 1265.48 1.31118 -3.21598 0
M  V30 13668 C 1264.43 0.72888 -4.21748 0
M  V30 13669 C 1263.76 1.88928 -5.0021 0
M  V30 13670 C 1265.06 -0.286425 -5.21514 0
M  V30 13671 H 1266.75 -0.441102 -2.96133 0
M  V30 13672 H 1264.3 -0.213577 -1.42407 0
M  V30 13673 H 1266.25 1.8524 -3.78503 0
M  V30 13674 H 1264.98 2.0336 -2.55563 0
M  V30 13675 H 1263.64 0.209336 -3.66002 0
M  V30 13676 H 1263.28 2.59961 -4.30615 0
M  V30 13677 H 1262.98 1.50568 -5.67981 0
M  V30 13678 H 1264.51 2.43465 -5.59962 0
M  V30 13679 H 1265.92 0.166997 -5.73057 0
M  V30 13680 H 1264.32 -0.586361 -5.97228 0
M  V30 13681 H 1265.39 -1.19904 -4.69842 0
M  V30 13682 N 1266.73 1.55688 -0.24474 0
M  V30 13683 C 1267.66 2.24272 0.64995 0
M  V30 13684 C 1268.64 1.22226 1.183 0
M  V30 13685 O 1269.83 1.50873 1.22274 0
M  V30 13686 C 1266.96 2.94053 1.84798 0
M  V30 13687 C 1265.91 4.02769 1.44779 0
M  V30 13688 C 1265.24 4.59965 2.72647 0
M  V30 13689 C 1266.54 5.18601 0.62047 0
M  V30 13690 H 1268.23 2.99298 0.0780654 0
M  V30 13691 H 1265.78 1.43955 0.0361069 0
M  V30 13692 H 1267.73 3.40732 2.47951 0
M  V30 13693 H 1266.45 2.16511 2.44521 0
M  V30 13694 H 1265.11 3.56856 0.839609 0
M  V30 13695 H 1264.76 3.79126 3.30564 0
M  V30 13696 H 1264.46 5.33352 2.46596 0
M  V30 13697 H 1265.99 5.09376 3.36703 0
M  V30 13698 H 1267.4 5.61519 1.15625 0
M  V30 13699 H 1265.8 5.98364 0.456097 0
M  V30 13700 H 1266.87 4.83503 -0.367798 0
M  V30 13701 N 1268.21 -0.0283989 1.57574 0
M  V30 13702 C 1269.14 -1.02828 2.09639 0
M  V30 13703 C 1270.12 -1.37668 0.999076 0
M  V30 13704 O 1271.31 -1.4654 1.27435 0
M  V30 13705 C 1268.44 -2.329 2.57633 0
M  V30 13706 C 1267.39 -2.12301 3.71635 0
M  V30 13707 C 1266.72 -3.48138 4.05837 0
M  V30 13708 C 1268.02 -1.50864 5.00037 0
M  V30 13709 H 1269.71 -0.594876 2.93431 0
M  V30 13710 H 1267.26 -0.284701 1.41158 0
M  V30 13711 H 1269.21 -3.03179 2.92678 0
M  V30 13712 H 1267.93 -2.78302 1.70926 0
M  V30 13713 H 1266.59 -1.44454 3.3694 0
M  V30 13714 H 1266.24 -3.9119 3.16195 0
M  V30 13715 H 1265.94 -3.3518 4.82626 0
M  V30 13716 H 1267.46 -4.19779 4.43417 0
M  V30 13717 H 1268.88 -2.11062 5.33035 0
M  V30 13718 H 1267.27 -1.48479 5.81441 0
M  V30 13719 H 1268.34 -0.474541 4.82572 0
M  V30 13720 N 1269.69 -1.54705 -0.300681 0
M  V30 13721 C 1271.1 -1.45926 -0.646359 0
M  V30 13722 C 1271.3 -0.65072 -1.90704 0
M  V30 13723 O 1270.36 -0.158547 -2.52002 0
M  V30 13724 C 1271.67 -2.89889 -0.799059 0
M  V30 13725 C 1273.22 -2.99934 -0.894923 0
M  V30 13726 C 1273.7 -4.45093 -1.07962 0
M  V30 13727 N 1275.19 -4.48804 -1.14581 0
M  V30 13728 C 1275.92 -5.58305 -1.30702 0
M  V30 13729 N 1275.42 -6.77729 -1.43719 0
M  V30 13730 N 1277.21 -5.45994 -1.33593 0
M  V30 13731 H 1269.36 -2.05742 0.527617 0
M  V30 13732 H 1271.62 -0.931817 0.174415 0
M  V30 13733 H 1271.33 -3.51655 0.0563954 0
M  V30 13734 H 1271.2 -3.37325 -1.68796 0
M  V30 13735 H 1273.59 -2.38281 -1.74086 0
M  V30 13736 H 1273.67 -2.55794 0.0179973 0
M  V30 13737 H 1273.32 -5.0734 -0.238444 0
M  V30 13738 H 1273.25 -4.86864 -2.00677 0
M  V30 13739 H 1275.74 -3.62766 -1.05874 0
M  V30 13740 H 1276.05 -7.56937 -1.55776 0
M  V30 13741 H 1274.4 -6.80594 -1.40774 0
M  V30 13742 H 1277.59 -4.51641 -1.23035 0
M  V30 13743 H 1277.76 -6.31381 -1.45813 0
M  V30 13744 N 1271.17 0.563888 -1.47167 0
M  V30 13745 C 1272.39 1.35176 -1.57297 0
M  V30 13746 C 1272.82 1.86794 -0.221235 0
M  V30 13747 O 1272.17 1.62606 0.801809 0
M  V30 13748 C 1272.22 2.50225 -2.59654 0
M  V30 13749 O 1271.33 3.5225 -2.14461 0
M  V30 13750 H 1270.67 0.401795 -0.528637 0
M  V30 13751 H 1273.2 0.682137 -1.92894 0
M  V30 13752 H 1273.21 2.96886 -2.79862 0
M  V30 13753 H 1271.88 2.1201 -3.57805 0
M  V30 13754 H 1270.46 3.1194 -2.04323 0
M  V30 13755 N 1272.64 1.35187 0.810078 0
M  V30 13756 C 1273.87 1.31528 1.60359 0
M  V30 13757 C 1274.29 -0.105385 1.87805 0
M  V30 13758 O 1273.65 -1.07113 1.46276 0
M  V30 13759 C 1273.7 2.12429 2.91386 0
M  V30 13760 O 1272.8 1.50262 3.84051 0
M  V30 13761 H 1272.15 0.451122 0.487222 0
M  V30 13762 H 1274.68 1.78178 1.00568 0
M  V30 13763 H 1274.69 2.24257 3.40841 0
M  V30 13764 H 1273.36 3.15714 2.70735 0
M  V30 13765 H 1271.94 1.47253 3.42594 0
M  V30 13766 N 1274.12 -1.03182 1.19127 0
M  V30 13767 C 1275.4 -1.73586 0.901507 0
M  V30 13768 C 1275.78 -2.02585 -0.593521 0
M  V30 13769 O 1275.13 -1.67813 -1.55084 0
M  V30 13770 C 1275.34 -3.01472 1.75829 0
M  V30 13771 C 1276.69 -3.75037 1.99078 0
M  V30 13772 O 1277.71 -3.11392 1.72956 0
M  V30 13773 O 1276.57 -4.8945 2.43108 0
M  V30 13774 H 1273.66 -0.755797 0.335708 0
M  V30 13775 H 1276.21 -1.09167 1.29925 0
M  V30 13776 H 1274.98 -2.76247 2.77134 0
M  V30 13777 H 1274.6 -3.73631 1.35963 0
M  V30 13778 N 1275.6 -0.99472 -1.22242 0
M  V30 13779 C 1276.55 -0.53946 -2.26258 0
M  V30 13780 C 1277.54 0.410796 -1.64344 0
M  V30 13781 O 1278.75 0.283116 -1.7776 0
M  V30 13782 H 1275.12 -0.156069 -0.735627 0
M  V30 13783 H 1277.09 -1.42814 -2.62005 0
M  V30 13784 C 1275.84 0.12842 -3.47463 0
M  V30 13785 H 1275.17 -0.593727 -3.95367 0
M  V30 13786 H 1276.61 0.410393 -4.22009 0
M  V30 13787 C 1275.07 1.36433 -3.08038 0
M  V30 13788 O 1275.6 2.45953 -3.176 0
M  V30 13789 N 1273.8 1.24026 -2.62804 0
M  V30 13790 H 1273.35 0.349111 -2.55223 0
M  V30 13791 H 1273.31 2.06824 -2.36794 0
M  V30 13792 N 1277.08 1.37613 -0.768148 0
M  V30 13793 C 1278.3 2.04579 -0.340892 0
M  V30 13794 C 1278.73 1.57556 1.02751 0
M  V30 13795 O 1278.09 0.734151 1.65771 0
M  V30 13796 C 1278.13 3.58495 -0.389099 0
M  V30 13797 O 1277.24 4.07838 0.611741 0
M  V30 13798 H 1276.58 0.647246 -0.148216 0
M  V30 13799 H 1279.11 1.75999 -1.04333 0
M  V30 13800 H 1279.12 4.07263 -0.245116 0
M  V30 13801 H 1277.79 3.92076 -1.38742 0
M  V30 13802 H 1276.37 3.70399 0.431173 0
M  V30 13803 N 1278.56 0.518393 1.4883 0
M  V30 13804 C 1279.8 -0.0199348 2.0279 0
M  V30 13805 C 1280.14 -1.35026 1.39576 0
M  V30 13806 O 1279.41 -1.86927 0.537449 0
M  V30 13807 C 1279.69 -0.154184 3.5977 0
M  V30 13808 C 1279.55 1.2005 4.33484 0
M  V30 13809 C 1280.87 -0.886547 4.31078 0
M  V30 13810 H 1277.98 -0.00577061 0.736977 0
M  V30 13811 H 1280.63 0.673178 1.77675 0
M  V30 13812 H 1278.78 -0.74451 3.81299 0
M  V30 13813 H 1280.45 1.83104 4.23404 0
M  V30 13814 H 1278.69 1.78537 3.95357 0
M  V30 13815 H 1279.36 1.05968 5.41733 0
M  V30 13816 H 1281.84 -0.385711 4.14308 0
M  V30 13817 H 1280.71 -0.949355 5.40628 0
M  V30 13818 H 1280.98 -1.93424 3.97542 0
M  V30 13819 N 1280.03 -1.55556 0.252993 0
M  V30 13820 C 1281.28 -1.98267 -0.370571 0
M  V30 13821 C 1281.6 -1.14449 -1.58622 0
M  V30 13822 O 1282.8 -1.472 -2.28132 0
M  V30 13823 C 1281.26 -3.52813 -0.710685 0
M  V30 13824 C 1280.87 -4.45379 0.483908 0
M  V30 13825 C 1282.61 -4.04165 -1.2981 0
M  V30 13826 C 1280.52 -5.91279 0.119611 0
M  V30 13827 H 1279.45 -0.740463 -0.142232 0
M  V30 13828 H 1282.1 -1.8005 0.354169 0
M  V30 13829 H 1280.48 -3.66748 -1.49372 0
M  V30 13830 H 1281.65 -4.43206 1.26116 0
M  V30 13831 H 1279.97 -4.04542 0.986664 0
M  V30 13832 H 1282.57 -5.10696 -1.5841 0
M  V30 13833 H 1282.91 -3.51875 -2.22462 0
M  V30 13834 H 1283.44 -3.93581 -0.577836 0
M  V30 13835 H 1280.18 -6.47619 1.01343 0
M  V30 13836 H 1279.7 -5.96573 -0.621318 0
M  V30 13837 H 1281.38 -6.46322 -0.296052 0
M  V30 13838 N 1281.51 0.0200419 -1.57587 0
M  V30 13839 C 1282.93 0.375834 -1.55112 0
M  V30 13840 C 1283.13 1.76047 -0.980297 0
M  V30 13841 O 1282.18 2.45138 -0.605297 0
M  V30 13842 C 1283.5 0.269418 -2.99491 0
M  V30 13843 C 1285.05 0.345838 -3.11084 0
M  V30 13844 C 1285.52 0.268771 -4.57211 0
M  V30 13845 N 1287.01 0.32729 -4.62042 0
M  V30 13846 C 1287.75 0.290688 -5.72663 0
M  V30 13847 N 1287.24 0.205851 -6.92494 0
M  V30 13848 N 1289.04 0.341082 -5.61064 0
M  V30 13849 H 1281.19 -0.885979 -1.93039 0
M  V30 13850 H 1283.45 -0.337753 -0.885792 0
M  V30 13851 H 1283.16 -0.682452 -3.45015 0
M  V30 13852 H 1283.03 1.0595 -3.62014 0
M  V30 13853 H 1285.42 1.28814 -2.65501 0
M  V30 13854 H 1285.5 -0.47376 -2.51375 0
M  V30 13855 H 1285.14 -0.669906 -5.03463 0
M  V30 13856 H 1285.07 1.10659 -5.14842 0
M  V30 13857 H 1287.56 0.395004 -3.7583 0
M  V30 13858 H 1287.88 0.18327 -7.72583 0
M  V30 13859 H 1286.22 0.171768 -6.94788 0
M  V30 13860 H 1289.41 0.405415 -4.66341 0
M  V30 13861 H 1289.58 0.309091 -6.47262 0
M  V30 13862 N 1282.99 1.54862 0.292472 0
M  V30 13863 C 1283.92 1.82786 1.38282 0
M  V30 13864 C 1284.94 0.711253 1.46441 0
M  V30 13865 O 1286.12 0.988851 1.48607 0
M  V30 13866 C 1283.22 1.95845 2.76582 0
M  V30 13867 C 1282.4 3.2633 2.91252 0
M  V30 13868 C 1281.46 3.29697 4.10105 0
M  V30 13869 O 1280.48 4.03184 4.01785 0
M  V30 13870 N 1281.68 2.557 5.21151 0
M  V30 13871 H 1284.45 2.76891 1.1468 0
M  V30 13872 H 1282.01 1.54541 0.482561 0
M  V30 13873 H 1284 1.95491 3.54352 0
M  V30 13874 H 1282.57 1.08696 2.93094 0
M  V30 13875 H 1281.79 3.39387 2.00525 0
M  V30 13876 H 1283.08 4.12421 2.9797 0
M  V30 13877 H 1282.48 1.95642 5.30792 0
M  V30 13878 H 1281.04 2.61089 5.97223 0
M  V30 13879 N 1284.47 -0.556076 1.47464 0
M  V30 13880 C 1285.4 -1.67275 1.62915 0
M  V30 13881 C 1286.38 -1.63229 0.478562 0
M  V30 13882 O 1287.56 -1.80833 0.708032 0
M  V30 13883 C 1284.69 -3.05911 1.64426 0
M  V30 13884 C 1283.65 -3.24804 2.78722 0
M  V30 13885 C 1282.97 -4.64238 2.65307 0
M  V30 13886 C 1284.27 -3.10071 4.20302 0
M  V30 13887 H 1285.97 -1.54601 2.56396 0
M  V30 13888 H 1283.51 -0.742337 1.23391 0
M  V30 13889 H 1285.47 -3.83878 1.73826 0
M  V30 13890 H 1284.19 -3.19547 0.675053 0
M  V30 13891 H 1282.85 -2.49246 2.68835 0
M  V30 13892 H 1282.5 -4.74675 1.66412 0
M  V30 13893 H 1282.2 -4.77828 3.41986 0
M  V30 13894 H 1283.72 -5.44339 2.76637 0
M  V30 13895 H 1285.14 -3.77855 4.3116 0
M  V30 13896 H 1283.53 -3.3517 4.97776 0
M  V30 13897 H 1284.6 -2.06803 4.38589 0
M  V30 13898 N 1285.95 -1.35615 -0.802897 0
M  V30 13899 C 1287.19 -1.29285 -1.56247 0
M  V30 13900 C 1287.53 0.131474 -1.93754 0
M  V30 13901 O 1286.8 1.08172 -1.61645 0
M  V30 13902 C 1287.08 -2.20285 -2.84863 0
M  V30 13903 C 1286.94 -3.71351 -2.53808 0
M  V30 13904 C 1288.26 -2.10318 -3.86593 0
M  V30 13905 H 1285.38 -0.470972 -0.566882 0
M  V30 13906 H 1288.02 -1.66048 -0.923469 0
M  V30 13907 H 1286.17 -1.89063 -3.39393 0
M  V30 13908 H 1287.84 -4.13031 -2.05433 0
M  V30 13909 H 1286.08 -3.9145 -1.86947 0
M  V30 13910 H 1286.75 -4.30416 -3.4561 0
M  V30 13911 H 1289.23 -2.37772 -3.41473 0
M  V30 13912 H 1288.11 -2.76183 -4.74357 0
M  V30 13913 H 1288.37 -1.08627 -4.28547 0
M  V30 13914 N 1287.43 1.02549 -1.19673 0
M  V30 13915 C 1288.37 2.13015 -0.934209 0
M  V30 13916 C 1289.37 1.69035 0.111208 0
M  V30 13917 O 1290.57 1.79959 -0.0383449 0
M  V30 13918 H 1286.95 0.696015 -0.284722 0
M  V30 13919 H 1288.92 2.32346 -1.87238 0
M  V30 13920 C 1287.67 3.44185 -0.493124 0
M  V30 13921 H 1286.99 3.78447 -1.28911 0
M  V30 13922 H 1288.43 4.22565 -0.348577 0
M  V30 13923 C 1286.89 3.27427 0.793277 0
M  V30 13924 O 1287.42 3.56362 1.85388 0
M  V30 13925 N 1285.63 2.80706 0.751837 0
M  V30 13926 H 1285.17 2.57359 -0.111517 0
M  V30 13927 H 1285.13 2.69874 1.61292 0
M  V30 13928 N 1288.9 1.00119 1.21713 0
M  V30 13929 C 1289.85 0.529464 2.21767 0
M  V30 13930 C 1290.84 -0.406858 1.55671 0
M  V30 13931 O 1292.03 -0.232329 1.75469 0
M  V30 13932 C 1289.16 -0.146336 3.42988 0
M  V30 13933 C 1288.24 0.81078 4.16278 0
M  V30 13934 N 1288.64 1.96204 4.66195 0
M  V30 13935 C 1286.93 0.628371 4.41551 0
M  V30 13936 C 1287.63 2.56346 5.2217 0
M  V30 13937 N 1286.61 1.8454 5.11318 0
M  V30 13938 H 1290.41 1.40738 2.58012 0
M  V30 13939 H 1287.93 0.864518 1.37477 0
M  V30 13940 H 1289.92 -0.501726 4.1387 0
M  V30 13941 H 1288.58 -1.02029 3.08254 0
M  V30 13942 H 1289.59 2.34255 4.61893 0
M  V30 13943 H 1286.27 -0.198819 4.17026 0
M  V30 13944 H 1287.66 3.53688 5.71274 0
M  V30 13945 N 1290.38 -1.37203 0.775435 0
M  V30 13946 C 1291.79 -1.82224 0.406372 0
M  V30 13947 C 1292.14 -1.64587 -1.06796 0
M  V30 13948 O 1291.27 -1.15903 -1.82744 0
M  V30 13949 C 1291.86 -3.30824 0.730819 0
M  V30 13950 C 1290.42 -3.74108 0.414766 0
M  V30 13951 C 1289.57 -2.59679 0.972747 0
M  V30 13952 H 1292.52 -1.25623 0.969775 0
M  V30 13953 H 1292.54 -3.80496 0.0168066 0
M  V30 13954 H 1292.05 -3.43628 1.80392 0
M  V30 13955 H 1290.15 -3.66871 -0.650866 0
M  V30 13956 H 1290.27 -4.70074 0.925595 0
M  V30 13957 H 1288.63 -2.51591 0.396772 0
M  V30 13958 H 1289.41 -2.75274 2.05132 0
M  V30 13959 N 1291.86 -0.526279 -1.48553 0
M  V30 13960 C 1292.79 0.227364 -2.3239 0
M  V30 13961 C 1293.77 0.93862 -1.41859 0
M  V30 13962 O 1294.96 0.925119 -1.70749 0
M  V30 13963 C 1292.09 1.277 -3.22971 0
M  V30 13964 C 1291.04 0.684107 -4.22497 0
M  V30 13965 C 1290.37 1.83612 -5.02186 0
M  V30 13966 C 1291.67 -0.341723 -5.21181 0
M  V30 13967 H 1293.36 -0.472486 -2.95648 0
M  V30 13968 H 1290.91 -0.228669 -1.42173 0
M  V30 13969 H 1292.86 1.81215 -3.80446 0
M  V30 13970 H 1291.58 2.00638 -2.57705 0
M  V30 13971 H 1290.24 0.170505 -3.66203 0
M  V30 13972 H 1289.89 2.55379 -4.33348 0
M  V30 13973 H 1289.59 1.44536 -5.69547 0
M  V30 13974 H 1291.11 2.37513 -5.62512 0
M  V30 13975 H 1292.53 0.106207 -5.73202 0
M  V30 13976 H 1290.92 -0.649673 -5.96573 0
M  V30 13977 H 1291.99 -1.2488 -4.68543 0
M  V30 13978 N 1293.34 1.5542 -0.261239 0
M  V30 13979 C 1294.57 2.03687 0.363225 0
M  V30 13980 C 1294.98 1.14007 1.50492 0
M  V30 13981 O 1294.34 0.157349 1.8182 0
M  V30 13982 C 1294.39 3.51184 0.857435 0
M  V30 13983 O 1294.11 4.37449 -0.238776 0
M  V30 13984 C 1295.61 4.15277 1.55113 0
M  V30 13985 H 1292.83 0.665641 0.0846356 0
M  V30 13986 H 1295.37 2.00761 -0.389288 0
M  V30 13987 H 1293.53 3.54599 1.56008 0
M  V30 13988 H 1293.94 5.24316 0.138821 0
M  V30 13989 H 1295.42 5.20129 1.8485 0
M  V30 13990 H 1295.89 3.62619 2.47799 0
M  V30 13991 H 1296.5 4.15826 0.892695 0
M  V30 13992 N 1294.82 -0.0116844 1.57596 0
M  V30 13993 C 1295.76 -1.00684 2.07681 0
M  V30 13994 C 1296.73 -1.34858 0.969666 0
M  V30 13995 O 1297.92 -1.44896 1.24136 0
M  V30 13996 C 1295.06 -2.29729 2.57524 0
M  V30 13997 C 1294.17 -2.0156 3.82096 0
M  V30 13998 C 1293.31 -3.24601 4.20485 0
M  V30 13999 C 1292.34 -2.92066 5.37925 0
M  V30 14000 N 1291.48 -4.0761 5.71663 0
M  V30 14001 H 1296.32 -0.572787 2.92443 0
M  V30 14002 H 1293.86 -0.271184 1.44579 0
M  V30 14003 H 1295.82 -3.05152 2.84496 0
M  V30 14004 H 1294.45 -2.70824 1.75653 0
M  V30 14005 H 1293.5 -1.16556 3.62103 0
M  V30 14006 H 1294.81 -1.73572 4.67626 0
M  V30 14007 H 1293.96 -4.08379 4.48677 0
M  V30 14008 H 1292.7 -3.55718 3.3364 0
M  V30 14009 H 1291.71 -2.06693 5.09468 0
M  V30 14010 H 1292.93 -2.62209 6.26437 0
M  V30 14011 H 1290.88 -4.38645 4.87777 0
M  V30 14012 H 1290.8 -3.83105 6.51741 0
M  V30 14013 H 1292.06 -4.92211 6.04441 0
M  V30 14014 N 1296.29 -1.55015 -0.284256 0
M  V30 14015 C 1297.52 -1.79102 -1.03586 0
M  V30 14016 C 1297.94 -0.558733 -1.80343 0
M  V30 14017 O 1297.29 0.471925 -1.76293 0
M  V30 14018 C 1297.34 -3.00915 -2.0033 0
M  V30 14019 O 1297.07 -4.19384 -1.26685 0
M  V30 14020 C 1298.57 -3.3752 -2.87394 0
M  V30 14021 H 1295.79 -0.596912 -0.306491 0
M  V30 14022 H 1298.33 -2.02005 -0.31845 0
M  V30 14023 H 1296.49 -2.80171 -2.67549 0
M  V30 14024 H 1296.9 -4.88175 -1.91796 0
M  V30 14025 H 1298.37 -4.25953 -3.51095 0
M  V30 14026 H 1298.85 -2.56418 -3.56576 0
M  V30 14027 H 1299.46 -3.60483 -2.25682 0
M  V30 14028 N 1297.77 0.548248 -1.47757 0
M  V30 14029 C 1299.02 1.30243 -1.54535 0
M  V30 14030 C 1299.34 1.93832 -0.213089 0
M  V30 14031 O 1298.61 1.80397 0.763782 0
M  V30 14032 H 1297.19 0.483684 -0.569262 0
M  V30 14033 H 1299.85 0.639485 -1.8411 0
M  V30 14034 H 1298.95 2.09128 -2.31672 0
M  V30 14035 N 1299.25 1.36039 0.795694 0
M  V30 14036 C 1300.2 1.29902 1.92946 0
M  V30 14037 C 1301.19 0.191943 1.68309 0
M  V30 14038 O 1302.4 0.358577 1.76392 0
M  V30 14039 H 1298.77 0.404252 0.634101 0
M  V30 14040 H 1300.74 2.25663 1.95241 0
M  V30 14041 C 1299.49 1.09887 3.29879 0
M  V30 14042 H 1298.82 1.94318 3.494 0
M  V30 14043 H 1300.26 1.09638 4.0958 0
M  V30 14044 C 1298.71 -0.196802 3.36325 0
M  V30 14045 O 1299.24 -1.18883 3.83705 0
M  V30 14046 N 1297.45 -0.239325 2.89613 0
M  V30 14047 H 1297 0.568571 2.51247 0
M  V30 14048 H 1296.96 -1.10593 2.94307 0
M  V30 14049 N 1300.73 -1.01913 1.20215 0
M  V30 14050 C 1301.66 -2.12282 0.97256 0
M  V30 14051 C 1302.64 -1.6982 -0.0975709 0
M  V30 14052 O 1303.82 -1.94109 0.0594307 0
M  V30 14053 C 1300.95 -3.43369 0.521085 0
M  V30 14054 C 1299.91 -3.99559 1.53417 0
M  V30 14055 C 1299.23 -5.26383 0.93942 0
M  V30 14056 C 1300.53 -4.33241 2.91718 0
M  V30 14057 H 1302.23 -2.31746 1.89563 0
M  V30 14058 H 1299.77 -1.1137 0.912841 0
M  V30 14059 H 1301.73 -4.19963 0.347713 0
M  V30 14060 H 1300.45 -3.23655 -0.437605 0
M  V30 14061 H 1299.11 -3.25069 1.69486 0
M  V30 14062 H 1298.76 -5.02993 -0.0271236 0
M  V30 14063 H 1298.46 -5.64942 1.616 0
M  V30 14064 H 1299.98 -6.05635 0.777059 0
M  V30 14065 H 1301.4 -5.00734 2.79175 0
M  V30 14066 H 1299.79 -4.82907 3.56259 0
M  V30 14067 H 1300.86 -3.42118 3.43633 0
M  V30 14068 N 1302.21 -1.00763 -1.2118 0
M  V30 14069 C 1303.62 -0.724746 -1.72059 0
M  V30 14070 C 1303.97 0.757413 -1.80991 0
M  V30 14071 O 1303.09 1.59152 -1.46627 0
M  V30 14072 C 1303.69 -1.30893 -3.12494 0
M  V30 14073 C 1302.25 -1.07511 -3.60719 0
M  V30 14074 C 1301.39 -1.42014 -2.38175 0
M  V30 14075 H 1304.35 -1.17821 -1.0632 0
M  V30 14076 H 1304.37 -0.694919 -3.741 0
M  V30 14077 H 1303.88 -2.38767 -3.05961 0
M  V30 14078 H 1301.98 -0.0136518 -3.72597 0
M  V30 14079 H 1302.09 -1.74885 -4.4604 0
M  V30 14080 H 1300.46 -0.838972 -2.40486 0
M  V30 14081 H 1301.24 -2.50924 -2.34291 0
M  V30 14082 N 1303.68 1.3679 -0.7827 0
M  V30 14083 C 1304.63 2.27508 -0.149734 0
M  V30 14084 C 1305.62 1.46634 0.662368 0
M  V30 14085 O 1306.81 1.6908 0.523544 0
M  V30 14086 C 1303.94 3.35666 0.719939 0
M  V30 14087 C 1303.03 4.23981 -0.100588 0
M  V30 14088 N 1303.42 4.92513 -1.15173 0
M  V30 14089 C 1301.71 4.45834 0.121653 0
M  V30 14090 C 1302.42 5.57788 -1.65067 0
M  V30 14091 N 1301.39 5.35038 -0.96101 0
M  V30 14092 H 1305.19 2.77973 -0.954365 0
M  V30 14093 H 1302.71 1.50037 -0.62151 0
M  V30 14094 H 1304.7 3.99578 1.18926 0
M  V30 14095 H 1303.36 2.86756 1.52319 0
M  V30 14096 H 1304.38 4.94658 -1.53406 0
M  V30 14097 H 1301.05 4.07773 0.895945 0
M  V30 14098 H 1302.44 6.22534 -2.52787 0
M  V30 14099 N 1305.16 0.53415 1.48272 0
M  V30 14100 C 1306.39 0.00368464 2.074 0
M  V30 14101 C 1306.81 -1.27003 1.38751 0
M  V30 14102 O 1306.17 -1.75502 0.454817 0
M  V30 14103 C 1306.22 -0.199034 3.6005 0
M  V30 14104 O 1305.32 -1.26679 3.92462 0
M  V30 14105 H 1304.66 0.0409936 0.662733 0
M  V30 14106 H 1307.19 0.743253 1.90622 0
M  V30 14107 H 1307.2 -0.420404 4.05828 0
M  V30 14108 H 1305.88 0.731391 4.09418 0
M  V30 14109 H 1304.46 -1.02775 3.58457 0
M  V30 14110 N 1306.64 -1.55279 0.269478 0
M  V30 14111 C 1307.59 -2.22304 -0.620435 0
M  V30 14112 C 1308.56 -1.19457 -1.15409 0
M  V30 14113 O 1309.74 -1.4798 -1.20443 0
M  V30 14114 C 1306.88 -2.94356 -1.80134 0
M  V30 14115 C 1306 -4.1191 -1.30207 0
M  V30 14116 C 1305.13 -4.71621 -2.44433 0
M  V30 14117 C 1304.17 -5.81379 -1.91481 0
M  V30 14118 N 1303.31 -6.35176 -2.99158 0
M  V30 14119 H 1308.15 -2.9797 -0.0422165 0
M  V30 14120 H 1305.68 -1.47097 -0.00907173 0
M  V30 14121 H 1307.64 -3.34343 -2.4954 0
M  V30 14122 H 1306.27 -2.21124 -2.35168 0
M  V30 14123 H 1305.32 -3.77082 -0.501301 0
M  V30 14124 H 1306.64 -4.9108 -0.874183 0
M  V30 14125 H 1305.79 -5.14298 -3.21842 0
M  V30 14126 H 1304.53 -3.91715 -2.90535 0
M  V30 14127 H 1303.53 -5.38157 -1.12549 0
M  V30 14128 H 1304.76 -6.63149 -1.46322 0
M  V30 14129 H 1302.7 -5.58167 -3.44652 0
M  V30 14130 H 1302.62 -7.09602 -2.60769 0
M  V30 14131 H 1303.89 -6.82512 -3.7656 0
M  V30 14132 N 1308.12 0.00332656 -1.576 0
M  V30 14133 C 1309.35 0.699945 -1.94701 0
M  V30 14134 C 1309.76 1.67492 -0.871312 0
M  V30 14135 O 1309.12 1.81882 0.150054 0
M  V30 14136 C 1309.17 1.43471 -3.31811 0
M  V30 14137 O 1308.89 0.498835 -4.35251 0
M  V30 14138 C 1310.39 2.22614 -3.83351 0
M  V30 14139 H 1307.61 0.195158 -0.641993 0
M  V30 14140 H 1310.16 -0.0468044 -2.04446 0
M  V30 14141 H 1308.31 2.13311 -3.23384 0
M  V30 14142 H 1308.72 1.01688 -5.14548 0
M  V30 14143 H 1310.2 2.69527 -4.81725 0
M  V30 14144 H 1310.68 3.05146 -3.15883 0
M  V30 14145 H 1311.28 1.57796 -3.94944 0
M  V30 14146 N 1309.6 1.55164 0.276031 0
M  V30 14147 C 1310.54 1.87836 1.34113 0
M  V30 14148 C 1311.51 0.729562 1.4922 0
M  V30 14149 O 1312.7 0.980549 1.63676 0
M  V30 14150 C 1309.84 2.15313 2.69693 0
M  V30 14151 C 1308.95 3.42845 2.62833 0
M  V30 14152 C 1308.09 3.60038 3.90572 0
M  V30 14153 C 1307.13 4.81273 3.7821 0
M  V30 14154 N 1306.26 4.95139 4.97777 0
M  V30 14155 H 1311.1 2.78681 1.0555 0
M  V30 14156 H 1308.64 1.37976 0.510001 0
M  V30 14157 H 1310.6 2.29243 3.48573 0
M  V30 14158 H 1309.23 1.27706 2.96464 0
M  V30 14159 H 1308.28 3.37403 1.75679 0
M  V30 14160 H 1309.59 4.3186 2.49597 0
M  V30 14161 H 1308.75 3.73769 4.77893 0
M  V30 14162 H 1307.48 2.69203 4.06671 0
M  V30 14163 H 1306.49 4.67549 2.89271 0
M  V30 14164 H 1307.71 5.7354 3.63632 0
M  V30 14165 H 1305.66 4.07234 5.14292 0
M  V30 14166 H 1305.58 5.78194 4.8706 0
M  V30 14167 H 1306.85 5.13253 5.86679 0
M  V30 14168 N 1311.07 -0.540404 1.48045 0
M  V30 14169 C 1312.02 -1.66695 1.62221 0
M  V30 14170 C 1313.02 -1.6219 0.488943 0
M  V30 14171 O 1314.22 -1.67173 0.66732 0
M  V30 14172 H 1310.6 -0.551868 0.510828 0
M  V30 14173 H 1312.57 -1.51879 2.56856 0
M  V30 14174 C 1311.32 -3.05002 1.6694 0
M  V30 14175 H 1310.64 -3.09157 2.53499 0
M  V30 14176 H 1312.08 -3.8347 1.80904 0
M  V30 14177 C 1310.54 -3.34445 0.40598 0
M  V30 14178 O 1311.07 -3.98753 -0.485676 0
M  V30 14179 N 1309.28 -2.8924 0.280857 0
M  V30 14180 H 1308.82 -2.37085 1.00741 0
M  V30 14181 H 1308.78 -3.09309 -0.563493 0
M  V30 14182 N 1312.55 -1.36459 -0.788468 0
M  V30 14183 C 1313.8 -1.30935 -1.54867 0
M  V30 14184 C 1314.13 0.110916 -1.93883 0
M  V30 14185 O 1313.41 1.06452 -1.62783 0
M  V30 14186 C 1313.69 -2.23294 -2.8251 0
M  V30 14187 C 1313.54 -3.74022 -2.49856 0
M  V30 14188 C 1314.86 -2.14407 -3.84341 0
M  V30 14189 H 1311.98 -0.476958 -0.561854 0
M  V30 14190 H 1314.62 -1.67018 -0.905805 0
M  V30 14191 H 1312.77 -1.92652 -3.37369 0
M  V30 14192 H 1314.44 -4.15187 -2.01041 0
M  V30 14193 H 1312.69 -3.93411 -1.82785 0
M  V30 14194 H 1313.36 -4.34057 -3.41026 0
M  V30 14195 H 1315.83 -2.41381 -3.38932 0
M  V30 14196 H 1314.71 -2.81199 -4.71401 0
M  V30 14197 H 1314.97 -1.13166 -4.27371 0
M  V30 14198 N 1314.03 1.01274 -1.20754 0
M  V30 14199 C 1315.28 1.74342 -1.01428 0
M  V30 14200 C 1315.59 1.90265 0.453708 0
M  V30 14201 O 1316.8 2.60465 0.76618 0
M  V30 14202 C 1315.25 3.13588 -1.76609 0
M  V30 14203 C 1314.86 3.05664 -3.27526 0
M  V30 14204 C 1316.61 3.9084 -1.65664 0
M  V30 14205 C 1314.51 4.39942 -3.95228 0
M  V30 14206 H 1313.44 0.653619 -0.375897 0
M  V30 14207 H 1316.09 1.13214 -1.44412 0
M  V30 14208 H 1314.48 3.75281 -1.26413 0
M  V30 14209 H 1315.65 2.53256 -3.84965 0
M  V30 14210 H 1313.97 2.41904 -3.38927 0
M  V30 14211 H 1316.56 4.9019 -2.13583 0
M  V30 14212 H 1316.91 4.11754 -0.61351 0
M  V30 14213 H 1317.44 3.35783 -2.13294 0
M  V30 14214 H 1314.18 4.24229 -4.9971 0
M  V30 14215 H 1313.7 4.92342 -3.42578 0
M  V30 14216 H 1315.38 5.08771 -3.99701 0
M  V30 14217 N 1315.51 1.01404 1.20644 0
M  V30 14218 C 1316.46 0.575388 2.25371 0
M  V30 14219 C 1317.45 -0.384598 1.64976 0
M  V30 14220 O 1318.66 -0.2548 1.78187 0
M  V30 14221 H 1315.03 0.167752 0.733051 0
M  V30 14222 H 1317 1.46964 2.597 0
M  V30 14223 C 1315.75 -0.0731257 3.47623 0
M  V30 14224 H 1315.08 0.656551 3.94372 0
M  V30 14225 H 1316.52 -0.343203 4.22609 0
M  V30 14226 C 1314.97 -1.31515 3.1017 0
M  V30 14227 O 1315.5 -2.40869 3.21473 0
M  V30 14228 N 1313.71 -1.19829 2.64744 0
M  V30 14229 H 1313.26 -0.308463 2.55746 0
M  V30 14230 H 1313.22 -2.0303 2.40054 0
M  V30 14231 N 1316.99 -1.36373 0.789944 0
M  V30 14232 C 1318.22 -2.03187 0.373987 0
M  V30 14233 C 1318.63 -1.59697 -1.01457 0
M  V30 14234 O 1317.97 -0.782151 -1.66217 0
M  V30 14235 C 1318.03 -3.57703 0.358985 0
M  V30 14236 C 1317.69 -4.24396 1.69521 0
M  V30 14237 C 1318.69 -4.47247 2.65077 0
M  V30 14238 C 1316.38 -4.61858 1.97465 0
M  V30 14239 C 1318.37 -5.06642 3.86772 0
M  V30 14240 C 1316.06 -5.2097 3.19426 0
M  V30 14241 C 1317.06 -5.43302 4.13899 0
M  V30 14242 O 1316.74 -6.01173 5.3371 0
M  V30 14243 H 1316.48 -0.658654 0.152153 0
M  V30 14244 H 1319.03 -1.7532 1.07014 0
M  V30 14245 H 1317.26 -3.84691 -0.39366 0
M  V30 14246 H 1318.95 -4.05887 -0.0323762 0
M  V30 14247 H 1319.71 -4.18701 2.44775 0
M  V30 14248 H 1315.59 -4.438 1.2475 0
M  V30 14249 H 1319.14 -5.23989 4.60523 0
M  V30 14250 H 1315.03 -5.48943 3.39606 0
M  V30 14251 H 1315.8 -6.19638 5.34781 0
M  V30 14252 N 1318.47 -0.542005 -1.47987 0
M  V30 14253 C 1319.4 0.25143 -2.27817 0
M  V30 14254 C 1320.41 0.893436 -1.36094 0
M  V30 14255 O 1321.6 0.769849 -1.61045 0
M  V30 14256 C 1318.7 1.37236 -3.0987 0
M  V30 14257 C 1317.87 0.830021 -4.29452 0
M  V30 14258 C 1316.93 1.83356 -4.93221 0
M  V30 14259 O 1315.96 1.38571 -5.52075 0
M  V30 14260 N 1317.16 3.16631 -4.86544 0
M  V30 14261 H 1319.92 -0.433281 -2.96551 0
M  V30 14262 H 1317.49 -0.377099 -1.57447 0
M  V30 14263 H 1319.48 2.04212 -3.49399 0
M  V30 14264 H 1318.05 1.96055 -2.43478 0
M  V30 14265 H 1317.27 -0.0160827 -3.94197 0
M  V30 14266 H 1318.56 0.446762 -5.06835 0
M  V30 14267 H 1317.95 3.55673 -4.39901 0
M  V30 14268 H 1316.51 3.79207 -5.30137 0
M  V30 14269 N 1319.94 1.55134 -0.277709 0
M  V30 14270 C 1320.88 2.18745 0.650058 0
M  V30 14271 C 1321.85 1.14922 1.15029 0
M  V30 14272 O 1323.04 1.43458 1.22278 0
M  V30 14273 C 1320.17 2.81277 1.88683 0
M  V30 14274 C 1319.21 3.98425 1.52185 0
M  V30 14275 S 1320.04 5.32153 0.597782 0
M  V30 14276 C 1321.2 5.98155 1.84287 0
M  V30 14277 H 1321.43 2.97098 0.109571 0
M  V30 14278 H 1318.97 1.54276 -0.0619536 0
M  V30 14279 H 1320.92 3.17934 2.59669 0
M  V30 14280 H 1319.59 2.02813 2.39845 0
M  V30 14281 H 1318.78 4.40877 2.4422 0
M  V30 14282 H 1318.38 3.63203 0.892146 0
M  V30 14283 H 1320.67 6.17546 2.78646 0
M  V30 14284 H 1321.62 6.92857 1.46131 0
M  V30 14285 H 1322.02 5.27541 2.00899 0
M  V30 14286 N 1321.42 0.00503138 1.57599 0
M  V30 14287 C 1322.84 -0.351109 1.5569 0
M  V30 14288 C 1323.04 -1.74465 1.00818 0
M  V30 14289 O 1322.09 -2.44144 0.64422 0
M  V30 14290 C 1323.41 -0.221738 2.99881 0
M  V30 14291 C 1324.95 -0.296303 3.11594 0
M  V30 14292 C 1325.43 -0.195998 4.5758 0
M  V30 14293 N 1326.92 -0.253741 4.62504 0
M  V30 14294 C 1327.66 -0.199546 5.73053 0
M  V30 14295 N 1327.15 -0.0956553 6.92734 0
M  V30 14296 N 1328.94 -0.251779 5.61536 0
M  V30 14297 H 1321.1 0.916578 1.91605 0
M  V30 14298 H 1323.36 0.351802 0.880306 0
M  V30 14299 H 1323.06 0.737255 3.43886 0
M  V30 14300 H 1322.94 -1.00178 3.63654 0
M  V30 14301 H 1325.33 -1.24574 2.67517 0
M  V30 14302 H 1325.41 0.513692 2.50589 0
M  V30 14303 H 1325.05 0.749918 5.02333 0
M  V30 14304 H 1324.98 -1.02455 5.16537 0
M  V30 14305 H 1327.47 -0.335163 3.76411 0
M  V30 14306 H 1327.78 -0.0603357 7.72776 0
M  V30 14307 H 1326.13 -0.0612113 6.94973 0
M  V30 14308 H 1329.32 -0.331173 4.66927 0
M  V30 14309 H 1329.49 -0.206078 6.47672 0
M  V30 14310 N 1322.9 -1.55308 -0.267798 0
M  V30 14311 C 1324.13 -1.80191 -1.01681 0
M  V30 14312 C 1324.54 -0.57783 -1.7974 0
M  V30 14313 O 1323.9 0.4532 -1.76783 0
M  V30 14314 C 1323.95 -3.03023 -1.97127 0
M  V30 14315 O 1323.67 -4.20704 -1.22229 0
M  V30 14316 C 1325.17 -3.40549 -2.83798 0
M  V30 14317 H 1322.39 -0.60013 -0.300142 0
M  V30 14318 H 1324.94 -2.02332 -0.297007 0
M  V30 14319 H 1323.09 -2.82993 -2.64563 0
M  V30 14320 H 1323.51 -4.90181 -1.86608 0
M  V30 14321 H 1324.98 -4.29653 -3.46557 0
M  V30 14322 H 1325.46 -2.60186 -3.53836 0
M  V30 14323 H 1326.06 -3.62856 -2.21846 0
M  V30 14324 N 1324.38 0.532545 -1.4833 0
M  V30 14325 C 1325.6 1.31809 -1.60129 0
M  V30 14326 C 1326.03 1.86283 -0.260807 0
M  V30 14327 O 1325.39 1.6427 0.767137 0
M  V30 14328 C 1325.43 2.44661 -2.64903 0
M  V30 14329 O 1324.54 3.47622 -2.21885 0
M  V30 14330 H 1323.88 0.390492 -0.53704 0
M  V30 14331 H 1326.41 0.641068 -1.94297 0
M  V30 14332 H 1326.42 2.90883 -2.86096 0
M  V30 14333 H 1325.09 2.04373 -3.62222 0
M  V30 14334 H 1323.67 3.07536 -2.10894 0
M  V30 14335 N 1325.86 1.36875 0.78122 0
M  V30 14336 C 1326.77 1.3404 1.92537 0
M  V30 14337 C 1327.78 0.241354 1.72318 0
M  V30 14338 O 1328.96 0.475128 1.95715 0
M  V30 14339 C 1326.02 1.13708 3.27523 0
M  V30 14340 C 1325.08 2.33165 3.60462 0
M  V30 14341 C 1324.32 2.13793 4.89007 0
M  V30 14342 O 1324.54 1.11732 5.5935 0
M  V30 14343 O 1323.47 3.01762 5.20791 0
M  V30 14344 H 1327.3 2.30386 1.97879 0
M  V30 14345 H 1324.88 1.17506 0.922637 0
M  V30 14346 H 1326.77 1.0432 4.08283 0
M  V30 14347 H 1325.44 0.204306 3.23055 0
M  V30 14348 H 1324.35 2.48123 2.79974 0
M  V30 14349 H 1325.68 3.24977 3.69663 0
M  V30 14350 N 1327.33 -1.00632 1.21289 0
M  V30 14351 C 1328.28 -2.09382 0.97097 0
M  V30 14352 C 1329.25 -1.65783 -0.102561 0
M  V30 14353 O 1330.44 -1.90749 0.0442886 0
M  V30 14354 C 1327.58 -3.40844 0.540314 0
M  V30 14355 C 1326.69 -3.97862 1.68314 0
M  V30 14356 C 1325.82 -5.17427 1.20178 0
M  V30 14357 C 1324.86 -5.66552 2.31702 0
M  V30 14358 N 1324 -6.77368 1.84709 0
M  V30 14359 H 1328.84 -2.29411 1.90196 0
M  V30 14360 H 1326.38 -1.12488 0.947885 0
M  V30 14361 H 1328.33 -4.16313 0.271881 0
M  V30 14362 H 1326.96 -3.20857 -0.353677 0
M  V30 14363 H 1326.02 -3.19391 2.06624 0
M  V30 14364 H 1327.33 -4.30314 2.52252 0
M  V30 14365 H 1326.48 -6.00138 0.889926 0
M  V30 14366 H 1325.22 -4.86566 0.332422 0
M  V30 14367 H 1324.23 -4.82438 2.63691 0
M  V30 14368 H 1325.45 -5.99443 3.19131 0
M  V30 14369 H 1323.4 -6.48315 1.00116 0
M  V30 14370 H 1323.31 -7.09067 2.62221 0
M  V30 14371 H 1324.58 -7.63617 1.56554 0
M  V30 14372 N 1328.81 -1.02043 -1.20104 0
M  V30 14373 C 1329.74 -0.614421 -2.25271 0
M  V30 14374 C 1330.72 0.37242 -1.65973 0
M  V30 14375 O 1331.91 0.257005 -1.92492 0
M  V30 14376 C 1329.04 0.0442085 -3.47272 0
M  V30 14377 C 1327.99 -0.864019 -4.19188 0
M  V30 14378 C 1327.32 -0.0709551 -5.34653 0
M  V30 14379 C 1328.62 -2.17385 -4.74912 0
M  V30 14380 H 1330.31 -1.49355 -2.59487 0
M  V30 14381 H 1327.86 -0.719591 -1.24731 0
M  V30 14382 H 1329.81 0.339825 -4.20028 0
M  V30 14383 H 1328.53 0.958082 -3.12231 0
M  V30 14384 H 1327.19 -1.1437 -3.48303 0
M  V30 14385 H 1326.84 0.844688 -4.95857 0
M  V30 14386 H 1326.54 -0.67583 -5.83701 0
M  V30 14387 H 1328.07 0.218118 -6.1021 0
M  V30 14388 H 1329.48 -1.94034 -5.39466 0
M  V30 14389 H 1327.88 -2.72991 -5.34412 0
M  V30 14390 H 1328.95 -2.83427 -3.93443 0
M  V30 14391 N 1330.29 1.35952 -0.797165 0
M  V30 14392 C 1331.54 1.98283 -0.369685 0
M  V30 14393 C 1331.85 1.63968 1.06649 0
M  V30 14394 O 1333.06 2.19591 1.59662 0
M  V30 14395 C 1331.51 3.54692 -0.610046 0
M  V30 14396 C 1331.12 3.97925 -2.05814 0
M  V30 14397 C 1332.87 4.23778 -0.247457 0
M  V30 14398 C 1330.77 5.47142 -2.24475 0
M  V30 14399 H 1329.7 0.741909 -0.134489 0
M  V30 14400 H 1332.35 1.55146 -0.979893 0
M  V30 14401 H 1330.74 3.95938 0.0699822 0
M  V30 14402 H 1331.91 3.67857 -2.77521 0
M  V30 14403 H 1330.23 3.417 -2.37971 0
M  V30 14404 H 1332.82 5.33452 -0.365059 0
M  V30 14405 H 1333.17 4.08436 0.805315 0
M  V30 14406 H 1333.7 3.87921 -0.881028 0
M  V30 14407 H 1330.44 5.67441 -3.28163 0
M  V30 14408 H 1329.96 5.78811 -1.57282 0
M  V30 14409 H 1331.64 6.13475 -2.05567 0
M  V30 14410 N 1331.77 0.549846 1.47697 0
M  V30 14411 C 1332.72 -0.215119 2.31603 0
M  V30 14412 C 1333.71 -0.916441 1.4247 0
M  V30 14413 O 1334.92 -0.838565 1.59274 0
M  V30 14414 H 1331.29 -0.0882441 0.746805 0
M  V30 14415 H 1333.26 0.511847 2.93977 0
M  V30 14416 C 1332.01 -1.23662 3.24966 0
M  V30 14417 H 1331.33 -0.706384 3.9351 0
M  V30 14418 H 1332.77 -1.7429 3.86522 0
M  V30 14419 C 1331.23 -2.28066 2.47967 0
M  V30 14420 O 1331.76 -3.34862 2.21879 0
M  V30 14421 N 1329.97 -2.01799 2.09106 0
M  V30 14422 H 1329.52 -1.14965 2.30523 0
M  V30 14423 H 1329.47 -2.71872 1.57902 0
M  V30 14424 N 1333.25 -1.54984 0.285932 0
M  V30 14425 C 1334.18 -2.25916 -0.590259 0
M  V30 14426 C 1335.16 -1.25319 -1.15018 0
M  V30 14427 O 1336.34 -1.54062 -1.18231 0
M  V30 14428 C 1333.47 -2.98849 -1.76936 0
M  V30 14429 C 1332.43 -4.06466 -1.3405 0
M  V30 14430 C 1331.75 -4.67032 -2.60356 0
M  V30 14431 C 1333.05 -5.20064 -0.482754 0
M  V30 14432 H 1334.75 -2.994 0.00131571 0
M  V30 14433 H 1332.29 -1.44 0.00207281 0
M  V30 14434 H 1334.25 -3.47186 -2.3883 0
M  V30 14435 H 1332.97 -2.22918 -2.38694 0
M  V30 14436 H 1331.63 -3.58957 -0.7447 0
M  V30 14437 H 1331.28 -3.87757 -3.20396 0
M  V30 14438 H 1330.98 -5.39703 -2.32368 0
M  V30 14439 H 1332.5 -5.18124 -3.23079 0
M  V30 14440 H 1333.91 -5.64387 -1.00697 0
M  V30 14441 H 1332.31 -5.99363 -0.297291 0
M  V30 14442 H 1333.38 -4.82358 0.495861 0
M  V30 14443 N 1334.72 -0.0133892 -1.57594 0
M  V30 14444 C 1335.69 0.958601 -2.08191 0
M  V30 14445 C 1336.69 1.26408 -0.993865 0
M  V30 14446 O 1337.88 1.20703 -1.25604 0
M  V30 14447 C 1335.01 2.27971 -2.5346 0
M  V30 14448 H 1336.2 0.520686 -2.95345 0
M  V30 14449 H 1333.76 0.234351 -1.54533 0
M  V30 14450 H 1334.49 2.76424 -1.69588 0
M  V30 14451 H 1334.28 2.07116 -3.32935 0
M  V30 14452 H 1335.77 2.97672 -2.92884 0
M  V30 14453 N 1336.2 1.55448 0.259558 0
M  V30 14454 C 1337.15 1.89248 1.32113 0
M  V30 14455 C 1338.12 0.745348 1.48438 0
M  V30 14456 O 1339.3 0.997854 1.62627 0
M  V30 14457 C 1336.44 2.18161 2.67394 0
M  V30 14458 C 1335.56 3.45614 2.59182 0
M  V30 14459 C 1334.69 3.6416 3.86731 0
M  V30 14460 C 1333.73 4.85258 3.73084 0
M  V30 14461 N 1332.87 5.00391 4.92497 0
M  V30 14462 H 1337.71 2.79785 1.02589 0
M  V30 14463 H 1335.25 1.38509 0.495338 0
M  V30 14464 H 1337.2 2.32927 3.46122 0
M  V30 14465 H 1335.83 1.30843 2.95093 0
M  V30 14466 H 1334.89 3.39248 1.72091 0
M  V30 14467 H 1336.2 4.34483 2.45002 0
M  V30 14468 H 1335.35 3.78817 4.73902 0
M  V30 14469 H 1334.09 2.73501 4.03793 0
M  V30 14470 H 1333.1 4.70591 2.84296 0
M  V30 14471 H 1334.32 5.77365 3.57528 0
M  V30 14472 H 1332.27 4.12666 5.09944 0
M  V30 14473 H 1332.18 5.83328 4.809 0
M  V30 14474 H 1333.45 5.19446 5.81202 0
M  V30 14475 N 1337.68 -0.524672 1.4861 0
M  V30 14476 C 1338.93 -1.27768 1.56588 0
M  V30 14477 C 1339.25 -1.93469 0.243899 0
M  V30 14478 O 1338.52 -1.8159 -0.734985 0
M  V30 14479 H 1337.1 -0.474566 0.576885 0
M  V30 14480 H 1339.76 -0.610114 1.85104 0
M  V30 14481 H 1338.86 -2.05416 2.34969 0
M  V30 14482 N 1339.16 -1.37287 -0.77395 0
M  V30 14483 C 1340.44 -1.2291 -1.52159 0
M  V30 14484 C 1340.82 0.178249 -2.10346 0
M  V30 14485 O 1340.16 1.18564 -1.95333 0
M  V30 14486 C 1340.37 -2.32337 -2.60424 0
M  V30 14487 C 1341.72 -2.69769 -3.27887 0
M  V30 14488 O 1342.75 -2.31497 -2.70717 0
M  V30 14489 O 1341.6 -3.35699 -4.31241 0
M  V30 14490 H 1338.7 -0.47948 -0.673816 0
M  V30 14491 H 1341.24 -1.49061 -0.811105 0
M  V30 14492 H 1340.02 -3.26591 -2.15532 0
M  V30 14493 H 1339.64 -2.07638 -3.39076 0
M  V30 14494 N 1340.64 0.999871 -1.21821 0
M  V30 14495 C 1341.86 1.77405 -1.06467 0
M  V30 14496 C 1342.28 1.84828 0.385227 0
M  V30 14497 O 1341.64 1.31338 1.26714 0
M  V30 14498 C 1341.69 3.21062 -1.66137 0
M  V30 14499 O 1341.41 3.14054 -3.05454 0
M  V30 14500 C 1342.91 4.14958 -1.55963 0
M  V30 14501 H 1340.13 0.557368 -0.373607 0
M  V30 14502 H 1342.67 1.2575 -1.61267 0
M  V30 14503 H 1340.83 3.69808 -1.15416 0
M  V30 14504 H 1341.24 4.04346 -3.34073 0
M  V30 14505 H 1342.72 5.13536 -2.02448 0
M  V30 14506 H 1343.19 4.36171 -0.514949 0
M  V30 14507 H 1343.8 3.72105 -2.05956 0
M  V30 14508 N 1342.11 1.02678 1.19562 0
M  V30 14509 C 1343.36 0.72059 1.88817 0
M  V30 14510 C 1343.68 -0.752942 1.79877 0
M  V30 14511 O 1342.95 -1.54233 1.20785 0
M  V30 14512 H 1341.53 0.26355 0.698964 0
M  V30 14513 H 1344.2 1.30056 1.4516 0
M  V30 14514 H 1343.29 1.01303 2.95202 0
M  V30 14515 N 1343.59 -1.35528 0.804364 0
M  V30 14516 C 1344.5 -2.33616 0.214663 0
M  V30 14517 C 1345.52 -1.61757 -0.64115 0
M  V30 14518 O 1346.69 -1.93647 -0.553424 0
M  V30 14519 C 1343.76 -3.40951 -0.628778 0
M  V30 14520 C 1342.82 -4.28587 0.247269 0
M  V30 14521 C 1342.05 -5.30796 -0.556012 0
M  V30 14522 O 1342.28 -5.41557 -1.79088 0
M  V30 14523 O 1341.21 -6.01878 0.0519437 0
M  V30 14524 H 1345.04 -2.85843 1.02605 0
M  V30 14525 H 1342.62 -1.38259 0.566108 0
M  V30 14526 H 1344.5 -4.06538 -1.10926 0
M  V30 14527 H 1343.18 -2.90999 -1.4178 0
M  V30 14528 H 1342.09 -3.65988 0.774835 0
M  V30 14529 H 1343.42 -4.81931 1.00017 0
M  V30 14530 N 1345.07 -0.557671 -1.47404 0
M  V30 14531 C 1346.03 0.179311 -2.28498 0
M  V30 14532 C 1347.03 0.842281 -1.36975 0
M  V30 14533 O 1348.22 0.698072 -1.59601 0
M  V30 14534 C 1345.36 1.26229 -3.16668 0
M  V30 14535 H 1346.55 -0.533033 -2.95125 0
M  V30 14536 H 1344.1 -0.314634 -1.531 0
M  V30 14537 H 1344.84 2.00702 -2.54733 0
M  V30 14538 H 1344.62 0.791712 -3.84024 0
M  V30 14539 H 1346.11 1.77991 -3.77768 0
M  V30 14540 N 1346.55 1.54831 -0.294147 0
M  V30 14541 C 1347.78 2.04411 0.319938 0
M  V30 14542 C 1348.19 1.17174 1.4804 0
M  V30 14543 O 1347.55 0.195881 1.81446 0
M  V30 14544 C 1347.6 3.52924 0.782751 0
M  V30 14545 O 1347.32 4.36844 -0.331512 0
M  V30 14546 C 1348.82 4.18474 1.4627 0
M  V30 14547 H 1346.04 0.667286 0.0704973 0
M  V30 14548 H 1348.59 1.9989 -0.431785 0
M  V30 14549 H 1346.74 3.57828 1.48451 0
M  V30 14550 H 1347.16 5.24493 0.0275743 0
M  V30 14551 H 1348.63 5.23933 1.73776 0
M  V30 14552 H 1349.11 3.67793 2.40052 0
M  V30 14553 H 1349.71 4.17626 0.804291 0
M  V30 14554 N 1348.03 0.0217466 1.57585 0
M  V30 14555 C 1349.44 -0.334576 1.56054 0
M  V30 14556 C 1349.64 -1.73386 1.02663 0
M  V30 14557 O 1348.7 -2.43447 0.670078 0
M  V30 14558 C 1350.01 -0.189919 3.001 0
M  V30 14559 C 1351.56 -0.263238 3.11891 0
M  V30 14560 C 1352.04 -0.147455 4.57763 0
M  V30 14561 N 1353.53 -0.204672 4.62748 0
M  V30 14562 C 1354.26 -0.138755 5.73232 0
M  V30 14563 N 1353.76 -0.0221762 6.92796 0
M  V30 14564 N 1355.55 -0.192206 5.61771 0
M  V30 14565 H 1347.7 0.936849 1.90622 0
M  V30 14566 H 1349.96 0.361119 0.876526 0
M  V30 14567 H 1349.67 0.773687 3.43084 0
M  V30 14568 H 1349.54 -0.963148 3.64696 0
M  V30 14569 H 1351.93 -1.2173 2.68823 0
M  V30 14570 H 1352.01 0.540241 2.5003 0
M  V30 14571 H 1351.66 0.803155 5.0151 0
M  V30 14572 H 1351.59 -0.969703 5.17595 0
M  V30 14573 H 1354.08 -0.29522 3.76745 0
M  V30 14574 H 1354.39 0.021631 7.72797 0
M  V30 14575 H 1352.74 0.0125033 6.94999 0
M  V30 14576 H 1355.93 -0.28163 4.67252 0
M  V30 14577 H 1356.1 -0.137372 6.47854 0
M  V30 14578 N 1349.51 -1.55583 -0.251311 0
M  V30 14579 C 1350.46 -1.86337 -1.31387 0
M  V30 14580 C 1351.44 -0.723887 -1.43697 0
M  V30 14581 O 1352.63 -0.985717 -1.47012 0
M  V30 14582 C 1349.76 -2.15772 -2.67016 0
M  V30 14583 C 1348.85 -3.36036 -2.58729 0
M  V30 14584 N 1349.24 -4.55414 -2.20071 0
M  V30 14585 C 1347.54 -3.39058 -2.89751 0
M  V30 14586 C 1348.24 -5.37544 -2.22309 0
M  V30 14587 N 1347.21 -4.76494 -2.61638 0
M  V30 14588 H 1351.01 -2.76168 -1.00541 0
M  V30 14589 H 1348.53 -1.55751 -0.459941 0
M  V30 14590 H 1350.53 -2.35967 -3.43693 0
M  V30 14591 H 1349.19 -1.27237 -2.98732 0
M  V30 14592 H 1350.2 -4.8112 -1.91688 0
M  V30 14593 H 1346.87 -2.60781 -3.26036 0
M  V30 14594 H 1348.26 -6.43042 -1.94798 0
M  V30 14595 N 1350.98 0.516783 -1.48886 0
M  V30 14596 C 1351.95 1.60226 -1.63891 0
M  V30 14597 C 1352.95 1.52448 -0.511479 0
M  V30 14598 O 1354.14 1.55882 -0.777582 0
M  V30 14599 C 1351.27 2.99867 -1.62151 0
M  V30 14600 H 1352.46 1.48256 -2.60692 0
M  V30 14601 H 1350.01 0.739844 -1.37681 0
M  V30 14602 H 1350.75 3.1733 -0.668764 0
M  V30 14603 H 1350.53 3.0692 -2.44013 0
M  V30 14604 H 1352.02 3.7876 -1.7587 0
M  V30 14605 N 1352.46 1.37696 0.766659 0
M  V30 14606 C 1353.88 1.18607 1.06792 0
M  V30 14607 C 1354.08 0.0257195 2.01484 0
M  V30 14608 O 1353.13 -0.632608 2.44447 0
M  V30 14609 C 1354.45 2.50692 1.66054 0
M  V30 14610 C 1355.99 2.57259 1.78288 0
M  V30 14611 C 1356.47 3.89488 2.40963 0
M  V30 14612 N 1357.96 3.90957 2.48408 0
M  V30 14613 C 1358.7 4.90023 2.97767 0
M  V30 14614 N 1358.19 5.99485 3.4726 0
M  V30 14615 N 1359.98 4.77423 2.96688 0
M  V30 14616 H 1352.14 2.11951 0.138031 0
M  V30 14617 H 1354.4 0.939873 0.123863 0
M  V30 14618 H 1354.1 3.35989 1.03945 0
M  V30 14619 H 1353.98 2.68148 2.65286 0
M  V30 14620 H 1356.37 1.72366 2.39528 0
M  V30 14621 H 1356.45 2.43682 0.777981 0
M  V30 14622 H 1356.09 4.74797 1.8036 0
M  V30 14623 H 1356.02 4.0037 3.42069 0
M  V30 14624 H 1358.51 3.11888 2.13388 0
M  V30 14625 H 1358.82 6.71022 3.8334 0
M  V30 14626 H 1357.17 6.03123 3.45351 0
M  V30 14627 H 1360.36 3.91026 2.57325 0
M  V30 14628 H 1360.53 5.54783 3.34844 0
M  V30 14629 N 1353.94 -0.993397 1.22349 0
M  V30 14630 C 1354.85 -2.11771 1.00947 0
M  V30 14631 C 1355.87 -1.73949 -0.0420679 0
M  V30 14632 O 1357.04 -2.00837 0.150548 0
M  V30 14633 C 1354.11 -3.41654 0.589359 0
M  V30 14634 C 1353.17 -3.93579 1.71446 0
M  V30 14635 C 1352.4 -5.17264 1.3143 0
M  V30 14636 O 1352.62 -5.70074 0.192876 0
M  V30 14637 O 1351.56 -5.62929 2.13059 0
M  V30 14638 H 1355.38 -2.32708 1.95142 0
M  V30 14639 H 1352.97 -1.10144 1.00939 0
M  V30 14640 H 1354.85 -4.19813 0.365403 0
M  V30 14641 H 1353.53 -3.22077 -0.323738 0
M  V30 14642 H 1352.43 -3.16596 1.99294 0
M  V30 14643 H 1353.77 -4.17588 2.6054 0
M  V30 14644 N 1355.42 -1.03311 -1.19015 0
M  V30 14645 C 1356.65 -0.751802 -1.92758 0
M  V30 14646 C 1357.06 0.689982 -1.7574 0
M  V30 14647 O 1356.42 1.46961 -1.08207 0
M  V30 14648 C 1356.47 -1.09892 -3.44392 0
M  V30 14649 O 1356.19 -2.48409 -3.60866 0
M  V30 14650 C 1357.69 -0.841029 -4.35249 0
M  V30 14651 H 1354.91 -0.274757 -0.612168 0
M  V30 14652 H 1357.45 -1.37873 -1.51034 0
M  V30 14653 H 1355.61 -0.517092 -3.83933 0
M  V30 14654 H 1356.02 -2.61468 -4.54681 0
M  V30 14655 H 1357.5 -1.13383 -5.4023 0
M  V30 14656 H 1357.97 0.224434 -4.38626 0
M  V30 14657 H 1358.58 -1.40579 -4.01395 0
M  V30 14658 N 1356.9 1.35099 -0.81154 0
M  V30 14659 C 1358.12 2.0286 -0.406855 0
M  V30 14660 C 1358.54 1.61147 0.98372 0
M  V30 14661 O 1357.9 0.811398 1.6347 0
M  V30 14662 C 1357.95 3.58214 -0.486305 0
M  V30 14663 O 1357.67 3.98412 -1.82206 0
M  V30 14664 C 1359.17 4.43236 -0.0750619 0
M  V30 14665 H 1356.39 0.650482 -0.164664 0
M  V30 14666 H 1358.93 1.72616 -1.09654 0
M  V30 14667 H 1357.09 3.87089 0.155177 0
M  V30 14668 H 1357.5 4.93072 -1.78831 0
M  V30 14669 H 1358.98 5.51701 -0.181759 0
M  V30 14670 H 1359.45 4.28123 0.980169 0
M  V30 14671 H 1360.06 4.19667 -0.689894 0
M  V30 14672 N 1358.37 0.56548 1.47106 0
M  V30 14673 C 1359.32 -0.190542 2.31818 0
M  V30 14674 C 1360.32 -0.901279 1.43434 0
M  V30 14675 O 1361.52 -0.821625 1.60154 0
M  V30 14676 H 1357.9 -0.0803183 0.747698 0
M  V30 14677 H 1359.87 0.542999 2.93418 0
M  V30 14678 C 1358.62 -1.20208 3.2626 0
M  V30 14679 H 1357.94 -0.664608 3.94237 0
M  V30 14680 H 1359.38 -1.7018 3.88349 0
M  V30 14681 C 1357.84 -2.25423 2.50372 0
M  V30 14682 O 1358.37 -3.3249 2.25418 0
M  V30 14683 N 1356.57 -1.9957 2.11235 0
M  V30 14684 H 1356.12 -1.12513 2.31729 0
M  V30 14685 H 1356.08 -2.70182 1.60777 0
M  V30 14686 N 1359.85 -1.54672 0.302354 0
M  V30 14687 C 1360.79 -2.19752 -0.615175 0
M  V30 14688 C 1361.76 -1.16737 -1.13186 0
M  V30 14689 O 1362.95 -1.45385 -1.19981 0
M  V30 14690 C 1360.07 -2.84243 -1.84184 0
M  V30 14691 C 1359.12 -4.00795 -1.45827 0
M  V30 14692 S 1359.95 -5.33037 -0.513046 0
M  V30 14693 C 1361.11 -6.01011 -1.74747 0
M  V30 14694 H 1361.34 -2.97235 -0.0622917 0
M  V30 14695 H 1358.88 -1.54158 0.0864897 0
M  V30 14696 H 1360.83 -3.22025 -2.54578 0
M  V30 14697 H 1359.49 -2.06603 -2.36589 0
M  V30 14698 H 1358.69 -4.44707 -2.37175 0
M  V30 14699 H 1358.29 -3.64577 -0.83425 0
M  V30 14700 H 1360.58 -6.21901 -2.68786 0
M  V30 14701 H 1361.52 -6.95095 -1.35089 0
M  V30 14702 H 1361.93 -5.30671 -1.9248 0
M  V30 14703 N 1361.33 -0.0301034 -1.57571 0
M  V30 14704 C 1362.28 0.951421 -2.10277 0
M  V30 14705 C 1363.25 1.3224 -1.00508 0
M  V30 14706 O 1364.43 1.41554 -1.27934 0
M  V30 14707 C 1361.57 2.2282 -2.63525 0
M  V30 14708 C 1360.69 1.91359 -3.87306 0
M  V30 14709 C 1359.82 3.13339 -4.28943 0
M  V30 14710 C 1358.86 2.77701 -5.4548 0
M  V30 14711 N 1358 3.9231 -5.82269 0
M  V30 14712 H 1362.84 0.495049 -2.93859 0
M  V30 14713 H 1360.37 0.232756 -1.45247 0
M  V30 14714 H 1362.33 2.97502 -2.92487 0
M  V30 14715 H 1360.96 2.66072 -1.82772 0
M  V30 14716 H 1360.01 1.06915 -3.65066 0
M  V30 14717 H 1361.33 1.61112 -4.72064 0
M  V30 14718 H 1360.48 3.9634 -4.59347 0
M  V30 14719 H 1359.22 3.46747 -3.42954 0
M  V30 14720 H 1358.22 1.93113 -5.14769 0
M  V30 14721 H 1359.45 2.45508 -6.33169 0
M  V30 14722 H 1357.39 4.25559 -4.99235 0
M  V30 14723 H 1357.31 3.65691 -6.61669 0
M  V30 14724 H 1358.58 4.76012 -6.17279 0
M  V30 14725 N 1362.81 1.55714 0.243056 0
M  V30 14726 C 1364.04 1.81786 0.98801 0
M  V30 14727 C 1364.45 0.606352 1.78798 0
M  V30 14728 O 1363.81 -0.425018 1.77482 0
M  V30 14729 C 1363.86 3.06121 1.92281 0
M  V30 14730 O 1363.58 4.22595 1.15521 0
M  V30 14731 C 1365.08 3.45021 2.78344 0
M  V30 14732 H 1362.3 0.604829 0.290557 0
M  V30 14733 H 1364.85 2.02779 0.26478 0
M  V30 14734 H 1363 2.87167 2.60027 0
M  V30 14735 H 1363.41 4.93088 1.78786 0
M  V30 14736 H 1364.89 4.35112 3.39678 0
M  V30 14737 H 1365.37 2.65782 3.49652 0
M  V30 14738 H 1365.97 3.66339 2.16045 0
M  V30 14739 N 1364.29 -0.50888 1.49158 0
M  V30 14740 C 1365.22 -1.62778 1.61356 0
M  V30 14741 C 1366.23 -1.55039 0.496653 0
M  V30 14742 O 1367.42 -1.61115 0.768386 0
M  V30 14743 C 1364.52 -3.01534 1.54694 0
M  V30 14744 C 1363.69 -3.34539 2.81785 0
M  V30 14745 C 1362.75 -4.5267 2.68283 0
M  V30 14746 O 1361.78 -4.54844 3.42207 0
M  V30 14747 N 1362.98 -5.52115 1.79303 0
M  V30 14748 H 1365.75 -1.52744 2.57855 0
M  V30 14749 H 1363.31 -0.696597 1.46148 0
M  V30 14750 H 1365.3 -3.7847 1.43327 0
M  V30 14751 H 1363.87 -3.05535 0.660849 0
M  V30 14752 H 1363.09 -2.46576 3.07561 0
M  V30 14753 H 1364.38 -3.53384 3.66057 0
M  V30 14754 H 1363.77 -5.53153 1.18485 0
M  V30 14755 H 1362.33 -6.28184 1.73863 0
M  V30 14756 N 1365.76 -1.381 -0.759346 0
M  V30 14757 C 1366.99 -1.37213 -1.54855 0
M  V30 14758 C 1367.41 0.0395175 -1.88759 0
M  V30 14759 O 1366.76 1.00462 -1.5236 0
M  V30 14760 C 1366.82 -2.22232 -2.85123 0
M  V30 14761 O 1366.54 -3.57897 -2.52668 0
M  V30 14762 C 1368.04 -2.29461 -3.79292 0
M  V30 14763 H 1365.26 -0.469542 -0.479345 0
M  V30 14764 H 1367.8 -1.81604 -0.940216 0
M  V30 14765 H 1365.96 -1.81317 -3.42349 0
M  V30 14766 H 1366.37 -4.02599 -3.36176 0
M  V30 14767 H 1367.84 -2.93246 -4.67665 0
M  V30 14768 H 1368.32 -1.3066 -4.19315 0
M  V30 14769 H 1368.93 -2.70741 -3.27993 0
M  V30 14770 N 1367.24 0.986894 -1.22875 0
M  V30 14771 C 1368.49 1.72985 -1.05849 0
M  V30 14772 C 1368.82 1.89939 0.404594 0
M  V30 14773 O 1368.1 1.44693 1.29978 0
M  V30 14774 C 1368.38 3.13193 -1.77714 0
M  V30 14775 C 1368.23 3.0385 -3.31655 0
M  V30 14776 C 1369.55 4.12486 -1.53438 0
M  V30 14777 H 1366.67 0.627877 -0.385926 0
M  V30 14778 H 1369.31 1.14936 -1.51294 0
M  V30 14779 H 1367.46 3.62751 -1.39083 0
M  V30 14780 H 1369.13 2.61866 -3.79768 0
M  V30 14781 H 1367.38 2.4051 -3.61023 0
M  V30 14782 H 1368.05 4.03092 -3.77122 0
M  V30 14783 H 1370.52 3.71709 -1.87007 0
M  V30 14784 H 1369.4 5.08694 -2.06207 0
M  V30 14785 H 1369.66 4.39613 -0.468294 0
M  V30 14786 N 1368.72 1.0394 1.18466 0
M  V30 14787 C 1369.68 0.633804 2.20262 0
M  V30 14788 C 1370.68 -0.308136 1.5782 0
M  V30 14789 O 1371.87 -0.0937087 1.73948 0
M  V30 14790 C 1369.01 -0.0709693 3.40826 0
M  V30 14791 H 1370.2 1.53463 2.57661 0
M  V30 14792 H 1367.75 0.831806 1.32328 0
M  V30 14793 H 1368.49 -0.985659 3.08958 0
M  V30 14794 H 1368.27 0.606023 3.87388 0
M  V30 14795 H 1369.76 -0.341298 4.16203 0
M  V30 14796 N 1370.2 -1.34667 0.818693 0
M  V30 14797 C 1371.42 -2.03173 0.416585 0
M  V30 14798 C 1371.85 -1.61261 -0.968321 0
M  V30 14799 O 1371.21 -0.79517 -1.62932 0
M  V30 14800 C 1371.25 -3.56803 0.521884 0
M  V30 14801 O 1370.36 -4.09827 -0.459953 0
M  V30 14802 H 1369.7 -0.6413 0.172136 0
M  V30 14803 H 1372.23 -1.72006 1.10794 0
M  V30 14804 H 1372.24 -4.06073 0.3961 0
M  V30 14805 H 1370.91 -3.86656 1.53198 0
M  V30 14806 H 1369.49 -3.71744 -0.293405 0
M  V30 14807 N 1371.68 -0.573274 -1.46804 0
M  V30 14808 C 1372.91 -0.0605105 -2.06511 0
M  V30 14809 C 1373.31 1.24572 -1.42403 0
M  V30 14810 O 1372.66 1.76182 -0.520168 0
M  V30 14811 C 1372.72 0.189394 -3.59001 0
M  V30 14812 C 1372.38 -1.02981 -4.45246 0
M  V30 14813 C 1373.38 -1.93948 -4.82369 0
M  V30 14814 C 1371.07 -1.249 -4.86524 0
M  V30 14815 C 1373.06 -3.0519 -5.59587 0
M  V30 14816 C 1370.75 -2.36449 -5.63503 0
M  V30 14817 C 1371.74 -3.26424 -5.99947 0
M  V30 14818 O 1371.43 -4.36037 -6.75372 0
M  V30 14819 H 1371.16 -0.0501758 -0.674135 0
M  V30 14820 H 1373.72 -0.790951 -1.8956 0
M  V30 14821 H 1371.95 0.974337 -3.74224 0
M  V30 14822 H 1373.64 0.649506 -4.0067 0
M  V30 14823 H 1374.4 -1.78226 -4.51066 0
M  V30 14824 H 1370.28 -0.55779 -4.57613 0
M  V30 14825 H 1373.83 -3.75444 -5.87952 0
M  V30 14826 H 1369.72 -2.52138 -5.94219 0
M  V30 14827 H 1370.49 -4.34285 -6.93786 0
M  V30 14828 N 1373.15 1.5451 -0.310553 0
M  V30 14829 C 1374.4 2.00326 0.295904 0
M  V30 14830 C 1374.73 1.19887 1.53158 0
M  V30 14831 O 1373.98 0.265615 1.93889 0
M  V30 14832 C 1374.28 3.5072 0.68779 0
M  V30 14833 C 1373.95 4.48677 -0.447229 0
M  V30 14834 C 1372.61 4.7518 -0.758796 0
M  V30 14835 C 1374.96 5.06953 -1.21028 0
M  V30 14836 C 1372.29 5.5722 -1.83637 0
M  V30 14837 C 1374.64 5.90167 -2.27784 0
M  V30 14838 C 1373.31 6.14977 -2.59537 0
M  V30 14839 H 1372.58 0.733046 0.108279 0
M  V30 14840 H 1375.22 1.86572 -0.431633 0
M  V30 14841 H 1373.53 3.62133 1.49556 0
M  V30 14842 H 1375.23 3.83602 1.16836 0
M  V30 14843 H 1371.82 4.28159 -0.1943 0
M  V30 14844 H 1376 4.86471 -0.98283 0
M  V30 14845 H 1371.26 5.74678 -2.08699 0
M  V30 14846 H 1375.43 6.34347 -2.87362 0
M  V30 14847 H 1373.06 6.78338 -3.43165 0
M  V30 14848 N 1374.63 0.0384594 1.57553 0
M  V30 14849 C 1376.05 -0.318006 1.564 0
M  V30 14850 C 1376.25 -1.72287 1.04496 0
M  V30 14851 O 1375.31 -2.42722 0.695861 0
M  V30 14852 C 1376.62 -0.158079 3.00284 0
M  V30 14853 C 1378.17 -0.230143 3.12153 0
M  V30 14854 C 1378.64 -0.0988948 4.57893 0
M  V30 14855 N 1380.13 -0.15558 4.62939 0
M  V30 14856 C 1380.87 -0.077948 5.73347 0
M  V30 14857 N 1380.36 0.0513054 6.92781 0
M  V30 14858 N 1382.16 -0.132612 5.61944 0
M  V30 14859 H 1374.31 0.957014 1.89618 0
M  V30 14860 H 1376.57 0.370396 0.872646 0
M  V30 14861 H 1376.28 0.810032 3.42245 0
M  V30 14862 H 1376.15 -0.924413 3.65697 0
M  V30 14863 H 1378.54 -1.18872 2.70099 0
M  V30 14864 H 1378.62 0.56673 2.49443 0
M  V30 14865 H 1378.26 0.856301 5.00629 0
M  V30 14866 H 1378.19 -0.91475 5.18594 0
M  V30 14867 H 1380.68 -0.255245 3.77037 0
M  V30 14868 H 1381 0.103595 7.72731 0
M  V30 14869 H 1379.34 0.0862166 6.94947 0
M  V30 14870 H 1382.53 -0.232056 4.67524 0
M  V30 14871 H 1382.71 -0.0686506 6.47964 0
M  V30 14872 N 1376.11 -1.55841 -0.234795 0
M  V30 14873 C 1377.34 -1.82043 -0.976937 0
M  V30 14874 C 1377.75 -0.613552 -1.78975 0
M  V30 14875 O 1377.09 0.427271 -1.78662 0
M  V30 14876 C 1377.15 -3.0178 -1.95369 0
M  V30 14877 C 1376.82 -4.3732 -1.32666 0
M  V30 14878 C 1377.82 -5.14847 -0.723107 0
M  V30 14879 C 1375.5 -4.8403 -1.3424 0
M  V30 14880 C 1377.49 -6.37238 -0.143646 0
M  V30 14881 C 1375.18 -6.06367 -0.759087 0
M  V30 14882 C 1376.18 -6.82811 -0.16075 0
M  V30 14883 O 1375.87 -8.02836 0.41352 0
M  V30 14884 H 1375.6 -0.609424 -0.292537 0
M  V30 14885 H 1378.15 -2.03758 -0.259216 0
M  V30 14886 H 1376.38 -2.7585 -2.71005 0
M  V30 14887 H 1378.07 -3.14968 -2.56027 0
M  V30 14888 H 1378.84 -4.79873 -0.703371 0
M  V30 14889 H 1374.72 -4.24512 -1.7975 0
M  V30 14890 H 1378.26 -6.96847 0.324002 0
M  V30 14891 H 1374.16 -6.40816 -0.776191 0
M  V30 14892 H 1374.93 -8.17926 0.306554 0
M  V30 14893 N 1377.59 0.500963 -1.49426 0
M  V30 14894 C 1378.81 1.28383 -1.62888 0
M  V30 14895 C 1379.24 1.85688 -0.300262 0
M  V30 14896 O 1378.6 1.6586 0.73212 0
M  V30 14897 C 1378.65 2.38987 -2.70033 0
M  V30 14898 O 1377.75 3.42837 -2.29208 0
M  V30 14899 H 1377.09 0.379012 -0.545202 0
M  V30 14900 H 1379.62 0.59971 -1.95613 0
M  V30 14901 H 1379.63 2.84749 -2.92202 0
M  V30 14902 H 1378.31 1.96643 -3.66475 0
M  V30 14903 H 1376.88 3.02993 -2.1737 0
M  V30 14904 N 1379.07 1.38501 0.752011 0
M  V30 14905 C 1380 1.38577 1.87933 0
M  V30 14906 C 1380.98 0.251454 1.68231 0
M  V30 14907 O 1382.16 0.45477 1.888 0
M  V30 14908 C 1379.29 1.21164 3.25479 0
M  V30 14909 C 1378.25 2.31816 3.59785 0
M  V30 14910 C 1377.57 1.99508 4.96085 0
M  V30 14911 C 1378.87 3.74082 3.645 0
M  V30 14912 H 1380.57 2.32913 1.88127 0
M  V30 14913 H 1378.11 1.12113 0.903698 0
M  V30 14914 H 1380.07 1.19842 4.04 0
M  V30 14915 H 1378.79 0.232899 3.25769 0
M  V30 14916 H 1377.45 2.32327 2.83584 0
M  V30 14917 H 1377.1 1.00114 4.92936 0
M  V30 14918 H 1376.8 2.73617 5.20007 0
M  V30 14919 H 1378.32 1.99807 5.76983 0
M  V30 14920 H 1379.74 3.75593 4.33131 0
M  V30 14921 H 1378.13 4.47409 3.99931 0
M  V30 14922 H 1379.2 4.06284 2.64692 0
M  V30 14923 N 1380.55 -0.980364 1.23396 0
M  V30 14924 C 1381.48 -2.07099 0.958403 0
M  V30 14925 C 1382.46 -1.62272 -0.1033 0
M  V30 14926 O 1383.64 -1.88475 0.0309639 0
M  V30 14927 C 1380.77 -3.35779 0.443864 0
M  V30 14928 C 1379.81 -3.99545 1.49218 0
M  V30 14929 S 1380.65 -4.3879 3.06958 0
M  V30 14930 C 1381.8 -5.70624 2.57174 0
M  V30 14931 H 1382.04 -2.30154 1.88192 0
M  V30 14932 H 1379.57 -1.11656 1.06641 0
M  V30 14933 H 1381.53 -4.10213 0.153603 0
M  V30 14934 H 1380.19 -3.10732 -0.458738 0
M  V30 14935 H 1379.38 -4.92242 1.0823 0
M  V30 14936 H 1378.98 -3.31489 1.73179 0
M  V30 14937 H 1381.27 -6.47555 1.99197 0
M  V30 14938 H 1382.22 -6.16454 3.48411 0
M  V30 14939 H 1382.63 -5.28626 1.98028 0
M  V30 14940 N 1382.02 -1.04567 -1.17913 0
M  V30 14941 C 1383.3 -0.666082 -1.8391 0
M  V30 14942 C 1383.68 0.854062 -1.93052 0
M  V30 14943 O 1383.03 1.75752 -1.46026 0
M  V30 14944 C 1383.24 -1.34776 -3.21926 0
M  V30 14945 C 1384.59 -1.48177 -3.97905 0
M  V30 14946 O 1385.61 -1.30627 -3.31384 0
M  V30 14947 O 1384.47 -1.76822 -5.17104 0
M  V30 14948 H 1381.56 -0.233694 -0.793294 0
M  V30 14949 H 1384.11 -1.14487 -1.25263 0
M  V30 14950 H 1382.88 -2.38514 -3.10204 0
M  V30 14951 H 1382.5 -0.857914 -3.88234 0
M  V30 14952 N 1383.5 1.34231 -0.825823 0
M  V30 14953 C 1384.43 2.31997 -0.264546 0
M  V30 14954 C 1385.41 1.58375 0.620592 0
M  V30 14955 O 1386.6 1.86341 0.546865 0
M  V30 14956 C 1383.73 3.42557 0.572025 0
M  V30 14957 C 1382.68 4.27454 -0.216219 0
M  V30 14958 C 1382.01 5.29509 0.743279 0
M  V30 14959 C 1383.31 5.02456 -1.42603 0
M  V30 14960 H 1385 2.79189 -1.08139 0
M  V30 14961 H 1382.55 1.34227 -0.521451 0
M  V30 14962 H 1384.5 4.09968 0.974889 0
M  V30 14963 H 1383.22 2.94021 1.42195 0
M  V30 14964 H 1381.88 3.61649 -0.600485 0
M  V30 14965 H 1381.53 4.77234 1.58924 0
M  V30 14966 H 1381.23 5.87188 0.220064 0
M  V30 14967 H 1382.76 5.99789 1.14394 0
M  V30 14968 H 1384.17 5.62706 -1.09702 0
M  V30 14969 H 1382.57 5.69723 -1.88509 0
M  V30 14970 H 1383.64 4.31983 -2.2027 0
M  V30 14971 N 1384.98 0.581051 1.46498 0
M  V30 14972 C 1385.91 -0.140957 2.33074 0
M  V30 14973 C 1386.89 -0.885323 1.45245 0
M  V30 14974 O 1388.08 -0.86111 1.74065 0
M  V30 14975 C 1385.21 -1.15625 3.27488 0
M  V30 14976 C 1384.16 -0.526829 4.24745 0
M  V30 14977 C 1383.49 -1.64847 5.08655 0
M  V30 14978 C 1384.79 0.53492 5.19554 0
M  V30 14979 H 1386.48 0.581888 2.93691 0
M  V30 14980 H 1384.03 0.281278 1.41226 0
M  V30 14981 H 1385.98 -1.6697 3.8691 0
M  V30 14982 H 1384.7 -1.90935 2.64974 0
M  V30 14983 H 1383.36 -0.0344738 3.66584 0
M  V30 14984 H 1383.01 -2.3912 4.42528 0
M  V30 14985 H 1382.71 -1.23298 5.74518 0
M  V30 14986 H 1384.23 -2.16472 5.7094 0
M  V30 14987 H 1385.65 0.106606 5.73201 0
M  V30 14988 H 1384.04 0.870639 5.93751 0
M  V30 14989 H 1385.11 1.42184 4.63586 0
M  V30 14990 N 1386.46 -1.54343 0.318742 0
M  V30 14991 C 1387.68 -2.05361 -0.290126 0
M  V30 14992 C 1388.11 -1.19362 -1.45376 0
M  V30 14993 O 1387.47 -0.201639 -1.80175 0
M  V30 14994 C 1387.51 -3.53601 -0.707025 0
M  V30 14995 O 1386.62 -3.70561 -1.80992 0
M  V30 14996 H 1385.96 -0.661858 -0.0532933 0
M  V30 14997 H 1388.49 -1.99228 0.46575 0
M  V30 14998 H 1388.5 -3.95782 -0.991005 0
M  V30 14999 H 1387.17 -4.1565 0.144091 0
M  V30 15000 H 1385.75 -3.40286 -1.52513 0
M  V30 15001 N 1387.94 -0.0468143 -1.5753 0
M  V30 15002 C 1388.88 0.929065 -2.11275 0
M  V30 15003 C 1389.85 1.31166 -1.01905 0
M  V30 15004 O 1391.04 1.40189 -1.29428 0
M  V30 15005 C 1388.18 2.20012 -2.65873 0
M  V30 15006 C 1387.29 1.8724 -3.89314 0
M  V30 15007 C 1386.43 3.08772 -4.32242 0
M  V30 15008 C 1385.46 2.719 -5.48395 0
M  V30 15009 N 1384.6 3.86112 -5.86397 0
M  V30 15010 H 1389.44 0.463854 -2.94368 0
M  V30 15011 H 1386.98 0.217338 -1.45486 0
M  V30 15012 H 1388.94 2.94383 -2.95626 0
M  V30 15013 H 1387.57 2.64118 -1.85584 0
M  V30 15014 H 1386.62 1.03037 -3.6618 0
M  V30 15015 H 1387.93 1.56096 -4.73746 0
M  V30 15016 H 1387.08 3.91446 -4.63525 0
M  V30 15017 H 1385.82 3.4309 -3.46613 0
M  V30 15018 H 1384.83 1.87642 -5.16789 0
M  V30 15019 H 1386.05 2.38779 -6.35737 0
M  V30 15020 H 1384 4.2024 -5.03721 0
M  V30 15021 H 1383.92 3.58652 -6.65511 0
M  V30 15022 H 1385.18 4.69438 -6.22293 0
M  V30 15023 N 1389.41 1.55964 0.226527 0
M  V30 15024 C 1390.35 1.87013 1.30772 0
M  V30 15025 C 1391.33 0.727044 1.4544 0
M  V30 15026 O 1392.51 0.974898 1.61332 0
M  V30 15027 C 1389.64 2.07278 2.67869 0
M  V30 15028 C 1388.68 3.29956 2.70243 0
M  V30 15029 S 1389.52 4.86026 2.24808 0
M  V30 15030 C 1390.67 5.09321 3.6379 0
M  V30 15031 H 1390.9 2.78427 1.0424 0
M  V30 15032 H 1388.44 1.48334 0.428525 0
M  V30 15033 H 1390.4 2.19636 3.468 0
M  V30 15034 H 1389.06 1.1667 2.91628 0
M  V30 15035 H 1388.25 3.41164 3.70975 0
M  V30 15036 H 1387.85 3.16429 1.99371 0
M  V30 15037 H 1390.14 4.97914 4.59443 0
M  V30 15038 H 1391.09 6.11227 3.57501 0
M  V30 15039 H 1391.49 4.37076 3.57247 0
M  V30 15040 N 1390.89 -0.493031 1.4969 0
M  V30 15041 C 1392.14 -1.24849 1.59814 0
M  V30 15042 C 1392.47 -1.92059 0.287555 0
M  V30 15043 O 1391.75 -1.81099 -0.709471 0
M  V30 15044 C 1392.03 -2.30929 2.76304 0
M  V30 15045 C 1391.88 -1.68167 4.17181 0
M  V30 15046 C 1393.2 -3.32427 2.8841 0
M  V30 15047 H 1390.32 -0.452553 0.581691 0
M  V30 15048 H 1392.96 -0.545455 1.82002 0
M  V30 15049 H 1391.11 -2.9089 2.57517 0
M  V30 15050 H 1392.78 -1.11971 4.47504 0
M  V30 15051 H 1391.03 -0.985496 4.22458 0
M  V30 15052 H 1391.7 -2.45148 4.94577 0
M  V30 15053 H 1394.17 -2.82464 3.05537 0
M  V30 15054 H 1393.05 -4.04004 3.71581 0
M  V30 15055 H 1393.31 -3.95234 1.98097 0
M  V30 15056 N 1392.37 -1.38898 -0.744656 0
M  V30 15057 C 1393.62 -1.35795 -1.50623 0
M  V30 15058 C 1393.95 0.0491775 -1.94138 0
M  V30 15059 O 1393.22 1.01219 -1.66087 0
M  V30 15060 C 1393.51 -2.32168 -2.75263 0
M  V30 15061 C 1393.36 -3.81781 -2.3783 0
M  V30 15062 C 1394.68 -2.26526 -3.77325 0
M  V30 15063 H 1391.8 -0.494591 -0.546396 0
M  V30 15064 H 1394.44 -1.69816 -0.852211 0
M  V30 15065 H 1392.59 -2.03287 -3.31069 0
M  V30 15066 H 1394.26 -4.21373 -1.8773 0
M  V30 15067 H 1392.51 -3.99027 -1.70176 0
M  V30 15068 H 1393.18 -4.44687 -3.27044 0
M  V30 15069 H 1395.65 -2.52041 -3.31081 0
M  V30 15070 H 1394.53 -2.96053 -4.62216 0
M  V30 15071 H 1394.79 -1.26705 -4.23554 0
M  V30 15072 N 1393.85 0.973806 -1.23914 0
M  V30 15073 C 1395.1 1.71259 -1.07307 0
M  V30 15074 C 1395.42 1.91064 0.389831 0
M  V30 15075 O 1394.69 1.48401 1.27883 0
M  V30 15076 H 1393.27 0.634588 -0.39409 0
M  V30 15077 H 1395.93 1.17184 -1.55737 0
M  V30 15078 H 1395.03 2.69953 -1.56626 0
M  V30 15079 N 1395.33 1.05191 1.17357 0
M  V30 15080 C 1396.26 0.610878 2.20909 0
M  V30 15081 C 1397.27 -0.325369 1.59515 0
M  V30 15082 O 1398.46 -0.118104 1.78109 0
M  V30 15083 C 1395.56 -0.126086 3.38665 0
M  V30 15084 C 1394.73 0.820857 4.29629 0
M  V30 15085 C 1393.79 0.125154 5.26051 0
M  V30 15086 O 1392.82 0.759245 5.64114 0
M  V30 15087 N 1394.02 -1.13742 5.69248 0
M  V30 15088 H 1396.79 1.50158 2.5937 0
M  V30 15089 H 1394.35 0.933814 1.32256 0
M  V30 15090 H 1396.34 -0.601627 4.00203 0
M  V30 15091 H 1394.91 -0.918459 2.98803 0
M  V30 15092 H 1394.13 1.47602 3.65523 0
M  V30 15093 H 1395.42 1.46363 4.87294 0
M  V30 15094 H 1394.81 -1.67291 5.40398 0
M  V30 15095 H 1393.37 -1.55703 6.3293 0
M  V30 15096 N 1396.8 -1.33791 0.83293 0
M  V30 15097 C 1398.22 -1.80336 0.483294 0
M  V30 15098 C 1398.57 -1.68969 -0.997195 0
M  V30 15099 O 1397.69 -1.23549 -1.77664 0
M  V30 15100 C 1398.29 -3.27427 0.870475 0
M  V30 15101 C 1396.85 -3.72012 0.573064 0
M  V30 15102 C 1395.99 -2.55319 1.08201 0
M  V30 15103 H 1398.94 -1.21396 1.02218 0
M  V30 15104 H 1398.96 -3.80083 0.178173 0
M  V30 15105 H 1398.48 -3.35668 1.94804 0
M  V30 15106 H 1396.58 -3.69302 -0.494678 0
M  V30 15107 H 1396.69 -4.65725 1.12414 0
M  V30 15108 H 1395.05 -2.49681 0.503123 0
M  V30 15109 H 1395.84 -2.66326 2.16623 0
M  V30 15110 N 1398.28 -0.588812 -1.46187 0
M  V30 15111 C 1399.23 0.161973 -2.27424 0
M  V30 15112 C 1400.22 0.856178 -1.36229 0
M  V30 15113 O 1401.41 0.749266 -1.60359 0
M  V30 15114 C 1398.54 1.17104 -3.2271 0
M  V30 15115 C 1397.62 0.478637 -4.2139 0
M  V30 15116 N 1398.01 -0.46921 -5.03619 0
M  V30 15117 C 1396.31 0.728608 -4.40008 0
M  V30 15118 C 1397.01 -0.874455 -5.7509 0
M  V30 15119 N 1395.99 -0.222267 -5.43145 0
M  V30 15120 H 1399.79 -0.566306 -2.88392 0
M  V30 15121 H 1397.31 -0.41106 -1.57112 0
M  V30 15122 H 1399.3 1.72314 -3.79623 0
M  V30 15123 H 1397.96 1.90008 -2.63301 0
M  V30 15124 H 1398.97 -0.84504 -5.10959 0
M  V30 15125 H 1395.65 1.44375 -3.91742 0
M  V30 15126 H 1397.04 -1.65514 -6.51195 0
M  V30 15127 N 1399.76 1.54172 -0.326923 0
M  V30 15128 C 1401.01 2.00629 0.274641 0
M  V30 15129 C 1401.34 1.21505 1.51878 0
M  V30 15130 O 1400.59 0.286164 1.93596 0
M  V30 15131 C 1400.89 3.51429 0.650553 0
M  V30 15132 C 1400.56 4.48177 -0.494792 0
M  V30 15133 C 1399.22 4.74348 -0.809153 0
M  V30 15134 C 1401.57 5.05641 -1.26398 0
M  V30 15135 C 1398.9 5.55241 -1.89536 0
M  V30 15136 C 1401.25 5.87718 -2.34031 0
M  V30 15137 C 1399.91 6.1219 -2.66045 0
M  V30 15138 H 1399.18 0.734153 0.100498 0
M  V30 15139 H 1401.83 1.86104 -0.451397 0
M  V30 15140 H 1400.14 3.63699 1.45706 0
M  V30 15141 H 1401.83 3.84819 1.12761 0
M  V30 15142 H 1398.42 4.27929 -0.239701 0
M  V30 15143 H 1402.61 4.85401 -1.03437 0
M  V30 15144 H 1397.86 5.72432 -2.14783 0
M  V30 15145 H 1402.04 6.31264 -2.94074 0
M  V30 15146 H 1399.66 6.7466 -3.5034 0
M  V30 15147 N 1401.24 0.0551678 1.57503 0
M  V30 15148 C 1402.48 -0.618636 1.93134 0
M  V30 15149 C 1402.82 -1.70258 0.934125 0
M  V30 15150 O 1402.09 -1.9446 -0.0392699 0
M  V30 15151 C 1402.38 -1.21103 3.39126 0
M  V30 15152 C 1402.23 -0.134865 4.49598 0
M  V30 15153 C 1403.55 -2.12148 3.85592 0
M  V30 15154 H 1400.67 -0.223416 0.702321 0
M  V30 15155 H 1403.31 0.117748 1.89635 0
M  V30 15156 H 1401.46 -1.83862 3.42238 0
M  V30 15157 H 1403.13 0.497292 4.58612 0
M  V30 15158 H 1401.37 0.536587 4.30469 0
M  V30 15159 H 1402.04 -0.589447 5.48844 0
M  V30 15160 H 1404.52 -1.59346 3.8438 0
M  V30 15161 H 1403.4 -2.50539 4.88387 0
M  V30 15162 H 1403.66 -3.02318 3.22578 0
M  V30 15163 N 1402.72 -1.56081 -0.218252 0
M  V30 15164 C 1404.13 -1.49147 -0.568098 0
M  V30 15165 C 1404.33 -0.750893 -1.86986 0
M  V30 15166 O 1403.39 -0.291904 -2.50807 0
M  V30 15167 C 1404.7 -2.93717 -0.644272 0
M  V30 15168 C 1406.25 -3.04256 -0.734677 0
M  V30 15169 C 1406.72 -4.50191 -0.842167 0
M  V30 15170 N 1408.22 -4.54247 -0.906302 0
M  V30 15171 C 1408.95 -5.64448 -1.00924 0
M  V30 15172 N 1408.45 -6.84394 -1.07592 0
M  V30 15173 N 1410.24 -5.52308 -1.04463 0
M  V30 15174 H 1402.39 -2.02656 0.635935 0
M  V30 15175 H 1404.65 -0.921262 0.223563 0
M  V30 15176 H 1404.36 -3.50861 0.242721 0
M  V30 15177 H 1404.23 -3.45798 -1.50678 0
M  V30 15178 H 1406.62 -2.47174 -1.61211 0
M  V30 15179 H 1406.7 -2.55339 0.153563 0
M  V30 15180 H 1406.35 -5.07891 0.0308214 0
M  V30 15181 H 1406.28 -4.96817 -1.74587 0
M  V30 15182 H 1408.77 -3.67868 -0.864954 0
M  V30 15183 H 1409.08 -7.6413 -1.15433 0
M  V30 15184 H 1407.42 -6.87099 -1.045 0
M  V30 15185 H 1410.62 -4.57528 -0.989218 0
M  V30 15186 H 1410.79 -6.38223 -1.1214 0
M  V30 15187 N 1404.2 0.485086 -1.49949 0
M  V30 15188 C 1405.44 1.24816 -1.61865 0
M  V30 15189 C 1405.8 1.8955 -0.305741 0
M  V30 15190 O 1407 2.67118 -0.300216 0
M  V30 15191 C 1405.27 2.27464 -2.75672 0
M  V30 15192 S 1406.83 3.12898 -3.07637 0
M  V30 15193 H 1403.65 0.423964 -0.570767 0
M  V30 15194 H 1406.25 0.547552 -1.87676 0
M  V30 15195 H 1404.95 1.78464 -3.69566 0
M  V30 15196 H 1404.49 3.02172 -2.51904 0
M  V30 15197 H 1406.5 4.28395 -2.50384 0
M  V30 15198 N 1405.67 1.39291 0.737279 0
M  V30 15199 C 1406.92 1.35702 1.49224 0
M  V30 15200 C 1407.24 -0.0450282 1.95548 0
M  V30 15201 O 1408.44 -0.203495 2.70736 0
M  V30 15202 C 1406.9 2.38387 2.69629 0
M  V30 15203 C 1406.51 3.84295 2.30263 0
M  V30 15204 C 1408.25 2.4387 3.47459 0
M  V30 15205 C 1406.16 4.78626 3.47377 0
M  V30 15206 H 1405.09 0.50449 0.560362 0
M  V30 15207 H 1407.74 1.64926 0.804466 0
M  V30 15208 H 1406.12 2.0223 3.40469 0
M  V30 15209 H 1407.29 4.2948 1.66984 0
M  V30 15210 H 1405.61 3.82085 1.6553 0
M  V30 15211 H 1408.21 3.11539 4.34566 0
M  V30 15212 H 1408.55 1.46253 3.89764 0
M  V30 15213 H 1409.08 2.78908 2.83646 0
M  V30 15214 H 1405.82 5.77497 3.10124 0
M  V30 15215 H 1405.34 4.38123 4.09645 0
M  V30 15216 H 1407.02 4.9742 4.13742 0
M  V30 15217 N 1407.15 -0.967221 1.24429 0
M  V30 15218 C 1408.1 -2.06187 1.03709 0
M  V30 15219 C 1409.07 -1.66025 -0.0497665 0
M  V30 15220 O 1410.25 -1.90511 0.104951 0
M  V30 15221 C 1407.39 -3.38952 0.648477 0
M  V30 15222 C 1406.51 -3.92306 1.80886 0
M  V30 15223 C 1405.64 -5.13342 1.36579 0
M  V30 15224 C 1404.68 -5.58893 2.49609 0
M  V30 15225 N 1403.82 -6.71148 2.06165 0
M  V30 15226 H 1408.66 -2.23244 1.97399 0
M  V30 15227 H 1406.19 -1.09415 0.983192 0
M  V30 15228 H 1408.15 -4.15237 0.40419 0
M  V30 15229 H 1406.78 -3.21819 -0.25142 0
M  V30 15230 H 1405.83 -3.12656 2.1668 0
M  V30 15231 H 1407.15 -4.22071 2.65815 0
M  V30 15232 H 1406.3 -5.97003 1.0804 0
M  V30 15233 H 1405.04 -4.85262 0.487051 0
M  V30 15234 H 1404.04 -4.73805 2.78906 0
M  V30 15235 H 1405.27 -5.88987 3.3804 0
M  V30 15236 H 1403.22 -6.44802 1.20691 0
M  V30 15237 H 1403.13 -7.00366 2.84647 0
M  V30 15238 H 1404.4 -7.5825 1.80769 0
M  V30 15239 N 1408.63 -1.05812 -1.16797 0
M  V30 15240 C 1410.04 -0.79707 -1.6883 0
M  V30 15241 C 1410.39 0.679967 -1.8404 0
M  V30 15242 O 1409.52 1.5279 -1.53245 0
M  V30 15243 C 1410.11 -1.44029 -3.06661 0
M  V30 15244 C 1408.67 -1.22714 -3.55835 0
M  V30 15245 C 1407.82 -1.51988 -2.31937 0
M  V30 15246 H 1410.77 -1.22224 -1.01227 0
M  V30 15247 H 1410.79 -0.852962 -3.70816 0
M  V30 15248 H 1410.3 -2.51529 -2.95559 0
M  V30 15249 H 1408.4 -0.171671 -3.72204 0
M  V30 15250 H 1408.52 -1.93646 -4.38221 0
M  V30 15251 H 1406.88 -0.940215 -2.36711 0
M  V30 15252 H 1407.66 -2.60635 -2.23438 0
M  V30 15253 N 1410.11 1.33347 -0.840014 0
M  V30 15254 C 1411.06 2.31113 -0.262617 0
M  V30 15255 C 1412.05 1.58189 0.606023 0
M  V30 15256 O 1413.26 1.73047 0.495457 0
M  V30 15257 H 1409.63 0.74908 -0.0662003 0
M  V30 15258 H 1411.6 2.77318 -1.10169 0
M  V30 15259 C 1410.35 3.43377 0.54658 0
M  V30 15260 H 1409.67 3.99642 -0.112514 0
M  V30 15261 H 1411.11 4.13978 0.91641 0
M  V30 15262 C 1409.57 2.89333 1.72592 0
M  V30 15263 O 1410.1 2.85615 2.82466 0
M  V30 15264 N 1408.31 2.45926 1.54819 0
M  V30 15265 H 1407.86 2.49149 0.654404 0
M  V30 15266 H 1407.81 2.10119 2.33875 0
M  V30 15267 N 1411.59 0.596556 1.45873 0
M  V30 15268 C 1412.81 0.0916466 2.07197 0
M  V30 15269 C 1413.24 -1.21004 1.44012 0
M  V30 15270 O 1412.59 -1.73415 0.528844 0
M  V30 15271 C 1412.64 -0.0461457 3.6057 0
M  V30 15272 O 1411.75 -1.09919 3.97481 0
M  V30 15273 H 1411.09 0.0690655 0.660398 0
M  V30 15274 H 1413.62 0.823434 1.87299 0
M  V30 15275 H 1413.63 -0.2479 4.07246 0
M  V30 15276 H 1412.3 0.904381 4.05948 0
M  V30 15277 H 1410.88 -0.874788 3.62494 0
M  V30 15278 N 1413.06 -1.53996 0.335095 0
M  V30 15279 C 1413.97 -2.28436 -0.534244 0
M  V30 15280 C 1414.99 -1.33224 -1.11926 0
M  V30 15281 O 1416.17 -1.66252 -1.13676 0
M  V30 15282 C 1413.23 -3.03634 -1.67354 0
M  V30 15283 C 1412.29 -4.14455 -1.11916 0
M  V30 15284 C 1411.52 -4.86058 -2.20416 0
M  V30 15285 O 1411.75 -4.57263 -3.40979 0
M  V30 15286 O 1410.68 -5.72704 -1.85185 0
M  V30 15287 H 1414.51 -3.03618 0.0706314 0
M  V30 15288 H 1412.09 -1.49062 0.100409 0
M  V30 15289 H 1413.97 -3.50687 -2.33659 0
M  V30 15290 H 1412.65 -2.31317 -2.26438 0
M  V30 15291 H 1411.56 -3.71725 -0.420871 0
M  V30 15292 H 1412.89 -4.8885 -0.573295 0
M  V30 15293 N 1414.54 -0.0635198 -1.57472 0
M  V30 15294 C 1415.96 0.293084 -1.56886 0
M  V30 15295 C 1416.16 1.70603 -1.07224 0
M  V30 15296 O 1415.21 2.41584 -0.734388 0
M  V30 15297 C 1416.53 0.110286 -3.00498 0
M  V30 15298 C 1418.07 0.180453 -3.12479 0
M  V30 15299 C 1418.55 0.0260354 -4.57993 0
M  V30 15300 N 1420.04 0.0819109 -4.63128 0
M  V30 15301 C 1420.78 -0.0132764 -5.73398 0
M  V30 15302 N 1420.27 -0.161514 -6.92612 0
M  V30 15303 N 1422.06 0.0431948 -5.62083 0
M  V30 15304 H 1414.22 -0.98706 -1.88072 0
M  V30 15305 H 1416.48 -0.384232 -0.866643 0
M  V30 15306 H 1416.18 -0.864378 -3.40913 0
M  V30 15307 H 1416.06 0.866117 -3.67122 0
M  V30 15308 H 1418.45 1.1456 -2.71956 0
M  V30 15309 H 1418.53 -0.606342 -2.4851 0
M  V30 15310 H 1418.17 -0.935839 -4.99204 0
M  V30 15311 H 1418.1 0.832131 -5.19984 0
M  V30 15312 H 1420.59 0.195229 -3.77395 0
M  V30 15313 H 1420.9 -0.226517 -7.72468 0
M  V30 15314 H 1419.25 -0.196766 -6.94721 0
M  V30 15315 H 1422.44 0.157648 -4.67834 0
M  V30 15316 H 1422.61 -0.0344435 -6.47991 0
M  V30 15317 N 1416.02 1.56195 0.209972 0
M  V30 15318 C 1416.95 1.89859 1.28398 0
M  V30 15319 C 1417.96 0.787878 1.42465 0
M  V30 15320 O 1419.15 1.06623 1.43156 0
M  V30 15321 C 1416.25 2.10231 2.65812 0
M  V30 15322 C 1415.43 3.41309 2.73545 0
M  V30 15323 C 1414.49 3.50973 3.92052 0
M  V30 15324 O 1413.51 4.23915 3.79849 0
M  V30 15325 N 1414.71 2.82965 5.06864 0
M  V30 15326 H 1417.48 2.82581 0.998411 0
M  V30 15327 H 1415.04 1.56882 0.399964 0
M  V30 15328 H 1417.03 2.13999 3.43492 0
M  V30 15329 H 1415.6 1.2408 2.8692 0
M  V30 15330 H 1414.82 3.49539 1.82253 0
M  V30 15331 H 1416.11 4.27636 2.7569 0
M  V30 15332 H 1415.51 2.23504 5.19676 0
M  V30 15333 H 1414.06 2.9238 5.82544 0
M  V30 15334 N 1417.5 -0.477127 1.50204 0
M  V30 15335 C 1418.46 -1.55824 1.68082 0
M  V30 15336 C 1419.46 -1.51039 0.551719 0
M  V30 15337 O 1420.65 -1.53766 0.818638 0
M  V30 15338 C 1417.78 -2.95462 1.70044 0
M  V30 15339 H 1418.98 -1.41292 2.64531 0
M  V30 15340 H 1416.53 -0.70308 1.39594 0
M  V30 15341 H 1417.26 -3.15445 0.752663 0
M  V30 15342 H 1417.05 -3.00343 2.52065 0
M  V30 15343 H 1418.54 -3.73964 1.85851 0
M  V30 15344 N 1418.98 -1.3968 -0.729882 0
M  V30 15345 C 1420.39 -1.21396 -1.0361 0
M  V30 15346 C 1420.59 -0.0791302 -2.01345 0
M  V30 15347 O 1419.65 0.567575 -2.46038 0
M  V30 15348 C 1420.96 -2.55006 -1.59349 0
M  V30 15349 C 1422.51 -2.61896 -1.71405 0
M  V30 15350 C 1422.98 -3.9574 -2.30552 0
M  V30 15351 N 1424.48 -3.97406 -2.37955 0
M  V30 15352 C 1425.21 -4.97745 -2.8467 0
M  V30 15353 N 1424.71 -6.08482 -3.31243 0
M  V30 15354 N 1426.5 -4.85121 -2.83925 0
M  V30 15355 H 1418.65 -2.12242 -0.081787 0
M  V30 15356 H 1420.91 -0.942827 -0.0989005 0
M  V30 15357 H 1420.62 -3.38626 -0.950005 0
M  V30 15358 H 1420.49 -2.75087 -2.58083 0
M  V30 15359 H 1422.88 -1.78656 -2.34874 0
M  V30 15360 H 1422.96 -2.45659 -0.7131 0
M  V30 15361 H 1422.61 -4.79412 -1.67709 0
M  V30 15362 H 1422.54 -4.09299 -3.31334 0
M  V30 15363 H 1425.03 -3.17435 -2.05044 0
M  V30 15364 H 1425.34 -6.8095 -3.65414 0
M  V30 15365 H 1423.68 -6.12068 -3.29239 0
M  V30 15366 H 1426.88 -3.97711 -2.46867 0
M  V30 15367 H 1427.05 -5.63465 -3.20017 0
M  V30 15368 N 1420.45 0.960609 -1.2494 0
M  V30 15369 C 1421.4 2.05634 -1.04801 0
M  V30 15370 C 1422.37 1.66049 0.0409611 0
M  V30 15371 O 1423.56 1.90453 -0.115053 0
M  V30 15372 C 1420.7 3.38604 -0.666444 0
M  V30 15373 C 1419.81 3.91341 -1.82964 0
M  V30 15374 C 1418.94 5.1261 -1.39299 0
M  V30 15375 C 1417.98 5.57562 -2.52569 0
M  V30 15376 N 1417.12 6.70046 -2.09722 0
M  V30 15377 H 1421.96 2.22194 -1.9858 0
M  V30 15378 H 1419.5 1.08892 -0.988981 0
M  V30 15379 H 1421.46 4.15017 -0.426205 0
M  V30 15380 H 1420.09 3.21948 0.23435 0
M  V30 15381 H 1419.14 3.11502 -2.18335 0
M  V30 15382 H 1420.45 4.20656 -2.68049 0
M  V30 15383 H 1419.6 5.96421 -1.11205 0
M  V30 15384 H 1418.34 4.84997 -0.512779 0
M  V30 15385 H 1417.35 4.72319 -2.81415 0
M  V30 15386 H 1418.57 5.87186 -3.41159 0
M  V30 15387 H 1416.52 6.44153 -1.24109 0
M  V30 15388 H 1416.44 6.98846 -2.88357 0
M  V30 15389 H 1417.7 7.57281 -1.84787 0
M  V30 15390 N 1421.93 1.0643 1.16234 0
M  V30 15391 C 1423.16 0.80148 1.9042 0
M  V30 15392 C 1423.57 -0.648064 1.77755 0
M  V30 15393 O 1422.91 -1.4555 1.12076 0
M  V30 15394 C 1422.98 1.11855 3.41656 0
M  V30 15395 C 1422.64 2.5668 3.78107 0
M  V30 15396 C 1423.64 3.54914 3.79911 0
M  V30 15397 C 1421.32 2.92015 4.08696 0
M  V30 15398 C 1423.32 4.86522 4.11795 0
M  V30 15399 C 1421 4.23823 4.40247 0
M  V30 15400 C 1422 5.20887 4.41776 0
M  V30 15401 O 1421.69 6.50329 4.72575 0
M  V30 15402 H 1421.42 0.290009 0.610632 0
M  V30 15403 H 1423.97 1.42157 1.48258 0
M  V30 15404 H 1422.2 0.441395 3.84173 0
M  V30 15405 H 1423.89 0.839759 3.97118 0
M  V30 15406 H 1424.66 3.28957 3.56388 0
M  V30 15407 H 1420.54 2.17119 4.0667 0
M  V30 15408 H 1424.08 5.62278 4.12903 0
M  V30 15409 H 1419.98 4.49538 4.63235 0
M  V30 15410 H 1420.75 6.55339 4.90381 0
M  V30 15411 N 1423.41 -1.329 0.847073 0
M  V30 15412 C 1424.69 -1.921 0.368351 0
M  V30 15413 C 1425.07 -1.77205 -1.14724 0
M  V30 15414 O 1424.42 -1.16547 -1.96543 0
M  V30 15415 C 1424.63 -3.39125 0.824326 0
M  V30 15416 C 1425.97 -4.16267 0.837097 0
M  V30 15417 O 1427 -3.47812 0.768466 0
M  V30 15418 O 1425.86 -5.38487 0.932389 0
M  V30 15419 H 1422.95 -0.820187 0.105936 0
M  V30 15420 H 1425.5 -1.41719 0.933471 0
M  V30 15421 H 1424.27 -3.43875 1.86723 0
M  V30 15422 H 1423.89 -3.96898 0.236233 0
M  V30 15423 N 1424.89 -0.604284 -1.45555 0
M  V30 15424 C 1425.84 0.116491 -2.30506 0
M  V30 15425 C 1426.81 0.863214 -1.41908 0
M  V30 15426 O 1427.99 0.849606 -1.7084 0
M  V30 15427 C 1425.13 1.11009 -3.26758 0
M  V30 15428 C 1424.24 0.36458 -4.30459 0
M  V30 15429 C 1423.38 1.34761 -5.13822 0
M  V30 15430 C 1422.42 0.589724 -6.09253 0
M  V30 15431 N 1421.55 1.52187 -6.85408 0
M  V30 15432 H 1426.39 -0.61394 -2.91607 0
M  V30 15433 H 1423.93 -0.314561 -1.43697 0
M  V30 15434 H 1425.89 1.69925 -3.81027 0
M  V30 15435 H 1424.52 1.80797 -2.67418 0
M  V30 15436 H 1423.57 -0.340026 -3.78877 0
M  V30 15437 H 1424.88 -0.226906 -4.98284 0
M  V30 15438 H 1424.04 2.00893 -5.72474 0
M  V30 15439 H 1422.78 1.97302 -4.46008 0
M  V30 15440 H 1421.78 -0.0852486 -5.49734 0
M  V30 15441 H 1423.01 -0.0306001 -6.79093 0
M  V30 15442 H 1420.95 2.13499 -6.20286 0
M  V30 15443 H 1420.87 0.983737 -7.49572 0
M  V30 15444 H 1422.14 2.17287 -7.48603 0
M  V30 15445 N 1426.37 1.53816 -0.343257 0
M  V30 15446 C 1427.28 2.28716 0.522121 0
M  V30 15447 C 1428.29 1.33815 1.11218 0
M  V30 15448 O 1429.47 1.66853 1.12793 0
M  V30 15449 C 1426.53 3.04517 1.65741 0
M  V30 15450 C 1425.59 4.15043 1.09716 0
M  V30 15451 C 1424.83 4.8722 2.17835 0
M  V30 15452 O 1425.05 4.59065 3.38549 0
M  V30 15453 O 1423.98 5.73678 1.82145 0
M  V30 15454 H 1427.81 3.03576 -0.086732 0
M  V30 15455 H 1425.4 1.49007 -0.108313 0
M  V30 15456 H 1427.28 3.51921 2.31796 0
M  V30 15457 H 1425.95 2.32514 2.25208 0
M  V30 15458 H 1424.86 3.71943 0.401152 0
M  V30 15459 H 1426.19 4.89147 0.547362 0
M  V30 15460 N 1427.84 0.0718701 1.57436 0
M  V30 15461 C 1428.79 -0.895335 2.12726 0
M  V30 15462 C 1429.76 -1.29528 1.03979 0
M  V30 15463 O 1430.95 -1.38113 1.31642 0
M  V30 15464 C 1428.09 -2.15755 2.6934 0
M  V30 15465 C 1427.2 -1.81023 3.92243 0
M  V30 15466 C 1426.33 -3.01856 4.371 0
M  V30 15467 C 1425.37 -2.63141 5.52651 0
M  V30 15468 N 1424.51 -3.76734 5.92466 0
M  V30 15469 H 1429.35 -0.416964 2.95068 0
M  V30 15470 H 1426.89 -0.194165 1.45813 0
M  V30 15471 H 1428.85 -2.89642 3.00272 0
M  V30 15472 H 1427.48 -2.61132 1.89762 0
M  V30 15473 H 1426.53 -0.971983 3.67773 0
M  V30 15474 H 1427.84 -1.4854 4.76169 0
M  V30 15475 H 1426.99 -3.84022 4.69694 0
M  V30 15476 H 1425.73 -3.37533 3.52027 0
M  V30 15477 H 1424.74 -1.79397 5.19708 0
M  V30 15478 H 1425.96 -2.28635 6.39455 0
M  V30 15479 H 1423.91 -4.12173 5.10343 0
M  V30 15480 H 1423.83 -3.48019 6.71132 0
M  V30 15481 H 1425.09 -4.59479 6.29682 0
M  V30 15482 N 1429.32 -1.56304 -0.201686 0
M  V30 15483 C 1430.57 -1.80504 -0.92446 0
M  V30 15484 C 1430.9 -0.644832 -1.83182 0
M  V30 15485 O 1430.18 0.354963 -1.91234 0
M  V30 15486 C 1430.46 -3.14919 -1.74636 0
M  V30 15487 C 1430.31 -4.41421 -0.864169 0
M  V30 15488 C 1431.63 -3.45962 -2.72026 0
M  V30 15489 H 1428.75 -0.656643 -0.334648 0
M  V30 15490 H 1431.39 -1.89025 -0.192188 0
M  V30 15491 H 1429.54 -3.07785 -2.37066 0
M  V30 15492 H 1431.21 -4.60594 -0.255084 0
M  V30 15493 H 1429.46 -4.33465 -0.170548 0
M  V30 15494 H 1430.13 -5.31954 -1.47409 0
M  V30 15495 H 1432.6 -3.53353 -2.1973 0
M  V30 15496 H 1431.48 -4.41146 -3.26622 0
M  V30 15497 H 1431.74 -2.69124 -3.50749 0
M  V30 15498 N 1430.8 0.469154 -1.50455 0
M  V30 15499 C 1431.73 1.57493 -1.7239 0
M  V30 15500 C 1432.71 1.60161 -0.572915 0
M  V30 15501 O 1433.9 1.76397 -0.812259 0
M  V30 15502 C 1431.03 2.95804 -1.81981 0
M  V30 15503 C 1429.98 3.08001 -2.97185 0
M  V30 15504 C 1429.31 4.4798 -2.91922 0
M  V30 15505 C 1430.61 2.85039 -4.37665 0
M  V30 15506 H 1432.3 1.39389 -2.64974 0
M  V30 15507 H 1429.85 0.669133 -1.27509 0
M  V30 15508 H 1431.8 3.73091 -1.95911 0
M  V30 15509 H 1430.52 3.15068 -0.86021 0
M  V30 15510 H 1429.18 2.33148 -2.82909 0
M  V30 15511 H 1428.83 4.64165 -1.93803 0
M  V30 15512 H 1428.53 4.57076 -3.69263 0
M  V30 15513 H 1430.05 5.27284 -3.07903 0
M  V30 15514 H 1431.47 3.52074 -4.52456 0
M  V30 15515 H 1429.87 3.05578 -5.16471 0
M  V30 15516 H 1430.94 1.8088 -4.499 0
M  V30 15517 N 1432.28 1.40065 0.722464 0
M  V30 15518 C 1433.21 1.42532 1.84951 0
M  V30 15519 C 1434.19 0.287082 1.6766 0
M  V30 15520 O 1435.37 0.494715 1.87793 0
M  V30 15521 C 1432.5 1.28041 3.22836 0
M  V30 15522 C 1431.46 2.39396 3.54787 0
M  V30 15523 C 1430.78 2.09986 4.91742 0
M  V30 15524 C 1432.08 3.81729 3.56483 0
M  V30 15525 H 1433.78 2.36851 1.83144 0
M  V30 15526 H 1431.32 1.14005 0.879714 0
M  V30 15527 H 1433.28 1.28385 4.01367 0
M  V30 15528 H 1432 0.301947 3.25201 0
M  V30 15529 H 1430.66 2.3829 2.78592 0
M  V30 15530 H 1430.31 1.10547 4.90702 0
M  V30 15531 H 1430.01 2.84586 5.14086 0
M  V30 15532 H 1431.53 2.12 5.72615 0
M  V30 15533 H 1432.95 3.84696 4.25067 0
M  V30 15534 H 1431.34 4.55791 3.90351 0
M  V30 15535 H 1432.41 4.11807 2.56014 0
M  V30 15536 N 1433.76 -0.95397 1.25448 0
M  V30 15537 C 1434.69 -2.05412 1.01679 0
M  V30 15538 C 1435.7 -1.62789 -0.0184932 0
M  V30 15539 O 1436.89 -1.77137 0.220136 0
M  V30 15540 C 1433.99 -3.3496 0.515292 0
M  V30 15541 C 1433.16 -4.06418 1.61688 0
M  V30 15542 C 1432.22 -5.14237 1.11564 0
M  V30 15543 O 1431.25 -5.39649 1.81017 0
M  V30 15544 N 1432.45 -5.80484 -0.0427228 0
M  V30 15545 H 1435.22 -2.26372 1.96407 0
M  V30 15546 H 1432.78 -1.12257 1.16662 0
M  V30 15547 H 1434.77 -4.04366 0.164426 0
M  V30 15548 H 1433.34 -3.10767 -0.33807 0
M  V30 15549 H 1432.56 -3.31101 2.1393 0
M  V30 15550 H 1433.85 -4.50917 2.35693 0
M  V30 15551 H 1433.25 -5.62259 -0.623038 0
M  V30 15552 H 1431.8 -6.50941 -0.334615 0
M  V30 15553 N 1435.24 -1.07045 -1.15668 0
M  V30 15554 C 1436.17 -0.709413 -2.22463 0
M  V30 15555 C 1437.15 0.30169 -1.67403 0
M  V30 15556 O 1438.33 0.175131 -1.93409 0
M  V30 15557 C 1435.46 -0.103121 -3.47147 0
M  V30 15558 C 1434.42 -1.04103 -4.15146 0
M  V30 15559 C 1433.74 -0.297656 -5.33871 0
M  V30 15560 C 1435.04 -2.37332 -4.65264 0
M  V30 15561 H 1436.74 -1.60227 -2.52918 0
M  V30 15562 H 1434.28 -0.771846 -1.21567 0
M  V30 15563 H 1436.23 0.161371 -4.21091 0
M  V30 15564 H 1434.96 0.824792 -3.16014 0
M  V30 15565 H 1433.62 -1.2904 -3.43139 0
M  V30 15566 H 1433.27 0.633618 -4.98993 0
M  V30 15567 H 1432.97 -0.922789 -5.80309 0
M  V30 15568 H 1434.49 -0.0408892 -6.10586 0
M  V30 15569 H 1435.9 -2.1674 -5.30751 0
M  V30 15570 H 1434.3 -2.95412 -5.22352 0
M  V30 15571 H 1435.37 -2.99859 -3.81068 0
M  V30 15572 N 1436.71 1.32449 -0.85411 0
M  V30 15573 C 1438.13 1.50046 -0.543895 0
M  V30 15574 C 1438.33 1.78985 0.925561 0
M  V30 15575 O 1437.39 1.85909 1.70862 0
M  V30 15576 C 1438.7 2.64499 -1.43041 0
M  V30 15577 C 1440.25 2.78384 -1.43078 0
M  V30 15578 C 1440.72 3.95915 -2.3025 0
M  V30 15579 N 1442.21 4.03176 -2.28043 0
M  V30 15580 C 1442.95 4.9335 -2.92221 0
M  V30 15581 N 1442.44 5.88536 -3.6551 0
M  V30 15582 N 1444.24 4.86468 -2.81612 0
M  V30 15583 H 1436.39 1.11931 -1.80514 0
M  V30 15584 H 1438.65 0.551626 -0.770982 0
M  V30 15585 H 1438.36 2.49842 -2.47532 0
M  V30 15586 H 1438.23 3.60269 -1.11742 0
M  V30 15587 H 1440.62 2.92464 -0.393529 0
M  V30 15588 H 1440.7 1.83329 -1.78393 0
M  V30 15589 H 1440.34 3.82594 -3.34043 0
M  V30 15590 H 1440.27 4.90245 -1.92268 0
M  V30 15591 H 1442.76 3.35064 -1.74759 0
M  V30 15592 H 1443.08 6.54038 -4.11648 0
M  V30 15593 H 1441.42 5.88564 -3.69618 0
M  V30 15594 H 1444.61 4.11076 -2.23907 0
M  V30 15595 H 1444.79 5.56542 -3.3191 0
M  V30 15596 N 1438.19 0.611994 1.45232 0
M  V30 15597 C 1439.42 0.115242 2.06278 0
M  V30 15598 C 1439.83 -1.20752 1.45656 0
M  V30 15599 O 1439.17 -1.7474 0.566697 0
M  V30 15600 C 1439.23 -0.0941449 3.59377 0
M  V30 15601 C 1438.9 1.1475 4.42359 0
M  V30 15602 C 1439.9 2.06669 4.77058 0
M  V30 15603 C 1437.58 1.37756 4.83041 0
M  V30 15604 C 1439.57 3.19919 5.51299 0
M  V30 15605 C 1437.26 2.51306 5.57035 0
M  V30 15606 C 1438.26 3.42216 5.91082 0
M  V30 15607 O 1437.95 4.5379 6.63574 0
M  V30 15608 H 1437.68 0.0680317 0.672568 0
M  V30 15609 H 1440.23 0.840932 1.87397 0
M  V30 15610 H 1438.46 -0.874775 3.76676 0
M  V30 15611 H 1440.15 -0.543047 4.02251 0
M  V30 15612 H 1440.92 1.90122 4.46182 0
M  V30 15613 H 1436.8 0.678922 4.55973 0
M  V30 15614 H 1440.34 3.90901 5.77791 0
M  V30 15615 H 1436.24 2.67804 5.87325 0
M  V30 15616 H 1437.01 4.52527 6.82027 0
M  V30 15617 N 1439.67 -1.53632 0.351409 0
M  V30 15618 C 1440.9 -2.05458 -0.243852 0
M  V30 15619 C 1441.31 -1.22588 -1.43589 0
M  V30 15620 O 1440.67 -0.263088 -1.80594 0
M  V30 15621 C 1440.72 -3.55586 -0.651226 0
M  V30 15622 O 1440.44 -4.35313 0.493415 0
M  V30 15623 C 1441.94 -4.23614 -1.30637 0
M  V30 15624 H 1439.16 -0.669443 -0.0456828 0
M  V30 15625 H 1441.71 -1.98149 0.505675 0
M  V30 15626 H 1439.86 -3.63091 -1.35068 0
M  V30 15627 H 1440.28 -5.24234 0.167107 0
M  V30 15628 H 1441.75 -5.30022 -1.5421 0
M  V30 15629 H 1442.23 -3.76449 -2.26236 0
M  V30 15630 H 1442.83 -4.20323 -0.648738 0
M  V30 15631 N 1441.15 -0.0802183 -1.57396 0
M  V30 15632 C 1442.4 0.585802 -1.93424 0
M  V30 15633 C 1442.72 1.69638 -0.961662 0
M  V30 15634 O 1441.99 1.95897 -0.011202 0
M  V30 15635 H 1440.57 0.219382 -0.714059 0
M  V30 15636 H 1443.23 -0.140055 -1.94396 0
M  V30 15637 H 1442.32 1.00566 -2.95454 0
M  V30 15638 N 1442.63 1.56409 0.193394 0
M  V30 15639 C 1443.87 1.79919 0.911712 0
M  V30 15640 C 1444.19 0.653729 1.84352 0
M  V30 15641 O 1445.39 0.773172 2.60258 0
M  V30 15642 C 1443.85 3.18726 1.67158 0
M  V30 15643 C 1443.46 4.41078 0.784512 0
M  V30 15644 C 1445.2 3.51544 2.37944 0
M  V30 15645 C 1443.11 5.70907 1.54335 0
M  V30 15646 H 1442.04 0.670864 0.344177 0
M  V30 15647 H 1444.69 1.82757 0.164967 0
M  V30 15648 H 1443.07 3.10142 2.46227 0
M  V30 15649 H 1444.25 4.60789 0.032356 0
M  V30 15650 H 1442.56 4.15978 0.187407 0
M  V30 15651 H 1445.16 4.45779 2.95271 0
M  V30 15652 H 1445.5 2.75369 3.12214 0
M  V30 15653 H 1446.03 3.61583 1.65839 0
M  V30 15654 H 1442.77 6.50052 0.843393 0
M  V30 15655 H 1442.29 5.5521 2.26939 0
M  V30 15656 H 1443.97 6.12085 2.09669 0
M  V30 15657 N 1444.1 -0.461169 1.50702 0
M  V30 15658 C 1445.03 -1.56576 1.73223 0
M  V30 15659 C 1446.01 -1.59855 0.581401 0
M  V30 15660 O 1447.2 -1.75964 0.821602 0
M  V30 15661 C 1444.33 -2.94835 1.83548 0
M  V30 15662 C 1443.28 -3.06421 2.98815 0
M  V30 15663 C 1442.61 -4.46425 2.94293 0
M  V30 15664 C 1443.91 -2.82714 4.3917 0
M  V30 15665 H 1445.6 -1.37982 2.65709 0
M  V30 15666 H 1443.15 -0.662362 1.27862 0
M  V30 15667 H 1445.1 -3.72047 1.97887 0
M  V30 15668 H 1443.83 -3.14608 0.876906 0
M  V30 15669 H 1442.49 -2.31644 2.84142 0
M  V30 15670 H 1442.13 -4.63131 1.96262 0
M  V30 15671 H 1441.83 -4.55111 3.71682 0
M  V30 15672 H 1443.36 -5.25644 3.10695 0
M  V30 15673 H 1444.77 -3.4967 4.54317 0
M  V30 15674 H 1443.17 -3.02835 5.18084 0
M  V30 15675 H 1444.24 -1.78492 4.50853 0
M  V30 15676 N 1445.58 -1.40446 -0.715026 0
M  V30 15677 C 1446.49 -1.43074 -1.85922 0
M  V30 15678 C 1447.51 -0.323294 -1.7097 0
M  V30 15679 O 1448.68 -0.567966 -1.93226 0
M  V30 15680 C 1445.75 -1.29206 -3.21725 0
M  V30 15681 C 1444.81 -2.50097 -3.48927 0
M  V30 15682 C 1444.04 -2.36881 -4.7825 0
M  V30 15683 O 1444.27 -1.38292 -5.53382 0
M  V30 15684 O 1443.2 -3.26266 -5.058 0
M  V30 15685 H 1447.03 -2.39565 -1.86661 0
M  V30 15686 H 1444.61 -1.21775 -0.865522 0
M  V30 15687 H 1446.49 -1.23681 -4.02841 0
M  V30 15688 H 1445.17 -0.358207 -3.21712 0
M  V30 15689 H 1444.07 -2.61199 -2.67817 0
M  V30 15690 H 1445.41 -3.42244 -3.53737 0
M  V30 15691 N 1447.06 0.947303 -1.25952 0
M  V30 15692 C 1448.29 1.7273 -1.13895 0
M  V30 15693 C 1448.7 1.86296 0.306488 0
M  V30 15694 O 1448.06 1.36594 1.2103 0
M  V30 15695 C 1448.11 3.13727 -1.79604 0
M  V30 15696 O 1447.83 3.00816 -3.18499 0
M  V30 15697 C 1449.33 4.0797 -1.73422 0
M  V30 15698 H 1446.55 0.54102 -0.39691 0
M  V30 15699 H 1449.1 1.18797 -1.66456 0
M  V30 15700 H 1447.25 3.6458 -1.30997 0
M  V30 15701 H 1447.67 3.89813 -3.50922 0
M  V30 15702 H 1449.14 5.04487 -2.24047 0
M  V30 15703 H 1449.62 4.33594 -0.699481 0
M  V30 15704 H 1450.22 3.63035 -2.21553 0
M  V30 15705 N 1448.54 1.07657 1.15099 0
M  V30 15706 C 1449.5 0.703558 2.18135 0
M  V30 15707 C 1450.5 -0.257771 1.5872 0
M  V30 15708 O 1451.69 -0.0383211 1.74158 0
M  V30 15709 C 1448.82 0.0374978 3.40879 0
M  V30 15710 H 1450.02 1.61583 2.52648 0
M  V30 15711 H 1447.57 0.873484 1.29615 0
M  V30 15712 H 1448.3 -0.886868 3.11938 0
M  V30 15713 H 1448.09 0.728961 3.85264 0
M  V30 15714 H 1449.58 -0.208714 4.17078 0
M  V30 15715 N 1450.02 -1.31994 0.861122 0
M  V30 15716 C 1451.43 -1.49756 0.551844 0
M  V30 15717 C 1451.63 -1.79473 -0.916056 0
M  V30 15718 O 1450.69 -1.86813 -1.69874 0
M  V30 15719 C 1452 -2.63737 1.44442 0
M  V30 15720 C 1453.55 -2.77621 1.44552 0
M  V30 15721 C 1454.02 -3.94689 2.32346 0
M  V30 15722 N 1455.52 -4.01961 2.30177 0
M  V30 15723 C 1456.25 -4.91794 2.94833 0
M  V30 15724 N 1455.75 -5.86589 3.68626 0
M  V30 15725 N 1457.54 -4.84968 2.84188 0
M  V30 15726 H 1449.69 -1.10972 1.81105 0
M  V30 15727 H 1451.95 -0.54753 0.773896 0
M  V30 15728 H 1451.66 -2.48526 2.48853 0
M  V30 15729 H 1451.53 -3.59671 1.13651 0
M  V30 15730 H 1453.92 -2.92251 0.409034 0
M  V30 15731 H 1454 -1.8238 1.79363 0
M  V30 15732 H 1453.65 -3.80817 3.36067 0
M  V30 15733 H 1453.58 -4.89219 1.94865 0
M  V30 15734 H 1456.07 -3.34132 1.76533 0
M  V30 15735 H 1456.38 -6.51846 4.15111 0
M  V30 15736 H 1454.72 -5.86596 3.72734 0
M  V30 15737 H 1457.92 -4.09883 2.26084 0
M  V30 15738 H 1458.09 -5.54774 3.34857 0
M  V30 15739 N 1451.49 -0.619688 -1.44906 0
M  V30 15740 C 1452.74 -0.117147 -2.0136 0
M  V30 15741 C 1453.06 1.2644 -1.49239 0
M  V30 15742 O 1454.26 1.86034 -1.97747 0
M  V30 15743 C 1452.72 -0.15871 -3.5955 0
M  V30 15744 C 1452.33 -1.54086 -4.20668 0
M  V30 15745 C 1454.07 0.287961 -4.23522 0
M  V30 15746 C 1451.98 -1.53816 -5.71047 0
M  V30 15747 H 1450.91 -0.040028 -0.752937 0
M  V30 15748 H 1453.56 -0.776802 -1.66247 0
M  V30 15749 H 1451.94 0.56783 -3.91908 0
M  V30 15750 H 1453.11 -2.29007 -3.99865 0
M  V30 15751 H 1451.43 -1.93065 -3.68938 0
M  V30 15752 H 1454.03 0.309351 -5.33804 0
M  V30 15753 H 1454.37 1.31305 -3.9505 0
M  V30 15754 H 1454.9 -0.385707 -3.95926 0
M  V30 15755 H 1451.64 -2.54124 -6.04236 0
M  V30 15756 H 1451.16 -0.831708 -5.94006 0
M  V30 15757 H 1452.84 -1.26708 -6.34472 0
M  V30 15758 N 1452.97 1.53444 -0.359552 0
M  V30 15759 C 1454.39 1.59598 -0.00824946 0
M  V30 15760 C 1454.59 1.37492 1.47303 0
M  V30 15761 O 1453.64 1.1771 2.23385 0
M  V30 15762 C 1454.96 2.9718 -0.45878 0
M  V30 15763 C 1456.51 3.1027 -0.412485 0
M  V30 15764 C 1456.98 4.50255 -0.838733 0
M  V30 15765 N 1458.47 4.56352 -0.793552 0
M  V30 15766 C 1459.21 5.62845 -1.09513 0
M  V30 15767 N 1458.7 6.77119 -1.46567 0
M  V30 15768 N 1460.5 5.52799 -1.01832 0
M  V30 15769 H 1452.65 1.66065 -1.32424 0
M  V30 15770 H 1454.91 0.778561 -0.540876 0
M  V30 15771 H 1454.62 3.18475 -1.4922 0
M  V30 15772 H 1454.49 3.7687 0.157741 0
M  V30 15773 H 1456.88 2.88689 0.611791 0
M  V30 15774 H 1456.96 2.32602 -1.06442 0
M  V30 15775 H 1456.6 4.72573 -1.8611 0
M  V30 15776 H 1456.53 5.26344 -0.164109 0
M  V30 15777 H 1459.02 3.74299 -0.52048 0
M  V30 15778 H 1459.34 7.54313 -1.68021 0
M  V30 15779 H 1457.68 6.78525 -1.50427 0
M  V30 15780 H 1460.87 4.62403 -0.728059 0
M  V30 15781 H 1461.04 6.35698 -1.25668 0
M  V30 15782 N 1454.45 0.0885642 1.57351 0
M  V30 15783 C 1455.87 -0.268088 1.57332 0
M  V30 15784 C 1456.07 -1.68875 1.09924 0
M  V30 15785 O 1455.12 -2.40385 0.772729 0
M  V30 15786 C 1456.44 -0.0624654 3.00635 0
M  V30 15787 C 1457.98 -0.130717 3.12727 0
M  V30 15788 C 1458.46 0.0468305 4.57976 0
M  V30 15789 N 1459.95 -0.00822093 4.63199 0
M  V30 15790 C 1460.68 0.104497 5.73305 0
M  V30 15791 N 1460.18 0.271682 6.92267 0
M  V30 15792 N 1461.97 0.0462333 5.62081 0
M  V30 15793 H 1454.12 1.01686 1.86477 0
M  V30 15794 H 1456.39 0.397971 0.86042 0
M  V30 15795 H 1456.09 0.918505 3.39494 0
M  V30 15796 H 1455.97 -0.807602 3.68453 0
M  V30 15797 H 1458.35 -1.10219 2.73744 0
M  V30 15798 H 1458.44 0.645801 2.47514 0
M  V30 15799 H 1458.08 1.01514 4.97652 0
M  V30 15800 H 1458.01 -0.7493 5.21242 0
M  V30 15801 H 1460.5 -0.135164 3.77658 0
M  V30 15802 H 1460.81 0.349381 7.7201 0
M  V30 15803 H 1459.16 0.307265 6.9432 0
M  V30 15804 H 1462.35 -0.0831995 4.68026 0
M  V30 15805 H 1462.52 0.137529 6.47854 0
M  V30 15806 N 1455.93 -1.56509 -0.185096 0
M  V30 15807 C 1456.86 -1.98363 -1.23184 0
M  V30 15808 C 1457.84 -0.85709 -1.46929 0
M  V30 15809 O 1459.02 -1.12216 -1.58497 0
M  V30 15810 C 1456.15 -2.33172 -2.57387 0
M  V30 15811 C 1455.11 -3.48658 -2.48236 0
M  V30 15812 C 1454.43 -3.69171 -3.86804 0
M  V30 15813 C 1455.73 -4.82538 -1.99885 0
M  V30 15814 H 1457.43 -2.86053 -0.883982 0
M  V30 15815 H 1454.97 -1.37623 -0.423786 0
M  V30 15816 H 1456.93 -2.61048 -3.30805 0
M  V30 15817 H 1455.65 -1.42377 -2.93933 0
M  V30 15818 H 1454.31 -3.20889 -1.77273 0
M  V30 15819 H 1453.96 -2.75689 -4.20719 0
M  V30 15820 H 1453.66 -4.46868 -3.81553 0
M  V30 15821 H 1455.18 -3.99433 -4.61829 0
M  V30 15822 H 1456.6 -5.0938 -2.63068 0
M  V30 15823 H 1454.99 -5.63775 -2.05614 0
M  V30 15824 H 1456.06 -4.75453 -0.952503 0
M  V30 15825 N 1457.41 0.45317 -1.50944 0
M  V30 15826 C 1458.65 1.20151 -1.62506 0
M  V30 15827 C 1458.98 1.92085 -0.335927 0
M  V30 15828 O 1458.25 1.84889 0.64751 0
M  V30 15829 H 1456.83 0.446502 -0.59887 0
M  V30 15830 H 1459.49 0.521103 -1.87804 0
M  V30 15831 H 1458.58 1.93972 -2.44502 0
M  V30 15832 N 1458.88 1.40823 0.707568 0
M  V30 15833 C 1460.13 1.39535 1.46753 0
M  V30 15834 C 1460.46 0.000370511 1.945 0
M  V30 15835 O 1459.71 -0.985628 1.69068 0
M  V30 15836 C 1460.01 2.33829 2.70294 0
M  V30 15837 C 1459.68 3.8092 2.41269 0
M  V30 15838 C 1458.34 4.20993 2.33063 0
M  V30 15839 C 1460.69 4.73839 2.17086 0
M  V30 15840 C 1458.02 5.52009 1.98754 0
M  V30 15841 C 1460.37 6.05161 1.84289 0
M  V30 15842 C 1459.04 6.44268 1.74571 0
M  V30 15843 H 1458.31 0.510593 0.537006 0
M  V30 15844 H 1460.95 1.73536 0.809789 0
M  V30 15845 H 1459.26 1.9304 3.40944 0
M  V30 15846 H 1460.96 2.30111 3.28405 0
M  V30 15847 H 1457.55 3.49175 2.48545 0
M  V30 15848 H 1461.73 4.43691 2.22377 0
M  V30 15849 H 1456.99 5.81202 1.89774 0
M  V30 15850 H 1461.16 6.7667 1.64593 0
M  V30 15851 H 1458.79 7.45703 1.47753 0
M  V30 15852 N 1460.36 -0.94061 1.26453 0
M  V30 15853 C 1461.59 -1.72654 1.14914 0
M  V30 15854 C 1462.01 -1.85823 -0.291789 0
M  V30 15855 O 1461.37 -1.34888 -1.2114 0
M  V30 15856 C 1461.42 -3.11083 1.82372 0
M  V30 15857 O 1460.52 -3.971 1.1129 0
M  V30 15858 H 1459.86 -0.529704 0.400387 0
M  V30 15859 H 1462.39 -1.17803 1.67283 0
M  V30 15860 H 1462.4 -3.6147 1.89219 0
M  V30 15861 H 1461.08 -3.00815 2.87199 0
M  V30 15862 H 1459.66 -3.5555 1.12423 0
M  V30 15863 N 1461.84 -1.08266 -1.14527 0
M  V30 15864 C 1462.79 -0.680977 -2.17593 0
M  V30 15865 C 1463.77 0.298653 -1.58104 0
M  V30 15866 O 1464.97 0.110901 -1.76652 0
M  V30 15867 C 1462.1 -0.0902883 -3.43181 0
M  V30 15868 C 1461.18 -1.09562 -4.09704 0
M  V30 15869 N 1461.57 -2.27853 -4.51571 0
M  V30 15870 C 1459.87 -0.931053 -4.36174 0
M  V30 15871 C 1460.57 -2.91708 -5.03271 0
M  V30 15872 N 1459.55 -2.19325 -4.97391 0
M  V30 15873 H 1463.35 -1.58178 -2.47703 0
M  V30 15874 H 1460.86 -0.957169 -1.31195 0
M  V30 15875 H 1462.86 0.215428 -4.16343 0
M  V30 15876 H 1461.52 0.805513 -3.1455 0
M  V30 15877 H 1462.53 -2.65517 -4.44659 0
M  V30 15878 H 1459.21 -0.0889339 -4.17405 0
M  V30 15879 H 1460.6 -3.92202 -5.45552 0
M  V30 15880 N 1463.32 1.31536 -0.86811 0
M  V30 15881 C 1464.74 1.49461 -0.559778 0
M  V30 15882 C 1464.94 1.79957 0.906525 0
M  V30 15883 O 1463.99 1.87711 1.68881 0
M  V30 15884 C 1465.3 2.62967 -1.45839 0
M  V30 15885 C 1466.85 2.76851 -1.46023 0
M  V30 15886 C 1467.33 3.93451 -2.34436 0
M  V30 15887 N 1468.82 4.00735 -2.32306 0
M  V30 15888 C 1469.55 4.90223 -2.97437 0
M  V30 15889 N 1469.05 5.84626 -3.71731 0
M  V30 15890 N 1470.84 4.83454 -2.86755 0
M  V30 15891 H 1462.99 1.1001 -1.81691 0
M  V30 15892 H 1465.26 0.543418 -0.776789 0
M  V30 15893 H 1464.96 2.47203 -2.50168 0
M  V30 15894 H 1464.84 3.59063 -1.15556 0
M  V30 15895 H 1467.22 2.9203 -0.424527 0
M  V30 15896 H 1467.3 1.81427 -1.80327 0
M  V30 15897 H 1466.95 3.79029 -3.38082 0
M  V30 15898 H 1466.88 4.88179 -1.97457 0
M  V30 15899 H 1469.37 3.33191 -1.78303 0
M  V30 15900 H 1469.68 6.49635 -4.18562 0
M  V30 15901 H 1468.03 5.84611 -3.75839 0
M  V30 15902 H 1471.22 4.08678 -2.28254 0
M  V30 15903 H 1471.39 5.52991 -3.37795 0
M  V30 15904 N 1464.8 0.627364 1.44575 0
M  V30 15905 C 1466.05 0.127824 2.01295 0
M  V30 15906 C 1466.36 -1.25647 1.49907 0
M  V30 15907 O 1467.57 -1.84982 1.9873 0
M  V30 15908 C 1466.02 0.177775 3.59461 0
M  V30 15909 C 1465.63 1.56315 4.19845 0
M  V30 15910 C 1467.37 -0.265497 4.23669 0
M  V30 15911 C 1465.28 1.56842 5.70223 0
M  V30 15912 H 1464.21 0.0440205 0.752714 0
M  V30 15913 H 1466.86 0.785607 1.65833 0
M  V30 15914 H 1465.24 -0.547038 3.92203 0
M  V30 15915 H 1466.42 2.31125 3.98645 0
M  V30 15916 H 1464.73 1.95019 3.67909 0
M  V30 15917 H 1467.33 -0.281038 5.33961 0
M  V30 15918 H 1467.67 -1.29208 3.95741 0
M  V30 15919 H 1468.21 0.406698 3.95716 0
M  V30 15920 H 1464.94 2.57325 6.0288 0
M  V30 15921 H 1464.46 0.863198 5.93556 0
M  V30 15922 H 1466.14 1.30071 6.33791 0
M  V30 15923 N 1466.28 -1.53251 0.367684 0
M  V30 15924 C 1467.21 -2.28728 -0.469676 0
M  V30 15925 C 1468.19 -1.3124 -1.08213 0
M  V30 15926 O 1469.37 -1.60112 -1.09898 0
M  V30 15927 C 1466.5 -3.07808 -1.60846 0
M  V30 15928 C 1465.46 -4.13 -1.12315 0
M  V30 15929 C 1464.78 -4.80176 -2.35234 0
M  V30 15930 C 1466.08 -5.21892 -0.2064 0
M  V30 15931 H 1467.78 -2.98972 0.160019 0
M  V30 15932 H 1465.32 -1.43786 0.0784011 0
M  V30 15933 H 1467.27 -3.59358 -2.20091 0
M  V30 15934 H 1466 -2.35258 -2.26542 0
M  V30 15935 H 1464.66 -3.62399 -0.553378 0
M  V30 15936 H 1464.31 -4.04196 -2.99391 0
M  V30 15937 H 1464.01 -5.51261 -2.03433 0
M  V30 15938 H 1465.53 -5.34521 -2.9516 0
M  V30 15939 H 1466.94 -5.68932 -0.706386 0
M  V30 15940 H 1465.34 -6.00096 0.0208362 0
M  V30 15941 H 1466.41 -4.79051 0.750851 0
M  V30 15942 N 1467.75 -0.0969077 -1.57302 0
M  V30 15943 C 1469 0.566373 -1.94418 0
M  V30 15944 C 1469.33 1.68078 -0.978769 0
M  V30 15945 O 1468.58 1.957 0.0013214 0
M  V30 15946 C 1468.88 1.15972 -3.38061 0
M  V30 15947 C 1468.55 0.16892 -4.50583 0
M  V30 15948 C 1467.21 -0.103587 -4.81088 0
M  V30 15949 C 1469.56 -0.507513 -5.18723 0
M  V30 15950 C 1466.89 -1.05919 -5.7706 0
M  V30 15951 C 1469.24 -1.4516 -6.1572 0
M  V30 15952 C 1467.91 -1.73232 -6.44629 0
M  V30 15953 H 1467.18 0.207251 -0.711427 0
M  V30 15954 H 1469.82 -0.173125 -1.90716 0
M  V30 15955 H 1468.13 1.97551 -3.3835 0
M  V30 15956 H 1469.83 1.68066 -3.64081 0
M  V30 15957 H 1466.42 0.391501 -4.26808 0
M  V30 15958 H 1470.6 -0.310127 -4.9533 0
M  V30 15959 H 1465.86 -1.28366 -5.97773 0
M  V30 15960 H 1470.03 -1.98155 -6.67613 0
M  V30 15961 H 1467.66 -2.47436 -7.18804 0
M  V30 15962 N 1469.23 1.56605 0.176793 0
M  V30 15963 C 1470.19 1.95109 1.20271 0
M  V30 15964 C 1471.19 0.83414 1.37473 0
M  V30 15965 O 1472.38 1.10128 1.34972 0
M  V30 15966 C 1469.52 2.24112 2.56878 0
M  V30 15967 H 1470.71 2.86909 0.87312 0
M  V30 15968 H 1468.26 1.50578 0.419033 0
M  V30 15969 H 1469 1.35009 2.94861 0
M  V30 15970 H 1468.78 3.05523 2.45761 0
M  V30 15971 H 1470.27 2.54842 3.30825 0
M  V30 15972 N 1470.71 -0.445159 1.51182 0
M  V30 15973 C 1471.66 -1.5604 1.72494 0
M  V30 15974 C 1472.65 -1.58753 0.591101 0
M  V30 15975 O 1473.86 -1.62591 0.772285 0
M  V30 15976 H 1470.23 -0.518265 0.544891 0
M  V30 15977 H 1472.2 -1.35237 2.65995 0
M  V30 15978 C 1470.95 -2.93768 1.85999 0
M  V30 15979 H 1470.28 -2.9241 2.72647 0
M  V30 15980 H 1471.72 -3.71189 2.04926 0
M  V30 15981 C 1470.17 -3.31186 0.617853 0
M  V30 15982 O 1470.7 -4.01035 -0.231101 0
M  V30 15983 N 1468.91 -2.86868 0.464234 0
M  V30 15984 H 1468.46 -2.30198 1.15614 0
M  V30 15985 H 1468.42 -3.12267 -0.365643 0
M  V30 15986 N 1472.19 -1.41197 -0.700089 0
M  V30 15987 C 1473.43 -1.40311 -1.46011 0
M  V30 15988 C 1473.76 -0.0106853 -1.94497 0
M  V30 15989 O 1473.02 0.976648 -1.69588 0
M  V30 15990 C 1473.32 -2.35259 -2.6905 0
M  V30 15991 C 1472.98 -3.82194 -2.39245 0
M  V30 15992 C 1471.64 -4.22223 -2.30827 0
M  V30 15993 C 1474 -4.74983 -2.1457 0
M  V30 15994 C 1471.32 -5.53055 -1.95824 0
M  V30 15995 C 1473.68 -6.0613 -1.81077 0
M  V30 15996 C 1472.34 -6.45185 -1.71151 0
M  V30 15997 H 1471.61 -0.513434 -0.534291 0
M  V30 15998 H 1474.26 -1.73963 -0.800574 0
M  V30 15999 H 1472.56 -1.94845 -3.39915 0
M  V30 16000 H 1474.26 -2.31849 -3.2718 0
M  V30 16001 H 1470.85 -3.50488 -2.4669 0
M  V30 16002 H 1475.03 -4.44864 -2.20021 0
M  V30 16003 H 1470.29 -5.822 -1.86689 0
M  V30 16004 H 1474.46 -6.77533 -1.61002 0
M  V30 16005 H 1472.09 -7.46476 -1.43796 0
M  V30 16006 N 1473.67 0.933891 -1.2695 0
M  V30 16007 C 1474.91 1.67539 -1.1231 0
M  V30 16008 C 1475.23 1.92765 0.331788 0
M  V30 16009 O 1476.43 2.6481 0.598983 0
M  V30 16010 C 1474.89 3.01722 -1.96194 0
M  V30 16011 C 1474.5 2.84216 -3.46302 0
M  V30 16012 C 1476.24 3.79513 -1.90185 0
M  V30 16013 C 1474.15 4.13916 -4.22407 0
M  V30 16014 H 1473.08 0.62839 -0.416704 0
M  V30 16015 H 1475.73 1.03801 -1.5132 0
M  V30 16016 H 1474.11 3.66482 -1.50023 0
M  V30 16017 H 1475.29 2.28261 -4.00292 0
M  V30 16018 H 1473.6 2.1986 -3.53625 0
M  V30 16019 H 1476.2 4.75615 -2.44325 0
M  V30 16020 H 1476.54 4.07019 -0.874129 0
M  V30 16021 H 1477.07 3.21539 -2.34217 0
M  V30 16022 H 1473.81 3.91591 -5.25677 0
M  V30 16023 H 1473.33 4.69558 -3.73196 0
M  V30 16024 H 1475.01 4.82322 -4.31248 0
M  V30 16025 N 1475.14 1.08871 1.13951 0
M  V30 16026 C 1476.09 0.722966 2.19184 0
M  V30 16027 C 1477.06 -0.293108 1.63493 0
M  V30 16028 O 1478.25 -0.176036 1.89986 0
M  V30 16029 C 1475.39 0.143542 3.44801 0
M  V30 16030 C 1474.5 1.21297 4.14622 0
M  V30 16031 C 1473.63 0.596902 5.27836 0
M  V30 16032 C 1472.67 1.64803 5.89497 0
M  V30 16033 N 1471.81 1.05341 6.94152 0
M  V30 16034 H 1476.65 1.62464 2.49819 0
M  V30 16035 H 1474.19 0.811803 1.22671 0
M  V30 16036 H 1476.14 -0.210153 4.1667 0
M  V30 16037 H 1474.77 -0.721426 3.14635 0
M  V30 16038 H 1473.83 1.68403 3.41093 0
M  V30 16039 H 1475.14 2.00931 4.56539 0
M  V30 16040 H 1474.29 0.191724 6.06397 0
M  V30 16041 H 1473.03 -0.231052 4.87152 0
M  V30 16042 H 1472.04 2.06282 5.09635 0
M  V30 16043 H 1473.26 2.47855 6.32254 0
M  V30 16044 H 1471.21 0.24664 6.55536 0
M  V30 16045 H 1471.12 1.7868 7.34581 0
M  V30 16046 H 1472.39 0.674253 7.76578 0
M  V30 16047 N 1476.62 -1.31073 0.875073 0
M  V30 16048 C 1478.04 -1.49162 0.567697 0
M  V30 16049 C 1478.24 -1.80435 -0.896969 0
M  V30 16050 O 1477.29 -1.88604 -1.67883 0
M  V30 16051 C 1478.61 -2.6219 1.47231 0
M  V30 16052 C 1480.15 -2.76072 1.47489 0
M  V30 16053 C 1480.63 -3.92202 2.36519 0
M  V30 16054 N 1482.12 -3.99497 2.34428 0
M  V30 16055 C 1482.86 -4.88639 3.00033 0
M  V30 16056 N 1482.35 -5.82647 3.74826 0
M  V30 16057 N 1484.14 -4.81926 2.89315 0
M  V30 16058 H 1476.3 -1.09045 1.82272 0
M  V30 16059 H 1478.56 -0.539291 0.77966 0
M  V30 16060 H 1478.26 -2.45872 2.51475 0
M  V30 16061 H 1478.14 -3.58446 1.17459 0
M  V30 16062 H 1480.53 -2.91801 0.440008 0
M  V30 16063 H 1480.61 -1.80468 1.81287 0
M  V30 16064 H 1480.25 -3.77231 3.40087 0
M  V30 16065 H 1480.18 -4.87125 2.00043 0
M  V30 16066 H 1482.67 -3.32241 1.80067 0
M  V30 16067 H 1482.98 -6.47406 4.22001 0
M  V30 16068 H 1481.33 -5.82609 3.78934 0
M  V30 16069 H 1484.52 -4.07462 2.30418 0
M  V30 16070 H 1484.69 -5.51192 3.40722 0
M  V30 16071 N 1478.1 -0.635022 -1.4424 0
M  V30 16072 C 1479.33 -0.148045 -2.06069 0
M  V30 16073 C 1479.74 1.1842 -1.47558 0
M  V30 16074 O 1479.08 1.73817 -0.594425 0
M  V30 16075 C 1479.14 0.0369593 -3.59481 0
M  V30 16076 C 1478.81 -1.21773 -4.40478 0
M  V30 16077 C 1479.8 -2.14233 -4.73709 0
M  V30 16078 C 1477.49 -1.45423 -4.80788 0
M  V30 16079 C 1479.48 -3.2865 -5.46139 0
M  V30 16080 C 1477.17 -2.60136 -5.52967 0
M  V30 16081 C 1478.17 -3.51576 -5.85562 0
M  V30 16082 O 1477.86 -4.64289 -6.5627 0
M  V30 16083 H 1477.59 -0.0787231 -0.671401 0
M  V30 16084 H 1480.14 -0.870639 -1.86035 0
M  V30 16085 H 1478.37 0.814739 -3.7802 0
M  V30 16086 H 1480.06 0.478984 -4.03064 0
M  V30 16087 H 1480.83 -1.97196 -4.43101 0
M  V30 16088 H 1476.71 -0.751378 -4.54835 0
M  V30 16089 H 1480.25 -4.00043 -5.71499 0
M  V30 16090 H 1476.15 -2.77114 -5.82991 0
M  V30 16091 H 1476.92 -4.6332 -6.74742 0
M  V30 16092 N 1479.58 1.53054 -0.375806 0
M  V30 16093 C 1480.81 2.05521 0.210828 0
M  V30 16094 C 1481.22 1.24837 1.4217 0
M  V30 16095 O 1480.56 0.284634 1.81481 0
M  V30 16096 C 1480.62 3.53417 0.658548 0
M  V30 16097 C 1480.29 4.54906 -0.437025 0
M  V30 16098 C 1481.28 5.03638 -1.29016 0
M  V30 16099 C 1478.97 4.98701 -0.600194 0
M  V30 16100 C 1480.96 5.94777 -2.29171 0
M  V30 16101 C 1478.65 5.89644 -1.6051 0
M  V30 16102 C 1479.65 6.37573 -2.44929 0
M  V30 16103 O 1479.33 7.26721 -3.43703 0
M  V30 16104 H 1479.07 0.674893 0.0386627 0
M  V30 16105 H 1481.62 1.98296 -0.535534 0
M  V30 16106 H 1479.85 3.58215 1.45667 0
M  V30 16107 H 1481.54 3.88692 1.16933 0
M  V30 16108 H 1482.31 4.70543 -1.17534 0
M  V30 16109 H 1478.18 4.60976 0.0471346 0
M  V30 16110 H 1481.73 6.3211 -2.95099 0
M  V30 16111 H 1477.63 6.22153 -1.72035 0
M  V30 16112 H 1478.39 7.44746 -3.39553 0
M  V30 16113 N 1481.06 0.105248 1.57248 0
M  V30 16114 C 1481.99 -0.846915 2.176 0
M  V30 16115 C 1482.97 -1.28706 1.11216 0
M  V30 16116 O 1484.15 -1.35213 1.39396 0
M  V30 16117 C 1481.28 -2.10228 2.76445 0
M  V30 16118 C 1480.24 -1.80041 3.8829 0
M  V30 16119 C 1479.56 -3.12491 4.33882 0
M  V30 16120 C 1480.86 -1.07943 5.11024 0
M  V30 16121 H 1482.56 -0.344052 2.97417 0
M  V30 16122 H 1480.1 -0.164045 1.43063 0
M  V30 16123 H 1482.06 -2.77284 3.17319 0
M  V30 16124 H 1480.78 -2.62815 1.93897 0
M  V30 16125 H 1479.44 -1.15379 3.4797 0
M  V30 16126 H 1479.09 -3.62985 3.48211 0
M  V30 16127 H 1478.79 -2.93072 5.09296 0
M  V30 16128 H 1480.31 -3.80688 4.77398 0
M  V30 16129 H 1481.72 -1.65127 5.49004 0
M  V30 16130 H 1480.12 -0.986674 5.91933 0
M  V30 16131 H 1481.19 -0.0638511 4.84858 0
M  V30 16132 N 1482.53 -1.56697 -0.168486 0
M  V30 16133 C 1483.46 -1.99659 -1.21073 0
M  V30 16134 C 1484.45 -0.872625 -1.46011 0
M  V30 16135 O 1485.63 -1.13891 -1.57297 0
M  V30 16136 C 1482.76 -2.35889 -2.54899 0
M  V30 16137 C 1481.71 -3.51272 -2.44524 0
M  V30 16138 C 1481.04 -3.73253 -3.82866 0
M  V30 16139 C 1482.34 -4.84631 -1.94756 0
M  V30 16140 H 1484.03 -2.86974 -0.853593 0
M  V30 16141 H 1481.58 -1.38065 -0.409165 0
M  V30 16142 H 1483.53 -2.64542 -3.28017 0
M  V30 16143 H 1482.26 -1.45486 -2.92406 0
M  V30 16144 H 1480.92 -3.22751 -1.7386 0
M  V30 16145 H 1480.56 -2.80136 -4.17772 0
M  V30 16146 H 1480.26 -4.5089 -3.76792 0
M  V30 16147 H 1481.79 -4.04309 -4.57566 0
M  V30 16148 H 1483.2 -5.12142 -2.5765 0
M  V30 16149 H 1481.6 -5.65925 -1.99623 0
M  V30 16150 H 1482.67 -4.76436 -0.902021 0
M  V30 16151 N 1484.01 0.437135 -1.51416 0
M  V30 16152 C 1485.25 1.19603 -1.65754 0
M  V30 16153 C 1485.62 1.88481 -0.365891 0
M  V30 16154 O 1486.82 2.66028 -0.385046 0
M  V30 16155 C 1485.09 2.18579 -2.82769 0
M  V30 16156 S 1486.65 3.02952 -3.17436 0
M  V30 16157 H 1483.47 0.405591 -0.583966 0
M  V30 16158 H 1486.07 0.487568 -1.89323 0
M  V30 16159 H 1484.77 1.66616 -3.75056 0
M  V30 16160 H 1484.3 2.94005 -2.6139 0
M  V30 16161 H 1486.32 4.20213 -2.63886 0
M  V30 16162 N 1485.49 1.41566 0.692592 0
M  V30 16163 C 1486.72 1.44236 1.47917 0
M  V30 16164 C 1487.13 0.0469112 1.89142 0
M  V30 16165 O 1486.47 -0.944788 1.57542 0
M  V30 16166 C 1486.53 2.29056 2.7708 0
M  V30 16167 C 1486.2 3.77179 2.58041 0
M  V30 16168 C 1487.19 4.69267 2.23795 0
M  V30 16169 C 1484.88 4.21253 2.73589 0
M  V30 16170 C 1486.87 6.03419 2.05338 0
M  V30 16171 C 1484.56 5.55469 2.54749 0
M  V30 16172 C 1485.56 6.46368 2.20675 0
M  V30 16173 O 1485.25 7.78107 2.02002 0
M  V30 16174 H 1484.98 0.493237 0.462269 0
M  V30 16175 H 1487.53 1.8653 0.859984 0
M  V30 16176 H 1485.76 1.8158 3.41417 0
M  V30 16177 H 1487.45 2.23392 3.38897 0
M  V30 16178 H 1488.22 4.36506 2.11395 0
M  V30 16179 H 1484.1 3.50804 2.99094 0
M  V30 16180 H 1487.64 6.74333 1.78665 0
M  V30 16181 H 1483.54 5.87809 2.66741 0
M  V30 16182 H 1484.31 7.89282 2.16741 0
M  V30 16183 N 1486.97 -0.927146 1.27443 0
M  V30 16184 C 1487.92 -2.02783 1.10216 0
M  V30 16185 C 1488.89 -1.661 0.00307842 0
M  V30 16186 O 1490.07 -1.90081 0.165508 0
M  V30 16187 C 1487.21 -3.36718 0.755984 0
M  V30 16188 C 1486.32 -3.86353 1.93276 0
M  V30 16189 C 1485.46 -5.08737 1.52841 0
M  V30 16190 C 1484.5 -5.50669 2.67263 0
M  V30 16191 N 1483.63 -6.6425 2.27413 0
M  V30 16192 H 1488.47 -2.16851 2.04401 0
M  V30 16193 H 1486.01 -1.06232 1.0175 0
M  V30 16194 H 1487.97 -4.13741 0.53609 0
M  V30 16195 H 1486.6 -3.22456 -0.148909 0
M  V30 16196 H 1485.65 -3.05604 2.26518 0
M  V30 16197 H 1486.96 -4.13401 2.79108 0
M  V30 16198 H 1486.12 -5.93263 1.26979 0
M  V30 16199 H 1484.86 -4.83467 0.641187 0
M  V30 16200 H 1483.86 -4.64692 2.93839 0
M  V30 16201 H 1485.09 -5.77934 3.56607 0
M  V30 16202 H 1483.03 -6.40636 1.41143 0
M  V30 16203 H 1482.95 -6.90955 3.06784 0
M  V30 16204 H 1484.22 -7.52115 2.048 0
M  V30 16205 N 1488.45 -1.09474 -1.13372 0
M  V30 16206 C 1489.67 -0.853093 -1.89043 0
M  V30 16207 C 1490.1 0.590075 -1.78605 0
M  V30 16208 O 1489.45 1.41462 -1.13394 0
M  V30 16209 C 1489.5 -1.29359 -3.36599 0
M  V30 16210 O 1488.61 -0.452355 -4.09912 0
M  V30 16211 H 1487.95 -0.308922 -0.587761 0
M  V30 16212 H 1490.48 -1.459 -1.43437 0
M  V30 16213 H 1490.49 -1.27921 -3.87428 0
M  V30 16214 H 1489.16 -2.3446 -3.43513 0
M  V30 16215 H 1487.74 -0.531098 -3.69099 0
M  V30 16216 N 1489.92 1.30607 -0.882012 0
M  V30 16217 C 1491.15 2.00954 -0.513048 0
M  V30 16218 C 1491.57 1.65697 0.890279 0
M  V30 16219 O 1490.93 0.872001 1.58952 0
M  V30 16220 C 1490.98 3.53907 -0.691525 0
M  V30 16221 O 1490.08 4.11555 0.263896 0
M  V30 16222 H 1489.43 0.632356 -0.202537 0
M  V30 16223 H 1491.96 1.66524 -1.18874 0
M  V30 16224 H 1491.97 4.0372 -0.589392 0
M  V30 16225 H 1490.64 3.78907 -1.71471 0
M  V30 16226 H 1489.22 3.7272 0.115707 0
M  V30 16227 N 1491.4 0.642663 1.43901 0
M  V30 16228 C 1492.31 -0.0562462 2.34533 0
M  V30 16229 C 1493.33 -0.823457 1.53281 0
M  V30 16230 O 1494.5 -0.773103 1.85971 0
M  V30 16231 C 1491.57 -1.01787 3.31422 0
M  V30 16232 C 1490.63 -0.248759 4.28579 0
M  V30 16233 C 1489.86 -1.16458 5.20839 0
M  V30 16234 O 1490.09 -2.40361 5.17284 0
M  V30 16235 O 1489.02 -0.642671 5.98459 0
M  V30 16236 H 1492.85 0.689476 2.9577 0
M  V30 16237 H 1490.43 0.402847 1.43866 0
M  V30 16238 H 1492.31 -1.5708 3.91029 0
M  V30 16239 H 1490.99 -1.744 2.72702 0
M  V30 16240 H 1489.9 0.347495 3.72483 0
M  V30 16241 H 1491.23 0.437589 4.90251 0
M  V30 16242 N 1492.88 -1.52852 0.383918 0
M  V30 16243 C 1493.79 -2.3002 -0.461298 0
M  V30 16244 C 1494.81 -1.36717 -1.07631 0
M  V30 16245 O 1495.98 -1.69784 -1.08329 0
M  V30 16246 C 1493.05 -3.08804 -1.57609 0
M  V30 16247 C 1492.11 -4.17806 -0.986737 0
M  V30 16248 C 1491.34 -4.92825 -2.04841 0
M  V30 16249 O 1491.57 -4.67879 -3.26259 0
M  V30 16250 O 1490.5 -5.78306 -1.66871 0
M  V30 16251 H 1494.33 -3.03239 0.167189 0
M  V30 16252 H 1491.91 -1.48667 0.147781 0
M  V30 16253 H 1493.79 -3.57943 -2.22384 0
M  V30 16254 H 1492.47 -2.38404 -2.18964 0
M  V30 16255 H 1491.37 -3.72876 -0.302396 0
M  V30 16256 H 1492.71 -4.90426 -0.417481 0
M  V30 16257 N 1494.36 -0.113586 -1.5719 0
M  V30 16258 C 1495.77 0.412653 -1.82083 0
M  V30 16259 C 1496.12 1.66964 -1.03041 0
M  V30 16260 O 1495.25 2.14767 -0.265354 0
M  V30 16261 C 1495.84 0.755439 -3.3027 0
M  V30 16262 C 1494.4 1.22634 -3.55862 0
M  V30 16263 C 1493.55 0.232285 -2.76325 0
M  V30 16264 H 1496.5 -0.338792 -1.55042 0
M  V30 16265 H 1496.52 1.61335 -3.44603 0
M  V30 16266 H 1496.03 -0.1596 -3.87772 0
M  V30 16267 H 1494.13 2.15846 -3.03713 0
M  V30 16268 H 1494.25 1.1754 -4.64458 0
M  V30 16269 H 1492.61 0.718222 -2.44364 0
M  V30 16270 H 1493.39 -0.675756 -3.36583 0
M  V30 16271 N 1495.84 1.56784 0.160173 0
M  V30 16272 C 1497.25 1.51153 0.512352 0
M  V30 16273 C 1497.45 0.819774 1.84071 0
M  V30 16274 O 1496.51 0.384789 2.49551 0
M  V30 16275 C 1497.82 2.95906 0.534817 0
M  V30 16276 C 1499.37 3.06773 0.621248 0
M  V30 16277 C 1499.85 4.53006 0.674501 0
M  V30 16278 N 1501.34 4.57298 0.737087 0
M  V30 16279 C 1502.07 5.67805 0.799054 0
M  V30 16280 N 1501.57 6.87916 0.821171 0
M  V30 16281 N 1503.36 5.55804 0.838928 0
M  V30 16282 H 1495.51 2.00157 -0.710712 0
M  V30 16283 H 1497.77 0.91233 -0.257601 0
M  V30 16284 H 1497.48 3.49719 -0.372773 0
M  V30 16285 H 1497.35 3.51152 1.3774 0
M  V30 16286 H 1499.74 2.52987 1.51926 0
M  V30 16287 H 1499.82 2.54593 -0.248224 0
M  V30 16288 H 1499.47 5.07426 -0.219301 0
M  V30 16289 H 1499.4 5.02954 1.56028 0
M  V30 16290 H 1501.89 3.70825 0.727827 0
M  V30 16291 H 1502.2 7.67888 0.869938 0
M  V30 16292 H 1500.55 6.90504 0.789264 0
M  V30 16293 H 1503.74 4.60884 0.818728 0
M  V30 16294 H 1503.91 6.41945 0.883757 0
M  V30 16295 N 1497.32 -0.429099 1.51646 0
M  V30 16296 C 1498.25 -1.54168 1.68249 0
M  V30 16297 C 1499.23 -1.53718 0.530037 0
M  V30 16298 O 1500.41 -1.72723 0.754911 0
M  V30 16299 C 1497.54 -2.92738 1.7036 0
M  V30 16300 C 1496.58 -3.11179 2.91668 0
M  V30 16301 S 1497.42 -2.86603 4.52348 0
M  V30 16302 C 1498.57 -4.2744 4.57216 0
M  V30 16303 H 1498.81 -1.39852 2.62352 0
M  V30 16304 H 1496.34 -0.619348 1.41434 0
M  V30 16305 H 1498.3 -3.72608 1.7226 0
M  V30 16306 H 1496.96 -3.0441 0.774186 0
M  V30 16307 H 1496.15 -4.12512 2.89569 0
M  V30 16308 H 1495.75 -2.39146 2.87551 0
M  V30 16309 H 1498.04 -5.20771 4.33363 0
M  V30 16310 H 1498.99 -4.34569 5.59067 0
M  V30 16311 H 1499.4 -4.11479 3.86452 0
M  V30 16312 N 1498.79 -1.41931 -0.685074 0
M  V30 16313 C 1500.02 -1.45432 -1.47866 0
M  V30 16314 C 1500.44 -0.0641302 -1.87991 0
M  V30 16315 O 1499.8 0.935081 -1.55325 0
M  V30 16316 C 1499.85 -2.37801 -2.71077 0
M  V30 16317 O 1498.95 -1.84229 -3.68963 0
M  V30 16318 H 1498.29 -0.493156 -0.444627 0
M  V30 16319 H 1500.82 -1.86508 -0.841177 0
M  V30 16320 H 1500.83 -2.54033 -3.19266 0
M  V30 16321 H 1499.51 -3.38807 -2.41211 0
M  V30 16322 H 1498.09 -1.775 -3.27945 0
M  V30 16323 N 1500.27 0.920374 -1.27933 0
M  V30 16324 C 1501.68 1.48385 -1.13309 0
M  V30 16325 C 1502.03 1.94202 0.279307 0
M  V30 16326 O 1501.16 1.81855 1.17294 0
M  V30 16327 C 1501.75 2.69681 -2.05079 0
M  V30 16328 C 1500.31 3.22229 -1.94539 0
M  V30 16329 C 1499.46 1.94948 -1.97207 0
M  V30 16330 H 1502.41 0.733744 -1.40719 0
M  V30 16331 H 1502.43 3.44717 -1.6109 0
M  V30 16332 H 1501.94 2.36304 -3.07867 0
M  V30 16333 H 1500.04 3.60348 -0.94764 0
M  V30 16334 H 1500.16 3.87927 -2.81157 0
M  V30 16335 H 1498.52 2.1176 -1.41527 0
M  V30 16336 H 1499.3 1.63875 -3.01662 0
M  V30 16337 N 1501.75 1.10074 1.1279 0
M  V30 16338 C 1503.03 0.753069 1.80522 0
M  V30 16339 C 1503.41 -0.760982 1.96907 0
M  V30 16340 O 1502.75 -1.68584 1.54245 0
M  V30 16341 C 1502.96 1.49982 3.15129 0
M  V30 16342 C 1504.31 1.66993 3.90382 0
M  V30 16343 O 1505.34 1.46289 3.24774 0
M  V30 16344 O 1504.2 2.01293 5.08078 0
M  V30 16345 H 1501.29 0.271277 0.781241 0
M  V30 16346 H 1503.84 1.20333 1.19658 0
M  V30 16347 H 1502.61 2.53043 2.98471 0
M  V30 16348 H 1502.23 1.04217 3.83699 0
M  V30 16349 N 1503.23 -1.30138 0.888926 0
M  V30 16350 C 1504.46 -2.00143 0.524437 0
M  V30 16351 C 1504.87 -1.66608 -0.888093 0
M  V30 16352 O 1504.23 -0.905326 -1.58462 0
M  V30 16353 C 1504.28 -3.54769 0.694327 0
M  V30 16354 O 1504 -3.87112 2.05125 0
M  V30 16355 C 1505.5 -4.42045 0.333354 0
M  V30 16356 H 1502.72 -0.639775 0.202309 0
M  V30 16357 H 1505.26 -1.65929 1.19531 0
M  V30 16358 H 1503.42 -3.87335 0.0707712 0
M  V30 16359 H 1503.83 -4.81807 2.07275 0
M  V30 16360 H 1505.31 -5.49702 0.503107 0
M  V30 16361 H 1505.78 -4.33109 -0.728893 0
M  V30 16362 H 1506.39 -4.14931 0.933398 0
M  V30 16363 N 1504.71 -0.650285 -1.43559 0
M  V30 16364 C 1505.95 -0.166046 -2.03724 0
M  V30 16365 C 1506.31 1.19631 -1.50174 0
M  V30 16366 O 1507.51 1.77379 -2.01966 0
M  V30 16367 C 1505.78 -0.172648 -3.56983 0
M  V30 16368 S 1507.34 0.244173 -4.3812 0
M  V30 16369 H 1504.16 -0.0705044 -0.707496 0
M  V30 16370 H 1506.76 -0.857964 -1.75668 0
M  V30 16371 H 1505.46 -1.16696 -3.93459 0
M  V30 16372 H 1505 0.539902 -3.89678 0
M  V30 16373 H 1507.01 1.48378 -4.73496 0
M  V30 16374 N 1506.18 1.52647 -0.392018 0
M  V30 16375 C 1507.15 2.25135 0.429754 0
M  V30 16376 C 1508.15 1.26871 0.987946 0
M  V30 16377 O 1509.34 1.50947 0.86952 0
M  V30 16378 C 1506.47 3.00849 1.60321 0
M  V30 16379 H 1507.66 2.99199 -0.204918 0
M  V30 16380 H 1505.21 1.55634 -0.144188 0
M  V30 16381 H 1505.95 2.31092 2.27524 0
M  V30 16382 H 1505.73 3.72975 1.20964 0
M  V30 16383 H 1507.22 3.55879 2.18494 0
M  V30 16384 N 1507.66 0.121921 1.57128 0
M  V30 16385 C 1508.89 -0.543012 1.99647 0
M  V30 16386 C 1509.31 -1.60038 1.00165 0
M  V30 16387 O 1508.66 -1.82499 -0.00504688 0
M  V30 16388 C 1508.71 -1.1665 3.42162 0
M  V30 16389 O 1508.43 -0.151385 4.37838 0
M  V30 16390 C 1509.94 -1.91447 3.99829 0
M  V30 16391 H 1507.16 -0.143524 0.655471 0
M  V30 16392 H 1509.7 0.20912 2.03428 0
M  V30 16393 H 1507.85 -1.86939 3.39312 0
M  V30 16394 H 1508.27 -0.604773 5.21002 0
M  V30 16395 H 1509.74 -2.30394 5.0162 0
M  V30 16396 H 1510.22 -2.7908 3.39133 0
M  V30 16397 H 1510.83 -1.25913 4.06234 0
M  V30 16398 N 1509.14 -1.56867 -0.151857 0
M  V30 16399 C 1510.39 -1.82273 -0.863689 0
M  V30 16400 C 1510.7 -0.702377 -1.82554 0
M  V30 16401 O 1511.91 -0.841903 -2.58117 0
M  V30 16402 C 1510.36 -3.23046 -1.58649 0
M  V30 16403 C 1509.97 -4.43003 -0.667292 0
M  V30 16404 C 1511.72 -3.57729 -2.28539 0
M  V30 16405 C 1509.62 -5.74798 -1.39144 0
M  V30 16406 H 1508.55 -0.679753 -0.326269 0
M  V30 16407 H 1511.2 -1.8313 -0.116454 0
M  V30 16408 H 1509.59 -3.16561 -2.37918 0
M  V30 16409 H 1510.76 -4.60712 0.0898254 0
M  V30 16410 H 1509.08 -4.16329 -0.0770521 0
M  V30 16411 H 1511.67 -4.53451 -2.83348 0
M  V30 16412 H 1512.02 -2.8355 -3.04803 0
M  V30 16413 H 1512.55 -3.65853 -1.56194 0
M  V30 16414 H 1509.29 -6.52059 -0.670747 0
M  V30 16415 H 1508.81 -5.61032 -2.12139 0
M  V30 16416 H 1510.49 -6.17429 -1.93367 0
M  V30 16417 N 1510.62 0.421051 -1.51871 0
M  V30 16418 C 1511.55 1.51928 -1.77313 0
M  V30 16419 C 1512.53 1.58258 -0.623579 0
M  V30 16420 O 1513.71 1.73724 -0.867967 0
M  V30 16421 C 1510.84 2.89865 -1.913 0
M  V30 16422 C 1509.8 2.98391 -3.06834 0
M  V30 16423 C 1509.12 4.38466 -3.06026 0
M  V30 16424 C 1510.42 2.7097 -4.46511 0
M  V30 16425 H 1512.12 1.30889 -2.69274 0
M  V30 16426 H 1509.66 0.628229 -1.29573 0
M  V30 16427 H 1511.62 3.66669 -2.07682 0
M  V30 16428 H 1510.34 3.12172 -0.960011 0
M  V30 16429 H 1509 2.24029 -2.90184 0
M  V30 16430 H 1508.65 4.57764 -2.08472 0
M  V30 16431 H 1508.35 4.45097 -3.83618 0
M  V30 16432 H 1509.87 5.17221 -3.24522 0
M  V30 16433 H 1511.29 3.37501 -4.63428 0
M  V30 16434 H 1509.68 2.88992 -5.25931 0
M  V30 16435 H 1510.75 1.66476 -4.55427 0
M  V30 16436 N 1512.1 1.42293 0.677538 0
M  V30 16437 C 1513.01 1.47953 1.82063 0
M  V30 16438 C 1514.02 0.36851 1.70053 0
M  V30 16439 O 1515.2 0.618996 1.91652 0
M  V30 16440 C 1512.26 1.3769 3.18186 0
M  V30 16441 C 1511.32 2.59261 3.42173 0
M  V30 16442 C 1510.56 2.49478 4.71801 0
M  V30 16443 O 1510.78 1.52915 5.49521 0
M  V30 16444 O 1509.71 3.39562 4.96972 0
M  V30 16445 H 1513.54 2.4443 1.80244 0
M  V30 16446 H 1511.13 1.24027 0.832932 0
M  V30 16447 H 1513.01 1.34319 3.9942 0
M  V30 16448 H 1511.68 0.443377 3.20649 0
M  V30 16449 H 1510.59 2.68207 2.60798 0
M  V30 16450 H 1511.92 3.51503 3.44538 0
M  V30 16451 N 1513.57 -0.913576 1.28419 0
M  V30 16452 C 1514.52 -2.01603 1.12361 0
M  V30 16453 C 1515.49 -1.66087 0.0206953 0
M  V30 16454 O 1516.68 -1.89895 0.185659 0
M  V30 16455 C 1513.82 -3.35897 0.791655 0
M  V30 16456 C 1512.93 -3.84281 1.97363 0
M  V30 16457 C 1512.06 -5.07087 1.58228 0
M  V30 16458 C 1511.1 -5.47804 2.73089 0
M  V30 16459 N 1510.24 -6.618 2.34446 0
M  V30 16460 H 1515.08 -2.1467 2.0669 0
M  V30 16461 H 1512.62 -1.05147 1.02871 0
M  V30 16462 H 1514.58 -4.13149 0.579943 0
M  V30 16463 H 1513.21 -3.22596 -0.114699 0
M  V30 16464 H 1512.26 -3.03184 2.29746 0
M  V30 16465 H 1513.57 -4.10417 2.83477 0
M  V30 16466 H 1512.72 -5.91883 1.33264 0
M  V30 16467 H 1511.46 -4.82759 0.692429 0
M  V30 16468 H 1510.47 -4.61549 2.98751 0
M  V30 16469 H 1511.69 -5.74119 3.62717 0
M  V30 16470 H 1509.64 -6.39103 1.4793 0
M  V30 16471 H 1509.56 -6.87663 3.14096 0
M  V30 16472 H 1510.82 -7.49901 2.12766 0
M  V30 16473 N 1515.05 -1.1067 -1.12204 0
M  V30 16474 C 1516.02 -0.761145 -2.16193 0
M  V30 16475 C 1517.02 0.215599 -1.59348 0
M  V30 16476 O 1518.21 -0.00786723 -1.74198 0
M  V30 16477 C 1515.34 -0.127863 -3.4066 0
M  V30 16478 H 1516.53 -1.68225 -2.48275 0
M  V30 16479 H 1514.08 -0.907542 -1.27253 0
M  V30 16480 H 1514.82 0.803851 -3.14179 0
M  V30 16481 H 1514.6 -0.83085 -3.83196 0
M  V30 16482 H 1516.09 0.0980593 -4.17485 0
M  V30 16483 N 1516.53 1.29665 -0.895815 0
M  V30 16484 C 1517.78 1.9533 -0.518725 0
M  V30 16485 C 1518.1 1.70995 0.937322 0
M  V30 16486 O 1517.37 1.03955 1.66043 0
M  V30 16487 H 1515.95 0.722736 -0.188841 0
M  V30 16488 H 1518.61 1.57991 -1.14126 0
M  V30 16489 H 1517.71 3.04193 -0.698057 0
M  V30 16490 N 1518.01 0.657889 1.43212 0
M  V30 16491 C 1518.94 -0.0172114 2.33494 0
M  V30 16492 C 1519.92 -0.807087 1.49733 0
M  V30 16493 O 1521.1 -0.767631 1.78385 0
M  V30 16494 C 1518.23 -0.981029 3.33156 0
M  V30 16495 C 1517.19 -0.30094 4.26941 0
M  V30 16496 C 1516.51 -1.37653 5.16678 0
M  V30 16497 C 1517.81 0.809572 5.15988 0
M  V30 16498 H 1519.51 0.736749 2.90194 0
M  V30 16499 H 1517.05 0.355744 1.39537 0
M  V30 16500 H 1519.01 -1.46226 3.95216 0
M  V30 16501 H 1517.73 -1.76621 2.74723 0
M  V30 16502 H 1516.39 0.159893 3.66251 0
M  V30 16503 H 1516.04 -2.15326 4.54581 0
M  V30 16504 H 1515.74 -0.926704 5.80246 0
M  V30 16505 H 1517.26 -1.85903 5.81612 0
M  V30 16506 H 1518.68 0.410297 5.7183 0
M  V30 16507 H 1517.07 1.18415 5.88301 0
M  V30 16508 H 1518.14 1.66558 4.55397 0
M  V30 16509 N 1519.49 -1.52437 0.400108 0
M  V30 16510 C 1520.76 -1.94162 -0.23671 0
M  V30 16511 C 1521.14 -1.33636 -1.63416 0
M  V30 16512 O 1520.49 -0.508643 -2.22767 0
M  V30 16513 C 1520.7 -3.48088 -0.252159 0
M  V30 16514 C 1522.05 -4.21925 -0.475887 0
M  V30 16515 O 1523.07 -3.5465 -0.331905 0
M  V30 16516 O 1521.93 -5.41205 -0.758895 0
M  V30 16517 H 1519.03 -0.813294 -0.14994 0
M  V30 16518 H 1521.57 -1.63475 0.455399 0
M  V30 16519 H 1520.34 -3.84501 0.726263 0
M  V30 16520 H 1519.97 -3.8511 -0.988742 0
M  V30 16521 N 1520.96 -0.130252 -1.57061 0
M  V30 16522 C 1521.91 0.832998 -2.17173 0
M  V30 16523 C 1522.91 1.26735 -1.12403 0
M  V30 16524 O 1524.11 1.23778 -1.30686 0
M  V30 16525 H 1520.49 0.286777 -0.695171 0
M  V30 16526 H 1522.46 0.301639 -2.96872 0
M  V30 16527 C 1521.21 2.06879 -2.79457 0
M  V30 16528 H 1520.53 1.74352 -3.5978 0
M  V30 16529 H 1521.97 2.72258 -3.25041 0
M  V30 16530 C 1520.43 2.86591 -1.77108 0
M  V30 16531 O 1520.96 3.82363 -1.2313 0
M  V30 16532 N 1519.17 2.508 -1.46792 0
M  V30 16533 H 1518.71 1.72984 -1.90878 0
M  V30 16534 H 1518.67 3.04428 -0.785566 0
M  V30 16535 N 1522.44 1.56945 0.143535 0
M  V30 16536 C 1523.69 1.84696 0.851985 0
M  V30 16537 C 1524.04 0.714713 1.78633 0
M  V30 16538 O 1523.34 -0.287092 1.89437 0
M  V30 16539 C 1523.53 3.16482 1.66054 0
M  V30 16540 C 1523.36 4.42418 0.80599 0
M  V30 16541 C 1522.13 5.03107 0.470269 0
M  V30 16542 C 1524.33 5.14123 0.134742 0
M  V30 16543 N 1522.31 6.12612 -0.397516 0
M  V30 16544 C 1523.68 6.17157 -0.593039 0
M  V30 16545 C 1525.74 4.97869 0.0557743 0
M  V30 16546 C 1524.44 7.05696 -1.39234 0
M  V30 16547 C 1526.47 5.86874 -0.730272 0
M  V30 16548 C 1525.83 6.89392 -1.44632 0
M  V30 16549 H 1521.93 0.726447 0.28948 0
M  V30 16550 H 1524.51 1.94347 0.117143 0
M  V30 16551 H 1522.68 3.07972 2.3666 0
M  V30 16552 H 1524.41 3.32128 2.31243 0
M  V30 16553 H 1521.17 4.66676 0.806858 0
M  V30 16554 H 1521.59 6.71985 -0.822534 0
M  V30 16555 H 1526.23 4.18592 0.595021 0
M  V30 16556 H 1523.95 7.84398 -1.94283 0
M  V30 16557 H 1527.54 5.76365 -0.79341 0
M  V30 16558 H 1526.42 7.57072 -2.04479 0
M  V30 16559 N 1523.92 -0.412991 1.52093 0
M  V30 16560 C 1524.88 -1.48555 1.7454 0
M  V30 16561 C 1525.88 -1.48563 0.615283 0
M  V30 16562 O 1527.07 -1.50155 0.883119 0
M  V30 16563 C 1524.21 -2.87984 1.82423 0
M  V30 16564 H 1525.4 -1.29945 2.70285 0
M  V30 16565 H 1522.95 -0.643241 1.4245 0
M  V30 16566 H 1523.69 -3.11969 0.885777 0
M  V30 16567 H 1523.47 -2.89381 2.64577 0
M  V30 16568 H 1524.96 -3.65745 2.01545 0
M  V30 16569 N 1525.4 -1.4265 -0.669982 0
M  V30 16570 C 1526.33 -1.49298 -1.79534 0
M  V30 16571 C 1527.31 -0.34911 -1.66479 0
M  V30 16572 O 1528.5 -0.564072 -1.85828 0
M  V30 16573 C 1525.63 -1.39935 -3.17861 0
M  V30 16574 C 1524.58 -2.52398 -3.45657 0
M  V30 16575 C 1523.91 -2.28092 -4.8361 0
M  V30 16576 C 1525.21 -3.94697 -3.4207 0
M  V30 16577 H 1526.9 -2.43486 -1.74227 0
M  V30 16578 H 1524.45 -1.17191 -0.836796 0
M  V30 16579 H 1526.4 -1.43193 -3.96325 0
M  V30 16580 H 1525.12 -0.422436 -3.23857 0
M  V30 16581 H 1523.78 -2.48465 -2.69556 0
M  V30 16582 H 1523.43 -1.28683 -4.86261 0
M  V30 16583 H 1523.13 -3.03469 -5.0317 0
M  V30 16584 H 1524.65 -2.33107 -5.64352 0
M  V30 16585 H 1526.07 -4.00207 -4.10496 0
M  V30 16586 H 1524.46 -4.69965 -3.73166 0
M  V30 16587 H 1525.53 -4.21025 -2.40554 0
M  V30 16588 N 1526.88 0.906753 -1.28902 0
M  V30 16589 C 1528.13 1.6533 -1.16234 0
M  V30 16590 C 1528.45 1.92861 0.288004 0
M  V30 16591 O 1527.72 1.54971 1.19837 0
M  V30 16592 H 1526.3 0.612806 -0.427174 0
M  V30 16593 H 1528.96 1.08764 -1.6173 0
M  V30 16594 H 1528.05 2.61271 -1.70715 0
M  V30 16595 N 1528.36 1.11264 1.11616 0
M  V30 16596 C 1529.3 0.769295 2.17602 0
M  V30 16597 C 1530.27 -0.258362 1.64078 0
M  V30 16598 O 1531.46 -0.135698 1.90317 0
M  V30 16599 C 1528.6 0.216647 3.44419 0
M  V30 16600 C 1527.71 1.30064 4.11955 0
M  V30 16601 C 1526.85 0.708729 5.26451 0
M  V30 16602 C 1525.88 1.7727 5.85868 0
M  V30 16603 N 1525.02 1.20042 6.91762 0
M  V30 16604 H 1529.86 1.67727 2.46316 0
M  V30 16605 H 1527.4 0.83764 1.20921 0
M  V30 16606 H 1529.36 -0.121724 4.17022 0
M  V30 16607 H 1527.99 -0.654525 3.16095 0
M  V30 16608 H 1527.04 1.756 3.37445 0
M  V30 16609 H 1528.35 2.1057 4.52174 0
M  V30 16610 H 1527.5 0.320307 6.05854 0
M  V30 16611 H 1526.24 -0.127668 4.87533 0
M  V30 16612 H 1525.25 2.17046 5.05145 0
M  V30 16613 H 1526.47 2.6121 6.26854 0
M  V30 16614 H 1524.42 0.385633 6.54866 0
M  V30 16615 H 1524.34 1.94221 7.30626 0
M  V30 16616 H 1525.6 0.838825 7.74974 0
M  V30 16617 N 1529.83 -1.29188 0.902679 0
M  V30 16618 C 1531.06 -1.99576 0.545635 0
M  V30 16619 C 1531.48 -1.67541 -0.870372 0
M  V30 16620 O 1530.83 -0.922082 -1.57493 0
M  V30 16621 C 1530.88 -3.54013 0.731916 0
M  V30 16622 O 1530.61 -3.84914 2.09219 0
M  V30 16623 C 1532.11 -4.41666 0.38022 0
M  V30 16624 H 1529.33 -0.637593 0.209083 0
M  V30 16625 H 1531.87 -1.64652 1.21284 0
M  V30 16626 H 1530.03 -3.87239 0.111849 0
M  V30 16627 H 1530.44 -4.79581 2.12373 0
M  V30 16628 H 1531.91 -5.49138 0.561382 0
M  V30 16629 H 1532.39 -4.33858 -0.682915 0
M  V30 16630 H 1533 -4.13918 0.977354 0
M  V30 16631 N 1531.31 -0.665475 -1.42861 0
M  V30 16632 C 1532.26 0.0186204 -2.30792 0
M  V30 16633 C 1533.23 0.802249 -1.45441 0
M  V30 16634 O 1534.41 0.776383 -1.7429 0
M  V30 16635 C 1531.55 0.970499 -3.31173 0
M  V30 16636 C 1530.67 0.18168 -4.31618 0
M  V30 16637 C 1529.8 1.12846 -5.19075 0
M  V30 16638 C 1528.84 0.330788 -6.11206 0
M  V30 16639 N 1527.98 1.2298 -6.91246 0
M  V30 16640 H 1532.82 -0.737068 -2.88741 0
M  V30 16641 H 1530.35 -0.375225 -1.42234 0
M  V30 16642 H 1532.31 1.53611 -3.87891 0
M  V30 16643 H 1530.94 1.69292 -2.74845 0
M  V30 16644 H 1529.99 -0.500415 -3.77094 0
M  V30 16645 H 1531.31 -0.438041 -4.96873 0
M  V30 16646 H 1530.46 1.76431 -5.8048 0
M  V30 16647 H 1529.2 1.78208 -4.53975 0
M  V30 16648 H 1528.2 -0.318333 -5.48878 0
M  V30 16649 H 1529.43 -0.318599 -6.78352 0
M  V30 16650 H 1527.38 1.86999 -6.28783 0
M  V30 16651 H 1527.29 0.664933 -7.5307 0
M  V30 16652 H 1528.56 1.85341 -7.57145 0
M  V30 16653 N 1532.79 1.52222 -0.408187 0
M  V30 16654 C 1534.04 2.02102 0.168154 0
M  V30 16655 C 1534.37 1.2933 1.4487 0
M  V30 16656 O 1533.64 0.399336 1.90356 0
M  V30 16657 C 1533.93 3.57679 0.416821 0
M  V30 16658 C 1533.78 4.41101 -0.880335 0
M  V30 16659 C 1535.1 4.23442 1.19936 0
M  V30 16660 H 1532.22 0.734583 0.0596402 0
M  V30 16661 H 1534.86 1.82121 -0.541467 0
M  V30 16662 H 1533.01 3.74835 1.02131 0
M  V30 16663 H 1534.68 4.35658 -1.51656 0
M  V30 16664 H 1532.92 4.07353 -1.49152 0
M  V30 16665 H 1533.6 5.48031 -0.660748 0
M  V30 16666 H 1536.07 4.10379 0.687605 0
M  V30 16667 H 1534.95 5.32239 1.3421 0
M  V30 16668 H 1535.21 3.82335 2.21973 0
M  V30 16669 N 1534.27 0.138579 1.5699 0
M  V30 16670 C 1535.51 -0.514627 1.95852 0
M  V30 16671 C 1535.84 -1.65424 1.02299 0
M  V30 16672 O 1535.1 -1.95635 0.0505654 0
M  V30 16673 C 1535.4 -1.06969 3.41017 0
M  V30 16674 C 1535.06 -0.049396 4.50873 0
M  V30 16675 C 1533.72 0.231103 4.80645 0
M  V30 16676 C 1536.08 0.644865 5.17195 0
M  V30 16677 C 1533.4 1.21181 5.74049 0
M  V30 16678 C 1535.76 1.61434 6.11655 0
M  V30 16679 C 1534.42 1.90262 6.3981 0
M  V30 16680 H 1533.69 -0.188315 0.716672 0
M  V30 16681 H 1536.34 0.223629 1.9019 0
M  V30 16682 H 1534.64 -1.88511 3.43469 0
M  V30 16683 H 1536.34 -1.58354 3.68409 0
M  V30 16684 H 1532.93 -0.278202 4.27696 0
M  V30 16685 H 1537.11 0.441346 4.94334 0
M  V30 16686 H 1532.37 1.4417 5.94159 0
M  V30 16687 H 1536.54 2.15786 6.62125 0
M  V30 16688 H 1534.17 2.66407 7.11991 0
M  V30 16689 N 1535.75 -1.57019 -0.13521 0
M  V30 16690 C 1536.68 -2.02182 -1.16811 0
M  V30 16691 C 1537.66 -0.9034 -1.44127 0
M  V30 16692 O 1538.84 -1.17202 -1.54846 0
M  V30 16693 C 1535.97 -2.41243 -2.49838 0
M  V30 16694 C 1534.93 -3.56379 -2.37018 0
M  V30 16695 C 1534.25 -3.8129 -3.74863 0
M  V30 16696 C 1535.55 -4.88653 -1.84432 0
M  V30 16697 H 1537.25 -2.8872 -0.792529 0
M  V30 16698 H 1534.79 -1.38901 -0.379788 0
M  V30 16699 H 1536.74 -2.7144 -3.22332 0
M  V30 16700 H 1535.47 -1.51656 -2.89254 0
M  V30 16701 H 1534.13 -3.26366 -1.66975 0
M  V30 16702 H 1533.78 -2.88934 -4.11735 0
M  V30 16703 H 1533.48 -4.58781 -3.67143 0
M  V30 16704 H 1535 -4.13924 -4.48887 0
M  V30 16705 H 1536.41 -5.17492 -2.46729 0
M  V30 16706 H 1534.81 -5.70032 -1.87574 0
M  V30 16707 H 1535.88 -4.78242 -0.800759 0
M  V30 16708 N 1537.22 0.404919 -1.52309 0
M  V30 16709 C 1538.17 1.49363 -1.75953 0
M  V30 16710 C 1539.14 1.54802 -0.60212 0
M  V30 16711 O 1540.33 1.71308 -0.840128 0
M  V30 16712 C 1537.47 2.86767 -1.91987 0
M  V30 16713 C 1536.58 2.90603 -3.19646 0
M  V30 16714 C 1535.71 4.19333 -3.26088 0
M  V30 16715 C 1534.75 4.17161 -4.47932 0
M  V30 16716 N 1533.89 5.37469 -4.51743 0
M  V30 16717 H 1538.73 1.28503 -2.6887 0
M  V30 16718 H 1536.27 0.623684 -1.33224 0
M  V30 16719 H 1538.23 3.66536 -1.99267 0
M  V30 16720 H 1536.86 3.06112 -1.02447 0
M  V30 16721 H 1535.91 2.033 -3.21517 0
M  V30 16722 H 1537.22 2.84864 -4.09456 0
M  V30 16723 H 1536.37 5.07497 -3.32463 0
M  V30 16724 H 1535.11 4.27774 -2.34224 0
M  V30 16725 H 1534.12 3.27386 -4.417 0
M  V30 16726 H 1535.34 4.10356 -5.41096 0
M  V30 16727 H 1533.29 5.46569 -3.62764 0
M  V30 16728 H 1533.21 5.3374 -5.35404 0
M  V30 16729 H 1534.47 6.27575 -4.62353 0
M  V30 16730 N 1538.7 1.43003 0.662408 0
M  V30 16731 C 1539.93 1.47341 1.44825 0
M  V30 16732 C 1540.34 0.0870204 1.89 0
M  V30 16733 O 1539.68 -0.911158 1.59511 0
M  V30 16734 C 1539.75 2.34882 2.7216 0
M  V30 16735 C 1539.41 3.82567 2.49983 0
M  V30 16736 C 1540.41 4.73909 2.13791 0
M  V30 16737 C 1538.09 4.26962 2.64592 0
M  V30 16738 C 1540.09 6.07639 1.92493 0
M  V30 16739 C 1537.77 5.60748 2.4291 0
M  V30 16740 C 1538.77 6.50903 2.06915 0
M  V30 16741 O 1538.46 7.82217 1.85451 0
M  V30 16742 H 1538.19 0.502932 0.451703 0
M  V30 16743 H 1540.74 1.88312 0.820224 0
M  V30 16744 H 1538.97 1.88782 3.37488 0
M  V30 16745 H 1540.66 2.3053 3.34082 0
M  V30 16746 H 1541.43 4.40892 2.02088 0
M  V30 16747 H 1537.31 3.5707 2.91586 0
M  V30 16748 H 1540.85 6.77971 1.64321 0
M  V30 16749 H 1536.75 5.93335 2.54212 0
M  V30 16750 H 1537.52 7.93702 1.9995 0
M  V30 16751 N 1540.18 -0.899904 1.29381 0
M  V30 16752 C 1541.41 -1.68139 1.20053 0
M  V30 16753 C 1541.82 -1.87654 -0.241391 0
M  V30 16754 O 1541.16 -1.41334 -1.17347 0
M  V30 16755 C 1541.22 -3.08703 1.84235 0
M  V30 16756 C 1540.89 -3.12421 3.3353 0
M  V30 16757 C 1541.88 -2.92583 4.29757 0
M  V30 16758 C 1539.57 -3.34493 3.74726 0
M  V30 16759 C 1541.56 -2.94751 5.65156 0
M  V30 16760 C 1539.25 -3.36292 5.10246 0
M  V30 16761 C 1540.25 -3.16443 6.05271 0
M  V30 16762 O 1539.94 -3.18029 7.38317 0
M  V30 16763 H 1539.67 -0.531928 0.417167 0
M  V30 16764 H 1542.22 -1.13375 1.71275 0
M  V30 16765 H 1540.45 -3.65068 1.27524 0
M  V30 16766 H 1542.14 -3.68938 1.69232 0
M  V30 16767 H 1542.91 -2.75343 3.99264 0
M  V30 16768 H 1538.79 -3.48983 3.01217 0
M  V30 16769 H 1542.33 -2.79176 6.39301 0
M  V30 16770 H 1538.23 -3.53063 5.40386 0
M  V30 16771 H 1539 -3.34297 7.47119 0
M  V30 16772 N 1541.66 -1.11854 -1.11024 0
M  V30 16773 C 1542.61 -0.749858 -2.15316 0
M  V30 16774 C 1543.59 0.248202 -1.58974 0
M  V30 16775 O 1544.78 0.054644 -1.76916 0
M  V30 16776 C 1541.91 -0.199423 -3.4272 0
M  V30 16777 C 1541 -1.22541 -4.06011 0
M  V30 16778 N 1541.39 -2.42104 -4.44094 0
M  V30 16779 C 1539.69 -1.06935 -4.32991 0
M  V30 16780 C 1540.39 -3.07572 -4.93735 0
M  V30 16781 N 1539.37 -2.35038 -4.90161 0
M  V30 16782 H 1543.17 -1.65978 -2.42546 0
M  V30 16783 H 1540.68 -0.998423 -1.28083 0
M  V30 16784 H 1542.68 0.0828628 -4.16818 0
M  V30 16785 H 1541.34 0.705033 -3.16953 0
M  V30 16786 H 1542.35 -2.79529 -4.35986 0
M  V30 16787 H 1539.03 -0.221683 -4.16911 0
M  V30 16788 H 1540.42 -4.0936 -5.32799 0
M  V30 16789 N 1543.14 1.28707 -0.909517 0
M  V30 16790 C 1544.38 1.95443 -0.541281 0
M  V30 16791 C 1544.72 1.71457 0.911934 0
M  V30 16792 O 1543.99 1.03312 1.64794 0
M  V30 16793 C 1544.27 3.50019 -0.846097 0
M  V30 16794 C 1544.13 3.83423 -2.35173 0
M  V30 16795 C 1545.45 4.3879 -0.339328 0
M  V30 16796 H 1542.56 0.709869 -0.198128 0
M  V30 16797 H 1545.21 1.52151 -1.13799 0
M  V30 16798 H 1543.36 3.87025 -0.338262 0
M  V30 16799 H 1545.03 3.5631 -2.92986 0
M  V30 16800 H 1543.27 3.30618 -2.80846 0
M  V30 16801 H 1543.94 4.91348 -2.51557 0
M  V30 16802 H 1546.42 4.08832 -0.774312 0
M  V30 16803 H 1545.29 5.45809 -0.581722 0
M  V30 16804 H 1545.56 4.35514 0.760244 0
M  V30 16805 N 1544.61 0.673042 1.42506 0
M  V30 16806 C 1545.52 -0.00648572 2.34599 0
M  V30 16807 C 1546.54 -0.790758 1.54994 0
M  V30 16808 O 1547.72 -0.733482 1.87569 0
M  V30 16809 C 1544.78 -0.94734 3.33506 0
M  V30 16810 C 1543.84 -0.157795 4.2901 0
M  V30 16811 C 1543.08 -1.05384 5.23192 0
M  V30 16812 O 1543.3 -2.29334 5.22266 0
M  V30 16813 O 1542.23 -0.515584 5.99688 0
M  V30 16814 H 1546.06 0.752059 2.94241 0
M  V30 16815 H 1543.64 0.433272 1.42979 0
M  V30 16816 H 1545.53 -1.4875 3.94273 0
M  V30 16817 H 1544.2 -1.68577 2.7634 0
M  V30 16818 H 1543.11 0.426426 3.71662 0
M  V30 16819 H 1544.44 0.54148 4.89212 0
M  V30 16820 N 1546.09 -1.52004 0.416254 0
M  V30 16821 C 1547.02 -2.24913 -0.441208 0
M  V30 16822 C 1548.04 -1.28139 -1.0042 0
M  V30 16823 O 1549.23 -1.54037 -0.901928 0
M  V30 16824 C 1546.33 -2.97298 -1.62688 0
M  V30 16825 C 1545.5 -4.20999 -1.18652 0
M  V30 16826 C 1544.56 -4.76146 -2.2399 0
M  V30 16827 O 1543.58 -5.38541 -1.84288 0
M  V30 16828 N 1544.79 -4.58338 -3.56239 0
M  V30 16829 H 1547.55 -2.99137 0.183576 0
M  V30 16830 H 1545.11 -1.60051 0.244008 0
M  V30 16831 H 1547.1 -3.31082 -2.32737 0
M  V30 16832 H 1545.67 -2.26216 -2.15744 0
M  V30 16833 H 1544.89 -3.92948 -0.313877 0
M  V30 16834 H 1546.18 -5.01318 -0.869365 0
M  V30 16835 H 1545.58 -4.08592 -3.91241 0
M  V30 16836 H 1544.14 -4.96542 -4.22244 0
M  V30 16837 N 1547.57 -0.146903 -1.56914 0
M  V30 16838 C 1548.5 0.788924 -2.19769 0
M  V30 16839 C 1549.48 1.25712 -1.14589 0
M  V30 16840 O 1550.67 1.3147 -1.42931 0
M  V30 16841 C 1547.8 2.02824 -2.81921 0
M  V30 16842 C 1546.75 1.69683 -3.92927 0
M  V30 16843 C 1546.08 3.00877 -4.42015 0
M  V30 16844 C 1547.38 0.943559 -5.13706 0
M  V30 16845 H 1549.07 0.265076 -2.98224 0
M  V30 16846 H 1546.62 0.126057 -1.43447 0
M  V30 16847 H 1548.57 2.68773 -3.2456 0
M  V30 16848 H 1547.29 2.57581 -2.00797 0
M  V30 16849 H 1545.95 1.06112 -3.50907 0
M  V30 16850 H 1545.6 3.53625 -3.57713 0
M  V30 16851 H 1545.3 2.79466 -5.16888 0
M  V30 16852 H 1546.82 3.67897 -4.87323 0
M  V30 16853 H 1548.24 1.50513 -5.5319 0
M  V30 16854 H 1546.64 0.829387 -5.94341 0
M  V30 16855 H 1547.71 -0.0647228 -4.84857 0
M  V30 16856 N 1549.05 1.57088 0.126881 0
M  V30 16857 C 1550 2.00736 1.17506 0
M  V30 16858 C 1550.99 0.902986 1.43327 0
M  V30 16859 O 1552.2 1.08819 1.43382 0
M  V30 16860 H 1548.57 0.639285 0.396003 0
M  V30 16861 H 1550.54 2.88015 0.780373 0
M  V30 16862 C 1549.29 2.42096 2.49569 0
M  V30 16863 H 1548.61 3.26639 2.30536 0
M  V30 16864 H 1550.05 2.76442 3.2149 0
M  V30 16865 C 1548.51 1.28148 3.11576 0
M  V30 16866 O 1549.04 0.593145 3.97297 0
M  V30 16867 N 1547.25 1.04055 2.71332 0
M  V30 16868 H 1546.8 1.60208 2.0172 0
M  V30 16869 H 1546.75 0.280075 3.1315 0
M  V30 16870 N 1550.53 -0.396836 1.52522 0
M  V30 16871 C 1551.46 -1.49088 1.79708 0
M  V30 16872 C 1552.44 -1.57246 0.648678 0
M  V30 16873 O 1553.62 -1.72321 0.895495 0
M  V30 16874 C 1550.75 -2.86785 1.95887 0
M  V30 16875 C 1549.71 -2.93472 3.11542 0
M  V30 16876 C 1549.03 -4.33542 3.12963 0
M  V30 16877 C 1550.33 -2.63832 4.50766 0
M  V30 16878 H 1552.03 -1.26588 2.71322 0
M  V30 16879 H 1549.57 -0.607535 1.30557 0
M  V30 16880 H 1551.53 -3.63319 2.13489 0
M  V30 16881 H 1550.25 -3.10605 1.00955 0
M  V30 16882 H 1548.91 -2.19384 2.93711 0
M  V30 16883 H 1548.56 -4.5439 2.15729 0
M  V30 16884 H 1548.26 -4.38938 3.9065 0
M  V30 16885 H 1549.78 -5.11993 3.32709 0
M  V30 16886 H 1551.19 -3.30086 4.68739 0
M  V30 16887 H 1549.59 -2.80589 5.30462 0
M  V30 16888 H 1550.66 -1.59209 4.58018 0
M  V30 16889 N 1552.01 -1.43353 -0.654814 0
M  V30 16890 C 1552.94 -1.42835 -1.7797 0
M  V30 16891 C 1553.92 -0.290004 -1.59993 0
M  V30 16892 O 1555.1 -0.483346 -1.82198 0
M  V30 16893 C 1552.23 -1.2384 -3.15248 0
M  V30 16894 C 1551.27 -2.4093 -3.5193 0
M  V30 16895 S 1552.11 -4.03479 -3.52086 0
M  V30 16896 C 1553.26 -3.86864 -4.92024 0
M  V30 16897 H 1553.5 -2.38021 -1.78138 0
M  V30 16898 H 1551.03 -1.30365 -0.827312 0
M  V30 16899 H 1552.99 -1.13568 -3.94478 0
M  V30 16900 H 1551.65 -0.302053 -3.12644 0
M  V30 16901 H 1550.84 -2.2344 -4.51764 0
M  V30 16902 H 1550.44 -2.4782 -2.80109 0
M  V30 16903 H 1552.73 -3.4909 -5.8064 0
M  V30 16904 H 1553.68 -4.86445 -5.14565 0
M  V30 16905 H 1554.09 -3.19352 -4.65483 0
M  V30 16906 N 1553.48 0.89303 -1.29857 0
M  V30 16907 C 1554.9 1.17496 -1.08013 0
M  V30 16908 C 1555.1 2.00829 0.164302 0
M  V30 16909 O 1554.16 2.37396 0.860194 0
M  V30 16910 C 1555.47 1.88944 -2.33924 0
M  V30 16911 C 1557.02 2.01742 -2.3931 0
M  V30 16912 C 1557.49 2.76601 -3.65042 0
M  V30 16913 N 1558.98 2.84152 -3.65803 0
M  V30 16914 C 1559.72 3.42628 -4.59776 0
M  V30 16915 N 1559.21 4.02218 -5.64086 0
M  V30 16916 N 1561.01 3.40366 -4.47334 0
M  V30 16917 H 1553.16 0.33719 -2.09706 0
M  V30 16918 H 1555.42 0.211899 -0.924014 0
M  V30 16919 H 1555.13 1.35151 -3.24695 0
M  V30 16920 H 1555 2.89379 -2.4195 0
M  V30 16921 H 1557.39 2.54708 -1.49022 0
M  V30 16922 H 1557.47 1.0042 -2.35265 0
M  V30 16923 H 1557.11 2.24309 -4.55684 0
M  V30 16924 H 1557.04 3.78283 -3.66346 0
M  V30 16925 H 1559.53 2.41835 -2.90386 0
M  V30 16926 H 1559.85 4.4488 -6.31903 0
M  V30 16927 H 1558.19 4.00661 -5.67887 0
M  V30 16928 H 1561.38 2.93035 -3.65031 0
M  V30 16929 H 1561.56 3.85644 -5.20752 0
M  V30 16930 N 1554.96 1.12442 1.10429 0
M  V30 16931 C 1555.91 0.792332 2.16773 0
M  V30 16932 C 1556.88 -0.240945 1.64343 0
M  V30 16933 O 1558.06 -0.115504 1.9045 0
M  V30 16934 C 1555.2 0.253166 3.4417 0
M  V30 16935 C 1554.32 1.34426 4.10553 0
M  V30 16936 C 1553.45 0.764527 5.2567 0
M  V30 16937 C 1552.49 1.83474 5.83955 0
M  V30 16938 N 1551.63 1.27372 6.9045 0
M  V30 16939 H 1556.47 1.7033 2.44524 0
M  V30 16940 H 1554 0.850418 1.20026 0
M  V30 16941 H 1555.96 -0.0774862 4.17128 0
M  V30 16942 H 1554.59 -0.620962 3.16771 0
M  V30 16943 H 1553.64 1.79169 3.35563 0
M  V30 16944 H 1554.96 2.15354 4.49916 0
M  V30 16945 H 1554.11 0.384548 6.0548 0
M  V30 16946 H 1552.85 -0.0759512 4.87641 0
M  V30 16947 H 1551.85 2.22391 5.02814 0
M  V30 16948 H 1553.08 2.67844 6.24048 0
M  V30 16949 H 1551.03 0.455069 6.5442 0
M  V30 16950 H 1550.94 2.01959 7.28525 0
M  V30 16951 H 1552.21 0.920975 7.7404 0
M  V30 16952 N 1556.44 -1.28223 0.91633 0
M  V30 16953 C 1557.35 -2.30956 0.411882 0
M  V30 16954 C 1558.37 -1.66609 -0.501753 0
M  V30 16955 O 1559.54 -1.97641 -0.387317 0
M  V30 16956 C 1556.61 -3.45053 -0.337558 0
M  V30 16957 C 1555.67 -4.2495 0.609609 0
M  V30 16958 C 1554.9 -5.33598 -0.104159 0
M  V30 16959 O 1555.12 -5.54786 -1.32546 0
M  V30 16960 O 1554.06 -5.99272 0.561851 0
M  V30 16961 H 1557.88 -2.76118 1.26461 0
M  V30 16962 H 1555.47 -1.32964 0.681246 0
M  V30 16963 H 1557.35 -4.14477 -0.760722 0
M  V30 16964 H 1556.03 -3.01968 -1.16607 0
M  V30 16965 H 1554.93 -3.58104 1.08222 0
M  V30 16966 H 1556.27 -4.7172 1.40502 0
M  V30 16967 N 1557.92 -0.68059 -1.42147 0
M  V30 16968 C 1558.88 -0.0149865 -2.29195 0
M  V30 16969 C 1559.88 0.723163 -1.43621 0
M  V30 16970 O 1561.07 0.560297 -1.64943 0
M  V30 16971 C 1558.2 0.989375 -3.26227 0
M  V30 16972 H 1559.4 -0.781236 -2.89546 0
M  V30 16973 H 1556.95 -0.443256 -1.49883 0
M  V30 16974 H 1557.68 1.78391 -2.70827 0
M  V30 16975 H 1557.47 0.463401 -3.89352 0
M  V30 16976 H 1558.96 1.45334 -3.91494 0
M  V30 16977 N 1559.4 1.51781 -0.424309 0
M  V30 16978 C 1560.64 2.01157 0.147925 0
M  V30 16979 C 1560.96 1.31369 1.44919 0
M  V30 16980 O 1562.16 1.71643 2.10359 0
M  V30 16981 C 1560.62 3.58526 0.31417 0
M  V30 16982 C 1560.23 4.37242 -0.975898 0
M  V30 16983 C 1561.97 4.16088 0.840876 0
M  V30 16984 C 1559.88 5.86287 -0.776009 0
M  V30 16985 H 1558.81 0.751684 0.0590568 0
M  V30 16986 H 1561.46 1.74998 -0.552079 0
M  V30 16987 H 1559.84 3.81077 1.07687 0
M  V30 16988 H 1561.02 4.26444 -1.74592 0
M  V30 16989 H 1559.33 3.9107 -1.43015 0
M  V30 16990 H 1561.93 5.25138 1.0067 0
M  V30 16991 H 1562.27 3.7442 1.81977 0
M  V30 16992 H 1562.8 3.97565 0.136836 0
M  V30 16993 H 1559.54 6.32343 -1.7269 0
M  V30 16994 H 1559.06 5.99783 -0.0455544 0
M  V30 16995 H 1560.74 6.45609 -0.424095 0
M  V30 16996 N 1560.87 0.155222 1.56834 0
M  V30 16997 C 1562.15 -0.539327 1.88018 0
M  V30 16998 C 1562.53 -1.8241 1.06253 0
M  V30 16999 O 1561.88 -2.27996 0.151721 0
M  V30 17000 C 1562.09 -0.796826 3.39782 0
M  V30 17001 C 1563.44 -1.13397 4.09178 0
M  V30 17002 O 1564.46 -0.885907 3.45007 0
M  V30 17003 O 1563.32 -1.60117 5.22518 0
M  V30 17004 H 1560.41 -0.276066 0.779562 0
M  V30 17005 H 1562.96 0.192451 1.68605 0
M  V30 17006 H 1561.73 0.112097 3.91139 0
M  V30 17007 H 1561.35 -1.5825 3.6475 0
M  V30 17008 N 1562.35 -1.57153 -0.118549 0
M  V30 17009 C 1563.3 -2.00374 -1.14538 0
M  V30 17010 C 1564.27 -0.875964 -1.41124 0
M  V30 17011 O 1565.45 -1.14022 -1.52982 0
M  V30 17012 C 1562.59 -2.4135 -2.46666 0
M  V30 17013 C 1561.71 -3.67545 -2.27012 0
M  V30 17014 C 1560.84 -3.975 -3.52374 0
M  V30 17015 C 1559.88 -5.16877 -3.27879 0
M  V30 17016 N 1559.02 -5.427 -4.45445 0
M  V30 17017 H 1563.86 -2.87885 -0.769821 0
M  V30 17018 H 1561.39 -1.42406 -0.368622 0
M  V30 17019 H 1563.35 -2.63144 -3.23745 0
M  V30 17020 H 1561.98 -1.5688 -2.82114 0
M  V30 17021 H 1561.03 -3.53364 -1.40848 0
M  V30 17022 H 1562.35 -4.54777 -2.04889 0
M  V30 17023 H 1561.5 -4.19945 -4.37871 0
M  V30 17024 H 1560.24 -3.08745 -3.77529 0
M  V30 17025 H 1559.24 -4.94276 -2.40773 0
M  V30 17026 H 1560.47 -6.0721 -3.04094 0
M  V30 17027 H 1558.42 -4.56902 -4.70719 0
M  V30 17028 H 1558.33 -6.24256 -4.26428 0
M  V30 17029 H 1559.6 -5.69664 -5.32074 0
M  V30 17030 N 1563.83 0.388742 -1.5273 0
M  V30 17031 C 1564.76 1.48133 -1.80496 0
M  V30 17032 C 1565.74 1.56899 -0.657008 0
M  V30 17033 O 1566.93 1.71844 -0.904621 0
M  V30 17034 C 1564.06 2.85742 -1.97405 0
M  V30 17035 C 1563.01 2.91815 -3.13094 0
M  V30 17036 C 1562.34 4.31876 -3.15258 0
M  V30 17037 C 1563.64 2.61438 -4.52159 0
M  V30 17038 H 1565.33 1.25147 -2.7199 0
M  V30 17039 H 1562.88 0.600603 -1.30877 0
M  V30 17040 H 1564.83 3.62182 -2.15412 0
M  V30 17041 H 1563.55 3.10065 -1.02601 0
M  V30 17042 H 1562.21 2.17824 -2.9487 0
M  V30 17043 H 1561.86 4.53239 -2.18135 0
M  V30 17044 H 1561.56 4.3686 -3.92972 0
M  V30 17045 H 1563.08 5.10221 -3.3542 0
M  V30 17046 H 1564.5 3.27596 -4.70483 0
M  V30 17047 H 1562.89 2.77771 -5.31943 0
M  V30 17048 H 1563.96 1.56778 -4.58856 0
M  V30 17049 N 1565.31 1.43698 0.647203 0
M  V30 17050 C 1566.56 1.44918 1.40292 0
M  V30 17051 C 1566.87 0.0794243 1.95439 0
M  V30 17052 O 1568.08 -0.0309052 2.71482 0
M  V30 17053 C 1566.53 2.55052 2.53923 0
M  V30 17054 C 1566.14 3.98161 2.05357 0
M  V30 17055 C 1567.88 2.65473 3.31246 0
M  V30 17056 C 1565.79 4.99749 3.16235 0
M  V30 17057 H 1564.72 0.539106 0.527144 0
M  V30 17058 H 1567.37 1.69708 0.697951 0
M  V30 17059 H 1565.75 2.23473 3.26919 0
M  V30 17060 H 1566.93 4.3923 1.39333 0
M  V30 17061 H 1565.24 3.91839 1.40896 0
M  V30 17062 H 1567.84 3.38546 4.13873 0
M  V30 17063 H 1568.18 1.70745 3.79673 0
M  V30 17064 H 1568.72 2.96383 2.65334 0
M  V30 17065 H 1565.45 5.96051 2.7277 0
M  V30 17066 H 1564.97 4.63288 3.80952 0
M  V30 17067 H 1566.65 5.22725 3.81271 0
M  V30 17068 N 1566.79 -0.886131 1.30328 0
M  V30 17069 C 1567.72 -2.00793 1.19183 0
M  V30 17070 C 1568.7 -1.69899 0.08276 0
M  V30 17071 O 1569.88 -1.92389 0.264593 0
M  V30 17072 C 1567.01 -3.35922 0.881669 0
M  V30 17073 C 1565.97 -3.81072 1.94855 0
M  V30 17074 C 1565.29 -5.1348 1.4914 0
M  V30 17075 C 1566.59 -3.99923 3.35944 0
M  V30 17076 H 1568.29 -2.10375 2.13032 0
M  V30 17077 H 1565.83 -1.0108 1.02561 0
M  V30 17078 H 1567.79 -4.13922 0.790359 0
M  V30 17079 H 1566.51 -3.26469 -0.0925037 0
M  V30 17080 H 1565.17 -3.053 2.02947 0
M  V30 17081 H 1564.82 -5.00453 0.50553 0
M  V30 17082 H 1564.52 -5.44659 2.205 0
M  V30 17083 H 1566.04 -5.94005 1.41386 0
M  V30 17084 H 1567.45 -4.68364 3.30617 0
M  V30 17085 H 1565.85 -4.42477 4.05381 0
M  V30 17086 H 1566.92 -3.03816 3.77921 0
M  V30 17087 N 1568.26 -1.13026 -1.09832 0
M  V30 17088 C 1569.51 -0.884093 -1.81292 0
M  V30 17089 C 1569.83 0.591608 -1.86439 0
M  V30 17090 O 1571.03 0.954571 -2.54166 0
M  V30 17091 C 1569.49 -1.53207 -3.25662 0
M  V30 17092 C 1569.1 -3.043 -3.28794 0
M  V30 17093 C 1570.84 -1.36644 -4.01906 0
M  V30 17094 C 1568.75 -3.62003 -4.67662 0
M  V30 17095 H 1567.68 -0.327101 -0.679353 0
M  V30 17096 H 1570.33 -1.35748 -1.2347 0
M  V30 17097 H 1568.71 -0.986353 -3.83519 0
M  V30 17098 H 1569.88 -3.65418 -2.80725 0
M  V30 17099 H 1568.2 -3.20332 -2.66038 0
M  V30 17100 H 1570.8 -1.7717 -5.04495 0
M  V30 17101 H 1571.14 -0.310809 -4.15138 0
M  V30 17102 H 1571.67 -1.88172 -3.5048 0
M  V30 17103 H 1568.41 -4.67354 -4.59631 0
M  V30 17104 H 1567.93 -3.05663 -5.16072 0
M  V30 17105 H 1569.61 -3.61432 -5.36634 0
M  V30 17106 N 1569.74 1.27735 -0.923117 0
M  V30 17107 C 1570.67 2.26095 -0.375982 0
M  V30 17108 C 1571.69 1.55227 0.490763 0
M  V30 17109 O 1572.88 1.7589 0.304127 0
M  V30 17110 C 1569.98 3.35479 0.480342 0
M  V30 17111 C 1569.15 4.35866 -0.36605 0
M  V30 17112 C 1568.21 5.24466 0.42688 0
M  V30 17113 O 1567.23 5.68964 -0.163825 0
M  V30 17114 N 1568.44 5.54192 1.72777 0
M  V30 17115 H 1571.2 2.73679 -1.22147 0
M  V30 17116 H 1568.76 1.41314 -0.790056 0
M  V30 17117 H 1570.75 3.91693 1.01776 0
M  V30 17118 H 1569.32 2.87531 1.22657 0
M  V30 17119 H 1568.54 3.7898 -1.08479 0
M  V30 17120 H 1569.83 4.9995 -0.944849 0
M  V30 17121 H 1569.23 5.19888 2.23008 0
M  V30 17122 H 1567.79 6.13125 2.21181 0
M  V30 17123 N 1571.22 0.688118 1.41784 0
M  V30 17124 C 1572.18 0.0271411 2.29184 0
M  V30 17125 C 1573.18 -0.715537 1.44002 0
M  V30 17126 O 1574.37 -0.551542 1.65238 0
M  V30 17127 C 1571.51 -0.97206 3.26747 0
M  V30 17128 H 1572.7 0.79658 2.89127 0
M  V30 17129 H 1570.25 0.451198 1.49646 0
M  V30 17130 H 1570.99 -1.76953 2.71769 0
M  V30 17131 H 1570.77 -0.442746 3.89592 0
M  V30 17132 H 1572.26 -1.43256 3.92259 0
M  V30 17133 N 1572.7 -1.51554 0.432352 0
M  V30 17134 C 1573.94 -2.03954 -0.135014 0
M  V30 17135 C 1574.3 -1.30972 -1.40393 0
M  V30 17136 O 1575.5 -1.73719 -2.05122 0
M  V30 17137 C 1573.77 -3.55646 -0.35361 0
M  V30 17138 S 1575.33 -4.29781 -0.885096 0
M  V30 17139 H 1572.15 -0.710178 -0.0341871 0
M  V30 17140 H 1574.75 -1.86365 0.590612 0
M  V30 17141 H 1573.46 -4.06333 0.576335 0
M  V30 17142 H 1572.99 -3.7752 -1.10646 0
M  V30 17143 H 1575 -4.46564 -2.16322 0
M  V30 17144 N 1574.18 -0.163538 -1.56749 0
M  V30 17145 C 1575.42 0.48412 -1.96937 0
M  V30 17146 C 1575.76 1.63418 -1.04919 0
M  V30 17147 O 1575.03 1.94269 -0.094783 0
M  V30 17148 C 1575.31 0.974532 -3.46663 0
M  V30 17149 C 1575.17 -0.175173 -4.49459 0
M  V30 17150 C 1576.49 1.85082 -3.9929 0
M  V30 17151 H 1573.6 0.174503 -0.716043 0
M  V30 17152 H 1576.25 -0.248103 -1.88373 0
M  V30 17153 H 1574.4 1.59849 -3.54091 0
M  V30 17154 H 1576.07 -0.812038 -4.54096 0
M  V30 17155 H 1574.31 -0.831853 -4.2575 0
M  V30 17156 H 1574.98 0.20996 -5.51601 0
M  V30 17157 H 1577.46 1.32488 -3.94444 0
M  V30 17158 H 1576.33 2.163 -5.04485 0
M  V30 17159 H 1576.6 2.79378 -3.42638 0
M  V30 17160 N 1575.65 1.57214 0.110213 0
M  V30 17161 C 1577.07 1.52706 0.464004 0
M  V30 17162 C 1577.27 0.87792 1.81369 0
M  V30 17163 O 1576.33 0.463987 2.482 0
M  V30 17164 C 1577.64 2.97457 0.440406 0
M  V30 17165 C 1579.19 3.08594 0.523336 0
M  V30 17166 C 1579.66 4.54923 0.53004 0
M  V30 17167 N 1581.15 4.59411 0.591228 0
M  V30 17168 C 1581.89 5.7006 0.618007 0
M  V30 17169 N 1581.38 6.9018 0.601901 0
M  V30 17170 N 1583.18 5.58192 0.661679 0
M  V30 17171 H 1575.33 1.97794 -0.77403 0
M  V30 17172 H 1577.59 0.903673 -0.286496 0
M  V30 17173 H 1577.3 3.48356 -0.483845 0
M  V30 17174 H 1577.17 3.55356 1.26498 0
M  V30 17175 H 1579.56 2.57692 1.43801 0
M  V30 17176 H 1579.64 2.53674 -0.329095 0
M  V30 17177 H 1579.28 5.06472 -0.380623 0
M  V30 17178 H 1579.21 5.07663 1.39948 0
M  V30 17179 H 1581.7 3.72953 0.609483 0
M  V30 17180 H 1582.02 7.70267 0.6252 0
M  V30 17181 H 1580.36 6.92665 0.569186 0
M  V30 17182 H 1583.55 4.63256 0.671686 0
M  V30 17183 H 1583.73 6.44432 0.67908 0
M  V30 17184 N 1577.13 -0.380637 1.52934 0
M  V30 17185 C 1578.1 -1.44819 1.77652 0
M  V30 17186 C 1579.1 -1.47224 0.646657 0
M  V30 17187 O 1580.29 -1.48248 0.91477 0
M  V30 17188 C 1577.42 -2.8405 1.8849 0
M  V30 17189 H 1578.61 -1.24183 2.72981 0
M  V30 17190 H 1576.16 -0.61288 1.43783 0
M  V30 17191 H 1576.9 -3.1002 0.951751 0
M  V30 17192 H 1576.68 -2.83704 2.70655 0
M  V30 17193 H 1578.17 -3.61388 2.09257 0
M  V30 17194 N 1578.61 -1.44039 -0.639573 0
M  V30 17195 C 1579.86 -1.46377 -1.39928 0
M  V30 17196 C 1580.19 -0.0931685 -1.94277 0
M  V30 17197 O 1579.44 0.903841 -1.73578 0
M  V30 17198 C 1579.74 -2.46459 -2.5883 0
M  V30 17199 C 1579.41 -3.91998 -2.2282 0
M  V30 17200 C 1578.07 -4.31633 -2.12712 0
M  V30 17201 C 1580.42 -4.83656 -1.94232 0
M  V30 17202 C 1577.75 -5.60863 -1.72191 0
M  V30 17203 C 1580.1 -6.13265 -1.55206 0
M  V30 17204 C 1578.76 -6.51863 -1.43633 0
M  V30 17205 H 1578.03 -0.535633 -0.512034 0
M  V30 17206 H 1580.68 -1.77202 -0.72607 0
M  V30 17207 H 1578.99 -2.09087 -3.31345 0
M  V30 17208 H 1580.68 -2.45518 -3.17052 0
M  V30 17209 H 1577.27 -3.60636 -2.31602 0
M  V30 17210 H 1581.46 -4.53796 -2.00955 0
M  V30 17211 H 1576.71 -5.89595 -1.61828 0
M  V30 17212 H 1580.89 -6.83752 -1.32121 0
M  V30 17213 H 1578.51 -7.51903 -1.12006 0
M  V30 17214 N 1580.09 0.879207 -1.30796 0
M  V30 17215 C 1581.02 2.00158 -1.20246 0
M  V30 17216 C 1582 1.69852 -0.091769 0
M  V30 17217 O 1583.18 1.92246 -0.274792 0
M  V30 17218 C 1580.31 3.3545 -0.899472 0
M  V30 17219 C 1579.27 3.80033 -1.96873 0
M  V30 17220 C 1578.59 5.12681 -1.51861 0
M  V30 17221 C 1579.89 3.98136 -3.38061 0
M  V30 17222 H 1581.59 2.09242 -2.14145 0
M  V30 17223 H 1579.13 1.00535 -1.03096 0
M  V30 17224 H 1581.09 4.13497 -0.812299 0
M  V30 17225 H 1579.81 3.26513 0.075189 0
M  V30 17226 H 1578.47 3.04219 -2.04564 0
M  V30 17227 H 1578.12 5.00178 -0.532063 0
M  V30 17228 H 1577.82 5.43482 -2.23386 0
M  V30 17229 H 1579.34 5.93247 -1.44534 0
M  V30 17230 H 1580.76 4.66604 -3.33096 0
M  V30 17231 H 1579.15 4.40321 -4.07722 0
M  V30 17232 H 1580.22 3.01807 -3.79526 0
M  V30 17233 N 1581.57 1.13606 1.09231 0
M  V30 17234 C 1582.81 0.909321 1.83059 0
M  V30 17235 C 1583.17 -0.554485 1.83819 0
M  V30 17236 O 1584.37 -0.898864 2.53326 0
M  V30 17237 C 1582.64 1.4835 3.25157 0
M  V30 17238 S 1584.2 1.3971 4.15964 0
M  V30 17239 H 1581.02 0.327715 0.630971 0
M  V30 17240 H 1583.62 1.44796 1.31355 0
M  V30 17241 H 1582.33 2.54219 3.22181 0
M  V30 17242 H 1581.86 0.942887 3.81934 0
M  V30 17243 H 1583.87 0.37691 4.94766 0
M  V30 17244 N 1583.05 -1.27244 0.929878 0
M  V30 17245 C 1584.27 -1.98912 0.587277 0
M  V30 17246 C 1584.7 -1.68888 -0.828168 0
M  V30 17247 O 1584.05 -0.930394 -1.55606 0
M  V30 17248 C 1584.1 -3.51097 0.822399 0
M  V30 17249 O 1583.21 -4.12251 -0.110968 0
M  V30 17250 H 1582.55 -0.624404 0.225867 0
M  V30 17251 H 1585.08 -1.61997 1.24973 0
M  V30 17252 H 1585.09 -4.01255 0.738824 0
M  V30 17253 H 1583.76 -3.72282 1.85416 0
M  V30 17254 H 1582.34 -3.72893 0.0227053 0
M  V30 17255 N 1584.52 -0.695628 -1.41417 0
M  V30 17256 C 1585.94 -0.367185 -1.55319 0
M  V30 17257 C 1586.14 1.12584 -1.67114 0
M  V30 17258 O 1585.2 1.91166 -1.64959 0
M  V30 17259 C 1586.51 -1.11576 -2.79233 0
M  V30 17260 C 1588.06 -1.10011 -2.9303 0
M  V30 17261 C 1588.53 -1.83044 -4.19832 0
M  V30 17262 N 1590.02 -1.80014 -4.26789 0
M  V30 17263 C 1590.76 -2.33362 -5.23765 0
M  V30 17264 N 1590.25 -2.95182 -6.26769 0
M  V30 17265 N 1592.05 -2.23618 -5.15705 0
M  V30 17266 H 1584.2 -1.66398 -1.32006 0
M  V30 17267 H 1586.46 -0.702205 -0.636877 0
M  V30 17268 H 1586.17 -2.1706 -2.76727 0
M  V30 17269 H 1586.04 -0.694385 -3.70753 0
M  V30 17270 H 1588.43 -0.0535436 -2.95051 0
M  V30 17271 H 1588.51 -1.56055 -2.02683 0
M  V30 17272 H 1588.15 -2.8768 -4.18572 0
M  V30 17273 H 1588.08 -1.34434 -5.09151 0
M  V30 17274 H 1590.57 -1.34942 -3.52986 0
M  V30 17275 H 1590.89 -3.33456 -6.97156 0
M  V30 17276 H 1589.23 -2.99259 -6.27271 0
M  V30 17277 H 1592.42 -1.74994 -4.3416 0
M  V30 17278 H 1592.6 -2.65497 -5.91113 0
M  V30 17279 N 1586 1.51322 -0.440383 0
M  V30 17280 C 1587.42 1.5933 -0.0928372 0
M  V30 17281 C 1587.62 1.45107 1.39807 0
M  V30 17282 O 1586.67 1.29385 2.16831 0
M  V30 17283 C 1587.99 2.9433 -0.615663 0
M  V30 17284 C 1589.53 3.07647 -0.576373 0
M  V30 17285 C 1590.01 4.45176 -1.07622 0
M  V30 17286 N 1591.5 4.51504 -1.03434 0
M  V30 17287 C 1592.24 5.56249 -1.39194 0
M  V30 17288 N 1591.73 6.68398 -1.82254 0
M  V30 17289 N 1593.52 5.46624 -1.30991 0
M  V30 17290 H 1585.68 1.58812 -1.41041 0
M  V30 17291 H 1587.94 0.748795 -0.581386 0
M  V30 17292 H 1587.64 3.10117 -1.65892 0
M  V30 17293 H 1587.52 3.77176 -0.0422513 0
M  V30 17294 H 1589.91 2.91526 0.457904 0
M  V30 17295 H 1589.99 2.26633 -1.18622 0
M  V30 17296 H 1589.63 4.62044 -2.10898 0
M  V30 17297 H 1589.56 5.24734 -0.442882 0
M  V30 17298 H 1592.05 3.71013 -0.718156 0
M  V30 17299 H 1592.36 7.44347 -2.07769 0
M  V30 17300 H 1590.71 6.69598 -1.86183 0
M  V30 17301 H 1593.9 4.57894 -0.972145 0
M  V30 17302 H 1594.07 6.28143 -1.59188 0
M  V30 17303 N 1587.48 0.171848 1.5666 0
M  V30 17304 C 1588.71 -0.478526 2.00982 0
M  V30 17305 C 1589.12 -1.57313 1.05115 0
M  V30 17306 O 1588.46 -1.83647 0.0441833 0
M  V30 17307 C 1588.52 -1.11633 3.41729 0
M  V30 17308 C 1588.19 -0.163307 4.56708 0
M  V30 17309 C 1589.18 0.618553 5.16207 0
M  V30 17310 C 1586.87 -0.0589794 5.02265 0
M  V30 17311 C 1588.86 1.49194 6.19693 0
M  V30 17312 C 1586.55 0.817987 6.05601 0
M  V30 17313 C 1587.55 1.59203 6.64186 0
M  V30 17314 O 1587.24 2.45434 7.65518 0
M  V30 17315 H 1586.97 -0.126833 0.663995 0
M  V30 17316 H 1589.52 0.270866 2.03606 0
M  V30 17317 H 1587.75 -1.91385 3.36019 0
M  V30 17318 H 1589.44 -1.66896 3.70001 0
M  V30 17319 H 1590.21 0.548127 4.81893 0
M  V30 17320 H 1586.09 -0.651245 4.56377 0
M  V30 17321 H 1589.63 2.09656 6.6535 0
M  V30 17322 H 1585.53 0.889614 6.3934 0
M  V30 17323 H 1586.29 2.38955 7.82843 0
M  V30 17324 N 1588.96 -1.5727 -0.101874 0
M  V30 17325 C 1589.89 -1.98253 -1.15014 0
M  V30 17326 C 1590.9 -0.884147 -1.36699 0
M  V30 17327 O 1592.09 -1.16232 -1.35471 0
M  V30 17328 C 1589.19 -2.28043 -2.50698 0
M  V30 17329 C 1588.36 -3.59343 -2.49383 0
M  V30 17330 C 1587.42 -3.77147 -3.66943 0
M  V30 17331 O 1586.45 -4.49075 -3.49744 0
M  V30 17332 N 1587.65 -3.1721 -4.86167 0
M  V30 17333 H 1590.42 -2.88787 -0.801375 0
M  V30 17334 H 1587.98 -1.59264 -0.290941 0
M  V30 17335 H 1589.97 -2.37153 -3.27934 0
M  V30 17336 H 1588.54 -1.4355 -2.77691 0
M  V30 17337 H 1587.76 -3.61264 -1.57741 0
M  V30 17338 H 1589.05 -4.45612 -2.45576 0
M  V30 17339 H 1588.45 -2.58772 -5.03044 0
M  V30 17340 H 1587 -3.31816 -5.61018 0
M  V30 17341 N 1590.44 0.372521 -1.53134 0
M  V30 17342 C 1591.38 1.45597 -1.79082 0
M  V30 17343 C 1592.35 1.5349 -0.63482 0
M  V30 17344 O 1593.54 1.69488 -0.876276 0
M  V30 17345 C 1590.68 2.8263 -1.98026 0
M  V30 17346 C 1589.79 2.83758 -3.25738 0
M  V30 17347 C 1588.93 4.12322 -3.34909 0
M  V30 17348 C 1587.96 4.07565 -4.5668 0
M  V30 17349 N 1587.1 5.27766 -4.63042 0
M  V30 17350 H 1591.94 1.22771 -2.71535 0
M  V30 17351 H 1589.48 0.595285 -1.34517 0
M  V30 17352 H 1591.44 3.62227 -2.06997 0
M  V30 17353 H 1590.07 3.0387 -1.08917 0
M  V30 17354 H 1589.12 1.96435 -3.25757 0
M  V30 17355 H 1590.43 2.76114 -4.15406 0
M  V30 17356 H 1589.58 5.00331 -3.43153 0
M  V30 17357 H 1588.32 4.22709 -2.43245 0
M  V30 17358 H 1587.33 3.17943 -4.48545 0
M  V30 17359 H 1588.55 3.98786 -5.49678 0
M  V30 17360 H 1586.5 5.38752 -3.74276 0
M  V30 17361 H 1586.42 5.22264 -5.46605 0
M  V30 17362 H 1587.68 6.17626 -4.75561 0
M  V30 17363 N 1591.91 1.44376 0.631925 0
M  V30 17364 C 1593.16 1.46398 1.38747 0
M  V30 17365 C 1593.48 0.100149 1.95343 0
M  V30 17366 O 1594.68 -0.00210908 2.715 0
M  V30 17367 C 1593.14 2.57731 2.51203 0
M  V30 17368 C 1592.75 4.00317 2.01123 0
M  V30 17369 C 1594.49 2.68972 3.28412 0
M  V30 17370 C 1592.4 5.03075 3.10917 0
M  V30 17371 H 1591.33 0.544667 0.521396 0
M  V30 17372 H 1593.98 1.70439 0.679912 0
M  V30 17373 H 1592.36 2.26928 3.2453 0
M  V30 17374 H 1593.53 4.40683 1.34666 0
M  V30 17375 H 1591.85 3.93311 1.36732 0
M  V30 17376 H 1594.45 3.42916 4.10259 0
M  V30 17377 H 1594.79 1.74762 3.77841 0
M  V30 17378 H 1595.32 2.9918 2.62176 0
M  V30 17379 H 1592.06 5.98911 2.66433 0
M  V30 17380 H 1591.58 4.67302 3.76017 0
M  V30 17381 H 1593.26 5.2674 3.75705 0
M  V30 17382 N 1593.39 -0.872258 1.31261 0
M  V30 17383 C 1594.32 -1.9853 1.14537 0
M  V30 17384 C 1595.34 -1.62578 0.0850723 0
M  V30 17385 O 1596.53 -1.75379 0.332343 0
M  V30 17386 C 1593.63 -3.31005 0.72727 0
M  V30 17387 C 1592.8 -3.95313 1.87208 0
M  V30 17388 C 1591.86 -5.06101 1.44042 0
M  V30 17389 O 1590.88 -5.27045 2.1497 0
M  V30 17390 N 1592.09 -5.79581 0.32653 0
M  V30 17391 H 1594.85 -2.13423 2.10406 0
M  V30 17392 H 1592.41 -1.0461 1.23565 0
M  V30 17393 H 1594.4 -4.02502 0.421255 0
M  V30 17394 H 1592.97 -3.12287 -0.13975 0
M  V30 17395 H 1592.19 -3.16825 2.34553 0
M  V30 17396 H 1593.48 -4.35015 2.63893 0
M  V30 17397 H 1592.88 -5.65083 -0.264202 0
M  V30 17398 H 1591.44 -6.51751 0.0800358 0
M  V30 17399 N 1594.87 -1.14184 -1.08627 0
M  V30 17400 C 1595.78 -0.84033 -2.19033 0
M  V30 17401 C 1596.8 0.178322 -1.73084 0
M  V30 17402 O 1597.97 0.00737963 -2.01399 0
M  V30 17403 C 1595.04 -0.319674 -3.45223 0
M  V30 17404 C 1594.1 -1.4006 -4.0581 0
M  V30 17405 C 1593.33 -0.904693 -5.25976 0
M  V30 17406 O 1593.55 0.25468 -5.69831 0
M  V30 17407 O 1592.49 -1.68267 -5.77901 0
M  V30 17408 H 1596.31 -1.76296 -2.47292 0
M  V30 17409 H 1593.9 -0.919929 -1.17719 0
M  V30 17410 H 1595.78 -0.0351268 -4.21385 0
M  V30 17411 H 1594.46 0.575264 -3.18547 0
M  V30 17412 H 1593.36 -1.73858 -3.31247 0
M  V30 17413 H 1594.7 -2.26998 -4.3673 0
M  V30 17414 N 1596.35 1.26749 -0.936613 0
M  V30 17415 C 1597.3 2.26542 -0.441307 0
M  V30 17416 C 1598.27 1.58503 0.496581 0
M  V30 17417 O 1599.45 1.86259 0.41379 0
M  V30 17418 C 1596.59 3.43866 0.291633 0
M  V30 17419 C 1595.7 4.26592 -0.681397 0
M  V30 17420 C 1594.84 5.31151 0.0722826 0
M  V30 17421 C 1593.88 6.05553 -0.892869 0
M  V30 17422 N 1593.01 7.01891 -0.17124 0
M  V30 17423 H 1597.85 2.68282 -1.29725 0
M  V30 17424 H 1595.39 1.31914 -0.650928 0
M  V30 17425 H 1597.35 4.10711 0.732984 0
M  V30 17426 H 1595.98 3.03051 1.11175 0
M  V30 17427 H 1595.03 3.59579 -1.24126 0
M  V30 17428 H 1596.34 4.78201 -1.41864 0
M  V30 17429 H 1595.5 6.03987 0.57313 0
M  V30 17430 H 1594.24 4.80369 0.842439 0
M  V30 17431 H 1593.24 5.31548 -1.40488 0
M  V30 17432 H 1594.47 6.58424 -1.66296 0
M  V30 17433 H 1592.41 6.53426 0.580507 0
M  V30 17434 H 1592.33 7.5123 -0.847897 0
M  V30 17435 H 1593.6 7.78889 0.308662 0
M  V30 17436 N 1597.83 0.703118 1.41046 0
M  V30 17437 C 1599.24 0.375417 1.55122 0
M  V30 17438 C 1599.44 -1.11696 1.67709 0
M  V30 17439 O 1598.5 -1.90289 1.65971 0
M  V30 17440 C 1599.81 1.13056 2.78638 0
M  V30 17441 C 1601.36 1.11564 2.92442 0
M  V30 17442 C 1601.83 1.85268 4.18855 0
M  V30 17443 N 1603.33 1.82275 4.25829 0
M  V30 17444 C 1604.06 2.36137 5.2252 0
M  V30 17445 N 1603.56 2.98502 6.25195 0
M  V30 17446 N 1605.35 2.26349 5.14512 0
M  V30 17447 H 1597.5 1.67096 1.31121 0
M  V30 17448 H 1599.76 0.705573 0.633144 0
M  V30 17449 H 1599.47 2.18524 2.75572 0
M  V30 17450 H 1599.34 0.714037 3.7038 0
M  V30 17451 H 1601.73 0.0691901 2.95019 0
M  V30 17452 H 1601.81 1.57128 2.01853 0
M  V30 17453 H 1601.46 2.89896 4.1704 0
M  V30 17454 H 1601.39 1.37133 5.08431 0
M  V30 17455 H 1603.88 1.36812 3.52265 0
M  V30 17456 H 1604.19 3.37149 6.95378 0
M  V30 17457 H 1602.53 3.02582 6.25675 0
M  V30 17458 H 1605.73 1.77294 4.33226 0
M  V30 17459 H 1605.9 2.68629 5.89697 0
M  V30 17460 N 1599.3 -1.51086 0.448402 0
M  V30 17461 C 1600.25 -2.28015 -0.357438 0
M  V30 17462 C 1601.22 -1.32079 -1.00719 0
M  V30 17463 O 1602.41 -1.60995 -1.02398 0
M  V30 17464 C 1599.55 -3.13324 -1.44644 0
M  V30 17465 C 1598.66 -4.24267 -0.813729 0
M  V30 17466 C 1597.79 -4.96868 -1.87871 0
M  V30 17467 C 1596.83 -5.99716 -1.22502 0
M  V30 17468 N 1595.97 -6.65682 -2.23185 0
M  V30 17469 H 1600.81 -2.96436 0.30493 0
M  V30 17470 H 1598.35 -1.46203 0.162222 0
M  V30 17471 H 1600.31 -3.61119 -2.08924 0
M  V30 17472 H 1598.94 -2.46996 -2.07829 0
M  V30 17473 H 1597.99 -3.80354 -0.0589414 0
M  V30 17474 H 1599.3 -4.97917 -0.296587 0
M  V30 17475 H 1598.45 -5.48266 -2.59786 0
M  V30 17476 H 1597.19 -4.22873 -2.42961 0
M  V30 17477 H 1596.2 -5.476 -0.491388 0
M  V30 17478 H 1597.42 -6.75674 -0.681315 0
M  V30 17479 H 1595.37 -5.94493 -2.77334 0
M  V30 17480 H 1595.29 -7.35134 -1.76393 0
M  V30 17481 H 1596.55 -7.21707 -2.9455 0
M  V30 17482 N 1600.78 -0.180154 -1.56567 0
M  V30 17483 C 1601.69 0.758959 -2.21984 0
M  V30 17484 C 1602.71 1.24631 -1.21422 0
M  V30 17485 O 1603.88 1.29659 -1.54112 0
M  V30 17486 C 1600.95 1.96744 -2.85469 0
M  V30 17487 C 1600.01 1.52612 -4.01258 0
M  V30 17488 C 1599.24 2.677 -4.61706 0
M  V30 17489 O 1599.47 3.84799 -4.21054 0
M  V30 17490 O 1598.4 2.41269 -5.51428 0
M  V30 17491 H 1602.23 0.231919 -3.02813 0
M  V30 17492 H 1599.81 0.0484552 -1.49321 0
M  V30 17493 H 1601.69 2.67404 -3.25689 0
M  V30 17494 H 1600.37 2.48337 -2.0763 0
M  V30 17495 H 1599.28 0.78877 -3.6569 0
M  V30 17496 H 1600.61 1.05701 -4.80716 0
M  V30 17497 N 1602.26 1.57322 0.0935319 0
M  V30 17498 C 1603.49 1.90754 0.814111 0
M  V30 17499 C 1603.91 0.774571 1.71412 0
M  V30 17500 O 1603.27 -0.273775 1.79221 0
M  V30 17501 C 1603.32 3.23055 1.60211 0
M  V30 17502 O 1602.42 3.10755 2.71118 0
M  V30 17503 H 1601.76 0.625237 0.223552 0
M  V30 17504 H 1604.29 2.04486 0.068288 0
M  V30 17505 H 1604.3 3.56401 1.986 0
M  V30 17506 H 1602.98 4.05101 0.941607 0
M  V30 17507 H 1601.55 2.88926 2.35745 0
M  V30 17508 N 1603.74 -0.364395 1.53329 0
M  V30 17509 C 1604.7 -1.42927 1.79178 0
M  V30 17510 C 1605.7 -1.4653 0.662235 0
M  V30 17511 O 1606.89 -1.4727 0.930442 0
M  V30 17512 C 1604.02 -2.82035 1.91492 0
M  V30 17513 H 1605.22 -1.21281 2.74283 0
M  V30 17514 H 1602.77 -0.597596 1.44425 0
M  V30 17515 H 1603.5 -3.08993 0.984579 0
M  V30 17516 H 1603.29 -2.80818 2.73649 0
M  V30 17517 H 1604.78 -3.59148 2.13078 0
M  V30 17518 N 1605.22 -1.44709 -0.62426 0
M  V30 17519 C 1606.47 -1.47131 -1.37968 0
M  V30 17520 C 1606.78 -0.110507 -1.95288 0
M  V30 17521 O 1607.98 -0.0122892 -2.71497 0
M  V30 17522 C 1606.44 -2.59059 -2.49833 0
M  V30 17523 C 1606.05 -4.01378 -1.98997 0
M  V30 17524 C 1607.79 -2.70709 -3.26981 0
M  V30 17525 C 1605.7 -5.04717 -3.08244 0
M  V30 17526 H 1604.63 -0.547424 -0.5185 0
M  V30 17527 H 1607.28 -1.70797 -0.670863 0
M  V30 17528 H 1605.66 -2.28646 -3.23322 0
M  V30 17529 H 1606.84 -4.41391 -1.32327 0
M  V30 17530 H 1605.15 -3.9403 -1.34644 0
M  V30 17531 H 1607.75 -3.45087 -4.08435 0
M  V30 17532 H 1608.09 -1.76763 -3.76909 0
M  V30 17533 H 1608.62 -3.00566 -2.60585 0
M  V30 17534 H 1605.36 -6.00315 -2.63253 0
M  V30 17535 H 1604.88 -4.6929 -3.73534 0
M  V30 17536 H 1606.56 -5.28725 -3.72906 0
M  V30 17537 N 1606.69 0.865285 -1.31722 0
M  V30 17538 C 1607.94 1.6135 -1.21033 0
M  V30 17539 C 1608.26 1.94253 0.229141 0
M  V30 17540 O 1609.46 2.67613 0.457771 0
M  V30 17541 C 1607.92 2.90898 -2.11912 0
M  V30 17542 C 1607.53 2.6546 -3.60881 0
M  V30 17543 C 1609.27 3.68898 -2.10035 0
M  V30 17544 C 1607.18 3.90943 -4.43754 0
M  V30 17545 H 1606.11 0.605418 -0.449428 0
M  V30 17546 H 1608.76 0.956335 -1.56609 0
M  V30 17547 H 1607.14 3.58014 -1.69239 0
M  V30 17548 H 1608.31 2.06721 -4.11829 0
M  V30 17549 H 1606.63 2.00806 -3.64782 0
M  V30 17550 H 1609.23 4.61995 -2.69193 0
M  V30 17551 H 1609.57 4.01813 -1.08865 0
M  V30 17552 H 1610.1 3.08671 -2.50932 0
M  V30 17553 H 1606.84 3.63176 -5.45696 0
M  V30 17554 H 1606.36 4.49116 -3.97561 0
M  V30 17555 H 1608.04 4.58784 -4.56208 0
M  V30 17556 N 1608.17 1.14759 1.0802 0
M  V30 17557 C 1609.42 0.912823 1.79862 0
M  V30 17558 C 1609.73 -0.561873 1.87356 0
M  V30 17559 O 1610.94 -0.914015 2.55652 0
M  V30 17560 C 1609.4 1.58369 3.23183 0
M  V30 17561 C 1609 3.09493 3.23911 0
M  V30 17562 C 1610.75 1.43021 3.99682 0
M  V30 17563 C 1608.66 3.69398 4.61843 0
M  V30 17564 H 1607.59 0.337868 0.674063 0
M  V30 17565 H 1610.24 1.37695 1.21294 0
M  V30 17566 H 1608.62 1.04724 3.81902 0
M  V30 17567 H 1609.79 3.69838 2.74876 0
M  V30 17568 H 1608.11 3.24524 2.60908 0
M  V30 17569 H 1610.7 1.85174 5.01612 0
M  V30 17570 H 1611.05 0.376814 4.14591 0
M  V30 17571 H 1611.58 1.93724 3.47442 0
M  V30 17572 H 1608.32 4.74607 4.52138 0
M  V30 17573 H 1607.84 3.13835 5.11144 0
M  V30 17574 H 1609.52 3.69923 5.30816 0
M  V30 17575 N 1609.65 -1.26251 0.943322 0
M  V30 17576 C 1610.58 -2.25468 0.411904 0
M  V30 17577 C 1611.6 -1.55988 -0.466005 0
M  V30 17578 O 1612.78 -1.76352 -0.276106 0
M  V30 17579 C 1609.88 -3.362 -0.426909 0
M  V30 17580 C 1609.06 -4.35228 0.435346 0
M  V30 17581 C 1608.12 -5.25078 -0.343388 0
M  V30 17582 O 1607.14 -5.68632 0.254322 0
M  V30 17583 N 1608.34 -5.5687 -1.63939 0
M  V30 17584 H 1611.11 -2.71701 1.26486 0
M  V30 17585 H 1608.67 -1.40039 0.812438 0
M  V30 17586 H 1610.66 -3.93263 -0.955316 0
M  V30 17587 H 1609.23 -2.89446 -1.18067 0
M  V30 17588 H 1608.45 -3.77206 1.14495 0
M  V30 17589 H 1609.74 -4.98384 1.02427 0
M  V30 17590 H 1609.14 -5.2337 -2.14709 0
M  V30 17591 H 1607.7 -6.16566 -2.11399 0
M  V30 17592 N 1611.13 -0.710588 -1.40671 0
M  V30 17593 C 1612.35 -0.256007 -2.05814 0
M  V30 17594 C 1612.78 1.09178 -1.53173 0
M  V30 17595 O 1612.14 1.68665 -0.664977 0
M  V30 17596 C 1612.19 -0.240528 -3.59797 0
M  V30 17597 O 1611.29 0.779859 -4.04959 0
M  V30 17598 H 1610.63 -0.121326 -0.652822 0
M  V30 17599 H 1613.16 -0.969667 -1.80163 0
M  V30 17600 H 1613.17 -0.0765027 -4.07928 0
M  V30 17601 H 1611.85 -1.22411 -3.97478 0
M  V30 17602 H 1610.42 0.583965 -3.68299 0
M  V30 17603 N 1612.61 1.50847 -0.456408 0
M  V30 17604 C 1613.57 2.26755 0.33388 0
M  V30 17605 C 1614.57 1.30947 0.933247 0
M  V30 17606 O 1615.76 1.54499 0.804716 0
M  V30 17607 C 1612.89 3.07378 1.47417 0
M  V30 17608 H 1614.09 2.98061 -0.331634 0
M  V30 17609 H 1611.64 1.54882 -0.210067 0
M  V30 17610 H 1612.37 2.40534 2.17518 0
M  V30 17611 H 1612.16 3.7777 1.05036 0
M  V30 17612 H 1613.65 3.64826 2.03204 0
M  V30 17613 N 1614.09 0.188454 1.56469 0
M  V30 17614 C 1615.05 -0.721282 2.17555 0
M  V30 17615 C 1616.05 -1.14579 1.1282 0
M  V30 17616 O 1617.24 -1.05996 1.38241 0
M  V30 17617 C 1614.37 -1.9839 2.77226 0
M  V30 17618 H 1615.56 -0.189218 2.99302 0
M  V30 17619 H 1613.12 -0.0611533 1.5618 0
M  V30 17620 H 1613.85 -2.55864 1.99259 0
M  V30 17621 H 1613.64 -1.68831 3.53891 0
M  V30 17622 H 1615.13 -2.63277 3.24153 0
M  V30 17623 N 1615.56 -1.5737 -0.0851874 0
M  V30 17624 C 1616.98 -1.53425 -0.439651 0
M  V30 17625 C 1617.18 -0.906663 -1.7995 0
M  V30 17626 O 1616.24 -0.503414 -2.47431 0
M  V30 17627 C 1617.55 -2.9812 -0.393028 0
M  V30 17628 C 1619.1 -3.09387 -0.474175 0
M  V30 17629 C 1619.57 -4.55708 -0.457598 0
M  V30 17630 N 1621.06 -4.60294 -0.518065 0
M  V30 17631 C 1621.8 -5.70971 -0.527237 0
M  V30 17632 N 1621.29 -6.91051 -0.492023 0
M  V30 17633 N 1623.09 -5.59174 -0.572792 0
M  V30 17634 H 1615.24 -1.96538 0.805399 0
M  V30 17635 H 1617.5 -0.899 0.300836 0
M  V30 17636 H 1617.21 -3.47542 0.539204 0
M  V30 17637 H 1617.08 -3.57324 -1.20829 0
M  V30 17638 H 1619.47 -2.59948 -1.39683 0
M  V30 17639 H 1619.55 -2.53119 0.369411 0
M  V30 17640 H 1619.19 -5.05802 0.46115 0
M  V30 17641 H 1619.12 -5.09826 -1.31853 0
M  V30 17642 H 1621.61 -3.73875 -0.550072 0
M  V30 17643 H 1621.93 -7.71164 -0.502578 0
M  V30 17644 H 1620.27 -6.93483 -0.458917 0
M  V30 17645 H 1623.46 -4.64266 -0.597901 0
M  V30 17646 H 1623.64 -6.45431 -0.576471 0
M  V30 17647 N 1617.04 0.356258 -1.53521 0
M  V30 17648 C 1618.29 1.09573 -1.69818 0
M  V30 17649 C 1618.61 1.89559 -0.457406 0
M  V30 17650 O 1617.88 1.88633 0.528616 0
M  V30 17651 H 1616.46 0.407512 -0.626054 0
M  V30 17652 H 1619.12 0.400612 -1.90738 0
M  V30 17653 H 1618.22 1.7803 -2.56343 0
M  V30 17654 N 1618.52 1.45038 0.616577 0
M  V30 17655 C 1619.47 1.49451 1.72187 0
M  V30 17656 C 1620.45 0.358711 1.5685 0
M  V30 17657 O 1621.65 0.604983 1.6634 0
M  V30 17658 C 1618.77 1.45551 3.10918 0
M  V30 17659 C 1617.86 2.643 3.31672 0
M  V30 17660 N 1618.25 3.89462 3.22727 0
M  V30 17661 C 1616.55 2.59805 3.62515 0
M  V30 17662 C 1617.25 4.68667 3.44567 0
M  V30 17663 N 1616.23 3.99974 3.68132 0
M  V30 17664 H 1620.03 2.44055 1.6375 0
M  V30 17665 H 1617.54 1.40205 0.819538 0
M  V30 17666 H 1619.54 1.46797 3.902 0
M  V30 17667 H 1618.2 0.519966 3.2051 0
M  V30 17668 H 1619.21 4.21217 3.01325 0
M  V30 17669 H 1615.89 1.75117 3.78999 0
M  V30 17670 H 1617.28 5.77683 3.43121 0
M  V30 17671 N 1620 -0.858287 1.32179 0
M  V30 17672 C 1620.93 -1.98219 1.23415 0
M  V30 17673 C 1621.91 -1.69685 0.118779 0
M  V30 17674 O 1623.09 -1.91785 0.305342 0
M  V30 17675 C 1620.22 -3.33977 0.952725 0
M  V30 17676 C 1619.18 -3.76853 2.02894 0
M  V30 17677 C 1618.5 -5.10201 1.59999 0
M  V30 17678 C 1619.8 -3.92707 3.44352 0
M  V30 17679 H 1621.5 -2.05809 2.17446 0
M  V30 17680 H 1619.04 -0.988817 1.04682 0
M  V30 17681 H 1621 -4.12152 0.87798 0
M  V30 17682 H 1619.72 -3.26592 -0.023234 0
M  V30 17683 H 1618.38 -3.00926 2.09378 0
M  V30 17684 H 1618.03 -4.99268 0.61157 0
M  V30 17685 H 1617.73 -5.39859 2.32004 0
M  V30 17686 H 1619.25 -5.90873 1.53954 0
M  V30 17687 H 1620.67 -4.61246 3.40477 0
M  V30 17688 H 1619.06 -4.33779 4.14675 0
M  V30 17689 H 1620.13 -2.95731 3.8428 0
M  V30 17690 N 1621.48 -1.1533 -1.07409 0
M  V30 17691 C 1622.72 -0.929181 -1.80261 0
M  V30 17692 C 1623.05 0.542387 -1.86472 0
M  V30 17693 O 1622.33 1.40209 -1.34802 0
M  V30 17694 C 1622.61 -1.54339 -3.25348 0
M  V30 17695 C 1622.47 -3.08551 -3.27286 0
M  V30 17696 C 1623.78 -1.22868 -4.22601 0
M  V30 17697 H 1620.9 -0.338985 -0.654414 0
M  V30 17698 H 1623.55 -1.42485 -1.2569 0
M  V30 17699 H 1621.7 -1.12187 -3.71949 0
M  V30 17700 H 1623.37 -3.59605 -2.88932 0
M  V30 17701 H 1621.61 -3.42471 -2.66263 0
M  V30 17702 H 1622.28 -3.4664 -4.29587 0
M  V30 17703 H 1624.76 -1.59328 -3.84388 0
M  V30 17704 H 1623.63 -1.68462 -5.2241 0
M  V30 17705 H 1623.89 -0.145612 -4.4186 0
M  V30 17706 N 1622.95 1.25748 -0.950004 0
M  V30 17707 C 1624.37 1.45599 -0.653697 0
M  V30 17708 C 1624.57 1.85357 0.790245 0
M  V30 17709 O 1623.63 1.98071 1.56601 0
M  V30 17710 C 1624.94 2.5316 -1.62267 0
M  V30 17711 C 1626.49 2.67004 -1.63334 0
M  V30 17712 C 1626.96 3.77745 -2.58984 0
M  V30 17713 N 1628.45 3.8515 -2.57321 0
M  V30 17714 C 1629.19 4.70315 -3.28011 0
M  V30 17715 N 1628.68 5.59802 -4.08159 0
M  V30 17716 N 1630.48 4.64239 -3.16921 0
M  V30 17717 H 1622.63 0.982321 -1.88319 0
M  V30 17718 H 1624.89 0.492917 -0.809776 0
M  V30 17719 H 1624.6 2.30792 -2.65382 0
M  V30 17720 H 1624.47 3.50988 -1.38158 0
M  V30 17721 H 1626.86 2.88739 -0.609388 0
M  V30 17722 H 1626.94 1.69591 -1.915 0
M  V30 17723 H 1626.58 3.56761 -3.61502 0
M  V30 17724 H 1626.51 4.74633 -2.28103 0
M  V30 17725 H 1629 3.21178 -1.99131 0
M  V30 17726 H 1629.32 6.21701 -4.59029 0
M  V30 17727 H 1627.66 5.59525 -4.12258 0
M  V30 17728 H 1630.85 3.93335 -2.53782 0
M  V30 17729 H 1631.03 5.30389 -3.72279 0
M  V30 17730 N 1624.43 0.718038 1.40292 0
M  V30 17731 C 1625.38 0.0670495 2.30703 0
M  V30 17732 C 1626.35 -0.747716 1.48319 0
M  V30 17733 O 1627.53 -0.711161 1.77051 0
M  V30 17734 C 1624.67 -0.846918 3.34546 0
M  V30 17735 C 1623.79 -0.0213622 4.31995 0
M  V30 17736 C 1622.92 -0.935035 5.22906 0
M  V30 17737 C 1621.96 -0.103715 6.12012 0
M  V30 17738 N 1621.1 -0.972397 6.95334 0
M  V30 17739 H 1625.94 0.843724 2.85806 0
M  V30 17740 H 1623.47 0.427756 1.40743 0
M  V30 17741 H 1625.43 -1.39109 3.93325 0
M  V30 17742 H 1624.06 -1.58975 2.80939 0
M  V30 17743 H 1623.11 0.640026 3.74977 0
M  V30 17744 H 1624.43 0.62215 4.94905 0
M  V30 17745 H 1623.58 -1.54766 5.86628 0
M  V30 17746 H 1622.32 -1.61236 4.60276 0
M  V30 17747 H 1621.32 0.521826 5.47318 0
M  V30 17748 H 1622.55 0.570146 6.76702 0
M  V30 17749 H 1620.5 -1.63533 6.3529 0
M  V30 17750 H 1620.41 -0.384977 7.55019 0
M  V30 17751 H 1621.68 -1.57112 7.63503 0
M  V30 17752 N 1625.91 -1.50602 0.464402 0
M  V30 17753 C 1626.84 -2.26203 -0.36943 0
M  V30 17754 C 1627.86 -1.31269 -0.962924 0
M  V30 17755 O 1629.04 -1.56829 -0.852465 0
M  V30 17756 C 1626.14 -3.02323 -1.53147 0
M  V30 17757 C 1625.32 -4.24561 -1.05198 0
M  V30 17758 C 1624.38 -4.83031 -2.08729 0
M  V30 17759 O 1623.4 -5.44131 -1.67062 0
M  V30 17760 N 1624.6 -4.6944 -3.41477 0
M  V30 17761 H 1627.37 -2.98402 0.278652 0
M  V30 17762 H 1624.93 -1.59193 0.294803 0
M  V30 17763 H 1626.92 -3.38319 -2.22086 0
M  V30 17764 H 1625.49 -2.32965 -2.08438 0
M  V30 17765 H 1624.71 -3.93748 -0.188705 0
M  V30 17766 H 1626 -5.0383 -0.709434 0
M  V30 17767 H 1625.4 -4.20832 -3.78044 0
M  V30 17768 H 1623.96 -5.09724 -4.06233 0
M  V30 17769 N 1627.39 -0.19675 -1.56367 0
M  V30 17770 C 1628.8 0.159068 -1.58805 0
M  V30 17771 C 1629 1.60902 -1.21297 0
M  V30 17772 O 1628.06 2.34491 -0.93649 0
M  V30 17773 C 1629.37 -0.144784 -3.00351 0
M  V30 17774 C 1630.92 -0.0850243 -3.12884 0
M  V30 17775 C 1631.4 -0.362209 -4.56565 0
M  V30 17776 N 1632.89 -0.310887 -4.62156 0
M  V30 17777 C 1633.62 -0.499187 -5.71223 0
M  V30 17778 N 1633.12 -0.747925 -6.88751 0
M  V30 17779 N 1634.91 -0.433329 -5.60427 0
M  V30 17780 H 1627.06 -1.1429 -1.79029 0
M  V30 17781 H 1629.33 -0.456298 -0.830961 0
M  V30 17782 H 1629.03 -1.15019 -3.3236 0
M  V30 17783 H 1628.91 0.551864 -3.73141 0
M  V30 17784 H 1631.29 0.910992 -2.80687 0
M  V30 17785 H 1631.37 -0.814774 -2.42477 0
M  V30 17786 H 1631.02 -1.35555 -4.89477 0
M  V30 17787 H 1630.95 0.388448 -5.25165 0
M  V30 17788 H 1633.44 -0.125318 -3.77692 0
M  V30 17789 H 1633.75 -0.880372 -7.67769 0
M  V30 17790 H 1632.1 -0.784838 -6.90554 0
M  V30 17791 H 1635.29 -0.239411 -4.67487 0
M  V30 17792 H 1635.46 -0.583495 -6.45368 0
M  V30 17793 N 1628.87 1.57413 0.0768405 0
M  V30 17794 C 1629.81 2.0334 1.09185 0
M  V30 17795 C 1630.78 0.913073 1.38752 0
M  V30 17796 O 1631.97 1.18038 1.49906 0
M  V30 17797 C 1629.11 2.47805 2.40181 0
M  V30 17798 C 1628.22 3.73435 2.17188 0
M  V30 17799 C 1627.36 4.06703 3.41711 0
M  V30 17800 C 1626.4 5.25388 3.1406 0
M  V30 17801 N 1625.53 5.54319 4.309 0
M  V30 17802 H 1630.37 2.89825 0.693223 0
M  V30 17803 H 1627.91 1.43334 0.330736 0
M  V30 17804 H 1629.87 2.71635 3.16655 0
M  V30 17805 H 1628.5 1.64305 2.77856 0
M  V30 17806 H 1627.55 3.56974 1.3143 0
M  V30 17807 H 1628.86 4.60049 1.9276 0
M  V30 17808 H 1628.02 4.31407 4.26583 0
M  V30 17809 H 1626.75 3.18646 3.6921 0
M  V30 17810 H 1625.76 5.00486 2.27583 0
M  V30 17811 H 1626.98 6.15059 2.87888 0
M  V30 17812 H 1624.93 4.69222 4.5844 0
M  V30 17813 H 1624.85 6.35342 4.09727 0
M  V30 17814 H 1626.12 5.83571 5.16783 0
M  V30 17815 N 1630.34 -0.348112 1.53707 0
M  V30 17816 C 1631.25 -1.45079 1.84361 0
M  V30 17817 C 1632.27 -1.5779 0.733375 0
M  V30 17818 O 1633.45 -1.73353 1.02522 0
M  V30 17819 C 1630.51 -2.80127 2.04278 0
M  V30 17820 C 1629.57 -2.76799 3.28148 0
M  V30 17821 C 1628.81 -4.05406 3.47105 0
M  V30 17822 O 1629.03 -5.02454 2.69992 0
M  V30 17823 O 1627.96 -4.10155 4.40519 0
M  V30 17824 H 1631.79 -1.22093 2.78077 0
M  V30 17825 H 1629.37 -0.539863 1.39305 0
M  V30 17826 H 1631.26 -3.60115 2.18849 0
M  V30 17827 H 1629.93 -3.03055 1.13751 0
M  V30 17828 H 1628.84 -1.95448 3.18984 0
M  V30 17829 H 1630.17 -2.58826 4.18653 0
M  V30 17830 N 1631.82 -1.45363 -0.608876 0
M  V30 17831 C 1633.07 -1.48586 -1.364 0
M  V30 17832 C 1633.38 -0.131213 -1.95159 0
M  V30 17833 O 1634.59 -0.0410845 -2.71469 0
M  V30 17834 C 1633.05 -2.61694 -2.47071 0
M  V30 17835 C 1632.65 -4.03466 -1.94729 0
M  V30 17836 C 1634.4 -2.74162 -3.24091 0
M  V30 17837 C 1632.31 -5.07958 -3.02874 0
M  V30 17838 H 1631.24 -0.552893 -0.512665 0
M  V30 17839 H 1633.89 -1.71499 -0.65271 0
M  V30 17840 H 1632.27 -2.32062 -3.20879 0
M  V30 17841 H 1633.44 -4.4277 -1.27638 0
M  V30 17842 H 1631.76 -3.95436 -1.30457 0
M  V30 17843 H 1634.35 -3.494 -4.04752 0
M  V30 17844 H 1634.7 -1.80751 -3.75013 0
M  V30 17845 H 1635.23 -3.03313 -2.57383 0
M  V30 17846 H 1631.97 -6.03073 -2.56871 0
M  V30 17847 H 1631.49 -4.73225 -3.68535 0
M  V30 17848 H 1633.17 -5.3265 -3.67277 0
M  V30 17849 N 1633.3 0.851265 -1.32632 0
M  V30 17850 C 1634.55 1.60807 -1.23568 0
M  V30 17851 C 1634.88 1.93155 0.201238 0
M  V30 17852 O 1634.15 1.5764 1.13929 0
M  V30 17853 C 1634.44 2.92619 -2.09872 0
M  V30 17854 C 1634.29 2.67031 -3.61959 0
M  V30 17855 C 1635.61 3.93924 -1.96244 0
M  V30 17856 H 1632.73 0.583492 -0.450229 0
M  V30 17857 H 1635.37 0.98273 -1.62611 0
M  V30 17858 H 1633.52 3.45988 -1.76704 0
M  V30 17859 H 1635.19 2.2019 -4.05357 0
M  V30 17860 H 1633.44 2.00938 -3.84456 0
M  V30 17861 H 1634.11 3.60902 -4.17676 0
M  V30 17862 H 1636.58 3.49823 -2.25307 0
M  V30 17863 H 1635.46 4.84005 -2.58902 0
M  V30 17864 H 1635.72 4.32185 -0.931065 0
M  V30 17865 N 1634.78 1.15898 1.06796 0
M  V30 17866 C 1636.06 0.847701 1.76276 0
M  V30 17867 C 1636.44 -0.655537 2.00664 0
M  V30 17868 O 1635.78 -1.60171 1.62964 0
M  V30 17869 C 1635.99 1.66475 3.06736 0
M  V30 17870 C 1637.34 1.87452 3.80982 0
M  V30 17871 O 1638.37 1.63298 3.16563 0
M  V30 17872 O 1637.22 2.27942 4.96694 0
M  V30 17873 H 1634.32 0.312308 0.765763 0
M  V30 17874 H 1636.86 1.26507 1.13111 0
M  V30 17875 H 1635.64 2.68508 2.84638 0
M  V30 17876 H 1635.26 1.24409 3.77635 0
M  V30 17877 N 1636.26 -1.25243 0.956659 0
M  V30 17878 C 1637.19 -2.24251 0.422686 0
M  V30 17879 C 1638.17 -1.54815 -0.497106 0
M  V30 17880 O 1639.35 -1.83506 -0.431019 0
M  V30 17881 C 1636.48 -3.36436 -0.390996 0
M  V30 17882 C 1635.52 -4.23908 0.469484 0
M  V30 17883 S 1636.36 -5.00547 1.90297 0
M  V30 17884 C 1637.51 -6.16198 1.09777 0
M  V30 17885 H 1637.75 -2.69197 1.26175 0
M  V30 17886 H 1635.28 -1.3435 0.76088 0
M  V30 17887 H 1637.24 -4.01508 -0.854516 0
M  V30 17888 H 1635.9 -2.9007 -1.20491 0
M  V30 17889 H 1635.09 -5.03763 -0.154694 0
M  V30 17890 H 1634.69 -3.63781 0.868294 0
M  V30 17891 H 1636.99 -6.76609 0.347418 0
M  V30 17892 H 1637.93 -6.82953 1.87031 0
M  V30 17893 H 1638.34 -5.61007 0.627003 0
M  V30 17894 N 1637.73 -0.725468 -1.3991 0
M  V30 17895 C 1638.68 -0.0792833 -2.30664 0
M  V30 17896 C 1639.65 0.73984 -1.48713 0
M  V30 17897 O 1640.84 0.701762 -1.77426 0
M  V30 17898 C 1637.98 0.829164 -3.34991 0
M  V30 17899 C 1637.09 -0.00154779 -4.32 0
M  V30 17900 C 1636.22 0.907291 -5.23394 0
M  V30 17901 C 1635.26 0.0712573 -6.12059 0
M  V30 17902 N 1634.4 0.935508 -6.9584 0
M  V30 17903 H 1639.24 -0.858869 -2.85355 0
M  V30 17904 H 1636.78 -0.435214 -1.40514 0
M  V30 17905 H 1638.74 1.37021 -3.94057 0
M  V30 17906 H 1637.37 1.57483 -2.81778 0
M  V30 17907 H 1636.42 -0.659903 -3.74632 0
M  V30 17908 H 1637.73 -0.648387 -4.94568 0
M  V30 17909 H 1636.88 1.51652 -5.87441 0
M  V30 17910 H 1635.62 1.58793 -4.61125 0
M  V30 17911 H 1634.63 -0.550844 -5.47034 0
M  V30 17912 H 1635.85 -0.606025 -6.76391 0
M  V30 17913 H 1633.8 1.60162 -6.36148 0
M  V30 17914 H 1633.72 0.344932 -7.55213 0
M  V30 17915 H 1634.98 1.53061 -7.64325 0
M  V30 17916 N 1639.21 1.50354 -0.472382 0
M  V30 17917 C 1640.16 2.30173 0.335135 0
M  V30 17918 C 1641.15 1.37517 0.98921 0
M  V30 17919 O 1642.36 1.54703 0.920168 0
M  V30 17920 H 1638.74 0.741212 0.126918 0
M  V30 17921 H 1640.71 2.96239 -0.358449 0
M  V30 17922 C 1639.46 3.18104 1.40375 0
M  V30 17923 H 1638.78 3.8931 0.90984 0
M  V30 17924 H 1640.22 3.76947 1.94132 0
M  V30 17925 C 1638.68 2.35785 2.40639 0
M  V30 17926 O 1639.21 2.04185 3.45936 0
M  V30 17927 N 1637.41 1.98342 2.12389 0
M  V30 17928 H 1636.96 2.2424 1.26784 0
M  V30 17929 H 1636.92 1.43567 2.79707 0
M  V30 17930 N 1640.69 0.205039 1.56261 0
M  V30 17931 C 1641.92 -0.43642 2.02245 0
M  V30 17932 C 1642.33 -1.54504 1.08508 0
M  V30 17933 O 1641.69 -1.82269 0.0916991 0
M  V30 17934 C 1641.74 -0.983483 3.47865 0
M  V30 17935 O 1641.46 0.0809166 4.38025 0
M  V30 17936 C 1642.96 -1.69983 4.09415 0
M  V30 17937 H 1640.18 -0.108577 0.662157 0
M  V30 17938 H 1642.73 0.316659 2.02033 0
M  V30 17939 H 1640.88 -1.6869 3.48744 0
M  V30 17940 H 1641.3 -0.327751 5.23475 0
M  V30 17941 H 1642.77 -2.03481 5.13127 0
M  V30 17942 H 1643.25 -2.60711 3.5345 0
M  V30 17943 H 1643.85 -1.04202 4.12337 0
M  V30 17944 N 1642.17 -1.57451 -0.0684915 0
M  V30 17945 C 1643.13 -2.0293 -1.06545 0
M  V30 17946 C 1644.13 -0.926861 -1.314 0
M  V30 17947 O 1645.32 -1.19164 -1.27065 0
M  V30 17948 C 1642.45 -2.41276 -2.4083 0
M  V30 17949 H 1643.65 -2.92242 -0.673401 0
M  V30 17950 H 1641.2 -1.53107 -0.314307 0
M  V30 17951 H 1641.94 -1.55 -2.8486 0
M  V30 17952 H 1641.72 -3.21727 -2.2413 0
M  V30 17953 H 1643.21 -2.77026 -3.12484 0
M  V30 17954 N 1643.65 0.339955 -1.5389 0
M  V30 17955 C 1644.89 1.08139 -1.71563 0
M  V30 17956 C 1645.23 1.88193 -0.479292 0
M  V30 17957 O 1644.5 1.87317 0.523702 0
M  V30 17958 C 1644.78 2.01963 -2.98132 0
M  V30 17959 C 1644.64 1.25349 -4.31981 0
M  V30 17960 C 1645.96 3.01729 -3.20387 0
M  V30 17961 H 1643.08 0.391744 -0.624264 0
M  V30 17962 H 1645.72 0.359609 -1.86566 0
M  V30 17963 H 1643.87 2.63511 -2.85472 0
M  V30 17964 H 1645.54 0.66388 -4.56498 0
M  V30 17965 H 1643.78 0.555541 -4.30228 0
M  V30 17966 H 1644.45 1.94154 -5.16728 0
M  V30 17967 H 1646.93 2.50297 -3.32401 0
M  V30 17968 H 1645.81 3.64577 -4.10335 0
M  V30 17969 H 1646.07 3.73303 -2.36849 0
M  V30 17970 N 1645.13 1.45684 0.601159 0
M  V30 17971 C 1646.35 1.53574 1.38646 0
M  V30 17972 C 1646.77 0.170511 1.88028 0
M  V30 17973 O 1646.13 -0.829061 1.62582 0
M  V30 17974 C 1646.18 2.52543 2.58658 0
M  V30 17975 O 1645.9 3.83761 2.11327 0
M  V30 17976 C 1647.4 2.70194 3.5144 0
M  V30 17977 H 1644.62 0.519907 0.424191 0
M  V30 17978 H 1647.16 1.90929 0.732559 0
M  V30 17979 H 1645.32 2.18242 3.20077 0
M  V30 17980 H 1645.73 4.37467 2.89349 0
M  V30 17981 H 1647.21 3.43405 4.32177 0
M  V30 17982 H 1647.68 1.76452 4.02196 0
M  V30 17983 H 1648.29 3.05517 2.95871 0
M  V30 17984 N 1646.6 -0.84422 1.33082 0
M  V30 17985 C 1647.83 -1.63133 1.27261 0
M  V30 17986 C 1648.25 -1.88142 -0.157479 0
M  V30 17987 O 1647.6 -1.4578 -1.09793 0
M  V30 17988 C 1647.65 -2.98462 2.03967 0
M  V30 17989 O 1647.38 -2.74555 3.41396 0
M  V30 17990 C 1648.88 -3.92899 2.05293 0
M  V30 17991 H 1646.1 -0.507769 0.438647 0
M  V30 17992 H 1648.64 -1.05194 1.75369 0
M  V30 17993 H 1646.8 -3.53017 1.59554 0
M  V30 17994 H 1647.21 -3.60694 3.80789 0
M  V30 17995 H 1648.68 -4.85088 2.63427 0
M  V30 17996 H 1649.16 -4.26665 1.04183 0
M  V30 17997 H 1649.77 -3.44281 2.49701 0
M  V30 17998 N 1648.08 -1.16463 -1.0618 0
M  V30 17999 C 1649.33 -0.941322 -1.78387 0
M  V30 18000 C 1649.64 0.531995 -1.88226 0
M  V30 18001 O 1650.85 0.873227 -2.57074 0
M  V30 18002 C 1649.31 -1.63491 -3.20623 0
M  V30 18003 C 1648.91 -3.14607 -3.18946 0
M  V30 18004 C 1650.66 -1.49361 -3.97356 0
M  V30 18005 C 1648.56 -3.76698 -4.55908 0
M  V30 18006 H 1647.49 -0.348549 -0.668603 0
M  V30 18007 H 1650.15 -1.39607 -1.19088 0
M  V30 18008 H 1648.53 -1.10787 -3.80187 0
M  V30 18009 H 1649.7 -3.74164 -2.68957 0
M  V30 18010 H 1648.02 -3.28634 -2.55712 0
M  V30 18011 H 1650.61 -1.93131 -4.98603 0
M  V30 18012 H 1650.96 -0.442724 -4.13939 0
M  V30 18013 H 1651.49 -1.99227 -3.44316 0
M  V30 18014 H 1648.23 -4.8174 -4.4453 0
M  V30 18015 H 1647.75 -3.21927 -5.06086 0
M  V30 18016 H 1649.43 -3.78321 -5.24864 0
M  V30 18017 N 1649.56 1.24734 -0.963288 0
M  V30 18018 C 1650.49 2.24785 -0.447722 0
M  V30 18019 C 1651.5 1.5671 0.44113 0
M  V30 18020 O 1652.69 1.76769 0.248015 0
M  V30 18021 C 1649.79 3.36837 0.373368 0
M  V30 18022 C 1648.97 4.3448 -0.504532 0
M  V30 18023 C 1648.03 5.25558 0.25981 0
M  V30 18024 O 1647.05 5.68155 -0.344754 0
M  V30 18025 N 1648.25 5.59408 1.55058 0
M  V30 18026 H 1651.02 2.69654 -1.30792 0
M  V30 18027 H 1648.58 1.38729 -0.834614 0
M  V30 18028 H 1650.57 3.94733 0.892631 0
M  V30 18029 H 1649.14 2.91288 1.13447 0
M  V30 18030 H 1648.36 3.75337 -1.20481 0
M  V30 18031 H 1649.65 4.96691 -1.10343 0
M  V30 18032 H 1649.05 5.2672 2.06355 0
M  V30 18033 H 1647.6 6.19851 2.01563 0
M  V30 18034 N 1651.04 0.732878 1.39523 0
M  V30 18035 C 1652.27 0.29007 2.04857 0
M  V30 18036 C 1652.68 -1.07435 1.55252 0
M  V30 18037 O 1652.04 -1.67847 0.716497 0
M  V30 18038 C 1652.09 0.280464 3.6041 0
M  V30 18039 O 1651.81 1.59102 4.08189 0
M  V30 18040 C 1653.31 -0.178772 4.42939 0
M  V30 18041 H 1650.53 0.12716 0.658841 0
M  V30 18042 H 1653.07 0.995933 1.7861 0
M  V30 18043 H 1651.23 -0.376494 3.85566 0
M  V30 18044 H 1651.64 1.50314 5.025 0
M  V30 18045 H 1653.12 -0.134335 5.51837 0
M  V30 18046 H 1653.59 -1.22362 4.21811 0
M  V30 18047 H 1654.2 0.448543 4.22928 0
M  V30 18048 N 1652.52 -1.50101 0.480349 0
M  V30 18049 C 1653.74 -2.07278 -0.0710872 0
M  V30 18050 C 1654.17 -1.34082 -1.31923 0
M  V30 18051 O 1653.52 -0.391251 -1.77028 0
M  V30 18052 C 1653.57 -3.59099 -0.328706 0
M  V30 18053 O 1652.68 -3.8764 -1.40745 0
M  V30 18054 H 1652.02 -0.66378 0.0170748 0
M  V30 18055 H 1654.55 -1.93178 0.674049 0
M  V30 18056 H 1654.56 -4.04049 -0.566435 0
M  V30 18057 H 1653.23 -4.11789 0.583316 0
M  V30 18058 H 1651.81 -3.54519 -1.15631 0
M  V30 18059 N 1653.99 -0.213323 -1.5615 0
M  V30 18060 C 1655.27 0.469174 -1.8989 0
M  V30 18061 C 1655.65 1.78341 -1.1295 0
M  V30 18062 O 1655 2.27276 -0.236236 0
M  V30 18063 C 1655.21 0.67017 -3.42505 0
M  V30 18064 C 1656.56 0.981324 -4.13104 0
M  V30 18065 O 1657.58 0.757249 -3.48058 0
M  V30 18066 O 1656.44 1.40614 -5.281 0
M  V30 18067 H 1653.53 0.246943 -0.789271 0
M  V30 18068 H 1656.08 -0.254896 -1.67775 0
M  V30 18069 H 1654.85 -0.257189 -3.90454 0
M  V30 18070 H 1654.47 1.44603 -3.70372 0
M  V30 18071 N 1655.47 1.57485 0.0601405 0
M  V30 18072 C 1656.4 2.01233 1.09717 0
M  V30 18073 C 1657.42 0.92008 1.34307 0
M  V30 18074 O 1658.61 1.19783 1.32342 0
M  V30 18075 C 1655.71 2.3461 2.44564 0
M  V30 18076 C 1654.88 3.65828 2.39768 0
M  V30 18077 C 1653.94 3.86743 3.56814 0
M  V30 18078 O 1652.96 4.5819 3.37714 0
M  V30 18079 N 1654.17 3.29988 4.77586 0
M  V30 18080 H 1656.93 2.9081 0.724526 0
M  V30 18081 H 1654.49 1.5998 0.248613 0
M  V30 18082 H 1656.48 2.45764 3.21531 0
M  V30 18083 H 1655.05 1.50862 2.73787 0
M  V30 18084 H 1654.27 3.65319 1.48107 0
M  V30 18085 H 1655.56 4.51966 2.33675 0
M  V30 18086 H 1654.96 2.72018 4.96007 0
M  V30 18087 H 1653.52 3.46573 5.52024 0
M  V30 18088 N 1656.95 -0.331789 1.54068 0
M  V30 18089 C 1657.86 -1.43116 1.8589 0
M  V30 18090 C 1658.88 -1.57003 0.75007 0
M  V30 18091 O 1660.05 -1.72256 1.04355 0
M  V30 18092 C 1657.12 -2.77945 2.07238 0
M  V30 18093 C 1656.18 -2.73303 3.31065 0
M  V30 18094 C 1655.41 -4.01702 3.51385 0
M  V30 18095 O 1655.63 -4.99562 2.75306 0
M  V30 18096 O 1654.57 -4.0546 4.44844 0
M  V30 18097 H 1658.39 -1.19137 2.79357 0
M  V30 18098 H 1655.98 -0.525057 1.3987 0
M  V30 18099 H 1657.86 -3.57774 2.22656 0
M  V30 18100 H 1656.54 -3.01831 1.16959 0
M  V30 18101 H 1655.44 -1.92054 3.21039 0
M  V30 18102 H 1656.78 -2.54371 4.21374 0
M  V30 18103 N 1658.43 -1.46001 -0.593424 0
M  V30 18104 C 1659.68 -1.50755 -1.352 0
M  V30 18105 C 1660 -0.154929 -1.93882 0
M  V30 18106 O 1659.26 0.848161 -1.76365 0
M  V30 18107 C 1659.56 -2.54568 -2.50858 0
M  V30 18108 C 1659.22 -3.98888 -2.10236 0
M  V30 18109 C 1657.89 -4.38182 -1.98872 0
M  V30 18110 C 1660.24 -4.89591 -1.78746 0
M  V30 18111 C 1657.57 -5.66057 -1.5426 0
M  V30 18112 C 1659.92 -6.17892 -1.35617 0
M  V30 18113 C 1658.58 -6.56103 -1.22822 0
M  V30 18114 H 1657.85 -0.551652 -0.494734 0
M  V30 18115 H 1660.5 -1.79422 -0.669327 0
M  V30 18116 H 1658.8 -2.19523 -3.24526 0
M  V30 18117 H 1660.5 -2.5548 -3.09081 0
M  V30 18118 H 1657.09 -3.67822 -2.20012 0
M  V30 18119 H 1661.27 -4.59959 -1.86416 0
M  V30 18120 H 1656.53 -5.94444 -1.42988 0
M  V30 18121 H 1660.7 -6.87609 -1.10301 0
M  V30 18122 H 1658.33 -7.55086 -0.880285 0
M  V30 18123 N 1659.91 0.83715 -1.33527 0
M  V30 18124 C 1661.18 1.57727 -1.15678 0
M  V30 18125 C 1661.56 2.09286 0.276178 0
M  V30 18126 O 1660.91 1.89589 1.27547 0
M  V30 18127 C 1661.12 2.70978 -2.19936 0
M  V30 18128 C 1662.47 3.40114 -2.5418 0
M  V30 18129 O 1663.49 2.81221 -2.18616 0
M  V30 18130 O 1662.35 4.46431 -3.15217 0
M  V30 18131 H 1659.45 0.69545 -0.447525 0
M  V30 18132 H 1661.99 0.879756 -1.45115 0
M  V30 18133 H 1660.76 2.30532 -3.16181 0
M  V30 18134 H 1660.39 3.48393 -1.91594 0
M  V30 18135 N 1661.38 1.17024 1.05561 0
M  V30 18136 C 1662.61 0.979328 1.81914 0
M  V30 18137 C 1663.02 -0.475688 1.83122 0
M  V30 18138 O 1662.37 -1.34205 1.25438 0
M  V30 18139 C 1662.43 1.4391 3.29439 0
M  V30 18140 C 1662.09 2.9155 3.5192 0
M  V30 18141 C 1663.09 3.89509 3.44353 0
M  V30 18142 C 1660.77 3.2964 3.79003 0
M  V30 18143 C 1662.77 5.23557 3.63548 0
M  V30 18144 C 1660.45 4.63855 3.97846 0
M  V30 18145 C 1661.45 5.60623 3.90117 0
M  V30 18146 O 1661.14 6.92411 4.08439 0
M  V30 18147 H 1660.87 0.34689 0.58021 0
M  V30 18148 H 1663.43 1.55641 1.34034 0
M  V30 18149 H 1661.66 0.805555 3.78216 0
M  V30 18150 H 1663.35 1.21445 3.87306 0
M  V30 18151 H 1664.11 3.61428 3.23412 0
M  V30 18152 H 1659.99 2.54891 3.84124 0
M  V30 18153 H 1663.53 5.99074 3.5743 0
M  V30 18154 H 1659.43 4.91644 4.18278 0
M  V30 18155 H 1660.2 6.99095 4.25685 0
M  V30 18156 N 1662.86 -1.24221 0.969889 0
M  V30 18157 C 1663.81 -2.25292 0.501215 0
M  V30 18158 C 1664.78 -1.59764 -0.454382 0
M  V30 18159 O 1665.96 -1.87291 -0.364261 0
M  V30 18160 C 1663.1 -3.44518 -0.200361 0
M  V30 18161 C 1662.22 -4.24636 0.79426 0
M  V30 18162 C 1661.35 -5.31156 0.068568 0
M  V30 18163 C 1660.39 -6.02973 1.05311 0
M  V30 18164 N 1659.53 -7.0119 0.357274 0
M  V30 18165 H 1664.37 -2.64749 1.36792 0
M  V30 18166 H 1661.91 -1.30142 0.685673 0
M  V30 18167 H 1663.86 -4.1251 -0.623833 0
M  V30 18168 H 1662.49 -3.05892 -1.03101 0
M  V30 18169 H 1661.55 -3.56161 1.33616 0
M  V30 18170 H 1662.86 -4.74271 1.54493 0
M  V30 18171 H 1662.01 -6.05294 -0.412792 0
M  V30 18172 H 1660.75 -4.82434 -0.714781 0
M  V30 18173 H 1659.76 -5.27636 1.54532 0
M  V30 18174 H 1660.98 -6.53784 1.83694 0
M  V30 18175 H 1658.93 -6.54736 -0.407059 0
M  V30 18176 H 1658.84 -7.48718 1.04677 0
M  V30 18177 H 1660.11 -7.79433 -0.102045 0
M  V30 18178 N 1664.34 -0.740267 -1.39132 0
M  V30 18179 C 1665.29 -0.103744 -2.30567 0
M  V30 18180 C 1666.26 0.724026 -1.49489 0
M  V30 18181 O 1667.44 0.682904 -1.7816 0
M  V30 18182 C 1664.58 0.793587 -3.35851 0
M  V30 18183 C 1663.7 -0.0473671 -4.31974 0
M  V30 18184 C 1662.83 0.851726 -5.24327 0
M  V30 18185 C 1661.87 0.00633633 -6.121 0
M  V30 18186 N 1661.01 0.861652 -6.96793 0
M  V30 18187 H 1665.85 -0.889087 -2.84428 0
M  V30 18188 H 1663.38 -0.450093 -1.40045 0
M  V30 18189 H 1665.34 1.32834 -3.95488 0
M  V30 18190 H 1663.97 1.54485 -2.83433 0
M  V30 18191 H 1663.02 -0.699601 -3.73911 0
M  V30 18192 H 1664.34 -0.700806 -4.93852 0
M  V30 18193 H 1663.49 1.45413 -5.89016 0
M  V30 18194 H 1662.23 1.53893 -4.62783 0
M  V30 18195 H 1661.23 -0.608833 -5.46419 0
M  V30 18196 H 1662.46 -0.677731 -6.7571 0
M  V30 18197 H 1660.4 1.53405 -6.37811 0
M  V30 18198 H 1660.32 0.264812 -7.55536 0
M  V30 18199 H 1661.59 1.44945 -7.65905 0
M  V30 18200 N 1665.82 1.49844 -0.488302 0
M  V30 18201 C 1666.77 2.30515 0.310703 0
M  V30 18202 C 1667.76 1.38559 0.974569 0
M  V30 18203 O 1668.97 1.5567 0.903708 0
M  V30 18204 H 1665.34 0.742517 0.119049 0
M  V30 18205 H 1667.31 2.95842 -0.389849 0
M  V30 18206 C 1666.06 3.19575 1.36994 0
M  V30 18207 H 1665.38 3.90253 0.868497 0
M  V30 18208 H 1666.82 3.78984 1.90123 0
M  V30 18209 C 1665.28 2.38324 2.38124 0
M  V30 18210 O 1665.81 2.07842 3.43751 0
M  V30 18211 N 1664.02 2.00583 2.10273 0
M  V30 18212 H 1663.57 2.25572 1.24399 0
M  V30 18213 H 1663.52 1.46525 2.78169 0
M  V30 18214 N 1667.3 0.221601 1.56034 0
M  V30 18215 C 1668.54 -0.410087 1.98304 0
M  V30 18216 C 1668.87 -1.59769 1.10924 0
M  V30 18217 O 1668.13 -1.95092 0.154196 0
M  V30 18218 C 1668.43 -0.887416 3.46208 0
M  V30 18219 C 1668.09 0.189671 4.50501 0
M  V30 18220 C 1666.75 0.485557 4.78744 0
M  V30 18221 C 1669.11 0.918112 5.1305 0
M  V30 18222 C 1666.43 1.5144 5.66818 0
M  V30 18223 C 1668.79 1.93629 6.02238 0
M  V30 18224 C 1667.45 2.23909 6.28825 0
M  V30 18225 H 1666.72 -0.150061 0.725646 0
M  V30 18226 H 1669.37 0.32413 1.88737 0
M  V30 18227 H 1667.67 -1.70039 3.52979 0
M  V30 18228 H 1669.37 -1.38602 3.76285 0
M  V30 18229 H 1665.96 -0.0510987 4.2857 0
M  V30 18230 H 1670.14 0.702761 4.91299 0
M  V30 18231 H 1665.4 1.75462 5.85682 0
M  V30 18232 H 1669.57 2.5058 6.49756 0
M  V30 18233 H 1667.2 3.03774 6.96868 0
M  V30 18234 N 1668.77 -1.57515 -0.0517878 0
M  V30 18235 C 1669.68 -2.08427 -1.07681 0
M  V30 18236 C 1670.7 -1.01797 -1.41115 0
M  V30 18237 O 1671.88 -1.33394 -1.50891 0
M  V30 18238 C 1668.94 -2.53472 -2.36544 0
M  V30 18239 C 1668 -3.74488 -2.09899 0
M  V30 18240 C 1667.24 -4.17374 -3.32618 0
M  V30 18241 O 1667.46 -3.59962 -4.42475 0
M  V30 18242 O 1666.39 -5.10006 -3.19653 0
M  V30 18243 H 1670.22 -2.96122 -0.674217 0
M  V30 18244 H 1667.8 -1.4699 -0.267274 0
M  V30 18245 H 1669.69 -2.82876 -3.12345 0
M  V30 18246 H 1668.36 -1.68899 -2.76143 0
M  V30 18247 H 1667.27 -3.50137 -1.31739 0
M  V30 18248 H 1668.6 -4.59975 -1.75169 0
M  V30 18249 N 1670.25 0.323614 -1.54242 0
M  V30 18250 C 1671.2 1.4184 -1.84348 0
M  V30 18251 C 1672.2 1.53553 -0.715384 0
M  V30 18252 O 1673.4 1.5594 -0.899045 0
M  V30 18253 H 1669.78 0.473326 -0.584352 0
M  V30 18254 H 1671.75 1.13672 -2.75901 0
M  V30 18255 C 1670.5 2.78059 -2.08755 0
M  V30 18256 H 1669.82 2.69819 -2.95021 0
M  V30 18257 H 1671.26 3.53731 -2.33774 0
M  V30 18258 C 1669.72 3.25229 -0.879076 0
M  V30 18259 O 1670.25 4.01603 -0.0883125 0
M  V30 18260 N 1668.45 2.82272 -0.690726 0
M  V30 18261 H 1668 2.20283 -1.33542 0
M  V30 18262 H 1667.96 3.14185 0.116344 0
M  V30 18263 N 1671.73 1.46313 0.585673 0
M  V30 18264 C 1672.96 1.55035 1.3701 0
M  V30 18265 C 1673.37 0.190444 1.87837 0
M  V30 18266 O 1672.73 -0.81177 1.63452 0
M  V30 18267 C 1672.78 2.55272 2.55965 0
M  V30 18268 O 1672.5 3.85981 2.07245 0
M  V30 18269 C 1674 2.73906 3.48555 0
M  V30 18270 H 1671.22 0.524377 0.418653 0
M  V30 18271 H 1673.77 1.91695 0.712267 0
M  V30 18272 H 1671.92 2.21625 3.17744 0
M  V30 18273 H 1672.34 4.40512 2.84692 0
M  V30 18274 H 1673.81 3.4797 4.2851 0
M  V30 18275 H 1674.29 1.80708 4.00301 0
M  V30 18276 H 1674.89 3.08638 2.92614 0
M  V30 18277 N 1673.21 -0.830057 1.33969 0
M  V30 18278 C 1674.63 -1.12209 1.13496 0
M  V30 18279 C 1674.83 -2.01384 -0.0682972 0
M  V30 18280 O 1673.88 -2.4123 -0.745949 0
M  V30 18281 C 1675.19 -1.77568 2.42673 0
M  V30 18282 C 1676.74 -1.90095 2.48662 0
M  V30 18283 C 1677.22 -2.5887 3.77823 0
M  V30 18284 N 1678.71 -2.66375 3.78944 0
M  V30 18285 C 1679.44 -3.20301 4.75599 0
M  V30 18286 N 1678.94 -3.74846 5.82634 0
M  V30 18287 N 1680.73 -3.18636 4.63063 0
M  V30 18288 H 1672.88 -0.236752 2.11076 0
M  V30 18289 H 1675.15 -0.167572 0.933072 0
M  V30 18290 H 1674.85 -1.19505 3.30774 0
M  V30 18291 H 1674.73 -2.77505 2.55481 0
M  V30 18292 H 1677.11 -2.47308 1.61005 0
M  V30 18293 H 1677.19 -0.890808 2.39788 0
M  V30 18294 H 1676.84 -2.02313 4.65867 0
M  V30 18295 H 1676.77 -3.60373 3.83978 0
M  V30 18296 H 1679.26 -2.27705 3.01594 0
M  V30 18297 H 1679.57 -4.14224 6.52409 0
M  V30 18298 H 1677.92 -3.7311 5.86357 0
M  V30 18299 H 1681.11 -2.75286 3.78597 0
M  V30 18300 H 1681.28 -3.60359 5.38559 0
M  V30 18301 N 1674.69 -1.17582 -1.04939 0
M  V30 18302 C 1675.6 -0.909588 -2.16249 0
M  V30 18303 C 1676.61 0.123166 -1.73564 0
M  V30 18304 O 1677.79 -0.0566976 -2.0132 0
M  V30 18305 C 1674.85 -0.429342 -3.44031 0
M  V30 18306 C 1673.92 -1.529 -4.01149 0
M  V30 18307 C 1673.15 -1.07157 -5.22832 0
M  V30 18308 O 1673.37 0.0732634 -5.70353 0
M  V30 18309 O 1672.31 -1.86567 -5.72255 0
M  V30 18310 H 1676.13 -1.84074 -2.41558 0
M  V30 18311 H 1673.72 -0.956914 -1.14732 0
M  V30 18312 H 1675.6 -0.16917 -4.2106 0
M  V30 18313 H 1674.27 0.473629 -3.20216 0
M  V30 18314 H 1673.18 -1.84308 -3.25548 0
M  V30 18315 H 1674.51 -2.40777 -4.29287 0
M  V30 18316 N 1676.17 1.23705 -0.976463 0
M  V30 18317 C 1677.39 1.96595 -0.660697 0
M  V30 18318 C 1677.82 1.71845 0.764916 0
M  V30 18319 O 1677.17 0.987506 1.52046 0
M  V30 18320 C 1677.22 3.47803 -0.95214 0
M  V30 18321 O 1676.33 4.12378 -0.0421126 0
M  V30 18322 H 1675.67 0.615591 -0.248886 0
M  V30 18323 H 1678.2 1.57247 -1.30899 0
M  V30 18324 H 1678.21 3.98236 -0.887238 0
M  V30 18325 H 1676.88 3.65144 -1.99105 0
M  V30 18326 H 1675.46 3.72552 -0.161087 0
M  V30 18327 N 1677.64 0.747635 1.38738 0
M  V30 18328 C 1678.89 0.301147 2.00248 0
M  V30 18329 C 1679.22 -1.11539 1.5934 0
M  V30 18330 O 1678.47 -1.77716 0.819487 0
M  V30 18331 C 1678.77 0.364869 3.55533 0
M  V30 18332 C 1678.44 1.73622 4.16133 0
M  V30 18333 C 1677.1 2.11153 4.32398 0
M  V30 18334 C 1679.45 2.63605 4.49624 0
M  V30 18335 C 1676.78 3.38151 4.79449 0
M  V30 18336 C 1679.13 3.89987 4.98089 0
M  V30 18337 C 1677.8 4.27595 5.12561 0
M  V30 18338 H 1677.07 0.110197 0.73276 0
M  V30 18339 H 1679.71 0.956952 1.65876 0
M  V30 18340 H 1678.02 -0.374505 3.90006 0
M  V30 18341 H 1679.72 0.00107503 4.01 0
M  V30 18342 H 1676.31 1.43445 4.03883 0
M  V30 18343 H 1680.49 2.35875 4.36665 0
M  V30 18344 H 1675.75 3.67215 4.88838 0
M  V30 18345 H 1679.92 4.59859 5.22975 0
M  V30 18346 H 1677.55 5.26065 5.4878 0
M  V30 18347 N 1679.12 -1.49583 0.496242 0
M  V30 18348 C 1680.37 -2.02738 -0.050037 0
M  V30 18349 C 1680.7 -1.37556 -1.37083 0
M  V30 18350 O 1679.98 -0.50964 -1.87704 0
M  V30 18351 C 1680.26 -3.59501 -0.207575 0
M  V30 18352 C 1680.11 -4.35218 1.13601 0
M  V30 18353 C 1681.43 -4.29715 -0.950443 0
M  V30 18354 H 1678.55 -0.736811 -0.0167105 0
M  V30 18355 H 1681.19 -1.78654 0.646728 0
M  V30 18356 H 1679.34 -3.80152 -0.801033 0
M  V30 18357 H 1681.01 -4.26075 1.76798 0
M  V30 18358 H 1679.26 -3.97964 1.72648 0
M  V30 18359 H 1679.93 -5.43247 0.979142 0
M  V30 18360 H 1682.4 -4.1369 -0.447173 0
M  V30 18361 H 1681.28 -5.39159 -1.02951 0
M  V30 18362 H 1681.54 -3.94627 -1.99304 0
M  V30 18363 N 1680.6 -0.229873 -1.55915 0
M  V30 18364 C 1681.55 0.676809 -2.20653 0
M  V30 18365 C 1682.52 1.18412 -1.16481 0
M  V30 18366 O 1683.7 1.2417 -1.44867 0
M  V30 18367 C 1680.84 1.87567 -2.89677 0
M  V30 18368 C 1679.95 1.40648 -4.08463 0
M  V30 18369 C 1679.09 2.56356 -4.65247 0
M  V30 18370 C 1678.13 2.06215 -5.76318 0
M  V30 18371 N 1677.27 3.15226 -6.27357 0
M  V30 18372 H 1682.11 0.118035 -2.97766 0
M  V30 18373 H 1679.64 0.0465042 -1.47026 0
M  V30 18374 H 1681.6 2.57968 -3.27884 0
M  V30 18375 H 1680.23 2.40719 -2.15067 0
M  V30 18376 H 1679.28 0.597104 -3.75684 0
M  V30 18377 H 1680.59 0.998877 -4.88696 0
M  V30 18378 H 1679.75 3.34827 -5.05941 0
M  V30 18379 H 1678.49 3.0041 -3.84194 0
M  V30 18380 H 1677.49 1.26209 -5.35118 0
M  V30 18381 H 1678.72 1.63151 -6.59211 0
M  V30 18382 H 1676.66 3.58746 -5.49215 0
M  V30 18383 H 1676.58 2.78744 -7.02736 0
M  V30 18384 H 1677.85 3.93807 -6.72708 0
M  V30 18385 N 1682.08 1.5754 0.0434337 0
M  V30 18386 C 1683.02 2.0561 1.04848 0
M  V30 18387 C 1683.99 0.942299 1.36784 0
M  V30 18388 O 1685.18 1.21191 1.47368 0
M  V30 18389 C 1682.32 2.52844 2.3487 0
M  V30 18390 C 1681.43 3.77958 2.09218 0
M  V30 18391 C 1680.57 4.13859 3.33007 0
M  V30 18392 C 1679.61 5.31932 3.02845 0
M  V30 18393 N 1678.74 5.63335 4.19045 0
M  V30 18394 H 1683.58 2.9123 0.631591 0
M  V30 18395 H 1681.12 1.44003 0.300258 0
M  V30 18396 H 1683.08 2.78291 3.10822 0
M  V30 18397 H 1681.71 1.70161 2.74308 0
M  V30 18398 H 1680.76 3.59681 1.23828 0
M  V30 18399 H 1682.07 4.64034 1.82958 0
M  V30 18400 H 1681.23 4.40358 4.17336 0
M  V30 18401 H 1679.97 3.26406 3.62368 0
M  V30 18402 H 1678.97 5.052 2.16916 0
M  V30 18403 H 1680.2 6.21027 2.74777 0
M  V30 18404 H 1678.14 4.7884 4.48384 0
M  V30 18405 H 1678.06 6.4389 3.96158 0
M  V30 18406 H 1679.33 5.94402 5.04289 0
M  V30 18407 N 1683.56 -0.31543 1.54411 0
M  V30 18408 C 1684.49 -1.4098 1.80713 0
M  V30 18409 C 1685.5 -1.47481 0.689435 0
M  V30 18410 O 1686.69 -1.50058 0.966682 0
M  V30 18411 C 1683.79 -2.79459 1.91718 0
M  V30 18412 C 1682.96 -2.96064 3.2197 0
M  V30 18413 C 1682.02 -4.14954 3.23573 0
M  V30 18414 O 1681.05 -4.07726 3.97175 0
M  V30 18415 N 1682.25 -5.24889 2.47935 0
M  V30 18416 H 1685.01 -1.18778 2.75158 0
M  V30 18417 H 1682.58 -0.50545 1.53808 0
M  V30 18418 H 1684.57 -3.57215 1.90209 0
M  V30 18419 H 1683.14 -2.94675 1.04333 0
M  V30 18420 H 1682.36 -2.05541 3.36372 0
M  V30 18421 H 1683.65 -3.0406 4.07952 0
M  V30 18422 H 1683.04 -5.33638 1.87741 0
M  V30 18423 H 1681.6 -6.01033 2.52195 0
M  V30 18424 N 1685.03 -1.46622 -0.577906 0
M  V30 18425 C 1686 -1.57126 -1.66865 0
M  V30 18426 C 1687 -0.448004 -1.54433 0
M  V30 18427 O 1688.19 -0.712459 -1.58964 0
M  V30 18428 C 1685.32 -1.49612 -3.06315 0
M  V30 18429 H 1686.51 -2.54338 -1.58909 0
M  V30 18430 H 1684.07 -1.34504 -0.796142 0
M  V30 18431 H 1684.8 -0.536976 -3.19823 0
M  V30 18432 H 1684.59 -2.31113 -3.16748 0
M  V30 18433 H 1686.08 -1.60058 -3.85709 0
M  V30 18434 N 1686.51 0.822941 -1.34408 0
M  V30 18435 C 1687.42 1.96567 -1.28056 0
M  V30 18436 C 1688.44 1.72979 -0.188251 0
M  V30 18437 O 1689.61 1.97084 -0.41472 0
M  V30 18438 C 1686.68 3.30865 -1.03583 0
M  V30 18439 C 1685.74 3.67461 -2.2197 0
M  V30 18440 C 1684.97 4.9535 -1.98655 0
M  V30 18441 O 1685.2 5.62521 -0.944785 0
M  V30 18442 O 1684.13 5.29824 -2.85605 0
M  V30 18443 H 1687.96 2.0487 -2.24192 0
M  V30 18444 H 1685.54 0.958334 -1.14614 0
M  V30 18445 H 1687.42 4.11298 -0.917162 0
M  V30 18446 H 1686.1 3.2353 -0.104868 0
M  V30 18447 H 1685.01 2.87472 -2.39396 0
M  V30 18448 H 1686.34 3.79481 -3.13456 0
M  V30 18449 N 1687.99 1.18137 1.04314 0
M  V30 18450 C 1688.94 0.902484 2.14378 0
M  V30 18451 C 1689.93 -0.136289 1.68851 0
M  V30 18452 O 1691.14 0.0116256 1.79996 0
M  V30 18453 H 1687.51 0.274358 0.700165 0
M  V30 18454 H 1689.48 1.83768 2.35099 0
M  V30 18455 C 1688.23 0.441975 3.4488 0
M  V30 18456 H 1687.56 1.23279 3.80319 0
M  V30 18457 H 1689 0.285808 4.23036 0
M  V30 18458 C 1687.46 -0.841797 3.26214 0
M  V30 18459 O 1687.99 -1.90658 3.53571 0
M  V30 18460 N 1686.19 -0.793425 2.79559 0
M  V30 18461 H 1685.74 0.0732997 2.57496 0
M  V30 18462 H 1685.7 -1.65281 2.6745 0
M  V30 18463 N 1689.47 -1.23186 0.98301 0
M  V30 18464 C 1690.43 -2.22979 0.530366 0
M  V30 18465 C 1691.43 -1.56211 -0.381421 0
M  V30 18466 O 1692.62 -1.73321 -0.17475 0
M  V30 18467 C 1689.75 -3.40124 -0.229882 0
M  V30 18468 H 1690.95 -2.64539 1.41277 0
M  V30 18469 H 1688.5 -1.36064 0.769172 0
M  V30 18470 H 1689.23 -3.04024 -1.12871 0
M  V30 18471 H 1689.02 -3.89794 0.424653 0
M  V30 18472 H 1690.51 -4.14158 -0.535078 0
M  V30 18473 N 1690.95 -0.754982 -1.38339 0
M  V30 18474 C 1692.2 -0.308537 -1.99326 0
M  V30 18475 C 1692.51 1.1164 -1.60611 0
M  V30 18476 O 1693.71 1.66339 -2.14578 0
M  V30 18477 C 1692.17 -0.500688 -3.564 0
M  V30 18478 C 1691.78 -1.9348 -4.04066 0
M  V30 18479 C 1693.52 -0.117026 -4.24339 0
M  V30 18480 C 1691.43 -2.07544 -5.53786 0
M  V30 18481 H 1690.36 -0.111611 -0.745694 0
M  V30 18482 H 1693.01 -0.931722 -1.58086 0
M  V30 18483 H 1691.39 0.191702 -3.95536 0
M  V30 18484 H 1692.57 -2.66077 -3.76217 0
M  V30 18485 H 1690.88 -2.27351 -3.48856 0
M  V30 18486 H 1693.48 -0.200847 -5.34323 0
M  V30 18487 H 1693.82 0.930531 -4.05767 0
M  V30 18488 H 1694.35 -0.761323 -3.90447 0
M  V30 18489 H 1691.09 -3.10559 -5.77264 0
M  V30 18490 H 1690.61 -1.39409 -5.83374 0
M  V30 18491 H 1692.29 -1.86605 -6.19506 0
M  V30 18492 N 1692.42 1.49318 -0.504168 0
M  V30 18493 C 1693.65 2.07365 0.038102 0
M  V30 18494 C 1694.07 1.36164 1.29773 0
M  V30 18495 O 1693.43 0.419365 1.76383 0
M  V30 18496 C 1693.48 3.59576 0.271535 0
M  V30 18497 O 1692.58 3.8983 1.34561 0
M  V30 18498 H 1691.93 0.663425 -0.0276328 0
M  V30 18499 H 1694.46 1.92081 -0.704696 0
M  V30 18500 H 1694.47 4.04899 0.502083 0
M  V30 18501 H 1693.14 4.10809 -0.648754 0
M  V30 18502 H 1691.72 3.56314 1.09976 0
M  V30 18503 N 1693.9 0.238138 1.5579 0
M  V30 18504 C 1694.87 -0.651703 2.1974 0
M  V30 18505 C 1695.87 -1.10932 1.16408 0
M  V30 18506 O 1697.06 -1.01544 1.41543 0
M  V30 18507 C 1694.19 -1.8947 2.83397 0
M  V30 18508 H 1695.38 -0.0939013 2.99753 0
M  V30 18509 H 1692.93 -0.0114348 1.56296 0
M  V30 18510 H 1693.67 -2.49395 2.07298 0
M  V30 18511 H 1693.45 -1.57486 3.59083 0
M  V30 18512 H 1694.94 -2.52831 3.32365 0
M  V30 18513 N 1695.38 -1.57561 -0.0350783 0
M  V30 18514 C 1696.33 -2.07246 -1.05602 0
M  V30 18515 C 1697.32 -0.985013 -1.37818 0
M  V30 18516 O 1698.53 -1.16993 -1.36794 0
M  V30 18517 H 1694.9 -0.661286 -0.358057 0
M  V30 18518 H 1696.87 -2.92075 -0.611124 0
M  V30 18519 C 1695.62 -2.56235 -2.3503 0
M  V30 18520 H 1694.95 -3.39525 -2.111 0
M  V30 18521 H 1696.39 -2.94716 -3.04826 0
M  V30 18522 C 1694.85 -1.46096 -3.03575 0
M  V30 18523 O 1695.38 -0.823772 -3.93163 0
M  V30 18524 N 1693.58 -1.19698 -2.64803 0
M  V30 18525 H 1693.13 -1.71697 -1.92036 0
M  V30 18526 H 1693.09 -0.462174 -3.10984 0
M  V30 18527 N 1696.86 0.307236 -1.54576 0
M  V30 18528 C 1697.77 1.4014 -1.88143 0
M  V30 18529 C 1698.78 1.5579 -0.774952 0
M  V30 18530 O 1699.96 1.70574 -1.07082 0
M  V30 18531 C 1697.03 2.74613 -2.11633 0
M  V30 18532 C 1696.09 2.68001 -3.35371 0
M  V30 18533 C 1695.32 3.96061 -3.57731 0
M  V30 18534 O 1695.54 4.95119 -2.83219 0
M  V30 18535 O 1694.48 3.98331 -4.51238 0
M  V30 18536 H 1698.3 1.14677 -2.81217 0
M  V30 18537 H 1695.89 0.502739 -1.40687 0
M  V30 18538 H 1697.77 3.54186 -2.2832 0
M  V30 18539 H 1696.44 2.99933 -1.21746 0
M  V30 18540 H 1695.35 1.86922 -3.24054 0
M  V30 18541 H 1696.68 2.47635 -4.25368 0
M  V30 18542 N 1698.34 1.46926 0.570122 0
M  V30 18543 C 1699.75 1.32159 0.894766 0
M  V30 18544 C 1699.95 0.302411 1.99218 0
M  V30 18545 O 1699.01 -0.290615 2.50822 0
M  V30 18546 C 1700.32 2.71136 1.30021 0
M  V30 18547 C 1701.87 2.79323 1.41236 0
M  V30 18548 C 1702.34 4.18911 1.85142 0
M  V30 18549 N 1703.84 4.2139 1.92314 0
M  V30 18550 C 1704.57 5.263 2.27588 0
M  V30 18551 N 1704.07 6.41526 2.61565 0
M  V30 18552 N 1705.86 5.13671 2.28251 0
M  V30 18553 H 1698.01 2.11837 -0.154603 0
M  V30 18554 H 1700.27 0.947978 -0.00649658 0
M  V30 18555 H 1699.98 3.47087 0.567775 0
M  V30 18556 H 1699.85 3.02066 2.25911 0
M  V30 18557 H 1702.24 2.03653 2.13564 0
M  V30 18558 H 1702.32 2.52063 0.43566 0
M  V30 18559 H 1701.97 4.95081 1.13389 0
M  V30 18560 H 1701.9 4.43587 2.83792 0
M  V30 18561 H 1704.39 3.38257 1.68495 0
M  V30 18562 H 1704.7 7.17343 2.8747 0
M  V30 18563 H 1703.04 6.44867 2.59175 0
M  V30 18564 H 1706.24 4.22684 2.01137 0
M  V30 18565 H 1706.41 5.95541 2.55412 0
M  V30 18566 N 1699.82 -0.815801 1.34842 0
M  V30 18567 C 1701.06 -1.57241 1.27599 0
M  V30 18568 C 1701.39 -1.93904 -0.152127 0
M  V30 18569 O 1700.65 -1.60819 -1.11515 0
M  V30 18570 C 1700.94 -2.87795 2.11917 0
M  V30 18571 C 1700.61 -2.70392 3.60831 0
M  V30 18572 C 1699.27 -2.65353 4.01424 0
M  V30 18573 C 1701.62 -2.53569 4.55359 0
M  V30 18574 C 1698.95 -2.41422 5.34726 0
M  V30 18575 C 1701.3 -2.31169 5.8885 0
M  V30 18576 C 1699.97 -2.24546 6.28598 0
M  V30 18577 H 1699.24 -0.575386 0.466918 0
M  V30 18578 H 1701.89 -0.943355 1.66653 0
M  V30 18579 H 1700.19 -3.5503 1.65714 0
M  V30 18580 H 1701.89 -3.45436 2.03654 0
M  V30 18581 H 1698.48 -2.75157 3.28613 0
M  V30 18582 H 1702.66 -2.5648 4.2489 0
M  V30 18583 H 1697.92 -2.34758 5.64534 0
M  V30 18584 H 1702.09 -2.1714 6.61682 0
M  V30 18585 H 1699.72 -2.05765 7.31823 0
M  V30 18586 N 1701.29 -1.18689 -1.03686 0
M  V30 18587 C 1702.54 -0.978948 -1.7635 0
M  V30 18588 C 1702.86 0.49195 -1.89312 0
M  V30 18589 O 1704.06 0.818501 -2.58868 0
M  V30 18590 C 1702.52 -1.70255 -3.17083 0
M  V30 18591 C 1702.13 -3.21301 -3.12201 0
M  V30 18592 C 1703.87 -1.57756 -3.94098 0
M  V30 18593 C 1701.78 -3.86284 -4.47815 0
M  V30 18594 H 1700.71 -0.362652 -0.661059 0
M  V30 18595 H 1703.36 -1.42102 -1.161 0
M  V30 18596 H 1701.74 -1.18826 -3.77752 0
M  V30 18597 H 1702.91 -3.79785 -2.6096 0
M  V30 18598 H 1701.23 -3.33984 -2.48684 0
M  V30 18599 H 1703.83 -2.03664 -4.94394 0
M  V30 18600 H 1704.17 -0.530427 -4.12907 0
M  V30 18601 H 1704.7 -2.06486 -3.40012 0
M  V30 18602 H 1701.44 -4.91061 -4.34211 0
M  V30 18603 H 1700.96 -3.32589 -4.99144 0
M  V30 18604 H 1702.64 -3.89369 -5.16721 0
M  V30 18605 N 1702.77 1.22662 -0.989529 0
M  V30 18606 C 1704 1.95883 -0.681511 0
M  V30 18607 C 1704.42 1.72646 0.746646 0
M  V30 18608 O 1703.78 1.00358 1.5099 0
M  V30 18609 C 1703.83 3.46773 -0.988975 0
M  V30 18610 O 1702.93 4.12311 -0.0858485 0
M  V30 18611 H 1702.27 0.612916 -0.255401 0
M  V30 18612 H 1704.8 1.5585 -1.32559 0
M  V30 18613 H 1704.81 3.97273 -0.929426 0
M  V30 18614 H 1703.49 3.63011 -2.02967 0
M  V30 18615 H 1702.06 3.7236 -0.200592 0
M  V30 18616 N 1704.25 0.762308 1.37937 0
M  V30 18617 C 1705.21 0.148588 2.28718 0
M  V30 18618 C 1706.21 -0.638198 1.47593 0
M  V30 18619 O 1707.4 -0.463178 1.67929 0
M  V30 18620 C 1704.53 -0.797492 3.31441 0
M  V30 18621 H 1705.73 0.94872 2.84498 0
M  V30 18622 H 1703.28 0.529888 1.47044 0
M  V30 18623 H 1704.02 -1.62298 2.80767 0
M  V30 18624 H 1703.8 -0.23561 3.91391 0
M  V30 18625 H 1705.29 -1.22262 3.99302 0
M  V30 18626 N 1705.73 -1.49049 0.51208 0
M  V30 18627 C 1707.14 -1.86579 0.0670687 0
M  V30 18628 C 1707.49 -1.42339 -1.35034 0
M  V30 18629 O 1706.61 -0.806142 -2.00824 0
M  V30 18630 C 1707.21 -3.38605 0.114936 0
M  V30 18631 C 1705.77 -3.75396 -0.274787 0
M  V30 18632 C 1704.92 -2.73068 0.482613 0
M  V30 18633 H 1707.87 -1.41208 0.724287 0
M  V30 18634 H 1707.89 -3.74416 -0.677722 0
M  V30 18635 H 1707.4 -3.70774 1.14666 0
M  V30 18636 H 1705.5 -3.48837 -1.30933 0
M  V30 18637 H 1705.61 -4.79071 0.0523691 0
M  V30 18638 H 1703.98 -2.54607 -0.0689364 0
M  V30 18639 H 1704.76 -3.08081 1.51463 0
M  V30 18640 N 1707.21 -0.246397 -1.55662 0
M  V30 18641 C 1708.15 0.66961 -2.22753 0
M  V30 18642 C 1709.15 1.18048 -1.21495 0
M  V30 18643 O 1710.35 1.13743 -1.39508 0
M  V30 18644 H 1706.73 0.234421 -0.714529 0
M  V30 18645 H 1708.7 0.0805962 -2.98291 0
M  V30 18646 C 1707.45 1.8558 -2.94033 0
M  V30 18647 H 1706.77 1.47184 -3.71721 0
M  V30 18648 H 1708.21 2.47397 -3.44341 0
M  V30 18649 C 1706.67 2.72664 -1.97879 0
M  V30 18650 O 1707.2 3.72177 -1.51154 0
M  V30 18651 N 1705.41 2.3922 -1.64991 0
M  V30 18652 H 1704.95 1.58348 -2.03184 0
M  V30 18653 H 1704.91 2.97762 -1.00922 0
M  V30 18654 N 1708.68 1.57577 0.026722 0
M  V30 18655 C 1709.63 2.07803 1.04502 0
M  V30 18656 C 1710.63 0.992308 1.37294 0
M  V30 18657 O 1711.83 1.17717 1.36171 0
M  V30 18658 H 1708.21 0.663176 0.354545 0
M  V30 18659 H 1710.18 2.92395 0.595626 0
M  V30 18660 C 1708.93 2.57478 2.33667 0
M  V30 18661 H 1708.25 3.40639 2.09296 0
M  V30 18662 H 1709.69 2.96328 3.03258 0
M  V30 18663 C 1708.15 1.47704 3.02796 0
M  V30 18664 O 1708.68 0.844611 3.9272 0
M  V30 18665 N 1706.88 1.211 2.64165 0
M  V30 18666 H 1706.43 1.72713 1.91123 0
M  V30 18667 H 1706.39 0.47866 3.10735 0
M  V30 18668 N 1710.16 -0.299034 1.54737 0
M  V30 18669 C 1711.11 -1.36887 1.85824 0
M  V30 18670 C 1712.08 -1.50287 0.70733 0
M  V30 18671 O 1713.26 -1.65114 0.956143 0
M  V30 18672 C 1710.4 -2.7286 2.11286 0
M  V30 18673 C 1709.52 -2.67893 3.38906 0
M  V30 18674 C 1708.65 -3.95873 3.542 0
M  V30 18675 C 1707.69 -3.85312 4.75606 0
M  V30 18676 N 1706.83 -5.05072 4.87695 0
M  V30 18677 H 1711.67 -1.09676 2.77083 0
M  V30 18678 H 1709.2 -0.530427 1.37204 0
M  V30 18679 H 1711.16 -3.51938 2.24043 0
M  V30 18680 H 1709.79 -2.98327 1.23291 0
M  V30 18681 H 1708.84 -1.80669 3.34758 0
M  V30 18682 H 1710.16 -2.5598 4.28107 0
M  V30 18683 H 1709.31 -4.83389 3.66633 0
M  V30 18684 H 1708.05 -4.10622 2.63136 0
M  V30 18685 H 1707.05 -2.9618 4.63203 0
M  V30 18686 H 1708.28 -3.72106 5.68079 0
M  V30 18687 H 1706.23 -5.20281 3.99554 0
M  V30 18688 H 1706.14 -4.9559 5.709 0
M  V30 18689 H 1707.41 -5.94233 5.04487 0
M  V30 18690 N 1711.64 -1.47227 -0.562322 0
M  V30 18691 C 1712.89 -1.53286 -1.31712 0
M  V30 18692 C 1713.21 -0.194583 -1.94027 0
M  V30 18693 O 1712.48 0.780961 -1.7966 0
M  V30 18694 H 1711.06 -0.564621 -0.489094 0
M  V30 18695 H 1713.72 -1.83492 -0.657024 0
M  V30 18696 H 1712.82 -2.29665 -2.1133 0
M  V30 18697 N 1713.12 0.808639 -1.35273 0
M  V30 18698 C 1714.34 1.60219 -1.31699 0
M  V30 18699 C 1714.77 1.87816 0.103386 0
M  V30 18700 O 1714.13 1.46389 1.06957 0
M  V30 18701 C 1714.17 2.9116 -2.12739 0
M  V30 18702 O 1713.28 3.83891 -1.5067 0
M  V30 18703 H 1712.62 0.486742 -0.45164 0
M  V30 18704 H 1715.15 1.00378 -1.78284 0
M  V30 18705 H 1715.16 3.40602 -2.2462 0
M  V30 18706 H 1713.83 2.70399 -3.16002 0
M  V30 18707 H 1712.41 3.42437 -1.47618 0
M  V30 18708 N 1714.6 1.19237 1.03055 0
M  V30 18709 C 1715.84 0.995444 1.76688 0
M  V30 18710 C 1716.18 -0.472805 1.88357 0
M  V30 18711 O 1715.45 -1.3511 1.39913 0
M  V30 18712 C 1715.73 1.66308 3.19396 0
M  V30 18713 C 1715.59 3.20486 3.15609 0
M  V30 18714 C 1716.91 1.38468 4.17749 0
M  V30 18715 H 1714.02 0.36304 0.641382 0
M  V30 18716 H 1716.67 1.47052 1.20315 0
M  V30 18717 H 1714.82 1.25915 3.67529 0
M  V30 18718 H 1716.49 3.70081 2.75387 0
M  V30 18719 H 1714.73 3.52118 2.53369 0
M  V30 18720 H 1715.4 3.62345 4.16426 0
M  V30 18721 H 1717.88 1.73485 3.78209 0
M  V30 18722 H 1716.75 1.87735 5.15797 0
M  V30 18723 H 1717.02 0.309505 4.41015 0
M  V30 18724 N 1716.07 -1.22136 0.99602 0
M  V30 18725 C 1717.3 -1.95519 0.69189 0
M  V30 18726 C 1717.72 -1.7304 -0.73748 0
M  V30 18727 O 1717.08 -1.01157 -1.50456 0
M  V30 18728 C 1717.13 -3.46244 1.00735 0
M  V30 18729 O 1716.23 -4.12259 0.107713 0
M  V30 18730 H 1715.58 -0.611553 0.258648 0
M  V30 18731 H 1718.11 -1.55145 1.33384 0
M  V30 18732 H 1718.12 -3.96774 0.950482 0
M  V30 18733 H 1716.79 -3.6193 2.04889 0
M  V30 18734 H 1715.37 -3.72248 0.220336 0
M  V30 18735 N 1717.55 -0.769612 -1.37531 0
M  V30 18736 C 1718.8 -0.33346 -2.0004 0
M  V30 18737 C 1719.13 1.08661 -1.60955 0
M  V30 18738 O 1718.41 1.74714 -0.854709 0
M  V30 18739 C 1718.69 -0.474588 -3.56959 0
M  V30 18740 C 1718.54 -1.93692 -4.0596 0
M  V30 18741 C 1719.86 0.122429 -4.3993 0
M  V30 18742 H 1716.98 -0.122637 -0.726725 0
M  V30 18743 H 1719.62 -0.972255 -1.6324 0
M  V30 18744 H 1717.77 0.0692352 -3.88438 0
M  V30 18745 H 1719.44 -2.54028 -3.85055 0
M  V30 18746 H 1717.69 -2.44647 -3.58232 0
M  V30 18747 H 1718.36 -1.98674 -5.15008 0
M  V30 18748 H 1720.83 -0.341557 -4.14696 0
M  V30 18749 H 1719.71 -0.00646545 -5.489 0
M  V30 18750 H 1719.97 1.21251 -4.25148 0
M  V30 18751 N 1719.03 1.48775 -0.519977 0
M  V30 18752 C 1720.28 2.02792 0.0177768 0
M  V30 18753 C 1720.61 1.3972 1.34878 0
M  V30 18754 O 1719.88 0.539438 1.8687 0
M  V30 18755 C 1720.17 3.59786 0.150355 0
M  V30 18756 C 1720.02 4.33356 -1.20511 0
M  V30 18757 C 1721.34 4.31172 0.881959 0
M  V30 18758 H 1718.46 0.736983 0.00498634 0
M  V30 18759 H 1721.1 1.77603 -0.675069 0
M  V30 18760 H 1719.25 3.81378 0.740452 0
M  V30 18761 H 1720.92 4.23209 -1.83554 0
M  V30 18762 H 1719.17 3.95167 -1.78957 0
M  V30 18763 H 1719.84 5.4162 -1.06544 0
M  V30 18764 H 1722.31 4.14349 0.381302 0
M  V30 18765 H 1721.19 5.40729 0.943601 0
M  V30 18766 H 1721.45 3.97747 1.93001 0
M  V30 18767 N 1720.51 0.254649 1.55529 0
M  V30 18768 C 1721.46 -0.64162 2.21702 0
M  V30 18769 C 1722.43 -1.16544 1.1835 0
M  V30 18770 O 1723.61 -1.2185 1.46824 0
M  V30 18771 C 1720.75 -1.82935 2.92624 0
M  V30 18772 C 1719.86 -1.34132 4.10649 0
M  V30 18773 C 1719 -2.48922 4.69267 0
M  V30 18774 C 1718.04 -1.9702 5.79525 0
M  V30 18775 N 1717.17 -3.05206 6.32293 0
M  V30 18776 H 1722.01 -0.0706476 2.97916 0
M  V30 18777 H 1719.55 -0.0231077 1.47082 0
M  V30 18778 H 1721.51 -2.52719 3.31947 0
M  V30 18779 H 1720.14 -2.37267 2.1887 0
M  V30 18780 H 1719.19 -0.53726 3.76587 0
M  V30 18781 H 1720.5 -0.921003 4.90223 0
M  V30 18782 H 1719.66 -3.26735 5.11203 0
M  V30 18783 H 1718.4 -2.94259 3.88925 0
M  V30 18784 H 1717.4 -1.17679 5.37058 0
M  V30 18785 H 1718.63 -1.52643 6.61723 0
M  V30 18786 H 1716.57 -3.49963 5.54853 0
M  V30 18787 H 1716.49 -2.67528 7.07082 0
M  V30 18788 H 1717.76 -3.83055 6.78888 0
M  V30 18789 N 1721.99 -1.57589 -0.0183649 0
M  V30 18790 C 1723.21 -1.94024 -0.718491 0
M  V30 18791 C 1723.63 -0.85529 -1.68316 0
M  V30 18792 O 1722.99 0.167403 -1.81731 0
M  V30 18793 C 1723.04 -3.30427 -1.4663 0
M  V30 18794 O 1722.76 -4.34755 -0.540345 0
M  V30 18795 C 1724.26 -3.81209 -2.26262 0
M  V30 18796 H 1721.48 -0.640101 -0.201275 0
M  V30 18797 H 1724.02 -2.04482 0.0272935 0
M  V30 18798 H 1722.18 -3.21333 -2.16388 0
M  V30 18799 H 1722.59 -5.13554 -1.06593 0
M  V30 18800 H 1724.07 -4.79131 -2.74112 0
M  V30 18801 H 1724.54 -3.12957 -3.08147 0
M  V30 18802 H 1725.15 -3.9342 -1.61558 0
M  V30 18803 N 1723.46 0.290824 -1.54893 0
M  V30 18804 C 1724.69 1.04775 -1.78988 0
M  V30 18805 C 1725.11 1.79799 -0.552637 0
M  V30 18806 O 1724.47 1.74349 0.497199 0
M  V30 18807 C 1724.52 1.99603 -3.00318 0
M  V30 18808 O 1723.62 3.08079 -2.74155 0
M  V30 18809 H 1722.97 0.300478 -0.592123 0
M  V30 18810 H 1725.5 0.325151 -2.02 0
M  V30 18811 H 1725.51 2.41884 -3.28567 0
M  V30 18812 H 1724.18 1.44406 -3.90025 0
M  V30 18813 H 1722.76 2.7024 -2.56953 0
M  V30 18814 N 1724.94 1.47523 0.554506 0
M  V30 18815 C 1726.17 1.57907 1.3369 0
M  V30 18816 C 1726.59 0.230244 1.87391 0
M  V30 18817 O 1725.94 -0.776917 1.65137 0
M  V30 18818 C 1725.99 2.60644 2.50493 0
M  V30 18819 O 1725.71 3.9029 1.99011 0
M  V30 18820 C 1727.22 2.81238 3.42666 0
M  V30 18821 H 1724.44 0.533139 0.407436 0
M  V30 18822 H 1726.98 1.93163 0.671445 0
M  V30 18823 H 1725.13 2.28315 3.12971 0
M  V30 18824 H 1725.55 4.46451 2.75285 0
M  V30 18825 H 1727.02 3.56981 4.21033 0
M  V30 18826 H 1727.5 1.89159 3.96378 0
M  V30 18827 H 1728.11 3.14775 2.86001 0
M  V30 18828 N 1726.42 -0.801453 1.357 0
M  V30 18829 C 1727.67 -1.55879 1.2926 0
M  V30 18830 C 1728 -1.94055 -0.131552 0
M  V30 18831 O 1727.25 -1.61993 -1.09803 0
M  V30 18832 C 1727.55 -2.85531 2.14957 0
M  V30 18833 C 1727.22 -2.6655 3.63679 0
M  V30 18834 C 1725.88 -2.61081 4.04216 0
M  V30 18835 C 1728.23 -2.48725 4.58023 0
M  V30 18836 C 1725.56 -2.35737 5.37257 0
M  V30 18837 C 1727.91 -2.2491 5.91268 0
M  V30 18838 C 1726.57 -2.17867 6.30944 0
M  V30 18839 H 1725.84 -0.570401 0.472994 0
M  V30 18840 H 1728.49 -0.925627 1.67644 0
M  V30 18841 H 1726.8 -3.53252 1.69471 0
M  V30 18842 H 1728.49 -3.43256 2.07307 0
M  V30 18843 H 1725.08 -2.71656 3.31513 0
M  V30 18844 H 1729.27 -2.51959 4.27587 0
M  V30 18845 H 1724.52 -2.28758 5.66992 0
M  V30 18846 H 1728.7 -2.1011 6.63948 0
M  V30 18847 H 1726.32 -1.97991 7.33964 0
M  V30 18848 N 1727.9 -1.19782 -1.02421 0
M  V30 18849 C 1728.85 -0.93978 -2.108 0
M  V30 18850 C 1729.82 0.12716 -1.65613 0
M  V30 18851 O 1731 -0.0159669 -1.90793 0
M  V30 18852 C 1728.14 -0.489656 -3.41609 0
M  V30 18853 C 1727.25 -1.62389 -4.00317 0
M  V30 18854 C 1726.39 -1.12483 -5.19154 0
M  V30 18855 C 1725.43 -2.23266 -5.69929 0
M  V30 18856 N 1724.56 -1.74633 -6.80035 0
M  V30 18857 H 1729.4 -1.8677 -2.32209 0
M  V30 18858 H 1726.94 -0.931082 -1.13883 0
M  V30 18859 H 1728.9 -0.210049 -4.16671 0
M  V30 18860 H 1727.53 0.40127 -3.20296 0
M  V30 18861 H 1726.58 -2.0186 -3.22423 0
M  V30 18862 H 1727.89 -2.45836 -4.34011 0
M  V30 18863 H 1727.05 -0.800737 -6.01393 0
M  V30 18864 H 1725.79 -0.260155 -4.87006 0
M  V30 18865 H 1724.79 -2.56501 -4.863 0
M  V30 18866 H 1726.02 -3.10197 -6.04115 0
M  V30 18867 H 1723.96 -0.904804 -6.4973 0
M  V30 18868 H 1723.88 -2.51666 -7.12882 0
M  V30 18869 H 1725.15 -1.45201 -7.65857 0
M  V30 18870 N 1729.38 1.21606 -1.00248 0
M  V30 18871 C 1730.79 1.72365 -0.717446 0
M  V30 18872 C 1731.14 1.80668 0.765078 0
M  V30 18873 O 1730.26 1.45951 1.59772 0
M  V30 18874 C 1730.86 3.13046 -1.29567 0
M  V30 18875 C 1729.42 3.61172 -1.05981 0
M  V30 18876 C 1728.57 2.38775 -1.41003 0
M  V30 18877 H 1731.52 1.06818 -1.17369 0
M  V30 18878 H 1731.54 3.74392 -0.679054 0
M  V30 18879 H 1731.05 3.0697 -2.37467 0
M  V30 18880 H 1729.15 3.726 0.00214307 0
M  V30 18881 H 1729.26 4.46778 -1.72993 0
M  V30 18882 H 1727.63 2.40839 -0.82877 0
M  V30 18883 H 1728.41 2.35352 -2.49928 0
M  V30 18884 N 1730.86 0.776895 1.37121 0
M  V30 18885 C 1731.77 0.167552 2.34001 0
M  V30 18886 C 1732.78 -0.673609 1.60432 0
M  V30 18887 O 1733.96 -0.592327 1.92493 0
M  V30 18888 C 1731.02 -0.697343 3.39615 0
M  V30 18889 C 1730.08 0.160869 4.28998 0
M  V30 18890 C 1729.32 -0.662841 5.29568 0
M  V30 18891 O 1729.54 -1.89962 5.37839 0
M  V30 18892 O 1728.47 -0.0693304 6.0186 0
M  V30 18893 H 1732.3 0.968247 2.87852 0
M  V30 18894 H 1729.88 0.538137 1.39372 0
M  V30 18895 H 1731.77 -1.19094 4.04221 0
M  V30 18896 H 1730.44 -1.47614 2.88083 0
M  V30 18897 H 1729.35 0.700941 3.67475 0
M  V30 18898 H 1730.68 0.902875 4.83848 0
M  V30 18899 N 1732.33 -1.48497 0.527859 0
M  V30 18900 C 1733.24 -2.3337 -0.239957 0
M  V30 18901 C 1734.26 -1.46353 -0.941101 0
M  V30 18902 O 1735.44 -1.79337 -0.916532 0
M  V30 18903 C 1732.5 -3.22421 -1.27458 0
M  V30 18904 C 1731.56 -4.25309 -0.584017 0
M  V30 18905 C 1730.79 -5.10105 -1.56935 0
M  V30 18906 O 1731.02 -4.96846 -2.80178 0
M  V30 18907 O 1729.95 -5.91578 -1.10991 0
M  V30 18908 H 1733.78 -3.00265 0.455458 0
M  V30 18909 H 1731.36 -1.46582 0.288809 0
M  V30 18910 H 1733.24 -3.7751 -1.87254 0
M  V30 18911 H 1731.92 -2.58189 -1.95244 0
M  V30 18912 H 1730.83 -3.7406 0.0543828 0
M  V30 18913 H 1732.16 -4.92173 0.0518646 0
M  V30 18914 N 1733.81 -0.262893 -1.55392 0
M  V30 18915 C 1734.72 0.640223 -2.25695 0
M  V30 18916 C 1735.74 1.18019 -1.27857 0
M  V30 18917 O 1736.91 1.21308 -1.60768 0
M  V30 18918 C 1733.98 1.81336 -2.95497 0
M  V30 18919 C 1733.04 1.31128 -4.08784 0
M  V30 18920 C 1732.27 2.4285 -4.75247 0
M  V30 18921 O 1732.5 3.61939 -4.40859 0
M  V30 18922 O 1731.43 2.11699 -5.63442 0
M  V30 18923 H 1735.26 0.0710781 -3.03617 0
M  V30 18924 H 1732.84 -0.030765 -1.49368 0
M  V30 18925 H 1734.72 2.49764 -3.39406 0
M  V30 18926 H 1733.4 2.36982 -2.20502 0
M  V30 18927 H 1732.3 0.593816 -3.69357 0
M  V30 18928 H 1733.64 0.800711 -4.85643 0
M  V30 18929 N 1735.29 1.57597 0.0100073 0
M  V30 18930 C 1736.52 1.94402 0.708192 0
M  V30 18931 C 1736.93 0.864205 1.6786 0
M  V30 18932 O 1736.29 -0.157763 1.81817 0
M  V30 18933 C 1736.34 3.312 1.44876 0
M  V30 18934 O 1736.06 4.35035 0.517281 0
M  V30 18935 C 1737.56 3.82404 2.24237 0
M  V30 18936 H 1734.78 0.64116 0.197877 0
M  V30 18937 H 1737.33 2.04464 -0.0381373 0
M  V30 18938 H 1735.48 3.22476 2.1468 0
M  V30 18939 H 1735.9 5.14113 1.03868 0
M  V30 18940 H 1737.37 4.80578 2.71567 0
M  V30 18941 H 1737.85 3.14587 3.06483 0
M  V30 18942 H 1738.45 3.94271 1.59469 0
M  V30 18943 N 1736.77 -0.282606 1.55045 0
M  V30 18944 C 1738 -1.03395 1.79212 0
M  V30 18945 C 1738.41 -1.80283 0.560652 0
M  V30 18946 O 1737.77 -1.76343 -0.470049 0
M  V30 18947 C 1737.82 -2.0001 3.01128 0
M  V30 18948 O 1737.54 -1.26238 4.19518 0
M  V30 18949 C 1739.04 -2.87035 3.37825 0
M  V30 18950 H 1736.26 -0.305855 0.597238 0
M  V30 18951 H 1738.8 -0.3163 2.02039 0
M  V30 18952 H 1736.96 -2.67251 2.80456 0
M  V30 18953 H 1737.37 -1.91277 4.88378 0
M  V30 18954 H 1738.85 -3.50642 4.26327 0
M  V30 18955 H 1739.32 -3.56303 2.56798 0
M  V30 18956 H 1739.93 -2.25298 3.60723 0
M  V30 18957 N 1738.25 -1.47815 -0.546675 0
M  V30 18958 C 1739.19 -1.61513 -1.67381 0
M  V30 18959 C 1740.19 -0.482064 -1.62396 0
M  V30 18960 O 1741.39 -0.660227 -1.67454 0
M  V30 18961 H 1737.77 -0.508484 -0.554029 0
M  V30 18962 H 1739.74 -2.5621 -1.52967 0
M  V30 18963 C 1738.49 -1.65645 -3.05707 0
M  V30 18964 H 1737.81 -2.52186 -3.10229 0
M  V30 18965 H 1739.25 -1.79277 -3.84234 0
M  V30 18966 C 1737.71 -0.391799 -3.34614 0
M  V30 18967 O 1738.24 0.502576 -3.98544 0
M  V30 18968 N 1736.45 -0.268593 -2.89356 0
M  V30 18969 H 1735.99 -0.997347 -2.37509 0
M  V30 18970 H 1735.95 0.5766 -3.09067 0
M  V30 18971 N 1739.72 0.794246 -1.36123 0
M  V30 18972 C 1740.69 1.88828 -1.2991 0
M  V30 18973 C 1741.69 1.59451 -0.207839 0
M  V30 18974 O 1742.88 1.67953 -0.462321 0
M  V30 18975 C 1740.01 3.25511 -1.01269 0
M  V30 18976 H 1741.2 1.95753 -2.27202 0
M  V30 18977 H 1738.75 0.991505 -1.20826 0
M  V30 18978 H 1739.49 3.2427 -0.0441535 0
M  V30 18979 H 1739.27 3.48221 -1.80234 0
M  V30 18980 H 1740.76 4.0557 -0.995142 0
M  V30 18981 N 1741.2 1.20323 1.01785 0
M  V30 18982 C 1742.45 1.01413 1.75623 0
M  V30 18983 C 1742.78 -0.452801 1.88847 0
M  V30 18984 O 1742.06 -1.33618 1.41338 0
M  V30 18985 C 1742.34 1.69686 3.17614 0
M  V30 18986 C 1742.19 3.23815 3.12192 0
M  V30 18987 C 1743.51 1.42891 4.16257 0
M  V30 18988 H 1740.63 0.369822 0.637495 0
M  V30 18989 H 1743.27 1.4832 1.18749 0
M  V30 18990 H 1741.42 1.29806 3.66173 0
M  V30 18991 H 1743.09 3.72981 2.71446 0
M  V30 18992 H 1741.34 3.54785 2.4962 0
M  V30 18993 H 1742.01 3.66741 4.12559 0
M  V30 18994 H 1744.48 1.77486 3.76348 0
M  V30 18995 H 1743.36 1.93195 5.13777 0
M  V30 18996 H 1743.62 0.356263 4.40662 0
M  V30 18997 N 1742.68 -1.21073 1.00892 0
M  V30 18998 C 1743.59 -2.27265 0.582065 0
M  V30 18999 C 1744.61 -1.69872 -0.376785 0
M  V30 19000 O 1745.78 -1.99969 -0.239644 0
M  V30 19001 C 1742.85 -3.46606 -0.0806764 0
M  V30 19002 C 1741.91 -4.19257 0.923147 0
M  V30 19003 C 1741.14 -5.32901 0.291938 0
M  V30 19004 O 1741.36 -5.6309 -0.910282 0
M  V30 19005 O 1740.3 -5.93453 1.00483 0
M  V30 19006 H 1744.12 -2.65977 1.46594 0
M  V30 19007 H 1741.71 -1.27544 0.777999 0
M  V30 19008 H 1743.59 -4.18978 -0.451177 0
M  V30 19009 H 1742.27 -3.09785 -0.93887 0
M  V30 19010 H 1741.17 -3.4909 1.34488 0
M  V30 19011 H 1742.51 -4.59999 1.75106 0
M  V30 19012 N 1744.16 -0.784156 -1.36707 0
M  V30 19013 C 1745.38 -0.364744 -2.04168 0
M  V30 19014 C 1745.81 1.00905 -1.58745 0
M  V30 19015 O 1745.17 1.64903 -0.753447 0
M  V30 19016 C 1745.21 -0.43091 -3.58016 0
M  V30 19017 O 1744.32 0.564103 -4.08524 0
M  V30 19018 H 1743.66 -0.15576 -0.645473 0
M  V30 19019 H 1746.19 -1.0638 -1.74769 0
M  V30 19020 H 1746.2 -0.292629 -4.06949 0
M  V30 19021 H 1744.87 -1.43308 -3.9043 0
M  V30 19022 H 1743.45 0.387917 -3.70877 0
M  V30 19023 N 1745.64 1.48215 -0.535727 0
M  V30 19024 C 1746.58 2.31387 0.237209 0
M  V30 19025 C 1747.58 1.41589 0.929995 0
M  V30 19026 O 1748.78 1.58466 0.853725 0
M  V30 19027 H 1745.16 0.745928 0.0953663 0
M  V30 19028 H 1747.13 2.94452 -0.483772 0
M  V30 19029 C 1745.88 3.23771 1.26757 0
M  V30 19030 H 1745.2 3.92818 0.743902 0
M  V30 19031 H 1746.64 3.84841 1.7797 0
M  V30 19032 C 1745.1 2.45779 2.30422 0
M  V30 19033 O 1745.63 2.18673 3.36964 0
M  V30 19034 N 1743.84 2.07171 2.03785 0
M  V30 19035 H 1743.38 2.29416 1.17159 0
M  V30 19036 H 1743.34 1.55301 2.73366 0
M  V30 19037 N 1747.11 0.27113 1.5525 0
M  V30 19038 C 1748.06 -0.634087 2.2379 0
M  V30 19039 C 1749.06 -1.16101 1.23357 0
M  V30 19040 O 1750.26 -1.1151 1.413 0
M  V30 19041 H 1746.64 -0.223023 0.718168 0
M  V30 19042 H 1748.61 -0.0331304 2.98382 0
M  V30 19043 C 1747.36 -1.80879 2.96948 0
M  V30 19044 H 1746.68 -1.41252 3.74016 0
M  V30 19045 H 1748.12 -2.41888 3.48233 0
M  V30 19046 C 1746.58 -2.69481 2.02192 0
M  V30 19047 O 1747.11 -3.69725 1.57056 0
M  V30 19048 N 1745.32 -2.36565 1.68776 0
M  V30 19049 H 1744.86 -1.55096 2.05677 0
M  V30 19050 H 1744.82 -2.96119 1.05646 0
M  V30 19051 N 1748.59 -1.576 -0.00164943 0
M  V30 19052 C 1750.01 -1.5554 -0.357706 0
M  V30 19053 C 1750.21 -1.00078 -1.74891 0
M  V30 19054 O 1749.26 -0.633864 -2.44414 0
M  V30 19055 C 1750.58 -2.99785 -0.234448 0
M  V30 19056 C 1752.13 -3.11466 -0.309509 0
M  V30 19057 C 1752.6 -4.57493 -0.215394 0
M  V30 19058 N 1754.09 -4.62393 -0.273345 0
M  V30 19059 C 1754.83 -5.72963 -0.223836 0
M  V30 19060 N 1754.32 -6.92687 -0.12502 0
M  V30 19061 N 1756.12 -5.61424 -0.27558 0
M  V30 19062 H 1748.27 -1.91992 0.908448 0
M  V30 19063 H 1750.53 -0.88179 0.348067 0
M  V30 19064 H 1750.24 -3.44195 0.722671 0
M  V30 19065 H 1750.11 -3.63226 -1.01718 0
M  V30 19066 H 1752.5 -2.66986 -1.25707 0
M  V30 19067 H 1752.58 -2.50805 0.503064 0
M  V30 19068 H 1752.22 -5.02647 0.728617 0
M  V30 19069 H 1752.15 -5.16098 -1.04643 0
M  V30 19070 H 1754.64 -3.76265 -0.351116 0
M  V30 19071 H 1754.96 -7.72744 -0.0930938 0
M  V30 19072 H 1753.3 -6.94941 -0.0906712 0
M  V30 19073 H 1756.49 -4.66782 -0.350963 0
M  V30 19074 H 1756.66 -6.47579 -0.233531 0
M  V30 19075 N 1750.07 0.274379 -1.55193 0
M  V30 19076 C 1751.32 1.00766 -1.75995 0
M  V30 19077 C 1751.65 1.8599 -0.558679 0
M  V30 19078 O 1750.92 1.8937 0.443784 0
M  V30 19079 C 1751.21 1.89137 -3.0643 0
M  V30 19080 C 1751.06 1.06914 -4.36909 0
M  V30 19081 C 1752.38 2.87869 -3.32896 0
M  V30 19082 H 1749.5 0.364915 -0.640317 0
M  V30 19083 H 1752.14 0.280156 -1.87923 0
M  V30 19084 H 1750.29 2.51166 -2.96391 0
M  V30 19085 H 1751.96 0.469666 -4.58903 0
M  V30 19086 H 1750.21 0.372566 -4.32197 0
M  V30 19087 H 1750.88 1.72063 -5.24498 0
M  V30 19088 H 1753.35 2.35974 -3.42718 0
M  V30 19089 H 1752.23 3.46845 -4.25429 0
M  V30 19090 H 1752.49 3.62921 -2.52469 0
M  V30 19091 N 1751.55 1.48103 0.538828 0
M  V30 19092 C 1752.78 1.59085 1.31816 0
M  V30 19093 C 1753.19 0.246886 1.87582 0
M  V30 19094 O 1752.53 -0.772694 1.66659 0
M  V30 19095 C 1752.59 2.57102 2.51274 0
M  V30 19096 C 1752.26 4.02377 2.16661 0
M  V30 19097 C 1753.25 4.90323 1.72857 0
M  V30 19098 C 1750.94 4.4785 2.27455 0
M  V30 19099 C 1752.93 6.21767 1.40302 0
M  V30 19100 C 1750.62 5.79317 1.94512 0
M  V30 19101 C 1751.62 6.66098 1.51006 0
M  V30 19102 O 1751.3 7.9512 1.18491 0
M  V30 19103 H 1751.04 0.539404 0.407454 0
M  V30 19104 H 1753.59 1.94586 0.657678 0
M  V30 19105 H 1751.82 2.16705 3.20275 0
M  V30 19106 H 1753.51 2.58014 3.13342 0
M  V30 19107 H 1754.28 4.56432 1.63995 0
M  V30 19108 H 1750.15 3.80497 2.60275 0
M  V30 19109 H 1753.7 6.89458 1.06271 0
M  V30 19110 H 1749.6 6.12745 2.03012 0
M  V30 19111 H 1750.36 8.07792 1.31964 0
M  V30 19112 N 1753.03 -0.787016 1.36542 0
M  V30 19113 C 1753.96 -1.90844 1.26931 0
M  V30 19114 C 1754.97 -1.61707 0.188293 0
M  V30 19115 O 1756.16 -1.7291 0.443205 0
M  V30 19116 C 1753.26 -3.25709 0.936305 0
M  V30 19117 C 1752.43 -3.82607 2.11969 0
M  V30 19118 C 1751.49 -4.95916 1.75937 0
M  V30 19119 O 1750.52 -5.12307 2.48053 0
M  V30 19120 N 1751.72 -5.76331 0.694461 0
M  V30 19121 H 1754.49 -1.9961 2.23553 0
M  V30 19122 H 1752.05 -0.965401 1.29968 0
M  V30 19123 H 1754.04 -3.99008 0.676378 0
M  V30 19124 H 1752.61 -3.12544 0.0591364 0
M  V30 19125 H 1751.83 -3.01267 2.54227 0
M  V30 19126 H 1753.12 -4.17352 2.91024 0
M  V30 19127 H 1752.51 -5.65619 0.0957046 0
M  V30 19128 H 1751.07 -6.49923 0.494363 0
M  V30 19129 N 1754.5 -1.20861 -1.01145 0
M  V30 19130 C 1755.73 -1.04769 -1.78413 0
M  V30 19131 C 1756.15 0.402846 -1.84452 0
M  V30 19132 O 1755.5 1.27962 -1.30123 0
M  V30 19133 C 1755.56 -1.63065 -3.22633 0
M  V30 19134 O 1755.28 -3.02443 -3.16954 0
M  V30 19135 C 1756.78 -1.51996 -4.16428 0
M  V30 19136 H 1754 -0.368271 -0.560908 0
M  V30 19137 H 1756.54 -1.6006 -1.27283 0
M  V30 19138 H 1754.7 -1.11882 -3.70892 0
M  V30 19139 H 1755.11 -3.30199 -4.07515 0
M  V30 19140 H 1756.58 -1.97539 -5.15444 0
M  V30 19141 H 1757.06 -0.473305 -4.36642 0
M  V30 19142 H 1757.67 -2.02396 -3.74054 0
M  V30 19143 N 1755.98 1.20536 -1.01532 0
M  V30 19144 C 1757.39 1.71594 -0.735687 0
M  V30 19145 C 1757.74 1.81469 0.745873 0
M  V30 19146 O 1756.87 1.47638 1.58215 0
M  V30 19147 C 1757.46 3.11654 -1.3288 0
M  V30 19148 C 1756.02 3.60027 -1.09806 0
M  V30 19149 C 1755.17 2.37266 -1.43528 0
M  V30 19150 H 1758.12 1.05568 -1.18495 0
M  V30 19151 H 1758.14 3.7365 -0.718725 0
M  V30 19152 H 1757.65 3.04434 -2.4071 0
M  V30 19153 H 1755.76 3.72581 -0.0373763 0
M  V30 19154 H 1755.87 4.44918 -1.77722 0
M  V30 19155 H 1754.23 2.39947 -0.854268 0
M  V30 19156 H 1755.02 2.32688 -2.5241 0
M  V30 19157 N 1757.46 0.791395 1.36289 0
M  V30 19158 C 1758.41 0.189246 2.30023 0
M  V30 19159 C 1759.38 -0.668045 1.52074 0
M  V30 19160 O 1760.56 -0.61631 1.80572 0
M  V30 19161 C 1757.7 -0.668391 3.38565 0
M  V30 19162 C 1756.82 0.207659 4.31501 0
M  V30 19163 C 1755.95 -0.656539 5.27127 0
M  V30 19164 C 1754.99 0.220845 6.11701 0
M  V30 19165 N 1754.13 -0.602449 6.99511 0
M  V30 19166 H 1758.97 0.994038 2.80932 0
M  V30 19167 H 1756.5 0.501759 1.38278 0
M  V30 19168 H 1758.46 -1.18064 4.00146 0
M  V30 19169 H 1757.09 -1.43859 2.88971 0
M  V30 19170 H 1756.14 0.837894 3.71057 0
M  V30 19171 H 1757.46 0.883613 4.90911 0
M  V30 19172 H 1756.61 -1.23452 5.94007 0
M  V30 19173 H 1755.35 -1.36611 4.68176 0
M  V30 19174 H 1754.35 0.811214 5.43782 0
M  V30 19175 H 1755.58 0.928049 6.72729 0
M  V30 19176 H 1753.52 -1.29628 6.43065 0
M  V30 19177 H 1753.44 0.015783 7.55998 0
M  V30 19178 H 1754.71 -1.16419 7.70757 0
M  V30 19179 N 1758.94 -1.47929 0.54358 0
M  V30 19180 C 1759.89 -2.29827 -0.211706 0
M  V30 19181 C 1760.86 -1.38217 -0.921154 0
M  V30 19182 O 1762.04 -1.67181 -0.919522 0
M  V30 19183 C 1759.18 -3.21889 -1.24425 0
M  V30 19184 C 1758.29 -4.28583 -0.542264 0
M  V30 19185 C 1757.43 -5.0781 -1.55892 0
M  V30 19186 C 1756.47 -6.06293 -0.841146 0
M  V30 19187 N 1755.61 -6.78528 -1.80399 0
M  V30 19188 H 1760.45 -2.93896 0.492835 0
M  V30 19189 H 1757.98 -1.44875 0.254873 0
M  V30 19190 H 1759.94 -3.73674 -1.85535 0
M  V30 19191 H 1758.57 -2.59713 -1.917 0
M  V30 19192 H 1757.62 -3.79959 0.183069 0
M  V30 19193 H 1758.93 -4.98796 0.0206703 0
M  V30 19194 H 1758.09 -5.63678 -2.24393 0
M  V30 19195 H 1756.83 -4.37468 -2.15576 0
M  V30 19196 H 1755.83 -5.49616 -0.14214 0
M  V30 19197 H 1757.06 -6.78639 -0.250232 0
M  V30 19198 H 1755 -6.10927 -2.38965 0
M  V30 19199 H 1754.92 -7.44863 -1.29285 0
M  V30 19200 H 1756.19 -7.38978 -2.48056 0
M  V30 19201 N 1760.42 -0.27936 -1.55104 0
M  V30 19202 C 1761.35 0.64773 -2.18814 0
M  V30 19203 C 1762.33 1.14907 -1.15044 0
M  V30 19204 O 1763.51 1.22126 -1.43588 0
M  V30 19205 C 1760.64 1.88383 -2.81477 0
M  V30 19206 C 1759.69 1.51761 -3.98586 0
M  V30 19207 S 1760.52 0.592119 -5.32216 0
M  V30 19208 C 1761.67 1.8365 -5.98351 0
M  V30 19209 H 1761.91 0.10641 -2.9711 0
M  V30 19210 H 1759.44 -0.0635953 -1.54269 0
M  V30 19211 H 1761.4 2.5933 -3.18211 0
M  V30 19212 H 1760.06 2.39629 -2.03068 0
M  V30 19213 H 1759.25 2.43751 -4.41137 0
M  V30 19214 H 1758.85 0.88828 -3.63298 0
M  V30 19215 H 1761.15 2.77989 -6.17842 0
M  V30 19216 H 1762.09 1.45393 -6.93013 0
M  V30 19217 H 1762.5 2.00337 -5.27755 0
M  V30 19218 N 1761.9 1.57599 -0.0067085 0
M  V30 19219 C 1762.84 2.09973 1.00071 0
M  V30 19220 C 1763.84 1.02121 1.35158 0
M  V30 19221 O 1765.04 1.20579 1.33644 0
M  V30 19222 H 1761.42 0.670547 0.340398 0
M  V30 19223 H 1763.39 2.93593 0.533471 0
M  V30 19224 C 1762.14 2.62376 2.28153 0
M  V30 19225 H 1761.46 3.45002 2.02024 0
M  V30 19226 H 1762.9 3.02694 2.96905 0
M  V30 19227 C 1761.36 1.54093 2.99595 0
M  V30 19228 O 1761.89 0.927722 3.9084 0
M  V30 19229 N 1760.1 1.26676 2.61537 0
M  V30 19230 H 1759.64 1.76728 1.87417 0
M  V30 19231 H 1759.6 0.544464 3.0965 0
M  V30 19232 N 1763.37 -0.266145 1.55336 0
M  V30 19233 C 1764.32 -1.349 1.89485 0
M  V30 19234 C 1765.32 -1.50792 0.771882 0
M  V30 19235 O 1766.52 -1.52495 0.956302 0
M  V30 19236 H 1762.9 -0.451312 0.601516 0
M  V30 19237 H 1764.87 -1.03354 2.7993 0
M  V30 19238 C 1763.62 -2.70119 2.18931 0
M  V30 19239 H 1762.94 -2.58684 3.04832 0
M  V30 19240 H 1764.38 -3.44811 2.46742 0
M  V30 19241 C 1762.84 -3.21742 0.999177 0
M  V30 19242 O 1763.37 -4.00998 0.237304 0
M  V30 19243 N 1761.57 -2.79514 0.795013 0
M  V30 19244 H 1761.12 -2.15175 1.41625 0
M  V30 19245 H 1761.08 -3.144 0.000343733 0
M  V30 19246 N 1764.85 -1.48386 -0.530967 0
M  V30 19247 C 1766.1 -1.56585 -1.28875 0
M  V30 19248 C 1766.43 -0.238583 -1.92729 0
M  V30 19249 O 1765.71 0.75533 -1.79235 0
M  V30 19250 C 1765.99 -2.70338 -2.37886 0
M  V30 19251 C 1765.84 -4.12766 -1.78729 0
M  V30 19252 C 1767.16 -2.79857 -3.39659 0
M  V30 19253 H 1764.28 -0.569986 -0.46721 0
M  V30 19254 H 1766.92 -1.80555 -0.591596 0
M  V30 19255 H 1765.07 -2.50031 -2.9735 0
M  V30 19256 H 1766.74 -4.4451 -1.23324 0
M  V30 19257 H 1764.99 -4.19813 -1.09269 0
M  V30 19258 H 1765.66 -4.88178 -2.57655 0
M  V30 19259 H 1768.13 -2.9825 -2.90149 0
M  V30 19260 H 1767.01 -3.61179 -4.13329 0
M  V30 19261 H 1767.27 -1.87974 -4.00148 0
M  V30 19262 N 1766.33 0.779763 -1.36958 0
M  V30 19263 C 1767.56 1.56648 -1.34704 0
M  V30 19264 C 1767.97 1.89065 0.071459 0
M  V30 19265 O 1767.31 1.51325 1.04146 0
M  V30 19266 C 1767.37 2.90862 -2.11281 0
M  V30 19267 C 1767.04 2.81123 -3.60304 0
M  V30 19268 C 1768.03 2.52702 -4.54354 0
M  V30 19269 C 1765.72 2.99397 -4.0332 0
M  V30 19270 C 1767.71 2.42671 -5.89398 0
M  V30 19271 C 1765.4 2.88987 -5.38451 0
M  V30 19272 C 1766.4 2.60663 -6.31303 0
M  V30 19273 O 1766.09 2.50264 -7.63952 0
M  V30 19274 H 1765.82 0.492209 -0.463364 0
M  V30 19275 H 1768.37 0.974946 -1.80787 0
M  V30 19276 H 1766.6 3.52104 -1.59875 0
M  V30 19277 H 1768.29 3.52203 -2.01762 0
M  V30 19278 H 1769.06 2.38277 -4.22432 0
M  V30 19279 H 1764.94 3.20446 -3.31414 0
M  V30 19280 H 1768.48 2.20484 -6.6184 0
M  V30 19281 H 1764.38 3.02977 -5.69978 0
M  V30 19282 H 1765.14 2.65674 -7.74183 0
M  V30 19283 N 1767.81 1.21396 1.00503 0
M  V30 19284 C 1768.72 0.989221 2.12724 0
M  V30 19285 C 1769.73 -0.0586646 1.73901 0
M  V30 19286 O 1770.91 0.131377 2.00971 0
M  V30 19287 C 1767.97 0.556731 3.42201 0
M  V30 19288 C 1767.04 1.67683 3.95197 0
M  V30 19289 C 1766.27 1.26488 5.18494 0
M  V30 19290 O 1766.49 0.13847 5.70232 0
M  V30 19291 O 1765.43 2.07678 5.64937 0
M  V30 19292 H 1769.25 1.92913 2.3456 0
M  V30 19293 H 1766.84 0.998837 1.11102 0
M  V30 19294 H 1768.72 0.325327 4.20142 0
M  V30 19295 H 1767.39 -0.354457 3.21753 0
M  V30 19296 H 1766.3 1.96263 3.18483 0
M  V30 19297 H 1767.63 2.56544 4.20055 0
M  V30 19298 N 1769.29 -1.19996 1.0217 0
M  V30 19299 C 1770.2 -2.26634 0.606136 0
M  V30 19300 C 1771.21 -1.70262 -0.358746 0
M  V30 19301 O 1772.39 -2.00212 -0.218422 0
M  V30 19302 C 1769.45 -3.46672 -0.0439096 0
M  V30 19303 C 1768.51 -4.18254 0.967563 0
M  V30 19304 C 1767.75 -5.32561 0.348443 0
M  V30 19305 O 1767.97 -5.64024 -0.850508 0
M  V30 19306 O 1766.9 -5.92354 1.06772 0
M  V30 19307 H 1770.73 -2.64407 1.49407 0
M  V30 19308 H 1768.31 -1.26712 0.791483 0
M  V30 19309 H 1770.2 -4.19433 -0.406714 0
M  V30 19310 H 1768.87 -3.10764 -0.90596 0
M  V30 19311 H 1767.78 -3.47644 1.38183 0
M  V30 19312 H 1769.11 -4.58116 1.79975 0
M  V30 19313 N 1770.76 -0.798611 -1.35867 0
M  V30 19314 C 1771.67 -0.204758 -2.33705 0
M  V30 19315 C 1772.69 0.648001 -1.61484 0
M  V30 19316 O 1773.87 0.561628 -1.93411 0
M  V30 19317 C 1770.93 0.643225 -3.40681 0
M  V30 19318 C 1769.99 -0.229099 -4.28688 0
M  V30 19319 C 1769.22 0.578508 -5.30555 0
M  V30 19320 O 1769.45 1.81382 -5.40793 0
M  V30 19321 O 1768.38 -0.0264291 -6.01894 0
M  V30 19322 H 1772.21 -1.01392 -2.86275 0
M  V30 19323 H 1769.79 -0.560242 -1.38498 0
M  V30 19324 H 1771.67 1.12648 -4.06065 0
M  V30 19325 H 1770.35 1.43012 -2.90395 0
M  V30 19326 H 1769.26 -0.759314 -3.66313 0
M  V30 19327 H 1770.59 -0.979736 -4.82351 0
M  V30 19328 N 1772.24 1.47639 -0.551417 0
M  V30 19329 C 1773.49 2.02784 -0.0252425 0
M  V30 19330 C 1773.82 1.42549 1.31884 0
M  V30 19331 O 1773.1 0.578954 1.85684 0
M  V30 19332 C 1773.38 3.60024 0.0740051 0
M  V30 19333 C 1773.23 4.30702 -1.29676 0
M  V30 19334 C 1774.55 4.32946 0.790302 0
M  V30 19335 H 1771.67 0.736923 -0.0106473 0
M  V30 19336 H 1774.31 1.76131 -0.712589 0
M  V30 19337 H 1772.46 3.82863 0.65939 0
M  V30 19338 H 1774.13 4.1922 -1.9249 0
M  V30 19339 H 1772.38 3.91282 -1.87299 0
M  V30 19340 H 1773.05 5.39238 -1.18009 0
M  V30 19341 H 1775.52 4.15065 0.293326 0
M  V30 19342 H 1774.4 5.42608 0.828692 0
M  V30 19343 H 1774.66 4.01752 1.84521 0
M  V30 19344 N 1773.72 0.287581 1.54954 0
M  V30 19345 C 1774.67 -0.594449 2.23013 0
M  V30 19346 C 1775.64 -1.14007 1.20795 0
M  V30 19347 O 1776.82 -1.18708 1.49376 0
M  V30 19348 C 1773.96 -1.76687 2.96439 0
M  V30 19349 C 1773.08 -1.25391 4.13402 0
M  V30 19350 C 1772.21 -2.38912 4.74441 0
M  V30 19351 C 1771.25 -1.84683 5.83574 0
M  V30 19352 N 1770.39 -2.91725 6.38624 0
M  V30 19353 H 1775.23 -0.00743921 2.97999 0
M  V30 19354 H 1772.76 0.00809578 1.47098 0
M  V30 19355 H 1774.72 -2.45621 3.37233 0
M  V30 19356 H 1773.35 -2.32571 2.23853 0
M  V30 19357 H 1772.4 -0.45726 3.77642 0
M  V30 19358 H 1773.72 -0.816813 4.92067 0
M  V30 19359 H 1772.87 -3.15818 5.18019 0
M  V30 19360 H 1771.61 -2.85943 3.95079 0
M  V30 19361 H 1770.61 -1.06261 5.39434 0
M  V30 19362 H 1771.84 -1.38572 6.64812 0
M  V30 19363 H 1769.78 -3.38115 5.62152 0
M  V30 19364 H 1769.7 -2.5247 7.12597 0
M  V30 19365 H 1770.97 -3.68569 6.86861 0
M  V30 19366 N 1775.2 -1.57593 0.0150662 0
M  V30 19367 C 1776.13 -2.06239 -0.999912 0
M  V30 19368 C 1777.14 -0.983112 -1.29764 0
M  V30 19369 O 1778.33 -1.25961 -1.26476 0
M  V30 19370 C 1775.43 -2.46011 -2.33092 0
M  V30 19371 C 1774.61 -3.76851 -2.2204 0
M  V30 19372 C 1773.66 -4.03326 -3.37956 0
M  V30 19373 O 1772.69 -4.73781 -3.15469 0
M  V30 19374 N 1773.89 -3.52399 -4.61298 0
M  V30 19375 H 1776.66 -2.93936 -0.584952 0
M  V30 19376 H 1774.22 -1.60984 -0.172001 0
M  V30 19377 H 1776.21 -2.60825 -3.09439 0
M  V30 19378 H 1774.78 -1.63753 -2.66277 0
M  V30 19379 H 1774 -3.71969 -1.30509 0
M  V30 19380 H 1775.29 -4.626 -2.11845 0
M  V30 19381 H 1774.69 -2.95374 -4.82463 0
M  V30 19382 H 1773.24 -3.72516 -5.3486 0
M  V30 19383 N 1776.68 0.257904 -1.55475 0
M  V30 19384 C 1777.59 1.34084 -1.92506 0
M  V30 19385 C 1778.6 1.53246 -0.824123 0
M  V30 19386 O 1779.78 1.67081 -1.12455 0
M  V30 19387 C 1776.84 2.67741 -2.20263 0
M  V30 19388 C 1775.9 2.57196 -3.43728 0
M  V30 19389 C 1775.14 3.84479 -3.7015 0
M  V30 19390 O 1775.36 4.85858 -2.98827 0
M  V30 19391 O 1774.29 3.83774 -4.63682 0
M  V30 19392 H 1778.12 1.05672 -2.84723 0
M  V30 19393 H 1775.71 0.457726 -1.42215 0
M  V30 19394 H 1777.59 3.46743 -2.39473 0
M  V30 19395 H 1776.26 2.95907 -1.31227 0
M  V30 19396 H 1775.17 1.76518 -3.29837 0
M  V30 19397 H 1776.5 2.33977 -4.33031 0
M  V30 19398 N 1778.15 1.48666 0.52309 0
M  V30 19399 C 1779.4 1.57034 1.27854 0
M  V30 19400 C 1779.73 0.247256 1.92922 0
M  V30 19401 O 1778.98 -0.763049 1.80211 0
M  V30 19402 C 1779.28 2.66247 2.38426 0
M  V30 19403 C 1778.95 4.08464 1.90965 0
M  V30 19404 C 1777.61 4.47171 1.77739 0
M  V30 19405 C 1779.96 4.97562 1.55184 0
M  V30 19406 C 1777.29 5.72772 1.27077 0
M  V30 19407 C 1779.64 6.23659 1.05982 0
M  V30 19408 C 1778.31 6.61216 0.913782 0
M  V30 19409 H 1777.58 0.574628 0.46785 0
M  V30 19410 H 1780.22 1.82411 0.582961 0
M  V30 19411 H 1778.53 2.34756 3.13682 0
M  V30 19412 H 1780.23 2.69936 2.9654 0
M  V30 19413 H 1776.82 3.779 2.02212 0
M  V30 19414 H 1781 4.6833 1.64259 0
M  V30 19415 H 1776.26 6.0059 1.14464 0
M  V30 19416 H 1780.43 6.92089 0.773684 0
M  V30 19417 H 1778.06 7.58426 0.519021 0
M  V30 19418 N 1779.63 -0.772489 1.37369 0
M  V30 19419 C 1780.86 -1.55931 1.35532 0
M  V30 19420 C 1781.27 -1.891 -0.0614314 0
M  V30 19421 O 1780.61 -1.51876 -1.03342 0
M  V30 19422 C 1780.68 -2.89737 2.1282 0
M  V30 19423 C 1780.34 -2.79208 3.6179 0
M  V30 19424 C 1781.34 -2.50289 4.55688 0
M  V30 19425 C 1779.02 -2.97253 4.04902 0
M  V30 19426 C 1781.02 -2.39542 5.90676 0
M  V30 19427 C 1778.7 -2.86127 5.39976 0
M  V30 19428 C 1779.7 -2.57311 6.32677 0
M  V30 19429 O 1779.39 -2.4621 7.65269 0
M  V30 19430 H 1779.12 -0.489744 0.465968 0
M  V30 19431 H 1781.67 -0.965344 1.81302 0
M  V30 19432 H 1779.9 -3.51251 1.6174 0
M  V30 19433 H 1781.59 -3.51128 2.03627 0
M  V30 19434 H 1782.36 -2.36034 4.2369 0
M  V30 19435 H 1778.24 -3.18684 3.33109 0
M  V30 19436 H 1781.78 -2.16971 6.63 0
M  V30 19437 H 1777.68 -2.9995 5.71577 0
M  V30 19438 H 1778.45 -2.61564 7.75581 0
M  V30 19439 N 1781.11 -1.21927 -0.998575 0
M  V30 19440 C 1782.04 -1.00845 -2.106 0
M  V30 19441 C 1783.02 0.068733 -1.69961 0
M  V30 19442 O 1784.21 -0.0923686 -1.9398 0
M  V30 19443 C 1781.34 -0.57929 -3.42435 0
M  V30 19444 C 1780.29 -1.60177 -3.96897 0
M  V30 19445 C 1779.62 -1.02863 -5.24713 0
M  V30 19446 C 1780.92 -2.9903 -4.28227 0
M  V30 19447 H 1782.61 -1.93469 -2.28495 0
M  V30 19448 H 1780.16 -0.931612 -1.09804 0
M  V30 19449 H 1782.11 -0.418944 -4.19312 0
M  V30 19450 H 1780.83 0.382608 -3.24351 0
M  V30 19451 H 1779.49 -1.74979 -3.22146 0
M  V30 19452 H 1779.14 -0.058254 -5.02966 0
M  V30 19453 H 1778.84 -1.71166 -5.62117 0
M  V30 19454 H 1780.36 -0.879743 -6.04229 0
M  V30 19455 H 1781.78 -2.87634 -4.95923 0
M  V30 19456 H 1780.18 -3.64404 -4.76791 0
M  V30 19457 H 1781.25 -3.4939 -3.36236 0
M  V30 19458 N 1782.59 1.19452 -1.02805 0
M  V30 19459 C 1783.83 1.89394 -0.725101 0
M  V30 19460 C 1784.17 1.79368 0.744361 0
M  V30 19461 O 1783.44 1.18548 1.54196 0
M  V30 19462 C 1783.73 3.40361 -1.17586 0
M  V30 19463 C 1783.58 3.59263 -2.70648 0
M  V30 19464 C 1784.9 4.33558 -0.756011 0
M  V30 19465 H 1782.02 0.687753 -0.264887 0
M  V30 19466 H 1784.66 1.40611 -1.27783 0
M  V30 19467 H 1782.81 3.82038 -0.70561 0
M  V30 19468 H 1784.48 3.26762 -3.25614 0
M  V30 19469 H 1782.72 3.02344 -3.1108 0
M  V30 19470 H 1783.39 4.65135 -2.97244 0
M  V30 19471 H 1785.87 3.9959 -1.16046 0
M  V30 19472 H 1784.75 5.37779 -1.09931 0
M  V30 19473 H 1785.01 4.40778 0.341677 0
M  V30 19474 N 1784.07 0.805805 1.35442 0
M  V30 19475 C 1785.31 0.385046 1.98398 0
M  V30 19476 C 1785.64 -1.05114 1.64244 0
M  V30 19477 O 1784.91 -1.72711 0.924532 0
M  V30 19478 H 1783.49 0.139386 0.733881 0
M  V30 19479 H 1786.15 1.03147 1.65368 0
M  V30 19480 H 1785.24 0.490126 3.08227 0
M  V30 19481 N 1785.54 -1.47344 0.559239 0
M  V30 19482 C 1786.96 -1.86272 0.126394 0
M  V30 19483 C 1787.31 -1.46563 -1.30437 0
M  V30 19484 O 1786.43 -0.869624 -1.98158 0
M  V30 19485 C 1787.03 -3.38068 0.222602 0
M  V30 19486 C 1785.59 -3.7608 -0.155219 0
M  V30 19487 C 1784.73 -2.71394 0.569244 0
M  V30 19488 H 1787.68 -1.38833 0.768845 0
M  V30 19489 H 1787.7 -3.76382 -0.558262 0
M  V30 19490 H 1787.22 -3.66938 1.26404 0
M  V30 19491 H 1785.32 -3.52826 -1.19768 0
M  V30 19492 H 1785.43 -4.78662 0.204756 0
M  V30 19493 H 1783.79 -2.54697 0.0120996 0
M  V30 19494 H 1784.58 -3.03107 1.61187 0
M  V30 19495 N 1787.02 -0.295795 -1.54799 0
M  V30 19496 C 1787.93 0.592206 -2.27002 0
M  V30 19497 C 1788.95 1.1528 -1.30332 0
M  V30 19498 O 1790.12 1.1787 -1.63305 0
M  V30 19499 C 1787.19 1.75027 -2.99277 0
M  V30 19500 C 1786.25 1.22427 -4.11473 0
M  V30 19501 C 1785.48 2.32714 -4.80291 0
M  V30 19502 O 1785.71 3.52506 -4.48437 0
M  V30 19503 O 1784.64 1.997 -5.67806 0
M  V30 19504 H 1788.47 0.00666048 -3.03699 0
M  V30 19505 H 1786.05 -0.0624413 -1.49269 0
M  V30 19506 H 1787.93 2.42508 -3.44627 0
M  V30 19507 H 1786.61 2.32252 -2.25479 0
M  V30 19508 H 1785.52 0.515337 -3.70534 0
M  V30 19509 H 1786.85 0.697518 -4.87233 0
M  V30 19510 N 1788.5 1.57583 -0.0234236 0
M  V30 19511 C 1789.75 1.91848 0.657422 0
M  V30 19512 C 1790.08 0.899633 1.72105 0
M  V30 19513 O 1789.36 -0.0784409 1.94342 0
M  V30 19514 C 1789.64 3.36617 1.2791 0
M  V30 19515 C 1789.49 4.49235 0.225421 0
M  V30 19516 C 1790.81 3.81239 2.19874 0
M  V30 19517 H 1787.93 0.697677 0.23752 0
M  V30 19518 H 1790.57 1.89834 -0.0795169 0
M  V30 19519 H 1788.72 3.38465 1.90719 0
M  V30 19520 H 1790.39 4.59521 -0.404792 0
M  V30 19521 H 1788.64 4.31462 -0.449749 0
M  V30 19522 H 1789.31 5.47545 0.699906 0
M  V30 19523 H 1791.78 3.81092 1.67058 0
M  V30 19524 H 1790.66 4.8324 2.60328 0
M  V30 19525 H 1790.92 3.16421 3.08755 0
M  V30 19526 N 1789.98 -0.249655 1.5561 0
M  V30 19527 C 1791.2 -0.999931 1.81703 0
M  V30 19528 C 1791.63 -1.7827 0.600113 0
M  V30 19529 O 1790.99 -1.75606 -0.450799 0
M  V30 19530 C 1791.04 -1.9157 3.05505 0
M  V30 19531 O 1790.14 -3.00702 2.82227 0
M  V30 19532 H 1789.48 -0.284673 0.599881 0
M  V30 19533 H 1792.01 -0.27148 2.02791 0
M  V30 19534 H 1792.02 -2.33088 3.34864 0
M  V30 19535 H 1790.7 -1.34014 3.93717 0
M  V30 19536 H 1789.27 -2.63332 2.64027 0
M  V30 19537 N 1791.46 -1.48941 -0.515198 0
M  V30 19538 C 1792.87 -1.51076 -1.09695 0
M  V30 19539 C 1793.22 -0.288875 -1.94062 0
M  V30 19540 O 1792.34 0.602665 -2.07839 0
M  V30 19541 C 1792.94 -2.73755 -1.99609 0
M  V30 19542 C 1791.5 -2.78714 -2.52974 0
M  V30 19543 C 1790.65 -2.44798 -1.30266 0
M  V30 19544 H 1793.6 -1.55843 -0.299757 0
M  V30 19545 H 1793.62 -2.53112 -2.84103 0
M  V30 19546 H 1793.13 -3.62668 -1.38178 0
M  V30 19547 H 1791.23 -1.94045 -3.18084 0
M  V30 19548 H 1791.34 -3.80525 -2.91097 0
M  V30 19549 H 1789.71 -1.9627 -1.62327 0
M  V30 19550 H 1790.49 -3.35969 -0.705648 0
M  V30 19551 N 1792.94 0.765193 -1.37777 0
M  V30 19552 C 1793.88 1.87866 -1.34071 0
M  V30 19553 C 1794.85 1.64828 -0.205154 0
M  V30 19554 O 1796.04 1.86655 -0.395555 0
M  V30 19555 C 1793.18 3.25018 -1.16006 0
M  V30 19556 C 1792.29 3.59966 -2.38848 0
M  V30 19557 C 1791.43 4.8636 -2.13605 0
M  V30 19558 C 1790.46 5.14059 -3.32279 0
M  V30 19559 N 1789.6 6.31644 -3.06545 0
M  V30 19560 H 1794.44 1.90369 -2.29267 0
M  V30 19561 H 1791.98 0.930625 -1.1392 0
M  V30 19562 H 1793.94 4.04145 -1.03552 0
M  V30 19563 H 1792.57 3.21872 -0.24454 0
M  V30 19564 H 1791.62 2.75773 -2.62018 0
M  V30 19565 H 1792.93 3.76369 -3.27334 0
M  V30 19566 H 1792.08 5.73406 -1.9822 0
M  V30 19567 H 1790.82 4.72073 -1.22467 0
M  V30 19568 H 1789.83 4.25487 -3.48196 0
M  V30 19569 H 1791.05 5.30251 -4.24277 0
M  V30 19570 H 1789 6.18703 -2.18043 0
M  V30 19571 H 1788.92 6.48494 -3.88576 0
M  V30 19572 H 1790.18 7.21608 -2.94791 0
M  V30 19573 N 1794.41 1.22455 0.992094 0
M  V30 19574 C 1795.35 0.953144 2.08441 0
M  V30 19575 C 1796.36 -0.0685432 1.62656 0
M  V30 19576 O 1797.55 0.165561 1.77731 0
M  V30 19577 C 1794.65 0.412046 3.36386 0
M  V30 19578 C 1793.82 1.49114 4.11198 0
M  V30 19579 C 1792.88 0.956984 5.17425 0
M  V30 19580 O 1791.91 1.64337 5.44961 0
M  V30 19581 N 1793.11 -0.221205 5.80078 0
M  V30 19582 H 1795.87 1.89353 2.32305 0
M  V30 19583 H 1793.43 1.13155 1.15791 0
M  V30 19584 H 1795.43 0.0400033 4.0468 0
M  V30 19585 H 1794 -0.433473 3.0958 0
M  V30 19586 H 1793.22 2.03647 3.37523 0
M  V30 19587 H 1794.5 2.21716 4.57951 0
M  V30 19588 H 1793.9 -0.795642 5.60077 0
M  V30 19589 H 1792.46 -0.534625 6.49604 0
M  V30 19590 N 1795.89 -1.18905 1.03437 0
M  V30 19591 C 1796.84 -2.22318 0.619933 0
M  V30 19592 C 1797.81 -1.61948 -0.369056 0
M  V30 19593 O 1798.99 -1.88958 -0.26447 0
M  V30 19594 C 1796.13 -3.45096 -0.0174579 0
M  V30 19595 C 1795.25 -4.19829 1.01823 0
M  V30 19596 C 1794.38 -5.30046 0.350026 0
M  V30 19597 C 1793.42 -5.96543 1.37125 0
M  V30 19598 N 1792.56 -6.98311 0.728458 0
M  V30 19599 H 1797.4 -2.57125 1.50634 0
M  V30 19600 H 1794.93 -1.26324 0.753695 0
M  V30 19601 H 1796.89 -4.15236 -0.404294 0
M  V30 19602 H 1795.52 -3.10927 -0.867412 0
M  V30 19603 H 1794.57 -3.48578 1.52308 0
M  V30 19604 H 1795.89 -4.65415 1.79416 0
M  V30 19605 H 1795.04 -6.06631 -0.0913585 0
M  V30 19606 H 1793.78 -4.85544 -0.458049 0
M  V30 19607 H 1792.78 -5.18703 1.82284 0
M  V30 19608 H 1794.01 -6.43127 2.18091 0
M  V30 19609 H 1791.96 -6.55973 -0.0594251 0
M  V30 19610 H 1791.87 -7.42117 1.44218 0
M  V30 19611 H 1793.14 -7.78878 0.311259 0
M  V30 19612 N 1797.37 -0.812977 -1.35013 0
M  V30 19613 C 1798.59 -0.407969 -2.03348 0
M  V30 19614 C 1799.02 0.975148 -1.60849 0
M  V30 19615 O 1798.38 1.63267 -0.788256 0
M  V30 19616 C 1798.43 -0.506754 -3.57022 0
M  V30 19617 O 1797.53 0.477322 -4.09628 0
M  V30 19618 H 1796.87 -0.169416 -0.642023 0
M  V30 19619 H 1799.4 -1.10064 -1.72474 0
M  V30 19620 H 1799.41 -0.378883 -4.06237 0
M  V30 19621 H 1798.09 -1.51557 -3.87302 0
M  V30 19622 H 1796.66 0.309161 -3.71616 0
M  V30 19623 N 1798.85 1.47045 -0.567045 0
M  V30 19624 C 1800.09 2.02746 -0.046749 0
M  V30 19625 C 1800.43 1.4394 1.30364 0
M  V30 19626 O 1799.7 0.598616 1.85059 0
M  V30 19627 C 1799.98 3.60082 0.0358156 0
M  V30 19628 C 1799.84 4.29302 -1.34237 0
M  V30 19629 C 1801.16 4.3376 0.744338 0
M  V30 19630 H 1798.28 0.736769 -0.0184627 0
M  V30 19631 H 1800.92 1.75365 -0.73123 0
M  V30 19632 H 1799.07 3.83541 0.618745 0
M  V30 19633 H 1800.74 4.17155 -1.96926 0
M  V30 19634 H 1798.98 3.89273 -1.91439 0
M  V30 19635 H 1799.65 5.37956 -1.23722 0
M  V30 19636 H 1802.13 4.15353 0.249287 0
M  V30 19637 H 1801.01 5.43457 0.771095 0
M  V30 19638 H 1801.27 4.03686 1.80249 0
M  V30 19639 N 1800.33 0.304 1.5464 0
M  V30 19640 C 1801.27 -0.570762 2.23631 0
M  V30 19641 C 1802.24 -1.1272 1.21998 0
M  V30 19642 O 1803.43 -1.17117 1.50626 0
M  V30 19643 C 1800.57 -1.73533 2.98296 0
M  V30 19644 C 1799.68 -1.21 4.14708 0
M  V30 19645 C 1798.82 -2.33867 4.76948 0
M  V30 19646 C 1797.85 -1.78483 5.855 0
M  V30 19647 N 1796.99 -2.84935 6.41682 0
M  V30 19648 H 1801.83 0.024168 2.9799 0
M  V30 19649 H 1799.37 0.023697 1.47081 0
M  V30 19650 H 1801.33 -2.42031 3.39819 0
M  V30 19651 H 1799.96 -2.30184 2.26308 0
M  V30 19652 H 1799.01 -0.41718 3.78105 0
M  V30 19653 H 1800.32 -0.764576 4.92905 0
M  V30 19654 H 1799.47 -3.10306 5.21339 0
M  V30 19655 H 1798.21 -2.81737 3.9809 0
M  V30 19656 H 1797.22 -1.00534 5.4053 0
M  V30 19657 H 1798.44 -1.31513 6.66244 0
M  V30 19658 H 1796.39 -3.32133 5.65706 0
M  V30 19659 H 1796.31 -2.44898 7.15235 0
M  V30 19660 H 1797.57 -3.61263 6.90731 0
M  V30 19661 N 1801.8 -1.57568 0.0317802 0
M  V30 19662 C 1803.08 -1.8321 -0.685081 0
M  V30 19663 C 1803.46 -0.91624 -1.9018 0
M  V30 19664 O 1802.81 0.0275043 -2.28483 0
M  V30 19665 C 1803.02 -3.32488 -1.06078 0
M  V30 19666 C 1804.37 -3.99027 -1.45129 0
M  V30 19667 O 1805.39 -3.36999 -1.15368 0
M  V30 19668 O 1804.25 -5.08355 -2.00592 0
M  V30 19669 H 1801.34 -0.755517 -0.336337 0
M  V30 19670 H 1803.89 -1.69595 0.0596652 0
M  V30 19671 H 1802.66 -3.90814 -0.194918 0
M  V30 19672 H 1802.28 -3.5122 -1.8636 0
M  V30 19673 N 1803.28 0.241399 -1.5574 0
M  V30 19674 C 1804.21 1.30255 -1.93793 0
M  V30 19675 C 1805.19 1.49923 -0.803563 0
M  V30 19676 O 1806.38 1.62439 -1.06429 0
M  V30 19677 C 1803.51 2.65625 -2.23742 0
M  V30 19678 C 1802.46 2.60645 -3.39483 0
M  V30 19679 C 1801.79 3.99861 -3.54986 0
M  V30 19680 C 1803.09 2.17151 -4.75019 0
M  V30 19681 H 1804.78 0.986532 -2.8268 0
M  V30 19682 H 1802.33 0.473125 -1.36006 0
M  V30 19683 H 1804.28 3.40001 -2.48953 0
M  V30 19684 H 1803.01 2.98874 -1.31688 0
M  V30 19685 H 1801.66 1.88727 -3.14289 0
M  V30 19686 H 1801.31 4.30385 -2.60342 0
M  V30 19687 H 1801.01 3.97415 -4.32822 0
M  V30 19688 H 1802.54 4.75928 -3.82524 0
M  V30 19689 H 1803.95 2.8126 -4.99565 0
M  V30 19690 H 1802.35 2.25805 -5.55996 0
M  V30 19691 H 1803.42 1.12329 -4.7171 0
M  V30 19692 N 1804.76 1.49212 0.507292 0
M  V30 19693 C 1805.67 1.68141 1.63603 0
M  V30 19694 C 1806.69 0.563959 1.64607 0
M  V30 19695 O 1807.86 0.837885 1.83143 0
M  V30 19696 C 1804.93 1.73793 2.99995 0
M  V30 19697 C 1803.99 2.9733 3.09667 0
M  V30 19698 C 1803.22 3.02703 4.39553 0
M  V30 19699 O 1803.44 2.15844 5.27985 0
M  V30 19700 O 1802.38 3.95105 4.54066 0
M  V30 19701 H 1806.2 2.63749 1.50565 0
M  V30 19702 H 1803.79 1.32879 0.682893 0
M  V30 19703 H 1805.67 1.79901 3.81069 0
M  V30 19704 H 1804.35 0.813622 3.13308 0
M  V30 19705 H 1803.25 2.96743 2.27804 0
M  V30 19706 H 1804.59 3.8922 3.01278 0
M  V30 19707 N 1806.24 -0.757876 1.38181 0
M  V30 19708 C 1807.15 -1.90234 1.37289 0
M  V30 19709 C 1808.16 -1.71883 0.270567 0
M  V30 19710 O 1809.34 -1.94881 0.508279 0
M  V30 19711 C 1806.41 -3.25546 1.19251 0
M  V30 19712 C 1805.47 -3.56452 2.39249 0
M  V30 19713 C 1804.7 -4.85308 2.22063 0
M  V30 19714 O 1804.92 -5.57373 1.2121 0
M  V30 19715 O 1803.86 -5.15594 3.10558 0
M  V30 19716 H 1807.68 -1.9394 2.33711 0
M  V30 19717 H 1805.27 -0.902559 1.19056 0
M  V30 19718 H 1807.15 -4.06454 1.11235 0
M  V30 19719 H 1805.82 -3.22661 0.259109 0
M  V30 19720 H 1804.73 -2.75723 2.52839 0
M  V30 19721 H 1806.06 -3.64094 3.31205 0
M  V30 19722 N 1807.72 -1.22979 -0.985586 0
M  V30 19723 C 1808.66 -1.00374 -2.09828 0
M  V30 19724 C 1809.66 0.0555734 -1.69309 0
M  V30 19725 O 1810.86 -0.0974909 -1.79736 0
M  V30 19726 H 1807.24 -0.307451 -0.686278 0
M  V30 19727 H 1809.21 -1.94776 -2.26064 0
M  V30 19728 C 1807.96 -0.606018 -3.42378 0
M  V30 19729 H 1807.28 -1.41284 -3.74004 0
M  V30 19730 H 1808.72 -0.487318 -4.2119 0
M  V30 19731 C 1807.18 0.685197 -3.29859 0
M  V30 19732 O 1807.71 1.73572 -3.62265 0
M  V30 19733 N 1805.92 0.65914 -2.83026 0
M  V30 19734 H 1805.46 -0.196071 -2.56853 0
M  V30 19735 H 1805.42 1.52332 -2.75031 0
M  V30 19736 N 1809.19 1.18355 -1.04066 0
M  V30 19737 C 1810.42 1.92816 -0.763979 0
M  V30 19738 C 1810.84 1.75658 0.672749 0
M  V30 19739 O 1810.2 1.06671 1.46598 0
M  V30 19740 C 1810.25 3.42267 -1.13516 0
M  V30 19741 O 1809.35 4.11576 -0.260646 0
M  V30 19742 H 1808.7 0.601532 -0.281167 0
M  V30 19743 H 1811.23 1.50087 -1.3905 0
M  V30 19744 H 1811.24 3.92973 -1.09709 0
M  V30 19745 H 1809.91 3.54076 -2.18181 0
M  V30 19746 H 1808.49 3.71174 -0.358342 0
M  V30 19747 N 1810.67 0.820125 1.3458 0
M  V30 19748 C 1811.62 0.22828 2.31477 0
M  V30 19749 C 1812.61 -0.629439 1.57272 0
M  V30 19750 O 1813.82 -0.521091 1.72292 0
M  V30 19751 H 1810.2 0.0550728 0.749981 0
M  V30 19752 H 1812.17 1.0604 2.78923 0
M  V30 19753 C 1810.92 -0.597495 3.42528 0
M  V30 19754 H 1810.24 0.0531749 3.99765 0
M  V30 19755 H 1811.68 -0.977765 4.12572 0
M  V30 19756 C 1810.14 -1.76868 2.86739 0
M  V30 19757 O 1810.67 -2.86674 2.81391 0
M  V30 19758 N 1808.87 -1.58453 2.436 0
M  V30 19759 H 1808.42 -0.691318 2.4815 0
M  V30 19760 H 1808.38 -2.36969 2.06624 0
M  V30 19761 N 1812.15 -1.46743 0.574835 0
M  V30 19762 C 1813.08 -2.33012 -0.150836 0
M  V30 19763 C 1814.06 -1.44868 -0.891472 0
M  V30 19764 O 1815.25 -1.73698 -0.868481 0
M  V30 19765 C 1812.38 -3.26995 -1.17012 0
M  V30 19766 C 1811.33 -4.24518 -0.544829 0
M  V30 19767 C 1810.66 -5.07951 -1.67002 0
M  V30 19768 C 1811.96 -5.19776 0.512891 0
M  V30 19769 H 1813.65 -2.93935 0.569433 0
M  V30 19770 H 1811.2 -1.41344 0.275289 0
M  V30 19771 H 1813.15 -3.86198 -1.68609 0
M  V30 19772 H 1811.87 -2.64163 -1.92056 0
M  V30 19773 H 1810.53 -3.66566 -0.0500133 0
M  V30 19774 H 1810.18 -4.4151 -2.40993 0
M  V30 19775 H 1809.88 -5.73991 -1.25732 0
M  V30 19776 H 1811.4 -5.70017 -2.1889 0
M  V30 19777 H 1812.82 -5.73241 0.0823064 0
M  V30 19778 H 1811.22 -5.94114 0.845462 0
M  V30 19779 H 1812.29 -4.64184 1.40217 0
M  V30 19780 N 1813.63 -0.312197 -1.54477 0
M  V30 19781 C 1815.04 0.0408317 -1.59548 0
M  V30 19782 C 1815.24 1.51461 -1.32898 0
M  V30 19783 O 1814.3 2.26899 -1.10785 0
M  V30 19784 C 1815.61 -0.367179 -2.9845 0
M  V30 19785 C 1817.16 -0.31688 -3.11392 0
M  V30 19786 C 1817.64 -0.699881 -4.52621 0
M  V30 19787 N 1819.13 -0.652846 -4.58576 0
M  V30 19788 C 1819.86 -0.921531 -5.65946 0
M  V30 19789 N 1819.36 -1.25676 -6.81306 0
M  V30 19790 N 1821.15 -0.847847 -5.55669 0
M  V30 19791 H 1813.3 -1.27255 -1.70059 0
M  V30 19792 H 1815.57 -0.516679 -0.794825 0
M  V30 19793 H 1815.27 -1.39356 -3.22913 0
M  V30 19794 H 1815.15 0.273556 -3.76207 0
M  V30 19795 H 1817.53 0.700275 -2.86671 0
M  V30 19796 H 1817.61 -0.992393 -2.35765 0
M  V30 19797 H 1817.26 -1.7149 -4.78073 0
M  V30 19798 H 1817.19 -0.00217708 -5.266 0
M  V30 19799 H 1819.68 -0.405135 -3.75722 0
M  V30 19800 H 1819.99 -1.44746 -7.59123 0
M  V30 19801 H 1818.34 -1.29491 -6.8283 0
M  V30 19802 H 1821.53 -0.585523 -4.64424 0
M  V30 19803 H 1821.7 -1.06061 -6.39261 0
M  V30 19804 N 1815.11 1.57549 -0.040136 0
M  V30 19805 C 1816.05 2.10879 0.938013 0
M  V30 19806 C 1817.02 1.01348 1.31597 0
M  V30 19807 O 1818.21 1.28832 1.40737 0
M  V30 19808 C 1815.35 2.64938 2.21138 0
M  V30 19809 C 1814.46 3.88516 1.88889 0
M  V30 19810 C 1813.6 4.3093 3.10601 0
M  V30 19811 C 1812.64 5.47237 2.74223 0
M  V30 19812 N 1811.77 5.84755 3.88594 0
M  V30 19813 H 1816.61 2.94169 0.476328 0
M  V30 19814 H 1814.15 1.45392 0.223503 0
M  V30 19815 H 1816.11 2.94375 2.95633 0
M  V30 19816 H 1814.74 1.84463 2.64903 0
M  V30 19817 H 1813.79 3.6574 1.04588 0
M  V30 19818 H 1815.1 4.7308 1.58103 0
M  V30 19819 H 1814.26 4.61861 3.93407 0
M  V30 19820 H 1812.99 3.45155 3.44557 0
M  V30 19821 H 1812 5.15988 1.89831 0
M  V30 19822 H 1813.22 6.34719 2.41472 0
M  V30 19823 H 1811.17 5.01935 4.22371 0
M  V30 19824 H 1811.09 6.63984 3.6147 0
M  V30 19825 H 1812.36 6.20297 4.72072 0
M  V30 19826 N 1816.58 -0.233136 1.55866 0
M  V30 19827 C 1817.83 -0.96064 1.78604 0
M  V30 19828 C 1818.16 -1.84444 0.607795 0
M  V30 19829 O 1817.44 -1.9048 -0.39342 0
M  V30 19830 C 1817.72 -1.80946 3.11337 0
M  V30 19831 C 1817.57 -0.952929 4.3959 0
M  V30 19832 C 1818.89 -2.78941 3.40411 0
M  V30 19833 H 1816.01 -0.347809 0.649767 0
M  V30 19834 H 1818.65 -0.230233 1.886 0
M  V30 19835 H 1816.8 -2.43219 3.02946 0
M  V30 19836 H 1818.48 -0.347831 4.59987 0
M  V30 19837 H 1816.72 -0.257846 4.33033 0
M  V30 19838 H 1817.39 -1.58096 5.28876 0
M  V30 19839 H 1819.87 -2.26804 3.48854 0
M  V30 19840 H 1818.74 -3.35443 4.34475 0
M  V30 19841 H 1819 -3.561 2.62003 0
M  V30 19842 N 1818.06 -1.49479 -0.499372 0
M  V30 19843 C 1818.97 -1.69006 -1.62709 0
M  V30 19844 C 1819.99 -0.572681 -1.64306 0
M  V30 19845 O 1821.17 -0.847586 -1.82696 0
M  V30 19846 C 1818.23 -1.75382 -2.99069 0
M  V30 19847 C 1817.29 -2.98968 -3.08086 0
M  V30 19848 C 1816.52 -3.0503 -4.37941 0
M  V30 19849 O 1816.75 -2.18641 -5.26832 0
M  V30 19850 O 1815.68 -3.97507 -4.51964 0
M  V30 19851 H 1819.51 -2.64544 -1.49164 0
M  V30 19852 H 1817.09 -1.3324 -0.675836 0
M  V30 19853 H 1818.97 -1.81919 -3.8011 0
M  V30 19854 H 1817.65 -0.830226 -3.12872 0
M  V30 19855 H 1816.56 -2.97947 -2.26227 0
M  V30 19856 H 1817.89 -3.90812 -2.9921 0
M  V30 19857 N 1819.54 0.750537 -1.38581 0
M  V30 19858 C 1820.49 1.86434 -1.36056 0
M  V30 19859 C 1821.46 1.64601 -0.222625 0
M  V30 19860 O 1822.64 1.86225 -0.41533 0
M  V30 19861 C 1819.78 3.23769 -1.19447 0
M  V30 19862 C 1818.9 3.57412 -2.42653 0
M  V30 19863 C 1818.03 4.84067 -2.18751 0
M  V30 19864 C 1817.07 5.10506 -3.37713 0
M  V30 19865 N 1816.21 6.28358 -3.13227 0
M  V30 19866 H 1821.05 1.87927 -2.31274 0
M  V30 19867 H 1818.58 0.91849 -1.14901 0
M  V30 19868 H 1820.54 4.03024 -1.07832 0
M  V30 19869 H 1819.17 3.21595 -0.278665 0
M  V30 19870 H 1818.22 2.72978 -2.64929 0
M  V30 19871 H 1819.54 3.72876 -3.31307 0
M  V30 19872 H 1818.69 5.71271 -2.0429 0
M  V30 19873 H 1817.43 4.70748 -1.27467 0
M  V30 19874 H 1816.43 4.2177 -3.5269 0
M  V30 19875 H 1817.66 5.25721 -4.29877 0
M  V30 19876 H 1815.61 6.16355 -2.24593 0
M  V30 19877 H 1815.52 6.44337 -3.95432 0
M  V30 19878 H 1816.79 7.18441 -3.02428 0
M  V30 19879 N 1821.02 1.235 0.979051 0
M  V30 19880 C 1821.93 1.03412 2.10578 0
M  V30 19881 C 1822.95 -0.0217644 1.73986 0
M  V30 19882 O 1824.12 0.173977 2.00647 0
M  V30 19883 C 1821.19 0.629192 3.40943 0
M  V30 19884 C 1820.25 1.76028 3.91552 0
M  V30 19885 C 1819.48 1.37457 5.15695 0
M  V30 19886 O 1819.7 0.259393 5.6981 0
M  V30 19887 O 1818.64 2.19614 5.60404 0
M  V30 19888 H 1822.46 1.97845 2.30415 0
M  V30 19889 H 1820.05 1.02218 1.08958 0
M  V30 19890 H 1821.93 0.414372 4.19358 0
M  V30 19891 H 1820.61 -0.286128 3.22433 0
M  V30 19892 H 1819.51 2.02975 3.14248 0
M  V30 19893 H 1820.85 2.65396 4.14519 0
M  V30 19894 N 1822.5 -1.17802 1.04693 0
M  V30 19895 C 1823.41 -2.25298 0.654072 0
M  V30 19896 C 1824.42 -1.70984 -0.32255 0
M  V30 19897 O 1825.6 -2.0063 -0.175904 0
M  V30 19898 C 1822.66 -3.46687 0.0296345 0
M  V30 19899 C 1821.73 -4.16108 1.05606 0
M  V30 19900 C 1820.96 -5.31702 0.461329 0
M  V30 19901 O 1821.18 -5.65701 -0.730679 0
M  V30 19902 O 1820.12 -5.89956 1.19312 0
M  V30 19903 H 1823.94 -2.61179 1.54982 0
M  V30 19904 H 1821.53 -1.25005 0.818182 0
M  V30 19905 H 1823.41 -4.20201 -0.317654 0
M  V30 19906 H 1822.08 -3.12615 -0.839839 0
M  V30 19907 H 1820.99 -3.44635 1.45526 0
M  V30 19908 H 1822.32 -4.54195 1.89651 0
M  V30 19909 N 1823.98 -0.827251 -1.34143 0
M  V30 19910 C 1824.94 -0.257543 -2.27748 0
M  V30 19911 C 1825.94 0.567053 -1.5047 0
M  V30 19912 O 1827.13 0.382529 -1.69948 0
M  V30 19913 C 1824.26 0.638449 -3.34868 0
M  V30 19914 H 1825.45 -1.08338 -2.79648 0
M  V30 19915 H 1823.01 -0.599441 -1.44348 0
M  V30 19916 H 1823.74 1.48717 -2.8819 0
M  V30 19917 H 1823.53 0.0486033 -3.9207 0
M  V30 19918 H 1825.02 1.03071 -4.0468 0
M  V30 19919 N 1825.45 1.46436 -0.582609 0
M  V30 19920 C 1826.39 2.2733 0.199056 0
M  V30 19921 C 1827.36 1.35621 0.896981 0
M  V30 19922 O 1828.55 1.65031 0.910887 0
M  V30 19923 C 1825.68 3.13352 1.28563 0
M  V30 19924 C 1824.72 4.20823 0.69355 0
M  V30 19925 S 1825.55 5.33349 -0.479488 0
M  V30 19926 C 1826.71 6.22937 0.608287 0
M  V30 19927 H 1826.94 2.93279 -0.487326 0
M  V30 19928 H 1824.48 1.49913 -0.369502 0
M  V30 19929 H 1826.43 3.63476 1.90775 0
M  V30 19930 H 1825.1 2.46716 1.94396 0
M  V30 19931 H 1824.29 4.80839 1.5103 0
M  V30 19932 H 1823.89 3.73711 0.147092 0
M  V30 19933 H 1826.18 6.60823 1.49397 0
M  V30 19934 H 1827.13 7.08086 0.0448907 0
M  V30 19935 H 1827.53 5.57078 0.912387 0
M  V30 19936 N 1826.93 0.320385 1.54309 0
M  V30 19937 C 1828.18 -0.284021 1.9969 0
M  V30 19938 C 1828.49 -1.53496 1.21237 0
M  V30 19939 O 1829.7 -2.21517 1.5698 0
M  V30 19940 C 1828.16 -0.556621 3.5557 0
M  V30 19941 C 1827.76 0.677086 4.42854 0
M  V30 19942 C 1829.51 -1.12116 4.09427 0
M  V30 19943 C 1827.41 0.376566 5.902 0
M  V30 19944 H 1826.34 -0.109905 0.745947 0
M  V30 19945 H 1829 0.432113 1.7834 0
M  V30 19946 H 1827.38 -1.33286 3.72895 0
M  V30 19947 H 1828.55 1.45266 4.37304 0
M  V30 19948 H 1826.87 1.16161 3.99869 0
M  V30 19949 H 1829.46 -1.36057 5.171 0
M  V30 19950 H 1829.81 -2.06954 3.61215 0
M  V30 19951 H 1830.34 -0.406174 3.95721 0
M  V30 19952 H 1827.08 1.29403 6.426 0
M  V30 19953 H 1826.6 -0.36136 5.9871 0
M  V30 19954 H 1828.28 -0.014773 6.46998 0
M  V30 19955 N 1828.41 -1.57525 0.0484906 0
M  V30 19956 C 1829.34 -2.08313 -0.955941 0
M  V30 19957 C 1830.35 -1.01042 -1.2765 0
M  V30 19958 O 1831.54 -1.28615 -1.23776 0
M  V30 19959 C 1828.64 -2.509 -2.27821 0
M  V30 19960 C 1827.82 -3.81476 -2.13997 0
M  V30 19961 C 1826.88 -4.10404 -3.29325 0
M  V30 19962 O 1825.9 -4.80366 -3.05348 0
M  V30 19963 N 1827.1 -3.62104 -4.53719 0
M  V30 19964 H 1829.87 -2.95111 -0.522472 0
M  V30 19965 H 1827.43 -1.61312 -0.137816 0
M  V30 19966 H 1829.42 -2.6733 -3.03837 0
M  V30 19967 H 1827.99 -1.69365 -2.62744 0
M  V30 19968 H 1827.21 -3.74654 -1.22589 0
M  V30 19969 H 1828.5 -4.6699 -2.01985 0
M  V30 19970 H 1827.9 -3.05541 -4.7609 0
M  V30 19971 H 1826.45 -3.83778 -5.26838 0
M  V30 19972 N 1829.89 0.224867 -1.55988 0
M  V30 19973 C 1831.11 0.970897 -1.83271 0
M  V30 19974 C 1831.54 1.77293 -0.628399 0
M  V30 19975 O 1830.9 1.76301 0.422804 0
M  V30 19976 C 1830.94 1.86686 -3.08514 0
M  V30 19977 O 1830.05 2.96174 -2.86975 0
M  V30 19978 H 1829.39 0.275093 -0.604334 0
M  V30 19979 H 1831.92 0.239183 -2.03197 0
M  V30 19980 H 1831.93 2.27731 -3.3853 0
M  V30 19981 H 1830.6 1.27733 -3.95799 0
M  V30 19982 H 1829.18 2.59099 -2.68183 0
M  V30 19983 N 1831.37 1.49742 0.491438 0
M  V30 19984 C 1832.6 1.63198 1.26689 0
M  V30 19985 C 1833 0.306438 1.86702 0
M  V30 19986 O 1832.35 -0.719282 1.69033 0
M  V30 19987 C 1832.41 2.64966 2.42967 0
M  V30 19988 C 1832.07 4.09066 2.0375 0
M  V30 19989 C 1833.07 4.95574 1.57171 0
M  V30 19990 C 1830.75 4.54859 2.13092 0
M  V30 19991 C 1832.75 6.25916 1.2045 0
M  V30 19992 C 1830.44 5.85212 1.75983 0
M  V30 19993 C 1831.43 6.70565 1.29738 0
M  V30 19994 O 1831.12 7.98487 0.931347 0
M  V30 19995 H 1830.85 0.552094 0.390087 0
M  V30 19996 H 1833.41 1.9658 0.595439 0
M  V30 19997 H 1831.64 2.26784 3.13218 0
M  V30 19998 H 1833.33 2.67852 3.04975 0
M  V30 19999 H 1834.09 4.61419 1.49391 0
M  V30 20000 H 1829.97 3.88585 2.48038 0
M  V30 20001 H 1833.52 6.9249 0.84283 0
M  V30 20002 H 1829.41 6.18893 1.83415 0
M  V30 20003 H 1830.18 8.11581 1.06198 0
M  V30 20004 N 1832.84 -0.743177 1.38977 0
M  V30 20005 C 1834.07 -1.53021 1.3881 0
M  V30 20006 C 1834.48 -1.89188 -0.0213066 0
M  V30 20007 O 1833.83 -1.54033 -1.00097 0
M  V30 20008 C 1833.89 -2.85158 2.18918 0
M  V30 20009 C 1833.55 -2.71471 3.67631 0
M  V30 20010 C 1834.55 -2.40567 4.60894 0
M  V30 20011 C 1832.23 -2.88598 4.11116 0
M  V30 20012 C 1834.23 -2.26959 5.95625 0
M  V30 20013 C 1831.91 -2.74609 5.45924 0
M  V30 20014 C 1832.91 -2.43833 6.37992 0
M  V30 20015 O 1832.6 -2.29922 7.70319 0
M  V30 20016 H 1832.33 -0.47975 0.476252 0
M  V30 20017 H 1834.89 -0.92667 1.83308 0
M  V30 20018 H 1833.12 -3.47741 1.69154 0
M  V30 20019 H 1834.81 -3.4673 2.11029 0
M  V30 20020 H 1835.57 -2.26994 4.28601 0
M  V30 20021 H 1831.45 -3.11547 3.39794 0
M  V30 20022 H 1834.99 -2.02859 6.67453 0
M  V30 20023 H 1830.89 -2.87758 5.77811 0
M  V30 20024 H 1831.66 -2.45054 7.80955 0
M  V30 20025 N 1834.32 -1.24018 -0.972487 0
M  V30 20026 C 1835.25 -0.986185 -2.06899 0
M  V30 20027 C 1836.27 0.0426574 -1.62744 0
M  V30 20028 O 1837.46 -0.193816 -1.77445 0
M  V30 20029 C 1834.56 -0.46551 -3.35688 0
M  V30 20030 C 1833.73 -1.55637 -4.08774 0
M  V30 20031 C 1832.79 -1.03918 -5.15837 0
M  V30 20032 O 1831.81 -1.72986 -5.42277 0
M  V30 20033 N 1833.02 0.128891 -5.80357 0
M  V30 20034 H 1835.78 -1.93025 -2.29263 0
M  V30 20035 H 1833.34 -1.14983 -1.13976 0
M  V30 20036 H 1835.33 -0.104379 -4.04565 0
M  V30 20037 H 1833.9 0.384166 -3.1023 0
M  V30 20038 H 1833.12 -2.08991 -3.3424 0
M  V30 20039 H 1834.41 -2.28973 -4.54366 0
M  V30 20040 H 1833.81 0.706438 -5.61272 0
M  V30 20041 H 1832.37 0.431211 -6.50372 0
M  V30 20042 N 1835.8 1.17245 -1.05316 0
M  V30 20043 C 1837.22 1.39535 -0.774741 0
M  V30 20044 C 1837.42 1.91388 0.63031 0
M  V30 20045 O 1836.47 2.10631 1.39251 0
M  V30 20046 C 1837.79 2.38497 -1.83139 0
M  V30 20047 C 1839.33 2.52201 -1.85375 0
M  V30 20048 C 1839.81 3.54437 -2.90066 0
M  V30 20049 N 1841.3 3.61956 -2.89037 0
M  V30 20050 C 1842.03 4.40824 -3.66691 0
M  V30 20051 N 1841.53 5.23196 -4.54134 0
M  V30 20052 N 1843.32 4.35709 -3.55125 0
M  V30 20053 H 1835.47 0.819186 -1.95967 0
M  V30 20054 H 1837.74 0.422515 -0.848637 0
M  V30 20055 H 1837.44 2.07471 -2.83987 0
M  V30 20056 H 1837.32 3.38016 -1.67407 0
M  V30 20057 H 1839.7 2.82536 -0.851904 0
M  V30 20058 H 1839.79 1.52751 -2.05184 0
M  V30 20059 H 1839.43 3.2484 -3.90437 0
M  V30 20060 H 1839.36 4.53593 -2.67508 0
M  V30 20061 H 1841.85 3.03146 -2.25635 0
M  V30 20062 H 1842.16 5.80562 -5.10067 0
M  V30 20063 H 1840.51 5.22573 -4.58194 0
M  V30 20064 H 1843.7 3.70411 -2.86205 0
M  V30 20065 H 1843.87 4.9693 -4.1589 0
M  V30 20066 N 1837.28 0.834353 1.33702 0
M  V30 20067 C 1838.51 0.440589 2.01847 0
M  V30 20068 C 1838.92 -0.961513 1.62947 0
M  V30 20069 O 1838.26 -1.63556 0.836377 0
M  V30 20070 C 1838.32 0.476396 3.5633 0
M  V30 20071 C 1837.99 1.83382 4.18593 0
M  V30 20072 C 1838.98 2.79638 4.3829 0
M  V30 20073 C 1836.67 2.12543 4.55116 0
M  V30 20074 C 1838.66 4.0322 4.93652 0
M  V30 20075 C 1836.35 3.36382 5.10187 0
M  V30 20076 C 1837.35 4.31537 5.294 0
M  V30 20077 O 1837.03 5.53187 5.833 0
M  V30 20078 H 1836.77 0.173726 0.653296 0
M  V30 20079 H 1839.32 1.1272 1.71707 0
M  V30 20080 H 1837.55 -0.266969 3.85777 0
M  V30 20081 H 1839.24 0.101088 4.05774 0
M  V30 20082 H 1840.01 2.58409 4.10427 0
M  V30 20083 H 1835.88 1.39274 4.39459 0
M  V30 20084 H 1839.43 4.77502 5.08564 0
M  V30 20085 H 1835.33 3.5747 5.3748 0
M  V30 20086 H 1836.09 5.54864 6.01721 0
M  V30 20087 N 1838.76 -1.46125 0.590367 0
M  V30 20088 C 1839.98 -2.06726 0.0847301 0
M  V30 20089 C 1840.4 -1.43788 -1.22354 0
M  V30 20090 O 1839.76 -0.545876 -1.74145 0
M  V30 20091 C 1839.81 -3.61412 -0.079655 0
M  V30 20092 O 1839.53 -4.21998 1.17684 0
M  V30 20093 C 1841.03 -4.38961 -0.618754 0
M  V30 20094 H 1838.25 -0.668226 0.0609525 0
M  V30 20095 H 1840.79 -1.87636 0.813212 0
M  V30 20096 H 1838.95 -3.79904 -0.758389 0
M  V30 20097 H 1839.36 -5.14966 0.995528 0
M  V30 20098 H 1840.84 -5.47759 -0.682926 0
M  V30 20099 H 1841.31 -4.07537 -1.63739 0
M  V30 20100 H 1841.92 -4.25292 0.0253632 0
M  V30 20101 N 1840.23 -0.328564 -1.54137 0
M  V30 20102 C 1841.14 0.543922 -2.28207 0
M  V30 20103 C 1842.16 1.1249 -1.32748 0
M  V30 20104 O 1843.34 1.1438 -1.65769 0
M  V30 20105 C 1840.4 1.6864 -3.02922 0
M  V30 20106 C 1839.46 1.13672 -4.13977 0
M  V30 20107 C 1838.7 2.22474 -4.85119 0
M  V30 20108 O 1838.92 3.42914 -4.55813 0
M  V30 20109 O 1837.85 1.87611 -5.71914 0
M  V30 20110 H 1841.68 -0.0577601 -3.03645 0
M  V30 20111 H 1839.26 -0.0940895 -1.49103 0
M  V30 20112 H 1841.15 2.35143 -3.49693 0
M  V30 20113 H 1839.82 2.27417 -2.30355 0
M  V30 20114 H 1838.73 0.436625 -3.71543 0
M  V30 20115 H 1840.06 0.594012 -4.88602 0
M  V30 20116 N 1841.71 1.57497 -0.0568439 0
M  V30 20117 C 1842.62 2.1535 0.930668 0
M  V30 20118 C 1843.64 1.11276 1.33767 0
M  V30 20119 O 1844.81 1.43472 1.41343 0
M  V30 20120 C 1841.88 2.69165 2.18521 0
M  V30 20121 C 1840.94 3.88057 1.83603 0
M  V30 20122 C 1840.17 4.39296 3.03076 0
M  V30 20123 O 1840.4 3.89588 4.16627 0
M  V30 20124 O 1839.33 5.30814 2.8376 0
M  V30 20125 H 1843.16 3.00063 0.468623 0
M  V30 20126 H 1840.74 1.48482 0.16538 0
M  V30 20127 H 1842.62 3.03721 2.92116 0
M  V30 20128 H 1841.3 1.8752 2.63852 0
M  V30 20129 H 1840.21 3.5838 1.07306 0
M  V30 20130 H 1841.54 4.70949 1.43066 0
M  V30 20131 N 1843.19 -0.216591 1.56105 0
M  V30 20132 C 1844.61 -0.56651 1.49207 0
M  V30 20133 C 1844.81 -1.86906 0.752882 0
M  V30 20134 O 1843.86 -2.50776 0.294573 0
M  V30 20135 C 1845.18 -0.641146 2.93785 0
M  V30 20136 C 1846.72 -0.731439 3.04334 0
M  V30 20137 C 1847.2 -0.837376 4.5028 0
M  V30 20138 N 1848.69 -0.901468 4.54343 0
M  V30 20139 C 1849.42 -1.00323 5.64555 0
M  V30 20140 N 1848.92 -1.06864 6.84509 0
M  V30 20141 N 1850.71 -1.03876 5.52419 0
M  V30 20142 H 1842.86 0.638091 2.02589 0
M  V30 20143 H 1845.13 0.224543 0.921024 0
M  V30 20144 H 1844.83 0.246454 3.50835 0
M  V30 20145 H 1844.71 -1.5031 3.45958 0
M  V30 20146 H 1847.09 -1.60948 2.47346 0
M  V30 20147 H 1847.18 0.15628 2.55322 0
M  V30 20148 H 1846.82 0.0362262 5.07887 0
M  V30 20149 H 1846.75 -1.74058 4.97002 0
M  V30 20150 H 1849.24 -0.861039 3.6796 0
M  V30 20151 H 1849.55 -1.1462 7.64253 0
M  V30 20152 H 1847.9 -1.03768 6.8721 0
M  V30 20153 H 1851.09 -0.984348 4.57633 0
M  V30 20154 H 1851.26 -1.11461 6.38342 0
M  V30 20155 N 1844.67 -1.5 -0.48349 0
M  V30 20156 C 1845.62 -1.68467 -1.6038 0
M  V30 20157 C 1846.61 -0.550508 -1.60205 0
M  V30 20158 O 1847.82 -0.730656 -1.64504 0
M  V30 20159 H 1844.19 -0.531525 -0.531964 0
M  V30 20160 H 1846.16 -2.62468 -1.41962 0
M  V30 20161 C 1844.91 -1.78462 -2.98407 0
M  V30 20162 H 1844.23 -2.65117 -2.99254 0
M  V30 20163 H 1845.67 -1.95413 -3.76284 0
M  V30 20164 C 1844.13 -0.533368 -3.32651 0
M  V30 20165 O 1844.66 0.333087 -4.00317 0
M  V30 20166 N 1842.87 -0.391077 -2.87957 0
M  V30 20167 H 1842.42 -1.09719 -2.33066 0
M  V30 20168 H 1842.37 0.444995 -3.11235 0
M  V30 20169 N 1846.15 0.735796 -1.39369 0
M  V30 20170 C 1847.39 1.50799 -1.37982 0
M  V30 20171 C 1847.75 1.91984 0.0248794 0
M  V30 20172 O 1848.95 2.68301 0.163755 0
M  V30 20173 C 1847.22 2.71494 -2.32434 0
M  V30 20174 S 1848.78 3.61153 -2.49227 0
M  V30 20175 H 1845.6 0.515828 -0.489329 0
M  V30 20176 H 1848.2 0.862229 -1.75459 0
M  V30 20177 H 1846.91 2.39376 -3.33358 0
M  V30 20178 H 1846.44 3.41 -1.96169 0
M  V30 20179 H 1848.45 4.6508 -1.72959 0
M  V30 20180 N 1847.63 1.24532 0.965897 0
M  V30 20181 C 1848.54 1.0564 2.09469 0
M  V30 20182 C 1849.55 -0.00330962 1.74 0
M  V30 20183 O 1850.73 0.195248 2.00451 0
M  V30 20184 C 1847.79 0.665318 3.40256 0
M  V30 20185 C 1846.85 1.80171 3.89663 0
M  V30 20186 C 1846.09 1.42919 5.14208 0
M  V30 20187 O 1846.31 0.319815 5.69503 0
M  V30 20188 O 1845.24 2.25546 5.58044 0
M  V30 20189 H 1849.07 2.00277 2.28304 0
M  V30 20190 H 1846.65 1.03368 1.07868 0
M  V30 20191 H 1848.54 0.458827 4.18895 0
M  V30 20192 H 1847.21 -0.251914 3.22718 0
M  V30 20193 H 1846.12 2.06296 3.12078 0
M  V30 20194 H 1847.45 2.69778 4.11681 0
M  V30 20195 N 1849.1 -1.16685 1.05936 0
M  V30 20196 C 1850.01 -2.24591 0.677931 0
M  V30 20197 C 1851.03 -1.71317 -0.304397 0
M  V30 20198 O 1852.21 -2.00806 -0.154615 0
M  V30 20199 C 1849.27 -3.46636 0.0664037 0
M  V30 20200 C 1848.33 -4.14964 1.10014 0
M  V30 20201 C 1847.56 -5.31183 0.517697 0
M  V30 20202 O 1847.79 -5.66444 -0.670637 0
M  V30 20203 O 1846.72 -5.88657 1.25563 0
M  V30 20204 H 1850.55 -2.5952 1.57743 0
M  V30 20205 H 1848.13 -1.2413 0.831395 0
M  V30 20206 H 1850.01 -4.20514 -0.273069 0
M  V30 20207 H 1848.69 -3.13489 -0.806634 0
M  V30 20208 H 1847.6 -3.43072 1.49173 0
M  V30 20209 H 1848.93 -4.52158 1.94458 0
M  V30 20210 N 1850.58 -0.841432 -1.33258 0
M  V30 20211 C 1851.81 -0.45101 -2.02437 0
M  V30 20212 C 1852.23 0.940811 -1.62881 0
M  V30 20213 O 1851.59 1.61559 -0.82271 0
M  V30 20214 C 1851.64 -0.58237 -3.55866 0
M  V30 20215 O 1850.74 0.390326 -4.10549 0
M  V30 20216 H 1850.08 -0.182996 -0.638285 0
M  V30 20217 H 1852.61 -1.13697 -1.701 0
M  V30 20218 H 1852.62 -0.464967 -4.05342 0
M  V30 20219 H 1851.3 -1.59739 -3.84 0
M  V30 20220 H 1849.87 0.230266 -3.72188 0
M  V30 20221 N 1852.06 1.4581 -0.598108 0
M  V30 20222 C 1853.01 2.30454 0.126261 0
M  V30 20223 C 1853.98 1.41541 0.869221 0
M  V30 20224 O 1855.16 1.70478 0.856841 0
M  V30 20225 C 1852.3 3.26285 1.12393 0
M  V30 20226 C 1851.41 4.303 0.382824 0
M  V30 20227 C 1850.55 5.13246 1.36937 0
M  V30 20228 C 1849.59 6.08997 0.615545 0
M  V30 20229 N 1848.73 6.84756 1.55091 0
M  V30 20230 H 1853.57 2.91865 -0.601573 0
M  V30 20231 H 1851.1 1.43829 -0.308467 0
M  V30 20232 H 1853.06 3.80303 1.71539 0
M  V30 20233 H 1851.69 2.66649 1.81929 0
M  V30 20234 H 1850.74 3.79018 -0.323962 0
M  V30 20235 H 1852.05 4.98375 -0.205781 0
M  V30 20236 H 1851.21 5.71618 2.03318 0
M  V30 20237 H 1849.95 4.45168 1.99191 0
M  V30 20238 H 1848.95 5.49765 -0.0619441 0
M  V30 20239 H 1850.18 6.791 -0.00181251 0
M  V30 20240 H 1848.12 6.19375 2.16127 0
M  V30 20241 H 1848.04 7.49149 1.0155 0
M  V30 20242 H 1849.31 7.47675 2.20458 0
M  V30 20243 N 1853.54 0.336733 1.53961 0
M  V30 20244 C 1854.5 -0.510638 2.23439 0
M  V30 20245 C 1855.5 -1.03304 1.23227 0
M  V30 20246 O 1856.69 -0.923373 1.47714 0
M  V30 20247 C 1853.82 -1.71063 2.94873 0
M  V30 20248 H 1855.02 0.0969205 2.99743 0
M  V30 20249 H 1852.57 0.0879867 1.56052 0
M  V30 20250 H 1853.3 -2.35707 2.22739 0
M  V30 20251 H 1853.09 -1.34331 3.68371 0
M  V30 20252 H 1854.58 -2.31182 3.47771 0
M  V30 20253 N 1855.02 -1.57465 0.0651956 0
M  V30 20254 C 1855.98 -2.1123 -0.889634 0
M  V30 20255 C 1856.98 -1.03489 -1.23072 0
M  V30 20256 O 1858.17 -1.29505 -1.16508 0
M  V30 20257 C 1855.3 -2.60818 -2.19515 0
M  V30 20258 H 1856.49 -2.96898 -0.423301 0
M  V30 20259 H 1854.05 -1.5522 -0.183417 0
M  V30 20260 H 1854.78 -1.78585 -2.70699 0
M  V30 20261 H 1854.57 -3.39564 -1.96057 0
M  V30 20262 H 1856.06 -3.02513 -2.87881 0
M  V30 20263 N 1856.49 0.20831 -1.56217 0
M  V30 20264 C 1857.72 0.945898 -1.83675 0
M  V30 20265 C 1858.13 1.77908 -0.643841 0
M  V30 20266 O 1857.47 1.79361 0.396885 0
M  V30 20267 C 1857.54 1.90219 -3.05052 0
M  V30 20268 C 1857.2 1.25224 -4.39509 0
M  V30 20269 C 1858.2 0.635617 -5.16 0
M  V30 20270 C 1855.88 1.26005 -4.86239 0
M  V30 20271 C 1857.88 0.0354655 -6.3739 0
M  V30 20272 C 1855.56 0.656058 -6.07568 0
M  V30 20273 C 1856.56 0.0448326 -6.82985 0
M  V30 20274 O 1856.25 -0.549727 -8.02018 0
M  V30 20275 H 1855.98 0.282151 -0.614302 0
M  V30 20276 H 1858.54 0.224595 -2.04168 0
M  V30 20277 H 1856.77 2.66284 -2.8041 0
M  V30 20278 H 1858.45 2.50644 -3.19268 0
M  V30 20279 H 1859.22 0.62182 -4.80997 0
M  V30 20280 H 1855.1 1.72519 -4.27502 0
M  V30 20281 H 1858.64 -0.442232 -6.96197 0
M  V30 20282 H 1854.54 0.667312 -6.42041 0
M  V30 20283 H 1855.31 -0.445338 -8.17288 0
M  V30 20284 N 1857.97 1.50255 0.475528 0
M  V30 20285 C 1858.9 1.71721 1.58222 0
M  V30 20286 C 1859.88 0.56612 1.60403 0
M  V30 20287 O 1861.07 0.804774 1.7674 0
M  V30 20288 C 1858.2 1.80726 2.96573 0
M  V30 20289 C 1857.15 2.95877 3.09258 0
M  V30 20290 C 1856.48 2.9002 4.49213 0
M  V30 20291 C 1857.78 4.36452 2.86891 0
M  V30 20292 H 1859.47 2.6438 1.40511 0
M  V30 20293 H 1857.02 1.27224 0.674533 0
M  V30 20294 H 1858.97 1.94328 3.73918 0
M  V30 20295 H 1857.69 0.846846 3.1543 0
M  V30 20296 H 1856.35 2.81918 2.34345 0
M  V30 20297 H 1856 1.91834 4.64982 0
M  V30 20298 H 1855.7 3.67322 4.58637 0
M  V30 20299 H 1857.23 3.05665 5.28584 0
M  V30 20300 H 1858.64 4.5096 3.53989 0
M  V30 20301 H 1857.04 5.15171 3.07765 0
M  V30 20302 H 1858.11 4.49129 1.82786 0
M  V30 20303 N 1859.45 -0.728395 1.39758 0
M  V30 20304 C 1860.36 -1.87279 1.41293 0
M  V30 20305 C 1861.38 -1.71271 0.306965 0
M  V30 20306 O 1862.55 -1.93759 0.549502 0
M  V30 20307 C 1859.62 -3.22943 1.2613 0
M  V30 20308 C 1858.68 -3.51297 2.46756 0
M  V30 20309 C 1857.91 -4.80489 2.32307 0
M  V30 20310 O 1858.13 -5.54676 1.33005 0
M  V30 20311 O 1857.07 -5.08891 3.21425 0
M  V30 20312 H 1860.89 -1.88939 2.37773 0
M  V30 20313 H 1858.48 -0.877103 1.20943 0
M  V30 20314 H 1860.36 -4.04003 1.19832 0
M  V30 20315 H 1859.04 -3.22039 0.327492 0
M  V30 20316 H 1857.94 -2.70298 2.58631 0
M  V30 20317 H 1859.28 -3.56986 3.38853 0
M  V30 20318 N 1860.93 -1.25042 -0.959279 0
M  V30 20319 C 1862.34 -1.01764 -1.22948 0
M  V30 20320 C 1862.54 0.268402 -1.99704 0
M  V30 20321 O 1861.6 0.982348 -2.32607 0
M  V30 20322 C 1862.91 -2.23794 -2.0084 0
M  V30 20323 C 1864.46 -2.28507 -2.13901 0
M  V30 20324 C 1864.94 -3.50181 -2.9519 0
M  V30 20325 N 1866.43 -3.50549 -3.0277 0
M  V30 20326 C 1867.16 -4.41357 -3.66049 0
M  V30 20327 N 1866.66 -5.42431 -4.30976 0
M  V30 20328 N 1868.45 -4.29049 -3.63143 0
M  V30 20329 H 1860.6 -2.07672 -0.445667 0
M  V30 20330 H 1862.86 -0.91176 -0.259611 0
M  V30 20331 H 1862.57 -3.17237 -1.51835 0
M  V30 20332 H 1862.44 -2.26592 -3.01556 0
M  V30 20333 H 1864.83 -1.3559 -2.62105 0
M  V30 20334 H 1864.91 -2.29731 -1.12505 0
M  V30 20335 H 1864.56 -4.43417 -2.47677 0
M  V30 20336 H 1864.49 -3.46202 -3.96802 0
M  V30 20337 H 1866.98 -2.77432 -2.56593 0
M  V30 20338 H 1867.29 -6.07941 -4.77104 0
M  V30 20339 H 1865.64 -5.46308 -4.29619 0
M  V30 20340 H 1868.83 -3.49317 -3.11601 0
M  V30 20341 H 1869 -5.00017 -4.12174 0
M  V30 20342 N 1862.41 1.16121 -1.06553 0
M  V30 20343 C 1863.35 2.20597 -0.678659 0
M  V30 20344 C 1864.32 1.6287 0.325988 0
M  V30 20345 O 1865.51 1.89593 0.214278 0
M  V30 20346 C 1862.65 3.45021 -0.0740442 0
M  V30 20347 C 1861.76 4.16981 -1.12919 0
M  V30 20348 C 1860.9 5.28931 -0.490435 0
M  V30 20349 C 1859.94 5.92697 -1.52893 0
M  V30 20350 N 1859.07 6.96134 -0.913346 0
M  V30 20351 H 1863.91 2.53041 -1.57398 0
M  V30 20352 H 1861.45 1.24282 -0.786923 0
M  V30 20353 H 1863.41 4.16162 0.294059 0
M  V30 20354 H 1862.04 3.13118 0.784671 0
M  V30 20355 H 1861.09 3.44417 -1.61496 0
M  V30 20356 H 1862.4 4.60495 -1.91693 0
M  V30 20357 H 1861.56 6.0666 -0.0695112 0
M  V30 20358 H 1860.29 4.86588 0.329154 0
M  V30 20359 H 1859.3 5.13688 -1.95972 0
M  V30 20360 H 1860.52 6.37119 -2.35066 0
M  V30 20361 H 1858.47 6.559 -0.114515 0
M  V30 20362 H 1858.39 7.38032 -1.63843 0
M  V30 20363 H 1859.66 7.77779 -0.517655 0
M  V30 20364 N 1863.88 0.848487 1.3281 0
M  V30 20365 C 1864.85 0.293744 2.2731 0
M  V30 20366 C 1865.85 -0.543043 1.51353 0
M  V30 20367 O 1867.04 -0.355443 1.70535 0
M  V30 20368 C 1864.17 -0.585094 3.35841 0
M  V30 20369 H 1865.36 1.12773 2.77889 0
M  V30 20370 H 1862.92 0.622329 1.43376 0
M  V30 20371 H 1863.65 -1.44114 2.9052 0
M  V30 20372 H 1863.44 0.0137777 3.92098 0
M  V30 20373 H 1864.93 -0.966203 4.06269 0
M  V30 20374 N 1865.36 -1.4549 0.605832 0
M  V30 20375 C 1866.61 -2.01462 0.0979275 0
M  V30 20376 C 1866.92 -1.48025 -1.27859 0
M  V30 20377 O 1868.13 -1.95962 -1.87912 0
M  V30 20378 C 1866.59 -3.59685 0.124393 0
M  V30 20379 C 1866.19 -4.22119 1.50065 0
M  V30 20380 C 1867.94 -4.23228 -0.328361 0
M  V30 20381 C 1865.85 -5.72489 1.4836 0
M  V30 20382 H 1864.78 -0.753284 0.0328415 0
M  V30 20383 H 1867.43 -1.66981 0.760903 0
M  V30 20384 H 1865.81 -3.91348 -0.605201 0
M  V30 20385 H 1866.98 -4.02032 2.25181 0
M  V30 20386 H 1865.3 -3.70763 1.89535 0
M  V30 20387 H 1867.89 -5.33485 -0.360274 0
M  V30 20388 H 1868.24 -3.93779 -1.35068 0
M  V30 20389 H 1868.77 -3.96276 0.347909 0
M  V30 20390 H 1865.51 -6.06634 2.48346 0
M  V30 20391 H 1865.03 -5.94772 0.774989 0
M  V30 20392 H 1866.71 -6.35652 1.20648 0
M  V30 20393 N 1866.84 -0.344893 -1.5378 0
M  V30 20394 C 1868.07 0.255228 -2.05824 0
M  V30 20395 C 1868.49 1.43329 -1.21812 0
M  V30 20396 O 1867.85 1.79807 -0.232191 0
M  V30 20397 C 1867.9 0.646906 -3.5475 0
M  V30 20398 O 1867 1.74677 -3.7358 0
M  V30 20399 H 1866.34 0.0420518 -0.662667 0
M  V30 20400 H 1868.87 -0.499498 -1.98409 0
M  V30 20401 H 1868.88 0.923686 -3.97407 0
M  V30 20402 H 1867.56 -0.214619 -4.15346 0
M  V30 20403 H 1866.13 1.46715 -3.42825 0
M  V30 20404 N 1868.32 1.57428 -0.0735454 0
M  V30 20405 C 1869.23 2.16325 0.907775 0
M  V30 20406 C 1870.24 1.12689 1.32579 0
M  V30 20407 O 1871.42 1.44963 1.39813 0
M  V30 20408 C 1868.49 2.71467 2.15654 0
M  V30 20409 C 1867.55 3.89983 1.79476 0
M  V30 20410 C 1866.78 4.42486 2.98399 0
M  V30 20411 O 1867 3.93985 4.12471 0
M  V30 20412 O 1865.94 5.33794 2.78114 0
M  V30 20413 H 1869.76 3.00543 0.436771 0
M  V30 20414 H 1867.35 1.48649 0.149623 0
M  V30 20415 H 1869.23 3.06802 2.88878 0
M  V30 20416 H 1867.9 1.90308 2.61848 0
M  V30 20417 H 1866.81 3.59498 1.03499 0
M  V30 20418 H 1868.14 4.7244 1.38063 0
M  V30 20419 N 1869.8 -0.200022 1.56326 0
M  V30 20420 C 1871.21 -0.550653 1.498 0
M  V30 20421 C 1871.41 -1.86097 0.772664 0
M  V30 20422 O 1870.47 -2.50449 0.321155 0
M  V30 20423 C 1871.78 -0.60995 2.94449 0
M  V30 20424 C 1873.33 -0.699119 3.05092 0
M  V30 20425 C 1873.8 -0.78957 4.51143 0
M  V30 20426 N 1875.3 -0.853228 4.55274 0
M  V30 20427 C 1876.03 -0.943298 5.65588 0
M  V30 20428 N 1875.53 -0.995976 6.85603 0
M  V30 20429 N 1877.32 -0.980106 5.53489 0
M  V30 20430 H 1869.47 0.659543 2.019 0
M  V30 20431 H 1871.73 0.234299 0.91859 0
M  V30 20432 H 1871.44 0.283651 3.50554 0
M  V30 20433 H 1871.31 -1.46632 3.47533 0
M  V30 20434 H 1873.7 -1.58315 2.49039 0
M  V30 20435 H 1873.78 0.183351 2.55142 0
M  V30 20436 H 1873.43 0.0900924 5.0782 0
M  V30 20437 H 1873.36 -1.68777 4.9882 0
M  V30 20438 H 1875.85 -0.821964 3.68853 0
M  V30 20439 H 1876.16 -1.06508 7.65425 0
M  V30 20440 H 1874.5 -0.964738 6.88272 0
M  V30 20441 H 1877.7 -0.935755 4.58652 0
M  V30 20442 H 1877.87 -1.04684 6.39488 0
M  V30 20443 N 1871.27 -1.50505 -0.467553 0
M  V30 20444 C 1872.69 -1.54489 -1.04833 0
M  V30 20445 C 1873.04 -0.350468 -1.93044 0
M  V30 20446 O 1872.16 0.536238 -2.09651 0
M  V30 20447 C 1872.76 -2.79967 -1.90799 0
M  V30 20448 C 1871.32 -2.86621 -2.43979 0
M  V30 20449 C 1870.46 -2.48819 -1.22412 0
M  V30 20450 H 1873.41 -1.56718 -0.250025 0
M  V30 20451 H 1873.43 -2.62022 -2.75907 0
M  V30 20452 H 1872.95 -3.66881 -1.2657 0
M  V30 20453 H 1871.05 -2.04066 -3.11749 0
M  V30 20454 H 1871.16 -3.89594 -2.78843 0
M  V30 20455 H 1869.52 -2.01335 -1.56001 0
M  V30 20456 H 1870.31 -3.38044 -0.598405 0
M  V30 20457 N 1872.75 0.720973 -1.40142 0
M  V30 20458 C 1873.98 1.51519 -1.41622 0
M  V30 20459 C 1874.4 1.88093 -0.0162669 0
M  V30 20460 O 1873.76 1.52895 0.974307 0
M  V30 20461 C 1873.81 2.77041 -2.30826 0
M  V30 20462 O 1872.91 3.73532 -1.74779 0
M  V30 20463 H 1872.25 0.457034 -0.481681 0
M  V30 20464 H 1874.78 0.88837 -1.84307 0
M  V30 20465 H 1874.79 3.25628 -2.45826 0
M  V30 20466 H 1873.47 2.49755 -3.32558 0
M  V30 20467 H 1872.05 3.32356 -1.69097 0
M  V30 20468 N 1874.23 1.25549 0.952634 0
M  V30 20469 C 1875.46 1.12998 1.7296 0
M  V30 20470 C 1875.87 -0.318779 1.86495 0
M  V30 20471 O 1875.21 -1.23091 1.36361 0
M  V30 20472 C 1875.27 1.71313 3.16057 0
M  V30 20473 C 1874.94 3.20326 3.25945 0
M  V30 20474 C 1875.93 4.17291 3.10103 0
M  V30 20475 C 1873.62 3.60574 3.49702 0
M  V30 20476 C 1875.61 5.52484 3.17868 0
M  V30 20477 C 1873.3 4.95904 3.57103 0
M  V30 20478 C 1874.3 5.91668 3.412 0
M  V30 20479 O 1873.99 7.24535 3.48287 0
M  V30 20480 H 1873.72 0.394815 0.548723 0
M  V30 20481 H 1876.27 1.66441 1.20361 0
M  V30 20482 H 1874.5 1.1232 3.70029 0
M  V30 20483 H 1876.19 1.53832 3.7562 0
M  V30 20484 H 1876.96 3.87537 2.91617 0
M  V30 20485 H 1872.84 2.86529 3.6114 0
M  V30 20486 H 1876.38 6.27211 3.05373 0
M  V30 20487 H 1872.28 5.25324 3.75106 0
M  V30 20488 H 1873.05 7.32657 3.64905 0
M  V30 20489 N 1875.71 -1.15554 1.07168 0
M  V30 20490 C 1877.12 -1.67889 0.816719 0
M  V30 20491 C 1877.47 -1.84821 -0.658442 0
M  V30 20492 O 1876.6 -1.55018 -1.50991 0
M  V30 20493 C 1877.19 -3.04959 1.47598 0
M  V30 20494 C 1875.75 -3.54378 1.26858 0
M  V30 20495 C 1874.9 -2.30148 1.54684 0
M  V30 20496 H 1877.85 -0.997938 1.23397 0
M  V30 20497 H 1877.87 -3.69796 0.89618 0
M  V30 20498 H 1877.38 -2.92603 2.54961 0
M  V30 20499 H 1875.48 -3.71979 0.215097 0
M  V30 20500 H 1875.59 -4.35932 1.98747 0
M  V30 20501 H 1873.96 -2.35597 0.967776 0
M  V30 20502 H 1874.74 -2.20381 2.63225 0
M  V30 20503 N 1877.19 -0.855519 -1.32358 0
M  V30 20504 C 1878.43 -0.460002 -1.97514 0
M  V30 20505 C 1878.77 0.982052 -1.67539 0
M  V30 20506 O 1878.04 1.68925 -0.964091 0
M  V30 20507 C 1878.32 -0.70064 -3.53218 0
M  V30 20508 C 1878.18 -2.19118 -3.9282 0
M  V30 20509 C 1879.5 -0.157597 -4.39818 0
M  V30 20510 H 1876.62 -0.168606 -0.717455 0
M  V30 20511 H 1879.26 -1.0741 -1.56726 0
M  V30 20512 H 1877.41 -0.177937 -3.88092 0
M  V30 20513 H 1879.08 -2.78002 -3.6812 0
M  V30 20514 H 1877.32 -2.66934 -3.41948 0
M  V30 20515 H 1877.99 -2.31024 -5.0133 0
M  V30 20516 H 1880.47 -0.604597 -4.11684 0
M  V30 20517 H 1879.35 -0.355532 -5.47747 0
M  V30 20518 H 1879.61 0.939679 -4.31998 0
M  V30 20519 N 1878.67 1.45167 -0.61354 0
M  V30 20520 C 1880.08 1.85674 -0.19544 0
M  V30 20521 C 1880.43 1.51303 1.24908 0
M  V30 20522 O 1879.55 0.94257 1.94794 0
M  V30 20523 C 1880.15 3.37009 -0.347921 0
M  V30 20524 C 1878.71 3.76397 0.0155323 0
M  V30 20525 C 1877.85 2.69095 -0.669578 0
M  V30 20526 H 1880.8 1.35883 -0.819842 0
M  V30 20527 H 1880.83 3.78195 0.418185 0
M  V30 20528 H 1880.34 3.61994 -1.39935 0
M  V30 20529 H 1878.44 3.57028 1.06591 0
M  V30 20530 H 1878.55 4.77573 -0.382267 0
M  V30 20531 H 1876.92 2.54477 -0.10662 0
M  V30 20532 H 1877.7 2.96915 -1.72326 0
M  V30 20533 N 1880.14 0.353044 1.53595 0
M  V30 20534 C 1881.39 -0.233537 2.02055 0
M  V30 20535 C 1881.74 -1.47437 1.23613 0
M  V30 20536 O 1881.04 -1.88943 0.317969 0
M  V30 20537 C 1881.23 -0.590811 3.52483 0
M  V30 20538 C 1881.06 0.613851 4.45491 0
M  V30 20539 C 1879.83 1.12208 4.92684 0
M  V30 20540 C 1882.03 1.47523 4.92688 0
M  V30 20541 N 1880.01 2.28808 5.69667 0
M  V30 20542 C 1881.38 2.48803 5.67888 0
M  V30 20543 C 1883.44 1.49957 4.74781 0
M  V30 20544 C 1882.14 3.52357 6.27086 0
M  V30 20545 C 1884.17 2.52398 5.34836 0
M  V30 20546 C 1883.53 3.52402 6.09912 0
M  V30 20547 H 1879.63 -0.0485078 0.780494 0
M  V30 20548 H 1882.21 0.494757 1.88309 0
M  V30 20549 H 1880.38 -1.2882 3.66415 0
M  V30 20550 H 1882.11 -1.1614 3.87677 0
M  V30 20551 H 1878.87 0.688673 4.68566 0
M  V30 20552 H 1879.29 2.87705 6.12825 0
M  V30 20553 H 1883.93 0.74 4.16274 0
M  V30 20554 H 1881.65 4.29203 6.84697 0
M  V30 20555 H 1885.24 2.5512 5.22882 0
M  V30 20556 H 1884.12 4.3037 6.55554 0
M  V30 20557 N 1881.62 -1.57387 0.0818932 0
M  V30 20558 C 1882.55 -2.16318 -0.879124 0
M  V30 20559 C 1883.53 -1.09293 -1.30342 0
M  V30 20560 O 1884.72 -1.37373 -1.37267 0
M  V30 20561 C 1881.85 -2.73293 -2.14308 0
M  V30 20562 C 1880.8 -3.85575 -1.85785 0
M  V30 20563 C 1880.13 -4.29195 -3.18897 0
M  V30 20564 C 1881.43 -5.09365 -1.15517 0
M  V30 20565 H 1883.12 -2.96873 -0.388166 0
M  V30 20566 H 1880.67 -1.42803 -0.185265 0
M  V30 20567 H 1882.62 -3.13168 -2.81964 0
M  V30 20568 H 1881.34 -1.89974 -2.65664 0
M  V30 20569 H 1880 -3.46219 -1.20532 0
M  V30 20570 H 1879.65 -3.42784 -3.68114 0
M  V30 20571 H 1879.35 -5.04889 -3.006 0
M  V30 20572 H 1880.88 -4.71694 -3.87734 0
M  V30 20573 H 1882.29 -5.46493 -1.73259 0
M  V30 20574 H 1880.69 -5.90403 -1.07444 0
M  V30 20575 H 1881.76 -4.8471 -0.135822 0
M  V30 20576 N 1883.1 0.191729 -1.56429 0
M  V30 20577 C 1884.06 1.22128 -1.93952 0
M  V30 20578 C 1885.06 1.38262 -0.820984 0
M  V30 20579 O 1886.25 1.36017 -1.08835 0
M  V30 20580 C 1883.38 2.59005 -2.21651 0
M  V30 20581 H 1884.58 0.900458 -2.86063 0
M  V30 20582 H 1882.13 0.433382 -1.50172 0
M  V30 20583 H 1882.87 2.96136 -1.32189 0
M  V30 20584 H 1882.65 2.48665 -3.03164 0
M  V30 20585 H 1884.14 3.33242 -2.51674 0
M  V30 20586 N 1884.58 1.50751 0.459565 0
M  V30 20587 C 1885.49 1.7326 1.58171 0
M  V30 20588 C 1886.5 0.616042 1.6273 0
M  V30 20589 O 1887.68 0.895726 1.80385 0
M  V30 20590 C 1884.74 1.83249 2.94314 0
M  V30 20591 C 1883.81 3.07031 3.00051 0
M  V30 20592 C 1883.04 3.16534 4.297 0
M  V30 20593 O 1883.26 2.32532 5.2085 0
M  V30 20594 O 1882.2 4.0935 4.41266 0
M  V30 20595 H 1886.02 2.68406 1.42098 0
M  V30 20596 H 1883.61 1.34985 0.640273 0
M  V30 20597 H 1885.49 1.91933 3.75153 0
M  V30 20598 H 1884.16 0.912887 3.10561 0
M  V30 20599 H 1883.07 3.0384 2.18248 0
M  V30 20600 H 1884.4 3.98608 2.88743 0
M  V30 20601 N 1886.06 -0.713531 1.40522 0
M  V30 20602 C 1887 -1.84894 1.41127 0
M  V30 20603 C 1888 -1.66873 0.291521 0
M  V30 20604 O 1889.2 -1.73952 0.46266 0
M  V30 20605 H 1885.58 -0.608985 0.441182 0
M  V30 20606 H 1887.55 -1.815 2.36855 0
M  V30 20607 C 1886.3 -3.22774 1.29276 0
M  V30 20608 H 1885.62 -3.37248 2.14718 0
M  V30 20609 H 1887.06 -4.02349 1.33759 0
M  V30 20610 C 1885.52 -3.369 0.00320525 0
M  V30 20611 O 1886.05 -3.90086 -0.958942 0
M  V30 20612 N 1884.26 -2.90523 -0.0669733 0
M  V30 20613 H 1883.8 -2.47428 0.716722 0
M  V30 20614 H 1883.76 -3.00353 -0.929262 0
M  V30 20615 N 1887.53 -1.26053 -0.945962 0
M  V30 20616 C 1888.44 -1.08959 -2.07762 0
M  V30 20617 C 1889.46 -0.0243726 -1.73983 0
M  V30 20618 O 1890.64 -0.227113 -2.00115 0
M  V30 20619 C 1887.7 -0.719365 -3.39155 0
M  V30 20620 C 1886.76 -1.86347 -3.86747 0
M  V30 20621 C 1885.99 -1.51082 -5.11869 0
M  V30 20622 O 1886.22 -0.410377 -5.68922 0
M  V30 20623 O 1885.15 -2.34395 -5.54385 0
M  V30 20624 H 1888.98 -2.03884 -2.25089 0
M  V30 20625 H 1886.56 -1.05071 -1.0621 0
M  V30 20626 H 1888.44 -0.525412 -4.18112 0
M  V30 20627 H 1887.12 0.20054 -3.23078 0
M  V30 20628 H 1886.03 -2.11235 -3.08756 0
M  V30 20629 H 1887.36 -2.76293 -4.07336 0
M  V30 20630 N 1889.01 1.14984 -1.07779 0
M  V30 20631 C 1890.24 1.89747 -0.824844 0
M  V30 20632 C 1890.65 1.78246 0.622385 0
M  V30 20633 O 1890.01 1.13739 1.42723 0
M  V30 20634 C 1890.06 3.39946 -1.2296 0
M  V30 20635 O 1889.78 3.5112 -2.62005 0
M  V30 20636 C 1891.28 4.31721 -1.00658 0
M  V30 20637 H 1888.5 0.601232 -0.297928 0
M  V30 20638 H 1891.05 1.4566 -1.43539 0
M  V30 20639 H 1889.2 3.81679 -0.663292 0
M  V30 20640 H 1889.62 4.44367 -2.78636 0
M  V30 20641 H 1891.09 5.35507 -1.33925 0
M  V30 20642 H 1891.57 4.39163 0.0568131 0
M  V30 20643 H 1892.17 3.95735 -1.55801 0
M  V30 20644 N 1890.49 0.862526 1.31902 0
M  V30 20645 C 1891.71 0.483159 2.01694 0
M  V30 20646 C 1892.14 -0.914778 1.64358 0
M  V30 20647 O 1891.5 -1.60229 0.848308 0
M  V30 20648 C 1891.55 0.638911 3.54895 0
M  V30 20649 O 1890.65 -0.324962 4.11118 0
M  V30 20650 H 1889.99 0.193128 0.635293 0
M  V30 20651 H 1892.52 1.16389 1.6827 0
M  V30 20652 H 1892.53 0.529394 4.04551 0
M  V30 20653 H 1891.21 1.65828 3.81411 0
M  V30 20654 H 1889.78 -0.171025 3.72508 0
M  V30 20655 N 1891.97 -1.4484 0.62123 0
M  V30 20656 C 1893.22 -2.02133 0.121784 0
M  V30 20657 C 1893.54 -1.48784 -1.25274 0
M  V30 20658 O 1892.8 -0.658116 -1.84302 0
M  V30 20659 C 1893.1 -3.57369 0.0470922 0
M  V30 20660 C 1892.76 -4.2993 1.35908 0
M  V30 20661 C 1891.43 -4.4947 1.71843 0
M  V30 20662 C 1893.78 -4.71295 2.22554 0
M  V30 20663 C 1891.11 -5.07634 2.94151 0
M  V30 20664 C 1893.46 -5.30812 3.44124 0
M  V30 20665 C 1892.12 -5.48573 3.80294 0
M  V30 20666 H 1891.39 -0.739659 0.044564 0
M  V30 20667 H 1894.04 -1.73732 0.805571 0
M  V30 20668 H 1892.34 -3.85127 -0.720022 0
M  V30 20669 H 1894.04 -3.99419 -0.355713 0
M  V30 20670 H 1890.63 -4.15044 1.06941 0
M  V30 20671 H 1894.81 -4.5592 1.96088 0
M  V30 20672 H 1890.07 -5.19572 3.22265 0
M  V30 20673 H 1894.24 -5.61816 4.11504 0
M  V30 20674 H 1891.87 -5.93409 4.75152 0
M  V30 20675 N 1893.45 -0.361184 -1.53405 0
M  V30 20676 C 1894.39 0.487369 -2.25596 0
M  V30 20677 C 1895.36 1.08114 -1.26097 0
M  V30 20678 O 1896.55 1.11446 -1.54869 0
M  V30 20679 C 1893.69 1.62342 -3.04531 0
M  V30 20680 C 1892.8 1.05525 -4.18914 0
M  V30 20681 C 1891.94 2.16004 -4.853 0
M  V30 20682 C 1890.98 1.5663 -5.91721 0
M  V30 20683 N 1890.11 2.60923 -6.51816 0
M  V30 20684 H 1894.95 -0.134748 -2.97695 0
M  V30 20685 H 1892.49 -0.0782688 -1.46892 0
M  V30 20686 H 1894.45 2.29252 -3.48568 0
M  V30 20687 H 1893.08 2.21626 -2.34695 0
M  V30 20688 H 1892.13 0.276561 -3.79393 0
M  V30 20689 H 1893.44 0.581111 -4.95403 0
M  V30 20690 H 1892.6 2.90743 -5.32497 0
M  V30 20691 H 1891.33 2.66768 -4.08272 0
M  V30 20692 H 1890.34 0.804031 -5.43889 0
M  V30 20693 H 1891.56 1.06696 -6.70666 0
M  V30 20694 H 1889.51 3.10909 -5.77643 0
M  V30 20695 H 1889.43 2.18184 -7.23831 0
M  V30 20696 H 1890.7 3.35378 -7.03663 0
M  V30 20697 N 1894.92 1.57341 -0.0902386 0
M  V30 20698 C 1895.87 2.13756 0.870448 0
M  V30 20699 C 1896.84 1.05483 1.28306 0
M  V30 20700 O 1898.03 1.33245 1.36567 0
M  V30 20701 C 1895.17 2.71839 2.12597 0
M  V30 20702 C 1894.28 3.94329 1.76433 0
M  V30 20703 C 1893.41 4.40593 2.96734 0
M  V30 20704 C 1892.45 5.55684 2.56674 0
M  V30 20705 N 1891.59 5.96822 3.69794 0
M  V30 20706 H 1896.43 2.95535 0.3825 0
M  V30 20707 H 1893.97 1.4603 0.177134 0
M  V30 20708 H 1895.93 3.03632 2.86118 0
M  V30 20709 H 1894.56 1.92797 2.589 0
M  V30 20710 H 1893.61 3.68882 0.928996 0
M  V30 20711 H 1894.92 4.77871 1.42973 0
M  V30 20712 H 1894.07 4.74143 3.78514 0
M  V30 20713 H 1892.81 3.55942 3.33401 0
M  V30 20714 H 1891.82 5.21767 1.7332 0
M  V30 20715 H 1893.04 6.4208 2.21156 0
M  V30 20716 H 1890.99 5.15118 4.06189 0
M  V30 20717 H 1890.91 6.75148 3.40163 0
M  V30 20718 H 1892.17 6.35002 4.52099 0
M  V30 20719 N 1896.4 -0.183431 1.56529 0
M  V30 20720 C 1897.63 -0.917888 1.85425 0
M  V30 20721 C 1898.05 -1.76353 0.674171 0
M  V30 20722 O 1897.4 -1.78975 -0.35695 0
M  V30 20723 C 1897.45 -1.80454 3.13239 0
M  V30 20724 O 1897.17 -0.993028 4.26697 0
M  V30 20725 C 1898.68 -2.64969 3.55396 0
M  V30 20726 H 1895.9 -0.267254 0.61548 0
M  V30 20727 H 1898.44 -0.187171 2.03642 0
M  V30 20728 H 1896.59 -2.48874 2.96884 0
M  V30 20729 H 1897.01 -1.59831 4.99554 0
M  V30 20730 H 1898.48 -3.22819 4.47763 0
M  V30 20731 H 1898.96 -3.3925 2.78937 0
M  V30 20732 H 1899.57 -2.01902 3.74321 0
M  V30 20733 N 1897.88 -1.50992 -0.451564 0
M  V30 20734 C 1898.81 -1.74216 -1.5547 0
M  V30 20735 C 1899.79 -0.591568 -1.59482 0
M  V30 20736 O 1900.98 -0.83279 -1.75437 0
M  V30 20737 C 1898.11 -1.85421 -2.9366 0
M  V30 20738 C 1897.06 -3.0076 -3.04512 0
M  V30 20739 C 1896.39 -2.9713 -4.44542 0
M  V30 20740 C 1897.69 -4.40961 -2.79911 0
M  V30 20741 H 1899.38 -2.66582 -1.36287 0
M  V30 20742 H 1896.93 -1.28281 -0.654207 0
M  V30 20743 H 1898.88 -2.00252 -3.70779 0
M  V30 20744 H 1897.6 -0.896921 -3.14043 0
M  V30 20745 H 1896.26 -2.85611 -2.2983 0
M  V30 20746 H 1895.91 -1.99207 -4.61872 0
M  V30 20747 H 1895.61 -3.74572 -4.52736 0
M  V30 20748 H 1897.13 -3.14035 -5.23655 0
M  V30 20749 H 1898.55 -4.56534 -3.4677 0
M  V30 20750 H 1896.95 -5.20002 -2.9953 0
M  V30 20751 H 1898.02 -4.51981 -1.75618 0
M  V30 20752 N 1899.36 0.706069 -1.40899 0
M  V30 20753 C 1900.27 1.85007 -1.44255 0
M  V30 20754 C 1901.28 1.70761 -0.334174 0
M  V30 20755 O 1902.46 1.9286 -0.580258 0
M  V30 20756 C 1899.53 3.20896 -1.31251 0
M  V30 20757 C 1898.59 3.47327 -2.52314 0
M  V30 20758 C 1897.82 4.76732 -2.39922 0
M  V30 20759 O 1898.04 5.5249 -1.41813 0
M  V30 20760 O 1896.98 5.03713 -3.2948 0
M  V30 20761 H 1900.8 1.85132 -2.40748 0
M  V30 20762 H 1898.39 0.857751 -1.22323 0
M  V30 20763 H 1900.27 4.02045 -1.26244 0
M  V30 20764 H 1898.94 3.21477 -0.378684 0
M  V30 20765 H 1897.85 2.66149 -2.62899 0
M  V30 20766 H 1899.18 3.5155 -3.4449 0
M  V30 20767 N 1900.84 1.26553 0.939264 0
M  V30 20768 C 1902.25 1.11093 1.50051 0
M  V30 20769 C 1902.6 -0.308105 1.93766 0
M  V30 20770 O 1901.72 -1.19981 1.80093 0
M  V30 20771 C 1902.32 2.01053 2.72696 0
M  V30 20772 C 1900.88 1.89734 3.25082 0
M  V30 20773 C 1900.02 1.94291 1.97854 0
M  V30 20774 H 1902.98 1.39614 0.754553 0
M  V30 20775 H 1903 1.55955 3.47071 0
M  V30 20776 H 1902.51 3.04325 2.40848 0
M  V30 20777 H 1900.61 0.894042 3.61715 0
M  V30 20778 H 1900.72 2.75368 3.92058 0
M  V30 20779 H 1899.09 1.38367 2.13838 0
M  V30 20780 H 1899.87 2.99196 1.68335 0
M  V30 20781 N 1902.31 -1.14411 1.08387 0
M  V30 20782 C 1903.54 -1.89307 0.834895 0
M  V30 20783 C 1903.96 -1.78574 -0.612923 0
M  V30 20784 O 1903.31 -1.14494 -1.42118 0
M  V30 20785 C 1903.37 -3.39289 1.24761 0
M  V30 20786 O 1903.09 -3.49725 2.63863 0
M  V30 20787 C 1904.59 -4.31181 1.02947 0
M  V30 20788 H 1901.81 -0.599644 0.301112 0
M  V30 20789 H 1904.35 -1.44897 1.44309 0
M  V30 20790 H 1902.51 -3.81322 0.683524 0
M  V30 20791 H 1902.92 -4.42884 2.80988 0
M  V30 20792 H 1904.39 -5.34789 1.36763 0
M  V30 20793 H 1904.87 -4.39187 -0.0335224 0
M  V30 20794 H 1905.48 -3.94903 1.57898 0
M  V30 20795 N 1903.79 -0.869509 -1.31443 0
M  V30 20796 C 1904.72 -0.340679 -2.31001 0
M  V30 20797 C 1905.7 0.568186 -1.6033 0
M  V30 20798 O 1906.89 0.485305 -1.88038 0
M  V30 20799 C 1904.02 0.45909 -3.44252 0
M  V30 20800 C 1902.97 -0.356639 -4.26512 0
M  V30 20801 C 1902.3 0.568786 -5.31666 0
M  V30 20802 C 1903.6 -1.59045 -4.97496 0
M  V30 20803 H 1905.29 -1.1726 -2.75482 0
M  V30 20804 H 1902.84 -0.5653 -1.3244 0
M  V30 20805 H 1904.79 0.839573 -4.12952 0
M  V30 20806 H 1903.52 1.32451 -2.98537 0
M  V30 20807 H 1902.17 -0.719063 -3.59479 0
M  V30 20808 H 1901.82 1.43148 -4.82201 0
M  V30 20809 H 1901.52 0.0268906 -5.87594 0
M  V30 20810 H 1903.05 0.946122 -6.03225 0
M  V30 20811 H 1904.46 -1.28144 -5.58795 0
M  V30 20812 H 1902.86 -2.07139 -5.63217 0
M  V30 20813 H 1903.93 -2.34354 -4.24507 0
M  V30 20814 N 1905.27 1.44508 -0.628902 0
M  V30 20815 C 1906.5 2.06942 -0.137778 0
M  V30 20816 C 1906.92 1.46672 1.17766 0
M  V30 20817 O 1906.28 0.567342 1.72194 0
M  V30 20818 C 1906.33 3.60584 -0.0341843 0
M  V30 20819 O 1905.43 3.99831 1.01038 0
M  V30 20820 H 1904.77 0.658696 -0.083759 0
M  V30 20821 H 1907.3 1.85418 -0.864951 0
M  V30 20822 H 1907.31 4.07697 0.157123 0
M  V30 20823 H 1905.99 4.03833 -0.994583 0
M  V30 20824 H 1904.56 3.64353 0.793824 0
M  V30 20825 N 1906.75 0.369315 1.53212 0
M  V30 20826 C 1907.68 -0.510161 2.2345 0
M  V30 20827 C 1908.69 -1.04313 1.24991 0
M  V30 20828 O 1909.88 -0.948869 1.51191 0
M  V30 20829 C 1906.98 -1.71753 2.92154 0
M  V30 20830 C 1906.16 -1.31542 4.17152 0
M  V30 20831 C 1905.22 -2.38526 4.69033 0
M  V30 20832 O 1904.24 -2.00761 5.32619 0
M  V30 20833 N 1905.44 -3.70165 4.47167 0
M  V30 20834 H 1908.21 0.0915031 2.9956 0
M  V30 20835 H 1905.77 0.194676 1.60725 0
M  V30 20836 H 1907.76 -2.42808 3.23769 0
M  V30 20837 H 1906.33 -2.22598 2.19474 0
M  V30 20838 H 1905.55 -0.434563 3.91797 0
M  V30 20839 H 1906.84 -1.02311 4.98407 0
M  V30 20840 H 1906.24 -4.0362 3.96368 0
M  V30 20841 H 1904.79 -4.37313 4.83323 0
M  V30 20842 N 1908.23 -1.57291 0.0985816 0
M  V30 20843 C 1909.64 -1.575 -0.258064 0
M  V30 20844 C 1909.84 -1.10997 -1.68172 0
M  V30 20845 O 1908.9 -0.78802 -2.39889 0
M  V30 20846 C 1910.21 -3.00669 -0.0433215 0
M  V30 20847 C 1911.76 -3.12804 -0.110802 0
M  V30 20848 C 1912.24 -4.57937 0.0759907 0
M  V30 20849 N 1913.73 -4.63195 0.021273 0
M  V30 20850 C 1914.46 -5.73227 0.141 0
M  V30 20851 N 1913.96 -6.9208 0.315756 0
M  V30 20852 N 1915.75 -5.6204 0.0820222 0
M  V30 20853 H 1907.9 -1.85826 1.02871 0
M  V30 20854 H 1910.16 -0.857869 0.403441 0
M  V30 20855 H 1909.87 -3.38903 0.940103 0
M  V30 20856 H 1909.74 -3.6896 -0.784124 0
M  V30 20857 H 1912.13 -2.7444 -1.08473 0
M  V30 20858 H 1912.21 -2.47098 0.661548 0
M  V30 20859 H 1911.86 -4.96995 1.04681 0
M  V30 20860 H 1911.79 -5.21708 -0.716096 0
M  V30 20861 H 1914.28 -3.77737 -0.111114 0
M  V30 20862 H 1914.59 -7.71772 0.398531 0
M  V30 20863 H 1912.94 -6.94111 0.351469 0
M  V30 20864 H 1916.13 -4.6807 -0.0533968 0
M  V30 20865 H 1916.3 -6.47753 0.178778 0
M  V30 20866 N 1909.71 0.175127 -1.56624 0
M  V30 20867 C 1910.93 0.912099 -1.86267 0
M  V30 20868 C 1911.36 1.75204 -0.684485 0
M  V30 20869 O 1910.71 1.77557 0.366501 0
M  V30 20870 C 1910.76 1.76776 -3.14297 0
M  V30 20871 O 1909.87 2.86894 -2.96253 0
M  V30 20872 H 1909.21 0.255728 -0.61278 0
M  V30 20873 H 1911.74 0.174416 -2.03855 0
M  V30 20874 H 1911.75 2.16845 -3.45604 0
M  V30 20875 H 1910.42 1.15077 -3.99663 0
M  V30 20876 H 1909 2.50435 -2.76291 0
M  V30 20877 N 1911.18 1.5123 0.44355 0
M  V30 20878 C 1912.43 1.62825 1.19041 0
M  V30 20879 C 1912.75 0.347298 1.92492 0
M  V30 20880 O 1913.95 0.342537 2.69331 0
M  V30 20881 C 1912.41 2.87532 2.16456 0
M  V30 20882 C 1912.02 4.22608 1.48682 0
M  V30 20883 C 1913.76 3.08483 2.91614 0
M  V30 20884 C 1911.67 5.38472 2.44544 0
M  V30 20885 H 1910.6 0.606444 0.448041 0
M  V30 20886 H 1913.25 1.77691 0.458065 0
M  V30 20887 H 1911.63 2.66287 2.931 0
M  V30 20888 H 1912.8 4.54212 0.776389 0
M  V30 20889 H 1911.12 4.07485 0.857007 0
M  V30 20890 H 1913.72 3.92219 3.63413 0
M  V30 20891 H 1914.06 2.2131 3.52601 0
M  V30 20892 H 1914.59 3.30039 2.22078 0
M  V30 20893 H 1911.33 6.27886 1.88255 0
M  V30 20894 H 1910.85 5.11252 3.13658 0
M  V30 20895 H 1912.53 5.70169 3.05804 0
M  V30 20896 N 1912.66 -0.698586 1.41271 0
M  V30 20897 C 1913.89 -1.48528 1.43608 0
M  V30 20898 C 1914.3 -1.8916 0.0388929 0
M  V30 20899 O 1913.64 -1.5714 -0.951457 0
M  V30 20900 C 1913.7 -2.78049 2.27879 0
M  V30 20901 C 1913.37 -2.59638 3.76081 0
M  V30 20902 C 1914.37 -2.25782 4.68315 0
M  V30 20903 C 1912.05 -2.75373 4.2009 0
M  V30 20904 C 1914.04 -2.07894 6.02544 0
M  V30 20905 C 1911.73 -2.57102 5.54384 0
M  V30 20906 C 1912.73 -2.23413 6.45427 0
M  V30 20907 O 1912.42 -2.05298 7.77244 0
M  V30 20908 H 1912.15 -0.464356 0.491273 0
M  V30 20909 H 1914.7 -0.867883 1.86164 0
M  V30 20910 H 1912.93 -3.42183 1.80132 0
M  V30 20911 H 1914.62 -3.39841 2.21953 0
M  V30 20912 H 1915.39 -2.13243 4.35606 0
M  V30 20913 H 1911.27 -3.00579 3.49533 0
M  V30 20914 H 1914.81 -1.81522 6.73569 0
M  V30 20915 H 1910.71 -2.6923 5.86673 0
M  V30 20916 H 1911.48 -2.20085 7.88356 0
M  V30 20917 N 1914.14 -1.27049 -0.93254 0
M  V30 20918 C 1915.07 -1.05151 -2.03656 0
M  V30 20919 C 1916.08 -0.00913996 -1.62797 0
M  V30 20920 O 1917.27 -0.25017 -1.76738 0
M  V30 20921 C 1914.37 -0.572071 -3.34037 0
M  V30 20922 C 1913.55 -1.68563 -4.03615 0
M  V30 20923 C 1912.61 -1.20276 -5.12269 0
M  V30 20924 O 1911.63 -1.9015 -5.36499 0
M  V30 20925 N 1912.83 -0.0558099 -5.80473 0
M  V30 20926 H 1915.6 -2.00221 -2.23006 0
M  V30 20927 H 1913.16 -1.18551 -1.1026 0
M  V30 20928 H 1915.15 -0.233036 -4.04029 0
M  V30 20929 H 1913.72 0.285274 -3.11296 0
M  V30 20930 H 1912.94 -2.19519 -3.27422 0
M  V30 20931 H 1914.23 -2.43313 -4.46852 0
M  V30 20932 H 1913.63 0.527516 -5.63235 0
M  V30 20933 H 1912.18 0.224082 -6.51415 0
M  V30 20934 N 1915.62 1.13835 -1.08993 0
M  V30 20935 C 1916.57 2.21179 -0.719905 0
M  V30 20936 C 1917.56 1.67118 0.277123 0
M  V30 20937 O 1918.77 1.79462 0.139054 0
M  V30 20938 H 1915.14 0.72067 -0.214799 0
M  V30 20939 H 1917.11 2.49654 -1.63448 0
M  V30 20940 C 1915.86 3.47368 -0.151794 0
M  V30 20941 H 1915.18 3.89302 -0.910172 0
M  V30 20942 H 1916.62 4.23943 0.0692336 0
M  V30 20943 C 1915.08 3.18024 1.11185 0
M  V30 20944 O 1915.61 3.36374 2.1958 0
M  V30 20945 N 1913.82 2.71938 1.0246 0
M  V30 20946 H 1913.37 2.57206 0.142456 0
M  V30 20947 H 1913.32 2.52679 1.87084 0
M  V30 20948 N 1917.1 0.876467 1.3098 0
M  V30 20949 C 1918.06 0.341893 2.26636 0
M  V30 20950 C 1919.06 -0.510816 1.52471 0
M  V30 20951 O 1920.25 -0.31919 1.71251 0
M  V30 20952 C 1917.38 -0.513725 3.37007 0
M  V30 20953 H 1918.57 1.18642 2.75434 0
M  V30 20954 H 1916.13 0.652602 1.42024 0
M  V30 20955 H 1916.86 -1.37919 2.93511 0
M  V30 20956 H 1916.65 0.0969443 3.9198 0
M  V30 20957 H 1918.14 -0.87981 4.08227 0
M  V30 20958 N 1918.57 -1.44173 0.636557 0
M  V30 20959 C 1919.52 -2.32472 -0.077248 0
M  V30 20960 C 1920.52 -1.47659 -0.830248 0
M  V30 20961 O 1921.72 -1.63971 -0.742533 0
M  V30 20962 H 1918.1 -0.750726 -0.0437543 0
M  V30 20963 H 1920.07 -2.9042 0.685465 0
M  V30 20964 C 1918.82 -3.31734 -1.04152 0
M  V30 20965 H 1918.14 -3.9701 -0.471531 0
M  V30 20966 H 1919.58 -3.96187 -1.51036 0
M  V30 20967 C 1918.04 -2.61069 -2.12943 0
M  V30 20968 O 1918.57 -2.41366 -3.211 0
M  V30 20969 N 1916.77 -2.20717 -1.8903 0
M  V30 20970 H 1916.32 -2.36941 -1.01077 0
M  V30 20971 H 1916.28 -1.73763 -2.62018 0
M  V30 20972 N 1920.05 -0.377435 -1.53014 0
M  V30 20973 C 1921.28 0.211512 -2.06319 0
M  V30 20974 C 1921.7 1.40713 -1.24825 0
M  V30 20975 O 1921.06 1.79274 -0.270279 0
M  V30 20976 C 1921.11 0.571512 -3.56042 0
M  V30 20977 O 1920.21 1.66713 -3.77201 0
M  V30 20978 H 1919.55 0.0279862 -0.66341 0
M  V30 20979 H 1922.08 -0.541471 -1.97305 0
M  V30 20980 H 1922.09 0.839182 -3.99277 0
M  V30 20981 H 1920.77 -0.302672 -4.14797 0
M  V30 20982 H 1919.34 1.3941 -3.4586 0
M  V30 20983 N 1921.53 1.57237 -0.106922 0
M  V30 20984 C 1922.46 2.10354 0.884666 0
M  V30 20985 C 1923.44 1.01696 1.26873 0
M  V30 20986 O 1924.63 1.29272 1.3719 0
M  V30 20987 C 1921.75 2.59029 2.18223 0
M  V30 20988 C 1920.8 3.79458 1.94715 0
M  V30 20989 S 1921.63 5.22464 1.17439 0
M  V30 20990 C 1922.79 5.74498 2.48401 0
M  V30 20991 H 1923.02 2.94132 0.432824 0
M  V30 20992 H 1920.55 1.54031 0.106612 0
M  V30 20993 H 1922.51 2.87729 2.92783 0
M  V30 20994 H 1921.17 1.75455 2.60527 0
M  V30 20995 H 1920.37 4.11624 2.9083 0
M  V30 20996 H 1919.97 3.51312 1.2828 0
M  V30 20997 H 1922.26 5.83486 3.44312 0
M  V30 20998 H 1923.2 6.72796 2.20797 0
M  V30 20999 H 1923.61 5.02494 2.57215 0
M  V30 21000 N 1923.01 -0.166818 1.56715 0
M  V30 21001 C 1923.92 -1.22632 1.99996 0
M  V30 21002 C 1924.93 -1.4818 0.912068 0
M  V30 21003 O 1926.11 -1.6024 1.22005 0
M  V30 21004 C 1923.18 -2.54444 2.35498 0
M  V30 21005 C 1922.24 -2.36718 3.58138 0
M  V30 21006 C 1921.47 -3.62244 3.91937 0
M  V30 21007 O 1921.69 -4.67609 3.26646 0
M  V30 21008 O 1920.63 -3.56087 4.85269 0
M  V30 21009 H 1924.45 -0.888926 2.90399 0
M  V30 21010 H 1922.04 -0.374032 1.44642 0
M  V30 21011 H 1923.92 -3.32191 2.59281 0
M  V30 21012 H 1922.59 -2.87753 1.48256 0
M  V30 21013 H 1921.5 -1.56987 3.39567 0
M  V30 21014 H 1922.83 -2.08332 4.45936 0
M  V30 21015 N 1924.49 -1.51463 -0.435524 0
M  V30 21016 C 1925.43 -1.72908 -1.52877 0
M  V30 21017 C 1926.4 -0.570809 -1.55984 0
M  V30 21018 O 1927.59 -0.805443 -1.72966 0
M  V30 21019 C 1924.73 -1.8617 -2.90576 0
M  V30 21020 C 1923.84 -3.13726 -2.96985 0
M  V30 21021 C 1922.98 -3.17573 -4.25818 0
M  V30 21022 C 1922.02 -4.39437 -4.26101 0
M  V30 21023 N 1921.15 -4.40823 -5.46461 0
M  V30 21024 H 1925.99 -2.66226 -1.33894 0
M  V30 21025 H 1923.53 -1.3194 -0.650399 0
M  V30 21026 H 1925.49 -1.91841 -3.70476 0
M  V30 21027 H 1924.12 -0.962585 -3.08114 0
M  V30 21028 H 1923.17 -3.17356 -2.09737 0
M  V30 21029 H 1924.48 -4.03634 -2.93055 0
M  V30 21030 H 1923.64 -3.2217 -5.14093 0
M  V30 21031 H 1922.37 -2.25558 -4.32406 0
M  V30 21032 H 1921.38 -4.35014 -3.36219 0
M  V30 21033 H 1922.6 -5.32718 -4.21175 0
M  V30 21034 H 1920.55 -3.51679 -5.53767 0
M  V30 21035 H 1920.47 -5.24541 -5.44419 0
M  V30 21036 H 1921.74 -4.49615 -6.36763 0
M  V30 21037 N 1925.96 0.691085 -1.4164 0
M  V30 21038 C 1926.87 1.83467 -1.46209 0
M  V30 21039 C 1927.89 1.70397 -0.352267 0
M  V30 21040 O 1929.07 1.92234 -0.60068 0
M  V30 21041 C 1926.13 3.19485 -1.34648 0
M  V30 21042 C 1925.19 3.44631 -2.55984 0
M  V30 21043 C 1924.43 4.7416 -2.44964 0
M  V30 21044 O 1924.65 5.50955 -1.47664 0
M  V30 21045 O 1923.58 5.0019 -3.34804 0
M  V30 21046 H 1927.41 1.82568 -2.42698 0
M  V30 21047 H 1924.99 0.844729 -1.23226 0
M  V30 21048 H 1926.88 4.00684 -1.30501 0
M  V30 21049 H 1925.55 3.21058 -0.41276 0
M  V30 21050 H 1924.46 2.63345 -2.65707 0
M  V30 21051 H 1925.79 3.47877 -3.48199 0
M  V30 21052 N 1927.44 1.27542 0.925789 0
M  V30 21053 C 1928.39 1.10432 2.02666 0
M  V30 21054 C 1929.36 0.004846 1.66099 0
M  V30 21055 O 1930.54 0.167531 1.90063 0
M  V30 21056 C 1927.68 0.759567 3.36637 0
M  V30 21057 C 1926.8 1.93687 3.86147 0
M  V30 21058 C 1925.93 1.53382 5.08574 0
M  V30 21059 C 1924.97 2.67849 5.50385 0
M  V30 21060 N 1924.11 2.2812 6.64007 0
M  V30 21061 H 1928.95 2.04632 2.16633 0
M  V30 21062 H 1926.49 1.01863 1.06124 0
M  V30 21063 H 1928.44 0.540492 4.13684 0
M  V30 21064 H 1927.07 -0.145477 3.22472 0
M  V30 21065 H 1926.13 2.26843 3.05363 0
M  V30 21066 H 1927.44 2.79548 4.13104 0
M  V30 21067 H 1926.59 1.2761 5.93128 0
M  V30 21068 H 1925.33 0.646332 4.83398 0
M  V30 21069 H 1924.34 2.94333 4.64379 0
M  V30 21070 H 1925.56 3.57222 5.77554 0
M  V30 21071 H 1923.51 1.41825 6.40485 0
M  V30 21072 H 1923.42 3.07519 6.90629 0
M  V30 21073 H 1924.69 2.056 7.51897 0
M  V30 21074 N 1928.92 -1.13255 1.09595 0
M  V30 21075 C 1929.87 -2.1872 0.736907 0
M  V30 21076 C 1930.84 -1.63677 -0.282692 0
M  V30 21077 O 1932.02 -1.90094 -0.163936 0
M  V30 21078 C 1929.16 -3.44703 0.165494 0
M  V30 21079 C 1928.28 -4.13841 1.23934 0
M  V30 21080 C 1927.41 -5.27445 0.630499 0
M  V30 21081 C 1926.45 -5.88435 1.68554 0
M  V30 21082 N 1925.59 -6.93468 1.09759 0
M  V30 21083 H 1930.43 -2.48779 1.64052 0
M  V30 21084 H 1927.96 -1.22152 0.819597 0
M  V30 21085 H 1929.92 -4.16796 -0.183618 0
M  V30 21086 H 1928.55 -3.15088 -0.701377 0
M  V30 21087 H 1927.6 -3.40014 1.70571 0
M  V30 21088 H 1928.92 -4.5525 2.03834 0
M  V30 21089 H 1928.07 -6.06263 0.230332 0
M  V30 21090 H 1926.81 -4.8729 -0.200028 0
M  V30 21091 H 1925.81 -5.08311 2.09523 0
M  V30 21092 H 1927.04 -6.30663 2.51876 0
M  V30 21093 H 1924.98 -6.55366 0.288376 0
M  V30 21094 H 1924.9 -7.33429 1.83353 0
M  V30 21095 H 1926.17 -7.76133 0.723688 0
M  V30 21096 N 1930.4 -0.883401 -1.30514 0
M  V30 21097 C 1931.63 -0.515948 -2.00364 0
M  V30 21098 C 1932.04 0.895148 -1.6623 0
M  V30 21099 O 1931.4 1.58844 -0.898601 0
M  V30 21100 C 1931.45 -0.679282 -3.55061 0
M  V30 21101 O 1931.17 -2.03482 -3.87978 0
M  V30 21102 C 1932.67 -0.314612 -4.42182 0
M  V30 21103 H 1929.89 -0.199595 -0.640627 0
M  V30 21104 H 1932.44 -1.18827 -1.66435 0
M  V30 21105 H 1930.59 -0.0543511 -3.87362 0
M  V30 21106 H 1931 -2.0523 -4.82681 0
M  V30 21107 H 1932.48 -0.4798 -5.49911 0
M  V30 21108 H 1932.96 0.747247 -4.32797 0
M  V30 21109 H 1933.56 -0.9158 -4.15323 0
M  V30 21110 N 1931.88 1.43833 -0.644194 0
M  V30 21111 C 1933.1 2.06784 -0.159719 0
M  V30 21112 C 1933.53 1.47913 1.16204 0
M  V30 21113 O 1932.88 0.585574 1.71583 0
M  V30 21114 C 1932.93 3.60527 -0.0724271 0
M  V30 21115 O 1932.04 4.0088 0.967917 0
M  V30 21116 H 1931.38 0.657771 -0.0907406 0
M  V30 21117 H 1933.91 1.8449 -0.884568 0
M  V30 21118 H 1933.92 4.07841 0.113872 0
M  V30 21119 H 1932.59 4.02755 -1.03736 0
M  V30 21120 H 1931.17 3.65174 0.755135 0
M  V30 21121 N 1933.35 0.385544 1.52811 0
M  V30 21122 C 1934.6 -0.198138 2.0183 0
M  V30 21123 C 1934.93 -1.46774 1.27165 0
M  V30 21124 O 1934.21 -1.90928 0.371034 0
M  V30 21125 C 1934.49 -0.469873 3.57021 0
M  V30 21126 C 1934.34 0.814756 4.42359 0
M  V30 21127 C 1935.66 -1.26209 4.21615 0
M  V30 21128 H 1932.78 -0.0705386 0.733617 0
M  V30 21129 H 1935.42 0.514372 1.82905 0
M  V30 21130 H 1933.57 -1.07684 3.73278 0
M  V30 21131 H 1935.25 1.45172 4.37862 0
M  V30 21132 H 1933.49 1.43088 4.09522 0
M  V30 21133 H 1934.16 0.57932 5.48952 0
M  V30 21134 H 1936.64 -0.748451 4.09313 0
M  V30 21135 H 1935.51 -1.42096 5.30188 0
M  V30 21136 H 1935.77 -2.27624 3.78998 0
M  V30 21137 N 1934.83 -1.57178 0.115259 0
M  V30 21138 C 1936.08 -1.95355 -0.54445 0
M  V30 21139 C 1936.41 -0.998445 -1.66567 0
M  V30 21140 O 1935.69 -0.0349993 -1.94469 0
M  V30 21141 C 1935.97 -3.43502 -1.08067 0
M  V30 21142 C 1935.82 -4.49785 0.0368794 0
M  V30 21143 C 1937.14 -3.9341 -1.97273 0
M  V30 21144 H 1934.26 -0.710338 -0.19644 0
M  V30 21145 H 1936.9 -1.89047 0.19006 0
M  V30 21146 H 1935.05 -3.49008 -1.70662 0
M  V30 21147 H 1936.72 -4.56379 0.672017 0
M  V30 21148 H 1934.97 -4.28106 0.700539 0
M  V30 21149 H 1935.64 -5.50694 -0.379481 0
M  V30 21150 H 1938.11 -3.90184 -1.44555 0
M  V30 21151 H 1936.99 -4.97596 -2.31711 0
M  V30 21152 H 1937.25 -3.33884 -2.89782 0
M  V30 21153 N 1936.31 0.158505 -1.56801 0
M  V30 21154 C 1937.54 0.888272 -1.86862 0
M  V30 21155 C 1937.95 1.75258 -0.702142 0
M  V30 21156 O 1937.31 1.7952 0.328431 0
M  V30 21157 C 1937.36 1.75448 -3.1607 0
M  V30 21158 O 1937.08 0.925019 -4.28223 0
M  V30 21159 C 1938.58 2.59282 -3.59566 0
M  V30 21160 H 1935.8 0.257429 -0.619654 0
M  V30 21161 H 1938.35 0.154749 -2.03914 0
M  V30 21162 H 1936.5 2.4412 -3.00806 0
M  V30 21163 H 1936.92 1.51863 -5.02034 0
M  V30 21164 H 1938.39 3.15655 -4.52842 0
M  V30 21165 H 1938.87 3.3477 -2.84299 0
M  V30 21166 H 1939.47 1.95921 -3.77485 0
M  V30 21167 N 1937.79 1.51692 0.427485 0
M  V30 21168 C 1938.72 1.69922 1.53816 0
M  V30 21169 C 1939.73 0.579757 1.52127 0
M  V30 21170 O 1940.92 0.854377 1.56725 0
M  V30 21171 C 1938.02 1.70772 2.92729 0
M  V30 21172 C 1937.2 2.99461 3.18813 0
M  V30 21173 C 1936.26 2.92367 4.37502 0
M  V30 21174 O 1935.28 3.663 4.35675 0
M  V30 21175 N 1936.48 2.08893 5.41612 0
M  V30 21176 H 1939.25 2.65737 1.38578 0
M  V30 21177 H 1936.81 1.497 0.616555 0
M  V30 21178 H 1938.8 1.63581 3.70167 0
M  V30 21179 H 1937.37 0.825087 3.01515 0
M  V30 21180 H 1936.59 3.20444 2.29585 0
M  V30 21181 H 1937.88 3.84629 3.33074 0
M  V30 21182 H 1937.28 1.48221 5.45937 0
M  V30 21183 H 1935.83 2.07575 6.17864 0
M  V30 21184 N 1939.27 -0.683564 1.42004 0
M  V30 21185 C 1940.68 -0.99563 1.24737 0
M  V30 21186 C 1940.88 -2.00976 0.145285 0
M  V30 21187 O 1939.94 -2.47771 -0.486376 0
M  V30 21188 C 1941.25 -1.50879 2.60108 0
M  V30 21189 C 1942.8 -1.62701 2.6739 0
M  V30 21190 C 1943.28 -2.17416 4.03106 0
M  V30 21191 N 1944.77 -2.24761 4.05015 0
M  V30 21192 C 1945.5 -2.68151 5.06836 0
M  V30 21193 N 1945 -3.11059 6.19043 0
M  V30 21194 N 1946.79 -2.67822 4.94194 0
M  V30 21195 H 1938.94 -0.011962 2.12397 0
M  V30 21196 H 1941.2 -0.0678489 0.945569 0
M  V30 21197 H 1940.91 -0.838159 3.41567 0
M  V30 21198 H 1940.78 -2.48899 2.83424 0
M  V30 21199 H 1943.17 -2.28873 1.86282 0
M  V30 21200 H 1943.25 -0.631947 2.47871 0
M  V30 21201 H 1942.9 -1.51856 4.84667 0
M  V30 21202 H 1942.83 -3.17698 4.19971 0
M  V30 21203 H 1945.32 -1.94497 3.24005 0
M  V30 21204 H 1945.63 -3.42828 6.92596 0
M  V30 21205 H 1943.98 -3.08937 6.22561 0
M  V30 21206 H 1947.17 -2.33658 4.05613 0
M  V30 21207 H 1947.34 -3.01318 5.73682 0
M  V30 21208 N 1940.75 -1.28031 -0.919012 0
M  V30 21209 C 1941.71 -1.11534 -2.00232 0
M  V30 21210 C 1942.71 -0.0566233 -1.607 0
M  V30 21211 O 1943.9 -0.30196 -1.71563 0
M  V30 21212 C 1941.03 -0.701371 -3.33607 0
M  V30 21213 H 1942.22 -2.0774 -2.16297 0
M  V30 21214 H 1939.78 -1.10942 -1.10098 0
M  V30 21215 H 1940.51 0.261682 -3.23243 0
M  V30 21216 H 1940.3 -1.4661 -3.63659 0
M  V30 21217 H 1941.79 -0.608444 -4.13144 0
M  V30 21218 N 1942.22 1.12672 -1.10194 0
M  V30 21219 C 1943.63 1.65664 -0.860944 0
M  V30 21220 C 1943.99 1.86502 0.609208 0
M  V30 21221 O 1943.11 1.58967 1.46828 0
M  V30 21222 C 1943.71 3.00939 -1.55632 0
M  V30 21223 C 1942.26 3.5089 -1.36209 0
M  V30 21224 C 1941.41 2.25966 -1.60732 0
M  V30 21225 H 1944.36 0.964871 -1.26 0
M  V30 21226 H 1944.38 3.6729 -0.99391 0
M  V30 21227 H 1943.9 2.85741 -2.62629 0
M  V30 21228 H 1942 3.71278 -0.313645 0
M  V30 21229 H 1942.11 4.30509 -2.10235 0
M  V30 21230 H 1940.47 2.32949 -1.0299 0
M  V30 21231 H 1941.26 2.13324 -2.68975 0
M  V30 21232 N 1943.7 0.89031 1.30043 0
M  V30 21233 C 1944.95 0.507478 1.95212 0
M  V30 21234 C 1945.26 -0.949179 1.71026 0
M  V30 21235 O 1946.47 -1.4391 2.30222 0
M  V30 21236 C 1944.93 0.856657 3.49556 0
M  V30 21237 C 1944.53 2.33145 3.82554 0
M  V30 21238 C 1946.28 0.543281 4.21009 0
M  V30 21239 C 1944.18 2.62198 5.301 0
M  V30 21240 H 1943.11 0.186056 0.730684 0
M  V30 21241 H 1945.77 1.08602 1.47912 0
M  V30 21242 H 1944.15 0.207146 3.95458 0
M  V30 21243 H 1945.32 3.02572 3.47544 0
M  V30 21244 H 1943.64 2.61289 3.24217 0
M  V30 21245 H 1946.23 0.737312 5.29592 0
M  V30 21246 H 1946.58 -0.517644 4.13069 0
M  V30 21247 H 1947.11 1.15022 3.80808 0
M  V30 21248 H 1943.85 3.67052 5.43096 0
M  V30 21249 H 1943.37 1.97385 5.66392 0
M  V30 21250 H 1945.05 2.47975 5.97593 0
M  V30 21251 N 1945.18 -1.43489 0.651812 0
M  V30 21252 C 1946.42 -2.03707 0.168214 0
M  V30 21253 C 1946.78 -1.50302 -1.19471 0
M  V30 21254 O 1947.98 -2.02154 -1.77164 0
M  V30 21255 C 1946.26 -3.56964 0.176447 0
M  V30 21256 S 1947.81 -4.38146 -0.239511 0
M  V30 21257 H 1944.63 -0.70742 0.0712573 0
M  V30 21258 H 1947.23 -1.75577 0.859833 0
M  V30 21259 H 1945.94 -3.93335 1.17115 0
M  V30 21260 H 1945.47 -3.89735 -0.535755 0
M  V30 21261 H 1947.48 -4.73654 -1.47874 0
M  V30 21262 N 1946.66 -0.393643 -1.52605 0
M  V30 21263 C 1947.88 0.189618 -2.06531 0
M  V30 21264 C 1948.31 1.39382 -1.26311 0
M  V30 21265 O 1947.67 1.78977 -0.289278 0
M  V30 21266 C 1947.71 0.533717 -3.56628 0
M  V30 21267 O 1946.82 1.62703 -3.78948 0
M  V30 21268 H 1946.16 0.0209483 -0.663669 0
M  V30 21269 H 1948.69 -0.562368 -1.9672 0
M  V30 21270 H 1948.7 0.796786 -4.00144 0
M  V30 21271 H 1947.37 -0.34665 -4.14453 0
M  V30 21272 H 1945.95 1.35734 -3.47319 0
M  V30 21273 N 1948.14 1.57115 -0.123593 0
M  V30 21274 C 1949.07 2.12637 0.855463 0
M  V30 21275 C 1950.08 1.07017 1.22683 0
M  V30 21276 O 1951.27 1.34374 1.17498 0
M  V30 21277 C 1948.37 2.61484 2.15591 0
M  V30 21278 C 1947.54 3.91252 1.95553 0
M  V30 21279 C 1946.6 4.25649 3.09369 0
M  V30 21280 O 1945.63 4.94387 2.82082 0
M  V30 21281 N 1946.83 3.83339 4.35926 0
M  V30 21282 H 1949.59 2.97267 0.381076 0
M  V30 21283 H 1947.16 1.61786 0.0606943 0
M  V30 21284 H 1949.15 2.81522 2.90736 0
M  V30 21285 H 1947.72 1.81708 2.54364 0
M  V30 21286 H 1946.94 3.80076 1.04575 0
M  V30 21287 H 1948.23 4.76095 1.79474 0
M  V30 21288 H 1947.62 3.27908 4.6097 0
M  V30 21289 H 1946.18 4.08477 5.07927 0
M  V30 21290 N 1949.61 -0.150187 1.56883 0
M  V30 21291 C 1950.52 -1.20504 2.01286 0
M  V30 21292 C 1951.54 -1.47204 0.927733 0
M  V30 21293 O 1952.72 -1.58937 1.23697 0
M  V30 21294 C 1949.78 -2.51932 2.38184 0
M  V30 21295 C 1948.84 -2.32906 3.60629 0
M  V30 21296 C 1948.07 -3.58067 3.95757 0
M  V30 21297 O 1948.3 -4.64119 3.31587 0
M  V30 21298 O 1947.23 -3.5092 4.89018 0
M  V30 21299 H 1951.06 -0.858075 2.91326 0
M  V30 21300 H 1948.64 -0.358669 1.45031 0
M  V30 21301 H 1950.52 -3.29423 2.6279 0
M  V30 21302 H 1949.2 -2.86165 1.513 0
M  V30 21303 H 1948.11 -1.53377 3.41213 0
M  V30 21304 H 1949.44 -2.0359 4.4812 0
M  V30 21305 N 1951.09 -1.51916 -0.419434 0
M  V30 21306 C 1952 -1.77393 -1.53522 0
M  V30 21307 C 1953.02 -0.65897 -1.61039 0
M  V30 21308 O 1954.19 -0.943237 -1.77947 0
M  V30 21309 C 1951.26 -1.90988 -2.89352 0
M  V30 21310 C 1950.32 -3.14878 -2.91805 0
M  V30 21311 C 1949.55 -3.27815 -4.21157 0
M  V30 21312 O 1949.78 -2.4626 -5.14502 0
M  V30 21313 O 1948.71 -4.20906 -4.30258 0
M  V30 21314 H 1952.54 -2.72079 -1.34932 0
M  V30 21315 H 1950.12 -1.36635 -0.604259 0
M  V30 21316 H 1952 -2.01812 -3.69932 0
M  V30 21317 H 1950.68 -0.994906 -3.08031 0
M  V30 21318 H 1949.59 -3.0952 -2.10115 0
M  V30 21319 H 1950.92 -4.06123 -2.78073 0
M  V30 21320 N 1952.57 0.676023 -1.42365 0
M  V30 21321 C 1953.82 1.43324 -1.42487 0
M  V30 21322 C 1954.14 1.94955 -0.0418589 0
M  V30 21323 O 1953.41 1.72984 0.919418 0
M  V30 21324 H 1951.99 0.531857 -0.524535 0
M  V30 21325 H 1954.65 0.798867 -1.77775 0
M  V30 21326 H 1953.75 2.28686 -2.12389 0
M  V30 21327 N 1954.05 1.28517 0.912209 0
M  V30 21328 C 1955.46 1.06257 1.19087 0
M  V30 21329 C 1955.66 -0.194098 2.00563 0
M  V30 21330 O 1954.72 -0.895341 2.36093 0
M  V30 21331 C 1956.03 2.31094 1.92396 0
M  V30 21332 C 1957.58 2.36288 2.05273 0
M  V30 21333 C 1958.06 3.60896 2.8199 0
M  V30 21334 N 1959.55 3.61545 2.89551 0
M  V30 21335 C 1960.28 4.54639 3.49416 0
M  V30 21336 N 1959.78 5.58053 4.10547 0
M  V30 21337 N 1961.57 4.42231 3.46969 0
M  V30 21338 H 1953.72 2.09183 0.368283 0
M  V30 21339 H 1955.99 0.920767 0.225593 0
M  V30 21340 H 1955.69 3.22653 1.39956 0
M  V30 21341 H 1955.57 2.37627 2.92939 0
M  V30 21342 H 1957.95 1.45225 2.56893 0
M  V30 21343 H 1958.03 2.33748 1.03901 0
M  V30 21344 H 1957.68 4.52304 2.31049 0
M  V30 21345 H 1957.61 3.6069 3.8368 0
M  V30 21346 H 1960.1 2.86764 2.46119 0
M  V30 21347 H 1960.41 6.25229 4.54212 0
M  V30 21348 H 1958.76 5.61877 4.09047 0
M  V30 21349 H 1961.95 3.60641 2.98422 0
M  V30 21350 H 1962.12 5.1497 3.93332 0
M  V30 21351 N 1955.53 -1.12086 1.1079 0
M  V30 21352 C 1956.77 -1.83314 0.850901 0
M  V30 21353 C 1957.1 -1.84703 -0.625275 0
M  V30 21354 O 1956.37 -1.31277 -1.45406 0
M  V30 21355 H 1954.95 -0.678817 0.311797 0
M  V30 21356 H 1957.61 -1.35707 1.39891 0
M  V30 21357 H 1956.7 -2.87393 1.21704 0
M  V30 21358 N 1957 -0.897194 -1.29569 0
M  V30 21359 C 1958.42 -0.592933 -1.48177 0
M  V30 21360 C 1958.62 0.866214 -1.81931 0
M  V30 21361 O 1957.68 1.64658 -1.91427 0
M  V30 21362 C 1958.99 -1.5166 -2.59653 0
M  V30 21363 C 1960.54 -1.52153 -2.73529 0
M  V30 21364 C 1961.01 -2.43142 -3.88131 0
M  V30 21365 N 1962.5 -2.41175 -3.9546 0
M  V30 21366 C 1963.24 -3.08283 -4.83476 0
M  V30 21367 N 1962.73 -3.84662 -5.76201 0
M  V30 21368 N 1964.53 -2.97453 -4.76946 0
M  V30 21369 H 1956.68 -1.84096 -1.05935 0
M  V30 21370 H 1958.94 -0.788701 -0.52598 0
M  V30 21371 H 1958.65 -2.55612 -2.41569 0
M  V30 21372 H 1958.52 -1.23526 -3.564 0
M  V30 21373 H 1960.91 -0.489472 -2.91012 0
M  V30 21374 H 1960.99 -1.84324 -1.77365 0
M  V30 21375 H 1960.63 -3.46441 -3.71404 0
M  V30 21376 H 1960.56 -2.08282 -4.83659 0
M  V30 21377 H 1963.05 -1.8568 -3.29137 0
M  V30 21378 H 1963.37 -4.32929 -6.4015 0
M  V30 21379 H 1961.71 -3.88769 -5.76094 0
M  V30 21380 H 1964.9 -2.37301 -4.03492 0
M  V30 21381 H 1965.08 -3.50029 -5.45329 0
M  V30 21382 N 1958.48 1.43142 -0.659413 0
M  V30 21383 C 1959.41 2.33495 0.0147266 0
M  V30 21384 C 1960.39 1.49819 0.805493 0
M  V30 21385 O 1961.58 1.78466 0.765732 0
M  V30 21386 C 1958.71 3.33261 0.977483 0
M  V30 21387 C 1957.66 4.26972 0.296396 0
M  V30 21388 C 1956.99 5.16824 1.37103 0
M  V30 21389 C 1958.29 5.15901 -0.815063 0
M  V30 21390 H 1959.98 2.90115 -0.739837 0
M  V30 21391 H 1957.53 1.39499 -0.357229 0
M  V30 21392 H 1959.48 3.95372 1.45805 0
M  V30 21393 H 1958.21 2.74911 1.76328 0
M  V30 21394 H 1956.86 3.66234 -0.16379 0
M  V30 21395 H 1956.51 4.5481 2.14842 0
M  V30 21396 H 1956.21 5.80345 0.920528 0
M  V30 21397 H 1957.74 5.81809 1.85284 0
M  V30 21398 H 1959.15 5.71786 -0.416382 0
M  V30 21399 H 1957.55 5.88175 -1.19041 0
M  V30 21400 H 1958.62 4.5522 -1.67042 0
M  V30 21401 N 1959.96 0.40173 1.52394 0
M  V30 21402 C 1961.38 0.0522587 1.59514 0
M  V30 21403 C 1961.58 -1.43455 1.41502 0
M  V30 21404 O 1960.63 -2.20053 1.23825 0
M  V30 21405 C 1961.95 0.540559 2.95801 0
M  V30 21406 C 1963.49 0.497892 3.09015 0
M  V30 21407 C 1963.97 0.962581 4.4777 0
M  V30 21408 N 1965.46 0.919099 4.5399 0
M  V30 21409 C 1966.19 1.24993 5.59611 0
M  V30 21410 N 1965.69 1.65185 6.72819 0
M  V30 21411 N 1967.48 1.17038 5.49781 0
M  V30 21412 H 1959.63 1.36954 1.6235 0
M  V30 21413 H 1961.9 0.562141 0.763349 0
M  V30 21414 H 1961.6 1.57946 3.14239 0
M  V30 21415 H 1961.48 -0.0537516 3.77162 0
M  V30 21416 H 1963.86 -0.531947 2.90266 0
M  V30 21417 H 1963.95 1.12816 2.29578 0
M  V30 21418 H 1963.59 1.99071 4.67261 0
M  V30 21419 H 1963.52 0.309196 5.25691 0
M  V30 21420 H 1966.01 0.623503 3.72721 0
M  V30 21421 H 1966.32 1.88759 7.49393 0
M  V30 21422 H 1964.67 1.69082 6.74119 0
M  V30 21423 H 1967.86 0.855299 4.6022 0
M  V30 21424 H 1968.03 1.43151 6.3199 0
M  V30 21425 N 1961.44 -1.57047 0.131923 0
M  V30 21426 C 1962.39 -2.12555 -0.824896 0
M  V30 21427 C 1963.37 -1.04953 -1.21957 0
M  V30 21428 O 1964.56 -1.31162 -1.18851 0
M  V30 21429 C 1961.69 -2.73877 -2.06993 0
M  V30 21430 C 1960.78 -3.88579 -1.69903 0
M  V30 21431 N 1961.17 -4.95086 -1.03556 0
M  V30 21432 C 1959.47 -3.99005 -1.99276 0
M  V30 21433 C 1960.17 -5.75324 -0.858894 0
M  V30 21434 N 1959.15 -5.25581 -1.388 0
M  V30 21435 H 1962.95 -2.92275 -0.308596 0
M  V30 21436 H 1960.46 -1.62249 -0.0701257 0
M  V30 21437 H 1962.46 -3.11996 -2.76522 0
M  V30 21438 H 1961.12 -1.95625 -2.59155 0
M  V30 21439 H 1962.13 -5.13174 -0.69804 0
M  V30 21440 H 1958.81 -3.3181 -2.53394 0
M  V30 21441 H 1960.2 -6.71054 -0.337114 0
M  V30 21442 N 1962.92 0.141865 -1.5696 0
M  V30 21443 C 1963.83 1.19435 -2.01922 0
M  V30 21444 C 1964.84 1.4671 -0.935527 0
M  V30 21445 O 1966.02 1.58279 -1.24538 0
M  V30 21446 C 1963.08 2.50665 -2.39516 0
M  V30 21447 C 1962.14 2.30991 -3.61859 0
M  V30 21448 C 1961.38 3.55963 -3.9765 0
M  V30 21449 O 1961.6 4.62354 -3.34044 0
M  V30 21450 O 1960.53 3.48322 -4.90872 0
M  V30 21451 H 1964.36 0.842613 -2.91777 0
M  V30 21452 H 1961.95 0.350973 -1.45219 0
M  V30 21453 H 1963.83 3.28024 -2.64534 0
M  V30 21454 H 1962.5 2.85358 -1.52815 0
M  V30 21455 H 1961.41 1.51565 -3.42022 0
M  V30 21456 H 1962.74 2.01211 -4.49194 0
M  V30 21457 N 1964.39 1.52136 0.411372 0
M  V30 21458 C 1965.62 1.6993 1.18031 0
M  V30 21459 C 1966.04 0.407806 1.84343 0
M  V30 21460 O 1965.39 -0.615981 1.7179 0
M  V30 21461 C 1965.45 2.83333 2.2451 0
M  V30 21462 O 1965.17 4.07482 1.60905 0
M  V30 21463 C 1966.67 3.12618 3.143 0
M  V30 21464 H 1963.89 0.569546 0.354765 0
M  V30 21465 H 1966.43 1.98683 0.484277 0
M  V30 21466 H 1964.59 2.57106 2.89785 0
M  V30 21467 H 1965 4.70657 2.31478 0
M  V30 21468 H 1966.47 3.95486 3.85091 0
M  V30 21469 H 1966.95 2.26078 3.76544 0
M  V30 21470 H 1967.56 3.40602 2.54697 0
M  V30 21471 N 1965.87 -0.668464 1.42721 0
M  V30 21472 C 1967.12 -1.43061 1.43741 0
M  V30 21473 C 1967.45 -1.9412 0.0558656 0
M  V30 21474 O 1966.73 -1.71317 -0.920904 0
M  V30 21475 C 1967.01 -2.62307 2.46712 0
M  V30 21476 C 1966.86 -2.16839 3.94082 0
M  V30 21477 C 1968.18 -3.64525 2.46596 0
M  V30 21478 H 1965.3 -0.518854 0.523412 0
M  V30 21479 H 1967.94 -0.759144 1.74175 0
M  V30 21480 H 1966.09 -3.19593 2.20891 0
M  V30 21481 H 1967.77 -1.64672 4.30907 0
M  V30 21482 H 1966.01 -1.48352 4.07645 0
M  V30 21483 H 1966.68 -3.02521 4.6172 0
M  V30 21484 H 1969.16 -3.16968 2.69574 0
M  V30 21485 H 1968.03 -4.45532 3.20613 0
M  V30 21486 H 1968.29 -4.16084 1.49421 0
M  V30 21487 N 1967.35 -1.28999 -0.905381 0
M  V30 21488 C 1968.3 -1.13642 -2.00883 0
M  V30 21489 C 1969.27 -0.0312703 -1.66071 0
M  V30 21490 O 1970.45 -0.197747 -1.89773 0
M  V30 21491 C 1967.59 -0.813027 -3.35386 0
M  V30 21492 C 1966.71 -1.99806 -3.83017 0
M  V30 21493 C 1965.84 -1.61454 -5.06069 0
M  V30 21494 C 1964.88 -2.76572 -5.46054 0
M  V30 21495 N 1964.02 -2.38655 -6.60294 0
M  V30 21496 H 1968.86 -2.08052 -2.1335 0
M  V30 21497 H 1966.39 -1.03539 -1.0449 0
M  V30 21498 H 1968.35 -0.606238 -4.12772 0
M  V30 21499 H 1966.98 0.094156 -3.22663 0
M  V30 21500 H 1966.03 -2.31672 -3.01715 0
M  V30 21501 H 1967.35 -2.86084 -4.08604 0
M  V30 21502 H 1966.5 -1.3703 -5.91023 0
M  V30 21503 H 1965.24 -0.723154 -4.82309 0
M  V30 21504 H 1964.24 -3.01684 -4.59638 0
M  V30 21505 H 1965.47 -3.66365 -5.71798 0
M  V30 21506 H 1963.42 -1.51997 -6.38148 0
M  V30 21507 H 1963.33 -3.18468 -6.85649 0
M  V30 21508 H 1964.6 -2.17536 -7.48531 0
M  V30 21509 N 1968.83 1.11497 -1.11383 0
M  V30 21510 C 1969.74 2.21101 -0.784315 0
M  V30 21511 C 1970.76 1.72574 0.222313 0
M  V30 21512 O 1971.93 2.01315 0.058632 0
M  V30 21513 C 1969 3.45925 -0.231713 0
M  V30 21514 C 1968.06 4.09243 -1.29687 0
M  V30 21515 C 1967.29 5.28108 -0.770542 0
M  V30 21516 O 1967.51 5.68998 0.399616 0
M  V30 21517 O 1966.45 5.81996 -1.53505 0
M  V30 21518 H 1970.27 2.51699 -1.69946 0
M  V30 21519 H 1967.86 1.20022 -0.889672 0
M  V30 21520 H 1969.74 4.21338 0.0721248 0
M  V30 21521 H 1968.42 3.1698 0.656146 0
M  V30 21522 H 1967.32 3.35564 -1.65371 0
M  V30 21523 H 1968.66 4.42365 -2.1581 0
M  V30 21524 N 1970.31 0.904053 1.29092 0
M  V30 21525 C 1971.72 0.600783 1.47861 0
M  V30 21526 C 1971.92 -0.856554 1.82388 0
M  V30 21527 O 1970.98 -1.6364 1.92297 0
M  V30 21528 C 1972.29 1.53035 2.58845 0
M  V30 21529 C 1973.84 1.53602 2.72719 0
M  V30 21530 C 1974.32 2.45197 3.86836 0
M  V30 21531 N 1975.81 2.43269 3.94176 0
M  V30 21532 C 1976.54 3.10843 4.81834 0
M  V30 21533 N 1976.04 3.87712 5.74153 0
M  V30 21534 N 1977.83 2.99979 4.75362 0
M  V30 21535 H 1969.98 1.84656 1.04957 0
M  V30 21536 H 1972.24 0.791479 0.52179 0
M  V30 21537 H 1971.95 2.5689 2.4021 0
M  V30 21538 H 1971.82 1.25414 3.5574 0
M  V30 21539 H 1974.21 0.504899 2.90749 0
M  V30 21540 H 1974.29 1.85262 1.76385 0
M  V30 21541 H 1973.94 3.48406 3.69562 0
M  V30 21542 H 1973.87 2.10844 4.82548 0
M  V30 21543 H 1976.36 1.87423 3.28148 0
M  V30 21544 H 1976.67 4.36317 6.37846 0
M  V30 21545 H 1975.02 3.91818 5.74024 0
M  V30 21546 H 1978.21 2.39437 4.02228 0
M  V30 21547 H 1978.38 3.52916 5.43465 0
M  V30 21548 N 1971.79 -1.4279 0.666995 0
M  V30 21549 C 1972.72 -2.29134 -0.0550112 0
M  V30 21550 C 1973.73 -1.43259 -0.773357 0
M  V30 21551 O 1974.92 -1.67057 -0.628816 0
M  V30 21552 C 1972.02 -3.20503 -1.1014 0
M  V30 21553 C 1971.19 -4.34991 -0.458443 0
M  V30 21554 C 1970.25 -5.07136 -1.40356 0
M  V30 21555 O 1969.28 -5.61929 -0.90686 0
M  V30 21556 N 1970.48 -5.1192 -2.73712 0
M  V30 21557 H 1973.24 -2.9174 0.686156 0
M  V30 21558 H 1970.81 -1.5363 0.510814 0
M  V30 21559 H 1972.8 -3.65634 -1.73477 0
M  V30 21560 H 1971.37 -2.59403 -1.74439 0
M  V30 21561 H 1970.59 -3.92605 0.354287 0
M  V30 21562 H 1971.88 -5.08799 -0.0101948 0
M  V30 21563 H 1971.27 -4.68799 -3.16613 0
M  V30 21564 H 1969.83 -5.60722 -3.32316 0
M  V30 21565 N 1973.26 -0.409806 -1.52179 0
M  V30 21566 C 1974.51 0.166003 -2.02119 0
M  V30 21567 C 1974.84 1.44732 -1.29484 0
M  V30 21568 O 1974.12 1.90314 -0.401362 0
M  V30 21569 C 1974.4 0.413015 -3.57724 0
M  V30 21570 C 1974.25 -0.885028 -4.41007 0
M  V30 21571 C 1975.57 1.19486 -4.2357 0
M  V30 21572 H 1972.69 0.0588585 -0.734646 0
M  V30 21573 H 1975.33 -0.543405 -1.82063 0
M  V30 21574 H 1973.48 1.01732 -3.74944 0
M  V30 21575 H 1975.16 -1.5212 -4.35497 0
M  V30 21576 H 1973.4 -1.49585 -4.07194 0
M  V30 21577 H 1974.07 -0.66658 -5.47961 0
M  V30 21578 H 1976.55 0.683238 -4.10452 0
M  V30 21579 H 1975.42 1.33644 -5.32382 0
M  V30 21580 H 1975.68 2.21566 -3.82571 0
M  V30 21581 N 1974.74 1.56975 -0.14025 0
M  V30 21582 C 1975.65 2.19981 0.815207 0
M  V30 21583 C 1976.67 1.18211 1.2768 0
M  V30 21584 O 1977.84 1.50762 1.33539 0
M  V30 21585 C 1974.91 2.80369 2.03946 0
M  V30 21586 C 1973.97 3.97244 1.62774 0
M  V30 21587 C 1973.2 4.54744 2.79363 0
M  V30 21588 O 1973.43 4.11124 3.9539 0
M  V30 21589 O 1972.36 5.45109 2.55224 0
M  V30 21590 H 1976.19 3.02125 0.308908 0
M  V30 21591 H 1973.77 1.4915 0.0864409 0
M  V30 21592 H 1975.65 3.18778 2.75606 0
M  V30 21593 H 1974.33 2.01243 2.53541 0
M  V30 21594 H 1973.23 3.63564 0.88158 0
M  V30 21595 H 1974.57 4.7787 1.17901 0
M  V30 21596 N 1976.22 -0.133539 1.57033 0
M  V30 21597 C 1977.63 -0.692222 1.73393 0
M  V30 21598 C 1977.98 -1.81019 0.756735 0
M  V30 21599 O 1977.11 -2.16275 -0.0736448 0
M  V30 21600 C 1977.7 -1.26245 3.144 0
M  V30 21601 C 1976.26 -1.76756 3.32316 0
M  V30 21602 C 1975.41 -0.661397 2.69297 0
M  V30 21603 H 1978.36 0.0922563 1.58432 0
M  V30 21604 H 1978.38 -2.13221 3.15146 0
M  V30 21605 H 1977.89 -0.44855 3.85499 0
M  V30 21606 H 1975.99 -2.6067 2.66236 0
M  V30 21607 H 1976.11 -1.88702 4.40373 0
M  V30 21608 H 1974.47 -1.0914 2.30132 0
M  V30 21609 H 1975.25 0.141281 3.43009 0
M  V30 21610 N 1977.7 -1.52352 -0.403298 0
M  V30 21611 C 1978.94 -1.66944 -1.15141 0
M  V30 21612 C 1979.28 -0.401064 -1.90013 0
M  V30 21613 O 1978.55 0.60071 -1.84991 0
M  V30 21614 C 1978.83 -2.89526 -2.14118 0
M  V30 21615 C 1978.69 -4.26428 -1.43104 0
M  V30 21616 C 1980.01 -3.07636 -3.14719 0
M  V30 21617 H 1977.13 -0.607531 -0.417223 0
M  V30 21618 H 1979.77 -1.84919 -0.436447 0
M  V30 21619 H 1977.92 -2.74332 -2.7509 0
M  V30 21620 H 1979.59 -4.53362 -0.852075 0
M  V30 21621 H 1977.83 -4.27563 -0.732965 0
M  V30 21622 H 1978.5 -5.08258 -2.15355 0
M  V30 21623 H 1980.98 -3.21767 -2.63828 0
M  V30 21624 H 1979.86 -3.94909 -3.81232 0
M  V30 21625 H 1980.12 -2.2121 -3.82777 0
M  V30 21626 N 1979.18 0.660885 -1.43074 0
M  V30 21627 C 1980.4 1.44878 -1.47709 0
M  V30 21628 C 1980.82 1.88573 -0.092615 0
M  V30 21629 O 1980.18 1.59015 0.89558 0
M  V30 21630 C 1980.23 2.6888 -2.41632 0
M  V30 21631 O 1979.95 2.27015 -3.74694 0
M  V30 21632 C 1981.45 3.62312 -2.5543 0
M  V30 21633 H 1978.67 0.445326 -0.501922 0
M  V30 21634 H 1981.21 0.810882 -1.87736 0
M  V30 21635 H 1979.37 3.28827 -2.0482 0
M  V30 21636 H 1979.78 3.07191 -4.25128 0
M  V30 21637 H 1981.26 4.46007 -3.25241 0
M  V30 21638 H 1981.73 4.09148 -1.59671 0
M  V30 21639 H 1982.34 3.08251 -2.93021 0
M  V30 21640 N 1980.65 1.29477 0.898527 0
M  V30 21641 C 1981.59 1.10513 2.00797 0
M  V30 21642 C 1982.6 0.0522996 1.62716 0
M  V30 21643 O 1983.79 0.296941 1.76013 0
M  V30 21644 C 1980.89 0.660433 3.32403 0
M  V30 21645 C 1980.06 1.79205 3.99004 0
M  V30 21646 C 1979.12 1.33816 5.089 0
M  V30 21647 O 1978.15 2.04308 5.31269 0
M  V30 21648 N 1979.35 0.209692 5.80121 0
M  V30 21649 H 1982.11 2.06063 2.17619 0
M  V30 21650 H 1979.67 1.21432 1.07078 0
M  V30 21651 H 1981.67 0.340075 4.03269 0
M  V30 21652 H 1980.24 -0.20264 3.11943 0
M  V30 21653 H 1979.46 2.28123 3.21487 0
M  V30 21654 H 1980.74 2.55075 4.40244 0
M  V30 21655 H 1980.14 -0.377998 5.64436 0
M  V30 21656 H 1978.7 -0.0512922 6.5178 0
M  V30 21657 N 1982.13 -1.10905 1.11972 0
M  V30 21658 C 1983.1 -2.1529 0.786324 0
M  V30 21659 C 1984.1 -1.59589 -0.196987 0
M  V30 21660 O 1985.29 -1.74177 0.0281964 0
M  V30 21661 C 1982.42 -3.40488 0.167611 0
M  V30 21662 H 1983.61 -2.46295 1.71111 0
M  V30 21663 H 1981.16 -1.26185 0.922332 0
M  V30 21664 H 1981.9 -3.15096 -0.76713 0
M  V30 21665 H 1981.68 -3.822 0.875514 0
M  V30 21666 H 1983.17 -4.17571 -0.0493303 0
M  V30 21667 N 1983.61 -0.910886 -1.2861 0
M  V30 21668 C 1984.54 -0.35439 -2.26444 0
M  V30 21669 C 1985.56 0.505552 -1.54751 0
M  V30 21670 O 1986.74 0.320897 -1.75592 0
M  V30 21671 C 1983.84 0.512332 -3.35005 0
M  V30 21672 C 1983.02 -0.324442 -4.36195 0
M  V30 21673 C 1982.08 0.476907 -5.24034 0
M  V30 21674 O 1981.1 -0.109526 -5.69095 0
M  V30 21675 N 1982.3 1.78057 -5.52518 0
M  V30 21676 H 1985.07 -1.1953 -2.74832 0
M  V30 21677 H 1982.63 -0.776536 -1.42062 0
M  V30 21678 H 1984.62 1.05509 -3.90704 0
M  V30 21679 H 1983.19 1.25395 -2.86347 0
M  V30 21680 H 1982.41 -1.04858 -3.79998 0
M  V30 21681 H 1983.7 -0.897099 -5.00829 0
M  V30 21682 H 1983.1 2.27959 -5.17737 0
M  V30 21683 H 1981.66 2.27022 -6.10986 0
M  V30 21684 N 1985.09 1.42434 -0.674558 0
M  V30 21685 C 1986 2.346 0.00398919 0
M  V30 21686 C 1987.01 1.55078 0.789109 0
M  V30 21687 O 1988.19 1.87647 0.731485 0
M  V30 21688 C 1985.26 3.33607 0.94379 0
M  V30 21689 C 1984.32 4.29026 0.153229 0
M  V30 21690 C 1983.55 5.23304 1.04827 0
M  V30 21691 O 1983.77 5.2251 2.28779 0
M  V30 21692 O 1982.71 5.99742 0.509202 0
M  V30 21693 H 1986.53 2.94161 -0.755189 0
M  V30 21694 H 1984.12 1.42933 -0.434794 0
M  V30 21695 H 1986 3.94431 1.4833 0
M  V30 21696 H 1984.67 2.76519 1.68282 0
M  V30 21697 H 1983.58 3.71616 -0.430381 0
M  V30 21698 H 1984.91 4.89155 -0.546686 0
M  V30 21699 N 1986.57 0.417871 1.51959 0
M  V30 21700 C 1987.48 -0.409946 2.3099 0
M  V30 21701 C 1988.49 -1.04559 1.39081 0
M  V30 21702 O 1989.67 -1.0452 1.72155 0
M  V30 21703 C 1986.73 -1.50691 3.12239 0
M  V30 21704 C 1985.79 -0.893424 4.199 0
M  V30 21705 C 1985.03 -1.93812 4.97265 0
M  V30 21706 O 1985.25 -3.15756 4.75031 0
M  V30 21707 O 1984.18 -1.53948 5.81879 0
M  V30 21708 H 1988.01 0.234696 3.02792 0
M  V30 21709 H 1985.6 0.180861 1.48301 0
M  V30 21710 H 1987.48 -2.14355 3.62808 0
M  V30 21711 H 1986.15 -2.136 2.43222 0
M  V30 21712 H 1985.06 -0.219262 3.73457 0
M  V30 21713 H 1986.39 -0.308133 4.91235 0
M  V30 21714 N 1988.04 -1.56898 0.148573 0
M  V30 21715 C 1988.95 -2.2041 -0.80353 0
M  V30 21716 C 1989.97 -1.18886 -1.27052 0
M  V30 21717 O 1991.15 -1.51468 -1.32738 0
M  V30 21718 C 1988.21 -2.81447 -2.02456 0
M  V30 21719 C 1987.27 -3.98102 -1.60665 0
M  V30 21720 C 1986.51 -4.56219 -2.76948 0
M  V30 21721 O 1986.73 -4.13215 -3.93204 0
M  V30 21722 O 1985.66 -5.46455 -2.52329 0
M  V30 21723 H 1989.49 -3.02284 -0.292881 0
M  V30 21724 H 1987.07 -1.49193 -0.0785299 0
M  V30 21725 H 1988.96 -3.20235 -2.73911 0
M  V30 21726 H 1987.63 -2.02585 -2.5247 0
M  V30 21727 H 1986.54 -3.64027 -0.862287 0
M  V30 21728 H 1987.87 -4.78489 -1.15365 0
M  V30 21729 N 1989.52 0.125209 -1.57102 0
M  V30 21730 C 1990.8 0.864033 -1.75482 0
M  V30 21731 C 1991.18 1.98355 -0.722399 0
M  V30 21732 O 1990.53 2.27075 0.254784 0
M  V30 21733 C 1990.74 1.38644 -3.20279 0
M  V30 21734 C 1992.09 1.84125 -3.82601 0
M  V30 21735 O 1993.11 1.48338 -3.23843 0
M  V30 21736 O 1991.97 2.50194 -4.85866 0
M  V30 21737 H 1989.06 0.409865 -0.718289 0
M  V30 21738 H 1991.61 0.109434 -1.69347 0
M  V30 21739 H 1990.38 0.582938 -3.86933 0
M  V30 21740 H 1990 2.20393 -3.30927 0
M  V30 21741 N 1991 1.52564 0.395213 0
M  V30 21742 C 1991.95 1.769 1.48239 0
M  V30 21743 C 1992.92 0.611965 1.54416 0
M  V30 21744 O 1994.1 0.851019 1.7077 0
M  V30 21745 C 1991.24 1.93809 2.85538 0
M  V30 21746 C 1990.36 3.2149 2.88562 0
M  V30 21747 C 1989.49 3.28751 4.17248 0
M  V30 21748 C 1988.53 4.5058 4.143 0
M  V30 21749 N 1987.67 4.55156 5.34581 0
M  V30 21750 H 1992.51 2.69683 1.26788 0
M  V30 21751 H 1990.04 1.33618 0.615189 0
M  V30 21752 H 1992 2.01597 3.6526 0
M  V30 21753 H 1990.63 1.04394 3.05453 0
M  V30 21754 H 1989.68 3.22805 2.01249 0
M  V30 21755 H 1991 4.11262 2.82251 0
M  V30 21756 H 1990.15 3.35687 5.0537 0
M  V30 21757 H 1988.89 2.36943 4.26274 0
M  V30 21758 H 1987.89 4.43775 3.24567 0
M  V30 21759 H 1989.12 5.43698 4.06902 0
M  V30 21760 H 1987.06 3.66237 5.44248 0
M  V30 21761 H 1986.98 5.38791 5.30321 0
M  V30 21762 H 1988.25 4.6634 6.24618 0
M  V30 21763 N 1992.48 -0.653289 1.43422 0
M  V30 21764 C 1993.44 -1.74802 1.48246 0
M  V30 21765 C 1994.44 -1.56552 0.367179 0
M  V30 21766 O 1995.63 -1.62451 0.628923 0
M  V30 21767 C 1992.76 -3.13673 1.33499 0
M  V30 21768 H 1993.96 -1.71906 2.4574 0
M  V30 21769 H 1991.51 -0.864936 1.30187 0
M  V30 21770 H 1992.24 -3.22181 0.370118 0
M  V30 21771 H 1992.03 -3.28325 2.14348 0
M  V30 21772 H 1993.52 -3.93502 1.39806 0
M  V30 21773 N 1993.96 -1.29952 -0.891648 0
M  V30 21774 C 1994.92 -1.15756 -1.97821 0
M  V30 21775 C 1995.92 -0.0906975 -1.60544 0
M  V30 21776 O 1997.11 -0.338283 -1.70884 0
M  V30 21777 C 1994.24 -0.771976 -3.32044 0
M  V30 21778 H 1995.43 -2.12281 -2.11842 0
M  V30 21779 H 1992.99 -1.13253 -1.07719 0
M  V30 21780 H 1993.72 0.193059 -3.23725 0
M  V30 21781 H 1993.51 -1.54291 -3.60467 0
M  V30 21782 H 1995 -0.695941 -4.1176 0
M  V30 21783 N 1995.44 1.1031 -1.12559 0
M  V30 21784 C 1996.68 1.82567 -0.883005 0
M  V30 21785 C 1997.01 1.85031 0.589667 0
M  V30 21786 O 1996.29 1.3119 1.43595 0
M  V30 21787 C 1996.57 3.29171 -1.46009 0
M  V30 21788 C 1996.43 3.35032 -3.00122 0
M  V30 21789 C 1997.74 4.25591 -1.12073 0
M  V30 21790 H 1994.86 0.662829 -0.322221 0
M  V30 21791 H 1997.51 1.29276 -1.3924 0
M  V30 21792 H 1995.66 3.74684 -1.02685 0
M  V30 21793 H 1997.33 2.9799 -3.52135 0
M  V30 21794 H 1995.57 2.74892 -3.35584 0
M  V30 21795 H 1996.24 4.3827 -3.35595 0
M  V30 21796 H 1998.72 3.88318 -1.49494 0
M  V30 21797 H 1997.59 5.26528 -1.55112 0
M  V30 21798 H 1997.85 4.42088 -0.0331138 0
M  V30 21799 N 1996.91 0.917694 1.28125 0
M  V30 21800 C 1998.16 0.552896 1.94806 0
M  V30 21801 C 1998.49 -0.904113 1.72209 0
M  V30 21802 O 1997.74 -1.65876 1.03844 0
M  V30 21803 C 1998.04 0.813214 3.48025 0
M  V30 21804 C 1997.71 2.25039 3.90728 0
M  V30 21805 C 1996.37 2.64331 4.02098 0
M  V30 21806 C 1998.72 3.18545 4.12527 0
M  V30 21807 C 1996.05 3.96274 4.32647 0
M  V30 21808 C 1998.4 4.50058 4.44557 0
M  V30 21809 C 1997.07 4.89198 4.54138 0
M  V30 21810 H 1996.34 0.202319 0.712845 0
M  V30 21811 H 1998.98 1.15976 1.52387 0
M  V30 21812 H 1997.29 0.123579 3.91605 0
M  V30 21813 H 1998.99 0.510076 3.97743 0
M  V30 21814 H 1995.58 1.93551 3.82408 0
M  V30 21815 H 1999.76 2.89395 4.03192 0
M  V30 21816 H 1995.02 4.26295 4.38272 0
M  V30 21817 H 1999.19 5.22523 4.60372 0
M  V30 21818 H 1996.82 5.91469 4.77565 0
M  V30 21819 N 1998.39 -1.42074 0.682102 0
M  V30 21820 C 1999.64 -2.0066 0.204581 0
M  V30 21821 C 1999.95 -1.54595 -1.19832 0
M  V30 21822 O 2001.16 -2.05648 -1.7726 0
M  V30 21823 C 1999.62 -3.5852 0.31488 0
M  V30 21824 C 1999.22 -4.13571 1.7223 0
M  V30 21825 C 2000.97 -4.24374 -0.103556 0
M  V30 21826 C 1998.87 -5.6382 1.78497 0
M  V30 21827 H 1997.8 -0.750485 0.0727253 0
M  V30 21828 H 2000.46 -1.62712 0.848346 0
M  V30 21829 H 1998.84 -3.94006 -0.396905 0
M  V30 21830 H 2000.01 -3.89531 2.46176 0
M  V30 21831 H 1998.33 -3.60195 2.08922 0
M  V30 21832 H 2000.92 -5.34645 -0.0769789 0
M  V30 21833 H 2001.27 -4.00385 -1.14005 0
M  V30 21834 H 2001.8 -3.93874 0.557477 0
M  V30 21835 H 1998.54 -5.92616 2.80154 0
M  V30 21836 H 1998.06 -5.89828 1.08918 0
M  V30 21837 H 1999.74 -6.28363 1.54172 0
M  V30 21838 N 1999.87 -0.425924 -1.51735 0
M  V30 21839 C 2000.8 0.426878 -2.2519 0
M  V30 21840 C 2001.81 0.996019 -1.28776 0
M  V30 21841 O 2003 0.892101 -1.54609 0
M  V30 21842 C 2000.1 1.60792 -2.98327 0
M  V30 21843 C 1999.28 1.15969 -4.21746 0
M  V30 21844 C 1998.34 2.20954 -4.77562 0
M  V30 21845 O 1997.36 1.80855 -5.39704 0
M  V30 21846 N 1998.56 3.53313 -4.60597 0
M  V30 21847 H 2001.33 -0.20262 -2.99014 0
M  V30 21848 H 1998.89 -0.254194 -1.59892 0
M  V30 21849 H 2000.88 2.30624 -3.32558 0
M  V30 21850 H 1999.45 2.14299 -2.27585 0
M  V30 21851 H 1998.67 0.28885 -3.9314 0
M  V30 21852 H 1999.96 0.837426 -5.01861 0
M  V30 21853 H 1999.36 3.88631 -4.11075 0
M  V30 21854 H 1997.91 4.19073 -4.9922 0
M  V30 21855 N 2001.35 1.56817 -0.156891 0
M  V30 21856 C 2002.57 2.01242 0.501622 0
M  V30 21857 C 2003 1.03635 1.56976 0
M  V30 21858 O 2002.36 0.0136188 1.81295 0
M  V30 21859 C 2002.4 3.44357 1.07007 0
M  V30 21860 O 2001.51 3.49783 2.18461 0
M  V30 21861 H 2000.85 0.652757 0.121673 0
M  V30 21862 H 2003.38 2.02985 -0.256537 0
M  V30 21863 H 2003.39 3.83364 1.39628 0
M  V30 21864 H 2002.06 4.14902 0.287924 0
M  V30 21865 H 2000.64 3.22626 1.86994 0
M  V30 21866 N 2002.83 -0.116876 1.57166 0
M  V30 21867 C 2003.77 -1.14325 2.00496 0
M  V30 21868 C 2004.74 -1.41031 0.877465 0
M  V30 21869 O 2005.93 -1.52861 1.14185 0
M  V30 21870 C 2003.07 -2.46409 2.41612 0
M  V30 21871 C 2002.18 -2.26621 3.67787 0
M  V30 21872 C 2001.32 -3.51951 3.97875 0
M  V30 21873 C 2000.35 -3.27329 5.17225 0
M  V30 21874 N 1999.49 -4.44867 5.43174 0
M  V30 21875 H 2004.33 -0.766757 2.87967 0
M  V30 21876 H 2001.87 -0.367106 1.42446 0
M  V30 21877 H 2003.83 -3.23465 2.63488 0
M  V30 21878 H 2002.46 -2.81947 1.5718 0
M  V30 21879 H 2001.51 -1.40472 3.53513 0
M  V30 21880 H 2002.82 -2.04405 4.54994 0
M  V30 21881 H 2001.97 -4.37424 4.20411 0
M  V30 21882 H 2000.71 -3.772 3.09147 0
M  V30 21883 H 1999.72 -2.40247 4.94532 0
M  V30 21884 H 2000.94 -3.03448 6.07533 0
M  V30 21885 H 1998.89 -4.70233 4.57403 0
M  V30 21886 H 1998.81 -4.25764 6.24709 0
M  V30 21887 H 2000.07 -5.31468 5.7023 0
M  V30 21888 N 2004.3 -1.52772 -0.387116 0
M  V30 21889 C 2005.53 -1.71538 -1.15145 0
M  V30 21890 C 2005.94 -0.434325 -1.84147 0
M  V30 21891 O 2005.28 0.60113 -1.73586 0
M  V30 21892 C 2005.35 -2.81074 -2.24137 0
M  V30 21893 C 2005.01 -4.2213 -1.75086 0
M  V30 21894 C 2006.01 -5.05224 -1.22658 0
M  V30 21895 C 2003.69 -4.68458 -1.81252 0
M  V30 21896 C 2005.69 -6.32726 -0.770461 0
M  V30 21897 C 2003.37 -5.95945 -1.35251 0
M  V30 21898 C 2004.37 -6.77909 -0.832359 0
M  V30 21899 O 2004.06 -8.03006 -0.379074 0
M  V30 21900 H 2003.79 -0.577655 -0.351128 0
M  V30 21901 H 2006.35 -2.00215 -0.458605 0
M  V30 21902 H 2004.58 -2.47822 -2.96852 0
M  V30 21903 H 2006.26 -2.88225 -2.85799 0
M  V30 21904 H 2007.03 -4.70614 -1.1725 0
M  V30 21905 H 2002.91 -4.04748 -2.2068 0
M  V30 21906 H 2006.45 -6.96651 -0.363786 0
M  V30 21907 H 2002.35 -6.30058 -1.40345 0
M  V30 21908 H 2003.12 -8.16969 -0.500379 0
M  V30 21909 N 2005.78 0.645673 -1.43767 0
M  V30 21910 C 2007.2 0.962209 -1.27333 0
M  V30 21911 C 2007.4 2.0052 -0.198519 0
M  V30 21912 O 2006.45 2.48974 0.420512 0
M  V30 21913 C 2007.77 1.4393 -2.64016 0
M  V30 21914 C 2009.31 1.55555 -2.71609 0
M  V30 21915 C 2009.79 2.06652 -4.08728 0
M  V30 21916 N 2011.28 2.13944 -4.10831 0
M  V30 21917 C 2012.02 2.54619 -5.13767 0
M  V30 21918 N 2011.51 2.94536 -6.27073 0
M  V30 21919 N 2013.3 2.54625 -5.01121 0
M  V30 21920 H 2005.46 -0.0443554 -2.12354 0
M  V30 21921 H 2007.72 0.042755 -0.947035 0
M  V30 21922 H 2007.42 0.747304 -3.43669 0
M  V30 21923 H 2007.3 2.41297 -2.89923 0
M  V30 21924 H 2009.69 2.23854 -1.92285 0
M  V30 21925 H 2009.77 0.566006 -2.49459 0
M  V30 21926 H 2009.41 1.38952 -4.88523 0
M  V30 21927 H 2009.34 3.06451 -4.28247 0
M  V30 21928 H 2011.83 1.85838 -3.29048 0
M  V30 21929 H 2012.14 3.24345 -7.01442 0
M  V30 21930 H 2010.49 2.92323 -6.30533 0
M  V30 21931 H 2013.68 2.22822 -4.11665 0
M  V30 21932 H 2013.85 2.86002 -5.81469 0
M  V30 21933 N 2007.26 1.30423 0.884744 0
M  V30 21934 C 2008.51 1.19023 1.63334 0
M  V30 21935 C 2008.83 -0.255228 1.93322 0
M  V30 21936 O 2008.1 -1.17189 1.56983 0
M  V30 21937 H 2006.68 0.437514 0.605467 0
M  V30 21938 H 2009.34 1.63552 1.06003 0
M  V30 21939 H 2008.44 1.75125 2.58336 0
M  V30 21940 N 2008.74 -1.09711 1.13142 0
M  V30 21941 C 2009.97 -1.85326 0.91311 0
M  V30 21942 C 2010.38 -1.81289 -0.541396 0
M  V30 21943 O 2009.72 -1.20519 -1.3864 0
M  V30 21944 C 2009.78 -3.34413 1.3194 0
M  V30 21945 C 2009.44 -3.62202 2.78673 0
M  V30 21946 C 2010.44 -3.58171 3.76841 0
M  V30 21947 C 2008.13 -3.9064 3.15762 0
M  V30 21948 C 2010.12 -3.82186 5.1011 0
M  V30 21949 C 2007.81 -4.1431 4.49211 0
M  V30 21950 C 2008.81 -4.10074 5.46194 0
M  V30 21951 O 2008.49 -4.33135 6.77236 0
M  V30 21952 H 2008.23 -0.592338 0.325748 0
M  V30 21953 H 2010.78 -1.39558 1.50708 0
M  V30 21954 H 2009.01 -3.80875 0.668681 0
M  V30 21955 H 2010.7 -3.91433 1.07403 0
M  V30 21956 H 2011.46 -3.36231 3.49533 0
M  V30 21957 H 2007.34 -3.93064 2.40878 0
M  V30 21958 H 2010.89 -3.78795 5.85799 0
M  V30 21959 H 2006.78 -4.35731 4.76245 0
M  V30 21960 H 2007.55 -4.50611 6.83295 0
M  V30 21961 N 2010.22 -0.924476 -1.27637 0
M  V30 21962 C 2011.16 -0.41967 -2.26952 0
M  V30 21963 C 2012.13 0.511683 -1.58022 0
M  V30 21964 O 2013.32 0.431544 -1.85856 0
M  V30 21965 C 2010.46 0.324433 -3.43572 0
M  V30 21966 C 2009.57 -0.640659 -4.27223 0
M  V30 21967 C 2008.71 0.122963 -5.31058 0
M  V30 21968 C 2007.75 -0.835045 -6.06377 0
M  V30 21969 N 2006.88 -0.104257 -7.02023 0
M  V30 21970 H 2011.72 -1.27159 -2.69508 0
M  V30 21971 H 2009.26 -0.63831 -1.32529 0
M  V30 21972 H 2011.22 0.772141 -4.09992 0
M  V30 21973 H 2009.85 1.14062 -3.01976 0
M  V30 21974 H 2008.9 -1.2069 -3.60747 0
M  V30 21975 H 2010.21 -1.37295 -4.79533 0
M  V30 21976 H 2009.37 0.630738 -6.03412 0
M  V30 21977 H 2008.1 0.888238 -4.79543 0
M  V30 21978 H 2007.11 -1.3541 -5.32864 0
M  V30 21979 H 2008.33 -1.60005 -6.59981 0
M  V30 21980 H 2006.28 0.642832 -6.52843 0
M  V30 21981 H 2006.2 -0.776174 -7.52005 0
M  V30 21982 H 2007.47 0.382972 -7.78559 0
M  V30 21983 N 2011.69 1.41711 -0.689627 0
M  V30 21984 C 2013.11 1.55473 -0.360597 0
M  V30 21985 C 2013.31 1.66635 1.13292 0
M  V30 21986 O 2012.37 1.64148 1.91864 0
M  V30 21987 C 2013.68 2.79704 -1.10392 0
M  V30 21988 C 2015.23 2.93494 -1.08768 0
M  V30 21989 C 2015.7 4.20604 -1.81263 0
M  V30 21990 N 2017.19 4.27549 -1.78203 0
M  V30 21991 C 2017.93 5.24749 -2.3114 0
M  V30 21992 N 2017.42 6.28015 -2.92522 0
M  V30 21993 N 2019.22 5.16648 -2.21429 0
M  V30 21994 H 2011.37 1.3271 -1.65837 0
M  V30 21995 H 2013.63 0.639848 -0.699499 0
M  V30 21996 H 2013.34 2.77645 -2.15885 0
M  V30 21997 H 2013.21 3.71044 -0.678662 0
M  V30 21998 H 2015.6 2.95071 -0.0410356 0
M  V30 21999 H 2015.68 2.03343 -1.55195 0
M  V30 22000 H 2015.32 4.19788 -2.85904 0
M  V30 22001 H 2015.25 5.09716 -1.32275 0
M  V30 22002 H 2017.74 3.53555 -1.33445 0
M  V30 22003 H 2018.06 6.98563 -3.30498 0
M  V30 22004 H 2016.4 6.28534 -2.96598 0
M  V30 22005 H 2019.59 4.34898 -1.73152 0
M  V30 22006 H 2019.77 5.92234 -2.62989 0
M  V30 22007 N 2013.17 0.433965 1.51507 0
M  V30 22008 C 2014.59 0.0860823 1.59368 0
M  V30 22009 C 2014.79 -1.40421 1.44513 0
M  V30 22010 O 2013.84 -2.17377 1.28465 0
M  V30 22011 C 2015.16 0.603181 2.94588 0
M  V30 22012 C 2016.71 0.563326 3.07889 0
M  V30 22013 C 2017.18 1.05734 4.45628 0
M  V30 22014 N 2018.67 1.01519 4.51938 0
M  V30 22015 C 2019.41 1.36835 5.56834 0
M  V30 22016 N 2018.9 1.79419 6.69164 0
M  V30 22017 N 2020.7 1.28673 5.47174 0
M  V30 22018 H 2012.85 1.40366 1.59408 0
M  V30 22019 H 2015.11 0.578206 0.751253 0
M  V30 22020 H 2014.82 1.64576 3.10818 0
M  V30 22021 H 2014.69 0.0262621 3.77191 0
M  V30 22022 H 2017.08 -0.470257 2.91329 0
M  V30 22023 H 2017.16 1.17661 2.27134 0
M  V30 22024 H 2016.8 2.08938 4.62934 0
M  V30 22025 H 2016.73 0.420634 5.24917 0
M  V30 22026 H 2019.22 0.702422 3.71314 0
M  V30 22027 H 2019.54 2.04612 7.45221 0
M  V30 22028 H 2017.88 1.83343 6.70381 0
M  V30 22029 H 2021.07 0.952726 4.58302 0
M  V30 22030 H 2021.24 1.56524 6.28812 0
M  V30 22031 N 2014.65 -1.56732 0.165206 0
M  V30 22032 C 2015.58 -2.1483 -0.798785 0
M  V30 22033 C 2016.6 -1.10232 -1.19803 0
M  V30 22034 O 2017.78 -1.37442 -1.13894 0
M  V30 22035 C 2014.88 -2.67108 -2.08583 0
M  V30 22036 C 2014.06 -3.96299 -1.8511 0
M  V30 22037 C 2013.12 -4.33702 -2.97975 0
M  V30 22038 O 2012.14 -5.01692 -2.68875 0
M  V30 22039 N 2013.34 -3.94762 -4.25609 0
M  V30 22040 H 2016.11 -2.98173 -0.302127 0
M  V30 22041 H 2013.67 -1.6189 -0.0177783 0
M  V30 22042 H 2015.66 -2.89132 -2.8317 0
M  V30 22043 H 2014.23 -1.88388 -2.49457 0
M  V30 22044 H 2013.45 -3.82715 -0.944608 0
M  V30 22045 H 2014.74 -4.80686 -1.66788 0
M  V30 22046 H 2014.14 -3.40014 -4.52114 0
M  V30 22047 H 2012.7 -4.218 -4.96919 0
M  V30 22048 N 2016.13 0.10854 -1.57226 0
M  V30 22049 C 2017.06 1.15853 -1.97764 0
M  V30 22050 C 2018.07 1.37073 -0.878345 0
M  V30 22051 O 2019.26 1.35963 -1.15657 0
M  V30 22052 C 2016.36 2.51663 -2.26978 0
M  V30 22053 C 2015.54 2.50904 -3.58282 0
M  V30 22054 C 2014.59 3.68538 -3.75588 0
M  V30 22055 O 2013.62 3.51644 -4.47588 0
M  V30 22056 N 2014.82 4.87507 -3.15146 0
M  V30 22057 H 2017.59 0.81361 -2.88445 0
M  V30 22058 H 2015.15 0.29769 -1.5914 0
M  V30 22059 H 2017.14 3.28936 -2.35761 0
M  V30 22060 H 2015.71 2.78297 -1.42372 0
M  V30 22061 H 2014.93 1.59271 -3.60592 0
M  V30 22062 H 2016.22 2.47463 -4.44567 0
M  V30 22063 H 2015.62 5.04137 -2.56637 0
M  V30 22064 H 2014.17 5.6242 -3.29434 0
M  V30 22065 N 2017.61 1.52975 0.379009 0
M  V30 22066 C 2018.54 1.81436 1.46981 0
M  V30 22067 C 2019.52 0.666985 1.56478 0
M  V30 22068 O 2020.7 0.915545 1.71264 0
M  V30 22069 C 2017.83 1.99221 2.84479 0
M  V30 22070 C 2016.79 3.14946 2.89816 0
M  V30 22071 C 2016.11 3.18001 4.2986 0
M  V30 22072 C 2017.41 4.53814 2.58554 0
M  V30 22073 H 2019.11 2.72781 1.23413 0
M  V30 22074 H 2016.65 1.31257 0.592257 0
M  V30 22075 H 2018.61 2.17714 3.60803 0
M  V30 22076 H 2017.33 1.04573 3.09406 0
M  V30 22077 H 2015.99 2.96251 2.15942 0
M  V30 22078 H 2015.64 2.21017 4.51841 0
M  V30 22079 H 2015.34 3.95746 4.34349 0
M  V30 22080 H 2016.86 3.38662 5.08075 0
M  V30 22081 H 2018.27 4.72559 3.24593 0
M  V30 22082 H 2016.67 5.33701 2.74379 0
M  V30 22083 H 2017.74 4.59845 1.53853 0
M  V30 22084 N 2019.08 -0.63804 1.44107 0
M  V30 22085 C 2020.5 -0.955442 1.27842 0
M  V30 22086 C 2020.7 -2.00412 0.209151 0
M  V30 22087 O 2019.76 -2.49193 -0.407303 0
M  V30 22088 C 2021.07 -1.42528 2.64776 0
M  V30 22089 C 2022.62 -1.54112 2.72431 0
M  V30 22090 C 2023.09 -2.04482 4.09819 0
M  V30 22091 N 2024.58 -2.11762 4.1196 0
M  V30 22092 C 2025.32 -2.51891 5.1511 0
M  V30 22093 N 2024.81 -2.91207 6.28626 0
M  V30 22094 N 2026.61 -2.51964 5.02464 0
M  V30 22095 H 2018.76 0.0556164 2.12327 0
M  V30 22096 H 2021.02 -0.037732 0.947249 0
M  V30 22097 H 2020.73 -0.729067 3.4406 0
M  V30 22098 H 2020.6 -2.39756 2.91199 0
M  V30 22099 H 2022.99 -2.22831 1.93469 0
M  V30 22100 H 2023.07 -0.552769 2.49756 0
M  V30 22101 H 2022.71 -1.3636 4.89253 0
M  V30 22102 H 2022.64 -3.04176 4.29866 0
M  V30 22103 H 2025.13 -1.8409 3.30029 0
M  V30 22104 H 2025.45 -3.2062 7.03152 0
M  V30 22105 H 2023.79 -2.88975 6.32075 0
M  V30 22106 H 2026.98 -2.20635 4.12841 0
M  V30 22107 H 2027.16 -2.82915 5.82978 0
M  V30 22108 N 2020.56 -1.3089 -0.877815 0
M  V30 22109 C 2021.51 -1.17878 -1.98427 0
M  V30 22110 C 2022.48 -0.0664893 -1.65967 0
M  V30 22111 O 2023.66 -0.237956 -1.8931 0
M  V30 22112 C 2020.8 -0.883984 -3.33586 0
M  V30 22113 C 2019.92 -2.07885 -3.78692 0
M  V30 22114 C 2019.05 -1.72152 -5.02531 0
M  V30 22115 C 2018.09 -2.88092 -5.40064 0
M  V30 22116 N 2017.23 -2.52607 -6.55083 0
M  V30 22117 H 2022.07 -2.12531 -2.08889 0
M  V30 22118 H 2019.61 -1.05732 -1.0227 0
M  V30 22119 H 2021.56 -0.693656 -4.11393 0
M  V30 22120 H 2020.19 0.0256933 -3.2279 0
M  V30 22121 H 2019.25 -2.3802 -2.96733 0
M  V30 22122 H 2020.56 -2.94687 -4.02444 0
M  V30 22123 H 2019.71 -1.49536 -5.87983 0
M  V30 22124 H 2018.45 -0.825297 -4.80666 0
M  V30 22125 H 2017.46 -3.11366 -4.53135 0
M  V30 22126 H 2018.68 -3.78412 -5.63898 0
M  V30 22127 H 2016.63 -1.65499 -6.3478 0
M  V30 22128 H 2016.54 -3.3294 -6.78739 0
M  V30 22129 H 2017.81 -2.33365 -7.43748 0
M  V30 22130 N 2022.04 1.0911 -1.13723 0
M  V30 22131 C 2023.32 1.77949 -0.812014 0
M  V30 22132 C 2023.7 1.99302 0.695832 0
M  V30 22133 O 2023.05 1.59704 1.63422 0
M  V30 22134 C 2023.26 3.10028 -1.60262 0
M  V30 22135 C 2024.6 3.84681 -1.79738 0
M  V30 22136 O 2025.63 3.19789 -1.56887 0
M  V30 22137 O 2024.49 5.01185 -2.17888 0
M  V30 22138 H 2021.58 0.7719 -0.296816 0
M  V30 22139 H 2024.13 1.15637 -1.24202 0
M  V30 22140 H 2022.9 2.8999 -2.62719 0
M  V30 22141 H 2022.52 3.80065 -1.16776 0
M  V30 22142 N 2023.52 0.931232 1.27145 0
M  V30 22143 C 2024.47 0.4317 2.26727 0
M  V30 22144 C 2025.44 -0.503295 1.58291 0
M  V30 22145 O 2026.62 -0.421681 1.86082 0
M  V30 22146 C 2023.76 -0.306208 3.43739 0
M  V30 22147 C 2022.87 0.663307 4.26877 0
M  V30 22148 C 2022.01 -0.0947979 5.31115 0
M  V30 22149 C 2021.05 0.867191 6.05926 0
M  V30 22150 N 2020.18 0.141485 7.01957 0
M  V30 22151 H 2025.02 1.28587 2.6883 0
M  V30 22152 H 2022.56 0.64533 1.32189 0
M  V30 22153 H 2024.52 -0.750387 4.10396 0
M  V30 22154 H 2023.15 -1.12458 3.02577 0
M  V30 22155 H 2022.2 1.22601 3.60102 0
M  V30 22156 H 2023.51 1.39836 4.78798 0
M  V30 22157 H 2022.67 -0.598728 6.03738 0
M  V30 22158 H 2021.41 -0.862794 4.80007 0
M  V30 22159 H 2020.41 1.38234 5.32139 0
M  V30 22160 H 2021.64 1.63503 6.59123 0
M  V30 22161 H 2019.58 -0.608201 6.53174 0
M  V30 22162 H 2019.5 0.816044 7.51583 0
M  V30 22163 H 2020.77 -0.341677 7.78751 0
M  V30 22164 N 2025 -1.41343 0.697132 0
M  V30 22165 C 2025.93 -2.28193 -0.017778 0
M  V30 22166 C 2026.91 -1.4232 -0.786373 0
M  V30 22167 O 2028.09 -1.71747 -0.776865 0
M  V30 22168 C 2025.22 -3.22577 -1.03256 0
M  V30 22169 C 2024.27 -4.25004 -0.356949 0
M  V30 22170 S 2025.1 -5.27852 0.901798 0
M  V30 22171 C 2026.25 -6.25801 -0.111346 0
M  V30 22172 H 2026.49 -2.88479 0.718839 0
M  V30 22173 H 2024.02 -1.46503 0.487463 0
M  V30 22174 H 2025.98 -3.77487 -1.61288 0
M  V30 22175 H 2024.64 -2.61384 -1.74176 0
M  V30 22176 H 2023.83 -4.9132 -1.12343 0
M  V30 22177 H 2023.43 -3.73698 0.150343 0
M  V30 22178 H 2025.73 -6.70605 -0.964122 0
M  V30 22179 H 2026.67 -7.06203 0.517933 0
M  V30 22180 H 2027.08 -5.62566 -0.466819 0
M  V30 22181 N 2026.48 -0.441993 -1.51275 0
M  V30 22182 C 2027.7 0.123815 -2.0703 0
M  V30 22183 C 2028.13 1.35293 -1.30681 0
M  V30 22184 O 2027.48 1.77966 -0.346072 0
M  V30 22185 C 2027.53 0.419988 -3.58146 0
M  V30 22186 O 2026.64 1.50565 -3.83932 0
M  V30 22187 H 2025.98 -0.00017643 -0.664 0
M  V30 22188 H 2028.51 -0.624668 -1.94831 0
M  V30 22189 H 2028.52 0.66908 -4.02476 0
M  V30 22190 H 2027.19 -0.478329 -4.1314 0
M  V30 22191 H 2025.77 1.24615 -3.51462 0
M  V30 22192 N 2027.95 1.56642 -0.173515 0
M  V30 22193 C 2029.18 2.01763 0.480249 0
M  V30 22194 C 2029.6 1.05294 1.55868 0
M  V30 22195 O 2028.96 0.0328468 1.8127 0
M  V30 22196 C 2029.01 3.45473 1.03349 0
M  V30 22197 O 2028.11 3.52081 2.14739 0
M  V30 22198 H 2027.45 0.654011 0.114743 0
M  V30 22199 H 2029.98 2.02702 -0.278052 0
M  V30 22200 H 2029.99 3.84823 1.35554 0
M  V30 22201 H 2028.67 4.15184 0.243902 0
M  V30 22202 H 2027.25 3.24591 1.83562 0
M  V30 22203 N 2029.43 -0.1002 1.57281 0
M  V30 22204 C 2030.68 -0.804623 1.85828 0
M  V30 22205 C 2031.01 -1.78981 0.761313 0
M  V30 22206 O 2030.26 -1.94153 -0.245591 0
M  V30 22207 C 2030.56 -1.57263 3.20941 0
M  V30 22208 C 2030.23 -0.730033 4.44951 0
M  V30 22209 C 2028.89 -0.497735 4.78619 0
M  V30 22210 C 2031.24 -0.143946 5.21001 0
M  V30 22211 C 2028.57 0.330597 5.85768 0
M  V30 22212 C 2030.92 0.671681 6.29024 0
M  V30 22213 C 2029.58 0.914119 6.61211 0
M  V30 22214 H 2028.85 -0.294433 0.679993 0
M  V30 22215 H 2031.5 -0.0662872 1.91385 0
M  V30 22216 H 2029.81 -2.3824 3.11045 0
M  V30 22217 H 2031.5 -2.12197 3.40255 0
M  V30 22218 H 2028.09 -0.921196 4.18583 0
M  V30 22219 H 2032.28 -0.310588 4.95327 0
M  V30 22220 H 2027.53 0.527461 6.09121 0
M  V30 22221 H 2031.71 1.13271 6.87126 0
M  V30 22222 H 2029.33 1.55777 7.44068 0
M  V30 22223 N 2030.91 -1.53174 -0.370891 0
M  V30 22224 C 2031.86 -1.79236 -1.45406 0
M  V30 22225 C 2032.83 -0.636453 -1.53423 0
M  V30 22226 O 2034.01 -0.878079 -1.69394 0
M  V30 22227 C 2031.15 -1.98327 -2.82419 0
M  V30 22228 C 2030.26 -3.2604 -2.83411 0
M  V30 22229 C 2029.4 -3.35348 -4.11965 0
M  V30 22230 C 2028.44 -4.57114 -4.07079 0
M  V30 22231 N 2027.58 -4.63603 -5.27272 0
M  V30 22232 H 2032.42 -2.71666 -1.22482 0
M  V30 22233 H 2029.95 -1.3458 -0.593853 0
M  V30 22234 H 2031.91 -2.07382 -3.62006 0
M  V30 22235 H 2030.54 -1.0924 -3.03754 0
M  V30 22236 H 2029.59 -3.25966 -1.96088 0
M  V30 22237 H 2030.9 -4.157 -2.75672 0
M  V30 22238 H 2030.06 -3.43685 -4.99966 0
M  V30 22239 H 2028.8 -2.43695 -4.2245 0
M  V30 22240 H 2027.8 -4.48883 -3.17466 0
M  V30 22241 H 2029.03 -5.50102 -3.98201 0
M  V30 22242 H 2026.97 -3.74849 -5.38353 0
M  V30 22243 H 2026.89 -5.4716 -5.21682 0
M  V30 22244 H 2028.16 -4.76218 -6.1712 0
M  V30 22245 N 2032.39 0.630389 -1.44443 0
M  V30 22246 C 2033.34 1.73605 -1.47802 0
M  V30 22247 C 2034.32 1.57186 -0.343728 0
M  V30 22248 O 2035.51 1.6691 -0.589083 0
M  V30 22249 C 2032.64 3.12293 -1.42577 0
M  V30 22250 C 2031.73 3.34179 -2.61123 0
M  V30 22251 N 2032.12 3.26429 -3.86365 0
M  V30 22252 C 2030.42 3.64978 -2.56334 0
M  V30 22253 C 2031.12 3.49024 -4.65357 0
M  V30 22254 N 2030.09 3.71932 -3.96443 0
M  V30 22255 H 2033.9 1.66072 -2.42482 0
M  V30 22256 H 2031.41 0.832879 -1.39416 0
M  V30 22257 H 2033.41 3.91583 -1.43067 0
M  V30 22258 H 2032.07 3.20991 -0.489358 0
M  V30 22259 H 2033.08 3.05331 -4.18322 0
M  V30 22260 H 2029.76 3.80653 -1.71492 0
M  V30 22261 H 2031.15 3.48618 -5.74383 0
M  V30 22262 N 2033.87 1.31354 0.870861 0
M  V30 22263 C 2034.8 1.14748 1.98408 0
M  V30 22264 C 2035.81 0.0868023 1.62568 0
M  V30 22265 O 2037 0.334209 1.75343 0
M  V30 22266 C 2034.1 0.730792 3.30927 0
M  V30 22267 C 2033.27 1.87628 3.95113 0
M  V30 22268 C 2032.33 1.44581 5.05948 0
M  V30 22269 O 2031.36 2.15531 5.26816 0
M  V30 22270 N 2032.56 0.332698 5.79546 0
M  V30 22271 H 2035.32 2.10633 2.13199 0
M  V30 22272 H 2032.89 1.23676 1.04479 0
M  V30 22273 H 2034.88 0.425538 4.02457 0
M  V30 22274 H 2033.45 -0.136426 3.12302 0
M  V30 22275 H 2032.67 2.3489 3.16576 0
M  V30 22276 H 2033.96 2.64356 4.34734 0
M  V30 22277 H 2033.35 -0.258188 5.65111 0
M  V30 22278 H 2031.91 0.0869715 6.51742 0
M  V30 22279 N 2035.34 -1.08505 1.143 0
M  V30 22280 C 2036.76 -1.32937 0.883172 0
M  V30 22281 C 2036.96 -1.95791 -0.47623 0
M  V30 22282 O 2036.02 -2.2103 -1.22073 0
M  V30 22283 C 2037.33 -2.23189 2.01512 0
M  V30 22284 C 2038.88 -2.36672 2.0483 0
M  V30 22285 C 2039.35 -3.30266 3.17314 0
M  V30 22286 N 2040.84 -3.37843 3.16886 0
M  V30 22287 C 2041.58 -4.1029 4.00561 0
M  V30 22288 N 2041.07 -4.85454 4.94274 0
M  V30 22289 N 2042.87 -4.06111 3.88626 0
M  V30 22290 H 2035.02 -0.660869 2.01857 0
M  V30 22291 H 2037.28 -0.353741 0.879529 0
M  V30 22292 H 2036.99 -1.84248 2.99576 0
M  V30 22293 H 2036.86 -3.23644 1.93738 0
M  V30 22294 H 2039.25 -2.74873 1.07373 0
M  V30 22295 H 2039.33 -1.35963 2.16674 0
M  V30 22296 H 2038.97 -2.92787 4.15016 0
M  V30 22297 H 2038.9 -4.30901 3.02707 0
M  V30 22298 H 2041.39 -2.84257 2.49011 0
M  V30 22299 H 2041.71 -5.38193 5.54588 0
M  V30 22300 H 2040.05 -4.8451 4.98272 0
M  V30 22301 H 2043.24 -3.46497 3.14734 0
M  V30 22302 H 2043.42 -4.6231 4.54064 0
M  V30 22303 N 2036.82 -0.937962 -1.26649 0
M  V30 22304 C 2038.07 -0.57958 -1.93194 0
M  V30 22305 C 2038.38 0.88505 -1.74431 0
M  V30 22306 O 2039.59 1.35267 -2.35404 0
M  V30 22307 C 2038.05 -0.985803 -3.46136 0
M  V30 22308 C 2037.65 -2.47182 -3.73637 0
M  V30 22309 C 2039.4 -0.699162 -4.18703 0
M  V30 22310 C 2037.3 -2.81691 -5.20004 0
M  V30 22311 H 2036.23 -0.213046 -0.723275 0
M  V30 22312 H 2038.89 -1.14017 -1.43779 0
M  V30 22313 H 2037.27 -0.353775 -3.94417 0
M  V30 22314 H 2038.44 -3.15263 -3.36075 0
M  V30 22315 H 2036.76 -2.73143 -3.14296 0
M  V30 22316 H 2039.35 -0.933359 -5.26491 0
M  V30 22317 H 2039.7 0.363979 -4.14706 0
M  V30 22318 H 2040.23 -1.29076 -3.76277 0
M  V30 22319 H 2036.97 -3.86955 -5.29099 0
M  V30 22320 H 2036.49 -2.1827 -5.58675 0
M  V30 22321 H 2038.17 -2.69984 -5.87978 0
M  V30 22322 N 2038.3 1.40971 -0.704618 0
M  V30 22323 C 2039.55 2.01377 -0.239781 0
M  V30 22324 C 2039.88 1.5571 1.16051 0
M  V30 22325 O 2039.15 0.772278 1.78511 0
M  V30 22326 C 2039.44 3.58784 -0.307556 0
M  V30 22327 C 2039.29 4.14553 -1.74544 0
M  V30 22328 C 2040.61 4.3888 0.327516 0
M  V30 22329 H 2037.73 0.731655 -0.088603 0
M  V30 22330 H 2040.37 1.67597 -0.895048 0
M  V30 22331 H 2038.52 3.87692 0.25036 0
M  V30 22332 H 2040.19 3.96486 -2.3579 0
M  V30 22333 H 2038.43 3.69254 -2.2767 0
M  V30 22334 H 2039.11 5.23715 -1.74433 0
M  V30 22335 H 2041.58 4.15838 -0.147737 0
M  V30 22336 H 2040.46 5.48332 0.249594 0
M  V30 22337 H 2040.72 4.19029 1.40952 0
M  V30 22338 N 2039.78 0.45001 1.51039 0
M  V30 22339 C 2041.01 -0.110496 2.06605 0
M  V30 22340 C 2041.42 -1.35362 1.31615 0
M  V30 22341 O 2040.78 -1.78515 0.379306 0
M  V30 22342 C 2040.83 -0.419948 3.59052 0
M  V30 22343 O 2040.55 0.773848 4.31211 0
M  V30 22344 C 2042.05 -1.02974 4.31174 0
M  V30 22345 H 2039.27 -0.00230221 0.670996 0
M  V30 22346 H 2041.82 0.632737 1.94465 0
M  V30 22347 H 2039.97 -1.11309 3.71065 0
M  V30 22348 H 2040.38 0.505717 5.22056 0
M  V30 22349 H 2041.86 -1.19617 5.38884 0
M  V30 22350 H 2042.34 -2.01422 3.9029 0
M  V30 22351 H 2042.94 -0.375607 4.23638 0
M  V30 22352 N 2041.26 -1.56548 0.18182 0
M  V30 22353 C 2042.48 -2.01575 -0.466395 0
M  V30 22354 C 2042.9 -1.06202 -1.56098 0
M  V30 22355 O 2042.26 -0.064631 -1.82386 0
M  V30 22356 C 2042.31 -3.46366 -1.03502 0
M  V30 22357 O 2042.03 -4.38097 0.0158824 0
M  V30 22358 C 2043.53 -4.06846 -1.76042 0
M  V30 22359 H 2040.75 -0.660472 -0.118395 0
M  V30 22360 H 2043.29 -2.02481 0.286632 0
M  V30 22361 H 2041.45 -3.46201 -1.73849 0
M  V30 22362 H 2041.86 -5.22931 -0.405425 0
M  V30 22363 H 2043.34 -5.1005 -2.11076 0
M  V30 22364 H 2043.81 -3.4954 -2.65929 0
M  V30 22365 H 2044.42 -4.10745 -1.10312 0
M  V30 22366 N 2042.73 0.0918577 -1.57332 0
M  V30 22367 C 2044.15 0.646006 -1.75167 0
M  V30 22368 C 2044.5 1.78949 -0.804463 0
M  V30 22369 O 2043.62 2.16394 0.0162775 0
M  V30 22370 C 2044.22 1.17865 -3.17637 0
M  V30 22371 C 2042.78 1.67884 -3.36886 0
M  V30 22372 C 2041.92 0.589766 -2.70956 0
M  V30 22373 H 2044.87 -0.134229 -1.58131 0
M  V30 22374 H 2044.89 2.04791 -3.20688 0
M  V30 22375 H 2044.41 0.346184 -3.86553 0
M  V30 22376 H 2042.51 2.5352 -2.73054 0
M  V30 22377 H 2042.62 1.7696 -4.45221 0
M  V30 22378 H 2040.98 1.03 -2.32945 0
M  V30 22379 H 2041.77 -0.232174 -3.42514 0
M  V30 22380 N 2044.21 1.53368 0.362763 0
M  V30 22381 C 2045.44 1.73599 1.12565 0
M  V30 22382 C 2045.86 0.466247 1.82952 0
M  V30 22383 O 2045.21 -0.561016 1.73663 0
M  V30 22384 C 2045.26 2.90332 2.15382 0
M  V30 22385 O 2044.98 4.12394 1.4786 0
M  V30 22386 C 2046.49 3.22459 3.04196 0
M  V30 22387 H 2043.71 0.580544 0.336466 0
M  V30 22388 H 2046.25 2.00123 0.420823 0
M  V30 22389 H 2044.4 2.66195 2.81459 0
M  V30 22390 H 2044.82 4.77783 2.16387 0
M  V30 22391 H 2046.29 4.07537 3.72314 0
M  V30 22392 H 2046.77 2.37943 3.69161 0
M  V30 22393 H 2047.38 3.48532 2.43732 0
M  V30 22394 N 2045.69 -0.62272 1.44776 0
M  V30 22395 C 2046.6 -1.76282 1.54796 0
M  V30 22396 C 2047.62 -1.68522 0.433164 0
M  V30 22397 O 2048.79 -1.89149 0.691713 0
M  V30 22398 C 2045.86 -3.12697 1.49737 0
M  V30 22399 C 2044.92 -3.32026 2.72135 0
M  V30 22400 C 2044.15 -4.61933 2.67308 0
M  V30 22401 O 2044.37 -5.43282 1.73783 0
M  V30 22402 O 2043.31 -4.83646 3.58288 0
M  V30 22403 H 2047.13 -1.70781 2.51133 0
M  V30 22404 H 2044.72 -0.784974 1.27116 0
M  V30 22405 H 2046.6 -3.94001 1.4947 0
M  V30 22406 H 2045.28 -3.18723 0.565471 0
M  V30 22407 H 2044.18 -2.50368 2.77969 0
M  V30 22408 H 2045.52 -3.30868 3.644 0
M  V30 22409 N 2047.17 -1.31814 -0.863883 0
M  V30 22410 C 2048.41 -1.22028 -1.61979 0
M  V30 22411 C 2048.75 0.219661 -1.92954 0
M  V30 22412 O 2048.02 1.15428 -1.56546 0
M  V30 22413 C 2048.31 -2.0707 -2.94608 0
M  V30 22414 C 2048.16 -3.59395 -2.70473 0
M  V30 22415 C 2049.48 -1.92477 -3.95779 0
M  V30 22416 H 2046.6 -0.444641 -0.587762 0
M  V30 22417 H 2049.24 -1.61666 -0.998202 0
M  V30 22418 H 2047.39 -1.73395 -3.47659 0
M  V30 22419 H 2049.06 -4.03237 -2.24048 0
M  V30 22420 H 2047.3 -3.82521 -2.04597 0
M  V30 22421 H 2047.97 -4.14213 -3.64871 0
M  V30 22422 H 2050.45 -2.21959 -3.51957 0
M  V30 22423 H 2049.33 -2.54272 -4.86453 0
M  V30 22424 H 2049.59 -0.889783 -4.33053 0
M  V30 22425 N 2048.65 1.07897 -1.14873 0
M  V30 22426 C 2049.61 2.13129 -0.843128 0
M  V30 22427 C 2050.61 1.60055 0.154606 0
M  V30 22428 O 2051.8 1.74041 -0.0743665 0
M  V30 22429 C 2048.93 3.39924 -0.257826 0
M  V30 22430 H 2050.12 2.41671 -1.77581 0
M  V30 22431 H 2047.68 1.23696 -0.955463 0
M  V30 22432 H 2048.41 3.17019 0.683318 0
M  V30 22433 H 2048.2 3.79745 -0.97654 0
M  V30 22434 H 2049.69 4.17555 -0.0613986 0
M  V30 22435 N 2050.12 0.944665 1.2615 0
M  V30 22436 C 2051.54 0.647519 1.45874 0
M  V30 22437 C 2051.74 -0.798095 1.85021 0
M  V30 22438 O 2050.8 -1.57439 1.97406 0
M  V30 22439 C 2052.11 1.61192 2.53845 0
M  V30 22440 C 2053.66 1.62201 2.67694 0
M  V30 22441 C 2054.13 2.5738 3.7884 0
M  V30 22442 N 2055.62 2.55686 3.86237 0
M  V30 22443 C 2056.36 3.26015 4.71701 0
M  V30 22444 N 2055.85 4.05782 5.61527 0
M  V30 22445 N 2057.65 3.1495 4.65578 0
M  V30 22446 H 2049.8 1.87901 0.990296 0
M  V30 22447 H 2052.06 0.807679 0.496345 0
M  V30 22448 H 2051.77 2.64402 2.31915 0
M  V30 22449 H 2051.64 1.36668 3.5157 0
M  V30 22450 H 2054.03 0.597142 2.88995 0
M  V30 22451 H 2054.11 1.9078 1.70402 0
M  V30 22452 H 2053.75 3.59987 3.5829 0
M  V30 22453 H 2053.68 2.26089 4.75596 0
M  V30 22454 H 2056.17 1.97768 3.22019 0
M  V30 22455 H 2056.49 4.56389 6.23642 0
M  V30 22456 H 2054.83 4.09882 5.61268 0
M  V30 22457 H 2058.02 2.52113 3.94407 0
M  V30 22458 H 2058.2 3.70027 5.31962 0
M  V30 22459 N 2051.6 -1.40596 0.712085 0
M  V30 22460 C 2052.55 -2.32554 0.0460888 0
M  V30 22461 C 2053.54 -1.51853 -0.750809 0
M  V30 22462 O 2054.75 -1.67676 -0.654572 0
M  V30 22463 H 2051.13 -0.75199 -0.00389841 0
M  V30 22464 H 2053.1 -2.86378 0.838447 0
M  V30 22465 C 2051.85 -3.36789 -0.864212 0
M  V30 22466 H 2051.17 -3.98951 -0.260421 0
M  V30 22467 H 2052.61 -4.03636 -1.29823 0
M  V30 22468 C 2051.07 -2.71989 -1.98805 0
M  V30 22469 O 2051.6 -2.58048 -3.07854 0
M  V30 22470 N 2049.8 -2.30427 -1.77064 0
M  V30 22471 H 2049.35 -2.41966 -0.88375 0
M  V30 22472 H 2049.31 -1.87408 -2.52439 0
M  V30 22473 N 2053.08 -0.458013 -1.50798 0
M  V30 22474 C 2054.31 0.0995379 -2.0666 0
M  V30 22475 C 2054.72 1.34662 -1.32331 0
M  V30 22476 O 2054.08 1.78311 -0.388768 0
M  V30 22477 C 2054.13 0.400901 -3.5927 0
M  V30 22478 O 2053.85 -0.796705 -4.30795 0
M  V30 22479 C 2055.35 1.00686 -4.31714 0
M  V30 22480 H 2052.57 -0.00125628 -0.670999 0
M  V30 22481 H 2055.12 -0.643041 -1.94127 0
M  V30 22482 H 2053.27 1.0934 -3.7165 0
M  V30 22483 H 2053.69 -0.533396 -5.21781 0
M  V30 22484 H 2055.16 1.16758 -5.39511 0
M  V30 22485 H 2055.64 1.99349 -3.91352 0
M  V30 22486 H 2056.24 0.353135 -4.23831 0
M  V30 22487 N 2054.56 1.56449 -0.190119 0
M  V30 22488 C 2055.51 2.1547 0.74544 0
M  V30 22489 C 2056.49 1.09408 1.17978 0
M  V30 22490 O 2057.69 1.35483 1.13901 0
M  V30 22491 C 2054.81 2.81371 1.96685 0
M  V30 22492 C 2053.9 3.94617 1.55364 0
M  V30 22493 N 2054.29 4.98588 0.851095 0
M  V30 22494 C 2052.59 4.06126 1.8433 0
M  V30 22495 C 2053.29 5.78116 0.644775 0
M  V30 22496 N 2052.27 5.3037 1.19198 0
M  V30 22497 H 2056.07 2.93219 0.199907 0
M  V30 22498 H 2053.58 1.62397 0.00985994 0
M  V30 22499 H 2055.58 3.22044 2.64752 0
M  V30 22500 H 2054.24 2.05108 2.51716 0
M  V30 22501 H 2055.25 5.15411 0.507098 0
M  V30 22502 H 2051.93 3.40986 2.40905 0
M  V30 22503 H 2053.32 6.71843 0.0878244 0
M  V30 22504 N 2056.04 -0.0835127 1.57379 0
M  V30 22505 C 2056.99 -1.11925 2.03901 0
M  V30 22506 C 2057.98 -1.40782 0.942168 0
M  V30 22507 O 2059.19 -1.40327 1.12732 0
M  V30 22508 H 2055.56 -0.378223 0.649963 0
M  V30 22509 H 2057.53 -0.70065 2.90058 0
M  V30 22510 C 2056.28 -2.42798 2.48887 0
M  V30 22511 H 2055.6 -2.21441 3.32873 0
M  V30 22512 H 2057.04 -3.13744 2.85203 0
M  V30 22513 C 2055.5 -3.07924 1.36692 0
M  V30 22514 O 2056.03 -3.9551 0.702482 0
M  V30 22515 N 2054.24 -2.68359 1.11498 0
M  V30 22516 H 2053.79 -1.97225 1.6571 0
M  V30 22517 H 2053.74 -3.12259 0.366326 0
M  V30 22518 N 2057.52 -1.53558 -0.354624 0
M  V30 22519 C 2058.45 -1.83751 -1.44076 0
M  V30 22520 C 2059.43 -0.691795 -1.55397 0
M  V30 22521 O 2060.61 -0.942676 -1.69786 0
M  V30 22522 C 2057.74 -2.03721 -2.81274 0
M  V30 22523 C 2056.7 -3.19517 -2.84769 0
M  V30 22524 C 2056.02 -3.248 -4.24746 0
M  V30 22525 C 2057.32 -4.5787 -2.51301 0
M  V30 22526 H 2059.02 -2.7471 -1.19058 0
M  V30 22527 H 2056.56 -1.32182 -0.5713 0
M  V30 22528 H 2058.51 -2.23427 -3.57293 0
M  V30 22529 H 2057.24 -1.09482 -3.07703 0
M  V30 22530 H 2055.9 -2.99649 -2.11201 0
M  V30 22531 H 2055.55 -2.28177 -4.48268 0
M  V30 22532 H 2055.25 -4.02606 -4.27998 0
M  V30 22533 H 2056.77 -3.46702 -5.02623 0
M  V30 22534 H 2058.18 -4.77663 -3.17034 0
M  V30 22535 H 2056.58 -5.37998 -2.65853 0
M  V30 22536 H 2057.65 -4.62234 -1.46518 0
M  V30 22537 N 2058.99 0.615033 -1.45104 0
M  V30 22538 C 2060.22 1.39902 -1.52023 0
M  V30 22539 C 2060.63 1.88611 -0.149112 0
M  V30 22540 O 2059.97 1.6242 0.858222 0
M  V30 22541 C 2060.04 2.6429 -2.43703 0
M  V30 22542 C 2059.7 2.3727 -3.90579 0
M  V30 22543 C 2060.7 1.98094 -4.80682 0
M  V30 22544 C 2058.38 2.50412 -4.3543 0
M  V30 22545 C 2060.38 1.72411 -6.13639 0
M  V30 22546 C 2058.06 2.24342 -5.68431 0
M  V30 22547 C 2059.06 1.85402 -6.57354 0
M  V30 22548 O 2058.75 1.59633 -7.87891 0
M  V30 22549 H 2058.48 0.434923 -0.517511 0
M  V30 22550 H 2061.04 0.757868 -1.90907 0
M  V30 22551 H 2059.27 3.31099 -1.99775 0
M  V30 22552 H 2060.95 3.26322 -2.41389 0
M  V30 22553 H 2061.72 1.87483 -4.47297 0
M  V30 22554 H 2057.6 2.79689 -3.66463 0
M  V30 22555 H 2061.14 1.41942 -6.83007 0
M  V30 22556 H 2057.04 2.34567 -6.01372 0
M  V30 22557 H 2057.81 1.73747 -7.99846 0
M  V30 22558 N 2060.47 1.3227 0.85688 0
M  V30 22559 C 2061.7 1.25837 1.64863 0
M  V30 22560 C 2062.12 -0.171028 1.87321 0
M  V30 22561 O 2061.48 -1.12165 1.42438 0
M  V30 22562 C 2061.53 2.02105 2.9864 0
M  V30 22563 O 2060.63 1.36733 3.89073 0
M  V30 22564 H 2059.97 0.433799 0.502707 0
M  V30 22565 H 2062.5 1.7455 1.0674 0
M  V30 22566 H 2062.51 2.12195 3.48479 0
M  V30 22567 H 2061.19 3.06048 2.81616 0
M  V30 22568 H 2059.76 1.35177 3.47537 0
M  V30 22569 N 2061.95 -1.07287 1.15444 0
M  V30 22570 C 2063.18 -1.83348 0.952215 0
M  V30 22571 C 2063.59 -1.82396 -0.50282 0
M  V30 22572 O 2062.93 -1.23432 -1.36052 0
M  V30 22573 C 2062.99 -3.31539 1.39004 0
M  V30 22574 C 2062.66 -3.56209 2.86293 0
M  V30 22575 C 2063.65 -3.50097 3.84354 0
M  V30 22576 C 2061.34 -3.83854 3.23977 0
M  V30 22577 C 2063.33 -3.7128 5.18102 0
M  V30 22578 C 2061.02 -4.04688 4.57898 0
M  V30 22579 C 2062.02 -3.98396 5.5477 0
M  V30 22580 O 2061.71 -4.18672 6.86271 0
M  V30 22581 H 2061.44 -0.585295 0.338239 0
M  V30 22582 H 2063.99 -1.36329 1.53634 0
M  V30 22583 H 2062.22 -3.79371 0.74932 0
M  V30 22584 H 2063.91 -3.89066 1.15682 0
M  V30 22585 H 2064.68 -3.28741 3.56587 0
M  V30 22586 H 2060.56 -3.87866 2.49161 0
M  V30 22587 H 2064.1 -3.66284 5.93702 0
M  V30 22588 H 2060 -4.25531 4.8538 0
M  V30 22589 H 2060.76 -4.36016 6.92699 0
M  V30 22590 N 2063.43 -0.951342 -1.25647 0
M  V30 22591 C 2064.84 -0.645559 -1.75184 0
M  V30 22592 C 2065.19 0.83913 -1.7735 0
M  V30 22593 O 2064.31 1.65671 -1.3922 0
M  V30 22594 C 2064.91 -1.16512 -3.18136 0
M  V30 22595 C 2063.47 -0.90956 -3.65245 0
M  V30 22596 C 2062.62 -1.31009 -2.44401 0
M  V30 22597 H 2065.57 -1.12852 -1.1158 0
M  V30 22598 H 2065.59 -0.523662 -3.76879 0
M  V30 22599 H 2065.1 -2.24571 -3.16527 0
M  V30 22600 H 2063.2 0.156212 -3.72272 0
M  V30 22601 H 2063.31 -1.54371 -4.53549 0
M  V30 22602 H 2061.68 -0.728474 -2.4406 0
M  V30 22603 H 2062.46 -2.39983 -2.45486 0
M  V30 22604 N 2064.91 1.40216 -0.719531 0
M  V30 22605 C 2066.13 2.05124 -0.270509 0
M  V30 22606 C 2066.55 1.5422 1.08911 0
M  V30 22607 O 2065.91 0.700448 1.68523 0
M  V30 22608 C 2065.96 3.60662 -0.24606 0
M  V30 22609 O 2065.68 4.09688 -1.552 0
M  V30 22610 C 2067.18 4.42749 0.22103 0
M  V30 22611 H 2064.4 0.660024 -0.120868 0
M  V30 22612 H 2066.94 1.79552 -0.978844 0
M  V30 22613 H 2065.1 3.85189 0.413268 0
M  V30 22614 H 2065.51 5.03911 -1.45513 0
M  V30 22615 H 2066.99 5.51683 0.186986 0
M  V30 22616 H 2067.46 4.20624 1.26382 0
M  V30 22617 H 2068.07 4.23337 -0.408166 0
M  V30 22618 N 2066.38 0.466004 1.50553 0
M  V30 22619 C 2067.33 -0.330804 2.28417 0
M  V30 22620 C 2068.3 -0.991708 1.33246 0
M  V30 22621 O 2069.49 -1.00512 1.62179 0
M  V30 22622 C 2066.63 -1.40978 3.14991 0
M  V30 22623 C 2065.74 -0.76416 4.25188 0
M  V30 22624 C 2064.87 -1.8206 4.99027 0
M  V30 22625 C 2063.91 -1.15495 6.01105 0
M  V30 22626 N 2063.05 -2.15401 6.68242 0
M  V30 22627 H 2067.89 0.339504 2.9606 0
M  V30 22628 H 2065.43 0.179273 1.46003 0
M  V30 22629 H 2067.38 -2.04695 3.63532 0
M  V30 22630 H 2066.01 -2.04932 2.49405 0
M  V30 22631 H 2065.07 -0.0145483 3.80397 0
M  V30 22632 H 2066.38 -0.238458 4.9823 0
M  V30 22633 H 2065.53 -2.5337 5.51261 0
M  V30 22634 H 2064.27 -2.38009 4.25679 0
M  V30 22635 H 2063.28 -0.427447 5.48136 0
M  V30 22636 H 2064.5 -0.602414 6.76423 0
M  V30 22637 H 2062.45 -2.70378 5.97689 0
M  V30 22638 H 2062.36 -1.67802 7.37142 0
M  V30 22639 H 2063.63 -2.86107 7.25095 0
M  V30 22640 N 2067.86 -1.56346 0.198413 0
M  V30 22641 C 2068.81 -2.15862 -0.734002 0
M  V30 22642 C 2069.8 -1.10032 -1.17396 0
M  V30 22643 O 2070.99 -1.36085 -1.13181 0
M  V30 22644 C 2068.12 -2.8241 -1.95191 0
M  V30 22645 C 2067.2 -3.95436 -1.53269 0
M  V30 22646 N 2067.59 -4.99032 -0.824642 0
M  V30 22647 C 2065.89 -4.07098 -1.82174 0
M  V30 22648 C 2066.59 -5.78449 -0.614107 0
M  V30 22649 N 2065.57 -5.30995 -1.16384 0
M  V30 22650 H 2069.37 -2.93321 -0.184355 0
M  V30 22651 H 2066.88 -1.624 -0.00124749 0
M  V30 22652 H 2068.88 -3.23443 -2.6304 0
M  V30 22653 H 2067.54 -2.0644 -2.50624 0
M  V30 22654 H 2068.55 -5.15673 -0.479757 0
M  V30 22655 H 2065.23 -3.42258 -2.39093 0
M  V30 22656 H 2066.62 -6.7188 -0.0521937 0
M  V30 22657 N 2069.34 0.0751653 -1.57421 0
M  V30 22658 C 2070.25 1.10763 -2.06806 0
M  V30 22659 C 2071.27 1.4261 -0.99691 0
M  V30 22660 O 2072.44 1.52854 -1.31139 0
M  V30 22661 C 2069.51 2.40281 -2.49932 0
M  V30 22662 C 2068.57 2.15435 -3.7133 0
M  V30 22663 C 2067.8 3.38777 -4.1239 0
M  V30 22664 O 2068.02 4.4777 -3.53353 0
M  V30 22665 O 2066.96 3.27189 -5.05204 0
M  V30 22666 H 2070.78 0.718102 -2.95088 0
M  V30 22667 H 2068.37 0.289065 -1.46577 0
M  V30 22668 H 2070.25 3.16509 -2.78208 0
M  V30 22669 H 2068.93 2.7862 -1.64781 0
M  V30 22670 H 2067.83 1.36922 -3.48142 0
M  V30 22671 H 2069.17 1.81978 -4.57324 0
M  V30 22672 N 2070.82 1.53744 0.346476 0
M  V30 22673 C 2071.73 1.84516 1.44883 0
M  V30 22674 C 2072.74 0.735054 1.57712 0
M  V30 22675 O 2073.92 1.02706 1.73244 0
M  V30 22676 C 2070.99 2.04576 2.7991 0
M  V30 22677 C 2070.05 3.28442 2.7645 0
M  V30 22678 C 2069.28 3.47536 4.05036 0
M  V30 22679 O 2069.5 2.70527 5.02167 0
M  V30 22680 O 2068.44 4.40955 4.09686 0
M  V30 22681 H 2072.26 2.78207 1.21797 0
M  V30 22682 H 2069.85 1.39362 0.53838 0
M  V30 22683 H 2071.73 2.19232 3.59882 0
M  V30 22684 H 2070.4 1.14074 3.02934 0
M  V30 22685 H 2069.31 3.19192 1.95108 0
M  V30 22686 H 2070.64 4.18928 2.5838 0
M  V30 22687 N 2072.3 -0.607329 1.45428 0
M  V30 22688 C 2073.55 -1.36242 1.48731 0
M  V30 22689 C 2073.86 -1.95145 0.13329 0
M  V30 22690 O 2075.06 -2.71464 0.0439733 0
M  V30 22691 C 2073.52 -2.46792 2.61957 0
M  V30 22692 C 2073.13 -1.94299 4.03673 0
M  V30 22693 C 2074.87 -3.238 2.74507 0
M  V30 22694 C 2072.78 -3.02333 5.0828 0
M  V30 22695 H 2071.71 -0.512076 0.553438 0
M  V30 22696 H 2074.36 -0.650885 1.71568 0
M  V30 22697 H 2072.74 -3.20632 2.32404 0
M  V30 22698 H 2073.92 -1.27167 4.42905 0
M  V30 22699 H 2072.23 -1.30036 3.95575 0
M  V30 22700 H 2074.83 -4.0438 3.4983 0
M  V30 22701 H 2075.17 -3.7482 1.8115 0
M  V30 22702 H 2075.7 -2.5706 3.03587 0
M  V30 22703 H 2072.44 -2.56229 6.03346 0
M  V30 22704 H 2071.96 -3.68031 4.73617 0
M  V30 22705 H 2073.64 -3.6671 5.33041 0
M  V30 22706 N 2073.77 -1.32722 -0.849853 0
M  V30 22707 C 2074.72 -1.22024 -1.98023 0
M  V30 22708 C 2075.72 -0.12398 -1.68946 0
M  V30 22709 O 2076.92 -0.287223 -1.77694 0
M  V30 22710 H 2073.3 -0.378378 -0.649873 0
M  V30 22711 H 2075.27 -2.17614 -2.04173 0
M  V30 22712 C 2074.02 -0.965076 -3.34038 0
M  V30 22713 H 2073.34 -1.80084 -3.56945 0
M  V30 22714 H 2074.78 -0.93048 -4.13664 0
M  V30 22715 C 2073.24 0.332137 -3.35259 0
M  V30 22716 O 2073.77 1.34244 -3.78604 0
M  V30 22717 N 2071.98 0.355806 -2.88414 0
M  V30 22718 H 2071.52 -0.46689 -2.53334 0
M  V30 22719 H 2071.48 1.2236 -2.89613 0
M  V30 22720 N 2075.25 1.06673 -1.16011 0
M  V30 22721 C 2076.2 2.16153 -0.859109 0
M  V30 22722 C 2077.19 1.68542 0.170281 0
M  V30 22723 O 2078.4 1.79983 0.0246416 0
M  V30 22724 H 2074.78 0.705551 -0.260196 0
M  V30 22725 H 2076.75 2.38754 -1.78994 0
M  V30 22726 C 2075.5 3.457 -0.3724 0
M  V30 22727 H 2074.82 3.82725 -1.15591 0
M  V30 22728 H 2076.26 4.23526 -0.200519 0
M  V30 22729 C 2074.72 3.24451 0.90735 0
M  V30 22730 O 2075.25 3.49658 1.97743 0
M  V30 22731 N 2073.45 2.77904 0.849588 0
M  V30 22732 H 2073 2.57591 -0.0214058 0
M  V30 22733 H 2072.96 2.64066 1.70636 0
M  V30 22734 N 2076.73 0.957992 1.25141 0
M  V30 22735 C 2077.98 0.610242 1.92247 0
M  V30 22736 C 2078.29 -0.857187 1.75817 0
M  V30 22737 O 2079.5 -1.31504 2.37527 0
M  V30 22738 C 2077.95 1.04075 3.44524 0
M  V30 22739 C 2077.56 2.53095 3.69658 0
M  V30 22740 C 2079.31 0.765685 4.17537 0
M  V30 22741 C 2077.21 2.89928 5.15457 0
M  V30 22742 H 2076.14 0.224526 0.719794 0
M  V30 22743 H 2078.79 1.1629 1.41947 0
M  V30 22744 H 2077.18 0.416478 3.93804 0
M  V30 22745 H 2078.35 3.20569 3.31017 0
M  V30 22746 H 2076.67 2.78108 3.09911 0
M  V30 22747 H 2079.26 1.017 5.24939 0
M  V30 22748 H 2079.61 -0.297957 4.15232 0
M  V30 22749 H 2080.14 1.35046 3.74176 0
M  V30 22750 H 2076.88 3.95324 5.22876 0
M  V30 22751 H 2076.4 2.2713 5.55132 0
M  V30 22752 H 2078.08 2.79304 5.83608 0
M  V30 22753 N 2078.21 -1.39832 0.726957 0
M  V30 22754 C 2079.16 -2.30655 0.0817379 0
M  V30 22755 C 2080.13 -1.48792 -0.738257 0
M  V30 22756 O 2081.31 -1.775 -0.699873 0
M  V30 22757 C 2078.45 -3.35079 -0.825599 0
M  V30 22758 C 2077.56 -4.32 0.006145 0
M  V30 22759 C 2076.7 -5.23491 -0.90172 0
M  V30 22760 C 2075.74 -6.12066 -0.064744 0
M  V30 22761 N 2074.87 -6.95939 -0.928103 0
M  V30 22762 H 2079.71 -2.85263 0.861906 0
M  V30 22763 H 2077.25 -1.40468 0.436709 0
M  V30 22764 H 2079.21 -3.94203 -1.36602 0
M  V30 22765 H 2077.84 -2.81946 -1.57183 0
M  V30 22766 H 2076.89 -3.74562 0.66389 0
M  V30 22767 H 2078.2 -4.94499 0.65365 0
M  V30 22768 H 2077.36 -5.87602 -1.51027 0
M  V30 22769 H 2076.1 -4.61294 -1.58302 0
M  V30 22770 H 2075.1 -5.46975 0.556665 0
M  V30 22771 H 2076.33 -6.76326 0.613222 0
M  V30 22772 H 2074.27 -6.36318 -1.59484 0
M  V30 22773 H 2074.19 -7.55249 -0.336895 0
M  V30 22774 H 2075.46 -7.64487 -1.52247 0
M  V30 22775 N 2079.69 -0.473982 -1.50304 0
M  V30 22776 C 2080.63 0.318686 -2.28589 0
M  V30 22777 C 2081.6 0.984628 -1.3377 0
M  V30 22778 O 2082.79 0.996508 -1.62709 0
M  V30 22779 C 2079.93 1.39305 -3.15734 0
M  V30 22780 C 2079.04 0.7416 -4.25587 0
M  V30 22781 C 2078.18 1.79411 -4.99985 0
M  V30 22782 C 2077.22 1.12306 -6.01709 0
M  V30 22783 N 2076.35 2.11854 -6.69374 0
M  V30 22784 H 2081.19 -0.3552 -2.95876 0
M  V30 22785 H 2078.73 -0.187014 -1.45906 0
M  V30 22786 H 2080.69 2.02764 -3.64613 0
M  V30 22787 H 2079.32 2.03607 -2.50488 0
M  V30 22788 H 2078.37 -0.00562528 -3.804 0
M  V30 22789 H 2079.68 0.212032 -4.98349 0
M  V30 22790 H 2078.84 2.50443 -5.52597 0
M  V30 22791 H 2077.57 2.35749 -4.26936 0
M  V30 22792 H 2076.58 0.398372 -5.48355 0
M  V30 22793 H 2077.8 0.566533 -6.76733 0
M  V30 22794 H 2075.75 2.67204 -5.99114 0
M  V30 22795 H 2075.67 1.6389 -7.38022 0
M  V30 22796 H 2076.94 2.82258 -7.26602 0
M  V30 22797 N 2081.16 1.56239 -0.206702 0
M  V30 22798 C 2082.11 2.19624 0.709491 0
M  V30 22799 C 2083.08 1.1471 1.20128 0
M  V30 22800 O 2084.27 1.43008 1.26307 0
M  V30 22801 C 2081.41 2.8686 1.91847 0
M  V30 22802 C 2080.52 4.0633 1.46696 0
M  V30 22803 C 2079.65 4.6139 2.63235 0
M  V30 22804 C 2078.69 5.73193 2.14747 0
M  V30 22805 N 2077.83 6.22608 3.24505 0
M  V30 22806 H 2082.67 2.97558 0.162225 0
M  V30 22807 H 2080.21 1.46941 0.0683253 0
M  V30 22808 H 2082.17 3.24019 2.62807 0
M  V30 22809 H 2080.8 2.1147 2.43886 0
M  V30 22810 H 2079.85 3.74757 0.652809 0
M  V30 22811 H 2081.16 4.87159 1.07131 0
M  V30 22812 H 2080.31 5.00914 3.42301 0
M  V30 22813 H 2079.05 3.79693 3.0608 0
M  V30 22814 H 2078.06 5.33186 1.34139 0
M  V30 22815 H 2079.28 6.56716 1.72919 0
M  V30 22816 H 2077.23 5.43829 3.66859 0
M  V30 22817 H 2077.15 6.98521 2.89145 0
M  V30 22818 H 2078.41 6.66788 4.0375 0
M  V30 22819 N 2082.64 -0.0668159 1.57458 0
M  V30 22820 C 2083.92 -0.798309 1.78568 0
M  V30 22821 C 2084.3 -1.95537 0.79552 0
M  V30 22822 O 2083.65 -2.27864 -0.170331 0
M  V30 22823 C 2083.86 -1.26662 3.25204 0
M  V30 22824 C 2085.21 -1.69798 3.89171 0
M  V30 22825 O 2086.23 -1.36216 3.29125 0
M  V30 22826 O 2085.09 -2.31989 4.94817 0
M  V30 22827 H 2082.18 -0.382924 0.733006 0
M  V30 22828 H 2084.73 -0.0465065 1.69636 0
M  V30 22829 H 2083.5 -0.438929 3.8883 0
M  V30 22830 H 2083.12 -2.07959 3.38879 0
M  V30 22831 N 2084.12 -1.53926 -0.338317 0
M  V30 22832 C 2085.07 -1.82986 -1.43592 0
M  V30 22833 C 2086.06 -0.700699 -1.54229 0
M  V30 22834 O 2087.27 -0.884124 -1.5679 0
M  V30 22835 H 2083.64 -0.579808 -0.47888 0
M  V30 22836 H 2085.62 -2.74804 -1.16299 0
M  V30 22837 C 2084.36 -2.06092 -2.80038 0
M  V30 22838 H 2083.69 -2.92433 -2.72622 0
M  V30 22839 H 2085.13 -2.30388 -3.55946 0
M  V30 22840 C 2083.59 -0.848002 -3.26053 0
M  V30 22841 O 2084.12 -0.0499866 -4.01669 0
M  V30 22842 N 2082.32 -0.663759 -2.82918 0
M  V30 22843 H 2081.87 -1.31433 -2.21547 0
M  V30 22844 H 2081.83 0.146319 -3.14059 0
M  V30 22845 N 2085.6 0.599608 -1.45748 0
M  V30 22846 C 2086.55 1.70982 -1.55028 0
M  V30 22847 C 2087.52 1.61319 -0.395631 0
M  V30 22848 O 2088.7 1.80781 -0.610146 0
M  V30 22849 C 2085.84 3.09304 -1.53052 0
M  V30 22850 C 2084.95 3.29715 -2.79127 0
M  V30 22851 C 2084.09 4.58189 -2.68769 0
M  V30 22852 C 2083.13 4.71885 -3.89861 0
M  V30 22853 N 2082.27 5.91666 -3.77989 0
M  V30 22854 H 2087.11 1.62387 -2.49869 0
M  V30 22855 H 2084.64 0.791687 -1.23979 0
M  V30 22856 H 2086.6 3.89343 -1.49893 0
M  V30 22857 H 2085.23 3.16838 -0.617561 0
M  V30 22858 H 2084.28 2.43397 -2.92339 0
M  V30 22859 H 2085.59 3.35707 -3.68921 0
M  V30 22860 H 2084.75 5.46433 -2.63621 0
M  V30 22861 H 2083.49 4.54608 -1.76587 0
M  V30 22862 H 2082.49 3.82062 -3.95359 0
M  V30 22863 H 2083.72 4.77257 -4.83118 0
M  V30 22864 H 2081.66 5.89115 -2.88582 0
M  V30 22865 H 2081.58 5.98853 -4.61423 0
M  V30 22866 H 2082.85 6.82387 -3.76787 0
M  V30 22867 N 2087.08 1.33171 0.842803 0
M  V30 22868 C 2088.35 1.15008 1.58216 0
M  V30 22869 C 2088.73 -0.285047 2.09167 0
M  V30 22870 O 2088.08 -1.28349 1.89047 0
M  V30 22871 C 2088.29 2.18785 2.71908 0
M  V30 22872 C 2089.64 2.52736 3.41188 0
M  V30 22873 O 2090.66 2.17422 2.82146 0
M  V30 22874 O 2089.52 3.13321 4.47763 0
M  V30 22875 H 2086.62 0.444573 0.69734 0
M  V30 22876 H 2089.16 1.44741 0.8859 0
M  V30 22877 H 2087.94 3.15201 2.31871 0
M  V30 22878 H 2087.56 1.90116 3.49202 0
M  V30 22879 N 2088.56 -1.06056 1.16576 0
M  V30 22880 C 2089.78 -1.83131 0.973539 0
M  V30 22881 C 2090.21 -1.82047 -0.473358 0
M  V30 22882 O 2089.56 -1.22303 -1.33834 0
M  V30 22883 C 2089.61 -3.2753 1.50852 0
M  V30 22884 O 2088.72 -4.06129 0.716451 0
M  V30 22885 H 2088.06 -0.566557 0.346279 0
M  V30 22886 H 2090.59 -1.33704 1.54869 0
M  V30 22887 H 2090.6 -3.78346 1.52704 0
M  V30 22888 H 2089.27 -3.27634 2.56181 0
M  V30 22889 H 2087.85 -3.64892 0.768639 0
M  V30 22890 N 2090.03 -0.964615 -1.24631 0
M  V30 22891 C 2090.98 -0.49166 -2.25502 0
M  V30 22892 C 2091.95 0.46115 -1.5957 0
M  V30 22893 O 2093.14 0.372197 -1.87135 0
M  V30 22894 C 2090.28 0.214964 -3.4443 0
M  V30 22895 C 2089.39 -0.776253 -4.24969 0
M  V30 22896 C 2088.52 -0.0460512 -5.3118 0
M  V30 22897 C 2087.56 -1.02754 -6.03414 0
M  V30 22898 N 2086.7 -0.327547 -7.01336 0
M  V30 22899 H 2091.54 -1.35669 -2.65326 0
M  V30 22900 H 2089.08 -0.68015 -1.30431 0
M  V30 22901 H 2091.03 0.641314 -4.12241 0
M  V30 22902 H 2089.66 1.04397 -3.05452 0
M  V30 22903 H 2088.72 -1.32105 -3.56724 0
M  V30 22904 H 2090.03 -1.52481 -4.74922 0
M  V30 22905 H 2089.18 0.438447 -6.05114 0
M  V30 22906 H 2087.92 0.735226 -4.82126 0
M  V30 22907 H 2086.93 -1.52294 -5.28286 0
M  V30 22908 H 2088.15 -1.80921 -6.54557 0
M  V30 22909 H 2086.1 0.43481 -6.54557 0
M  V30 22910 H 2086.01 -1.01503 -7.49155 0
M  V30 22911 H 2087.28 0.135085 -7.79383 0
M  V30 22912 N 2091.51 1.39445 -0.734362 0
M  V30 22913 C 2092.47 2.28971 -0.102477 0
M  V30 22914 C 2093.47 1.46277 0.667805 0
M  V30 22915 O 2094.66 1.66962 0.496917 0
M  V30 22916 C 2091.8 3.29767 0.864107 0
M  V30 22917 H 2092.99 2.86352 -0.891208 0
M  V30 22918 H 2090.54 1.48082 -0.500154 0
M  V30 22919 H 2091.28 2.7744 1.67922 0
M  V30 22920 H 2091.06 3.90837 0.314418 0
M  V30 22921 H 2092.55 3.96757 1.30282 0
M  V30 22922 N 2092.99 0.481946 1.5005 0
M  V30 22923 C 2094.22 -0.0666474 2.06793 0
M  V30 22924 C 2094.63 -1.3254 1.34457 0
M  V30 22925 O 2093.99 -1.7767 0.417087 0
M  V30 22926 C 2094.04 -0.343693 3.59862 0
M  V30 22927 O 2093.76 0.86514 4.29473 0
M  V30 22928 C 2095.26 -0.93805 4.33261 0
M  V30 22929 H 2092.48 0.0119311 0.670894 0
M  V30 22930 H 2095.03 0.673843 1.93079 0
M  V30 22931 H 2093.18 -1.03413 3.73342 0
M  V30 22932 H 2093.6 0.616339 5.20866 0
M  V30 22933 H 2095.07 -1.0816 5.413 0
M  V30 22934 H 2095.55 -1.93098 3.94474 0
M  V30 22935 H 2096.15 -0.285663 4.2434 0
M  V30 22936 N 2094.47 -1.56127 0.214985 0
M  V30 22937 C 2095.69 -2.02966 -0.426587 0
M  V30 22938 C 2096.12 -1.0939 -1.53021 0
M  V30 22939 O 2095.48 -0.0808958 -1.81119 0
M  V30 22940 C 2095.52 -3.48091 -0.941527 0
M  V30 22941 O 2094.63 -3.5765 -2.05329 0
M  V30 22942 H 2093.97 -0.656823 -0.097363 0
M  V30 22943 H 2096.5 -2.01893 0.331697 0
M  V30 22944 H 2096.51 -3.88282 -1.25304 0
M  V30 22945 H 2095.18 -4.15685 -0.133737 0
M  V30 22946 H 2093.76 -3.29344 -1.74891 0
M  V30 22947 N 2095.95 0.0584645 -1.57492 0
M  V30 22948 C 2096.86 1.08563 -2.07969 0
M  V30 22949 C 2097.87 1.41545 -1.01198 0
M  V30 22950 O 2099.05 1.51455 -1.32753 0
M  V30 22951 C 2096.11 2.37616 -2.52467 0
M  V30 22952 C 2095.17 2.11485 -3.73594 0
M  V30 22953 C 2094.41 3.34384 -4.1596 0
M  V30 22954 O 2094.63 4.43997 -3.58083 0
M  V30 22955 O 2093.56 3.21812 -5.08646 0
M  V30 22956 H 2097.39 0.686764 -2.95833 0
M  V30 22957 H 2094.97 0.273502 -1.46875 0
M  V30 22958 H 2096.86 3.13541 -2.81549 0
M  V30 22959 H 2095.53 2.76857 -1.67726 0
M  V30 22960 H 2094.44 1.33222 -3.49575 0
M  V30 22961 H 2095.77 1.77117 -4.59228 0
M  V30 22962 N 2097.42 1.54103 0.330149 0
M  V30 22963 C 2098.84 1.44666 0.674089 0
M  V30 22964 C 2099.04 0.614208 1.91911 0
M  V30 22965 O 2098.1 0.110427 2.52258 0
M  V30 22966 C 2099.41 2.88311 0.854235 0
M  V30 22967 C 2100.96 2.98171 0.951998 0
M  V30 22968 C 2101.43 4.42952 1.16436 0
M  V30 22969 N 2102.92 4.46536 1.23125 0
M  V30 22970 C 2103.66 5.55709 1.41333 0
M  V30 22971 N 2103.15 6.74863 1.56626 0
M  V30 22972 N 2104.95 5.43345 1.43988 0
M  V30 22973 H 2097.1 2.06712 -0.488258 0
M  V30 22974 H 2099.36 0.934976 -0.1566 0
M  V30 22975 H 2099.07 3.51698 0.0107232 0
M  V30 22976 H 2098.94 3.34042 1.75202 0
M  V30 22977 H 2101.33 2.34916 1.78602 0
M  V30 22978 H 2101.41 2.55781 0.0308205 0
M  V30 22979 H 2101.05 5.06793 0.335219 0
M  V30 22980 H 2100.98 4.82946 2.09931 0
M  V30 22981 H 2103.47 3.60679 1.12777 0
M  V30 22982 H 2103.79 7.53826 1.70193 0
M  V30 22983 H 2102.13 6.77783 1.53737 0
M  V30 22984 H 2105.32 4.49211 1.31632 0
M  V30 22985 H 2105.5 6.28484 1.57836 0
M  V30 22986 N 2098.9 -0.59187 1.46064 0
M  V30 22987 C 2099.81 -1.72959 1.585 0
M  V30 22988 C 2100.83 -1.67565 0.468813 0
M  V30 22989 O 2102 -1.87639 0.731679 0
M  V30 22990 C 2099.07 -3.09451 1.56336 0
M  V30 22991 C 2098.13 -3.26179 2.79117 0
M  V30 22992 C 2097.36 -4.56159 2.77046 0
M  V30 22993 O 2097.59 -5.39474 1.85268 0
M  V30 22994 O 2096.52 -4.75937 3.68466 0
M  V30 22995 H 2100.35 -1.65416 2.54699 0
M  V30 22996 H 2097.93 -0.757834 1.28753 0
M  V30 22997 H 2099.81 -3.90742 1.57793 0
M  V30 22998 H 2098.49 -3.17451 0.632949 0
M  V30 22999 H 2097.4 -2.44416 2.83217 0
M  V30 23000 H 2098.73 -3.23064 3.71336 0
M  V30 23001 N 2100.38 -1.33616 -0.835729 0
M  V30 23002 C 2101.34 -1.24042 -1.92733 0
M  V30 23003 C 2102.34 -0.158708 -1.60015 0
M  V30 23004 O 2103.53 -0.410456 -1.69295 0
M  V30 23005 C 2100.67 -0.912113 -3.28471 0
M  V30 23006 H 2101.86 -2.21075 -2.02647 0
M  V30 23007 H 2099.41 -1.1772 -1.02819 0
M  V30 23008 H 2100.15 0.0555823 -3.24252 0
M  V30 23009 H 2099.93 -1.69441 -3.53599 0
M  V30 23010 H 2101.42 -0.869957 -4.08438 0
M  V30 23011 N 2101.86 1.05436 -1.17136 0
M  V30 23012 C 2103.1 1.79971 -0.969015 0
M  V30 23013 C 2103.46 1.85543 0.49375 0
M  V30 23014 O 2104.66 2.56144 0.815091 0
M  V30 23015 C 2102.93 3.20104 -1.5896 0
M  V30 23016 S 2104.49 4.11146 -1.53311 0
M  V30 23017 H 2101.31 0.619855 -0.348283 0
M  V30 23018 H 2103.91 1.26524 -1.49037 0
M  V30 23019 H 2102.62 3.13649 -2.64674 0
M  V30 23020 H 2102.15 3.78627 -1.06795 0
M  V30 23021 H 2104.16 4.9326 -0.539375 0
M  V30 23022 N 2103.34 0.971211 1.24118 0
M  V30 23023 C 2104.58 0.633768 1.91906 0
M  V30 23024 C 2104.91 -0.834157 1.76258 0
M  V30 23025 O 2104.18 -1.59579 1.13628 0
M  V30 23026 H 2102.76 0.231413 0.710251 0
M  V30 23027 H 2105.42 1.23304 1.50938 0
M  V30 23028 H 2104.51 0.877411 2.99513 0
M  V30 23029 N 2104.81 -1.39054 0.741747 0
M  V30 23030 C 2105.74 -2.33184 0.121433 0
M  V30 23031 C 2106.73 -1.54261 -0.716774 0
M  V30 23032 O 2107.91 -1.82627 -0.660379 0
M  V30 23033 C 2105.04 -3.38393 -0.78152 0
M  V30 23034 C 2103.99 -4.27974 -0.046955 0
M  V30 23035 C 2103.32 -5.23938 -1.06737 0
M  V30 23036 C 2104.62 -5.10272 1.11446 0
M  V30 23037 H 2106.31 -2.85308 0.907724 0
M  V30 23038 H 2103.86 -1.37179 0.437953 0
M  V30 23039 H 2105.81 -4.032 -1.22506 0
M  V30 23040 H 2104.54 -2.84724 -1.6 0
M  V30 23041 H 2103.2 -3.64656 0.377036 0
M  V30 23042 H 2102.84 -4.66562 -1.8796 0
M  V30 23043 H 2102.54 -5.84725 -0.580605 0
M  V30 23044 H 2104.07 -5.91622 -1.51048 0
M  V30 23045 H 2105.48 -5.68386 0.749042 0
M  V30 23046 H 2103.88 -5.80234 1.53131 0
M  V30 23047 H 2104.95 -4.44706 1.93299 0
M  V30 23048 N 2106.29 -0.489897 -1.49792 0
M  V30 23049 C 2107.26 0.283286 -2.27443 0
M  V30 23050 C 2108.26 0.903846 -1.32993 0
M  V30 23051 O 2109.45 0.770101 -1.56253 0
M  V30 23052 C 2106.58 1.40534 -3.10585 0
M  V30 23053 H 2107.77 -0.397946 -2.97248 0
M  V30 23054 H 2105.32 -0.244516 -1.54376 0
M  V30 23055 H 2106.06 2.12106 -2.4532 0
M  V30 23056 H 2105.84 0.965947 -3.80016 0
M  V30 23057 H 2107.33 1.95026 -3.69262 0
M  V30 23058 N 2107.77 1.56011 -0.223262 0
M  V30 23059 C 2109.02 1.97523 0.40834 0
M  V30 23060 C 2109.33 1.11401 1.60777 0
M  V30 23061 O 2110.54 1.4282 2.309 0
M  V30 23062 C 2108.99 3.51393 0.777885 0
M  V30 23063 C 2108.6 4.46221 -0.398826 0
M  V30 23064 C 2110.35 4.01614 1.37499 0
M  V30 23065 C 2108.25 5.914 -0.00675168 0
M  V30 23066 H 2107.18 0.737614 0.156337 0
M  V30 23067 H 2109.83 1.80693 -0.319744 0
M  V30 23068 H 2108.22 3.6383 1.56344 0
M  V30 23069 H 2109.39 4.45532 -1.17635 0
M  V30 23070 H 2107.71 4.06351 -0.909284 0
M  V30 23071 H 2110.3 5.0758 1.68127 0
M  V30 23072 H 2110.65 3.47566 2.29137 0
M  V30 23073 H 2111.18 3.92406 0.65284 0
M  V30 23074 H 2107.92 6.49435 -0.889654 0
M  V30 23075 H 2107.44 5.95279 0.735052 0
M  V30 23076 H 2109.12 6.4564 0.419339 0
M  V30 23077 N 2109.25 -0.0501116 1.5752 0
M  V30 23078 C 2110.5 -0.745096 1.88294 0
M  V30 23079 C 2110.82 -1.76469 0.817869 0
M  V30 23080 O 2110.08 -1.94836 -0.183698 0
M  V30 23081 C 2110.38 -1.46973 3.25782 0
M  V30 23082 C 2110.04 -0.588106 4.47048 0
M  V30 23083 C 2108.71 -0.345215 4.7996 0
M  V30 23084 C 2111.06 0.0218798 5.21195 0
M  V30 23085 C 2108.39 0.516787 5.8442 0
M  V30 23086 C 2110.74 0.87146 6.26569 0
M  V30 23087 C 2109.4 1.12402 6.57968 0
M  V30 23088 H 2108.67 -0.27265 0.689016 0
M  V30 23089 H 2111.32 -0.00536588 1.91499 0
M  V30 23090 H 2109.62 -2.28224 3.18467 0
M  V30 23091 H 2111.32 -2.01265 3.46834 0
M  V30 23092 H 2107.91 -0.787561 4.21302 0
M  V30 23093 H 2112.09 -0.152846 4.96065 0
M  V30 23094 H 2107.35 0.720981 6.07134 0
M  V30 23095 H 2111.52 1.35074 6.83175 0
M  V30 23096 H 2109.15 1.79371 7.38736 0
M  V30 23097 N 2110.73 -1.54276 -0.321972 0
M  V30 23098 C 2111.95 -1.76841 -1.0836 0
M  V30 23099 C 2112.38 -0.5163 -1.80876 0
M  V30 23100 O 2111.73 0.532225 -1.73312 0
M  V30 23101 C 2111.78 -2.96236 -2.05613 0
M  V30 23102 O 2110.89 -2.67893 -3.1354 0
M  V30 23103 H 2110.23 -0.585948 -0.312347 0
M  V30 23104 H 2112.76 -2.01304 -0.365783 0
M  V30 23105 H 2112.77 -3.23627 -2.48455 0
M  V30 23106 H 2111.44 -3.87037 -1.52234 0
M  V30 23107 H 2110.02 -2.51456 -2.75362 0
M  V30 23108 N 2112.2 0.584116 -1.46376 0
M  V30 23109 C 2113.15 1.69328 -1.56833 0
M  V30 23110 C 2114.12 1.60891 -0.412719 0
M  V30 23111 O 2115.31 1.80124 -0.629286 0
M  V30 23112 C 2112.45 3.07663 -1.56324 0
M  V30 23113 C 2111.56 3.26736 -2.82609 0
M  V30 23114 C 2110.69 4.55312 -2.73613 0
M  V30 23115 C 2109.73 4.67723 -3.94844 0
M  V30 23116 N 2108.87 5.87624 -3.84243 0
M  V30 23117 H 2113.71 1.59727 -2.51577 0
M  V30 23118 H 2111.25 0.778493 -1.24811 0
M  V30 23119 H 2113.21 3.87731 -1.54014 0
M  V30 23120 H 2111.84 3.16165 -0.651131 0
M  V30 23121 H 2110.89 2.40283 -2.94904 0
M  V30 23122 H 2112.2 3.31775 -3.72461 0
M  V30 23123 H 2111.35 5.43606 -2.69401 0
M  V30 23124 H 2110.09 4.52709 -1.81399 0
M  V30 23125 H 2109.1 3.77847 -3.99389 0
M  V30 23126 H 2110.32 4.72106 -4.88152 0
M  V30 23127 H 2108.27 5.86021 -2.94814 0
M  V30 23128 H 2108.19 5.93925 -4.67749 0
M  V30 23129 H 2109.45 6.78352 -3.84003 0
M  V30 23130 N 2113.68 1.34058 0.828631 0
M  V30 23131 C 2114.62 1.21002 1.94657 0
M  V30 23132 C 2115.63 0.138478 1.6221 0
M  V30 23133 O 2116.82 0.389824 1.74191 0
M  V30 23134 C 2113.92 0.835704 3.28434 0
M  V30 23135 C 2113.09 2.00103 3.88944 0
M  V30 23136 C 2112.15 1.60604 5.01092 0
M  V30 23137 O 2111.18 2.32182 5.19692 0
M  V30 23138 N 2112.38 0.516907 5.78194 0
M  V30 23139 H 2115.14 2.17309 2.0639 0
M  V30 23140 H 2112.7 1.26938 1.00491 0
M  V30 23141 H 2114.7 0.553361 4.00899 0
M  V30 23142 H 2113.27 -0.0370007 3.12578 0
M  V30 23143 H 2112.49 2.44843 3.08943 0
M  V30 23144 H 2113.77 2.78052 4.26104 0
M  V30 23145 H 2113.17 -0.0782718 5.65646 0
M  V30 23146 H 2111.73 0.294274 6.51135 0
M  V30 23147 N 2115.16 -1.04814 1.17694 0
M  V30 23148 C 2116.41 -1.77277 0.962076 0
M  V30 23149 C 2116.72 -1.88834 -0.509992 0
M  V30 23150 O 2117.93 -2.58075 -0.843166 0
M  V30 23151 C 2116.39 -3.18693 1.67221 0
M  V30 23152 C 2115.99 -3.15253 3.18308 0
M  V30 23153 C 2117.74 -3.95585 1.53988 0
M  V30 23154 C 2115.64 -4.51481 3.81993 0
M  V30 23155 H 2114.57 -0.66449 0.356328 0
M  V30 23156 H 2117.23 -1.17451 1.40988 0
M  V30 23157 H 2115.61 -3.78868 1.15216 0
M  V30 23158 H 2116.78 -2.64573 3.77277 0
M  V30 23159 H 2115.1 -2.51859 3.31596 0
M  V30 23160 H 2117.69 -4.96315 1.98937 0
M  V30 23161 H 2118.04 -4.13394 0.491003 0
M  V30 23162 H 2118.57 -3.41967 2.03232 0
M  V30 23163 H 2115.31 -4.38877 4.86895 0
M  V30 23164 H 2114.83 -5.02295 3.27811 0
M  V30 23165 H 2116.51 -5.20413 3.84421 0
M  V30 23166 N 2116.64 -0.977779 -1.23601 0
M  V30 23167 C 2117.86 -0.662789 -1.96524 0
M  V30 23168 C 2118.29 0.763086 -1.71926 0
M  V30 23169 O 2117.65 1.51941 -0.989123 0
M  V30 23170 C 2117.7 -0.95584 -3.47701 0
M  V30 23171 O 2116.8 -0.046501 -4.12374 0
M  V30 23172 H 2116.14 -0.249541 -0.615325 0
M  V30 23173 H 2118.67 -1.31066 -1.57108 0
M  V30 23174 H 2118.68 -0.891475 -3.98142 0
M  V30 23175 H 2117.36 -1.99494 -3.64932 0
M  V30 23176 H 2115.93 -0.165051 -3.72535 0
M  V30 23177 N 2118.12 1.38658 -0.749111 0
M  V30 23178 C 2119.06 2.30496 -0.118423 0
M  V30 23179 C 2120.03 1.49947 0.714492 0
M  V30 23180 O 2121.22 1.78591 0.671546 0
M  V30 23181 C 2118.36 3.3635 0.772186 0
M  V30 23182 C 2117.47 4.31935 -0.0748716 0
M  V30 23183 C 2116.61 5.24859 0.818323 0
M  V30 23184 C 2115.65 6.12091 -0.0326386 0
M  V30 23185 N 2114.78 6.97327 0.817267 0
M  V30 23186 H 2119.62 2.83856 -0.90718 0
M  V30 23187 H 2117.16 1.39755 -0.459001 0
M  V30 23188 H 2119.12 3.96326 1.30313 0
M  V30 23189 H 2117.75 2.84411 1.52677 0
M  V30 23190 H 2116.8 3.73458 -0.723395 0
M  V30 23191 H 2118.11 4.93396 -0.732237 0
M  V30 23192 H 2117.27 5.8993 1.4166 0
M  V30 23193 H 2116.01 4.63754 1.50943 0
M  V30 23194 H 2115.01 5.4602 -0.643614 0
M  V30 23195 H 2116.24 6.75264 -0.720742 0
M  V30 23196 H 2114.18 6.38775 1.49341 0
M  V30 23197 H 2114.1 7.55689 0.216698 0
M  V30 23198 H 2115.37 7.66813 1.40066 0
M  V30 23199 N 2119.6 0.497834 1.49531 0
M  V30 23200 C 2120.53 -0.271671 2.31914 0
M  V30 23201 C 2121.51 -0.965521 1.40042 0
M  V30 23202 O 2122.69 -0.957536 1.68952 0
M  V30 23203 C 2119.82 -1.3384 3.20475 0
M  V30 23204 C 2118.78 -0.76461 4.21115 0
M  V30 23205 C 2118.1 -1.93162 4.98591 0
M  V30 23206 C 2119.4 0.242201 5.21738 0
M  V30 23207 H 2121.1 0.415979 2.96496 0
M  V30 23208 H 2118.64 0.201496 1.42583 0
M  V30 23209 H 2120.59 -1.88442 3.76918 0
M  V30 23210 H 2119.32 -2.05519 2.5383 0
M  V30 23211 H 2117.98 -0.240359 3.65811 0
M  V30 23212 H 2117.63 -2.63602 4.28396 0
M  V30 23213 H 2117.33 -1.55378 5.66685 0
M  V30 23214 H 2118.85 -2.48204 5.57877 0
M  V30 23215 H 2120.26 -0.215575 5.72895 0
M  V30 23216 H 2118.66 0.535707 5.97704 0
M  V30 23217 H 2119.73 1.15916 4.70841 0
M  V30 23218 N 2121.07 -1.5589 0.231532 0
M  V30 23219 C 2122.3 -2.03407 -0.405035 0
M  V30 23220 C 2122.72 -1.11007 -1.51852 0
M  V30 23221 O 2122.08 -0.100101 -1.81023 0
M  V30 23222 C 2122.13 -3.4907 -0.904554 0
M  V30 23223 O 2121.23 -3.59808 -2.01524 0
M  V30 23224 H 2120.57 -0.657819 -0.090391 0
M  V30 23225 H 2123.1 -2.0153 0.353092 0
M  V30 23226 H 2123.11 -3.89589 -1.21178 0
M  V30 23227 H 2121.79 -4.15803 -0.0896407 0
M  V30 23228 H 2120.37 -3.3118 -1.71388 0
M  V30 23229 N 2122.55 0.0417572 -1.57545 0
M  V30 23230 C 2123.46 1.06351 -2.09109 0
M  V30 23231 C 2124.48 1.40464 -1.02694 0
M  V30 23232 O 2125.65 1.50038 -1.34352 0
M  V30 23233 C 2122.72 2.34925 -2.54973 0
M  V30 23234 C 2121.78 2.0751 -3.75816 0
M  V30 23235 C 2121.01 3.29954 -4.19483 0
M  V30 23236 O 2121.24 4.40174 -3.62772 0
M  V30 23237 O 2120.17 3.16399 -5.12031 0
M  V30 23238 H 2124 0.655348 -2.96545 0
M  V30 23239 H 2121.58 0.257909 -1.47157 0
M  V30 23240 H 2123.46 3.10537 -2.84859 0
M  V30 23241 H 2122.14 2.75062 -1.70653 0
M  V30 23242 H 2121.04 1.29507 -3.50968 0
M  V30 23243 H 2122.38 1.72237 -4.61081 0
M  V30 23244 N 2124.03 1.54445 0.313786 0
M  V30 23245 C 2124.94 1.87547 1.40937 0
M  V30 23246 C 2125.96 0.768341 1.56117 0
M  V30 23247 O 2127.13 1.06358 1.71026 0
M  V30 23248 C 2124.2 2.10467 2.75508 0
M  V30 23249 C 2123.26 3.34232 2.69421 0
M  V30 23250 C 2122.49 3.56049 3.97574 0
M  V30 23251 O 2122.71 2.81118 4.96316 0
M  V30 23252 O 2121.65 4.49546 4.0024 0
M  V30 23253 H 2125.47 2.80728 1.15868 0
M  V30 23254 H 2123.06 1.40473 0.508698 0
M  V30 23255 H 2124.94 2.26817 3.55151 0
M  V30 23256 H 2123.62 1.20474 3.00446 0
M  V30 23257 H 2122.52 3.23259 1.88294 0
M  V30 23258 H 2123.86 4.24314 2.49436 0
M  V30 23259 N 2125.51 -0.576345 1.46683 0
M  V30 23260 C 2126.74 -1.35822 1.55679 0
M  V30 23261 C 2127.15 -1.8815 0.199067 0
M  V30 23262 O 2126.49 -1.64638 -0.814857 0
M  V30 23263 C 2126.55 -2.57736 2.50624 0
M  V30 23264 C 2126.21 -2.26831 3.96733 0
M  V30 23265 C 2127.21 -1.8528 4.85765 0
M  V30 23266 C 2124.9 -2.38779 4.41916 0
M  V30 23267 C 2126.89 -1.5608 6.17995 0
M  V30 23268 C 2124.58 -2.09192 5.74179 0
M  V30 23269 C 2125.58 -1.67909 6.62039 0
M  V30 23270 O 2125.26 -1.38688 7.91847 0
M  V30 23271 H 2125 -0.42105 0.52886 0
M  V30 23272 H 2127.55 -0.706986 1.92849 0
M  V30 23273 H 2125.78 -3.25686 2.08484 0
M  V30 23274 H 2127.47 -3.19807 2.49956 0
M  V30 23275 H 2128.23 -1.75558 4.52111 0
M  V30 23276 H 2124.11 -2.69874 3.7375 0
M  V30 23277 H 2127.66 -1.23783 6.8653 0
M  V30 23278 H 2123.55 -2.1854 6.0738 0
M  V30 23279 H 2124.32 -1.5248 8.04172 0
M  V30 23280 N 2126.99 -1.34495 -0.82151 0
M  V30 23281 C 2128.23 -1.26931 -1.57781 0
M  V30 23282 C 2128.56 0.160345 -1.93838 0
M  V30 23283 O 2127.82 1.12196 -1.60345 0
M  V30 23284 C 2128.11 -2.10695 -2.88691 0
M  V30 23285 C 2127.78 -3.59682 -2.71919 0
M  V30 23286 C 2126.44 -4.00295 -2.67053 0
M  V30 23287 C 2128.79 -4.5428 -2.55497 0
M  V30 23288 C 2126.12 -5.33698 -2.43687 0
M  V30 23289 C 2128.47 -5.87864 -2.33663 0
M  V30 23290 C 2127.14 -6.2764 -2.27209 0
M  V30 23291 H 2126.41 -0.464474 -0.57736 0
M  V30 23292 H 2129.06 -1.66251 -0.950411 0
M  V30 23293 H 2127.36 -1.64208 -3.55729 0
M  V30 23294 H 2129.06 -2.02188 -3.46296 0
M  V30 23295 H 2125.65 -3.27444 -2.76547 0
M  V30 23296 H 2129.83 -4.23799 -2.58279 0
M  V30 23297 H 2125.09 -5.63534 -2.37149 0
M  V30 23298 H 2129.26 -6.60756 -2.19943 0
M  V30 23299 H 2126.89 -7.30944 -2.08865 0
M  V30 23300 N 2128.46 1.04188 -1.18248 0
M  V30 23301 C 2129.71 1.76764 -0.971464 0
M  V30 23302 C 2130.03 1.89102 0.49997 0
M  V30 23303 O 2131.23 2.58519 0.829468 0
M  V30 23304 C 2129.69 3.17801 -1.68909 0
M  V30 23305 C 2129.3 3.1356 -3.19975 0
M  V30 23306 C 2131.04 3.94763 -1.56084 0
M  V30 23307 C 2128.95 4.49449 -3.84382 0
M  V30 23308 H 2127.88 0.662591 -0.359847 0
M  V30 23309 H 2130.53 1.16702 -1.41608 0
M  V30 23310 H 2128.91 3.78252 -1.17224 0
M  V30 23311 H 2130.08 2.62568 -3.78675 0
M  V30 23312 H 2128.4 2.50097 -3.32927 0
M  V30 23313 H 2131 4.95253 -2.01566 0
M  V30 23314 H 2131.34 4.13128 -0.512919 0
M  V30 23315 H 2131.87 3.40885 -2.05043 0
M  V30 23316 H 2128.61 4.36289 -4.89216 0
M  V30 23317 H 2128.13 5.00549 -3.3047 0
M  V30 23318 H 2129.81 5.18367 -3.87175 0
M  V30 23319 N 2129.94 0.98432 1.23081 0
M  V30 23320 C 2130.87 0.547274 2.26996 0
M  V30 23321 C 2131.85 -0.421528 1.64794 0
M  V30 23322 O 2133.04 -0.314036 1.91644 0
M  V30 23323 C 2130.17 -0.147283 3.46988 0
M  V30 23324 C 2129.12 0.739194 4.21568 0
M  V30 23325 C 2128.45 -0.0877981 5.34628 0
M  V30 23326 C 2129.75 2.03191 4.81156 0
M  V30 23327 H 2131.44 1.41586 2.63806 0
M  V30 23328 H 2128.99 0.682245 1.26813 0
M  V30 23329 H 2130.94 -0.464368 4.18834 0
M  V30 23330 H 2129.67 -1.05035 3.09249 0
M  V30 23331 H 2128.32 1.03979 3.51545 0
M  V30 23332 H 2127.97 -0.99152 4.93131 0
M  V30 23333 H 2127.67 0.50225 5.8545 0
M  V30 23334 H 2129.2 -0.399175 6.09294 0
M  V30 23335 H 2130.61 1.77933 5.44989 0
M  V30 23336 H 2129.01 2.57006 5.4228 0
M  V30 23337 H 2130.08 2.71622 4.01684 0
M  V30 23338 N 2131.42 -1.38259 0.756453 0
M  V30 23339 C 2132.35 -2.2902 0.0908208 0
M  V30 23340 C 2133.37 -1.47887 -0.680684 0
M  V30 23341 O 2134.55 -1.70718 -0.521301 0
M  V30 23342 C 2131.65 -3.26859 -0.895342 0
M  V30 23343 C 2130.83 -4.37026 -0.180877 0
M  V30 23344 C 2129.89 -5.15035 -1.0782 0
M  V30 23345 O 2128.91 -5.66559 -0.547658 0
M  V30 23346 N 2130.11 -5.28291 -2.40602 0
M  V30 23347 H 2132.88 -2.86785 0.870302 0
M  V30 23348 H 2130.44 -1.50071 0.607483 0
M  V30 23349 H 2132.43 -3.75926 -1.49873 0
M  V30 23350 H 2131 -2.69972 -1.57588 0
M  V30 23351 H 2130.22 -3.89557 0.603252 0
M  V30 23352 H 2131.51 -5.07834 0.313403 0
M  V30 23353 H 2130.91 -4.87986 -2.86158 0
M  V30 23354 H 2129.47 -5.80721 -2.95984 0
M  V30 23355 N 2132.9 -0.505757 -1.49264 0
M  V30 23356 C 2133.85 0.270127 -2.29214 0
M  V30 23357 C 2134.82 0.956031 -1.35828 0
M  V30 23358 O 2136 0.961771 -1.64787 0
M  V30 23359 C 2133.14 1.32577 -3.18618 0
M  V30 23360 C 2132.25 0.65116 -4.27064 0
M  V30 23361 C 2131.39 1.68765 -5.03678 0
M  V30 23362 C 2130.43 0.995172 -6.03956 0
M  V30 23363 N 2129.56 1.97608 -6.73718 0
M  V30 23364 H 2134.4 -0.41788 -2.95056 0
M  V30 23365 H 2131.94 -0.217921 -1.45477 0
M  V30 23366 H 2133.9 1.94985 -3.68832 0
M  V30 23367 H 2132.53 1.98248 -2.5475 0
M  V30 23368 H 2131.58 -0.0863124 -3.80302 0
M  V30 23369 H 2132.89 0.106277 -4.98687 0
M  V30 23370 H 2132.05 2.38665 -5.57785 0
M  V30 23371 H 2130.79 2.2664 -4.3184 0
M  V30 23372 H 2129.79 0.281968 -5.49076 0
M  V30 23373 H 2131.02 0.422861 -6.77782 0
M  V30 23374 H 2128.96 2.54436 -6.04647 0
M  V30 23375 H 2128.88 1.48199 -7.41332 0
M  V30 23376 H 2130.15 2.66782 -7.32426 0
M  V30 23377 N 2134.38 1.55765 -0.239796 0
M  V30 23378 C 2135.32 2.2108 0.662746 0
M  V30 23379 C 2136.29 1.17233 1.17668 0
M  V30 23380 O 2137.48 1.45655 1.23245 0
M  V30 23381 C 2134.62 2.90865 1.85719 0
M  V30 23382 C 2133.73 4.0935 1.38044 0
M  V30 23383 C 2132.87 4.6687 2.53389 0
M  V30 23384 C 2131.91 5.77619 2.02541 0
M  V30 23385 N 2131.04 6.29351 3.11225 0
M  V30 23386 H 2135.88 2.97835 0.0990722 0
M  V30 23387 H 2133.42 1.47053 0.0371415 0
M  V30 23388 H 2135.38 3.2952 2.55875 0
M  V30 23389 H 2134.01 2.16596 2.39345 0
M  V30 23390 H 2133.06 3.76057 0.573171 0
M  V30 23391 H 2134.37 4.89322 0.96774 0
M  V30 23392 H 2133.53 5.08062 3.31598 0
M  V30 23393 H 2132.26 3.861 2.97957 0
M  V30 23394 H 2131.27 5.35911 1.22799 0
M  V30 23395 H 2132.49 6.60236 1.5895 0
M  V30 23396 H 2130.44 5.51488 3.55241 0
M  V30 23397 H 2130.36 7.04497 2.74263 0
M  V30 23398 H 2131.63 6.75202 3.89516 0
M  V30 23399 N 2135.85 -0.0334016 1.57565 0
M  V30 23400 C 2136.78 -1.03494 2.09312 0
M  V30 23401 C 2137.77 -1.37985 0.9947 0
M  V30 23402 O 2138.95 -1.46944 1.26969 0
M  V30 23403 C 2136.08 -2.33717 2.56892 0
M  V30 23404 C 2135.03 -2.1348 3.70959 0
M  V30 23405 C 2134.36 -3.49425 4.0473 0
M  V30 23406 C 2135.66 -1.52451 4.99556 0
M  V30 23407 H 2137.35 -0.60419 2.9324 0
M  V30 23408 H 2134.9 -0.289182 1.41066 0
M  V30 23409 H 2136.85 -3.04107 2.91714 0
M  V30 23410 H 2135.58 -2.78843 1.70041 0
M  V30 23411 H 2134.24 -1.45523 3.3648 0
M  V30 23412 H 2133.88 -3.92192 3.14952 0
M  V30 23413 H 2133.58 -3.36711 4.81559 0
M  V30 23414 H 2135.11 -4.21184 4.42082 0
M  V30 23415 H 2136.52 -2.12753 5.32362 0
M  V30 23416 H 2134.92 -1.50324 5.80967 0
M  V30 23417 H 2135.99 -0.48986 4.82419 0
M  V30 23418 N 2137.33 -1.54609 -0.305591 0
M  V30 23419 C 2138.28 -1.85991 -1.39679 0
M  V30 23420 C 2139.27 -0.733256 -1.52708 0
M  V30 23421 O 2140.48 -0.917183 -1.5488 0
M  V30 23422 H 2136.86 -0.589836 -0.466474 0
M  V30 23423 H 2138.83 -2.77209 -1.10444 0
M  V30 23424 C 2137.58 -2.11986 -2.75604 0
M  V30 23425 H 2136.9 -2.9815 -2.66358 0
M  V30 23426 H 2138.34 -2.37886 -3.50979 0
M  V30 23427 C 2136.8 -0.916972 -3.24181 0
M  V30 23428 O 2137.33 -0.135175 -4.01472 0
M  V30 23429 N 2135.53 -0.723621 -2.81446 0
M  V30 23430 H 2135.08 -1.36103 -2.18709 0
M  V30 23431 H 2135.04 0.0796694 -3.14299 0
M  V30 23432 N 2138.81 0.568558 -1.46987 0
M  V30 23433 C 2139.72 1.70416 -1.61232 0
M  V30 23434 C 2140.74 1.66798 -0.495411 0
M  V30 23435 O 2141.91 1.86451 -0.761438 0
M  V30 23436 C 2138.98 3.06924 -1.6124 0
M  V30 23437 C 2138.04 3.21697 -2.8427 0
M  V30 23438 C 2137.27 4.51694 -2.84268 0
M  V30 23439 O 2137.49 5.36458 -1.93827 0
M  V30 23440 O 2136.43 4.70015 -3.75991 0
M  V30 23441 H 2140.25 1.61343 -2.57298 0
M  V30 23442 H 2137.84 0.737255 -1.29942 0
M  V30 23443 H 2139.72 3.88182 -1.6399 0
M  V30 23444 H 2138.4 3.16404 -0.683373 0
M  V30 23445 H 2137.3 2.39879 -2.87069 0
M  V30 23446 H 2138.64 3.17115 -3.76429 0
M  V30 23447 N 2140.29 1.34929 0.814366 0
M  V30 23448 C 2141.22 1.21559 1.93129 0
M  V30 23449 C 2142.2 0.105242 1.62259 0
M  V30 23450 O 2143.38 0.271939 1.86528 0
M  V30 23451 C 2140.51 0.869978 3.27336 0
M  V30 23452 C 2139.56 1.99128 3.77161 0
M  V30 23453 S 2140.39 3.60594 3.95894 0
M  V30 23454 C 2141.55 3.28094 5.33015 0
M  V30 23455 H 2141.78 2.16102 2.04175 0
M  V30 23456 H 2139.31 1.20055 0.970888 0
M  V30 23457 H 2141.27 0.677373 4.04873 0
M  V30 23458 H 2139.93 -0.0572578 3.14048 0
M  V30 23459 H 2139.12 1.70342 4.74341 0
M  V30 23460 H 2138.73 2.14182 3.06598 0
M  V30 23461 H 2141.02 2.80439 6.16733 0
M  V30 23462 H 2141.96 4.24446 5.66791 0
M  V30 23463 H 2142.37 2.64058 4.98932 0
M  V30 23464 N 2141.77 -1.0356 1.18799 0
M  V30 23465 C 2143.02 -1.76246 0.980824 0
M  V30 23466 C 2143.33 -1.89365 -0.489935 0
M  V30 23467 O 2144.53 -2.58955 -0.815746 0
M  V30 23468 C 2142.99 -3.16901 1.70592 0
M  V30 23469 C 2142.6 -3.11859 3.21633 0
M  V30 23470 C 2144.34 -3.9393 1.58175 0
M  V30 23471 C 2142.25 -4.47404 3.8676 0
M  V30 23472 H 2141.18 -0.660673 0.363355 0
M  V30 23473 H 2143.83 -1.15949 1.42225 0
M  V30 23474 H 2142.21 -3.77625 1.19228 0
M  V30 23475 H 2143.39 -2.60556 3.80062 0
M  V30 23476 H 2141.7 -2.48328 3.34249 0
M  V30 23477 H 2144.3 -4.94177 2.0419 0
M  V30 23478 H 2144.64 -4.1285 0.534821 0
M  V30 23479 H 2145.17 -3.39792 2.06848 0
M  V30 23480 H 2141.91 -4.33688 4.91523 0
M  V30 23481 H 2141.43 -4.9879 3.3312 0
M  V30 23482 H 2143.11 -5.16306 3.89919 0
M  V30 23483 N 2143.25 -0.990834 -1.22557 0
M  V30 23484 C 2144.18 -0.559304 -2.26703 0
M  V30 23485 C 2145.16 0.412782 -1.65016 0
M  V30 23486 O 2146.34 0.303868 -1.91808 0
M  V30 23487 C 2143.47 0.12888 -3.47061 0
M  V30 23488 C 2142.43 -0.76154 -4.2117 0
M  V30 23489 C 2141.75 0.0594442 -5.34667 0
M  V30 23490 C 2143.05 -2.0574 -4.80071 0
M  V30 23491 H 2144.75 -1.42983 -2.63052 0
M  V30 23492 H 2142.29 -0.68896 -1.26449 0
M  V30 23493 H 2144.24 0.44215 -4.19074 0
M  V30 23494 H 2142.97 1.03394 -3.09802 0
M  V30 23495 H 2141.63 -1.05842 -3.50989 0
M  V30 23496 H 2141.28 0.965355 -4.9365 0
M  V30 23497 H 2140.98 -0.533291 -5.85175 0
M  V30 23498 H 2142.5 0.366857 -6.09497 0
M  V30 23499 H 2143.91 -1.80821 -5.44037 0
M  V30 23500 H 2142.31 -2.59878 -5.4091 0
M  V30 23501 H 2143.38 -2.73748 -4.00237 0
M  V30 23502 N 2144.72 1.37856 -0.763775 0
M  V30 23503 C 2145.95 2.04686 -0.334395 0
M  V30 23504 C 2146.37 1.57229 1.0325 0
M  V30 23505 O 2145.73 0.728884 1.66003 0
M  V30 23506 C 2145.78 3.58616 -0.377715 0
M  V30 23507 O 2144.88 4.07641 0.624687 0
M  V30 23508 H 2144.22 0.647714 -0.146161 0
M  V30 23509 H 2146.75 1.76329 -1.03774 0
M  V30 23510 H 2146.76 4.07339 -0.232185 0
M  V30 23511 H 2145.44 3.92514 -1.37496 0
M  V30 23512 H 2144.02 3.7026 0.442931 0
M  V30 23513 N 2146.2 0.513665 1.48994 0
M  V30 23514 C 2147.13 -0.29486 2.27295 0
M  V30 23515 C 2148.15 -0.919245 1.34364 0
M  V30 23516 O 2149.34 -0.800442 1.59547 0
M  V30 23517 C 2146.44 -1.43125 3.07195 0
M  V30 23518 C 2145.61 -0.911824 4.2779 0
M  V30 23519 C 2144.67 -1.92735 4.89632 0
M  V30 23520 O 2143.69 -1.49081 5.4933 0
M  V30 23521 N 2144.9 -3.25858 4.80413 0
M  V30 23522 H 2147.66 0.376609 2.97324 0
M  V30 23523 H 2145.22 0.346983 1.58138 0
M  V30 23524 H 2147.21 -2.10843 3.45438 0
M  V30 23525 H 2145.78 -2.00665 2.39692 0
M  V30 23526 H 2145 -0.059147 3.94156 0
M  V30 23527 H 2146.29 -0.543402 5.0589 0
M  V30 23528 H 2145.69 -3.64003 4.33034 0
M  V30 23529 H 2144.25 -3.89255 5.22804 0
M  V30 23530 N 2147.68 -1.55636 0.248053 0
M  V30 23531 C 2148.61 -2.18762 -0.683786 0
M  V30 23532 C 2149.62 -1.16427 -1.13791 0
M  V30 23533 O 2150.81 -1.43286 -1.06449 0
M  V30 23534 C 2147.91 -2.77789 -1.9413 0
M  V30 23535 C 2147.09 -4.05554 -1.63843 0
M  V30 23536 C 2146.15 -4.48887 -2.74566 0
M  V30 23537 O 2145.17 -5.15239 -2.41903 0
M  V30 23538 N 2146.37 -4.16768 -4.04085 0
M  V30 23539 H 2149.14 -2.99356 -0.143647 0
M  V30 23540 H 2146.7 -1.61757 0.0680612 0
M  V30 23541 H 2148.69 -3.03735 -2.67445 0
M  V30 23542 H 2147.26 -2.01346 -2.3912 0
M  V30 23543 H 2146.48 -3.87184 -0.740411 0
M  V30 23544 H 2147.77 -4.88851 -1.41074 0
M  V30 23545 H 2147.17 -3.63502 -4.33455 0
M  V30 23546 H 2145.72 -4.47548 -4.73861 0
M  V30 23547 N 2149.16 0.0250451 -1.5758 0
M  V30 23548 C 2150.09 1.02382 -2.09857 0
M  V30 23549 C 2151.07 1.37455 -1.002 0
M  V30 23550 O 2152.25 1.46269 -1.27746 0
M  V30 23551 C 2149.38 2.32351 -2.58128 0
M  V30 23552 C 2148.34 2.11509 -3.72086 0
M  V30 23553 C 2147.66 3.47274 -4.06577 0
M  V30 23554 C 2148.96 1.49799 -5.00357 0
M  V30 23555 H 2150.66 0.58863 -2.93557 0
M  V30 23556 H 2148.2 0.281696 -1.41218 0
M  V30 23557 H 2150.16 3.02556 -2.93322 0
M  V30 23558 H 2148.88 2.77938 -1.71518 0
M  V30 23559 H 2147.54 1.43737 -3.37247 0
M  V30 23560 H 2147.19 3.90516 -3.17027 0
M  V30 23561 H 2146.89 3.34153 -4.83338 0
M  V30 23562 H 2148.41 4.18834 -4.44309 0
M  V30 23563 H 2149.83 2.09927 -5.33483 0
M  V30 23564 H 2148.22 1.47241 -5.81756 0
M  V30 23565 H 2149.29 0.464269 -4.82672 0
M  V30 23566 N 2150.64 1.54769 0.297388 0
M  V30 23567 C 2151.58 1.8597 1.36689 0
M  V30 23568 C 2152.55 0.708928 1.50211 0
M  V30 23569 O 2153.74 0.9579 1.65012 0
M  V30 23570 C 2150.88 2.11576 2.72635 0
M  V30 23571 C 2149.99 3.39191 2.67533 0
M  V30 23572 C 2149.13 3.54621 3.95496 0
M  V30 23573 C 2148.16 4.76015 3.84806 0
M  V30 23574 N 2147.3 4.88232 5.04553 0
M  V30 23575 H 2152.14 2.772 1.09381 0
M  V30 23576 H 2149.68 1.3726 0.528967 0
M  V30 23577 H 2151.64 2.24418 3.517 0
M  V30 23578 H 2150.27 1.23608 2.98196 0
M  V30 23579 H 2149.32 3.3495 1.80312 0
M  V30 23580 H 2150.63 4.28379 2.55525 0
M  V30 23581 H 2149.78 3.67147 4.82999 0
M  V30 23582 H 2148.52 2.63573 4.10342 0
M  V30 23583 H 2147.53 4.63518 2.95687 0
M  V30 23584 H 2148.75 5.68475 3.71502 0
M  V30 23585 H 2146.7 4.00108 5.19855 0
M  V30 23586 H 2146.62 5.71427 4.94982 0
M  V30 23587 H 2147.88 5.05119 5.93696 0
M  V30 23588 N 2152.11 -0.560755 1.47286 0
M  V30 23589 C 2153.34 -1.34841 1.57584 0
M  V30 23590 C 2153.76 -1.86747 0.22521 0
M  V30 23591 O 2153.12 -1.62776 -0.798346 0
M  V30 23592 C 2153.17 -2.49671 2.60186 0
M  V30 23593 O 2152.27 -3.51793 2.1521 0
M  V30 23594 H 2151.61 -0.400669 0.529491 0
M  V30 23595 H 2154.14 -0.67803 1.93039 0
M  V30 23596 H 2154.15 -2.9629 2.80493 0
M  V30 23597 H 2152.83 -2.11248 3.58256 0
M  V30 23598 H 2151.41 -3.11504 2.04987 0
M  V30 23599 N 2153.59 -1.35359 -0.807199 0
M  V30 23600 C 2154.52 -1.30893 -1.93363 0
M  V30 23601 C 2155.5 -0.183475 -1.69108 0
M  V30 23602 O 2156.69 -0.378339 -1.90479 0
M  V30 23603 C 2153.82 -1.07954 -3.30096 0
M  V30 23604 C 2152.77 -2.17133 -3.68832 0
M  V30 23605 C 2152.1 -1.7936 -5.0372 0
M  V30 23606 C 2153.4 -3.59094 -3.79274 0
M  V30 23607 H 2155.09 -2.25145 -1.97357 0
M  V30 23608 H 2152.64 -1.08381 -0.948131 0
M  V30 23609 H 2154.59 -1.03469 -4.085 0
M  V30 23610 H 2153.31 -0.101468 -3.26442 0
M  V30 23611 H 2151.97 -2.20714 -2.92713 0
M  V30 23612 H 2151.62 -0.801733 -4.96569 0
M  V30 23613 H 2151.32 -2.52445 -5.30608 0
M  V30 23614 H 2152.85 -1.764 -5.84564 0
M  V30 23615 H 2154.26 -3.57839 -4.47911 0
M  V30 23616 H 2152.66 -4.30934 -4.17632 0
M  V30 23617 H 2153.73 -3.9529 -2.80845 0
M  V30 23618 N 2155.07 1.02928 -1.19346 0
M  V30 23619 C 2156.3 1.79687 -1.01961 0
M  V30 23620 C 2156.71 1.84137 0.434779 0
M  V30 23621 O 2156.05 1.28397 1.31377 0
M  V30 23622 C 2156.11 3.26152 -1.51213 0
M  V30 23623 C 2155.78 3.45338 -2.99317 0
M  V30 23624 C 2156.77 3.35591 -3.97083 0
M  V30 23625 C 2154.46 3.71566 -3.38 0
M  V30 23626 C 2156.45 3.51795 -5.31525 0
M  V30 23627 C 2154.14 3.87415 -4.72602 0
M  V30 23628 C 2155.14 3.77532 -5.69174 0
M  V30 23629 O 2154.83 3.92914 -7.01337 0
M  V30 23630 H 2154.56 0.572339 -0.359729 0
M  V30 23631 H 2157.11 1.30533 -1.58588 0
M  V30 23632 H 2155.34 3.76328 -0.889605 0
M  V30 23633 H 2157.03 3.84505 -1.30042 0
M  V30 23634 H 2157.8 3.1528 -3.68542 0
M  V30 23635 H 2153.68 3.78351 -2.63385 0
M  V30 23636 H 2157.22 3.43997 -6.06887 0
M  V30 23637 H 2153.12 4.07223 -5.00839 0
M  V30 23638 H 2153.88 4.10007 -7.08404 0
M  V30 23639 N 2156.55 0.997319 1.2203 0
M  V30 23640 C 2157.48 0.571319 2.26403 0
M  V30 23641 C 2158.46 -0.404025 1.65232 0
M  V30 23642 O 2159.64 -0.293692 1.91966 0
M  V30 23643 C 2156.77 -0.110472 3.47124 0
M  V30 23644 C 2155.73 0.783865 4.20761 0
M  V30 23645 C 2155.05 -0.0310887 5.34691 0
M  V30 23646 C 2156.35 2.08283 4.78974 0
M  V30 23647 H 2158.05 1.44376 2.6229 0
M  V30 23648 H 2155.59 0.695656 1.26082 0
M  V30 23649 H 2157.55 -0.419919 4.19303 0
M  V30 23650 H 2156.27 -1.01749 3.10346 0
M  V30 23651 H 2154.93 1.07702 3.50422 0
M  V30 23652 H 2154.58 -0.939162 4.94155 0
M  V30 23653 H 2154.28 0.564316 5.84884 0
M  V30 23654 H 2155.8 -0.334528 6.09683 0
M  V30 23655 H 2157.22 1.83704 5.43071 0
M  V30 23656 H 2155.61 2.62743 5.39524 0
M  V30 23657 H 2156.68 2.75867 3.9878 0
M  V30 23658 N 2158.03 -1.37449 0.771075 0
M  V30 23659 C 2159.27 -1.99314 0.33443 0
M  V30 23660 C 2159.6 -1.61515 -1.0926 0
M  V30 23661 O 2158.87 -0.880278 -1.75008 0
M  V30 23662 H 2157.45 -0.73719 0.120664 0
M  V30 23663 H 2160.11 -1.6794 0.989052 0
M  V30 23664 H 2159.2 -3.09375 0.411526 0
M  V30 23665 N 2159.5 -0.52156 -1.4872 0
M  V30 23666 C 2160.75 0.0156187 -2.02794 0
M  V30 23667 C 2161.08 1.34729 -1.39863 0
M  V30 23668 O 2160.36 1.86812 -0.541426 0
M  V30 23669 C 2160.64 0.146526 -3.59802 0
M  V30 23670 C 2160.49 -1.20972 -4.33227 0
M  V30 23671 C 2161.81 0.87737 -4.31266 0
M  V30 23672 H 2158.93 0.00420207 -0.736988 0
M  V30 23673 H 2161.57 -0.676958 -1.77531 0
M  V30 23674 H 2159.72 0.736393 -3.81457 0
M  V30 23675 H 2161.4 -1.84005 -4.23013 0
M  V30 23676 H 2159.64 -1.79378 -3.94976 0
M  V30 23677 H 2160.31 -1.07121 -5.41506 0
M  V30 23678 H 2162.79 0.376892 -4.1439 0
M  V30 23679 H 2161.66 0.937846 -5.40829 0
M  V30 23680 H 2161.92 1.92578 -3.97953 0
M  V30 23681 N 2160.98 1.55502 -0.256304 0
M  V30 23682 C 2162.21 2.04025 0.372624 0
M  V30 23683 C 2162.63 1.13408 1.50067 0
M  V30 23684 O 2161.99 0.128888 1.80841 0
M  V30 23685 C 2162.04 3.50465 0.848906 0
M  V30 23686 O 2161.14 3.62969 1.95774 0
M  V30 23687 H 2160.48 0.659174 0.0799143 0
M  V30 23688 H 2163.01 2.00943 -0.385109 0
M  V30 23689 H 2163.02 3.91468 1.14965 0
M  V30 23690 H 2161.7 4.15893 0.0234786 0
M  V30 23691 H 2160.28 3.33865 1.66098 0
M  V30 23692 N 2162.46 -0.0166879 1.57591 0
M  V30 23693 C 2163.41 -1.02157 2.03833 0
M  V30 23694 C 2164.39 -1.31307 0.929912 0
M  V30 23695 O 2165.59 -1.30684 1.19376 0
M  V30 23696 C 2162.72 -2.31886 2.53148 0
M  V30 23697 C 2161.8 -2.05772 3.70835 0
M  V30 23698 N 2162.19 -1.49759 4.83121 0
M  V30 23699 C 2160.49 -2.35997 3.78446 0
M  V30 23700 C 2161.19 -1.39734 5.64667 0
M  V30 23701 N 2160.17 -1.87721 5.10159 0
M  V30 23702 H 2163.97 -0.582705 2.88066 0
M  V30 23703 H 2161.48 -0.22274 1.60865 0
M  V30 23704 H 2163.48 -3.04698 2.84543 0
M  V30 23705 H 2162.14 -2.76439 1.70327 0
M  V30 23706 H 2163.15 -1.17862 5.0431 0
M  V30 23707 H 2159.83 -2.83541 3.06449 0
M  V30 23708 H 2161.22 -0.968112 6.64889 0
M  V30 23709 N 2163.94 -1.54924 -0.289176 0
M  V30 23710 C 2164.89 -1.83077 -1.35892 0
M  V30 23711 C 2165.87 -0.68863 -1.45419 0
M  V30 23712 O 2167.06 -0.949574 -1.49372 0
M  V30 23713 C 2164.19 -2.09196 -2.72198 0
M  V30 23714 C 2163.28 -3.29627 -2.66847 0
M  V30 23715 N 2163.67 -4.49912 -2.31112 0
M  V30 23716 C 2161.97 -3.31892 -2.97933 0
M  V30 23717 C 2162.67 -5.31963 -2.35351 0
M  V30 23718 N 2161.65 -4.69972 -2.7318 0
M  V30 23719 H 2165.45 -2.73634 -1.07246 0
M  V30 23720 H 2162.96 -1.54583 -0.497785 0
M  V30 23721 H 2164.96 -2.27516 -3.49345 0
M  V30 23722 H 2163.62 -1.19914 -3.01746 0
M  V30 23723 H 2164.63 -4.76302 -2.03364 0
M  V30 23724 H 2161.31 -2.52753 -3.32298 0
M  V30 23725 H 2162.7 -6.38101 -2.10421 0
M  V30 23726 N 2165.42 0.552936 -1.47582 0
M  V30 23727 C 2166.36 1.65963 -1.60389 0
M  V30 23728 C 2167.33 1.59979 -0.446754 0
M  V30 23729 O 2168.52 1.78749 -0.667351 0
M  V30 23730 C 2165.66 3.04278 -1.62815 0
M  V30 23731 C 2164.77 3.20668 -2.89476 0
M  V30 23732 C 2163.91 4.49406 -2.8321 0
M  V30 23733 C 2162.95 4.59243 -4.04676 0
M  V30 23734 N 2162.08 5.79341 -3.96621 0
M  V30 23735 H 2166.92 1.54355 -2.54909 0
M  V30 23736 H 2164.46 0.751844 -1.26435 0
M  V30 23737 H 2166.42 3.84377 -1.62204 0
M  V30 23738 H 2165.05 3.14712 -0.718048 0
M  V30 23739 H 2164.1 2.33973 -2.99935 0
M  V30 23740 H 2165.41 3.238 -3.79414 0
M  V30 23741 H 2164.57 5.3777 -2.80872 0
M  V30 23742 H 2163.3 4.4876 -1.90961 0
M  V30 23743 H 2162.31 3.69291 -4.07314 0
M  V30 23744 H 2163.53 4.61645 -4.98057 0
M  V30 23745 H 2161.48 5.79636 -3.07178 0
M  V30 23746 H 2161.4 5.8387 -4.80242 0
M  V30 23747 H 2162.67 6.70054 -3.98306 0
M  V30 23748 N 2166.89 1.35785 0.800009 0
M  V30 23749 C 2168.31 1.26354 1.37446 0
M  V30 23750 C 2168.66 -0.101241 1.95939 0
M  V30 23751 O 2167.78 -1.00241 1.91783 0
M  V30 23752 C 2168.38 2.28793 2.49878 0
M  V30 23753 C 2166.94 2.23083 3.03168 0
M  V30 23754 C 2166.08 2.14145 1.76174 0
M  V30 23755 H 2169.03 1.46818 0.602508 0
M  V30 23756 H 2169.05 1.91822 3.2861 0
M  V30 23757 H 2168.57 3.28113 2.07277 0
M  V30 23758 H 2166.67 1.27195 3.50217 0
M  V30 23759 H 2166.78 3.15326 3.60703 0
M  V30 23760 H 2165.14 1.60228 1.97987 0
M  V30 23761 H 2165.93 3.15335 1.35715 0
M  V30 23762 N 2168.37 -1.02294 1.19891 0
M  V30 23763 C 2169.62 -1.75196 0.999463 0
M  V30 23764 C 2169.93 -1.89874 -0.469823 0
M  V30 23765 O 2171.14 -2.59806 -0.788235 0
M  V30 23766 C 2169.6 -3.15074 1.73944 0
M  V30 23767 C 2169.2 -3.0843 3.24923 0
M  V30 23768 C 2170.95 -3.9223 1.62345 0
M  V30 23769 C 2168.86 -4.43277 3.91484 0
M  V30 23770 H 2167.79 -0.656782 0.370342 0
M  V30 23771 H 2170.44 -1.14434 1.43447 0
M  V30 23772 H 2168.82 -3.76339 1.23227 0
M  V30 23773 H 2169.99 -2.5651 3.82804 0
M  V30 23774 H 2168.31 -2.44769 3.36864 0
M  V30 23775 H 2170.9 -4.91983 2.09419 0
M  V30 23776 H 2171.25 -4.1226 0.578579 0
M  V30 23777 H 2171.78 -3.37579 2.1044 0
M  V30 23778 H 2168.52 -4.28451 4.96095 0
M  V30 23779 H 2168.04 -4.95228 3.38392 0
M  V30 23780 H 2169.72 -5.12142 3.95373 0
M  V30 23781 N 2169.85 -1.00378 -1.21499 0
M  V30 23782 C 2170.8 -0.55626 -2.25851 0
M  V30 23783 C 2171.79 0.398571 -1.64644 0
M  V30 23784 O 2173 0.269898 -1.77965 0
M  V30 23785 H 2169.37 -0.161531 -0.734447 0
M  V30 23786 H 2171.34 -1.44757 -2.60937 0
M  V30 23787 C 2170.09 0.102595 -3.47549 0
M  V30 23788 H 2169.42 -0.623093 -3.94915 0
M  V30 23789 H 2170.86 0.37902 -4.22303 0
M  V30 23790 C 2169.32 1.3414 -3.09044 0
M  V30 23791 O 2169.85 2.43586 -3.19419 0
M  V30 23792 N 2168.05 1.22069 -2.63718 0
M  V30 23793 H 2167.6 0.330134 -2.55476 0
M  V30 23794 H 2167.56 2.05058 -2.38324 0
M  V30 23795 N 2171.33 1.37038 -0.778354 0
M  V30 23796 C 2172.74 1.52865 -0.458743 0
M  V30 23797 C 2172.94 1.73503 1.02465 0
M  V30 23798 O 2172 1.76017 1.81036 0
M  V30 23799 C 2173.31 2.72117 -1.27956 0
M  V30 23800 C 2174.86 2.85982 -1.27213 0
M  V30 23801 C 2175.34 4.08225 -2.07645 0
M  V30 23802 N 2176.83 4.1535 -2.05033 0
M  V30 23803 C 2177.56 5.08988 -2.64044 0
M  V30 23804 N 2177.06 6.0814 -3.3187 0
M  V30 23805 N 2178.85 5.0152 -2.53838 0
M  V30 23806 H 2171 1.21895 -1.73941 0
M  V30 23807 H 2173.27 0.594067 -0.738775 0
M  V30 23808 H 2172.97 2.63353 -2.33105 0
M  V30 23809 H 2172.85 3.65977 -0.913259 0
M  V30 23810 H 2175.23 2.94213 -0.228607 0
M  V30 23811 H 2175.31 1.93061 -1.67812 0
M  V30 23812 H 2174.96 4.00755 -3.12022 0
M  V30 23813 H 2174.89 5.00272 -1.64423 0
M  V30 23814 H 2177.38 3.44352 -1.55659 0
M  V30 23815 H 2177.69 6.76131 -3.74255 0
M  V30 23816 H 2176.04 6.08399 -3.3597 0
M  V30 23817 H 2179.23 4.23005 -2.0046 0
M  V30 23818 H 2179.4 5.7431 -3.00121 0
M  V30 23819 N 2172.81 0.529439 1.48441 0
M  V30 23820 C 2174.22 0.18726 1.58498 0
M  V30 23821 C 2174.42 -1.30947 1.53151 0
M  V30 23822 O 2173.48 -2.08768 1.42029 0
M  V30 23823 C 2174.79 0.789307 2.90156 0
M  V30 23824 C 2176.34 0.757992 3.03683 0
M  V30 23825 C 2176.82 1.33861 4.38002 0
M  V30 23826 N 2178.31 1.30055 4.44567 0
M  V30 23827 C 2179.04 1.7197 5.47004 0
M  V30 23828 N 2178.54 2.21612 6.56399 0
M  V30 23829 N 2180.33 1.63211 5.37884 0
M  V30 23830 H 2172.48 1.5022 1.50159 0
M  V30 23831 H 2174.74 0.624813 0.712961 0
M  V30 23832 H 2174.45 1.84009 2.99722 0
M  V30 23833 H 2174.32 0.266088 3.7626 0
M  V30 23834 H 2176.71 -0.284031 2.9373 0
M  V30 23835 H 2176.79 1.31867 2.19191 0
M  V30 23836 H 2176.44 2.37955 4.48709 0
M  V30 23837 H 2176.37 0.75361 5.2118 0
M  V30 23838 H 2178.86 0.937142 3.66096 0
M  V30 23839 H 2179.17 2.51591 7.30699 0
M  V30 23840 H 2177.52 2.25605 6.57364 0
M  V30 23841 H 2180.71 1.24226 4.51315 0
M  V30 23842 H 2180.88 1.96197 6.17584 0
M  V30 23843 N 2174.29 -1.55364 0.264547 0
M  V30 23844 C 2175.53 -1.99655 -0.355771 0
M  V30 23845 C 2175.86 -1.15266 -1.56293 0
M  V30 23846 O 2175.14 -0.220196 -1.9325 0
M  V30 23847 C 2175.42 -3.52238 -0.748347 0
M  V30 23848 C 2175.28 -4.47386 0.465419 0
M  V30 23849 C 2176.59 -4.10422 -1.58877 0
M  V30 23850 H 2173.71 -0.725828 -0.12784 0
M  V30 23851 H 2176.36 -1.86375 0.369383 0
M  V30 23852 H 2174.51 -3.63686 -1.36619 0
M  V30 23853 H 2176.18 -4.47896 1.10395 0
M  V30 23854 H 2174.42 -4.1948 1.10539 0
M  V30 23855 H 2175.09 -5.51804 0.147135 0
M  V30 23856 H 2177.57 -4.02185 -1.06707 0
M  V30 23857 H 2176.44 -5.17415 -1.83228 0
M  V30 23858 H 2176.7 -3.59985 -2.56639 0
M  V30 23859 N 2175.76 0.00833021 -1.57598 0
M  V30 23860 C 2176.99 0.709778 -1.94877 0
M  V30 23861 C 2177.41 1.66973 -0.866121 0
M  V30 23862 O 2176.77 1.80439 0.176468 0
M  V30 23863 C 2176.82 1.42509 -3.31245 0
M  V30 23864 O 2175.92 2.53918 -3.2496 0
M  V30 23865 H 2175.26 0.189418 -0.636409 0
M  V30 23866 H 2177.79 -0.0423784 -2.04556 0
M  V30 23867 H 2177.8 1.79039 -3.66618 0
M  V30 23868 H 2176.48 0.72119 -4.09599 0
M  V30 23869 H 2175.06 2.19778 -3.01251 0
M  V30 23870 N 2177.24 1.55075 0.280956 0
M  V30 23871 C 2178.47 1.79652 1.03634 0
M  V30 23872 C 2178.89 0.564074 1.79443 0
M  V30 23873 O 2178.25 -0.486088 1.74662 0
M  V30 23874 C 2178.3 3.01583 1.97687 0
M  V30 23875 O 2177.4 2.76111 3.06327 0
M  V30 23876 H 2176.74 0.594024 0.296701 0
M  V30 23877 H 2179.27 2.02203 0.312282 0
M  V30 23878 H 2179.28 3.301 2.39787 0
M  V30 23879 H 2177.96 3.90937 1.41919 0
M  V30 23880 H 2176.53 2.58668 2.68598 0
M  V30 23881 N 2178.72 -0.545102 1.47873 0
M  V30 23882 C 2179.65 -1.66665 1.57339 0
M  V30 23883 C 2180.66 -1.56204 0.458698 0
M  V30 23884 O 2181.85 -1.62941 0.728868 0
M  V30 23885 C 2178.95 -3.05217 1.47295 0
M  V30 23886 C 2178.13 -3.41311 2.73543 0
M  V30 23887 C 2177.19 -4.59078 2.57165 0
M  V30 23888 O 2176.21 -4.63053 3.31014 0
M  V30 23889 N 2177.41 -5.56323 1.65786 0
M  V30 23890 H 2180.18 -1.58986 2.54054 0
M  V30 23891 H 2177.74 -0.732029 1.44405 0
M  V30 23892 H 2179.73 -3.81853 1.34055 0
M  V30 23893 H 2178.3 -3.07056 0.586146 0
M  V30 23894 H 2177.52 -2.54003 3.01457 0
M  V30 23895 H 2178.81 -3.62205 3.5733 0
M  V30 23896 H 2178.21 -5.55877 1.04961 0
M  V30 23897 H 2176.76 -6.32237 1.58492 0
M  V30 23898 N 2180.2 -1.36208 -0.792797 0
M  V30 23899 C 2181.13 -1.2612 -1.9138 0
M  V30 23900 C 2182.14 -0.181437 -1.61786 0
M  V30 23901 O 2183.33 -0.435871 -1.73097 0
M  V30 23902 C 2180.43 -0.922489 -3.26103 0
M  V30 23903 C 2179.6 -2.10345 -3.83502 0
M  V30 23904 C 2178.66 -1.73833 -4.96657 0
M  V30 23905 O 2177.69 -2.45879 -5.13354 0
M  V30 23906 N 2178.89 -0.670023 -5.7662 0
M  V30 23907 H 2181.66 -2.22705 -2.00556 0
M  V30 23908 H 2179.22 -1.29557 -0.970902 0
M  V30 23909 H 2181.21 -0.659458 -3.99291 0
M  V30 23910 H 2179.78 -0.0458868 -3.12566 0
M  V30 23911 H 2179 -2.52948 -3.02342 0
M  V30 23912 H 2180.29 -2.89252 -4.18582 0
M  V30 23913 H 2179.69 -0.0717267 -5.65655 0
M  V30 23914 H 2178.24 -0.466808 -6.50126 0
M  V30 23915 N 2181.68 1.01656 -1.20431 0
M  V30 23916 C 2182.92 1.76797 -1.02578 0
M  V30 23917 C 2183.28 1.8702 0.434471 0
M  V30 23918 O 2184.48 2.58607 0.733188 0
M  V30 23919 C 2182.75 3.14884 -1.69064 0
M  V30 23920 S 2184.31 4.06061 -1.66314 0
M  V30 23921 H 2181.13 0.608461 -0.367826 0
M  V30 23922 H 2183.73 1.21718 -1.52987 0
M  V30 23923 H 2182.43 3.0507 -2.74519 0
M  V30 23924 H 2181.97 3.75038 -1.18787 0
M  V30 23925 H 2183.98 4.91294 -0.696029 0
M  V30 23926 N 2183.15 1.01021 1.20965 0
M  V30 23927 C 2184.08 0.5953 2.25784 0
M  V30 23928 C 2185.06 -0.386477 1.65651 0
M  V30 23929 O 2186.25 -0.273315 1.92267 0
M  V30 23930 C 2183.38 -0.0736489 3.47222 0
M  V30 23931 C 2182.33 0.828449 4.19906 0
M  V30 23932 C 2181.66 0.0256242 5.34694 0
M  V30 23933 C 2182.96 2.13351 4.76737 0
M  V30 23934 H 2184.65 1.4715 2.60744 0
M  V30 23935 H 2182.2 0.70899 1.25337 0
M  V30 23936 H 2184.15 -0.375423 4.19724 0
M  V30 23937 H 2182.88 -0.984519 3.11408 0
M  V30 23938 H 2181.54 1.11413 3.4926 0
M  V30 23939 H 2181.18 -0.886697 4.95123 0
M  V30 23940 H 2180.88 0.626319 5.84253 0
M  V30 23941 H 2182.41 -0.269844 6.10003 0
M  V30 23942 H 2183.82 1.89453 5.41092 0
M  V30 23943 H 2182.22 2.68451 5.36707 0
M  V30 23944 H 2183.29 2.80081 3.95832 0
M  V30 23945 N 2184.63 -1.36623 0.78561 0
M  V30 23946 C 2185.86 -2.04129 0.366917 0
M  V30 23947 C 2186.28 -1.58852 -1.00736 0
M  V30 23948 O 2185.64 -0.755202 -1.64822 0
M  V30 23949 C 2185.69 -3.5797 0.43472 0
M  V30 23950 O 2184.79 -4.08584 -0.559755 0
M  V30 23951 H 2184.13 -0.645306 0.156447 0
M  V30 23952 H 2186.66 -1.74656 1.06566 0
M  V30 23953 H 2186.67 -4.06918 0.296959 0
M  V30 23954 H 2185.35 -3.90277 1.43724 0
M  V30 23955 H 2183.92 -3.70918 -0.38397 0
M  V30 23956 N 2186.11 -0.537304 -1.48158 0
M  V30 23957 C 2187.36 -0.00587084 -2.02099 0
M  V30 23958 C 2187.68 1.3407 -1.41599 0
M  V30 23959 O 2186.95 1.86993 -0.583977 0
M  V30 23960 H 2185.53 0.000818022 -0.747 0
M  V30 23961 H 2188.19 -0.702798 -1.81788 0
M  V30 23962 H 2187.29 0.0970321 -3.11949 0
M  V30 23963 N 2187.59 1.55221 -0.272782 0
M  V30 23964 C 2188.83 1.99841 0.345178 0
M  V30 23965 C 2189.17 1.16093 1.55679 0
M  V30 23966 O 2188.44 0.230441 1.9313 0
M  V30 23967 C 2188.73 3.5263 0.729656 0
M  V30 23968 C 2188.58 4.47133 -0.489138 0
M  V30 23969 C 2189.9 4.11259 1.56698 0
M  V30 23970 H 2187.02 0.726495 0.123989 0
M  V30 23971 H 2189.66 1.86176 -0.379262 0
M  V30 23972 H 2187.81 3.64405 1.34689 0
M  V30 23973 H 2189.48 4.47304 -1.12769 0
M  V30 23974 H 2187.72 4.18888 -1.12762 0
M  V30 23975 H 2188.39 5.51718 -0.176396 0
M  V30 23976 H 2190.87 4.02745 1.04572 0
M  V30 23977 H 2189.75 5.1838 1.80481 0
M  V30 23978 H 2190.01 3.61341 2.54726 0
M  V30 23979 N 2189.07 2.77022e-05 1.576 0
M  V30 23980 C 2190.31 -0.689316 1.92426 0
M  V30 23981 C 2190.67 -1.70936 0.874355 0
M  V30 23982 O 2191.87 -2.44908 1.10786 0
M  V30 23983 C 2190.14 -1.31565 3.32303 0
M  V30 23984 S 2191.7 -2.03011 3.89014 0
M  V30 23985 H 2188.52 -0.22769 0.673556 0
M  V30 23986 H 2191.12 0.0567214 1.95418 0
M  V30 23987 H 2189.83 -0.560419 4.06556 0
M  V30 23988 H 2189.36 -2.09962 3.32685 0
M  V30 23989 H 2191.37 -3.30524 3.70092 0
M  V30 23990 N 2190.54 -1.55222 -0.272728 0
M  V30 23991 C 2191.49 -1.88121 -1.33713 0
M  V30 23992 C 2192.46 -0.732736 -1.49064 0
M  V30 23993 O 2193.65 -0.98403 -1.63467 0
M  V30 23994 C 2190.79 -2.15886 -2.69234 0
M  V30 23995 C 2189.9 -3.43404 -2.62102 0
M  V30 23996 C 2189.03 -3.60868 -3.89804 0
M  V30 23997 C 2188.07 -4.82077 -3.77184 0
M  V30 23998 N 2187.21 -4.96198 -4.96722 0
M  V30 23999 H 2192.05 -2.78905 -1.04957 0
M  V30 24000 H 2189.59 -1.38084 -0.507063 0
M  V30 24001 H 2191.55 -2.29984 -3.48085 0
M  V30 24002 H 2190.18 -1.28337 -2.96192 0
M  V30 24003 H 2189.23 -3.37776 -1.74961 0
M  V30 24004 H 2190.54 -4.3239 -2.48677 0
M  V30 24005 H 2189.69 -3.74785 -4.77096 0
M  V30 24006 H 2188.43 -2.70068 -4.06097 0
M  V30 24007 H 2187.44 -4.68164 -2.88276 0
M  V30 24008 H 2188.66 -5.74313 -3.62411 0
M  V30 24009 H 2186.61 -4.08328 -5.13424 0
M  V30 24010 H 2186.53 -5.7923 -4.85828 0
M  V30 24011 H 2187.79 -5.145 -5.85585 0
M  V30 24012 N 2192.02 0.537252 -1.4816 0
M  V30 24013 C 2193.27 1.29091 -1.55499 0
M  V30 24014 C 2193.59 1.93669 -0.227488 0
M  V30 24015 O 2192.86 1.8096 0.750354 0
M  V30 24016 H 2191.44 0.47944 -0.572841 0
M  V30 24017 H 2194.1 0.625785 -1.8458 0
M  V30 24018 H 2193.2 2.07401 -2.33219 0
M  V30 24019 N 2193.5 1.36626 0.785562 0
M  V30 24020 C 2194.41 1.33428 1.92961 0
M  V30 24021 C 2195.43 0.235882 1.72394 0
M  V30 24022 O 2196.6 0.468912 1.95865 0
M  V30 24023 C 2193.67 1.12668 3.27882 0
M  V30 24024 C 2192.73 2.32019 3.612 0
M  V30 24025 C 2191.96 2.1224 4.89684 0
M  V30 24026 O 2192.18 1.09955 5.59702 0
M  V30 24027 O 2191.12 3.00107 5.21746 0
M  V30 24028 H 2194.94 2.29757 1.98609 0
M  V30 24029 H 2192.53 1.17213 0.926363 0
M  V30 24030 H 2194.41 1.03024 4.08612 0
M  V30 24031 H 2193.09 0.194048 3.23118 0
M  V30 24032 H 2191.99 2.47233 2.80761 0
M  V30 24033 H 2193.33 3.23802 3.70693 0
M  V30 24034 N 2194.98 -1.01016 1.20969 0
M  V30 24035 C 2195.89 -2.13142 0.980194 0
M  V30 24036 C 2196.9 -1.73875 -0.0660359 0
M  V30 24037 O 2198.08 -2.01025 0.122857 0
M  V30 24038 C 2195.15 -3.42434 0.54222 0
M  V30 24039 C 2194.21 -3.95905 1.66006 0
M  V30 24040 C 2193.44 -5.19026 1.24289 0
M  V30 24041 O 2193.66 -5.70285 0.114296 0
M  V30 24042 O 2192.6 -5.65812 2.05281 0
M  V30 24043 H 2196.42 -2.35376 1.91917 0
M  V30 24044 H 2194.01 -1.11524 0.994118 0
M  V30 24045 H 2195.89 -4.20276 0.307514 0
M  V30 24046 H 2194.56 -3.216 -0.368093 0
M  V30 24047 H 2193.47 -3.19312 1.94912 0
M  V30 24048 H 2194.8 -4.21139 2.54761 0
M  V30 24049 N 2196.46 -1.01661 -1.20428 0
M  V30 24050 C 2197.87 -0.737512 -1.71516 0
M  V30 24051 C 2198.22 0.743941 -1.81549 0
M  V30 24052 O 2197.34 1.58058 -1.47806 0
M  V30 24053 C 2197.94 -1.33212 -3.11513 0
M  V30 24054 C 2196.5 -1.10189 -3.5991 0
M  V30 24055 C 2195.64 -1.4378 -2.37113 0
M  V30 24056 H 2198.6 -1.18608 -1.05441 0
M  V30 24057 H 2198.62 -0.722701 -3.73574 0
M  V30 24058 H 2198.13 -2.41034 -3.04178 0
M  V30 24059 H 2196.23 -0.0413411 -3.72577 0
M  V30 24060 H 2196.34 -1.78195 -4.44728 0
M  V30 24061 H 2194.71 -0.856821 -2.39856 0
M  V30 24062 H 2195.49 -2.52658 -2.3242 0
M  V30 24063 N 2197.93 1.36205 -0.792844 0
M  V30 24064 C 2198.88 2.30003 -0.191693 0
M  V30 24065 C 2199.85 1.52145 0.666426 0
M  V30 24066 O 2201.04 1.80638 0.614388 0
M  V30 24067 C 2198.18 3.38636 0.664788 0
M  V30 24068 C 2197.29 4.31478 -0.212251 0
M  V30 24069 C 2196.42 5.27197 0.650929 0
M  V30 24070 C 2195.46 6.11678 -0.227354 0
M  V30 24071 N 2194.6 6.99574 0.595004 0
M  V30 24072 H 2199.44 2.80826 -0.997027 0
M  V30 24073 H 2196.98 1.38224 -0.503231 0
M  V30 24074 H 2198.94 4.00271 1.17638 0
M  V30 24075 H 2197.57 2.89124 1.43552 0
M  V30 24076 H 2196.62 3.70968 -0.841842 0
M  V30 24077 H 2197.93 4.90817 -0.888837 0
M  V30 24078 H 2197.08 5.94138 1.2282 0
M  V30 24079 H 2195.82 4.68321 1.36113 0
M  V30 24080 H 2194.83 5.43696 -0.817 0
M  V30 24081 H 2196.05 6.7263 -0.935208 0
M  V30 24082 H 2194 6.43203 1.28943 0
M  V30 24083 H 2193.92 7.55996 -0.0238281 0
M  V30 24084 H 2195.18 7.70881 1.15599 0
M  V30 24085 N 2199.41 0.545154 1.47871 0
M  V30 24086 C 2200.66 0.0145388 2.01695 0
M  V30 24087 C 2200.97 -1.3387 1.42612 0
M  V30 24088 O 2202.18 -1.95854 1.88025 0
M  V30 24089 C 2200.64 -0.0244435 3.59892 0
M  V30 24090 C 2200.24 1.32482 4.27963 0
M  V30 24091 C 2201.99 -0.503086 4.21508 0
M  V30 24092 C 2199.9 1.2456 5.78134 0
M  V30 24093 H 2198.83 0.00166498 0.753998 0
M  V30 24094 H 2201.48 0.691205 1.69984 0
M  V30 24095 H 2199.86 -0.766507 3.88511 0
M  V30 24096 H 2201.03 2.08365 4.11 0
M  V30 24097 H 2199.35 1.74042 3.78283 0
M  V30 24098 H 2201.94 -0.580563 5.31539 0
M  V30 24099 H 2202.29 -1.51236 3.87858 0
M  V30 24100 H 2202.82 0.183751 3.97375 0
M  V30 24101 H 2199.56 2.2305 6.16384 0
M  V30 24102 H 2199.08 0.528387 5.97468 0
M  V30 24103 H 2200.76 0.9426 6.40097 0
M  V30 24104 N 2200.89 -1.55074 0.28101 0
M  V30 24105 C 2201.82 -2.25728 -0.597429 0
M  V30 24106 C 2202.8 -1.24954 -1.15415 0
M  V30 24107 O 2203.99 -1.53686 -1.1872 0
M  V30 24108 C 2201.12 -2.98286 -1.77884 0
M  V30 24109 C 2200.07 -4.06038 -1.35339 0
M  V30 24110 C 2199.4 -4.66203 -2.61838 0
M  V30 24111 C 2200.7 -5.19908 -0.499263 0
M  V30 24112 H 2202.39 -2.99399 -0.00819002 0
M  V30 24113 H 2199.94 -1.44 -0.00249909 0
M  V30 24114 H 2201.89 -3.46426 -2.39931 0
M  V30 24115 H 2200.61 -2.22159 -2.39401 0
M  V30 24116 H 2199.27 -3.58718 -0.756093 0
M  V30 24117 H 2198.92 -3.86738 -3.21625 0
M  V30 24118 H 2198.62 -5.38962 -2.3408 0
M  V30 24119 H 2200.14 -5.17095 -3.24723 0
M  V30 24120 H 2201.56 -5.64065 -1.02488 0
M  V30 24121 H 2199.96 -5.99266 -0.316319 0
M  V30 24122 H 2201.03 -4.82513 0.480544 0
M  V30 24123 N 2202.37 -0.00838561 -1.57598 0
M  V30 24124 C 2203.79 0.347795 -1.55764 0
M  V30 24125 C 2203.99 1.7425 -1.01189 0
M  V30 24126 O 2203.04 2.44006 -0.649414 0
M  V30 24127 C 2204.35 0.215355 -2.99928 0
M  V30 24128 C 2205.9 0.289671 -3.11657 0
M  V30 24129 C 2206.38 0.186259 -4.57621 0
M  V30 24130 N 2207.87 0.243897 -4.62557 0
M  V30 24131 C 2208.6 0.187349 -5.73094 0
M  V30 24132 N 2208.1 0.0809113 -6.92753 0
M  V30 24133 N 2209.89 0.239827 -5.61588 0
M  V30 24134 H 2202.04 -0.920654 -1.9141 0
M  V30 24135 H 2204.31 -0.353675 -0.879556 0
M  V30 24136 H 2204.01 -0.744572 -3.43728 0
M  V30 24137 H 2203.89 0.994033 -3.63866 0
M  V30 24138 H 2206.27 1.24005 -2.67781 0
M  V30 24139 H 2206.35 -0.519024 -2.50479 0
M  V30 24140 H 2206 -0.760608 -5.02172 0
M  V30 24141 H 2205.93 1.01355 -5.16754 0
M  V30 24142 H 2208.42 0.327151 -3.76481 0
M  V30 24143 H 2208.73 0.0438883 -7.72788 0
M  V30 24144 H 2207.08 0.0464198 -6.94984 0
M  V30 24145 H 2210.27 0.321234 -4.66996 0
M  V30 24146 H 2210.44 0.192293 -6.47715 0
M  V30 24147 N 2203.85 1.55365 0.264492 0
M  V30 24148 C 2205.26 1.66992 0.834906 0
M  V30 24149 C 2205.61 0.602585 1.86717 0
M  V30 24150 O 2204.73 -0.254387 2.149 0
M  V30 24151 C 2205.33 3.02732 1.52114 0
M  V30 24152 C 2203.89 3.16358 2.03948 0
M  V30 24153 C 2203.04 2.62817 0.884452 0
M  V30 24154 H 2205.99 1.58648 0.040659 0
M  V30 24155 H 2206.01 2.96196 2.38848 0
M  V30 24156 H 2205.52 3.80393 0.769601 0
M  V30 24157 H 2203.62 2.43487 2.82037 0
M  V30 24158 H 2203.73 4.23036 2.24894 0
M  V30 24159 H 2202.1 2.20191 1.28016 0
M  V30 24160 H 2202.88 3.42988 0.14628 0
M  V30 24161 N 2205.33 -0.529387 1.48443 0
M  V30 24162 C 2206.74 -1.11132 1.50022 0
M  V30 24163 C 2207.09 -1.94329 0.270344 0
M  V30 24164 O 2206.21 -2.07254 -0.62247 0
M  V30 24165 C 2206.81 -2.02212 2.71838 0
M  V30 24166 C 2205.37 -2.55622 2.76287 0
M  V30 24167 C 2204.51 -1.32596 2.43544 0
M  V30 24168 H 2207.46 -0.314614 1.5555 0
M  V30 24169 H 2207.49 -2.86506 2.50389 0
M  V30 24170 H 2207 -1.41633 3.61333 0
M  V30 24171 H 2205.1 -3.19921 1.91001 0
M  V30 24172 H 2205.21 -2.94715 3.7773 0
M  V30 24173 H 2203.58 -1.64193 1.94712 0
M  V30 24174 H 2204.36 -0.737675 3.35281 0
M  V30 24175 N 2206.8 -1.37041 -0.778305 0
M  V30 24176 C 2208.22 -1.17697 -1.07794 0
M  V30 24177 C 2208.42 -0.00863657 -2.01498 0
M  V30 24178 O 2207.48 0.653309 -2.43902 0
M  V30 24179 C 2208.79 -2.49275 -1.68174 0
M  V30 24180 C 2210.34 -2.55739 -1.80463 0
M  V30 24181 C 2210.81 -3.87431 -2.44257 0
M  V30 24182 N 2212.3 -3.88837 -2.51714 0
M  V30 24183 C 2213.04 -4.87481 -3.01911 0
M  V30 24184 N 2212.53 -5.9652 -3.5233 0
M  V30 24185 N 2214.33 -4.74891 -3.00725 0
M  V30 24186 H 2206.48 -2.11826 -0.155995 0
M  V30 24187 H 2208.74 -0.938789 -0.131827 0
M  V30 24188 H 2208.45 -3.35095 -1.0679 0
M  V30 24189 H 2208.32 -2.65889 -2.67549 0
M  V30 24190 H 2210.71 -1.70329 -2.40981 0
M  V30 24191 H 2210.79 -2.43014 -0.798613 0
M  V30 24192 H 2210.43 -4.73251 -1.84379 0
M  V30 24193 H 2210.36 -3.97456 -3.45451 0
M  V30 24194 H 2212.85 -3.10067 -2.16025 0
M  V30 24195 H 2213.17 -6.67748 -3.89015 0
M  V30 24196 H 2211.51 -6.00174 -3.50452 0
M  V30 24197 H 2214.7 -3.8883 -2.60631 0
M  V30 24198 H 2214.88 -5.51924 -3.39535 0
M  V30 24199 N 2208.28 1.00373 -1.21503 0
M  V30 24200 C 2209.7 1.26537 -0.972652 0
M  V30 24201 C 2209.9 1.98607 0.340222 0
M  V30 24202 O 2208.95 2.28915 1.06557 0
M  V30 24203 C 2210.27 2.08778 -2.16408 0
M  V30 24204 C 2211.81 2.22 -2.20647 0
M  V30 24205 C 2212.29 3.07623 -3.39312 0
M  V30 24206 N 2213.78 3.15211 -3.39406 0
M  V30 24207 C 2214.52 3.81722 -4.27874 0
M  V30 24208 N 2214.01 4.50251 -5.26541 0
M  V30 24209 N 2215.8 3.78375 -4.15679 0
M  V30 24210 H 2207.96 0.520244 -2.0593 0
M  V30 24211 H 2210.22 0.292312 -0.901808 0
M  V30 24212 H 2209.92 1.63173 -3.11557 0
M  V30 24213 H 2209.8 3.09529 -2.15573 0
M  V30 24214 H 2212.19 2.66823 -1.26053 0
M  V30 24215 H 2212.27 1.20714 -2.25525 0
M  V30 24216 H 2211.91 2.63502 -4.342 0
M  V30 24217 H 2211.84 4.09025 -3.31672 0
M  V30 24218 H 2214.33 2.66428 -2.68001 0
M  V30 24219 H 2214.64 4.9871 -5.90346 0
M  V30 24220 H 2212.99 4.49034 -5.30465 0
M  V30 24221 H 2216.18 3.23992 -3.37856 0
M  V30 24222 H 2216.35 4.29932 -4.84833 0
M  V30 24223 N 2209.76 1.02298 1.19887 0
M  V30 24224 C 2211.17 0.746598 1.71122 0
M  V30 24225 C 2211.52 -0.734303 1.81941 0
M  V30 24226 O 2210.65 -1.57272 1.48642 0
M  V30 24227 C 2211.24 1.34862 3.10802 0
M  V30 24228 C 2209.8 1.12096 3.59321 0
M  V30 24229 C 2208.95 1.45035 2.36347 0
M  V30 24230 H 2211.9 1.19165 1.04811 0
M  V30 24231 H 2211.92 0.742503 3.73185 0
M  V30 24232 H 2211.43 2.42643 3.02896 0
M  V30 24233 H 2209.53 0.0610992 3.7255 0
M  V30 24234 H 2209.65 1.80551 4.43777 0
M  V30 24235 H 2208.01 0.869529 2.39398 0
M  V30 24236 H 2208.79 2.53887 2.31076 0
M  V30 24237 N 2211.24 -1.35782 0.800057 0
M  V30 24238 C 2212.65 -1.52116 0.483004 0
M  V30 24239 C 2212.85 -1.75111 -0.996917 0
M  V30 24240 O 2211.91 -1.78875 -1.78213 0
M  V30 24241 C 2213.22 -2.70047 1.32269 0
M  V30 24242 C 2214.77 -2.83922 1.31747 0
M  V30 24243 C 2215.25 -4.0487 2.14113 0
M  V30 24244 N 2216.74 -4.12036 2.11615 0
M  V30 24245 C 2217.47 -5.04722 2.72108 0
M  V30 24246 N 2216.97 -6.02783 3.41503 0
M  V30 24247 N 2218.76 -4.97419 2.61785 0
M  V30 24248 H 2210.91 -1.19112 1.75858 0
M  V30 24249 H 2213.17 -0.582239 0.748132 0
M  V30 24250 H 2212.88 -2.59611 2.37265 0
M  V30 24251 H 2212.75 -3.64478 0.971367 0
M  V30 24252 H 2215.14 -2.93812 0.275385 0
M  V30 24253 H 2215.22 -1.90367 1.70862 0
M  V30 24254 H 2214.87 -3.95741 3.18358 0
M  V30 24255 H 2214.8 -4.97593 1.72361 0
M  V30 24256 H 2217.29 -3.41832 1.61118 0
M  V30 24257 H 2217.6 -6.70091 3.84964 0
M  V30 24258 H 2215.95 -6.02977 3.45606 0
M  V30 24259 H 2219.14 -4.19763 2.07164 0
M  V30 24260 H 2219.31 -5.69462 3.0922 0
M  V30 24261 N 2212.72 -0.552988 -1.4758 0
M  V30 24262 C 2213.66 0.197067 -2.29957 0
M  V30 24263 C 2214.63 0.912335 -1.38801 0
M  V30 24264 O 2215.82 0.908859 -1.67763 0
M  V30 24265 C 2212.96 1.22373 -3.22674 0
M  V30 24266 C 2212.07 0.514963 -4.2892 0
M  V30 24267 C 2211.21 1.52655 -5.08792 0
M  V30 24268 C 2210.24 0.802524 -6.06816 0
M  V30 24269 N 2209.38 1.76074 -6.79663 0
M  V30 24270 H 2214.22 -0.511538 -2.93577 0
M  V30 24271 H 2211.76 -0.264093 -1.4471 0
M  V30 24272 H 2213.72 1.83152 -3.74848 0
M  V30 24273 H 2212.35 1.90042 -2.60929 0
M  V30 24274 H 2211.4 -0.207259 -3.79835 0
M  V30 24275 H 2212.71 -0.0524302 -4.98772 0
M  V30 24276 H 2211.86 2.20799 -5.65095 0
M  V30 24277 H 2210.6 2.12786 -4.38832 0
M  V30 24278 H 2209.61 0.107141 -5.49696 0
M  V30 24279 H 2210.83 0.207016 -6.78784 0
M  V30 24280 H 2208.78 2.35071 -6.12436 0
M  V30 24281 H 2208.7 1.24539 -7.45672 0
M  V30 24282 H 2209.96 2.43346 -7.40542 0
M  V30 24283 N 2214.19 1.54923 -0.28923 0
M  V30 24284 C 2215.6 1.85563 0.205758 0
M  V30 24285 C 2215.96 1.21123 1.54349 0
M  V30 24286 O 2215.08 0.504638 2.10434 0
M  V30 24287 C 2215.68 3.36661 0.380118 0
M  V30 24288 C 2214.23 3.67374 0.819331 0
M  V30 24289 C 2213.38 2.77187 -0.0792077 0
M  V30 24290 H 2216.33 1.50262 -0.510603 0
M  V30 24291 H 2216.35 3.60529 1.21653 0
M  V30 24292 H 2215.87 3.83533 -0.593657 0
M  V30 24293 H 2213.97 3.26012 1.80408 0
M  V30 24294 H 2214.08 4.74713 0.646874 0
M  V30 24295 H 2212.44 2.50879 0.439521 0
M  V30 24296 H 2213.23 3.26877 -1.04912 0
M  V30 24297 N 2215.67 0.0167433 1.57591 0
M  V30 24298 C 2216.62 -0.969215 2.09463 0
M  V30 24299 C 2217.59 -1.33087 0.993833 0
M  V30 24300 O 2218.77 -1.42634 1.26729 0
M  V30 24301 C 2215.91 -2.25046 2.61626 0
M  V30 24302 C 2215.03 -1.94636 3.8567 0
M  V30 24303 C 2214.16 -3.16964 4.26271 0
M  V30 24304 C 2213.2 -2.82316 5.43106 0
M  V30 24305 N 2212.34 -3.97232 5.78922 0
M  V30 24306 H 2217.18 -0.519945 2.93429 0
M  V30 24307 H 2214.71 -0.245062 1.45044 0
M  V30 24308 H 2216.67 -2.99971 2.89954 0
M  V30 24309 H 2215.3 -2.67612 1.8051 0
M  V30 24310 H 2214.35 -1.10006 3.64147 0
M  V30 24311 H 2215.67 -1.65109 4.70681 0
M  V30 24312 H 2214.82 -4.0022 4.5597 0
M  V30 24313 H 2213.56 -3.49642 3.40002 0
M  V30 24314 H 2212.56 -1.9747 5.13114 0
M  V30 24315 H 2213.79 -2.50868 6.31064 0
M  V30 24316 H 2211.74 -4.29776 4.95609 0
M  V30 24317 H 2211.65 -3.71287 6.58545 0
M  V30 24318 H 2212.92 -4.81228 6.13221 0
M  V30 24319 N 2217.15 -1.55503 -0.256249 0
M  V30 24320 C 2218.38 -1.80941 -1.00339 0
M  V30 24321 C 2218.79 -0.591171 -1.79306 0
M  V30 24322 O 2218.15 0.44005 -1.77115 0
M  V30 24323 C 2218.2 -3.0448 -1.9487 0
M  V30 24324 O 2217.92 -4.216 -1.19099 0
M  V30 24325 C 2219.42 -3.42648 -2.81259 0
M  V30 24326 H 2216.64 -0.602344 -0.295674 0
M  V30 24327 H 2219.19 -2.02547 -0.281962 0
M  V30 24328 H 2217.34 -2.84952 -2.62452 0
M  V30 24329 H 2217.76 -4.91555 -1.8296 0
M  V30 24330 H 2219.23 -4.32217 -3.43355 0
M  V30 24331 H 2219.71 -2.62808 -3.51893 0
M  V30 24332 H 2220.31 -3.64495 -2.19143 0
M  V30 24333 N 2218.63 0.521507 -1.48721 0
M  V30 24334 C 2219.56 1.63428 -1.66774 0
M  V30 24335 C 2220.54 1.62068 -0.516528 0
M  V30 24336 O 2221.72 1.79131 -0.750045 0
M  V30 24337 C 2218.85 3.0199 -1.71521 0
M  V30 24338 C 2217.81 3.18211 -2.86227 0
M  V30 24339 C 2217.13 4.57919 -2.76069 0
M  V30 24340 C 2218.43 3.00177 -4.27424 0
M  V30 24341 H 2220.13 1.48574 -2.59935 0
M  V30 24342 H 2217.67 0.713336 -1.2509 0
M  V30 24343 H 2219.63 3.79717 -1.82738 0
M  V30 24344 H 2218.35 3.17885 -0.749449 0
M  V30 24345 H 2217.01 2.42903 -2.74579 0
M  V30 24346 H 2216.66 4.70662 -1.77445 0
M  V30 24347 H 2216.36 4.69716 -3.53045 0
M  V30 24348 H 2217.88 5.37734 -2.89266 0
M  V30 24349 H 2219.3 3.67689 -4.39861 0
M  V30 24350 H 2217.69 3.23461 -5.05463 0
M  V30 24351 H 2218.76 1.96511 -4.43296 0
M  V30 24352 N 2220.11 1.37452 0.771027 0
M  V30 24353 C 2221.05 1.33361 1.90572 0
M  V30 24354 C 2222.05 0.22227 1.67935 0
M  V30 24355 O 2223.25 0.390335 1.75717 0
M  V30 24356 H 2219.63 0.415623 0.626707 0
M  V30 24357 H 2221.6 2.29148 1.91138 0
M  V30 24358 C 2220.35 1.15819 3.27843 0
M  V30 24359 H 2219.67 2.00589 3.45838 0
M  V30 24360 H 2221.11 1.17007 4.07536 0
M  V30 24361 C 2219.57 -0.136106 3.36625 0
M  V30 24362 O 2220.1 -1.11942 3.85787 0
M  V30 24363 N 2218.31 -0.187048 2.89997 0
M  V30 24364 H 2217.85 0.613797 2.50181 0
M  V30 24365 H 2217.81 -1.05266 2.96254 0
M  V30 24366 N 2221.58 -0.997276 1.22033 0
M  V30 24367 C 2222.53 -2.10776 0.983671 0
M  V30 24368 C 2223.53 -1.69248 -0.0717267 0
M  V30 24369 O 2224.73 -1.79821 0.0803357 0
M  V30 24370 H 2221.11 -0.689181 0.300889 0
M  V30 24371 H 2223.08 -2.27912 1.9261 0
M  V30 24372 C 2221.83 -3.42941 0.57332 0
M  V30 24373 H 2221.15 -3.75335 1.37708 0
M  V30 24374 H 2222.59 -4.21636 0.447105 0
M  V30 24375 C 2221.05 -3.2919 -0.716642 0
M  V30 24376 O 2221.58 -3.60592 -1.77021 0
M  V30 24377 N 2219.79 -2.82384 -0.686117 0
M  V30 24378 H 2219.33 -2.57028 0.171552 0
M  V30 24379 H 2219.29 -2.73565 -1.5495 0
M  V30 24380 N 2223.06 -1.02932 -1.19343 0
M  V30 24381 C 2224.47 -0.755663 -1.70724 0
M  V30 24382 C 2224.82 0.724644 -1.82328 0
M  V30 24383 O 2223.95 1.56482 -1.49474 0
M  V30 24384 C 2224.54 -1.36508 -3.10082 0
M  V30 24385 C 2223.1 -1.14 -3.58721 0
M  V30 24386 C 2222.25 -1.46287 -2.35575 0
M  V30 24387 H 2225.2 -1.19719 -1.04178 0
M  V30 24388 H 2225.22 -0.762283 -3.72786 0
M  V30 24389 H 2224.73 -2.44246 -3.01605 0
M  V30 24390 H 2222.84 -0.0808556 -3.72512 0
M  V30 24391 H 2222.95 -1.82902 -4.42813 0
M  V30 24392 H 2221.31 -0.882212 -2.38933 0
M  V30 24393 H 2222.1 -2.55109 -2.29727 0
M  V30 24394 N 2224.54 1.35356 -0.807246 0
M  V30 24395 C 2225.45 2.3357 -0.219635 0
M  V30 24396 C 2226.47 1.61893 0.637705 0
M  V30 24397 O 2227.64 1.93764 0.549302 0
M  V30 24398 C 2224.71 3.41084 0.62152 0
M  V30 24399 C 2223.77 4.28534 -0.25639 0
M  V30 24400 C 2223 5.30913 0.544713 0
M  V30 24401 O 2223.22 5.41937 1.77935 0
M  V30 24402 O 2222.16 6.01865 -0.0647536 0
M  V30 24403 H 2225.98 2.85624 -1.03213 0
M  V30 24404 H 2223.57 1.38138 -0.569049 0
M  V30 24405 H 2225.45 4.06774 1.1006 0
M  V30 24406 H 2224.13 2.913 1.4116 0
M  V30 24407 H 2223.03 3.65822 -0.782623 0
M  V30 24408 H 2224.37 4.81717 -1.01043 0
M  V30 24409 N 2226.02 0.560807 1.47284 0
M  V30 24410 C 2227.3 -0.0277455 1.9558 0
M  V30 24411 C 2227.68 -1.4819 1.50343 0
M  V30 24412 O 2227.02 -2.16051 0.74392 0
M  V30 24413 C 2227.23 0.121479 3.48789 0
M  V30 24414 C 2228.58 -0.0220166 4.24594 0
M  V30 24415 O 2229.61 0.0492065 3.56166 0
M  V30 24416 O 2228.46 -0.175862 5.46217 0
M  V30 24417 H 2225.56 -0.0621197 0.824664 0
M  V30 24418 H 2228.1 0.627584 1.57669 0
M  V30 24419 H 2226.88 1.13323 3.74531 0
M  V30 24420 H 2226.5 -0.571296 3.93474 0
M  V30 24421 N 2227.5 -1.54768 0.297442 0
M  V30 24422 C 2228.72 -2.04941 -0.318399 0
M  V30 24423 C 2229.15 -1.17347 -1.47007 0
M  V30 24424 O 2228.5 -0.17679 -1.80436 0
M  V30 24425 C 2228.55 -3.52593 -0.755687 0
M  V30 24426 O 2227.66 -3.68032 -1.86082 0
M  V30 24427 H 2227 -0.661061 -0.0624094 0
M  V30 24428 H 2229.53 -1.99851 0.43825 0
M  V30 24429 H 2229.54 -3.94378 -1.04545 0
M  V30 24430 H 2228.21 -4.15809 0.0867964 0
M  V30 24431 H 2226.79 -3.38152 -1.57188 0
M  V30 24432 N 2228.97 -0.0251005 -1.5758 0
M  V30 24433 C 2230.2 0.664712 -1.95932 0
M  V30 24434 C 2230.62 1.65893 -0.901382 0
M  V30 24435 O 2229.97 1.82123 0.117223 0
M  V30 24436 C 2230.03 1.37462 -3.34345 0
M  V30 24437 O 2229.75 0.420247 -4.3608 0
M  V30 24438 C 2231.25 2.15663 -3.87304 0
M  V30 24439 H 2228.47 0.183546 -0.645408 0
M  V30 24440 H 2231.01 -0.0836731 -2.04329 0
M  V30 24441 H 2229.17 2.07444 -3.27179 0
M  V30 24442 H 2229.58 0.9239 -5.16299 0
M  V30 24443 H 2231.05 2.60794 -4.86508 0
M  V30 24444 H 2231.53 2.99399 -3.21336 0
M  V30 24445 H 2232.14 1.50647 -3.97726 0
M  V30 24446 N 2230.45 1.55637 0.247999 0
M  V30 24447 C 2231.68 1.81208 0.992335 0
M  V30 24448 C 2232.09 0.598356 1.79489 0
M  V30 24449 O 2231.43 -0.442403 1.78293 0
M  V30 24450 C 2231.5 3.00113 1.97921 0
M  V30 24451 C 2231.16 4.36179 1.36369 0
M  V30 24452 C 2232.16 5.14215 0.76673 0
M  V30 24453 C 2229.84 4.82874 1.38339 0
M  V30 24454 C 2231.84 6.37093 0.197666 0
M  V30 24455 C 2229.52 6.05702 0.810468 0
M  V30 24456 C 2230.52 6.8265 0.218634 0
M  V30 24457 O 2230.21 8.03157 -0.34544 0
M  V30 24458 H 2229.94 0.606922 0.297693 0
M  V30 24459 H 2232.49 2.03531 0.276482 0
M  V30 24460 H 2230.72 2.73543 2.73334 0
M  V30 24461 H 2232.41 3.12786 2.58688 0
M  V30 24462 H 2233.18 4.79259 0.744029 0
M  V30 24463 H 2229.06 4.22973 1.83343 0
M  V30 24464 H 2232.6 6.97097 -0.264911 0
M  V30 24465 H 2228.5 6.40135 0.830492 0
M  V30 24466 H 2229.27 8.18156 -0.237198 0
M  V30 24467 N 2231.93 -0.513613 1.48996 0
M  V30 24468 C 2233.16 -1.29097 1.61299 0
M  V30 24469 C 2233.57 -1.87136 0.278689 0
M  V30 24470 O 2232.91 -1.67946 -0.744295 0
M  V30 24471 C 2232.97 -2.46874 2.6133 0
M  V30 24472 C 2232.64 -2.098 4.05996 0
M  V30 24473 C 2233.64 -1.6451 4.93186 0
M  V30 24474 C 2231.32 -2.19821 4.51646 0
M  V30 24475 C 2233.31 -1.29729 6.24059 0
M  V30 24476 C 2231 -1.84651 5.82535 0
M  V30 24477 C 2232 -1.39678 6.68565 0
M  V30 24478 O 2231.69 -1.04978 7.97016 0
M  V30 24479 H 2231.42 -0.39824 0.546243 0
M  V30 24480 H 2233.97 -0.624556 1.95674 0
M  V30 24481 H 2232.2 -3.16551 2.2211 0
M  V30 24482 H 2233.89 -3.08918 2.63295 0
M  V30 24483 H 2234.66 -1.56225 4.5915 0
M  V30 24484 H 2230.54 -2.53779 3.8486 0
M  V30 24485 H 2234.08 -0.945537 6.91162 0
M  V30 24486 H 2229.98 -1.92583 6.16102 0
M  V30 24487 H 2230.75 -1.18235 8.09915 0
M  V30 24488 N 2233.41 -1.37859 -0.763727 0
M  V30 24489 C 2234.64 -1.36523 -1.55065 0
M  V30 24490 C 2235.05 0.0493894 -1.89136 0
M  V30 24491 O 2234.39 1.02372 -1.52531 0
M  V30 24492 C 2234.45 -2.14661 -2.88376 0
M  V30 24493 C 2234.12 -3.6356 -2.76899 0
M  V30 24494 C 2235.11 -4.57272 -2.47382 0
M  V30 24495 C 2232.8 -4.06787 -2.94669 0
M  V30 24496 C 2234.79 -5.9219 -2.35776 0
M  V30 24497 C 2232.48 -5.41787 -2.82683 0
M  V30 24498 C 2233.48 -6.34302 -2.53278 0
M  V30 24499 O 2233.17 -7.66821 -2.41332 0
M  V30 24500 H 2232.9 -0.469077 -0.486768 0
M  V30 24501 H 2235.45 -1.81913 -0.953781 0
M  V30 24502 H 2233.68 -1.63973 -3.50214 0
M  V30 24503 H 2235.37 -2.05858 -3.49824 0
M  V30 24504 H 2236.14 -4.25184 -2.33331 0
M  V30 24505 H 2232.02 -3.35131 -3.16557 0
M  V30 24506 H 2235.56 -6.64368 -2.12745 0
M  V30 24507 H 2231.46 -5.73475 -2.96304 0
M  V30 24508 H 2232.22 -7.77231 -2.56621 0
M  V30 24509 N 2234.89 0.990791 -1.22561 0
M  V30 24510 C 2235.82 2.09954 -1.02184 0
M  V30 24511 C 2236.8 1.70001 0.0579095 0
M  V30 24512 O 2237.98 1.93917 -0.104718 0
M  V30 24513 C 2235.11 3.42059 -0.601083 0
M  V30 24514 C 2234.07 3.95869 -1.627 0
M  V30 24515 C 2233.39 5.24047 -1.06202 0
M  V30 24516 C 2234.69 4.26315 -3.0175 0
M  V30 24517 H 2236.39 2.27259 -1.9492 0
M  V30 24518 H 2233.93 1.09209 -0.938585 0
M  V30 24519 H 2235.89 4.19037 -0.445634 0
M  V30 24520 H 2234.61 3.24588 0.361948 0
M  V30 24521 H 2233.27 3.21025 -1.77027 0
M  V30 24522 H 2232.92 5.02919 -0.0902787 0
M  V30 24523 H 2232.62 5.61016 -1.74741 0
M  V30 24524 H 2234.14 6.03657 -0.918198 0
M  V30 24525 H 2235.56 4.94081 -2.90786 0
M  V30 24526 H 2233.95 4.74461 -3.67433 0
M  V30 24527 H 2235.02 3.34004 -3.51524 0
M  V30 24528 N 2236.37 1.03564 1.18795 0
M  V30 24529 C 2237.3 0.643058 2.24471 0
M  V30 24530 C 2238.28 -0.351253 1.66434 0
M  V30 24531 O 2239.46 -0.232471 1.92804 0
M  V30 24532 C 2236.59 1.85533e-05 3.473 0
M  V30 24533 C 2235.55 0.91733 4.18054 0
M  V30 24534 C 2234.87 0.139035 5.34519 0
M  V30 24535 C 2236.17 2.23415 4.72105 0
M  V30 24536 H 2237.87 1.52648 2.57564 0
M  V30 24537 H 2235.41 0.735416 1.23805 0
M  V30 24538 H 2237.36 -0.286309 4.20426 0
M  V30 24539 H 2236.09 -0.918243 3.13426 0
M  V30 24540 H 2234.75 1.18796 3.46818 0
M  V30 24541 H 2234.4 -0.781475 4.96892 0
M  V30 24542 H 2234.1 0.750107 5.82793 0
M  V30 24543 H 2235.62 -0.140393 6.10439 0
M  V30 24544 H 2237.03 2.00888 5.36951 0
M  V30 24545 H 2235.43 2.79774 5.30892 0
M  V30 24546 H 2236.5 2.88414 3.89802 0
M  V30 24547 N 2237.84 -1.34926 0.814413 0
M  V30 24548 C 2238.79 -2.27096 0.202792 0
M  V30 24549 C 2239.78 -1.4814 -0.627964 0
M  V30 24550 O 2240.97 -1.70256 -0.483939 0
M  V30 24551 C 2238.1 -3.37255 -0.641401 0
M  V30 24552 C 2237.18 -4.2363 0.199515 0
M  V30 24553 N 2237.58 -4.8969 1.26637 0
M  V30 24554 C 2235.87 -4.45997 -0.0175649 0
M  V30 24555 C 2236.57 -5.53784 1.78041 0
M  V30 24556 N 2235.55 -5.32649 1.08562 0
M  V30 24557 H 2239.35 -2.7567 1.01898 0
M  V30 24558 H 2236.87 -1.48545 0.656358 0
M  V30 24559 H 2238.86 -4.02244 -1.09567 0
M  V30 24560 H 2237.52 -2.90233 -1.45585 0
M  V30 24561 H 2238.53 -4.90943 1.64909 0
M  V30 24562 H 2235.21 -4.09753 -0.800529 0
M  V30 24563 H 2236.6 -6.16465 2.67247 0
M  V30 24564 N 2239.32 -0.56861 -1.46985 0
M  V30 24565 C 2240.27 0.172666 -2.30153 0
M  V30 24566 C 2241.24 0.897562 -1.39761 0
M  V30 24567 O 2242.42 0.891014 -1.68717 0
M  V30 24568 C 2239.56 1.18944 -3.23954 0
M  V30 24569 C 2238.68 0.469441 -4.29442 0
M  V30 24570 C 2237.81 1.4725 -5.10383 0
M  V30 24571 C 2236.85 0.738118 -6.07633 0
M  V30 24572 N 2235.99 1.68856 -6.81493 0
M  V30 24573 H 2240.83 -0.542647 -2.93018 0
M  V30 24574 H 2238.36 -0.279426 -1.44422 0
M  V30 24575 H 2240.32 1.79166 -3.7677 0
M  V30 24576 H 2238.95 1.87264 -2.62929 0
M  V30 24577 H 2238 -0.247534 -3.79594 0
M  V30 24578 H 2239.32 -0.105329 -4.98689 0
M  V30 24579 H 2238.47 2.14793 -5.67405 0
M  V30 24580 H 2237.21 2.0812 -4.41064 0
M  V30 24581 H 2236.21 0.0488326 -5.49778 0
M  V30 24582 H 2237.44 0.13501 -6.78966 0
M  V30 24583 H 2235.39 2.28562 -6.14895 0
M  V30 24584 H 2235.3 1.16623 -7.4695 0
M  V30 24585 H 2236.57 2.35477 -7.43082 0
M  V30 24586 N 2240.8 1.54608 -0.305646 0
M  V30 24587 C 2242.02 2.05107 0.307526 0
M  V30 24588 C 2242.45 1.18125 1.46383 0
M  V30 24589 O 2241.81 0.186356 1.8034 0
M  V30 24590 C 2241.86 3.52989 0.736978 0
M  V30 24591 O 2240.96 3.69013 1.84128 0
M  V30 24592 H 2240.3 0.661382 0.0589027 0
M  V30 24593 H 2242.83 1.99616 -0.448842 0
M  V30 24594 H 2242.84 3.94927 1.02452 0
M  V30 24595 H 2241.52 4.15758 -0.108847 0
M  V30 24596 H 2240.09 3.3898 1.55392 0
M  V30 24597 N 2242.28 0.033457 1.57564 0
M  V30 24598 C 2243.53 -0.643605 1.91156 0
M  V30 24599 C 2243.84 -1.7304 0.91195 0
M  V30 24600 O 2245.05 -2.4644 1.13927 0
M  V30 24601 C 2243.5 -1.19604 3.39445 0
M  V30 24602 C 2243.11 -0.142303 4.47774 0
M  V30 24603 C 2244.85 -1.84937 3.82098 0
M  V30 24604 C 2242.76 -0.706624 5.87163 0
M  V30 24605 H 2241.69 -0.244164 0.713372 0
M  V30 24606 H 2244.34 0.0994645 1.8323 0
M  V30 24607 H 2242.72 -1.99086 3.42317 0
M  V30 24608 H 2243.9 0.630376 4.56468 0
M  V30 24609 H 2242.21 0.412519 4.14352 0
M  V30 24610 H 2244.81 -2.28122 4.83595 0
M  V30 24611 H 2245.15 -2.69386 3.17391 0
M  V30 24612 H 2245.69 -1.12138 3.81667 0
M  V30 24613 H 2242.42 0.099833 6.55424 0
M  V30 24614 H 2241.94 -1.44769 5.82067 0
M  V30 24615 H 2243.62 -1.19503 6.35868 0
M  V30 24616 N 2243.76 -1.55766 -0.239741 0
M  V30 24617 C 2244.69 -1.87375 -1.31998 0
M  V30 24618 C 2245.7 -0.760547 -1.43943 0
M  V30 24619 O 2246.89 -1.03872 -1.45165 0
M  V30 24620 C 2243.99 -2.0512 -2.69776 0
M  V30 24621 C 2243.16 -3.36027 -2.80008 0
M  V30 24622 C 2242.22 -3.43427 -3.98678 0
M  V30 24623 O 2241.25 -4.16589 -3.87869 0
M  V30 24624 N 2242.45 -2.73241 -5.12171 0
M  V30 24625 H 2245.21 -2.80624 -1.05216 0
M  V30 24626 H 2242.78 -1.5609 -0.42983 0
M  V30 24627 H 2244.77 -2.07405 -3.47513 0
M  V30 24628 H 2243.34 -1.18582 -2.89235 0
M  V30 24629 H 2242.56 -3.45997 -1.8889 0
M  V30 24630 H 2243.85 -4.22297 -2.838 0
M  V30 24631 H 2243.24 -2.13546 -5.23846 0
M  V30 24632 H 2241.8 -2.8121 -5.88017 0
M  V30 24633 N 2245.23 0.505704 -1.49266 0
M  V30 24634 C 2246.14 1.63424 -1.68315 0
M  V30 24635 C 2247.16 1.64547 -0.56571 0
M  V30 24636 O 2248.34 1.83054 -0.839833 0
M  V30 24637 C 2245.4 2.9981 -1.74112 0
M  V30 24638 C 2244.46 3.0935 -2.97659 0
M  V30 24639 C 2243.69 4.3923 -3.03171 0
M  V30 24640 O 2243.92 5.27755 -2.16405 0
M  V30 24641 O 2242.85 4.53645 -3.95588 0
M  V30 24642 H 2246.68 1.50284 -2.6391 0
M  V30 24643 H 2244.26 0.681478 -1.32952 0
M  V30 24644 H 2246.14 3.80877 -1.80306 0
M  V30 24645 H 2244.82 3.13221 -0.816956 0
M  V30 24646 H 2243.73 2.27488 -2.96985 0
M  V30 24647 H 2245.06 3.00864 -3.8954 0
M  V30 24648 N 2246.71 1.38262 0.756405 0
M  V30 24649 C 2247.62 1.37491 1.90088 0
M  V30 24650 C 2248.64 0.272396 1.71855 0
M  V30 24651 O 2249.81 0.510353 1.94826 0
M  V30 24652 C 2246.88 1.19598 3.25419 0
M  V30 24653 C 2245.94 2.39629 3.56197 0
M  V30 24654 C 2245.17 2.22579 4.85071 0
M  V30 24655 O 2245.4 1.21803 5.57243 0
M  V30 24656 O 2244.33 3.11107 5.15263 0
M  V30 24657 H 2248.16 2.33918 1.93691 0
M  V30 24658 H 2245.74 1.19152 0.901292 0
M  V30 24659 H 2247.62 1.11668 4.06335 0
M  V30 24660 H 2246.3 0.262543 3.22634 0
M  V30 24661 H 2245.21 2.53133 2.75453 0
M  V30 24662 H 2246.54 3.31592 3.63741 0
M  V30 24663 N 2248.19 -0.984277 1.23084 0
M  V30 24664 C 2249.14 -2.07597 1.00858 0
M  V30 24665 C 2250.11 -1.65941 -0.0726418 0
M  V30 24666 O 2251.29 -1.90638 0.078687 0
M  V30 24667 C 2248.43 -3.39814 0.601704 0
M  V30 24668 C 2247.55 -3.94762 1.75463 0
M  V30 24669 C 2246.68 -5.15175 1.29491 0
M  V30 24670 C 2245.72 -5.6228 2.41883 0
M  V30 24671 N 2244.86 -6.73926 1.96897 0
M  V30 24672 H 2249.7 -2.25943 1.94303 0
M  V30 24673 H 2247.23 -1.1076 0.968021 0
M  V30 24674 H 2249.19 -4.15755 0.346927 0
M  V30 24675 H 2247.82 -3.21442 -0.295746 0
M  V30 24676 H 2246.87 -3.15612 2.12351 0
M  V30 24677 H 2248.19 -4.25694 2.59973 0
M  V30 24678 H 2247.34 -5.98435 0.998029 0
M  V30 24679 H 2246.08 -4.85887 0.420131 0
M  V30 24680 H 2245.08 -4.77604 2.7235 0
M  V30 24681 H 2246.31 -5.93589 3.29891 0
M  V30 24682 H 2244.25 -6.46404 1.11793 0
M  V30 24683 H 2244.17 -7.04222 2.74968 0
M  V30 24684 H 2245.44 -7.60669 1.70302 0
M  V30 24685 N 2249.67 -1.04192 -1.18244 0
M  V30 24686 C 2251.08 -0.761391 -1.40268 0
M  V30 24687 C 2251.28 0.648544 -1.90778 0
M  V30 24688 O 2250.34 1.41255 -2.09293 0
M  V30 24689 C 2251.65 -1.80855 -2.40233 0
M  V30 24690 C 2253.2 -1.8296 -2.53958 0
M  V30 24691 C 2253.68 -2.86671 -3.57189 0
M  V30 24692 N 2255.17 -2.8557 -3.64697 0
M  V30 24693 C 2255.9 -3.62468 -4.44303 0
M  V30 24694 N 2255.4 -4.49121 -5.27506 0
M  V30 24695 N 2257.19 -3.50951 -4.39078 0
M  V30 24696 H 2249.34 -1.95177 -0.837848 0
M  V30 24697 H 2251.61 -0.844567 -0.430593 0
M  V30 24698 H 2251.31 -2.81995 -2.10171 0
M  V30 24699 H 2251.19 -1.64174 -3.39598 0
M  V30 24700 H 2253.57 -0.824905 -2.83336 0
M  V30 24701 H 2253.65 -2.03718 -1.54702 0
M  V30 24702 H 2253.3 -3.8732 -3.28551 0
M  V30 24703 H 2253.23 -2.63168 -4.56125 0
M  V30 24704 H 2255.72 -2.22732 -3.05285 0
M  V30 24705 H 2256.03 -5.04504 -5.85402 0
M  V30 24706 H 2254.38 -4.53187 -5.26922 0
M  V30 24707 H 2257.57 -2.82657 -3.73125 0
M  V30 24708 H 2257.74 -4.1113 -5.00876 0
M  V30 24709 N 2251.15 1.34492 -0.821557 0
M  V30 24710 C 2252.56 1.51328 -0.507143 0
M  V30 24711 C 2252.76 1.76675 0.968932 0
M  V30 24712 O 2251.82 1.81688 1.75345 0
M  V30 24713 C 2253.13 2.67908 -1.36549 0
M  V30 24714 C 2254.68 2.8179 -1.36247 0
M  V30 24715 C 2255.15 4.01412 -2.20527 0
M  V30 24716 N 2256.65 4.08617 -2.18143 0
M  V30 24717 C 2257.38 5.0033 -2.80103 0
M  V30 24718 N 2256.88 5.97274 -3.51049 0
M  V30 24719 N 2258.67 4.93191 -2.69665 0
M  V30 24720 H 2250.82 1.16299 -1.77731 0
M  V30 24721 H 2253.08 0.570263 -0.757301 0
M  V30 24722 H 2252.79 2.55804 -2.41365 0
M  V30 24723 H 2252.66 3.62887 -1.02923 0
M  V30 24724 H 2255.05 2.93337 -0.322093 0
M  V30 24725 H 2255.13 1.87625 -1.73869 0
M  V30 24726 H 2254.78 3.90626 -3.24614 0
M  V30 24727 H 2254.71 4.94788 -1.80256 0
M  V30 24728 H 2257.2 3.39226 -1.66536 0
M  V30 24729 H 2257.51 6.63882 -3.95576 0
M  V30 24730 H 2255.85 5.97402 -3.55155 0
M  V30 24731 H 2259.05 4.16414 -2.13816 0
M  V30 24732 H 2259.22 5.64471 -3.1824 0
M  V30 24733 N 2252.62 0.576397 1.46681 0
M  V30 24734 C 2254.04 0.148124 1.86111 0
M  V30 24735 C 2254.39 -1.28718 1.48075 0
M  V30 24736 O 2253.51 -1.97129 0.892691 0
M  V30 24737 C 2254.11 0.262041 3.37785 0
M  V30 24738 C 2252.67 -0.111318 3.76235 0
M  V30 24739 C 2251.81 0.600878 2.70712 0
M  V30 24740 H 2254.76 0.784995 1.37926 0
M  V30 24741 H 2254.78 -0.514298 3.77008 0
M  V30 24742 H 2254.3 1.30677 3.65438 0
M  V30 24743 H 2252.4 -1.15643 3.542 0
M  V30 24744 H 2252.51 0.260604 4.78391 0
M  V30 24745 H 2250.87 0.0418231 2.54666 0
M  V30 24746 H 2251.66 1.64714 3.01205 0
M  V30 24747 N 2254.1 -1.54444 0.313841 0
M  V30 24748 C 2255.52 -1.59552 -0.0391338 0
M  V30 24749 C 2255.72 -1.33059 -1.51319 0
M  V30 24750 O 2254.77 -1.11026 -2.26781 0
M  V30 24751 C 2256.09 -2.98411 0.370354 0
M  V30 24752 C 2257.64 -3.11358 0.320194 0
M  V30 24753 C 2258.11 -4.52546 0.704697 0
M  V30 24754 N 2259.6 -4.58506 0.657726 0
M  V30 24755 C 2260.34 -5.65848 0.927553 0
M  V30 24756 N 2259.83 -6.81171 1.26401 0
M  V30 24757 N 2261.63 -5.55578 0.853759 0
M  V30 24758 H 2253.78 -1.69923 1.27436 0
M  V30 24759 H 2256.04 -0.794275 0.517525 0
M  V30 24760 H 2255.75 -3.22764 1.397 0
M  V30 24761 H 2255.62 -3.76236 -0.269553 0
M  V30 24762 H 2258.01 -2.86745 -0.697224 0
M  V30 24763 H 2258.09 -2.35659 0.994901 0
M  V30 24764 H 2257.73 -4.7789 1.71998 0
M  V30 24765 H 2257.66 -5.26599 0.00778099 0
M  V30 24766 H 2260.15 -3.75679 0.409133 0
M  V30 24767 H 2260.47 -7.58969 1.45554 0
M  V30 24768 H 2258.81 -6.82692 1.30218 0
M  V30 24769 H 2262 -4.64361 0.590464 0
M  V30 24770 H 2262.17 -6.39148 1.06741 0
M  V30 24771 N 2255.58 -0.0418125 -1.57545 0
M  V30 24772 C 2256.53 0.935768 -2.10979 0
M  V30 24773 C 2257.5 1.31489 -1.01488 0
M  V30 24774 O 2258.68 1.406 -1.28982 0
M  V30 24775 C 2255.82 2.20855 -2.65173 0
M  V30 24776 C 2254.94 1.88475 -3.88717 0
M  V30 24777 C 2254.07 3.10143 -4.3126 0
M  V30 24778 C 2253.11 2.7364 -5.47529 0
M  V30 24779 N 2252.25 3.87972 -5.85168 0
M  V30 24780 H 2257.09 0.473197 -2.94219 0
M  V30 24781 H 2254.62 0.221956 -1.45416 0
M  V30 24782 H 2256.58 2.9532 -2.9469 0
M  V30 24783 H 2255.21 2.64706 -1.84744 0
M  V30 24784 H 2254.26 1.04199 -3.65851 0
M  V30 24785 H 2255.58 1.576 -4.73248 0
M  V30 24786 H 2254.73 3.92915 -4.6228 0
M  V30 24787 H 2253.47 3.44189 -3.45522 0
M  V30 24788 H 2252.47 1.89282 -5.1619 0
M  V30 24789 H 2253.7 2.40796 -6.34976 0
M  V30 24790 H 2251.64 4.21837 -5.02384 0
M  V30 24791 H 2251.56 3.60763 -6.64369 0
M  V30 24792 H 2252.83 4.71411 -6.20799 0
M  V30 24793 N 2257.06 1.55891 0.231477 0
M  V30 24794 C 2258.34 1.69217 0.981066 0
M  V30 24795 C 2258.72 0.586199 2.02798 0
M  V30 24796 O 2258.06 -0.408214 2.24824 0
M  V30 24797 C 2258.27 3.10138 1.60048 0
M  V30 24798 C 2259.62 3.69231 2.09651 0
M  V30 24799 O 2260.65 3.13036 1.69961 0
M  V30 24800 O 2259.5 4.67777 2.82572 0
M  V30 24801 H 2256.6 0.688835 0.45764 0
M  V30 24802 H 2259.14 1.68215 0.224043 0
M  V30 24803 H 2257.92 3.82089 0.844038 0
M  V30 24804 H 2257.54 3.15217 2.42331 0
M  V30 24805 N 2258.54 -0.497781 1.49532 0
M  V30 24806 C 2259.76 -1.28036 1.63161 0
M  V30 24807 C 2260.19 -1.85624 0.304213 0
M  V30 24808 O 2259.54 -1.66016 -0.728589 0
M  V30 24809 C 2259.59 -2.38411 2.70541 0
M  V30 24810 O 2258.7 -3.42349 2.29937 0
M  V30 24811 H 2258.04 -0.377851 0.546008 0
M  V30 24812 H 2260.57 -0.595546 1.95741 0
M  V30 24813 H 2260.58 -2.84127 2.92807 0
M  V30 24814 H 2259.25 -1.95863 3.66893 0
M  V30 24815 H 2257.83 -3.0253 2.18014 0
M  V30 24816 N 2260.01 -1.38661 -0.749062 0
M  V30 24817 C 2260.95 -1.32145 -1.87271 0
M  V30 24818 C 2261.96 -0.232816 -1.61127 0
M  V30 24819 O 2263.15 -0.49072 -1.71622 0
M  V30 24820 C 2260.25 -1.02577 -3.23003 0
M  V30 24821 C 2259.42 -2.2244 -3.76616 0
M  V30 24822 C 2258.48 -1.89546 -4.90876 0
M  V30 24823 O 2257.51 -2.62087 -5.05271 0
M  V30 24824 N 2258.71 -0.853132 -5.74197 0
M  V30 24825 H 2261.47 -2.28973 -1.93369 0
M  V30 24826 H 2259.03 -1.32581 -0.929193 0
M  V30 24827 H 2261.03 -0.786155 -3.96991 0
M  V30 24828 H 2259.6 -0.145304 -3.12262 0
M  V30 24829 H 2258.82 -2.62439 -2.94142 0
M  V30 24830 H 2260.1 -3.02422 -4.09168 0
M  V30 24831 H 2259.5 -0.251649 -5.6514 0
M  V30 24832 H 2258.06 -0.673404 -6.48312 0
M  V30 24833 N 2261.49 0.977736 -1.23605 0
M  V30 24834 C 2262.74 1.71599 -1.06762 0
M  V30 24835 C 2263.06 1.90939 0.395895 0
M  V30 24836 O 2262.33 1.47994 1.28353 0
M  V30 24837 H 2260.91 0.635836 -0.392074 0
M  V30 24838 H 2263.57 1.17678 -1.55364 0
M  V30 24839 H 2262.67 2.70449 -1.55768 0
M  V30 24840 N 2262.97 1.04818 1.1769 0
M  V30 24841 C 2263.92 0.645836 2.2158 0
M  V30 24842 C 2264.89 -0.35013 1.62368 0
M  V30 24843 O 2266.07 -0.2424 1.89254 0
M  V30 24844 C 2263.21 0.0228174 3.45092 0
M  V30 24845 C 2262.33 1.06716 4.18612 0
M  V30 24846 C 2261.46 0.411861 5.29601 0
M  V30 24847 C 2260.5 1.44077 5.94902 0
M  V30 24848 N 2259.64 0.809904 6.97413 0
M  V30 24849 H 2264.48 1.53624 2.5535 0
M  V30 24850 H 2262.01 0.768386 1.25436 0
M  V30 24851 H 2263.97 -0.355807 4.1568 0
M  V30 24852 H 2262.6 -0.831067 3.11918 0
M  V30 24853 H 2261.65 1.56366 3.46777 0
M  V30 24854 H 2262.97 1.84835 4.6329 0
M  V30 24855 H 2262.12 -0.0205557 6.06697 0
M  V30 24856 H 2260.86 -0.401352 4.86046 0
M  V30 24857 H 2259.86 1.88325 5.1654 0
M  V30 24858 H 2261.09 2.25582 6.40538 0
M  V30 24859 H 2259.04 0.0171339 6.55998 0
M  V30 24860 H 2258.95 1.52869 7.40383 0
M  V30 24861 H 2260.22 0.402136 7.78462 0
M  V30 24862 N 2264.45 -1.34055 0.828678 0
M  V30 24863 C 2265.38 -2.3194 0.269483 0
M  V30 24864 C 2266.36 -1.58507 -0.617219 0
M  V30 24865 O 2267.55 -1.86457 -0.542898 0
M  V30 24866 C 2264.68 -3.42678 -0.564733 0
M  V30 24867 C 2263.63 -4.27407 0.225316 0
M  V30 24868 C 2262.96 -5.29666 -0.732007 0
M  V30 24869 C 2264.26 -5.02151 1.43672 0
M  V30 24870 H 2265.95 -2.78958 1.08733 0
M  V30 24871 H 2263.5 -1.34116 0.524307 0
M  V30 24872 H 2265.45 -4.10175 -0.966161 0
M  V30 24873 H 2264.17 -2.94323 -1.41569 0
M  V30 24874 H 2262.83 -3.6152 0.608181 0
M  V30 24875 H 2262.48 -4.77571 -1.57908 0
M  V30 24876 H 2262.18 -5.87233 -0.207566 0
M  V30 24877 H 2263.7 -6.00031 -1.13117 0
M  V30 24878 H 2265.12 -5.62471 1.109 0
M  V30 24879 H 2263.51 -5.6932 1.89721 0
M  V30 24880 H 2264.58 -4.31513 2.21189 0
M  V30 24881 N 2265.93 -0.584167 -1.46374 0
M  V30 24882 C 2266.86 0.135996 -2.33104 0
M  V30 24883 C 2267.84 0.88223 -1.45433 0
M  V30 24884 O 2269.02 0.857403 -1.74248 0
M  V30 24885 C 2266.15 1.14928 -3.27733 0
M  V30 24886 C 2265.11 0.517788 -4.24856 0
M  V30 24887 C 2264.43 1.63764 -5.09004 0
M  V30 24888 C 2265.73 -0.545977 -5.19439 0
M  V30 24889 H 2267.43 -0.588137 -2.93567 0
M  V30 24890 H 2264.97 -0.284284 -1.41166 0
M  V30 24891 H 2266.93 1.66146 -3.87264 0
M  V30 24892 H 2265.65 1.9037 -2.6538 0
M  V30 24893 H 2264.31 0.0266716 -3.6659 0
M  V30 24894 H 2263.96 2.38177 -4.43036 0
M  V30 24895 H 2263.66 1.22075 -5.7478 0
M  V30 24896 H 2265.18 2.15256 -5.71399 0
M  V30 24897 H 2266.6 -0.118805 -5.73177 0
M  V30 24898 H 2264.99 -0.883274 -5.93564 0
M  V30 24899 H 2266.06 -1.4317 -4.63282 0
M  V30 24900 N 2267.41 1.54275 -0.322027 0
M  V30 24901 C 2268.68 1.92706 0.335198 0
M  V30 24902 C 2269.06 1.25148 1.70004 0
M  V30 24903 O 2268.41 0.394635 2.25066 0
M  V30 24904 C 2268.62 3.46354 0.428947 0
M  V30 24905 C 2269.97 4.18957 0.689955 0
M  V30 24906 O 2270.99 3.52502 0.51193 0
M  V30 24907 O 2269.85 5.36643 1.03329 0
M  V30 24908 H 2266.95 0.804611 0.191129 0
M  V30 24909 H 2269.49 1.65581 -0.371629 0
M  V30 24910 H 2268.26 3.87698 -0.529679 0
M  V30 24911 H 2267.89 3.7958 1.18341 0
M  V30 24912 N 2268.88 0.0501669 1.5752 0
M  V30 24913 C 2269.81 -0.922529 2.14503 0
M  V30 24914 C 2270.79 -1.32518 1.06644 0
M  V30 24915 O 2271.98 -1.40007 1.34579 0
M  V30 24916 C 2269.11 -2.19771 2.6892 0
M  V30 24917 C 2268.06 -1.93516 3.81753 0
M  V30 24918 C 2267.39 -3.2748 4.22683 0
M  V30 24919 C 2268.69 -1.25756 5.06935 0
M  V30 24920 H 2270.38 -0.4479 2.96031 0
M  V30 24921 H 2267.93 -0.213999 1.42401 0
M  V30 24922 H 2269.88 -2.88216 3.07424 0
M  V30 24923 H 2268.61 -2.69438 1.84583 0
M  V30 24924 H 2267.27 -1.27483 3.4372 0
M  V30 24925 H 2266.91 -3.74946 3.35298 0
M  V30 24926 H 2266.61 -3.10711 4.98731 0
M  V30 24927 H 2268.14 -3.97158 4.63786 0
M  V30 24928 H 2269.55 -1.84234 5.42891 0
M  V30 24929 H 2267.95 -1.19317 5.88119 0
M  V30 24930 H 2269.02 -0.233451 4.84338 0
M  V30 24931 N 2270.36 -1.56011 -0.223207 0
M  V30 24932 C 2271.27 -1.95445 -1.29762 0
M  V30 24933 C 2272.29 -0.858055 -1.51372 0
M  V30 24934 O 2273.46 -1.16148 -1.64534 0
M  V30 24935 C 2270.53 -2.26172 -2.62768 0
M  V30 24936 C 2269.59 -3.49371 -2.49476 0
M  V30 24937 C 2268.82 -3.78623 -3.76139 0
M  V30 24938 O 2269.05 -3.09576 -4.79081 0
M  V30 24939 O 2267.98 -4.72116 -3.7335 0
M  V30 24940 H 2271.81 -2.87006 -0.993039 0
M  V30 24941 H 2269.39 -1.432 -0.425933 0
M  V30 24942 H 2271.27 -2.47137 -3.41323 0
M  V30 24943 H 2269.95 -1.37786 -2.92911 0
M  V30 24944 H 2268.85 -3.33687 -1.69127 0
M  V30 24945 H 2270.19 -4.38135 -2.24273 0
M  V30 24946 N 2271.84 0.489844 -1.49794 0
M  V30 24947 C 2273.12 1.25117 -1.5035 0
M  V30 24948 C 2273.5 2.0976 -0.237503 0
M  V30 24949 O 2272.84 2.14783 0.779772 0
M  V30 24950 C 2273.05 2.09832 -2.78875 0
M  V30 24951 C 2274.4 2.68649 -3.28805 0
M  V30 24952 O 2275.43 2.20091 -2.80069 0
M  V30 24953 O 2274.29 3.57076 -4.13714 0
M  V30 24954 H 2271.38 0.566764 -0.602252 0
M  V30 24955 H 2273.93 0.5032 -1.62068 0
M  V30 24956 H 2272.7 1.47337 -3.62502 0
M  V30 24957 H 2272.32 2.918 -2.70072 0
M  V30 24958 N 2273.32 1.39056 0.741698 0
M  V30 24959 C 2274.56 1.35914 1.50112 0
M  V30 24960 C 2274.89 -0.0470596 1.94443 0
M  V30 24961 O 2274.15 -1.02656 1.66614 0
M  V30 24962 C 2274.45 2.27168 2.75916 0
M  V30 24963 C 2274.11 3.74923 2.50486 0
M  V30 24964 C 2272.77 4.15184 2.4326 0
M  V30 24965 C 2275.13 4.68404 2.28577 0
M  V30 24966 C 2272.45 5.46998 2.12156 0
M  V30 24967 C 2274.81 6.00488 1.98991 0
M  V30 24968 C 2273.47 6.3982 1.90229 0
M  V30 24969 H 2272.74 0.497346 0.549298 0
M  V30 24970 H 2275.39 1.71509 0.851866 0
M  V30 24971 H 2273.69 1.84669 3.4555 0
M  V30 24972 H 2275.39 2.22034 3.33919 0
M  V30 24973 H 2271.98 3.4301 2.56986 0
M  V30 24974 H 2276.16 4.38137 2.33131 0
M  V30 24975 H 2271.42 5.76401 2.0389 0
M  V30 24976 H 2275.59 6.72455 1.81045 0
M  V30 24977 H 2273.22 7.41878 1.65894 0
M  V30 24978 N 2274.8 -0.971167 1.24121 0
M  V30 24979 C 2276.03 -1.74618 1.10418 0
M  V30 24980 C 2276.43 -1.86001 -0.34643 0
M  V30 24981 O 2275.78 -1.34519 -1.25102 0
M  V30 24982 C 2275.84 -3.18566 1.66602 0
M  V30 24983 C 2275.5 -3.30664 3.15452 0
M  V30 24984 C 2276.5 -3.16264 4.12642 0
M  V30 24985 C 2274.18 -3.55016 3.55343 0
M  V30 24986 C 2276.18 -3.26034 5.47705 0
M  V30 24987 C 2273.87 -3.64425 4.90548 0
M  V30 24988 C 2274.86 -3.49946 5.86538 0
M  V30 24989 O 2274.55 -3.59004 7.19285 0
M  V30 24990 H 2274.28 -0.554524 0.386626 0
M  V30 24991 H 2276.84 -1.22818 1.64635 0
M  V30 24992 H 2275.07 -3.71655 1.06814 0
M  V30 24993 H 2276.76 -3.77862 1.48239 0
M  V30 24994 H 2277.52 -2.97338 3.83165 0
M  V30 24995 H 2273.4 -3.65354 2.81136 0
M  V30 24996 H 2276.95 -3.1465 6.22608 0
M  V30 24997 H 2272.84 -3.82864 5.19698 0
M  V30 24998 H 2273.61 -3.75741 7.27159 0
M  V30 24999 N 2276.27 -1.05441 -1.17133 0
M  V30 25000 C 2277.5 -0.785307 -1.91093 0
M  V30 25001 C 2277.91 0.66311 -1.77199 0
M  V30 25002 O 2277.26 1.46495 -1.10838 0
M  V30 25003 C 2277.32 -1.08955 -3.42592 0
M  V30 25004 C 2276.98 -2.53465 -3.80269 0
M  V30 25005 C 2277.98 -3.5168 -3.82906 0
M  V30 25006 C 2275.66 -2.88539 -4.11157 0
M  V30 25007 C 2277.66 -4.83014 -4.15905 0
M  V30 25008 C 2275.34 -4.20076 -4.43824 0
M  V30 25009 C 2276.34 -5.17123 -4.46176 0
M  V30 25010 O 2276.03 -6.46299 -4.78072 0
M  V30 25011 H 2275.76 -0.284821 -0.613068 0
M  V30 25012 H 2278.32 -1.40895 -1.49458 0
M  V30 25013 H 2276.55 -0.408809 -3.84533 0
M  V30 25014 H 2278.24 -0.806061 -3.97816 0
M  V30 25015 H 2279 -3.25923 -3.59164 0
M  V30 25016 H 2274.88 -2.13663 -4.08496 0
M  V30 25017 H 2278.42 -5.58757 -4.17655 0
M  V30 25018 H 2274.32 -4.45594 -4.67029 0
M  V30 25019 H 2275.09 -6.51158 -4.95919 0
M  V30 25020 N 2277.75 1.33613 -0.835776 0
M  V30 25021 C 2278.7 2.29276 -0.26477 0
M  V30 25022 C 2279.67 1.54188 0.617685 0
M  V30 25023 O 2280.85 1.82501 0.556609 0
M  V30 25024 C 2277.99 3.4058 0.556717 0
M  V30 25025 C 2277.11 4.30585 -0.349415 0
M  V30 25026 C 2276.24 5.29001 0.482876 0
M  V30 25027 C 2275.28 6.10645 -0.42184 0
M  V30 25028 N 2274.42 7.01113 0.372139 0
M  V30 25029 H 2279.26 2.77512 -1.08586 0
M  V30 25030 H 2276.8 1.36553 -0.546951 0
M  V30 25031 H 2278.75 4.03811 1.04845 0
M  V30 25032 H 2277.38 2.93545 1.34281 0
M  V30 25033 H 2276.44 3.68102 -0.959437 0
M  V30 25034 H 2277.75 4.87741 -1.04454 0
M  V30 25035 H 2276.9 5.97745 1.03856 0
M  V30 25036 H 2275.64 4.72414 1.21145 0
M  V30 25037 H 2274.65 5.40821 -0.989559 0
M  V30 25038 H 2275.87 6.69314 -1.14873 0
M  V30 25039 H 2273.82 6.46979 1.08415 0
M  V30 25040 H 2273.73 7.55538 -0.26433 0
M  V30 25041 H 2275 7.74168 0.910157 0
M  V30 25042 N 2279.23 0.591922 1.46062 0
M  V30 25043 C 2280.14 -0.138269 2.34192 0
M  V30 25044 C 2281.16 -0.876582 1.50306 0
M  V30 25045 O 2282.33 -0.837696 1.83152 0
M  V30 25046 C 2279.4 -1.1332 3.27658 0
M  V30 25047 C 2278.46 -0.398555 4.27446 0
M  V30 25048 C 2277.69 -1.34609 5.16446 0
M  V30 25049 O 2277.91 -2.58312 5.08558 0
M  V30 25050 O 2276.85 -0.851663 5.95844 0
M  V30 25051 H 2280.67 0.585572 2.98001 0
M  V30 25052 H 2278.26 0.352265 1.45188 0
M  V30 25053 H 2280.14 -1.70664 3.85294 0
M  V30 25054 H 2278.82 -1.83835 2.66433 0
M  V30 25055 H 2277.72 0.21696 3.7347 0
M  V30 25056 H 2279.06 0.265795 4.91482 0
M  V30 25057 N 2280.71 -1.54102 0.330204 0
M  V30 25058 C 2281.96 -2.00687 -0.27037 0
M  V30 25059 C 2282.28 -1.21828 -1.51619 0
M  V30 25060 O 2281.54 -0.290284 -1.93535 0
M  V30 25061 C 2281.84 -3.51567 -0.643072 0
M  V30 25062 C 2281.5 -4.48071 0.50433 0
M  V30 25063 C 2280.17 -4.74175 0.819247 0
M  V30 25064 C 2282.52 -5.05371 1.27474 0
M  V30 25065 C 2279.85 -5.54837 1.90718 0
M  V30 25066 C 2282.2 -5.87219 2.35281 0
M  V30 25067 C 2280.86 -6.11622 2.67347 0
M  V30 25068 H 2280.13 -0.734366 -0.0989353 0
M  V30 25069 H 2282.78 -1.86007 0.455357 0
M  V30 25070 H 2281.08 -3.64008 -1.44932 0
M  V30 25071 H 2282.78 -3.85058 -1.11942 0
M  V30 25072 H 2279.37 -4.27877 0.248809 0
M  V30 25073 H 2283.55 -4.8518 1.0447 0
M  V30 25074 H 2278.81 -5.71973 2.16001 0
M  V30 25075 H 2282.98 -6.30636 2.95417 0
M  V30 25076 H 2280.61 -6.73913 3.51775 0
M  V30 25077 N 2282.19 -0.0585199 -1.57491 0
M  V30 25078 C 2283.12 0.91114 -2.1499 0
M  V30 25079 C 2284.1 1.3195 -1.07346 0
M  V30 25080 O 2285.28 1.39292 -1.3532 0
M  V30 25081 C 2282.41 2.18342 -2.70082 0
M  V30 25082 C 2281.37 1.91489 -3.82774 0
M  V30 25083 C 2280.69 3.25234 -4.24414 0
M  V30 25084 C 2281.99 1.23066 -5.07594 0
M  V30 25085 H 2283.69 0.432194 -2.96264 0
M  V30 25086 H 2281.23 0.206444 -1.42512 0
M  V30 25087 H 2283.19 2.86582 -3.08948 0
M  V30 25088 H 2281.91 2.68455 -1.86009 0
M  V30 25089 H 2280.57 1.25658 -3.44392 0
M  V30 25090 H 2280.22 3.73162 -3.37282 0
M  V30 25091 H 2279.92 3.08062 -5.00371 0
M  V30 25092 H 2281.44 3.94693 -4.65886 0
M  V30 25093 H 2282.85 1.81353 -5.4386 0
M  V30 25094 H 2281.25 1.16197 -5.88743 0
M  V30 25095 H 2282.32 0.207762 -4.84455 0
M  V30 25096 N 2283.66 1.56128 0.21493 0
M  V30 25097 C 2285.08 1.69563 0.781357 0
M  V30 25098 C 2285.43 0.661682 1.84706 0
M  V30 25099 O 2284.55 -0.18589 2.156 0
M  V30 25100 C 2285.15 3.07418 1.42406 0
M  V30 25101 C 2283.71 3.22686 1.9378 0
M  V30 25102 C 2282.85 2.65498 0.800391 0
M  V30 25103 H 2285.8 1.58697 -0.00983423 0
M  V30 25104 H 2285.82 3.03644 2.29304 0
M  V30 25105 H 2285.34 3.82649 0.648192 0
M  V30 25106 H 2283.44 2.52336 2.74148 0
M  V30 25107 H 2283.55 4.29976 2.11322 0
M  V30 25108 H 2281.91 2.24152 1.20946 0
M  V30 25109 H 2282.7 3.4328 0.0370867 0
M  V30 25110 N 2285.14 -0.481893 1.50052 0
M  V30 25111 C 2286.37 -1.26298 1.6451 0
M  V30 25112 C 2286.79 -1.85291 0.323884 0
M  V30 25113 O 2286.15 -1.66779 -0.710939 0
M  V30 25114 C 2286.2 -2.35529 2.73054 0
M  V30 25115 O 2285.3 -3.3989 2.33556 0
M  V30 25116 H 2284.64 -0.372039 0.549985 0
M  V30 25117 H 2287.17 -0.574751 1.96361 0
M  V30 25118 H 2287.18 -2.81005 2.95804 0
M  V30 25119 H 2285.86 -1.91961 3.6895 0
M  V30 25120 H 2284.44 -3.002 2.21211 0
M  V30 25121 N 2286.62 -1.39448 -0.734313 0
M  V30 25122 C 2288.04 -1.21067 -1.03995 0
M  V30 25123 C 2288.24 -0.0727373 -2.01369 0
M  V30 25124 O 2287.29 0.575383 -2.45857 0
M  V30 25125 C 2288.61 -2.54499 -1.60158 0
M  V30 25126 C 2290.15 -2.6135 -1.72235 0
M  V30 25127 C 2290.63 -3.95006 -2.31807 0
M  V30 25128 N 2292.12 -3.96648 -2.39216 0
M  V30 25129 C 2292.85 -4.96839 -2.86249 0
M  V30 25130 N 2292.35 -6.07427 -3.33173 0
M  V30 25131 N 2294.14 -4.84218 -2.85464 0
M  V30 25132 H 2286.29 -2.12215 -0.0885251 0
M  V30 25133 H 2288.56 -0.942508 -0.101893 0
M  V30 25134 H 2288.26 -3.38323 -0.960752 0
M  V30 25135 H 2288.14 -2.74267 -2.58955 0
M  V30 25136 H 2290.52 -1.7791 -2.3544 0
M  V30 25137 H 2290.61 -2.45432 -0.720896 0
M  V30 25138 H 2290.25 -4.78877 -1.6923 0
M  V30 25139 H 2290.18 -4.08245 -3.32631 0
M  V30 25140 H 2292.67 -3.16783 -2.06051 0
M  V30 25141 H 2292.98 -6.79786 -3.67574 0
M  V30 25142 H 2291.33 -6.11019 -3.3118 0
M  V30 25143 H 2294.52 -3.96925 -2.48129 0
M  V30 25144 H 2294.69 -5.62446 -3.21804 0
M  V30 25145 N 2288.1 0.964571 -1.24635 0
M  V30 25146 C 2289.32 1.74816 -1.11599 0
M  V30 25147 C 2289.75 1.85232 0.327197 0
M  V30 25148 O 2289.11 1.32552 1.23692 0
M  V30 25149 C 2289.15 3.14507 -1.76402 0
M  V30 25150 O 2288.26 3.99151 -1.03692 0
M  V30 25151 H 2287.6 0.537248 -0.390205 0
M  V30 25152 H 2290.13 1.20974 -1.65004 0
M  V30 25153 H 2290.14 3.65015 -1.82286 0
M  V30 25154 H 2288.81 3.06241 -2.81406 0
M  V30 25155 H 2287.39 3.5763 -1.05617 0
M  V30 25156 N 2289.58 1.0606 1.16572 0
M  V30 25157 C 2290.82 0.774373 1.86676 0
M  V30 25158 C 2291.15 -0.701115 1.8196 0
M  V30 25159 O 2290.42 -1.5071 1.25153 0
M  V30 25160 H 2289 0.283461 0.691129 0
M  V30 25161 H 2291.66 1.3416 1.41375 0
M  V30 25162 H 2290.75 1.09716 2.92179 0
M  V30 25163 N 2291.06 -1.33168 0.84285 0
M  V30 25164 C 2292.47 -1.79972 0.496682 0
M  V30 25165 C 2292.82 -1.69705 -0.984611 0
M  V30 25166 O 2291.94 -1.24866 -1.76741 0
M  V30 25167 C 2292.54 -3.26771 0.894784 0
M  V30 25168 C 2291.1 -3.71576 0.600695 0
M  V30 25169 C 2290.24 -2.54508 1.10095 0
M  V30 25170 H 2293.19 -1.20633 1.03118 0
M  V30 25171 H 2293.22 -3.7994 0.206414 0
M  V30 25172 H 2292.73 -3.34211 1.97293 0
M  V30 25173 H 2290.83 -3.69659 -0.467219 0
M  V30 25174 H 2290.94 -4.64877 1.15872 0
M  V30 25175 H 2289.31 -2.49301 0.521664 0
M  V30 25176 H 2290.09 -2.64709 2.18596 0
M  V30 25177 N 2292.53 -0.599659 -1.45746 0
M  V30 25178 C 2293.48 0.123808 -2.30468 0
M  V30 25179 C 2294.45 0.867715 -1.41633 0
M  V30 25180 O 2295.64 0.855026 -1.70569 0
M  V30 25181 C 2292.78 1.12046 -3.26404 0
M  V30 25182 C 2291.89 0.378245 -4.30341 0
M  V30 25183 C 2291.02 1.36391 -5.13392 0
M  V30 25184 C 2290.06 0.609064 -6.09062 0
M  V30 25185 N 2289.2 1.54362 -6.84921 0
M  V30 25186 H 2294.04 -0.604678 -2.91801 0
M  V30 25187 H 2291.58 -0.309997 -1.43796 0
M  V30 25188 H 2293.53 1.71134 -3.80485 0
M  V30 25189 H 2292.16 1.81645 -2.66842 0
M  V30 25190 H 2291.22 -0.327996 -3.78983 0
M  V30 25191 H 2292.53 -0.211084 -4.98353 0
M  V30 25192 H 2291.68 2.02709 -5.71834 0
M  V30 25193 H 2290.42 1.98717 -4.45379 0
M  V30 25194 H 2289.43 -0.0677945 -5.49758 0
M  V30 25195 H 2290.65 -0.00903928 -6.79099 0
M  V30 25196 H 2288.6 2.15467 -6.19605 0
M  V30 25197 H 2288.51 1.00753 -7.49256 0
M  V30 25198 H 2289.78 2.19663 -7.47909 0
M  V30 25199 N 2294.01 1.53925 -0.338371 0
M  V30 25200 C 2294.92 2.28549 0.52938 0
M  V30 25201 C 2295.94 1.33461 1.11642 0
M  V30 25202 O 2297.11 1.66494 1.13322 0
M  V30 25203 C 2294.18 3.03989 1.66707 0
M  V30 25204 C 2293.24 4.14693 1.11034 0
M  V30 25205 C 2292.47 4.86526 2.19381 0
M  V30 25206 O 2292.7 4.57988 3.40005 0
M  V30 25207 O 2291.63 5.73097 1.83966 0
M  V30 25208 H 2295.46 3.03602 -0.0770932 0
M  V30 25209 H 2293.04 1.4904 -0.103582 0
M  V30 25210 H 2294.92 3.51184 2.32912 0
M  V30 25211 H 2293.6 2.31798 2.25945 0
M  V30 25212 H 2292.5 3.71814 0.412958 0
M  V30 25213 H 2293.84 4.88971 0.562889 0
M  V30 25214 N 2295.49 0.0668712 1.57458 0
M  V30 25215 C 2296.44 -0.912082 2.08962 0
M  V30 25216 C 2297.42 -1.26193 0.998208 0
M  V30 25217 O 2298.62 -1.24173 1.26136 0
M  V30 25218 C 2295.74 -2.18141 2.65084 0
M  V30 25219 C 2294.83 -1.85826 3.81221 0
M  V30 25220 N 2295.22 -1.23939 4.9038 0
M  V30 25221 C 2293.52 -2.15605 3.90424 0
M  V30 25222 C 2294.22 -1.09606 5.71281 0
M  V30 25223 N 2293.2 -1.60414 5.19392 0
M  V30 25224 H 2297 -0.429189 2.90749 0
M  V30 25225 H 2294.51 -0.137156 1.6182 0
M  V30 25226 H 2296.51 -2.89186 3.00295 0
M  V30 25227 H 2295.17 -2.67022 1.84741 0
M  V30 25228 H 2296.18 -0.909642 5.09849 0
M  V30 25229 H 2292.86 -2.66898 3.21048 0
M  V30 25230 H 2294.25 -0.614308 6.69086 0
M  V30 25231 N 2296.97 -1.56239 -0.206647 0
M  V30 25232 C 2298.19 -1.84392 -0.949442 0
M  V30 25233 C 2298.62 -0.649047 -1.76547 0
M  V30 25234 O 2297.98 0.4022 -1.76782 0
M  V30 25235 C 2298.02 -3.10672 -1.83073 0
M  V30 25236 O 2297.13 -2.90412 -2.92805 0
M  V30 25237 H 2296.47 -0.607503 -0.268022 0
M  V30 25238 H 2299 -2.03462 -0.215453 0
M  V30 25239 H 2299.01 -3.41165 -2.23764 0
M  V30 25240 H 2297.68 -3.97263 -1.23105 0
M  V30 25241 H 2296.26 -2.71189 -2.55951 0
M  V30 25242 N 2298.45 0.473929 -1.50305 0
M  V30 25243 C 2299.86 1.05487 -1.54043 0
M  V30 25244 C 2300.21 1.93191 -0.342282 0
M  V30 25245 O 2299.33 2.09422 0.54512 0
M  V30 25246 C 2299.93 1.91984 -2.79155 0
M  V30 25247 C 2298.49 2.45191 -2.85584 0
M  V30 25248 C 2297.63 1.23465 -2.48297 0
M  V30 25249 H 2300.58 0.256666 -1.56611 0
M  V30 25250 H 2300.61 2.77015 -2.6085 0
M  V30 25251 H 2300.12 1.28124 -3.66341 0
M  V30 25252 H 2298.22 3.12612 -2.02743 0
M  V30 25253 H 2298.33 2.80492 -3.88408 0
M  V30 25254 H 2296.7 1.56853 -2.00672 0
M  V30 25255 H 2297.48 0.612729 -3.37788 0
M  V30 25256 N 2299.92 1.39835 0.726907 0
M  V30 25257 C 2301.15 1.40978 1.52118 0
M  V30 25258 C 2301.57 0.00829336 1.88098 0
M  V30 25259 O 2300.93 -0.98078 1.52481 0
M  V30 25260 C 2300.98 2.29649 2.78017 0
M  V30 25261 O 2300.08 1.73194 3.74269 0
M  V30 25262 H 2299.42 0.479739 0.459071 0
M  V30 25263 H 2301.95 1.83929 0.896175 0
M  V30 25264 H 2301.96 2.44443 3.26667 0
M  V30 25265 H 2300.64 3.31497 2.51163 0
M  V30 25266 H 2299.22 1.67686 3.3307 0
M  V30 25267 N 2301.4 -0.957948 1.25144 0
M  V30 25268 C 2302.33 -2.07171 1.07715 0
M  V30 25269 C 2303.31 -1.70095 -0.0128163 0
M  V30 25270 O 2304.5 -1.93572 0.156095 0
M  V30 25271 C 2301.63 -3.40345 0.691562 0
M  V30 25272 C 2300.58 -3.91416 1.73139 0
M  V30 25273 C 2299.91 -5.21047 1.20059 0
M  V30 25274 C 2301.21 -4.18164 3.12947 0
M  V30 25275 H 2302.9 -2.22011 2.00877 0
M  V30 25276 H 2300.45 -1.06682 0.96721 0
M  V30 25277 H 2302.4 -4.17708 0.556578 0
M  V30 25278 H 2301.12 -3.25434 -0.275761 0
M  V30 25279 H 2299.78 -3.16219 1.85476 0
M  V30 25280 H 2299.43 -5.02503 0.223587 0
M  V30 25281 H 2299.13 -5.56186 1.89554 0
M  V30 25282 H 2300.66 -6.0101 1.07792 0
M  V30 25283 H 2302.07 -4.86198 3.03783 0
M  V30 25284 H 2300.47 -4.64552 3.79883 0
M  V30 25285 H 2301.54 -3.24567 3.60256 0
M  V30 25286 N 2302.88 -1.06677 -1.16008 0
M  V30 25287 C 2304.3 -0.790972 -1.38621 0
M  V30 25288 C 2304.5 0.607931 -1.9211 0
M  V30 25289 O 2303.55 1.36784 -2.12242 0
M  V30 25290 C 2304.86 -1.8591 -2.36343 0
M  V30 25291 C 2306.41 -1.88306 -2.5002 0
M  V30 25292 C 2306.89 -2.94183 -3.51028 0
M  V30 25293 N 2308.38 -2.93241 -3.58558 0
M  V30 25294 C 2309.11 -3.7181 -4.36514 0
M  V30 25295 N 2308.61 -4.60209 -5.17861 0
M  V30 25296 N 2310.4 -3.60186 -4.31535 0
M  V30 25297 H 2302.55 -1.9691 -0.79626 0
M  V30 25298 H 2304.82 -0.853511 -0.412582 0
M  V30 25299 H 2304.52 -2.86389 -2.04142 0
M  V30 25300 H 2304.4 -1.7134 -3.36039 0
M  V30 25301 H 2306.78 -0.884819 -2.81523 0
M  V30 25302 H 2306.86 -2.06953 -1.50346 0
M  V30 25303 H 2306.51 -3.94202 -3.20261 0
M  V30 25304 H 2306.44 -2.72784 -4.50441 0
M  V30 25305 H 2308.93 -2.29157 -3.00492 0
M  V30 25306 H 2309.24 -5.16807 -5.74569 0
M  V30 25307 H 2307.59 -4.64262 -5.1719 0
M  V30 25308 H 2310.78 -2.90508 -3.67046 0
M  V30 25309 H 2310.95 -4.21661 -4.92042 0
M  V30 25310 N 2304.36 1.32719 -0.8499 0
M  V30 25311 C 2305.27 2.32753 -0.293832 0
M  V30 25312 C 2306.28 1.6384 0.585878 0
M  V30 25313 O 2307.46 1.95414 0.487379 0
M  V30 25314 C 2304.52 3.42888 0.512692 0
M  V30 25315 C 2303.59 4.27501 -0.392595 0
M  V30 25316 C 2302.82 5.32377 0.375532 0
M  V30 25317 O 2303.04 5.47323 1.60603 0
M  V30 25318 O 2301.98 6.01354 -0.2562 0
M  V30 25319 H 2305.8 2.82195 -1.12247 0
M  V30 25320 H 2303.39 1.36258 -0.612709 0
M  V30 25321 H 2305.27 4.10069 0.970632 0
M  V30 25322 H 2303.94 2.95643 1.31821 0
M  V30 25323 H 2302.85 3.63147 -0.89861 0
M  V30 25324 H 2304.18 4.78258 -1.16317 0
M  V30 25325 N 2305.84 0.60738 1.45426 0
M  V30 25326 C 2307.25 0.271013 1.57282 0
M  V30 25327 C 2307.45 -1.22644 1.59877 0
M  V30 25328 O 2306.51 -2.00945 1.52896 0
M  V30 25329 C 2307.82 0.942003 2.85564 0
M  V30 25330 C 2309.37 0.917902 2.99238 0
M  V30 25331 C 2309.84 1.5689 4.3029 0
M  V30 25332 N 2311.34 1.53438 4.37048 0
M  V30 25333 C 2312.07 2.00724 5.3712 0
M  V30 25334 N 2311.57 2.56095 6.43729 0
M  V30 25335 N 2313.36 1.91493 5.28476 0
M  V30 25336 H 2305.51 1.57968 1.41985 0
M  V30 25337 H 2307.77 0.661727 0.678838 0
M  V30 25338 H 2307.48 1.99638 2.89547 0
M  V30 25339 H 2307.35 0.465162 3.74321 0
M  V30 25340 H 2309.74 -0.127932 2.94823 0
M  V30 25341 H 2309.82 1.43301 2.11893 0
M  V30 25342 H 2309.47 2.61406 4.35465 0
M  V30 25343 H 2309.4 1.02882 5.16452 0
M  V30 25344 H 2311.89 1.12988 3.60613 0
M  V30 25345 H 2312.2 2.8997 7.16336 0
M  V30 25346 H 2310.54 2.60134 6.44481 0
M  V30 25347 H 2313.74 1.47975 4.44096 0
M  V30 25348 H 2313.91 2.28658 6.06316 0
M  V30 25349 N 2307.31 -1.53743 0.34653 0
M  V30 25350 C 2308.73 -1.59599 -0.00528169 0
M  V30 25351 C 2308.93 -1.36239 -1.48463 0
M  V30 25352 O 2307.99 -1.15812 -2.24374 0
M  V30 25353 C 2309.3 -2.97558 0.433568 0
M  V30 25354 C 2310.85 -3.10609 0.386165 0
M  V30 25355 C 2311.32 -4.5095 0.80053 0
M  V30 25356 N 2312.81 -4.57008 0.754834 0
M  V30 25357 C 2313.55 -5.63753 1.04737 0
M  V30 25358 N 2313.04 -6.78337 1.40821 0
M  V30 25359 N 2314.84 -5.53642 0.971414 0
M  V30 25360 H 2306.99 -1.67182 1.31012 0
M  V30 25361 H 2309.25 -0.783118 0.534256 0
M  V30 25362 H 2308.96 -3.19729 1.46515 0
M  V30 25363 H 2308.83 -3.76723 -0.189687 0
M  V30 25364 H 2311.22 -2.8816 -0.636245 0
M  V30 25365 H 2311.3 -2.33496 1.04466 0
M  V30 25366 H 2310.94 -4.74134 1.82096 0
M  V30 25367 H 2310.87 -5.26464 0.119479 0
M  V30 25368 H 2313.36 -3.74726 0.488728 0
M  V30 25369 H 2313.68 -7.55711 1.6162 0
M  V30 25370 H 2312.02 -6.79776 1.44669 0
M  V30 25371 H 2315.21 -4.63004 0.688829 0
M  V30 25372 H 2315.39 -6.3674 1.20274 0
M  V30 25373 N 2308.79 -0.0752207 -1.5742 0
M  V30 25374 C 2310.2 0.456932 -1.81022 0
M  V30 25375 C 2310.55 1.69427 -0.989389 0
M  V30 25376 O 2309.68 2.1535 -0.212903 0
M  V30 25377 C 2310.27 0.835752 -3.2833 0
M  V30 25378 C 2308.83 1.31275 -3.52766 0
M  V30 25379 C 2307.98 0.2996 -2.75677 0
M  V30 25380 H 2310.93 -0.300883 -1.55822 0
M  V30 25381 H 2310.95 1.6969 -3.40567 0
M  V30 25382 H 2310.46 -0.064992 -3.88046 0
M  V30 25383 H 2308.57 2.23188 -2.98359 0
M  V30 25384 H 2308.68 1.28831 -4.61454 0
M  V30 25385 H 2307.04 0.777598 -2.4254 0
M  V30 25386 H 2307.83 -0.593477 -3.38131 0
M  V30 25387 N 2310.27 1.56347 0.198358 0
M  V30 25388 C 2311.2 1.90808 1.26984 0
M  V30 25389 C 2312.22 0.798444 1.41876 0
M  V30 25390 O 2313.4 1.07684 1.4236 0
M  V30 25391 C 2310.5 2.12201 2.64242 0
M  V30 25392 C 2309.68 3.43333 2.71001 0
M  V30 25393 C 2308.74 3.53877 3.89433 0
M  V30 25394 O 2307.76 4.26726 3.76688 0
M  V30 25395 N 2308.96 2.86724 5.04747 0
M  V30 25396 H 2311.73 2.83315 0.977383 0
M  V30 25397 H 2309.29 1.57175 0.388294 0
M  V30 25398 H 2311.28 2.16546 3.41892 0
M  V30 25399 H 2309.85 1.26209 2.8599 0
M  V30 25400 H 2309.07 3.50884 1.7965 0
M  V30 25401 H 2310.36 4.29673 2.72504 0
M  V30 25402 H 2309.76 2.27359 5.18 0
M  V30 25403 H 2308.32 2.96701 5.80355 0
M  V30 25404 N 2311.75 -0.465951 1.50554 0
M  V30 25405 C 2312.68 -1.5809 1.65952 0
M  V30 25406 C 2313.69 -1.53553 0.540854 0
M  V30 25407 O 2314.88 -1.58848 0.814215 0
M  V30 25408 C 2311.98 -2.9698 1.63267 0
M  V30 25409 C 2311.16 -3.26331 2.9125 0
M  V30 25410 C 2310.21 -4.44801 2.81138 0
M  V30 25411 O 2309.24 -4.44856 3.55094 0
M  V30 25412 N 2310.44 -5.46753 1.95042 0
M  V30 25413 H 2313.21 -1.45296 2.62124 0
M  V30 25414 H 2310.77 -0.654454 1.48083 0
M  V30 25415 H 2312.76 -3.7421 1.54108 0
M  V30 25416 H 2311.33 -3.03517 0.748086 0
M  V30 25417 H 2310.55 -2.37666 3.14497 0
M  V30 25418 H 2311.84 -3.42755 3.76028 0
M  V30 25419 H 2311.24 -5.49532 1.34279 0
M  V30 25420 H 2309.79 -6.22947 1.91783 0
M  V30 25421 N 2313.23 -1.40218 -0.719481 0
M  V30 25422 C 2314.14 -1.42483 -1.86375 0
M  V30 25423 C 2315.15 -0.317864 -1.71072 0
M  V30 25424 O 2316.33 -0.561828 -1.93405 0
M  V30 25425 C 2313.39 -1.28183 -3.22133 0
M  V30 25426 C 2312.45 -2.48988 -3.49719 0
M  V30 25427 C 2311.69 -2.35362 -4.79 0
M  V30 25428 O 2311.91 -1.36534 -5.53818 0
M  V30 25429 O 2310.84 -3.24659 -5.06834 0
M  V30 25430 H 2314.67 -2.38971 -1.87421 0
M  V30 25431 H 2312.26 -1.21499 -0.869384 0
M  V30 25432 H 2314.14 -1.22402 -4.03232 0
M  V30 25433 H 2312.81 -0.347991 -3.21824 0
M  V30 25434 H 2311.72 -2.60347 -2.68645 0
M  V30 25435 H 2313.05 -3.4112 -3.54822 0
M  V30 25436 N 2314.7 0.951297 -1.25651 0
M  V30 25437 C 2315.63 2.06597 -1.08812 0
M  V30 25438 C 2316.62 1.701 0.00379557 0
M  V30 25439 O 2317.8 1.93486 -0.166359 0
M  V30 25440 C 2314.93 3.39973 -0.709602 0
M  V30 25441 C 2313.88 3.90493 -1.75212 0
M  V30 25442 C 2313.21 5.20403 -1.2282 0
M  V30 25443 C 2314.51 4.16499 -3.1516 0
M  V30 25444 H 2316.2 2.20942 -2.02052 0
M  V30 25445 H 2313.75 1.06168 -0.972854 0
M  V30 25446 H 2315.7 4.17407 -0.578722 0
M  V30 25447 H 2314.43 3.25575 0.258499 0
M  V30 25448 H 2313.09 3.15231 -1.8715 0
M  V30 25449 H 2312.73 5.02377 -0.250233 0
M  V30 25450 H 2312.43 5.55173 -1.92501 0
M  V30 25451 H 2313.96 6.0043 -1.10978 0
M  V30 25452 H 2315.37 4.8458 -3.06357 0
M  V30 25453 H 2313.77 4.62531 -3.82342 0
M  V30 25454 H 2314.84 3.22652 -3.61972 0
M  V30 25455 N 2316.18 1.07291 1.1544 0
M  V30 25456 C 2317.11 0.650624 2.19772 0
M  V30 25457 C 2318.13 -0.296544 1.60076 0
M  V30 25458 O 2319.32 -0.0859592 1.78293 0
M  V30 25459 C 2316.42 -0.0649803 3.38838 0
M  V30 25460 C 2315.59 0.898216 4.28078 0
M  V30 25461 C 2314.65 0.220019 5.2574 0
M  V30 25462 O 2313.67 0.860871 5.62652 0
M  V30 25463 N 2314.88 -1.03455 5.71207 0
M  V30 25464 H 2317.64 1.54812 2.56619 0
M  V30 25465 H 2315.2 0.957517 1.3055 0
M  V30 25466 H 2317.19 -0.529344 4.01223 0
M  V30 25467 H 2315.76 -0.864414 3.00411 0
M  V30 25468 H 2314.98 1.54171 3.62801 0
M  V30 25469 H 2316.27 1.55129 4.84574 0
M  V30 25470 H 2315.67 -1.57517 5.43328 0
M  V30 25471 H 2314.23 -1.44261 6.35635 0
M  V30 25472 N 2317.66 -1.32267 0.856927 0
M  V30 25473 C 2318.61 -2.3076 0.292027 0
M  V30 25474 C 2319.6 -1.58948 -0.585829 0
M  V30 25475 O 2320.81 -1.73664 -0.47338 0
M  V30 25476 H 2317.18 -0.748177 0.0757341 0
M  V30 25477 H 2319.15 -2.75893 1.13691 0
M  V30 25478 C 2317.9 -3.44045 -0.502809 0
M  V30 25479 H 2317.23 -3.99466 0.163398 0
M  V30 25480 H 2318.67 -4.15112 -0.863618 0
M  V30 25481 C 2317.13 -2.91508 -1.68893 0
M  V30 25482 O 2317.66 -2.89189 -2.78805 0
M  V30 25483 N 2315.86 -2.47877 -1.51675 0
M  V30 25484 H 2315.41 -2.49962 -0.622622 0
M  V30 25485 H 2315.37 -2.1308 -2.3118 0
M  V30 25486 N 2319.14 -0.615084 -1.45102 0
M  V30 25487 C 2320.07 0.13758 -2.28787 0
M  V30 25488 C 2321.08 0.8245 -1.40377 0
M  V30 25489 O 2322.27 0.688633 -1.64682 0
M  V30 25490 C 2319.37 1.21623 -3.16324 0
M  V30 25491 C 2318.55 0.614963 -4.33055 0
M  V30 25492 C 2317.6 1.58547 -5.01746 0
M  V30 25493 O 2316.63 1.10885 -5.58295 0
M  V30 25494 N 2317.83 2.9199 -5.01719 0
M  V30 25495 H 2320.6 -0.580535 -2.94024 0
M  V30 25496 H 2318.16 -0.455097 -1.55372 0
M  V30 25497 H 2320.15 1.86545 -3.59142 0
M  V30 25498 H 2318.72 1.83677 -2.52946 0
M  V30 25499 H 2317.94 -0.212519 -3.93627 0
M  V30 25500 H 2319.23 0.193615 -5.08431 0
M  V30 25501 H 2318.63 3.33308 -4.5708 0
M  V30 25502 H 2317.18 3.52315 -5.48377 0
M  V30 25503 N 2320.62 1.53557 -0.354678 0
M  V30 25504 C 2321.86 2.03002 0.238615 0
M  V30 25505 C 2322.22 1.23659 1.46876 0
M  V30 25506 O 2323.42 1.63057 2.13696 0
M  V30 25507 C 2321.69 3.53386 0.534113 0
M  V30 25508 S 2323.25 4.2472 1.10263 0
M  V30 25509 H 2320.07 0.707518 0.0702784 0
M  V30 25510 H 2322.67 1.89129 -0.49502 0
M  V30 25511 H 2321.38 4.08739 -0.368837 0
M  V30 25512 H 2320.91 3.71401 1.29712 0
M  V30 25513 H 2322.92 4.34978 2.38764 0
M  V30 25514 N 2322.1 0.083568 1.57378 0
M  V30 25515 C 2323.34 -0.582464 1.93107 0
M  V30 25516 C 2323.66 -1.70051 0.96654 0
M  V30 25517 O 2324.86 -2.42691 1.2171 0
M  V30 25518 C 2323.32 -1.08745 3.43078 0
M  V30 25519 C 2322.93 0.000225151 4.48 0
M  V30 25520 C 2324.67 -1.72687 3.87788 0
M  V30 25521 C 2322.58 -0.519464 5.89114 0
M  V30 25522 H 2321.51 -0.221345 0.720779 0
M  V30 25523 H 2324.16 0.157707 1.82821 0
M  V30 25524 H 2322.54 -1.88095 3.48477 0
M  V30 25525 H 2323.72 0.775279 4.54231 0
M  V30 25526 H 2322.03 0.544133 4.12829 0
M  V30 25527 H 2324.63 -2.12621 4.90608 0
M  V30 25528 H 2324.97 -2.59152 3.258 0
M  V30 25529 H 2325.5 -0.999389 3.85042 0
M  V30 25530 H 2322.24 0.308301 6.54775 0
M  V30 25531 H 2321.76 -1.26178 5.86378 0
M  V30 25532 H 2323.44 -0.992125 6.39348 0
M  V30 25533 N 2323.57 -1.5645 -0.190064 0
M  V30 25534 C 2324.52 -1.94944 -1.23553 0
M  V30 25535 C 2325.49 -0.810722 -1.44971 0
M  V30 25536 O 2326.68 -1.0693 -1.58021 0
M  V30 25537 C 2323.82 -2.29854 -2.57412 0
M  V30 25538 C 2322.93 -3.56815 -2.43531 0
M  V30 25539 C 2322.06 -3.81024 -3.70128 0
M  V30 25540 C 2321.1 -5.01393 -3.511 0
M  V30 25541 N 2320.24 -5.2183 -4.69721 0
M  V30 25542 H 2325.08 -2.84076 -0.900254 0
M  V30 25543 H 2322.62 -1.40578 -0.433155 0
M  V30 25544 H 2324.57 -2.48112 -3.35404 0
M  V30 25545 H 2323.2 -1.43857 -2.88973 0
M  V30 25546 H 2322.26 -3.46576 -1.5681 0
M  V30 25547 H 2323.57 -4.44964 -2.25407 0
M  V30 25548 H 2322.72 -3.99548 -4.56559 0
M  V30 25549 H 2321.46 -2.91214 -3.9121 0
M  V30 25550 H 2320.47 -4.82786 -2.63054 0
M  V30 25551 H 2321.69 -5.92716 -3.31458 0
M  V30 25552 H 2319.64 -4.34969 -4.91058 0
M  V30 25553 H 2319.55 -6.04168 -4.54442 0
M  V30 25554 H 2320.82 -5.44817 -5.57489 0
M  V30 25555 N 2325.05 0.45796 -1.50799 0
M  V30 25556 C 2326.01 1.53671 -1.70053 0
M  V30 25557 C 2327.01 1.50324 -0.570908 0
M  V30 25558 O 2328.2 1.52711 -0.838153 0
M  V30 25559 C 2325.34 2.93273 -1.73793 0
M  V30 25560 H 2326.53 1.37912 -2.66309 0
M  V30 25561 H 2324.08 0.685246 -1.40478 0
M  V30 25562 H 2324.82 3.14461 -0.792773 0
M  V30 25563 H 2324.6 2.97108 -2.55869 0
M  V30 25564 H 2326.09 3.71567 -1.90598 0
M  V30 25565 N 2326.53 1.40598 0.712035 0
M  V30 25566 C 2327.48 1.41324 1.84744 0
M  V30 25567 C 2328.47 0.293297 1.66842 0
M  V30 25568 O 2329.68 0.464511 1.73903 0
M  V30 25569 H 2326.05 0.44183 0.608515 0
M  V30 25570 H 2328.02 2.37048 1.81247 0
M  V30 25571 C 2326.77 1.2962 3.22636 0
M  V30 25572 H 2326.1 2.15077 3.37019 0
M  V30 25573 H 2327.54 1.34187 4.02206 0
M  V30 25574 C 2325.99 0.00679043 3.36899 0
M  V30 25575 O 2326.52 -0.954791 3.90188 0
M  V30 25576 N 2324.73 -0.0638816 2.9053 0
M  V30 25577 H 2324.28 0.719354 2.47352 0
M  V30 25578 H 2324.24 -0.926065 3.00452 0
M  V30 25579 N 2328.01 -0.94462 1.26153 0
M  V30 25580 C 2328.92 -2.07646 1.0918 0
M  V30 25581 C 2329.93 -1.7398 0.0262241 0
M  V30 25582 O 2331.11 -2.00091 0.229243 0
M  V30 25583 C 2328.17 -3.39078 0.722974 0
M  V30 25584 C 2327.24 -3.86549 1.86758 0
M  V30 25585 C 2326.47 -5.11708 1.51626 0
M  V30 25586 O 2326.69 -5.68878 0.416431 0
M  V30 25587 O 2325.63 -5.54135 2.34985 0
M  V30 25588 H 2329.45 -2.24872 2.04124 0
M  V30 25589 H 2327.04 -1.06098 1.05184 0
M  V30 25590 H 2328.92 -4.18056 0.529861 0
M  V30 25591 H 2327.59 -3.23099 -0.197102 0
M  V30 25592 H 2326.5 -3.08531 2.11564 0
M  V30 25593 H 2327.83 -4.07042 2.76726 0
M  V30 25594 N 2329.49 -1.07901 -1.1487 0
M  V30 25595 C 2330.9 -0.80563 -1.37774 0
M  V30 25596 C 2331.1 0.587521 -1.92744 0
M  V30 25597 O 2330.16 1.34525 -2.1368 0
M  V30 25598 C 2331.47 -1.88406 -2.34358 0
M  V30 25599 C 2333.02 -1.90947 -2.48009 0
M  V30 25600 C 2333.49 -2.97889 -3.47888 0
M  V30 25601 N 2334.98 -2.97028 -3.55428 0
M  V30 25602 C 2335.72 -3.76419 -4.32546 0
M  V30 25603 N 2335.22 -4.65676 -5.1295 0
M  V30 25604 N 2337.01 -3.64743 -4.27691 0
M  V30 25605 H 2329.16 -1.97743 -0.77533 0
M  V30 25606 H 2331.42 -0.857839 -0.403506 0
M  V30 25607 H 2331.13 -2.88538 -2.01093 0
M  V30 25608 H 2331 -1.74895 -3.34203 0
M  V30 25609 H 2333.39 -0.914628 -2.80568 0
M  V30 25610 H 2333.47 -2.08536 -1.48143 0
M  V30 25611 H 2333.11 -3.97576 -3.16062 0
M  V30 25612 H 2333.04 -2.77546 -4.47522 0
M  V30 25613 H 2335.54 -2.32332 -2.98044 0
M  V30 25614 H 2335.85 -5.22872 -5.69056 0
M  V30 25615 H 2334.19 -4.69721 -5.12237 0
M  V30 25616 H 2337.38 -2.94385 -3.63944 0
M  V30 25617 H 2337.56 -4.26856 -4.87542 0
M  V30 25618 N 2330.96 1.31811 -0.863929 0
M  V30 25619 C 2332.2 1.98725 -0.478285 0
M  V30 25620 C 2332.57 1.66829 0.950368 0
M  V30 25621 O 2333.77 2.26908 1.44105 0
M  V30 25622 C 2332.04 3.50048 -0.721195 0
M  V30 25623 S 2333.6 4.36643 -0.434509 0
M  V30 25624 H 2330.42 0.688155 -0.178785 0
M  V30 25625 H 2333.02 1.60332 -1.11865 0
M  V30 25626 H 2331.72 3.70752 -1.75987 0
M  V30 25627 H 2331.25 3.93342 -0.0676007 0
M  V30 25628 H 2333.27 4.90716 0.7357 0
M  V30 25629 N 2332.44 0.62277 1.44773 0
M  V30 25630 C 2333.69 0.132606 2.02967 0
M  V30 25631 C 2334.04 -1.22879 1.48049 0
M  V30 25632 O 2333.34 -1.80178 0.651657 0
M  V30 25633 C 2333.53 0.0508952 3.57364 0
M  V30 25634 C 2333.36 1.40282 4.2726 0
M  V30 25635 C 2332.13 1.98745 4.64573 0
M  V30 25636 C 2334.33 2.33488 4.58244 0
M  V30 25637 N 2332.31 3.2726 5.19398 0
M  V30 25638 C 2333.68 3.46612 5.14063 0
M  V30 25639 C 2335.73 2.32672 4.40191 0
M  V30 25640 C 2334.44 4.59103 5.5373 0
M  V30 25641 C 2336.46 3.44221 4.80901 0
M  V30 25642 C 2335.83 4.56068 5.36826 0
M  V30 25643 H 2331.92 0.0922491 0.77654 0
M  V30 25644 H 2334.51 0.824441 1.76383 0
M  V30 25645 H 2332.68 -0.610198 3.83577 0
M  V30 25646 H 2334.41 -0.447326 4.0222 0
M  V30 25647 H 2331.17 1.51781 4.48619 0
M  V30 25648 H 2331.59 3.92942 5.51294 0
M  V30 25649 H 2336.23 1.47453 3.96254 0
M  V30 25650 H 2333.95 5.45036 5.96625 0
M  V30 25651 H 2337.54 3.44755 4.68653 0
M  V30 25652 H 2336.42 5.40957 5.67746 0
M  V30 25653 N 2333.92 -1.53367 0.362817 0
M  V30 25654 C 2334.88 -2.24274 -0.472639 0
M  V30 25655 C 2335.88 -1.24963 -1.01198 0
M  V30 25656 O 2337.07 -1.4926 -0.898168 0
M  V30 25657 C 2334.2 -2.97734 -1.66034 0
M  V30 25658 H 2335.4 -2.99536 0.147782 0
M  V30 25659 H 2332.95 -1.5588 0.114461 0
M  V30 25660 H 2333.69 -2.26708 -2.31892 0
M  V30 25661 H 2333.47 -3.70598 -1.28059 0
M  V30 25662 H 2334.96 -3.51645 -2.25246 0
M  V30 25663 N 2335.4 -0.091913 -1.57332 0
M  V30 25664 C 2336.36 0.853653 -2.1271 0
M  V30 25665 C 2337.36 1.21298 -1.05563 0
M  V30 25666 O 2338.55 1.14294 -1.31463 0
M  V30 25667 C 2335.68 2.15056 -2.64506 0
M  V30 25668 H 2336.88 0.372848 -2.97573 0
M  V30 25669 H 2334.43 0.157045 -1.55509 0
M  V30 25670 H 2335.16 2.67629 -1.83154 0
M  V30 25671 H 2334.95 1.90266 -3.42843 0
M  V30 25672 H 2336.44 2.82705 -3.07356 0
M  V30 25673 N 2336.88 1.56548 0.181765 0
M  V30 25674 C 2337.79 1.98817 1.24535 0
M  V30 25675 C 2338.8 0.897887 1.49044 0
M  V30 25676 O 2339.98 1.2047 1.61397 0
M  V30 25677 C 2337.04 2.33059 2.56679 0
M  V30 25678 C 2336.1 3.55863 2.40125 0
M  V30 25679 C 2335.34 3.88463 3.65968 0
M  V30 25680 O 2335.56 3.22169 4.70705 0
M  V30 25681 O 2334.49 4.81849 3.60701 0
M  V30 25682 H 2338.32 2.89538 0.916596 0
M  V30 25683 H 2335.91 1.44279 0.387817 0
M  V30 25684 H 2337.79 2.561 3.3465 0
M  V30 25685 H 2336.46 1.45503 2.89155 0
M  V30 25686 H 2335.37 3.38054 1.6022 0
M  V30 25687 H 2336.7 4.43928 2.12578 0
M  V30 25688 N 2338.35 -0.449957 1.5104 0
M  V30 25689 C 2339.58 -1.2278 1.67152 0
M  V30 25690 C 2340 -1.84562 0.363114 0
M  V30 25691 O 2339.36 -1.6825 -0.675403 0
M  V30 25692 C 2339.41 -2.29684 2.77989 0
M  V30 25693 O 2338.51 -3.3486 2.40713 0
M  V30 25694 H 2337.86 -0.360289 0.557753 0
M  V30 25695 H 2340.39 -0.532971 1.97536 0
M  V30 25696 H 2340.4 -2.74667 3.01698 0
M  V30 25697 H 2339.07 -1.84091 3.72939 0
M  V30 25698 H 2337.65 -2.95441 2.27529 0
M  V30 25699 N 2339.83 -1.40974 -0.704569 0
M  V30 25700 C 2341.24 -1.35523 -1.28415 0
M  V30 25701 C 2341.59 -0.0339779 -1.96171 0
M  V30 25702 O 2340.72 0.867909 -1.98233 0
M  V30 25703 C 2341.31 -2.45463 -2.33524 0
M  V30 25704 C 2339.87 -2.43438 -2.8708 0
M  V30 25705 C 2339.02 -2.25773 -1.61003 0
M  V30 25706 H 2341.97 -1.5062 -0.499936 0
M  V30 25707 H 2341.99 -2.14004 -3.14615 0
M  V30 25708 H 2341.5 -3.41612 -1.84181 0
M  V30 25709 H 2339.61 -1.51019 -3.40623 0
M  V30 25710 H 2339.72 -3.39425 -3.38124 0
M  V30 25711 H 2338.08 -1.73486 -1.86479 0
M  V30 25712 H 2338.87 -3.23935 -1.13669 0
M  V30 25713 N 2341.31 0.937917 -1.26653 0
M  V30 25714 C 2342.22 2.07064 -1.10279 0
M  V30 25715 C 2343.24 1.73964 -0.0354503 0
M  V30 25716 O 2344.41 1.99967 -0.239851 0
M  V30 25717 C 2341.48 3.3869 -0.740946 0
M  V30 25718 C 2340.54 3.85553 -1.88806 0
M  V30 25719 C 2339.77 5.10897 -1.54338 0
M  V30 25720 O 2339.99 5.68649 -0.446594 0
M  V30 25721 O 2338.93 5.52881 -2.3792 0
M  V30 25722 H 2342.75 2.23786 -2.05313 0
M  V30 25723 H 2340.34 1.05538 -1.05745 0
M  V30 25724 H 2342.22 4.17769 -0.552024 0
M  V30 25725 H 2340.9 3.23199 0.179965 0
M  V30 25726 H 2339.8 3.07405 -2.13197 0
M  V30 25727 H 2341.14 4.05569 -2.78881 0
M  V30 25728 N 2342.79 1.08509 1.14296 0
M  V30 25729 C 2343.74 0.716003 2.19413 0
M  V30 25730 C 2344.71 -0.298297 1.634 0
M  V30 25731 O 2345.89 -0.182067 1.89929 0
M  V30 25732 C 2343.03 0.132594 3.44845 0
M  V30 25733 C 2342.14 1.1998 4.15005 0
M  V30 25734 C 2341.28 0.580141 5.28023 0
M  V30 25735 C 2340.32 1.62931 5.90017 0
M  V30 25736 N 2339.45 1.03137 6.94483 0
M  V30 25737 H 2344.29 1.6167 2.50333 0
M  V30 25738 H 2341.83 0.807904 1.22928 0
M  V30 25739 H 2343.79 -0.223381 4.16602 0
M  V30 25740 H 2342.42 -0.731412 3.14405 0
M  V30 25741 H 2341.47 1.67319 3.41626 0
M  V30 25742 H 2342.78 1.99481 4.57175 0
M  V30 25743 H 2341.94 0.172471 6.06455 0
M  V30 25744 H 2340.68 -0.246518 4.87077 0
M  V30 25745 H 2339.68 2.04663 5.10287 0
M  V30 25746 H 2340.91 2.45846 6.33037 0
M  V30 25747 H 2338.85 0.225826 6.55611 0
M  V30 25748 H 2338.77 1.76347 7.35145 0
M  V30 25749 H 2340.04 0.649594 7.76789 0
M  V30 25750 N 2344.27 -1.31351 0.870907 0
M  V30 25751 C 2345.18 -2.32256 0.330824 0
M  V30 25752 C 2346.19 -1.64751 -0.559738 0
M  V30 25753 O 2347.37 -1.96165 -0.456229 0
M  V30 25754 C 2344.43 -3.43661 -0.458076 0
M  V30 25755 C 2343.49 -4.26822 0.460557 0
M  V30 25756 C 2342.73 -5.32907 -0.290787 0
M  V30 25757 O 2342.95 -5.49809 -1.51875 0
M  V30 25758 O 2341.88 -6.00871 0.351837 0
M  V30 25759 H 2345.71 -2.80374 1.16723 0
M  V30 25760 H 2343.3 -1.35266 0.634309 0
M  V30 25761 H 2345.18 -4.11561 -0.905271 0
M  V30 25762 H 2343.85 -2.97703 -1.27101 0
M  V30 25763 H 2342.76 -3.61672 0.95627 0
M  V30 25764 H 2344.09 -4.76347 1.23911 0
M  V30 25765 N 2345.74 -0.630439 -1.44441 0
M  V30 25766 C 2346.65 0.0761281 -2.34476 0
M  V30 25767 C 2347.67 0.836423 -1.52578 0
M  V30 25768 O 2348.85 0.788842 -1.85309 0
M  V30 25769 C 2345.91 1.04593 -3.30547 0
M  V30 25770 C 2344.97 0.285085 -4.28352 0
M  V30 25771 C 2344.21 1.20869 -5.19833 0
M  V30 25772 O 2344.43 2.44738 -5.15228 0
M  V30 25773 O 2343.36 0.693386 -5.97893 0
M  V30 25774 H 2347.19 -0.664376 -2.96344 0
M  V30 25775 H 2344.77 -0.390635 -1.44203 0
M  V30 25776 H 2346.66 1.60389 -3.89684 0
M  V30 25777 H 2345.33 1.76706 -2.71213 0
M  V30 25778 H 2344.24 -0.315903 -3.72764 0
M  V30 25779 H 2345.57 -0.39601 -4.90604 0
M  V30 25780 N 2347.22 1.53172 -0.370945 0
M  V30 25781 C 2348.13 2.29621 0.480783 0
M  V30 25782 C 2349.15 1.358 1.08786 0
M  V30 25783 O 2350.32 1.6886 1.09765 0
M  V30 25784 C 2347.39 3.07457 1.60222 0
M  V30 25785 C 2346.45 4.16955 1.02212 0
M  V30 25786 C 2345.68 4.9107 2.09012 0
M  V30 25787 O 2345.91 4.65097 3.30214 0
M  V30 25788 O 2344.84 5.7687 1.71768 0
M  V30 25789 H 2348.67 3.0337 -0.141474 0
M  V30 25790 H 2346.25 1.48787 -0.135172 0
M  V30 25791 H 2348.13 3.56045 2.2541 0
M  V30 25792 H 2346.81 2.36539 2.20978 0
M  V30 25793 H 2345.72 3.72606 0.333998 0
M  V30 25794 H 2347.05 4.90055 0.459044 0
M  V30 25795 N 2348.7 0.100255 1.57281 0
M  V30 25796 C 2350.12 -0.256388 1.57527 0
M  V30 25797 C 2350.32 -1.68054 1.11176 0
M  V30 25798 O 2349.37 -2.39805 0.790572 0
M  V30 25799 C 2350.69 -0.0401218 3.00673 0
M  V30 25800 C 2352.23 -0.107473 3.12815 0
M  V30 25801 C 2352.71 0.0808639 4.57929 0
M  V30 25802 N 2354.2 0.0262021 4.63193 0
M  V30 25803 C 2354.93 0.1471 5.73211 0
M  V30 25804 N 2354.43 0.323121 6.92046 0
M  V30 25805 N 2356.22 0.0880032 5.62031 0
M  V30 25806 H 2348.37 1.03069 1.85717 0
M  V30 25807 H 2350.64 0.404354 0.857439 0
M  V30 25808 H 2350.34 0.943709 3.38802 0
M  V30 25809 H 2350.22 -0.780198 3.69043 0
M  V30 25810 H 2352.6 -1.08181 2.74556 0
M  V30 25811 H 2352.69 0.664177 2.47027 0
M  V30 25812 H 2352.33 1.05209 4.96884 0
M  V30 25813 H 2352.26 -0.710543 5.21784 0
M  V30 25814 H 2354.75 -0.107095 3.77748 0
M  V30 25815 H 2355.06 0.406744 7.71729 0
M  V30 25816 H 2353.41 0.358855 6.94073 0
M  V30 25817 H 2356.6 -0.0484157 4.68075 0
M  V30 25818 H 2356.77 0.185671 6.47734 0
M  V30 25819 N 2350.18 -1.56643 -0.17346 0
M  V30 25820 C 2351.09 -1.99475 -1.23479 0
M  V30 25821 C 2352.11 -0.905778 -1.48565 0
M  V30 25822 O 2353.28 -1.21324 -1.60756 0
M  V30 25823 C 2350.35 -2.34417 -2.5544 0
M  V30 25824 C 2349.41 -3.57131 -2.38234 0
M  V30 25825 C 2348.64 -3.90398 -3.63903 0
M  V30 25826 O 2348.86 -3.24661 -4.6899 0
M  V30 25827 O 2347.8 -4.83755 -3.58141 0
M  V30 25828 H 2351.62 -2.9002 -0.901228 0
M  V30 25829 H 2349.21 -1.44482 -0.38016 0
M  V30 25830 H 2351.09 -2.57871 -3.33287 0
M  V30 25831 H 2349.77 -1.47035 -2.88379 0
M  V30 25832 H 2348.67 -3.38899 -1.58425 0
M  V30 25833 H 2350.01 -4.45049 -2.1022 0
M  V30 25834 N 2351.66 0.44194 -1.51277 0
M  V30 25835 C 2353.07 1.02196 -1.56246 0
M  V30 25836 C 2353.42 1.92422 -0.383183 0
M  V30 25837 O 2352.54 2.10531 0.500576 0
M  V30 25838 C 2353.14 1.86019 -2.83165 0
M  V30 25839 C 2351.7 2.39079 -2.9072 0
M  V30 25840 C 2350.85 1.18171 -2.5086 0
M  V30 25841 H 2353.8 0.223389 -1.5712 0
M  V30 25842 H 2353.82 2.7142 -2.66667 0
M  V30 25843 H 2353.33 1.20325 -3.68976 0
M  V30 25844 H 2351.43 3.08241 -2.09328 0
M  V30 25845 H 2351.54 2.72191 -3.9427 0
M  V30 25846 H 2349.91 1.52561 -2.03954 0
M  V30 25847 H 2350.69 0.540942 -3.39011 0
M  V30 25848 N 2353.14 1.41345 0.697083 0
M  V30 25849 C 2354.1 1.42801 1.79278 0
M  V30 25850 C 2355.1 0.318865 1.57607 0
M  V30 25851 O 2356.29 0.578671 1.64308 0
M  V30 25852 C 2353.42 1.2379 3.1763 0
M  V30 25853 H 2354.61 2.40338 1.79381 0
M  V30 25854 H 2352.17 1.27465 0.90456 0
M  V30 25855 H 2352.9 0.270871 3.23167 0
M  V30 25856 H 2352.69 2.0415 3.34761 0
M  V30 25857 H 2354.18 1.2764 3.97615 0
M  V30 25858 N 2354.61 -0.931187 1.27148 0
M  V30 25859 C 2355.58 -2.01287 1.09618 0
M  V30 25860 C 2356.58 -1.60747 0.0412864 0
M  V30 25861 O 2357.77 -1.71843 0.285575 0
M  V30 25862 C 2354.9 -3.34261 0.669505 0
M  V30 25863 H 2356.09 -2.18269 2.05666 0
M  V30 25864 H 2353.64 -1.11151 1.09887 0
M  V30 25865 H 2354.38 -3.22978 -0.292515 0
M  V30 25866 H 2354.16 -3.65042 1.43133 0
M  V30 25867 H 2355.65 -4.13705 0.568994 0
M  V30 25868 N 2356.09 -1.09114 -1.13719 0
M  V30 25869 C 2357.04 -0.722258 -2.21102 0
M  V30 25870 C 2358.03 0.275344 -1.67147 0
M  V30 25871 O 2359.24 0.137144 -1.79477 0
M  V30 25872 H 2355.61 -0.215565 -0.720441 0
M  V30 25873 H 2357.59 -1.63714 -2.4948 0
M  V30 25874 C 2356.33 -0.155491 -3.47352 0
M  V30 25875 H 2355.66 -0.914314 -3.89205 0
M  V30 25876 H 2357.1 0.0647221 -4.23951 0
M  V30 25877 C 2355.56 1.10847 -3.18142 0
M  V30 25878 O 2356.09 2.19221 -3.36608 0
M  V30 25879 N 2354.29 1.02171 -2.72047 0
M  V30 25880 H 2353.84 0.139719 -2.57221 0
M  V30 25881 H 2353.8 1.86815 -2.52878 0
M  V30 25882 N 2357.57 1.30887 -0.877861 0
M  V30 25883 C 2358.98 1.78592 -0.544224 0
M  V30 25884 C 2359.33 1.72256 0.939271 0
M  V30 25885 O 2358.46 1.29508 1.73368 0
M  V30 25886 C 2359.05 3.24283 -0.981107 0
M  V30 25887 C 2357.61 3.69853 -0.699 0
M  V30 25888 C 2356.76 2.51499 -1.16805 0
M  V30 25889 H 2359.71 1.17857 -1.0628 0
M  V30 25890 H 2359.73 3.79259 -0.307076 0
M  V30 25891 H 2359.24 3.28863 -2.06085 0
M  V30 25892 H 2357.34 3.70768 0.369046 0
M  V30 25893 H 2357.46 4.61641 -1.28156 0
M  V30 25894 H 2355.82 2.4783 -0.587578 0
M  V30 25895 H 2356.6 2.5882 -2.25537 0
M  V30 25896 N 2359.05 0.638091 1.44105 0
M  V30 25897 C 2360.28 0.15243 2.06037 0
M  V30 25898 C 2360.69 -1.18105 1.4781 0
M  V30 25899 O 2360.03 -1.7369 0.598123 0
M  V30 25900 C 2360.09 -0.0293082 3.59488 0
M  V30 25901 C 2359.75 1.2271 4.40217 0
M  V30 25902 C 2360.75 2.1524 4.73252 0
M  V30 25903 C 2358.44 1.46446 4.80478 0
M  V30 25904 C 2360.43 3.29811 5.45439 0
M  V30 25905 C 2358.12 2.61313 5.52412 0
M  V30 25906 C 2359.12 3.52822 5.84813 0
M  V30 25907 O 2358.8 4.65685 6.55281 0
M  V30 25908 H 2358.54 0.0801518 0.671231 0
M  V30 25909 H 2361.09 0.874596 1.85849 0
M  V30 25910 H 2359.32 -0.806692 3.78192 0
M  V30 25911 H 2361.01 -0.470404 4.03165 0
M  V30 25912 H 2361.77 1.98139 4.4268 0
M  V30 25913 H 2357.65 0.761056 4.54675 0
M  V30 25914 H 2361.2 4.01259 5.70646 0
M  V30 25915 H 2357.09 2.78354 5.824 0
M  V30 25916 H 2357.86 4.64756 6.73754 0
M  V30 25917 N 2360.53 -1.52973 0.379063 0
M  V30 25918 C 2361.8 -1.93818 -0.263445 0
M  V30 25919 C 2362.18 -1.31371 -1.65242 0
M  V30 25920 O 2361.53 -0.477895 -2.23447 0
M  V30 25921 C 2361.74 -3.47707 -0.300105 0
M  V30 25922 C 2363.09 -4.21229 -0.533987 0
M  V30 25923 O 2364.11 -3.54159 -0.380748 0
M  V30 25924 O 2362.97 -5.40108 -0.833407 0
M  V30 25925 H 2360.07 -0.81115 -0.161134 0
M  V30 25926 H 2362.61 -1.64087 0.432827 0
M  V30 25927 H 2361.38 -3.85465 0.673206 0
M  V30 25928 H 2361.01 -3.83711 -1.04172 0
M  V30 25929 N 2362 -0.108595 -1.57225 0
M  V30 25930 C 2363.25 0.551909 -1.94834 0
M  V30 25931 C 2363.58 1.67346 -0.991233 0
M  V30 25932 O 2362.83 1.95696 -0.0132222 0
M  V30 25933 C 2363.13 1.13457 -3.38913 0
M  V30 25934 C 2362.8 0.13543 -4.50697 0
M  V30 25935 C 2361.46 -0.139336 -4.80998 0
M  V30 25936 C 2363.81 -0.546048 -5.18332 0
M  V30 25937 C 2361.14 -1.10204 -5.76257 0
M  V30 25938 C 2363.49 -1.49732 -6.14624 0
M  V30 25939 C 2362.16 -1.78018 -6.43324 0
M  V30 25940 H 2361.43 0.201958 -0.712947 0
M  V30 25941 H 2364.07 -0.187294 -1.90582 0
M  V30 25942 H 2362.38 1.95031 -3.39809 0
M  V30 25943 H 2364.08 1.65355 -3.6532 0
M  V30 25944 H 2360.67 0.359771 -4.27087 0
M  V30 25945 H 2364.85 -0.346929 -4.95086 0
M  V30 25946 H 2360.11 -1.32805 -5.96802 0
M  V30 25947 H 2364.28 -2.03111 -6.66122 0
M  V30 25948 H 2361.91 -2.52771 -7.16945 0
M  V30 25949 N 2363.48 1.56732 0.16515 0
M  V30 25950 C 2364.9 1.50989 0.517148 0
M  V30 25951 C 2365.1 0.813926 1.8433 0
M  V30 25952 O 2364.15 0.376864 2.49672 0
M  V30 25953 C 2365.47 2.95734 0.544209 0
M  V30 25954 C 2367.01 3.06574 0.630985 0
M  V30 25955 C 2367.49 4.5279 0.688881 0
M  V30 25956 N 2368.98 4.57061 0.751602 0
M  V30 25957 C 2369.72 5.67549 0.817077 0
M  V30 25958 N 2369.21 6.87652 0.843008 0
M  V30 25959 N 2371 5.55535 0.856571 0
M  V30 25960 H 2363.16 2.00381 -0.704353 0
M  V30 25961 H 2365.42 0.913143 -0.254703 0
M  V30 25962 H 2365.12 3.49835 -0.361668 0
M  V30 25963 H 2365 3.50713 1.38854 0
M  V30 25964 H 2367.39 2.52503 1.52729 0
M  V30 25965 H 2367.47 2.5467 -0.24014 0
M  V30 25966 H 2367.11 5.07493 -0.203189 0
M  V30 25967 H 2367.04 5.02456 1.57624 0
M  V30 25968 H 2369.53 3.70592 0.739596 0
M  V30 25969 H 2369.84 7.67608 0.894313 0
M  V30 25970 H 2368.19 6.9025 0.811183 0
M  V30 25971 H 2371.38 4.60622 0.833356 0
M  V30 25972 H 2371.55 6.41661 0.904134 0
M  V30 25973 N 2364.96 -0.433911 1.51509 0
M  V30 25974 C 2366.38 -0.770658 1.39761 0
M  V30 25975 C 2366.58 -1.95635 0.482628 0
M  V30 25976 O 2365.63 -2.52426 -0.0609248 0
M  V30 25977 C 2366.95 -1.04782 2.81853 0
M  V30 25978 C 2368.49 -1.15204 2.91027 0
M  V30 25979 C 2368.97 -1.46212 4.34035 0
M  V30 25980 N 2370.46 -1.53129 4.37157 0
M  V30 25981 C 2371.19 -1.78699 5.44843 0
M  V30 25982 N 2370.69 -2.02039 6.62685 0
M  V30 25983 N 2372.48 -1.8051 5.32328 0
M  V30 25984 H 2364.63 0.346929 2.09548 0
M  V30 25985 H 2366.9 0.092824 0.943445 0
M  V30 25986 H 2366.6 -0.249242 3.50816 0
M  V30 25987 H 2366.48 -1.97456 3.21389 0
M  V30 25988 H 2368.86 -1.94124 2.22261 0
M  V30 25989 H 2368.95 -0.204236 2.54983 0
M  V30 25990 H 2368.59 -0.678185 5.03352 0
M  V30 25991 H 2368.52 -2.42204 4.67595 0
M  V30 25992 H 2371.01 -1.36981 3.522 0
M  V30 25993 H 2371.32 -2.2093 7.40547 0
M  V30 25994 H 2369.67 -1.99354 6.65795 0
M  V30 25995 H 2372.86 -1.61797 4.39249 0
M  V30 25996 H 2373.03 -2.001 6.16331 0
M  V30 25997 N 2366.44 -1.41713 -0.689577 0
M  V30 25998 C 2367.37 -1.4681 -1.81574 0
M  V30 25999 C 2368.35 -0.326134 -1.66944 0
M  V30 26000 O 2369.53 -0.53841 -1.86587 0
M  V30 26001 C 2366.66 -1.35541 -3.19759 0
M  V30 26002 C 2365.62 -2.47611 -3.49103 0
M  V30 26003 C 2364.94 -2.21405 -4.86707 0
M  V30 26004 C 2366.24 -3.89945 -3.47477 0
M  V30 26005 H 2367.94 -2.41061 -1.77566 0
M  V30 26006 H 2365.48 -1.16027 -0.852866 0
M  V30 26007 H 2367.44 -1.37717 -3.98261 0
M  V30 26008 H 2366.16 -0.377765 -3.24408 0
M  V30 26009 H 2364.82 -2.44727 -2.72955 0
M  V30 26010 H 2364.47 -1.21969 -4.87988 0
M  V30 26011 H 2364.17 -2.96506 -5.07304 0
M  V30 26012 H 2365.69 -2.25307 -5.67511 0
M  V30 26013 H 2367.11 -3.94512 -4.15973 0
M  V30 26014 H 2365.5 -4.64778 -3.79607 0
M  V30 26015 H 2366.57 -4.1767 -2.46333 0
M  V30 26016 N 2367.92 0.924431 -1.2764 0
M  V30 26017 C 2368.85 2.04242 -1.1317 0
M  V30 26018 C 2369.83 1.70069 -0.0322859 0
M  V30 26019 O 2371.01 1.9309 -0.207362 0
M  V30 26020 C 2368.14 3.38392 -0.781556 0
M  V30 26021 C 2367.1 3.86688 -1.83456 0
M  V30 26022 C 2366.42 5.17681 -1.33831 0
M  V30 26023 C 2367.72 4.0972 -3.23924 0
M  V30 26024 H 2369.42 2.16607 -2.06693 0
M  V30 26025 H 2366.96 1.0408 -0.995155 0
M  V30 26026 H 2368.92 4.16086 -0.66713 0
M  V30 26027 H 2367.64 3.2605 0.189381 0
M  V30 26028 H 2366.3 3.1119 -1.93794 0
M  V30 26029 H 2365.95 5.01733 -0.356738 0
M  V30 26030 H 2365.65 5.50965 -2.04234 0
M  V30 26031 H 2367.17 5.97941 -1.23689 0
M  V30 26032 H 2368.58 4.77973 -3.16567 0
M  V30 26033 H 2366.98 4.54317 -3.92067 0
M  V30 26034 H 2368.05 3.14901 -3.68735 0
M  V30 26035 N 2369.39 1.09715 1.13139 0
M  V30 26036 C 2370.81 0.827447 1.36475 0
M  V30 26037 C 2371.01 -0.556783 1.93655 0
M  V30 26038 O 2370.07 -1.31108 2.15794 0
M  V30 26039 C 2371.38 1.9211 2.31331 0
M  V30 26040 C 2372.93 1.94868 2.4494 0
M  V30 26041 C 2373.4 3.03386 3.43105 0
M  V30 26042 N 2374.89 3.02645 3.50657 0
M  V30 26043 C 2375.63 3.83253 4.26503 0
M  V30 26044 N 2375.12 4.73777 5.05477 0
M  V30 26045 N 2376.92 3.71501 4.21834 0
M  V30 26046 H 2369.07 1.98952 0.743772 0
M  V30 26047 H 2371.33 0.864149 0.389807 0
M  V30 26048 H 2371.04 2.91701 1.96478 0
M  V30 26049 H 2370.91 1.8019 3.31378 0
M  V30 26050 H 2373.3 0.959148 2.79078 0
M  V30 26051 H 2373.38 2.10867 1.44807 0
M  V30 26052 H 2373.02 4.02554 3.09697 0
M  V30 26053 H 2372.95 2.8463 4.4305 0
M  V30 26054 H 2375.44 2.37044 2.9431 0
M  V30 26055 H 2375.76 5.31859 5.60665 0
M  V30 26056 H 2374.1 4.77811 5.04699 0
M  V30 26057 H 2377.29 3.00137 3.59215 0
M  V30 26058 H 2377.47 4.34559 4.8069 0
M  V30 26059 N 2370.87 -1.30419 0.88479 0
M  V30 26060 C 2371.82 -2.28136 0.349682 0
M  V30 26061 C 2372.79 -1.56374 -0.560034 0
M  V30 26062 O 2373.97 -1.84441 -0.488492 0
M  V30 26063 C 2371.11 -3.42411 -0.429929 0
M  V30 26064 C 2370.23 -4.28991 0.508983 0
M  V30 26065 C 2369.36 -5.30428 -0.286208 0
M  V30 26066 C 2368.4 -6.08658 0.648186 0
M  V30 26067 N 2367.54 -7.02011 -0.111669 0
M  V30 26068 H 2372.38 -2.73291 1.18811 0
M  V30 26069 H 2369.92 -1.34429 0.597255 0
M  V30 26070 H 2371.87 -4.07424 -0.897851 0
M  V30 26071 H 2370.5 -2.98326 -1.23294 0
M  V30 26072 H 2369.56 -3.64287 1.09539 0
M  V30 26073 H 2370.87 -4.83528 1.22484 0
M  V30 26074 H 2370.02 -6.01188 -0.815992 0
M  V30 26075 H 2368.76 -4.76585 -1.03528 0
M  V30 26076 H 2367.77 -5.36776 1.1896 0
M  V30 26077 H 2368.99 -6.64589 1.39635 0
M  V30 26078 H 2366.94 -6.50557 -0.843281 0
M  V30 26079 H 2366.85 -7.54036 0.544561 0
M  V30 26080 H 2368.12 -7.77013 -0.622202 0
M  V30 26081 N 2372.35 -0.645724 -1.43764 0
M  V30 26082 C 2373.58 -0.163592 -2.06252 0
M  V30 26083 C 2373.99 1.16775 -1.48354 0
M  V30 26084 O 2373.35 1.71934 -0.611963 0
M  V30 26085 C 2373.4 -0.0583822 -3.61453 0
M  V30 26086 O 2373.12 -1.33709 -4.17197 0
M  V30 26087 C 2374.62 0.450718 -4.41003 0
M  V30 26088 H 2371.84 -0.0864194 -0.665412 0
M  V30 26089 H 2374.39 -0.884254 -1.84394 0
M  V30 26090 H 2372.54 0.612798 -3.82523 0
M  V30 26091 H 2372.96 -1.1914 -5.10789 0
M  V30 26092 H 2374.43 0.473306 -5.49967 0
M  V30 26093 H 2374.91 1.4806 -4.13491 0
M  V30 26094 H 2375.51 -0.187712 -4.24886 0
M  V30 26095 N 2373.83 1.5277 -0.38717 0
M  V30 26096 C 2375.05 2.06449 0.198371 0
M  V30 26097 C 2375.48 1.25719 1.39916 0
M  V30 26098 O 2374.84 0.281688 1.79098 0
M  V30 26099 C 2374.88 3.56399 0.54883 0
M  V30 26100 O 2373.99 3.78255 1.64308 0
M  V30 26101 H 2373.33 0.663575 0.0237615 0
M  V30 26102 H 2375.86 1.96956 -0.554023 0
M  V30 26103 H 2375.87 3.99803 0.813742 0
M  V30 26104 H 2374.54 4.14596 -0.329078 0
M  V30 26105 H 2373.12 3.46741 1.37205 0
M  V30 26106 N 2375.31 0.116931 1.57166 0
M  V30 26107 C 2376.24 -0.864469 2.12272 0
M  V30 26108 C 2377.25 -1.23136 1.06496 0
M  V30 26109 O 2378.44 -1.18067 1.33875 0
M  V30 26110 C 2375.54 -2.16698 2.60567 0
M  V30 26111 C 2374.71 -1.97209 3.90419 0
M  V30 26112 C 2373.77 -3.1117 4.24334 0
M  V30 26113 O 2372.8 -2.84175 4.93187 0
M  V30 26114 N 2374 -4.37547 3.81488 0
M  V30 26115 H 2376.77 -0.393674 2.97103 0
M  V30 26116 H 2374.33 -0.0675521 1.61759 0
M  V30 26117 H 2376.32 -2.91927 2.80287 0
M  V30 26118 H 2374.89 -2.55132 1.80628 0
M  V30 26119 H 2374.11 -1.06185 3.79629 0
M  V30 26120 H 2375.4 -1.81491 4.7533 0
M  V30 26121 H 2374.79 -4.62355 3.25951 0
M  V30 26122 H 2373.35 -5.09654 4.0632 0
M  V30 26123 N 2376.78 -1.56818 -0.156836 0
M  V30 26124 C 2378.2 -1.51261 -0.509133 0
M  V30 26125 C 2378.4 -0.82369 -1.83896 0
M  V30 26126 O 2377.46 -0.390099 -2.49468 0
M  V30 26127 C 2378.77 -2.96019 -0.528518 0
M  V30 26128 C 2380.32 -3.06904 -0.614718 0
M  V30 26129 C 2380.79 -4.53149 -0.664858 0
M  V30 26130 N 2382.28 -4.57454 -0.727353 0
M  V30 26131 C 2383.02 -5.67974 -0.786967 0
M  V30 26132 N 2382.51 -6.88089 -0.806528 0
M  V30 26133 N 2384.31 -5.55982 -0.827097 0
M  V30 26134 H 2376.46 -2.00005 0.71497 0
M  V30 26135 H 2378.72 -0.911779 0.259542 0
M  V30 26136 H 2378.43 -3.49639 0.380216 0
M  V30 26137 H 2378.3 -3.51444 -1.36992 0
M  V30 26138 H 2380.69 -2.5331 -1.51387 0
M  V30 26139 H 2380.77 -2.54539 0.253642 0
M  V30 26140 H 2380.41 -5.07379 0.2301 0
M  V30 26141 H 2380.34 -5.03285 -1.54957 0
M  V30 26142 H 2382.83 -3.70979 -0.719933 0
M  V30 26143 H 2383.15 -7.68071 -0.853592 0
M  V30 26144 H 2381.49 -6.9067 -0.774566 0
M  V30 26145 H 2384.68 -4.61058 -0.808917 0
M  V30 26146 H 2384.86 -6.42132 -0.870093 0
M  V30 26147 N 2378.26 0.425871 -1.51737 0
M  V30 26148 C 2379.68 0.763235 -1.40167 0
M  V30 26149 C 2379.88 1.95376 -0.492996 0
M  V30 26150 O 2378.93 2.52455 0.0475371 0
M  V30 26151 C 2380.25 1.03286 -2.82405 0
M  V30 26152 C 2381.8 1.13659 -2.91634 0
M  V30 26153 C 2382.27 1.43908 -4.34804 0
M  V30 26154 N 2383.76 1.50808 -4.37962 0
M  V30 26155 C 2384.5 1.75807 -5.45783 0
M  V30 26156 N 2383.99 1.98522 -6.63748 0
M  V30 26157 N 2385.79 1.77684 -5.33277 0
M  V30 26158 H 2377.94 -0.358037 -2.09361 0
M  V30 26159 H 2380.2 -0.097826 -0.942939 0
M  V30 26160 H 2379.91 0.230634 -3.50943 0
M  V30 26161 H 2379.78 1.95749 -3.22432 0
M  V30 26162 H 2382.17 1.92943 -2.23287 0
M  V30 26163 H 2382.25 0.190711 -2.55088 0
M  V30 26164 H 2381.89 0.651482 -5.03704 0
M  V30 26165 H 2381.82 2.39721 -4.68872 0
M  V30 26166 H 2384.31 1.35111 -3.52921 0
M  V30 26167 H 2384.63 2.17 -7.41708 0
M  V30 26168 H 2382.97 1.95821 -6.66843 0
M  V30 26169 H 2386.16 1.59465 -4.401 0
M  V30 26170 H 2386.33 1.96829 -6.17384 0
M  V30 26171 N 2379.74 1.42077 0.682052 0
M  V30 26172 C 2381.16 1.24843 0.994302 0
M  V30 26173 C 2381.36 0.147424 2.0096 0
M  V30 26174 O 2380.41 -0.483739 2.47823 0
M  V30 26175 C 2381.73 2.60268 1.50602 0
M  V30 26176 C 2383.27 2.67563 1.62417 0
M  V30 26177 C 2383.75 4.03337 2.16987 0
M  V30 26178 N 2385.24 4.05254 2.2433 0
M  V30 26179 C 2385.97 5.07121 2.67612 0
M  V30 26180 N 2385.47 6.19374 3.104 0
M  V30 26181 N 2387.26 4.94479 2.67296 0
M  V30 26182 H 2379.41 2.12398 0.00970174 0
M  V30 26183 H 2381.68 0.945641 0.0668427 0
M  V30 26184 H 2381.38 3.41656 0.834523 0
M  V30 26185 H 2381.26 2.83689 2.48597 0
M  V30 26186 H 2383.64 1.86525 2.28675 0
M  V30 26187 H 2383.73 2.47938 0.629309 0
M  V30 26188 H 2383.37 4.84828 1.5134 0
M  V30 26189 H 2383.3 4.20309 3.1725 0
M  V30 26190 H 2385.79 3.24212 1.94152 0
M  V30 26191 H 2386.1 6.9296 3.42091 0
M  V30 26192 H 2384.45 6.2289 3.08275 0
M  V30 26193 H 2387.64 4.05861 2.33226 0
M  V30 26194 H 2387.81 5.74002 3.00708 0
M  V30 26195 N 2381.22 -0.917649 1.28129 0
M  V30 26196 C 2382.15 -2.03639 1.14251 0
M  V30 26197 C 2383.13 -1.7005 0.0413047 0
M  V30 26198 O 2384.32 -1.92977 0.217599 0
M  V30 26199 C 2381.45 -3.37973 0.799491 0
M  V30 26200 C 2380.4 -3.8571 1.85504 0
M  V30 26201 C 2379.73 -5.16964 1.36575 0
M  V30 26202 C 2381.03 -4.07997 3.26092 0
M  V30 26203 H 2382.72 -2.15508 2.07839 0
M  V30 26204 H 2380.27 -1.03551 1.00066 0
M  V30 26205 H 2382.22 -4.15726 0.689187 0
M  V30 26206 H 2380.94 -3.26146 -0.172088 0
M  V30 26207 H 2379.6 -3.10158 1.95442 0
M  V30 26208 H 2379.25 -5.01537 0.383341 0
M  V30 26209 H 2378.95 -5.49874 2.07153 0
M  V30 26210 H 2380.47 -5.97277 1.26859 0
M  V30 26211 H 2381.89 -4.76287 3.19098 0
M  V30 26212 H 2380.28 -4.52231 3.9447 0
M  V30 26213 H 2381.35 -3.12941 3.70399 0
M  V30 26214 N 2382.7 -1.10314 -1.12555 0
M  V30 26215 C 2383.94 -0.846043 -1.84309 0
M  V30 26216 C 2384.28 0.626827 -1.83806 0
M  V30 26217 O 2383.55 1.46209 -1.2827 0
M  V30 26218 C 2383.83 -1.39347 -3.32046 0
M  V30 26219 C 2383.69 -2.93311 -3.41011 0
M  V30 26220 C 2385.01 -1.03476 -4.27762 0
M  V30 26221 H 2382.13 -0.308801 -0.669187 0
M  V30 26222 H 2384.77 -1.36607 -1.32055 0
M  V30 26223 H 2382.92 -0.951153 -3.76677 0
M  V30 26224 H 2384.59 -3.4606 -3.05025 0
M  V30 26225 H 2382.83 -3.29978 -2.81598 0
M  V30 26226 H 2383.5 -3.26696 -4.44942 0
M  V30 26227 H 2385.98 -1.4164 -3.91251 0
M  V30 26228 H 2384.86 -1.44472 -5.29546 0
M  V30 26229 H 2385.12 0.0559627 -4.42065 0
M  V30 26230 N 2384.18 1.29948 -0.891694 0
M  V30 26231 C 2385.11 2.26945 -0.320735 0
M  V30 26232 C 2386.12 1.53984 0.52847 0
M  V30 26233 O 2387.31 1.75096 0.346928 0
M  V30 26234 C 2384.41 3.34208 0.562007 0
M  V30 26235 C 2383.58 4.36629 -0.259652 0
M  V30 26236 C 2382.64 5.23269 0.554648 0
M  V30 26237 O 2381.67 5.69194 -0.0250312 0
M  V30 26238 N 2382.87 5.49814 1.8624 0
M  V30 26239 H 2385.63 2.76576 -1.15437 0
M  V30 26240 H 2383.2 1.43199 -0.755361 0
M  V30 26241 H 2385.19 3.89095 1.11297 0
M  V30 26242 H 2383.76 2.84454 1.29632 0
M  V30 26243 H 2382.98 3.81513 -0.992053 0
M  V30 26244 H 2384.27 5.02105 -0.822652 0
M  V30 26245 H 2383.66 5.14296 2.35619 0
M  V30 26246 H 2382.22 6.07549 2.36067 0
M  V30 26247 N 2385.65 0.653339 1.4342 0
M  V30 26248 C 2386.59 -0.0768731 2.29071 0
M  V30 26249 C 2387.6 -0.786992 1.42514 0
M  V30 26250 O 2388.79 -0.644728 1.6645 0
M  V30 26251 C 2385.89 -1.13193 3.19438 0
M  V30 26252 C 2385.06 -0.49993 4.34534 0
M  V30 26253 C 2384.12 -1.45189 5.05773 0
M  V30 26254 O 2383.15 -0.960439 5.61039 0
M  V30 26255 N 2384.35 -2.78585 5.09285 0
M  V30 26256 H 2387.11 0.658286 2.92381 0
M  V30 26257 H 2384.67 0.496131 1.54111 0
M  V30 26258 H 2386.67 -1.76958 3.63962 0
M  V30 26259 H 2385.24 -1.76906 2.57727 0
M  V30 26260 H 2384.46 0.316807 3.92925 0
M  V30 26261 H 2385.74 -0.058745 5.08766 0
M  V30 26262 H 2385.14 -3.21072 4.65757 0
M  V30 26263 H 2383.7 -3.37652 5.57525 0
M  V30 26264 N 2387.13 -1.52563 0.395266 0
M  V30 26265 C 2388.36 -2.06551 -0.18742 0
M  V30 26266 C 2388.78 -1.26459 -1.39247 0
M  V30 26267 O 2388.14 -0.291182 -1.78946 0
M  V30 26268 C 2388.19 -3.56685 -0.529922 0
M  V30 26269 O 2387.29 -3.79121 -1.623 0
M  V30 26270 H 2386.63 -0.663691 -0.020242 0
M  V30 26271 H 2389.16 -1.9666 0.564461 0
M  V30 26272 H 2389.17 -4.00229 -0.792528 0
M  V30 26273 H 2387.85 -4.14416 0.35106 0
M  V30 26274 H 2386.42 -3.47464 -1.35364 0
M  V30 26275 O 2388.65 -0.265756 -1.59298 0
M  V30 26276 H 2389.34 0.306101 -1.91266 0
M  V30 END ATOM
M  V30 BEGIN BOND
M  V30 END BOND
M  V30 END CTAB
M  END
$$$$
