drugbank_drug|DB00009 Alteplase sequence
 OpenBabel12092119113D

  0  0  0     0  0            999 V3000
M  V30 BEGIN CTAB
M  V30 COUNTS 8066 8176 0 0 0
M  V30 BEGIN ATOM
M  V30 1 H -0.908 1.98254 -0.117106 0
M  V30 2 N 0 1.576 0 0
M  V30 3 C 1.225 1.95249 0.699468 0
M  V30 4 C 1.65 0.874934 1.66513 0
M  V30 5 O 1.008 -0.166929 1.8053 0
M  V30 6 C 1.056 3.31994 1.40756 0
M  V30 7 O 0.16 3.26298 2.52197 0
M  V30 8 H -0.499 0.637402 0.186051 0
M  V30 9 H 2.031 2.04531 -0.05319 0
M  V30 10 H 2.041 3.6756 1.77098 0
M  V30 11 H 0.716 4.09975 0.69953 0
M  V30 12 H -0.707 3.02408 2.18183 0
M  V30 13 N 1.4781 -0.272755 1.55222 0
M  V30 14 C 2.7081 -1.02107 1.79604 0
M  V30 15 C 3.1161 -1.80419 0.569693 0
M  V30 16 O 2.4591 -1.77566 -0.470743 0
M  V30 17 C 2.5211 -2.02675 2.96922 0
M  V30 18 C 2.1851 -1.43299 4.33952 0
M  V30 19 C 3.1821 -0.84853 5.12929 0
M  V30 20 C 0.8671 -1.46012 4.8061 0
M  V30 21 C 2.8611 -0.299109 6.36698 0
M  V30 22 C 0.5481 -0.906833 6.04334 0
M  V30 23 C 1.5461 -0.32733 6.82215 0
M  V30 24 O 1.2341 0.217479 8.03606 0
M  V30 25 H 0.9661 -0.307322 0.602104 0
M  V30 26 H 3.5201 -0.308862 2.03065 0
M  V30 27 H 1.7501 -2.77656 2.69155 0
M  V30 28 H 3.4391 -2.63637 3.08626 0
M  V30 29 H 4.2051 -0.820265 4.78013 0
M  V30 30 H 0.0841 -1.90056 4.2 0
M  V30 31 H 3.6281 0.153852 6.9743 0
M  V30 32 H -0.4749 -0.932339 6.38731 0
M  V30 33 H 0.2931 0.106863 8.1843 0
M  V30 34 N 2.9562 -1.48159 -0.537278 0
M  V30 35 C 3.8882 -1.58218 -1.65831 0
M  V30 36 C 4.9012 -0.466948 -1.5596 0
M  V30 37 O 6.0902 -0.73747 -1.62553 0
M  V30 38 C 3.1902 -1.48906 -3.04434 0
M  V30 39 C 2.3632 -2.75343 -3.3986 0
M  V30 40 C 1.4222 -2.59588 -4.57712 0
M  V30 41 O 0.4482 -3.33457 -4.61297 0
M  V30 42 N 1.6502 -1.68724 -5.55439 0
M  V30 43 H 4.4152 -2.54891 -1.57641 0
M  V30 44 H 1.9762 -1.4479 -0.724386 0
M  V30 45 H 3.9682 -1.36072 -3.81139 0
M  V30 46 H 2.5382 -0.602368 -3.06741 0
M  V30 47 H 1.7582 -3.02795 -2.52406 0
M  V30 48 H 3.0462 -3.5924 -3.60311 0
M  V30 49 H 2.4442 -1.07898 -5.55315 0
M  V30 50 H 1.0012 -1.61832 -6.3139 0
M  V30 51 N 4.4343 0.785586 -1.36625 0
M  V30 52 C 5.6803 1.54591 -1.31261 0
M  V30 53 C 6.0133 1.93906 0.106823 0
M  V30 54 O 5.2883 1.63007 1.06108 0
M  V30 55 C 5.5713 2.82038 -2.23889 0
M  V30 56 C 5.4243 2.49066 -3.74548 0
M  V30 57 C 6.7433 3.83887 -2.15217 0
M  V30 58 H 3.8623 0.560846 -0.478143 0
M  V30 59 H 6.5043 0.902278 -1.67209 0
M  V30 60 H 4.6543 3.36961 -1.93363 0
M  V30 61 H 6.3263 2.00164 -4.15611 0
M  V30 62 H 4.5693 1.81954 -3.93796 0
M  V30 63 H 5.2403 3.40109 -4.34776 0
M  V30 64 H 7.7163 3.38421 -2.42096 0
M  V30 65 H 6.5923 4.70806 -2.82193 0
M  V30 66 H 6.8533 4.27131 -1.14068 0
M  V30 67 N 5.9124 1.20967 1.01018 0
M  V30 68 C 7.1614 1.01796 1.74128 0
M  V30 69 C 7.4744 -0.449691 1.90361 0
M  V30 70 O 8.6804 -0.76068 2.60626 0
M  V30 71 C 7.1364 1.7727 3.13215 0
M  V30 72 C 6.7444 3.28171 3.04972 0
M  V30 73 C 8.4884 1.66489 3.90489 0
M  V30 74 C 6.3954 3.96156 4.39107 0
M  V30 75 H 5.3254 0.377276 0.652824 0
M  V30 76 H 7.9764 1.44651 1.12909 0
M  V30 77 H 6.3584 1.27205 3.75013 0
M  V30 78 H 7.5324 3.85499 2.52443 0
M  V30 79 H 5.8474 3.39437 2.41188 0
M  V30 80 H 8.4444 2.14617 4.89738 0
M  V30 81 H 8.7874 0.6222 4.11624 0
M  V30 82 H 9.3204 2.14003 3.35332 0
M  V30 83 H 6.0594 5.00604 4.23174 0
M  V30 84 H 5.5794 3.43617 4.91617 0
M  V30 85 H 7.2584 4.00774 5.07926 0
M  V30 86 N 7.3905 -1.2043 1.01659 0
M  V30 87 C 8.6305 -1.91507 0.714456 0
M  V30 88 C 8.9945 -1.77073 -0.742237 0
M  V30 89 O 10.1955 -2.42631 -1.15688 0
M  V30 90 C 8.4665 -3.38795 1.13809 0
M  V30 91 S 10.0255 -4.28216 0.957925 0
M  V30 92 H 6.8435 -0.661571 0.260471 0
M  V30 93 H 9.4455 -1.45671 1.30384 0
M  V30 94 H 8.1495 -3.46822 2.19415 0
M  V30 95 H 7.6805 -3.89656 0.541474 0
M  V30 96 H 9.6955 -4.96007 -0.138531 0
M  V30 97 N 8.8686 -0.792821 -1.36206 0
M  V30 98 C 10.2846 -0.474903 -1.52371 0
M  V30 99 C 10.4846 1.00622 -1.74578 0
M  V30 100 O 9.5406 1.79162 -1.77924 0
M  V30 101 C 10.8536 -1.3083 -2.70747 0
M  V30 102 C 12.4016 -1.30234 -2.84619 0
M  V30 103 C 12.8766 -2.11956 -4.06004 0
M  V30 104 N 14.3676 -2.09419 -4.13156 0
M  V30 105 C 15.1026 -2.69419 -5.06163 0
M  V30 106 N 14.5986 -3.3829 -6.04592 0
M  V30 107 N 16.3916 -2.59134 -4.98804 0
M  V30 108 H 8.5426 -1.75222 -1.20046 0
M  V30 109 H 10.8056 -0.745024 -0.586211 0
M  V30 110 H 10.5116 -2.35881 -2.6087 0
M  V30 111 H 10.3856 -0.95196 -3.6499 0
M  V30 112 H 12.7726 -0.259748 -2.93955 0
M  V30 113 H 12.8536 -1.69847 -1.91274 0
M  V30 114 H 12.4976 -3.16248 -3.97429 0
M  V30 115 H 12.4276 -1.69711 -4.98503 0
M  V30 116 H 14.9186 -1.59297 -3.42685 0
M  V30 117 H 15.2316 -3.81394 -6.7213 0
M  V30 118 H 13.5766 -3.42393 -6.04807 0
M  V30 119 H 16.7676 -2.04927 -4.20859 0
M  V30 120 H 16.9406 -3.06185 -5.711 0
M  V30 121 N 10.3467 1.47872 -0.545128 0
M  V30 122 C 11.6237 1.9554 0.0485222 0
M  V30 123 C 12.0037 1.4876 1.49779 0
M  V30 124 O 11.3517 0.720925 2.16829 0
M  V30 125 C 11.5617 3.48898 -0.084417 0
M  V30 126 C 12.9097 4.24547 0.0671239 0
M  V30 127 O 13.9337 3.56198 -0.0113649 0
M  V30 128 O 12.7927 5.45999 0.233882 0
M  V30 129 H 9.8867 0.823957 0.0708773 0
M  V30 130 H 12.4327 1.58327 -0.610798 0
M  V30 131 H 11.2047 3.75714 -1.09337 0
M  V30 132 H 10.8277 3.92845 0.613066 0
M  V30 133 N 11.8248 0.280983 1.55075 0
M  V30 134 C 12.7348 -0.61388 2.26426 0
M  V30 135 C 13.7508 -1.16521 1.29224 0
M  V30 136 O 14.9268 -1.19426 1.62171 0
M  V30 137 C 11.9918 -1.7788 2.9759 0
M  V30 138 C 11.0528 -1.26355 4.10284 0
M  V30 139 C 10.2858 -2.37295 4.78045 0
M  V30 140 O 10.5088 -3.56777 4.45047 0
M  V30 141 O 9.4428 -2.05119 5.65871 0
M  V30 142 H 13.2688 -0.0356932 3.03679 0
M  V30 143 H 10.8538 0.0481686 1.49322 0
M  V30 144 H 12.7358 -2.45791 3.42293 0
M  V30 145 H 11.4108 -2.34397 2.23249 0
M  V30 146 H 10.3178 -0.550735 3.70024 0
M  V30 147 H 11.6508 -0.744065 4.86543 0
M  V30 148 N 13.3029 -1.57598 0.00835791 0
M  V30 149 C 14.2499 -2.08945 -0.980346 0
M  V30 150 C 15.2199 -0.986738 -1.33614 0
M  V30 151 O 16.4049 -1.25968 -1.43306 0
M  V30 152 C 13.5449 -2.60425 -2.26435 0
M  V30 153 C 12.6579 -3.84628 -1.96685 0
M  V30 154 C 11.7929 -4.24579 -3.19228 0
M  V30 155 C 10.8319 -5.41596 -2.85202 0
M  V30 156 N 9.9689 -5.768 -4.00307 0
M  V30 157 H 14.8089 -2.93148 -0.535551 0
M  V30 158 H 12.3459 -1.44912 -0.252776 0
M  V30 159 H 14.3039 -2.88354 -3.01509 0
M  V30 160 H 12.9339 -1.79083 -2.68568 0
M  V30 161 H 11.9859 -3.63556 -1.11942 0
M  V30 162 H 13.2979 -4.69796 -1.67611 0
M  V30 163 H 12.4519 -4.53834 -4.02641 0
M  V30 164 H 11.1909 -3.38137 -3.51447 0
M  V30 165 H 10.1959 -5.12056 -2.00198 0
M  V30 166 H 11.4209 -6.29721 -2.54222 0
M  V30 167 H 9.3669 -4.93316 -4.32407 0
M  V30 168 H 9.2839 -6.5656 -3.74786 0
M  V30 169 H 10.5519 -6.10652 -4.84484 0
M  V30 170 N 14.781 0.264519 -1.55364 0
M  V30 171 C 16.009 1.013 -1.80405 0
M  V30 172 C 16.424 1.79618 -0.581622 0
M  V30 173 O 15.781 1.76879 0.449468 0
M  V30 174 C 15.832 1.96487 -3.03439 0
M  V30 175 O 15.553 1.21341 -4.20961 0
M  V30 176 C 17.054 2.83079 -3.41147 0
M  V30 177 H 14.274 0.298875 -0.600762 0
M  V30 178 H 16.818 0.292736 -2.02394 0
M  V30 179 H 14.973 2.63965 -2.83551 0
M  V30 180 H 15.387 1.85573 -4.90574 0
M  V30 181 H 16.861 3.4565 -4.30384 0
M  V30 182 H 17.338 3.53286 -2.60932 0
M  V30 183 H 17.944 2.2108 -3.63323 0
M  V30 184 N 16.2591 1.48442 0.529413 0
M  V30 185 C 17.1911 1.59095 1.64989 0
M  V30 186 C 18.2041 0.475212 1.5571 0
M  V30 187 O 19.3931 0.746081 1.6216 0
M  V30 188 C 16.4931 1.50518 3.0364 0
M  V30 189 C 15.6661 2.77142 3.38395 0
M  V30 190 C 14.7251 2.62012 4.56329 0
M  V30 191 O 13.7511 3.35898 4.59522 0
M  V30 192 N 14.9531 1.71667 5.54536 0
M  V30 193 H 17.7181 2.55723 1.56287 0
M  V30 194 H 15.2791 1.45173 0.716697 0
M  V30 195 H 17.2711 1.38091 3.80412 0
M  V30 196 H 15.8411 0.618627 3.06418 0
M  V30 197 H 15.0611 3.0413 2.50796 0
M  V30 198 H 16.3491 3.61146 3.58401 0
M  V30 199 H 15.7471 1.10841 5.54735 0
M  V30 200 H 14.3041 1.65178 6.30523 0
M  V30 201 N 17.7372 -0.778329 1.37039 0
M  V30 202 C 18.6702 -1.8984 1.26633 0
M  V30 203 C 19.6482 -1.61923 0.148197 0
M  V30 204 O 20.8322 -1.85742 0.321265 0
M  V30 205 C 17.9592 -3.24916 0.956403 0
M  V30 206 C 17.0052 -3.71752 2.09051 0
M  V30 207 S 17.8382 -3.86201 3.70957 0
M  V30 208 C 18.9942 -5.24135 3.42101 0
M  V30 209 H 19.2272 -1.98377 2.21436 0
M  V30 210 H 16.7602 -0.938738 1.22585 0
M  V30 211 H 18.7182 -4.02936 0.784409 0
M  V30 212 H 17.3792 -3.14089 0.0259713 0
M  V30 213 H 16.5722 -4.69661 1.8285 0
M  V30 214 H 16.1742 -3.00815 2.2223 0
M  V30 215 H 18.4662 -6.09086 2.96682 0
M  V30 216 H 19.4092 -5.55346 4.39314 0
M  V30 217 H 19.8172 -4.91761 2.77185 0
M  V30 218 N 19.2153 -1.21501 -1.00376 0
M  V30 219 C 20.4643 -1.02718 -1.73586 0
M  V30 220 C 20.7773 0.439589 -1.90596 0
M  V30 221 O 21.9833 0.746848 -2.61026 0
M  V30 222 C 20.4393 -1.78929 -3.1227 0
M  V30 223 C 20.0473 -3.29783 -3.03228 0
M  V30 224 C 21.7913 -1.68557 -3.89601 0
M  V30 225 C 19.6983 -3.98479 -4.36999 0
M  V30 226 H 18.6283 -0.380733 -0.650814 0
M  V30 227 H 21.2793 -1.45248 -1.1214 0
M  V30 228 H 19.6613 -1.29192 -3.74333 0
M  V30 229 H 20.8353 -3.86832 -2.50395 0
M  V30 230 H 19.1503 -3.40711 -2.39385 0
M  V30 231 H 21.7473 -2.17211 -4.88593 0
M  V30 232 H 22.0903 -0.644021 -4.11288 0
M  V30 233 H 22.6233 -2.15778 -3.34193 0
M  V30 234 H 19.3623 -5.02841 -4.20513 0
M  V30 235 H 18.8823 -3.46219 -4.89788 0
M  V30 236 H 20.5613 -4.03462 -5.05794 0
M  V30 237 N 20.6934 1.19889 -1.02296 0
M  V30 238 C 21.9234 1.93109 -0.734332 0
M  V30 239 C 22.3314 1.75377 0.709889 0
M  V30 240 O 21.6744 1.06912 1.49384 0
M  V30 241 C 21.7364 3.45362 -0.99827 0
M  V30 242 C 21.4004 3.8686 -2.43287 0
M  V30 243 C 22.3974 3.92102 -3.41397 0
M  V30 244 C 20.0824 4.18668 -2.77529 0
M  V30 245 C 22.0764 4.28573 -4.71809 0
M  V30 246 C 19.7634 4.54813 -4.08153 0
M  V30 247 C 20.7614 4.59739 -5.05103 0
M  V30 248 O 20.4494 4.95051 -6.33388 0
M  V30 249 H 20.1814 0.620409 -0.268456 0
M  V30 250 H 22.7354 1.53144 -1.3688 0
M  V30 251 H 20.9654 3.85482 -0.306645 0
M  V30 252 H 22.6544 3.99814 -0.700234 0
M  V30 253 H 23.4204 3.67685 -3.1628 0
M  V30 254 H 19.2994 4.14021 -2.0275 0
M  V30 255 H 22.8434 4.32333 -5.4748 0
M  V30 256 H 18.7404 4.78687 -4.33047 0
M  V30 257 H 19.5084 5.1302 -6.37772 0
M  V30 258 N 22.1715 0.800033 1.35784 0
M  V30 259 C 23.1035 0.163596 2.28615 0
M  V30 260 C 24.1165 -0.633317 1.49976 0
M  V30 261 O 25.3055 -0.466754 1.72289 0
M  V30 262 C 22.4055 -0.790958 3.29541 0
M  V30 263 C 21.5785 -0.0418255 4.3738 0
M  V30 264 C 20.6375 -0.91389 5.18203 0
M  V30 265 O 19.6635 -0.367234 5.68014 0
M  V30 266 N 20.8655 -2.23682 5.35674 0
M  V30 267 H 23.6305 0.96105 2.83873 0
M  V30 268 H 21.1915 0.654894 1.48063 0
M  V30 269 H 23.1835 -1.37844 3.80501 0
M  V30 270 H 21.7535 -1.48925 2.74846 0
M  V30 271 H 20.9735 0.726813 3.87442 0
M  V30 272 H 22.2615 0.474719 5.06581 0
M  V30 273 H 21.6595 -2.70497 4.96838 0
M  V30 274 H 20.2165 -2.77369 5.89839 0
M  V30 275 N 23.6496 -1.47581 0.552962 0
M  V30 276 C 24.5816 -2.27997 -0.234533 0
M  V30 277 C 25.5946 -1.36753 -0.883321 0
M  V30 278 O 26.7836 -1.61612 -0.757889 0
M  V30 279 C 23.8836 -3.10879 -1.34935 0
M  V30 280 C 23.0566 -4.30056 -0.798158 0
M  V30 281 C 22.1156 -4.94567 -1.79694 0
M  V30 282 O 21.1416 -5.53087 -1.34474 0
M  V30 283 N 22.3436 -4.88878 -3.13015 0
M  V30 284 H 25.1086 -2.96222 0.455255 0
M  V30 285 H 22.6696 -1.57163 0.388761 0
M  V30 286 H 24.6616 -3.50903 -2.01616 0
M  V30 287 H 23.2316 -2.44924 -1.94244 0
M  V30 288 H 22.4516 -3.94174 0.0453079 0
M  V30 289 H 23.7396 -5.07152 -0.409173 0
M  V30 290 H 23.1376 -4.42526 -3.52402 0
M  V30 291 H 21.6946 -5.32934 -3.75266 0
M  V30 292 N 25.1277 -0.289203 -1.54924 0
M  V30 293 C 26.0777 0.606939 -2.19773 0
M  V30 294 C 27.0617 1.10783 -1.16687 0
M  V30 295 O 28.2537 1.05057 -1.4245 0
M  V30 296 C 25.3827 1.78398 -2.93307 0
M  V30 297 C 24.4687 1.29961 -4.03697 0
M  V30 298 N 24.8597 0.532377 -5.0299 0
M  V30 299 C 23.1577 1.58136 -4.17024 0
M  V30 300 C 23.8587 0.275912 -5.81045 0
M  V30 301 N 22.8347 0.852365 -5.36876 0
M  V30 302 H 26.6367 0.0130779 -2.93897 0
M  V30 303 H 24.1507 -0.09341 -1.62131 0
M  V30 304 H 26.1477 2.43741 -3.38225 0
M  V30 305 H 24.8077 2.38166 -2.20697 0
M  V30 306 H 25.8187 0.17838 -5.17593 0
M  V30 307 H 22.4957 2.18738 -3.55612 0
M  V30 308 H 23.8857 -0.339502 -6.71042 0
M  V30 309 N 26.6058 1.57591 -0.0167156 0
M  V30 310 C 27.5378 2.06343 0.997753 0
M  V30 311 C 28.5508 0.984469 1.29661 0
M  V30 312 O 29.7398 1.26093 1.26344 0
M  V30 313 C 26.8398 2.46255 2.32834 0
M  V30 314 C 26.0128 3.77083 2.21646 0
M  V30 315 C 25.0718 4.0368 3.37534 0
M  V30 316 O 24.0978 4.7411 3.14973 0
M  V30 317 N 25.2998 3.52881 4.60929 0
M  V30 318 H 28.0648 2.93997 0.581875 0
M  V30 319 H 25.6258 1.61002 0.170316 0
M  V30 320 H 27.6178 2.61149 3.09166 0
M  V30 321 H 26.1878 1.64032 2.66106 0
M  V30 322 H 25.4078 3.72106 1.30119 0
M  V30 323 H 26.6958 4.62822 2.11361 0
M  V30 324 H 26.0938 2.95878 4.82154 0
M  V30 325 H 24.6508 3.73076 5.34469 0
M  V30 326 N 28.0839 -0.256276 1.55502 0
M  V30 327 C 29.3089 -1.00766 1.81276 0
M  V30 328 C 29.7339 -1.78524 0.59252 0
M  V30 329 O 29.0919 -1.75413 -0.45827 0
M  V30 330 C 29.1399 -1.92869 3.04687 0
M  V30 331 O 28.2439 -3.019 2.80945 0
M  V30 332 H 27.5849 -0.287224 0.598664 0
M  V30 333 H 30.1149 -0.280109 2.02674 0
M  V30 334 H 30.1249 -2.34511 3.33869 0
M  V30 335 H 28.7999 -1.35689 3.93143 0
M  V30 336 H 27.3769 -2.64454 2.62904 0
M  V30 337 N 29.562 -1.4872 -0.521534 0
M  V30 338 C 30.808 -1.58378 -1.27624 0
M  V30 339 C 31.163 -0.258028 -1.90662 0
M  V30 340 O 30.456 0.739917 -1.76736 0
M  V30 341 C 30.65 -2.66497 -2.38148 0
M  V30 342 C 30.479 -4.09456 -1.85945 0
M  V30 343 C 29.249 -4.76495 -1.68168 0
M  V30 344 C 31.447 -4.95353 -1.3831 0
M  V30 345 N 29.429 -6.0384 -1.1068 0
M  V30 346 C 30.8 -6.13012 -0.928238 0
M  V30 347 C 32.855 -4.81512 -1.26692 0
M  V30 348 C 31.558 -7.18354 -0.368701 0
M  V30 349 C 33.584 -5.86984 -0.721368 0
M  V30 350 C 32.946 -7.03857 -0.276623 0
M  V30 351 H 29.045 -0.634045 -0.457724 0
M  V30 352 H 31.629 -1.85639 -0.587049 0
M  V30 353 H 29.8 -2.41043 -3.04553 0
M  V30 354 H 31.532 -2.65791 -3.05184 0
M  V30 355 H 28.287 -4.32962 -1.91939 0
M  V30 356 H 28.711 -6.71778 -0.839217 0
M  V30 357 H 33.353 -3.91487 -1.5968 0
M  V30 358 H 31.071 -8.08096 -0.0265122 0
M  V30 359 H 34.657 -5.78329 -0.634531 0
M  V30 360 H 33.537 -7.84077 0.138947 0
M  V30 361 N 31.0401 0.771051 -1.3745 0
M  V30 362 C 31.9701 1.89827 -1.3597 0
M  V30 363 C 32.9511 1.68562 -0.228216 0
M  V30 364 O 34.1361 1.8941 -0.428675 0
M  V30 365 C 31.2661 3.2712 -1.16662 0
M  V30 366 C 30.2201 3.6295 -2.2683 0
M  V30 367 C 29.5461 4.98791 -1.92644 0
M  V30 368 C 30.8461 3.69627 -3.69017 0
M  V30 369 H 32.5401 1.91323 -2.30295 0
M  V30 370 H 30.0861 0.919082 -1.10855 0
M  V30 371 H 32.0391 4.05615 -1.14256 0
M  V30 372 H 30.7631 3.26059 -0.187926 0
M  V30 373 H 29.4221 2.86763 -2.28392 0
M  V30 374 H 29.0701 4.94271 -0.933021 0
M  V30 375 H 28.7701 5.23733 -2.66416 0
M  V30 376 H 30.2941 5.79685 -1.91826 0
M  V30 377 H 31.7081 4.38273 -3.69581 0
M  V30 378 H 30.1051 4.06067 -4.41848 0
M  V30 379 H 31.1751 2.70273 -4.02592 0
M  V30 380 N 32.5182 1.22032 0.997298 0
M  V30 381 C 33.9342 0.979326 1.26021 0
M  V30 382 C 34.1342 -0.32972 1.98784 0
M  V30 383 O 33.1902 -1.05345 2.29475 0
M  V30 384 C 34.5032 2.17509 2.07631 0
M  V30 385 C 36.0512 2.21817 2.2083 0
M  V30 386 C 36.5262 3.40933 3.05825 0
M  V30 387 N 38.0172 3.41067 3.13412 0
M  V30 388 C 38.7522 4.29885 3.79455 0
M  V30 389 N 38.2482 5.28914 4.47462 0
M  V30 390 N 40.0412 4.17673 3.76173 0
M  V30 391 H 32.1922 2.06202 0.509352 0
M  V30 392 H 34.4552 0.90334 0.287541 0
M  V30 393 H 34.1612 3.12415 1.61524 0
M  V30 394 H 34.0352 2.17206 3.08385 0
M  V30 395 H 36.4222 1.27462 2.66153 0
M  V30 396 H 36.5032 2.2616 1.1952 0
M  V30 397 H 36.1472 4.35586 2.61203 0
M  V30 398 H 36.0772 3.33829 4.07266 0
M  V30 399 H 38.5682 2.69406 2.65007 0
M  V30 400 H 38.8812 5.92973 4.95583 0
M  V30 401 H 37.2262 5.32831 4.46224 0
M  V30 402 H 40.4172 3.39564 3.22202 0
M  V30 403 H 40.5902 4.87098 4.27363 0
M  V30 404 N 33.9963 -1.19345 1.0293 0
M  V30 405 C 35.4073 -1.70725 0.755633 0
M  V30 406 C 35.7583 -1.82326 -0.724676 0
M  V30 407 O 34.8833 -1.49471 -1.56484 0
M  V30 408 C 35.4783 -3.10084 1.36503 0
M  V30 409 C 34.0373 -3.58723 1.13994 0
M  V30 410 C 33.1843 -2.35577 1.46283 0
M  V30 411 H 36.1353 -1.0418 1.19718 0
M  V30 412 H 36.1563 -3.72787 0.762217 0
M  V30 413 H 35.6683 -3.01609 2.44241 0
M  V30 414 H 33.7693 -3.72512 0.0807901 0
M  V30 415 H 33.8823 -4.42816 1.82894 0
M  V30 416 H 32.2463 -2.38935 0.88217 0
M  V30 417 H 33.0293 -2.29731 2.55105 0
M  V30 418 N 35.4744 -0.807222 -1.35358 0
M  V30 419 C 36.7204 -0.388463 -1.99045 0
M  V30 420 C 37.0534 1.04184 -1.63888 0
M  V30 421 O 36.3284 1.72292 -0.902535 0
M  V30 422 C 36.6114 -0.572783 -3.55515 0
M  V30 423 C 36.4644 -2.04807 -4.00468 0
M  V30 424 C 37.7834 0.00114064 -4.401 0
M  V30 425 H 34.9024 -0.142619 -0.723069 0
M  V30 426 H 37.5444 -1.01687 -1.60498 0
M  V30 427 H 35.6944 -0.0378425 -3.88482 0
M  V30 428 H 37.3664 -2.64544 -3.77908 0
M  V30 429 H 35.6094 -2.54427 -3.51353 0
M  V30 430 H 36.2804 -2.12792 -5.09337 0
M  V30 431 H 38.7564 -0.455716 -4.13597 0
M  V30 432 H 37.6324 -0.157737 -5.48673 0
M  V30 433 H 37.8934 1.09488 -4.28328 0
M  V30 434 N 36.9525 1.47285 -0.560781 0
M  V30 435 C 37.8825 2.32857 0.173105 0
M  V30 436 C 38.8635 1.44009 0.905281 0
M  V30 437 O 40.0485 1.7286 0.885046 0
M  V30 438 C 37.1785 3.25861 1.20133 0
M  V30 439 C 36.1325 4.23978 0.585388 0
M  V30 440 C 35.4585 5.06332 1.7185 0
M  V30 441 C 36.7585 5.20242 -0.463178 0
M  V30 442 H 38.4525 2.94466 -0.541307 0
M  V30 443 H 35.9985 1.41601 -0.261764 0
M  V30 444 H 37.9515 3.84569 1.72293 0
M  V30 445 H 36.6755 2.62315 1.94573 0
M  V30 446 H 35.3345 3.66501 0.085054 0
M  V30 447 H 34.9825 4.39186 2.45203 0
M  V30 448 H 34.6825 5.72762 1.31213 0
M  V30 449 H 36.2065 5.67899 2.24329 0
M  V30 450 H 37.6205 5.73293 -0.027502 0
M  V30 451 H 36.0175 5.94896 -0.788627 0
M  V30 452 H 37.0875 4.65504 -1.35773 0
M  V30 453 N 38.4306 0.297415 1.54768 0
M  V30 454 C 39.8466 -0.0560823 1.59501 0
M  V30 455 C 40.0466 -1.52725 1.31444 0
M  V30 456 O 39.1026 -2.27947 1.08611 0
M  V30 457 C 40.4156 0.338631 2.98787 0
M  V30 458 C 41.9636 0.287097 3.11681 0
M  V30 459 C 42.4386 0.656579 4.53269 0
M  V30 460 N 43.9296 0.608977 4.59179 0
M  V30 461 C 44.6646 0.867385 5.66802 0
M  V30 462 N 44.1606 1.19157 6.82476 0
M  V30 463 N 45.9536 0.794687 5.56454 0
M  V30 464 H 38.1046 1.25624 1.71267 0
M  V30 465 H 40.3676 0.509057 0.799728 0
M  V30 466 H 40.0736 1.36263 3.2423 0
M  V30 467 H 39.9476 -0.309508 3.75928 0
M  V30 468 H 42.3346 -0.727649 2.85988 0
M  V30 469 H 42.4156 0.969809 2.36703 0
M  V30 470 H 42.0596 1.66912 4.7969 0
M  V30 471 H 41.9896 -0.0481649 5.26578 0
M  V30 472 H 44.4806 0.369198 3.76092 0
M  V30 473 H 44.7936 1.37482 7.60473 0
M  V30 474 H 43.1386 1.22958 6.84037 0
M  V30 475 H 46.3296 0.541098 4.64962 0
M  V30 476 H 46.5026 0.999445 6.40246 0
M  V30 477 N 39.9087 -1.5758 0.0250728 0
M  V30 478 C 41.1337 -1.96337 -0.668317 0
M  V30 479 C 41.5587 -0.901314 -1.651 0
M  V30 480 O 40.9167 0.138187 -1.80773 0
M  V30 481 C 40.9647 -3.34191 -1.35457 0
M  V30 482 O 40.0687 -3.30269 -2.46974 0
M  V30 483 H 39.4097 -0.640281 -0.175887 0
M  V30 484 H 41.9397 -2.0442 0.0857224 0
M  V30 485 H 41.9497 -3.70331 -1.71228 0
M  V30 486 H 40.6247 -4.11036 -0.634218 0
M  V30 487 H 39.2017 -3.05841 -2.13344 0
M  V30 488 N 41.3868 0.248026 -1.55636 0
M  V30 489 C 42.3348 1.32683 -1.91045 0
M  V30 490 C 43.3288 1.49883 -0.789401 0
M  V30 491 O 44.5348 1.51371 -0.974007 0
M  V30 492 H 40.9098 0.444272 -0.606734 0
M  V30 493 H 42.8808 1.00085 -2.81115 0
M  V30 494 C 41.6298 2.6755 -2.22064 0
M  V30 495 H 40.9528 2.55114 -3.07826 0
M  V30 496 H 42.3928 3.41912 -2.50743 0
M  V30 497 C 40.8518 3.20556 -1.0366 0
M  V30 498 O 41.3818 4.00695 -0.284016 0
M  V30 499 N 39.5878 2.78568 -0.82753 0
M  V30 500 H 39.1348 2.1351 -1.44123 0
M  V30 501 H 39.0928 3.14378 -0.0369803 0
M  V30 502 N 42.8649 1.48995 0.513639 0
M  V30 503 C 44.2809 1.35478 0.843682 0
M  V30 504 C 44.4809 0.378213 1.97919 0
M  V30 505 O 43.5369 -0.194689 2.51748 0
M  V30 506 C 44.8499 2.75901 1.1958 0
M  V30 507 C 46.3979 2.84509 1.30474 0
M  V30 508 C 46.8729 4.25671 1.69021 0
M  V30 509 N 48.3639 4.28422 1.76094 0
M  V30 510 C 49.0989 5.34601 2.07338 0
M  V30 511 N 48.5949 6.5104 2.36894 0
M  V30 512 N 50.3879 5.22007 2.08483 0
M  V30 513 H 42.5389 2.11092 -0.235328 0
M  V30 514 H 44.8019 0.947039 -0.0426669 0
M  V30 515 H 44.5079 3.49001 0.434913 0
M  V30 516 H 44.3819 3.10467 2.1422 0
M  V30 517 H 46.7689 2.11655 2.05637 0
M  V30 518 H 46.8499 2.53542 0.339155 0
M  V30 519 H 46.4939 4.99048 0.944135 0
M  V30 520 H 46.4239 4.54094 2.66658 0
M  V30 521 H 48.9149 3.44441 1.55464 0
M  V30 522 H 49.2279 7.2779 2.59887 0
M  V30 523 H 47.5729 6.54287 2.34378 0
M  V30 524 H 50.7639 4.30051 1.84861 0
M  V30 525 H 50.9369 6.04854 2.325 0
M  V30 526 N 44.343 -0.763751 1.37857 0
M  V30 527 C 45.589 -1.52483 1.33704 0
M  V30 528 C 45.922 -1.94051 -0.0759612 0
M  V30 529 O 45.197 -1.64675 -1.03501 0
M  V30 530 C 45.48 -2.78441 2.28348 0
M  V30 531 C 45.333 -2.43075 3.78463 0
M  V30 532 C 46.652 -3.80415 2.21298 0
M  V30 533 H 43.771 -0.553169 0.487005 0
M  V30 534 H 46.413 -0.875562 1.68624 0
M  V30 535 H 44.563 -3.33842 1.987 0
M  V30 536 H 46.235 -1.93527 4.18742 0
M  V30 537 H 44.478 -1.75666 3.96641 0
M  V30 538 H 45.149 -3.33149 4.40132 0
M  V30 539 H 47.625 -3.34527 2.47449 0
M  V30 540 H 46.501 -4.66257 2.89647 0
M  V30 541 H 46.762 -4.25262 1.20849 0
M  V30 542 N 45.8211 -1.22559 -0.990812 0
M  V30 543 C 46.7311 -1.01394 -2.11557 0
M  V30 544 C 47.7471 0.0383962 -1.73958 0
M  V30 545 O 48.9231 -0.154787 -2.00804 0
M  V30 546 C 45.9881 -0.596569 -3.41529 0
M  V30 547 C 45.0491 -1.72276 -3.93217 0
M  V30 548 C 44.2821 -1.32521 -5.16985 0
M  V30 549 O 44.5051 -0.204909 -5.70032 0
M  V30 550 O 43.4391 -2.14247 -5.62478 0
M  V30 551 H 47.2651 -1.95633 -2.32296 0
M  V30 552 H 44.8501 -1.01172 -1.0993 0
M  V30 553 H 46.7321 -0.374263 -4.19735 0
M  V30 554 H 45.4071 0.316939 -3.22145 0
M  V30 555 H 44.3141 -1.99961 -3.16174 0
M  V30 556 H 45.6471 -2.61421 -4.17037 0
M  V30 557 N 47.2992 1.18797 -1.03562 0
M  V30 558 C 48.5292 1.92319 -0.754773 0
M  V30 559 C 48.9372 1.7612 0.691248 0
M  V30 560 O 48.2802 1.08491 1.48241 0
M  V30 561 C 48.3422 3.44284 -1.03484 0
M  V30 562 C 48.0062 3.84258 -2.47376 0
M  V30 563 C 49.0032 3.88459 -3.45537 0
M  V30 564 C 46.6882 4.15701 -2.81954 0
M  V30 565 C 48.6822 4.23545 -4.76328 0
M  V30 566 C 46.3692 4.50458 -4.12954 0
M  V30 567 C 47.3672 4.54356 -5.09951 0
M  V30 568 O 47.0552 4.88305 -6.38603 0
M  V30 569 H 46.7872 0.617527 -0.275021 0
M  V30 570 H 49.3412 1.51683 -1.38497 0
M  V30 571 H 47.5712 3.85135 -0.347513 0
M  V30 572 H 49.2602 3.99049 -0.7426 0
M  V30 573 H 50.0262 3.6431 -3.20162 0
M  V30 574 H 45.9052 4.11847 -2.0713 0
M  V30 575 H 49.4492 4.26502 -5.52035 0
M  V30 576 H 45.3462 4.74067 -4.38099 0
M  V30 577 H 46.1142 5.06227 -6.43177 0
M  V30 578 N 48.7773 0.814389 1.34928 0
M  V30 579 C 50.0173 0.404165 2.00364 0
M  V30 580 C 50.3813 -1.01166 1.63185 0
M  V30 581 O 51.5823 -1.52431 2.21401 0
M  V30 582 C 49.8533 0.590718 3.52484 0
M  V30 583 S 51.4123 0.272075 4.37956 0
M  V30 584 H 48.2303 0.15311 0.694319 0
M  V30 585 H 50.8323 1.05834 1.64376 0
M  V30 586 H 49.5363 1.62099 3.77031 0
M  V30 587 H 49.0673 -0.0785013 3.93322 0
M  V30 588 H 51.0823 -0.917405 4.87645 0
M  V30 589 N 50.2554 -1.46986 0.568584 0
M  V30 590 C 51.5014 -2.0332 0.0571487 0
M  V30 591 C 51.8564 -1.43384 -1.28291 0
M  V30 592 O 51.1494 -0.584304 -1.82473 0
M  V30 593 C 51.3434 -3.57306 -0.081836 0
M  V30 594 C 51.1724 -4.32174 1.24321 0
M  V30 595 C 49.9424 -4.71633 1.81358 0
M  V30 596 C 52.1404 -4.66598 2.16312 0
M  V30 597 N 50.1224 -5.31191 3.07748 0
M  V30 598 C 51.4934 -5.26578 3.27285 0
M  V30 599 C 53.5484 -4.48527 2.16166 0
M  V30 600 C 52.2514 -5.70395 4.38226 0
M  V30 601 C 54.2774 -4.93351 3.26127 0
M  V30 602 C 53.6394 -5.5339 4.3582 0
M  V30 603 H 49.7384 -0.77943 0.063351 0
M  V30 604 H 52.3224 -1.79323 0.758378 0
M  V30 605 H 50.4934 -3.81046 -0.752207 0
M  V30 606 H 52.2254 -4.00282 -0.59637 0
M  V30 607 H 48.9804 -4.53946 1.35019 0
M  V30 608 H 49.4044 -5.65505 3.72201 0
M  V30 609 H 54.0464 -4.01456 1.32638 0
M  V30 610 H 51.7644 -6.16452 5.22506 0
M  V30 611 H 55.3504 -4.81131 3.27115 0
M  V30 612 H 54.2304 -5.87441 5.19503 0
M  V30 613 N 51.7335 -0.305618 -1.54608 0
M  V30 614 C 52.9735 0.303114 -2.0214 0
M  V30 615 C 53.3375 1.50737 -1.18921 0
M  V30 616 O 54.5385 2.18778 -1.56172 0
M  V30 617 C 52.8095 0.646332 -3.51507 0
M  V30 618 S 54.3685 1.23727 -4.20995 0
M  V30 619 H 51.1865 0.0927643 -0.704923 0
M  V30 620 H 53.7885 -0.434566 -1.90609 0
M  V30 621 H 52.4925 -0.238541 -4.09706 0
M  V30 622 H 52.0235 1.41468 -3.67084 0
M  V30 623 H 54.0385 2.52489 -4.27158 0
M  V30 624 N 53.2116 1.57565 -0.0334293 0
M  V30 625 C 54.1596 2.1164 0.96496 0
M  V30 626 C 55.1536 1.04398 1.33407 0
M  V30 627 O 56.3596 1.22828 1.3158 0
M  V30 628 H 52.7346 0.676222 0.32898 0
M  V30 629 H 54.7056 2.94455 0.483614 0
M  V30 630 C 53.4546 2.66207 2.23672 0
M  V30 631 H 52.7776 3.48378 1.96145 0
M  V30 632 H 54.2176 3.07685 2.9173 0
M  V30 633 C 52.6766 1.59151 2.96939 0
M  V30 634 O 53.2066 0.993858 3.89211 0
M  V30 635 N 51.4126 1.31093 2.59351 0
M  V30 636 H 50.9596 1.7988 1.84393 0
M  V30 637 H 50.9176 0.596889 3.08682 0
M  V30 638 N 54.6897 -0.239769 1.55765 0
M  V30 639 C 55.9147 -0.988373 1.82335 0
M  V30 640 C 56.3397 -1.77886 0.611421 0
M  V30 641 O 55.6977 -1.75889 -0.439639 0
M  V30 642 C 55.7457 -1.89627 3.06715 0
M  V30 643 O 54.8497 -2.98904 2.84131 0
M  V30 644 H 54.1907 -0.280858 0.601677 0
M  V30 645 H 56.7207 -0.258597 2.02959 0
M  V30 646 H 56.7307 -2.30957 3.36338 0
M  V30 647 H 55.4057 -1.31511 3.9456 0
M  V30 648 H 53.9827 -2.61651 2.65694 0
M  V30 649 N 56.1678 -1.49265 -0.50573 0
M  V30 650 C 57.4158 -1.582 -1.25766 0
M  V30 651 C 57.7368 -0.268482 -1.93143 0
M  V30 652 O 57.0068 0.711833 -1.8251 0
M  V30 653 H 55.5868 -0.582873 -0.467191 0
M  V30 654 H 58.2488 -1.85865 -0.586525 0
M  V30 655 H 57.3448 -2.37563 -2.02412 0
M  V30 656 N 57.6459 0.756429 -1.3826 0
M  V30 657 C 59.0619 1.0591 -1.19395 0
M  V30 658 C 59.2619 2.01459 -0.0406567 0
M  V30 659 O 58.3179 2.44909 0.614467 0
M  V30 660 C 59.6309 1.64191 -2.51916 0
M  V30 661 C 61.1789 1.76376 -2.58574 0
M  V30 662 C 61.6539 2.38069 -3.91264 0
M  V30 663 N 63.1449 2.45503 -3.92788 0
M  V30 664 C 63.8799 2.94126 -4.92217 0
M  V30 665 N 63.3759 3.42805 -6.02043 0
M  V30 666 N 65.1689 2.9314 -4.7961 0
M  V30 667 H 57.3199 0.122313 -2.12048 0
M  V30 668 H 59.5829 0.116892 -0.940766 0
M  V30 669 H 59.2889 1.01451 -3.3675 0
M  V30 670 H 59.1629 2.6329 -2.70108 0
M  V30 671 H 61.5499 2.38244 -1.74137 0
M  V30 672 H 61.6309 0.759894 -2.44252 0
M  V30 673 H 61.2749 1.76835 -4.76121 0
M  V30 674 H 61.2049 3.39091 -4.02895 0
M  V30 675 H 63.6959 2.1107 -3.13461 0
M  V30 676 H 64.0089 3.78354 -6.73846 0
M  V30 677 H 62.3539 3.4087 -6.05667 0
M  V30 678 H 65.5449 2.54419 -3.92923 0
M  V30 679 H 65.7179 3.30721 -5.5725 0
M  V30 680 N 59.124 1.23083 0.984299 0
M  V30 681 C 60.087 1.00979 2.05757 0
M  V30 682 C 61.087 -0.0269573 1.60777 0
M  V30 683 O 62.277 0.212403 1.729 0
M  V30 684 C 59.409 0.527072 3.36801 0
M  V30 685 H 60.602 1.9622 2.26799 0
M  V30 686 H 58.155 1.05072 1.15714 0
M  V30 687 H 58.89 -0.429294 3.21446 0
M  V30 688 H 58.675 1.27515 3.70786 0
M  V30 689 H 60.165 0.392942 4.15747 0
M  V30 690 N 60.6021 -1.18246 1.0419 0
M  V30 691 C 61.5341 -2.2142 0.592088 0
M  V30 692 C 62.5471 -1.59233 -0.338909 0
M  V30 693 O 63.7361 -1.78002 -0.133231 0
M  V30 694 C 60.8361 -3.38546 -0.154854 0
M  V30 695 C 60.0091 -4.3031 0.784328 0
M  V30 696 C 59.0681 -5.26138 0.0804583 0
M  V30 697 O 58.0941 -5.64738 0.711292 0
M  V30 698 N 59.2961 -5.68261 -1.18574 0
M  V30 699 H 62.0611 -2.60636 1.47949 0
M  V30 700 H 59.6221 -1.33044 0.922544 0
M  V30 701 H 61.6141 -3.99678 -0.635606 0
M  V30 702 H 60.1841 -2.98012 -0.943811 0
M  V30 703 H 59.4041 -3.66764 1.44491 0
M  V30 704 H 60.6921 -4.8852 1.42218 0
M  V30 705 H 60.0901 -5.38957 -1.71876 0
M  V30 706 H 58.6471 -6.31584 -1.61074 0
M  V30 707 N 62.0802 -0.821533 -1.34494 0
M  V30 708 C 63.3202 -0.414785 -2.00147 0
M  V30 709 C 63.6842 1.00299 -1.6372 0
M  V30 710 O 64.8852 1.51255 -2.22206 0
M  V30 711 C 63.1562 -0.609403 -3.52166 0
M  V30 712 S 64.7152 -0.295297 -4.37805 0
M  V30 713 H 61.5332 -0.15679 -0.693497 0
M  V30 714 H 64.1352 -1.06705 -1.63812 0
M  V30 715 H 62.8392 -1.64096 -3.76166 0
M  V30 716 H 62.3702 0.0576414 -3.93358 0
M  V30 717 H 64.3852 0.891531 -4.88125 0
M  V30 718 N 63.5583 1.46682 -0.576371 0
M  V30 719 C 64.5083 2.27278 0.181288 0
M  V30 720 C 65.4923 1.35497 0.867721 0
M  V30 721 O 66.6843 1.59717 0.762863 0
M  V30 722 C 63.8133 3.21703 1.19841 0
M  V30 723 C 62.8993 4.20969 0.51442 0
M  V30 724 N 63.2903 5.03999 -0.426407 0
M  V30 725 C 61.5883 4.39373 0.765963 0
M  V30 726 C 62.2893 5.75812 -0.825565 0
M  V30 727 N 61.2653 5.43315 -0.176116 0
M  V30 728 H 65.0673 2.88863 -0.541785 0
M  V30 729 H 62.5813 1.57455 -0.397697 0
M  V30 730 H 64.5783 3.78145 1.75533 0
M  V30 731 H 63.2383 2.61677 1.92238 0
M  V30 732 H 64.2493 5.11659 -0.8016 0
M  V30 733 H 60.9263 3.90502 1.47698 0
M  V30 734 H 62.3163 6.52577 -1.59976 0
M  V30 735 N 65.0364 0.313813 1.54444 0
M  V30 736 C 66.2614 -0.296681 2.05267 0
M  V30 737 C 66.6864 -1.45757 1.18897 0
M  V30 738 O 66.0444 -1.80239 0.195886 0
M  V30 739 C 66.0924 -0.71831 3.53373 0
M  V30 740 O 65.1964 -1.82175 3.69981 0
M  V30 741 H 64.5374 -0.0554061 0.661684 0
M  V30 742 H 67.0674 0.459387 1.99376 0
M  V30 743 H 67.0774 -1.00364 3.95463 0
M  V30 744 H 65.7524 0.130821 4.15694 0
M  V30 745 H 64.3294 -1.53598 3.39797 0
M  V30 746 N 66.5145 -1.57545 0.0417849 0
M  V30 747 C 67.7605 -1.92601 -0.635021 0
M  V30 748 C 68.0935 -0.919627 -1.71045 0
M  V30 749 O 67.3685 0.0557892 -1.9442 0
M  V30 750 C 67.6515 -3.38085 -1.23979 0
M  V30 751 C 67.5045 -4.49467 -0.173057 0
M  V30 752 C 68.8235 -3.83776 -2.15416 0
M  V30 753 H 65.9425 -0.700397 -0.229374 0
M  V30 754 H 68.5845 -1.89728 0.101633 0
M  V30 755 H 66.7345 -3.40664 -1.86762 0
M  V30 756 H 68.4065 -4.59018 0.458312 0
M  V30 757 H 66.6495 -4.30909 0.499996 0
M  V30 758 H 67.3205 -5.48323 -0.636054 0
M  V30 759 H 69.7965 -3.83013 -1.62605 0
M  V30 760 H 68.6725 -4.8624 -2.54679 0
M  V30 761 H 68.9335 -3.19998 -3.05047 0
M  V30 762 N 67.9926 0.231505 -1.5589 0
M  V30 763 C 69.4036 0.799327 -1.68724 0
M  V30 764 C 69.7546 1.85398 -0.642022 0
M  V30 765 O 68.8796 2.1539 0.208784 0
M  V30 766 C 69.4746 1.45664 -3.05888 0
M  V30 767 C 68.0336 1.97197 -3.20609 0
M  V30 768 C 67.1806 0.828552 -2.64632 0
M  V30 769 H 70.1316 0.00702616 -1.58698 0
M  V30 770 H 70.1526 2.32517 -3.01191 0
M  V30 771 H 69.6646 0.688808 -3.81939 0
M  V30 772 H 67.7656 2.76813 -2.4941 0
M  V30 773 H 67.8786 2.15878 -4.27707 0
M  V30 774 H 66.2426 1.23321 -2.22854 0
M  V30 775 H 67.0256 0.0735544 -3.43221 0
M  V30 776 N 69.4707 1.49531 0.497807 0
M  V30 777 C 70.7167 1.59415 1.25358 0
M  V30 778 C 71.0497 0.281422 1.9215 0
M  V30 779 O 70.3247 -0.715249 1.80871 0
M  V30 780 C 70.6077 2.75566 2.3181 0
M  V30 781 C 70.4607 4.16642 1.69498 0
M  V30 782 C 71.7797 2.87347 3.33346 0
M  V30 783 H 68.8987 0.580244 0.454408 0
M  V30 784 H 71.5407 1.81827 0.551262 0
M  V30 785 H 69.6907 2.56587 2.91711 0
M  V30 786 H 71.3627 4.47145 1.13399 0
M  V30 787 H 69.6057 4.22141 0.998978 0
M  V30 788 H 70.2767 4.93792 2.46725 0
M  V30 789 H 72.7527 3.04634 2.83438 0
M  V30 790 H 71.6287 3.70289 4.05188 0
M  V30 791 H 71.8897 1.96834 3.95865 0
M  V30 792 N 70.9488 -0.749086 1.3866 0
M  V30 793 C 71.8958 -1.86291 1.36251 0
M  V30 794 C 72.8658 -1.64578 0.224347 0
M  V30 795 O 74.0508 -1.86181 0.417279 0
M  V30 796 C 71.1908 -3.23644 1.19786 0
M  V30 797 C 70.3038 -3.57158 2.43027 0
M  V30 798 C 69.4388 -4.83838 2.19258 0
M  V30 799 C 68.4778 -5.10152 3.38247 0
M  V30 800 N 67.6148 -6.28029 3.13884 0
M  V30 801 H 72.4548 -1.87685 2.3147 0
M  V30 802 H 69.9918 -0.917287 1.14997 0
M  V30 803 H 71.9498 -4.0291 1.08254 0
M  V30 804 H 70.5798 -3.21566 0.282031 0
M  V30 805 H 69.6318 -2.72701 2.65214 0
M  V30 806 H 70.9438 -3.7253 3.31697 0
M  V30 807 H 70.0978 -5.71057 2.04888 0
M  V30 808 H 68.8368 -4.70614 1.2796 0
M  V30 809 H 67.8418 -4.21401 3.53131 0
M  V30 810 H 69.0668 -5.25271 4.30427 0
M  V30 811 H 67.0128 -6.1612 2.25238 0
M  V30 812 H 66.9298 -6.43922 3.96106 0
M  V30 813 H 68.1978 -7.18124 3.03179 0
M  V30 814 N 72.4269 -1.23603 -0.977757 0
M  V30 815 C 73.6519 -1.09735 -1.75991 0
M  V30 816 C 74.0769 0.346858 -1.84874 0
M  V30 817 O 73.4349 1.25093 -1.3123 0
M  V30 818 C 73.4829 -1.73051 -3.16363 0
M  V30 819 O 72.5869 -0.994452 -4.0023 0
M  V30 820 H 71.9279 -0.384476 -0.541364 0
M  V30 821 H 74.4579 -1.6371 -1.2272 0
M  V30 822 H 74.4679 -1.78398 -3.66931 0
M  V30 823 H 73.1429 -2.78137 -3.09213 0
M  V30 824 H 71.7199 -1.01812 -3.58732 0
M  V30 825 N 73.905 1.17692 -1.04816 0
M  V30 826 C 75.145 1.89545 -0.764979 0
M  V30 827 C 75.509 1.78979 0.695028 0
M  V30 828 O 76.71 2.45613 1.09215 0
M  V30 829 C 74.981 3.35659 -1.22751 0
M  V30 830 S 76.54 4.25526 -1.07112 0
M  V30 831 H 73.358 0.654432 -0.27792 0
M  V30 832 H 75.96 1.42163 -1.34201 0
M  V30 833 H 74.664 3.40882 -2.28533 0
M  V30 834 H 74.195 3.88083 -0.644594 0
M  V30 835 H 76.21 4.962 0.00697508 0
M  V30 836 N 75.3831 0.828654 1.34056 0
M  V30 837 C 76.6081 0.431637 2.02859 0
M  V30 838 C 77.0331 -0.956339 1.61975 0
M  V30 839 O 76.3911 -1.62338 0.807228 0
M  V30 840 C 76.4391 0.548323 3.56407 0
M  V30 841 O 75.5431 -0.429556 4.10157 0
M  V30 842 H 74.8841 0.176886 0.640006 0
M  V30 843 H 77.4141 1.12066 1.71179 0
M  V30 844 H 77.4241 0.426196 4.05768 0
M  V30 845 H 76.0991 1.5606 3.8551 0
M  V30 846 H 74.6761 -0.265836 3.71951 0
M  V30 847 N 76.8612 -1.46375 0.584142 0
M  V30 848 C 77.7712 -2.34115 -0.150728 0
M  V30 849 C 78.7872 -1.49838 -0.884567 0
M  V30 850 O 79.9632 -1.82704 -0.847429 0
M  V30 851 C 77.0282 -3.2705 -1.15062 0
M  V30 852 C 76.0892 -4.27228 -0.421293 0
M  V30 853 C 75.3222 -5.15722 -1.37355 0
M  V30 854 O 75.5452 -5.07176 -2.61014 0
M  V30 855 O 74.4792 -5.95383 -0.883355 0
M  V30 856 H 78.3052 -2.98309 0.569708 0
M  V30 857 H 75.8902 -1.45373 0.344535 0
M  V30 858 H 77.7722 -3.84381 -1.72712 0
M  V30 859 H 76.4472 -2.65451 -1.8525 0
M  V30 860 H 75.3542 -3.7358 0.197085 0
M  V30 861 H 76.6872 -4.91616 0.239641 0
M  V30 862 N 78.3393 -0.321999 -1.54275 0
M  V30 863 C 79.7503 0.166384 -1.85957 0
M  V30 864 C 80.1013 1.51747 -1.24367 0
M  V30 865 O 79.2263 2.09317 -0.549124 0
M  V30 866 C 79.8213 0.308681 -3.37391 0
M  V30 867 C 78.3803 0.741286 -3.69028 0
M  V30 868 C 77.5273 -0.137937 -2.76957 0
M  V30 869 H 80.4783 -0.542335 -1.49146 0
M  V30 870 H 80.4993 1.13984 -3.63026 0
M  V30 871 H 80.0113 -0.674809 -3.82188 0
M  V30 872 H 78.1123 1.73458 -3.29762 0
M  V30 873 H 78.2253 0.546118 -4.75977 0
M  V30 874 H 76.5893 0.386251 -2.51754 0
M  V30 875 H 77.3723 -1.11816 -3.2458 0
M  V30 876 N 79.8174 1.5752 -0.0501392 0
M  V30 877 C 81.2334 1.56631 0.306402 0
M  V30 878 C 81.4334 1.0577 1.71508 0
M  V30 879 O 80.4894 0.713837 2.422 0
M  V30 880 C 81.8024 3.00393 0.135811 0
M  V30 881 C 83.3504 3.12315 0.206993 0
M  V30 882 C 83.8254 4.57954 0.064944 0
M  V30 883 N 85.3164 4.63041 0.121254 0
M  V30 884 C 86.0514 5.73389 0.0354381 0
M  V30 885 N 85.5474 6.92724 -0.102666 0
M  V30 886 N 87.3404 5.62026 0.090946 0
M  V30 887 H 79.4914 1.88903 -0.971046 0
M  V30 888 H 81.7544 0.869876 -0.376855 0
M  V30 889 H 81.4604 3.41635 -0.835384 0
M  V30 890 H 81.3344 3.66373 0.897275 0
M  V30 891 H 83.7214 2.70973 1.16866 0
M  V30 892 H 83.8024 2.49016 -0.585208 0
M  V30 893 H 83.4464 4.99981 -0.893394 0
M  V30 894 H 83.3764 5.19258 0.876277 0
M  V30 895 H 85.8674 3.77216 0.227284 0
M  V30 896 H 86.1804 7.72633 -0.160882 0
M  V30 897 H 84.5254 6.94864 -0.137737 0
M  V30 898 H 87.7164 4.67684 0.197388 0
M  V30 899 H 87.8894 6.47997 0.0206089 0
M  V30 900 N 81.2955 -0.223234 1.56011 0
M  V30 901 C 82.5355 -0.954962 1.8072 0
M  V30 902 C 82.8995 -1.81598 0.623384 0
M  V30 903 O 84.1005 -2.58132 0.749745 0
M  V30 904 C 82.3715 -1.77313 3.10314 0
M  V30 905 S 83.9305 -2.56073 3.56332 0
M  V30 906 H 80.7485 -0.320812 0.634508 0
M  V30 907 H 83.3505 -0.220686 1.9425 0
M  V30 908 H 82.0545 -1.13071 3.94516 0
M  V30 909 H 81.5855 -2.54974 2.99586 0
M  V30 910 H 83.6005 -3.79619 3.19536 0
M  V30 911 N 82.7736 -1.49793 -0.48987 0
M  V30 912 C 84.0206 -1.59841 -1.24327 0
M  V30 913 C 84.3486 -0.290135 -1.92324 0
M  V30 914 O 83.6036 0.722749 -1.81865 0
M  V30 915 C 83.9026 -2.71488 -2.32441 0
M  V30 916 C 83.5686 -4.12614 -1.81826 0
M  V30 917 C 82.2306 -4.51017 -1.67742 0
M  V30 918 C 84.5826 -5.00892 -1.4407 0
M  V30 919 C 81.9106 -5.75459 -1.14297 0
M  V30 920 C 84.2626 -6.25863 -0.920742 0
M  V30 921 C 82.9266 -6.63086 -0.766383 0
M  V30 922 H 82.1966 -0.584899 -0.454944 0
M  V30 923 H 84.8436 -1.83663 -0.542215 0
M  V30 924 H 83.1486 -2.4168 -3.0838 0
M  V30 925 H 84.8456 -2.76469 -2.90458 0
M  V30 926 H 81.4356 -3.82307 -1.93751 0
M  V30 927 H 85.6196 -4.7187 -1.53794 0
M  V30 928 H 80.8756 -6.02989 -1.01068 0
M  V30 929 H 85.0496 -6.9364 -0.619448 0
M  V30 930 H 82.6766 -7.59393 -0.350083 0
M  V30 931 N 84.2517 0.741722 -1.39055 0
M  V30 932 C 85.1997 1.87702 -1.3737 0
M  V30 933 C 86.1937 1.67427 -0.257812 0
M  V30 934 O 87.3997 1.7485 -0.427489 0
M  V30 935 H 83.7747 0.617757 -0.428812 0
M  V30 936 H 85.7457 1.86239 -2.33147 0
M  V30 937 C 84.4947 3.25315 -1.22741 0
M  V30 938 H 83.8177 3.41509 -2.07873 0
M  V30 939 H 85.2577 4.04964 -1.25618 0
M  V30 940 C 83.7167 3.36838 0.0647316 0
M  V30 941 O 84.2467 3.88073 1.03741 0
M  V30 942 N 82.4527 2.90329 0.125544 0
M  V30 943 H 81.9997 2.48823 -0.666682 0
M  V30 944 H 81.9577 2.98418 0.989639 0
M  V30 945 N 85.7298 1.2412 0.971189 0
M  V30 946 C 86.9778 1.07668 1.71032 0
M  V30 947 C 87.2988 -0.385797 1.91146 0
M  V30 948 O 86.5688 -1.27569 1.4867 0
M  V30 949 H 85.1488 0.395429 0.633755 0
M  V30 950 H 87.8108 1.55984 1.16855 0
M  V30 951 H 86.9068 1.57195 2.69622 0
M  V30 952 N 87.2079 -1.17134 1.05439 0
M  V30 953 C 88.4559 -1.87085 0.764429 0
M  V30 954 C 88.7769 -1.81584 -0.710787 0
M  V30 955 O 88.0469 -1.24349 -1.51374 0
M  V30 956 H 86.6269 -0.692627 0.279779 0
M  V30 957 H 89.2889 -1.42087 1.33406 0
M  V30 958 H 88.3849 -2.92759 1.0816 0
M  V30 959 N 88.686 -0.835752 -1.33615 0
M  V30 960 C 89.914 -0.443344 -2.02094 0
M  V30 961 C 90.329 0.954522 -1.62894 0
M  V30 962 O 89.686 1.61982 -0.840723 0
M  V30 963 C 89.737 -0.550775 -3.5728 0
M  V30 964 O 89.458 -1.89356 -3.95065 0
M  V30 965 C 90.959 -0.154919 -4.43029 0
M  V30 966 H 88.179 -0.176359 -0.647409 0
M  V30 967 H 90.723 -1.12746 -1.70612 0
M  V30 968 H 88.878 0.0853997 -3.87306 0
M  V30 969 H 89.292 -1.87687 -4.89769 0
M  V30 970 H 90.766 -0.281144 -5.51284 0
M  V30 971 H 91.243 0.902863 -4.2982 0
M  V30 972 H 91.849 -0.765404 -4.18356 0
M  V30 973 N 90.1641 1.46063 -0.591896 0
M  V30 974 C 91.4041 2.04228 -0.0838014 0
M  V30 975 C 91.7681 1.45231 1.25587 0
M  V30 976 O 92.9691 1.94653 1.85375 0
M  V30 977 C 91.2401 3.57389 -0.0286282 0
M  V30 978 S 92.7991 4.3678 0.420557 0
M  V30 979 H 89.6171 0.709762 -0.0419319 0
M  V30 980 H 92.2191 1.78983 -0.786465 0
M  V30 981 H 90.9231 3.97843 -1.00743 0
M  V30 982 H 90.4541 3.87185 0.69652 0
M  V30 983 H 92.4691 4.67131 1.67341 0
M  V30 984 N 91.6422 0.330177 1.54103 0
M  V30 985 C 92.5742 -0.566902 2.22079 0
M  V30 986 C 93.5872 -1.07462 1.22294 0
M  V30 987 O 94.7762 -0.987065 1.48726 0
M  V30 988 C 91.8762 -1.79138 2.87685 0
M  V30 989 C 91.0492 -1.42123 4.13666 0
M  V30 990 C 90.1082 -2.50394 4.62806 0
M  V30 991 O 89.1342 -2.14261 5.27334 0
M  V30 992 N 90.3362 -3.81433 4.37595 0
M  V30 993 H 93.1012 0.0151844 2.99696 0
M  V30 994 H 90.6622 0.153681 1.61169 0
M  V30 995 H 92.6542 -2.50975 3.1748 0
M  V30 996 H 91.2242 -2.28115 2.13734 0
M  V30 997 H 90.4442 -0.534201 3.90564 0
M  V30 998 H 91.7322 -1.14971 4.9564 0
M  V30 999 H 91.1302 -4.13584 3.8596 0
M  V30 1000 H 89.6872 -4.4948 4.72029 0
M  V30 1001 N 93.1203 -1.57491 0.0584922 0
M  V30 1002 C 94.0523 -2.08916 -0.942694 0
M  V30 1003 C 95.0653 -1.0185 -1.27006 0
M  V30 1004 O 96.2543 -1.29398 -1.22957 0
M  V30 1005 C 93.3543 -2.52341 -2.26224 0
M  V30 1006 C 92.5273 -3.82827 -2.1157 0
M  V30 1007 C 91.5863 -4.12487 -3.26712 0
M  V30 1008 O 90.6123 -4.82295 -3.02292 0
M  V30 1009 N 91.8143 -3.64978 -4.5141 0
M  V30 1010 H 94.5793 -2.95437 -0.503722 0
M  V30 1011 H 92.1403 -1.61397 -0.12757 0
M  V30 1012 H 94.1323 -2.69254 -3.02133 0
M  V30 1013 H 92.7023 -1.7103 -2.61663 0
M  V30 1014 H 91.9223 -3.75425 -1.20208 0
M  V30 1015 H 93.2103 -4.68263 -1.99015 0
M  V30 1016 H 92.6083 -3.08558 -4.7414 0
M  V30 1017 H 91.1653 -3.87115 -5.2439 0
M  V30 1018 N 94.5984 0.214957 -1.56127 0
M  V30 1019 C 95.5614 1.24997 -1.92116 0
M  V30 1020 C 96.5614 1.39467 -0.800344 0
M  V30 1021 O 97.7514 1.37619 -1.06802 0
M  V30 1022 C 94.8834 2.62271 -2.17777 0
M  V30 1023 H 96.0764 0.942875 -2.84693 0
M  V30 1024 H 93.6294 0.455654 -1.49511 0
M  V30 1025 H 94.3644 2.98068 -1.27773 0
M  V30 1026 H 94.1494 2.53143 -2.99434 0
M  V30 1027 H 95.6394 3.36946 -2.46693 0
M  V30 1028 N 96.0765 1.50051 0.48192 0
M  V30 1029 C 97.0065 1.71046 1.58951 0
M  V30 1030 C 97.9875 0.559288 1.60642 0
M  V30 1031 O 99.1725 0.797243 1.77081 0
M  V30 1032 C 96.3025 1.79462 2.97339 0
M  V30 1033 C 95.2565 2.94558 3.10515 0
M  V30 1034 C 94.5825 2.88105 4.50444 0
M  V30 1035 C 95.8825 4.35227 2.88747 0
M  V30 1036 H 97.5765 2.6378 1.41635 0
M  V30 1037 H 95.1225 1.26936 0.679942 0
M  V30 1038 H 97.0755 1.92734 3.74742 0
M  V30 1039 H 95.7995 0.833412 3.15788 0
M  V30 1040 H 94.4585 2.80918 2.35543 0
M  V30 1041 H 94.1065 1.89853 4.65795 0
M  V30 1042 H 93.8065 3.65366 4.60197 0
M  V30 1043 H 95.3305 3.03412 5.29881 0
M  V30 1044 H 96.7445 4.49449 3.55905 0
M  V30 1045 H 95.1415 5.13856 3.09955 0
M  V30 1046 H 96.2115 4.48347 1.84696 0
M  V30 1047 N 97.5546 -0.734337 1.39446 0
M  V30 1048 C 98.7846 -1.52137 1.39778 0
M  V30 1049 C 99.1926 -1.89198 -0.00929312 0
M  V30 1050 O 98.5356 -1.54666 -0.991168 0
M  V30 1051 C 98.5976 -2.83762 2.20724 0
M  V30 1052 C 98.2616 -2.69131 3.69347 0
M  V30 1053 C 99.2586 -2.37635 4.62413 0
M  V30 1054 C 96.9436 -2.85982 4.1294 0
M  V30 1055 C 98.9376 -2.23172 5.97054 0
M  V30 1056 C 96.6246 -2.71137 5.47657 0
M  V30 1057 C 97.6226 -2.39777 6.39528 0
M  V30 1058 O 97.3106 -2.25026 7.71763 0
M  V30 1059 H 97.0426 -0.476717 0.479288 0
M  V30 1060 H 99.5966 -0.915012 1.83893 0
M  V30 1061 H 97.8266 -3.4666 1.71359 0
M  V30 1062 H 99.5156 -3.45383 2.13226 0
M  V30 1063 H 100.282 -2.24267 4.30034 0
M  V30 1064 H 96.1606 -3.09383 3.41765 0
M  V30 1065 H 99.7046 -1.98617 6.68728 0
M  V30 1066 H 95.6016 -2.84083 5.79626 0
M  V30 1067 H 96.3696 -2.40091 7.82495 0
M  V30 1068 N 99.0327 -1.24633 -0.964593 0
M  V30 1069 C 100.28 -1.08788 -1.70796 0
M  V30 1070 C 100.608 0.372783 -1.90894 0
M  V30 1071 O 99.8627 1.29167 -1.47018 0
M  V30 1072 C 100.162 -1.7763 -3.10133 0
M  V30 1073 C 99.8277 -3.27557 -3.09866 0
M  V30 1074 C 98.4897 -3.6846 -3.09501 0
M  V30 1075 C 100.842 -4.23389 -3.03959 0
M  V30 1076 C 98.1697 -5.03624 -3.00965 0
M  V30 1077 C 100.522 -5.58565 -2.96965 0
M  V30 1078 C 99.1857 -5.98809 -2.9493 0
M  V30 1079 H 98.4557 -0.398084 -0.624988 0
M  V30 1080 H 101.103 -1.54777 -1.12767 0
M  V30 1081 H 99.4077 -1.24044 -3.71645 0
M  V30 1082 H 101.105 -1.62832 -3.66451 0
M  V30 1083 H 97.6947 -2.95006 -3.10917 0
M  V30 1084 H 101.879 -3.92787 -3.03368 0
M  V30 1085 H 97.1347 -5.33998 -2.97752 0
M  V30 1086 H 101.309 -6.32523 -2.91354 0
M  V30 1087 H 98.9357 -7.03505 -2.88071 0
M  V30 1088 N 100.511 1.16574 -1.06058 0
M  V30 1089 C 101.736 1.91493 -0.796562 0
M  V30 1090 C 102.161 1.76773 0.642868 0
M  V30 1091 O 101.519 1.09142 1.44768 0
M  V30 1092 C 101.567 3.40293 -1.19303 0
M  V30 1093 O 100.671 4.11074 -0.330394 0
M  V30 1094 H 100.012 0.596678 -0.291326 0
M  V30 1095 H 102.542 1.47708 -1.41575 0
M  V30 1096 H 102.552 3.91057 -1.16356 0
M  V30 1097 H 101.227 3.50326 -2.24153 0
M  V30 1098 H 99.8038 3.70513 -0.421225 0
M  V30 1099 N 101.989 0.842826 1.3317 0
M  V30 1100 C 103.266 0.362216 1.92217 0
M  V30 1101 C 103.646 -1.15289 1.76838 0
M  V30 1102 O 102.994 -1.96914 1.15919 0
M  V30 1103 C 103.204 0.813495 3.39387 0
M  V30 1104 C 104.552 0.823804 4.16532 0
M  V30 1105 O 105.576 0.757358 3.48055 0
M  V30 1106 O 104.435 0.915193 5.38782 0
M  V30 1107 H 101.529 0.103317 0.820521 0
M  V30 1108 H 104.075 0.928942 1.42017 0
M  V30 1109 H 102.847 1.85624 3.4447 0
M  V30 1110 H 102.47 0.223561 3.96971 0
M  V30 1111 N 103.467 -1.45747 0.599634 0
M  V30 1112 C 104.714 -2.02292 0.0917284 0
M  V30 1113 C 105.042 -1.46906 -1.27472 0
M  V30 1114 O 104.297 -0.630652 -1.8526 0
M  V30 1115 C 104.596 -3.57399 -0.00602758 0
M  V30 1116 C 104.262 -4.31902 1.29503 0
M  V30 1117 C 102.924 -4.51974 1.65144 0
M  V30 1118 C 105.276 -4.74551 2.15525 0
M  V30 1119 C 102.604 -5.11949 2.86574 0
M  V30 1120 C 104.956 -5.35868 3.36196 0
M  V30 1121 C 103.62 -5.54165 3.72099 0
M  V30 1122 H 102.89 -0.740239 0.0335658 0
M  V30 1123 H 105.537 -1.7491 0.779661 0
M  V30 1124 H 103.842 -3.84014 -0.777183 0
M  V30 1125 H 105.539 -3.98846 -0.415038 0
M  V30 1126 H 102.129 -4.16588 1.00761 0
M  V30 1127 H 106.313 -4.58784 1.8929 0
M  V30 1128 H 101.569 -5.24305 3.14507 0
M  V30 1129 H 105.743 -5.6787 4.03109 0
M  V30 1130 H 103.37 -6.00406 4.6628 0
M  V30 1131 N 104.945 -0.338344 -1.53925 0
M  V30 1132 C 106.191 0.260143 -2.01125 0
M  V30 1133 C 106.524 1.50617 -1.22589 0
M  V30 1134 O 105.799 1.91979 -0.312113 0
M  V30 1135 C 106.082 0.579499 -3.55407 0
M  V30 1136 C 105.935 -0.678264 -4.44657 0
M  V30 1137 C 107.254 1.39122 -4.17532 0
M  V30 1138 H 104.373 0.0930772 -0.731099 0
M  V30 1139 H 107.015 -0.457852 -1.84401 0
M  V30 1140 H 105.165 1.19118 -3.69788 0
M  V30 1141 H 106.837 -1.31631 -4.42121 0
M  V30 1142 H 105.08 -1.3042 -4.13731 0
M  V30 1143 H 105.751 -0.410143 -5.50474 0
M  V30 1144 H 108.227 0.874035 -4.06817 0
M  V30 1145 H 107.103 1.58342 -5.25565 0
M  V30 1146 H 107.364 2.39178 -3.71815 0
M  V30 1147 N 106.423 1.57458 -0.0668435 0
M  V30 1148 C 107.663 1.95175 0.607116 0
M  V30 1149 C 108.027 0.946039 1.67075 0
M  V30 1150 O 109.228 1.2107 2.39991 0
M  V30 1151 C 107.499 3.37582 1.17358 0
M  V30 1152 S 109.058 3.97271 1.86336 0
M  V30 1153 H 105.876 0.682604 0.19893 0
M  V30 1154 H 108.478 1.95002 -0.139519 0
M  V30 1155 H 107.182 4.08566 0.387553 0
M  V30 1156 H 106.713 3.41288 1.95669 0
M  V30 1157 H 108.728 3.83772 3.14537 0
M  V30 1158 N 107.901 -0.206675 1.56239 0
M  V30 1159 C 108.833 -1.27997 1.9013 0
M  V30 1160 C 109.846 -1.42299 0.790883 0
M  V30 1161 O 111.035 -1.42931 1.06925 0
M  V30 1162 C 108.135 -2.65368 2.10792 0
M  V30 1163 C 107.308 -2.72824 3.41886 0
M  V30 1164 C 106.367 -3.9131 3.51799 0
M  V30 1165 O 105.393 -3.78953 4.24716 0
M  V30 1166 N 106.595 -5.06265 2.84035 0
M  V30 1167 H 109.36 -0.992444 2.82791 0
M  V30 1168 H 106.921 -0.396652 1.56966 0
M  V30 1169 H 108.913 -3.43039 2.14724 0
M  V30 1170 H 107.483 -2.86657 1.24685 0
M  V30 1171 H 106.703 -1.81515 3.49923 0
M  V30 1172 H 107.991 -2.74786 4.28217 0
M  V30 1173 H 107.389 -5.19203 2.246 0
M  V30 1174 H 105.946 -5.81925 2.93609 0
M  V30 1175 N 109.379 -1.50304 -0.473955 0
M  V30 1176 C 110.619 -1.62786 -1.23612 0
M  V30 1177 C 110.983 -0.319786 -1.89318 0
M  V30 1178 O 112.184 -0.320012 -2.66888 0
M  V30 1179 C 110.455 -2.77351 -2.25414 0
M  V30 1180 S 112.014 -3.09948 -3.10608 0
M  V30 1181 H 108.832 -0.573895 -0.419721 0
M  V30 1182 H 111.434 -1.88076 -0.533623 0
M  V30 1183 H 110.138 -3.70879 -1.75719 0
M  V30 1184 H 109.669 -2.54137 -3.00296 0
M  V30 1185 H 111.684 -2.53553 -4.26527 0
M  V30 1186 N 110.857 0.726932 -1.39834 0
M  V30 1187 C 112.268 1.30558 -1.3346 0
M  V30 1188 C 112.619 1.962 -0.00273003 0
M  V30 1189 O 111.744 1.96826 0.899371 0
M  V30 1190 C 112.339 2.37404 -2.41713 0
M  V30 1191 C 110.898 2.90921 -2.38835 0
M  V30 1192 C 110.045 1.64578 -2.2318 0
M  V30 1193 H 112.996 0.523862 -1.49804 0
M  V30 1194 H 113.017 3.17984 -2.08966 0
M  V30 1195 H 112.529 1.89599 -3.38635 0
M  V30 1196 H 110.63 3.42985 -1.45575 0
M  V30 1197 H 110.743 3.43487 -3.33997 0
M  V30 1198 H 109.107 1.89219 -1.70494 0
M  V30 1199 H 109.89 1.18814 -3.22084 0
M  V30 1200 N 112.336 1.25143 0.95797 0
M  V30 1201 C 113.246 1.06968 2.08794 0
M  V30 1202 C 114.262 0.00773911 1.73998 0
M  V30 1203 O 115.438 0.207972 2.00323 0
M  V30 1204 C 112.503 0.68691 3.39827 0
M  V30 1205 C 111.564 1.82641 3.88511 0
M  V30 1206 C 110.797 1.46181 5.1329 0
M  V30 1207 O 111.02 0.355971 5.69288 0
M  V30 1208 O 109.954 2.29085 5.566 0
M  V30 1209 H 113.78 2.01723 2.27027 0
M  V30 1210 H 111.365 1.04051 1.07209 0
M  V30 1211 H 113.247 0.485417 4.18595 0
M  V30 1212 H 111.922 -0.231417 3.22872 0
M  V30 1213 H 110.829 2.08274 3.10762 0
M  V30 1214 H 112.162 2.72386 4.09959 0
M  V30 1215 N 113.814 -1.1601 1.06675 0
M  V30 1216 C 115.062 -1.86264 0.784229 0
M  V30 1217 C 115.383 -1.82328 -0.691488 0
M  V30 1218 O 114.653 -1.25947 -1.50047 0
M  V30 1219 H 113.233 -0.689621 0.28711 0
M  V30 1220 H 115.895 -1.40664 1.34906 0
M  V30 1221 H 114.991 -2.91595 1.11259 0
M  V30 1222 N 115.292 -0.849877 -1.32721 0
M  V30 1223 C 116.539 -0.450923 -1.97416 0
M  V30 1224 C 116.867 0.992376 -1.67279 0
M  V30 1225 O 116.122 1.71048 -0.950845 0
M  V30 1226 C 116.421 -0.631272 -3.51781 0
M  V30 1227 C 116.087 -2.04432 -4.01894 0
M  V30 1228 C 114.749 -2.4308 -4.1529 0
M  V30 1229 C 117.101 -2.96679 -4.28522 0
M  V30 1230 C 114.429 -3.73257 -4.52654 0
M  V30 1231 C 116.781 -4.26349 -4.67343 0
M  V30 1232 C 115.445 -4.64939 -4.78945 0
M  V30 1233 H 114.715 -0.165004 -0.722395 0
M  V30 1234 H 117.362 -1.07901 -1.58207 0
M  V30 1235 H 115.667 0.0800767 -3.91718 0
M  V30 1236 H 117.364 -0.302709 -3.99856 0
M  V30 1237 H 113.954 -1.73419 -3.91949 0
M  V30 1238 H 118.138 -2.68054 -4.17685 0
M  V30 1239 H 113.394 -4.02946 -4.59831 0
M  V30 1240 H 117.568 -4.97895 -4.86902 0
M  V30 1241 H 115.195 -5.65855 -5.07654 0
M  V30 1242 N 116.77 1.45427 -0.607355 0
M  V30 1243 C 117.733 2.28974 0.101693 0
M  V30 1244 C 118.733 1.39754 0.795329 0
M  V30 1245 O 119.923 1.61878 0.643527 0
M  V30 1246 C 117.055 3.20768 1.15414 0
M  V30 1247 H 118.248 2.93147 -0.632844 0
M  V30 1248 H 115.801 1.51945 -0.366391 0
M  V30 1249 H 116.536 2.61395 1.91945 0
M  V30 1250 H 116.321 3.86489 0.66098 0
M  V30 1251 H 117.811 3.83589 1.65073 0
M  V30 1252 N 118.248 0.346503 1.53744 0
M  V30 1253 C 119.496 -0.248612 2.00565 0
M  V30 1254 C 119.817 -1.5083 1.23593 0
M  V30 1255 O 119.087 -1.92858 0.343912 0
M  V30 1256 H 117.667 -0.0948564 0.740953 0
M  V30 1257 H 120.329 0.468341 1.89189 0
M  V30 1258 H 119.425 -0.488994 3.08245 0
M  V30 1259 N 119.726 -1.57421 0.075193 0
M  V30 1260 C 120.673 -2.12915 -0.890843 0
M  V30 1261 C 121.643 -1.04252 -1.29309 0
M  V30 1262 O 122.828 -1.31933 -1.37834 0
M  V30 1263 C 119.968 -2.69795 -2.15186 0
M  V30 1264 C 119.081 -3.92624 -1.80194 0
M  V30 1265 C 118.216 -4.37736 -3.00933 0
M  V30 1266 C 117.255 -5.53205 -2.61974 0
M  V30 1267 N 116.392 -5.9326 -3.75483 0
M  V30 1268 H 121.232 -2.95156 -0.410735 0
M  V30 1269 H 118.769 -1.45854 -0.191086 0
M  V30 1270 H 120.727 -3.00883 -2.89008 0
M  V30 1271 H 119.357 -1.90313 -2.60731 0
M  V30 1272 H 118.409 -3.67977 -0.964218 0
M  V30 1273 H 119.721 -4.76482 -1.47534 0
M  V30 1274 H 118.875 -4.70503 -3.8303 0
M  V30 1275 H 117.614 -3.52739 -3.36789 0
M  V30 1276 H 116.619 -5.20086 -1.783 0
M  V30 1277 H 117.844 -6.39936 -2.27284 0
M  V30 1278 H 115.79 -5.11212 -4.11094 0
M  V30 1279 H 115.707 -6.71865 -3.46602 0
M  V30 1280 H 116.975 -6.30651 -4.58148 0
M  V30 1281 N 121.204 0.198386 -1.56346 0
M  V30 1282 C 122.444 0.92609 -1.82217 0
M  V30 1283 C 122.808 1.80584 -0.652195 0
M  V30 1284 O 124.009 2.56907 -0.790716 0
M  V30 1285 C 122.28 1.72354 -3.13096 0
M  V30 1286 S 123.839 2.50371 -3.6036 0
M  V30 1287 H 120.657 0.310677 -0.639532 0
M  V30 1288 H 123.259 0.189755 -1.94577 0
M  V30 1289 H 121.963 1.0678 -3.96265 0
M  V30 1290 H 121.494 2.50175 -3.03605 0
M  V30 1291 H 123.509 3.74488 -3.25535 0
M  V30 1292 N 122.682 1.50554 0.465978 0
M  V30 1293 C 123.922 1.63439 1.22747 0
M  V30 1294 C 124.286 0.329822 1.89146 0
M  V30 1295 O 125.487 0.334161 2.66715 0
M  V30 1296 C 123.758 2.78542 2.2394 0
M  V30 1297 S 125.317 3.11591 3.0896 0
M  V30 1298 H 122.135 0.576113 0.416672 0
M  V30 1299 H 124.737 1.88357 0.523641 0
M  V30 1300 H 123.441 3.71805 1.7375 0
M  V30 1301 H 122.972 2.55726 2.98944 0
M  V30 1302 H 124.987 2.55811 4.25176 0
M  V30 1303 N 124.16 -0.719506 1.40217 0
M  V30 1304 C 125.07 -1.86378 1.42479 0
M  V30 1305 C 126.086 -1.71073 0.317834 0
M  V30 1306 O 127.262 -1.93406 0.561794 0
M  V30 1307 C 124.327 -3.22136 1.28178 0
M  V30 1308 C 123.388 -3.49723 2.48982 0
M  V30 1309 C 122.621 -4.79004 2.35353 0
M  V30 1310 O 122.844 -5.53821 1.36524 0
M  V30 1311 O 121.778 -5.06839 3.2465 0
M  V30 1312 H 125.604 -1.87425 2.38968 0
M  V30 1313 H 123.189 -0.869405 1.21498 0
M  V30 1314 H 125.071 -4.03234 1.22395 0
M  V30 1315 H 123.746 -3.21825 0.347934 0
M  V30 1316 H 122.653 -2.6865 2.60342 0
M  V30 1317 H 123.986 -3.54828 3.41113 0
M  V30 1318 N 125.638 -1.25649 -0.95132 0
M  V30 1319 C 126.887 -1.09988 -1.69073 0
M  V30 1320 C 127.2 0.358355 -1.92289 0
M  V30 1321 O 128.406 0.635466 -2.63958 0
M  V30 1322 C 126.862 -1.92012 -3.044 0
M  V30 1323 C 126.47 -3.42347 -2.88968 0
M  V30 1324 C 128.214 -1.8493 -3.82101 0
M  V30 1325 C 126.121 -4.16655 -4.19705 0
M  V30 1326 H 125.051 -0.407993 -0.63408 0
M  V30 1327 H 127.702 -1.49873 -1.05879 0
M  V30 1328 H 126.084 -1.44952 -3.68517 0
M  V30 1329 H 127.258 -3.97104 -2.33762 0
M  V30 1330 H 125.573 -3.50557 -2.24719 0
M  V30 1331 H 128.17 -2.37739 -4.78941 0
M  V30 1332 H 128.513 -0.817883 -4.08187 0
M  V30 1333 H 129.046 -2.29758 -3.2474 0
M  V30 1334 H 125.785 -5.20224 -3.98807 0
M  V30 1335 H 125.305 -3.66681 -4.74663 0
M  V30 1336 H 126.984 -4.24551 -4.88227 0
M  V30 1337 N 127.117 1.15442 -1.07289 0
M  V30 1338 C 128.394 1.82306 -0.708792 0
M  V30 1339 C 128.774 1.94991 0.808807 0
M  V30 1340 O 128.122 1.50085 1.72298 0
M  V30 1341 C 128.332 3.18695 -1.42247 0
M  V30 1342 C 129.68 3.94341 -1.57417 0
M  V30 1343 O 130.704 3.28247 -1.38319 0
M  V30 1344 O 129.563 5.12839 -1.88834 0
M  V30 1345 H 126.657 0.787628 -0.252132 0
M  V30 1346 H 129.203 1.22559 -1.17377 0
M  V30 1347 H 127.975 3.04557 -2.45684 0
M  V30 1348 H 127.598 3.86128 -0.948223 0
M  V30 1349 N 128.595 0.856903 1.32268 0
M  V30 1350 C 129.823 0.475439 2.01363 0
M  V30 1351 C 130.238 -0.928486 1.64392 0
M  V30 1352 O 129.595 -1.60624 0.866387 0
M  V30 1353 C 129.646 0.607545 3.56358 0
M  V30 1354 O 129.367 1.95617 3.92002 0
M  V30 1355 C 130.868 0.225382 4.42727 0
M  V30 1356 H 128.088 0.186636 0.644521 0
M  V30 1357 H 130.632 1.15446 1.68797 0
M  V30 1358 H 128.787 -0.0237719 3.87393 0
M  V30 1359 H 129.201 1.95455 4.86721 0
M  V30 1360 H 130.675 0.368813 5.50767 0
M  V30 1361 H 131.152 -0.834369 4.31202 0
M  V30 1362 H 131.758 0.831864 4.17085 0
M  V30 1363 N 130.073 -1.45103 0.615059 0
M  V30 1364 C 131.489 -1.57137 0.279322 0
M  V30 1365 C 131.689 -1.60523 -1.21797 0
M  V30 1366 O 130.745 -1.53956 -2.00134 0
M  V30 1367 C 132.058 -2.85062 0.957083 0
M  V30 1368 C 133.606 -2.98749 0.933706 0
M  V30 1369 C 134.081 -4.29455 1.59162 0
M  V30 1370 N 135.572 -4.36231 1.55746 0
M  V30 1371 C 136.307 -5.36051 2.0356 0
M  V30 1372 N 135.803 -6.42367 2.59494 0
M  V30 1373 N 137.596 -5.27456 1.94284 0
M  V30 1374 H 129.747 -1.41148 1.58717 0
M  V30 1375 H 132.01 -0.675331 0.665306 0
M  V30 1376 H 131.716 -2.88488 2.01166 0
M  V30 1377 H 131.59 -3.7407 0.48494 0
M  V30 1378 H 133.977 -2.94886 -0.112347 0
M  V30 1379 H 134.058 -2.11132 1.44419 0
M  V30 1380 H 133.702 -4.34077 2.63704 0
M  V30 1381 H 133.632 -5.15901 1.0561 0
M  V30 1382 H 136.123 -3.60011 1.14893 0
M  V30 1383 H 136.436 -7.14793 2.93752 0
M  V30 1384 H 134.781 -6.43097 2.63537 0
M  V30 1385 H 137.972 -4.43308 1.5032 0
M  V30 1386 H 138.145 -6.05099 2.3186 0
M  V30 1387 N 131.551 -0.354651 -1.53558 0
M  V30 1388 C 132.514 0.484566 -2.24019 0
M  V30 1389 C 133.514 1.01861 -1.24422 0
M  V30 1390 O 134.704 0.906097 -1.4878 0
M  V30 1391 C 131.836 1.67615 -2.96847 0
M  V30 1392 H 133.029 -0.131843 -2.9961 0
M  V30 1393 H 130.582 -0.106165 -1.55939 0
M  V30 1394 H 131.317 2.33095 -2.25471 0
M  V30 1395 H 131.102 1.30029 -3.69912 0
M  V30 1396 H 132.592 2.27114 -3.50441 0
M  V30 1397 N 133.029 1.57378 -0.0835403 0
M  V30 1398 C 134.257 1.98263 0.59157 0
M  V30 1399 C 134.672 0.962302 1.62435 0
M  V30 1400 O 134.029 -0.049581 1.82433 0
M  V30 1401 C 134.08 3.39214 1.24965 0
M  V30 1402 O 133.801 4.37339 0.258186 0
M  V30 1403 C 135.302 3.95038 2.01147 0
M  V30 1404 H 132.522 0.651773 0.159477 0
M  V30 1405 H 135.066 2.03878 -0.159415 0
M  V30 1406 H 133.221 3.34649 1.95164 0
M  V30 1407 H 133.635 5.19371 0.731734 0
M  V30 1408 H 135.109 4.95848 2.42567 0
M  V30 1409 H 135.586 3.32222 2.87272 0
M  V30 1410 H 136.192 4.0304 1.35789 0
M  V30 1411 N 134.507 -0.190092 1.56449 0
M  V30 1412 C 135.747 -0.916414 1.82705 0
M  V30 1413 C 136.111 -1.80235 0.661763 0
M  V30 1414 O 137.312 -2.56484 0.80433 0
M  V30 1415 C 135.583 -1.70691 3.14005 0
M  V30 1416 S 137.142 -2.48457 3.61683 0
M  V30 1417 H 133.96 -0.307281 0.64117 0
M  V30 1418 H 136.562 -0.179433 1.94675 0
M  V30 1419 H 135.266 -1.04677 3.96826 0
M  V30 1420 H 134.797 -2.48562 3.04927 0
M  V30 1421 H 136.812 -3.72756 3.27517 0
M  V30 1422 N 135.985 -1.50799 -0.457987 0
M  V30 1423 C 137.215 -1.65977 -1.23025 0
M  V30 1424 C 137.623 -0.347918 -1.85974 0
M  V30 1425 O 136.966 0.68148 -1.70592 0
M  V30 1426 C 137.028 -2.70309 -2.3701 0
M  V30 1427 C 136.692 -4.135 -1.94594 0
M  V30 1428 C 137.689 -4.98949 -1.46101 0
M  V30 1429 C 135.374 -4.5949 -2.02915 0
M  V30 1430 C 137.368 -6.28442 -1.06489 0
M  V30 1431 C 135.055 -5.88984 -1.62914 0
M  V30 1432 C 136.053 -6.73286 -1.1478 0
M  V30 1433 O 135.741 -8.00362 -0.75339 0
M  V30 1434 H 135.473 -0.56064 -0.377702 0
M  V30 1435 H 138.027 -1.97857 -0.551537 0
M  V30 1436 H 136.257 -2.337 -3.08093 0
M  V30 1437 H 137.946 -2.74574 -2.98938 0
M  V30 1438 H 138.712 -4.6463 -1.39084 0
M  V30 1439 H 134.591 -3.94009 -2.39328 0
M  V30 1440 H 138.135 -6.94194 -0.688488 0
M  V30 1441 H 134.032 -6.22822 -1.69595 0
M  V30 1442 H 134.8 -8.13744 -0.88108 0
M  V30 1443 N 137.463 0.71206 -1.40597 0
M  V30 1444 C 138.373 1.8562 -1.43466 0
M  V30 1445 C 139.389 1.70902 -0.326902 0
M  V30 1446 O 140.565 1.93105 -0.572043 0
M  V30 1447 C 137.63 3.21451 -1.29884 0
M  V30 1448 C 136.691 3.48398 -2.50833 0
M  V30 1449 C 135.924 4.77749 -2.3789 0
M  V30 1450 O 136.147 5.53089 -1.39459 0
M  V30 1451 O 135.081 5.05111 -3.27333 0
M  V30 1452 H 138.907 1.86155 -2.39958 0
M  V30 1453 H 136.492 0.86295 -1.21957 0
M  V30 1454 H 138.374 4.02579 -1.24531 0
M  V30 1455 H 137.049 3.21636 -0.364997 0
M  V30 1456 H 135.956 2.67265 -2.61763 0
M  V30 1457 H 137.289 3.53014 -3.4299 0
M  V30 1458 N 138.941 1.26152 0.944643 0
M  V30 1459 C 140.218 1.02247 1.66748 0
M  V30 1460 C 140.598 -0.448202 2.06287 0
M  V30 1461 O 139.946 -1.42779 1.78399 0
M  V30 1462 C 140.156 1.96788 2.88228 0
M  V30 1463 C 141.504 2.25201 3.59958 0
M  V30 1464 O 142.528 1.94626 2.98327 0
M  V30 1465 O 141.387 2.77242 4.70956 0
M  V30 1466 H 138.481 0.388517 0.730057 0
M  V30 1467 H 141.027 1.37348 0.99668 0
M  V30 1468 H 139.799 2.96047 2.55875 0
M  V30 1469 H 139.422 1.62145 3.63035 0
M  V30 1470 N 140.419 -1.14872 1.07899 0
M  V30 1471 C 141.351 -2.19425 0.662231 0
M  V30 1472 C 142.364 -1.60231 -0.288079 0
M  V30 1473 O 143.553 -1.78336 -0.076534 0
M  V30 1474 C 140.653 -3.38867 -0.0470695 0
M  V30 1475 C 139.826 -4.27597 0.920831 0
M  V30 1476 C 138.885 -5.25616 0.247805 0
M  V30 1477 O 137.911 -5.62189 0.890599 0
M  V30 1478 N 139.113 -5.71746 -1.00435 0
M  V30 1479 H 141.878 -2.55797 1.56166 0
M  V30 1480 H 139.439 -1.30042 0.964404 0
M  V30 1481 H 141.431 -4.01497 -0.50813 0
M  V30 1482 H 140.001 -3.00864 -0.848523 0
M  V30 1483 H 139.221 -3.61982 1.56087 0
M  V30 1484 H 140.509 -4.83748 1.57688 0
M  V30 1485 H 139.907 -5.44153 -1.54642 0
M  V30 1486 H 138.464 -6.36389 -1.40899 0
M  V30 1487 N 141.898 -0.863906 -1.31812 0
M  V30 1488 C 143.146 -0.470904 -1.96537 0
M  V30 1489 C 143.467 0.978771 -1.68657 0
M  V30 1490 O 142.737 1.6853 -0.998717 0
M  V30 1491 H 141.317 -0.171148 -0.72713 0
M  V30 1492 H 143.979 -1.10236 -1.60729 0
M  V30 1493 H 143.075 -0.623616 -3.05806 0
M  V30 1494 N 143.376 1.44774 -0.622745 0
M  V30 1495 C 144.625 2.01334 -0.121397 0
M  V30 1496 C 144.938 1.49505 1.26125 0
M  V30 1497 O 146.144 1.98139 1.85616 0
M  V30 1498 C 144.6 3.59516 -0.166298 0
M  V30 1499 C 144.208 4.20342 -1.54974 0
M  V30 1500 C 145.952 4.23582 0.279021 0
M  V30 1501 C 143.859 5.70721 -1.55021 0
M  V30 1502 H 142.789 0.752851 -0.0416172 0
M  V30 1503 H 145.44 1.66083 -0.780309 0
M  V30 1504 H 143.822 3.92027 0.559557 0
M  V30 1505 H 144.996 3.99381 -2.29851 0
M  V30 1506 H 143.311 3.68529 -1.93843 0
M  V30 1507 H 145.908 5.33868 0.298083 0
M  V30 1508 H 146.251 3.95327 1.30471 0
M  V30 1509 H 146.784 3.95843 -0.394063 0
M  V30 1510 H 143.523 6.03698 -2.55399 0
M  V30 1511 H 143.043 5.93829 -0.844245 0
M  V30 1512 H 144.722 6.34203 -1.28047 0
M  V30 1513 N 144.854 0.36279 1.53368 0
M  V30 1514 C 146.079 -0.231226 2.06107 0
M  V30 1515 C 146.504 -1.419 1.23474 0
M  V30 1516 O 145.862 -1.79524 0.253128 0
M  V30 1517 C 145.91 -0.605523 3.5548 0
M  V30 1518 O 145.014 -1.70312 3.7559 0
M  V30 1519 H 144.355 -0.034327 0.663112 0
M  V30 1520 H 146.885 0.522584 1.97814 0
M  V30 1521 H 146.895 -0.877314 3.98456 0
M  V30 1522 H 145.57 0.263004 4.15068 0
M  V30 1523 H 144.147 -1.4271 3.44512 0
M  V30 1524 N 146.332 -1.57332 0.0918853 0
M  V30 1525 C 147.562 -1.98286 -0.580205 0
M  V30 1526 C 147.97 -0.969713 -1.6246 0
M  V30 1527 O 147.313 0.0493501 -1.83634 0
M  V30 1528 C 147.375 -3.35603 -1.28882 0
M  V30 1529 C 147.039 -4.55285 -0.395559 0
M  V30 1530 C 148.036 -5.18687 0.355002 0
M  V30 1531 C 145.721 -5.01314 -0.314556 0
M  V30 1532 C 147.715 -6.26484 1.17458 0
M  V30 1533 C 145.402 -6.08979 0.508677 0
M  V30 1534 C 146.4 -6.71429 1.2519 0
M  V30 1535 O 146.088 -7.77018 2.06151 0
M  V30 1536 H 145.82 -0.656678 -0.160466 0
M  V30 1537 H 148.374 -2.04721 0.16688 0
M  V30 1538 H 146.604 -3.25842 -2.08241 0
M  V30 1539 H 148.293 -3.61026 -1.85512 0
M  V30 1540 H 149.059 -4.84058 0.302134 0
M  V30 1541 H 144.938 -4.5247 -0.882697 0
M  V30 1542 H 148.482 -6.75159 1.75518 0
M  V30 1543 H 144.379 -6.4304 0.563037 0
M  V30 1544 H 145.147 -7.93991 1.98799 0
M  V30 1545 N 147.81 0.181792 -1.56548 0
M  V30 1546 C 149.226 0.53316 -1.50431 0
M  V30 1547 C 149.426 1.85184 -0.794297 0
M  V30 1548 O 148.482 2.50058 -0.350318 0
M  V30 1549 C 149.795 0.575597 -2.9514 0
M  V30 1550 C 151.343 0.663519 -3.05886 0
M  V30 1551 C 151.818 0.736946 -4.52032 0
M  V30 1552 N 153.309 0.800118 -4.56237 0
M  V30 1553 C 154.044 0.877327 -5.66649 0
M  V30 1554 N 153.54 0.916016 -6.86718 0
M  V30 1555 N 155.333 0.915542 -5.54594 0
M  V30 1556 H 147.484 -0.683025 -2.01118 0
M  V30 1557 H 149.747 -0.244988 -0.915797 0
M  V30 1558 H 149.453 -0.324482 -3.502 0
M  V30 1559 H 149.327 1.42572 -3.49218 0
M  V30 1560 H 151.714 1.55403 -2.50867 0
M  V30 1561 H 151.795 -0.21307 -2.54911 0
M  V30 1562 H 151.439 -0.149262 -5.07681 0
M  V30 1563 H 151.369 1.62953 -5.00753 0
M  V30 1564 H 153.86 0.778926 -3.69785 0
M  V30 1565 H 154.173 0.975813 -7.66614 0
M  V30 1566 H 152.518 0.884469 -6.89349 0
M  V30 1567 H 155.709 0.882245 -4.59711 0
M  V30 1568 H 155.882 0.972253 -6.40665 0
M  V30 1569 N 149.288 1.51039 0.449983 0
M  V30 1570 C 150.536 1.62759 1.19808 0
M  V30 1571 C 150.857 0.339981 1.92013 0
M  V30 1572 O 150.127 -0.643606 1.85026 0
M  V30 1573 H 148.707 0.599811 0.445237 0
M  V30 1574 H 151.369 1.87914 0.517138 0
M  V30 1575 H 150.465 2.44911 1.93455 0
M  V30 1576 N 150.766 -0.704594 1.40972 0
M  V30 1577 C 151.994 -1.49354 1.43182 0
M  V30 1578 C 152.409 -1.88768 0.0345508 0
M  V30 1579 O 151.766 -1.56184 -0.944081 0
M  V30 1580 C 151.817 -2.76187 2.33244 0
M  V30 1581 O 151.538 -2.38436 3.67532 0
M  V30 1582 C 153.039 -3.7 2.44162 0
M  V30 1583 H 150.259 -0.460559 0.487982 0
M  V30 1584 H 152.803 -0.868261 1.85153 0
M  V30 1585 H 150.958 -3.34974 1.94606 0
M  V30 1586 H 151.372 -3.20126 4.15475 0
M  V30 1587 H 152.846 -4.55803 3.11364 0
M  V30 1588 H 153.323 -4.13867 1.47006 0
M  V30 1589 H 153.929 -3.17121 2.83398 0
M  V30 1590 N 152.244 -1.26651 -0.937939 0
M  V30 1591 C 153.49 -1.13562 -1.68746 0
M  V30 1592 C 153.845 0.317241 -1.89767 0
M  V30 1593 O 153.138 1.22939 -1.46957 0
M  V30 1594 C 153.332 -1.84168 -3.06295 0
M  V30 1595 C 153.161 -3.36171 -2.98696 0
M  V30 1596 C 151.931 -4.05468 -3.01535 0
M  V30 1597 C 154.129 -4.32312 -2.78588 0
M  V30 1598 N 152.111 -5.44118 -2.84269 0
M  V30 1599 C 153.482 -5.58159 -2.69924 0
M  V30 1600 C 155.537 -4.22524 -2.63396 0
M  V30 1601 C 154.24 -6.75335 -2.47618 0
M  V30 1602 C 156.266 -5.39411 -2.42466 0
M  V30 1603 C 155.628 -6.64208 -2.34536 0
M  V30 1604 H 151.727 -0.470361 -0.624728 0
M  V30 1605 H 154.311 -1.59982 -1.10968 0
M  V30 1606 H 152.482 -1.40219 -3.62206 0
M  V30 1607 H 154.214 -1.63674 -3.70126 0
M  V30 1608 H 150.969 -3.56854 -3.11372 0
M  V30 1609 H 151.393 -6.1693 -2.78795 0
M  V30 1610 H 156.035 -3.26771 -2.68292 0
M  V30 1611 H 153.753 -7.71182 -2.41463 0
M  V30 1612 H 157.339 -5.33711 -2.31611 0
M  V30 1613 H 156.219 -7.53129 -2.18555 0
M  V30 1614 N 153.722 1.14298 -1.08507 0
M  V30 1615 C 154.947 1.8976 -0.837001 0
M  V30 1616 C 155.372 1.78097 0.605228 0
M  V30 1617 O 154.73 1.12188 1.4242 0
M  V30 1618 C 154.778 3.37685 -1.26495 0
M  V30 1619 O 153.882 4.10281 -0.417514 0
M  V30 1620 H 153.223 0.590365 -0.303917 0
M  V30 1621 H 155.753 1.44672 -1.44676 0
M  V30 1622 H 155.763 3.88501 -1.24625 0
M  V30 1623 H 154.438 3.45492 -2.31534 0
M  V30 1624 H 153.015 3.69536 -0.499722 0
M  V30 1625 N 155.201 0.870884 1.31352 0
M  V30 1626 C 156.429 0.49677 2.00848 0
M  V30 1627 C 156.844 -0.910998 1.65367 0
M  V30 1628 O 156.201 -1.59696 0.883374 0
M  V30 1629 C 156.252 0.645308 3.55694 0
M  V30 1630 O 155.973 1.99764 3.89905 0
M  V30 1631 C 157.474 0.272326 4.42463 0
M  V30 1632 H 154.694 0.193462 0.642506 0
M  V30 1633 H 157.238 1.1723 1.67563 0
M  V30 1634 H 155.393 0.0173176 3.87396 0
M  V30 1635 H 155.807 2.00607 4.84621 0
M  V30 1636 H 157.281 0.427208 5.50344 0
M  V30 1637 H 157.758 -0.788587 4.32062 0
M  V30 1638 H 158.364 0.876054 4.1618 0
M  V30 1639 N 156.679 -1.44442 0.630414 0
M  V30 1640 C 157.642 -2.29107 -0.0652523 0
M  V30 1641 C 158.642 -1.41002 -0.772995 0
M  V30 1642 O 159.832 -1.62881 -0.617692 0
M  V30 1643 C 156.964 -3.22564 -1.10296 0
M  V30 1644 H 158.157 -2.92103 0.679401 0
M  V30 1645 H 155.71 -1.51343 0.390517 0
M  V30 1646 H 156.445 -2.64416 -1.87762 0
M  V30 1647 H 156.23 -3.87491 -0.59941 0
M  V30 1648 H 157.72 -3.86167 -1.5895 0
M  V30 1649 N 158.157 -0.370918 -1.53173 0
M  V30 1650 C 159.067 0.480823 -2.2962 0
M  V30 1651 C 160.083 1.08789 -1.35798 0
M  V30 1652 O 161.259 1.09768 -1.68858 0
M  V30 1653 C 158.324 1.60227 -3.07454 0
M  V30 1654 C 157.385 1.0222 -4.16953 0
M  V30 1655 C 156.618 2.0902 -4.91066 0
M  V30 1656 O 156.841 3.30222 -4.65091 0
M  V30 1657 O 155.775 1.71778 -5.76867 0
M  V30 1658 H 159.601 -0.141421 -3.03371 0
M  V30 1659 H 157.186 -0.135146 -1.48787 0
M  V30 1660 H 159.068 2.25417 -3.56041 0
M  V30 1661 H 157.743 2.20982 -2.36535 0
M  V30 1662 H 156.65 0.334064 -3.72605 0
M  V30 1663 H 157.983 0.459131 -4.90054 0
M  V30 1664 N 159.635 1.57281 -0.100228 0
M  V30 1665 C 160.86 1.99302 0.573881 0
M  V30 1666 C 161.285 0.979059 1.60611 0
M  V30 1667 O 160.643 -0.0517803 1.81226 0
M  V30 1668 C 160.691 3.40274 1.19358 0
M  V30 1669 O 159.795 3.41676 2.30935 0
M  V30 1670 H 159.136 0.647944 0.145138 0
M  V30 1671 H 161.666 2.03779 -0.183156 0
M  V30 1672 H 161.676 3.78078 1.53365 0
M  V30 1673 H 160.351 4.13594 0.437385 0
M  V30 1674 H 158.928 3.15672 1.98509 0
M  V30 1675 N 161.113 -0.173488 1.56642 0
M  V30 1676 C 162.361 -0.888706 1.81512 0
M  V30 1677 C 162.682 -1.82875 0.676872 0
M  V30 1678 O 161.952 -1.93536 -0.303414 0
M  V30 1679 H 160.532 -0.331164 0.669582 0
M  V30 1680 H 163.194 -0.173823 1.94123 0
M  V30 1681 H 162.29 -1.46691 2.75478 0
M  V30 1682 N 162.591 -1.51276 -0.441967 0
M  V30 1683 C 163.554 -1.7167 -1.51862 0
M  V30 1684 C 164.554 -0.586793 -1.49711 0
M  V30 1685 O 165.744 -0.854276 -1.51815 0
M  V30 1686 C 162.876 -1.76889 -2.91416 0
M  V30 1687 H 164.069 -2.67754 -1.35084 0
M  V30 1688 H 161.622 -1.41196 -0.670333 0
M  V30 1689 H 162.357 -0.826026 -3.13604 0
M  V30 1690 H 162.142 -2.59001 -2.94382 0
M  V30 1691 H 163.632 -1.94522 -3.69528 0
M  V30 1692 N 164.069 0.697108 -1.41344 0
M  V30 1693 C 164.979 1.84088 -1.45427 0
M  V30 1694 C 165.995 1.70545 -0.34501 0
M  V30 1695 O 167.171 1.92488 -0.592492 0
M  V30 1696 C 164.236 3.20056 -1.33286 0
M  V30 1697 C 163.297 3.45718 -2.54514 0
M  V30 1698 C 162.53 4.75199 -2.42944 0
M  V30 1699 O 162.753 5.51579 -1.45318 0
M  V30 1700 O 161.687 5.0161 -3.32672 0
M  V30 1701 H 165.513 1.836 -2.41919 0
M  V30 1702 H 163.098 0.849966 -1.22866 0
M  V30 1703 H 164.98 4.01236 -1.28794 0
M  V30 1704 H 163.655 3.2123 -0.39909 0
M  V30 1705 H 162.562 2.64474 -2.64583 0
M  V30 1706 H 163.895 3.49356 -3.46715 0
M  V30 1707 N 165.547 1.27147 0.931209 0
M  V30 1708 C 166.787 1.14511 1.69312 0
M  V30 1709 C 167.151 -0.304638 1.89568 0
M  V30 1710 O 168.352 -0.553343 2.63043 0
M  V30 1711 C 166.623 1.90349 3.02493 0
M  V30 1712 S 168.182 1.93884 3.93642 0
M  V30 1713 H 165 0.408858 0.581684 0
M  V30 1714 H 167.602 1.61006 1.10893 0
M  V30 1715 H 166.306 2.94877 2.85439 0
M  V30 1716 H 165.837 1.44333 3.65966 0
M  V30 1717 H 167.852 1.03273 4.85334 0
M  V30 1718 N 167.025 -1.13721 1.09112 0
M  V30 1719 C 168.253 -1.88773 0.846899 0
M  V30 1720 C 168.668 -1.7896 -0.601572 0
M  V30 1721 O 168.025 -1.15394 -1.41388 0
M  V30 1722 C 168.076 -3.3849 1.26913 0
M  V30 1723 O 167.797 -3.48043 2.66079 0
M  V30 1724 C 169.298 -4.30518 1.05682 0
M  V30 1725 H 166.518 -0.59772 0.304914 0
M  V30 1726 H 169.062 -1.43977 1.45227 0
M  V30 1727 H 167.217 -3.80881 0.707723 0
M  V30 1728 H 167.631 -4.4109 2.83795 0
M  V30 1729 H 169.105 -5.3391 1.40156 0
M  V30 1730 H 169.582 -4.392 -0.00563416 0
M  V30 1731 H 170.188 -3.93893 1.60402 0
M  V30 1732 N 168.503 -0.877838 -1.30888 0
M  V30 1733 C 169.451 -0.328662 -2.30266 0
M  V30 1734 C 170.445 0.560496 -1.59859 0
M  V30 1735 O 171.651 0.445722 -1.74394 0
M  V30 1736 H 168.026 -0.0876142 -0.746879 0
M  V30 1737 H 169.997 -1.18061 -2.74051 0
M  V30 1738 C 168.746 0.448071 -3.44801 0
M  V30 1739 H 168.069 -0.226859 -3.99156 0
M  V30 1740 H 169.509 0.797541 -4.16432 0
M  V30 1741 C 167.968 1.64239 -2.94155 0
M  V30 1742 O 168.498 2.74175 -2.93583 0
M  V30 1743 N 166.704 1.47716 -2.50256 0
M  V30 1744 H 166.251 0.582821 -2.5092 0
M  V30 1745 H 166.209 2.27765 -2.16727 0
M  V30 1746 N 169.982 1.44106 -0.638065 0
M  V30 1747 C 171.228 2.02815 -0.15409 0
M  V30 1748 C 171.583 1.49342 1.21304 0
M  V30 1749 O 170.876 0.670699 1.79478 0
M  V30 1750 C 171.07 3.5729 -0.0887327 0
M  V30 1751 C 170.899 4.2575 -1.44799 0
M  V30 1752 C 169.669 4.62443 -2.03653 0
M  V30 1753 C 171.867 4.55746 -2.38327 0
M  V30 1754 N 169.849 5.15903 -3.32741 0
M  V30 1755 C 171.22 5.10364 -3.52036 0
M  V30 1756 C 173.275 4.37703 -2.3732 0
M  V30 1757 C 171.978 5.48837 -4.64941 0
M  V30 1758 C 174.004 4.77229 -3.49294 0
M  V30 1759 C 173.366 5.31966 -4.61726 0
M  V30 1760 H 169.465 0.775519 -0.100466 0
M  V30 1761 H 172.049 1.755 -0.843071 0
M  V30 1762 H 170.22 3.84201 0.569548 0
M  V30 1763 H 171.952 4.02671 0.404711 0
M  V30 1764 H 168.707 4.46987 -1.56523 0
M  V30 1765 H 169.131 5.47102 -3.98758 0
M  V30 1766 H 173.773 3.94671 -1.51641 0
M  V30 1767 H 171.491 5.9082 -5.51323 0
M  V30 1768 H 175.077 4.64976 -3.49698 0
M  V30 1769 H 173.957 5.61986 -5.46939 0
M  V30 1770 N 171.46 0.379036 1.52974 0
M  V30 1771 C 172.408 -0.476033 2.27677 0
M  V30 1772 C 173.402 -1.0719 1.31174 0
M  V30 1773 O 174.608 -1.01355 1.48752 0
M  V30 1774 H 170.983 -0.172255 0.732006 0
M  V30 1775 H 172.954 0.175615 2.97883 0
M  V30 1776 C 171.703 -1.5967 3.0887 0
M  V30 1777 H 171.026 -1.1475 3.82978 0
M  V30 1778 H 172.466 -2.16943 3.64296 0
M  V30 1779 C 170.925 -2.54682 2.20542 0
M  V30 1780 O 171.455 -3.57836 1.82527 0
M  V30 1781 N 169.661 -2.24183 1.84907 0
M  V30 1782 H 169.208 -1.40333 2.1602 0
M  V30 1783 H 169.166 -2.88006 1.26096 0
M  V30 1784 N 172.938 -1.57226 0.108567 0
M  V30 1785 C 174.163 -1.99604 -0.563303 0
M  V30 1786 C 174.588 -0.987563 -1.6009 0
M  V30 1787 O 173.946 0.0421687 -1.81251 0
M  V30 1788 C 173.994 -3.40902 -1.17552 0
M  V30 1789 O 173.098 -3.42896 -2.2912 0
M  V30 1790 H 172.439 -0.648704 -0.1417 0
M  V30 1791 H 174.969 -2.03679 0.193961 0
M  V30 1792 H 174.979 -3.78886 -1.51357 0
M  V30 1793 H 173.654 -4.1382 -0.415445 0
M  V30 1794 H 172.231 -3.1672 -1.96832 0
M  V30 1795 N 174.416 0.165178 -1.56732 0
M  V30 1796 C 175.641 0.900253 -1.86843 0
M  V30 1797 C 176.066 1.74766 -0.695596 0
M  V30 1798 O 175.424 1.77786 0.35522 0
M  V30 1799 C 175.472 1.74777 -3.15413 0
M  V30 1800 O 174.576 2.85007 -2.98068 0
M  V30 1801 H 173.917 0.251832 -0.614391 0
M  V30 1802 H 176.447 0.161468 -2.03962 0
M  V30 1803 H 176.457 2.14646 -3.46974 0
M  V30 1804 H 175.132 1.12537 -4.00385 0
M  V30 1805 H 173.709 2.48676 -2.77875 0
M  V30 1806 N 175.894 1.51508 0.433938 0
M  V30 1807 C 176.857 1.72473 1.50949 0
M  V30 1808 C 177.857 0.594725 1.49398 0
M  V30 1809 O 179.047 0.862315 1.5136 0
M  V30 1810 C 176.179 1.78431 2.90474 0
M  V30 1811 H 177.372 2.68467 1.33662 0
M  V30 1812 H 174.925 1.41549 0.662836 0
M  V30 1813 H 175.66 0.842645 3.13161 0
M  V30 1814 H 175.445 2.60558 2.93005 0
M  V30 1815 H 176.935 1.96479 3.68491 0
M  V30 1816 N 177.372 -0.689602 1.41712 0
M  V30 1817 C 178.302 -1.81577 1.46806 0
M  V30 1818 C 179.283 -1.66945 0.326105 0
M  V30 1819 O 180.468 -1.86588 0.538377 0
M  V30 1820 C 177.598 -3.19762 1.35535 0
M  V30 1821 C 176.552 -3.49107 2.47605 0
M  V30 1822 C 175.878 -4.86711 2.21397 0
M  V30 1823 C 177.178 -3.47483 3.89939 0
M  V30 1824 H 178.872 -1.7757 2.41058 0
M  V30 1825 H 176.418 -0.852887 1.16025 0
M  V30 1826 H 178.371 -3.98263 1.3771 0
M  V30 1827 H 177.095 -3.24409 0.377708 0
M  V30 1828 H 175.754 -2.72959 2.44722 0
M  V30 1829 H 175.402 -4.8799 1.21961 0
M  V30 1830 H 175.102 -5.0731 2.96497 0
M  V30 1831 H 176.626 -5.67515 2.25297 0
M  V30 1832 H 178.04 -4.1598 3.94505 0
M  V30 1833 H 176.437 -3.79615 4.64771 0
M  V30 1834 H 177.507 -2.46341 4.17665 0
M  V30 1835 N 178.85 -1.27639 -0.924453 0
M  V30 1836 C 179.813 -1.10681 -2.00705 0
M  V30 1837 C 180.813 -0.0497823 -1.60723 0
M  V30 1838 O 182.003 -0.294654 -1.7169 0
M  V30 1839 C 179.135 -0.687164 -3.33902 0
M  V30 1840 H 180.328 -2.06817 -2.17179 0
M  V30 1841 H 177.881 -1.10473 -1.10569 0
M  V30 1842 H 178.616 0.275439 -3.23128 0
M  V30 1843 H 178.401 -1.45061 -3.6428 0
M  V30 1844 H 179.891 -0.590853 -4.13399 0
M  V30 1845 N 180.328 1.1314 -1.09713 0
M  V30 1846 C 181.26 2.18343 -0.697056 0
M  V30 1847 C 182.273 1.60669 0.262551 0
M  V30 1848 O 183.462 1.78435 0.0481527 0
M  V30 1849 C 180.562 3.38899 -0.00684728 0
M  V30 1850 C 179.735 4.26078 -0.988741 0
M  V30 1851 C 178.794 5.25155 -0.331394 0
M  V30 1852 O 177.82 5.60701 -0.979926 0
M  V30 1853 N 179.022 5.73271 0.913261 0
M  V30 1854 H 181.787 2.5328 -1.60216 0
M  V30 1855 H 179.348 1.28491 -0.984971 0
M  V30 1856 H 181.34 4.02255 0.444191 0
M  V30 1857 H 179.91 3.02175 0.800551 0
M  V30 1858 H 179.13 3.59453 -1.61826 0
M  V30 1859 H 180.418 4.81178 -1.65364 0
M  V30 1860 H 179.816 5.46544 1.45966 0
M  V30 1861 H 178.373 6.3855 1.30757 0
M  V30 1862 N 181.806 0.884767 1.30421 0
M  V30 1863 C 182.753 0.349642 2.28136 0
M  V30 1864 C 183.723 -0.560061 1.56373 0
M  V30 1865 O 184.908 -0.488524 1.8444 0
M  V30 1866 C 182.048 -0.42999 3.42411 0
M  V30 1867 C 181.161 0.508907 4.28992 0
M  V30 1868 C 180.296 -0.286301 5.30428 0
M  V30 1869 C 179.335 0.648079 6.08659 0
M  V30 1870 N 178.472 -0.111792 7.02011 0
M  V30 1871 H 183.312 1.18807 2.73293 0
M  V30 1872 H 180.849 0.597231 1.3443 0
M  V30 1873 H 182.807 -0.897923 4.07423 0
M  V30 1874 H 181.437 -1.23299 2.98324 0
M  V30 1875 H 180.489 1.09533 3.64289 0
M  V30 1876 H 181.801 1.22475 4.8353 0
M  V30 1877 H 180.955 -0.816098 6.01186 0
M  V30 1878 H 179.694 -1.03536 4.76583 0
M  V30 1879 H 178.699 1.18951 5.36778 0
M  V30 1880 H 179.924 1.39623 6.64592 0
M  V30 1881 H 177.87 -0.843395 6.50556 0
M  V30 1882 H 177.787 0.544429 7.54037 0
M  V30 1883 H 179.055 -0.622339 7.77012 0
M  V30 1884 N 183.284 -1.43765 0.645699 0
M  V30 1885 C 184.695 -1.85193 0.236719 0
M  V30 1886 C 185.046 -1.54045 -1.21509 0
M  V30 1887 O 184.171 -0.985694 -1.92647 0
M  V30 1888 C 184.766 -3.36151 0.422845 0
M  V30 1889 C 183.325 -3.76338 0.0682492 0
M  V30 1890 C 182.472 -2.67538 0.729306 0
M  V30 1891 H 185.423 -1.34025 0.849883 0
M  V30 1892 H 185.444 -3.79032 -0.333904 0
M  V30 1893 H 184.956 -3.5879 1.47958 0
M  V30 1894 H 183.057 -3.59312 -0.986179 0
M  V30 1895 H 183.17 -4.76603 0.488469 0
M  V30 1896 H 181.534 -2.54176 0.163235 0
M  V30 1897 H 182.317 -2.93006 1.78892 0
M  V30 1898 N 184.763 -0.387143 -1.52771 0
M  V30 1899 C 185.993 0.195585 -2.05672 0
M  V30 1900 C 186.401 1.41241 -1.25887 0
M  V30 1901 O 185.744 1.81265 -0.298081 0
M  V30 1902 C 185.806 0.632327 -3.53895 0
M  V30 1903 C 185.47 -0.470739 -4.54569 0
M  V30 1904 C 186.467 -1.32746 -5.02667 0
M  V30 1905 C 184.152 -0.637151 -4.98243 0
M  V30 1906 C 186.146 -2.33574 -5.93061 0
M  V30 1907 C 183.833 -1.64877 -5.88438 0
M  V30 1908 C 184.831 -2.49649 -6.35739 0
M  V30 1909 O 184.519 -3.49082 -7.24153 0
M  V30 1910 H 184.251 0.033658 -0.675162 0
M  V30 1911 H 186.805 -0.550221 -1.97893 0
M  V30 1912 H 185.035 1.43008 -3.59285 0
M  V30 1913 H 186.724 1.14048 -3.89548 0
M  V30 1914 H 187.49 -1.21019 -4.69659 0
M  V30 1915 H 183.369 0.0129567 -4.60998 0
M  V30 1916 H 186.913 -2.99777 -6.29904 0
M  V30 1917 H 182.81 -1.76643 -6.2086 0
M  V30 1918 H 183.578 -3.45065 -7.42208 0
M  V30 1919 N 186.241 1.57166 -0.116904 0
M  V30 1920 C 187.466 1.999 0.55271 0
M  V30 1921 C 187.891 0.996039 1.59564 0
M  V30 1922 O 187.249 -0.032556 1.81271 0
M  V30 1923 C 187.297 3.4152 1.15742 0
M  V30 1924 O 186.401 3.44106 2.27299 0
M  V30 1925 H 185.742 0.649447 0.138258 0
M  V30 1926 H 188.272 2.03573 -0.204759 0
M  V30 1927 H 188.282 3.79684 1.49346 0
M  V30 1928 H 186.957 4.14034 0.393493 0
M  V30 1929 H 185.534 3.17759 1.9515 0
M  V30 1930 N 187.719 -0.156864 1.56817 0
M  V30 1931 C 188.967 -0.869404 1.82444 0
M  V30 1932 C 189.288 -1.82147 0.69623 0
M  V30 1933 O 188.558 -1.93847 -0.28287 0
M  V30 1934 H 187.138 -0.324043 0.673056 0
M  V30 1935 H 189.8 -0.153224 1.94297 0
M  V30 1936 H 188.896 -1.43761 2.77019 0
M  V30 1937 N 189.197 -1.51736 -0.425897 0
M  V30 1938 C 190.613 -1.40166 -0.76326 0
M  V30 1939 C 190.813 -0.492962 -1.95377 0
M  V30 1940 O 189.869 0.0475815 -2.52455 0
M  V30 1941 C 191.182 -2.82403 -1.03291 0
M  V30 1942 C 192.73 -2.91632 -1.13665 0
M  V30 1943 C 193.205 -4.34801 -1.43916 0
M  V30 1944 N 194.696 -4.3796 -1.50816 0
M  V30 1945 C 195.431 -5.4578 -1.75817 0
M  V30 1946 N 194.927 -6.63744 -1.98534 0
M  V30 1947 N 196.72 -5.33274 -1.77694 0
M  V30 1948 H 188.871 -2.09361 0.358 0
M  V30 1949 H 191.134 -0.942941 0.0978094 0
M  V30 1950 H 190.84 -3.50943 -0.230696 0
M  V30 1951 H 190.714 -3.22428 -1.95754 0
M  V30 1952 H 193.101 -2.23284 -1.92947 0
M  V30 1953 H 193.182 -2.55088 -0.190756 0
M  V30 1954 H 192.826 -5.03703 -0.65157 0
M  V30 1955 H 192.756 -4.68868 -2.39729 0
M  V30 1956 H 195.247 -3.52919 -1.35118 0
M  V30 1957 H 195.56 -7.41704 -2.17013 0
M  V30 1958 H 193.905 -6.66839 -1.95832 0
M  V30 1959 H 197.096 -4.40098 -1.59473 0
M  V30 1960 H 197.269 -6.1738 -1.9684 0
M  V30 1961 N 190.675 0.682077 -1.42076 0
M  V30 1962 C 192.091 0.994324 -1.24841 0
M  V30 1963 C 192.291 2.0096 -0.147389 0
M  V30 1964 O 191.347 2.47822 0.483782 0
M  V30 1965 C 192.66 1.50607 -2.60265 0
M  V30 1966 C 194.208 1.62421 -2.6756 0
M  V30 1967 C 194.683 2.16994 -4.03333 0
M  V30 1968 N 196.174 2.24337 -4.0525 0
M  V30 1969 C 196.909 2.67621 -5.07116 0
M  V30 1970 N 196.405 3.1041 -6.19368 0
M  V30 1971 N 198.198 2.67305 -4.94474 0
M  V30 1972 H 190.349 0.00973908 -2.12398 0
M  V30 1973 H 192.612 0.0668593 -0.945639 0
M  V30 1974 H 192.318 0.834583 -3.41654 0
M  V30 1975 H 192.192 2.48602 -2.83684 0
M  V30 1976 H 194.579 2.28678 -1.86521 0
M  V30 1977 H 194.66 0.629352 -2.47937 0
M  V30 1978 H 194.304 1.51349 -4.84826 0
M  V30 1979 H 194.234 3.17258 -4.20304 0
M  V30 1980 H 196.725 1.94158 -3.24209 0
M  V30 1981 H 197.038 3.42103 -6.92954 0
M  V30 1982 H 195.383 3.08286 -6.22884 0
M  V30 1983 H 198.574 2.33233 -4.05857 0
M  V30 1984 H 198.747 3.00718 -5.73997 0
M  V30 1985 N 192.153 1.28127 0.917671 0
M  V30 1986 C 193.564 1.13622 1.48145 0
M  V30 1987 C 193.915 -0.275207 1.9426 0
M  V30 1988 O 193.04 -1.1691 1.82102 0
M  V30 1989 C 193.635 2.05648 2.69248 0
M  V30 1990 C 192.194 1.95219 3.21818 0
M  V30 1991 C 191.341 1.97618 1.94532 0
M  V30 1992 H 194.292 1.40874 0.730772 0
M  V30 1993 H 194.313 1.61818 3.44377 0
M  V30 1994 H 193.825 3.08365 2.35653 0
M  V30 1995 H 191.926 0.955244 3.60147 0
M  V30 1996 H 192.039 2.81976 3.87333 0
M  V30 1997 H 190.403 1.41973 2.11461 0
M  V30 1998 H 191.186 3.02007 1.63238 0
M  V30 1999 N 193.631 -1.12557 1.10312 0
M  V30 2000 C 194.908 -1.80363 0.756878 0
M  V30 2001 C 195.288 -1.97067 -0.756824 0
M  V30 2002 O 194.636 -1.54601 -1.68259 0
M  V30 2003 C 194.846 -3.14812 1.50647 0
M  V30 2004 C 196.194 -3.90029 1.67817 0
M  V30 2005 O 197.218 -3.24464 1.46974 0
M  V30 2006 O 196.077 -5.07652 2.02365 0
M  V30 2007 H 193.171 -0.780667 0.272926 0
M  V30 2008 H 195.717 -1.19404 1.20586 0
M  V30 2009 H 194.489 -2.97936 2.53672 0
M  V30 2010 H 194.112 -3.83478 1.05026 0
M  V30 2011 N 195.109 -0.891671 -1.2995 0
M  V30 2012 C 196.072 -0.36828 -2.26222 0
M  V30 2013 C 197.072 0.493014 -1.53056 0
M  V30 2014 O 198.262 0.299213 -1.71611 0
M  V30 2015 C 195.394 0.47442 -3.37583 0
M  V30 2016 H 196.587 -1.21844 -2.74033 0
M  V30 2017 H 194.14 -0.669107 -1.41254 0
M  V30 2018 H 194.875 1.34489 -2.95099 0
M  V30 2019 H 194.66 -0.142615 -3.91841 0
M  V30 2020 H 196.15 0.83218 -4.09224 0
M  V30 2021 N 196.587 1.43421 -0.653314 0
M  V30 2022 C 197.836 2.01032 -0.164076 0
M  V30 2023 C 198.149 1.52147 1.22926 0
M  V30 2024 O 199.355 2.02031 1.81371 0
M  V30 2025 C 197.811 3.59082 -0.24252 0
M  V30 2026 C 197.419 4.1696 -1.63855 0
M  V30 2027 C 199.163 4.24079 0.18911 0
M  V30 2028 C 197.07 5.67304 -1.67092 0
M  V30 2029 H 196 0.751798 -0.0575769 0
M  V30 2030 H 198.651 1.6439 -0.815362 0
M  V30 2031 H 197.033 3.93125 0.476276 0
M  V30 2032 H 198.207 3.94416 -2.38271 0
M  V30 2033 H 196.522 3.64335 -2.01616 0
M  V30 2034 H 199.119 5.34381 0.184775 0
M  V30 2035 H 199.462 3.98005 1.22056 0
M  V30 2036 H 199.995 3.94918 -0.477938 0
M  V30 2037 H 196.734 5.98145 -2.68146 0
M  V30 2038 H 196.254 5.91904 -0.970014 0
M  V30 2039 H 197.933 6.31344 -1.4147 0
M  V30 2040 N 198.065 0.39524 1.52563 0
M  V30 2041 C 199.481 0.0454682 1.59535 0
M  V30 2042 C 199.681 -1.44056 1.4089 0
M  V30 2043 O 198.737 -2.20579 1.22888 0
M  V30 2044 C 200.05 0.527963 2.96029 0
M  V30 2045 C 201.598 0.484733 3.09224 0
M  V30 2046 C 202.073 0.943512 4.48176 0
M  V30 2047 N 203.564 0.899765 4.54377 0
M  V30 2048 C 204.299 1.22609 5.60138 0
M  V30 2049 N 203.795 1.62319 6.73516 0
M  V30 2050 N 205.588 1.14696 5.50274 0
M  V30 2051 H 197.739 1.36261 1.62931 0
M  V30 2052 H 200.002 0.558887 0.765735 0
M  V30 2053 H 199.708 1.56607 3.14908 0
M  V30 2054 H 199.582 -0.0698056 3.77135 0
M  V30 2055 H 201.969 -0.544298 2.90037 0
M  V30 2056 H 202.05 1.11838 2.30056 0
M  V30 2057 H 201.694 1.9708 4.68104 0
M  V30 2058 H 201.624 0.286817 5.25818 0
M  V30 2059 H 204.115 0.607632 3.72983 0
M  V30 2060 H 204.428 1.85567 7.5019 0
M  V30 2061 H 202.773 1.66211 6.74833 0
M  V30 2062 H 205.964 0.835701 4.6058 0
M  V30 2063 H 206.137 1.40459 6.32594 0
M  V30 2064 N 199.544 -1.57102 0.125237 0
M  V30 2065 C 200.474 -2.18659 -0.819174 0
M  V30 2066 C 201.455 -1.12843 -1.27281 0
M  V30 2067 O 202.64 -1.41104 -1.33429 0
M  V30 2068 C 199.77 -2.79096 -2.06695 0
M  V30 2069 C 198.724 -3.90548 -1.75088 0
M  V30 2070 C 198.05 -4.37821 -3.06948 0
M  V30 2071 C 199.35 -5.12356 -1.01435 0
M  V30 2072 H 201.044 -2.9783 -0.306202 0
M  V30 2073 H 198.59 -1.4326 -0.145839 0
M  V30 2074 H 200.543 -3.2082 -2.73226 0
M  V30 2075 H 199.267 -1.97223 -2.60328 0
M  V30 2076 H 197.926 -3.49409 -1.10944 0
M  V30 2077 H 197.574 -3.52799 -3.58527 0
M  V30 2078 H 197.274 -5.12982 -2.86571 0
M  V30 2079 H 198.798 -4.822 -3.74587 0
M  V30 2080 H 200.212 -5.5106 -1.58132 0
M  V30 2081 H 198.609 -5.9314 -0.911319 0
M  V30 2082 H 199.679 -4.849 -0.00218681 0
M  V30 2083 N 201.022 0.148545 -1.56898 0
M  V30 2084 C 202.27 0.859717 -1.82902 0
M  V30 2085 C 202.591 1.81775 -0.70588 0
M  V30 2086 O 201.861 1.93994 0.272586 0
M  V30 2087 H 200.441 0.320469 -0.674766 0
M  V30 2088 H 203.103 0.142918 -1.94375 0
M  V30 2089 H 202.199 1.4229 -2.77777 0
M  V30 2090 N 202.5 1.5196 0.417844 0
M  V30 2091 C 203.43 1.77634 1.51554 0
M  V30 2092 C 204.411 0.626918 1.58126 0
M  V30 2093 O 205.596 0.871632 1.7354 0
M  V30 2094 C 202.726 1.91911 2.8946 0
M  V30 2095 C 201.68 3.07463 2.97743 0
M  V30 2096 C 201.006 3.06951 4.37819 0
M  V30 2097 C 202.306 4.47082 2.70027 0
M  V30 2098 H 204 2.6955 1.3032 0
M  V30 2099 H 201.546 1.29706 0.625492 0
M  V30 2100 H 203.499 2.08455 3.6623 0
M  V30 2101 H 202.223 0.966598 3.11969 0
M  V30 2102 H 200.882 2.90656 2.23416 0
M  V30 2103 H 200.53 2.09438 4.57323 0
M  V30 2104 H 200.23 3.84556 4.44286 0
M  V30 2105 H 201.754 3.25613 5.16535 0
M  V30 2106 H 203.168 4.6414 3.36522 0
M  V30 2107 H 201.565 5.2654 2.87881 0
M  V30 2108 H 202.635 4.55777 1.65514 0
M  V30 2109 N 203.978 -0.674533 1.42435 0
M  V30 2110 C 205.226 -1.43175 1.42637 0
M  V30 2111 C 205.547 -1.94951 0.0438992 0
M  V30 2112 O 204.817 -1.7308 -0.917607 0
M  V30 2113 H 203.397 -0.531307 0.525092 0
M  V30 2114 H 206.059 -0.797006 1.77859 0
M  V30 2115 H 205.155 -2.28463 2.12629 0
M  V30 2116 N 205.456 -1.28612 -0.910864 0
M  V30 2117 C 206.404 -1.1265 -2.03501 0
M  V30 2118 C 207.398 -0.0450054 -1.6934 0
M  V30 2119 O 208.604 -0.203988 -1.7884 0
M  V30 2120 H 204.979 -0.347639 -0.666822 0
M  V30 2121 H 206.95 -2.07849 -2.14106 0
M  V30 2122 C 205.699 -0.808143 -3.38178 0
M  V30 2123 H 205.022 -1.63231 -3.6496 0
M  V30 2124 H 206.462 -0.736426 -4.17556 0
M  V30 2125 C 204.921 0.488226 -3.33344 0
M  V30 2126 O 205.451 1.51766 -3.71927 0
M  V30 2127 N 203.657 0.490009 -2.86439 0
M  V30 2128 H 203.204 -0.348161 -2.55236 0
M  V30 2129 H 203.162 1.35741 -2.83587 0
M  V30 2130 N 206.934 1.1197 -1.10907 0
M  V30 2131 C 207.884 2.15946 -0.731538 0
M  V30 2132 C 208.868 1.58758 0.261699 0
M  V30 2133 O 210.06 1.76863 0.0696722 0
M  V30 2134 C 207.189 3.42877 -0.170299 0
M  V30 2135 C 206.275 4.07037 -1.19087 0
M  V30 2136 N 206.666 4.46135 -2.38322 0
M  V30 2137 C 204.964 4.33884 -1.03252 0
M  V30 2138 C 205.665 4.96331 -3.03366 0
M  V30 2139 N 204.641 4.9214 -2.30865 0
M  V30 2140 H 208.443 2.43947 -1.63912 0
M  V30 2141 H 205.957 1.28927 -0.987505 0
M  V30 2142 H 207.954 4.16732 0.118271 0
M  V30 2143 H 206.614 3.16343 0.731935 0
M  V30 2144 H 207.625 4.38345 -2.75815 0
M  V30 2145 H 204.302 4.17084 -0.186256 0
M  V30 2146 H 205.692 5.36257 -4.04818 0
M  V30 2147 N 208.412 0.89855 1.29475 0
M  V30 2148 C 209.36 0.365253 2.29714 0
M  V30 2149 C 210.354 -0.534993 1.6073 0
M  V30 2150 O 211.56 -0.417921 1.75081 0
M  V30 2151 H 207.935 0.0994853 0.74539 0
M  V30 2152 H 209.906 1.22406 2.72138 0
M  V30 2153 C 208.655 -0.393159 3.4547 0
M  V30 2154 H 207.978 0.290332 3.98744 0
M  V30 2155 H 209.418 -0.731189 4.17648 0
M  V30 2156 C 207.877 -1.59539 2.9673 0
M  V30 2157 O 208.407 -2.69469 2.97908 0
M  V30 2158 N 206.613 -1.43716 2.52575 0
M  V30 2159 H 206.16 -0.542828 2.51816 0
M  V30 2160 H 206.118 -2.24288 2.20323 0
M  V30 2161 N 209.89 -1.43072 0.660911 0
M  V30 2162 C 211.12 -2.05769 0.185153 0
M  V30 2163 C 211.528 -1.49668 -1.15742 0
M  V30 2164 O 210.871 -0.625649 -1.72717 0
M  V30 2165 C 210.933 -3.59489 0.0278237 0
M  V30 2166 C 210.597 -4.38212 1.2969 0
M  V30 2167 C 211.594 -4.69772 2.22734 0
M  V30 2168 C 209.279 -4.7809 1.54063 0
M  V30 2169 C 211.273 -5.40129 3.38437 0
M  V30 2170 C 208.96 -5.4819 2.70058 0
M  V30 2171 C 209.958 -5.79132 3.62071 0
M  V30 2172 O 209.646 -6.47798 4.76039 0
M  V30 2173 H 209.378 -0.669873 0.0908086 0
M  V30 2174 H 211.932 -1.84436 0.90402 0
M  V30 2175 H 210.162 -3.79426 -0.746489 0
M  V30 2176 H 211.851 -4.03862 -0.406275 0
M  V30 2177 H 212.617 -4.39476 2.05149 0
M  V30 2178 H 208.496 -4.53408 0.833215 0
M  V30 2179 H 212.04 -5.64198 4.10277 0
M  V30 2180 H 207.937 -5.77902 2.87574 0
M  V30 2181 H 208.705 -6.66283 4.75404 0
M  V30 2182 N 211.368 -0.403325 -1.52352 0
M  V30 2183 C 212.608 0.173946 -2.03659 0
M  V30 2184 C 212.972 1.42869 -1.28267 0
M  V30 2185 O 214.173 2.08403 -1.69769 0
M  V30 2186 C 212.444 0.421478 -3.54906 0
M  V30 2187 S 214.003 0.967027 -4.28012 0
M  V30 2188 H 210.821 0.0477461 -0.709395 0
M  V30 2189 H 213.423 -0.554906 -1.87459 0
M  V30 2190 H 212.127 -0.498616 -4.0736 0
M  V30 2191 H 211.658 1.17837 -3.75337 0
M  V30 2192 H 213.673 2.24812 -4.4235 0
M  V30 2193 N 212.846 1.57033 -0.133567 0
M  V30 2194 C 214.262 1.58035 0.222944 0
M  V30 2195 C 214.462 1.14713 1.6566 0
M  V30 2196 O 213.518 0.841218 2.38075 0
M  V30 2197 C 214.831 3.00691 -0.0236116 0
M  V30 2198 C 216.379 3.12973 0.0411512 0
M  V30 2199 C 216.854 4.57654 -0.177899 0
M  V30 2200 N 218.345 4.63033 -0.124365 0
M  V30 2201 C 219.08 5.72771 -0.268553 0
M  V30 2202 N 218.576 6.91206 -0.46972 0
M  V30 2203 N 220.369 5.61718 -0.2071 0
M  V30 2204 H 212.52 1.8349 -1.06981 0
M  V30 2205 H 214.783 0.848677 -0.422436 0
M  V30 2206 H 214.489 3.36726 -1.0153 0
M  V30 2207 H 214.363 3.70614 0.701808 0
M  V30 2208 H 216.75 2.76787 1.02338 0
M  V30 2209 H 216.831 2.45564 -0.716383 0
M  V30 2210 H 216.475 4.94542 -1.15717 0
M  V30 2211 H 216.405 5.23173 0.599797 0
M  V30 2212 H 218.896 3.7789 0.027011 0
M  V30 2213 H 219.209 7.70693 -0.570212 0
M  V30 2214 H 217.554 6.93156 -0.505876 0
M  V30 2215 H 220.745 4.68072 -0.0507986 0
M  V30 2216 H 220.918 6.47195 -0.322909 0
M  V30 2217 N 214.325 -0.140222 1.56975 0
M  V30 2218 C 215.273 -1.19207 1.99731 0
M  V30 2219 C 216.267 -1.44089 0.890777 0
M  V30 2220 O 217.473 -1.44301 1.07597 0
M  V30 2221 H 213.848 -0.40142 0.635898 0
M  V30 2222 H 215.819 -0.804813 2.87342 0
M  V30 2223 C 214.568 -2.51617 2.39967 0
M  V30 2224 H 213.891 -2.33303 3.24669 0
M  V30 2225 H 215.331 -3.23827 2.73701 0
M  V30 2226 C 213.79 -3.12654 1.25496 0
M  V30 2227 O 214.32 -3.97786 0.559371 0
M  V30 2228 N 212.526 -2.72206 1.01746 0
M  V30 2229 H 212.073 -2.03074 1.58489 0
M  V30 2230 H 212.031 -3.13377 0.253461 0
M  V30 2231 N 215.803 -1.52179 -0.40978 0
M  V30 2232 C 217.214 -1.58377 -0.988615 0
M  V30 2233 C 217.565 -0.423879 -1.91566 0
M  V30 2234 O 216.69 0.455844 -2.11544 0
M  V30 2235 C 217.285 -2.87044 -1.79976 0
M  V30 2236 C 215.844 -2.95722 -2.32863 0
M  V30 2237 C 214.991 -2.53309 -1.12828 0
M  V30 2238 H 217.942 -1.57558 -0.190039 0
M  V30 2239 H 217.963 -2.7236 -2.65707 0
M  V30 2240 H 217.475 -3.71444 -1.12478 0
M  V30 2241 H 215.576 -2.15814 -3.03735 0
M  V30 2242 H 215.689 -3.99951 -2.63773 0
M  V30 2243 H 214.053 -2.07142 -1.48204 0
M  V30 2244 H 214.836 -3.40082 -0.46897 0
M  V30 2245 N 217.281 0.66697 -1.42791 0
M  V30 2246 C 218.558 1.4234 -1.34159 0
M  V30 2247 C 218.938 2.11093 0.0172729 0
M  V30 2248 O 218.286 2.03808 1.03318 0
M  V30 2249 C 218.496 2.41942 -2.51526 0
M  V30 2250 C 219.844 3.06353 -2.93995 0
M  V30 2251 O 220.868 2.52269 -2.51473 0
M  V30 2252 O 219.727 4.04376 -3.67617 0
M  V30 2253 H 216.821 0.635277 -0.529483 0
M  V30 2254 H 219.367 0.695034 -1.54814 0
M  V30 2255 H 218.139 1.89991 -3.42081 0
M  V30 2256 H 217.762 3.22249 -2.32898 0
M  V30 2257 N 218.759 1.29093 0.90403 0
M  V30 2258 C 220.175 1.07011 1.1841 0
M  V30 2259 C 220.375 -0.181358 2.00682 0
M  V30 2260 O 219.431 -0.880331 2.36657 0
M  V30 2261 C 220.744 2.32311 1.90924 0
M  V30 2262 C 222.292 2.37587 2.03768 0
M  V30 2263 C 222.767 3.62679 2.79693 0
M  V30 2264 N 224.258 3.63376 2.87249 0
M  V30 2265 C 224.993 4.56848 3.46522 0
M  V30 2266 N 224.489 5.60648 4.06996 0
M  V30 2267 N 226.282 4.44426 3.44154 0
M  V30 2268 H 218.433 2.09412 0.354993 0
M  V30 2269 H 220.696 0.922181 0.219742 0
M  V30 2270 H 220.402 3.23536 1.37905 0
M  V30 2271 H 220.276 2.39483 2.91424 0
M  V30 2272 H 222.663 1.46853 2.55965 0
M  V30 2273 H 222.744 2.34403 1.02415 0
M  V30 2274 H 222.388 4.53762 2.28173 0
M  V30 2275 H 222.318 3.63119 3.81381 0
M  V30 2276 H 224.809 2.88321 2.44293 0
M  V30 2277 H 225.122 6.28101 4.50232 0
M  V30 2278 H 223.467 5.64463 4.05471 0
M  V30 2279 H 226.658 3.62529 2.96126 0
M  V30 2280 H 226.831 5.17457 3.90054 0
M  V30 2281 N 220.237 -1.11381 1.11499 0
M  V30 2282 C 221.514 -1.7955 0.775965 0
M  V30 2283 C 221.894 -1.97859 -0.73588 0
M  V30 2284 O 221.242 -1.56376 -1.66609 0
M  V30 2285 C 221.452 -3.13196 1.53977 0
M  V30 2286 C 222.8 -3.88227 1.71944 0
M  V30 2287 O 223.824 -3.22887 1.50407 0
M  V30 2288 O 222.683 -5.05477 2.07738 0
M  V30 2289 H 219.777 -0.777728 0.28119 0
M  V30 2290 H 222.323 -1.18118 1.21845 0
M  V30 2291 H 221.095 -2.95229 2.56818 0
M  V30 2292 H 220.718 -3.82342 1.09088 0
M  V30 2293 N 221.715 -0.905404 -1.28997 0
M  V30 2294 C 222.94 -0.549175 -1.99997 0
M  V30 2295 C 223.365 0.860276 -1.67275 0
M  V30 2296 O 222.723 1.57355 -0.900502 0
M  V30 2297 C 222.771 -0.755185 -3.52604 0
M  V30 2298 O 221.875 0.189692 -4.11964 0
M  V30 2299 H 221.216 -0.213899 -0.628604 0
M  V30 2300 H 223.746 -1.21856 -1.64354 0
M  V30 2301 H 223.756 -0.662045 -4.02593 0
M  V30 2302 H 222.431 -1.78271 -3.75755 0
M  V30 2303 H 221.008 0.0485257 -3.72868 0
M  V30 2304 N 223.193 1.4272 -0.668489 0
M  V30 2305 C 224.14 2.30796 0.0137489 0
M  V30 2306 C 225.11 1.4561 0.799177 0
M  V30 2307 O 226.295 1.74453 0.772702 0
M  V30 2308 C 223.435 3.31377 0.963507 0
M  V30 2309 C 222.548 4.31655 0.172569 0
M  V30 2310 C 221.683 5.19312 1.1175 0
M  V30 2311 C 220.722 6.11274 0.317886 0
M  V30 2312 N 219.859 6.91504 1.2152 0
M  V30 2313 H 224.699 2.88585 -0.743161 0
M  V30 2314 H 222.236 1.42154 -0.378226 0
M  V30 2315 H 224.194 3.88214 1.52792 0
M  V30 2316 H 222.824 2.75202 1.68712 0
M  V30 2317 H 221.876 3.76988 -0.508374 0
M  V30 2318 H 223.188 4.96779 -0.448527 0
M  V30 2319 H 222.342 5.80851 1.75206 0
M  V30 2320 H 221.081 4.5435 1.77249 0
M  V30 2321 H 220.086 5.48809 -0.329918 0
M  V30 2322 H 221.311 6.78283 -0.332917 0
M  V30 2323 H 219.257 6.29176 1.85671 0
M  V30 2324 H 219.174 7.53209 0.649036 0
M  V30 2325 H 220.442 7.57535 1.83742 0
M  V30 2326 N 224.671 0.411399 1.52136 0
M  V30 2327 C 226.082 -0.0576826 1.86611 0
M  V30 2328 C 226.433 -1.44238 1.33003 0
M  V30 2329 O 225.558 -2.05759 0.670228 0
M  V30 2330 C 226.153 -0.111448 3.38617 0
M  V30 2331 C 224.712 -0.52487 3.72723 0
M  V30 2332 C 223.859 0.299176 2.75681 0
M  V30 2333 H 226.81 0.628368 1.4573 0
M  V30 2334 H 226.831 -0.926252 3.69054 0
M  V30 2335 H 226.343 0.896488 3.77604 0
M  V30 2336 H 224.444 -1.53936 3.39315 0
M  V30 2337 H 224.557 -0.267681 4.78352 0
M  V30 2338 H 222.921 -0.238814 2.53578 0
M  V30 2339 H 223.704 1.3055 3.17508 0
M  V30 2340 N 226.149 -1.5696 0.141893 0
M  V30 2341 C 227.395 -1.97034 -0.504884 0
M  V30 2342 C 227.75 -1.02518 -1.62812 0
M  V30 2343 O 227.043 -0.0592943 -1.91508 0
M  V30 2344 C 227.237 -3.41242 -1.06249 0
M  V30 2345 C 227.066 -4.497 0.00519653 0
M  V30 2346 C 225.836 -5.03338 0.444873 0
M  V30 2347 C 228.034 -5.08122 0.794767 0
M  V30 2348 N 226.016 -5.95395 1.49593 0
M  V30 2349 C 227.387 -5.96339 1.69645 0
M  V30 2350 C 229.442 -4.9071 0.843122 0
M  V30 2351 C 228.145 -6.69009 2.64233 0
M  V30 2352 C 230.171 -5.64077 1.77681 0
M  V30 2353 C 229.533 -6.51999 2.66603 0
M  V30 2354 H 225.632 -0.766745 -0.153707 0
M  V30 2355 H 228.216 -1.93273 0.235313 0
M  V30 2356 H 226.387 -3.45606 -1.77231 0
M  V30 2357 H 228.119 -3.68389 -1.67546 0
M  V30 2358 H 224.874 -4.73576 0.0480959 0
M  V30 2359 H 225.298 -6.46128 2.02107 0
M  V30 2360 H 229.94 -4.22459 0.169732 0
M  V30 2361 H 227.658 -7.36492 3.32575 0
M  V30 2362 H 231.244 -5.52602 1.81996 0
M  V30 2363 H 230.124 -7.07775 3.37675 0
M  V30 2364 N 227.627 0.131896 -1.57047 0
M  V30 2365 C 228.867 0.847972 -1.85981 0
M  V30 2366 C 229.231 1.77655 -0.7282 0
M  V30 2367 O 230.432 2.53322 -0.898968 0
M  V30 2368 C 228.703 1.58919 -3.20124 0
M  V30 2369 S 230.262 2.34862 -3.70655 0
M  V30 2370 H 227.08 0.283273 -0.652133 0
M  V30 2371 H 229.682 0.107057 -1.95207 0
M  V30 2372 H 228.386 0.898771 -4.00438 0
M  V30 2373 H 227.917 2.37073 -3.13942 0
M  V30 2374 H 229.932 3.60344 -3.41126 0
M  V30 2375 N 229.106 1.52395 0.401703 0
M  V30 2376 C 230.336 1.70429 1.1678 0
M  V30 2377 C 230.744 0.416702 1.84554 0
M  V30 2378 O 230.087 -0.617697 1.73003 0
M  V30 2379 C 230.149 2.78919 2.26814 0
M  V30 2380 C 229.813 4.20437 1.79113 0
M  V30 2381 C 230.81 5.04028 1.27482 0
M  V30 2382 C 228.495 4.66704 1.85722 0
M  V30 2383 C 230.489 6.31961 0.830913 0
M  V30 2384 C 228.176 5.94625 1.40942 0
M  V30 2385 C 229.174 6.77082 0.897128 0
M  V30 2386 O 228.862 8.02607 0.455822 0
M  V30 2387 H 228.594 0.574272 0.356634 0
M  V30 2388 H 231.148 1.99767 0.477724 0
M  V30 2389 H 229.378 2.44973 2.99207 0
M  V30 2390 H 231.067 2.8548 2.88541 0
M  V30 2391 H 231.833 4.69471 1.21744 0
M  V30 2392 H 227.712 4.0262 2.24539 0
M  V30 2393 H 231.256 6.96271 0.430368 0
M  V30 2394 H 227.153 6.28688 1.46362 0
M  V30 2395 H 227.921 8.16453 0.578457 0
M  V30 2396 N 230.584 -0.659388 1.43143 0
M  V30 2397 C 231.83 -1.42145 1.44647 0
M  V30 2398 C 232.163 -1.9408 0.0681907 0
M  V30 2399 O 231.438 -1.71899 -0.910007 0
M  V30 2400 C 231.721 -2.60735 2.48373 0
M  V30 2401 C 231.574 -2.14332 3.95451 0
M  V30 2402 C 232.893 -3.62951 2.48906 0
M  V30 2403 H 230.012 -0.51552 0.526696 0
M  V30 2404 H 232.654 -0.748069 1.74654 0
M  V30 2405 H 230.804 -3.18184 2.22916 0
M  V30 2406 H 232.476 -1.61932 4.31944 0
M  V30 2407 H 230.719 -1.4576 4.08578 0
M  V30 2408 H 231.39 -2.99583 4.63631 0
M  V30 2409 H 233.866 -3.1525 2.71582 0
M  V30 2410 H 232.742 -4.43487 3.23435 0
M  V30 2411 H 233.003 -4.15126 1.52061 0
M  V30 2412 N 232.062 -1.29571 -0.897171 0
M  V30 2413 C 233.309 -1.17689 -1.6479 0
M  V30 2414 C 233.637 0.27107 -1.92602 0
M  V30 2415 O 232.892 1.21193 -1.53658 0
M  V30 2416 C 233.191 -1.9382 -3.00281 0
M  V30 2417 C 232.857 -3.43522 -2.92068 0
M  V30 2418 C 231.519 -3.84348 -2.89535 0
M  V30 2419 C 233.871 -4.38906 -2.81089 0
M  V30 2420 C 231.199 -5.18869 -2.73846 0
M  V30 2421 C 233.551 -5.73521 -2.66939 0
M  V30 2422 C 232.215 -6.13601 -2.62774 0
M  V30 2423 H 231.485 -0.430654 -0.603008 0
M  V30 2424 H 234.132 -1.60536 -1.04404 0
M  V30 2425 H 232.437 -1.4357 -3.64547 0
M  V30 2426 H 234.134 -1.82028 -3.57305 0
M  V30 2427 H 230.724 -3.11072 -2.94842 0
M  V30 2428 H 234.908 -4.08315 -2.82121 0
M  V30 2429 H 230.164 -5.4903 -2.69027 0
M  V30 2430 H 234.338 -6.47078 -2.57416 0
M  V30 2431 H 231.965 -7.17786 -2.50375 0
M  V30 2432 N 233.54 1.10788 -1.12088 0
M  V30 2433 C 234.487 2.17025 -0.785407 0
M  V30 2434 C 235.457 1.64265 0.246191 0
M  V30 2435 O 236.642 1.90412 0.121584 0
M  V30 2436 C 233.782 3.44249 -0.242177 0
M  V30 2437 C 232.895 4.1098 -1.33115 0
M  V30 2438 C 232.03 5.25911 -0.747741 0
M  V30 2439 C 231.069 5.84538 -1.81609 0
M  V30 2440 N 230.206 6.90853 -1.25167 0
M  V30 2441 H 235.046 2.45066 -1.69548 0
M  V30 2442 H 232.583 1.20297 -0.846582 0
M  V30 2443 H 234.541 4.17101 0.0908026 0
M  V30 2444 H 233.171 3.16571 0.631072 0
M  V30 2445 H 232.223 3.36133 -1.78097 0
M  V30 2446 H 233.535 4.50601 -2.13917 0
M  V30 2447 H 232.689 6.056 -0.365216 0
M  V30 2448 H 231.428 4.87614 0.0915188 0
M  V30 2449 H 230.433 5.03522 -2.20785 0
M  V30 2450 H 231.658 6.249 -2.6585 0
M  V30 2451 H 229.604 6.54562 -0.434174 0
M  V30 2452 H 229.521 7.29166 -1.99633 0
M  V30 2453 H 230.789 7.7433 -0.896259 0
M  V30 2454 N 235.018 0.912232 1.28515 0
M  V30 2455 C 235.981 0.404223 2.25607 0
M  V30 2456 C 236.981 -0.468602 1.53821 0
M  V30 2457 O 238.171 -0.271873 1.72065 0
M  V30 2458 C 235.303 -0.420653 3.38295 0
M  V30 2459 H 236.496 1.26188 2.7206 0
M  V30 2460 H 234.049 0.691495 1.40171 0
M  V30 2461 H 234.784 -1.29777 2.97201 0
M  V30 2462 H 234.569 0.204935 3.91564 0
M  V30 2463 H 236.059 -0.766971 4.10496 0
M  V30 2464 N 236.496 -1.42363 0.676048 0
M  V30 2465 C 237.744 -2.01123 0.198437 0
M  V30 2466 C 238.065 -1.53731 -1.19966 0
M  V30 2467 O 237.335 -0.759518 -1.80577 0
M  V30 2468 H 235.915 -0.743678 0.0703721 0
M  V30 2469 H 238.577 -1.74263 0.872837 0
M  V30 2470 H 237.673 -3.11454 0.200686 0
M  V30 2471 N 237.974 -0.419461 -1.51915 0
M  V30 2472 C 238.921 0.400927 -2.27291 0
M  V30 2473 C 239.891 1.03224 -1.30131 0
M  V30 2474 O 241.076 1.05455 -1.59009 0
M  V30 2475 C 238.216 1.50603 -3.10504 0
M  V30 2476 C 237.329 0.89462 -4.22635 0
M  V30 2477 C 236.464 1.97328 -4.93189 0
M  V30 2478 C 235.503 1.33935 -5.97267 0
M  V30 2479 N 234.64 2.3586 -6.61298 0
M  V30 2480 H 239.48 -0.248251 -2.96964 0
M  V30 2481 H 237.017 -0.134266 -1.46486 0
M  V30 2482 H 238.975 2.15783 -3.57062 0
M  V30 2483 H 237.605 2.12509 -2.42981 0
M  V30 2484 H 236.657 0.131583 -3.80172 0
M  V30 2485 H 237.969 0.391641 -4.9726 0
M  V30 2486 H 237.123 2.70211 -5.43204 0
M  V30 2487 H 235.862 2.50994 -4.18155 0
M  V30 2488 H 234.867 0.595896 -5.46561 0
M  V30 2489 H 236.092 0.810252 -6.74249 0
M  V30 2490 H 234.038 2.88639 -5.89087 0
M  V30 2491 H 233.955 1.90403 -7.3163 0
M  V30 2492 H 235.223 3.08282 -7.15949 0
M  V30 2493 N 239.452 1.56882 -0.150215 0
M  V30 2494 C 240.682 2.00302 0.506213 0
M  V30 2495 C 241.09 1.02934 1.58749 0
M  V30 2496 O 240.433 0.0188384 1.8369 0
M  V30 2497 C 240.495 3.40156 1.16337 0
M  V30 2498 C 240.159 4.56439 0.226311 0
M  V30 2499 C 241.156 5.17012 -0.547265 0
M  V30 2500 C 238.841 5.02136 0.128279 0
M  V30 2501 C 240.835 6.21693 -1.40629 0
M  V30 2502 C 238.522 6.06672 -0.734345 0
M  V30 2503 C 239.52 6.6632 -1.50023 0
M  V30 2504 O 239.208 7.68831 -2.34848 0
M  V30 2505 H 238.94 0.662182 0.135984 0
M  V30 2506 H 241.494 2.03961 -0.242746 0
M  V30 2507 H 239.724 3.33346 1.96004 0
M  V30 2508 H 241.413 3.67663 1.71985 0
M  V30 2509 H 242.179 4.82603 -0.48158 0
M  V30 2510 H 238.058 4.55435 0.714157 0
M  V30 2511 H 241.602 6.68179 -2.00455 0
M  V30 2512 H 237.499 6.40507 -0.801309 0
M  V30 2513 H 238.267 7.86065 -2.28131 0
M  V30 2514 N 240.93 -0.123565 1.57115 0
M  V30 2515 C 242.155 -0.850398 1.89164 0
M  V30 2516 C 242.58 -1.7286 0.741688 0
M  V30 2517 O 241.938 -1.78665 -0.307958 0
M  V30 2518 C 241.986 -1.66353 3.19936 0
M  V30 2519 O 241.09 -2.77004 3.0552 0
M  V30 2520 H 240.431 -0.235454 0.620852 0
M  V30 2521 H 242.961 -0.107335 2.04318 0
M  V30 2522 H 242.971 -2.05372 3.52543 0
M  V30 2523 H 241.646 -1.01881 4.03228 0
M  V30 2524 H 240.223 -2.41221 2.84371 0
M  V30 2525 N 242.408 -1.52605 -0.393616 0
M  V30 2526 C 243.633 -1.71592 -1.16495 0
M  V30 2527 C 244.058 -0.43133 -1.83088 0
M  V30 2528 O 243.416 0.612523 -1.7064 0
M  V30 2529 C 243.464 -2.86318 -2.19213 0
M  V30 2530 O 242.568 -2.52969 -3.257 0
M  V30 2531 H 241.909 -0.570734 -0.33935 0
M  V30 2532 H 244.439 -1.99377 -0.459324 0
M  V30 2533 H 244.449 -3.1168 -2.63286 0
M  V30 2534 H 243.124 -3.79511 -1.7013 0
M  V30 2535 H 241.701 -2.38332 -2.86797 0
M  V30 2536 N 243.887 0.651787 -1.4349 0
M  V30 2537 C 244.797 1.79368 -1.5121 0
M  V30 2538 C 245.813 1.69361 -0.399093 0
M  V30 2539 O 246.989 1.90505 -0.653431 0
M  V30 2540 C 244.054 3.15653 -1.43401 0
M  V30 2541 C 243.115 3.37446 -2.65384 0
M  V30 2542 C 242.348 4.67229 -2.57939 0
M  V30 2543 O 242.571 5.46676 -1.62792 0
M  V30 2544 O 241.505 4.90773 -3.48462 0
M  V30 2545 H 245.331 1.7581 -2.47638 0
M  V30 2546 H 242.916 0.810447 -1.25507 0
M  V30 2547 H 244.798 3.96935 -1.41494 0
M  V30 2548 H 243.473 3.19798 -0.501085 0
M  V30 2549 H 242.38 2.55923 -2.72863 0
M  V30 2550 H 243.713 3.38148 -3.57654 0
M  V30 2551 N 245.365 1.30045 0.890287 0
M  V30 2552 C 246.612 1.18561 1.64163 0
M  V30 2553 C 246.94 -0.260852 1.92743 0
M  V30 2554 O 246.195 -1.20376 1.54299 0
M  V30 2555 C 246.494 1.95409 2.99249 0
M  V30 2556 C 246.16 3.45066 2.90242 0
M  V30 2557 C 244.822 3.85878 2.87492 0
M  V30 2558 C 247.174 4.4039 2.78758 0
M  V30 2559 C 244.502 5.20314 2.7109 0
M  V30 2560 C 246.854 5.74928 2.63894 0
M  V30 2561 C 245.518 6.14986 2.59516 0
M  V30 2562 H 244.788 0.433846 0.600715 0
M  V30 2563 H 247.435 1.61088 1.03552 0
M  V30 2564 H 245.74 1.45501 3.63781 0
M  V30 2565 H 247.437 1.8392 3.56334 0
M  V30 2566 H 244.027 3.12631 2.93189 0
M  V30 2567 H 248.211 4.09806 2.79952 0
M  V30 2568 H 243.467 5.50449 2.66112 0
M  V30 2569 H 247.641 6.48434 2.53981 0
M  V30 2570 H 245.268 7.19104 2.46565 0
M  V30 2571 N 246.843 -1.10192 1.12674 0
M  V30 2572 C 248.083 -1.83825 0.893736 0
M  V30 2573 C 248.447 -1.83341 -0.570082 0
M  V30 2574 O 249.648 -2.52553 -0.920354 0
M  V30 2575 C 247.919 -3.26405 1.45582 0
M  V30 2576 S 249.478 -4.17136 1.36171 0
M  V30 2577 H 246.296 -0.633732 0.322342 0
M  V30 2578 H 248.898 -1.32581 1.43675 0
M  V30 2579 H 247.602 -3.24329 2.51473 0
M  V30 2580 H 247.133 -3.82721 0.910405 0
M  V30 2581 H 249.148 -4.95069 0.334863 0
M  V30 2582 N 248.321 -0.919034 -1.28029 0
M  V30 2583 C 249.546 -0.570357 -1.99403 0
M  V30 2584 C 249.971 0.842486 -1.68178 0
M  V30 2585 O 249.329 1.56391 -0.917141 0
M  V30 2586 C 249.377 -0.792541 -3.51783 0
M  V30 2587 O 248.481 0.145988 -4.12142 0
M  V30 2588 H 247.822 -0.220555 -0.6263 0
M  V30 2589 H 250.352 -1.23592 -1.63053 0
M  V30 2590 H 250.362 -0.704708 -4.01868 0
M  V30 2591 H 249.037 -1.82247 -3.73844 0
M  V30 2592 H 247.614 0.00897528 -3.72899 0
M  V30 2593 N 249.799 1.42003 -0.683588 0
M  V30 2594 C 251.027 2.05746 -0.218182 0
M  V30 2595 C 251.442 1.51396 1.12804 0
M  V30 2596 O 250.799 0.657303 1.70252 0
M  V30 2597 C 250.85 3.61171 -0.154131 0
M  V30 2598 O 250.571 4.13508 -1.44716 0
M  V30 2599 C 252.072 4.42042 0.333713 0
M  V30 2600 H 249.292 0.662888 -0.10402 0
M  V30 2601 H 251.836 1.81987 -0.9328 0
M  V30 2602 H 249.991 3.84012 0.511231 0
M  V30 2603 H 250.405 5.07453 -1.32632 0
M  V30 2604 H 251.879 5.51028 0.327423 0
M  V30 2605 H 252.356 4.17269 1.37053 0
M  V30 2606 H 252.962 4.24239 -0.300222 0
M  V30 2607 N 251.277 0.427512 1.51691 0
M  V30 2608 C 252.688 -0.0378867 1.86662 0
M  V30 2609 C 253.039 -1.42819 1.34525 0
M  V30 2610 O 252.164 -2.05037 0.692014 0
M  V30 2611 C 252.759 -0.0755266 3.38716 0
M  V30 2612 C 251.318 -0.485309 3.73258 0
M  V30 2613 C 250.465 0.328399 2.75349 0
M  V30 2614 H 253.416 0.64379 1.45055 0
M  V30 2615 H 253.437 -0.887056 3.70016 0
M  V30 2616 H 252.949 0.936487 3.76632 0
M  V30 2617 H 251.05 -1.50329 3.40928 0
M  V30 2618 H 251.163 -0.21693 4.78609 0
M  V30 2619 H 249.527 -0.211905 2.53817 0
M  V30 2620 H 250.31 1.3391 3.16106 0
M  V30 2621 N 252.755 -1.56801 0.158532 0
M  V30 2622 C 253.718 -2.16138 -0.762705 0
M  V30 2623 C 254.718 -1.1061 -1.16713 0
M  V30 2624 O 255.908 -1.36191 -1.08617 0
M  V30 2625 C 253.04 -2.73386 -2.03649 0
M  V30 2626 H 254.233 -2.98886 -0.246354 0
M  V30 2627 H 251.786 -1.56035 -0.0909744 0
M  V30 2628 H 252.521 -1.94335 -2.59623 0
M  V30 2629 H 252.306 -3.50601 -1.75559 0
M  V30 2630 H 253.796 -3.19065 -2.6942 0
M  V30 2631 N 254.233 0.115231 -1.57178 0
M  V30 2632 C 255.473 0.828199 -1.8687 0
M  V30 2633 C 255.837 1.76873 -0.747002 0
M  V30 2634 O 257.038 2.52354 -0.925785 0
M  V30 2635 C 255.309 1.55515 -3.21792 0
M  V30 2636 S 256.868 2.30917 -3.73125 0
M  V30 2637 H 253.686 0.27634 -0.655101 0
M  V30 2638 H 256.288 0.0863469 -1.95309 0
M  V30 2639 H 254.992 0.856248 -4.01368 0
M  V30 2640 H 254.523 2.3373 -3.16439 0
M  V30 2641 H 256.538 3.56705 -3.44929 0
M  V30 2642 N 255.711 1.52812 0.385517 0
M  V30 2643 C 256.936 1.72207 1.15583 0
M  V30 2644 C 257.361 0.441034 1.82857 0
M  V30 2645 O 256.719 -0.603465 1.70962 0
M  V30 2646 C 256.767 2.87476 2.17692 0
M  V30 2647 O 255.871 2.54693 3.24354 0
M  V30 2648 H 255.212 0.572526 0.336319 0
M  V30 2649 H 257.742 1.99618 0.448744 0
M  V30 2650 H 257.752 3.13072 2.6163 0
M  V30 2651 H 256.427 3.80408 1.68115 0
M  V30 2652 H 255.004 2.3985 2.85529 0
M  V30 2653 N 257.189 -0.644168 1.43834 0
M  V30 2654 C 258.099 -1.78563 1.52159 0
M  V30 2655 C 259.115 -1.69147 0.408069 0
M  V30 2656 O 260.291 -1.90156 0.663524 0
M  V30 2657 C 257.356 -3.14888 1.45073 0
M  V30 2658 C 256.417 -3.36034 2.6717 0
M  V30 2659 C 255.65 -4.65855 2.60413 0
M  V30 2660 O 255.873 -5.45805 1.65689 0
M  V30 2661 O 254.807 -4.88918 3.5106 0
M  V30 2662 H 258.633 -1.74494 2.48567 0
M  V30 2663 H 256.218 -0.80378 1.25935 0
M  V30 2664 H 258.1 -3.96179 1.43597 0
M  V30 2665 H 256.775 -3.19528 0.518037 0
M  V30 2666 H 255.682 -2.54472 2.74217 0
M  V30 2667 H 257.015 -3.36247 3.59442 0
M  V30 2668 N 258.668 -1.30515 -0.883378 0
M  V30 2669 C 259.916 -1.19194 -1.63209 0
M  V30 2670 C 260.237 0.253205 -1.93349 0
M  V30 2671 O 259.507 1.17025 -1.57105 0
M  V30 2672 H 258.087 -0.438148 -0.605009 0
M  V30 2673 H 260.749 -1.63663 -1.05832 0
M  V30 2674 H 259.845 -1.75396 -2.58153 0
M  V30 2675 N 260.146 1.09593 -1.13257 0
M  V30 2676 C 261.094 2.18271 -0.803783 0
M  V30 2677 C 262.088 1.68054 0.213148 0
M  V30 2678 O 263.294 1.79862 0.0704699 0
M  V30 2679 H 259.669 0.711949 -0.242143 0
M  V30 2680 H 261.64 2.43235 -1.72856 0
M  V30 2681 C 260.389 3.46536 -0.28424 0
M  V30 2682 H 259.712 3.85545 -1.05807 0
M  V30 2683 H 261.152 4.23899 -0.0925945 0
M  V30 2684 C 259.611 3.22036 0.989684 0
M  V30 2685 O 260.141 3.44509 2.06584 0
M  V30 2686 N 258.347 2.7565 0.920086 0
M  V30 2687 H 257.894 2.57562 0.0442019 0
M  V30 2688 H 257.852 2.59635 1.77306 0
M  V30 2689 N 261.624 0.925811 1.2754 0
M  V30 2690 C 262.849 0.580924 1.99098 0
M  V30 2691 C 263.274 -0.833555 1.68622 0
M  V30 2692 O 262.632 -1.55903 0.925422 0
M  V30 2693 C 262.68 0.811186 3.51358 0
M  V30 2694 O 261.784 -0.124129 4.12213 0
M  V30 2695 H 261.125 0.223873 0.625122 0
M  V30 2696 H 263.655 1.24455 1.62395 0
M  V30 2697 H 263.665 0.72601 4.01489 0
M  V30 2698 H 262.34 1.84227 3.72872 0
M  V30 2699 H 260.917 0.0108006 3.72898 0
M  V30 2700 N 263.102 -1.41638 0.69111 0
M  V30 2701 C 264.379 -1.95036 0.148421 0
M  V30 2702 C 264.759 -1.63072 -1.34055 0
M  V30 2703 O 264.107 -0.93538 -2.08478 0
M  V30 2704 C 264.317 -3.46279 0.434951 0
M  V30 2705 C 265.665 -4.23069 0.360275 0
M  V30 2706 O 266.689 -3.54277 0.369613 0
M  V30 2707 O 265.548 -5.45583 0.316534 0
M  V30 2708 H 262.642 -0.826908 0.0123654 0
M  V30 2709 H 265.188 -1.5138 0.766963 0
M  V30 2710 H 263.96 -3.6281 1.46576 0
M  V30 2711 H 263.583 -3.97019 -0.214787 0
M  V30 2712 N 264.58 -0.43555 -1.51462 0
M  V30 2713 C 265.82 0.130708 -2.03982 0
M  V30 2714 C 266.184 1.40117 -1.31268 0
M  V30 2715 O 267.385 2.04755 -1.74152 0
M  V30 2716 C 265.656 0.346102 -3.5572 0
M  V30 2717 S 267.215 0.876022 -4.29967 0
M  V30 2718 H 264.033 0.0326881 -0.710248 0
M  V30 2719 H 266.635 -0.594544 -1.8624 0
M  V30 2720 H 265.339 -0.584911 -4.0621 0
M  V30 2721 H 264.87 1.09849 -3.77752 0
M  V30 2722 H 266.885 2.15379 -4.47019 0
M  V30 2723 N 266.058 1.56714 -0.166846 0
M  V30 2724 C 267.288 2.00828 0.48494 0
M  V30 2725 C 267.696 1.04612 1.57648 0
M  V30 2726 O 267.039 0.0383201 1.8366 0
M  V30 2727 C 267.101 3.4137 1.12723 0
M  V30 2728 C 266.765 4.56654 0.177886 0
M  V30 2729 C 267.762 5.16402 -0.60207 0
M  V30 2730 C 265.447 5.02244 0.0750139 0
M  V30 2731 C 267.441 6.20167 -1.47215 0
M  V30 2732 C 265.128 6.05859 -0.798649 0
M  V30 2733 C 266.126 6.64691 -1.57082 0
M  V30 2734 O 265.814 7.66297 -2.42989 0
M  V30 2735 H 265.546 0.663587 0.128953 0
M  V30 2736 H 268.1 2.03692 -0.264365 0
M  V30 2737 H 266.33 3.35406 1.92457 0
M  V30 2738 H 268.019 3.69466 1.68076 0
M  V30 2739 H 268.785 4.82065 -0.53274 0
M  V30 2740 H 264.664 4.56167 0.665812 0
M  V30 2741 H 268.208 6.66016 -2.07531 0
M  V30 2742 H 264.105 6.39621 -0.869199 0
M  V30 2743 H 264.873 7.83601 -2.36455 0
M  V30 2744 N 267.536 -0.106894 1.57237 0
M  V30 2745 C 268.783 -0.812526 1.85484 0
M  V30 2746 C 269.111 -1.79304 0.753687 0
M  V30 2747 O 268.366 -1.94047 -0.253853 0
M  V30 2748 C 268.665 -1.58628 3.20268 0
M  V30 2749 C 268.331 -0.748967 4.44636 0
M  V30 2750 C 266.993 -0.518104 4.78403 0
M  V30 2751 C 269.345 -0.166122 5.20935 0
M  V30 2752 C 266.673 0.305659 5.85903 0
M  V30 2753 C 269.025 0.644899 6.29304 0
M  V30 2754 C 267.689 0.885965 6.61594 0
M  V30 2755 H 266.959 -0.297324 0.678734 0
M  V30 2756 H 269.606 -0.0744332 1.91355 0
M  V30 2757 H 267.911 -2.39562 3.10028 0
M  V30 2758 H 269.608 -2.13643 3.39349 0
M  V30 2759 H 266.198 -0.939006 4.18187 0
M  V30 2760 H 270.382 -0.33167 4.95191 0
M  V30 2761 H 265.638 0.501528 6.0934 0
M  V30 2762 H 269.812 1.10345 6.87602 0
M  V30 2763 H 267.439 1.52609 7.44725 0
M  V30 2764 N 269.014 -1.53014 -0.377408 0
M  V30 2765 C 270.262 -1.6829 -1.11906 0
M  V30 2766 C 270.583 -0.431206 -1.90173 0
M  V30 2767 O 269.853 0.554595 -1.87886 0
M  V30 2768 H 268.433 -0.620371 -0.416112 0
M  V30 2769 H 271.095 -1.90167 -0.426893 0
M  V30 2770 H 270.191 -2.53862 -1.8155 0
M  V30 2771 N 270.492 0.636531 -1.44174 0
M  V30 2772 C 271.44 1.76995 -1.50915 0
M  V30 2773 C 272.434 1.65053 -0.381295 0
M  V30 2774 O 273.64 1.71197 -0.55601 0
M  V30 2775 H 270.015 0.584247 -0.473455 0
M  V30 2776 H 271.986 1.68432 -2.4632 0
M  V30 2777 C 270.735 3.15314 -1.46534 0
M  V30 2778 H 270.058 3.25149 -2.32633 0
M  V30 2779 H 271.498 3.9453 -1.55312 0
M  V30 2780 C 269.957 3.3639 -0.185305 0
M  V30 2781 O 270.487 3.94699 0.746688 0
M  V30 2782 N 268.693 2.9046 -0.0901606 0
M  V30 2783 H 268.24 2.43193 -0.849416 0
M  V30 2784 H 268.198 3.04937 0.765553 0
M  V30 2785 N 271.97 1.30982 0.876444 0
M  V30 2786 C 273.218 1.20058 1.62575 0
M  V30 2787 C 273.539 -0.242947 1.93481 0
M  V30 2788 O 272.809 -1.1619 1.57724 0
M  V30 2789 H 271.389 0.44135 0.602677 0
M  V30 2790 H 274.051 1.64222 1.04962 0
M  V30 2791 H 273.147 1.76762 2.57219 0
M  V30 2792 N 273.449 -1.08991 1.13837 0
M  V30 2793 C 274.674 -1.85551 0.926585 0
M  V30 2794 C 275.099 -1.80782 -0.519566 0
M  V30 2795 O 274.457 -1.18855 -1.36906 0
M  V30 2796 C 274.505 -3.31266 1.42462 0
M  V30 2797 O 273.609 -4.07822 0.612789 0
M  V30 2798 H 272.95 -0.575192 0.331738 0
M  V30 2799 H 275.48 -1.37604 1.51414 0
M  V30 2800 H 275.49 -3.82112 1.43019 0
M  V30 2801 H 274.165 -3.34052 2.47754 0
M  V30 2802 H 272.742 -3.66731 0.675463 0
M  V30 2803 N 274.927 -0.932562 -1.27047 0
M  V30 2804 C 275.89 -0.440064 -2.24936 0
M  V30 2805 C 276.89 0.444071 -1.54547 0
M  V30 2806 O 278.08 0.244465 -1.72476 0
M  V30 2807 C 275.212 0.36678 -3.38921 0
M  V30 2808 H 276.405 -1.305 -2.70018 0
M  V30 2809 H 273.958 -0.713707 -1.39054 0
M  V30 2810 H 274.693 1.25033 -2.99228 0
M  V30 2811 H 274.478 -0.267204 -3.91188 0
M  V30 2812 H 275.968 0.701567 -4.11665 0
M  V30 2813 N 276.405 1.4127 -0.698611 0
M  V30 2814 C 277.635 2.05205 -0.239644 0
M  V30 2815 C 278.043 1.52684 1.11733 0
M  V30 2816 O 277.386 0.671222 1.70998 0
M  V30 2817 C 277.448 3.59289 -0.123126 0
M  V30 2818 C 277.112 4.34619 -1.41263 0
M  V30 2819 C 278.109 4.63701 -2.35111 0
M  V30 2820 C 275.794 4.73837 -1.66684 0
M  V30 2821 C 277.788 5.30966 -3.52639 0
M  V30 2822 C 275.475 5.40837 -2.84498 0
M  V30 2823 C 276.473 5.69329 -3.77298 0
M  V30 2824 O 276.161 6.34949 -4.93047 0
M  V30 2825 H 275.893 0.66723 -0.108537 0
M  V30 2826 H 278.447 1.81974 -0.952602 0
M  V30 2827 H 276.677 3.81272 0.645628 0
M  V30 2828 H 278.366 4.04797 0.299056 0
M  V30 2829 H 279.132 4.33882 -2.16729 0
M  V30 2830 H 275.011 4.51039 -0.953135 0
M  V30 2831 H 278.555 5.53121 -4.25091 0
M  V30 2832 H 274.452 5.70075 -3.02795 0
M  V30 2833 H 275.22 6.53445 -4.92902 0
M  V30 2834 N 277.883 0.443576 1.51229 0
M  V30 2835 C 279.299 0.0962001 1.5931 0
M  V30 2836 C 279.499 -1.39501 1.45402 0
M  V30 2837 O 278.555 -2.16557 1.29843 0
M  V30 2838 C 279.868 0.621875 2.94199 0
M  V30 2839 C 281.416 0.582865 3.07525 0
M  V30 2840 C 281.891 1.08562 4.44948 0
M  V30 2841 N 283.382 1.04387 4.51284 0
M  V30 2842 C 284.117 1.40368 5.55954 0
M  V30 2843 N 283.613 1.83664 6.68011 0
M  V30 2844 N 285.406 1.32145 5.46346 0
M  V30 2845 H 277.557 1.41376 1.58514 0
M  V30 2846 H 279.82 0.582965 0.747567 0
M  V30 2847 H 279.526 1.66546 3.09767 0
M  V30 2848 H 279.4 0.0502125 3.77167 0
M  V30 2849 H 281.787 -0.451749 2.91622 0
M  V30 2850 H 281.868 1.191 2.26382 0
M  V30 2851 H 281.512 2.11873 4.61598 0
M  V30 2852 H 281.442 0.453956 5.2464 0
M  V30 2853 H 283.933 0.725986 3.70861 0
M  V30 2854 H 284.246 2.0934 7.43906 0
M  V30 2855 H 282.591 1.87596 6.69203 0
M  V30 2856 H 285.782 0.981808 4.57688 0
M  V30 2857 H 285.955 1.60514 6.27805 0
M  V30 2858 N 279.361 -1.56624 0.175154 0
M  V30 2859 C 280.609 -1.96609 -0.467885 0
M  V30 2860 C 280.93 -1.06238 -1.63519 0
M  V30 2861 O 280.2 -0.129523 -1.95471 0
M  V30 2862 H 278.78 -0.726008 -0.175845 0
M  V30 2863 H 281.442 -1.93195 0.257234 0
M  V30 2864 H 280.538 -3.00989 -0.825342 0
M  V30 2865 N 280.839 0.0985539 -1.57292 0
M  V30 2866 C 282.067 0.816318 -1.90115 0
M  V30 2867 C 282.482 1.72451 -0.768509 0
M  V30 2868 O 281.839 1.80643 0.259687 0
M  V30 2869 C 281.89 1.63259 -3.22535 0
M  V30 2870 O 281.611 0.760934 -4.31441 0
M  V30 2871 C 283.112 2.45372 -3.69199 0
M  V30 2872 H 280.332 0.233595 -0.629027 0
M  V30 2873 H 282.876 0.0768229 -2.04356 0
M  V30 2874 H 281.031 2.32463 -3.09903 0
M  V30 2875 H 281.445 1.32595 -5.07463 0
M  V30 2876 H 282.919 2.98144 -4.64558 0
M  V30 2877 H 283.396 3.23677 -2.96867 0
M  V30 2878 H 284.002 1.81373 -3.84687 0
M  V30 2879 N 282.317 1.53212 0.369288 0
M  V30 2880 C 283.267 1.75769 1.45222 0
M  V30 2881 C 284.251 0.612136 1.48801 0
M  V30 2882 O 285.443 0.870674 1.54105 0
M  V30 2883 C 282.572 1.94769 2.82701 0
M  V30 2884 C 281.658 3.15315 2.83615 0
M  V30 2885 N 282.049 4.37295 2.54178 0
M  V30 2886 C 280.347 3.15962 3.14776 0
M  V30 2887 C 281.048 5.19015 2.62675 0
M  V30 2888 N 280.024 4.55142 2.97232 0
M  V30 2889 H 283.826 2.67691 1.2132 0
M  V30 2890 H 281.34 1.51787 0.577438 0
M  V30 2891 H 283.337 2.09056 3.60696 0
M  V30 2892 H 281.997 1.04073 3.07569 0
M  V30 2893 H 283.008 4.65091 2.27839 0
M  V30 2894 H 279.685 2.35144 3.44983 0
M  V30 2895 H 281.075 6.26305 2.43294 0
M  V30 2896 N 283.795 -0.628877 1.44509 0
M  V30 2897 C 285.02 -1.42048 1.5112 0
M  V30 2898 C 285.445 -1.87594 0.137818 0
M  V30 2899 O 284.803 -1.58873 -0.873437 0
M  V30 2900 C 284.851 -2.61541 2.48251 0
M  V30 2901 O 283.955 -3.61453 1.98559 0
M  V30 2902 H 283.296 -0.424942 0.510216 0
M  V30 2903 H 285.826 -0.767374 1.89664 0
M  V30 2904 H 285.836 -3.09057 2.66361 0
M  V30 2905 H 284.511 -2.27736 3.48007 0
M  V30 2906 H 283.088 -3.20731 1.90227 0
M  V30 2907 N 285.273 -1.31445 -0.869486 0
M  V30 2908 C 286.203 -1.21727 -1.99261 0
M  V30 2909 C 287.184 -0.104359 -1.6978 0
M  V30 2910 O 288.369 -0.289038 -1.92037 0
M  V30 2911 C 285.499 -0.924317 -3.34774 0
M  V30 2912 C 284.453 -1.99685 -3.78563 0
M  V30 2913 C 283.779 -1.55658 -5.11541 0
M  V30 2914 C 285.079 -3.41003 -3.95619 0
M  V30 2915 H 286.773 -2.1569 -2.07649 0
M  V30 2916 H 284.319 -1.03839 -0.997675 0
M  V30 2917 H 286.272 -0.842934 -4.12883 0
M  V30 2918 H 284.996 0.0509793 -3.2656 0
M  V30 2919 H 283.655 -2.06813 -3.02694 0
M  V30 2920 H 283.303 -0.569132 -4.9977 0
M  V30 2921 H 283.003 -2.27409 -5.41811 0
M  V30 2922 H 284.527 -1.48928 -5.92159 0
M  V30 2923 H 285.941 -3.36547 -4.64122 0
M  V30 2924 H 284.338 -4.10975 -4.37286 0
M  V30 2925 H 285.408 -3.81754 -2.98985 0
M  V30 2926 N 286.751 1.08385 -1.14413 0
M  V30 2927 C 287.979 1.84517 -0.936001 0
M  V30 2928 C 288.394 1.81626 0.515503 0
M  V30 2929 O 287.751 1.22008 1.35721 0
M  V30 2930 C 287.802 3.32049 -1.42918 0
M  V30 2931 O 287.523 3.34951 -2.82381 0
M  V30 2932 C 289.024 4.24986 -1.26103 0
M  V30 2933 H 286.244 0.582491 -0.333084 0
M  V30 2934 H 288.788 1.36885 -1.5193 0
M  V30 2935 H 286.943 3.7707 -0.888641 0
M  V30 2936 H 287.357 4.27048 -3.04517 0
M  V30 2937 H 288.831 5.26615 -1.6547 0
M  V30 2938 H 289.308 4.38726 -0.20392 0
M  V30 2939 H 289.914 3.85791 -1.79012 0
M  V30 2940 N 288.23 0.939286 1.26551 0
M  V30 2941 C 289.14 0.453432 2.30176 0
M  V30 2942 C 290.156 -0.471649 1.67486 0
M  V30 2943 O 291.332 -0.35164 1.98306 0
M  V30 2944 C 288.397 -0.275326 3.45605 0
M  V30 2945 C 287.458 0.686084 4.23782 0
M  V30 2946 C 286.691 -0.00798994 5.33699 0
M  V30 2947 O 286.914 -1.22528 5.57085 0
M  V30 2948 O 285.848 0.669746 5.98162 0
M  V30 2949 H 289.674 1.31416 2.73795 0
M  V30 2950 H 287.259 0.705095 1.31715 0
M  V30 2951 H 289.141 -0.685911 4.1578 0
M  V30 2952 H 287.816 -1.11147 3.0402 0
M  V30 2953 H 286.723 1.14658 3.56096 0
M  V30 2954 H 288.056 1.48979 4.69112 0
M  V30 2955 N 289.708 -1.40897 0.706093 0
M  V30 2956 C 290.933 -2.05895 0.249435 0
M  V30 2957 C 291.358 -1.52823 -1.09666 0
M  V30 2958 O 290.716 -0.659589 -1.68876 0
M  V30 2959 C 290.764 -3.59872 0.22904 0
M  V30 2960 O 289.868 -4.04708 -0.792784 0
M  V30 2961 H 289.209 -0.653206 0.119241 0
M  V30 2962 H 291.739 -1.80471 0.96391 0
M  V30 2963 H 291.749 -4.07951 0.0634791 0
M  V30 2964 H 290.424 -3.97866 1.21141 0
M  V30 2965 H 289.001 -3.68111 -0.59572 0
M  V30 2966 N 291.186 -0.45159 -1.50991 0
M  V30 2967 C 292.434 0.109857 -2.01801 0
M  V30 2968 C 292.755 1.41958 -1.3369 0
M  V30 2969 O 292.025 1.9003 -0.475951 0
M  V30 2970 H 290.605 0.0435884 -0.745727 0
M  V30 2971 H 293.267 -0.597557 -1.85514 0
M  V30 2972 H 292.363 0.275489 -3.10882 0
M  V30 2973 N 292.664 1.56529 -0.183458 0
M  V30 2974 C 293.627 2.17324 0.728223 0
M  V30 2975 C 294.627 1.12453 1.14939 0
M  V30 2976 O 295.817 1.37902 1.06437 0
M  V30 2977 C 292.949 2.76591 1.99274 0
M  V30 2978 H 294.142 2.99241 0.198772 0
M  V30 2979 H 291.695 1.5616 0.0661391 0
M  V30 2980 H 292.43 1.98441 2.56499 0
M  V30 2981 H 292.215 3.5335 1.69959 0
M  V30 2982 H 293.705 3.23311 2.6431 0
M  V30 2983 N 294.142 -0.090211 1.57342 0
M  V30 2984 C 295.367 -0.810082 1.90925 0
M  V30 2985 C 295.792 -1.71248 0.778187 0
M  V30 2986 O 295.15 -1.79278 -0.269991 0
M  V30 2987 C 295.198 -1.59529 3.23393 0
M  V30 2988 O 294.302 -2.70461 3.11327 0
M  V30 2989 H 293.643 -0.222231 0.625707 0
M  V30 2990 H 296.173 -0.0639716 2.045 0
M  V30 2991 H 296.183 -1.97847 3.5682 0
M  V30 2992 H 294.858 -0.933055 4.05299 0
M  V30 2993 H 293.435 -2.35135 2.89423 0
M  V30 2994 N 295.62 -1.53406 -0.361157 0
M  V30 2995 C 296.86 -1.71507 -1.11197 0
M  V30 2996 C 297.224 -0.459337 -1.86425 0
M  V30 2997 O 298.425 -0.517102 -2.63779 0
M  V30 2998 C 296.696 -2.93307 -2.0422 0
M  V30 2999 S 298.255 -3.32135 -2.86761 0
M  V30 3000 H 295.073 -0.603448 -0.375995 0
M  V30 3001 H 297.675 -1.91516 -0.392642 0
M  V30 3002 H 296.379 -3.82891 -1.47724 0
M  V30 3003 H 295.91 -2.75712 -2.80618 0
M  V30 3004 H 297.925 -2.84493 -4.06544 0
M  V30 3005 N 297.098 0.621204 -1.44841 0
M  V30 3006 C 298.028 1.74366 -1.55303 0
M  V30 3007 C 299.009 1.65199 -0.405385 0
M  V30 3008 O 300.194 1.83807 -0.626787 0
M  V30 3009 C 297.324 3.12931 -1.50637 0
M  V30 3010 C 296.278 3.36896 -2.63979 0
M  V30 3011 C 295.604 4.75594 -2.44366 0
M  V30 3012 C 296.904 3.28483 -4.06074 0
M  V30 3013 H 298.598 1.65867 -2.49256 0
M  V30 3014 H 296.144 0.796558 -1.19962 0
M  V30 3015 H 298.097 3.9124 -1.56555 0
M  V30 3016 H 296.821 3.22237 -0.532057 0
M  V30 3017 H 295.48 2.60972 -2.57467 0
M  V30 3018 H 295.128 4.81616 -1.45105 0
M  V30 3019 H 294.828 4.92586 -3.20364 0
M  V30 3020 H 296.352 5.5612 -2.52117 0
M  V30 3021 H 297.766 3.96684 -4.13902 0
M  V30 3022 H 296.163 3.57008 -4.82354 0
M  V30 3023 H 297.233 2.26133 -4.28943 0
M  V30 3024 N 298.576 1.31904 0.862503 0
M  V30 3025 C 299.987 1.19803 1.43193 0
M  V30 3026 C 300.338 -0.192567 1.95253 0
M  V30 3027 O 299.463 -1.09081 1.86896 0
M  V30 3028 C 300.058 2.16883 2.60283 0
M  V30 3029 C 298.617 2.08692 3.13248 0
M  V30 3030 C 297.764 2.05691 1.85975 0
M  V30 3031 H 300.715 1.43846 0.670365 0
M  V30 3032 H 300.736 1.76278 3.37204 0
M  V30 3033 H 300.248 3.18083 2.22363 0
M  V30 3034 H 298.349 1.10713 3.55771 0
M  V30 3035 H 298.462 2.9815 3.75025 0
M  V30 3036 H 296.826 1.50814 2.05249 0
M  V30 3037 H 297.609 3.08659 1.50282 0
M  V30 3038 N 300.054 -1.07777 1.14986 0
M  V30 3039 C 301.3 -1.80719 0.93339 0
M  V30 3040 C 301.655 -1.8484 -0.534019 0
M  V30 3041 O 300.948 -1.31795 -1.3907 0
M  V30 3042 C 301.142 -3.25495 1.47608 0
M  V30 3043 C 300.971 -3.3548 2.99472 0
M  V30 3044 C 299.741 -3.46293 3.6798 0
M  V30 3045 C 301.939 -3.26596 3.97291 0
M  V30 3046 N 299.921 -3.45136 5.07695 0
M  V30 3047 C 301.292 -3.32506 5.23297 0
M  V30 3048 C 303.347 -3.10376 3.89321 0
M  V30 3049 C 302.05 -3.23866 6.42264 0
M  V30 3050 C 304.076 -3.03069 5.07842 0
M  V30 3051 C 303.438 -3.09587 6.32721 0
M  V30 3052 H 299.537 -0.674814 0.395158 0
M  V30 3053 H 302.121 -1.28681 1.46114 0
M  V30 3054 H 300.292 -3.75963 0.975022 0
M  V30 3055 H 302.024 -3.86535 1.19887 0
M  V30 3056 H 298.779 -3.50456 3.18555 0
M  V30 3057 H 299.203 -3.48097 5.80653 0
M  V30 3058 H 303.845 -3.04194 2.93642 0
M  V30 3059 H 301.563 -3.28807 7.38181 0
M  V30 3060 H 305.149 -2.91629 5.03432 0
M  V30 3061 H 304.029 -3.0397 7.22891 0
M  V30 3062 N 301.532 -0.945985 -1.26051 0
M  V30 3063 C 302.48 -0.450259 -2.282 0
M  V30 3064 C 303.474 0.47497 -1.62605 0
M  V30 3065 O 304.68 0.352653 -1.76512 0
M  V30 3066 H 301.055 -0.127081 -0.741184 0
M  V30 3067 H 303.026 -1.32422 -2.67408 0
M  V30 3068 C 301.775 0.26467 -3.46691 0
M  V30 3069 H 301.098 -0.438123 -3.97392 0
M  V30 3070 H 302.538 0.575678 -4.20074 0
M  V30 3071 C 300.997 1.48416 -3.02447 0
M  V30 3072 O 301.527 2.58227 -3.07704 0
M  V30 3073 N 299.733 1.34243 -2.57735 0
M  V30 3074 H 299.28 0.448994 -2.53657 0
M  V30 3075 H 299.238 2.15957 -2.28495 0
M  V30 3076 N 303.011 1.40521 -0.713556 0
M  V30 3077 C 304.236 2.05759 -0.26035 0
M  V30 3078 C 304.661 1.53403 1.08854 0
M  V30 3079 O 304.019 0.668535 1.68524 0
M  V30 3080 C 304.067 3.59745 -0.248122 0
M  V30 3081 O 303.171 4.05123 0.77131 0
M  V30 3082 H 302.512 0.652564 -0.122703 0
M  V30 3083 H 305.042 1.79958 -0.973467 0
M  V30 3084 H 305.052 4.07911 -0.0851129 0
M  V30 3085 H 303.727 3.97218 -1.2325 0
M  V30 3086 H 302.304 3.68422 0.57619 0
M  V30 3087 N 304.489 0.459591 1.5075 0
M  V30 3088 C 305.422 -0.386257 2.24907 0
M  V30 3089 C 306.4 -1.006 1.27744 0
M  V30 3090 O 307.584 -1.04416 1.56938 0
M  V30 3091 C 304.711 -1.54021 3.01654 0
M  V30 3092 C 303.757 -1.03898 4.13651 0
M  V30 3093 S 304.59 0.0370501 5.35487 0
M  V30 3094 C 305.746 -1.12105 6.15779 0
M  V30 3095 H 305.979 0.243272 2.96303 0
M  V30 3096 H 303.512 0.244339 1.52454 0
M  V30 3097 H 305.47 -2.20163 3.46466 0
M  V30 3098 H 304.131 -2.14121 2.29806 0
M  V30 3099 H 303.324 -1.90254 4.66711 0
M  V30 3100 H 302.926 -0.45545 3.71216 0
M  V30 3101 H 305.218 -2.03501 6.46215 0
M  V30 3102 H 306.161 -0.62995 7.05292 0
M  V30 3103 H 306.569 -1.36967 5.47631 0
M  V30 3104 N 305.967 -1.56429 0.191757 0
M  V30 3105 C 307.216 -1.9666 -0.448088 0
M  V30 3106 C 307.529 -1.08136 -1.62991 0
M  V30 3107 O 308.735 -1.38135 -2.33733 0
M  V30 3108 C 307.191 -3.49753 -0.848585 0
M  V30 3109 C 306.799 -4.46935 0.308764 0
M  V30 3110 C 308.543 -3.9876 -1.4557 0
M  V30 3111 C 306.45 -5.91293 -0.112506 0
M  V30 3112 H 305.38 -0.734312 -0.171179 0
M  V30 3113 H 308.031 -1.81301 0.283242 0
M  V30 3114 H 306.413 -3.60604 -1.63649 0
M  V30 3115 H 307.587 -4.47813 1.08627 0
M  V30 3116 H 305.902 -4.08102 0.827158 0
M  V30 3117 H 308.499 -5.04086 -1.78328 0
M  V30 3118 H 308.842 -3.42875 -2.36099 0
M  V30 3119 H 309.375 -3.9101 -0.731836 0
M  V30 3120 H 306.114 -6.51097 0.758514 0
M  V30 3121 H 305.634 -5.93676 -0.854941 0
M  V30 3122 H 307.313 -6.44663 -0.549448 0
M  V30 3123 N 307.445 0.0818655 -1.57387 0
M  V30 3124 C 308.375 1.09885 -2.06028 0
M  V30 3125 C 309.356 1.4098 -0.951774 0
M  V30 3126 O 310.541 1.50781 -1.22387 0
M  V30 3127 C 307.671 2.4151 -2.4958 0
M  V30 3128 C 306.625 2.24792 -3.64215 0
M  V30 3129 C 305.951 3.61712 -3.93787 0
M  V30 3130 C 307.251 1.67749 -4.94629 0
M  V30 3131 H 308.945 0.694128 -2.91243 0
M  V30 3132 H 306.491 0.332448 -1.4011 0
M  V30 3133 H 308.444 3.12939 -2.82219 0
M  V30 3134 H 307.168 2.83943 -1.61381 0
M  V30 3135 H 305.827 1.55807 -3.31843 0
M  V30 3136 H 305.475 4.01697 -3.02735 0
M  V30 3137 H 305.175 3.51368 -4.70971 0
M  V30 3138 H 306.699 4.34587 -4.28913 0
M  V30 3139 H 308.113 2.29032 -5.25564 0
M  V30 3140 H 306.51 1.68128 -5.76067 0
M  V30 3141 H 307.58 0.638059 -4.80684 0
M  V30 3142 N 308.923 1.53595 0.353017 0
M  V30 3143 C 310.172 1.69603 1.09168 0
M  V30 3144 C 310.485 0.460925 1.90092 0
M  V30 3145 O 311.691 0.501774 2.66823 0
M  V30 3146 C 310.147 2.99872 1.9901 0
M  V30 3147 C 309.755 4.30687 1.23339 0
M  V30 3148 C 311.499 3.25246 2.72792 0
M  V30 3149 C 309.406 5.52036 2.12156 0
M  V30 3150 H 308.336 0.631966 0.411261 0
M  V30 3151 H 310.987 1.80096 0.351802 0
M  V30 3152 H 309.369 2.83212 2.7678 0
M  V30 3153 H 310.543 4.58019 0.505456 0
M  V30 3154 H 308.858 4.11853 0.613663 0
M  V30 3155 H 311.455 4.13095 3.39495 0
M  V30 3156 H 311.798 2.41846 3.38846 0
M  V30 3157 H 312.331 3.42638 2.021 0
M  V30 3158 H 309.07 6.37951 1.50659 0
M  V30 3159 H 308.59 5.28966 2.82764 0
M  V30 3160 H 310.269 5.87313 2.71427 0
M  V30 3161 N 310.401 -0.613514 1.45168 0
M  V30 3162 C 311.649 -1.36997 1.48581 0
M  V30 3163 C 311.97 -1.94589 0.126545 0
M  V30 3164 O 311.24 -1.76816 -0.843372 0
M  V30 3165 H 309.82 -0.508558 0.547154 0
M  V30 3166 H 312.482 -0.720853 1.81079 0
M  V30 3167 H 311.578 -2.1924 2.22127 0
M  V30 3168 N 311.879 -1.3236 -0.855495 0
M  V30 3169 C 312.826 -1.21225 -1.964 0
M  V30 3170 C 313.796 -0.0946204 -1.6583 0
M  V30 3171 O 314.981 -0.27002 -1.8888 0
M  V30 3172 C 312.121 -0.940419 -3.32039 0
M  V30 3173 C 311.234 -2.14276 -3.75113 0
M  V30 3174 C 310.369 -1.80648 -4.9954 0
M  V30 3175 C 309.408 -2.97208 -5.35102 0
M  V30 3176 N 308.545 -2.63678 -6.50706 0
M  V30 3177 H 313.385 -2.16042 -2.05255 0
M  V30 3178 H 310.922 -1.07451 -1.00463 0
M  V30 3179 H 312.88 -0.763311 -4.10158 0
M  V30 3180 H 311.51 -0.0290413 -3.22787 0
M  V30 3181 H 310.562 -2.43017 -2.92655 0
M  V30 3182 H 311.874 -3.01468 -3.97389 0
M  V30 3183 H 311.028 -1.59484 -5.85363 0
M  V30 3184 H 309.767 -0.906678 -4.79198 0
M  V30 3185 H 308.772 -3.19004 -4.47791 0
M  V30 3186 H 309.997 -3.87918 -5.57401 0
M  V30 3187 H 307.943 -1.76238 -6.31883 0
M  V30 3188 H 307.86 -3.444 -6.72997 0
M  V30 3189 H 309.128 -2.45942 -7.39684 0
M  V30 3190 N 313.357 1.07166 -1.15556 0
M  V30 3191 C 314.603 1.80065 -0.932984 0
M  V30 3192 C 314.936 1.86586 0.53845 0
M  V30 3193 O 314.211 1.35098 1.39924 0
M  V30 3194 C 314.494 3.25022 -1.55025 0
M  V30 3195 C 314.347 3.26634 -3.09242 0
M  V30 3196 C 315.666 4.22341 -1.2376 0
M  V30 3197 H 312.785 0.653697 -0.340366 0
M  V30 3198 H 315.427 1.25389 -1.4275 0
M  V30 3199 H 313.577 3.71712 -1.12972 0
M  V30 3200 H 315.249 2.88173 -3.60214 0
M  V30 3201 H 313.492 2.65539 -3.43033 0
M  V30 3202 H 314.163 4.28854 -3.47546 0
M  V30 3203 H 316.639 3.8405 -1.60139 0
M  V30 3204 H 315.515 5.22053 -1.69564 0
M  V30 3205 H 315.776 4.41828 -0.154938 0
M  V30 3206 N 314.835 0.952656 1.25548 0
M  V30 3207 C 316.065 0.622592 1.96996 0
M  V30 3208 C 316.473 -0.809112 1.71026 0
M  V30 3209 O 315.816 -1.55258 0.981861 0
M  V30 3210 C 315.878 0.798946 3.5051 0
M  V30 3211 C 315.542 2.20744 4.00151 0
M  V30 3212 C 316.539 3.18394 4.11001 0
M  V30 3213 C 314.224 2.5311 4.33867 0
M  V30 3214 C 316.218 4.46504 4.54877 0
M  V30 3215 C 313.905 3.8145 4.7743 0
M  V30 3216 C 314.903 4.77959 4.87897 0
M  V30 3217 O 314.591 6.04012 5.30494 0
M  V30 3218 H 314.323 0.232503 0.634758 0
M  V30 3219 H 316.877 1.2789 1.60728 0
M  V30 3220 H 315.107 0.0854903 3.86605 0
M  V30 3221 H 316.796 0.47023 4.03167 0
M  V30 3222 H 317.562 2.94715 3.85186 0
M  V30 3223 H 313.441 1.78719 4.24948 0
M  V30 3224 H 316.985 5.21835 4.62962 0
M  V30 3225 H 312.882 4.04936 5.0269 0
M  V30 3226 H 313.65 6.0736 5.48685 0
M  V30 3227 N 316.313 -1.40141 0.720998 0
M  V30 3228 C 317.541 -2.05096 0.272656 0
M  V30 3229 C 317.956 -1.54334 -1.0875 0
M  V30 3230 O 317.313 -0.702211 -1.6845 0
M  V30 3231 C 317.364 -3.60636 0.249835 0
M  V30 3232 O 317.085 -4.09526 1.55629 0
M  V30 3233 C 318.586 -4.42772 -0.216396 0
M  V30 3234 H 315.806 -0.659897 0.121558 0
M  V30 3235 H 318.35 -1.79449 0.980723 0
M  V30 3236 H 316.505 -3.85232 -0.409237 0
M  V30 3237 H 316.919 -5.03758 1.4604 0
M  V30 3238 H 318.393 -5.51702 -0.181212 0
M  V30 3239 H 318.87 -4.20756 -1.25941 0
M  V30 3240 H 319.476 -4.23294 0.412596 0
M  V30 3241 N 317.792 -0.46758 -1.50504 0
M  V30 3242 C 318.755 0.317059 -2.26996 0
M  V30 3243 C 319.755 0.923513 -1.31635 0
M  V30 3244 O 320.945 0.793239 -1.55091 0
M  V30 3245 C 318.077 1.45134 -3.08462 0
M  V30 3246 H 319.27 -0.353723 -2.97807 0
M  V30 3247 H 316.823 -0.221545 -1.54722 0
M  V30 3248 H 317.558 2.15728 -2.4214 0
M  V30 3249 H 317.343 1.02232 -3.78538 0
M  V30 3250 H 318.833 2.00493 -3.66323 0
M  V30 3251 N 319.27 1.56325 -0.20005 0
M  V30 3252 C 320.202 2.16555 0.750771 0
M  V30 3253 C 321.215 1.12871 1.1732 0
M  V30 3254 O 322.404 1.39943 1.10807 0
M  V30 3255 C 319.504 2.71684 2.02586 0
M  V30 3256 C 318.677 4.00321 1.76244 0
M  V30 3257 C 317.736 4.40227 2.88248 0
M  V30 3258 O 316.762 5.07552 2.57642 0
M  V30 3259 N 317.964 4.04138 4.16717 0
M  V30 3260 H 320.729 2.98772 0.235685 0
M  V30 3261 H 318.29 1.6189 -0.0182594 0
M  V30 3262 H 320.282 2.95363 2.76664 0
M  V30 3263 H 318.852 1.93893 2.45202 0
M  V30 3264 H 318.072 3.84723 0.85919 0
M  V30 3265 H 319.36 4.84279 1.56048 0
M  V30 3266 H 318.758 3.49993 4.44434 0
M  V30 3267 H 317.315 4.32756 4.87407 0
M  V30 3268 N 320.748 -0.0735177 1.57428 0
M  V30 3269 C 321.696 -1.10628 2.04607 0
M  V30 3270 C 322.69 -1.40181 0.951088 0
M  V30 3271 O 323.896 -1.39608 1.1362 0
M  V30 3272 H 320.271 -0.374088 0.652351 0
M  V30 3273 H 322.242 -0.682218 2.90497 0
M  V30 3274 C 320.991 -2.41212 2.50423 0
M  V30 3275 H 320.314 -2.19322 3.34272 0
M  V30 3276 H 321.754 -3.11927 2.87189 0
M  V30 3277 C 320.213 -3.0705 1.38644 0
M  V30 3278 O 320.743 -3.95056 0.727582 0
M  V30 3279 N 318.949 -2.67645 1.132 0
M  V30 3280 H 318.496 -1.96169 1.66959 0
M  V30 3281 H 318.454 -3.1202 0.386147 0
M  V30 3282 N 322.226 -1.5378 -0.344866 0
M  V30 3283 C 323.637 -1.62428 -0.920552 0
M  V30 3284 C 323.988 -0.504747 -1.89596 0
M  V30 3285 O 323.113 0.365711 -2.13287 0
M  V30 3286 C 323.708 -2.94419 -1.67639 0
M  V30 3287 C 322.267 -3.05333 -2.20111 0
M  V30 3288 C 321.414 -2.57866 -1.01982 0
M  V30 3289 H 324.365 -1.58222 -0.123042 0
M  V30 3290 H 324.386 -2.83384 -2.53917 0
M  V30 3291 H 323.898 -3.7588 -0.966224 0
M  V30 3292 H 321.999 -2.28502 -2.94308 0
M  V30 3293 H 322.112 -4.10778 -2.46573 0
M  V30 3294 H 320.476 -2.13241 -1.39285 0
M  V30 3295 H 321.259 -3.41765 -0.324308 0
M  V30 3296 N 323.704 0.605807 -1.45491 0
M  V30 3297 C 324.929 1.39625 -1.53361 0
M  V30 3298 C 325.354 1.87351 -0.167645 0
M  V30 3299 O 324.712 1.60243 0.848051 0
M  V30 3300 C 324.76 2.57559 -2.5238 0
M  V30 3301 O 323.864 3.58248 -2.04285 0
M  V30 3302 H 323.205 0.416771 -0.516912 0
M  V30 3303 H 325.735 0.737103 -1.90861 0
M  V30 3304 H 325.745 3.0478 -2.71244 0
M  V30 3305 H 324.42 2.22171 -3.51586 0
M  V30 3306 H 322.997 3.17664 -1.95305 0
M  V30 3307 N 325.182 1.32811 0.848464 0
M  V30 3308 C 326.145 1.22194 1.9391 0
M  V30 3309 C 327.145 0.143404 1.60159 0
M  V30 3310 O 328.335 0.394253 1.6968 0
M  V30 3311 C 325.467 0.88067 3.29328 0
M  V30 3312 H 326.66 2.19127 2.04752 0
M  V30 3313 H 324.213 1.16731 1.0394 0
M  V30 3314 H 324.948 -0.0865776 3.24184 0
M  V30 3315 H 324.733 1.66052 3.55203 0
M  V30 3316 H 326.223 0.830871 4.09251 0
M  V30 3317 N 326.66 -1.06551 1.16123 0
M  V30 3318 C 327.592 -2.13908 0.823171 0
M  V30 3319 C 328.605 -1.61926 -0.16843 0
M  V30 3320 O 329.794 -1.78412 0.055962 0
M  V30 3321 C 326.894 -3.38283 0.204424 0
M  V30 3322 C 326.067 -4.19589 1.23548 0
M  V30 3323 C 325.126 -5.2233 0.637011 0
M  V30 3324 O 324.152 -5.54034 1.30516 0
M  V30 3325 N 325.354 -5.77621 -0.577474 0
M  V30 3326 H 328.119 -2.43508 1.74711 0
M  V30 3327 H 325.68 -1.2253 1.05821 0
M  V30 3328 H 327.672 -4.0416 -0.208909 0
M  V30 3329 H 326.242 -3.06329 -0.623012 0
M  V30 3330 H 325.462 -3.49406 1.82507 0
M  V30 3331 H 326.75 -4.70718 1.93137 0
M  V30 3332 H 326.148 -5.54125 -1.13853 0
M  V30 3333 H 324.705 -6.45087 -0.933053 0
M  V30 3334 N 328.138 -0.959301 -1.25041 0
M  V30 3335 C 329.101 -0.487677 -2.23952 0
M  V30 3336 C 330.101 0.41119 -1.55454 0
M  V30 3337 O 331.291 0.207825 -1.72956 0
M  V30 3338 C 328.423 0.294807 -3.39623 0
M  V30 3339 H 329.616 -1.36198 -2.67189 0
M  V30 3340 H 327.169 -0.743042 -1.37508 0
M  V30 3341 H 327.904 1.18658 -3.01813 0
M  V30 3342 H 327.689 -0.35012 -3.90534 0
M  V30 3343 H 329.179 0.614089 -4.1306 0
M  V30 3344 N 329.616 1.39756 -0.72842 0
M  V30 3345 C 330.546 2.33289 -0.0991354 0
M  V30 3346 C 331.527 1.53568 0.731489 0
M  V30 3347 O 332.712 1.81987 0.677807 0
M  V30 3348 C 329.842 3.3763 0.813834 0
M  V30 3349 C 328.796 4.2791 0.0878663 0
M  V30 3350 C 328.122 5.22894 1.11741 0
M  V30 3351 C 329.422 5.11314 -1.06563 0
M  V30 3352 H 331.116 2.86163 -0.880408 0
M  V30 3353 H 328.662 1.37591 -0.424819 0
M  V30 3354 H 330.615 4.0201 1.26355 0
M  V30 3355 H 329.339 2.83181 1.62715 0
M  V30 3356 H 327.998 3.65 -0.342159 0
M  V30 3357 H 327.646 4.64744 1.92412 0
M  V30 3358 H 327.346 5.84143 0.636477 0
M  V30 3359 H 328.87 5.90151 1.56697 0
M  V30 3360 H 330.284 5.69076 -0.694671 0
M  V30 3361 H 328.681 5.81671 -1.47577 0
M  V30 3362 H 329.751 4.46534 -1.89038 0
M  V30 3363 N 331.094 0.475555 1.50254 0
M  V30 3364 C 332.342 -0.077738 2.0195 0
M  V30 3365 C 332.663 -1.39813 1.35931 0
M  V30 3366 O 331.933 -1.89249 0.506123 0
M  V30 3367 H 330.513 -0.031719 0.746326 0
M  V30 3368 H 333.175 0.626995 1.84539 0
M  V30 3369 H 332.271 -0.225995 3.11281 0
M  V30 3370 N 332.573 -1.56217 0.208337 0
M  V30 3371 C 333.503 -2.22694 -0.702116 0
M  V30 3372 C 334.484 -1.19432 -1.2112 0
M  V30 3373 O 335.669 -1.47978 -1.25762 0
M  V30 3374 C 332.799 -2.8966 -1.9161 0
M  V30 3375 C 331.753 -3.9928 -1.5414 0
M  V30 3376 C 331.079 -4.53476 -2.83308 0
M  V30 3377 C 332.379 -5.17012 -0.741339 0
M  V30 3378 H 334.073 -2.99034 -0.147898 0
M  V30 3379 H 331.619 -1.43831 -0.0696951 0
M  V30 3380 H 333.572 -3.34852 -2.55836 0
M  V30 3381 H 332.296 -2.10746 -2.49507 0
M  V30 3382 H 330.955 -3.54799 -0.922668 0
M  V30 3383 H 330.603 -3.71308 -3.39322 0
M  V30 3384 H 330.303 -5.27451 -2.58976 0
M  V30 3385 H 331.827 -5.01378 -3.485 0
M  V30 3386 H 333.241 -5.58667 -1.28699 0
M  V30 3387 H 331.638 -5.97137 -0.595627 0
M  V30 3388 H 332.708 -4.8423 0.254851 0
M  V30 3389 N 334.051 0.0651679 -1.57465 0
M  V30 3390 C 335.299 0.761555 -1.87202 0
M  V30 3391 C 335.62 1.77778 -0.801243 0
M  V30 3392 O 334.89 1.95166 0.16937 0
M  V30 3393 H 333.47 0.284251 -0.690804 0
M  V30 3394 H 336.132 0.0396827 -1.9486 0
M  V30 3395 H 335.228 1.27365 -2.84929 0
M  V30 3396 N 335.529 1.53961 0.336706 0
M  V30 3397 C 336.476 1.82428 1.41381 0
M  V30 3398 C 337.446 0.670444 1.51968 0
M  V30 3399 O 338.631 0.915565 1.67398 0
M  V30 3400 C 335.771 2.04564 2.77934 0
M  V30 3401 C 334.884 3.32267 2.76084 0
M  V30 3402 C 334.019 3.44434 4.04399 0
M  V30 3403 C 333.058 4.66061 3.96804 0
M  V30 3404 N 332.195 4.75224 5.16823 0
M  V30 3405 H 337.035 2.74324 1.16405 0
M  V30 3406 H 334.572 1.35869 0.563752 0
M  V30 3407 H 336.53 2.15388 3.57301 0
M  V30 3408 H 335.16 1.15974 3.01247 0
M  V30 3409 H 334.212 3.3025 1.88784 0
M  V30 3410 H 335.524 4.21733 2.66351 0
M  V30 3411 H 334.678 3.54728 4.92192 0
M  V30 3412 H 333.417 2.53037 4.16921 0
M  V30 3413 H 332.422 4.55838 3.07396 0
M  V30 3414 H 333.647 5.58829 3.85858 0
M  V30 3415 H 331.593 3.86739 5.29876 0
M  V30 3416 H 331.51 5.58636 5.09374 0
M  V30 3417 H 332.778 4.89835 6.06367 0
M  V30 3418 N 337.007 -0.598083 1.45811 0
M  V30 3419 C 337.957 -1.70272 1.51629 0
M  V30 3420 C 338.941 -1.56382 0.378629 0
M  V30 3421 O 340.133 -1.65557 0.626087 0
M  V30 3422 C 337.262 -3.09042 1.49493 0
M  V30 3423 C 336.348 -3.28284 2.68496 0
M  V30 3424 N 336.739 -3.17748 3.93535 0
M  V30 3425 C 335.037 -3.59182 2.64394 0
M  V30 3426 C 335.738 -3.38579 4.7301 0
M  V30 3427 N 334.714 -3.63016 4.04624 0
M  V30 3428 H 338.516 -1.60634 2.46118 0
M  V30 3429 H 336.03 -0.801642 1.41235 0
M  V30 3430 H 338.027 -3.88302 1.51747 0
M  V30 3431 H 336.687 -3.19823 0.560683 0
M  V30 3432 H 337.698 -2.95944 4.25014 0
M  V30 3433 H 334.375 -3.76742 1.79922 0
M  V30 3434 H 335.765 -3.35747 5.82 0
M  V30 3435 N 338.485 -1.33259 -0.841409 0
M  V30 3436 C 339.433 -1.23279 -1.97244 0
M  V30 3437 C 340.427 -0.134706 -1.68864 0
M  V30 3438 O 341.633 -0.298501 -1.77508 0
M  V30 3439 H 338.008 -0.382497 -0.647457 0
M  V30 3440 H 339.979 -2.18906 -2.02787 0
M  V30 3441 C 338.728 -0.986268 -3.33419 0
M  V30 3442 H 338.051 -1.82347 -3.55794 0
M  V30 3443 H 339.491 -0.956728 -4.13065 0
M  V30 3444 C 337.95 0.310842 -3.35463 0
M  V30 3445 O 338.48 1.31838 -3.79449 0
M  V30 3446 N 336.686 0.337485 -2.88634 0
M  V30 3447 H 336.233 -0.482967 -2.53032 0
M  V30 3448 H 336.191 1.20518 -2.90384 0
M  V30 3449 N 339.963 1.05934 -1.16686 0
M  V30 3450 C 341.193 1.82226 -0.973515 0
M  V30 3451 C 341.601 1.8297 0.481532 0
M  V30 3452 O 340.944 1.25009 1.34604 0
M  V30 3453 C 341.006 3.29897 -1.42858 0
M  V30 3454 C 340.67 3.52849 -2.90425 0
M  V30 3455 C 341.667 3.45595 -3.88407 0
M  V30 3456 C 339.352 3.80053 -3.28428 0
M  V30 3457 C 341.346 3.65217 -5.22394 0
M  V30 3458 C 339.033 3.99325 -4.62583 0
M  V30 3459 C 340.031 3.91905 -5.59374 0
M  V30 3460 O 339.719 4.10647 -6.91104 0
M  V30 3461 H 339.451 0.581314 -0.345036 0
M  V30 3462 H 342.005 1.3453 -1.55212 0
M  V30 3463 H 340.235 3.78472 -0.793477 0
M  V30 3464 H 341.924 3.87692 -1.20207 0
M  V30 3465 H 342.69 3.24564 -3.60393 0
M  V30 3466 H 338.569 3.84936 -2.53664 0
M  V30 3467 H 342.113 3.59341 -5.9793 0
M  V30 3468 H 338.01 4.19846 -4.90306 0
M  V30 3469 H 338.778 4.27915 -6.97733 0
M  V30 3470 N 341.441 0.965919 1.2453 0
M  V30 3471 C 342.681 0.634656 1.94297 0
M  V30 3472 C 343.045 -0.814822 1.73852 0
M  V30 3473 O 344.246 -1.25622 2.3764 0
M  V30 3474 C 342.517 0.99702 3.43212 0
M  V30 3475 S 344.076 0.780038 4.31811 0
M  V30 3476 H 340.894 0.232893 0.671775 0
M  V30 3477 H 343.496 1.24249 1.50938 0
M  V30 3478 H 342.2 2.04886 3.55598 0
M  V30 3479 H 341.731 0.379888 3.91562 0
M  V30 3480 H 343.746 -0.343512 4.9501 0
M  V30 3481 N 342.919 -1.39368 0.735821 0
M  V30 3482 C 344.335 -1.54204 0.411492 0
M  V30 3483 C 344.535 -1.70268 -1.07755 0
M  V30 3484 O 343.591 -1.70364 -1.86366 0
M  V30 3485 C 344.904 -2.75925 1.19523 0
M  V30 3486 C 346.452 -2.89761 1.18354 0
M  V30 3487 C 346.927 -4.14421 1.94986 0
M  V30 3488 N 348.418 -4.21462 1.92156 0
M  V30 3489 C 349.153 -5.16871 2.48258 0
M  V30 3490 N 348.649 -6.18063 3.13001 0
M  V30 3491 N 350.442 -5.09093 2.38287 0
M  V30 3492 H 342.593 -1.27189 1.70108 0
M  V30 3493 H 344.856 -0.616517 0.720147 0
M  V30 3494 H 344.562 -2.70401 2.24892 0
M  V30 3495 H 344.436 -3.68614 0.800222 0
M  V30 3496 H 346.823 -2.94777 0.137975 0
M  V30 3497 H 346.904 -1.98133 1.61793 0
M  V30 3498 H 346.548 -4.10166 2.99543 0
M  V30 3499 H 346.478 -5.05095 1.48953 0
M  V30 3500 H 348.969 -3.48979 1.44991 0
M  V30 3501 H 349.282 -6.87326 3.53275 0
M  V30 3502 H 347.627 -6.18448 3.17091 0
M  V30 3503 H 350.818 -4.28973 1.8735 0
M  V30 3504 H 350.991 -5.83272 2.82308 0
M  V30 3505 N 344.397 -0.483516 -1.5 0
M  V30 3506 C 345.345 0.318061 -2.30415 0
M  V30 3507 C 346.339 0.978988 -1.38247 0
M  V30 3508 O 347.545 0.908673 -1.55381 0
M  V30 3509 H 343.92 0.121419 -0.742133 0
M  V30 3510 H 345.891 -0.380403 -2.95965 0
M  V30 3511 C 344.64 1.38013 -3.19136 0
M  V30 3512 H 343.963 0.880952 -3.89973 0
M  V30 3513 H 345.403 1.91332 -3.78375 0
M  V30 3514 C 343.862 2.38884 -2.37563 0
M  V30 3515 O 344.392 3.44412 -2.06744 0
M  V30 3516 N 342.598 2.10912 -1.99911 0
M  V30 3517 H 342.145 1.25118 -2.25174 0
M  V30 3518 H 342.103 2.78635 -1.45636 0
M  V30 3519 N 345.875 1.56104 -0.216619 0
M  V30 3520 C 347.286 1.844 0.292128 0
M  V30 3521 C 347.637 1.13788 1.59833 0
M  V30 3522 O 346.762 0.405888 2.12559 0
M  V30 3523 C 347.357 3.3452 0.53681 0
M  V30 3524 C 345.916 3.63151 0.989876 0
M  V30 3525 C 345.063 2.77255 0.0502302 0
M  V30 3526 H 348.014 1.52481 -0.439926 0
M  V30 3527 H 348.035 3.54459 1.38345 0
M  V30 3528 H 347.547 3.85885 -0.414031 0
M  V30 3529 H 345.648 3.17238 1.95425 0
M  V30 3530 H 345.761 4.71177 0.867698 0
M  V30 3531 H 344.125 2.48555 0.556117 0
M  V30 3532 H 344.908 3.31416 -0.89544 0
M  V30 3533 N 347.353 -0.0568162 1.57498 0
M  V30 3534 C 348.63 -0.786954 1.79071 0
M  V30 3535 C 349.01 -1.95028 0.80792 0
M  V30 3536 O 348.358 -2.27968 -0.155858 0
M  V30 3537 C 348.568 -1.24594 3.26002 0
M  V30 3538 C 349.916 -1.67323 3.90241 0
M  V30 3539 O 350.94 -1.34124 3.29984 0
M  V30 3540 O 349.799 -2.28842 4.9628 0
M  V30 3541 H 346.893 -0.378262 0.735423 0
M  V30 3542 H 349.439 -0.035734 1.69662 0
M  V30 3543 H 348.211 -0.41423 3.89101 0
M  V30 3544 H 347.834 -2.05803 3.40192 0
M  V30 3545 N 348.832 -1.54138 -0.328536 0
M  V30 3546 C 350.08 -1.71765 -1.06496 0
M  V30 3547 C 350.401 -0.49149 -1.88704 0
M  V30 3548 O 349.671 0.494539 -1.89555 0
M  V30 3549 H 348.251 -0.633295 -0.396164 0
M  V30 3550 H 350.913 -1.91429 -0.366176 0
M  V30 3551 H 350.009 -2.5951 -1.73381 0
M  V30 3552 N 350.31 0.590341 -1.46126 0
M  V30 3553 C 351.587 1.35029 -1.41515 0
M  V30 3554 C 351.967 2.10888 -0.0946472 0
M  V30 3555 O 351.315 2.08998 0.923693 0
M  V30 3556 C 351.525 2.28269 -2.63997 0
M  V30 3557 C 352.873 2.90338 -3.09821 0
M  V30 3558 O 353.897 2.38585 -2.64492 0
M  V30 3559 O 352.756 3.84321 -3.88535 0
M  V30 3560 H 349.85 0.606317 -0.562413 0
M  V30 3561 H 352.396 0.611994 -1.58281 0
M  V30 3562 H 351.168 1.71591 -3.51671 0
M  V30 3563 H 350.791 3.0945 -2.49652 0
M  V30 3564 N 351.788 1.33704 0.83433 0
M  V30 3565 C 352.751 1.24244 1.92603 0
M  V30 3566 C 353.751 0.160383 1.59998 0
M  V30 3567 O 354.941 0.412228 1.69252 0
M  V30 3568 C 352.073 0.91555 3.28376 0
M  V30 3569 H 353.266 2.21287 2.02416 0
M  V30 3570 H 350.819 1.17827 1.02696 0
M  V30 3571 H 351.554 -0.0521886 3.24258 0
M  V30 3572 H 351.339 1.69811 3.53422 0
M  V30 3573 H 352.829 0.874231 4.08347 0
M  V30 3574 N 353.266 -1.05314 1.17247 0
M  V30 3575 C 354.213 -2.13031 0.888058 0
M  V30 3576 C 355.183 -1.65253 -0.167537 0
M  V30 3577 O 356.368 -1.90775 -0.0305974 0
M  V30 3578 C 353.508 -3.42702 0.406147 0
M  V30 3579 C 352.621 -4.04161 1.52572 0
M  V30 3580 C 351.756 -5.21744 0.997808 0
M  V30 3581 C 350.795 -5.75207 2.09291 0
M  V30 3582 N 349.932 -6.84094 1.57986 0
M  V30 3583 H 354.772 -2.36698 1.81048 0
M  V30 3584 H 352.309 -1.16121 0.903013 0
M  V30 3585 H 354.267 -4.17059 0.108305 0
M  V30 3586 H 352.897 -3.19222 -0.479313 0
M  V30 3587 H 351.949 -3.27253 1.93931 0
M  V30 3588 H 353.261 -4.39881 2.35172 0
M  V30 3589 H 352.415 -6.03168 0.653739 0
M  V30 3590 H 351.154 -4.87495 0.141232 0
M  V30 3591 H 350.159 -4.92414 2.44557 0
M  V30 3592 H 351.384 -6.11505 2.95362 0
M  V30 3593 H 349.33 -6.51745 0.74598 0
M  V30 3594 H 349.247 -7.18811 2.34195 0
M  V30 3595 H 350.515 -7.69172 1.26468 0
M  V30 3596 N 354.744 -0.972509 -1.24016 0
M  V30 3597 C 356.155 -0.67517 -1.74064 0
M  V30 3598 C 356.506 0.808939 -1.78747 0
M  V30 3599 O 355.631 1.63286 -1.42009 0
M  V30 3600 C 356.226 -1.21889 -3.16115 0
M  V30 3601 C 354.785 -0.971358 -3.6365 0
M  V30 3602 C 353.932 -1.35134 -2.42145 0
M  V30 3603 H 356.883 -1.14727 -1.09651 0
M  V30 3604 H 356.904 -0.587489 -3.75937 0
M  V30 3605 H 356.416 -2.29906 -3.12674 0
M  V30 3606 H 354.517 0.0930686 -3.72484 0
M  V30 3607 H 354.63 -1.62039 -4.50866 0
M  V30 3608 H 352.994 -0.769751 -2.4279 0
M  V30 3609 H 353.777 -2.4411 -2.41381 0
M  V30 3610 N 356.222 1.38976 -0.743202 0
M  V30 3611 C 357.468 2.01114 -0.304109 0
M  V30 3612 C 357.823 1.57929 1.09892 0
M  V30 3613 O 357.116 0.801983 1.74008 0
M  V30 3614 C 357.31 3.55647 -0.353517 0
M  V30 3615 C 357.139 4.13837 -1.75981 0
M  V30 3616 C 355.909 4.46062 -2.37395 0
M  V30 3617 C 358.107 4.36812 -2.71477 0
M  V30 3618 N 356.089 4.898 -3.70093 0
M  V30 3619 C 357.46 4.82844 -3.88923 0
M  V30 3620 C 359.515 4.18893 -2.69134 0
M  V30 3621 C 358.218 5.12837 -5.04371 0
M  V30 3622 C 360.244 4.50005 -3.83731 0
M  V30 3623 C 359.606 4.96251 -4.99914 0
M  V30 3624 H 355.705 0.765931 -0.157716 0
M  V30 3625 H 358.289 1.68763 -0.970931 0
M  V30 3626 H 356.46 3.87368 0.282987 0
M  V30 3627 H 358.192 4.04564 0.104904 0
M  V30 3628 H 354.947 4.34145 -1.89248 0
M  V30 3629 H 355.371 5.16016 -4.38242 0
M  V30 3630 H 360.013 3.82335 -1.80499 0
M  V30 3631 H 357.731 5.48297 -5.9363 0
M  V30 3632 H 361.317 4.37755 -3.83225 0
M  V30 3633 H 360.197 5.19867 -5.87118 0
M  V30 3634 N 357.7 0.491464 1.49741 0
M  V30 3635 C 358.94 -0.0549118 2.04326 0
M  V30 3636 C 359.304 -1.35148 1.36378 0
M  V30 3637 O 360.505 -1.9815 1.81631 0
M  V30 3638 C 358.776 -0.213841 3.5676 0
M  V30 3639 S 360.335 -0.715839 4.32922 0
M  V30 3640 H 357.153 -0.00630513 0.710972 0
M  V30 3641 H 359.755 0.663257 1.83905 0
M  V30 3642 H 358.459 0.73527 4.0376 0
M  V30 3643 H 357.99 -0.957529 3.81569 0
M  V30 3644 H 360.005 -1.9864 4.54705 0
M  V30 3645 N 359.178 -1.55987 0.224894 0
M  V30 3646 C 360.128 -2.17076 -0.697296 0
M  V30 3647 C 361.112 -1.12006 -1.15514 0
M  V30 3648 O 362.304 -1.37985 -1.10857 0
M  V30 3649 C 359.433 -2.85679 -1.90374 0
M  V30 3650 C 358.519 -3.97977 -1.46543 0
M  V30 3651 N 358.91 -5.00359 -0.739909 0
M  V30 3652 C 357.208 -4.10128 -1.75245 0
M  V30 3653 C 357.909 -5.79407 -0.515939 0
M  V30 3654 N 356.885 -5.32892 -1.07364 0
M  V30 3655 H 360.687 -2.93592 -0.134594 0
M  V30 3656 H 358.201 -1.62379 0.0262885 0
M  V30 3657 H 360.198 -3.27857 -2.57518 0
M  V30 3658 H 358.858 -2.1066 -2.47088 0
M  V30 3659 H 359.869 -5.16412 -0.392253 0
M  V30 3660 H 356.546 -3.46263 -2.33255 0
M  V30 3661 H 357.936 -6.71872 0.0617349 0
M  V30 3662 N 360.656 0.0484629 -1.57525 0
M  V30 3663 C 361.902 0.744226 -1.88651 0
M  V30 3664 C 362.235 1.76029 -0.820212 0
M  V30 3665 O 361.51 1.93782 0.166985 0
M  V30 3666 C 361.793 1.43128 -3.30434 0
M  V30 3667 C 361.646 0.43005 -4.47739 0
M  V30 3668 C 362.965 2.37031 -3.70816 0
M  V30 3669 H 360.084 0.269089 -0.68612 0
M  V30 3670 H 362.726 0.00713532 -1.89999 0
M  V30 3671 H 360.876 2.05956 -3.29415 0
M  V30 3672 H 362.548 -0.194816 -4.60888 0
M  V30 3673 H 360.791 -0.252522 -4.33064 0
M  V30 3674 H 361.462 0.948874 -5.43783 0
M  V30 3675 H 363.938 1.84263 -3.73077 0
M  V30 3676 H 362.814 2.82094 -4.70865 0
M  V30 3677 H 363.075 3.22864 -3.02012 0
M  V30 3678 N 362.134 1.5431 0.320358 0
M  V30 3679 C 363.064 1.86912 1.3995 0
M  V30 3680 C 364.045 0.726211 1.53819 0
M  V30 3681 O 365.23 0.980233 1.67646 0
M  V30 3682 C 362.36 2.09932 2.7667 0
M  V30 3683 C 361.314 3.25776 2.77586 0
M  V30 3684 C 360.64 3.34173 4.17412 0
M  V30 3685 C 361.94 4.6335 2.41048 0
M  V30 3686 H 363.634 2.77292 1.12914 0
M  V30 3687 H 361.18 1.33421 0.541738 0
M  V30 3688 H 363.133 2.31324 3.52232 0
M  V30 3689 H 361.857 1.16304 3.0519 0
M  V30 3690 H 360.516 3.04276 2.04479 0
M  V30 3691 H 360.164 2.38098 4.43078 0
M  V30 3692 H 359.864 4.12033 4.18931 0
M  V30 3693 H 361.388 3.57803 4.94782 0
M  V30 3694 H 362.802 4.84602 3.06324 0
M  V30 3695 H 361.199 5.43782 2.53813 0
M  V30 3696 H 362.269 4.65381 1.36193 0
M  V30 3697 N 363.613 -0.582584 1.46437 0
M  V30 3698 C 364.56 -1.69164 1.5701 0
M  V30 3699 C 365.53 -1.60847 0.414403 0
M  V30 3700 O 366.715 -1.80058 0.631171 0
M  V30 3701 C 363.855 -3.075 1.56646 0
M  V30 3702 C 362.968 -3.2644 2.82951 0
M  V30 3703 C 362.103 -4.55026 2.7409 0
M  V30 3704 C 361.142 -4.6731 3.95333 0
M  V30 3705 N 360.279 -5.87221 3.84858 0
M  V30 3706 H 365.119 -1.59464 2.51744 0
M  V30 3707 H 362.656 -0.777186 1.24893 0
M  V30 3708 H 364.614 -3.8757 1.5442 0
M  V30 3709 H 363.244 -3.16096 0.654439 0
M  V30 3710 H 362.296 -2.39974 2.95155 0
M  V30 3711 H 363.608 -3.31385 3.72808 0
M  V30 3712 H 362.762 -5.43324 2.6997 0
M  V30 3713 H 361.501 -4.52519 1.81873 0
M  V30 3714 H 360.506 -3.77429 3.99784 0
M  V30 3715 H 361.731 -4.71595 4.88646 0
M  V30 3716 H 359.677 -5.85712 2.95427 0
M  V30 3717 H 359.594 -5.93435 4.6837 0
M  V30 3718 H 360.862 -6.7795 3.84713 0
M  V30 3719 N 365.091 -1.34144 -0.827227 0
M  V30 3720 C 366.039 -1.25364 -1.95925 0
M  V30 3721 C 367.033 -0.152608 -1.68711 0
M  V30 3722 O 368.239 -0.317311 -1.77181 0
M  V30 3723 H 364.614 -0.389342 -0.643364 0
M  V30 3724 H 366.585 -2.21045 -2.00454 0
M  V30 3725 C 365.334 -1.02158 -3.32354 0
M  V30 3726 H 364.657 -1.86111 -3.5384 0
M  V30 3727 H 366.097 -1.00048 -4.12027 0
M  V30 3728 C 364.556 0.275244 -3.35774 0
M  V30 3729 O 365.086 1.27806 -3.80826 0
M  V30 3730 N 363.292 0.306853 -2.88975 0
M  V30 3731 H 362.839 -0.509777 -2.52506 0
M  V30 3732 H 362.797 1.17432 -2.91646 0
M  V30 3733 N 366.569 1.04691 -1.17803 0
M  V30 3734 C 367.985 1.29963 -0.926379 0
M  V30 3735 C 368.185 1.97251 0.411635 0
M  V30 3736 O 367.241 2.24922 1.14744 0
M  V30 3737 C 368.554 2.16447 -2.08737 0
M  V30 3738 C 370.102 2.29814 -2.12496 0
M  V30 3739 C 370.577 3.19661 -3.27995 0
M  V30 3740 N 372.068 3.27247 -3.27816 0
M  V30 3741 C 372.803 3.96906 -4.13827 0
M  V30 3742 N 372.299 4.6895 -5.09959 0
M  V30 3743 N 374.092 3.93122 -4.01761 0
M  V30 3744 H 366.243 0.594182 -2.0392 0
M  V30 3745 H 368.506 0.324649 -0.890678 0
M  V30 3746 H 368.212 1.74304 -3.05469 0
M  V30 3747 H 368.086 3.17103 -2.04268 0
M  V30 3748 H 370.473 2.71196 -1.16347 0
M  V30 3749 H 370.554 1.2877 -2.21025 0
M  V30 3750 H 370.198 2.78991 -4.24413 0
M  V30 3751 H 370.128 4.20722 -3.16703 0
M  V30 3752 H 372.619 2.75921 -2.58217 0
M  V30 3753 H 372.932 5.19679 -5.71974 0
M  V30 3754 H 371.277 4.67875 -5.13924 0
M  V30 3755 H 374.468 3.35967 -3.2595 0
M  V30 3756 H 374.641 4.47139 -4.6901 0
M  V30 3757 N 368.047 0.979072 1.23499 0
M  V30 3758 C 369.463 0.687475 1.44034 0
M  V30 3759 C 369.663 -0.746801 1.8715 0
M  V30 3760 O 368.719 -1.51939 2.0167 0
M  V30 3761 C 370.032 1.68127 2.49307 0
M  V30 3762 C 371.58 1.69516 2.63122 0
M  V30 3763 C 372.055 2.67723 3.71603 0
M  V30 3764 N 373.546 2.66233 3.79044 0
M  V30 3765 C 374.281 3.38891 4.62537 0
M  V30 3766 N 373.777 4.21103 5.50131 0
M  V30 3767 N 375.57 3.27661 4.56721 0
M  V30 3768 H 367.721 1.90559 0.938135 0
M  V30 3769 H 369.984 0.821051 0.473897 0
M  V30 3770 H 369.69 2.70693 2.2454 0
M  V30 3771 H 369.564 1.46306 3.4767 0
M  V30 3772 H 371.951 0.676561 2.8724 0
M  V30 3773 H 372.032 1.95404 1.65079 0
M  V30 3774 H 371.676 3.69724 3.48233 0
M  V30 3775 H 371.606 2.39111 4.69184 0
M  V30 3776 H 374.097 2.06568 3.16446 0
M  V30 3777 H 374.41 4.73403 6.10827 0
M  V30 3778 H 372.755 4.25195 5.49759 0
M  V30 3779 H 375.946 2.62887 3.87309 0
M  V30 3780 H 376.119 3.84547 5.21562 0
M  V30 3781 N 369.525 -1.3858 0.750561 0
M  V30 3782 C 370.455 -2.33102 0.136237 0
M  V30 3783 C 371.436 -1.54713 -0.706965 0
M  V30 3784 O 372.621 -1.83043 -0.648769 0
M  V30 3785 C 369.751 -3.38882 -0.760017 0
M  V30 3786 C 368.705 -4.27995 -0.0197785 0
M  V30 3787 C 368.031 -5.24605 -1.03408 0
M  V30 3788 C 369.331 -5.09554 1.14684 0
M  V30 3789 H 371.025 -2.84726 0.925822 0
M  V30 3790 H 368.571 -1.36898 0.446654 0
M  V30 3791 H 370.524 -4.0397 -1.19943 0
M  V30 3792 H 369.248 -2.85734 -1.58189 0
M  V30 3793 H 367.907 -3.64409 0.400184 0
M  V30 3794 H 367.555 -4.67746 -1.84994 0
M  V30 3795 H 367.255 -5.85081 -0.543464 0
M  V30 3796 H 368.779 -5.9257 -1.47288 0
M  V30 3797 H 370.193 -5.67899 0.785118 0
M  V30 3798 H 368.59 -5.7925 1.56812 0
M  V30 3799 H 369.66 -4.4347 1.96118 0
M  V30 3800 N 371.003 -0.499398 -1.49478 0
M  V30 3801 C 372.231 0.0425456 -2.06856 0
M  V30 3802 C 372.646 1.30964 -1.35992 0
M  V30 3803 O 372.003 1.77172 -0.437762 0
M  V30 3804 C 372.054 0.301735 -3.60239 0
M  V30 3805 O 371.775 -0.915127 -4.28436 0
M  V30 3806 C 373.276 0.887499 -4.34325 0
M  V30 3807 H 370.496 -0.0197482 -0.670709 0
M  V30 3808 H 373.04 -0.696297 -1.92281 0
M  V30 3809 H 371.195 0.990556 -3.74522 0
M  V30 3810 H 371.609 -0.676993 -5.20113 0
M  V30 3811 H 373.083 1.01845 -5.42523 0
M  V30 3812 H 373.56 1.88488 -3.96698 0
M  V30 3813 H 374.166 0.236196 -4.24644 0
M  V30 3814 N 372.481 1.55866 -0.233164 0
M  V30 3815 C 373.727 1.99643 0.389148 0
M  V30 3816 C 374.082 1.11836 1.56558 0
M  V30 3817 O 373.375 0.170848 1.90837 0
M  V30 3818 C 373.569 3.46856 0.861724 0
M  V30 3819 C 373.398 4.48904 -0.267376 0
M  V30 3820 C 372.168 4.99888 -0.737577 0
M  V30 3821 C 374.366 5.02624 -1.08966 0
M  V30 3822 N 372.348 5.8566 -1.84052 0
M  V30 3823 C 373.719 5.85434 -2.04125 0
M  V30 3824 C 375.774 4.84959 -1.12779 0
M  V30 3825 C 374.477 6.52466 -3.02789 0
M  V30 3826 C 376.503 5.52759 -2.10266 0
M  V30 3827 C 375.865 6.35346 -3.04162 0
M  V30 3828 H 371.964 0.774402 0.108742 0
M  V30 3829 H 374.548 1.91572 -0.347596 0
M  V30 3830 H 372.719 3.55352 1.5678 0
M  V30 3831 H 374.451 3.77531 1.45783 0
M  V30 3832 H 371.206 4.7249 -0.324122 0
M  V30 3833 H 371.63 6.33246 -2.39434 0
M  V30 3834 H 376.272 4.20751 -0.415749 0
M  V30 3835 H 373.99 7.15849 -3.74948 0
M  V30 3836 H 377.576 5.41051 -2.13905 0
M  V30 3837 H 376.456 6.86883 -3.78366 0
M  V30 3838 N 373.959 -0.0401083 1.57549 0
M  V30 3839 C 374.869 -1.06133 2.0922 0
M  V30 3840 C 375.885 -1.40356 1.0284 0
M  V30 3841 O 377.061 -1.49897 1.34509 0
M  V30 3842 C 374.126 -2.34658 2.55218 0
M  V30 3843 C 373.187 -2.07117 3.76033 0
M  V30 3844 C 372.42 -3.29514 4.19829 0
M  V30 3845 O 372.643 -4.39794 3.63232 0
M  V30 3846 O 371.577 -3.15863 5.12362 0
M  V30 3847 H 375.403 -0.652244 2.96613 0
M  V30 3848 H 372.988 -0.256368 1.47184 0
M  V30 3849 H 374.87 -3.10239 2.85184 0
M  V30 3850 H 373.545 -2.74883 1.70941 0
M  V30 3851 H 372.452 -1.29139 3.51104 0
M  V30 3852 H 373.785 -1.71754 4.61261 0
M  V30 3853 N 375.437 -1.54477 -0.31217 0
M  V30 3854 C 376.667 -1.76948 -1.06645 0
M  V30 3855 C 377.075 -0.523593 -1.81811 0
M  V30 3856 O 376.418 0.51578 -1.76311 0
M  V30 3857 C 376.48 -2.91668 -2.10166 0
M  V30 3858 C 376.144 -4.30165 -1.54296 0
M  V30 3859 C 377.141 -5.10603 -0.978793 0
M  V30 3860 C 374.826 -4.76738 -1.58196 0
M  V30 3861 C 376.82 -6.3573 -0.461048 0
M  V30 3862 C 374.507 -6.01831 -1.06034 0
M  V30 3863 C 375.505 -6.81161 -0.500844 0
M  V30 3864 O 375.193 -8.03899 0.0128958 0
M  V30 3865 H 374.925 -0.594088 -0.322546 0
M  V30 3866 H 377.479 -2.02213 -0.360441 0
M  V30 3867 H 375.709 -2.62001 -2.84416 0
M  V30 3868 H 377.398 -3.01817 -2.71406 0
M  V30 3869 H 378.164 -4.75771 -0.941651 0
M  V30 3870 H 374.043 -4.15027 -2.00683 0
M  V30 3871 H 377.587 -6.97596 -0.0236894 0
M  V30 3872 H 373.484 -6.36152 -1.09459 0
M  V30 3873 H 374.252 -8.18437 -0.101457 0
M  V30 3874 N 376.915 0.57481 -1.46744 0
M  V30 3875 C 378.155 1.34369 -1.54027 0
M  V30 3876 C 378.519 1.91051 -0.190642 0
M  V30 3877 O 379.72 2.68444 -0.138255 0
M  V30 3878 C 377.991 2.43706 -2.61423 0
M  V30 3879 S 379.55 3.30915 -2.88167 0
M  V30 3880 H 376.368 0.45768 -0.544105 0
M  V30 3881 H 378.97 0.659959 -1.84024 0
M  V30 3882 H 377.674 2.0047 -3.58106 0
M  V30 3883 H 377.205 3.16842 -2.33184 0
M  V30 3884 H 379.22 4.42742 -2.24039 0
M  V30 3885 N 378.394 1.34581 0.820102 0
M  V30 3886 C 379.671 1.17675 1.56244 0
M  V30 3887 C 380.051 -0.249541 2.0962 0
M  V30 3888 O 379.399 -1.25125 1.91196 0
M  V30 3889 C 379.609 2.23364 2.6816 0
M  V30 3890 C 380.957 2.58485 3.36854 0
M  V30 3891 O 381.981 2.22175 2.78418 0
M  V30 3892 O 380.84 3.20868 4.42386 0
M  V30 3893 H 377.934 0.456333 0.689702 0
M  V30 3894 H 380.48 1.46222 0.861231 0
M  V30 3895 H 379.252 3.19087 2.26493 0
M  V30 3896 H 378.875 1.96009 3.45928 0
M  V30 3897 N 379.872 -1.04064 1.18357 0
M  V30 3898 C 381.118 -1.77528 0.980397 0
M  V30 3899 C 381.451 -1.87948 -0.48879 0
M  V30 3900 O 380.726 -1.3876 -1.36293 0
M  V30 3901 C 381.009 -3.20797 1.63588 0
M  V30 3902 C 380.862 -3.1832 3.17793 0
M  V30 3903 C 382.181 -4.18911 1.34914 0
M  V30 3904 H 379.3 -0.644443 0.357578 0
M  V30 3905 H 381.942 -1.2156 1.46024 0
M  V30 3906 H 380.092 -3.68586 1.22788 0
M  V30 3907 H 381.764 -2.78521 3.67728 0
M  V30 3908 H 380.007 -2.56351 3.49952 0
M  V30 3909 H 380.678 -4.19489 3.58794 0
M  V30 3910 H 383.154 -3.7967 1.70265 0
M  V30 3911 H 382.03 -5.17374 1.83346 0
M  V30 3912 H 382.291 -4.41262 0.272027 0
M  V30 3913 N 381.35 -0.985608 -1.22978 0
M  V30 3914 C 382.761 -0.693593 -1.73338 0
M  V30 3915 C 383.112 0.789935 -1.79595 0
M  V30 3916 O 382.237 1.61771 -1.43733 0
M  V30 3917 C 382.832 -1.25235 -3.14804 0
M  V30 3918 C 381.391 -1.00987 -3.626 0
M  V30 3919 C 380.538 -1.37695 -2.40698 0
M  V30 3920 H 383.489 -1.15884 -1.08428 0
M  V30 3921 H 383.51 -0.627329 -3.75293 0
M  V30 3922 H 383.022 -2.33209 -3.10218 0
M  V30 3923 H 381.123 0.0535565 -3.72562 0
M  V30 3924 H 381.236 -1.66812 -4.49122 0
M  V30 3925 H 379.6 -0.795459 -2.4196 0
M  V30 3926 H 380.383 -2.46657 -2.38779 0
M  V30 3927 N 382.828 1.3818 -0.7579 0
M  V30 3928 C 384.053 2.04827 -0.325679 0
M  V30 3929 C 384.478 1.56788 1.03919 0
M  V30 3930 O 383.836 0.721811 1.66312 0
M  V30 3931 C 383.884 3.58774 -0.362447 0
M  V30 3932 O 382.988 4.07372 0.642033 0
M  V30 3933 H 382.329 0.64833 -0.143402 0
M  V30 3934 H 384.859 1.7677 -1.03023 0
M  V30 3935 H 384.869 4.07434 -0.214844 0
M  V30 3936 H 383.544 3.93096 -1.35824 0
M  V30 3937 H 382.121 3.70068 0.458688 0
M  V30 3938 N 384.306 0.507319 1.49211 0
M  V30 3939 C 385.546 -0.0332372 2.04373 0
M  V30 3940 C 385.91 -1.33694 1.37804 0
M  V30 3941 O 387.111 -1.96213 1.83722 0
M  V30 3942 C 385.382 -0.17599 3.56966 0
M  V30 3943 S 386.941 -0.669882 4.33657 0
M  V30 3944 H 383.759 0.00123603 0.710999 0
M  V30 3945 H 386.361 0.682725 1.83191 0
M  V30 3946 H 385.065 0.778053 4.02957 0
M  V30 3947 H 384.596 -0.917005 3.82563 0
M  V30 3948 H 386.611 -1.93806 4.56786 0
M  V30 3949 N 385.784 -1.5574 0.241426 0
M  V30 3950 C 387.009 -2.0366 -0.392111 0
M  V30 3951 C 387.434 -1.11969 -1.51144 0
M  V30 3952 O 386.792 -0.111594 -1.80956 0
M  V30 3953 C 386.84 -3.49638 -0.882371 0
M  V30 3954 O 385.944 -3.6108 -1.99235 0
M  V30 3955 H 385.285 -0.658379 -0.0862122 0
M  V30 3956 H 387.815 -2.01302 0.365881 0
M  V30 3957 H 387.825 -3.90351 -1.18702 0
M  V30 3958 H 386.5 -4.15852 -0.0632361 0
M  V30 3959 H 385.077 -3.32262 -1.69282 0
M  V30 3960 N 387.262 0.0317525 -1.57568 0
M  V30 3961 C 388.49 0.734949 -1.93407 0
M  V30 3962 C 388.905 1.69036 -0.84096 0
M  V30 3963 O 388.262 1.81582 0.182836 0
M  V30 3964 C 388.313 1.49432 -3.29169 0
M  V30 3965 O 388.034 0.577261 -4.3428 0
M  V30 3966 C 389.535 2.29492 -3.79273 0
M  V30 3967 H 386.755 0.206706 -0.638368 0
M  V30 3968 H 389.299 -0.00992046 -2.04498 0
M  V30 3969 H 387.454 2.1911 -3.19483 0
M  V30 3970 H 387.868 1.10952 -5.1263 0
M  V30 3971 H 389.342 2.78172 -4.76785 0
M  V30 3972 H 389.819 3.10794 -3.10328 0
M  V30 3973 H 390.425 1.64894 -3.92033 0
M  V30 3974 N 388.74 1.54641 0.303973 0
M  V30 3975 C 389.98 1.75516 1.04755 0
M  V30 3976 C 390.344 0.528211 1.84591 0
M  V30 3977 O 391.545 0.614645 2.61678 0
M  V30 3978 C 389.816 3.00685 1.93193 0
M  V30 3979 S 391.375 3.42549 2.74237 0
M  V30 3980 H 388.193 0.616987 0.353339 0
M  V30 3981 H 390.795 1.92842 0.321292 0
M  V30 3982 H 389.499 3.8811 1.33411 0
M  V30 3983 H 389.03 2.85937 2.70191 0
M  V30 3984 H 391.045 2.99386 3.95705 0
M  V30 3985 N 390.218 -0.567019 1.47046 0
M  V30 3986 C 391.466 -1.322 1.52864 0
M  V30 3987 C 391.787 -1.94088 0.188388 0
M  V30 3988 O 391.057 -1.7941 -0.786693 0
M  V30 3989 H 389.637 -0.490894 0.563056 0
M  V30 3990 H 392.299 -0.662879 1.83281 0
M  V30 3991 H 391.395 -2.12062 2.2899 0
M  V30 3992 N 391.696 -1.35014 -0.812953 0
M  V30 3993 C 392.626 -1.30069 -1.93919 0
M  V30 3994 C 393.607 -0.176275 -1.69184 0
M  V30 3995 O 394.792 -0.370227 -1.90638 0
M  V30 3996 C 391.922 -1.06547 -3.30552 0
M  V30 3997 C 390.876 -2.15561 -3.69753 0
M  V30 3998 C 390.202 -1.77214 -5.04479 0
M  V30 3999 C 391.502 -3.57476 -3.808 0
M  V30 4000 H 393.196 -2.24303 -1.98314 0
M  V30 4001 H 390.742 -1.07977 -0.952736 0
M  V30 4002 H 392.695 -1.01729 -4.08937 0
M  V30 4003 H 391.419 -0.0875719 -3.26483 0
M  V30 4004 H 390.078 -2.19466 -2.9365 0
M  V30 4005 H 389.726 -0.780589 -4.96906 0
M  V30 4006 H 389.426 -2.50184 -5.31678 0
M  V30 4007 H 390.95 -1.7391 -5.8531 0
M  V30 4008 H 392.364 -3.55929 -4.4943 0
M  V30 4009 H 390.761 -4.29152 -4.19462 0
M  V30 4010 H 391.831 -3.94091 -2.82525 0
M  V30 4011 N 393.175 1.03435 -1.18907 0
M  V30 4012 C 394.591 1.28973 -0.940111 0
M  V30 4013 C 394.791 1.97676 0.390691 0
M  V30 4014 O 393.847 2.26127 1.12352 0
M  V30 4015 C 395.16 2.14221 -2.11021 0
M  V30 4016 C 396.708 2.27547 -2.14922 0
M  V30 4017 C 397.183 3.16164 -3.31367 0
M  V30 4018 N 398.674 3.23752 -3.31269 0
M  V30 4019 C 399.409 3.92495 -4.18014 0
M  V30 4020 N 398.905 4.63515 -5.14904 0
M  V30 4021 N 400.698 3.88838 -4.05908 0
M  V30 4022 H 392.849 0.57252 -2.04538 0
M  V30 4023 H 395.112 0.315184 -0.894071 0
M  V30 4024 H 394.818 1.71054 -3.073 0
M  V30 4025 H 394.692 3.14919 -2.0762 0
M  V30 4026 H 397.079 2.69947 -1.19217 0
M  V30 4027 H 397.16 1.26418 -2.22378 0
M  V30 4028 H 396.804 2.74474 -4.27348 0
M  V30 4029 H 396.734 4.17339 -3.21148 0
M  V30 4030 H 399.225 2.73167 -2.61129 0
M  V30 4031 H 399.538 5.13583 -5.77453 0
M  V30 4032 H 397.883 4.62398 -5.18857 0
M  V30 4033 H 401.074 3.32491 -3.29495 0
M  V30 4034 H 401.247 4.4214 -4.73726 0
M  V30 4035 N 394.653 0.992116 1.22453 0
M  V30 4036 C 395.585 0.500024 2.23679 0
M  V30 4037 C 396.598 -0.404463 1.57696 0
M  V30 4038 O 397.787 -0.206722 1.77299 0
M  V30 4039 C 394.887 -0.294711 3.37616 0
M  V30 4040 C 394.06 0.605723 4.33186 0
M  V30 4041 C 393.119 -0.13717 5.26021 0
M  V30 4042 O 392.145 0.477164 5.67196 0
M  V30 4043 N 393.347 -1.4197 5.62872 0
M  V30 4044 H 396.112 1.37045 2.66531 0
M  V30 4045 H 393.673 0.866741 1.36745 0
M  V30 4046 H 395.665 -0.800329 3.96707 0
M  V30 4047 H 394.235 -1.06623 2.93854 0
M  V30 4048 H 393.455 1.29202 3.72425 0
M  V30 4049 H 394.743 1.21896 4.93983 0
M  V30 4050 H 394.141 -1.94015 5.31389 0
M  V30 4051 H 392.698 -1.87052 6.24383 0
M  V30 4052 N 396.131 -1.37776 0.765217 0
M  V30 4053 C 397.361 -2.03828 0.337277 0
M  V30 4054 C 397.769 -1.57841 -1.04321 0
M  V30 4055 O 397.112 -0.752043 -1.67601 0
M  V30 4056 C 397.174 -3.58292 0.294407 0
M  V30 4057 C 396.838 -4.27384 1.61838 0
M  V30 4058 C 397.835 -4.51956 2.56967 0
M  V30 4059 C 395.52 -4.65345 1.89102 0
M  V30 4060 C 397.514 -5.13536 3.77571 0
M  V30 4061 C 395.201 -5.26647 3.09978 0
M  V30 4062 C 396.199 -5.50679 4.04032 0
M  V30 4063 O 395.887 -6.10702 5.2278 0
M  V30 4064 H 395.619 -0.661292 0.140248 0
M  V30 4065 H 398.173 -1.77222 1.03834 0
M  V30 4066 H 396.403 -3.83918 -0.462983 0
M  V30 4067 H 398.092 -4.05763 -0.105581 0
M  V30 4068 H 398.858 -4.23048 2.37183 0
M  V30 4069 H 394.737 -4.45978 1.16725 0
M  V30 4070 H 398.281 -5.3221 4.50997 0
M  V30 4071 H 394.178 -5.54979 3.29649 0
M  V30 4072 H 394.946 -6.29183 5.23517 0
M  V30 4073 N 397.609 -0.515225 -1.4894 0
M  V30 4074 C 398.834 0.022727 -2.07388 0
M  V30 4075 C 399.259 1.2876 -1.37122 0
M  V30 4076 O 398.617 1.76067 -0.432431 0
M  V30 4077 C 398.665 0.244869 -3.59768 0
M  V30 4078 O 397.769 1.31667 -3.90817 0
M  V30 4079 H 397.11 -0.0325506 -0.663202 0
M  V30 4080 H 399.64 -0.718918 -1.91553 0
M  V30 4081 H 399.65 0.47205 -4.0526 0
M  V30 4082 H 398.325 -0.679194 -4.10317 0
M  V30 4083 H 396.902 1.07331 -3.5712 0
M  V30 4084 N 399.087 1.5561 -0.249682 0
M  V30 4085 C 400.019 2.18834 0.681496 0
M  V30 4086 C 401.032 1.16546 1.1367 0
M  V30 4087 O 402.221 1.43397 1.06299 0
M  V30 4088 C 399.321 2.77992 1.9384 0
M  V30 4089 C 398.494 4.05725 1.63419 0
M  V30 4090 C 397.553 4.49174 2.74096 0
M  V30 4091 O 396.579 5.15492 2.41364 0
M  V30 4092 N 397.781 4.17191 4.03649 0
M  V30 4093 H 400.546 2.9937 0.140514 0
M  V30 4094 H 398.107 1.6175 -0.0697541 0
M  V30 4095 H 400.099 3.04015 2.67127 0
M  V30 4096 H 398.669 2.01596 2.38909 0
M  V30 4097 H 397.889 3.87261 0.736358 0
M  V30 4098 H 399.177 4.88999 1.40562 0
M  V30 4099 H 398.575 3.63955 4.33074 0
M  V30 4100 H 397.132 4.48043 4.73393 0
M  V30 4101 N 400.565 -0.0233959 1.57583 0
M  V30 4102 C 401.976 -0.56927 1.77809 0
M  V30 4103 C 402.327 -1.75284 0.881472 0
M  V30 4104 O 401.452 -2.1626 0.0777805 0
M  V30 4105 C 402.047 -1.03949 3.22459 0
M  V30 4106 C 400.606 -1.53084 3.43864 0
M  V30 4107 C 399.753 -0.471454 2.73263 0
M  V30 4108 H 402.704 0.202825 1.57399 0
M  V30 4109 H 402.725 -1.90661 3.29285 0
M  V30 4110 H 402.237 -0.177865 3.87692 0
M  V30 4111 H 400.338 -2.41414 2.83814 0
M  V30 4112 H 400.451 -1.57443 4.52491 0
M  V30 4113 H 398.815 -0.927788 2.37201 0
M  V30 4114 H 399.598 0.380808 3.41181 0
M  V30 4115 N 402.043 -1.548 -0.295768 0
M  V30 4116 C 402.975 -1.82492 -1.3867 0
M  V30 4117 C 403.988 -0.708134 -1.46592 0
M  V30 4118 O 405.177 -0.985686 -1.48817 0
M  V30 4119 C 402.277 -1.95256 -2.76999 0
M  V30 4120 C 401.45 -3.25709 -2.91946 0
M  V30 4121 C 400.509 -3.28824 -4.10806 0
M  V30 4122 O 399.535 -4.02328 -4.02643 0
M  V30 4123 N 400.737 -2.5459 -5.21694 0
M  V30 4124 H 403.502 -2.76646 -1.15269 0
M  V30 4125 H 401.063 -1.54438 -0.485849 0
M  V30 4126 H 403.055 -1.94736 -3.54768 0
M  V30 4127 H 401.625 -1.08072 -2.93324 0
M  V30 4128 H 400.845 -3.38959 -2.01247 0
M  V30 4129 H 402.133 -4.11786 -2.98847 0
M  V30 4130 H 401.531 -1.94512 -5.31208 0
M  V30 4131 H 400.088 -2.59818 -5.97778 0
M  V30 4132 N 403.521 0.559213 -1.47345 0
M  V30 4133 C 404.768 1.31648 -1.53867 0
M  V30 4134 C 405.096 1.93468 -0.200104 0
M  V30 4135 O 404.351 1.78295 0.806799 0
M  V30 4136 C 404.65 2.44853 -2.6035 0
M  V30 4137 C 404.316 2.00876 -4.03683 0
M  V30 4138 C 402.978 1.88599 -4.42701 0
M  V30 4139 C 405.33 1.67279 -4.93626 0
M  V30 4140 C 402.658 1.41017 -5.69501 0
M  V30 4141 C 405.01 1.21169 -6.20887 0
M  V30 4142 C 403.674 1.07487 -6.58789 0
M  V30 4143 H 402.944 0.481734 -0.56304 0
M  V30 4144 H 405.591 0.627301 -1.80934 0
M  V30 4145 H 403.896 3.19318 -2.27032 0
M  V30 4146 H 405.593 3.03039 -2.62619 0
M  V30 4147 H 402.183 2.11374 -3.72853 0
M  V30 4148 H 406.367 1.75638 -4.64182 0
M  V30 4149 H 401.623 1.29086 -5.97618 0
M  V30 4150 H 405.797 0.942345 -6.89995 0
M  V30 4151 H 403.424 0.703946 -7.56934 0
M  V30 4152 N 404.999 1.35443 0.805782 0
M  V30 4153 C 406.415 1.15499 1.10146 0
M  V30 4154 C 406.615 -0.0319975 2.01475 0
M  V30 4155 O 405.671 -0.70236 2.42535 0
M  V30 4156 C 406.984 2.45833 1.73166 0
M  V30 4157 C 408.532 2.52047 1.85583 0
M  V30 4158 C 409.007 3.82427 2.52019 0
M  V30 4159 N 410.498 3.83682 2.59504 0
M  V30 4160 C 411.233 4.81294 3.11679 0
M  V30 4161 N 410.729 5.89294 3.64287 0
M  V30 4162 N 412.522 4.6873 3.1024 0
M  V30 4163 H 404.673 2.11469 0.198678 0
M  V30 4164 H 406.936 0.93594 0.150731 0
M  V30 4165 H 406.642 3.32874 1.13526 0
M  V30 4166 H 406.516 2.6044 2.72857 0
M  V30 4167 H 408.903 1.65435 2.44367 0
M  V30 4168 H 408.984 2.41354 0.847455 0
M  V30 4169 H 408.628 4.69437 1.93885 0
M  V30 4170 H 408.558 3.90409 3.53395 0
M  V30 4171 H 411.049 3.05648 2.22234 0
M  V30 4172 H 411.362 6.59768 4.02401 0
M  V30 4173 H 409.707 5.92985 3.62483 0
M  V30 4174 H 412.898 3.83496 2.68419 0
M  V30 4175 H 413.071 5.44965 3.50596 0
M  V30 4176 N 406.477 -1.02803 1.19454 0
M  V30 4177 C 407.726 -1.7562 0.991996 0
M  V30 4178 C 408.039 -1.89672 -0.477901 0
M  V30 4179 O 409.245 -2.59468 -0.799287 0
M  V30 4180 C 407.701 -3.15812 1.72601 0
M  V30 4181 C 407.309 -3.0981 3.23607 0
M  V30 4182 C 409.053 -3.92918 1.60674 0
M  V30 4183 C 406.96 -4.44939 3.89594 0
M  V30 4184 H 405.89 -0.658352 0.367543 0
M  V30 4185 H 408.541 -1.15044 1.42959 0
M  V30 4186 H 406.923 -3.7686 1.21624 0
M  V30 4187 H 408.097 -2.58138 3.81709 0
M  V30 4188 H 406.412 -2.46201 3.35819 0
M  V30 4189 H 409.009 -4.9287 2.07323 0
M  V30 4190 H 409.352 -4.12502 0.561025 0
M  V30 4191 H 409.885 -3.38472 2.09001 0
M  V30 4192 H 406.624 -4.30559 4.94267 0
M  V30 4193 H 406.144 -4.96664 3.36281 0
M  V30 4194 H 407.823 -5.1382 3.93189 0
M  V30 4195 N 407.956 -0.998596 -1.21925 0
M  V30 4196 C 408.903 -0.553621 -2.24062 0
M  V30 4197 C 409.873 0.416999 -1.6078 0
M  V30 4198 O 411.058 0.320482 -1.88089 0
M  V30 4199 C 408.198 0.119959 -3.44891 0
M  V30 4200 C 407.311 -0.893077 -4.22668 0
M  V30 4201 C 406.446 -0.192424 -5.30851 0
M  V30 4202 C 405.485 -1.19344 -6.00353 0
M  V30 4203 N 404.622 -0.520707 -7.00166 0
M  V30 4204 H 409.462 -1.4293 -2.61486 0
M  V30 4205 H 406.999 -0.715838 -1.28507 0
M  V30 4206 H 408.957 0.527459 -4.13852 0
M  V30 4207 H 407.587 0.959389 -3.08214 0
M  V30 4208 H 406.639 -1.41886 -3.52948 0
M  V30 4209 H 407.951 -1.65512 -4.70539 0
M  V30 4210 H 407.105 0.271515 -6.06092 0
M  V30 4211 H 405.844 0.602075 -4.83969 0
M  V30 4212 H 404.849 -1.66795 -5.23889 0
M  V30 4213 H 406.074 -1.98891 -6.49322 0
M  V30 4214 H 404.02 0.254252 -6.55507 0
M  V30 4215 H 403.937 -1.2211 -7.46073 0
M  V30 4216 H 405.205 -0.0797596 -7.79459 0
M  V30 4217 N 409.434 1.37368 -0.772513 0
M  V30 4218 C 410.682 1.99279 -0.336516 0
M  V30 4219 C 411.003 1.6163 1.09091 0
M  V30 4220 O 410.273 0.882109 1.74916 0
M  V30 4221 H 408.853 0.737063 -0.121435 0
M  V30 4222 H 411.515 1.67836 -0.990809 0
M  V30 4223 H 410.611 3.09332 -0.414763 0
M  V30 4224 N 410.912 0.523116 1.48665 0
M  V30 4225 C 412.16 -0.0134497 2.02096 0
M  V30 4226 C 412.481 -1.35418 1.40311 0
M  V30 4227 O 411.751 -1.87543 0.566074 0
M  V30 4228 H 410.331 -0.00795915 0.746958 0
M  V30 4229 H 412.993 0.685388 1.82451 0
M  V30 4230 H 412.089 -0.126849 3.11842 0
M  V30 4231 N 412.39 -1.55475 0.257931 0
M  V30 4232 C 413.32 -2.24815 -0.630912 0
M  V30 4233 C 414.301 -1.23224 -1.17259 0
M  V30 4234 O 415.486 -1.51904 -1.20991 0
M  V30 4235 C 412.616 -2.95609 -1.82298 0
M  V30 4236 C 411.57 -4.03982 -1.41359 0
M  V30 4237 C 410.896 -4.6226 -2.68738 0
M  V30 4238 C 412.196 -5.19109 -0.57648 0
M  V30 4239 H 413.89 -2.99354 -0.0526878 0
M  V30 4240 H 411.436 -1.4398 -0.023901 0
M  V30 4241 H 413.389 -3.42822 -2.45054 0
M  V30 4242 H 412.113 -2.18577 -2.42676 0
M  V30 4243 H 410.772 -3.57555 -0.809324 0
M  V30 4244 H 410.42 -3.81915 -3.27338 0
M  V30 4245 H 410.12 -5.35424 -2.42065 0
M  V30 4246 H 411.644 -5.12212 -3.32372 0
M  V30 4247 H 413.058 -5.62479 -1.10861 0
M  V30 4248 H 411.455 -5.98729 -0.405351 0
M  V30 4249 H 412.525 -4.83174 0.408776 0
M  V30 4250 N 413.868 0.0150385 -1.57593 0
M  V30 4251 C 415.115 0.703001 -1.89906 0
M  V30 4252 C 415.443 1.74604 -0.856944 0
M  V30 4253 O 414.698 1.95197 0.140287 0
M  V30 4254 C 414.997 1.39686 -3.28972 0
M  V30 4255 C 414.663 0.488457 -4.48246 0
M  V30 4256 C 413.325 0.2383 -4.8061 0
M  V30 4257 C 415.677 -0.137881 -5.21018 0
M  V30 4258 C 413.005 -0.646738 -5.83125 0
M  V30 4259 C 415.357 -1.0107 -6.24474 0
M  V30 4260 C 414.021 -1.27019 -6.55303 0
M  V30 4261 H 413.291 0.257246 -0.694914 0
M  V30 4262 H 415.938 -0.037259 -1.91464 0
M  V30 4263 H 414.243 2.21079 -3.23468 0
M  V30 4264 H 415.94 1.93495 -3.51227 0
M  V30 4265 H 412.53 0.693593 -4.22951 0
M  V30 4266 H 416.714 0.0423953 -4.96282 0
M  V30 4267 H 411.97 -0.855937 -6.05379 0
M  V30 4268 H 416.144 -1.50247 -6.79999 0
M  V30 4269 H 413.771 -1.95769 -7.3456 0
M  V30 4270 N 415.346 1.54954 0.287554 0
M  V30 4271 C 416.309 1.86076 1.33823 0
M  V30 4272 C 417.309 0.734414 1.43049 0
M  V30 4273 O 418.499 1.00266 1.42452 0
M  V30 4274 C 415.631 2.05305 2.72144 0
M  V30 4275 H 416.824 2.79984 1.07465 0
M  V30 4276 H 414.377 1.47223 0.524902 0
M  V30 4277 H 415.112 1.1373 3.03704 0
M  V30 4278 H 414.897 2.873 2.66836 0
M  V30 4279 H 416.387 2.30706 3.48087 0
M  V30 4280 N 416.824 -0.551391 1.4764 0
M  V30 4281 C 418.101 -1.31229 1.45046 0
M  V30 4282 C 418.481 -2.10563 0.150527 0
M  V30 4283 O 417.829 -2.11374 -0.867956 0
M  V30 4284 C 418.039 -2.21189 2.69956 0
M  V30 4285 C 419.387 -2.82021 3.1741 0
M  V30 4286 O 420.411 -2.31488 2.70724 0
M  V30 4287 O 419.27 -3.73885 3.98588 0
M  V30 4288 H 416.364 -0.591193 0.578291 0
M  V30 4289 H 418.91 -0.569813 1.59847 0
M  V30 4290 H 417.682 -1.62207 3.56096 0
M  V30 4291 H 417.305 -3.02722 2.57769 0
M  V30 4292 N 418.302 -1.35869 -0.798587 0
M  V30 4293 C 419.551 -1.28921 -1.5512 0
M  V30 4294 C 419.864 0.13208 -1.95154 0
M  V30 4295 O 421.07 0.323879 -2.69561 0
M  V30 4296 C 419.526 -2.26141 -2.79979 0
M  V30 4297 C 419.134 -3.73658 -2.47151 0
M  V30 4298 C 420.878 -2.28152 -3.57976 0
M  V30 4299 C 418.785 -4.62679 -3.6835 0
M  V30 4300 H 417.715 -0.479031 -0.582276 0
M  V30 4301 H 420.366 -1.61179 -0.877125 0
M  V30 4302 H 418.748 -1.86865 -3.49138 0
M  V30 4303 H 419.922 -4.21616 -1.85947 0
M  V30 4304 H 418.237 -3.74333 -1.82383 0
M  V30 4305 H 420.834 -2.91875 -4.4801 0
M  V30 4306 H 421.177 -1.28748 -3.95891 0
M  V30 4307 H 421.71 -2.65998 -2.95787 0
M  V30 4308 H 418.449 -5.63111 -3.35538 0
M  V30 4309 H 417.969 -4.19442 -4.28752 0
M  V30 4310 H 419.648 -4.78498 -4.35487 0
M  V30 4311 N 419.78 1.02168 -1.19998 0
M  V30 4312 C 420.743 2.08765 -0.94604 0
M  V30 4313 C 421.743 1.60618 0.0763846 0
M  V30 4314 O 422.933 1.73472 -0.159135 0
M  V30 4315 C 420.065 3.38262 -0.423255 0
M  V30 4316 H 421.258 2.32726 -1.89153 0
M  V30 4317 H 418.811 1.1889 -1.01464 0
M  V30 4318 H 419.546 3.19974 0.527938 0
M  V30 4319 H 419.331 3.74532 -1.16053 0
M  V30 4320 H 420.821 4.16759 -0.264911 0
M  V30 4321 N 421.258 1.00505 1.21394 0
M  V30 4322 C 422.483 0.706367 1.95001 0
M  V30 4323 C 422.908 -0.72463 1.73582 0
M  V30 4324 O 422.266 -1.49702 1.0227 0
M  V30 4325 C 422.314 1.03299 3.45487 0
M  V30 4326 O 421.418 0.138275 4.12168 0
M  V30 4327 H 420.759 0.263175 0.609619 0
M  V30 4328 H 423.289 1.34531 1.54151 0
M  V30 4329 H 423.299 0.979872 3.96059 0
M  V30 4330 H 421.974 2.07567 3.60401 0
M  V30 4331 H 420.551 0.247928 3.72075 0
M  V30 4332 N 422.737 -1.36956 0.779787 0
M  V30 4333 C 423.687 -2.27539 0.144892 0
M  V30 4334 C 424.671 -1.46493 -0.665488 0
M  V30 4335 O 425.863 -1.68968 -0.527141 0
M  V30 4336 C 422.992 -3.35512 -0.727082 0
M  V30 4337 C 422.078 -4.24001 0.0915642 0
M  V30 4338 N 422.469 -4.92757 1.14125 0
M  V30 4339 C 420.767 -4.45807 -0.131141 0
M  V30 4340 C 421.468 -5.58138 1.6388 0
M  V30 4341 N 420.444 -5.35241 0.94962 0
M  V30 4342 H 424.246 -2.78176 0.948446 0
M  V30 4343 H 421.76 -1.50169 0.618315 0
M  V30 4344 H 423.757 -3.99324 -1.19776 0
M  V30 4345 H 422.417 -2.86431 -1.52929 0
M  V30 4346 H 423.428 -4.94984 1.52353 0
M  V30 4347 H 420.105 -4.07582 -0.904621 0
M  V30 4348 H 421.495 -6.23071 2.51461 0
M  V30 4349 N 424.215 -0.530993 -1.48385 0
M  V30 4350 C 425.626 -0.0907905 -1.86479 0
M  V30 4351 C 425.977 1.33213 -1.44044 0
M  V30 4352 O 425.102 1.99783 -0.831615 0
M  V30 4353 C 425.697 -0.157987 -3.38431 0
M  V30 4354 C 424.256 0.227026 -3.75715 0
M  V30 4355 C 423.403 -0.5173 -2.72432 0
M  V30 4356 H 426.354 -0.742186 -1.40276 0
M  V30 4357 H 426.375 0.630053 -3.75247 0
M  V30 4358 H 425.887 -1.19372 -3.69286 0
M  V30 4359 H 423.988 1.26486 -3.50474 0
M  V30 4360 H 424.101 -0.113288 -4.78966 0
M  V30 4361 H 422.465 0.0365527 -2.54674 0
M  V30 4362 H 423.248 -1.55368 -3.0613 0
M  V30 4363 N 425.693 1.55336 -0.266172 0
M  V30 4364 C 426.939 2.00423 0.346714 0
M  V30 4365 C 427.294 1.15132 1.54151 0
M  V30 4366 O 426.587 0.211289 1.90431 0
M  V30 4367 C 426.781 3.48606 0.787957 0
M  V30 4368 C 426.61 4.48236 -0.362535 0
M  V30 4369 C 425.38 4.98211 -0.843445 0
M  V30 4370 C 427.578 5.00199 -1.19603 0
M  V30 4371 N 425.56 5.81625 -1.96434 0
M  V30 4372 C 426.931 5.80973 -2.16497 0
M  V30 4373 C 428.986 4.82458 -1.2304 0
M  V30 4374 C 427.689 6.45896 -3.1656 0
M  V30 4375 C 429.715 5.48174 -2.21944 0
M  V30 4376 C 429.077 6.28751 -3.17571 0
M  V30 4377 H 425.176 0.776535 0.0922914 0
M  V30 4378 H 427.76 1.90792 -0.388154 0
M  V30 4379 H 425.931 3.58597 1.49207 0
M  V30 4380 H 427.663 3.80538 1.37742 0
M  V30 4381 H 424.418 4.71696 -0.424271 0
M  V30 4382 H 424.842 6.28025 -2.52813 0
M  V30 4383 H 429.484 4.19774 -0.504903 0
M  V30 4384 H 427.202 7.07734 -3.90048 0
M  V30 4385 H 430.788 5.36392 -2.25333 0
M  V30 4386 H 429.668 6.78703 -3.92851 0
M  V30 4387 N 427.171 -0.0066808 1.57599 0
M  V30 4388 C 428.103 -1.02827 2.04839 0
M  V30 4389 C 429.116 -1.31108 0.965113 0
M  V30 4390 O 430.305 -1.28202 1.24203 0
M  V30 4391 C 427.405 -2.36464 2.42771 0
M  V30 4392 C 426.578 -2.27219 3.73751 0
M  V30 4393 C 425.637 -3.43489 3.98625 0
M  V30 4394 O 424.663 -3.21976 4.69382 0
M  V30 4395 N 425.865 -4.66116 3.46 0
M  V30 4396 H 428.63 -0.625455 2.93101 0
M  V30 4397 H 426.191 -0.194198 1.60731 0
M  V30 4398 H 428.183 -3.13008 2.56531 0
M  V30 4399 H 426.753 -2.68512 1.60063 0
M  V30 4400 H 425.973 -1.35629 3.70133 0
M  V30 4401 H 427.261 -2.18208 4.59633 0
M  V30 4402 H 426.659 -4.86493 2.88688 0
M  V30 4403 H 425.216 -5.39949 3.65101 0
M  V30 4404 N 428.649 -1.55105 -0.279332 0
M  V30 4405 C 429.612 -1.86783 -1.32834 0
M  V30 4406 C 430.612 -0.74199 -1.42657 0
M  V30 4407 O 431.802 -1.0102 -1.41918 0
M  V30 4408 C 428.934 -2.06746 -2.71052 0
M  V30 4409 H 430.127 -2.8055 -1.05979 0
M  V30 4410 H 427.68 -1.47499 -0.517087 0
M  V30 4411 H 428.415 -1.15339 -3.03097 0
M  V30 4412 H 428.2 -2.88711 -2.65309 0
M  V30 4413 H 429.69 -2.32549 -3.46858 0
M  V30 4414 N 430.127 0.543554 -1.4793 0
M  V30 4415 C 431.09 1.63156 -1.60975 0
M  V30 4416 C 432.09 1.53346 -0.483899 0
M  V30 4417 O 433.28 1.5726 -0.749339 0
M  V30 4418 C 430.412 3.02743 -1.56716 0
M  V30 4419 H 431.605 1.52934 -2.57975 0
M  V30 4420 H 429.158 0.764557 -1.36324 0
M  V30 4421 H 429.893 3.18484 -0.611418 0
M  V30 4422 H 429.678 3.11272 -2.38438 0
M  V30 4423 H 431.168 3.81871 -1.6901 0
M  V30 4424 N 431.605 1.3629 0.791371 0
M  V30 4425 C 432.854 1.29742 1.54434 0
M  V30 4426 C 433.167 -0.121729 1.95221 0
M  V30 4427 O 434.373 -0.309579 2.69729 0
M  V30 4428 C 432.829 2.27623 2.78776 0
M  V30 4429 C 432.437 3.74963 2.45166 0
M  V30 4430 C 434.181 2.30047 3.56761 0
M  V30 4431 C 432.088 4.64626 3.65891 0
M  V30 4432 H 431.018 0.482113 0.579727 0
M  V30 4433 H 433.669 1.61642 0.868565 0
M  V30 4434 H 432.051 1.88714 3.48142 0
M  V30 4435 H 433.225 4.22596 1.83709 0
M  V30 4436 H 431.54 3.75295 1.80396 0
M  V30 4437 H 434.137 2.94247 4.46456 0
M  V30 4438 H 434.48 1.30846 3.95203 0
M  V30 4439 H 435.013 2.67563 2.94372 0
M  V30 4440 H 431.752 5.64883 3.32547 0
M  V30 4441 H 431.272 4.2171 4.26521 0
M  V30 4442 H 432.951 4.80801 4.32943 0
M  V30 4443 N 433.083 -1.0153 1.20538 0
M  V30 4444 C 434.33 -1.75149 1.01633 0
M  V30 4445 C 434.658 -1.89189 -0.451399 0
M  V30 4446 O 433.913 -1.41551 -1.35136 0
M  V30 4447 C 434.212 -3.17213 1.64654 0
M  V30 4448 C 433.878 -3.23146 3.14464 0
M  V30 4449 C 432.54 -3.24472 3.55347 0
M  V30 4450 C 434.892 -3.21207 4.10458 0
M  V30 4451 C 432.22 -3.21532 4.90748 0
M  V30 4452 C 434.572 -3.19808 5.45807 0
M  V30 4453 C 433.236 -3.19439 5.86102 0
M  V30 4454 H 432.506 -0.640914 0.3719 0
M  V30 4455 H 435.153 -1.19071 1.49981 0
M  V30 4456 H 433.458 -3.76457 1.08571 0
M  V30 4457 H 435.155 -3.72871 1.4754 0
M  V30 4458 H 431.745 -3.2285 2.81897 0
M  V30 4459 H 435.929 -3.19351 3.79906 0
M  V30 4460 H 431.185 -3.19578 5.21229 0
M  V30 4461 H 435.359 -3.1726 6.19935 0
M  V30 4462 H 432.986 -3.16915 6.90991 0
M  V30 4463 N 434.561 -1.01147 -1.20859 0
M  V30 4464 C 435.524 -0.582224 -2.21682 0
M  V30 4465 C 436.524 0.344887 -1.57058 0
M  V30 4466 O 437.714 0.134281 -1.73682 0
M  V30 4467 C 434.846 0.150496 -3.40568 0
M  V30 4468 H 436.039 -1.47408 -2.61172 0
M  V30 4469 H 433.592 -0.800695 -1.34233 0
M  V30 4470 H 434.327 1.0575 -3.06574 0
M  V30 4471 H 434.112 -0.515444 -3.88697 0
M  V30 4472 H 435.602 0.438344 -4.15293 0
M  V30 4473 N 436.039 1.36541 -0.78704 0
M  V30 4474 C 436.986 2.30082 -0.181901 0
M  V30 4475 C 437.956 1.5186 0.672896 0
M  V30 4476 O 439.141 1.80374 0.622072 0
M  V30 4477 C 436.281 3.3835 0.679197 0
M  V30 4478 C 435.394 4.31565 -0.193882 0
M  V30 4479 C 434.529 5.26915 0.673364 0
M  V30 4480 C 433.568 6.11769 -0.201315 0
M  V30 4481 N 432.705 6.99315 0.624777 0
M  V30 4482 H 437.545 2.81248 -0.985064 0
M  V30 4483 H 435.082 1.38437 -0.497342 0
M  V30 4484 H 437.04 3.99767 1.19341 0
M  V30 4485 H 435.67 2.8851 1.44781 0
M  V30 4486 H 434.722 3.71323 -0.826044 0
M  V30 4487 H 436.034 4.91191 -0.867937 0
M  V30 4488 H 435.188 5.9361 1.25348 0
M  V30 4489 H 433.927 4.67737 1.38105 0
M  V30 4490 H 432.932 5.44039 -0.793849 0
M  V30 4491 H 434.157 6.73022 -0.906568 0
M  V30 4492 H 432.103 6.42648 1.3168 0
M  V30 4493 H 432.02 7.56 0.00835237 0
M  V30 4494 H 433.288 7.70382 1.18879 0
M  V30 4495 N 437.518 0.538854 1.48102 0
M  V30 4496 C 438.468 -0.23907 2.26743 0
M  V30 4497 C 439.452 -0.901923 1.33245 0
M  V30 4498 O 440.644 -0.803263 1.57723 0
M  V30 4499 C 437.773 -1.2799 3.18549 0
M  V30 4500 C 436.859 -0.621388 4.19523 0
M  V30 4501 N 437.25 0.298004 5.04921 0
M  V30 4502 C 435.548 -0.877533 4.37282 0
M  V30 4503 C 436.249 0.678757 5.77726 0
M  V30 4504 N 435.225 0.0377881 5.43587 0
M  V30 4505 H 439.027 0.468096 2.90148 0
M  V30 4506 H 436.541 0.357497 1.58416 0
M  V30 4507 H 438.538 -1.851 3.73555 0
M  V30 4508 H 437.198 -1.98835 2.567 0
M  V30 4509 H 438.209 0.671126 5.13533 0
M  V30 4510 H 434.886 -1.57588 3.86616 0
M  V30 4511 H 436.276 1.43316 6.56437 0
M  V30 4512 N 438.996 -1.55193 0.274407 0
M  V30 4513 C 440.412 -1.59401 -0.0797543 0
M  V30 4514 C 440.612 -1.29162 -1.54659 0
M  V30 4515 O 439.668 -1.05215 -2.29534 0
M  V30 4516 C 440.981 -2.99257 0.294238 0
M  V30 4517 C 442.529 -3.12072 0.240796 0
M  V30 4518 C 443.004 -4.54194 0.589218 0
M  V30 4519 N 444.495 -4.60033 0.540744 0
M  V30 4520 C 445.23 -5.68027 0.783147 0
M  V30 4521 N 444.726 -6.8417 1.09013 0
M  V30 4522 N 446.519 -5.57572 0.711993 0
M  V30 4523 H 438.67 -1.73113 1.23067 0
M  V30 4524 H 440.933 -0.807197 0.497129 0
M  V30 4525 H 440.639 -3.26217 1.31435 0
M  V30 4526 H 440.513 -3.75427 -0.365281 0
M  V30 4527 H 442.9 -2.84877 -0.770024 0
M  V30 4528 H 442.981 -2.38117 0.934563 0
M  V30 4529 H 442.625 -4.82115 1.59772 0
M  V30 4530 H 442.555 -5.26448 -0.126331 0
M  V30 4531 H 445.046 -3.76599 0.313327 0
M  V30 4532 H 445.359 -7.6243 1.26178 0
M  V30 4533 H 443.704 -6.85787 1.12789 0
M  V30 4534 H 446.895 -4.65714 0.472014 0
M  V30 4535 H 447.068 -6.41659 0.90429 0
M  V30 4536 N 440.474 -0.00167713 -1.576 0
M  V30 4537 C 441.89 0.354422 -1.55615 0
M  V30 4538 C 442.09 1.74679 -1.00447 0
M  V30 4539 O 441.146 2.4428 -0.639022 0
M  V30 4540 C 442.459 0.22812 -2.99833 0
M  V30 4541 C 444.007 0.302934 -3.11531 0
M  V30 4542 C 444.482 0.205737 -4.57538 0
M  V30 4543 N 445.973 0.263584 -4.62449 0
M  V30 4544 C 446.708 0.211742 -5.73009 0
M  V30 4545 N 446.204 0.110399 -6.92712 0
M  V30 4546 N 447.997 0.263729 -5.61481 0
M  V30 4547 H 440.148 -0.912498 -1.918 0
M  V30 4548 H 442.411 -0.349928 -0.881053 0
M  V30 4549 H 442.117 -0.729934 -3.44042 0
M  V30 4550 H 441.991 1.00951 -3.6344 0
M  V30 4551 H 444.378 1.25143 -2.67251 0
M  V30 4552 H 444.459 -0.508357 -2.50698 0
M  V30 4553 H 444.103 -0.739225 -5.02492 0
M  V30 4554 H 444.033 1.03554 -5.16318 0
M  V30 4555 H 446.524 0.343173 -3.76339 0
M  V30 4556 H 446.837 0.0767828 -7.72762 0
M  V30 4557 H 445.182 0.0760025 -6.94958 0
M  V30 4558 H 448.373 0.34111 -4.66855 0
M  V30 4559 H 448.546 0.219862 -6.47627 0
M  V30 4560 N 441.952 1.55251 0.271103 0
M  V30 4561 C 443.177 1.80306 1.02491 0
M  V30 4562 C 443.602 0.575457 1.79081 0
M  V30 4563 O 442.96 -0.474987 1.74967 0
M  V30 4564 C 443.008 3.02832 1.95768 0
M  V30 4565 O 442.112 2.78051 3.04568 0
M  V30 4566 H 441.453 0.595896 0.292923 0
M  V30 4567 H 443.983 2.02397 0.299436 0
M  V30 4568 H 443.993 3.31616 2.37686 0
M  V30 4569 H 442.668 3.9183 1.39434 0
M  V30 4570 H 441.245 2.60369 2.66951 0
M  V30 4571 N 443.43 -0.535701 1.48216 0
M  V30 4572 C 444.841 -1.11769 1.49548 0
M  V30 4573 C 445.192 -1.94442 0.26207 0
M  V30 4574 O 444.317 -2.06987 -0.631287 0
M  V30 4575 C 444.912 -2.03367 2.70975 0
M  V30 4576 C 443.471 -2.56795 2.75196 0
M  V30 4577 C 442.618 -1.33631 2.42977 0
M  V30 4578 H 445.569 -0.321232 1.55415 0
M  V30 4579 H 445.59 -2.87569 2.49167 0
M  V30 4580 H 445.102 -1.43169 3.60727 0
M  V30 4581 H 443.203 -3.20731 1.89638 0
M  V30 4582 H 443.316 -2.9632 3.76472 0
M  V30 4583 H 441.68 -1.6502 1.94012 0
M  V30 4584 H 442.463 -0.75194 3.34964 0
M  V30 4585 N 444.908 -1.36708 -0.784132 0
M  V30 4586 C 446.156 -1.30972 -1.53918 0
M  V30 4587 C 446.477 0.109086 -1.94695 0
M  V30 4588 O 445.747 1.05048 -1.65353 0
M  V30 4589 H 444.327 -0.481819 -0.570841 0
M  V30 4590 H 446.989 -1.71063 -0.934002 0
M  V30 4591 H 446.085 -1.94061 -2.44431 0
M  V30 4592 N 446.386 1.0089 -1.21074 0
M  V30 4593 C 447.296 2.13039 -0.982425 0
M  V30 4594 C 448.312 1.73881 0.0642161 0
M  V30 4595 O 449.488 2.01012 -0.12496 0
M  V30 4596 C 446.553 3.42377 -0.545803 0
M  V30 4597 C 445.614 3.95731 -1.6642 0
M  V30 4598 C 444.847 5.18896 -1.24832 0
M  V30 4599 O 445.07 5.70273 -0.120265 0
M  V30 4600 O 444.004 5.65597 -2.05873 0
M  V30 4601 H 447.83 2.35175 -1.92163 0
M  V30 4602 H 445.415 1.1142 -0.995285 0
M  V30 4603 H 447.297 4.20244 -0.311912 0
M  V30 4604 H 445.972 3.21639 0.364727 0
M  V30 4605 H 444.879 3.19108 -1.95246 0
M  V30 4606 H 446.212 4.20872 -2.55201 0
M  V30 4607 N 447.864 1.01787 1.20321 0
M  V30 4608 C 449.28 0.732951 1.41774 0
M  V30 4609 C 449.48 -0.686883 1.89431 0
M  V30 4610 O 448.536 -1.45446 2.06402 0
M  V30 4611 C 449.849 1.75973 2.43832 0
M  V30 4612 C 451.397 1.77802 2.57596 0
M  V30 4613 C 451.872 2.7941 3.62897 0
M  V30 4614 N 453.363 2.78157 3.70382 0
M  V30 4615 C 454.098 3.53434 4.51521 0
M  V30 4616 N 453.594 4.38392 5.36455 0
M  V30 4617 N 455.387 3.42026 4.46066 0
M  V30 4618 H 447.538 1.93447 0.877035 0
M  V30 4619 H 449.801 0.835712 0.447536 0
M  V30 4620 H 449.507 2.77699 2.15815 0
M  V30 4621 H 449.381 1.57292 3.4284 0
M  V30 4622 H 451.768 0.767602 2.84942 0
M  V30 4623 H 451.849 2.00557 1.58779 0
M  V30 4624 H 451.493 3.80616 3.36295 0
M  V30 4625 H 451.423 2.53916 4.61339 0
M  V30 4626 H 453.914 2.16531 3.09714 0
M  V30 4627 H 454.227 4.92596 5.95457 0
M  V30 4628 H 452.572 4.4247 5.35953 0
M  V30 4629 H 455.763 2.75075 3.78749 0
M  V30 4630 H 455.936 4.00946 5.09064 0
M  V30 4631 N 449.342 -1.36122 0.79427 0
M  V30 4632 C 450.589 -1.99111 0.368905 0
M  V30 4633 C 450.917 -1.63032 -1.0607 0
M  V30 4634 O 450.172 -0.879303 -1.74833 0
M  V30 4635 C 450.471 -3.5409 0.48527 0
M  V30 4636 C 450.137 -4.10003 1.87638 0
M  V30 4637 C 448.799 -4.24986 2.257 0
M  V30 4638 C 451.151 -4.40423 2.78706 0
M  V30 4639 C 448.479 -4.67701 3.54221 0
M  V30 4640 C 450.831 -4.84573 4.0666 0
M  V30 4641 C 449.495 -4.97761 4.44737 0
M  V30 4642 H 448.765 -0.7286 0.134992 0
M  V30 4643 H 451.412 -1.62534 1.01267 0
M  V30 4644 H 449.717 -3.91052 -0.241984 0
M  V30 4645 H 451.414 -4.00766 0.137109 0
M  V30 4646 H 448.004 -3.98784 1.57064 0
M  V30 4647 H 452.188 -4.28412 2.50553 0
M  V30 4648 H 447.444 -4.761 3.83587 0
M  V30 4649 H 451.618 -5.07074 4.77336 0
M  V30 4650 H 449.245 -5.30618 5.44379 0
M  V30 4651 N 450.82 -0.546701 -1.47814 0
M  V30 4652 C 451.75 0.195317 -2.32682 0
M  V30 4653 C 452.731 0.918981 -1.43139 0
M  V30 4654 O 453.916 0.901501 -1.72008 0
M  V30 4655 C 451.046 1.23237 -3.247 0
M  V30 4656 C 450 0.625818 -4.234 0
M  V30 4657 C 449.326 1.76674 -5.04669 0
M  V30 4658 C 450.626 -0.413515 -5.2066 0
M  V30 4659 H 452.32 -0.513184 -2.94969 0
M  V30 4660 H 449.866 -0.248241 -1.41844 0
M  V30 4661 H 451.819 1.75955 -3.82907 0
M  V30 4662 H 450.543 1.97067 -2.60446 0
M  V30 4663 H 449.202 0.120023 -3.66403 0
M  V30 4664 H 448.85 2.49383 -4.36826 0
M  V30 4665 H 448.55 1.36673 -5.71484 0
M  V30 4666 H 450.074 2.29738 -5.65732 0
M  V30 4667 H 451.488 0.0272042 -5.73294 0
M  V30 4668 H 449.885 -0.731825 -5.95621 0
M  V30 4669 H 450.955 -1.31325 -4.66778 0
M  V30 4670 N 452.299 1.55045 -0.282633 0
M  V30 4671 C 453.539 2.01668 0.333088 0
M  V30 4672 C 453.903 1.1667 1.52486 0
M  V30 4673 O 455.104 1.52907 2.21072 0
M  V30 4674 C 453.375 3.50509 0.698442 0
M  V30 4675 S 454.934 4.19112 1.29963 0
M  V30 4676 H 451.752 0.703468 0.103219 0
M  V30 4677 H 454.354 1.91233 -0.406222 0
M  V30 4678 H 453.058 4.10015 -0.177693 0
M  V30 4679 H 452.589 3.64943 1.46902 0
M  V30 4680 H 454.604 4.23362 2.58803 0
M  V30 4681 N 453.777 0.010035 1.57597 0
M  V30 4682 C 455.025 -0.671371 1.90623 0
M  V30 4683 C 455.346 -1.73753 0.885151 0
M  V30 4684 O 454.616 -1.95752 -0.0760611 0
M  V30 4685 H 453.196 -0.250968 0.703579 0
M  V30 4686 H 455.858 0.0533325 1.94827 0
M  V30 4687 H 454.954 -1.13626 2.90681 0
M  V30 4688 N 455.255 -1.55392 -0.262866 0
M  V30 4689 C 456.503 -1.76127 -0.991147 0
M  V30 4690 C 456.824 -0.571083 -1.8645 0
M  V30 4691 O 456.094 0.413698 -1.91482 0
M  V30 4692 H 454.674 -0.649528 -0.368948 0
M  V30 4693 H 457.336 -1.9281 -0.284655 0
M  V30 4694 H 456.432 -2.6663 -1.62219 0
M  V30 4695 N 456.733 0.527833 -1.48498 0
M  V30 4696 C 457.982 1.28003 -1.55878 0
M  V30 4697 C 458.295 1.9414 -0.238577 0
M  V30 4698 O 459.501 2.7083 -0.190643 0
M  V30 4699 C 457.957 2.32272 -2.74914 0
M  V30 4700 C 457.565 1.72196 -4.13585 0
M  V30 4701 C 459.309 3.08488 -2.91608 0
M  V30 4702 C 457.216 2.74417 -5.23879 0
M  V30 4703 H 456.146 0.481413 -0.580308 0
M  V30 4704 H 458.797 0.557195 -1.74836 0
M  V30 4705 H 457.179 3.07601 -2.49395 0
M  V30 4706 H 458.353 1.03041 -4.49132 0
M  V30 4707 H 456.668 1.08464 -4.02025 0
M  V30 4708 H 459.265 3.84879 -3.71177 0
M  V30 4709 H 459.608 3.64481 -2.01145 0
M  V30 4710 H 460.141 2.40274 -3.17038 0
M  V30 4711 H 456.88 2.23242 -6.16314 0
M  V30 4712 H 456.4 3.41893 -4.92818 0
M  V30 4713 H 458.079 3.37362 -5.52083 0
M  V30 4714 N 458.211 1.37122 0.776871 0
M  V30 4715 C 459.141 1.35164 1.90402 0
M  V30 4716 C 460.122 0.221069 1.68657 0
M  V30 4717 O 461.307 0.420642 1.8959 0
M  V30 4718 C 458.437 1.15274 3.27611 0
M  V30 4719 C 457.391 2.25289 3.63908 0
M  V30 4720 C 456.717 1.90527 4.99603 0
M  V30 4721 C 458.017 3.67446 3.71188 0
M  V30 4722 H 459.711 2.29482 1.92297 0
M  V30 4723 H 457.257 1.10465 0.923773 0
M  V30 4724 H 459.21 1.12536 4.06096 0
M  V30 4725 H 457.934 0.174102 3.26136 0
M  V30 4726 H 456.593 2.27174 2.87728 0
M  V30 4727 H 456.241 0.91206 4.94662 0
M  V30 4728 H 455.941 2.64193 5.24858 0
M  V30 4729 H 457.465 1.89367 5.80493 0
M  V30 4730 H 458.879 3.67719 4.39836 0
M  V30 4731 H 457.276 4.40123 4.07936 0
M  V30 4732 H 458.346 4.01443 2.71977 0
M  V30 4733 N 459.689 -1.00246 1.21608 0
M  V30 4734 C 460.938 -1.73476 1.02902 0
M  V30 4735 C 461.251 -1.90643 -0.437561 0
M  V30 4736 O 462.457 -2.61105 -0.74407 0
M  V30 4737 C 460.913 -3.12079 1.79261 0
M  V30 4738 C 460.521 -3.02877 3.30106 0
M  V30 4739 C 462.265 -3.89421 1.68972 0
M  V30 4740 C 460.172 -4.36575 3.98944 0
M  V30 4741 H 459.102 -0.650408 0.381425 0
M  V30 4742 H 461.753 -1.11985 1.45367 0
M  V30 4743 H 460.135 -3.74196 1.2959 0
M  V30 4744 H 461.309 -2.49983 3.87098 0
M  V30 4745 H 459.624 -2.39022 3.40965 0
M  V30 4746 H 462.221 -4.88362 2.17731 0
M  V30 4747 H 462.564 -4.1122 0.648397 0
M  V30 4748 H 463.097 -3.33963 2.16133 0
M  V30 4749 H 459.836 -4.19978 5.03288 0
M  V30 4750 H 459.356 -4.8942 3.4674 0
M  V30 4751 H 461.035 -5.05364 4.04 0
M  V30 4752 N 461.167 -1.02423 -1.1978 0
M  V30 4753 C 462.392 -0.7373 -1.93852 0
M  V30 4754 C 462.817 0.696923 -1.74713 0
M  V30 4755 O 462.175 1.48056 -1.04638 0
M  V30 4756 C 462.223 -1.08783 -3.438 0
M  V30 4757 O 461.327 -0.20383 -4.11896 0
M  V30 4758 H 460.668 -0.27284 -0.605355 0
M  V30 4759 H 463.198 -1.36966 -1.51992 0
M  V30 4760 H 463.208 -1.04276 -3.9445 0
M  V30 4761 H 461.883 -2.13274 -3.57053 0
M  V30 4762 H 460.46 -0.307091 -3.71633 0
M  V30 4763 N 462.645 1.35699 -0.801477 0
M  V30 4764 C 463.87 2.03687 -0.390678 0
M  V30 4765 C 464.295 1.60015 0.988778 0
M  V30 4766 O 463.653 0.774357 1.63931 0
M  V30 4767 C 463.701 3.57439 -0.476404 0
M  V30 4768 O 462.805 4.09208 0.512106 0
M  V30 4769 H 462.146 0.64344 -0.163956 0
M  V30 4770 H 464.676 1.73403 -1.08594 0
M  V30 4771 H 464.686 4.06544 -0.344357 0
M  V30 4772 H 463.361 3.88576 -1.48262 0
M  V30 4773 H 461.938 3.7134 0.340721 0
M  V30 4774 N 464.123 0.554532 1.47522 0
M  V30 4775 C 465.363 0.0317994 2.04375 0
M  V30 4776 C 465.727 -1.29242 1.41988 0
M  V30 4777 O 466.928 -1.90269 1.89872 0
M  V30 4778 C 465.199 -0.0623344 3.57346 0
M  V30 4779 S 466.758 -0.531578 4.35568 0
M  V30 4780 H 463.576 0.0238553 0.7106 0
M  V30 4781 H 466.178 0.74066 1.80927 0
M  V30 4782 H 464.882 0.905857 4.00278 0
M  V30 4783 H 464.413 -0.794831 3.85287 0
M  V30 4784 H 466.428 -1.79175 4.62721 0
M  V30 4785 N 465.601 -1.54893 0.290851 0
M  V30 4786 C 466.847 -2.00949 -0.314784 0
M  V30 4787 C 467.202 -1.1757 -1.52299 0
M  V30 4788 O 466.495 -0.241558 -1.90071 0
M  V30 4789 C 466.689 -3.49815 -0.732397 0
M  V30 4790 C 466.518 -4.47603 0.433799 0
M  V30 4791 C 465.288 -4.96806 0.922599 0
M  V30 4792 C 467.486 -4.98233 1.27546 0
M  V30 4793 N 465.468 -5.78426 2.05662 0
M  V30 4794 C 466.839 -5.77455 2.25712 0
M  V30 4795 C 468.894 -4.80439 1.307 0
M  V30 4796 C 467.597 -6.40778 3.26796 0
M  V30 4797 C 469.623 -5.44574 2.30637 0
M  V30 4798 C 468.985 -6.23619 3.27533 0
M  V30 4799 H 465.084 -0.777905 -0.0799257 0
M  V30 4800 H 467.668 -1.9015 0.418458 0
M  V30 4801 H 465.839 -3.60925 -1.43483 0
M  V30 4802 H 467.571 -3.82681 -1.31671 0
M  V30 4803 H 464.326 -4.70961 0.49926 0
M  V30 4804 H 464.75 -6.23923 2.62772 0
M  V30 4805 H 469.392 -4.18918 0.571622 0
M  V30 4806 H 467.11 -7.01439 4.01258 0
M  V30 4807 H 470.696 -5.32739 2.33838 0
M  V30 4808 H 469.576 -6.72367 4.03599 0
M  V30 4809 N 467.08 -0.0183926 -1.57589 0
M  V30 4810 C 468.329 0.66185 -1.90532 0
M  V30 4811 C 468.642 1.73904 -0.895366 0
M  V30 4812 O 469.848 2.47518 -1.11566 0
M  V30 4813 C 468.304 1.22844 -3.38286 0
M  V30 4814 C 467.912 0.185103 -4.47617 0
M  V30 4815 C 469.656 1.88581 -3.80312 0
M  V30 4816 C 467.563 0.762723 -5.86461 0
M  V30 4817 H 466.493 0.250972 -0.711006 0
M  V30 4818 H 469.144 -0.0819435 -1.83317 0
M  V30 4819 H 467.526 2.0235 -3.40398 0
M  V30 4820 H 468.7 -0.58671 -4.5705 0
M  V30 4821 H 467.015 -0.372889 -4.14727 0
M  V30 4822 H 469.612 2.32735 -4.81392 0
M  V30 4823 H 469.955 2.72408 -3.14801 0
M  V30 4824 H 470.488 1.15782 -3.80578 0
M  V30 4825 H 467.227 -0.0371713 -6.55489 0
M  V30 4826 H 466.747 1.50327 -5.80656 0
M  V30 4827 H 468.426 1.25576 -6.34697 0
M  V30 4828 N 468.558 1.5553 0.254621 0
M  V30 4829 C 469.488 1.9268 1.31897 0
M  V30 4830 C 470.469 0.790797 1.506 0
M  V30 4831 O 471.654 1.05045 1.63337 0
M  V30 4832 C 468.784 2.21477 2.67517 0
M  V30 4833 C 467.738 3.37256 2.63519 0
M  V30 4834 C 467.064 3.51576 4.02862 0
M  V30 4835 C 468.364 4.73157 2.21179 0
M  V30 4836 H 470.058 2.81832 1.01051 0
M  V30 4837 H 467.604 1.35599 0.484662 0
M  V30 4838 H 469.557 2.46055 3.42104 0
M  V30 4839 H 468.281 1.29144 2.99982 0
M  V30 4840 H 466.94 3.12675 1.9139 0
M  V30 4841 H 466.588 2.56676 4.32581 0
M  V30 4842 H 466.288 4.2943 4.01078 0
M  V30 4843 H 467.812 3.78467 4.79161 0
M  V30 4844 H 469.226 4.97158 2.85494 0
M  V30 4845 H 467.623 5.54058 2.30521 0
M  V30 4846 H 468.693 4.70739 1.16332 0
M  V30 4847 N 470.036 -0.519951 1.48776 0
M  V30 4848 C 471.261 -1.30447 1.6124 0
M  V30 4849 C 471.686 -1.86055 0.276591 0
M  V30 4850 O 471.044 -1.64915 -0.753183 0
M  V30 4851 C 471.092 -2.42406 2.66967 0
M  V30 4852 O 470.196 -3.45728 2.24824 0
M  V30 4853 H 469.537 -0.385924 0.540332 0
M  V30 4854 H 472.067 -0.624572 1.94834 0
M  V30 4855 H 472.077 -2.88447 2.88552 0
M  V30 4856 H 470.752 -2.01294 3.63941 0
M  V30 4857 H 469.329 -3.05737 2.13494 0
M  V30 4858 N 471.514 -1.37532 -0.769588 0
M  V30 4859 C 472.477 -1.33292 -1.86456 0
M  V30 4860 C 473.477 -0.236537 -1.59051 0
M  V30 4861 O 474.667 -0.492511 -1.67093 0
M  V30 4862 C 471.799 -1.07118 -3.23633 0
M  V30 4863 H 472.992 -2.30692 -1.91628 0
M  V30 4864 H 470.545 -1.22593 -0.969572 0
M  V30 4865 H 471.28 -0.102578 -3.24138 0
M  V30 4866 H 471.065 -1.86479 -3.44917 0
M  V30 4867 H 472.555 -1.06806 -4.03711 0
M  V30 4868 N 472.992 0.995999 -1.22138 0
M  V30 4869 C 473.955 2.06711 -0.990109 0
M  V30 4870 C 474.955 1.60744 0.0422978 0
M  V30 4871 O 476.145 1.73095 -0.195895 0
M  V30 4872 C 473.277 3.37288 -0.49491 0
M  V30 4873 H 474.47 2.28661 -1.94047 0
M  V30 4874 H 472.023 1.16711 -1.03963 0
M  V30 4875 H 472.758 3.21022 0.459948 0
M  V30 4876 H 472.543 3.71986 -1.23971 0
M  V30 4877 H 474.033 4.16103 -0.353253 0
M  V30 4878 N 474.47 1.03057 1.19235 0
M  V30 4879 C 475.42 0.583386 2.2041 0
M  V30 4880 C 476.404 -0.368776 1.56617 0
M  V30 4881 O 477.596 -0.189471 1.75983 0
M  V30 4882 C 474.725 -0.0626534 3.43243 0
M  V30 4883 C 473.811 0.91205 4.14177 0
M  V30 4884 N 474.202 2.07514 4.61272 0
M  V30 4885 C 472.5 0.735859 4.39888 0
M  V30 4886 C 473.201 2.69003 5.15764 0
M  V30 4887 N 472.177 1.96954 5.06666 0
M  V30 4888 H 475.979 1.46988 2.54503 0
M  V30 4889 H 473.493 0.897785 1.35328 0
M  V30 4890 H 475.49 -0.400653 4.1497 0
M  V30 4891 H 474.15 -0.944813 3.1065 0
M  V30 4892 H 475.161 2.45448 4.56043 0
M  V30 4893 H 471.838 -0.0970656 4.17387 0
M  V30 4894 H 473.228 3.67514 5.6248 0
M  V30 4895 N 475.948 -1.35272 0.808662 0
M  V30 4896 C 477.188 -2.00534 0.395668 0
M  V30 4897 C 477.552 -1.62755 -1.01857 0
M  V30 4898 O 478.753 -2.20752 -1.53368 0
M  V30 4899 C 477.024 -3.52732 0.575771 0
M  V30 4900 S 478.583 -4.38067 0.253507 0
M  V30 4901 H 475.401 -0.694962 0.150165 0
M  V30 4902 H 478.003 -1.64823 1.05137 0
M  V30 4903 H 476.707 -3.77714 1.60499 0
M  V30 4904 H 476.238 -3.93285 -0.0951739 0
M  V30 4905 H 478.253 -4.87252 -0.938068 0
M  V30 4906 N 477.426 -0.562348 -1.47226 0
M  V30 4907 C 478.673 -0.0402165 -2.0246 0
M  V30 4908 C 479.001 1.31169 -1.43614 0
M  V30 4909 O 478.256 1.86805 -0.5833 0
M  V30 4910 C 478.555 0.0969817 -3.57268 0
M  V30 4911 C 478.221 -1.1847 -4.35058 0
M  V30 4912 C 476.883 -1.53588 -4.56031 0
M  V30 4913 C 479.235 -2.03378 -4.79882 0
M  V30 4914 C 476.563 -2.73452 -5.19077 0
M  V30 4915 C 478.915 -3.2245 -5.44251 0
M  V30 4916 C 477.579 -3.57876 -5.63455 0
M  V30 4917 H 476.849 -0.0147163 -0.740854 0
M  V30 4918 H 479.496 -0.734895 -1.76838 0
M  V30 4919 H 477.801 0.87466 -3.81912 0
M  V30 4920 H 479.498 0.516408 -3.97661 0
M  V30 4921 H 476.088 -0.90126 -4.19017 0
M  V30 4922 H 480.272 -1.77553 -4.63453 0
M  V30 4923 H 475.528 -3.01062 -5.32139 0
M  V30 4924 H 479.702 -3.88526 -5.77945 0
M  V30 4925 H 477.329 -4.50849 -6.12078 0
M  V30 4926 N 478.904 1.54736 -0.299062 0
M  V30 4927 C 479.836 2.20891 0.61153 0
M  V30 4928 C 480.849 1.20104 1.09904 0
M  V30 4929 O 482.038 1.46707 1.01683 0
M  V30 4930 C 479.138 2.84018 1.84897 0
M  V30 4931 C 478.311 4.10719 1.50428 0
M  V30 4932 C 477.37 4.57667 2.59667 0
M  V30 4933 O 476.396 5.2291 2.24842 0
M  V30 4934 N 477.598 4.29821 3.90172 0
M  V30 4935 H 480.363 2.99666 0.0452001 0
M  V30 4936 H 477.924 1.61446 -0.121178 0
M  V30 4937 H 479.916 3.1236 2.5732 0
M  V30 4938 H 478.486 2.09095 2.32375 0
M  V30 4939 H 477.706 3.89408 0.612781 0
M  V30 4940 H 478.994 4.93223 1.24934 0
M  V30 4941 H 478.392 3.77549 4.21276 0
M  V30 4942 H 476.949 4.62877 4.58899 0
M  V30 4943 N 480.382 0.0267497 1.57577 0
M  V30 4944 C 481.292 -0.971633 2.13533 0
M  V30 4945 C 482.308 -1.35868 1.08701 0
M  V30 4946 O 483.484 -1.44058 1.40746 0
M  V30 4947 C 480.549 -2.23622 2.64941 0
M  V30 4948 C 479.61 -1.90982 3.8448 0
M  V30 4949 C 478.843 -3.11411 4.33427 0
M  V30 4950 O 479.066 -4.23992 3.81558 0
M  V30 4951 O 478 -2.93848 5.25297 0
M  V30 4952 H 481.826 -0.525853 2.99113 0
M  V30 4953 H 479.411 -0.193712 1.48139 0
M  V30 4954 H 481.293 -2.97864 2.98086 0
M  V30 4955 H 479.968 -2.67386 1.82446 0
M  V30 4956 H 478.875 -1.14132 3.56265 0
M  V30 4957 H 480.208 -1.52036 4.6813 0
M  V30 4958 N 481.861 -1.55662 -0.24637 0
M  V30 4959 C 483.277 -1.48098 -0.594907 0
M  V30 4960 C 483.477 -0.717044 -1.8831 0
M  V30 4961 O 482.533 -0.246618 -2.51293 0
M  V30 4962 C 483.846 -2.92507 -0.697146 0
M  V30 4963 C 485.394 -3.02881 -0.789436 0
M  V30 4964 C 485.869 -4.48598 -0.923232 0
M  V30 4965 N 487.36 -4.52538 -0.988088 0
M  V30 4966 C 488.095 -5.62536 -1.11089 0
M  V30 4967 N 487.591 -6.82342 -1.19919 0
M  V30 4968 N 489.384 -5.50334 -1.14408 0
M  V30 4969 H 481.535 -2.0377 0.599278 0
M  V30 4970 H 483.798 -0.925145 0.20691 0
M  V30 4971 H 483.504 -3.51242 0.179396 0
M  V30 4972 H 483.378 -3.43024 -1.5689 0
M  V30 4973 H 485.765 -2.44226 -1.65643 0
M  V30 4974 H 485.846 -2.55574 0.107482 0
M  V30 4975 H 485.49 -5.07864 -0.0607927 0
M  V30 4976 H 485.42 -4.93587 -1.8352 0
M  V30 4977 H 487.911 -3.66248 -0.931167 0
M  V30 4978 H 488.224 -7.61924 -1.29197 0
M  V30 4979 H 486.569 -6.85102 -1.16876 0
M  V30 4980 H 489.76 -4.5567 -1.07158 0
M  V30 4981 H 489.933 -6.36096 -1.23634 0
M  V30 4982 N 483.339 0.512053 -1.4905 0
M  V30 4983 C 484.586 1.26686 -1.57978 0
M  V30 4984 C 484.914 1.92733 -0.261553 0
M  V30 4985 O 484.169 1.80772 0.749667 0
M  V30 4986 C 484.468 2.36446 -2.68008 0
M  V30 4987 C 484.134 1.87932 -4.09869 0
M  V30 4988 C 482.796 1.74419 -4.48477 0
M  V30 4989 C 485.148 1.5149 -4.98698 0
M  V30 4990 C 482.476 1.22827 -5.73699 0
M  V30 4991 C 484.828 1.01355 -6.24428 0
M  V30 4992 C 483.492 0.864735 -6.61875 0
M  V30 4993 H 482.762 0.463577 -0.578081 0
M  V30 4994 H 485.409 0.569421 -1.82838 0
M  V30 4995 H 483.714 3.11933 -2.37076 0
M  V30 4996 H 485.411 2.9453 -2.72127 0
M  V30 4997 H 482.001 1.99405 -3.79389 0
M  V30 4998 H 486.185 1.60782 -4.69535 0
M  V30 4999 H 481.441 1.10008 -6.01422 0
M  V30 5000 H 485.615 0.722351 -6.92644 0
M  V30 5001 H 483.242 0.462777 -7.5879 0
M  V30 5002 N 484.817 1.37938 0.762283 0
M  V30 5003 C 486.228 1.30094 1.33912 0
M  V30 5004 C 486.579 -0.0472026 1.96143 0
M  V30 5005 O 485.704 -0.94917 1.94473 0
M  V30 5006 C 486.299 2.35592 2.43478 0
M  V30 5007 C 484.858 2.31353 2.96905 0
M  V30 5008 C 484.005 2.18919 1.70205 0
M  V30 5009 H 486.956 1.48423 0.561816 0
M  V30 5010 H 486.977 2.00806 3.23199 0
M  V30 5011 H 486.489 3.33701 1.98155 0
M  V30 5012 H 484.59 1.36799 3.46579 0
M  V30 5013 H 484.703 3.25147 3.51875 0
M  V30 5014 H 483.067 1.65624 1.93496 0
M  V30 5015 H 483.85 3.18956 1.26973 0
M  V30 5016 N 486.295 -0.989507 1.22664 0
M  V30 5017 C 487.706 -1.54406 1.04955 0
M  V30 5018 C 488.057 -1.92366 -0.385951 0
M  V30 5019 O 487.182 -1.75111 -1.27142 0
M  V30 5020 C 487.777 -2.80578 1.89899 0
M  V30 5021 C 486.336 -3.32464 1.76478 0
M  V30 5022 C 485.483 -2.05524 1.86159 0
M  V30 5023 H 488.434 -0.810211 1.3646 0
M  V30 5024 H 488.455 -3.53075 1.4184 0
M  V30 5025 H 487.967 -2.52918 2.94371 0
M  V30 5026 H 486.068 -3.65024 0.747528 0
M  V30 5027 H 486.181 -4.02838 2.59342 0
M  V30 5028 H 484.545 -2.19241 1.29636 0
M  V30 5029 H 485.328 -1.80258 2.92168 0
M  V30 5030 N 487.773 -1.03688 -1.18687 0
M  V30 5031 C 488.723 -0.595067 -2.20098 0
M  V30 5032 C 489.707 0.360465 -1.5681 0
M  V30 5033 O 490.899 0.180136 -1.76081 0
M  V30 5034 C 488.028 0.0444495 -3.43271 0
M  V30 5035 C 487.114 -0.934002 -4.13687 0
M  V30 5036 N 487.505 -2.09957 -4.60165 0
M  V30 5037 C 485.803 -0.759177 -4.39491 0
M  V30 5038 C 486.504 -2.71735 -5.1433 0
M  V30 5039 N 485.48 -1.99638 -5.05614 0
M  V30 5040 H 489.282 -1.48336 -2.5372 0
M  V30 5041 H 486.796 -0.904949 -1.3485 0
M  V30 5042 H 488.793 0.37864 -4.15177 0
M  V30 5043 H 487.453 0.928325 -3.11147 0
M  V30 5044 H 488.464 -2.47863 -4.54735 0
M  V30 5045 H 485.141 0.0749292 -4.17433 0
M  V30 5046 H 486.531 -3.70492 -5.60523 0
M  V30 5047 N 489.251 1.34841 -0.815825 0
M  V30 5048 C 490.201 2.27075 -0.205169 0
M  V30 5049 C 491.185 1.48205 0.626414 0
M  V30 5050 O 492.377 1.70306 0.482157 0
M  V30 5051 C 489.506 3.37322 0.637871 0
M  V30 5052 C 488.592 4.23609 -0.203948 0
M  V30 5053 N 488.983 4.89558 -1.27149 0
M  V30 5054 C 487.281 4.45998 0.0128971 0
M  V30 5055 C 487.982 5.53597 -1.7862 0
M  V30 5056 N 486.958 5.32535 -1.0912 0
M  V30 5057 H 490.76 2.75563 -1.02187 0
M  V30 5058 H 488.274 1.48477 -0.657912 0
M  V30 5059 H 490.271 4.02359 1.09146 0
M  V30 5060 H 488.931 2.90385 1.45281 0
M  V30 5061 H 489.942 4.9077 -1.65423 0
M  V30 5062 H 486.619 4.09837 0.79624 0
M  V30 5063 H 488.009 6.16184 -2.67892 0
M  V30 5064 N 490.729 0.570148 1.46925 0
M  V30 5065 C 491.659 -0.158274 2.32963 0
M  V30 5066 C 492.64 -0.896093 1.44583 0
M  V30 5067 O 493.825 -0.874022 1.7342 0
M  V30 5068 C 490.955 -1.18055 3.26619 0
M  V30 5069 C 489.909 -0.558379 4.24342 0
M  V30 5070 C 489.235 -1.68623 5.07415 0
M  V30 5071 C 490.535 0.496295 5.19937 0
M  V30 5072 H 492.229 0.560046 2.94115 0
M  V30 5073 H 489.775 0.270775 1.41431 0
M  V30 5074 H 491.728 -1.69841 3.85658 0
M  V30 5075 H 490.452 -1.92899 2.63548 0
M  V30 5076 H 489.111 -0.0617157 3.66548 0
M  V30 5077 H 488.759 -2.42402 4.40738 0
M  V30 5078 H 488.459 -1.27564 5.73586 0
M  V30 5079 H 489.983 -2.20709 5.69315 0
M  V30 5080 H 491.397 0.0640052 5.73264 0
M  V30 5081 H 489.794 0.82649 5.94381 0
M  V30 5082 H 490.864 1.38735 4.6463 0
M  V30 5083 N 492.207 -1.54576 0.307264 0
M  V30 5084 C 493.435 -2.04675 -0.302597 0
M  V30 5085 C 493.85 -1.18425 -1.47041 0
M  V30 5086 O 493.207 -0.211257 -1.81273 0
M  V30 5087 C 493.258 -3.53575 -0.752801 0
M  V30 5088 O 492.979 -4.36547 0.368536 0
M  V30 5089 C 494.48 -4.19699 -1.42717 0
M  V30 5090 H 491.7 -0.66786 -0.0648374 0
M  V30 5091 H 494.244 -1.99516 0.448716 0
M  V30 5092 H 492.399 -3.59074 -1.45412 0
M  V30 5093 H 492.813 -5.24497 0.0168937 0
M  V30 5094 H 494.287 -5.25388 -1.69327 0
M  V30 5095 H 494.764 -3.69815 -2.36925 0
M  V30 5096 H 495.37 -4.18293 -0.768856 0
M  V30 5097 N 493.685 -0.035106 -1.57561 0
M  V30 5098 C 494.931 0.64318 -1.92331 0
M  V30 5099 C 495.264 1.71434 -0.912368 0
M  V30 5100 O 494.539 1.94395 0.0640303 0
M  V30 5101 C 494.822 1.25411 -3.37556 0
M  V30 5102 C 494.675 0.192109 -4.4939 0
M  V30 5103 C 495.994 2.17041 -3.82859 0
M  V30 5104 H 493.113 0.232341 -0.699419 0
M  V30 5105 H 495.755 -0.0935889 -1.89769 0
M  V30 5106 H 493.905 1.88205 -3.39869 0
M  V30 5107 H 495.577 -0.438849 -4.59208 0
M  V30 5108 H 493.82 -0.481725 -4.31117 0
M  V30 5109 H 494.491 0.659292 -5.48049 0
M  V30 5110 H 496.967 1.64228 -3.8232 0
M  V30 5111 H 495.843 2.56738 -4.85157 0
M  V30 5112 H 496.104 3.06401 -3.18702 0
M  V30 5113 N 495.163 1.55791 0.238111 0
M  V30 5114 C 496.412 1.77234 0.962868 0
M  V30 5115 C 496.725 0.600661 1.86149 0
M  V30 5116 O 497.931 0.698315 2.62366 0
M  V30 5117 C 496.387 3.13808 1.76218 0
M  V30 5118 C 495.995 4.3865 0.910518 0
M  V30 5119 C 497.739 3.44585 2.47914 0
M  V30 5120 C 495.646 5.66252 1.70623 0
M  V30 5121 H 494.576 0.660731 0.36325 0
M  V30 5122 H 497.227 1.8221 0.217242 0
M  V30 5123 H 495.609 3.02963 2.55009 0
M  V30 5124 H 496.783 4.60507 0.164316 0
M  V30 5125 H 495.098 4.15271 0.30647 0
M  V30 5126 H 497.695 4.3714 3.07917 0
M  V30 5127 H 498.038 2.66314 3.19973 0
M  V30 5128 H 498.571 3.56685 1.76127 0
M  V30 5129 H 495.31 6.47369 1.02923 0
M  V30 5130 H 494.83 5.48483 2.42748 0
M  V30 5131 H 496.509 6.05829 2.27114 0
M  V30 5132 N 496.642 -0.504142 1.49319 0
M  V30 5133 C 497.572 -1.61473 1.68667 0
M  V30 5134 C 498.553 -1.61455 0.535378 0
M  V30 5135 O 499.738 -1.78245 0.770868 0
M  V30 5136 C 496.868 -2.99971 1.75028 0
M  V30 5137 C 495.822 -3.14854 2.89916 0
M  V30 5138 C 495.148 -4.54671 2.81387 0
M  V30 5139 C 496.448 -2.95176 4.30893 0
M  V30 5140 H 498.142 -1.45535 2.61648 0
M  V30 5141 H 495.688 -0.698711 1.25913 0
M  V30 5142 H 497.641 -3.77562 1.8715 0
M  V30 5143 H 496.365 -3.1699 0.786441 0
M  V30 5144 H 495.024 -2.39687 2.77391 0
M  V30 5145 H 494.672 -4.68562 1.82917 0
M  V30 5146 H 494.372 -4.6557 3.58494 0
M  V30 5147 H 495.896 -5.34327 2.95512 0
M  V30 5148 H 497.31 -3.62538 4.44116 0
M  V30 5149 H 495.707 -3.17549 5.09198 0
M  V30 5150 H 496.777 -1.91332 4.45556 0
M  V30 5151 N 498.12 -1.38341 -0.754957 0
M  V30 5152 C 499.368 -1.34208 -1.51105 0
M  V30 5153 C 499.689 0.0677634 -1.94882 0
M  V30 5154 O 498.959 1.01517 -1.67544 0
M  V30 5155 H 497.539 -0.493819 -0.560493 0
M  V30 5156 H 500.201 -1.73005 -0.897507 0
M  V30 5157 H 499.297 -1.99203 -2.4026 0
M  V30 5158 N 499.598 0.982988 -1.23187 0
M  V30 5159 C 501.014 1.2487 -0.993967 0
M  V30 5160 C 501.214 1.99155 0.306498 0
M  V30 5161 O 500.27 2.30688 1.0266 0
M  V30 5162 C 501.583 2.05078 -2.19917 0
M  V30 5163 C 503.131 2.18227 -2.2438 0
M  V30 5164 C 503.606 3.01825 -3.44479 0
M  V30 5165 N 505.097 3.09411 -3.44702 0
M  V30 5166 C 505.832 3.74412 -4.34285 0
M  V30 5167 N 505.328 4.41259 -5.341 0
M  V30 5168 N 507.121 3.71273 -4.22035 0
M  V30 5169 H 499.272 0.485253 -2.06783 0
M  V30 5170 H 501.535 0.276979 -0.906635 0
M  V30 5171 H 501.241 1.57867 -3.14279 0
M  V30 5172 H 501.115 3.05829 -2.2079 0
M  V30 5173 H 503.502 2.64648 -1.30559 0
M  V30 5174 H 503.583 1.16873 -2.2754 0
M  V30 5175 H 503.227 2.56102 -4.38605 0
M  V30 5176 H 503.157 4.03342 -3.38559 0
M  V30 5177 H 505.648 2.61845 -2.7248 0
M  V30 5178 H 505.961 4.88629 -5.98717 0
M  V30 5179 H 504.306 4.39975 -5.38002 0
M  V30 5180 H 507.497 3.18217 -3.43301 0
M  V30 5181 H 507.67 4.21649 -4.92053 0
M  V30 5182 N 501.076 1.04316 1.18135 0
M  V30 5183 C 502.304 0.768117 1.92113 0
M  V30 5184 C 502.719 -0.675057 1.76319 0
M  V30 5185 O 502.076 -1.46038 1.09449 0
M  V30 5186 C 502.127 1.12808 3.43448 0
M  V30 5187 O 501.848 2.5146 3.58747 0
M  V30 5188 C 503.349 0.8779 4.3452 0
M  V30 5189 H 500.569 0.279937 0.609817 0
M  V30 5190 H 503.113 1.39149 1.49859 0
M  V30 5191 H 501.268 0.549623 3.83481 0
M  V30 5192 H 501.682 2.65313 4.52448 0
M  V30 5193 H 503.156 1.17959 5.39249 0
M  V30 5194 H 503.633 -0.187239 4.38801 0
M  V30 5195 H 504.239 1.43977 4.00188 0
M  V30 5196 N 502.554 -1.34406 0.822964 0
M  V30 5197 C 503.784 -2.02214 0.423424 0
M  V30 5198 C 504.192 -1.62124 -0.975322 0
M  V30 5199 O 503.535 -0.822452 -1.6426 0
M  V30 5200 C 503.597 -3.56721 0.446107 0
M  V30 5201 C 503.261 -4.20136 1.79819 0
M  V30 5202 C 504.258 -4.4065 2.75904 0
M  V30 5203 C 501.943 -4.56906 2.08669 0
M  V30 5204 C 503.937 -4.9706 3.99012 0
M  V30 5205 C 501.624 -5.13026 3.32036 0
M  V30 5206 C 502.622 -5.33047 4.27024 0
M  V30 5207 O 502.31 -5.87979 5.48211 0
M  V30 5208 H 502.042 -0.654748 0.168169 0
M  V30 5209 H 504.596 -1.72659 1.11257 0
M  V30 5210 H 502.826 -3.85537 -0.299734 0
M  V30 5211 H 504.515 -4.05845 0.0666114 0
M  V30 5212 H 505.281 -4.12607 2.54912 0
M  V30 5213 H 501.16 -4.40626 1.35535 0
M  V30 5214 H 504.704 -5.12603 4.73164 0
M  V30 5215 H 500.601 -5.40498 3.52891 0
M  V30 5216 H 501.369 -6.06413 5.49732 0
M  V30 5217 N 504.032 -0.577932 -1.46621 0
M  V30 5218 C 505.448 -0.239242 -1.57797 0
M  V30 5219 C 505.648 1.25843 -1.57371 0
M  V30 5220 O 504.704 2.03988 -1.48813 0
M  V30 5221 C 506.017 -0.884227 -2.87405 0
M  V30 5222 C 507.565 -0.857373 -3.01028 0
M  V30 5223 C 508.04 -1.48181 -4.33366 0
M  V30 5224 N 509.531 -1.44593 -4.40053 0
M  V30 5225 C 510.266 -1.89852 -5.41058 0
M  V30 5226 N 509.762 -2.43062 -6.48762 0
M  V30 5227 N 511.555 -1.80797 -5.3223 0
M  V30 5228 H 503.706 -1.55073 -1.45142 0
M  V30 5229 H 505.969 -0.647903 -0.692044 0
M  V30 5230 H 505.675 -1.93759 -2.93514 0
M  V30 5231 H 505.549 -0.389585 -3.75183 0
M  V30 5232 H 507.936 0.187357 -2.94505 0
M  V30 5233 H 508.017 -1.38999 -2.14739 0
M  V30 5234 H 507.661 -2.52572 -4.40647 0
M  V30 5235 H 507.591 -0.924464 -5.18422 0
M  V30 5236 H 510.082 -1.05694 -3.62819 0
M  V30 5237 H 510.395 -2.75466 -7.22038 0
M  V30 5238 H 508.74 -2.47085 -6.49595 0
M  V30 5239 H 511.931 -1.38989 -4.46989 0
M  V30 5240 H 512.104 -2.16385 -6.10804 0
M  V30 5241 N 505.51 1.54411 -0.315457 0
M  V30 5242 C 506.756 2.00716 0.289972 0
M  V30 5243 C 507.089 1.2034 1.5242 0
M  V30 5244 O 506.364 0.283579 1.92422 0
M  V30 5245 C 506.647 3.54507 0.632196 0
M  V30 5246 C 506.5 4.45615 -0.61218 0
M  V30 5247 C 507.819 4.15421 1.45305 0
M  V30 5248 H 504.938 0.729637 0.10392 0
M  V30 5249 H 507.58 1.8506 -0.430427 0
M  V30 5250 H 505.73 3.67979 1.24595 0
M  V30 5251 H 507.402 4.44026 -1.25053 0
M  V30 5252 H 505.645 4.15621 -1.24264 0
M  V30 5253 H 506.316 5.51022 -0.328379 0
M  V30 5254 H 508.792 4.05474 0.934331 0
M  V30 5255 H 507.668 5.23157 1.66127 0
M  V30 5256 H 507.929 3.68223 2.44671 0
M  V30 5257 N 506.988 0.0434614 1.5754 0
M  V30 5258 C 508.234 -0.632971 1.92669 0
M  V30 5259 C 508.567 -1.70947 0.921446 0
M  V30 5260 O 507.842 -1.94426 -0.0537202 0
M  V30 5261 C 508.125 -1.23619 3.38216 0
M  V30 5262 C 507.978 -0.168274 4.49485 0
M  V30 5263 C 509.297 -2.15008 3.84005 0
M  V30 5264 H 506.416 -0.228629 0.700641 0
M  V30 5265 H 509.058 0.103651 1.89717 0
M  V30 5266 H 507.208 -1.864 3.40863 0
M  V30 5267 H 508.88 0.463196 4.58969 0
M  V30 5268 H 507.123 0.504581 4.30855 0
M  V30 5269 H 507.794 -0.630218 5.48391 0
M  V30 5270 H 510.27 -1.62198 3.83185 0
M  V30 5271 H 509.146 -2.54161 4.86511 0
M  V30 5272 H 509.407 -3.04707 3.20322 0
M  V30 5273 N 508.466 -1.55915 -0.229846 0
M  V30 5274 C 509.877 -1.68809 -0.797531 0
M  V30 5275 C 510.228 -0.643995 -1.8533 0
M  V30 5276 O 509.353 0.206492 -2.15413 0
M  V30 5277 C 509.948 -3.06043 -1.45338 0
M  V30 5278 C 508.507 -3.20819 -1.96856 0
M  V30 5279 C 507.654 -2.6472 -0.825736 0
M  V30 5280 H 510.605 -1.58699 -0.00533733 0
M  V30 5281 H 510.626 -3.01438 -2.32196 0
M  V30 5282 H 510.138 -3.82012 -0.684743 0
M  V30 5283 H 508.239 -2.49704 -2.76548 0
M  V30 5284 H 508.352 -4.27937 -2.15423 0
M  V30 5285 H 506.716 -2.22985 -1.23084 0
M  V30 5286 H 507.499 -3.43229 -0.0699019 0
M  V30 5287 N 509.944 0.496216 -1.49584 0
M  V30 5288 C 511.192 1.24756 -1.58998 0
M  V30 5289 C 511.513 1.92968 -0.280775 0
M  V30 5290 O 510.783 1.82959 0.700198 0
M  V30 5291 H 509.363 0.463471 -0.585836 0
M  V30 5292 H 512.025 0.574678 -1.86235 0
M  V30 5293 H 511.121 2.00895 -2.38847 0
M  V30 5294 N 511.423 1.38739 0.74761 0
M  V30 5295 C 512.333 1.38696 1.89211 0
M  V30 5296 C 513.349 0.283303 1.71678 0
M  V30 5297 O 514.525 0.522713 1.94498 0
M  V30 5298 C 511.59 1.21662 3.24653 0
M  V30 5299 C 510.651 2.41886 3.54669 0
M  V30 5300 C 509.884 2.25655 4.83648 0
M  V30 5301 O 510.107 1.25339 5.56459 0
M  V30 5302 O 509.041 3.14372 5.13277 0
M  V30 5303 H 512.867 2.35143 1.92202 0
M  V30 5304 H 510.452 1.19721 0.893708 0
M  V30 5305 H 512.334 1.14246 4.05618 0
M  V30 5306 H 511.009 0.283024 3.2246 0
M  V30 5307 H 509.916 2.54877 2.73841 0
M  V30 5308 H 511.249 3.33895 3.61628 0
M  V30 5309 N 512.901 -0.976442 1.23707 0
M  V30 5310 C 513.811 -2.10359 1.03856 0
M  V30 5311 C 514.827 -1.73991 -0.0180919 0
M  V30 5312 O 516.003 -2.0061 0.178211 0
M  V30 5313 C 513.068 -3.40809 0.636387 0
M  V30 5314 C 512.129 -3.91179 1.76854 0
M  V30 5315 C 511.362 -5.15404 1.38546 0
M  V30 5316 O 511.585 -5.69754 0.27142 0
M  V30 5317 O 510.519 -5.5994 2.20797 0
M  V30 5318 H 514.345 -2.29997 1.98331 0
M  V30 5319 H 511.93 -1.08742 1.02448 0
M  V30 5320 H 513.812 -4.19269 0.423223 0
M  V30 5321 H 512.487 -3.22493 -0.279322 0
M  V30 5322 H 511.394 -3.13819 2.03638 0
M  V30 5323 H 512.727 -4.13958 2.6627 0
M  V30 5324 N 514.379 -1.04941 -1.1758 0
M  V30 5325 C 515.289 -0.658826 -2.25159 0
M  V30 5326 C 516.305 0.318941 -1.71052 0
M  V30 5327 O 517.481 0.171669 -2.00667 0
M  V30 5328 C 514.546 -0.0369522 -3.4668 0
M  V30 5329 C 513.607 -1.06484 -4.15884 0
M  V30 5330 C 512.84 -0.472551 -5.31604 0
M  V30 5331 O 513.063 0.718736 -5.65854 0
M  V30 5332 O 511.997 -1.20557 -5.89703 0
M  V30 5333 H 515.823 -1.55533 -2.60851 0
M  V30 5334 H 513.408 -0.820819 -1.24832 0
M  V30 5335 H 515.29 0.308784 -4.20267 0
M  V30 5336 H 513.965 0.833238 -3.12792 0
M  V30 5337 H 512.872 -1.46253 -3.44327 0
M  V30 5338 H 514.205 -1.9061 -4.53794 0
M  V30 5339 N 515.857 1.33968 -0.830081 0
M  V30 5340 C 516.789 2.28194 -0.21448 0
M  V30 5341 C 517.802 1.5135 0.599752 0
M  V30 5342 O 518.991 1.73286 0.42826 0
M  V30 5343 C 516.091 3.31221 0.717356 0
M  V30 5344 C 515.264 4.37365 -0.055613 0
M  V30 5345 C 514.323 5.2011 0.798231 0
M  V30 5346 O 513.349 5.68691 0.240616 0
M  V30 5347 N 514.551 5.40523 2.11695 0
M  V30 5348 H 517.316 2.81662 -1.02405 0
M  V30 5349 H 514.877 1.46568 -0.687713 0
M  V30 5350 H 516.869 3.83477 1.29334 0
M  V30 5351 H 515.439 2.78095 1.42765 0
M  V30 5352 H 514.659 3.85727 -0.812936 0
M  V30 5353 H 515.947 5.05397 -0.587444 0
M  V30 5354 H 515.345 5.0274 2.59363 0
M  V30 5355 H 513.902 5.95871 2.64162 0
M  V30 5356 N 517.335 0.585699 1.46312 0
M  V30 5357 C 518.282 -0.145835 2.30339 0
M  V30 5358 C 519.252 -0.881215 1.40797 0
M  V30 5359 O 520.437 -0.871293 1.69744 0
M  V30 5360 C 517.577 -1.15161 3.25318 0
M  V30 5361 C 516.69 -0.419367 4.2996 0
M  V30 5362 C 515.825 -1.41293 5.12064 0
M  V30 5363 C 514.864 -0.667261 6.08452 0
M  V30 5364 N 514.001 -1.60903 6.83414 0
M  V30 5365 H 518.841 0.576755 2.92365 0
M  V30 5366 H 516.378 0.296237 1.44086 0
M  V30 5367 H 518.336 -1.74763 3.78832 0
M  V30 5368 H 516.966 -1.84188 2.65094 0
M  V30 5369 H 516.018 0.291751 3.7928 0
M  V30 5370 H 517.33 0.163433 4.98532 0
M  V30 5371 H 516.484 -2.08167 5.6987 0
M  V30 5372 H 515.223 -2.02966 4.43459 0
M  V30 5373 H 514.228 0.0152356 5.49798 0
M  V30 5374 H 515.453 -0.0558817 6.79077 0
M  V30 5375 H 513.399 -2.21381 6.17516 0
M  V30 5376 H 513.316 -1.07911 7.48259 0
M  V30 5377 H 514.584 -2.26802 7.45775 0
M  V30 5378 N 518.813 -1.54241 0.323641 0
M  V30 5379 C 520.06 -2.0057 -0.27891 0
M  V30 5380 C 520.388 -1.21181 -1.52136 0
M  V30 5381 O 519.643 -0.282043 -1.93657 0
M  V30 5382 C 519.942 -3.5129 -0.658031 0
M  V30 5383 C 519.608 -4.48281 0.485252 0
M  V30 5384 C 518.27 -4.74519 0.799055 0
M  V30 5385 C 520.622 -5.05909 1.25322 0
M  V30 5386 C 517.95 -5.55643 1.88354 0
M  V30 5387 C 520.302 -5.88215 2.32779 0
M  V30 5388 C 518.966 -6.12755 2.64741 0
M  V30 5389 H 518.236 -0.733938 -0.10206 0
M  V30 5390 H 520.883 -1.862 0.447435 0
M  V30 5391 H 519.188 -3.63388 -1.4648 0
M  V30 5392 H 520.885 -3.84578 -1.1358 0
M  V30 5393 H 517.475 -4.27979 0.230593 0
M  V30 5394 H 521.659 -4.8562 1.02404 0
M  V30 5395 H 516.915 -5.72888 2.13564 0
M  V30 5396 H 521.089 -6.31888 2.92729 0
M  V30 5397 H 518.716 -6.75404 3.48904 0
M  V30 5398 N 520.291 -0.0518155 -1.57515 0
M  V30 5399 C 521.201 0.937539 -2.15052 0
M  V30 5400 C 522.217 1.34121 -1.10849 0
M  V30 5401 O 523.393 1.418 -1.4302 0
M  V30 5402 C 520.458 2.19379 -2.68466 0
M  V30 5403 C 519.519 1.84841 -3.87469 0
M  V30 5404 C 518.752 3.04477 -4.38326 0
M  V30 5405 O 518.975 4.17868 -3.88256 0
M  V30 5406 O 517.909 2.85453 -5.29906 0
M  V30 5407 H 521.735 0.478201 -2.99912 0
M  V30 5408 H 519.32 0.17012 -1.48428 0
M  V30 5409 H 521.202 2.93084 -3.02787 0
M  V30 5410 H 519.877 2.64449 -1.86677 0
M  V30 5411 H 518.784 1.08449 -3.58036 0
M  V30 5412 H 520.117 1.44569 -4.7049 0
M  V30 5413 N 521.769 1.56035 0.221574 0
M  V30 5414 C 523.015 1.79312 0.947372 0
M  V30 5415 C 523.348 0.621453 1.83988 0
M  V30 5416 O 522.623 -0.379287 1.90766 0
M  V30 5417 C 522.906 3.1267 1.78633 0
M  V30 5418 C 522.759 4.40284 0.920312 0
M  V30 5419 C 524.078 3.4247 2.7641 0
M  V30 5420 H 521.197 0.652328 0.342982 0
M  V30 5421 H 523.839 1.88765 0.216244 0
M  V30 5422 H 521.989 3.04741 2.40967 0
M  V30 5423 H 523.661 4.60232 0.313718 0
M  V30 5424 H 521.904 4.33212 0.225734 0
M  V30 5425 H 522.575 5.30033 1.54171 0
M  V30 5426 H 525.051 3.50526 2.24211 0
M  V30 5427 H 523.927 4.3695 3.32213 0
M  V30 5428 H 524.188 2.64635 3.54148 0
M  V30 5429 N 523.247 -0.488276 1.49845 0
M  V30 5430 C 524.157 -1.61451 1.70207 0
M  V30 5431 C 525.173 -1.63877 0.584846 0
M  V30 5432 O 526.349 -1.82063 0.861107 0
M  V30 5433 C 523.414 -2.9776 1.77594 0
M  V30 5434 C 522.475 -3.05861 3.01243 0
M  V30 5435 C 521.708 -4.35668 3.08268 0
M  V30 5436 O 521.931 -5.25197 2.22541 0
M  V30 5437 O 520.865 -4.49005 4.00847 0
M  V30 5438 H 524.691 -1.47199 2.65643 0
M  V30 5439 H 522.276 -0.665939 1.33737 0
M  V30 5440 H 524.158 -3.7875 1.84732 0
M  V30 5441 H 522.833 -3.12248 0.8534 0
M  V30 5442 H 521.74 -2.24012 2.99616 0
M  V30 5443 H 523.073 -2.96304 3.9302 0
M  V30 5444 N 524.725 -1.39134 -0.740242 0
M  V30 5445 C 525.672 -1.37434 -1.8542 0
M  V30 5446 C 526.642 -0.234822 -1.64432 0
M  V30 5447 O 527.827 -0.429125 -1.85912 0
M  V30 5448 C 524.967 -1.21844 -3.22875 0
M  V30 5449 C 524.08 -2.45296 -3.55603 0
M  V30 5450 C 523.215 -2.22334 -4.82432 0
M  V30 5451 C 522.254 -3.41488 -5.07988 0
M  V30 5452 N 521.391 -3.17877 -6.26018 0
M  V30 5453 H 526.231 -2.3266 -1.86207 0
M  V30 5454 H 523.768 -1.15578 -0.909946 0
M  V30 5455 H 525.726 -1.10818 -4.02213 0
M  V30 5456 H 524.356 -0.3025 -3.21379 0
M  V30 5457 H 523.408 -2.66945 -2.71006 0
M  V30 5458 H 524.72 -3.34063 -3.7041 0
M  V30 5459 H 523.874 -2.0852 -5.69741 0
M  V30 5460 H 522.613 -1.30954 -4.6979 0
M  V30 5461 H 521.618 -3.55807 -4.19144 0
M  V30 5462 H 522.843 -4.33763 -5.22519 0
M  V30 5463 H 520.789 -2.29156 -6.14673 0
M  V30 5464 H 520.706 -4.00198 -6.41387 0
M  V30 5465 H 521.974 -3.07746 -7.16179 0
M  V30 5466 N 526.204 0.969867 -1.24223 0
M  V30 5467 C 527.434 1.74502 -1.106 0
M  V30 5468 C 527.842 1.86038 0.344483 0
M  V30 5469 O 527.185 1.3465 1.24961 0
M  V30 5470 C 527.247 3.18391 -1.66935 0
M  V30 5471 C 526.911 3.30334 -3.15798 0
M  V30 5472 C 527.908 3.15832 -4.12973 0
M  V30 5473 C 525.593 3.54644 -3.55715 0
M  V30 5474 C 527.587 3.25461 -5.48045 0
M  V30 5475 C 525.274 3.63912 -4.90929 0
M  V30 5476 C 526.272 3.49332 -5.86904 0
M  V30 5477 O 525.96 3.58251 -7.1966 0
M  V30 5478 H 525.692 0.554119 -0.387206 0
M  V30 5479 H 528.246 1.22646 -1.64764 0
M  V30 5480 H 526.476 3.71543 -1.07203 0
M  V30 5481 H 528.165 3.77707 -1.48634 0
M  V30 5482 H 528.931 2.96937 -3.83476 0
M  V30 5483 H 524.81 3.65059 -2.81519 0
M  V30 5484 H 528.354 3.13998 -6.22937 0
M  V30 5485 H 524.251 3.82319 -5.20098 0
M  V30 5486 H 525.019 3.7498 -7.27552 0
M  V30 5487 N 527.682 1.05563 1.17022 0
M  V30 5488 C 528.931 0.763036 1.8671 0
M  V30 5489 C 529.244 -0.712857 1.82147 0
M  V30 5490 O 530.45 -1.11955 2.47343 0
M  V30 5491 C 528.906 1.31474 3.35026 0
M  V30 5492 C 528.514 2.82034 3.48081 0
M  V30 5493 C 530.258 1.09935 4.10018 0
M  V30 5494 C 528.165 3.30486 4.90442 0
M  V30 5495 H 527.095 0.281747 0.699382 0
M  V30 5496 H 529.746 1.2734 1.32124 0
M  V30 5497 H 528.128 0.732171 3.89173 0
M  V30 5498 H 529.302 3.46178 3.04133 0
M  V30 5499 H 527.617 3.02156 2.86515 0
M  V30 5500 H 530.214 1.43632 5.15048 0
M  V30 5501 H 530.557 0.0373072 4.16283 0
M  V30 5502 H 531.09 1.64732 3.62089 0
M  V30 5503 H 527.829 4.36137 4.89352 0
M  V30 5504 H 527.349 2.71086 5.35044 0
M  V30 5505 H 529.028 3.25382 5.59227 0
M  V30 5506 N 529.16 -1.33526 0.837174 0
M  V30 5507 C 530.406 -1.9813 0.432704 0
M  V30 5508 C 530.739 -1.66168 -1.00508 0
M  V30 5509 O 530.014 -0.94069 -1.70239 0
M  V30 5510 C 530.297 -3.54151 0.651834 0
M  V30 5511 C 530.15 -3.95806 2.13676 0
M  V30 5512 C 531.469 -4.39993 0.0968937 0
M  V30 5513 H 528.588 -0.719713 0.15869 0
M  V30 5514 H 531.23 -1.58193 1.05237 0
M  V30 5515 H 529.38 -3.88301 0.124369 0
M  V30 5516 H 531.052 -3.71921 2.72896 0
M  V30 5517 H 529.295 -3.45599 2.62191 0
M  V30 5518 H 529.966 -5.0447 2.24084 0
M  V30 5519 H 532.442 -4.12479 0.547733 0
M  V30 5520 H 531.318 -5.48186 0.279917 0
M  V30 5521 H 531.579 -4.3066 -0.9992 0
M  V30 5522 N 530.638 -0.59345 -1.46 0
M  V30 5523 C 531.588 0.154751 -2.27474 0
M  V30 5524 C 532.572 0.851849 -1.365 0
M  V30 5525 O 533.764 0.744171 -1.60596 0
M  V30 5526 C 530.893 1.16079 -3.2308 0
M  V30 5527 C 529.979 0.465256 -4.2154 0
M  V30 5528 N 530.37 -0.485197 -5.03467 0
M  V30 5529 C 528.668 0.714634 -4.40237 0
M  V30 5530 C 529.369 -0.892709 -5.74809 0
M  V30 5531 N 528.345 -0.239511 -5.43072 0
M  V30 5532 H 532.147 -0.57546 -2.88211 0
M  V30 5533 H 529.661 -0.416046 -1.5698 0
M  V30 5534 H 531.658 1.71108 -3.80168 0
M  V30 5535 H 530.318 1.89171 -2.63903 0
M  V30 5536 H 531.329 -0.861258 -5.10689 0
M  V30 5537 H 528.006 1.43131 -3.92199 0
M  V30 5538 H 529.396 -1.67581 -6.50666 0
M  V30 5539 N 532.116 1.54067 -0.331816 0
M  V30 5540 C 533.063 2.24623 0.530372 0
M  V30 5541 C 534.033 1.24009 1.10503 0
M  V30 5542 O 535.218 1.52712 1.14384 0
M  V30 5543 C 532.358 3.01374 1.68129 0
M  V30 5544 C 531.471 4.16821 1.13507 0
M  V30 5545 C 530.606 4.81085 2.25234 0
M  V30 5546 C 529.645 5.88621 1.67903 0
M  V30 5547 N 528.782 6.46713 2.73326 0
M  V30 5548 H 533.622 2.97898 -0.0778607 0
M  V30 5549 H 531.159 1.47014 -0.0501965 0
M  V30 5550 H 533.117 3.44125 2.35868 0
M  V30 5551 H 531.747 2.30419 2.26069 0
M  V30 5552 H 530.799 3.78796 0.348979 0
M  V30 5553 H 532.111 4.94203 0.675633 0
M  V30 5554 H 531.265 5.26846 3.00862 0
M  V30 5555 H 530.004 4.03102 2.74518 0
M  V30 5556 H 529.009 5.42254 0.907773 0
M  V30 5557 H 530.234 6.68506 1.19487 0
M  V30 5558 H 528.18 5.71599 3.21886 0
M  V30 5559 H 528.097 7.19532 2.3197 0
M  V30 5560 H 529.365 6.97129 3.48758 0
M  V30 5561 N 533.594 0.0601682 1.57485 0
M  V30 5562 C 534.504 -0.926121 2.15546 0
M  V30 5563 C 535.52 -1.33532 1.11558 0
M  V30 5564 O 536.696 -1.4104 1.4377 0
M  V30 5565 C 533.761 -2.17952 2.69625 0
M  V30 5566 C 532.822 -1.82783 3.88444 0
M  V30 5567 C 532.055 -3.02148 4.39935 0
M  V30 5568 O 532.278 -4.15803 3.90466 0
M  V30 5569 O 531.212 -2.82639 5.31412 0
M  V30 5570 H 535.038 -0.462289 3.00161 0
M  V30 5571 H 532.623 -0.162246 1.48516 0
M  V30 5572 H 534.505 -2.91474 3.04337 0
M  V30 5573 H 533.18 -2.63456 1.88077 0
M  V30 5574 H 532.087 -1.06549 3.58606 0
M  V30 5575 H 533.42 -1.42072 4.7125 0
M  V30 5576 N 535.072 -1.5615 -0.213296 0
M  V30 5577 C 536.319 -1.79546 -0.936462 0
M  V30 5578 C 536.647 -0.630337 -1.84003 0
M  V30 5579 O 535.902 0.384883 -1.91878 0
M  V30 5580 C 536.201 -3.08772 -1.79985 0
M  V30 5581 C 535.867 -4.38532 -1.04882 0
M  V30 5582 C 534.529 -4.73787 -0.841393 0
M  V30 5583 C 536.881 -5.18609 -0.51907 0
M  V30 5584 C 534.209 -5.86627 -0.0924403 0
M  V30 5585 C 536.561 -6.32229 0.216581 0
M  V30 5586 C 535.225 -6.6608 0.435191 0
M  V30 5587 H 534.495 -0.657004 -0.342676 0
M  V30 5588 H 537.142 -1.9041 -0.204051 0
M  V30 5589 H 535.447 -2.93065 -2.60038 0
M  V30 5590 H 537.144 -3.24077 -2.36168 0
M  V30 5591 H 533.734 -4.10855 -1.22048 0
M  V30 5592 H 537.918 -4.91801 -0.666775 0
M  V30 5593 H 533.174 -6.11338 0.087081 0
M  V30 5594 H 537.348 -6.93503 0.634538 0
M  V30 5595 H 534.975 -7.5336 1.01746 0
M  V30 5596 N 536.55 0.480323 -1.50102 0
M  V30 5597 C 537.827 1.24159 -1.51142 0
M  V30 5598 C 538.207 2.09605 -0.250818 0
M  V30 5599 O 537.555 2.15274 0.766118 0
M  V30 5600 C 537.765 2.08057 -2.80202 0
M  V30 5601 C 539.113 2.66556 -3.30504 0
M  V30 5602 O 540.137 2.18308 -2.81461 0
M  V30 5603 O 538.996 3.54442 -4.15973 0
M  V30 5604 H 536.09 0.562928 -0.605839 0
M  V30 5605 H 538.636 0.492899 -1.62384 0
M  V30 5606 H 537.408 1.45032 -3.6343 0
M  V30 5607 H 537.031 2.90079 -2.71919 0
M  V30 5608 N 538.028 1.39524 0.732853 0
M  V30 5609 C 539.305 1.27373 1.48444 0
M  V30 5610 C 539.685 -0.115725 2.10783 0
M  V30 5611 O 539.033 -1.12713 1.98766 0
M  V30 5612 C 539.243 2.39966 2.53412 0
M  V30 5613 C 540.591 2.79384 3.19733 0
M  V30 5614 O 541.615 2.39431 2.63725 0
M  V30 5615 O 540.474 3.48353 4.21085 0
M  V30 5616 H 537.568 0.499272 0.659285 0
M  V30 5617 H 540.114 1.51403 0.766496 0
M  V30 5618 H 538.886 3.32845 2.05742 0
M  V30 5619 H 538.509 2.17612 3.32762 0
M  V30 5620 N 539.506 -0.963266 1.24736 0
M  V30 5621 C 540.783 -1.68248 0.9976 0
M  V30 5622 C 541.163 -2.05599 -0.478776 0
M  V30 5623 O 540.511 -1.7626 -1.45412 0
M  V30 5624 C 540.721 -2.91118 1.92487 0
M  V30 5625 C 542.069 -3.63261 2.19833 0
M  V30 5626 O 543.093 -3.01184 1.90176 0
M  V30 5627 O 541.952 -4.75019 2.7022 0
M  V30 5628 H 539.046 -0.735744 0.377637 0
M  V30 5629 H 541.592 -1.01696 1.35853 0
M  V30 5630 H 540.364 -2.60242 2.92215 0
M  V30 5631 H 539.987 -3.65402 1.56738 0
M  V30 5632 N 540.985 -1.06182 -1.16461 0
M  V30 5633 C 542.213 -0.798583 -1.90867 0
M  V30 5634 C 542.628 0.646921 -1.77371 0
M  V30 5635 O 541.985 1.44279 -1.11758 0
M  V30 5636 C 542.036 -1.18258 -3.4161 0
M  V30 5637 O 541.757 -2.57135 -3.54701 0
M  V30 5638 C 543.258 -0.946917 -4.33069 0
M  V30 5639 H 540.478 -0.289603 -0.605286 0
M  V30 5640 H 543.022 -1.41515 -1.47627 0
M  V30 5641 H 541.177 -0.610562 -3.82558 0
M  V30 5642 H 541.591 -2.72477 -4.4817 0
M  V30 5643 H 543.065 -1.26523 -5.37304 0
M  V30 5644 H 543.542 0.117406 -4.39043 0
M  V30 5645 H 544.148 -1.50326 -3.97847 0
M  V30 5646 N 542.463 1.3308 -0.844243 0
M  V30 5647 C 543.693 2.01515 -0.455541 0
M  V30 5648 C 544.101 1.63655 0.949406 0
M  V30 5649 O 543.444 0.84848 1.62931 0
M  V30 5650 C 543.506 3.55967 -0.502801 0
M  V30 5651 C 543.17 4.17222 -1.86481 0
M  V30 5652 C 544.167 4.36205 -2.8288 0
M  V30 5653 C 541.852 4.53528 -2.15911 0
M  V30 5654 C 543.846 4.90649 -4.06869 0
M  V30 5655 C 541.533 5.07679 -3.40155 0
M  V30 5656 C 542.531 5.26186 -4.35451 0
M  V30 5657 O 542.219 5.79183 -5.57496 0
M  V30 5658 H 541.951 0.65199 -0.178565 0
M  V30 5659 H 544.505 1.70867 -1.1399 0
M  V30 5660 H 542.735 3.85965 0.23836 0
M  V30 5661 H 544.424 4.05688 -0.131169 0
M  V30 5662 H 545.19 4.085 -2.61444 0
M  V30 5663 H 541.069 4.38414 -1.42528 0
M  V30 5664 H 544.613 5.0501 -4.81259 0
M  V30 5665 H 540.51 5.34815 -3.61446 0
M  V30 5666 H 541.278 5.97591 -5.5931 0
M  V30 5667 N 543.941 0.601185 1.45683 0
M  V30 5668 C 545.218 0.0261659 1.95582 0
M  V30 5669 C 545.598 -1.4399 1.5437 0
M  V30 5670 O 544.946 -2.13919 0.80318 0
M  V30 5671 C 545.156 0.217557 3.48321 0
M  V30 5672 C 546.504 0.0950076 4.24494 0
M  V30 5673 O 547.528 0.147345 3.55895 0
M  V30 5674 O 546.387 -0.025261 5.46494 0
M  V30 5675 H 543.481 -0.0393688 0.826062 0
M  V30 5676 H 546.027 0.670798 1.55879 0
M  V30 5677 H 544.799 1.23601 3.71266 0
M  V30 5678 H 544.422 -0.46264 3.94899 0
M  V30 5679 N 545.419 -1.53889 0.339982 0
M  V30 5680 C 546.367 -2.26391 -0.533822 0
M  V30 5681 C 547.361 -1.28404 -1.10493 0
M  V30 5682 O 548.567 -1.46124 -1.05108 0
M  V30 5683 H 544.942 -0.727385 -0.190828 0
M  V30 5684 H 546.913 -2.98233 0.0997484 0
M  V30 5685 C 545.662 -3.04707 -1.67479 0
M  V30 5686 H 544.985 -3.79934 -1.2446 0
M  V30 5687 H 546.425 -3.58657 -2.26144 0
M  V30 5688 C 544.884 -2.13989 -2.60212 0
M  V30 5689 O 545.414 -1.73361 -3.62366 0
M  V30 5690 N 543.62 -1.79141 -2.28816 0
M  V30 5691 H 543.167 -2.12378 -1.45785 0
M  V30 5692 H 543.125 -1.18725 -2.91121 0
M  V30 5693 N 546.897 -0.0685191 -1.57451 0
M  V30 5694 C 548.174 0.642167 -1.84758 0
M  V30 5695 C 548.554 1.87991 -0.960344 0
M  V30 5696 O 547.902 2.28485 -0.0257894 0
M  V30 5697 C 548.112 0.982946 -3.34872 0
M  V30 5698 C 549.46 1.35784 -4.02303 0
M  V30 5699 O 550.484 1.07477 -3.39598 0
M  V30 5700 O 549.343 1.88681 -5.12895 0
M  V30 5701 H 546.437 0.318625 -0.763156 0
M  V30 5702 H 548.983 -0.0992015 -1.6941 0
M  V30 5703 H 547.755 0.10372 -3.91163 0
M  V30 5704 H 547.378 1.78119 -3.55471 0
M  V30 5705 N 548.375 1.56261 0.205012 0
M  V30 5706 C 549.624 1.79236 0.925058 0
M  V30 5707 C 549.937 0.640011 1.84833 0
M  V30 5708 O 551.143 0.753809 2.60826 0
M  V30 5709 C 549.599 3.17475 1.69522 0
M  V30 5710 C 549.207 4.40482 0.817269 0
M  V30 5711 C 550.951 3.49766 2.4055 0
M  V30 5712 C 548.858 5.69744 1.58573 0
M  V30 5713 H 547.788 0.668287 0.349153 0
M  V30 5714 H 550.439 1.82629 0.178544 0
M  V30 5715 H 548.821 3.08304 2.48526 0
M  V30 5716 H 549.995 4.60752 0.0665988 0
M  V30 5717 H 548.31 4.15827 0.218316 0
M  V30 5718 H 550.907 4.43573 2.98575 0
M  V30 5719 H 551.25 2.73041 3.14252 0
M  V30 5720 H 551.783 3.60341 1.68522 0
M  V30 5721 H 548.522 6.49407 0.891679 0
M  V30 5722 H 548.042 5.53509 2.31059 0
M  V30 5723 H 549.721 6.1051 2.14212 0
M  V30 5724 N 549.853 -0.472356 1.50355 0
M  V30 5725 C 550.816 -1.5529 1.68576 0
M  V30 5726 C 551.816 -1.50863 0.556511 0
M  V30 5727 O 553.006 -1.53505 0.823516 0
M  V30 5728 C 550.138 -2.94921 1.70981 0
M  V30 5729 H 551.331 -1.40451 2.64978 0
M  V30 5730 H 548.884 -0.698645 1.39816 0
M  V30 5731 H 549.619 -3.15204 0.762675 0
M  V30 5732 H 549.404 -2.99541 2.53017 0
M  V30 5733 H 550.894 -3.73372 1.87037 0
M  V30 5734 N 551.331 -1.39911 -0.725443 0
M  V30 5735 C 552.261 -1.42138 -1.85254 0
M  V30 5736 C 553.242 -0.283513 -1.67721 0
M  V30 5737 O 554.427 -0.490717 -1.87898 0
M  V30 5738 C 551.557 -1.27354 -3.23107 0
M  V30 5739 C 550.511 -2.3864 -3.55296 0
M  V30 5740 C 549.837 -2.08939 -4.92188 0
M  V30 5741 C 551.137 -3.8097 -3.57295 0
M  V30 5742 H 552.831 -2.36461 -1.83648 0
M  V30 5743 H 550.377 -1.13817 -0.882138 0
M  V30 5744 H 552.33 -1.2753 -4.01639 0
M  V30 5745 H 551.054 -0.295025 -3.25265 0
M  V30 5746 H 549.713 -2.37696 -2.79099 0
M  V30 5747 H 549.361 -1.09502 -4.90936 0
M  V30 5748 H 549.061 -2.83491 -5.14691 0
M  V30 5749 H 550.585 -2.10781 -5.73065 0
M  V30 5750 H 551.999 -3.8379 -4.25885 0
M  V30 5751 H 550.396 -4.5496 -3.9132 0
M  V30 5752 H 551.466 -4.11261 -2.5689 0
M  V30 5753 N 552.809 0.956637 -1.25245 0
M  V30 5754 C 553.739 2.07058 -1.07931 0
M  V30 5755 C 554.72 1.70096 0.0110361 0
M  V30 5756 O 555.905 1.93555 -0.158121 0
M  V30 5757 C 553.035 3.40272 -0.695124 0
M  V30 5758 C 551.989 3.91235 -1.73549 0
M  V30 5759 C 551.315 5.20921 -1.20604 0
M  V30 5760 C 552.615 4.17837 -3.13385 0
M  V30 5761 H 554.309 2.218 -2.01109 0
M  V30 5762 H 551.855 1.06581 -0.968326 0
M  V30 5763 H 553.808 4.1765 -0.560949 0
M  V30 5764 H 552.532 3.25462 0.272355 0
M  V30 5765 H 551.191 3.16025 -1.85807 0
M  V30 5766 H 550.839 5.02479 -0.228846 0
M  V30 5767 H 550.539 5.55987 -1.90136 0
M  V30 5768 H 552.063 6.00897 -1.08421 0
M  V30 5769 H 553.477 4.8588 -3.04292 0
M  V30 5770 H 551.874 4.64154 -3.80369 0
M  V30 5771 H 552.944 3.2419 -3.60595 0
M  V30 5772 N 554.287 1.06798 1.15896 0
M  V30 5773 C 555.219 0.641263 2.20046 0
M  V30 5774 C 556.232 -0.303355 1.59949 0
M  V30 5775 O 557.421 -0.0935478 1.78255 0
M  V30 5776 C 554.521 -0.0794029 3.38807 0
M  V30 5777 C 553.694 0.879986 4.28457 0
M  V30 5778 C 552.753 0.197638 5.25829 0
M  V30 5779 O 551.779 0.836913 5.63014 0
M  V30 5780 N 552.981 -1.05886 5.70761 0
M  V30 5781 H 555.746 1.53718 2.57276 0
M  V30 5782 H 553.307 0.951951 1.30956 0
M  V30 5783 H 555.299 -0.546418 4.00994 0
M  V30 5784 H 553.869 -0.877193 3.0004 0
M  V30 5785 H 553.089 1.52625 3.63454 0
M  V30 5786 H 554.377 1.53065 4.8523 0
M  V30 5787 H 553.775 -1.59828 5.42652 0
M  V30 5788 H 552.332 -1.46965 6.35015 0
M  V30 5789 N 555.766 -1.3263 0.851289 0
M  V30 5790 C 556.696 -2.31449 0.308771 0
M  V30 5791 C 557.677 -1.59531 -0.590255 0
M  V30 5792 O 558.862 -1.87351 -0.511205 0
M  V30 5793 C 555.992 -3.43586 -0.506548 0
M  V30 5794 C 554.946 -4.26963 0.297753 0
M  V30 5795 C 554.272 -5.30831 -0.642094 0
M  V30 5796 C 555.572 -4.99643 1.52166 0
M  V30 5797 H 557.266 -2.77074 1.13447 0
M  V30 5798 H 554.812 -1.33207 0.546971 0
M  V30 5799 H 556.765 -4.11754 -0.896474 0
M  V30 5800 H 555.489 -2.96681 -1.36558 0
M  V30 5801 H 554.148 -3.60437 0.669391 0
M  V30 5802 H 553.796 -4.8018 -1.49788 0
M  V30 5803 H 553.496 -5.87501 -0.107968 0
M  V30 5804 H 555.02 -6.01862 -1.02927 0
M  V30 5805 H 556.434 -5.6051 1.20421 0
M  V30 5806 H 554.831 -5.66022 1.99347 0
M  V30 5807 H 555.901 -4.27701 2.28474 0
M  V30 5808 N 557.244 -0.608902 -1.45362 0
M  V30 5809 C 558.191 0.109172 -2.30542 0
M  V30 5810 C 559.161 0.858704 -1.42181 0
M  V30 5811 O 560.346 0.844178 -1.71109 0
M  V30 5812 C 557.486 1.09971 -3.27109 0
M  V30 5813 C 556.599 0.350911 -4.30572 0
M  V30 5814 C 555.734 1.33129 -5.14247 0
M  V30 5815 C 554.773 0.570377 -6.09437 0
M  V30 5816 N 553.91 1.5001 -6.85887 0
M  V30 5817 H 558.75 -0.623195 -2.91411 0
M  V30 5818 H 556.287 -0.319122 -1.43597 0
M  V30 5819 H 558.245 1.68714 -3.81564 0
M  V30 5820 H 556.875 1.79947 -2.67991 0
M  V30 5821 H 555.927 -0.352054 -3.78767 0
M  V30 5822 H 557.239 -0.242725 -4.98209 0
M  V30 5823 H 556.393 1.99074 -5.73109 0
M  V30 5824 H 555.132 1.95885 -4.46632 0
M  V30 5825 H 554.137 -0.102702 -5.49704 0
M  V30 5826 H 555.362 -0.0521607 -6.7908 0
M  V30 5827 H 553.308 2.11529 -6.2096 0
M  V30 5828 H 553.225 0.959934 -7.49881 0
M  V30 5829 H 554.493 2.14909 -7.49289 0
M  V30 5830 N 558.722 1.53707 -0.348139 0
M  V30 5831 C 559.947 2.05877 0.250883 0
M  V30 5832 C 560.372 1.22115 1.43072 0
M  V30 5833 O 559.73 0.235986 1.79758 0
M  V30 5834 C 559.778 3.54886 0.639416 0
M  V30 5835 O 558.882 3.73948 1.73888 0
M  V30 5836 H 558.223 0.662754 0.040653 0
M  V30 5837 H 560.753 1.98303 -0.503685 0
M  V30 5838 H 560.763 3.97601 0.915295 0
M  V30 5839 H 559.438 4.153 -0.223386 0
M  V30 5840 H 558.015 3.43134 1.45991 0
M  V30 5841 N 560.2 0.0768682 1.57412 0
M  V30 5842 C 561.477 -0.632359 1.85096 0
M  V30 5843 C 561.857 -1.87479 0.9703 0
M  V30 5844 O 561.205 -2.28469 0.0379062 0
M  V30 5845 C 561.415 -0.965174 3.35388 0
M  V30 5846 C 562.763 -1.33648 4.03018 0
M  V30 5847 O 563.787 -1.05675 3.40164 0
M  V30 5848 O 562.646 -1.85959 5.13889 0
M  V30 5849 H 559.74 -0.314574 0.764835 0
M  V30 5850 H 562.286 0.108184 1.69355 0
M  V30 5851 H 561.058 -0.0829745 3.91212 0
M  V30 5852 H 560.681 -1.76231 3.5641 0
M  V30 5853 N 561.678 -1.56367 -0.196722 0
M  V30 5854 C 562.903 -1.84991 -0.937714 0
M  V30 5855 C 563.328 -0.660244 -1.76132 0
M  V30 5856 O 562.686 0.390967 -1.77034 0
M  V30 5857 C 562.734 -3.11828 -1.81096 0
M  V30 5858 O 561.838 -2.92266 -2.90955 0
M  V30 5859 H 561.179 -0.609193 -0.264159 0
M  V30 5860 H 563.709 -2.03595 -0.202529 0
M  V30 5861 H 563.719 -3.42579 -2.21594 0
M  V30 5862 H 562.394 -3.98037 -1.2058 0
M  V30 5863 H 560.971 -2.72809 -2.54224 0
M  V30 5864 N 563.156 0.464375 -1.50603 0
M  V30 5865 C 564.381 1.24372 -1.65971 0
M  V30 5866 C 564.806 1.84901 -0.345453 0
M  V30 5867 O 564.164 1.67596 0.691457 0
M  V30 5868 C 564.212 2.32331 -2.7578 0
M  V30 5869 O 563.316 3.37146 -2.375 0
M  V30 5870 H 562.657 0.365604 -0.554283 0
M  V30 5871 H 565.187 0.55183 -1.97018 0
M  V30 5872 H 565.197 2.77539 -2.99059 0
M  V30 5873 H 563.872 1.87648 -3.71162 0
M  V30 5874 H 562.449 2.97602 -2.24694 0
M  V30 5875 N 564.634 1.40294 0.718013 0
M  V30 5876 C 566.05 1.2227 1.02577 0
M  V30 5877 C 566.25 0.0961976 2.0127 0
M  V30 5878 O 565.306 -0.546695 2.46511 0
M  V30 5879 C 566.619 2.56348 1.57182 0
M  V30 5880 C 568.167 2.6334 1.69178 0
M  V30 5881 C 568.642 3.9768 2.27188 0
M  V30 5882 N 570.133 3.99409 2.34578 0
M  V30 5883 C 570.868 5.00141 2.8044 0
M  V30 5884 N 570.364 6.11268 3.26073 0
M  V30 5885 N 572.157 4.87511 2.79802 0
M  V30 5886 H 564.308 2.12304 0.0637899 0
M  V30 5887 H 566.571 0.943632 0.0909036 0
M  V30 5888 H 566.277 3.3942 0.921262 0
M  V30 5889 H 566.151 2.77266 2.55741 0
M  V30 5890 H 568.538 1.80641 2.33351 0
M  V30 5891 H 568.619 2.46255 0.692247 0
M  V30 5892 H 568.263 4.80817 1.63638 0
M  V30 5893 H 568.193 4.12093 3.27852 0
M  V30 5894 H 570.684 3.19162 2.02346 0
M  V30 5895 H 570.997 6.84023 3.59628 0
M  V30 5896 H 569.342 6.14837 3.24038 0
M  V30 5897 H 572.533 3.9979 2.43487 0
M  V30 5898 H 572.706 5.66158 3.15228 0
M  V30 5899 N 566.112 -0.949982 1.2575 0
M  V30 5900 C 567.352 -1.70994 1.11984 0
M  V30 5901 C 567.716 -1.89095 -0.332746 0
M  V30 5902 O 568.917 -2.62192 -0.592331 0
M  V30 5903 C 567.188 -3.05286 1.85837 0
M  V30 5904 S 568.747 -3.96477 1.88019 0
M  V30 5905 H 565.565 -0.587689 0.400178 0
M  V30 5906 H 568.167 -1.13271 1.59342 0
M  V30 5907 H 566.871 -2.89785 2.90608 0
M  V30 5908 H 566.402 -3.68069 1.38885 0
M  V30 5909 H 568.417 -4.86814 0.96057 0
M  V30 5910 N 567.59 -1.07411 -1.15328 0
M  V30 5911 C 568.553 -0.698914 -2.18284 0
M  V30 5912 C 569.553 0.261149 -1.58665 0
M  V30 5913 O 570.743 0.0420277 -1.74149 0
M  V30 5914 C 567.875 -0.0302427 -3.40887 0
M  V30 5915 H 569.068 -1.61045 -2.52991 0
M  V30 5916 H 566.621 -0.870724 -1.298 0
M  V30 5917 H 567.356 0.893505 -3.11748 0
M  V30 5918 H 567.141 -0.720759 -3.85419 0
M  V30 5919 H 568.631 0.21759 -4.17033 0
M  V30 5920 N 569.068 1.32177 -0.85831 0
M  V30 5921 C 570 2.27688 -0.262835 0
M  V30 5922 C 571.013 1.52588 0.567513 0
M  V30 5923 O 572.202 1.74156 0.391407 0
M  V30 5924 C 569.302 3.32668 0.646937 0
M  V30 5925 C 568.475 4.37148 -0.148372 0
M  V30 5926 C 567.534 5.21686 0.687728 0
M  V30 5927 O 566.56 5.69074 0.119934 0
M  V30 5928 N 567.762 5.44892 2.00182 0
M  V30 5929 H 570.527 2.79426 -1.08356 0
M  V30 5930 H 568.088 1.45076 -0.718647 0
M  V30 5931 H 570.08 3.86134 1.2117 0
M  V30 5932 H 568.65 2.81061 1.36834 0
M  V30 5933 H 567.87 3.83915 -0.894572 0
M  V30 5934 H 569.158 5.04038 -0.694514 0
M  V30 5935 H 568.556 5.08128 2.4864 0
M  V30 5936 H 567.113 6.0134 2.51463 0
M  V30 5937 N 570.547 0.616602 1.45037 0
M  V30 5938 C 571.457 -0.0985401 2.34393 0
M  V30 5939 C 572.473 -0.850971 1.51771 0
M  V30 5940 O 573.649 -0.806521 1.84546 0
M  V30 5941 C 570.714 -1.07748 3.29532 0
M  V30 5942 C 569.775 -0.326022 4.2806 0
M  V30 5943 C 569.008 -1.25833 5.18654 0
M  V30 5944 O 569.231 -2.49652 5.12864 0
M  V30 5945 O 568.165 -0.750512 5.97203 0
M  V30 5946 H 571.991 0.636016 2.96966 0
M  V30 5947 H 569.576 0.376832 1.44569 0
M  V30 5948 H 571.458 -1.64107 3.88133 0
M  V30 5949 H 570.133 -1.79291 2.69512 0
M  V30 5950 H 569.04 0.280253 3.73049 0
M  V30 5951 H 570.373 0.349091 4.9096 0
M  V30 5952 N 572.025 -1.5352 0.356285 0
M  V30 5953 C 573.25 -2.06007 -0.239961 0
M  V30 5954 C 573.675 -1.22872 -1.42422 0
M  V30 5955 O 573.033 -0.245516 -1.7963 0
M  V30 5956 C 573.081 -3.5522 -0.620587 0
M  V30 5957 O 572.185 -3.74864 -1.71902 0
M  V30 5958 H 571.526 -0.662961 -0.0371377 0
M  V30 5959 H 574.056 -1.98033 0.514194 0
M  V30 5960 H 574.066 -3.98081 -0.894197 0
M  V30 5961 H 572.741 -4.15175 0.245407 0
M  V30 5962 H 571.318 -3.43904 -1.44169 0
M  V30 5963 N 573.503 -0.0852151 -1.57369 0
M  V30 5964 C 574.728 0.592872 -1.98746 0
M  V30 5965 C 575.153 1.61538 -0.963689 0
M  V30 5966 O 574.511 1.81168 0.069071 0
M  V30 5967 C 574.559 1.22599 -3.39119 0
M  V30 5968 O 573.663 2.34185 -3.39457 0
M  V30 5969 H 573.004 0.151314 -0.646529 0
M  V30 5970 H 575.534 -0.163703 -2.03944 0
M  V30 5971 H 575.544 1.56965 -3.76598 0
M  V30 5972 H 574.219 0.476831 -4.13158 0
M  V30 5973 H 572.796 2.01512 -3.13763 0
M  V30 5974 N 574.981 1.5647 0.188427 0
M  V30 5975 C 576.227 1.81281 0.909124 0
M  V30 5976 C 576.56 0.66034 1.82628 0
M  V30 5977 O 575.835 -0.338737 1.91528 0
M  V30 5978 C 576.118 3.16388 1.7196 0
M  V30 5979 C 575.971 4.42137 0.826714 0
M  V30 5980 C 577.29 3.48256 2.69083 0
M  V30 5981 H 574.409 0.659457 0.329068 0
M  V30 5982 H 577.051 1.89182 0.176156 0
M  V30 5983 H 575.201 3.09784 2.34448 0
M  V30 5984 H 576.873 4.60794 0.216025 0
M  V30 5985 H 575.116 4.33594 0.133792 0
M  V30 5986 H 575.787 5.33184 1.42893 0
M  V30 5987 H 578.263 3.55203 2.16726 0
M  V30 5988 H 577.139 4.43899 3.2287 0
M  V30 5989 H 577.4 2.72088 3.48455 0
M  V30 5990 N 576.459 -0.456382 1.50847 0
M  V30 5991 C 577.705 -1.20914 1.62811 0
M  V30 5992 C 578.038 -1.91301 0.334304 0
M  V30 5993 O 577.313 -1.82775 -0.665098 0
M  V30 5994 C 577.596 -2.24122 2.81853 0
M  V30 5995 C 577.449 -1.57944 4.21158 0
M  V30 5996 C 578.768 -3.25295 2.96431 0
M  V30 5997 H 575.887 -0.438233 0.592554 0
M  V30 5998 H 578.529 -0.50091 1.83278 0
M  V30 5999 H 576.679 -2.84524 2.64534 0
M  V30 6000 H 578.351 -1.01025 4.50102 0
M  V30 6001 H 576.594 -0.882185 4.24735 0
M  V30 6002 H 577.265 -2.33014 5.00408 0
M  V30 6003 H 579.741 -2.7493 3.12335 0
M  V30 6004 H 578.617 -3.94822 3.81322 0
M  V30 6005 H 578.878 -3.90286 2.07676 0
M  V30 6006 N 577.937 -1.40673 -0.710563 0
M  V30 6007 C 579.353 -1.22813 -1.01928 0
M  V30 6008 C 579.553 -0.10687 -2.01216 0
M  V30 6009 O 578.609 0.533614 -2.46797 0
M  V30 6010 C 579.922 -2.57178 -1.5582 0
M  V30 6011 C 581.47 -2.64233 -1.67779 0
M  V30 6012 C 581.945 -3.98879 -2.25076 0
M  V30 6013 N 583.436 -4.00647 -2.32456 0
M  V30 6014 C 584.171 -5.01621 -2.77784 0
M  V30 6015 N 583.667 -6.12989 -3.22826 0
M  V30 6016 N 585.46 -4.88988 -2.77213 0
M  V30 6017 H 577.611 -2.12335 -0.05253 0
M  V30 6018 H 579.874 -0.9441 -0.085898 0
M  V30 6019 H 579.58 -3.39903 -0.903249 0
M  V30 6020 H 579.454 -2.78618 -2.54267 0
M  V30 6021 H 581.841 -1.81876 -2.3239 0
M  V30 6022 H 581.922 -2.46619 -0.679178 0
M  V30 6023 H 581.566 -4.81678 -1.61086 0
M  V30 6024 H 581.496 -4.13826 -3.25661 0
M  V30 6025 H 583.987 -3.20231 -2.0065 0
M  V30 6026 H 584.3 -6.85921 -3.55995 0
M  V30 6027 H 582.645 -6.16547 -3.20773 0
M  V30 6028 H 585.836 -4.01075 -2.41363 0
M  V30 6029 H 586.009 -5.67822 -3.12221 0
M  V30 6030 N 579.415 0.9433 -1.26252 0
M  V30 6031 C 580.643 1.72367 -1.14443 0
M  V30 6032 C 581.058 1.86392 0.300572 0
M  V30 6033 O 580.415 1.36978 1.20596 0
M  V30 6034 C 580.466 3.13155 -1.806 0
M  V30 6035 O 580.187 2.99803 -3.19452 0
M  V30 6036 C 581.688 4.07417 -1.74717 0
M  V30 6037 H 578.908 0.539758 -0.398626 0
M  V30 6038 H 581.452 1.18268 -1.66832 0
M  V30 6039 H 579.607 3.64162 -1.32154 0
M  V30 6040 H 580.021 3.88697 -3.52158 0
M  V30 6041 H 581.495 5.03773 -2.25647 0
M  V30 6042 H 581.972 4.3337 -0.713244 0
M  V30 6043 H 582.578 3.6233 -2.22704 0
M  V30 6044 N 580.893 1.08022 1.14757 0
M  V30 6045 C 582.139 0.808705 1.85978 0
M  V30 6046 C 582.472 -0.663764 1.82504 0
M  V30 6047 O 581.747 -1.48765 1.25296 0
M  V30 6048 C 582.03 1.32623 3.34788 0
M  V30 6049 C 581.883 2.86375 3.46856 0
M  V30 6050 C 583.202 0.948291 4.29762 0
M  V30 6051 H 580.321 0.295244 0.675278 0
M  V30 6052 H 582.963 1.33917 1.34783 0
M  V30 6053 H 581.113 0.875002 3.78518 0
M  V30 6054 H 582.785 3.39839 3.11941 0
M  V30 6055 H 581.028 3.24232 2.88194 0
M  V30 6056 H 581.699 3.17658 4.51439 0
M  V30 6057 H 584.175 1.33722 3.94028 0
M  V30 6058 H 583.051 1.33765 5.32352 0
M  V30 6059 H 583.312 -0.145094 4.41862 0
M  V30 6060 N 582.371 -1.3172 0.865308 0
M  V30 6061 C 583.611 -1.98675 0.480365 0
M  V30 6062 C 583.975 -1.66929 -0.948621 0
M  V30 6063 O 585.176 -2.27059 -1.43867 0
M  V30 6064 C 583.447 -3.49972 0.724858 0
M  V30 6065 S 585.006 -4.36598 0.439078 0
M  V30 6066 H 581.824 -0.687967 0.179506 0
M  V30 6067 H 584.426 -1.60215 1.12033 0
M  V30 6068 H 583.13 -3.70567 1.76375 0
M  V30 6069 H 582.661 -3.93335 0.0717173 0
M  V30 6070 H 584.676 -4.90792 -0.730564 0
M  V30 6071 N 583.85 -0.624285 -1.44708 0
M  V30 6072 C 584.779 0.0717025 -2.3339 0
M  V30 6073 C 585.76 0.841814 -1.47809 0
M  V30 6074 O 586.946 0.809056 -1.76544 0
M  V30 6075 C 584.076 1.05852 -3.30776 0
M  V30 6076 C 583.029 0.400503 -4.26122 0
M  V30 6077 C 582.356 1.49674 -5.13324 0
M  V30 6078 C 583.656 -0.688924 -5.17737 0
M  V30 6079 H 585.35 -0.668819 -2.91834 0
M  V30 6080 H 582.896 -0.32308 -1.40329 0
M  V30 6081 H 584.849 1.5541 -3.91696 0
M  V30 6082 H 583.572 1.82984 -2.70526 0
M  V30 6083 H 582.231 -0.0743687 -3.66525 0
M  V30 6084 H 581.88 2.25877 -4.49431 0
M  V30 6085 H 581.58 1.06188 -5.77926 0
M  V30 6086 H 583.104 1.99427 -5.77115 0
M  V30 6087 H 584.518 -0.276724 -5.72632 0
M  V30 6088 H 582.915 -1.04652 -5.90904 0
M  V30 6089 H 583.985 -1.55884 -4.5916 0
M  V30 6090 N 585.328 1.53329 -0.364422 0
M  V30 6091 C 586.739 1.86345 0.115039 0
M  V30 6092 C 587.09 1.28505 1.4826 0
M  V30 6093 O 586.215 0.606639 2.07723 0
M  V30 6094 C 586.81 3.38114 0.215522 0
M  V30 6095 C 585.369 3.70932 0.639237 0
M  V30 6096 C 584.516 2.76471 -0.214261 0
M  V30 6097 H 587.467 1.47593 -0.583258 0
M  V30 6098 H 587.488 3.66031 1.0393 0
M  V30 6099 H 587 3.80182 -0.779948 0
M  V30 6100 H 585.101 3.3442 1.64298 0
M  V30 6101 H 585.214 4.77302 0.41465 0
M  V30 6102 H 583.578 2.52724 0.316678 0
M  V30 6103 H 584.361 3.21373 -1.20725 0
M  V30 6104 N 586.806 0.0935595 1.57322 0
M  V30 6105 C 588.217 -0.435807 1.81542 0
M  V30 6106 C 588.568 -1.68263 1.00907 0
M  V30 6107 O 587.693 -2.15087 0.237983 0
M  V30 6108 C 588.288 -0.797436 3.29282 0
M  V30 6109 C 586.847 -1.27155 3.54272 0
M  V30 6110 C 585.994 -0.267455 2.76007 0
M  V30 6111 H 588.945 0.31902 1.5546 0
M  V30 6112 H 588.966 -1.6571 3.42521 0
M  V30 6113 H 588.478 0.110206 3.87943 0
M  V30 6114 H 586.579 -2.19696 3.00939 0
M  V30 6115 H 586.692 -1.23445 4.62923 0
M  V30 6116 H 585.056 -0.749282 2.43429 0
M  V30 6117 H 585.839 0.632839 3.37417 0
M  V30 6118 N 588.284 -1.56567 -0.180126 0
M  V30 6119 C 589.247 -1.94852 -1.20686 0
M  V30 6120 C 590.247 -0.831212 -1.3765 0
M  V30 6121 O 591.437 -1.09841 -1.35206 0
M  V30 6122 C 588.569 -2.23565 -2.57355 0
M  V30 6123 H 589.762 -2.86722 -0.879225 0
M  V30 6124 H 587.315 -1.50489 -0.422237 0
M  V30 6125 H 588.05 -1.34381 -2.95148 0
M  V30 6126 H 587.835 -3.04999 -2.46411 0
M  V30 6127 H 589.325 -2.54137 -3.31367 0
M  V30 6128 N 589.762 0.448376 -1.51087 0
M  V30 6129 C 591.039 1.20926 -1.53741 0
M  V30 6130 C 591.419 2.09025 -0.295222 0
M  V30 6131 O 590.767 2.16851 0.720283 0
M  V30 6132 C 590.977 2.02067 -2.84552 0
M  V30 6133 C 592.325 2.59486 -3.36084 0
M  V30 6134 O 593.349 2.12289 -2.86028 0
M  V30 6135 O 592.208 3.45539 -4.23397 0
M  V30 6136 H 589.302 0.549951 -0.617643 0
M  V30 6137 H 591.848 0.458344 -1.63393 0
M  V30 6138 H 590.62 1.37291 -3.66425 0
M  V30 6139 H 590.243 2.84246 -2.78011 0
M  V30 6140 N 591.24 1.41047 0.703093 0
M  V30 6141 C 592.17 1.45067 1.82969 0
M  V30 6142 C 593.151 0.31016 1.67248 0
M  V30 6143 O 594.336 0.520548 1.87093 0
M  V30 6144 C 591.466 1.32478 3.2104 0
M  V30 6145 C 590.42 2.44262 3.51454 0
M  V30 6146 C 589.746 2.16742 4.88801 0
M  V30 6147 C 591.046 3.86606 3.51189 0
M  V30 6148 H 592.74 2.39353 1.79863 0
M  V30 6149 H 590.286 1.15206 0.863919 0
M  V30 6150 H 592.239 1.33904 3.99559 0
M  V30 6151 H 590.963 0.346735 3.24754 0
M  V30 6152 H 589.622 2.42107 2.75282 0
M  V30 6153 H 589.27 1.17299 4.89132 0
M  V30 6154 H 588.97 2.91643 5.10116 0
M  V30 6155 H 590.494 2.19872 5.69639 0
M  V30 6156 H 591.908 3.90517 4.19725 0
M  V30 6157 H 590.305 4.61128 3.84033 0
M  V30 6158 H 591.375 4.15296 2.50315 0
M  V30 6159 N 592.718 -0.936591 1.26751 0
M  V30 6160 C 593.65 -2.03991 1.045 0
M  V30 6161 C 594.663 -1.628 0.00394261 0
M  V30 6162 O 595.852 -1.76817 0.244526 0
M  V30 6163 C 592.952 -3.34218 0.561403 0
M  V30 6164 C 592.125 -4.04151 1.67274 0
M  V30 6165 C 591.184 -5.12651 1.1864 0
M  V30 6166 O 590.21 -5.37104 1.88437 0
M  V30 6167 N 591.412 -5.80488 0.037278 0
M  V30 6168 H 594.177 -2.23644 1.99508 0
M  V30 6169 H 591.738 -1.10638 1.18198 0
M  V30 6170 H 593.73 -4.04101 0.220136 0
M  V30 6171 H 592.3 -3.11203 -0.295211 0
M  V30 6172 H 591.52 -3.28121 2.18472 0
M  V30 6173 H 592.808 -4.47626 2.41885 0
M  V30 6174 H 592.206 -5.63064 -0.545494 0
M  V30 6175 H 590.763 -6.5134 -0.244877 0
M  V30 6176 N 594.196 -1.08629 -1.14182 0
M  V30 6177 C 595.126 -0.740003 -2.21464 0
M  V30 6178 C 596.107 0.278591 -1.67803 0
M  V30 6179 O 597.292 0.148461 -1.93632 0
M  V30 6180 C 594.422 -0.150952 -3.46972 0
M  V30 6181 C 593.376 -1.09815 -4.13672 0
M  V30 6182 C 592.702 -0.3712 -5.3341 0
M  V30 6183 C 594.002 -2.43722 -4.61949 0
M  V30 6184 H 595.696 -1.63697 -2.50686 0
M  V30 6185 H 593.242 -0.788526 -1.20492 0
M  V30 6186 H 595.195 0.103325 -4.21273 0
M  V30 6187 H 593.919 0.781164 -3.1712 0
M  V30 6188 H 592.578 -1.33756 -3.41328 0
M  V30 6189 H 592.226 0.564792 -4.99819 0
M  V30 6190 H 591.926 -1.00267 -5.78982 0
M  V30 6191 H 593.45 -0.12503 -6.10472 0
M  V30 6192 H 594.864 -2.24034 -5.27714 0
M  V30 6193 H 593.261 -3.02582 -5.18232 0
M  V30 6194 H 594.331 -3.05082 -3.76899 0
M  V30 6195 N 595.674 1.31259 -0.872281 0
M  V30 6196 C 597.085 1.78822 -0.536617 0
M  V30 6197 C 597.436 1.71855 0.946594 0
M  V30 6198 O 596.561 1.28769 1.73918 0
M  V30 6199 C 597.156 3.24698 -0.967294 0
M  V30 6200 C 595.715 3.70147 -0.683251 0
M  V30 6201 C 594.862 2.51994 -1.15733 0
M  V30 6202 H 597.813 1.18308 -1.05777 0
M  V30 6203 H 597.834 3.79386 -0.290929 0
M  V30 6204 H 597.346 3.29737 -2.04683 0
M  V30 6205 H 595.447 3.70607 0.384825 0
M  V30 6206 H 595.56 4.62183 -1.2619 0
M  V30 6207 H 593.924 2.48078 -0.577024 0
M  V30 6208 H 594.707 2.59778 -2.24434 0
M  V30 6209 N 597.152 0.631951 1.44375 0
M  V30 6210 C 598.429 0.067646 1.95483 0
M  V30 6211 C 598.809 -1.40683 1.57389 0
M  V30 6212 O 598.157 -2.12167 0.848375 0
M  V30 6213 C 598.367 0.291392 3.47781 0
M  V30 6214 C 599.715 0.185028 4.24197 0
M  V30 6215 O 600.739 0.222803 3.55503 0
M  V30 6216 O 599.598 0.0906642 5.46425 0
M  V30 6217 H 596.692 -0.0218379 0.826712 0
M  V30 6218 H 599.238 0.703711 1.54421 0
M  V30 6219 H 598.01 1.31449 3.68561 0
M  V30 6220 H 597.633 -0.378772 3.95792 0
M  V30 6221 N 598.631 -1.53133 0.372548 0
M  V30 6222 C 599.877 -2.02336 -0.207823 0
M  V30 6223 C 600.232 -1.25477 -1.45853 0
M  V30 6224 O 599.525 -0.341971 -1.88524 0
M  V30 6225 C 599.719 -3.53206 -0.545938 0
M  V30 6226 C 599.548 -4.44674 0.670454 0
M  V30 6227 C 598.318 -4.91217 1.18465 0
M  V30 6228 C 600.516 -4.90772 1.53777 0
M  V30 6229 N 598.498 -5.66711 2.36034 0
M  V30 6230 C 599.869 -5.64678 2.56004 0
M  V30 6231 C 601.924 -4.72836 1.55983 0
M  V30 6232 C 600.627 -6.22555 3.60303 0
M  V30 6233 C 602.653 -5.31583 2.59179 0
M  V30 6234 C 602.015 -6.05381 3.6013 0
M  V30 6235 H 598.114 -0.781048 -0.0385783 0
M  V30 6236 H 600.698 -1.87665 0.518664 0
M  V30 6237 H 598.869 -3.68024 -1.24149 0
M  V30 6238 H 600.601 -3.89123 -1.112 0
M  V30 6239 H 597.356 -4.67652 0.748205 0
M  V30 6240 H 597.78 -6.09117 2.95475 0
M  V30 6241 H 602.422 -4.15299 0.792877 0
M  V30 6242 H 600.14 -6.79183 4.37876 0
M  V30 6243 H 603.726 -5.19595 2.61749 0
M  V30 6244 H 602.606 -6.50028 4.38672 0
M  V30 6245 N 600.109 -0.101901 -1.5727 0
M  V30 6246 C 601.337 0.568392 -1.98939 0
M  V30 6247 C 601.752 1.61301 -0.981194 0
M  V30 6248 O 601.109 1.82478 0.0282869 0
M  V30 6249 C 601.16 1.20997 -3.40649 0
M  V30 6250 O 600.881 0.207129 -4.3761 0
M  V30 6251 C 602.382 1.96523 -3.97358 0
M  V30 6252 H 599.602 0.15186 -0.65359 0
M  V30 6253 H 602.146 -0.183198 -2.03678 0
M  V30 6254 H 600.301 1.91245 -3.36904 0
M  V30 6255 H 600.715 0.671071 -5.20189 0
M  V30 6256 H 602.189 2.36764 -4.98645 0
M  V30 6257 H 602.666 2.83376 -3.35552 0
M  V30 6258 H 603.272 1.31076 -4.04598 0
M  V30 6259 N 601.587 1.56661 0.17182 0
M  V30 6260 C 602.497 1.99604 1.2327 0
M  V30 6261 C 603.513 0.907333 1.4847 0
M  V30 6262 O 604.689 1.21492 1.60629 0
M  V30 6263 C 601.754 2.34685 2.55194 0
M  V30 6264 C 600.815 3.57381 2.3786 0
M  V30 6265 C 600.048 3.90779 3.63494 0
M  V30 6266 O 600.271 3.25152 4.6865 0
M  V30 6267 O 599.205 4.84129 3.57634 0
M  V30 6268 H 603.031 2.90114 0.898192 0
M  V30 6269 H 600.616 1.44522 0.378647 0
M  V30 6270 H 602.498 2.5822 3.33017 0
M  V30 6271 H 601.173 1.47336 2.88225 0
M  V30 6272 H 600.08 3.39064 1.5807 0
M  V30 6273 H 601.413 4.45268 2.09754 0
M  V30 6274 N 603.065 -0.440357 1.51323 0
M  V30 6275 C 604.305 -1.19956 1.65499 0
M  V30 6276 C 604.669 -1.88559 0.361878 0
M  V30 6277 O 605.87 -2.66109 0.379383 0
M  V30 6278 C 604.141 -2.1918 2.82303 0
M  V30 6279 S 605.7 -3.03627 3.1679 0
M  V30 6280 H 602.518 -0.406833 0.583102 0
M  V30 6281 H 605.12 -0.491596 1.89218 0
M  V30 6282 H 603.824 -1.67414 3.74701 0
M  V30 6283 H 603.355 -2.94561 2.60763 0
M  V30 6284 H 605.37 -4.20773 2.62991 0
M  V30 6285 N 604.543 -1.41418 -0.695603 0
M  V30 6286 C 605.453 -1.45622 -1.83933 0
M  V30 6287 C 606.469 -0.346825 -1.70508 0
M  V30 6288 O 607.645 -0.59454 -1.92424 0
M  V30 6289 C 604.71 -1.33627 -3.19914 0
M  V30 6290 C 603.771 -2.54882 -3.45447 0
M  V30 6291 C 603.004 -2.43449 -4.7494 0
M  V30 6292 O 603.227 -1.45905 -5.51424 0
M  V30 6293 O 602.161 -3.33206 -5.01256 0
M  V30 6294 H 605.987 -2.42114 -1.83342 0
M  V30 6295 H 603.572 -1.22956 -0.848658 0
M  V30 6296 H 605.454 -1.29221 -4.01098 0
M  V30 6297 H 604.129 -0.402508 -3.21188 0
M  V30 6298 H 603.036 -2.64865 -2.64192 0
M  V30 6299 H 604.369 -3.47087 -3.48987 0
M  V30 6300 N 606.021 0.929856 -1.27246 0
M  V30 6301 C 606.951 2.04722 -1.12299 0
M  V30 6302 C 607.932 1.70082 -0.0250464 0
M  V30 6303 O 609.117 1.93176 -0.199141 0
M  V30 6304 C 606.247 3.38721 -0.767145 0
M  V30 6305 C 605.201 3.87466 -1.81808 0
M  V30 6306 C 604.527 5.18246 -1.31626 0
M  V30 6307 C 605.827 4.11095 -3.22177 0
M  V30 6308 H 607.521 2.17485 -2.05769 0
M  V30 6309 H 605.067 1.04503 -0.990715 0
M  V30 6310 H 607.02 4.16366 -0.649413 0
M  V30 6311 H 605.744 3.25967 0.203259 0
M  V30 6312 H 604.403 3.12012 -1.92468 0
M  V30 6313 H 604.051 5.01881 -0.335378 0
M  V30 6314 H 603.751 5.51829 -2.01887 0
M  V30 6315 H 605.275 5.98462 -1.21143 0
M  V30 6316 H 606.689 4.79316 -3.1453 0
M  V30 6317 H 605.086 4.55982 -3.90129 0
M  V30 6318 H 606.156 3.16468 -3.67391 0
M  V30 6319 N 607.499 1.09233 1.13605 0
M  V30 6320 C 608.724 0.849067 1.89224 0
M  V30 6321 C 609.149 -0.593875 1.78479 0
M  V30 6322 O 608.507 -1.41703 1.13092 0
M  V30 6323 C 608.555 1.28642 3.36873 0
M  V30 6324 O 607.659 0.44363 4.10007 0
M  V30 6325 H 607 0.30767 0.588417 0
M  V30 6326 H 609.53 1.45595 1.43748 0
M  V30 6327 H 609.54 1.27096 3.87699 0
M  V30 6328 H 608.215 2.33729 3.44011 0
M  V30 6329 H 606.792 0.523241 3.69211 0
M  V30 6330 N 608.977 -1.30795 0.87923 0
M  V30 6331 C 610.225 -1.95974 0.493809 0
M  V30 6332 C 610.546 -1.69787 -0.959021 0
M  V30 6333 O 609.816 -1.01832 -1.67353 0
M  V30 6334 H 608.396 -0.725083 0.179622 0
M  V30 6335 H 611.058 -1.59432 1.12105 0
M  V30 6336 H 610.154 -3.05058 0.659263 0
M  V30 6337 N 610.455 -0.639598 -1.44038 0
M  V30 6338 C 611.685 -0.154586 -2.06021 0
M  V30 6339 C 612.093 1.17951 -1.47933 0
M  V30 6340 O 611.436 1.73627 -0.59994 0
M  V30 6341 C 611.498 0.0255459 -3.59491 0
M  V30 6342 C 611.162 -1.2317 -4.40089 0
M  V30 6343 C 612.159 -2.15735 -4.73027 0
M  V30 6344 C 609.844 -1.46949 -4.80324 0
M  V30 6345 C 611.838 -3.30382 -5.45093 0
M  V30 6346 C 609.525 -2.61891 -5.52138 0
M  V30 6347 C 610.523 -3.53433 -5.84443 0
M  V30 6348 O 610.211 -4.6637 -6.54793 0
M  V30 6349 H 609.943 -0.0808543 -0.671147 0
M  V30 6350 H 612.497 -0.876541 -1.85758 0
M  V30 6351 H 610.727 0.802733 -3.78276 0
M  V30 6352 H 612.416 0.466184 -4.03214 0
M  V30 6353 H 613.182 -1.98602 -4.42473 0
M  V30 6354 H 609.061 -0.765815 -4.54595 0
M  V30 6355 H 612.605 -4.01856 -5.70226 0
M  V30 6356 H 608.502 -2.78964 -5.82108 0
M  V30 6357 H 609.27 -4.6546 -6.73267 0
M  V30 6358 N 611.933 1.52934 -0.380664 0
M  V30 6359 C 613.181 2.01069 0.203874 0
M  V30 6360 C 613.502 1.26922 1.4804 0
M  V30 6361 O 612.772 0.386787 1.92044 0
M  V30 6362 H 611.352 0.742882 0.0783279 0
M  V30 6363 H 614.014 1.88099 -0.510368 0
M  V30 6364 H 613.11 3.09258 0.42021 0
M  V30 6365 N 613.412 0.11024 1.57214 0
M  V30 6366 C 614.359 -0.843195 2.14846 0
M  V30 6367 C 615.329 -1.26954 1.07107 0
M  V30 6368 O 616.514 -1.34861 1.34971 0
M  V30 6369 C 613.654 -2.09123 2.74521 0
M  V30 6370 C 612.767 -1.71404 3.96541 0
M  V30 6371 C 611.902 -2.91107 4.44331 0
M  V30 6372 C 610.941 -2.49586 5.58903 0
M  V30 6373 N 610.078 -3.62175 6.01477 0
M  V30 6374 H 614.918 -0.344886 2.95998 0
M  V30 6375 H 612.455 -0.15855 1.46243 0
M  V30 6376 H 614.413 -2.82234 3.07246 0
M  V30 6377 H 613.043 -2.56427 1.96074 0
M  V30 6378 H 612.095 -0.88201 3.70033 0
M  V30 6379 H 613.407 -1.36884 4.7965 0
M  V30 6380 H 612.561 -3.72454 4.78919 0
M  V30 6381 H 611.3 -3.28848 3.60153 0
M  V30 6382 H 610.305 -1.6667 5.23929 0
M  V30 6383 H 611.53 -2.12973 6.4484 0
M  V30 6384 H 609.476 -3.99605 5.20242 0
M  V30 6385 H 609.393 -3.3155 6.79419 0
M  V30 6386 H 610.661 -4.43987 6.407 0
M  V30 6387 N 614.89 -1.56749 -0.16351 0
M  V30 6388 C 615.84 -1.93424 -1.20712 0
M  V30 6389 C 616.824 -0.803469 -1.39403 0
M  V30 6390 O 618.016 -1.06675 -1.41243 0
M  V30 6391 C 615.145 -2.30431 -2.54473 0
M  V30 6392 C 614.231 -3.5004 -2.39443 0
M  V30 6393 N 614.622 -4.67058 -1.9414 0
M  V30 6394 C 612.92 -3.548 -2.70246 0
M  V30 6395 C 613.621 -5.49184 -1.9176 0
M  V30 6396 N 612.597 -4.9044 -2.34457 0
M  V30 6397 H 616.399 -2.8138 -0.848681 0
M  V30 6398 H 613.913 -1.58089 -0.371717 0
M  V30 6399 H 615.91 -2.54903 -3.29894 0
M  V30 6400 H 614.57 -1.43818 -2.91112 0
M  V30 6401 H 615.581 -4.91128 -1.64357 0
M  V30 6402 H 612.258 -2.78685 -3.10871 0
M  V30 6403 H 613.648 -6.5297 -1.58366 0
M  V30 6404 N 616.368 0.432326 -1.51554 0
M  V30 6405 C 617.278 1.55023 -1.76082 0
M  V30 6406 C 618.294 1.61593 -0.645265 0
M  V30 6407 O 619.47 1.78742 -0.928086 0
M  V30 6408 C 616.535 2.90964 -1.88523 0
M  V30 6409 C 615.596 2.9447 -3.12388 0
M  V30 6410 C 614.829 4.23926 -3.24225 0
M  V30 6411 O 615.052 5.16576 -2.4188 0
M  V30 6412 O 613.986 4.33818 -4.17235 0
M  V30 6413 H 617.812 1.37238 -2.70923 0
M  V30 6414 H 615.397 0.615845 -1.36117 0
M  V30 6415 H 617.279 3.71633 -1.98662 0
M  V30 6416 H 615.954 3.08865 -0.9687 0
M  V30 6417 H 614.861 2.12737 -3.07723 0
M  V30 6418 H 616.194 2.81514 -4.03746 0
M  V30 6419 N 617.846 1.41785 0.688094 0
M  V30 6420 C 618.809 1.43936 1.78368 0
M  V30 6421 C 619.809 0.328866 1.57401 0
M  V30 6422 O 620.999 0.589093 1.63937 0
M  V30 6423 C 618.131 1.25804 3.16838 0
M  V30 6424 H 619.324 2.41472 1.77852 0
M  V30 6425 H 616.877 1.28037 0.896448 0
M  V30 6426 H 617.612 0.291386 3.22988 0
M  V30 6427 H 617.397 2.06272 3.33458 0
M  V30 6428 H 618.887 1.30162 3.96797 0
M  V30 6429 N 619.324 -0.923095 1.27737 0
M  V30 6430 C 620.254 -2.04124 1.13383 0
M  V30 6431 C 621.235 -1.70066 0.0340658 0
M  V30 6432 O 622.42 -1.93068 0.209383 0
M  V30 6433 C 619.55 -3.3831 0.785097 0
M  V30 6434 C 618.504 -3.86496 1.8386 0
M  V30 6435 C 617.83 -5.1754 1.34373 0
M  V30 6436 C 619.13 -4.09381 3.24353 0
M  V30 6437 H 620.824 -2.1639 2.06919 0
M  V30 6438 H 618.37 -1.03976 0.996243 0
M  V30 6439 H 620.323 -4.16016 0.671485 0
M  V30 6440 H 619.047 -3.2607 -0.185969 0
M  V30 6441 H 617.706 -3.10987 1.9412 0
M  V30 6442 H 617.354 -5.01696 0.361989 0
M  V30 6443 H 617.054 -5.50751 2.04811 0
M  V30 6444 H 618.578 -5.97811 1.24315 0
M  V30 6445 H 619.992 -4.77641 3.17067 0
M  V30 6446 H 618.389 -4.53906 3.92542 0
M  V30 6447 H 619.459 -3.14515 3.69064 0
M  V30 6448 N 620.802 -1.09834 -1.13024 0
M  V30 6449 C 622.027 -0.85909 -1.88771 0
M  V30 6450 C 622.452 0.584402 -1.78791 0
M  V30 6451 O 621.81 1.41101 -1.13842 0
M  V30 6452 C 621.858 -1.30427 -3.36186 0
M  V30 6453 O 620.962 -0.465368 -4.09766 0
M  V30 6454 H 620.303 -0.310786 -0.586778 0
M  V30 6455 H 622.833 -1.46355 -1.42973 0
M  V30 6456 H 622.843 -1.2915 -3.8702 0
M  V30 6457 H 621.518 -2.3555 -3.42767 0
M  V30 6458 H 620.095 -0.542814 -3.68928 0
M  V30 6459 N 622.28 1.30327 -0.886154 0
M  V30 6460 C 623.691 1.78243 -0.555554 0
M  V30 6461 C 624.042 1.72849 0.928314 0
M  V30 6462 O 623.167 1.30607 1.72542 0
M  V30 6463 C 623.762 3.23654 -1.00168 0
M  V30 6464 C 622.321 3.69401 -0.722471 0
M  V30 6465 C 621.468 2.50753 -1.18399 0
M  V30 6466 H 624.419 1.1718 -1.07026 0
M  V30 6467 H 624.44 3.79056 -0.331152 0
M  V30 6468 H 623.952 3.27548 -2.08169 0
M  V30 6469 H 622.053 3.70995 0.345496 0
M  V30 6470 H 622.166 4.60818 -1.31085 0
M  V30 6471 H 620.53 2.47452 -0.603303 0
M  V30 6472 H 621.313 2.57383 -2.27176 0
M  V30 6473 N 623.758 0.647228 1.43697 0
M  V30 6474 C 625.005 0.158188 2.01881 0
M  V30 6475 C 625.333 -1.22573 1.51017 0
M  V30 6476 O 624.588 -1.83086 0.69122 0
M  V30 6477 C 624.887 0.111481 3.57226 0
M  V30 6478 C 624.553 1.43633 4.27411 0
M  V30 6479 C 623.215 1.79915 4.463 0
M  V30 6480 C 625.567 2.31011 4.67208 0
M  V30 6481 C 622.895 3.03251 5.02251 0
M  V30 6482 C 625.247 3.53633 5.24525 0
M  V30 6483 C 623.911 3.90118 5.41631 0
M  V30 6484 H 623.181 0.0578851 0.738736 0
M  V30 6485 H 625.828 0.836746 1.72252 0
M  V30 6486 H 624.133 -0.650507 3.86362 0
M  V30 6487 H 625.83 -0.283682 3.99995 0
M  V30 6488 H 622.42 1.14403 4.1305 0
M  V30 6489 H 626.604 2.04272 4.52313 0
M  V30 6490 H 621.86 3.31575 5.13681 0
M  V30 6491 H 626.034 4.21561 5.5431 0
M  V30 6492 H 623.661 4.85768 5.84751 0
M  V30 6493 N 625.236 -1.5273 0.388769 0
M  V30 6494 C 626.466 -2.05693 -0.193397 0
M  V30 6495 C 626.874 -1.26038 -1.41107 0
M  V30 6496 O 626.217 -0.30001 -1.81234 0
M  V30 6497 C 626.279 -3.53962 -0.628561 0
M  V30 6498 C 625.943 -4.54519 0.475576 0
M  V30 6499 C 626.94 -5.02526 1.33281 0
M  V30 6500 C 624.625 -4.98174 0.642453 0
M  V30 6501 C 626.619 -5.92812 2.34205 0
M  V30 6502 C 624.306 -5.88262 1.65503 0
M  V30 6503 C 625.304 -6.35473 2.50325 0
M  V30 6504 O 624.992 -7.23781 3.49852 0
M  V30 6505 H 624.724 -0.675197 -0.0329395 0
M  V30 6506 H 627.278 -1.97835 0.552326 0
M  V30 6507 H 625.508 -3.59437 -1.42625 0
M  V30 6508 H 627.197 -3.89669 -1.13633 0
M  V30 6509 H 627.963 -4.6953 1.21519 0
M  V30 6510 H 623.842 -4.60999 -0.00805093 0
M  V30 6511 H 627.386 -6.29585 3.00447 0
M  V30 6512 H 623.283 -6.20672 1.77304 0
M  V30 6513 H 624.051 -7.4184 3.45855 0
M  V30 6514 N 626.714 -0.118576 -1.57153 0
M  V30 6515 C 627.939 0.550582 -1.99958 0
M  V30 6516 C 628.364 1.59458 -0.997736 0
M  V30 6517 O 627.722 1.81274 0.0306269 0
M  V30 6518 C 627.77 1.15379 -3.41643 0
M  V30 6519 O 626.874 2.26932 -3.44348 0
M  V30 6520 H 626.215 0.137567 -0.649593 0
M  V30 6521 H 628.745 -0.206926 -2.03551 0
M  V30 6522 H 628.755 1.48942 -3.79843 0
M  V30 6523 H 627.43 0.389087 -4.14076 0
M  V30 6524 H 626.007 1.94812 -3.17967 0
M  V30 6525 N 628.193 1.56834 0.155195 0
M  V30 6526 C 629.103 2.009 1.21146 0
M  V30 6527 C 630.119 0.923029 1.475 0
M  V30 6528 O 631.295 1.23189 1.59331 0
M  V30 6529 C 628.36 2.37378 2.52691 0
M  V30 6530 C 627.421 3.59883 2.34057 0
M  V30 6531 C 626.654 3.94612 3.59329 0
M  V30 6532 O 626.877 3.30104 4.65175 0
M  V30 6533 O 625.811 4.87895 3.52479 0
M  V30 6534 H 629.637 2.9105 0.867371 0
M  V30 6535 H 627.222 1.44916 0.363298 0
M  V30 6536 H 629.104 2.61737 3.3026 0
M  V30 6537 H 627.779 1.50385 2.86646 0
M  V30 6538 H 626.686 3.40722 1.54465 0
M  V30 6539 H 628.019 4.47468 2.0502 0
M  V30 6540 N 629.671 -0.424282 1.51781 0
M  V30 6541 C 631.087 -0.761768 1.40247 0
M  V30 6542 C 631.287 -1.95324 0.495041 0
M  V30 6543 O 630.343 -2.5246 -0.0448949 0
M  V30 6544 C 631.656 -1.0299 2.82513 0
M  V30 6545 C 633.204 -1.13354 2.91753 0
M  V30 6546 C 633.679 -1.43453 4.34954 0
M  V30 6547 N 635.17 -1.5035 4.3812 0
M  V30 6548 C 635.905 -1.75236 5.45967 0
M  V30 6549 N 635.401 -1.97827 6.63955 0
M  V30 6550 N 637.194 -1.77126 5.33463 0
M  V30 6551 H 629.345 0.360228 2.09323 0
M  V30 6552 H 631.608 0.0988128 0.942836 0
M  V30 6553 H 631.314 -0.226961 3.50967 0
M  V30 6554 H 631.188 -1.95411 3.22637 0
M  V30 6555 H 633.575 -1.92709 2.23489 0
M  V30 6556 H 633.656 -0.188041 2.55108 0
M  V30 6557 H 633.3 -0.646209 5.03772 0
M  V30 6558 H 633.23 -2.3923 4.69123 0
M  V30 6559 H 635.721 -1.34742 3.53062 0
M  V30 6560 H 636.034 -2.16223 7.41935 0
M  V30 6561 H 634.379 -1.95123 6.67047 0
M  V30 6562 H 637.57 -1.59005 4.40267 0
M  V30 6563 H 637.743 -1.96182 6.17589 0
M  V30 6564 N 631.149 -1.42148 -0.680565 0
M  V30 6565 C 632.079 -1.4796 -1.80638 0
M  V30 6566 C 633.06 -0.336728 -1.66734 0
M  V30 6567 O 634.245 -0.550247 -1.86242 0
M  V30 6568 C 631.375 -1.37569 -3.18892 0
M  V30 6569 C 630.329 -2.49823 -3.47524 0
M  V30 6570 C 629.655 -2.24491 -4.85291 0
M  V30 6571 C 630.955 -3.92144 -3.44994 0
M  V30 6572 H 632.649 -2.42184 -1.76032 0
M  V30 6573 H 630.195 -1.16566 -0.845481 0
M  V30 6574 H 632.148 -1.40243 -3.97379 0
M  V30 6575 H 630.872 -0.398357 -3.24162 0
M  V30 6576 H 629.531 -2.46455 -2.71395 0
M  V30 6577 H 629.179 -1.25066 -4.87204 0
M  V30 6578 H 628.879 -2.99722 -5.05411 0
M  V30 6579 H 630.403 -2.28906 -5.66069 0
M  V30 6580 H 631.817 -3.97145 -4.13459 0
M  V30 6581 H 630.214 -4.67179 -3.76648 0
M  V30 6582 H 631.284 -4.19225 -2.43676 0
M  V30 6583 N 632.627 0.916307 -1.28225 0
M  V30 6584 C 633.574 2.01841 -1.11932 0
M  V30 6585 C 634.544 1.66091 -0.0171604 0
M  V30 6586 O 635.729 1.89934 -0.181617 0
M  V30 6587 C 632.869 3.36065 -0.784504 0
M  V30 6588 C 631.982 3.847 -1.96544 0
M  V30 6589 C 631.117 5.07423 -1.57149 0
M  V30 6590 C 630.156 5.48384 -2.71922 0
M  V30 6591 N 629.293 6.62298 -2.33037 0
M  V30 6592 H 634.133 2.1511 -2.06232 0
M  V30 6593 H 631.67 1.05366 -1.02647 0
M  V30 6594 H 633.628 4.13272 -0.571148 0
M  V30 6595 H 632.258 3.22571 0.121565 0
M  V30 6596 H 631.31 3.03673 -2.291 0
M  V30 6597 H 632.622 4.1102 -2.82603 0
M  V30 6598 H 631.776 5.92165 -1.32004 0
M  V30 6599 H 630.515 4.82906 -0.682153 0
M  V30 6600 H 629.52 4.62184 -2.97768 0
M  V30 6601 H 630.745 5.7489 -3.61494 0
M  V30 6602 H 628.691 6.39416 -1.4657 0
M  V30 6603 H 628.608 6.8833 -3.12631 0
M  V30 6604 H 629.876 7.50352 -2.11169 0
M  V30 6605 N 634.105 1.10431 1.1244 0
M  V30 6606 C 635.015 0.765502 2.21759 0
M  V30 6607 C 636.031 -0.236966 1.72379 0
M  V30 6608 O 637.207 -0.0757329 2.01258 0
M  V30 6609 C 634.272 0.202316 3.46109 0
M  V30 6610 C 633.333 1.26205 4.1033 0
M  V30 6611 C 632.566 0.725648 5.28744 0
M  V30 6612 O 632.789 -0.447942 5.68638 0
M  V30 6613 O 631.723 1.48555 5.83279 0
M  V30 6614 H 635.549 1.67801 2.53133 0
M  V30 6615 H 633.134 0.879443 1.20773 0
M  V30 6616 H 635.016 -0.107918 4.21262 0
M  V30 6617 H 633.691 -0.683052 3.16411 0
M  V30 6618 H 632.598 1.62514 3.36957 0
M  V30 6619 H 633.931 2.12044 4.44183 0
M  V30 6620 N 635.583 -1.29855 0.893053 0
M  V30 6621 C 636.546 -2.26183 0.370687 0
M  V30 6622 C 637.546 -1.53108 -0.491385 0
M  V30 6623 O 638.736 -1.71643 -0.297386 0
M  V30 6624 C 635.868 -3.37633 -0.470827 0
M  V30 6625 H 637.061 -2.73903 1.22135 0
M  V30 6626 H 634.614 -1.41183 0.67061 0
M  V30 6627 H 635.349 -2.95241 -1.34175 0
M  V30 6628 H 635.134 -3.91825 0.146784 0
M  V30 6629 H 636.624 -4.09313 -0.827825 0
M  V30 6630 N 637.061 -0.65484 -1.43351 0
M  V30 6631 C 638.011 0.0581325 -2.27926 0
M  V30 6632 C 638.995 0.793188 -1.3999 0
M  V30 6633 O 640.187 0.675387 -1.63608 0
M  V30 6634 C 637.316 1.02272 -3.27712 0
M  V30 6635 C 636.402 0.286048 -4.23134 0
M  V30 6636 N 636.793 -0.698298 -5.00957 0
M  V30 6637 C 635.091 0.527272 -4.42872 0
M  V30 6638 C 635.792 -1.1357 -5.70506 0
M  V30 6639 N 634.768 -0.469631 -5.41568 0
M  V30 6640 H 638.57 -0.697182 -2.85511 0
M  V30 6641 H 636.084 -0.482252 -1.55074 0
M  V30 6642 H 638.081 1.5483 -3.87083 0
M  V30 6643 H 636.741 1.77807 -2.71688 0
M  V30 6644 H 637.752 -1.07708 -5.06576 0
M  V30 6645 H 634.429 1.26367 -3.97916 0
M  V30 6646 H 635.819 -1.95027 -6.42973 0
M  V30 6647 N 638.539 1.52521 -0.396863 0
M  V30 6648 C 639.785 2.01971 0.183169 0
M  V30 6649 C 640.118 1.2825 1.45827 0
M  V30 6650 O 639.393 0.385179 1.90648 0
M  V30 6651 C 639.676 3.5736 0.443391 0
M  V30 6652 C 639.529 4.41743 -0.84753 0
M  V30 6653 C 640.848 4.22539 1.2308 0
M  V30 6654 H 637.967 0.734119 0.0650976 0
M  V30 6655 H 640.609 1.82519 -0.527918 0
M  V30 6656 H 638.759 3.74066 1.04914 0
M  V30 6657 H 640.431 4.36773 -1.48414 0
M  V30 6658 H 638.674 4.0845 -1.4612 0
M  V30 6659 H 639.345 5.48507 -0.620003 0
M  V30 6660 H 641.821 4.09857 0.718084 0
M  V30 6661 H 640.697 5.31227 1.38162 0
M  V30 6662 H 640.958 3.80675 2.24808 0
M  V30 6663 N 640.017 0.126909 1.57088 0
M  V30 6664 C 641.433 -0.229641 1.57939 0
M  V30 6665 C 641.633 -1.66145 1.1401 0
M  V30 6666 O 640.689 -2.3843 0.831119 0
M  V30 6667 C 642.002 0.0108648 3.00698 0
M  V30 6668 C 643.55 -0.054418 3.12953 0
M  V30 6669 C 644.025 0.158497 4.57726 0
M  V30 6670 N 645.516 0.104735 4.63082 0
M  V30 6671 C 646.251 0.24427 5.72879 0
M  V30 6672 N 645.747 0.440415 6.91399 0
M  V30 6673 N 647.54 0.183286 5.61801 0
M  V30 6674 H 639.691 1.06203 1.83942 0
M  V30 6675 H 641.954 0.418834 0.85046 0
M  V30 6676 H 641.66 1.00102 3.37154 0
M  V30 6677 H 641.534 -0.717512 3.70313 0
M  V30 6678 H 643.921 -1.0351 2.7635 0
M  V30 6679 H 644.002 0.705967 2.45865 0
M  V30 6680 H 643.646 1.13619 4.95028 0
M  V30 6681 H 643.576 -0.62197 5.22914 0
M  V30 6682 H 646.067 -0.0430298 3.77876 0
M  V30 6683 H 646.38 0.537536 7.70928 0
M  V30 6684 H 644.725 0.476488 6.93365 0
M  V30 6685 H 647.916 0.0309561 4.6809 0
M  V30 6686 H 648.089 0.295471 6.47326 0
M  V30 6687 N 641.495 -1.56914 -0.146875 0
M  V30 6688 C 642.425 -2.01308 -1.1831 0
M  V30 6689 C 643.406 -0.892664 -1.44795 0
M  V30 6690 O 644.591 -1.16048 -1.55713 0
M  V30 6691 C 641.721 -2.3938 -2.51624 0
M  V30 6692 C 640.675 -3.54608 -2.3966 0
M  V30 6693 C 640.001 -3.78493 -3.77686 0
M  V30 6694 C 641.301 -4.87269 -1.88058 0
M  V30 6695 H 642.995 -2.88123 -0.813964 0
M  V30 6696 H 640.541 -1.38615 -0.3901 0
M  V30 6697 H 642.494 -2.69037 -3.24341 0
M  V30 6698 H 641.218 -1.49502 -2.90373 0
M  V30 6699 H 639.877 -3.25116 -1.69396 0
M  V30 6700 H 639.525 -2.85866 -4.13871 0
M  V30 6701 H 639.225 -4.56039 -3.70543 0
M  V30 6702 H 640.749 -4.10576 -4.51951 0
M  V30 6703 H 642.163 -5.15644 -2.50568 0
M  V30 6704 H 640.56 -5.68622 -1.91805 0
M  V30 6705 H 641.63 -4.77634 -0.836277 0
M  V30 6706 N 642.974 0.416227 -1.52004 0
M  V30 6707 C 644.204 1.18401 -1.69307 0
M  V30 6708 C 644.612 1.84943 -0.399072 0
M  V30 6709 O 643.955 1.72406 0.634177 0
M  V30 6710 C 644.017 2.29465 -2.76742 0
M  V30 6711 C 643.681 1.83117 -4.18709 0
M  V30 6712 C 644.678 1.32286 -5.02789 0
M  V30 6713 C 642.363 1.90167 -4.64911 0
M  V30 6714 C 644.357 0.891178 -6.31139 0
M  V30 6715 C 642.044 1.4661 -5.93253 0
M  V30 6716 C 643.042 0.961696 -6.76196 0
M  V30 6717 O 642.73 0.532388 -8.02135 0
M  V30 6718 H 642.462 0.362098 -0.570843 0
M  V30 6719 H 645.016 0.496764 -1.99302 0
M  V30 6720 H 643.246 3.01531 -2.42107 0
M  V30 6721 H 644.935 2.91252 -2.82713 0
M  V30 6722 H 645.701 1.26218 -4.68288 0
M  V30 6723 H 641.58 2.28371 -4.00459 0
M  V30 6724 H 645.124 0.496788 -6.95829 0
M  V30 6725 H 641.021 1.52355 -6.27263 0
M  V30 6726 H 641.789 0.656339 -8.15864 0
M  V30 6727 N 644.452 1.42507 0.673017 0
M  V30 6728 C 645.863 1.38347 1.25367 0
M  V30 6729 C 646.214 0.0776327 1.96046 0
M  V30 6730 O 645.339 -0.823571 2.00116 0
M  V30 6731 C 645.934 2.506 2.28002 0
M  V30 6732 C 644.493 2.49767 2.81591 0
M  V30 6733 C 643.64 2.293 1.55938 0
M  V30 6734 H 646.591 1.51695 0.466288 0
M  V30 6735 H 646.612 2.20953 3.09774 0
M  V30 6736 H 646.124 3.45627 1.76532 0
M  V30 6737 H 644.225 1.58563 3.37177 0
M  V30 6738 H 644.338 3.46867 3.30485 0
M  V30 6739 H 642.702 1.77594 1.82572 0
M  V30 6740 H 643.485 3.26385 1.06431 0
M  V30 6741 N 645.93 -0.909495 1.28709 0
M  V30 6742 C 647.155 -1.69801 1.1909 0
M  V30 6743 C 647.58 -1.86479 -0.246388 0
M  V30 6744 O 646.938 -1.37802 -1.17815 0
M  V30 6745 C 646.986 -3.06543 1.89904 0
M  V30 6746 O 646.09 -3.94268 1.2094 0
M  V30 6747 H 645.431 -0.519783 0.413185 0
M  V30 6748 H 647.961 -1.13689 1.70106 0
M  V30 6749 H 647.971 -3.56748 1.97977 0
M  V30 6750 H 646.646 -2.93722 2.94449 0
M  V30 6751 H 645.223 -3.52702 1.2106 0
M  V30 6752 N 647.408 -1.11026 -1.11852 0
M  V30 6753 C 648.633 -0.879064 -1.87849 0
M  V30 6754 C 649.058 0.565406 -1.79401 0
M  V30 6755 O 648.416 1.39886 -1.15333 0
M  V30 6756 C 648.464 -1.33985 -3.34784 0
M  V30 6757 O 647.568 -0.508803 -4.09249 0
M  V30 6758 H 646.909 -0.316992 -0.583448 0
M  V30 6759 H 649.439 -1.47863 -1.41413 0
M  V30 6760 H 649.449 -1.33248 -3.85628 0
M  V30 6761 H 648.124 -2.39172 -3.40249 0
M  V30 6762 H 646.701 -0.581913 -3.68332 0
M  V30 6763 N 648.886 1.2938 -0.899927 0
M  V30 6764 C 650.302 1.48052 -0.596059 0
M  V30 6765 C 650.502 1.82114 0.862372 0
M  V30 6766 O 649.558 1.91774 1.64253 0
M  V30 6767 C 650.871 2.59332 -1.52208 0
M  V30 6768 C 652.419 2.73208 -1.5273 0
M  V30 6769 C 652.894 3.87617 -2.43961 0
M  V30 6770 N 654.385 3.9495 -2.42009 0
M  V30 6771 C 655.12 4.82824 -3.09303 0
M  V30 6772 N 654.616 5.75387 -3.85877 0
M  V30 6773 N 656.409 4.76317 -2.98459 0
M  V30 6774 H 648.56 1.05546 -1.8432 0
M  V30 6775 H 650.823 0.524314 -0.78981 0
M  V30 6776 H 650.529 2.41029 -2.56121 0
M  V30 6777 H 650.403 3.56139 -1.24278 0
M  V30 6778 H 652.79 2.90908 -0.495614 0
M  V30 6779 H 652.871 1.76975 -1.84698 0
M  V30 6780 H 652.515 3.70672 -3.47224 0
M  V30 6781 H 652.445 4.83218 -2.09303 0
M  V30 6782 H 654.936 3.28744 -1.86375 0
M  V30 6783 H 655.249 6.39235 -4.34279 0
M  V30 6784 H 653.594 5.75272 -3.89984 0
M  V30 6785 H 656.785 4.0299 -2.38152 0
M  V30 6786 H 656.958 5.44589 -3.51179 0
M  V30 6787 N 650.364 0.662433 1.43002 0
M  V30 6788 C 651.604 0.183312 2.03576 0
M  V30 6789 C 651.968 -1.18354 1.51183 0
M  V30 6790 O 653.169 -1.7566 2.03462 0
M  V30 6791 C 651.44 0.202908 3.56824 0
M  V30 6792 S 652.999 -0.20702 4.38311 0
M  V30 6793 H 649.817 0.0765001 0.706872 0
M  V30 6794 H 652.419 0.872827 1.74934 0
M  V30 6795 H 651.123 1.20028 3.92456 0
M  V30 6796 H 650.654 -0.506845 3.90121 0
M  V30 6797 H 652.669 -1.44358 4.74737 0
M  V30 6798 N 651.842 -1.52309 0.404946 0
M  V30 6799 C 653.07 -2.06185 -0.171818 0
M  V30 6800 C 653.485 -1.27536 -1.39212 0
M  V30 6801 O 652.842 -0.326112 -1.79563 0
M  V30 6802 C 652.893 -3.57647 -0.526417 0
M  V30 6803 O 652.614 -4.3332 0.645417 0
M  V30 6804 C 654.115 -4.27925 -1.15736 0
M  V30 6805 H 651.335 -0.670632 -0.0222328 0
M  V30 6806 H 653.879 -1.96259 0.574692 0
M  V30 6807 H 652.034 -3.67595 -1.22282 0
M  V30 6808 H 652.448 -5.23328 0.35042 0
M  V30 6809 H 653.922 -5.35093 -1.35572 0
M  V30 6810 H 654.399 -3.84134 -2.12926 0
M  V30 6811 H 655.005 -4.22335 -0.501281 0
M  V30 6812 N 653.32 -0.135238 -1.57019 0
M  V30 6813 C 654.545 0.529343 -2.00531 0
M  V30 6814 C 654.97 1.58391 -1.01459 0
M  V30 6815 O 654.328 1.81296 0.0113986 0
M  V30 6816 C 654.376 1.11748 -3.42848 0
M  V30 6817 O 653.48 2.23267 -3.46736 0
M  V30 6818 H 652.821 0.130669 -0.651016 0
M  V30 6819 H 655.351 -0.228503 -2.0332 0
M  V30 6820 H 655.361 1.44905 -3.81401 0
M  V30 6821 H 654.036 0.345147 -4.14465 0
M  V30 6822 H 652.613 1.91428 -3.20015 0
M  V30 6823 N 654.798 1.5699 0.138552 0
M  V30 6824 C 655.73 1.95515 1.1961 0
M  V30 6825 C 656.743 0.852002 1.38726 0
M  V30 6826 O 657.932 1.13038 1.38147 0
M  V30 6827 C 655.032 2.2213 2.55952 0
M  V30 6828 C 654.205 3.53424 2.57702 0
M  V30 6829 C 653.264 3.6848 3.75645 0
M  V30 6830 O 652.29 4.4079 3.60129 0
M  V30 6831 N 653.492 3.05777 4.93438 0
M  V30 6832 H 656.257 2.86838 0.868557 0
M  V30 6833 H 653.818 1.58542 0.328033 0
M  V30 6834 H 655.81 2.29435 3.33379 0
M  V30 6835 H 654.38 1.3703 2.80965 0
M  V30 6836 H 653.6 3.57484 1.6613 0
M  V30 6837 H 654.888 4.39759 2.55909 0
M  V30 6838 H 654.286 2.46961 5.08947 0
M  V30 6839 H 652.843 3.18631 5.6861 0
M  V30 6840 N 656.276 -0.40816 1.52223 0
M  V30 6841 C 657.226 -1.49648 1.72016 0
M  V30 6842 C 658.21 -1.50311 0.574069 0
M  V30 6843 O 659.402 -1.56271 0.831173 0
M  V30 6844 C 656.531 -2.87566 1.87512 0
M  V30 6845 C 655.617 -2.91547 3.07995 0
M  V30 6846 N 656.008 -2.65225 4.30685 0
M  V30 6847 C 654.306 -3.22715 3.07849 0
M  V30 6848 C 655.007 -2.75799 5.12162 0
M  V30 6849 N 653.983 -3.08719 4.4743 0
M  V30 6850 H 657.785 -1.28093 2.64517 0
M  V30 6851 H 655.299 -0.61588 1.50269 0
M  V30 6852 H 657.296 -3.65899 1.99809 0
M  V30 6853 H 655.956 -3.10118 0.962114 0
M  V30 6854 H 656.967 -2.39601 4.59142 0
M  V30 6855 H 653.644 -3.50856 2.26289 0
M  V30 6856 H 655.034 -2.59155 6.1991 0
M  V30 6857 N 657.755 -1.42862 -0.66545 0
M  V30 6858 C 658.685 -1.49867 -1.79059 0
M  V30 6859 C 659.666 -0.354394 -1.66367 0
M  V30 6860 O 660.851 -0.569969 -1.85647 0
M  V30 6861 C 657.981 -1.40943 -3.17415 0
M  V30 6862 C 656.935 -2.53495 -3.44854 0
M  V30 6863 C 656.261 -2.29626 -4.82883 0
M  V30 6864 C 657.561 -3.95781 -3.40815 0
M  V30 6865 H 659.255 -2.44037 -1.73453 0
M  V30 6866 H 656.801 -1.17456 -0.833071 0
M  V30 6867 H 658.754 -1.4445 -3.95869 0
M  V30 6868 H 657.478 -0.432716 -3.23721 0
M  V30 6869 H 656.137 -2.4932 -2.68766 0
M  V30 6870 H 655.785 -1.30226 -4.8585 0
M  V30 6871 H 655.485 -3.05065 -5.02204 0
M  V30 6872 H 657.009 -2.34897 -5.63609 0
M  V30 6873 H 658.423 -4.01508 -4.09224 0
M  V30 6874 H 656.82 -4.71148 -3.71672 0
M  V30 6875 H 657.89 -4.21786 -2.39216 0
M  V30 6876 N 659.233 0.902656 -1.29189 0
M  V30 6877 C 660.163 2.02294 -1.16616 0
M  V30 6878 C 661.144 1.6999 -0.0611175 0
M  V30 6879 O 662.329 1.9271 -0.240072 0
M  V30 6880 C 659.459 3.37018 -0.83882 0
M  V30 6881 C 658.413 3.83522 -1.89986 0
M  V30 6882 C 657.739 5.15337 -1.42589 0
M  V30 6883 C 659.039 4.04169 -3.30824 0
M  V30 6884 H 660.733 2.13071 -2.10336 0
M  V30 6885 H 658.279 1.02378 -1.01266 0
M  V30 6886 H 660.232 4.14895 -0.737584 0
M  V30 6887 H 658.956 3.26325 0.134071 0
M  V30 6888 H 657.615 3.07859 -1.99043 0
M  V30 6889 H 657.263 5.01056 -0.441759 0
M  V30 6890 H 656.963 5.47423 -2.13547 0
M  V30 6891 H 658.487 5.95758 -1.3381 0
M  V30 6892 H 659.901 4.72537 -3.24626 0
M  V30 6893 H 658.298 4.47604 -3.99713 0
M  V30 6894 H 659.368 3.08604 -3.74021 0
M  V30 6895 N 660.711 1.11618 1.11262 0
M  V30 6896 C 661.659 0.771291 2.1944 0
M  V30 6897 C 662.653 -0.238073 1.67719 0
M  V30 6898 O 663.859 -0.0971628 1.79738 0
M  V30 6899 H 660.234 0.231548 0.715465 0
M  V30 6900 H 662.205 1.69226 2.45775 0
M  V30 6901 C 660.954 0.232765 3.4692 0
M  V30 6902 H 660.277 1.00072 3.87073 0
M  V30 6903 H 661.717 0.0296561 4.2399 0
M  V30 6904 C 660.176 -1.03738 3.20531 0
M  V30 6905 O 660.706 -2.11675 3.41404 0
M  V30 6906 N 658.912 -0.960906 2.74253 0
M  V30 6907 H 658.459 -0.0824323 2.57468 0
M  V30 6908 H 658.417 -1.8114 2.56974 0
M  V30 6909 N 662.189 -1.289 0.906776 0
M  V30 6910 C 663.605 -1.47733 0.603902 0
M  V30 6911 C 663.805 -1.82568 -0.852702 0
M  V30 6912 O 662.861 -1.92642 -1.63234 0
M  V30 6913 C 664.174 -2.58522 1.53581 0
M  V30 6914 C 665.722 -2.72394 1.54177 0
M  V30 6915 C 666.197 -3.86318 2.46013 0
M  V30 6916 N 667.688 -3.93661 2.441 0
M  V30 6917 C 668.423 -4.81177 3.11859 0
M  V30 6918 N 667.919 -5.73333 3.88923 0
M  V30 6919 N 669.712 -4.74728 3.00981 0
M  V30 6920 H 661.863 -1.04567 1.84877 0
M  V30 6921 H 664.126 -0.520118 0.792579 0
M  V30 6922 H 663.832 -2.39667 2.57396 0
M  V30 6923 H 663.706 -3.55475 1.26165 0
M  V30 6924 H 666.093 -2.90641 0.511034 0
M  V30 6925 H 666.174 -1.75993 1.85634 0
M  V30 6926 H 665.818 -3.68826 3.49185 0
M  V30 6927 H 665.748 -4.82102 2.11862 0
M  V30 6928 H 668.239 -3.27751 1.88115 0
M  V30 6929 H 668.552 -6.36923 4.37663 0
M  V30 6930 H 666.897 -5.73196 3.93029 0
M  V30 6931 H 670.088 -4.01722 2.40286 0
M  V30 6932 H 670.261 -5.42719 3.54062 0
M  V30 6933 N 663.667 -0.670007 -1.42649 0
M  V30 6934 C 664.895 -0.19854 -2.05945 0
M  V30 6935 C 665.31 1.14243 -1.50313 0
M  V30 6936 O 664.667 1.70872 -0.641027 0
M  V30 6937 C 664.718 -0.11966 -3.61302 0
M  V30 6938 O 664.439 -1.40764 -4.1487 0
M  V30 6939 C 665.94 0.375878 -4.41704 0
M  V30 6940 H 663.16 -0.0976894 -0.663851 0
M  V30 6941 H 665.704 -0.915392 -1.82868 0
M  V30 6942 H 663.859 0.547851 -3.83507 0
M  V30 6943 H 664.273 -1.27784 -5.08696 0
M  V30 6944 H 665.747 0.379988 -5.50691 0
M  V30 6945 H 666.224 1.41028 -4.15942 0
M  V30 6946 H 666.83 -0.259727 -4.24506 0
M  V30 6947 N 665.145 1.52092 -0.413018 0
M  V30 6948 C 666.391 2.02154 0.161737 0
M  V30 6949 C 666.724 1.29789 1.44459 0
M  V30 6950 O 665.999 0.405378 1.90229 0
M  V30 6951 C 666.282 3.5781 0.405463 0
M  V30 6952 C 666.135 4.40819 -0.894335 0
M  V30 6953 C 667.454 4.23821 1.18591 0
M  V30 6954 H 664.573 0.734769 0.0573077 0
M  V30 6955 H 667.215 1.81948 -0.547247 0
M  V30 6956 H 665.365 3.75158 1.0094 0
M  V30 6957 H 667.037 4.35175 -1.53039 0
M  V30 6958 H 665.28 4.06877 -1.50444 0
M  V30 6959 H 665.951 5.47819 -0.678144 0
M  V30 6960 H 668.427 4.10596 0.674573 0
M  V30 6961 H 667.303 5.32663 1.3252 0
M  V30 6962 H 667.564 3.83038 2.20758 0
M  V30 6963 N 666.623 0.143563 1.56945 0
M  V30 6964 C 667.851 -0.515447 2.00377 0
M  V30 6965 C 668.266 -1.58643 1.02361 0
M  V30 6966 O 667.623 -1.82489 0.0201039 0
M  V30 6967 C 667.674 -1.11923 3.43737 0
M  V30 6968 O 667.395 -0.0910318 4.38005 0
M  V30 6969 C 668.896 -1.85918 4.02429 0
M  V30 6970 H 666.116 -0.134478 0.657386 0
M  V30 6971 H 668.66 0.237135 2.0312 0
M  V30 6972 H 666.815 -1.82245 3.41856 0
M  V30 6973 H 667.229 -0.532916 5.21786 0
M  V30 6974 H 668.703 -2.2346 5.04747 0
M  V30 6975 H 669.18 -2.7438 3.42947 0
M  V30 6976 H 669.786 -1.20303 4.07931 0
M  V30 6977 N 668.101 -1.57061 -0.130224 0
M  V30 6978 C 669.378 -1.75205 -0.869631 0
M  V30 6979 C 669.758 -0.716063 -1.98584 0
M  V30 6980 O 669.106 0.262032 -2.26993 0
M  V30 6981 C 669.316 -3.19835 -1.39666 0
M  V30 6982 C 670.664 -3.82011 -1.85345 0
M  V30 6983 O 671.688 -3.23368 -1.49371 0
M  V30 6984 O 670.547 -4.85064 -2.51744 0
M  V30 6985 H 667.641 -0.716977 -0.412157 0
M  V30 6986 H 670.187 -1.69311 -0.11484 0
M  V30 6987 H 668.959 -3.86745 -0.595288 0
M  V30 6988 H 668.582 -3.30222 -2.21448 0
M  V30 6989 N 669.579 0.400081 -1.52437 0
M  V30 6990 C 670.527 1.50851 -1.7705 0
M  V30 6991 C 671.521 1.56928 -0.637969 0
M  V30 6992 O 672.727 1.60226 -0.820212 0
M  V30 6993 H 669.102 0.50186 -0.560036 0
M  V30 6994 H 671.073 1.27281 -2.69893 0
M  V30 6995 C 669.822 2.88117 -1.94638 0
M  V30 6996 H 669.145 2.84187 -2.81208 0
M  V30 6997 H 670.585 3.64942 -2.15855 0
M  V30 6998 C 669.044 3.29206 -0.715899 0
M  V30 6999 O 669.574 4.01544 0.111944 0
M  V30 7000 N 667.78 2.85363 -0.549191 0
M  V30 7001 H 667.327 2.26664 -1.22397 0
M  V30 7002 H 667.285 3.13214 0.27278 0
M  V30 7003 N 671.057 1.43213 0.657864 0
M  V30 7004 C 671.99 1.42456 1.78273 0
M  V30 7005 C 672.968 0.286598 1.60054 0
M  V30 7006 O 674.152 0.479467 1.823 0
M  V30 7007 C 671.279 1.23169 3.15511 0
M  V30 7008 C 670.325 2.40181 3.52442 0
M  V30 7009 S 671.158 4.02729 3.52944 0
M  V30 7010 C 672.314 3.85816 4.92846 0
M  V30 7011 H 672.547 2.37642 1.78644 0
M  V30 7012 H 670.08 1.30188 0.830084 0
M  V30 7013 H 672.038 1.12728 3.94719 0
M  V30 7014 H 670.699 0.295398 3.12708 0
M  V30 7015 H 669.892 2.22478 4.52239 0
M  V30 7016 H 669.494 2.47224 2.80636 0
M  V30 7017 H 671.786 3.47853 5.81381 0
M  V30 7018 H 672.729 4.85348 5.15599 0
M  V30 7019 H 673.137 3.18361 4.66162 0
M  V30 7020 N 672.536 -0.895792 1.29666 0
M  V30 7021 C 673.466 -2.01673 1.17688 0
M  V30 7022 C 674.447 -1.69955 0.0701317 0
M  V30 7023 O 675.632 -1.9258 0.250289 0
M  V30 7024 C 672.762 -3.36568 0.856681 0
M  V30 7025 C 671.716 -3.82509 1.92017 0
M  V30 7026 C 671.042 -5.14574 1.4532 0
M  V30 7027 C 672.342 -4.02409 3.32963 0
M  V30 7028 H 674.036 -2.11953 2.11463 0
M  V30 7029 H 671.582 -1.01839 1.01807 0
M  V30 7030 H 673.535 -4.14498 0.759577 0
M  V30 7031 H 672.259 -3.26391 -0.116763 0
M  V30 7032 H 670.918 -3.068 2.00673 0
M  V30 7033 H 670.566 -5.00815 0.468325 0
M  V30 7034 H 670.266 -5.46283 2.16447 0
M  V30 7035 H 671.79 -5.9504 1.36968 0
M  V30 7036 H 673.204 -4.70808 3.27127 0
M  V30 7037 H 671.601 -4.45478 4.02082 0
M  V30 7038 H 672.671 -3.06616 3.75652 0
M  V30 7039 N 674.014 -1.12206 -1.10668 0
M  V30 7040 C 675.254 -0.885935 -1.84202 0
M  V30 7041 C 675.618 0.577849 -1.83098 0
M  V30 7042 O 676.819 0.931051 -2.5216 0
M  V30 7043 C 675.09 -1.44197 -3.2702 0
M  V30 7044 S 676.649 -1.34402 -4.1771 0
M  V30 7045 H 673.467 -0.319653 -0.635093 0
M  V30 7046 H 676.069 -1.43112 -1.33189 0
M  V30 7047 H 674.773 -2.50096 -3.25392 0
M  V30 7048 H 674.304 -0.894173 -3.83103 0
M  V30 7049 H 676.319 -0.313873 -4.95206 0
M  V30 7050 N 675.492 1.28418 -0.913599 0
M  V30 7051 C 676.455 2.25564 -0.406624 0
M  V30 7052 C 677.455 1.5387 0.466965 0
M  V30 7053 O 678.645 1.72094 0.270042 0
M  V30 7054 C 675.777 3.38339 0.417053 0
M  V30 7055 H 676.97 2.71926 -1.26477 0
M  V30 7056 H 674.523 1.40098 -0.692986 0
M  V30 7057 H 675.258 2.97339 1.29461 0
M  V30 7058 H 675.043 3.91542 -0.209102 0
M  V30 7059 H 676.533 4.10578 0.762602 0
M  V30 7060 N 676.97 0.677563 1.42291 0
M  V30 7061 C 678.218 0.200578 2.01102 0
M  V30 7062 C 678.539 -1.19803 1.53858 0
M  V30 7063 O 677.809 -1.80496 0.761439 0
M  V30 7064 H 676.389 0.0711634 0.743603 0
M  V30 7065 H 679.051 0.874691 1.7417 0
M  V30 7066 H 678.147 0.204 3.11433 0
M  V30 7067 N 678.448 -1.51871 0.421078 0
M  V30 7068 C 679.725 -1.9447 -0.20993 0
M  V30 7069 C 680.105 -1.35875 -1.61558 0
M  V30 7070 O 679.453 -0.539294 -2.22045 0
M  V30 7071 C 679.663 -3.48402 -0.204165 0
M  V30 7072 C 681.011 -4.2254 -0.417696 0
M  V30 7073 O 682.035 -3.55074 -0.282999 0
M  V30 7074 O 680.894 -5.422 -0.684239 0
M  V30 7075 H 677.988 -0.815283 -0.138718 0
M  V30 7076 H 680.534 -1.62832 0.477884 0
M  V30 7077 H 679.306 -3.83464 0.779183 0
M  V30 7078 H 678.929 -3.86436 -0.935576 0
M  V30 7079 N 679.926 -0.151884 -1.56866 0
M  V30 7080 C 681.154 0.504813 -2.00647 0
M  V30 7081 C 681.569 1.58098 -1.03201 0
M  V30 7082 O 680.926 1.82476 -0.0297814 0
M  V30 7083 C 680.977 1.10099 -3.44326 0
M  V30 7084 O 680.698 0.0678021 -4.38048 0
M  V30 7085 C 682.199 1.83782 -4.03409 0
M  V30 7086 H 679.419 0.130989 -0.65809 0
M  V30 7087 H 681.963 -0.247903 -2.02992 0
M  V30 7088 H 680.118 1.8043 -3.42817 0
M  V30 7089 H 680.532 0.505237 -5.22061 0
M  V30 7090 H 682.006 2.2078 -5.05925 0
M  V30 7091 H 682.483 2.72557 -3.44397 0
M  V30 7092 H 683.089 1.18138 -4.08563 0
M  V30 7093 N 681.404 1.57128 0.121893 0
M  V30 7094 C 682.82 1.52357 0.47534 0
M  V30 7095 C 683.02 0.864417 1.82017 0
M  V30 7096 O 682.076 0.445529 2.48538 0
M  V30 7097 C 683.389 2.97122 0.4625 0
M  V30 7098 C 684.937 3.08196 0.546255 0
M  V30 7099 C 685.412 4.54516 0.563833 0
M  V30 7100 N 686.903 4.58959 0.625353 0
M  V30 7101 C 687.638 5.69585 0.660354 0
M  V30 7102 N 687.134 6.89714 0.653175 0
M  V30 7103 N 688.927 5.57685 0.703143 0
M  V30 7104 H 681.078 1.98364 -0.75931 0
M  V30 7105 H 683.341 0.905777 -0.279772 0
M  V30 7106 H 683.047 3.48706 -0.457943 0
M  V30 7107 H 682.921 3.54406 1.29136 0
M  V30 7108 H 685.308 2.56617 1.45712 0
M  V30 7109 H 685.389 2.53912 -0.310234 0
M  V30 7110 H 685.033 5.06741 -0.342974 0
M  V30 7111 H 684.963 5.06609 1.43716 0
M  V30 7112 H 687.454 3.72489 0.637182 0
M  V30 7113 H 687.767 7.69781 0.682425 0
M  V30 7114 H 686.112 6.92223 0.620646 0
M  V30 7115 H 689.303 4.62744 0.706095 0
M  V30 7116 H 689.476 6.43909 0.726952 0
M  V30 7117 N 682.882 -0.391992 1.52647 0
M  V30 7118 C 684.107 -1.16312 1.71716 0
M  V30 7119 C 684.532 -1.83042 0.433279 0
M  V30 7120 O 683.89 -1.70705 -0.610707 0
M  V30 7121 C 683.938 -2.18908 2.86551 0
M  V30 7122 O 683.042 -3.2543 2.53316 0
M  V30 7123 H 682.383 -0.338743 0.571095 0
M  V30 7124 H 684.913 -0.457202 1.99426 0
M  V30 7125 H 684.923 -2.62954 3.1196 0
M  V30 7126 H 683.598 -1.69726 3.79692 0
M  V30 7127 H 682.175 -2.86543 2.38637 0
M  V30 7128 N 684.36 -1.4356 -0.65026 0
M  V30 7129 C 685.608 -1.45046 -1.40734 0
M  V30 7130 C 685.929 -0.0769822 -1.94848 0
M  V30 7131 O 685.199 0.888098 -1.74613 0
M  V30 7132 H 683.779 -0.534034 -0.522318 0
M  V30 7133 H 686.441 -1.79186 -0.766703 0
M  V30 7134 H 685.537 -2.16476 -2.24822 0
M  V30 7135 N 685.838 0.888903 -1.30139 0
M  V30 7136 C 687.086 1.63713 -1.18501 0
M  V30 7137 C 687.407 1.9324 0.261399 0
M  V30 7138 O 686.677 1.56608 1.17689 0
M  V30 7139 H 685.257 0.606861 -0.435579 0
M  V30 7140 H 687.919 1.06525 -1.63213 0
M  V30 7141 H 687.015 2.58894 -1.743 0
M  V30 7142 N 687.317 1.12792 1.10072 0
M  V30 7143 C 688.728 0.899346 1.63611 0
M  V30 7144 C 689.079 -0.565547 1.87872 0
M  V30 7145 O 688.204 -1.43081 1.62348 0
M  V30 7146 C 688.799 1.62608 2.97227 0
M  V30 7147 C 687.358 1.44356 3.47618 0
M  V30 7148 C 686.505 1.65958 2.22156 0
M  V30 7149 H 689.456 1.28216 0.935223 0
M  V30 7150 H 689.477 1.0793 3.64872 0
M  V30 7151 H 688.989 2.69221 2.79538 0
M  V30 7152 H 687.09 0.400148 3.70445 0
M  V30 7153 H 687.203 2.20218 4.25489 0
M  V30 7154 H 685.567 1.08395 2.30484 0
M  V30 7155 H 686.35 2.73877 2.06993 0
M  V30 7156 N 688.795 -1.27931 0.920396 0
M  V30 7157 C 689.727 -2.26175 0.371169 0
M  V30 7158 C 690.74 -1.55122 -0.494065 0
M  V30 7159 O 691.929 -1.75825 -0.30787 0
M  V30 7160 C 689.029 -3.35376 -0.487481 0
M  V30 7161 C 688.202 -4.35943 0.356772 0
M  V30 7162 C 687.261 -5.24374 -0.438042 0
M  V30 7163 O 686.287 -5.68998 0.151715 0
M  V30 7164 N 687.489 -5.53823 -1.73956 0
M  V30 7165 H 690.254 -2.73938 1.21564 0
M  V30 7166 H 687.815 -1.41482 0.787047 0
M  V30 7167 H 689.807 -3.91476 -1.02609 0
M  V30 7168 H 688.377 -2.87269 -1.23269 0
M  V30 7169 H 687.597 -3.7921 1.07672 0
M  V30 7170 H 688.885 -5.0015 0.934206 0
M  V30 7171 H 688.283 -5.19413 -2.24114 0
M  V30 7172 H 686.84 -6.12653 -2.22486 0
M  V30 7173 N 690.273 -0.685099 -1.4193 0
M  V30 7174 C 691.236 -0.0222632 -2.29189 0
M  V30 7175 C 692.236 0.7186 -1.4385 0
M  V30 7176 O 693.426 0.555058 -1.6512 0
M  V30 7177 C 690.558 0.979013 -3.2654 0
M  V30 7178 H 691.751 -0.790424 -2.89296 0
M  V30 7179 H 689.304 -0.448012 -1.49742 0
M  V30 7180 H 690.039 1.77531 -2.71392 0
M  V30 7181 H 689.824 0.451037 -3.89497 0
M  V30 7182 H 691.314 1.44091 -3.91954 0
M  V30 7183 N 691.751 1.51645 -0.429126 0
M  V30 7184 C 692.699 2.29119 0.400921 0
M  V30 7185 C 693.693 1.34628 1.02819 0
M  V30 7186 O 694.899 1.52004 0.964098 0
M  V30 7187 H 691.274 0.737273 0.148095 0
M  V30 7188 H 693.245 2.97144 -0.273457 0
M  V30 7189 C 691.994 3.13953 1.49429 0
M  V30 7190 H 691.317 3.86544 1.02097 0
M  V30 7191 H 692.757 3.71232 2.04849 0
M  V30 7192 C 691.216 2.28796 2.47293 0
M  V30 7193 O 691.746 1.94193 3.51642 0
M  V30 7194 N 689.952 1.92177 2.17982 0
M  V30 7195 H 689.499 2.20517 1.33154 0
M  V30 7196 H 689.457 1.35497 2.83704 0
M  V30 7197 N 693.229 0.160201 1.56784 0
M  V30 7198 C 694.159 -0.770264 2.2043 0
M  V30 7199 C 695.14 -1.24736 1.15651 0
M  V30 7200 O 696.325 -1.30253 1.44041 0
M  V30 7201 C 693.455 -2.00427 2.83631 0
M  V30 7202 C 692.409 -1.66345 3.94352 0
M  V30 7203 C 691.735 -2.97119 4.4455 0
M  V30 7204 C 693.035 -0.899972 5.14488 0
M  V30 7205 H 694.729 -0.239783 2.98438 0
M  V30 7206 H 692.275 -0.113891 1.43549 0
M  V30 7207 H 694.228 -2.66012 3.26827 0
M  V30 7208 H 692.952 -2.5587 2.02973 0
M  V30 7209 H 691.611 -1.03133 3.51794 0
M  V30 7210 H 691.259 -3.5058 3.60698 0
M  V30 7211 H 690.959 -2.75073 5.19238 0
M  V30 7212 H 692.483 -3.63753 4.90425 0
M  V30 7213 H 693.897 -1.45818 5.54446 0
M  V30 7214 H 692.294 -0.778968 5.95023 0
M  V30 7215 H 693.364 0.105827 4.84785 0
M  V30 7216 N 694.707 -1.5719 -0.113559 0
M  V30 7217 C 695.657 -1.97166 -1.14497 0
M  V30 7218 C 696.641 -0.847413 -1.36776 0
M  V30 7219 O 697.833 -1.11114 -1.37777 0
M  V30 7220 C 694.962 -2.38411 -2.47013 0
M  V30 7221 C 694.048 -3.5748 -2.28185 0
M  V30 7222 N 694.439 -4.72998 -1.79182 0
M  V30 7223 C 692.737 -3.63218 -2.58821 0
M  V30 7224 C 693.438 -5.55007 -1.74191 0
M  V30 7225 N 692.414 -4.9765 -2.18735 0
M  V30 7226 H 696.216 -2.83937 -0.758733 0
M  V30 7227 H 693.73 -1.59191 -0.321234 0
M  V30 7228 H 695.727 -2.65269 -3.21618 0
M  V30 7229 H 694.387 -1.53007 -2.8639 0
M  V30 7230 H 695.398 -4.96109 -1.48649 0
M  V30 7231 H 692.075 -2.88434 -3.01847 0
M  V30 7232 H 693.465 -6.57678 -1.37512 0
M  V30 7233 N 696.185 0.383891 -1.52853 0
M  V30 7234 C 697.462 1.14296 -1.58732 0
M  V30 7235 C 697.842 2.07585 -0.383611 0
M  V30 7236 O 697.19 2.1971 0.627661 0
M  V30 7237 C 697.4 1.89816 -2.92867 0
M  V30 7238 C 698.748 2.44998 -3.46787 0
M  V30 7239 O 699.772 1.99966 -2.94774 0
M  V30 7240 O 698.631 3.2727 -4.37672 0
M  V30 7241 H 695.725 0.52326 -0.640413 0
M  V30 7242 H 698.271 0.388631 -1.6519 0
M  V30 7243 H 697.043 1.21626 -3.71918 0
M  V30 7244 H 696.666 2.72199 -2.89816 0
M  V30 7245 N 697.663 1.43903 0.642637 0
M  V30 7246 C 698.626 1.49538 1.73698 0
M  V30 7247 C 699.626 0.378776 1.56275 0
M  V30 7248 O 700.816 0.64095 1.6198 0
M  V30 7249 C 697.948 1.35821 3.12675 0
M  V30 7250 H 699.141 2.47008 1.70079 0
M  V30 7251 H 696.694 1.30824 0.85526 0
M  V30 7252 H 697.429 0.393994 3.21898 0
M  V30 7253 H 697.214 2.16776 3.26727 0
M  V30 7254 H 698.704 1.4272 3.92455 0
M  V30 7255 N 699.141 -0.881989 1.30609 0
M  V30 7256 C 700.381 -1.64817 1.20891 0
M  V30 7257 C 700.745 -1.90593 -0.232043 0
M  V30 7258 O 701.946 -2.64964 -0.452516 0
M  V30 7259 C 700.217 -2.95006 2.01758 0
M  V30 7260 S 701.776 -3.85953 2.08771 0
M  V30 7261 H 698.594 -0.565651 0.430767 0
M  V30 7262 H 701.196 -1.04665 1.65122 0
M  V30 7263 H 699.9 -2.73973 3.0556 0
M  V30 7264 H 699.431 -3.60189 1.582 0
M  V30 7265 H 701.446 -4.81037 1.21727 0
M  V30 7266 N 700.619 -1.13374 -1.09472 0
M  V30 7267 C 701.551 -0.768466 -2.15933 0
M  V30 7268 C 702.564 0.209585 -1.61445 0
M  V30 7269 O 703.753 -0.010539 -1.78497 0
M  V30 7270 C 700.853 -0.118266 -3.38694 0
M  V30 7271 C 700.026 -1.12829 -4.22597 0
M  V30 7272 C 699.085 -0.503875 -5.23782 0
M  V30 7273 O 698.111 -1.16374 -5.57177 0
M  V30 7274 N 699.313 0.724288 -5.75964 0
M  V30 7275 H 702.078 -1.68457 -2.47876 0
M  V30 7276 H 699.639 -1.02668 -1.25183 0
M  V30 7277 H 701.631 0.311698 -4.03498 0
M  V30 7278 H 700.201 0.700769 -3.04644 0
M  V30 7279 H 699.421 -1.73556 -3.53938 0
M  V30 7280 H 700.709 -1.81095 -4.75481 0
M  V30 7281 H 700.107 1.27918 -5.51048 0
M  V30 7282 H 698.664 1.09692 -6.42504 0
M  V30 7283 N 702.098 1.27442 -0.927168 0
M  V30 7284 C 703.346 1.94007 -0.566203 0
M  V30 7285 C 703.667 1.7323 0.895345 0
M  V30 7286 O 702.937 1.07973 1.63459 0
M  V30 7287 H 701.517 0.717917 -0.206409 0
M  V30 7288 H 704.179 1.55161 -1.17945 0
M  V30 7289 H 703.275 3.02401 -0.772028 0
M  V30 7290 N 703.576 0.692616 1.41565 0
M  V30 7291 C 704.853 0.150496 1.9502 0
M  V30 7292 C 705.233 -1.33881 1.63215 0
M  V30 7293 O 704.581 -2.08378 0.937598 0
M  V30 7294 C 704.791 0.438636 3.46233 0
M  V30 7295 C 706.139 0.364777 4.2303 0
M  V30 7296 O 707.163 0.373383 3.54238 0
M  V30 7297 O 706.022 0.32234 5.45549 0
M  V30 7298 H 703.116 0.0132454 0.826894 0
M  V30 7299 H 705.662 0.768574 1.51298 0
M  V30 7300 H 704.434 1.46962 3.62654 0
M  V30 7301 H 704.057 -0.210562 3.97042 0
M  V30 7302 N 705.054 -1.51416 0.437162 0
M  V30 7303 C 706.279 -2.0699 -0.130424 0
M  V30 7304 C 706.704 -1.30249 -1.35709 0
M  V30 7305 O 706.062 -0.340388 -1.78076 0
M  V30 7306 C 706.11 -3.5801 -0.43142 0
M  V30 7307 O 705.214 -3.8345 -1.5179 0
M  V30 7308 H 704.555 -0.663997 -0.00194339 0
M  V30 7309 H 707.085 -1.95029 0.618445 0
M  V30 7310 H 707.095 -4.02261 -0.681926 0
M  V30 7311 H 705.77 -4.13291 0.465137 0
M  V30 7312 H 704.347 -3.51062 -1.25737 0
M  V30 7313 N 706.532 -0.168513 -1.56696 0
M  V30 7314 C 707.78 0.476216 -1.96409 0
M  V30 7315 C 708.101 1.63968 -1.05544 0
M  V30 7316 O 707.371 1.95525 -0.121235 0
M  V30 7317 H 705.951 0.178921 -0.725256 0
M  V30 7318 H 708.613 -0.249042 -1.93302 0
M  V30 7319 H 707.709 0.838094 -3.00637 0
M  V30 7320 N 708.01 1.57248 0.105221 0
M  V30 7321 C 709.258 1.85204 0.808951 0
M  V30 7322 C 709.579 0.75574 1.7976 0
M  V30 7323 O 708.849 -0.218984 1.94672 0
M  V30 7324 H 707.429 0.683346 0.301739 0
M  V30 7325 H 710.091 1.94695 0.0892605 0
M  V30 7326 H 709.187 2.81595 1.34575 0
M  V30 7327 N 709.488 -0.375779 1.53054 0
M  V30 7328 C 710.899 -0.95309 1.6054 0
M  V30 7329 C 711.25 -1.90575 0.466446 0
M  V30 7330 O 710.375 -2.12507 -0.408609 0
M  V30 7331 C 710.97 -1.73537 2.90982 0
M  V30 7332 C 709.529 -2.26218 3.00836 0
M  V30 7333 C 708.676 -1.07157 2.55759 0
M  V30 7334 H 711.627 -0.154895 1.57942 0
M  V30 7335 H 711.648 -2.59574 2.78211 0
M  V30 7336 H 711.16 -1.04176 3.73857 0
M  V30 7337 H 709.261 -2.98852 2.22527 0
M  V30 7338 H 709.374 -2.54799 4.05727 0
M  V30 7339 H 707.738 -1.43553 2.10391 0
M  V30 7340 H 708.521 -0.393099 3.41042 0
M  V30 7341 N 710.966 -1.44241 -0.634997 0
M  V30 7342 C 711.896 -1.53632 -1.7584 0
M  V30 7343 C 712.877 -0.389603 -1.65578 0
M  V30 7344 O 714.062 -0.609219 -1.84397 0
M  V30 7345 C 711.192 -1.47644 -3.14354 0
M  V30 7346 C 710.146 -2.60752 -3.394 0
M  V30 7347 C 709.472 -2.39817 -4.77904 0
M  V30 7348 C 710.772 -4.02921 -3.32343 0
M  V30 7349 H 712.466 -2.47662 -1.68238 0
M  V30 7350 H 710.012 -1.19197 -0.807969 0
M  V30 7351 H 711.965 -1.52815 -3.92716 0
M  V30 7352 H 710.689 -0.501284 -3.2273 0
M  V30 7353 H 709.348 -2.54965 -2.63417 0
M  V30 7354 H 708.996 -1.40502 -4.82978 0
M  V30 7355 H 708.696 -3.15649 -4.9562 0
M  V30 7356 H 710.22 -2.46799 -5.585 0
M  V30 7357 H 711.634 -4.10098 -4.00615 0
M  V30 7358 H 710.031 -4.78925 -3.61595 0
M  V30 7359 H 711.101 -4.26766 -2.30215 0
M  V30 7360 N 712.444 0.87505 -1.31075 0
M  V30 7361 C 713.69 1.63009 -1.20647 0
M  V30 7362 C 714.023 1.9276 0.236045 0
M  V30 7363 O 713.298 1.55559 1.16754 0
M  V30 7364 C 713.581 2.96357 -2.0456 0
M  V30 7365 C 713.434 2.73516 -3.57084 0
M  V30 7366 C 714.753 3.974 -1.89107 0
M  V30 7367 H 711.872 0.591518 -0.439631 0
M  V30 7368 H 714.514 1.0119 -1.60812 0
M  V30 7369 H 712.664 3.49119 -1.70435 0
M  V30 7370 H 714.336 2.27465 -4.01319 0
M  V30 7371 H 712.579 2.0784 -3.80769 0
M  V30 7372 H 713.25 3.68377 -4.11099 0
M  V30 7373 H 715.726 3.5383 -2.18961 0
M  V30 7374 H 714.602 4.88596 -2.5013 0
M  V30 7375 H 714.863 4.33794 -0.85296 0
M  V30 7376 N 713.922 1.13953 1.08869 0
M  V30 7377 C 715.162 0.915128 1.8277 0
M  V30 7378 C 715.526 -0.548647 1.83994 0
M  V30 7379 O 716.727 -0.890817 2.5361 0
M  V30 7380 C 714.998 1.49382 3.24684 0
M  V30 7381 S 716.557 1.4103 4.15519 0
M  V30 7382 H 713.375 0.329716 0.629927 0
M  V30 7383 H 715.977 1.45213 1.30895 0
M  V30 7384 H 714.681 2.55241 3.21372 0
M  V30 7385 H 714.212 0.955008 3.81632 0
M  V30 7386 H 716.227 0.392617 4.94644 0
M  V30 7387 N 715.4 -1.26948 0.933913 0
M  V30 7388 C 716.33 -2.29017 0.45534 0
M  V30 7389 C 717.311 -1.62961 -0.487605 0
M  V30 7390 O 718.496 -1.90223 -0.391022 0
M  V30 7391 C 715.626 -3.46112 -0.287015 0
M  V30 7392 C 714.58 -4.24205 0.568682 0
M  V30 7393 C 713.906 -5.3384 -0.303206 0
M  V30 7394 C 715.206 -4.88954 1.83633 0
M  V30 7395 H 716.9 -2.69298 1.30839 0
M  V30 7396 H 714.446 -1.29459 0.630579 0
M  V30 7397 H 716.399 -4.16622 -0.6328 0
M  V30 7398 H 715.123 -3.04765 -1.17414 0
M  V30 7399 H 713.782 -3.5545 0.897261 0
M  V30 7400 H 713.43 -4.88734 -1.18947 0
M  V30 7401 H 713.13 -5.86998 0.265879 0
M  V30 7402 H 714.654 -6.0719 -0.644423 0
M  V30 7403 H 716.068 -5.51717 1.55823 0
M  V30 7404 H 714.465 -5.52198 2.34941 0
M  V30 7405 H 715.535 -4.12305 2.55211 0
M  V30 7406 N 716.879 -0.700114 -1.41195 0
M  V30 7407 C 717.827 -0.0263301 -2.32585 0
M  V30 7408 C 718.821 0.763683 -1.51209 0
M  V30 7409 O 720.027 0.668793 -1.67114 0
M  V30 7410 H 716.402 0.0102869 -0.75193 0
M  V30 7411 H 718.373 -0.814087 -2.8708 0
M  V30 7412 C 717.122 0.892793 -3.36042 0
M  V30 7413 H 716.445 0.294306 -3.98715 0
M  V30 7414 H 717.885 1.33247 -4.02518 0
M  V30 7415 C 716.344 2.01109 -2.7029 0
M  V30 7416 O 716.874 3.10035 -2.55423 0
M  V30 7417 N 715.08 1.79015 -2.28915 0
M  V30 7418 H 714.627 0.904275 -2.41207 0
M  V30 7419 H 714.585 2.54022 -1.85257 0
M  V30 7420 N 718.357 1.51182 -0.445186 0
M  V30 7421 C 719.634 1.9478 0.178965 0
M  V30 7422 C 720.014 1.38428 1.59376 0
M  V30 7423 O 719.362 0.574552 2.21159 0
M  V30 7424 C 719.572 3.48683 0.148711 0
M  V30 7425 C 720.92 4.23152 0.35042 0
M  V30 7426 O 721.944 3.55479 0.226474 0
M  V30 7427 O 720.803 5.4322 0.597893 0
M  V30 7428 H 717.897 0.817387 0.12573 0
M  V30 7429 H 720.443 1.62051 -0.503729 0
M  V30 7430 H 719.215 3.82176 -0.84009 0
M  V30 7431 H 718.838 3.87875 0.873979 0
M  V30 7432 N 719.835 0.176821 1.56605 0
M  V30 7433 C 721.083 -0.465793 1.96659 0
M  V30 7434 C 721.404 -1.63406 1.06412 0
M  V30 7435 O 720.674 -1.95457 0.131603 0
M  V30 7436 H 719.254 -0.175072 0.726195 0
M  V30 7437 H 721.916 0.25929 1.93168 0
M  V30 7438 H 721.012 -0.822138 3.01077 0
M  V30 7439 N 721.313 -1.57302 -0.09688 0
M  V30 7440 C 722.729 -1.53094 -0.451041 0
M  V30 7441 C 722.929 -0.893265 -1.80618 0
M  V30 7442 O 721.985 -0.485013 -2.47798 0
M  V30 7443 C 723.298 -2.9782 -0.415172 0
M  V30 7444 C 724.846 -3.09026 -0.497155 0
M  V30 7445 C 725.321 -4.55356 -0.491452 0
M  V30 7446 N 726.812 -4.59896 -0.552258 0
M  V30 7447 C 727.547 -5.70563 -0.569654 0
M  V30 7448 N 727.043 -6.90666 -0.543365 0
M  V30 7449 N 728.836 -5.58733 -0.614331 0
M  V30 7450 H 720.987 -1.97131 0.790771 0
M  V30 7451 H 723.25 -0.901211 0.294147 0
M  V30 7452 H 722.956 -3.47933 0.513362 0
M  V30 7453 H 722.83 -3.56416 -1.23481 0
M  V30 7454 H 725.217 -2.58902 -1.41611 0
M  V30 7455 H 725.298 -2.53386 0.35059 0
M  V30 7456 H 724.942 -5.06131 0.423549 0
M  V30 7457 H 724.872 -5.08832 -1.35639 0
M  V30 7458 H 727.363 -3.73456 -0.577842 0
M  V30 7459 H 727.676 -7.70769 -0.559873 0
M  V30 7460 H 726.021 -6.93123 -0.510441 0
M  V30 7461 H 729.212 -4.63809 -0.632387 0
M  V30 7462 H 729.385 -6.44984 -0.62442 0
M  V30 7463 N 722.791 0.367657 -1.53252 0
M  V30 7464 C 723.724 1.47264 -1.74323 0
M  V30 7465 C 724.702 1.51458 -0.591535 0
M  V30 7466 O 725.886 1.69542 -0.823883 0
M  V30 7467 C 723.013 2.85637 -1.82015 0
M  V30 7468 C 722.059 2.99176 -3.03967 0
M  V30 7469 S 722.892 2.68147 -4.63527 0
M  V30 7470 C 724.048 4.08673 -4.74065 0
M  V30 7471 H 724.281 1.29169 -2.67773 0
M  V30 7472 H 721.814 0.561866 -1.43814 0
M  V30 7473 H 723.772 3.65365 -1.87132 0
M  V30 7474 H 722.433 3.01043 -0.896195 0
M  V30 7475 H 721.626 4.00511 -3.05953 0
M  V30 7476 H 721.228 2.27367 -2.96952 0
M  V30 7477 H 723.52 5.02889 -4.53992 0
M  V30 7478 H 724.463 4.11693 -5.7612 0
M  V30 7479 H 724.871 3.95576 -4.02716 0
M  V30 7480 N 724.269 1.44576 0.627338 0
M  V30 7481 C 725.497 1.51048 1.41394 0
M  V30 7482 C 725.912 0.136568 1.88305 0
M  V30 7483 O 725.269 -0.858251 1.6106 0
M  V30 7484 C 725.32 2.47837 2.63172 0
M  V30 7485 O 725.041 3.79887 2.18215 0
M  V30 7486 C 726.542 2.63811 3.56257 0
M  V30 7487 H 723.762 0.512171 0.4335 0
M  V30 7488 H 726.306 1.89576 0.766878 0
M  V30 7489 H 724.461 2.12433 3.23961 0
M  V30 7490 H 724.875 4.32177 2.97192 0
M  V30 7491 H 726.349 3.35554 4.38301 0
M  V30 7492 H 726.826 1.69169 4.05313 0
M  V30 7493 H 727.432 3.0013 3.01333 0
M  V30 7494 N 725.747 -0.868086 1.31537 0
M  V30 7495 C 726.677 -1.99131 1.21939 0
M  V30 7496 C 727.658 -1.69768 0.106166 0
M  V30 7497 O 728.843 -1.92006 0.291081 0
M  V30 7498 C 725.973 -3.34676 0.927879 0
M  V30 7499 C 724.927 -3.7835 2.00088 0
M  V30 7500 C 724.253 -5.11375 1.56203 0
M  V30 7501 C 725.553 -3.95256 3.41424 0
M  V30 7502 H 727.247 -2.07419 2.15911 0
M  V30 7503 H 724.793 -0.996569 1.03945 0
M  V30 7504 H 726.746 -4.12793 0.847327 0
M  V30 7505 H 725.47 -3.26565 -0.0475042 0
M  V30 7506 H 724.129 -3.02474 2.07135 0
M  V30 7507 H 723.777 -4.99709 0.57445 0
M  V30 7508 H 723.477 -5.41568 2.27985 0
M  V30 7509 H 725.001 -5.92001 1.49558 0
M  V30 7510 H 726.415 -4.63764 3.3704 0
M  V30 7511 H 724.812 -4.36849 4.1144 0
M  V30 7512 H 725.882 -2.98579 3.82072 0
M  V30 7513 N 727.225 -1.14528 -1.08264 0
M  V30 7514 C 728.471 -0.91576 -1.80947 0
M  V30 7515 C 728.804 0.55623 -1.86064 0
M  V30 7516 O 728.079 1.41207 -1.33756 0
M  V30 7517 C 728.362 -1.51917 -3.26486 0
M  V30 7518 C 728.215 -3.06111 -3.2957 0
M  V30 7519 C 729.534 -1.19724 -4.23502 0
M  V30 7520 H 726.653 -0.334113 -0.656915 0
M  V30 7521 H 729.295 -1.41547 -1.26746 0
M  V30 7522 H 727.445 -1.0942 -3.72773 0
M  V30 7523 H 729.117 -3.57448 -2.91597 0
M  V30 7524 H 727.36 -3.40483 -2.688 0
M  V30 7525 H 728.031 -3.43438 -4.32151 0
M  V30 7526 H 730.507 -1.56467 -3.85561 0
M  V30 7527 H 729.383 -1.64575 -5.23647 0
M  V30 7528 H 729.644 -0.112771 -4.41956 0
M  V30 7529 N 728.703 1.26451 -0.940633 0
M  V30 7530 C 729.951 1.93395 -0.586748 0
M  V30 7531 C 730.272 1.7417 0.876921 0
M  V30 7532 O 729.542 1.097 1.62304 0
M  V30 7533 H 728.122 0.715687 -0.214012 0
M  V30 7534 H 730.784 1.53902 -1.19584 0
M  V30 7535 H 729.88 3.01565 -0.804059 0
M  V30 7536 N 730.181 0.707592 1.40822 0
M  V30 7537 C 731.43 0.240705 2.00259 0
M  V30 7538 C 731.743 -1.17027 1.56729 0
M  V30 7539 O 732.949 -1.73526 2.08809 0
M  V30 7540 C 731.405 0.379432 3.57894 0
M  V30 7541 C 731.013 1.79654 4.104 0
M  V30 7542 C 732.757 -0.0270684 4.24491 0
M  V30 7543 C 730.664 1.88628 5.60512 0
M  V30 7544 H 729.594 0.0862369 0.749052 0
M  V30 7545 H 732.245 0.877528 1.61157 0
M  V30 7546 H 730.627 -0.325842 3.94657 0
M  V30 7547 H 731.801 2.53155 3.85032 0
M  V30 7548 H 730.116 2.15379 3.56372 0
M  V30 7549 H 732.713 0.0193743 5.34696 0
M  V30 7550 H 733.056 -1.06772 4.02375 0
M  V30 7551 H 733.589 0.628361 3.92806 0
M  V30 7552 H 730.328 2.90787 5.87472 0
M  V30 7553 H 729.848 1.19528 5.8777 0
M  V30 7554 H 731.527 1.6547 6.25483 0
M  V30 7555 N 731.66 -1.50943 0.453197 0
M  V30 7556 C 732.909 -2.01402 -0.10951 0
M  V30 7557 C 733.222 -1.3411 -1.42386 0
M  V30 7558 O 734.428 -1.75626 -2.07045 0
M  V30 7559 C 732.884 -3.5906 -0.245693 0
M  V30 7560 C 732.492 -4.353 1.05916 0
M  V30 7561 C 734.236 -4.17617 -0.761318 0
M  V30 7562 C 732.143 -5.84699 0.887752 0
M  V30 7563 H 731.073 -0.752674 -0.0447013 0
M  V30 7564 H 733.724 -1.73913 0.585375 0
M  V30 7565 H 732.106 -3.83062 -1.00395 0
M  V30 7566 H 733.28 -4.23034 1.82698 0
M  V30 7567 H 731.595 -3.88269 1.50452 0
M  V30 7568 H 734.192 -5.26963 -0.906306 0
M  V30 7569 H 734.535 -3.77824 -1.74799 0
M  V30 7570 H 735.068 -3.97753 -0.0609416 0
M  V30 7571 H 731.807 -6.28933 1.84726 0
M  V30 7572 H 731.327 -5.99587 0.160006 0
M  V30 7573 H 733.006 -6.44682 0.547223 0
M  V30 7574 N 733.138 -0.185124 -1.56509 0
M  V30 7575 C 734.363 0.465278 -2.02114 0
M  V30 7576 C 734.788 1.55083 -1.06447 0
M  V30 7577 O 734.146 1.81241 -0.0462852 0
M  V30 7578 C 734.194 1.00784 -3.46229 0
M  V30 7579 O 733.298 2.12123 -3.53663 0
M  V30 7580 H 732.639 0.109891 -0.654843 0
M  V30 7581 H 735.169 -0.293072 -2.0249 0
M  V30 7582 H 735.179 1.32697 -3.85818 0
M  V30 7583 H 733.854 0.213113 -4.15354 0
M  V30 7584 H 732.431 1.8115 -3.25943 0
M  V30 7585 N 734.616 1.57351 0.0885366 0
M  V30 7586 C 735.862 1.87564 0.786842 0
M  V30 7587 C 736.217 0.776774 1.76023 0
M  V30 7588 O 735.51 -0.220637 1.90325 0
M  V30 7589 C 735.704 3.22098 1.5488 0
M  V30 7590 C 735.533 4.44967 0.650706 0
M  V30 7591 C 734.303 5.04444 0.293957 0
M  V30 7592 C 736.501 5.1428 -0.0452187 0
M  V30 7593 N 734.483 6.10846 -0.611609 0
M  V30 7594 C 735.854 6.14704 -0.808603 0
M  V30 7595 C 737.909 4.97759 -0.118451 0
M  V30 7596 C 736.612 7.00392 -1.63839 0
M  V30 7597 C 738.638 5.8396 -0.935157 0
M  V30 7598 C 738 6.83909 -1.68664 0
M  V30 7599 H 734.099 0.73613 0.263887 0
M  V30 7600 H 736.683 1.94638 0.049074 0
M  V30 7601 H 734.854 3.16064 2.2574 0
M  V30 7602 H 736.586 3.40015 2.19481 0
M  V30 7603 H 733.341 4.69214 0.643086 0
M  V30 7604 H 733.765 6.68695 -1.05714 0
M  V30 7605 H 738.407 4.20418 0.448202 0
M  V30 7606 H 736.125 7.7712 -2.21608 0
M  V30 7607 H 739.711 5.73236 -0.994579 0
M  V30 7608 H 738.591 7.49454 -2.30842 0
M  V30 7609 N 736.094 -0.359525 1.53444 0
M  V30 7610 C 737.342 -1.09935 1.69584 0
M  V30 7611 C 737.663 -1.89656 0.453371 0
M  V30 7612 O 736.933 -1.8852 -0.53263 0
M  V30 7613 H 735.513 -0.408843 0.625185 0
M  V30 7614 H 738.175 -0.40467 1.90653 0
M  V30 7615 H 737.271 -1.78575 2.55964 0
M  V30 7616 N 737.572 -1.44907 -0.619662 0
M  V30 7617 C 738.502 -1.55488 -1.742 0
M  V30 7618 C 739.483 -0.407143 -1.65156 0
M  V30 7619 O 740.668 -0.628743 -1.8374 0
M  V30 7620 C 737.798 -1.5097 -3.1277 0
M  V30 7621 C 736.752 -2.64337 -3.36615 0
M  V30 7622 C 736.078 -2.44872 -4.75333 0
M  V30 7623 C 737.378 -4.06423 -3.28051 0
M  V30 7624 H 739.072 -2.49432 -1.65602 0
M  V30 7625 H 736.618 -1.20047 -0.795281 0
M  V30 7626 H 738.571 -1.56971 -3.91073 0
M  V30 7627 H 737.295 -0.535486 -3.2218 0
M  V30 7628 H 735.954 -2.57744 -2.60698 0
M  V30 7629 H 735.602 -1.45617 -4.81461 0
M  V30 7630 H 735.302 -3.20888 -4.92244 0
M  V30 7631 H 736.826 -2.52709 -5.55851 0
M  V30 7632 H 738.24 -4.14324 -3.96243 0
M  V30 7633 H 736.637 -4.82733 -3.56495 0
M  V30 7634 H 737.707 -4.29183 -2.25676 0
M  V30 7635 N 739.05 0.861098 -1.31996 0
M  V30 7636 C 740.298 1.61162 -1.21947 0
M  V30 7637 C 740.619 1.93751 0.220351 0
M  V30 7638 O 739.889 1.59069 1.14341 0
M  V30 7639 H 738.469 0.597485 -0.448353 0
M  V30 7640 H 741.131 1.03039 -1.65436 0
M  V30 7641 H 740.227 2.55138 -1.79752 0
M  V30 7642 N 740.528 1.15101 1.07655 0
M  V30 7643 C 741.768 0.934462 1.81789 0
M  V30 7644 C 742.132 -0.529101 1.84566 0
M  V30 7645 O 743.333 -0.863868 2.5454 0
M  V30 7646 C 741.604 1.52817 3.23082 0
M  V30 7647 S 743.163 1.45429 4.14 0
M  V30 7648 H 739.981 0.336379 0.626395 0
M  V30 7649 H 742.583 1.46593 1.29347 0
M  V30 7650 H 741.287 2.58635 3.18647 0
M  V30 7651 H 740.818 0.995432 3.80598 0
M  V30 7652 H 742.833 0.445058 4.942 0
M  V30 7653 N 742.006 -1.2595 0.947325 0
M  V30 7654 C 743.254 -1.93081 0.596996 0
M  V30 7655 C 743.575 -1.74632 -0.867672 0
M  V30 7656 O 742.845 -1.1056 -1.6172 0
M  V30 7657 H 741.425 -0.714542 0.217805 0
M  V30 7658 H 744.087 -1.53265 1.20398 0
M  V30 7659 H 743.183 -3.01134 0.82004 0
M  V30 7660 N 743.484 -0.715051 -1.40445 0
M  V30 7661 C 744.416 -0.0227516 -2.29189 0
M  V30 7662 C 745.429 0.724313 -1.458 0
M  V30 7663 O 746.618 0.571781 -1.69094 0
M  V30 7664 C 743.718 0.992038 -3.24055 0
M  V30 7665 C 742.891 0.310613 -4.36296 0
M  V30 7666 C 741.95 1.23071 -5.11605 0
M  V30 7667 O 740.976 0.71571 -5.64682 0
M  V30 7668 N 742.178 2.56188 -5.2091 0
M  V30 7669 H 744.943 -0.78473 -2.89244 0
M  V30 7670 H 742.504 -0.562637 -1.51809 0
M  V30 7671 H 744.496 1.60973 -3.71308 0
M  V30 7672 H 743.066 1.65538 -2.65171 0
M  V30 7673 H 742.286 -0.487269 -3.91177 0
M  V30 7674 H 743.574 -0.162415 -5.08541 0
M  V30 7675 H 742.972 3.00527 -4.7927 0
M  V30 7676 H 741.529 3.13103 -5.71673 0
M  V30 7677 N 744.962 1.50701 -0.461195 0
M  V30 7678 C 745.909 2.2831 0.338094 0
M  V30 7679 C 746.879 1.32928 0.995957 0
M  V30 7680 O 748.064 1.61857 1.0103 0
M  V30 7681 C 745.204 3.14539 1.41983 0
M  V30 7682 C 744.317 4.24942 0.77773 0
M  V30 7683 C 743.452 4.98443 1.83652 0
M  V30 7684 C 742.491 6.00733 1.17413 0
M  V30 7685 N 741.628 6.6755 2.17533 0
M  V30 7686 H 746.468 2.96167 -0.330051 0
M  V30 7687 H 744.005 1.4606 -0.174611 0
M  V30 7688 H 745.963 3.62877 2.05855 0
M  V30 7689 H 744.593 2.48749 2.05727 0
M  V30 7690 H 743.645 3.80391 0.0266924 0
M  V30 7691 H 744.957 4.98151 0.254362 0
M  V30 7692 H 744.111 5.50449 2.55129 0
M  V30 7693 H 742.85 4.24917 2.39367 0
M  V30 7694 H 741.855 5.47997 0.444944 0
M  V30 7695 H 743.08 6.76227 0.624006 0
M  V30 7696 H 741.026 5.96823 2.72284 0
M  V30 7697 H 740.943 7.36603 1.70154 0
M  V30 7698 H 742.211 7.24178 2.88421 0
M  V30 7699 N 746.441 0.193421 1.56409 0
M  V30 7700 C 747.718 -0.493318 1.89277 0
M  V30 7701 C 748.098 -1.79765 1.10669 0
M  V30 7702 O 747.446 -2.27558 0.207274 0
M  V30 7703 C 747.656 -0.713732 3.41624 0
M  V30 7704 C 749.004 -1.03385 4.11821 0
M  V30 7705 O 750.028 -0.801511 3.47065 0
M  V30 7706 O 748.887 -1.47327 5.26267 0
M  V30 7707 H 745.981 -0.256973 0.786062 0
M  V30 7708 H 748.527 0.23351 1.68086 0
M  V30 7709 H 747.299 0.207446 3.9075 0
M  V30 7710 H 746.922 -1.49308 3.68501 0
M  V30 7711 N 747.919 -1.57396 -0.0801906 0
M  V30 7712 C 749.165 -1.87113 -0.782083 0
M  V30 7713 C 749.498 -0.78458 -1.77646 0
M  V30 7714 O 748.773 0.205993 -1.93406 0
M  V30 7715 C 749.056 -3.27483 -1.49756 0
M  V30 7716 C 748.909 -4.46782 -0.520171 0
M  V30 7717 C 750.228 -3.65965 -2.44454 0
M  V30 7718 H 747.347 -0.680559 -0.282858 0
M  V30 7719 H 749.989 -1.89946 -0.0454139 0
M  V30 7720 H 748.139 -3.25199 -2.12551 0
M  V30 7721 H 749.811 -4.61187 0.101919 0
M  V30 7722 H 748.054 -4.33485 0.165219 0
M  V30 7723 H 748.725 -5.41761 -1.05824 0
M  V30 7724 H 751.201 -3.69289 -1.91742 0
M  V30 7725 H 750.077 -4.65086 -2.91524 0
M  V30 7726 H 750.338 -2.95446 -3.28883 0
M  V30 7727 N 749.397 0.351382 -1.53633 0
M  V30 7728 C 750.808 0.927429 -1.62036 0
M  V30 7729 C 751.159 1.89809 -0.496706 0
M  V30 7730 O 750.284 2.1313 0.374749 0
M  V30 7731 C 750.879 1.68886 -2.93706 0
M  V30 7732 C 749.438 2.21404 -3.04397 0
M  V30 7733 C 748.585 1.03075 -2.57431 0
M  V30 7734 H 751.536 0.129748 -1.58169 0
M  V30 7735 H 751.557 2.55116 -2.82305 0
M  V30 7736 H 751.069 0.982149 -3.75467 0
M  V30 7737 H 749.17 2.95274 -2.27253 0
M  V30 7738 H 749.283 2.48312 -4.09729 0
M  V30 7739 H 747.647 1.40188 -2.12649 0
M  V30 7740 H 748.43 0.338793 -3.41624 0
M  V30 7741 N 750.875 1.45233 0.611969 0
M  V30 7742 C 752.123 1.48727 1.36838 0
M  V30 7743 C 752.444 0.128616 1.94575 0
M  V30 7744 O 751.714 -0.84149 1.76906 0
M  V30 7745 H 750.294 0.547695 0.507976 0
M  V30 7746 H 752.956 1.81156 0.718925 0
M  V30 7747 H 752.052 2.2236 2.19003 0
M  V30 7748 N 752.353 -0.854086 1.3245 0
M  V30 7749 C 753.599 -1.61069 1.23225 0
M  V30 7750 C 753.932 -1.93111 -0.205349 0
M  V30 7751 O 753.207 -1.57397 -1.14265 0
M  V30 7752 C 753.49 -2.93065 2.09249 0
M  V30 7753 C 753.343 -2.67801 3.6139 0
M  V30 7754 C 754.662 -3.94341 1.95406 0
M  V30 7755 H 751.781 -0.584449 0.448986 0
M  V30 7756 H 754.423 -0.986189 1.62402 0
M  V30 7757 H 752.573 -3.46364 1.75967 0
M  V30 7758 H 754.245 -2.21052 4.04887 0
M  V30 7759 H 752.488 -2.01756 3.84027 0
M  V30 7760 H 753.159 -3.6179 4.16907 0
M  V30 7761 H 755.635 -3.50301 2.24562 0
M  V30 7762 H 754.511 -4.84555 2.57872 0
M  V30 7763 H 754.772 -4.32382 0.921865 0
M  V30 7764 N 753.831 -1.1567 -1.07043 0
M  V30 7765 C 755.061 -0.956083 -1.83146 0
M  V30 7766 C 755.469 0.498969 -1.82502 0
M  V30 7767 O 754.812 1.35791 -1.23719 0
M  V30 7768 C 754.874 -1.39704 -3.31245 0
M  V30 7769 C 754.538 -2.87045 -3.55604 0
M  V30 7770 C 755.535 -3.85092 -3.49285 0
M  V30 7771 C 753.22 -3.24787 -3.8317 0
M  V30 7772 C 755.214 -5.18885 -3.70185 0
M  V30 7773 C 752.901 -4.58751 -4.03721 0
M  V30 7774 C 753.899 -5.55609 -3.97224 0
M  V30 7775 O 753.587 -6.87154 -4.17223 0
M  V30 7776 H 753.319 -0.339473 -0.58458 0
M  V30 7777 H 755.873 -1.53922 -1.36005 0
M  V30 7778 H 754.103 -0.757326 -3.79212 0
M  V30 7779 H 755.792 -1.16503 -3.88821 0
M  V30 7780 H 756.558 -3.5728 -3.27988 0
M  V30 7781 H 752.437 -2.49979 -3.87339 0
M  V30 7782 H 755.981 -5.94473 -3.6503 0
M  V30 7783 H 751.878 -4.86277 -4.24505 0
M  V30 7784 H 752.646 -6.93618 -4.34553 0
M  V30 7785 N 755.309 1.25446 -0.953992 0
M  V30 7786 C 756.537 1.97215 -0.625595 0
M  V30 7787 C 756.952 1.70911 0.802168 0
M  V30 7788 O 756.309 0.984782 1.5365 0
M  V30 7789 C 756.36 3.50777 -0.873943 0
M  V30 7790 O 756.081 3.76173 -2.24556 0
M  V30 7791 C 757.582 4.39776 -0.557845 0
M  V30 7792 H 754.802 0.628652 -0.2346 0
M  V30 7793 H 757.346 1.59632 -1.27819 0
M  V30 7794 H 755.501 3.86474 -0.267765 0
M  V30 7795 H 755.915 4.70636 -2.31522 0
M  V30 7796 H 757.389 5.46431 -0.782157 0
M  V30 7797 H 757.866 4.36257 0.507573 0
M  V30 7798 H 758.472 4.09644 -1.14332 0
M  V30 7799 N 756.787 0.722489 1.40064 0
M  V30 7800 C 757.734 0.0743738 2.3068 0
M  V30 7801 C 758.704 -0.743004 1.48555 0
M  V30 7802 O 759.889 -0.705536 1.77276 0
M  V30 7803 C 757.029 -0.836292 3.34814 0
M  V30 7804 C 756.142 -0.00764663 4.31999 0
M  V30 7805 C 755.277 -0.918428 5.232 0
M  V30 7806 C 754.316 -0.0842838 6.12042 0
M  V30 7807 N 753.453 -0.950316 6.95639 0
M  V30 7808 H 758.293 0.852794 2.85537 0
M  V30 7809 H 755.83 0.432222 1.40607 0
M  V30 7810 H 757.788 -1.3786 3.93765 0
M  V30 7811 H 756.418 -1.58082 2.81443 0
M  V30 7812 H 755.47 0.651928 3.74772 0
M  V30 7813 H 756.782 0.63786 4.94705 0
M  V30 7814 H 755.936 -1.52902 5.87116 0
M  V30 7815 H 754.675 -1.59774 4.60786 0
M  V30 7816 H 753.68 0.5392 5.4715 0
M  V30 7817 H 754.905 0.591628 6.76518 0
M  V30 7818 H 752.851 -1.61515 6.35806 0
M  V30 7819 H 752.768 -0.361004 7.55138 0
M  V30 7820 H 754.036 -1.54687 7.63997 0
M  V30 7821 N 758.265 -1.50454 0.469181 0
M  V30 7822 C 759.511 -2.02615 -0.0865971 0
M  V30 7823 C 759.844 -1.35062 -1.39542 0
M  V30 7824 O 759.119 -0.475701 -1.88593 0
M  V30 7825 C 759.402 -3.59068 -0.272385 0
M  V30 7826 C 759.255 -4.37196 1.05733 0
M  V30 7827 C 760.574 -4.2793 -1.0278 0
M  V30 7828 H 757.693 -0.736389 -0.0299977 0
M  V30 7829 H 760.335 -1.79792 0.614399 0
M  V30 7830 H 758.485 -3.78646 -0.869471 0
M  V30 7831 H 760.157 -4.29195 1.69084 0
M  V30 7832 H 758.4 -4.01013 1.65442 0
M  V30 7833 H 759.071 -5.44924 0.880997 0
M  V30 7834 H 761.547 -4.12816 -0.521718 0
M  V30 7835 H 760.423 -5.37214 -1.12659 0
M  V30 7836 H 760.684 -3.90968 -2.0639 0
M  V30 7837 N 759.743 -0.201713 -1.56304 0
M  V30 7838 C 760.971 0.440723 -2.02152 0
M  V30 7839 C 761.386 1.54735 -1.08179 0
M  V30 7840 O 760.743 1.82289 -0.0878196 0
M  V30 7841 C 760.794 0.990884 -3.47655 0
M  V30 7842 O 760.515 -0.0715937 -4.38041 0
M  V30 7843 C 762.016 1.70854 -4.09052 0
M  V30 7844 H 759.236 0.109987 -0.661924 0
M  V30 7845 H 761.78 -0.312358 -2.021 0
M  V30 7846 H 759.935 1.69432 -3.48384 0
M  V30 7847 H 760.349 0.338892 -5.23404 0
M  V30 7848 H 761.823 2.04572 -5.12693 0
M  V30 7849 H 762.3 2.61462 -3.52894 0
M  V30 7850 H 762.906 1.0508 -4.12114 0
M  V30 7851 N 761.222 1.57436 0.0718424 0
M  V30 7852 C 762.17 2.04725 1.10411 0
M  V30 7853 C 763.164 0.952579 1.4008 0
M  V30 7854 O 764.37 1.13769 1.39487 0
M  V30 7855 H 760.745 0.652749 0.373393 0
M  V30 7856 H 762.716 2.90569 0.679126 0
M  V30 7857 C 761.465 2.5068 2.40946 0
M  V30 7858 H 760.788 3.34505 2.18967 0
M  V30 7859 H 762.228 2.87521 3.11621 0
M  V30 7860 C 760.687 1.38971 3.06902 0
M  V30 7861 O 761.217 0.731786 3.94978 0
M  V30 7862 N 759.423 1.13485 2.67525 0
M  V30 7863 H 758.97 1.67168 1.95991 0
M  V30 7864 H 758.928 0.389467 3.11978 0
M  V30 7865 N 762.7 -0.34323 1.53817 0
M  V30 7866 C 763.93 -1.10188 1.74763 0
M  V30 7867 C 764.338 -1.82829 0.486856 0
M  V30 7868 O 763.681 -1.75236 -0.551198 0
M  V30 7869 C 763.743 -2.16 2.87375 0
M  V30 7870 C 763.407 -1.62931 4.26969 0
M  V30 7871 C 764.404 -1.08147 5.08528 0
M  V30 7872 C 762.089 -1.67769 4.73454 0
M  V30 7873 C 764.083 -0.589039 6.34672 0
M  V30 7874 C 761.77 -1.18138 5.99572 0
M  V30 7875 C 762.768 -0.637979 6.80014 0
M  V30 7876 O 762.456 -0.149073 8.03762 0
M  V30 7877 H 762.188 -0.33445 0.587469 0
M  V30 7878 H 764.742 -0.401109 2.01445 0
M  V30 7879 H 762.972 -2.89637 2.56218 0
M  V30 7880 H 764.661 -2.77432 2.96287 0
M  V30 7881 H 765.427 -1.03732 4.73777 0
M  V30 7882 H 761.306 -2.09004 4.10899 0
M  V30 7883 H 764.85 -0.164233 6.97407 0
M  V30 7884 H 760.747 -1.22254 6.33817 0
M  V30 7885 H 761.515 -0.266332 8.18067 0
M  V30 7886 N 764.178 -1.45556 -0.604258 0
M  V30 7887 C 765.108 -1.57327 -1.72541 0
M  V30 7888 C 766.089 -0.424637 -1.64714 0
M  V30 7889 O 767.274 -0.648196 -1.83063 0
M  V30 7890 C 764.404 -1.54279 -3.11152 0
M  V30 7891 C 763.358 -2.67893 -3.33792 0
M  V30 7892 C 762.684 -2.499 -4.72709 0
M  V30 7893 C 763.984 -4.0988 -3.23722 0
M  V30 7894 H 765.678 -2.51175 -1.62947 0
M  V30 7895 H 763.224 -1.20884 -0.782504 0
M  V30 7896 H 765.177 -1.6111 -3.89386 0
M  V30 7897 H 763.901 -0.569627 -3.21594 0
M  V30 7898 H 762.56 -2.60495 -2.57949 0
M  V30 7899 H 762.208 -1.50715 -4.79889 0
M  V30 7900 H 761.908 -3.26091 -4.88813 0
M  V30 7901 H 763.432 -2.5859 -5.5314 0
M  V30 7902 H 764.846 -4.18503 -3.91826 0
M  V30 7903 H 763.243 -4.86487 -3.51355 0
M  V30 7904 H 764.313 -4.31553 -2.21111 0
M  V30 7905 N 765.656 0.84705 -1.32902 0
M  V30 7906 C 766.933 1.58583 -1.14503 0
M  V30 7907 C 767.313 2.09075 0.291724 0
M  V30 7908 O 766.661 1.88636 1.28952 0
M  V30 7909 C 766.871 2.72605 -2.17916 0
M  V30 7910 C 768.219 3.41993 -2.51646 0
M  V30 7911 O 769.243 2.82838 -2.1652 0
M  V30 7912 O 768.102 4.48761 -3.1189 0
M  V30 7913 H 765.196 0.698756 -0.442345 0
M  V30 7914 H 767.742 0.890516 -1.44457 0
M  V30 7915 H 766.514 2.32876 -3.14459 0
M  V30 7916 H 766.137 3.49807 -1.89 0
M  V30 7917 N 767.134 1.16236 1.06428 0
M  V30 7918 C 768.38 0.954417 1.79617 0
M  V30 7919 C 768.735 -0.512411 1.85451 0
M  V30 7920 O 768.028 -1.37523 1.33409 0
M  V30 7921 C 768.222 1.51396 3.2375 0
M  V30 7922 C 768.051 3.03367 3.31962 0
M  V30 7923 C 766.821 3.71996 3.41975 0
M  V30 7924 C 769.019 4.01075 3.21937 0
M  V30 7925 N 767.001 5.11688 3.39187 0
M  V30 7926 C 768.372 5.27142 3.26376 0
M  V30 7927 C 770.427 3.92917 3.05812 0
M  V30 7928 C 769.13 6.46 3.16348 0
M  V30 7929 C 771.156 5.11344 2.97121 0
M  V30 7930 C 770.518 6.36291 3.02181 0
M  V30 7931 H 766.617 0.403007 0.670156 0
M  V30 7932 H 769.201 1.47605 1.26968 0
M  V30 7933 H 767.372 1.01883 3.74799 0
M  V30 7934 H 769.104 1.2439 3.85109 0
M  V30 7935 H 765.859 3.22623 3.46715 0
M  V30 7936 H 766.283 5.84676 3.41297 0
M  V30 7937 H 770.925 2.97172 3.00746 0
M  V30 7938 H 768.643 7.41968 3.2017 0
M  V30 7939 H 772.229 5.06801 2.85734 0
M  V30 7940 H 771.109 7.26389 2.95513 0
M  V30 7941 N 768.612 -1.24939 0.960631 0
M  V30 7942 C 769.861 -1.92118 0.614298 0
M  V30 7943 C 770.174 -1.75998 -0.853474 0
M  V30 7944 O 771.38 -2.37804 -1.31003 0
M  V30 7945 C 769.836 -3.44303 1.04801 0
M  V30 7946 C 769.444 -3.69123 2.53875 0
M  V30 7947 C 771.188 -4.17375 0.774497 0
M  V30 7948 C 769.095 -5.14843 2.91016 0
M  V30 7949 H 768.025 -0.719319 0.226045 0
M  V30 7950 H 770.676 -1.41701 1.16589 0
M  V30 7951 H 769.058 -3.93715 0.42479 0
M  V30 7952 H 770.232 -3.30339 3.21267 0
M  V30 7953 H 768.547 -3.09323 2.78762 0
M  V30 7954 H 771.144 -5.24723 1.02808 0
M  V30 7955 H 771.487 -4.15294 -0.289192 0
M  V30 7956 H 772.02 -3.7389 1.35835 0
M  V30 7957 H 768.759 -5.2204 3.96427 0
M  V30 7958 H 768.279 -5.54652 2.28302 0
M  V30 7959 H 769.958 -5.83017 2.80535 0
M  V30 7960 N 770.09 -0.729906 -1.39679 0
M  V30 7961 C 771.506 -0.404951 -1.54377 0
M  V30 7962 C 771.706 1.08476 -1.6981 0
M  V30 7963 O 770.762 1.87087 -1.69572 0
M  V30 7964 C 772.075 -1.18352 -2.76429 0
M  V30 7965 C 773.623 -1.17124 -2.9026 0
M  V30 7966 C 774.098 -1.93227 -4.15244 0
M  V30 7967 N 775.589 -1.90368 -4.22273 0
M  V30 7968 C 776.324 -2.46065 -5.17918 0
M  V30 7969 N 775.82 -3.10378 -6.19385 0
M  V30 7970 N 777.613 -2.36127 -5.10099 0
M  V30 7971 H 769.764 -1.69567 -1.27909 0
M  V30 7972 H 772.027 -0.717527 -0.619564 0
M  V30 7973 H 771.733 -2.23743 -2.71352 0
M  V30 7974 H 771.607 -0.784589 -3.6895 0
M  V30 7975 H 773.994 -0.125478 -2.94833 0
M  V30 7976 H 774.075 -1.60951 -1.98817 0
M  V30 7977 H 773.719 -2.97802 -4.11432 0
M  V30 7978 H 773.649 -1.4681 -5.05722 0
M  V30 7979 H 776.14 -1.4351 -3.4959 0
M  V30 7980 H 776.453 -3.50358 -6.88817 0
M  V30 7981 H 774.798 -3.14467 -6.19787 0
M  V30 7982 H 777.989 -1.85529 -4.29763 0
M  V30 7983 H 778.162 -2.79833 -5.84463 0
M  V30 7984 N 771.568 1.50203 -0.477153 0
M  V30 7985 C 772.845 1.95115 0.137609 0
M  V30 7986 C 773.225 1.41778 1.56404 0
M  V30 7987 O 772.573 0.621333 2.1989 0
M  V30 7988 C 772.783 3.4892 0.0747168 0
M  V30 7989 C 774.131 4.238 0.260585 0
M  V30 7990 O 775.155 3.5588 0.151021 0
M  V30 7991 O 774.014 5.44366 0.482534 0
M  V30 7992 H 771.108 0.81987 0.108364 0
M  V30 7993 H 773.654 1.60946 -0.537989 0
M  V30 7994 H 772.426 3.80308 -0.920966 0
M  V30 7995 H 772.049 3.89642 0.791509 0
M  V30 7996 N 773.046 0.209999 1.56195 0
M  V30 7997 C 773.994 -0.721416 2.2113 0
M  V30 7998 C 774.988 -1.20852 1.18706 0
M  V30 7999 O 776.194 -1.16968 1.36815 0
M  V30 8000 H 772.569 -0.251033 0.708863 0
M  V30 8001 H 774.54 -0.150193 2.98022 0
M  V30 8002 C 773.289 -1.92392 2.89621 0
M  V30 8003 H 772.612 -1.5582 3.68185 0
M  V30 8004 H 774.052 -2.55367 3.38473 0
M  V30 8005 C 772.511 -2.77208 1.91461 0
M  V30 8006 O 773.041 -3.75603 1.42426 0
M  V30 8007 N 771.247 -2.43006 1.59363 0
M  V30 8008 H 770.794 -1.63047 1.99433 0
M  V30 8009 H 770.752 -3.00036 0.939449 0
M  V30 8010 N 774.524 -1.57472 -0.0634922 0
M  V30 8011 C 775.457 -1.99571 -1.10664 0
M  V30 8012 C 776.435 -0.874015 -1.37112 0
M  V30 8013 O 777.619 -1.13702 -1.50347 0
M  V30 8014 C 774.746 -2.3395 -2.44918 0
M  V30 8015 C 773.792 -3.56213 -2.34551 0
M  V30 8016 S 774.625 -5.06727 -1.73169 0
M  V30 8017 C 775.781 -5.44316 -3.08984 0
M  V30 8018 H 776.014 -2.87739 -0.747905 0
M  V30 8019 H 773.547 -1.5198 -0.272316 0
M  V30 8020 H 775.505 -2.54431 -3.22141 0
M  V30 8021 H 774.166 -1.46297 -2.7795 0
M  V30 8022 H 773.359 -3.77812 -3.33578 0
M  V30 8023 H 772.961 -3.35406 -1.65466 0
M  V30 8024 H 775.253 -5.42894 -4.05305 0
M  V30 8025 H 776.196 -6.4502 -2.92156 0
M  V30 8026 H 776.604 -4.71781 -3.09972 0
M  V30 8027 N 776.003 0.335068 -1.53997 0
M  V30 8028 C 777.419 0.678704 -1.4445 0
M  V30 8029 C 777.619 1.92106 -0.608078 0
M  V30 8030 O 776.675 2.52292 -0.102373 0
M  V30 8031 C 777.988 0.863435 -2.88037 0
M  V30 8032 C 779.536 0.961513 -2.97866 0
M  V30 8033 C 780.011 1.1785 -4.42578 0
M  V30 8034 N 781.502 1.2455 -4.46141 0
M  V30 8035 C 782.237 1.43106 -5.55255 0
M  V30 8036 N 781.733 1.5878 -6.74359 0
M  V30 8037 N 783.526 1.45722 -5.42883 0
M  V30 8038 H 775.677 -0.481656 -2.06867 0
M  V30 8039 H 777.94 -0.153615 -0.935471 0
M  V30 8040 H 777.646 0.0219511 -3.51693 0
M  V30 8041 H 777.52 1.76268 -3.33481 0
M  V30 8042 H 779.907 1.79351 -2.34344 0
M  V30 8043 H 779.988 0.0389862 -2.5577 0
M  V30 8044 H 779.632 0.351397 -5.06683 0
M  V30 8045 H 779.562 2.11472 -4.82273 0
M  V30 8046 H 782.053 1.13928 -3.60318 0
M  V30 8047 H 782.366 1.72599 -7.53279 0
M  V30 8048 H 780.711 1.559 -6.77289 0
M  V30 8049 H 783.902 1.33065 -4.48789 0
M  V30 8050 H 784.075 1.59841 -6.27977 0
M  V30 8051 N 777.481 1.45874 0.596531 0
M  V30 8052 C 778.892 1.44798 1.17857 0
M  V30 8053 C 779.243 0.181443 1.95359 0
M  V30 8054 O 778.368 -0.716336 2.042 0
M  V30 8055 C 778.963 2.62333 2.14398 0
M  V30 8056 C 777.522 2.64342 2.67955 0
M  V30 8057 C 776.669 2.37244 1.43564 0
M  V30 8058 H 779.62 1.53954 0.385222 0
M  V30 8059 H 779.641 2.37063 2.97626 0
M  V30 8060 H 779.153 3.54499 1.57963 0
M  V30 8061 H 777.254 1.76213 3.28298 0
M  V30 8062 H 777.367 3.63897 3.11634 0
M  V30 8063 H 775.731 1.87022 1.72901 0
M  V30 8064 H 776.514 3.31568 0.889805 0
M  V30 8065 O 778.998 -0.740596 1.43518 0
M  V30 8066 H 779.689 -1.39004 1.34898 0
M  V30 END ATOM
M  V30 BEGIN BOND
M  V30 END BOND
M  V30 END CTAB
M  END
$$$$
