drugbank_target|O95180 Voltage-dependent T-type calcium channel subunit alpha-1H (DB00270; DB00568; DB00661; DB00909; DB01023; DB01054; DB01244; DB01388; DB04841; DB09061; DB14009; DB14011)
 OpenBabel12092119423D

  0  0  0     0  0            999 V3000
M  V30 BEGIN CTAB
M  V30 COUNTS 36298 36773 0 0 0
M  V30 BEGIN ATOM
M  V30 1 H -0.908 1.98254 -0.117106 0
M  V30 2 N 0 1.576 0 0
M  V30 3 C 0.933 2.03868 1.02534 0
M  V30 4 C 1.911 0.928543 1.3348 0
M  V30 5 O 3.095 1.19667 1.45644 0
M  V30 6 C 0.222 2.43627 2.35294 0
M  V30 7 C -0.732 3.65373 2.2001 0
M  V30 8 S 0.101 5.13292 1.52614 0
M  V30 9 C 1.257 5.56322 2.86805 0
M  V30 10 H 1.49 2.90518 0.631377 0
M  V30 11 H -0.977 1.52953 0.210867 0
M  V30 12 H 0.981 2.67203 3.11629 0
M  V30 13 H -0.358 1.57376 2.7183 0
M  V30 14 H -1.165 3.90944 3.18086 0
M  V30 15 H -1.563 3.418 1.51819 0
M  V30 16 H 0.729 5.58782 3.83104 0
M  V30 17 H 1.672 6.56266 2.65933 0
M  V30 18 H 2.08 4.83886 2.90714 0
M  V30 19 N 1.4781 -0.272755 1.55222 0
M  V30 20 C 2.7061 -1.02255 1.79865 0
M  V30 21 C 3.1211 -1.79924 0.572088 0
M  V30 22 O 2.4781 -1.76638 -0.458842 0
M  V30 23 C 2.5291 -1.98094 3.02392 0
M  V30 24 O 2.2501 -1.23572 4.20311 0
M  V30 25 C 3.7511 -2.84884 3.39641 0
M  V30 26 H 0.9711 -0.302057 0.599168 0
M  V30 27 H 3.5151 -0.303465 2.02236 0
M  V30 28 H 1.6701 -2.65465 2.82147 0
M  V30 29 H 2.0841 -1.88172 4.89583 0
M  V30 30 H 3.5581 -3.47927 4.28545 0
M  V30 31 H 4.0351 -3.54665 2.59055 0
M  V30 32 H 4.6411 -2.23003 3.62146 0
M  V30 33 N 2.9562 -1.48159 -0.537278 0
M  V30 34 C 3.8662 -1.64807 -1.6696 0
M  V30 35 C 4.8822 -0.530651 -1.65711 0
M  V30 36 O 6.0582 -0.800784 -1.84796 0
M  V30 37 C 3.1232 -1.67708 -3.03438 0
M  V30 38 C 2.1842 -2.91025 -3.156 0
M  V30 39 C 1.4172 -2.93778 -4.45567 0
M  V30 40 O 1.6402 -2.05153 -5.3223 0
M  V30 41 O 0.5742 -3.85868 -4.61941 0
M  V30 42 H 4.4002 -2.6066 -1.55853 0
M  V30 43 H 1.9852 -1.31475 -0.709549 0
M  V30 44 H 3.8672 -1.7218 -3.84619 0
M  V30 45 H 2.5422 -0.750278 -3.14885 0
M  V30 46 H 1.4492 -2.92089 -2.33741 0
M  V30 47 H 2.7822 -3.83065 -3.09066 0
M  V30 48 N 4.4343 0.785586 -1.36625 0
M  V30 49 C 5.6823 1.54057 -1.30808 0
M  V30 50 C 6.0033 1.94683 0.111157 0
M  V30 51 O 5.2733 1.65241 1.05224 0
M  V30 52 H 3.8533 0.571354 -0.481211 0
M  V30 53 H 6.5153 0.935821 -1.70963 0
M  V30 54 H 5.6113 2.44637 -1.93801 0
M  V30 55 N 5.9124 1.20967 1.01018 0
M  V30 56 C 6.8754 0.965918 2.07853 0
M  V30 57 C 7.8754 -0.0610545 1.60684 0
M  V30 58 O 9.0654 0.175681 1.73312 0
M  V30 59 C 6.1974 0.455513 3.37843 0
M  V30 60 H 7.3904 1.91365 2.3091 0
M  V30 61 H 4.9434 1.02594 1.17916 0
M  V30 62 H 5.6784 -0.497381 3.20463 0
M  V30 63 H 5.4634 1.19622 3.73407 0
M  V30 64 H 6.9534 0.304667 4.16487 0
M  V30 65 N 7.3905 -1.2043 1.01659 0
M  V30 66 C 8.8065 -1.41852 0.731442 0
M  V30 67 C 9.0065 -1.89358 -0.688898 0
M  V30 68 O 8.0625 -2.06247 -1.45666 0
M  V30 69 C 9.3755 -2.44019 1.75714 0
M  V30 70 C 10.9235 -2.57785 1.77527 0
M  V30 71 C 11.3985 -3.63194 2.79023 0
M  V30 72 N 12.8895 -3.70678 2.77763 0
M  V30 73 C 13.6245 -4.51897 3.52954 0
M  V30 74 N 13.1205 -5.36921 4.37821 0
M  V30 75 N 14.9135 -4.4643 3.41551 0
M  V30 76 H 7.0645 -0.879093 1.93354 0
M  V30 77 H 9.3275 -0.448425 0.835236 0
M  V30 78 H 9.0335 -2.1611 2.77469 0
M  V30 79 H 8.9075 -3.43007 1.56927 0
M  V30 80 H 11.2945 -2.85023 0.764569 0
M  V30 81 H 11.3755 -1.58992 2.00387 0
M  V30 82 H 11.0195 -3.36699 3.80258 0
M  V30 83 H 10.9495 -4.61609 2.53425 0
M  V30 84 H 13.4405 -3.09944 2.16201 0
M  V30 85 H 13.7535 -5.95981 4.91962 0
M  V30 86 H 12.0985 -5.36424 4.41899 0
M  V30 87 H 15.2895 -3.79042 2.74672 0
M  V30 88 H 15.4625 -5.09491 4.00404 0
M  V30 89 N 8.8686 -0.792821 -1.36206 0
M  V30 90 C 9.8316 -0.199459 -2.2833 0
M  V30 91 C 10.8316 0.605189 -1.48977 0
M  V30 92 O 12.0216 0.425685 -1.68919 0
M  V30 93 C 9.1536 0.723523 -3.33134 0
M  V30 94 H 10.3466 -1.01181 -2.82316 0
M  V30 95 H 7.8996 -0.562485 -1.45828 0
M  V30 96 H 8.6346 1.56008 -2.84309 0
M  V30 97 H 8.4196 0.148436 -3.91819 0
M  V30 98 H 9.9096 1.13344 -4.01924 0
M  V30 99 N 10.3467 1.47872 -0.545128 0
M  V30 100 C 11.3097 2.28337 0.198717 0
M  V30 101 C 12.3097 1.36255 0.853888 0
M  V30 102 O 13.4997 1.59003 0.711606 0
M  V30 103 C 10.6317 3.15585 1.28915 0
M  V30 104 H 11.8247 2.95567 -0.507941 0
M  V30 105 H 9.3777 1.53362 -0.301616 0
M  V30 106 H 10.1127 2.53019 2.02859 0
M  V30 107 H 9.8977 3.83337 0.824309 0
M  V30 108 H 11.3877 3.76243 1.81194 0
M  V30 109 N 11.8248 0.280983 1.55075 0
M  V30 110 C 13.1018 -0.386207 1.91749 0
M  V30 111 C 13.4818 -1.73264 1.20594 0
M  V30 112 O 12.8298 -2.26034 0.334784 0
M  V30 113 C 13.0398 -0.520687 3.45094 0
M  V30 114 C 14.3878 -0.800865 4.16979 0
M  V30 115 O 15.4118 -0.605271 3.5102 0
M  V30 116 O 14.2708 -1.1753 5.33712 0
M  V30 117 H 11.3648 -0.212408 0.799257 0
M  V30 118 H 13.9108 0.327568 1.66509 0
M  V30 119 H 12.6828 0.426633 3.88967 0
M  V30 120 H 12.3058 -1.2837 3.76307 0
M  V30 121 N 13.3029 -1.57598 0.00835791 0
M  V30 122 C 14.2129 -2.12385 -0.996487 0
M  V30 123 C 15.2289 -1.07108 -1.37127 0
M  V30 124 O 16.4049 -1.39055 -1.4569 0
M  V30 125 C 13.4699 -2.62314 -2.26699 0
M  V30 126 C 12.5309 -3.82225 -1.95456 0
M  V30 127 C 11.7639 -4.29763 -3.16449 0
M  V30 128 O 11.9869 -3.76584 -4.28416 0
M  V30 129 O 10.9209 -5.21832 -2.99958 0
M  V30 130 H 14.7469 -2.98479 -0.560725 0
M  V30 131 H 12.3319 -1.47903 -0.210987 0
M  V30 132 H 14.2139 -2.94589 -3.01322 0
M  V30 133 H 12.8889 -1.79313 -2.69497 0
M  V30 134 H 11.7959 -3.54909 -1.18282 0
M  V30 135 H 13.1289 -4.66324 -1.57489 0
M  V30 136 N 14.781 0.264519 -1.55364 0
M  V30 137 C 16.027 0.99646 -1.76631 0
M  V30 138 C 16.36 1.85632 -0.570478 0
M  V30 139 O 15.635 1.89647 0.43175 0
M  V30 140 C 15.918 1.87187 -3.07625 0
M  V30 141 C 15.771 1.04138 -4.37579 0
M  V30 142 C 17.09 2.85749 -3.34717 0
M  V30 143 H 14.209 0.360841 -0.642622 0
M  V30 144 H 16.851 0.268218 -1.88097 0
M  V30 145 H 15.001 2.49279 -2.9798 0
M  V30 146 H 16.673 0.440517 -4.59192 0
M  V30 147 H 14.916 0.345115 -4.32425 0
M  V30 148 H 15.587 1.68729 -5.2558 0
M  V30 149 H 18.063 2.33793 -3.4421 0
M  V30 150 H 16.939 3.44136 -4.27623 0
M  V30 151 H 17.2 3.61311 -2.54768 0
M  V30 152 N 16.2591 1.48442 0.529413 0
M  V30 153 C 17.6751 1.34575 0.858004 0
M  V30 154 C 17.8751 0.3572 1.98309 0
M  V30 155 O 16.9311 -0.221379 2.51528 0
M  V30 156 C 18.2441 2.74617 1.22499 0
M  V30 157 C 19.7921 2.83109 1.33484 0
M  V30 158 C 20.2671 4.23854 1.73526 0
M  V30 159 N 21.7581 4.2653 1.80628 0
M  V30 160 C 22.4931 5.32372 2.12997 0
M  V30 161 N 21.9891 6.48491 2.43786 0
M  V30 162 N 23.7821 5.19766 2.14008 0
M  V30 163 H 15.9331 2.1133 -0.212925 0
M  V30 164 H 18.1961 0.947439 -0.0326199 0
M  V30 165 H 17.9021 3.4852 0.471905 0
M  V30 166 H 17.7761 3.08177 2.17501 0
M  V30 167 H 20.1631 2.09462 2.0787 0
M  V30 168 H 20.2441 2.53168 0.366027 0
M  V30 169 H 19.8881 4.98018 0.997013 0
M  V30 170 H 19.8181 4.5124 2.71459 0
M  V30 171 H 22.3091 3.42772 1.59108 0
M  V30 172 H 22.6221 7.24993 2.67592 0
M  V30 173 H 20.9671 6.51765 2.41304 0
M  V30 174 H 24.1581 4.28066 1.89412 0
M  V30 175 H 24.3311 6.02354 2.38902 0
M  V30 176 N 17.7372 -0.778329 1.37039 0
M  V30 177 C 18.9832 -1.53892 1.32079 0
M  V30 178 C 19.3162 -1.9396 -0.0965386 0
M  V30 179 O 18.5912 -1.63568 -1.05242 0
M  V30 180 C 18.8742 -2.80847 2.25382 0
M  V30 181 C 18.7272 -2.47076 3.75864 0
M  V30 182 C 20.0462 -3.82741 2.1725 0
M  V30 183 H 17.1652 -0.558303 0.48111 0
M  V30 184 H 19.8072 -0.893397 1.67685 0
M  V30 185 H 17.9572 -3.35931 1.95148 0
M  V30 186 H 19.6292 -1.97957 4.16666 0
M  V30 187 H 17.8722 -1.79863 3.94755 0
M  V30 188 H 18.5432 -3.37798 4.36574 0
M  V30 189 H 21.0192 -3.37133 2.43887 0
M  V30 190 H 19.8952 -4.69303 2.84686 0
M  V30 191 H 20.1562 -4.2652 1.16331 0
M  V30 192 N 19.2153 -1.21501 -1.00376 0
M  V30 193 C 20.6263 -1.03146 -1.55621 0
M  V30 194 C 20.9773 0.408375 -1.91903 0
M  V30 195 O 20.1023 1.29177 -1.73616 0
M  V30 196 C 20.6973 -1.86612 -2.82775 0
M  V30 197 C 19.2563 -1.72586 -3.34501 0
M  V30 198 C 18.4033 -1.83747 -2.07683 0
M  V30 199 H 21.3543 -1.35505 -0.826081 0
M  V30 200 H 21.3753 -1.3771 -3.54706 0
M  V30 201 H 20.8873 -2.91399 -2.56336 0
M  V30 202 H 18.9883 -0.704877 -3.65872 0
M  V30 203 H 19.1013 -2.54623 -4.05837 0
M  V30 204 H 17.4653 -1.27069 -2.20739 0
M  V30 205 H 18.2483 -2.90044 -1.83655 0
M  V30 206 N 20.6934 1.19889 -1.02296 0
M  V30 207 C 21.6234 2.25141 -0.619174 0
M  V30 208 C 22.6044 1.66051 0.368915 0
M  V30 209 O 23.7894 1.92546 0.252941 0
M  V30 210 C 20.9194 3.4728 0.0368783 0
M  V30 211 C 19.8734 4.19005 -0.872865 0
M  V30 212 C 19.1994 5.34637 -0.0822402 0
M  V30 213 C 20.4994 4.74452 -2.18387 0
M  V30 214 H 22.1934 2.59171 -1.49903 0
M  V30 215 H 19.7394 1.24579 -0.722222 0
M  V30 216 H 21.6924 4.20098 0.330958 0
M  V30 217 H 20.4164 3.12433 0.95149 0
M  V30 218 H 19.0754 3.48061 -1.15105 0
M  V30 219 H 18.7234 4.96034 0.83422 0
M  V30 220 H 18.4234 5.83557 -0.688149 0
M  V30 221 H 19.9474 6.10255 0.205238 0
M  V30 222 H 21.3614 5.39055 -1.95172 0
M  V30 223 H 19.7584 5.33834 -2.74119 0
M  V30 224 H 20.8284 3.92844 -2.84257 0
M  V30 225 N 22.1715 0.800033 1.35784 0
M  V30 226 C 23.4195 0.376597 1.9856 0
M  V30 227 C 23.7405 -1.05812 1.63795 0
M  V30 228 O 23.0105 -1.73103 0.917171 0
M  V30 229 H 21.5905 0.136261 0.734467 0
M  V30 230 H 24.2525 1.02442 1.65806 0
M  V30 231 H 23.3485 0.477002 3.08433 0
M  V30 232 N 23.6496 -1.47581 0.552962 0
M  V30 233 C 24.6126 -2.28439 -0.186605 0
M  V30 234 C 25.6126 -1.36706 -0.84665 0
M  V30 235 O 26.8026 -1.59378 -0.703164 0
M  V30 236 C 23.9346 -3.16264 -1.2724 0
M  V30 237 H 25.1276 -2.95294 0.523609 0
M  V30 238 H 22.6806 -1.532 0.309745 0
M  V30 239 H 23.4156 -2.54091 -2.01514 0
M  V30 240 H 23.2006 -3.83769 -0.803968 0
M  V30 241 H 24.6906 -3.77198 -1.79196 0
M  V30 242 N 25.1277 -0.289203 -1.54924 0
M  V30 243 C 26.5387 0.205791 -1.85562 0
M  V30 244 C 26.8897 1.54351 -1.2112 0
M  V30 245 O 26.0147 2.10435 -0.504601 0
M  V30 246 C 26.6097 0.380177 -3.3666 0
M  V30 247 C 25.1687 0.819395 -3.67373 0
M  V30 248 C 24.3157 -0.079159 -2.77187 0
M  V30 249 H 27.2667 -0.510577 -1.50262 0
M  V30 250 H 27.2877 1.21659 -3.60526 0
M  V30 251 H 26.7997 -0.593589 -3.83534 0
M  V30 252 H 24.9007 1.80413 -3.26009 0
M  V30 253 H 25.0137 0.646957 -4.74712 0
M  V30 254 H 23.3777 0.439565 -2.50878 0
M  V30 255 H 24.1607 -1.04906 -3.26878 0
M  V30 256 N 26.6058 1.57591 -0.0167156 0
M  V30 257 C 28.0168 1.79201 0.523834 0
M  V30 258 C 28.3678 0.925796 1.72984 0
M  V30 259 O 27.4928 0.132792 2.15992 0
M  V30 260 C 28.0878 3.25 0.957091 0
M  V30 261 C 26.6468 3.47648 1.44283 0
M  V30 262 C 25.7938 2.74374 0.401757 0
M  V30 263 H 28.7448 1.56831 -0.242816 0
M  V30 264 H 28.7658 3.34031 1.82219 0
M  V30 265 H 28.2778 3.88019 0.0791415 0
M  V30 266 H 26.3788 2.89866 2.34113 0
M  V30 267 H 26.4918 4.56352 1.45877 0
M  V30 268 H 24.8558 2.39485 0.867121 0
M  V30 269 H 25.6388 3.40102 -0.467513 0
M  V30 270 N 28.0839 -0.256276 1.55502 0
M  V30 271 C 29.4949 -0.826068 1.67431 0
M  V30 272 C 29.8459 -1.86396 0.612446 0
M  V30 273 O 28.9709 -2.15031 -0.243025 0
M  V30 274 C 29.5659 -1.50512 3.03532 0
M  V30 275 C 28.1249 -2.02273 3.17431 0
M  V30 276 C 27.2719 -0.870548 2.63281 0
M  V30 277 H 30.2229 -0.0322728 1.58667 0
M  V30 278 H 30.2439 -2.37279 2.97454 0
M  V30 279 H 29.7559 -0.749484 3.80794 0
M  V30 280 H 27.8569 -2.80746 2.44974 0
M  V30 281 H 27.9699 -2.22655 4.24219 0
M  V30 282 H 26.3339 -1.26851 2.20864 0
M  V30 283 H 27.1169 -0.128149 3.43061 0
M  V30 284 N 29.562 -1.4872 -0.521534 0
M  V30 285 C 30.81 -1.56857 -1.27437 0
M  V30 286 C 31.131 -0.247982 -1.93417 0
M  V30 287 O 30.401 0.731151 -1.81744 0
M  V30 288 H 28.981 -0.577885 -0.473347 0
M  V30 289 H 31.643 -1.85233 -0.606205 0
M  V30 290 H 30.739 -2.35402 -2.0492 0
M  V30 291 N 31.0401 0.771051 -1.3745 0
M  V30 292 C 32.4511 1.34737 -1.29239 0
M  V30 293 C 32.8021 1.96109 0.0596908 0
M  V30 294 O 31.9271 1.93865 0.961534 0
M  V30 295 C 32.5221 2.44973 -2.34037 0
M  V30 296 C 31.0811 2.98372 -2.29458 0
M  V30 297 C 30.2281 1.71595 -2.17831 0
M  V30 298 H 33.1791 0.571256 -1.48062 0
M  V30 299 H 33.2001 3.24471 -1.98744 0
M  V30 300 H 32.7121 2.00276 -3.32432 0
M  V30 301 H 30.8131 3.47443 -1.34589 0
M  V30 302 H 30.9261 3.53939 -3.229 0
M  V30 303 H 29.2901 1.94547 -1.64388 0
M  V30 304 H 30.0731 1.29001 -3.18141 0
M  V30 305 N 32.5182 1.22032 0.997298 0
M  V30 306 C 33.4812 0.987909 2.06816 0
M  V30 307 C 34.4812 -0.0440084 1.6074 0
M  V30 308 O 35.6712 0.194053 1.73116 0
M  V30 309 C 32.8032 0.49132 3.37341 0
M  V30 310 H 33.9962 1.93803 2.28868 0
M  V30 311 H 31.5492 1.03838 1.16822 0
M  V30 312 H 32.2842 -0.463364 3.20973 0
M  V30 313 H 32.0692 1.23575 3.72118 0
M  V30 314 H 33.5592 0.348824 4.16141 0
M  V30 315 N 33.9963 -1.19345 1.0293 0
M  V30 316 C 34.9593 -2.20793 0.615069 0
M  V30 317 C 35.9593 -1.57553 -0.321533 0
M  V30 318 O 37.1493 -1.73862 -0.108483 0
M  V30 319 C 34.2813 -3.40754 -0.0999222 0
M  V30 320 H 35.4743 -2.58955 1.51269 0
M  V30 321 H 33.0273 -1.3303 0.820534 0
M  V30 322 H 33.7623 -3.0811 -1.01187 0
M  V30 323 H 33.5473 -3.87889 0.57309 0
M  V30 324 H 35.0373 -4.15898 -0.376645 0
M  V30 325 N 35.4744 -0.807222 -1.35358 0
M  V30 326 C 36.4044 -0.232509 -2.3234 0
M  V30 327 C 37.3854 0.642386 -1.57504 0
M  V30 328 O 38.5704 0.572526 -1.85569 0
M  V30 329 C 35.7004 0.619238 -3.41735 0
M  V30 330 C 34.6544 -0.157215 -4.27711 0
M  V30 331 C 33.9804 0.816273 -5.28433 0
M  V30 332 C 35.2804 -1.35656 -5.04376 0
M  V30 333 H 36.9744 -1.04276 -2.80654 0
M  V30 334 H 34.5204 -0.50288 -1.34934 0
M  V30 335 H 36.4734 1.03137 -4.08584 0
M  V30 336 H 35.1974 1.46239 -2.92031 0
M  V30 337 H 33.8564 -0.550525 -3.62443 0
M  V30 338 H 33.5044 1.65494 -4.74996 0
M  V30 339 H 33.2044 0.301067 -5.86828 0
M  V30 340 H 34.7284 1.22659 -5.98153 0
M  V30 341 H 36.1424 -1.01927 -5.64166 0
M  V30 342 H 34.5394 -1.8063 -5.7227 0
M  V30 343 H 35.6094 -2.14288 -4.34981 0
M  V30 344 N 36.9525 1.47285 -0.560781 0
M  V30 345 C 38.1985 2.02764 -0.0381184 0
M  V30 346 C 38.5315 1.43384 1.30976 0
M  V30 347 O 37.8065 0.590733 1.85312 0
M  V30 348 C 38.0895 3.60064 0.0511427 0
M  V30 349 C 37.9425 4.2987 -1.32408 0
M  V30 350 C 39.2615 4.33439 0.762795 0
M  V30 351 H 36.3805 0.736841 -0.0153264 0
M  V30 352 H 39.0225 1.75675 -0.723759 0
M  V30 353 H 37.1725 3.83274 0.635065 0
M  V30 354 H 38.8445 4.17989 -1.95148 0
M  V30 355 H 37.0875 3.90085 -1.8978 0
M  V30 356 H 37.7585 5.38478 -1.21431 0
M  V30 357 H 40.2345 4.15243 0.266965 0
M  V30 358 H 39.1105 5.43124 0.794221 0
M  V30 359 H 39.3715 4.02915 1.81966 0
M  V30 360 N 38.4306 0.297415 1.54768 0
M  V30 361 C 39.6786 -0.312295 1.99673 0
M  V30 362 C 39.9996 -1.54686 1.18732 0
M  V30 363 O 39.2696 -1.93854 0.282382 0
M  V30 364 H 37.8496 -0.118381 0.73756 0
M  V30 365 H 40.5116 0.407915 1.90583 0
M  V30 366 H 39.6076 -0.586813 3.06534 0
M  V30 367 N 39.9087 -1.5758 0.0250728 0
M  V30 368 C 40.8717 -2.08896 -0.943139 0
M  V30 369 C 41.8717 -1.00321 -1.25668 0
M  V30 370 O 43.0617 -1.26495 -1.19769 0
M  V30 371 C 40.1937 -2.55143 -2.26086 0
M  V30 372 H 41.3867 -2.95723 -0.498775 0
M  V30 373 H 38.9397 -1.54703 -0.222888 0
M  V30 374 H 39.6747 -1.71633 -2.75159 0
M  V30 375 H 39.4597 -3.34461 -2.04641 0
M  V30 376 H 40.9497 -2.95083 -2.95492 0
M  V30 377 N 41.3868 0.248026 -1.55636 0
M  V30 378 C 42.6118 0.998028 -1.81808 0
M  V30 379 C 43.0368 1.78207 -0.601979 0
M  V30 380 O 42.3948 1.75653 0.448961 0
M  V30 381 C 42.4428 1.9125 -3.05705 0
M  V30 382 O 41.5468 3.00406 -2.82542 0
M  V30 383 H 40.8878 0.284045 -0.600179 0
M  V30 384 H 43.4178 0.269357 -2.02819 0
M  V30 385 H 43.4278 2.32737 -3.35108 0
M  V30 386 H 42.1028 1.33602 -3.93857 0
M  V30 387 H 40.6798 2.63056 -2.64303 0
M  V30 388 N 42.8649 1.48995 0.513639 0
M  V30 389 C 44.2759 1.5119 1.09537 0
M  V30 390 C 44.6269 0.290906 1.94031 0
M  V30 391 O 43.7519 -0.60049 2.07902 0
M  V30 392 C 44.3469 2.73964 1.99322 0
M  V30 393 C 42.9059 2.78978 2.52682 0
M  V30 394 C 42.0529 2.44934 1.30009 0
M  V30 395 H 45.0039 1.55875 0.298125 0
M  V30 396 H 45.0249 2.53409 2.83838 0
M  V30 397 H 44.5369 3.62813 1.37799 0
M  V30 398 H 42.6379 1.94378 3.1788 0
M  V30 399 H 42.7509 3.8083 2.90698 0
M  V30 400 H 41.1149 1.9644 1.62122 0
M  V30 401 H 41.8979 3.36043 0.702131 0
M  V30 402 N 44.343 -0.763751 1.37857 0
M  V30 403 C 45.253 -1.90817 1.36478 0
M  V30 404 C 46.269 -1.71997 0.263248 0
M  V30 405 O 47.445 -1.95095 0.499979 0
M  V30 406 C 44.51 -3.2605 1.17864 0
M  V30 407 C 43.571 -3.57467 2.3773 0
M  V30 408 C 42.804 -4.86249 2.19995 0
M  V30 409 O 43.027 -5.57884 1.18836 0
M  V30 410 O 41.961 -5.16911 3.08361 0
M  V30 411 H 45.787 -1.94933 2.32884 0
M  V30 412 H 43.372 -0.907619 1.1867 0
M  V30 413 H 45.254 -4.06924 1.09504 0
M  V30 414 H 43.929 -3.22769 0.245372 0
M  V30 415 H 42.836 -2.76796 2.51664 0
M  V30 416 H 44.169 -3.655 3.29652 0
M  V30 417 N 45.8211 -1.22559 -0.990812 0
M  V30 418 C 47.0461 -1.07862 -1.77145 0
M  V30 419 C 47.4711 0.366447 -1.84496 0
M  V30 420 O 46.8291 1.26478 -1.29896 0
M  V30 421 C 46.8771 -1.69686 -3.18181 0
M  V30 422 O 45.9811 -0.951946 -4.01263 0
M  V30 423 H 45.3221 -0.378712 -0.545411 0
M  V30 424 H 47.8521 -1.62399 -1.2445 0
M  V30 425 H 47.8621 -1.74496 -3.68802 0
M  V30 426 H 46.5371 -2.74841 -3.12146 0
M  V30 427 H 45.1141 -0.980011 -3.59792 0
M  V30 428 N 47.2992 1.18797 -1.03562 0
M  V30 429 C 48.7102 1.70322 -0.764676 0
M  V30 430 C 49.0612 1.82708 0.714996 0
M  V30 431 O 48.1862 1.50299 1.55689 0
M  V30 432 C 48.7812 3.09356 -1.38145 0
M  V30 433 C 47.3402 3.58114 -1.15895 0
M  V30 434 C 46.4872 2.34798 -1.4753 0
M  V30 435 H 49.4382 1.03543 -1.20268 0
M  V30 436 H 49.4592 3.72378 -0.781977 0
M  V30 437 H 48.9712 3.00309 -2.45837 0
M  V30 438 H 47.0722 3.72464 -0.100544 0
M  V30 439 H 47.1852 4.4184 -1.8524 0
M  V30 440 H 45.5492 2.38464 -0.894829 0
M  V30 441 H 46.3322 2.28375 -2.56319 0
M  V30 442 N 48.7773 0.814389 1.34928 0
M  V30 443 C 50.0253 0.397636 1.9815 0
M  V30 444 C 50.3463 -1.04069 1.64908 0
M  V30 445 O 49.6163 -1.72121 0.93548 0
M  V30 446 H 48.1963 0.144043 0.732981 0
M  V30 447 H 50.8583 1.04195 1.6471 0
M  V30 448 H 49.9543 0.509688 3.0791 0
M  V30 449 N 50.2554 -1.46986 0.568584 0
M  V30 450 C 51.2184 -2.28624 -0.162366 0
M  V30 451 C 52.2184 -1.37596 -0.832103 0
M  V30 452 O 53.4084 -1.60115 -0.68622 0
M  V30 453 C 50.5404 -3.17596 -1.23878 0
M  V30 454 H 51.7334 -2.94722 0.554899 0
M  V30 455 H 49.2864 -1.52863 0.325976 0
M  V30 456 H 50.0214 -2.56214 -1.98808 0
M  V30 457 H 49.8064 -3.846 -0.763219 0
M  V30 458 H 51.2964 -3.79078 -1.75185 0
M  V30 459 N 51.7335 -0.305618 -1.54608 0
M  V30 460 C 53.1445 0.186098 -1.8577 0
M  V30 461 C 53.4955 1.53058 -1.22751 0
M  V30 462 O 52.6205 2.09888 -0.526893 0
M  V30 463 C 53.2155 0.344449 -3.37044 0
M  V30 464 C 51.7745 0.780384 -3.68221 0
M  V30 465 C 50.9215 -0.108554 -2.77087 0
M  V30 466 H 53.8725 -0.526485 -1.49712 0
M  V30 467 H 53.8935 1.17828 -3.61796 0
M  V30 468 H 53.4055 -0.634235 -3.82883 0
M  V30 469 H 51.5065 1.76945 -3.27904 0
M  V30 470 H 51.6195 0.596572 -4.75371 0
M  V30 471 H 49.9835 0.412931 -2.5133 0
M  V30 472 H 50.7665 -1.08368 -3.25747 0
M  V30 473 N 53.2116 1.57565 -0.0334293 0
M  V30 474 C 54.4596 1.91598 0.642999 0
M  V30 475 C 54.7806 0.910847 1.7242 0
M  V30 476 O 54.0506 -0.0469931 1.95844 0
M  V30 477 H 52.6306 0.707228 0.240496 0
M  V30 478 H 55.2926 1.94726 -0.0822488 0
M  V30 479 H 54.3886 2.92336 1.09298 0
M  V30 480 N 54.6897 -0.239769 1.55765 0
M  V30 481 C 56.1057 -0.588624 1.48349 0
M  V30 482 C 56.3057 -1.88005 0.72502 0
M  V30 483 O 55.3617 -2.51186 0.257269 0
M  V30 484 C 56.6747 -0.68474 2.928 0
M  V30 485 C 58.2227 -0.77659 3.03213 0
M  V30 486 C 58.6977 -0.904207 4.48986 0
M  V30 487 N 60.1887 -0.968896 4.52953 0
M  V30 488 C 60.9237 -1.08703 5.63002 0
M  V30 489 N 60.4197 -1.17026 6.82845 0
M  V30 490 N 62.2127 -1.12074 5.50814 0
M  V30 491 H 54.3637 0.607911 2.03515 0
M  V30 492 H 56.6267 0.21083 0.924259 0
M  V30 493 H 56.3327 0.194284 3.51163 0
M  V30 494 H 56.2067 -1.55435 3.43686 0
M  V30 495 H 58.5937 -1.64606 2.44926 0
M  V30 496 H 58.6747 0.118315 2.55526 0
M  V30 497 H 58.3187 -0.0392633 5.07885 0
M  V30 498 H 58.2487 -1.81426 4.9436 0
M  V30 499 H 60.7397 -0.915633 3.6664 0
M  V30 500 H 61.0527 -1.25966 7.62465 0
M  V30 501 H 59.3977 -1.13971 6.85591 0
M  V30 502 H 62.5887 -1.05226 4.5612 0
M  V30 503 H 62.7617 -1.20936 6.36615 0
M  V30 504 N 56.1678 -1.49265 -0.50573 0
M  V30 505 C 57.0778 -1.68312 -1.63427 0
M  V30 506 C 58.0938 -0.565682 -1.64548 0
M  V30 507 O 59.2698 -0.839801 -1.83055 0
M  V30 508 C 56.3348 -1.74107 -2.99813 0
M  V30 509 C 55.3958 -2.97653 -3.09356 0
M  V30 510 C 54.6288 -3.03163 -4.39236 0
M  V30 511 O 54.8518 -2.16396 -5.27758 0
M  V30 512 O 53.7858 -3.9558 -4.53652 0
M  V30 513 H 57.6118 -2.63907 -1.50289 0
M  V30 514 H 55.1968 -1.32951 -0.681502 0
M  V30 515 H 57.0788 -1.803 -3.80881 0
M  V30 516 H 55.7538 -0.816901 -3.13223 0
M  V30 517 H 54.6608 -2.96981 -2.27493 0
M  V30 518 H 55.9938 -3.89535 -3.00871 0
M  V30 519 N 57.6459 0.756429 -1.3826 0
M  V30 520 C 58.6089 1.85176 -1.35065 0
M  V30 521 C 59.6089 1.58818 -0.251703 0
M  V30 522 O 60.7989 1.66615 -0.508433 0
M  V30 523 C 57.9309 3.22596 -1.10201 0
M  V30 524 H 59.1239 1.89417 -2.3251 0
M  V30 525 H 56.6769 0.95783 -1.23512 0
M  V30 526 H 57.4119 3.24025 -0.133504 0
M  V30 527 H 57.1969 3.43122 -1.89762 0
M  V30 528 H 58.6869 4.02673 -1.10654 0
M  V30 529 N 59.124 1.23083 0.984299 0
M  V30 530 C 60.034 1.02515 2.11016 0
M  V30 531 C 61.05 -0.0291702 1.73976 0
M  V30 532 O 62.226 0.165434 2.00719 0
M  V30 533 C 59.291 0.614673 3.41208 0
M  V30 534 C 58.352 1.74359 3.92297 0
M  V30 535 C 57.585 1.35261 5.16275 0
M  V30 536 O 57.808 0.235136 5.69915 0
M  V30 537 O 56.742 2.17227 5.61334 0
M  V30 538 H 60.568 1.96862 2.31255 0
M  V30 539 H 58.153 1.01753 1.09392 0
M  V30 540 H 60.035 0.396518 4.1953 0
M  V30 541 H 58.71 -0.299851 3.22308 0
M  V30 542 H 57.617 2.01635 3.1511 0
M  V30 543 H 58.95 2.63629 4.15645 0
M  V30 544 N 60.6021 -1.18246 1.0419 0
M  V30 545 C 62.0181 -1.40269 0.761366 0
M  V30 546 C 62.2181 -1.90777 -0.648578 0
M  V30 547 O 61.2741 -2.0929 -1.41258 0
M  V30 548 C 62.5871 -2.40237 1.8085 0
M  V30 549 C 64.1351 -2.53961 1.82955 0
M  V30 550 C 64.6101 -3.57194 2.86664 0
M  V30 551 N 66.1011 -3.64702 2.85563 0
M  V30 552 C 66.8361 -4.44309 3.6246 0
M  V30 553 N 66.3321 -5.27514 4.49111 0
M  V30 554 N 68.1251 -4.39084 3.50944 0
M  V30 555 H 60.2761 -0.837882 1.95175 0
M  V30 556 H 62.5391 -0.430608 0.84456 0
M  V30 557 H 62.2451 -2.10176 2.81991 0
M  V30 558 H 62.1191 -3.39601 1.64168 0
M  V30 559 H 64.5061 -2.83338 0.824855 0
M  V30 560 H 64.5871 -1.54706 2.03715 0
M  V30 561 H 64.2311 -3.28558 3.87314 0
M  V30 562 H 64.1611 -4.5613 2.6316 0
M  V30 563 H 66.6521 -3.05289 2.22727 0
M  V30 564 H 66.9651 -5.85411 5.04493 0
M  V30 565 H 65.3101 -5.2693 4.53178 0
M  V30 566 H 68.5011 -3.7313 2.82651 0
M  V30 567 H 68.6741 -5.00883 4.11121 0
M  V30 568 N 62.0802 -0.821533 -1.34494 0
M  V30 569 C 63.3282 -0.408139 -1.97936 0
M  V30 570 C 63.6492 1.03193 -1.65457 0
M  V30 571 O 62.9192 1.71622 -0.944595 0
M  V30 572 H 61.4992 -0.147928 -0.732206 0
M  V30 573 H 64.1612 -1.05067 -1.64155 0
M  V30 574 H 63.2572 -0.52601 -3.07635 0
M  V30 575 N 63.5583 1.46682 -0.576371 0
M  V30 576 C 64.7833 2.07304 -0.0630475 0
M  V30 577 C 65.2083 1.42329 1.2298 0
M  V30 578 O 64.5663 0.504865 1.74129 0
M  V30 579 C 64.6143 3.60472 0.095895 0
M  V30 580 O 63.7183 3.95927 1.15394 0
M  V30 581 H 63.0593 0.661288 -0.0599463 0
M  V30 582 H 65.5893 1.88417 -0.797511 0
M  V30 583 H 65.5993 4.06865 0.304071 0
M  V30 584 H 64.2743 4.07157 -0.84828 0
M  V30 585 H 62.8513 3.61252 0.924724 0
M  V30 586 N 65.0364 0.313813 1.54444 0
M  V30 587 C 65.9464 -0.565714 2.27677 0
M  V30 588 C 66.9624 -1.13754 1.31666 0
M  V30 589 O 68.1384 -1.15959 1.64668 0
M  V30 590 C 65.2034 -1.71528 3.01296 0
M  V30 591 C 64.2644 -1.17624 4.12872 0
M  V30 592 C 63.4974 -2.27102 4.8297 0
M  V30 593 O 63.7204 -3.47256 4.52514 0
M  V30 594 O 62.6544 -1.9307 5.70094 0
M  V30 595 H 66.4804 0.0287296 3.03686 0
M  V30 596 H 64.0654 0.0798312 1.49187 0
M  V30 597 H 65.9474 -2.38476 3.4743 0
M  V30 598 H 64.6224 -2.29608 2.2817 0
M  V30 599 H 63.5294 -0.472124 3.71109 0
M  V30 600 H 64.8624 -0.640695 4.88012 0
M  V30 601 N 66.5145 -1.57545 0.0417849 0
M  V30 602 C 67.4445 -2.14009 -0.933929 0
M  V30 603 C 68.4255 -1.05938 -1.33083 0
M  V30 604 O 69.6105 -1.33833 -1.40721 0
M  V30 605 C 66.7405 -2.67747 -2.21199 0
M  V30 606 C 65.6945 -3.80718 -1.95544 0
M  V30 607 C 65.0205 -4.20935 -3.29724 0
M  V30 608 C 66.3205 -5.06258 -1.28452 0
M  V30 609 H 68.0145 -2.95788 -0.463645 0
M  V30 610 H 65.5605 -1.42285 -0.221573 0
M  V30 611 H 67.5135 -3.05886 -2.89848 0
M  V30 612 H 66.2375 -1.83147 -2.70416 0
M  V30 613 H 64.8965 -3.43037 -1.2931 0
M  V30 614 H 64.5445 -3.33298 -3.76724 0
M  V30 615 H 64.2445 -4.9707 -3.13361 0
M  V30 616 H 65.7685 -4.61666 -3.9962 0
M  V30 617 H 67.1825 -5.41903 -1.8712 0
M  V30 618 H 65.5795 -5.87475 -1.22445 0
M  V30 619 H 66.6495 -4.84207 -0.259219 0
M  V30 620 N 67.9926 0.231505 -1.5589 0
M  V30 621 C 69.2406 0.955461 -1.78088 0
M  V30 622 C 69.5616 1.85262 -0.608533 0
M  V30 623 O 68.8316 1.92277 0.375035 0
M  V30 624 H 67.4116 0.355787 -0.656829 0
M  V30 625 H 70.0736 0.245751 -1.93344 0
M  V30 626 H 69.1696 1.56814 -2.69844 0
M  V30 627 N 69.4707 1.49531 0.497807 0
M  V30 628 C 70.7167 1.59415 1.25358 0
M  V30 629 C 71.0497 0.281422 1.9215 0
M  V30 630 O 70.3247 -0.715249 1.80871 0
M  V30 631 C 70.6077 2.75566 2.3181 0
M  V30 632 C 70.4607 4.16642 1.69498 0
M  V30 633 C 71.7797 2.87347 3.33346 0
M  V30 634 H 68.8987 0.580244 0.454408 0
M  V30 635 H 71.5407 1.81827 0.551262 0
M  V30 636 H 69.6907 2.56587 2.91711 0
M  V30 637 H 71.3627 4.47145 1.13399 0
M  V30 638 H 69.6057 4.22141 0.998978 0
M  V30 639 H 70.2767 4.93792 2.46725 0
M  V30 640 H 72.7527 3.04634 2.83438 0
M  V30 641 H 71.6287 3.70289 4.05188 0
M  V30 642 H 71.8897 1.96834 3.95865 0
M  V30 643 N 70.9488 -0.749086 1.3866 0
M  V30 644 C 72.1738 -1.54344 1.38538 0
M  V30 645 C 72.5988 -1.88088 -0.0216655 0
M  V30 646 O 71.9568 -1.50899 -1.00494 0
M  V30 647 C 72.0048 -2.8164 2.25192 0
M  V30 648 O 71.1088 -3.7698 1.67212 0
M  V30 649 H 70.4498 -0.466654 0.472367 0
M  V30 650 H 72.9798 -0.925355 1.82478 0
M  V30 651 H 72.9898 -3.30519 2.3921 0
M  V30 652 H 71.6648 -2.56411 3.27454 0
M  V30 653 H 70.2418 -3.35699 1.6236 0
M  V30 654 N 72.4269 -1.23603 -0.977757 0
M  V30 655 C 73.8379 -1.06424 -1.53398 0
M  V30 656 C 74.1889 0.367578 -1.92726 0
M  V30 657 O 73.3139 1.25465 -1.76316 0
M  V30 658 C 73.9089 -1.92568 -2.78753 0
M  V30 659 C 72.4679 -1.79642 -3.30765 0
M  V30 660 C 71.6149 -1.88111 -2.03739 0
M  V30 661 H 74.5659 -1.37227 -0.797152 0
M  V30 662 H 74.5869 -1.45203 -3.51705 0
M  V30 663 H 74.0989 -2.96771 -2.50098 0
M  V30 664 H 72.1999 -0.782325 -3.64294 0
M  V30 665 H 72.3129 -2.63174 -4.00345 0
M  V30 666 H 70.6769 -1.31723 -2.17994 0
M  V30 667 H 71.4599 -2.93875 -1.77461 0
M  V30 668 N 73.905 1.17692 -1.04816 0
M  V30 669 C 75.13 1.92327 -0.776207 0
M  V30 670 C 75.555 1.76082 0.661581 0
M  V30 671 O 74.913 1.076 1.45917 0
M  V30 672 C 74.961 3.41539 -1.15687 0
M  V30 673 O 74.065 4.11402 -0.286775 0
M  V30 674 H 73.406 0.599735 -0.284981 0
M  V30 675 H 75.936 1.49201 -1.4 0
M  V30 676 H 75.946 3.92269 -1.12202 0
M  V30 677 H 74.621 3.52684 -2.20425 0
M  V30 678 H 73.198 3.70939 -0.381903 0
M  V30 679 N 75.3831 0.828654 1.34056 0
M  V30 680 C 76.2931 0.256725 2.33191 0
M  V30 681 C 77.3091 -0.611898 1.62886 0
M  V30 682 O 78.4851 -0.51844 1.94613 0
M  V30 683 C 75.5501 -0.567238 3.42028 0
M  V30 684 C 74.6111 0.324458 4.28072 0
M  V30 685 C 73.8441 -0.460274 5.31712 0
M  V30 686 O 74.0671 -1.693 5.44696 0
M  V30 687 O 73.0011 0.160391 6.01686 0
M  V30 688 H 76.8271 1.07739 2.83947 0
M  V30 689 H 74.4121 0.59093 1.37217 0
M  V30 690 H 76.2941 -1.03582 4.08471 0
M  V30 691 H 74.9691 -1.36513 2.93506 0
M  V30 692 H 73.8761 0.840659 3.64532 0
M  V30 693 H 75.2091 1.08685 4.8005 0
M  V30 694 N 76.8612 -1.46375 0.584142 0
M  V30 695 C 78.0862 -2.07268 0.0740405 0
M  V30 696 C 78.5112 -1.42979 -1.22223 0
M  V30 697 O 77.8692 -0.514092 -1.73859 0
M  V30 698 C 77.9172 -3.60518 -0.0767769 0
M  V30 699 O 77.0212 -3.96533 -1.13292 0
M  V30 700 H 76.3622 -0.660961 0.0634524 0
M  V30 701 H 78.8922 -1.87991 0.807492 0
M  V30 702 H 78.9022 -4.07021 -0.282489 0
M  V30 703 H 77.5772 -4.06702 0.86986 0
M  V30 704 H 76.1542 -3.61738 -0.905553 0
M  V30 705 N 78.3393 -0.321999 -1.54275 0
M  V30 706 C 79.7503 0.166384 -1.85957 0
M  V30 707 C 80.1013 1.51747 -1.24367 0
M  V30 708 O 79.2263 2.09317 -0.549124 0
M  V30 709 C 79.8213 0.308681 -3.37391 0
M  V30 710 C 78.3803 0.741286 -3.69028 0
M  V30 711 C 77.5273 -0.137937 -2.76957 0
M  V30 712 H 80.4783 -0.542335 -1.49146 0
M  V30 713 H 80.4993 1.13984 -3.63026 0
M  V30 714 H 80.0113 -0.674809 -3.82188 0
M  V30 715 H 78.1123 1.73458 -3.29762 0
M  V30 716 H 78.2253 0.546118 -4.75977 0
M  V30 717 H 76.5893 0.386251 -2.51754 0
M  V30 718 H 77.3723 -1.11816 -3.2458 0
M  V30 719 N 79.8174 1.5752 -0.0501392 0
M  V30 720 C 80.7804 2.1037 0.909786 0
M  V30 721 C 81.7804 1.02308 1.24056 0
M  V30 722 O 82.9704 1.28385 1.17741 0
M  V30 723 C 80.1024 2.58708 2.21998 0
M  V30 724 H 81.2954 2.96479 0.451665 0
M  V30 725 H 78.8484 1.55038 0.198248 0
M  V30 726 H 79.5834 1.75989 2.72394 0
M  V30 727 H 79.3684 3.37675 1.99295 0
M  V30 728 H 80.8584 2.99747 2.9076 0
M  V30 729 N 81.2955 -0.223234 1.56011 0
M  V30 730 C 82.2585 -1.26014 1.9145 0
M  V30 731 C 83.2585 -1.3989 0.792937 0
M  V30 732 O 84.4485 -1.38184 1.0607 0
M  V30 733 C 81.5805 -2.63422 2.16383 0
M  V30 734 H 82.7735 -0.95796 2.84189 0
M  V30 735 H 80.3265 -0.463576 1.49267 0
M  V30 736 H 81.0615 -2.98741 1.2619 0
M  V30 737 H 80.8465 -2.54728 2.98088 0
M  V30 738 H 82.3365 -3.38249 2.44903 0
M  V30 739 N 82.7736 -1.49793 -0.48987 0
M  V30 740 C 83.6836 -1.70036 -1.61632 0
M  V30 741 C 84.6996 -0.583102 -1.63939 0
M  V30 742 O 85.8756 -0.859169 -1.82154 0
M  V30 743 C 82.9406 -1.77277 -2.97949 0
M  V30 744 C 82.0016 -3.00918 -3.06181 0
M  V30 745 C 81.2346 -3.07804 -4.35996 0
M  V30 746 O 81.4576 -2.21982 -5.25433 0
M  V30 747 O 80.3916 -4.00369 -4.49431 0
M  V30 748 H 84.2176 -2.65486 -1.47482 0
M  V30 749 H 81.8026 -1.33666 -0.667362 0
M  V30 750 H 83.6846 -1.84329 -3.78947 0
M  V30 751 H 82.3596 -0.850076 -3.12339 0
M  V30 752 H 81.2666 -2.99377 -2.2433 0
M  V30 753 H 82.5996 -3.92704 -2.96723 0
M  V30 754 N 84.2517 0.741722 -1.39055 0
M  V30 755 C 85.6677 1.04638 -1.20512 0
M  V30 756 C 85.8677 2.01405 -0.0620218 0
M  V30 757 O 84.9237 2.45547 0.588457 0
M  V30 758 C 86.2367 1.6151 -2.53643 0
M  V30 759 C 87.7847 1.73623 -2.6043 0
M  V30 760 C 88.2597 2.33906 -3.93767 0
M  V30 761 N 89.7507 2.41323 -3.9537 0
M  V30 762 C 90.4857 2.88888 -4.95309 0
M  V30 763 N 89.9817 3.36401 -6.05645 0
M  V30 764 N 91.7747 2.88037 -4.82692 0
M  V30 765 H 83.9257 0.0998155 -2.12165 0
M  V30 766 H 86.1887 0.106907 -0.941953 0
M  V30 767 H 85.8947 0.978739 -3.37807 0
M  V30 768 H 85.7687 2.60411 -2.72885 0
M  V30 769 H 88.1557 2.36384 -1.76655 0
M  V30 770 H 88.2367 0.733945 -2.45045 0
M  V30 771 H 87.8807 1.71776 -4.7797 0
M  V30 772 H 87.8107 3.34799 -4.06469 0
M  V30 773 H 90.3017 2.07734 -3.15682 0
M  V30 774 H 90.6147 3.71186 -6.77821 0
M  V30 775 H 88.9597 3.34427 -6.09248 0
M  V30 776 H 92.1507 2.50237 -3.95599 0
M  V30 777 H 92.3237 3.24792 -5.60726 0
M  V30 778 N 85.7298 1.2412 0.971189 0
M  V30 779 C 86.9778 1.07668 1.71032 0
M  V30 780 C 87.2988 -0.385797 1.91146 0
M  V30 781 O 86.5688 -1.27569 1.4867 0
M  V30 782 H 85.1488 0.395429 0.633755 0
M  V30 783 H 87.8108 1.55984 1.16855 0
M  V30 784 H 86.9068 1.57195 2.69622 0
M  V30 785 N 87.2079 -1.17134 1.05439 0
M  V30 786 C 88.1709 -2.19439 0.661764 0
M  V30 787 C 89.1709 -1.58199 -0.288042 0
M  V30 788 O 90.3609 -1.74053 -0.0715803 0
M  V30 789 C 87.4929 -3.40889 -0.0276209 0
M  V30 790 H 88.6859 -2.55688 1.56728 0
M  V30 791 H 86.2389 -1.31259 0.848567 0
M  V30 792 H 86.9739 -3.10187 -0.94629 0
M  V30 793 H 86.7589 -3.86586 0.655238 0
M  V30 794 H 88.2489 -4.16603 -0.288342 0
M  V30 795 N 88.686 -0.835752 -1.33615 0
M  V30 796 C 89.596 -0.269088 -2.33052 0
M  V30 797 C 90.612 0.603251 -1.63208 0
M  V30 798 O 91.788 0.508112 -1.94885 0
M  V30 799 C 88.853 0.549091 -3.42324 0
M  V30 800 C 87.914 -0.347156 -4.27894 0
M  V30 801 C 87.147 0.43207 -5.31948 0
M  V30 802 O 87.37 1.66409 -5.45586 0
M  V30 803 O 86.304 -0.192298 -6.01593 0
M  V30 804 H 90.13 -1.09243 -2.83372 0
M  V30 805 H 87.715 -0.598198 -1.36901 0
M  V30 806 H 89.597 1.01414 -4.09015 0
M  V30 807 H 88.272 1.34955 -2.94226 0
M  V30 808 H 87.179 -0.859979 -3.64081 0
M  V30 809 H 88.512 -1.1123 -4.79467 0
M  V30 810 N 90.1641 1.46063 -0.591896 0
M  V30 811 C 91.0941 2.33172 0.123673 0
M  V30 812 C 92.0751 1.45897 0.87453 0
M  V30 813 O 93.2601 1.74698 0.848181 0
M  V30 814 C 90.3901 3.28336 1.13194 0
M  V30 815 C 89.3441 4.25124 0.495324 0
M  V30 816 C 88.6701 5.09863 1.61071 0
M  V30 817 C 89.9701 5.19143 -0.573425 0
M  V30 818 H 91.6641 2.93252 -0.603646 0
M  V30 819 H 89.2101 1.41014 -0.291741 0
M  V30 820 H 91.1631 3.88137 1.64097 0
M  V30 821 H 89.8871 2.66383 1.88965 0
M  V30 822 H 88.5461 3.66599 0.00729452 0
M  V30 823 H 88.1941 4.44288 2.35832 0
M  V30 824 H 87.8941 5.75417 1.19035 0
M  V30 825 H 89.4181 5.72529 2.12233 0
M  V30 826 H 90.8321 5.73106 -0.1491 0
M  V30 827 H 89.2291 5.93089 -0.914636 0
M  V30 828 H 90.2991 4.62519 -1.45617 0
M  V30 829 N 91.6422 0.330177 1.54103 0
M  V30 830 C 92.8902 -0.269871 2.0029 0
M  V30 831 C 93.2112 -1.52133 1.21986 0
M  V30 832 O 92.4812 -1.93212 0.323438 0
M  V30 833 H 91.0612 -0.10271 0.739905 0
M  V30 834 H 93.7232 0.448249 1.89675 0
M  V30 835 H 92.8192 -0.52166 3.07709 0
M  V30 836 N 93.1203 -1.57491 0.0584922 0
M  V30 837 C 94.0833 -2.1085 -0.898617 0
M  V30 838 C 95.0833 -1.02964 -1.23511 0
M  V30 839 O 96.2733 -1.29007 -1.17059 0
M  V30 840 C 93.4053 -2.59881 -2.20623 0
M  V30 841 H 94.5983 -2.96715 -0.435936 0
M  V30 842 H 92.1513 -1.55141 -0.190023 0
M  V30 843 H 92.8863 -1.77431 -2.71457 0
M  V30 844 H 92.6713 -3.38727 -1.97501 0
M  V30 845 H 94.1613 -3.01285 -2.89166 0
M  V30 846 N 94.5984 0.214957 -1.56127 0
M  V30 847 C 95.8754 0.963093 -1.70247 0
M  V30 848 C 96.2554 2.02166 -0.60764 0
M  V30 849 O 95.6034 2.25244 0.384385 0
M  V30 850 C 95.8134 1.56756 -3.11815 0
M  V30 851 C 97.1614 2.0573 -3.7143 0
M  V30 852 O 98.1854 1.66637 -3.14818 0
M  V30 853 O 97.0444 2.77603 -4.70743 0
M  V30 854 H 94.1384 0.450321 -0.693643 0
M  V30 855 H 96.6844 0.206219 -1.68442 0
M  V30 856 H 95.4564 0.803533 -3.82961 0
M  V30 857 H 95.0794 2.3898 -3.17765 0
M  V30 858 N 96.0765 1.50051 0.48192 0
M  V30 859 C 96.9865 1.7089 1.60728 0
M  V30 860 C 98.0025 0.591788 1.63627 0
M  V30 861 O 99.1785 0.868817 1.81696 0
M  V30 862 C 96.2435 1.78855 2.97005 0
M  V30 863 C 95.3045 3.02537 3.04581 0
M  V30 864 C 94.5375 3.10112 4.34357 0
M  V30 865 O 94.7605 2.24765 5.24249 0
M  V30 866 O 93.6945 4.02747 4.47301 0
M  V30 867 H 97.5205 2.66264 1.46072 0
M  V30 868 H 95.1055 1.34018 0.660264 0
M  V30 869 H 96.9875 1.86336 3.77964 0
M  V30 870 H 95.6625 0.866628 3.11883 0
M  V30 871 H 94.5695 3.00563 2.22739 0
M  V30 872 H 95.9025 3.94272 2.94636 0
M  V30 873 N 97.5546 -0.734337 1.39446 0
M  V30 874 C 98.4646 -1.87879 1.40495 0
M  V30 875 C 99.4806 -1.714 0.299672 0
M  V30 876 O 100.657 -1.93991 0.541249 0
M  V30 877 C 97.7216 -3.23477 1.24754 0
M  V30 878 C 96.7826 -3.52344 2.45259 0
M  V30 879 C 96.0156 -4.81473 2.30259 0
M  V30 880 O 96.2386 -5.55237 1.30643 0
M  V30 881 O 95.1726 -5.10254 3.19256 0
M  V30 882 H 98.9986 -1.89949 2.36966 0
M  V30 883 H 96.5836 -0.882243 1.20569 0
M  V30 884 H 98.4656 -4.04509 1.18111 0
M  V30 885 H 97.1406 -3.22176 0.313781 0
M  V30 886 H 96.0476 -2.71396 2.57478 0
M  V30 887 H 97.3806 -3.58426 3.37331 0
M  V30 888 N 99.0327 -1.24633 -0.964593 0
M  V30 889 C 99.9647 -0.999302 -2.06268 0
M  V30 890 C 100.978 0.0323226 -1.62768 0
M  V30 891 O 102.167 -0.205079 -1.77318 0
M  V30 892 C 99.2667 -0.486816 -3.35385 0
M  V30 893 C 98.4397 -1.5823 -4.07777 0
M  V30 894 C 97.4987 -1.07191 -5.15166 0
M  V30 895 O 96.5247 -1.76426 -5.41168 0
M  V30 896 N 97.7267 0.0920373 -5.80427 0
M  V30 897 H 100.492 -1.94477 -2.28033 0
M  V30 898 H 98.0527 -1.15704 -1.13244 0
M  V30 899 H 100.045 -0.130066 -4.04491 0
M  V30 900 H 98.6147 0.364459 -3.10468 0
M  V30 901 H 97.8347 -2.11109 -3.32906 0
M  V30 902 H 99.1227 -2.31854 -4.52903 0
M  V30 903 H 98.5207 0.670784 -5.61709 0
M  V30 904 H 97.0777 0.389905 -6.50633 0
M  V30 905 N 100.511 1.16574 -1.06058 0
M  V30 906 C 101.927 1.3904 -0.783585 0
M  V30 907 C 102.127 1.91784 0.618145 0
M  V30 908 O 101.183 2.11511 1.37911 0
M  V30 909 C 102.496 2.37329 -1.84649 0
M  V30 910 C 104.044 2.51018 -1.86973 0
M  V30 911 C 104.519 3.52588 -2.92311 0
M  V30 912 N 106.01 3.60113 -2.91329 0
M  V30 913 C 106.745 4.38486 -3.69482 0
M  V30 914 N 106.241 5.20302 -4.57447 0
M  V30 915 N 108.034 4.33446 -3.57885 0
M  V30 916 H 100.185 0.806725 -1.96483 0
M  V30 917 H 102.448 0.417117 -0.851303 0
M  V30 918 H 102.154 2.05663 -2.85299 0
M  V30 919 H 102.028 3.36946 -1.6955 0
M  V30 920 H 104.415 2.81989 -0.869827 0
M  V30 921 H 104.496 1.51445 -2.0615 0
M  V30 922 H 104.14 3.22354 -3.92492 0
M  V30 923 H 104.07 4.51886 -2.70383 0
M  V30 924 H 106.561 3.01707 -2.27555 0
M  V30 925 H 106.874 5.77311 -5.13743 0
M  V30 926 H 105.219 5.19653 -4.61503 0
M  V30 927 H 108.41 3.68586 -2.88551 0
M  V30 928 H 108.583 4.94279 -4.19037 0
M  V30 929 N 101.989 0.842826 1.3317 0
M  V30 930 C 103.235 0.441099 1.97945 0
M  V30 931 C 103.568 -0.998024 1.66593 0
M  V30 932 O 102.843 -1.69839 0.947898 0
M  V30 933 C 103.126 0.666841 3.53872 0
M  V30 934 C 102.979 2.15352 3.94897 0
M  V30 935 C 104.298 0.115544 4.39948 0
M  V30 936 H 101.417 0.161739 0.719034 0
M  V30 937 H 104.059 1.05907 1.57746 0
M  V30 938 H 102.209 0.140828 3.88245 0
M  V30 939 H 103.881 2.7447 3.70761 0
M  V30 940 H 102.124 2.63653 3.44484 0
M  V30 941 H 102.795 2.26221 5.03516 0
M  V30 942 H 105.271 0.565213 4.12243 0
M  V30 943 H 104.147 0.303152 5.48062 0
M  V30 944 H 104.408 -0.980935 4.3108 0
M  V30 945 N 103.467 -1.45747 0.599634 0
M  V30 946 C 104.878 -1.85853 0.177681 0
M  V30 947 C 105.229 -1.50102 -1.26348 0
M  V30 948 O 104.354 -0.923905 -1.95686 0
M  V30 949 C 104.949 -3.37326 0.315688 0
M  V30 950 C 103.508 -3.76365 -0.0515144 0
M  V30 951 C 102.655 -2.69722 0.643822 0
M  V30 952 H 105.606 -1.36661 0.806814 0
M  V30 953 H 105.627 -3.77778 -0.454321 0
M  V30 954 H 105.139 -3.63315 1.36468 0
M  V30 955 H 103.24 -3.55993 -1.09999 0
M  V30 956 H 103.353 -4.77916 0.336594 0
M  V30 957 H 101.717 -2.54567 0.0822881 0
M  V30 958 H 102.5 -2.98549 1.6948 0
M  V30 959 N 104.945 -0.338344 -1.53925 0
M  V30 960 C 106.175 0.260919 -2.04946 0
M  V30 961 C 106.583 1.45174 -1.2133 0
M  V30 962 O 105.926 1.82122 -0.240262 0
M  V30 963 C 105.988 0.744596 -3.51704 0
M  V30 964 C 105.652 -0.325883 -4.55837 0
M  V30 965 C 106.649 -1.16687 -5.06636 0
M  V30 966 C 104.334 -0.478317 -5.00017 0
M  V30 967 C 106.328 -2.14588 -6.00192 0
M  V30 968 C 104.015 -1.46073 -5.93385 0
M  V30 969 C 105.013 -2.29297 -6.4336 0
M  V30 970 O 104.701 -3.25867 -7.34892 0
M  V30 971 H 104.433 0.0551207 -0.673749 0
M  V30 972 H 106.987 -0.486984 -1.99544 0
M  V30 973 H 105.217 1.54366 -3.54553 0
M  V30 974 H 106.906 1.26383 -3.85723 0
M  V30 975 H 107.672 -1.06016 -4.73271 0
M  V30 976 H 103.551 0.159613 -4.60724 0
M  V30 977 H 107.095 -2.79585 -6.39123 0
M  V30 978 H 102.992 -1.56802 -6.26166 0
M  V30 979 H 103.76 -3.21278 -7.5281 0
M  V30 980 N 106.423 1.57458 -0.0668435 0
M  V30 981 C 107.834 1.80776 0.466558 0
M  V30 982 C 108.185 0.980361 1.69951 0
M  V30 983 O 107.31 0.201441 2.1546 0
M  V30 984 C 107.905 3.27881 0.85321 0
M  V30 985 C 106.464 3.52062 1.3315 0
M  V30 986 C 105.611 2.75513 0.314264 0
M  V30 987 H 108.562 1.5598 -0.292588 0
M  V30 988 H 108.583 3.39659 1.715 0
M  V30 989 H 108.095 3.88075 -0.0443439 0
M  V30 990 H 106.196 2.97167 2.24772 0
M  V30 991 H 106.309 4.60762 1.31285 0
M  V30 992 H 104.673 2.42123 0.790492 0
M  V30 993 H 105.456 3.38442 -0.575477 0
M  V30 994 N 107.901 -0.206675 1.56239 0
M  V30 995 C 108.864 -1.23976 1.92776 0
M  V30 996 C 109.864 -1.39041 0.807729 0
M  V30 997 O 111.054 -1.37051 1.0753 0
M  V30 998 C 108.186 -2.61112 2.19165 0
M  V30 999 H 109.379 -0.927764 2.85189 0
M  V30 1000 H 106.932 -0.447718 1.4975 0
M  V30 1001 H 107.667 -2.97386 1.29352 0
M  V30 1002 H 107.452 -2.51552 3.00772 0
M  V30 1003 H 108.942 -3.35633 2.48476 0
M  V30 1004 N 109.379 -1.50304 -0.473955 0
M  V30 1005 C 110.309 -1.71886 -1.58042 0
M  V30 1006 C 111.29 -0.567799 -1.60344 0
M  V30 1007 O 112.475 -0.806623 -1.76656 0
M  V30 1008 C 109.605 -1.81036 -2.96384 0
M  V30 1009 C 108.559 -2.962 -3.08949 0
M  V30 1010 C 107.885 -2.9049 -4.48909 0
M  V30 1011 C 109.185 -4.36752 -2.86434 0
M  V30 1012 H 110.879 -2.64527 -1.40234 0
M  V30 1013 H 108.425 -1.27295 -0.673201 0
M  V30 1014 H 110.378 -1.94719 -3.73714 0
M  V30 1015 H 109.102 -0.850147 -3.15341 0
M  V30 1016 H 107.761 -2.82164 -2.3405 0
M  V30 1017 H 107.409 -1.92321 -4.64781 0
M  V30 1018 H 107.109 -3.67802 -4.58253 0
M  V30 1019 H 108.633 -3.06218 -5.28264 0
M  V30 1020 H 110.047 -4.5133 -3.53517 0
M  V30 1021 H 108.444 -5.15493 -3.07225 0
M  V30 1022 H 109.514 -4.49321 -1.82316 0
M  V30 1023 N 110.857 0.726932 -1.39834 0
M  V30 1024 C 111.82 1.82269 -1.38962 0
M  V30 1025 C 112.82 1.58248 -0.285334 0
M  V30 1026 O 114.01 1.65499 -0.54366 0
M  V30 1027 C 111.142 3.20186 -1.17019 0
M  V30 1028 H 112.335 1.84443 -2.36476 0
M  V30 1029 H 109.888 0.931416 -1.25516 0
M  V30 1030 H 110.623 3.23669 -0.202204 0
M  V30 1031 H 110.408 3.3902 -1.96998 0
M  V30 1032 H 111.898 4.00235 -1.1917 0
M  V30 1033 N 112.336 1.25143 0.95797 0
M  V30 1034 C 113.299 1.05321 2.03569 0
M  V30 1035 C 114.299 0.007152 1.60798 0
M  V30 1036 O 115.489 0.24903 1.72411 0
M  V30 1037 C 112.621 0.598394 3.35607 0
M  V30 1038 H 113.814 2.00986 2.22586 0
M  V30 1039 H 111.367 1.07502 1.13459 0
M  V30 1040 H 112.102 -0.361014 3.22284 0
M  V30 1041 H 111.887 1.35351 3.67998 0
M  V30 1042 H 113.377 0.48104 4.1482 0
M  V30 1043 N 113.814 -1.1601 1.06675 0
M  V30 1044 C 115.042 -1.90527 0.806667 0
M  V30 1045 C 115.457 -1.77643 -0.639396 0
M  V30 1046 O 114.814 -1.12369 -1.43803 0
M  V30 1047 C 114.865 -3.41106 1.19705 0
M  V30 1048 O 114.586 -3.53608 2.58636 0
M  V30 1049 C 116.087 -4.32663 0.965266 0
M  V30 1050 H 113.307 -0.604053 0.292166 0
M  V30 1051 H 115.851 -1.47026 1.4214 0
M  V30 1052 H 114.006 -3.82296 0.626774 0
M  V30 1053 H 114.42 -4.47011 2.74375 0
M  V30 1054 H 115.894 -5.36763 1.288 0
M  V30 1055 H 116.371 -4.39089 -0.0987936 0
M  V30 1056 H 116.977 -3.97206 1.52011 0
M  V30 1057 N 115.292 -0.849877 -1.32721 0
M  V30 1058 C 116.538 -0.451591 -1.97708 0
M  V30 1059 C 116.871 0.989175 -1.6712 0
M  V30 1060 O 116.146 1.69334 -0.956891 0
M  V30 1061 C 116.429 -0.685598 -3.53513 0
M  V30 1062 C 116.282 -2.17444 -3.93749 0
M  V30 1063 C 117.601 -0.138874 -4.39881 0
M  V30 1064 H 114.72 -0.16555 -0.718166 0
M  V30 1065 H 117.362 -1.06742 -1.57182 0
M  V30 1066 H 115.512 -0.161416 -3.88165 0
M  V30 1067 H 117.184 -2.76433 -3.693 0
M  V30 1068 H 115.427 -2.65476 -3.43081 0
M  V30 1069 H 116.098 -2.28888 -5.02309 0
M  V30 1070 H 118.574 -0.587068 -4.11938 0
M  V30 1071 H 117.45 -0.332213 -5.47894 0
M  V30 1072 H 117.711 0.95806 -4.31594 0
M  V30 1073 N 116.77 1.45427 -0.607355 0
M  V30 1074 C 118.017 2.02241 -0.102455 0
M  V30 1075 C 118.345 1.4758 1.26691 0
M  V30 1076 O 117.6 0.640468 1.84923 0
M  V30 1077 C 117.899 3.57398 -0.0129263 0
M  V30 1078 C 117.565 4.3121 -1.31792 0
M  V30 1079 C 116.227 4.51092 -1.67539 0
M  V30 1080 C 118.579 4.73401 -2.18039 0
M  V30 1081 C 115.907 5.10422 -2.89285 0
M  V30 1082 C 118.259 5.34078 -3.39034 0
M  V30 1083 C 116.923 5.52184 -3.75033 0
M  V30 1084 H 116.193 0.740051 -0.037491 0
M  V30 1085 H 118.84 1.74494 -0.788926 0
M  V30 1086 H 117.145 3.84421 0.756806 0
M  V30 1087 H 118.842 3.99061 0.393881 0
M  V30 1088 H 115.432 4.16047 -1.02968 0
M  V30 1089 H 119.616 4.57774 -1.91721 0
M  V30 1090 H 114.872 5.22629 -3.17283 0
M  V30 1091 H 119.046 5.65724 -4.06115 0
M  V30 1092 H 116.673 5.97925 -4.69457 0
M  V30 1093 N 118.248 0.346503 1.53744 0
M  V30 1094 C 119.495 -0.249104 2.00962 0
M  V30 1095 C 119.823 -1.5032 1.23426 0
M  V30 1096 O 119.078 -1.93217 0.310761 0
M  V30 1097 C 119.377 -0.605809 3.52228 0
M  V30 1098 C 119.043 0.551747 4.47512 0
M  V30 1099 C 117.705 0.86941 4.73281 0
M  V30 1100 C 120.057 1.32818 5.03993 0
M  V30 1101 C 117.385 1.96582 5.52786 0
M  V30 1102 C 119.737 2.41486 5.84694 0
M  V30 1103 C 118.401 2.73808 6.08757 0
M  V30 1104 H 117.671 -0.0911538 0.735372 0
M  V30 1105 H 120.318 0.475027 1.85515 0
M  V30 1106 H 118.623 -1.4107 3.65522 0
M  V30 1107 H 120.32 -1.07858 3.86222 0
M  V30 1108 H 116.91 0.294102 4.2759 0
M  V30 1109 H 121.094 1.09602 4.84047 0
M  V30 1110 H 116.35 2.22045 5.69654 0
M  V30 1111 H 120.524 3.02078 6.27473 0
M  V30 1112 H 118.151 3.58892 6.7015 0
M  V30 1113 N 119.726 -1.57421 0.075193 0
M  V30 1114 C 120.966 -1.95495 -0.596757 0
M  V30 1115 C 121.33 -0.954886 -1.66571 0
M  V30 1116 O 122.531 -1.22341 -2.39345 0
M  V30 1117 C 120.802 -3.382 -1.15566 0
M  V30 1118 S 122.361 -3.98254 -1.84226 0
M  V30 1119 H 119.179 -0.683649 -0.195307 0
M  V30 1120 H 121.781 -1.94925 0.149859 0
M  V30 1121 H 120.485 -4.08766 -0.36588 0
M  V30 1122 H 120.016 -3.42321 -1.93856 0
M  V30 1123 H 122.031 -3.85435 -3.12497 0
M  V30 1124 N 121.204 0.198386 -1.56346 0
M  V30 1125 C 122.134 1.24865 -1.9731 0
M  V30 1126 C 123.115 1.47651 -0.844576 0
M  V30 1127 O 124.3 1.59444 -1.10866 0
M  V30 1128 C 121.43 2.59358 -2.30977 0
M  V30 1129 C 120.384 2.5119 -3.46537 0
M  V30 1130 C 119.71 3.89926 -3.65871 0
M  V30 1131 C 121.01 2.03977 -4.80823 0
M  V30 1132 H 122.704 0.908252 -2.85291 0
M  V30 1133 H 120.25 0.435462 -1.37258 0
M  V30 1134 H 122.203 3.33011 -2.58228 0
M  V30 1135 H 120.927 2.95132 -1.39874 0
M  V30 1136 H 119.586 1.79993 -3.19371 0
M  V30 1137 H 119.234 4.23046 -2.72105 0
M  V30 1138 H 118.934 3.85336 -4.4361 0
M  V30 1139 H 120.458 4.65205 -3.95495 0
M  V30 1140 H 121.872 2.67386 -5.07127 0
M  V30 1141 H 120.269 2.10397 -5.62008 0
M  V30 1142 H 121.339 0.992861 -4.74626 0
M  V30 1143 N 122.682 1.50554 0.465978 0
M  V30 1144 C 123.93 1.61479 1.21528 0
M  V30 1145 C 124.251 0.319596 1.92363 0
M  V30 1146 O 123.521 -0.663194 1.84333 0
M  V30 1147 H 122.101 0.595055 0.451573 0
M  V30 1148 H 124.763 1.87355 0.53704 0
M  V30 1149 H 123.859 2.42846 1.96042 0
M  V30 1150 N 124.16 -0.719506 1.40217 0
M  V30 1151 C 125.092 -1.84428 1.36084 0
M  V30 1152 C 126.105 -1.60597 0.266913 0
M  V30 1153 O 127.294 -1.70544 0.526983 0
M  V30 1154 C 124.394 -3.20757 1.094 0
M  V30 1155 C 123.567 -3.71817 2.30372 0
M  V30 1156 C 122.626 -4.86748 1.99907 0
M  V30 1157 O 121.652 -4.99603 2.72737 0
M  V30 1158 N 122.854 -5.7226 0.974635 0
M  V30 1159 H 125.619 -1.88473 2.33019 0
M  V30 1160 H 123.18 -0.900885 1.3452 0
M  V30 1161 H 125.172 -3.95235 0.870116 0
M  V30 1162 H 123.742 -3.11884 0.211452 0
M  V30 1163 H 122.962 -2.88514 2.68614 0
M  V30 1164 H 124.25 -4.02666 3.11026 0
M  V30 1165 H 123.648 -5.6448 0.371368 0
M  V30 1166 H 122.205 -6.46739 0.810656 0
M  V30 1167 N 125.638 -1.25649 -0.95132 0
M  V30 1168 C 126.866 -1.13343 -1.73092 0
M  V30 1169 C 127.281 0.312434 -1.86197 0
M  V30 1170 O 126.638 1.21465 -1.36207 0
M  V30 1171 C 126.689 -1.78602 -3.14299 0
M  V30 1172 O 126.41 -3.17537 -3.01831 0
M  V30 1173 C 127.911 -1.72119 -4.08522 0
M  V30 1174 H 125.131 -0.395181 -0.542285 0
M  V30 1175 H 127.675 -1.66076 -1.19328 0
M  V30 1176 H 125.83 -1.29832 -3.64996 0
M  V30 1177 H 126.244 -3.49676 -3.90931 0
M  V30 1178 H 127.718 -2.22435 -5.052 0
M  V30 1179 H 128.195 -0.685635 -4.33815 0
M  V30 1180 H 128.801 -2.20393 -3.63741 0
M  V30 1181 N 127.117 1.15442 -1.07289 0
M  V30 1182 C 128.345 1.90096 -0.81676 0
M  V30 1183 C 128.76 1.7798 0.629966 0
M  V30 1184 O 128.117 1.1313 1.43206 0
M  V30 1185 C 128.168 3.40466 -1.21512 0
M  V30 1186 O 127.889 3.52232 -2.60508 0
M  V30 1187 C 129.39 4.32145 -0.988198 0
M  V30 1188 H 126.61 0.602495 -0.295366 0
M  V30 1189 H 129.154 1.4627 -1.42918 0
M  V30 1190 H 127.309 3.81958 -0.647039 0
M  V30 1191 H 127.723 4.45549 -2.76742 0
M  V30 1192 H 129.197 5.36072 -1.31645 0
M  V30 1193 H 129.674 4.39135 0.0755063 0
M  V30 1194 H 130.28 3.96395 -1.54115 0
M  V30 1195 N 128.595 0.856903 1.32268 0
M  V30 1196 C 130.011 0.547061 1.49931 0
M  V30 1197 C 130.211 -0.921781 1.7918 0
M  V30 1198 O 129.267 -1.70469 1.8627 0
M  V30 1199 C 130.58 1.43599 2.64196 0
M  V30 1200 C 132.128 1.43665 2.78081 0
M  V30 1201 C 132.603 2.31085 3.95428 0
M  V30 1202 N 134.094 2.28893 4.02694 0
M  V30 1203 C 134.829 2.93262 4.92732 0
M  V30 1204 N 134.325 3.66751 5.87763 0
M  V30 1205 N 136.118 2.82638 4.85873 0
M  V30 1206 H 128.269 1.8075 1.11549 0
M  V30 1207 H 130.532 0.772144 0.549997 0
M  V30 1208 H 130.238 2.48058 2.49319 0
M  V30 1209 H 130.112 1.12502 3.60032 0
M  V30 1210 H 132.499 0.399701 2.92381 0
M  V30 1211 H 132.58 1.7878 1.82952 0
M  V30 1212 H 132.224 3.34849 3.81888 0
M  V30 1213 H 132.154 1.93302 4.89839 0
M  V30 1214 H 134.645 1.75466 3.34694 0
M  V30 1215 H 134.958 4.13027 6.53168 0
M  V30 1216 H 133.303 3.70859 5.87783 0
M  V30 1217 H 136.494 2.24774 4.10602 0
M  V30 1218 H 136.667 3.33084 5.55841 0
M  V30 1219 N 130.073 -1.45103 0.615059 0
M  V30 1220 C 131.484 -1.85654 0.197383 0
M  V30 1221 C 131.835 -1.51433 -1.24749 0
M  V30 1222 O 130.96 -0.944608 -1.94695 0
M  V30 1223 C 131.555 -3.36972 0.351448 0
M  V30 1224 C 130.114 -3.76398 -0.011593 0
M  V30 1225 C 129.261 -2.69024 0.672394 0
M  V30 1226 H 132.212 -1.35797 0.821263 0
M  V30 1227 H 132.233 -3.78239 -0.414227 0
M  V30 1228 H 131.745 -3.61847 1.40314 0
M  V30 1229 H 129.846 -3.5714 -1.06217 0
M  V30 1230 H 129.959 -4.77532 0.387265 0
M  V30 1231 H 128.323 -2.54465 0.109284 0
M  V30 1232 H 129.106 -2.96735 1.72636 0
M  V30 1233 N 131.551 -0.354651 -1.53558 0
M  V30 1234 C 132.967 -0.00315426 -1.596 0
M  V30 1235 C 133.167 1.47741 -1.37021 0
M  V30 1236 O 132.223 2.23759 -1.16996 0
M  V30 1237 C 133.536 -0.44929 -2.97325 0
M  V30 1238 C 135.084 -0.402578 -3.104 0
M  V30 1239 C 135.559 -0.824355 -4.5052 0
M  V30 1240 N 137.05 -0.778979 -4.56603 0
M  V30 1241 C 137.785 -1.07715 -5.63192 0
M  V30 1242 N 137.281 -1.44405 -6.77583 0
M  V30 1243 N 139.074 -1.00066 -5.53121 0
M  V30 1244 H 131.225 -1.31893 -1.66487 0
M  V30 1245 H 133.488 -0.538388 -0.780284 0
M  V30 1246 H 133.194 -1.48202 -3.1895 0
M  V30 1247 H 133.068 0.169772 -3.76818 0
M  V30 1248 H 135.455 0.621004 -2.88492 0
M  V30 1249 H 135.536 -1.05699 -2.32941 0
M  V30 1250 H 135.18 -1.846 -4.73165 0
M  V30 1251 H 135.11 -0.147304 -5.26394 0
M  V30 1252 H 137.601 -0.508528 -3.74463 0
M  V30 1253 H 137.914 -1.65612 -7.54846 0
M  V30 1254 H 136.259 -1.4826 -6.79002 0
M  V30 1255 H 139.45 -0.713293 -4.62633 0
M  V30 1256 H 139.623 -1.23638 -6.36096 0
M  V30 1257 N 133.029 1.57378 -0.0835403 0
M  V30 1258 C 134.254 1.98682 0.594987 0
M  V30 1259 C 134.679 0.961969 1.61641 0
M  V30 1260 O 134.037 -0.0709989 1.81161 0
M  V30 1261 C 134.085 3.38988 1.2296 0
M  V30 1262 O 133.189 3.39208 2.34546 0
M  V30 1263 H 132.53 0.646368 0.152002 0
M  V30 1264 H 135.06 2.03961 -0.161533 0
M  V30 1265 H 135.07 3.76431 1.57366 0
M  V30 1266 H 133.745 4.13107 0.481228 0
M  V30 1267 H 132.322 3.13548 2.01846 0
M  V30 1268 N 134.507 -0.190092 1.56449 0
M  V30 1269 C 135.753 -0.906472 1.82084 0
M  V30 1270 C 136.108 -1.80677 0.661335 0
M  V30 1271 O 135.401 -1.88501 -0.343237 0
M  V30 1272 C 135.595 -1.75382 3.1141 0
M  V30 1273 C 135.424 -0.937053 4.39829 0
M  V30 1274 C 134.194 -0.619507 5.01488 0
M  V30 1275 C 136.392 -0.2874 5.13496 0
M  V30 1276 N 134.374 0.215367 6.13522 0
M  V30 1277 C 135.745 0.409454 6.18646 0
M  V30 1278 C 137.8 -0.203639 4.97483 0
M  V30 1279 C 136.503 1.1821 7.0952 0
M  V30 1280 C 138.529 0.555622 5.88784 0
M  V30 1281 C 137.891 1.24091 6.93384 0
M  V30 1282 H 133.99 -0.310931 0.717528 0
M  V30 1283 H 136.574 -0.174821 1.93914 0
M  V30 1284 H 134.745 -2.45703 3.00806 0
M  V30 1285 H 136.477 -2.41006 3.25112 0
M  V30 1286 H 133.232 -0.945126 4.64074 0
M  V30 1287 H 133.656 0.622562 6.74131 0
M  V30 1288 H 138.298 -0.719099 4.1664 0
M  V30 1289 H 136.016 1.70897 7.89823 0
M  V30 1290 H 139.602 0.621854 5.78467 0
M  V30 1291 H 138.482 1.81901 7.62812 0
M  V30 1292 N 135.985 -1.50799 -0.457987 0
M  V30 1293 C 137.225 -1.64088 -1.21879 0
M  V30 1294 C 137.589 -0.339848 -1.88968 0
M  V30 1295 O 138.79 -0.348301 -2.66534 0
M  V30 1296 C 137.061 -2.79726 -2.2246 0
M  V30 1297 S 138.62 -3.13225 -3.07303 0
M  V30 1298 H 135.438 -0.578314 -0.41361 0
M  V30 1299 H 138.04 -1.88632 -0.513645 0
M  V30 1300 H 136.744 -3.72722 -1.71775 0
M  V30 1301 H 136.275 -2.57308 -2.97584 0
M  V30 1302 H 138.29 -2.58062 -4.23814 0
M  V30 1303 N 137.463 0.71206 -1.40597 0
M  V30 1304 C 138.393 1.83889 -1.43899 0
M  V30 1305 C 139.374 1.67442 -0.299504 0
M  V30 1306 O 140.559 1.87421 -0.508624 0
M  V30 1307 C 137.689 3.21877 -1.30431 0
M  V30 1308 C 136.643 3.53002 -2.42019 0
M  V30 1309 C 135.969 4.90172 -2.13626 0
M  V30 1310 C 137.269 3.53643 -3.84362 0
M  V30 1311 H 138.963 1.81383 -2.38203 0
M  V30 1312 H 136.509 0.871237 -1.14654 0
M  V30 1313 H 138.462 4.00404 -1.31357 0
M  V30 1314 H 137.186 3.24968 -0.326049 0
M  V30 1315 H 135.845 2.76818 -2.40349 0
M  V30 1316 H 135.493 4.89869 -1.14182 0
M  V30 1317 H 135.193 5.11962 -2.88389 0
M  V30 1318 H 136.717 5.71028 -2.1624 0
M  V30 1319 H 138.131 4.22203 -3.87837 0
M  V30 1320 H 136.528 3.86961 -4.58673 0
M  V30 1321 H 137.598 2.52954 -4.13693 0
M  V30 1322 N 138.941 1.26152 0.944643 0
M  V30 1323 C 140.357 1.03189 1.21754 0
M  V30 1324 C 140.557 -0.245112 2.00004 0
M  V30 1325 O 139.613 -0.955176 2.33736 0
M  V30 1326 C 140.926 2.26119 1.98219 0
M  V30 1327 C 142.474 2.30984 2.11224 0
M  V30 1328 C 142.949 3.53597 2.91089 0
M  V30 1329 N 144.44 3.54053 2.98664 0
M  V30 1330 C 145.175 4.45593 3.60881 0
M  V30 1331 N 144.671 5.47416 4.24626 0
M  V30 1332 N 146.464 4.33252 3.58119 0
M  V30 1333 H 138.615 2.08177 0.421437 0
M  V30 1334 H 140.878 0.914723 0.248969 0
M  V30 1335 H 140.584 3.18984 1.48128 0
M  V30 1336 H 140.458 2.3009 2.98895 0
M  V30 1337 H 142.845 1.38635 2.60508 0
M  V30 1338 H 142.926 2.31026 1.09821 0
M  V30 1339 H 142.57 4.46273 2.42493 0
M  V30 1340 H 142.5 3.50802 3.92741 0
M  V30 1341 H 144.991 2.80403 2.53343 0
M  V30 1342 H 145.304 6.13459 4.69987 0
M  V30 1343 H 143.649 5.51278 4.23223 0
M  V30 1344 H 146.84 3.52924 3.0751 0
M  V30 1345 H 147.013 5.04786 4.06319 0
M  V30 1346 N 140.419 -1.14872 1.07899 0
M  V30 1347 C 141.349 -2.2193 0.725887 0
M  V30 1348 C 142.33 -1.67622 -0.28927 0
M  V30 1349 O 143.515 -1.93533 -0.160787 0
M  V30 1350 C 140.645 -3.47061 0.128856 0
M  V30 1351 C 139.599 -4.14363 1.07178 0
M  V30 1352 C 138.925 -5.33636 0.337229 0
M  V30 1353 C 140.225 -4.63492 2.40775 0
M  V30 1354 H 141.919 -2.51724 1.62097 0
M  V30 1355 H 139.465 -1.20991 0.780838 0
M  V30 1356 H 141.418 -4.21199 -0.130147 0
M  V30 1357 H 140.142 -3.16617 -0.80134 0
M  V30 1358 H 138.801 -3.42173 1.3158 0
M  V30 1359 H 138.449 -4.99449 -0.596606 0
M  V30 1360 H 138.149 -5.79609 0.965788 0
M  V30 1361 H 139.673 -6.10539 0.0861567 0
M  V30 1362 H 141.087 -5.2913 2.20669 0
M  V30 1363 H 139.484 -5.20148 2.99276 0
M  V30 1364 H 140.554 -3.78834 3.02676 0
M  V30 1365 N 141.898 -0.863906 -1.31812 0
M  V30 1366 C 143.144 -0.472535 -1.97218 0
M  V30 1367 C 143.477 0.971394 -1.68159 0
M  V30 1368 O 142.752 1.68309 -0.974798 0
M  V30 1369 C 143.035 -0.723054 -3.52766 0
M  V30 1370 C 142.888 -2.21608 -3.91421 0
M  V30 1371 C 144.207 -0.185522 -4.39709 0
M  V30 1372 H 141.326 -0.173158 -0.71637 0
M  V30 1373 H 143.968 -1.08403 -1.56041 0
M  V30 1374 H 142.118 -0.202577 -3.87971 0
M  V30 1375 H 143.79 -2.80334 -3.66347 0
M  V30 1376 H 142.033 -2.691 -3.40246 0
M  V30 1377 H 142.704 -2.34203 -4.99853 0
M  V30 1378 H 145.18 -0.630726 -4.11292 0
M  V30 1379 H 144.056 -0.390306 -5.47511 0
M  V30 1380 H 144.317 0.912229 -4.32586 0
M  V30 1381 N 143.376 1.44774 -0.622745 0
M  V30 1382 C 144.616 2.04004 -0.127102 0
M  V30 1383 C 144.98 1.47862 1.22478 0
M  V30 1384 O 146.181 1.98541 1.81204 0
M  V30 1385 C 144.452 3.57247 -0.104429 0
M  V30 1386 S 146.011 4.37574 0.327814 0
M  V30 1387 H 142.829 0.708713 -0.0569776 0
M  V30 1388 H 145.431 1.77275 -0.824253 0
M  V30 1389 H 144.135 3.95616 -1.09159 0
M  V30 1390 H 143.666 3.88575 0.614236 0
M  V30 1391 H 145.681 4.70575 1.57395 0
M  V30 1392 N 144.854 0.36279 1.53368 0
M  V30 1393 C 145.802 -0.500155 2.27159 0
M  V30 1394 C 146.796 -1.08575 1.3003 0
M  V30 1395 O 148.002 -1.02927 1.47668 0
M  V30 1396 H 144.377 -0.180009 0.730138 0
M  V30 1397 H 146.348 0.14401 2.98052 0
M  V30 1398 C 145.097 -1.62937 3.07159 0
M  V30 1399 H 144.42 -1.18806 3.8174 0
M  V30 1400 H 145.86 -2.20795 3.61975 0
M  V30 1401 C 144.319 -2.57007 2.17829 0
M  V30 1402 O 144.849 -3.59752 1.78721 0
M  V30 1403 N 143.055 -2.26131 1.82518 0
M  V30 1404 H 142.602 -1.42616 2.14519 0
M  V30 1405 H 142.56 -2.89327 1.23034 0
M  V30 1406 N 146.332 -1.57332 0.0918853 0
M  V30 1407 C 147.743 -1.81496 -0.437739 0
M  V30 1408 C 148.094 -1.00727 -1.6837 0
M  V30 1409 O 147.219 -0.235694 -2.15113 0
M  V30 1410 C 147.814 -3.29197 -0.800939 0
M  V30 1411 C 146.373 -3.54136 -1.27532 0
M  V30 1412 C 145.52 -2.75979 -0.270392 0
M  V30 1413 H 148.471 -1.55494 0.317366 0
M  V30 1414 H 148.492 -3.42344 -1.66074 0
M  V30 1415 H 148.004 -3.87955 0.106078 0
M  V30 1416 H 146.105 -3.00705 -2.20016 0
M  V30 1417 H 146.218 -4.62792 -1.23938 0
M  V30 1418 H 144.582 -2.43349 -0.751872 0
M  V30 1419 H 145.365 -3.37484 0.629248 0
M  V30 1420 N 147.81 0.181792 -1.56548 0
M  V30 1421 C 149.056 0.896803 -1.82562 0
M  V30 1422 C 149.411 1.80324 -0.670908 0
M  V30 1423 O 148.704 1.8868 0.333235 0
M  V30 1424 C 148.898 1.73728 -3.12335 0
M  V30 1425 C 148.727 0.913714 -4.4032 0
M  V30 1426 C 147.497 0.592903 -5.01809 0
M  V30 1427 C 149.695 0.260164 -5.13642 0
M  V30 1428 N 147.677 -0.247901 -6.13399 0
M  V30 1429 C 149.048 -0.442256 -6.18421 0
M  V30 1430 C 151.103 0.177253 -4.97584 0
M  V30 1431 C 149.806 -1.21971 -7.08883 0
M  V30 1432 C 151.832 -0.586839 -5.88481 0
M  V30 1433 C 151.194 -1.27766 -6.92716 0
M  V30 1434 H 147.293 0.307122 -0.719166 0
M  V30 1435 H 149.877 0.164535 -1.94004 0
M  V30 1436 H 148.048 2.44105 -3.02105 0
M  V30 1437 H 149.78 2.39279 -3.26386 0
M  V30 1438 H 146.535 0.920502 -4.64568 0
M  V30 1439 H 146.959 -0.658304 -6.73792 0
M  V30 1440 H 151.601 0.696993 -4.17015 0
M  V30 1441 H 149.319 -1.75083 -7.88905 0
M  V30 1442 H 152.905 -0.652522 -5.78129 0
M  V30 1443 H 151.785 -1.85943 -7.61836 0
M  V30 1444 N 149.288 1.51039 0.449983 0
M  V30 1445 C 150.535 1.63081 1.20045 0
M  V30 1446 C 150.863 0.341024 1.91487 0
M  V30 1447 O 150.118 -0.674276 1.83717 0
M  V30 1448 C 150.417 2.77556 2.25161 0
M  V30 1449 C 150.083 4.17289 1.70823 0
M  V30 1450 C 148.745 4.55305 1.55725 0
M  V30 1451 C 151.097 5.04536 1.3074 0
M  V30 1452 C 148.425 5.78287 0.989999 0
M  V30 1453 C 150.777 6.28085 0.754482 0
M  V30 1454 C 149.441 6.64885 0.590308 0
M  V30 1455 H 148.711 0.596755 0.439277 0
M  V30 1456 H 151.358 1.85037 0.49333 0
M  V30 1457 H 149.663 2.49771 3.01863 0
M  V30 1458 H 151.36 2.84073 2.83026 0
M  V30 1459 H 147.95 3.8731 1.83546 0
M  V30 1460 H 152.134 4.75782 1.41229 0
M  V30 1461 H 147.39 6.05456 0.850451 0
M  V30 1462 H 151.564 6.95038 0.435324 0
M  V30 1463 H 149.191 7.60055 0.14862 0
M  V30 1464 N 150.766 -0.704594 1.40972 0
M  V30 1465 C 151.676 -1.84856 1.44448 0
M  V30 1466 C 152.692 -1.70726 0.335961 0
M  V30 1467 O 153.868 -1.92799 0.582276 0
M  V30 1468 C 150.933 -3.20758 1.31587 0
M  V30 1469 C 149.994 -3.47063 2.52677 0
M  V30 1470 C 149.227 -4.76481 2.4042 0
M  V30 1471 O 149.45 -5.52341 1.42391 0
M  V30 1472 O 148.384 -5.03367 3.30007 0
M  V30 1473 H 152.21 -1.8488 2.40942 0
M  V30 1474 H 149.795 -0.85647 1.22413 0
M  V30 1475 H 151.677 -4.01913 1.26665 0
M  V30 1476 H 150.352 -3.21438 0.382049 0
M  V30 1477 H 149.259 -2.65873 2.63177 0
M  V30 1478 H 150.592 -3.5119 3.44858 0
M  V30 1479 N 152.244 -1.26651 -0.937939 0
M  V30 1480 C 153.194 -1.05156 -2.02302 0
M  V30 1481 C 154.178 0.0171233 -1.60891 0
M  V30 1482 O 155.37 -0.200213 -1.75864 0
M  V30 1483 C 152.499 -0.689962 -3.36295 0
M  V30 1484 C 151.585 -1.79626 -3.84181 0
M  V30 1485 N 151.976 -3.03422 -4.04684 0
M  V30 1486 C 150.274 -1.6806 -4.13124 0
M  V30 1487 C 150.975 -3.75345 -4.444 0
M  V30 1488 N 149.951 -3.03051 -4.51288 0
M  V30 1489 H 153.753 -1.99117 -2.1617 0
M  V30 1490 H 151.267 -1.17216 -1.12402 0
M  V30 1491 H 153.264 -0.517112 -4.13681 0
M  V30 1492 H 151.924 0.242139 -3.23796 0
M  V30 1493 H 152.935 -3.39293 -3.91281 0
M  V30 1494 H 149.612 -0.818629 -4.09396 0
M  V30 1495 H 151.002 -4.81691 -4.68427 0
M  V30 1496 N 153.722 1.14298 -1.08507 0
M  V30 1497 C 154.968 1.85633 -0.816581 0
M  V30 1498 C 155.301 1.82784 0.656021 0
M  V30 1499 O 154.576 1.25926 1.48233 0
M  V30 1500 C 154.859 3.34223 -1.34041 0
M  V30 1501 C 154.712 3.45639 -2.87843 0
M  V30 1502 C 156.031 4.29356 -0.9665 0
M  V30 1503 H 153.15 0.67402 -0.298104 0
M  V30 1504 H 155.792 1.34214 -1.34487 0
M  V30 1505 H 153.942 3.78144 -0.89104 0
M  V30 1506 H 155.614 3.10498 -3.41158 0
M  V30 1507 H 153.857 2.86817 -3.25451 0
M  V30 1508 H 154.528 4.50089 -3.19569 0
M  V30 1509 H 157.004 3.93457 -1.35391 0
M  V30 1510 H 155.88 5.3178 -1.3602 0
M  V30 1511 H 156.141 4.41919 0.126362 0
M  V30 1512 N 155.201 0.870884 1.31352 0
M  V30 1513 C 156.426 0.495957 2.01383 0
M  V30 1514 C 156.851 -0.904324 1.64935 0
M  V30 1515 O 156.209 -1.59687 0.858466 0
M  V30 1516 C 156.257 0.661433 3.54482 0
M  V30 1517 O 155.361 -0.298851 4.11316 0
M  V30 1518 H 154.702 0.197158 0.634054 0
M  V30 1519 H 157.232 1.17455 1.67527 0
M  V30 1520 H 157.242 0.555072 4.04207 0
M  V30 1521 H 155.917 1.68246 3.8035 0
M  V30 1522 H 154.494 -0.147368 3.72609 0
M  V30 1523 N 156.679 -1.44442 0.630414 0
M  V30 1524 C 157.612 -2.27862 -0.124247 0
M  V30 1525 C 158.59 -1.38495 -0.851931 0
M  V30 1526 O 159.774 -1.67935 -0.856166 0
M  V30 1527 C 156.901 -3.17407 -1.18197 0
M  V30 1528 C 155.947 -4.22875 -0.554892 0
M  V30 1529 S 156.78 -5.31485 0.654489 0
M  V30 1530 C 157.936 -6.246 -0.40326 0
M  V30 1531 H 158.169 -2.91519 0.583435 0
M  V30 1532 H 155.702 -1.48618 0.418565 0
M  V30 1533 H 157.66 -3.69549 -1.78728 0
M  V30 1534 H 156.321 -2.52971 -1.86184 0
M  V30 1535 H 155.514 -4.85542 -1.35148 0
M  V30 1536 H 155.116 -3.73992 -0.0242105 0
M  V30 1537 H 157.408 -6.65375 -1.27602 0
M  V30 1538 H 158.351 -7.07851 0.187813 0
M  V30 1539 H 158.759 -5.59775 -0.728837 0
M  V30 1540 N 158.157 -0.370918 -1.53173 0
M  V30 1541 C 159.087 0.464847 -2.28826 0
M  V30 1542 C 160.068 1.07936 -1.31468 0
M  V30 1543 O 161.253 1.0956 -1.60344 0
M  V30 1544 C 158.383 1.60196 -3.08147 0
M  V30 1545 C 157.337 1.11443 -4.13237 0
M  V30 1546 C 156.663 2.3422 -4.80672 0
M  V30 1547 C 157.963 0.195384 -5.21934 0
M  V30 1548 H 159.657 -0.166329 -2.98938 0
M  V30 1549 H 157.203 -0.0814359 -1.4377 0
M  V30 1550 H 159.156 2.19332 -3.59822 0
M  V30 1551 H 157.88 2.26045 -2.35735 0
M  V30 1552 H 156.539 0.545727 -3.62515 0
M  V30 1553 H 156.187 2.98537 -4.04827 0
M  V30 1554 H 155.887 2.02269 -5.51689 0
M  V30 1555 H 157.411 2.94032 -5.35143 0
M  V30 1556 H 158.825 0.694375 -5.69079 0
M  V30 1557 H 157.222 -0.0335027 -6.00091 0
M  V30 1558 H 158.292 -0.760961 -4.78892 0
M  V30 1559 N 159.635 1.57281 -0.100228 0
M  V30 1560 C 160.881 1.94826 0.563101 0
M  V30 1561 C 161.214 0.982475 1.67514 0
M  V30 1562 O 160.489 0.0164069 1.94493 0
M  V30 1563 C 160.772 3.42453 1.11346 0
M  V30 1564 C 160.625 4.498 0.00612081 0
M  V30 1565 C 161.944 3.91506 2.01024 0
M  V30 1566 H 159.063 0.708428 0.203221 0
M  V30 1567 H 161.705 1.8922 -0.171979 0
M  V30 1568 H 159.855 3.47361 1.7399 0
M  V30 1569 H 161.527 4.57 -0.628357 0
M  V30 1570 H 159.77 4.28756 -0.659581 0
M  V30 1571 H 160.441 5.50306 0.432109 0
M  V30 1572 H 162.917 3.88784 1.48278 0
M  V30 1573 H 161.793 4.95358 2.36457 0
M  V30 1574 H 162.054 3.31099 2.92961 0
M  V30 1575 N 161.113 -0.173488 1.56642 0
M  V30 1576 C 162.362 -0.888758 1.81063 0
M  V30 1577 C 162.675 -1.83506 0.67712 0
M  V30 1578 O 163.881 -2.59254 0.806206 0
M  V30 1579 C 162.337 -1.63091 3.20826 0
M  V30 1580 C 161.945 -0.728357 4.4204 0
M  V30 1581 C 163.689 -2.33454 3.54541 0
M  V30 1582 C 161.596 -1.47062 5.72823 0
M  V30 1583 H 160.526 -0.335618 0.675186 0
M  V30 1584 H 163.177 -0.141712 1.82952 0
M  V30 1585 H 161.559 -2.42263 3.13248 0
M  V30 1586 H 162.733 0.0262449 4.60793 0
M  V30 1587 H 161.048 -0.134492 4.16183 0
M  V30 1588 H 163.645 -2.89578 4.49498 0
M  V30 1589 H 163.988 -3.08687 2.79317 0
M  V30 1590 H 164.521 -1.61227 3.63663 0
M  V30 1591 H 161.26 -0.760658 6.51072 0
M  V30 1592 H 160.78 -2.1986 5.58052 0
M  V30 1593 H 162.459 -2.01868 6.14702 0
M  V30 1594 N 162.591 -1.51276 -0.441967 0
M  V30 1595 C 163.524 -1.66933 -1.55591 0
M  V30 1596 C 164.502 -0.516958 -1.54163 0
M  V30 1597 O 165.686 -0.740209 -1.73358 0
M  V30 1598 C 162.813 -1.67866 -2.94174 0
M  V30 1599 C 161.859 -2.89013 -3.13646 0
M  V30 1600 S 162.692 -4.49897 -2.90436 0
M  V30 1601 C 163.848 -4.53568 -4.31308 0
M  V30 1602 H 164.081 -2.61155 -1.42076 0
M  V30 1603 H 161.614 -1.40902 -0.631341 0
M  V30 1604 H 163.572 -1.69089 -3.74058 0
M  V30 1605 H 162.233 -0.748296 -3.05056 0
M  V30 1606 H 161.426 -2.86054 -4.14957 0
M  V30 1607 H 161.028 -2.85509 -2.4158 0
M  V30 1608 H 163.32 -4.28924 -5.24434 0
M  V30 1609 H 164.263 -5.55355 -4.39303 0
M  V30 1610 H 164.671 -3.82943 -4.14747 0
M  V30 1611 N 164.069 0.697108 -1.41344 0
M  V30 1612 C 164.999 1.82353 -1.45841 0
M  V30 1613 C 165.98 1.67115 -0.317247 0
M  V30 1614 O 167.165 1.86871 -0.528474 0
M  V30 1615 C 164.295 3.20476 -1.33838 0
M  V30 1616 C 163.249 3.50415 -2.4575 0
M  V30 1617 C 162.575 4.87878 -2.18813 0
M  V30 1618 C 163.875 3.49546 -3.88091 0
M  V30 1619 H 165.569 1.78846 -2.40113 0
M  V30 1620 H 163.115 0.859028 -1.15571 0
M  V30 1621 H 165.068 3.98988 -1.35596 0
M  V30 1622 H 163.792 3.24604 -0.360498 0
M  V30 1623 H 162.451 2.74253 -2.43271 0
M  V30 1624 H 162.099 4.8863 -1.19371 0
M  V30 1625 H 161.799 5.08875 -2.93803 0
M  V30 1626 H 163.323 5.68702 -2.22284 0
M  V30 1627 H 164.737 4.18066 -3.92293 0
M  V30 1628 H 163.134 3.82075 -4.62751 0
M  V30 1629 H 164.204 2.48552 -4.16353 0
M  V30 1630 N 165.547 1.27147 0.931209 0
M  V30 1631 C 166.495 1.09398 2.05268 0
M  V30 1632 C 167.489 0.0180591 1.6939 0
M  V30 1633 O 168.695 0.17551 1.79142 0
M  V30 1634 H 165.07 0.336986 0.672268 0
M  V30 1635 H 167.041 2.04416 2.17386 0
M  V30 1636 C 165.79 0.75424 3.39421 0
M  V30 1637 H 165.113 1.57404 3.67511 0
M  V30 1638 H 166.553 0.669903 4.18674 0
M  V30 1639 C 165.012 -0.541197 3.32525 0
M  V30 1640 O 165.542 -1.57664 3.69466 0
M  V30 1641 N 163.748 -0.535517 2.85623 0
M  V30 1642 H 163.295 0.307511 2.55758 0
M  V30 1643 H 163.253 -1.40236 2.81392 0
M  V30 1644 N 167.025 -1.13721 1.09112 0
M  V30 1645 C 168.265 -1.86576 0.834801 0
M  V30 1646 C 168.629 -1.81435 -0.628122 0
M  V30 1647 O 169.83 -2.49497 -1.00024 0
M  V30 1648 C 168.101 -3.30872 1.35124 0
M  V30 1649 S 169.66 -4.21257 1.22832 0
M  V30 1650 H 166.478 -0.643666 0.302017 0
M  V30 1651 H 169.08 -1.37085 1.39385 0
M  V30 1652 H 167.784 -3.32166 2.41027 0
M  V30 1653 H 167.315 -3.85423 0.788185 0
M  V30 1654 H 169.33 -4.95884 0.177191 0
M  V30 1655 N 168.503 -0.877838 -1.30888 0
M  V30 1656 C 169.749 -0.493426 -1.96706 0
M  V30 1657 C 170.082 0.953504 -1.6918 0
M  V30 1658 O 169.357 1.67266 -0.992594 0
M  V30 1659 C 169.64 -0.760429 -3.51979 0
M  V30 1660 C 169.493 -2.25747 -3.89048 0
M  V30 1661 C 170.812 -0.232148 -4.39487 0
M  V30 1662 H 167.931 -0.180746 -0.714493 0
M  V30 1663 H 170.573 -1.10052 -1.54882 0
M  V30 1664 H 168.723 -0.243715 -3.87735 0
M  V30 1665 H 170.395 -2.84204 -3.63354 0
M  V30 1666 H 168.638 -2.72694 -3.37373 0
M  V30 1667 H 169.309 -2.39491 -4.97341 0
M  V30 1668 H 171.785 -0.674314 -4.106 0
M  V30 1669 H 170.661 -0.448355 -5.47066 0
M  V30 1670 H 170.922 0.866297 -4.33529 0
M  V30 1671 N 169.982 1.44106 -0.638065 0
M  V30 1672 C 171.21 2.06336 -0.152615 0
M  V30 1673 C 171.625 1.47731 1.17563 0
M  V30 1674 O 170.982 0.602806 1.72257 0
M  V30 1675 C 171.033 3.61479 -0.0391491 0
M  V30 1676 O 170.754 4.17903 -1.31487 0
M  V30 1677 C 172.255 4.40757 0.474176 0
M  V30 1678 H 169.475 0.665862 -0.0828776 0
M  V30 1679 H 172.019 1.84862 -0.87443 0
M  V30 1680 H 170.174 3.82191 0.633142 0
M  V30 1681 H 170.588 5.11416 -1.16421 0
M  V30 1682 H 172.062 5.49707 0.502562 0
M  V30 1683 H 172.539 4.12697 1.50258 0
M  V30 1684 H 173.145 4.24979 -0.165102 0
M  V30 1685 N 171.46 0.379036 1.52974 0
M  V30 1686 C 172.39 -0.452706 2.29069 0
M  V30 1687 C 173.371 -1.07237 1.32039 0
M  V30 1688 O 174.556 -1.08708 1.60923 0
M  V30 1689 C 171.686 -1.5856 3.08992 0
M  V30 1690 C 170.64 -1.0925 4.13822 0
M  V30 1691 C 169.966 -2.31668 4.81907 0
M  V30 1692 C 171.266 -0.167702 5.22031 0
M  V30 1693 H 172.96 0.182181 2.98845 0
M  V30 1694 H 170.506 0.0890592 1.43724 0
M  V30 1695 H 172.459 -2.1742 3.6098 0
M  V30 1696 H 171.183 -2.24792 2.36931 0
M  V30 1697 H 169.842 -0.526494 3.628 0
M  V30 1698 H 169.49 -2.96386 4.06404 0
M  V30 1699 H 169.19 -1.9934 5.52754 0
M  V30 1700 H 170.714 -2.91189 5.36695 0
M  V30 1701 H 172.128 -0.664186 5.6944 0
M  V30 1702 H 170.525 0.0653265 6.00064 0
M  V30 1703 H 171.595 0.786347 4.78482 0
M  V30 1704 N 172.938 -1.57226 0.108567 0
M  V30 1705 C 174.186 -1.94448 -0.550853 0
M  V30 1706 C 174.507 -0.992074 -1.67878 0
M  V30 1707 O 173.777 -0.0465 -1.95845 0
M  V30 1708 H 172.357 -0.717897 -0.206479 0
M  V30 1709 H 175.019 -1.94112 0.175062 0
M  V30 1710 H 174.115 -2.97218 -0.952259 0
M  V30 1711 N 174.416 0.165178 -1.56732 0
M  V30 1712 C 175.349 1.23336 -1.91998 0
M  V30 1713 C 176.327 1.42476 -0.783531 0
M  V30 1714 O 177.511 1.57384 -1.03743 0
M  V30 1715 C 174.638 2.59533 -2.17625 0
M  V30 1716 C 173.684 2.57093 -3.40302 0
M  V30 1717 S 174.517 2.05571 -4.9447 0
M  V30 1718 C 175.673 3.43532 -5.23198 0
M  V30 1719 H 175.906 0.932387 -2.82301 0
M  V30 1720 H 173.439 0.370013 -1.49901 0
M  V30 1721 H 175.397 3.37918 -2.3307 0
M  V30 1722 H 174.058 2.86827 -1.28019 0
M  V30 1723 H 173.251 3.57308 -3.55453 0
M  V30 1724 H 172.853 1.86806 -3.24005 0
M  V30 1725 H 175.145 4.39559 -5.15552 0
M  V30 1726 H 176.088 3.33251 -6.2478 0
M  V30 1727 H 176.496 3.39828 -4.50752 0
M  V30 1728 N 175.894 1.51508 0.433938 0
M  V30 1729 C 177.141 1.64345 1.18309 0
M  V30 1730 C 177.469 0.361315 1.91115 0
M  V30 1731 O 176.724 -0.654753 1.84422 0
M  V30 1732 C 177.023 2.79928 2.22205 0
M  V30 1733 C 176.689 4.19078 1.66387 0
M  V30 1734 C 175.351 4.56932 1.50887 0
M  V30 1735 C 177.703 5.05894 1.25381 0
M  V30 1736 C 175.031 5.79305 0.928608 0
M  V30 1737 C 177.383 6.2885 0.687823 0
M  V30 1738 C 176.047 6.65473 0.519755 0
M  V30 1739 H 175.317 0.601381 0.432923 0
M  V30 1740 H 177.964 1.85549 0.473676 0
M  V30 1741 H 176.269 2.52959 2.99197 0
M  V30 1742 H 177.966 2.87059 2.79997 0
M  V30 1743 H 174.556 3.89234 1.79428 0
M  V30 1744 H 178.74 4.77253 1.36175 0
M  V30 1745 H 173.996 6.06324 0.786186 0
M  V30 1746 H 178.17 6.95461 0.361581 0
M  V30 1747 H 175.797 7.6017 0.0679979 0
M  V30 1748 N 177.372 -0.689602 1.41712 0
M  V30 1749 C 178.788 -1.00093 1.24312 0
M  V30 1750 C 178.988 -2.01036 0.136729 0
M  V30 1751 O 178.044 -2.47562 -0.496918 0
M  V30 1752 C 179.357 -1.51985 2.59463 0
M  V30 1753 C 180.905 -1.63838 2.66695 0
M  V30 1754 C 181.38 -2.1913 4.02177 0
M  V30 1755 N 182.871 -2.26483 4.04054 0
M  V30 1756 C 183.606 -2.70306 5.0569 0
M  V30 1757 N 183.102 -3.13691 6.17713 0
M  V30 1758 N 184.895 -2.69923 4.9305 0
M  V30 1759 H 177.046 -0.0210029 2.1239 0
M  V30 1760 H 179.309 -0.0718733 0.945272 0
M  V30 1761 H 179.015 -0.85269 3.41207 0
M  V30 1762 H 178.889 -2.50103 2.82362 0
M  V30 1763 H 181.276 -2.29664 1.85306 0
M  V30 1764 H 181.357 -0.642492 2.476 0
M  V30 1765 H 181.001 -1.53918 4.84016 0
M  V30 1766 H 180.931 -3.19482 4.18615 0
M  V30 1767 H 183.422 -1.95874 3.23174 0
M  V30 1768 H 183.735 -3.45773 6.9113 0
M  V30 1769 H 182.08 -3.11585 6.21241 0
M  V30 1770 H 185.271 -2.35382 4.04614 0
M  V30 1771 H 185.444 -3.03758 5.72394 0
M  V30 1772 N 178.85 -1.27639 -0.924453 0
M  V30 1773 C 180.261 -1.12834 -1.48746 0
M  V30 1774 C 180.612 0.285505 -1.94112 0
M  V30 1775 O 179.737 1.17874 -1.81479 0
M  V30 1776 C 180.332 -2.04217 -2.70334 0
M  V30 1777 C 178.891 -1.93509 -3.22848 0
M  V30 1778 C 178.038 -1.96583 -1.95577 0
M  V30 1779 H 180.989 -1.40484 -0.738233 0
M  V30 1780 H 181.01 -1.59989 -3.4523 0
M  V30 1781 H 180.522 -3.07111 -2.37285 0
M  V30 1782 H 178.623 -0.936131 -3.60649 0
M  V30 1783 H 178.736 -2.79917 -3.88823 0
M  V30 1784 H 177.1 -1.4085 -2.12211 0
M  V30 1785 H 177.883 -3.01137 -1.64837 0
M  V30 1786 N 180.328 1.1314 -1.09713 0
M  V30 1787 C 181.568 1.8613 -0.844683 0
M  V30 1788 C 181.932 1.81765 0.618491 0
M  V30 1789 O 183.133 2.50024 0.98699 0
M  V30 1790 C 181.404 3.30151 -1.36877 0
M  V30 1791 S 182.963 4.206 -1.25064 0
M  V30 1792 H 179.781 0.642056 -0.305427 0
M  V30 1793 H 182.383 1.36343 -1.4011 0
M  V30 1794 H 181.087 3.30883 -2.42786 0
M  V30 1795 H 180.618 3.85 -0.808614 0
M  V30 1796 H 182.633 4.95783 -0.203486 0
M  V30 1797 N 181.806 0.884767 1.30421 0
M  V30 1798 C 182.716 0.355398 2.31892 0
M  V30 1799 C 183.732 -0.542261 1.65335 0
M  V30 1800 O 184.908 -0.435432 1.96637 0
M  V30 1801 C 181.973 -0.421661 3.44126 0
M  V30 1802 C 181.034 0.505727 4.26311 0
M  V30 1803 C 180.267 -0.234343 5.33185 0
M  V30 1804 O 180.49 -1.46045 5.51386 0
M  V30 1805 O 179.424 0.415443 6.00465 0
M  V30 1806 H 183.25 1.19685 2.79122 0
M  V30 1807 H 180.835 0.648596 1.34587 0
M  V30 1808 H 182.717 -0.861641 4.12497 0
M  V30 1809 H 181.392 -1.23942 2.99032 0
M  V30 1810 H 180.299 0.994513 3.60639 0
M  V30 1811 H 181.632 1.28948 4.75009 0
M  V30 1812 N 183.284 -1.43765 0.645699 0
M  V30 1813 C 184.561 -1.9541 0.0862963 0
M  V30 1814 C 184.941 -1.58725 -1.39175 0
M  V30 1815 O 184.289 -0.868581 -2.11348 0
M  V30 1816 C 184.499 -3.47488 0.324565 0
M  V30 1817 C 185.847 -4.24001 0.225497 0
M  V30 1818 O 186.871 -3.55274 0.256715 0
M  V30 1819 O 185.73 -5.46313 0.142801 0
M  V30 1820 H 182.824 -0.826882 -0.0139483 0
M  V30 1821 H 185.37 -1.53743 0.718415 0
M  V30 1822 H 184.142 -3.67289 1.3496 0
M  V30 1823 H 183.765 -3.96135 -0.340987 0
M  V30 1824 N 184.763 -0.387143 -1.52771 0
M  V30 1825 C 186.009 0.196025 -2.0185 0
M  V30 1826 C 186.342 1.46641 -1.27319 0
M  V30 1827 O 185.617 1.90889 -0.373032 0
M  V30 1828 C 185.9 0.466136 -3.5707 0
M  V30 1829 C 185.753 -0.819385 -4.42274 0
M  V30 1830 C 187.072 1.25768 -4.21747 0
M  V30 1831 H 184.191 0.0697708 -0.73369 0
M  V30 1832 H 186.833 -0.516286 -1.82851 0
M  V30 1833 H 184.983 1.07293 -3.7339 0
M  V30 1834 H 186.655 -1.4563 -4.37709 0
M  V30 1835 H 184.898 -1.43517 -4.09372 0
M  V30 1836 H 185.569 -0.585065 -5.48891 0
M  V30 1837 H 188.045 0.744167 -4.09391 0
M  V30 1838 H 186.921 1.41541 -5.30337 0
M  V30 1839 H 187.182 2.27228 -3.79236 0
M  V30 1840 N 186.241 1.57166 -0.116904 0
M  V30 1841 C 187.151 2.18745 0.847812 0
M  V30 1842 C 188.167 1.163 1.29423 0
M  V30 1843 O 189.343 1.48761 1.35765 0
M  V30 1844 C 186.408 2.77307 2.0809 0
M  V30 1845 C 185.469 3.94781 1.68661 0
M  V30 1846 C 184.702 4.50541 2.86091 0
M  V30 1847 O 184.925 4.05202 4.01456 0
M  V30 1848 O 183.859 5.41256 2.63298 0
M  V30 1849 H 187.685 3.01632 0.353778 0
M  V30 1850 H 185.27 1.49005 0.108599 0
M  V30 1851 H 187.152 3.14647 2.80313 0
M  V30 1852 H 185.827 1.97452 2.56504 0
M  V30 1853 H 184.734 3.62214 0.935518 0
M  V30 1854 H 186.067 4.76065 1.24991 0
M  V30 1855 N 187.719 -0.156864 1.56817 0
M  V30 1856 C 188.959 -0.877453 1.84608 0
M  V30 1857 C 189.323 -1.78791 0.699845 0
M  V30 1858 O 190.524 -2.5472 0.858553 0
M  V30 1859 C 188.795 -1.63992 3.17555 0
M  V30 1860 S 190.354 -2.40729 3.66872 0
M  V30 1861 H 187.172 -0.293612 0.647544 0
M  V30 1862 H 189.774 -0.138099 1.95012 0
M  V30 1863 H 188.478 -0.962363 3.98957 0
M  V30 1864 H 188.009 -2.42038 3.10131 0
M  V30 1865 H 190.024 -3.65725 3.3535 0
M  V30 1866 N 189.197 -1.51736 -0.425897 0
M  V30 1867 C 190.445 -1.64644 -1.17204 0
M  V30 1868 C 190.766 -0.370486 -1.91448 0
M  V30 1869 O 190.036 0.614088 -1.86026 0
M  V30 1870 H 188.616 -0.606819 -0.435638 0
M  V30 1871 H 191.278 -1.88713 -0.487177 0
M  V30 1872 H 190.374 -2.47958 -1.89534 0
M  V30 1873 N 190.675 0.682077 -1.42076 0
M  V30 1874 C 191.9 1.47558 -1.45744 0
M  V30 1875 C 192.325 1.87977 -0.0680981 0
M  V30 1876 O 191.683 1.55522 0.9318 0
M  V30 1877 C 191.731 2.70575 -2.38373 0
M  V30 1878 O 190.835 3.68573 -1.85007 0
M  V30 1879 H 190.176 0.443585 -0.494093 0
M  V30 1880 H 192.706 0.837238 -1.86686 0
M  V30 1881 H 192.716 3.18729 -2.54707 0
M  V30 1882 H 191.391 2.40495 -3.39315 0
M  V30 1883 H 189.968 3.2757 -1.78192 0
M  V30 1884 N 192.153 1.28127 0.917671 0
M  V30 1885 C 193.063 1.13556 2.05286 0
M  V30 1886 C 194.079 0.0630914 1.73886 0
M  V30 1887 O 195.255 0.271598 1.9956 0
M  V30 1888 C 192.32 0.794676 3.3747 0
M  V30 1889 C 191.381 1.94909 3.82504 0
M  V30 1890 C 190.614 1.62437 5.0838 0
M  V30 1891 O 190.837 0.536905 5.67867 0
M  V30 1892 O 189.771 2.46677 5.4903 0
M  V30 1893 H 193.597 2.08844 2.20495 0
M  V30 1894 H 191.182 1.07409 1.03845 0
M  V30 1895 H 193.064 0.618344 4.16839 0
M  V30 1896 H 191.739 -0.128581 3.23445 0
M  V30 1897 H 190.646 2.18055 3.03978 0
M  V30 1898 H 191.979 2.85291 4.01086 0
M  V30 1899 N 193.631 -1.12557 1.10312 0
M  V30 1900 C 195.047 -1.36036 0.834649 0
M  V30 1901 C 195.247 -1.93946 -0.546539 0
M  V30 1902 O 194.303 -2.16484 -1.29966 0
M  V30 1903 C 195.616 -2.30312 1.9333 0
M  V30 1904 C 197.164 -2.43906 1.9616 0
M  V30 1905 C 197.639 -3.41496 3.05195 0
M  V30 1906 N 199.13 -3.49053 3.04494 0
M  V30 1907 C 199.865 -4.24471 3.85502 0
M  V30 1908 N 199.361 -5.02966 4.76442 0
M  V30 1909 N 201.154 -4.19864 3.73725 0
M  V30 1910 H 193.305 -0.733246 1.99342 0
M  V30 1911 H 195.568 -0.385234 0.866198 0
M  V30 1912 H 195.274 -1.94933 2.92735 0
M  V30 1913 H 195.148 -3.30421 1.81939 0
M  V30 1914 H 197.535 -2.78567 0.973886 0
M  V30 1915 H 197.616 -1.4369 2.11629 0
M  V30 1916 H 197.26 -3.07565 4.04186 0
M  V30 1917 H 197.19 -4.41539 2.86968 0
M  V30 1918 H 199.681 -2.93053 2.38596 0
M  V30 1919 H 199.994 -5.57846 5.34815 0
M  V30 1920 H 198.339 -5.02167 4.80472 0
M  V30 1921 H 201.53 -3.57623 3.02032 0
M  V30 1922 H 201.703 -4.78386 4.37093 0
M  V30 1923 N 195.109 -0.891671 -1.2995 0
M  V30 1924 C 196.349 -0.520296 -1.97667 0
M  V30 1925 C 196.713 0.914797 -1.68806 0
M  V30 1926 O 197.914 1.39263 -2.29911 0
M  V30 1927 C 196.185 -0.795222 -3.48441 0
M  V30 1928 S 197.744 -0.526953 -4.35624 0
M  V30 1929 H 194.562 -0.19333 -0.684211 0
M  V30 1930 H 197.164 -1.15238 -1.57926 0
M  V30 1931 H 195.868 -1.83805 -3.66938 0
M  V30 1932 H 195.399 -0.15095 -3.9311 0
M  V30 1933 H 197.414 0.631533 -4.92165 0
M  V30 1934 N 196.587 1.43421 -0.653314 0
M  V30 1935 C 197.535 2.32546 0.0501531 0
M  V30 1936 C 198.529 1.48617 0.812985 0
M  V30 1937 O 199.735 1.64825 0.723375 0
M  V30 1938 H 196.11 0.751185 0.0350032 0
M  V30 1939 H 198.081 2.89602 -0.719261 0
M  V30 1940 C 196.83 3.32925 1.00279 0
M  V30 1941 H 196.153 3.97532 0.425236 0
M  V30 1942 H 197.593 3.9792 1.46409 0
M  V30 1943 C 196.052 2.63532 2.09886 0
M  V30 1944 O 196.582 2.45092 3.18265 0
M  V30 1945 N 194.788 2.22905 1.86445 0
M  V30 1946 H 194.335 2.38103 0.98309 0
M  V30 1947 H 194.293 1.76805 2.59976 0
M  V30 1948 N 198.065 0.39524 1.52563 0
M  V30 1949 C 199.314 -0.186321 2.00838 0
M  V30 1950 C 199.627 -1.47402 1.28577 0
M  V30 1951 O 200.833 -2.13599 1.67593 0
M  V30 1952 C 199.289 -0.382595 3.57861 0
M  V30 1953 C 198.897 0.892202 4.39026 0
M  V30 1954 C 200.641 -0.9202 4.14406 0
M  V30 1955 C 198.548 0.66388 5.87662 0
M  V30 1956 H 197.478 -0.0734041 0.750418 0
M  V30 1957 H 200.129 0.518552 1.76021 0
M  V30 1958 H 198.511 -1.14946 3.7895 0
M  V30 1959 H 199.685 1.66414 4.29701 0
M  V30 1960 H 198 1.35519 3.9373 0
M  V30 1961 H 200.597 -1.10683 5.23119 0
M  V30 1962 H 200.94 -1.89096 3.70875 0
M  V30 1963 H 201.473 -0.212751 3.97231 0
M  V30 1964 H 198.212 1.6058 6.35527 0
M  V30 1965 H 197.732 -0.0690193 5.9976 0
M  V30 1966 H 199.411 0.300699 6.46301 0
M  V30 1967 N 199.544 -1.57102 0.125237 0
M  V30 1968 C 200.474 -2.18659 -0.819174 0
M  V30 1969 C 201.455 -1.12843 -1.27281 0
M  V30 1970 O 202.64 -1.41104 -1.33429 0
M  V30 1971 C 199.77 -2.79096 -2.06695 0
M  V30 1972 C 198.724 -3.90548 -1.75088 0
M  V30 1973 C 198.05 -4.37821 -3.06948 0
M  V30 1974 C 199.35 -5.12356 -1.01435 0
M  V30 1975 H 201.044 -2.9783 -0.306202 0
M  V30 1976 H 198.59 -1.4326 -0.145839 0
M  V30 1977 H 200.543 -3.2082 -2.73226 0
M  V30 1978 H 199.267 -1.97223 -2.60328 0
M  V30 1979 H 197.926 -3.49409 -1.10944 0
M  V30 1980 H 197.574 -3.52799 -3.58527 0
M  V30 1981 H 197.274 -5.12982 -2.86571 0
M  V30 1982 H 198.798 -4.822 -3.74587 0
M  V30 1983 H 200.212 -5.5106 -1.58132 0
M  V30 1984 H 198.609 -5.9314 -0.911319 0
M  V30 1985 H 199.679 -4.849 -0.00218681 0
M  V30 1986 N 201.022 0.148545 -1.56898 0
M  V30 1987 C 201.932 1.20293 -2.01412 0
M  V30 1988 C 202.948 1.47107 -0.929273 0
M  V30 1989 O 204.124 1.58807 -1.23863 0
M  V30 1990 C 201.189 2.51682 -2.38447 0
M  V30 1991 C 200.25 2.32529 -3.60872 0
M  V30 1992 C 199.483 3.57653 -3.96132 0
M  V30 1993 O 199.706 4.63771 -3.32073 0
M  V30 1994 O 198.64 3.50408 -4.89385 0
M  V30 1995 H 202.466 0.855025 -2.91416 0
M  V30 1996 H 200.051 0.357151 -1.45068 0
M  V30 1997 H 201.933 3.29147 -2.63135 0
M  V30 1998 H 200.608 2.86006 -1.51599 0
M  V30 1999 H 199.515 1.53019 -3.41373 0
M  V30 2000 H 200.848 2.03121 -4.48333 0
M  V30 2001 N 202.5 1.5196 0.417844 0
M  V30 2002 C 203.463 1.74065 1.49111 0
M  V30 2003 C 204.463 0.610537 1.48758 0
M  V30 2004 O 205.653 0.87832 1.50437 0
M  V30 2005 C 202.785 1.81502 2.88565 0
M  V30 2006 H 203.978 2.69869 1.30807 0
M  V30 2007 H 201.531 1.42244 0.647785 0
M  V30 2008 H 202.266 0.875813 3.1225 0
M  V30 2009 H 202.051 2.63651 2.90225 0
M  V30 2010 H 203.541 2.00376 3.66387 0
M  V30 2011 N 203.978 -0.674533 1.42435 0
M  V30 2012 C 205.225 -1.43459 1.42919 0
M  V30 2013 C 205.553 -1.94446 0.0457312 0
M  V30 2014 O 204.808 -1.7132 -0.94593 0
M  V30 2015 C 205.107 -2.64767 2.40069 0
M  V30 2016 C 204.773 -2.3232 3.86443 0
M  V30 2017 C 203.435 -2.23182 4.26314 0
M  V30 2018 C 205.787 -2.05977 4.78773 0
M  V30 2019 C 203.115 -1.85827 5.56494 0
M  V30 2020 C 205.467 -1.70125 6.09295 0
M  V30 2021 C 204.131 -1.59498 6.48164 0
M  V30 2022 H 203.401 -0.524952 0.522978 0
M  V30 2023 H 206.048 -0.769097 1.75377 0
M  V30 2024 H 204.353 -3.36349 2.00939 0
M  V30 2025 H 206.05 -3.22949 2.37707 0
M  V30 2026 H 202.64 -2.40334 3.54877 0
M  V30 2027 H 206.824 -2.11969 4.48757 0
M  V30 2028 H 202.08 -1.76168 5.8547 0
M  V30 2029 H 206.254 -1.48767 6.80324 0
M  V30 2030 H 203.881 -1.30322 7.48946 0
M  V30 2031 N 205.456 -1.28612 -0.910864 0
M  V30 2032 C 206.733 -1.06632 -1.63979 0
M  V30 2033 C 207.113 0.393351 -2.07403 0
M  V30 2034 O 206.461 1.37999 -1.82122 0
M  V30 2035 C 206.671 -2.0436 -2.8291 0
M  V30 2036 C 208.019 -2.34666 -3.5386 0
M  V30 2037 O 209.043 -2.02467 -2.93062 0
M  V30 2038 O 207.902 -2.89631 -4.63439 0
M  V30 2039 H 204.996 -0.407737 -0.7195 0
M  V30 2040 H 207.542 -1.39942 -0.959914 0
M  V30 2041 H 206.314 -3.02727 -2.47936 0
M  V30 2042 H 205.937 -1.71714 -3.58609 0
M  V30 2043 N 206.934 1.1197 -1.10907 0
M  V30 2044 C 207.897 2.16031 -0.765707 0
M  V30 2045 C 208.897 1.59393 0.212235 0
M  V30 2046 O 210.087 1.74196 -0.0115441 0
M  V30 2047 C 207.219 3.40632 -0.135053 0
M  V30 2048 H 208.412 2.47919 -1.68748 0
M  V30 2049 H 205.965 1.27061 -0.910226 0
M  V30 2050 H 206.7 3.14348 0.797218 0
M  V30 2051 H 206.485 3.8302 -0.838937 0
M  V30 2052 H 207.975 4.17505 0.0892469 0
M  V30 2053 N 208.412 0.89855 1.29475 0
M  V30 2054 C 209.659 0.523882 1.95606 0
M  V30 2055 C 209.987 -0.929608 1.70847 0
M  V30 2056 O 209.242 -1.67401 1.01367 0
M  V30 2057 C 209.541 0.761398 3.49195 0
M  V30 2058 C 209.207 2.19207 3.94029 0
M  V30 2059 C 207.869 2.58326 4.05982 0
M  V30 2060 C 210.221 3.12379 4.17216 0
M  V30 2061 C 207.549 3.898 4.38489 0
M  V30 2062 C 209.901 4.43401 4.51197 0
M  V30 2063 C 208.565 4.82394 4.61359 0
M  V30 2064 H 207.835 0.191702 0.715773 0
M  V30 2065 H 210.482 1.13699 1.54094 0
M  V30 2066 H 208.787 0.0653622 3.91745 0
M  V30 2067 H 210.484 0.450904 3.98457 0
M  V30 2068 H 207.074 1.87846 3.85242 0
M  V30 2069 H 211.258 2.83371 4.07449 0
M  V30 2070 H 206.514 4.19734 4.44559 0
M  V30 2071 H 210.688 5.15623 4.68087 0
M  V30 2072 H 208.315 5.84306 4.86303 0
M  V30 2073 N 209.89 -1.43072 0.660911 0
M  V30 2074 C 211.139 -2.00942 0.174735 0
M  V30 2075 C 211.452 -1.52797 -1.22117 0
M  V30 2076 O 212.658 -2.02991 -1.80297 0
M  V30 2077 C 211.114 -3.58948 0.261559 0
M  V30 2078 C 210.722 -4.16085 1.66064 0
M  V30 2079 C 212.466 -4.24173 -0.166617 0
M  V30 2080 C 210.373 -5.6641 1.70098 0
M  V30 2081 H 209.303 -0.751483 0.0615631 0
M  V30 2082 H 211.954 -1.63955 0.824069 0
M  V30 2083 H 210.336 -3.93372 -0.455421 0
M  V30 2084 H 211.51 -3.93147 2.40359 0
M  V30 2085 H 209.825 -3.6326 2.03546 0
M  V30 2086 H 212.422 -5.34471 -0.156433 0
M  V30 2087 H 212.765 -3.98647 -1.19943 0
M  V30 2088 H 213.298 -3.94659 0.498875 0
M  V30 2089 H 210.037 -5.96715 2.71315 0
M  V30 2090 H 209.557 -5.91382 1.00139 0
M  V30 2091 H 211.236 -6.30585 1.44816 0
M  V30 2092 N 211.368 -0.403325 -1.52352 0
M  V30 2093 C 212.615 0.174347 -2.01748 0
M  V30 2094 C 212.943 1.45636 -1.2892 0
M  V30 2095 O 212.198 1.9193 -0.382258 0
M  V30 2096 C 212.497 0.474665 -3.54234 0
M  V30 2097 C 212.163 -0.717458 -4.45155 0
M  V30 2098 C 210.825 -1.04447 -4.69728 0
M  V30 2099 C 213.177 -1.51432 -4.98716 0
M  V30 2100 C 210.505 -2.16963 -5.45109 0
M  V30 2101 C 212.857 -2.6302 -5.75329 0
M  V30 2102 C 211.521 -2.96213 -5.98175 0
M  V30 2103 H 210.791 0.0637981 -0.738248 0
M  V30 2104 H 213.438 -0.543553 -1.83624 0
M  V30 2105 H 211.743 1.27406 -3.70506 0
M  V30 2106 H 213.44 0.934496 -3.89959 0
M  V30 2107 H 210.03 -0.452596 -4.26204 0
M  V30 2108 H 214.214 -1.27491 -4.79645 0
M  V30 2109 H 209.47 -2.43034 -5.61021 0
M  V30 2110 H 213.644 -3.25158 -6.15829 0
M  V30 2111 H 211.271 -3.83516 -6.56368 0
M  V30 2112 N 212.846 1.57033 -0.133567 0
M  V30 2113 C 213.809 2.14897 0.796995 0
M  V30 2114 C 214.809 1.0874 1.18458 0
M  V30 2115 O 215.999 1.34446 1.1077 0
M  V30 2116 C 213.131 2.70112 2.07973 0
M  V30 2117 H 214.324 2.98457 0.293873 0
M  V30 2118 H 211.877 1.55871 0.115787 0
M  V30 2119 H 212.612 1.9018 2.62682 0
M  V30 2120 H 212.397 3.47764 1.81115 0
M  V30 2121 H 213.887 3.14738 2.74462 0
M  V30 2122 N 214.325 -0.140222 1.56975 0
M  V30 2123 C 215.572 -0.851687 1.83719 0
M  V30 2124 C 215.9 -1.80862 0.715485 0
M  V30 2125 O 215.155 -1.93464 -0.294956 0
M  V30 2126 C 215.454 -1.65386 3.16832 0
M  V30 2127 C 215.12 -0.843112 4.42947 0
M  V30 2128 C 213.782 -0.619464 4.77196 0
M  V30 2129 C 216.134 -0.276582 5.20466 0
M  V30 2130 C 213.462 0.181312 5.8642 0
M  V30 2131 C 215.814 0.51127 6.30531 0
M  V30 2132 C 214.478 0.745432 6.63325 0
M  V30 2133 H 213.748 -0.311654 0.672274 0
M  V30 2134 H 216.395 -0.115006 1.91154 0
M  V30 2135 H 214.7 -2.46084 3.04877 0
M  V30 2136 H 216.397 -2.20793 3.34741 0
M  V30 2137 H 212.987 -1.0275 4.16101 0
M  V30 2138 H 217.171 -0.436632 4.94376 0
M  V30 2139 H 212.427 0.372165 6.10266 0
M  V30 2140 H 216.601 0.957354 6.89788 0
M  V30 2141 H 214.228 1.36778 7.47794 0
M  V30 2142 N 215.803 -1.52179 -0.40978 0
M  V30 2143 C 217.05 -1.66206 -1.15679 0
M  V30 2144 C 217.378 -0.391674 -1.90516 0
M  V30 2145 O 216.633 0.62533 -1.8544 0
M  V30 2146 C 216.932 -2.83428 -2.17723 0
M  V30 2147 C 216.598 -4.21672 -1.59699 0
M  V30 2148 C 215.26 -4.59274 -1.43599 0
M  V30 2149 C 217.612 -5.07825 -1.17317 0
M  V30 2150 C 214.94 -5.80709 -0.836328 0
M  V30 2151 C 217.292 -6.29864 -0.587691 0
M  V30 2152 C 215.956 -6.66216 -0.413818 0
M  V30 2153 H 215.226 -0.608192 -0.423301 0
M  V30 2154 H 217.873 -1.86279 -0.444097 0
M  V30 2155 H 216.178 -2.57687 -2.95135 0
M  V30 2156 H 217.875 -2.91477 -2.75394 0
M  V30 2157 H 214.465 -3.9204 -1.73213 0
M  V30 2158 H 218.649 -4.79359 -1.28565 0
M  V30 2159 H 213.905 -6.07498 -0.689626 0
M  V30 2160 H 218.079 -6.95948 -0.250894 0
M  V30 2161 H 215.706 -7.60182 0.0529471 0
M  V30 2162 N 217.281 0.66697 -1.42791 0
M  V30 2163 C 218.244 1.76211 -1.46568 0
M  V30 2164 C 219.244 1.56896 -0.352196 0
M  V30 2165 O 220.434 1.63044 -0.613364 0
M  V30 2166 C 217.566 3.14935 -1.30494 0
M  V30 2167 H 218.759 1.74247 -2.44086 0
M  V30 2168 H 216.312 0.877342 -1.29354 0
M  V30 2169 H 217.047 3.2252 -0.339301 0
M  V30 2170 H 216.832 3.30359 -2.11199 0
M  V30 2171 H 218.322 3.94821 -1.36038 0
M  V30 2172 N 218.759 1.29093 0.90403 0
M  V30 2173 C 220.005 1.16986 1.65656 0
M  V30 2174 C 220.338 -0.278925 1.92186 0
M  V30 2175 O 219.613 -1.2019 1.5292 0
M  V30 2176 C 219.896 1.97908 3.0084 0
M  V30 2177 C 219.749 3.50903 2.81403 0
M  V30 2178 C 221.068 1.80208 4.01513 0
M  V30 2179 H 218.187 0.426346 0.601164 0
M  V30 2180 H 220.829 1.58518 1.04747 0
M  V30 2181 H 218.979 1.62616 3.52829 0
M  V30 2182 H 220.651 3.96153 2.36348 0
M  V30 2183 H 218.894 3.76045 2.1627 0
M  V30 2184 H 219.565 4.02791 3.77443 0
M  V30 2185 H 222.041 2.11025 3.58619 0
M  V30 2186 H 220.917 2.39184 4.94047 0
M  V30 2187 H 221.178 0.756119 4.35586 0
M  V30 2188 N 220.237 -1.11381 1.11499 0
M  V30 2189 C 221.147 -2.21019 0.786628 0
M  V30 2190 C 222.163 -1.72597 -0.220507 0
M  V30 2191 O 223.339 -2.01321 -0.0565251 0
M  V30 2192 C 220.404 -3.459 0.235333 0
M  V30 2193 C 219.465 -4.09107 1.30115 0
M  V30 2194 C 218.698 -5.28027 0.776068 0
M  V30 2195 O 218.921 -5.6904 -0.393661 0
M  V30 2196 O 217.855 -5.81835 1.54114 0
M  V30 2197 H 221.681 -2.51521 1.70209 0
M  V30 2198 H 219.266 -1.19928 0.890928 0
M  V30 2199 H 221.148 -4.21346 -0.067715 0
M  V30 2200 H 219.823 -3.17049 -0.652828 0
M  V30 2201 H 218.73 -3.35391 1.65722 0
M  V30 2202 H 220.063 -4.42139 2.16273 0
M  V30 2203 N 221.715 -0.905404 -1.28997 0
M  V30 2204 C 222.648 -0.331959 -2.25773 0
M  V30 2205 C 223.626 0.559099 -1.52685 0
M  V30 2206 O 224.81 0.50463 -1.8162 0
M  V30 2207 C 221.937 0.526276 -3.34586 0
M  V30 2208 C 220.983 -0.298249 -4.25456 0
M  V30 2209 S 221.816 -1.69968 -5.0781 0
M  V30 2210 C 222.972 -0.848519 -6.20122 0
M  V30 2211 H 223.205 -1.15222 -2.74064 0
M  V30 2212 H 220.738 -0.706112 -1.37308 0
M  V30 2213 H 222.696 1.01565 -3.97737 0
M  V30 2214 H 221.357 1.32084 -2.84978 0
M  V30 2215 H 220.55 0.357607 -5.0273 0
M  V30 2216 H 220.152 -0.720968 -3.66985 0
M  V30 2217 H 222.444 -0.0744325 -6.77459 0
M  V30 2218 H 223.387 -1.59353 -6.89937 0
M  V30 2219 H 223.795 -0.400383 -5.63078 0
M  V30 2220 N 223.193 1.4272 -0.668489 0
M  V30 2221 C 224.439 2.01923 -0.188419 0
M  V30 2222 C 224.772 1.52704 1.19979 0
M  V30 2223 O 224.047 0.726566 1.8042 0
M  V30 2224 C 224.33 3.59451 -0.216085 0
M  V30 2225 C 224.183 4.18864 -1.6393 0
M  V30 2226 C 225.502 4.37903 0.439179 0
M  V30 2227 H 222.621 0.733674 -0.0699412 0
M  V30 2228 H 225.263 1.69822 -0.852076 0
M  V30 2229 H 223.413 3.86929 0.349012 0
M  V30 2230 H 225.085 4.02362 -2.25616 0
M  V30 2231 H 223.328 3.74933 -2.18193 0
M  V30 2232 H 223.999 5.27987 -1.61039 0
M  V30 2233 H 226.475 4.16079 -0.0417878 0
M  V30 2234 H 225.351 5.47519 0.389157 0
M  V30 2235 H 225.612 4.15303 1.51577 0
M  V30 2236 N 224.671 0.411399 1.52136 0
M  V30 2237 C 225.92 -0.165009 2.01024 0
M  V30 2238 C 226.233 -1.4603 1.30133 0
M  V30 2239 O 227.439 -2.1181 1.69849 0
M  V30 2240 C 225.895 -0.344618 3.58246 0
M  V30 2241 C 225.503 0.938716 4.38055 0
M  V30 2242 C 227.247 -0.876195 4.15359 0
M  V30 2243 C 225.154 0.726172 5.86925 0
M  V30 2244 H 224.084 -0.0654407 0.751155 0
M  V30 2245 H 226.735 0.537192 1.75461 0
M  V30 2246 H 225.117 -1.10921 3.80148 0
M  V30 2247 H 226.291 1.70963 4.27912 0
M  V30 2248 H 224.606 1.39688 3.92271 0
M  V30 2249 H 227.203 -1.05128 5.24263 0
M  V30 2250 H 227.546 -1.85152 3.7286 0
M  V30 2251 H 228.079 -0.170607 3.97434 0
M  V30 2252 H 224.818 1.67312 6.33788 0
M  V30 2253 H 224.338 -0.00540283 5.998 0
M  V30 2254 H 226.017 0.369231 6.45946 0
M  V30 2255 N 226.149 -1.5696 0.141893 0
M  V30 2256 C 227.096 -2.16501 -0.799737 0
M  V30 2257 C 228.066 -1.09643 -1.24771 0
M  V30 2258 O 229.251 -1.3766 -1.32115 0
M  V30 2259 C 226.391 -2.78679 -2.03549 0
M  V30 2260 C 225.504 -3.99914 -1.6338 0
M  V30 2261 C 224.639 -4.50106 -2.82096 0
M  V30 2262 C 223.678 -5.63819 -2.38275 0
M  V30 2263 N 222.815 -6.08651 -3.49983 0
M  V30 2264 H 227.655 -2.96632 -0.285179 0
M  V30 2265 H 225.192 -1.46533 -0.129053 0
M  V30 2266 H 227.15 -3.1287 -2.75986 0
M  V30 2267 H 225.78 -2.012 -2.52425 0
M  V30 2268 H 224.832 -3.71735 -0.807279 0
M  V30 2269 H 226.144 -4.82311 -1.27192 0
M  V30 2270 H 225.298 -4.86325 -3.62729 0
M  V30 2271 H 224.037 -3.66706 -3.21525 0
M  V30 2272 H 223.042 -5.2718 -1.56081 0
M  V30 2273 H 224.267 -6.49 -1.99938 0
M  V30 2274 H 222.213 -5.28188 -3.89042 0
M  V30 2275 H 222.13 -6.85961 -3.17794 0
M  V30 2276 H 223.398 -6.49515 -4.30988 0
M  V30 2277 N 227.627 0.131896 -1.57047 0
M  V30 2278 C 228.56 1.19236 -1.94571 0
M  V30 2279 C 229.538 1.40782 -0.813576 0
M  V30 2280 O 230.722 1.55148 -1.07058 0
M  V30 2281 C 227.849 2.54858 -2.23081 0
M  V30 2282 C 226.895 2.49817 -3.45679 0
M  V30 2283 S 227.728 1.95036 -4.98719 0
M  V30 2284 C 228.884 3.32357 -5.30367 0
M  V30 2285 H 229.117 0.872297 -2.84215 0
M  V30 2286 H 226.65 0.338134 -1.50652 0
M  V30 2287 H 228.608 3.32898 -2.40185 0
M  V30 2288 H 227.269 2.84047 -1.34074 0
M  V30 2289 H 226.462 3.49688 -3.62952 0
M  V30 2290 H 226.064 1.79892 -3.27895 0
M  V30 2291 H 228.356 4.28525 -5.2476 0
M  V30 2292 H 229.299 3.19923 -6.31708 0
M  V30 2293 H 229.707 3.3019 -4.57859 0
M  V30 2294 N 229.106 1.52395 0.401703 0
M  V30 2295 C 230.352 1.67065 1.14966 0
M  V30 2296 C 230.685 0.403052 1.89971 0
M  V30 2297 O 229.96 -0.598774 1.85054 0
M  V30 2298 C 230.243 2.8975 2.13815 0
M  V30 2299 C 230.096 4.26578 1.42658 0
M  V30 2300 C 231.415 3.07965 3.14397 0
M  V30 2301 H 228.534 0.607968 0.416587 0
M  V30 2302 H 231.176 1.84965 0.434511 0
M  V30 2303 H 229.326 2.74619 2.74803 0
M  V30 2304 H 230.998 4.53451 0.847329 0
M  V30 2305 H 229.241 4.27639 0.72849 0
M  V30 2306 H 229.912 5.08483 2.14823 0
M  V30 2307 H 232.388 3.22043 2.63491 0
M  V30 2308 H 231.264 3.95308 3.80819 0
M  V30 2309 H 231.525 2.21611 3.82545 0
M  V30 2310 N 230.584 -0.659388 1.43143 0
M  V30 2311 C 231.547 -1.75432 1.47501 0
M  V30 2312 C 232.547 -1.56707 0.360512 0
M  V30 2313 O 233.737 -1.62717 0.622002 0
M  V30 2314 C 230.869 -3.14239 1.32162 0
M  V30 2315 H 232.062 -1.7295 2.45006 0
M  V30 2316 H 229.615 -0.870469 1.29817 0
M  V30 2317 H 230.35 -3.22336 0.356401 0
M  V30 2318 H 230.135 -3.29235 2.12948 0
M  V30 2319 H 231.625 -3.94094 1.3813 0
M  V30 2320 N 232.062 -1.29571 -0.897171 0
M  V30 2321 C 232.992 -1.17473 -2.01798 0
M  V30 2322 C 233.973 -0.068323 -1.69963 0
M  V30 2323 O 235.158 -0.248239 -1.92607 0
M  V30 2324 C 232.288 -0.853099 -3.36659 0
M  V30 2325 C 231.242 -1.9161 -3.82713 0
M  V30 2326 C 230.568 -1.44773 -5.14728 0
M  V30 2327 C 231.868 -3.32535 -4.02763 0
M  V30 2328 H 233.562 -2.11237 -2.12177 0
M  V30 2329 H 231.108 -1.01699 -1.01948 0
M  V30 2330 H 233.061 -0.755165 -4.14578 0
M  V30 2331 H 231.785 0.120236 -3.26379 0
M  V30 2332 H 230.444 -2.00346 -3.07013 0
M  V30 2333 H 230.092 -0.462995 -5.00865 0
M  V30 2334 H 229.792 -2.15865 -5.46513 0
M  V30 2335 H 231.316 -1.36334 -5.95185 0
M  V30 2336 H 232.73 -3.26626 -4.71156 0
M  V30 2337 H 231.127 -4.01607 -4.45905 0
M  V30 2338 H 232.197 -3.75326 -3.07016 0
M  V30 2339 N 233.54 1.10788 -1.12088 0
M  V30 2340 C 234.788 1.8231 -0.872205 0
M  V30 2341 C 235.109 1.85419 0.603709 0
M  V30 2342 O 234.379 1.32963 1.43867 0
M  V30 2343 H 232.959 0.675137 -0.319686 0
M  V30 2344 H 235.621 1.34068 -1.41463 0
M  V30 2345 H 234.717 2.85955 -1.25045 0
M  V30 2346 N 235.018 0.912232 1.28515 0
M  V30 2347 C 235.948 0.416403 2.29757 0
M  V30 2348 C 236.929 -0.515194 1.6211 0
M  V30 2349 O 238.114 -0.423253 1.89532 0
M  V30 2350 C 235.244 -0.34572 3.45575 0
M  V30 2351 C 234.198 0.496599 4.25109 0
M  V30 2352 C 233.524 -0.393771 5.33248 0
M  V30 2353 C 234.824 1.75307 4.92001 0
M  V30 2354 H 236.518 1.26249 2.7148 0
M  V30 2355 H 234.064 0.608515 1.30511 0
M  V30 2356 H 236.017 -0.703422 4.15488 0
M  V30 2357 H 234.741 -1.2257 3.02728 0
M  V30 2358 H 233.4 0.8368 3.56922 0
M  V30 2359 H 233.048 -1.27225 4.86644 0
M  V30 2360 H 232.748 0.166209 5.87365 0
M  V30 2361 H 234.272 -0.747389 6.06009 0
M  V30 2362 H 235.686 1.46437 5.54283 0
M  V30 2363 H 234.083 2.25534 5.56106 0
M  V30 2364 H 235.153 2.48176 4.16577 0
M  V30 2365 N 236.496 -1.42363 0.676048 0
M  V30 2366 C 237.743 -2.01522 0.19883 0
M  V30 2367 C 238.071 -1.53456 -1.19505 0
M  V30 2368 O 237.326 -0.727967 -1.81657 0
M  V30 2369 C 237.625 -3.56929 0.183431 0
M  V30 2370 C 237.291 -4.24431 1.52215 0
M  V30 2371 C 235.953 -4.42585 1.8887 0
M  V30 2372 C 238.305 -4.62459 2.40377 0
M  V30 2373 C 235.633 -4.96039 3.13309 0
M  V30 2374 C 237.985 -5.17294 3.64129 0
M  V30 2375 C 236.649 -5.33661 4.00951 0
M  V30 2376 H 235.919 -0.737419 0.0727571 0
M  V30 2377 H 238.566 -1.70531 0.871281 0
M  V30 2378 H 236.871 -3.87594 -0.572532 0
M  V30 2379 H 238.568 -4.00486 -0.203035 0
M  V30 2380 H 235.158 -4.10661 1.22701 0
M  V30 2381 H 239.342 -4.48105 2.13343 0
M  V30 2382 H 234.598 -5.06896 3.41857 0
M  V30 2383 H 238.772 -5.45704 4.32644 0
M  V30 2384 H 236.399 -5.74845 4.9745 0
M  V30 2385 N 237.974 -0.419461 -1.51915 0
M  V30 2386 C 239.222 0.152637 -2.01523 0
M  V30 2387 C 239.543 1.44762 -1.30649 0
M  V30 2388 O 238.813 1.90997 -0.435535 0
M  V30 2389 H 237.393 0.0593966 -0.744635 0
M  V30 2390 H 240.055 -0.558073 -1.86739 0
M  V30 2391 H 239.151 0.341369 -3.10227 0
M  V30 2392 N 239.452 1.56882 -0.150215 0
M  V30 2393 C 240.384 2.14057 0.819286 0
M  V30 2394 C 241.397 1.09082 1.20851 0
M  V30 2395 O 242.586 1.36347 1.15203 0
M  V30 2396 C 239.686 2.65102 2.11127 0
M  V30 2397 C 238.859 3.94511 1.88891 0
M  V30 2398 C 237.918 4.30834 3.02107 0
M  V30 2399 O 236.944 4.99099 2.73659 0
M  V30 2400 N 238.146 3.90676 4.29363 0
M  V30 2401 H 240.911 2.97871 0.330618 0
M  V30 2402 H 238.472 1.61866 0.0332538 0
M  V30 2403 H 240.464 2.86411 2.85921 0
M  V30 2404 H 239.034 1.85994 2.51247 0
M  V30 2405 H 238.254 3.81795 0.981152 0
M  V30 2406 H 239.542 4.7907 1.71376 0
M  V30 2407 H 238.94 3.35677 4.55343 0
M  V30 2408 H 237.497 4.1703 5.00928 0
M  V30 2409 N 240.93 -0.123565 1.57115 0
M  V30 2410 C 241.877 -1.15177 2.00007 0
M  V30 2411 C 242.847 -1.41403 0.871454 0
M  V30 2412 O 244.032 -1.53346 1.13533 0
M  V30 2413 C 241.172 -2.47436 2.40561 0
M  V30 2414 C 240.285 -2.28184 3.66819 0
M  V30 2415 C 239.42 -3.53641 3.96373 0
M  V30 2416 C 238.459 -3.29528 5.15827 0
M  V30 2417 N 237.596 -4.47175 5.41275 0
M  V30 2418 H 242.436 -0.779008 2.87638 0
M  V30 2419 H 239.973 -0.373166 1.42288 0
M  V30 2420 H 241.931 -3.24584 2.62109 0
M  V30 2421 H 240.561 -2.82614 1.55978 0
M  V30 2422 H 239.613 -1.41976 3.52912 0
M  V30 2423 H 240.925 -2.0634 4.5412 0
M  V30 2424 H 240.079 -4.39209 4.18545 0
M  V30 2425 H 238.818 -3.78512 3.07538 0
M  V30 2426 H 237.823 -2.42349 4.93505 0
M  V30 2427 H 239.048 -3.06031 6.06236 0
M  V30 2428 H 236.994 -4.72175 4.55397 0
M  V30 2429 H 236.911 -4.28419 6.22891 0
M  V30 2430 H 238.179 -5.3389 5.67963 0
M  V30 2431 N 242.408 -1.52605 -0.393616 0
M  V30 2432 C 243.648 -1.6911 -1.1481 0
M  V30 2433 C 244.012 -0.41969 -1.87357 0
M  V30 2434 O 245.213 -0.461034 -2.64817 0
M  V30 2435 C 243.484 -2.88909 -2.10395 0
M  V30 2436 S 245.043 -3.25977 -2.93742 0
M  V30 2437 H 241.861 -0.595337 -0.38871 0
M  V30 2438 H 244.463 -1.90641 -0.433178 0
M  V30 2439 H 243.167 -3.79672 -1.55812 0
M  V30 2440 H 242.698 -2.69698 -2.86403 0
M  V30 2441 H 244.713 -2.75806 -4.12487 0
M  V30 2442 N 243.887 0.651787 -1.4349 0
M  V30 2443 C 245.117 1.43728 -1.48411 0
M  V30 2444 C 245.525 1.8893 -0.10103 0
M  V30 2445 O 244.868 1.60182 0.899307 0
M  V30 2446 C 244.93 2.70411 -2.36893 0
M  V30 2447 C 244.594 2.4714 -3.8441 0
M  V30 2448 C 245.591 2.10271 -4.75481 0
M  V30 2449 C 243.276 2.6142 -4.28912 0
M  V30 2450 C 245.27 1.87982 -6.0905 0
M  V30 2451 C 242.957 2.38746 -5.62533 0
M  V30 2452 C 243.955 2.02083 -6.5242 0
M  V30 2453 O 243.643 1.79647 -7.8357 0
M  V30 2454 H 243.375 0.447962 -0.506267 0
M  V30 2455 H 245.929 0.80624 -1.88915 0
M  V30 2456 H 244.159 3.36079 -1.91278 0
M  V30 2457 H 245.848 3.32364 -2.33 0
M  V30 2458 H 246.614 1.98814 -4.42378 0
M  V30 2459 H 242.493 2.88931 -3.59222 0
M  V30 2460 H 246.037 1.5929 -6.7917 0
M  V30 2461 H 241.934 2.49806 -5.95203 0
M  V30 2462 H 242.702 1.9406 -7.95162 0
M  V30 2463 N 245.365 1.30045 0.890287 0
M  V30 2464 C 246.295 1.18541 2.01172 0
M  V30 2465 C 247.276 0.0773356 1.69924 0
M  V30 2466 O 248.461 0.25845 1.92473 0
M  V30 2467 C 245.591 0.870941 3.36202 0
M  V30 2468 C 244.545 1.93637 3.81692 0
M  V30 2469 C 243.871 1.475 5.13953 0
M  V30 2470 C 245.171 3.34666 4.00994 0
M  V30 2471 H 246.865 2.12359 2.11054 0
M  V30 2472 H 244.411 1.02238 1.01407 0
M  V30 2473 H 246.364 0.777141 4.14172 0
M  V30 2474 H 245.088 -0.102926 3.26438 0
M  V30 2475 H 243.747 2.01972 3.05946 0
M  V30 2476 H 243.395 0.489551 5.00612 0
M  V30 2477 H 243.095 2.1876 5.4536 0
M  V30 2478 H 244.619 1.39489 5.94454 0
M  V30 2479 H 246.033 3.2912 4.69417 0
M  V30 2480 H 244.43 4.03966 4.43769 0
M  V30 2481 H 245.5 3.76949 3.05021 0
M  V30 2482 N 246.843 -1.10192 1.12674 0
M  V30 2483 C 248.091 -1.81845 0.881861 0
M  V30 2484 C 248.412 -1.85737 -0.593867 0
M  V30 2485 O 247.682 -1.33724 -1.4316 0
M  V30 2486 H 246.262 -0.673432 0.323261 0
M  V30 2487 H 248.924 -1.33316 1.42172 0
M  V30 2488 H 248.02 -2.85288 1.2656 0
M  V30 2489 N 248.321 -0.919034 -1.28029 0
M  V30 2490 C 249.598 -0.473668 -1.89778 0
M  V30 2491 C 249.978 1.04783 -1.83259 0
M  V30 2492 O 249.326 1.8982 -1.27202 0
M  V30 2493 C 249.536 -1.00998 -3.34066 0
M  V30 2494 C 250.884 -1.06525 -4.1102 0
M  V30 2495 O 251.908 -0.958996 -3.43048 0
M  V30 2496 O 250.767 -1.22776 -5.3253 0
M  V30 2497 H 247.861 -0.15098 -0.813101 0
M  V30 2498 H 250.407 -1.01016 -1.36359 0
M  V30 2499 H 249.179 -2.05392 -3.33061 0
M  V30 2500 H 248.802 -0.454626 -3.94992 0
M  V30 2501 N 249.799 1.42003 -0.683588 0
M  V30 2502 C 251.027 2.05746 -0.218182 0
M  V30 2503 C 251.442 1.51396 1.12804 0
M  V30 2504 O 250.799 0.657303 1.70252 0
M  V30 2505 C 250.85 3.61171 -0.154131 0
M  V30 2506 O 250.571 4.13508 -1.44716 0
M  V30 2507 C 252.072 4.42042 0.333713 0
M  V30 2508 H 249.292 0.662888 -0.10402 0
M  V30 2509 H 251.836 1.81987 -0.9328 0
M  V30 2510 H 249.991 3.84012 0.511231 0
M  V30 2511 H 250.405 5.07453 -1.32632 0
M  V30 2512 H 251.879 5.51028 0.327423 0
M  V30 2513 H 252.356 4.17269 1.37053 0
M  V30 2514 H 252.962 4.24239 -0.300222 0
M  V30 2515 N 251.277 0.427512 1.51691 0
M  V30 2516 C 252.523 -0.134744 2.02953 0
M  V30 2517 C 252.878 -1.41235 1.30654 0
M  V30 2518 O 252.171 -1.87168 0.409713 0
M  V30 2519 C 252.365 -0.418249 3.54944 0
M  V30 2520 C 252.194 0.830327 4.41968 0
M  V30 2521 C 250.964 1.36097 4.86627 0
M  V30 2522 C 253.162 1.7137 4.84909 0
M  V30 2523 N 251.144 2.56311 5.57833 0
M  V30 2524 C 252.515 2.76195 5.55082 0
M  V30 2525 C 254.57 1.72928 4.66905 0
M  V30 2526 C 253.273 3.82512 6.09161 0
M  V30 2527 C 255.299 2.78175 5.21894 0
M  V30 2528 C 254.661 3.8172 5.92004 0
M  V30 2529 H 250.76 -0.0103958 0.781931 0
M  V30 2530 H 253.344 0.585981 1.85673 0
M  V30 2531 H 251.515 -1.10801 3.7226 0
M  V30 2532 H 253.247 -0.970999 3.92879 0
M  V30 2533 H 250.002 0.916311 4.64651 0
M  V30 2534 H 250.426 3.17242 5.98069 0
M  V30 2535 H 255.068 0.942081 4.12171 0
M  V30 2536 H 252.786 4.62077 6.62956 0
M  V30 2537 H 256.372 2.8031 5.09821 0
M  V30 2538 H 255.252 4.61821 6.33791 0
M  V30 2539 N 252.755 -1.56801 0.158532 0
M  V30 2540 C 253.703 -2.18638 -0.793729 0
M  V30 2541 C 254.697 -1.14669 -1.24689 0
M  V30 2542 O 255.903 -1.32895 -1.21403 0
M  V30 2543 H 252.278 -0.700226 -0.274204 0
M  V30 2544 H 254.249 -2.97367 -0.248095 0
M  V30 2545 C 252.998 -2.83139 -2.0181 0
M  V30 2546 H 252.321 -3.62863 -1.67841 0
M  V30 2547 H 253.761 -3.29894 -2.66357 0
M  V30 2548 C 252.22 -1.82244 -2.83353 0
M  V30 2549 O 252.75 -1.3 -3.80083 0
M  V30 2550 N 250.956 -1.51288 -2.48114 0
M  V30 2551 H 250.503 -1.93964 -1.69516 0
M  V30 2552 H 250.461 -0.840296 -3.02963 0
M  V30 2553 N 254.233 0.115231 -1.57178 0
M  V30 2554 C 255.649 0.468877 -1.52557 0
M  V30 2555 C 255.849 1.81649 -0.872125 0
M  V30 2556 O 254.905 2.48347 -0.45606 0
M  V30 2557 C 256.218 0.4499 -2.97315 0
M  V30 2558 C 257.766 0.533185 -3.08425 0
M  V30 2559 C 258.241 0.54456 -4.54751 0
M  V30 2560 N 259.732 0.605892 -4.5922 0
M  V30 2561 C 260.467 0.636203 -5.6986 0
M  V30 2562 N 259.963 0.623931 -6.89985 0
M  V30 2563 N 261.756 0.679496 -5.57978 0
M  V30 2564 H 253.907 -0.767712 -1.9804 0
M  V30 2565 H 256.17 -0.283609 -0.904583 0
M  V30 2566 H 255.876 -0.472721 -3.48509 0
M  V30 2567 H 255.75 1.27632 -3.5495 0
M  V30 2568 H 258.137 1.44623 -2.57232 0
M  V30 2569 H 258.218 -0.320995 -2.53778 0
M  V30 2570 H 257.862 -0.364452 -5.06591 0
M  V30 2571 H 257.792 1.41568 -5.07214 0
M  V30 2572 H 260.283 0.621386 -3.72756 0
M  V30 2573 H 260.596 0.649787 -7.70063 0
M  V30 2574 H 258.941 0.591296 -6.9248 0
M  V30 2575 H 262.132 0.686472 -4.63039 0
M  V30 2576 H 262.305 0.69965 -6.44212 0
M  V30 2577 N 255.711 1.52812 0.385517 0
M  V30 2578 C 256.641 1.80808 1.47752 0
M  V30 2579 C 257.622 0.660318 1.5676 0
M  V30 2580 O 258.807 0.908246 1.71652 0
M  V30 2581 C 255.937 1.98008 2.85324 0
M  V30 2582 C 254.891 3.13709 2.91154 0
M  V30 2583 C 254.217 3.16169 4.31209 0
M  V30 2584 C 255.517 4.52709 2.60483 0
M  V30 2585 H 257.211 2.72253 1.24573 0
M  V30 2586 H 254.757 1.31003 0.597839 0
M  V30 2587 H 256.71 2.16176 3.61726 0
M  V30 2588 H 255.434 1.03255 3.09848 0
M  V30 2589 H 254.093 2.95329 2.17201 0
M  V30 2590 H 253.741 2.19092 4.52778 0
M  V30 2591 H 253.441 3.93894 4.36029 0
M  V30 2592 H 254.965 3.36496 5.09512 0
M  V30 2593 H 256.379 4.71173 3.26602 0
M  V30 2594 H 254.776 5.32528 2.76648 0
M  V30 2595 H 255.846 4.59186 1.55809 0
M  V30 2596 N 257.189 -0.644168 1.43834 0
M  V30 2597 C 258.466 -1.40188 1.36406 0
M  V30 2598 C 258.846 -2.11094 0.0163124 0
M  V30 2599 O 258.194 -2.05426 -1.00062 0
M  V30 2600 C 258.404 -2.3791 2.55343 0
M  V30 2601 C 259.752 -3.01637 2.98832 0
M  V30 2602 O 260.776 -2.48237 2.55455 0
M  V30 2603 O 259.635 -3.98477 3.74003 0
M  V30 2604 H 256.729 -0.626773 0.539523 0
M  V30 2605 H 259.275 -0.670317 1.559 0
M  V30 2606 H 258.047 -1.84525 3.4506 0
M  V30 2607 H 257.67 -3.18503 2.37995 0
M  V30 2608 N 258.668 -1.30515 -0.883378 0
M  V30 2609 C 259.915 -1.1943 -1.63532 0
M  V30 2610 C 260.243 0.250627 -1.92878 0
M  V30 2611 O 259.498 1.19556 -1.54935 0
M  V30 2612 C 259.797 -1.96994 -2.98209 0
M  V30 2613 C 259.463 -3.466 -2.88408 0
M  V30 2614 C 258.125 -3.87397 -2.85442 0
M  V30 2615 C 260.477 -4.41863 -2.76418 0
M  V30 2616 C 257.805 -5.21745 -2.68327 0
M  V30 2617 C 260.157 -5.7632 -2.60841 0
M  V30 2618 C 258.821 -6.16354 -2.56251 0
M  V30 2619 H 258.091 -0.437025 -0.598406 0
M  V30 2620 H 260.738 -1.61635 -1.02696 0
M  V30 2621 H 259.043 -1.47429 -3.63004 0
M  V30 2622 H 260.74 -1.85808 -3.55354 0
M  V30 2623 H 257.33 -3.14182 -2.91527 0
M  V30 2624 H 261.514 -4.11285 -2.77775 0
M  V30 2625 H 256.77 -5.51853 -2.63189 0
M  V30 2626 H 260.944 -6.49772 -2.50538 0
M  V30 2627 H 258.571 -7.20401 -2.42748 0
M  V30 2628 N 260.146 1.09593 -1.13257 0
M  V30 2629 C 261.393 1.81734 -0.893257 0
M  V30 2630 C 261.721 1.8563 0.580656 0
M  V30 2631 O 260.976 1.31906 1.44566 0
M  V30 2632 C 261.275 3.27802 -1.42411 0
M  V30 2633 C 260.941 3.44041 -2.91456 0
M  V30 2634 C 259.603 3.48181 -3.3215 0
M  V30 2635 C 261.955 3.48719 -3.87356 0
M  V30 2636 C 259.283 3.54575 -4.67433 0
M  V30 2637 C 261.635 3.56648 -5.2248 0
M  V30 2638 C 260.299 3.59055 -5.62704 0
M  V30 2639 H 259.569 0.665011 -0.326866 0
M  V30 2640 H 262.216 1.2912 -1.41422 0
M  V30 2641 H 260.521 3.83042 -0.823795 0
M  V30 2642 H 262.218 3.82149 -1.21503 0
M  V30 2643 H 258.808 3.41502 -2.58987 0
M  V30 2644 H 262.992 3.44763 -3.57004 0
M  V30 2645 H 258.248 3.54725 -4.97976 0
M  V30 2646 H 262.422 3.59212 -5.96607 0
M  V30 2647 H 260.049 3.63763 -6.67518 0
M  V30 2648 N 261.624 0.925811 1.2754 0
M  V30 2649 C 262.873 0.561084 1.93739 0
M  V30 2650 C 263.186 -0.901685 1.73577 0
M  V30 2651 O 264.392 -1.37511 2.34101 0
M  V30 2652 C 262.848 0.952668 3.47062 0
M  V30 2653 C 262.456 2.43599 3.75983 0
M  V30 2654 C 264.2 0.659103 4.19352 0
M  V30 2655 C 262.107 2.76707 5.22673 0
M  V30 2656 H 261.037 0.206122 0.725279 0
M  V30 2657 H 263.688 1.12637 1.44863 0
M  V30 2658 H 262.07 0.316053 3.94737 0
M  V30 2659 H 263.244 3.12035 3.39073 0
M  V30 2660 H 261.559 2.70125 3.16893 0
M  V30 2661 H 264.156 0.882985 5.27359 0
M  V30 2662 H 264.499 -0.403607 4.14339 0
M  V30 2663 H 265.032 1.25473 3.77494 0
M  V30 2664 H 261.771 3.8188 5.32774 0
M  V30 2665 H 261.291 2.12919 5.60737 0
M  V30 2666 H 262.97 2.6435 5.90532 0
M  V30 2667 N 263.102 -1.41638 0.69111 0
M  V30 2668 C 264.348 -2.01598 0.220519 0
M  V30 2669 C 264.681 -1.54594 -1.17535 0
M  V30 2670 O 263.956 -0.755177 -1.79241 0
M  V30 2671 C 264.239 -3.59062 0.273243 0
M  V30 2672 C 264.092 -4.16203 1.70573 0
M  V30 2673 C 265.411 -4.38546 -0.369457 0
M  V30 2674 H 262.53 -0.732468 0.0816045 0
M  V30 2675 H 265.172 -1.68445 0.878986 0
M  V30 2676 H 263.322 -3.87435 -0.287411 0
M  V30 2677 H 264.994 -3.98722 2.31989 0
M  V30 2678 H 263.237 -3.71414 2.2413 0
M  V30 2679 H 263.908 -5.25358 1.69419 0
M  V30 2680 H 266.384 -4.1596 0.107977 0
M  V30 2681 H 265.26 -5.48069 -0.302002 0
M  V30 2682 H 265.521 -4.17662 -1.44951 0
M  V30 2683 N 264.58 -0.43555 -1.51462 0
M  V30 2684 C 265.826 0.131709 -2.02372 0
M  V30 2685 C 266.159 1.42516 -1.3192 0
M  V30 2686 O 265.434 1.89606 -0.433573 0
M  V30 2687 C 265.717 0.352301 -3.58373 0
M  V30 2688 C 265.57 -0.959676 -4.39443 0
M  V30 2689 C 266.889 1.12286 -4.25535 0
M  V30 2690 H 264.008 0.0463936 -0.735538 0
M  V30 2691 H 266.65 -0.574197 -1.81116 0
M  V30 2692 H 264.8 0.9536 -3.76615 0
M  V30 2693 H 266.472 -1.59482 -4.32855 0
M  V30 2694 H 264.715 -1.56468 -4.04599 0
M  V30 2695 H 265.386 -0.759394 -5.46752 0
M  V30 2696 H 267.862 0.613545 -4.11552 0
M  V30 2697 H 266.738 1.24598 -5.34571 0
M  V30 2698 H 266.999 2.15048 -3.86273 0
M  V30 2699 N 266.058 1.56714 -0.166846 0
M  V30 2700 C 267.021 2.16539 0.751232 0
M  V30 2701 C 268.021 1.11228 1.16125 0
M  V30 2702 O 269.211 1.36765 1.07894 0
M  V30 2703 C 266.343 2.74462 2.02196 0
M  V30 2704 H 267.536 2.99013 0.230499 0
M  V30 2705 H 265.089 1.56081 0.0826982 0
M  V30 2706 H 265.824 1.95709 2.58589 0
M  V30 2707 H 265.609 3.51527 1.73698 0
M  V30 2708 H 267.099 3.20489 2.67725 0
M  V30 2709 N 267.536 -0.106894 1.57237 0
M  V30 2710 C 268.784 -0.810921 1.85117 0
M  V30 2711 C 269.105 -1.7984 0.753827 0
M  V30 2712 O 268.375 -1.94649 -0.221056 0
M  V30 2713 H 266.955 -0.302466 0.683025 0
M  V30 2714 H 269.617 -0.0913324 1.94686 0
M  V30 2715 H 268.713 -1.34875 2.81452 0
M  V30 2716 N 269.014 -1.53014 -0.377408 0
M  V30 2717 C 269.947 -1.73382 -1.48371 0
M  V30 2718 C 270.925 -0.581879 -1.51832 0
M  V30 2719 O 272.109 -0.81307 -1.70063 0
M  V30 2720 C 269.236 -1.80192 -2.8679 0
M  V30 2721 C 268.282 -3.02056 -3.01105 0
M  V30 2722 S 269.115 -4.61811 -2.71093 0
M  V30 2723 C 270.271 -4.71453 -4.11683 0
M  V30 2724 H 270.504 -2.66946 -1.30872 0
M  V30 2725 H 268.037 -1.43453 -0.571012 0
M  V30 2726 H 269.995 -1.84802 -3.6655 0
M  V30 2727 H 268.656 -0.877008 -3.01608 0
M  V30 2728 H 267.849 -3.03396 -4.02451 0
M  V30 2729 H 267.451 -2.95498 -2.29253 0
M  V30 2730 H 269.743 -4.50781 -5.0577 0
M  V30 2731 H 270.686 -5.73487 -4.15353 0
M  V30 2732 H 271.094 -4.00189 -3.98132 0
M  V30 2733 N 270.492 0.636531 -1.44174 0
M  V30 2734 C 271.425 1.76139 -1.45087 0
M  V30 2735 C 272.403 1.59611 -0.310326 0
M  V30 2736 O 273.587 1.81568 -0.506477 0
M  V30 2737 C 270.714 3.13648 -1.27839 0
M  V30 2738 C 269.76 3.48838 -2.45386 0
M  V30 2739 S 270.593 3.46927 -4.07924 0
M  V30 2740 C 271.749 4.87064 -3.9309 0
M  V30 2741 H 271.982 1.75096 -2.40268 0
M  V30 2742 H 269.515 0.810666 -1.31406 0
M  V30 2743 H 271.473 3.93002 -1.18575 0
M  V30 2744 H 270.134 3.12235 -0.341787 0
M  V30 2745 H 269.327 4.48886 -2.29167 0
M  V30 2746 H 268.929 2.76935 -2.51362 0
M  V30 2747 H 271.221 5.76153 -3.56446 0
M  V30 2748 H 272.164 5.08337 -4.92949 0
M  V30 2749 H 272.572 4.61384 -3.25246 0
M  V30 2750 N 271.97 1.30982 0.876444 0
M  V30 2751 C 272.88 1.2003 2.01569 0
M  V30 2752 C 273.896 0.11838 1.73597 0
M  V30 2753 O 275.072 0.33495 1.98595 0
M  V30 2754 C 272.137 0.901637 3.34771 0
M  V30 2755 C 271.198 2.06979 3.76109 0
M  V30 2756 C 270.431 1.78529 5.02954 0
M  V30 2757 O 270.654 0.717296 5.65872 0
M  V30 2758 O 269.588 2.64019 5.40905 0
M  V30 2759 H 273.414 2.15753 2.13739 0
M  V30 2760 H 270.999 1.10658 1.00375 0
M  V30 2761 H 272.881 0.750645 4.1466 0
M  V30 2762 H 271.556 -0.0256141 3.2369 0
M  V30 2763 H 270.463 2.27616 2.96887 0
M  V30 2764 H 271.796 2.97907 3.91807 0
M  V30 2765 N 273.449 -1.08991 1.13837 0
M  V30 2766 C 274.679 -1.84743 0.924859 0
M  V30 2767 C 275.087 -1.81629 -0.529874 0
M  V30 2768 O 274.43 -1.21397 -1.37872 0
M  V30 2769 C 274.492 -3.33568 1.34061 0
M  V30 2770 C 274.156 -3.60425 2.80968 0
M  V30 2771 C 275.153 -3.55771 3.79108 0
M  V30 2772 C 272.838 -3.88627 3.18236 0
M  V30 2773 C 274.832 -3.78939 5.12527 0
M  V30 2774 C 272.519 -4.11449 4.51833 0
M  V30 2775 C 273.517 -4.06598 5.48787 0
M  V30 2776 O 273.205 -4.28826 6.79973 0
M  V30 2777 H 272.937 -0.590258 0.329502 0
M  V30 2778 H 275.491 -1.38598 1.51591 0
M  V30 2779 H 273.721 -3.80442 0.692853 0
M  V30 2780 H 275.41 -3.90743 1.09886 0
M  V30 2781 H 276.176 -3.34005 3.51661 0
M  V30 2782 H 272.055 -3.91526 2.43369 0
M  V30 2783 H 275.599 -3.75068 5.88192 0
M  V30 2784 H 271.496 -4.32698 4.79002 0
M  V30 2785 H 272.264 -4.46264 6.86142 0
M  V30 2786 N 274.927 -0.932562 -1.27047 0
M  V30 2787 C 276.152 -0.591474 -1.98787 0
M  V30 2788 C 276.577 0.824601 -1.69062 0
M  V30 2789 O 275.935 1.5541 -0.933677 0
M  V30 2790 C 275.983 -0.829808 -3.50922 0
M  V30 2791 O 275.087 0.102266 -4.12273 0
M  V30 2792 H 274.428 -0.227185 -0.623926 0
M  V30 2793 H 276.958 -1.25314 -1.61733 0
M  V30 2794 H 276.968 -0.747292 -4.01098 0
M  V30 2795 H 275.643 -1.86201 -3.7189 0
M  V30 2796 H 274.22 -0.0305761 -3.72887 0
M  V30 2797 N 276.405 1.4127 -0.698611 0
M  V30 2798 C 277.335 2.33447 -0.049629 0
M  V30 2799 C 278.316 1.51982 0.763898 0
M  V30 2800 O 279.501 1.80509 0.716257 0
M  V30 2801 C 276.631 3.35828 0.885267 0
M  V30 2802 C 275.585 4.27627 0.178613 0
M  V30 2803 C 274.911 5.20406 1.22807 0
M  V30 2804 C 276.211 5.13459 -0.956933 0
M  V30 2805 H 277.905 2.87966 -0.81951 0
M  V30 2806 H 275.451 1.38461 -0.395538 0
M  V30 2807 H 277.404 3.9924 1.34854 0
M  V30 2808 H 276.128 2.79666 1.68685 0
M  V30 2809 H 274.787 3.65643 -0.26466 0
M  V30 2810 H 274.435 4.60558 2.02226 0
M  V30 2811 H 274.135 5.82661 0.760239 0
M  V30 2812 H 275.659 5.86695 1.69179 0
M  V30 2813 H 277.073 5.70421 -0.573805 0
M  V30 2814 H 275.47 5.8467 -1.35205 0
M  V30 2815 H 276.54 4.50443 -1.79524 0
M  V30 2816 N 277.883 0.443576 1.51229 0
M  V30 2817 C 279.16 -0.181038 1.9476 0
M  V30 2818 C 279.54 -1.59523 1.38259 0
M  V30 2819 O 278.888 -2.2122 0.572198 0
M  V30 2820 C 279.098 -0.152422 3.48667 0
M  V30 2821 C 280.446 -0.354923 4.23114 0
M  V30 2822 O 281.47 -0.230257 3.55455 0
M  V30 2823 O 280.329 -0.603674 5.43156 0
M  V30 2824 H 277.423 -0.1266 0.817252 0
M  V30 2825 H 279.969 0.502004 1.62105 0
M  V30 2826 H 278.741 0.836022 3.82265 0
M  V30 2827 H 278.364 -0.878107 3.87782 0
M  V30 2828 N 279.361 -1.56624 0.175154 0
M  V30 2829 C 280.609 -1.96609 -0.467885 0
M  V30 2830 C 280.93 -1.06238 -1.63519 0
M  V30 2831 O 280.2 -0.129523 -1.95471 0
M  V30 2832 H 278.78 -0.726008 -0.175845 0
M  V30 2833 H 281.442 -1.93195 0.257234 0
M  V30 2834 H 280.538 -3.00989 -0.825342 0
M  V30 2835 N 280.839 0.0985539 -1.57292 0
M  V30 2836 C 281.789 1.1261 -1.9825 0
M  V30 2837 C 282.773 1.35961 -0.860426 0
M  V30 2838 O 283.965 1.36711 -1.12424 0
M  V30 2839 C 281.094 2.44727 -2.40757 0
M  V30 2840 C 280.18 2.24764 -3.59642 0
M  V30 2841 N 280.571 1.74661 -4.74687 0
M  V30 2842 C 278.869 2.55344 -3.65672 0
M  V30 2843 C 279.57 1.68887 -5.56644 0
M  V30 2844 N 278.546 2.13976 -4.99715 0
M  V30 2845 H 282.348 0.731604 -2.84648 0
M  V30 2846 H 279.862 0.306029 -1.59491 0
M  V30 2847 H 281.859 3.19072 -2.68326 0
M  V30 2848 H 280.519 2.84917 -1.55733 0
M  V30 2849 H 281.53 1.43908 -4.97505 0
M  V30 2850 H 278.207 2.99081 -2.91302 0
M  V30 2851 H 279.597 1.3123 -6.5896 0
M  V30 2852 N 282.317 1.53212 0.369288 0
M  V30 2853 C 283.265 1.80054 1.47253 0
M  V30 2854 C 284.259 0.669456 1.55611 0
M  V30 2855 O 285.465 0.852328 1.58541 0
M  V30 2856 H 281.84 0.570034 0.490475 0
M  V30 2857 H 283.811 2.72403 1.21817 0
M  V30 2858 C 282.56 2.00403 2.84137 0
M  V30 2859 H 281.883 2.86876 2.78464 0
M  V30 2860 H 283.323 2.23164 3.60519 0
M  V30 2861 C 281.782 0.782081 3.27697 0
M  V30 2862 O 282.312 -0.0310205 4.01688 0
M  V30 2863 N 280.518 0.606573 2.84199 0
M  V30 2864 H 280.065 1.26939 2.24152 0
M  V30 2865 H 280.023 -0.20962 3.137 0
M  V30 2866 N 283.795 -0.628877 1.44509 0
M  V30 2867 C 285.041 -1.39045 1.47629 0
M  V30 2868 C 285.374 -1.93892 0.109343 0
M  V30 2869 O 284.649 -1.7379 -0.87334 0
M  V30 2870 C 284.932 -2.55408 2.53848 0
M  V30 2871 C 284.785 -2.05896 3.99909 0
M  V30 2872 C 286.104 -3.5759 2.56549 0
M  V30 2873 H 283.223 -0.504232 0.537512 0
M  V30 2874 H 285.865 -0.710854 1.76201 0
M  V30 2875 H 284.015 -3.13384 2.29615 0
M  V30 2876 H 285.687 -1.52734 4.35282 0
M  V30 2877 H 283.93 -1.37061 4.11578 0
M  V30 2878 H 284.601 -2.89681 4.69882 0
M  V30 2879 H 287.077 -3.09419 2.78207 0
M  V30 2880 H 285.953 -4.36527 3.32769 0
M  V30 2881 H 286.214 -4.11808 1.60832 0
M  V30 2882 N 285.273 -1.31445 -0.869486 0
M  V30 2883 C 286.498 -1.24256 -1.66058 0
M  V30 2884 C 286.923 0.188928 -1.87149 0
M  V30 2885 O 286.281 1.13522 -1.4136 0
M  V30 2886 C 286.329 -1.9924 -3.00559 0
M  V30 2887 O 285.433 -1.33007 -3.90362 0
M  V30 2888 H 284.774 -0.428973 -0.506831 0
M  V30 2889 H 287.304 -1.73521 -1.08404 0
M  V30 2890 H 287.314 -2.08854 -3.50491 0
M  V30 2891 H 285.989 -3.03342 -2.84528 0
M  V30 2892 H 284.566 -1.31848 -3.48813 0
M  V30 2893 N 286.751 1.08385 -1.14413 0
M  V30 2894 C 287.681 2.17321 -0.854044 0
M  V30 2895 C 288.662 1.69024 0.191049 0
M  V30 2896 O 289.847 1.94141 0.0476779 0
M  V30 2897 C 286.977 3.45719 -0.330983 0
M  V30 2898 C 285.931 4.07409 -1.31155 0
M  V30 2899 C 285.257 5.30762 -0.64778 0
M  V30 2900 C 286.557 4.48665 -2.67388 0
M  V30 2901 H 288.251 2.41845 -1.76498 0
M  V30 2902 H 285.797 1.16233 -0.850051 0
M  V30 2903 H 287.75 4.21241 -0.115645 0
M  V30 2904 H 286.474 3.2075 0.615381 0
M  V30 2905 H 285.133 3.33919 -1.51306 0
M  V30 2906 H 284.781 5.02078 0.304398 0
M  V30 2907 H 284.481 5.72992 -1.30207 0
M  V30 2908 H 286.005 6.08998 -0.441972 0
M  V30 2909 H 287.419 5.15364 -2.51143 0
M  V30 2910 H 285.816 5.01814 -3.29093 0
M  V30 2911 H 286.886 3.60543 -3.24248 0
M  V30 2912 N 288.23 0.939286 1.26551 0
M  V30 2913 C 289.455 0.602008 1.98471 0
M  V30 2914 C 289.88 -0.815624 1.69497 0
M  V30 2915 O 289.238 -1.54912 0.941905 0
M  V30 2916 C 289.286 0.848407 3.50477 0
M  V30 2917 O 288.39 -0.0804009 4.12322 0
M  V30 2918 H 287.731 0.23049 0.622712 0
M  V30 2919 H 290.261 1.2617 1.61066 0
M  V30 2920 H 290.271 0.768553 4.00696 0
M  V30 2921 H 288.946 1.88171 3.70897 0
M  V30 2922 H 287.523 0.0503508 3.72866 0
M  V30 2923 N 289.708 -1.40897 0.706093 0
M  V30 2924 C 290.671 -2.29131 0.0562841 0
M  V30 2925 C 291.671 -1.44901 -0.697166 0
M  V30 2926 O 292.861 -1.65926 -0.530484 0
M  V30 2927 C 289.993 -3.27957 -0.93043 0
M  V30 2928 H 291.186 -2.88091 0.833284 0
M  V30 2929 H 288.739 -1.4906 0.470192 0
M  V30 2930 H 289.474 -2.73997 -1.73482 0
M  V30 2931 H 289.259 -3.90124 -0.393166 0
M  V30 2932 H 290.749 -3.94049 -1.38256 0
M  V30 2933 N 291.186 -0.45159 -1.50991 0
M  V30 2934 C 292.435 0.111653 -2.01391 0
M  V30 2935 C 292.748 1.42529 -1.33959 0
M  V30 2936 O 293.954 2.07232 -1.75405 0
M  V30 2937 C 292.41 0.249514 -3.59034 0
M  V30 2938 C 292.018 -1.05453 -4.35412 0
M  V30 2939 C 293.762 0.765762 -4.17536 0
M  V30 2940 C 291.669 -0.881529 -5.84793 0
M  V30 2941 H 290.599 0.0455022 -0.752626 0
M  V30 2942 H 293.25 -0.583524 -1.73975 0
M  V30 2943 H 291.632 1.00803 -3.82955 0
M  V30 2944 H 292.806 -1.82248 -4.23229 0
M  V30 2945 H 291.121 -1.50039 -3.88429 0
M  V30 2946 H 293.718 0.911913 -5.26866 0
M  V30 2947 H 294.061 1.75201 -3.77638 0
M  V30 2948 H 294.594 0.0651744 -3.97747 0
M  V30 2949 H 291.333 -1.84057 -6.29129 0
M  V30 2950 H 290.853 -0.153625 -5.99603 0
M  V30 2951 H 292.532 -0.540363 -6.4474 0
M  V30 2952 N 292.664 1.56529 -0.183458 0
M  V30 2953 C 294.08 1.58664 0.172554 0
M  V30 2954 C 294.28 1.19925 1.61926 0
M  V30 2955 O 293.336 0.916534 2.35278 0
M  V30 2956 C 294.649 3.00463 -0.119262 0
M  V30 2957 C 296.197 3.12945 -0.0584396 0
M  V30 2958 C 296.672 4.56857 -0.323408 0
M  V30 2959 N 298.163 4.62403 -0.271612 0
M  V30 2960 C 298.898 5.71626 -0.450639 0
M  V30 2961 N 298.394 6.89362 -0.689384 0
M  V30 2962 N 300.187 5.60775 -0.385701 0
M  V30 2963 H 292.338 1.79994 -1.12765 0
M  V30 2964 H 294.601 0.834808 -0.449222 0
M  V30 2965 H 294.307 3.33326 -1.12192 0
M  V30 2966 H 294.181 3.72659 0.583544 0
M  V30 2967 H 296.568 2.79902 0.934805 0
M  V30 2968 H 296.649 2.4316 -0.794144 0
M  V30 2969 H 296.293 4.9061 -1.31392 0
M  V30 2970 H 296.223 5.24816 0.43305 0
M  V30 2971 H 298.714 3.77785 -0.0932256 0
M  V30 2972 H 299.027 7.68489 -0.815113 0
M  V30 2973 H 297.372 6.91196 -0.726142 0
M  V30 2974 H 300.563 4.67674 -0.199687 0
M  V30 2975 H 300.736 6.4584 -0.528646 0
M  V30 2976 N 294.142 -0.090211 1.57342 0
M  V30 2977 C 295.37 -0.806224 1.90546 0
M  V30 2978 C 295.785 -1.72041 0.777644 0
M  V30 2979 O 295.142 -1.80778 -0.250103 0
M  V30 2980 C 295.193 -1.61546 3.23396 0
M  V30 2981 O 294.914 -0.738043 4.31839 0
M  V30 2982 C 296.415 -2.4341 3.70495 0
M  V30 2983 H 293.635 -0.230256 0.630257 0
M  V30 2984 H 296.179 -0.0659843 2.04394 0
M  V30 2985 H 294.334 -2.30816 3.11131 0
M  V30 2986 H 294.748 -1.29901 5.08159 0
M  V30 2987 H 296.222 -2.95676 4.66133 0
M  V30 2988 H 296.699 -3.22098 2.98579 0
M  V30 2989 H 297.305 -1.79331 3.85643 0
M  V30 2990 N 295.62 -1.53406 -0.361157 0
M  V30 2991 C 296.866 -1.70054 -1.10496 0
M  V30 2992 C 297.199 -0.453278 -1.88836 0
M  V30 2993 O 296.474 0.5495 -1.86576 0
M  V30 2994 C 296.757 -2.95317 -2.06058 0
M  V30 2995 C 296.61 -4.3021 -1.31298 0
M  V30 2996 C 297.929 -3.16193 -3.06121 0
M  V30 2997 H 295.048 -0.618799 -0.400321 0
M  V30 2998 H 297.69 -1.86052 -0.385318 0
M  V30 2999 H 295.84 -2.81809 -2.67425 0
M  V30 3000 H 297.512 -4.55538 -0.726807 0
M  V30 3001 H 295.755 -4.29421 -0.614853 0
M  V30 3002 H 296.426 -5.14 -2.01265 0
M  V30 3003 H 298.902 -3.28916 -2.5486 0
M  V30 3004 H 297.778 -4.05266 -3.70204 0
M  V30 3005 H 298.039 -2.31676 -3.76535 0
M  V30 3006 N 297.098 0.621204 -1.44841 0
M  V30 3007 C 298.514 0.94048 -1.28946 0
M  V30 3008 C 298.714 2.00154 -0.23249 0
M  V30 3009 O 297.77 2.49651 0.378237 0
M  V30 3010 C 299.083 1.39433 -2.66419 0
M  V30 3011 C 300.631 1.50927 -2.74208 0
M  V30 3012 C 301.106 1.99692 -4.12174 0
M  V30 3013 N 302.597 2.06947 -4.144 0
M  V30 3014 C 303.332 2.45871 -5.1801 0
M  V30 3015 N 302.828 2.83862 -6.31977 0
M  V30 3016 N 304.621 2.46092 -5.05366 0
M  V30 3017 H 296.772 -0.0803548 -2.12248 0
M  V30 3018 H 299.035 0.0266913 -0.947624 0
M  V30 3019 H 298.741 0.688925 -3.44887 0
M  V30 3020 H 298.615 2.36347 -2.93973 0
M  V30 3021 H 301.002 2.20561 -1.96053 0
M  V30 3022 H 301.083 0.523627 -2.50383 0
M  V30 3023 H 300.727 1.30649 -4.90809 0
M  V30 3024 H 300.657 2.99146 -4.33381 0
M  V30 3025 H 303.148 1.80232 -3.32152 0
M  V30 3026 H 303.461 3.12405 -7.0684 0
M  V30 3027 H 301.806 2.8159 -6.35399 0
M  V30 3028 H 304.997 2.1581 -4.15384 0
M  V30 3029 H 305.17 2.76102 -5.86235 0
M  V30 3030 N 298.576 1.31904 0.862503 0
M  V30 3031 C 299.822 1.22197 1.61851 0
M  V30 3032 C 300.155 -0.217641 1.92977 0
M  V30 3033 O 299.43 -1.15264 1.56666 0
M  V30 3034 C 299.713 2.07378 2.94391 0
M  V30 3035 C 299.566 3.59678 2.70096 0
M  V30 3036 C 300.885 1.92891 3.95577 0
M  V30 3037 H 298.004 0.445255 0.587296 0
M  V30 3038 H 300.646 1.6177 0.99651 0
M  V30 3039 H 298.796 1.73758 3.47477 0
M  V30 3040 H 300.468 4.03472 2.23625 0
M  V30 3041 H 298.711 3.82735 2.04197 0
M  V30 3042 H 299.382 4.14595 3.64438 0
M  V30 3043 H 301.858 2.22327 3.51724 0
M  V30 3044 H 300.734 2.54781 4.86187 0
M  V30 3045 H 300.995 0.894315 4.3296 0
M  V30 3046 N 300.054 -1.07777 1.14986 0
M  V30 3047 C 300.984 -2.16865 0.865557 0
M  V30 3048 C 301.965 -1.69123 -0.182083 0
M  V30 3049 O 303.15 -1.94164 -0.0373815 0
M  V30 3050 C 300.28 -3.45539 0.349313 0
M  V30 3051 C 299.234 -4.06708 1.33313 0
M  V30 3052 C 298.56 -5.30411 0.675918 0
M  V30 3053 C 299.86 -4.47241 2.69764 0
M  V30 3054 H 301.554 -2.40905 1.77778 0
M  V30 3055 H 299.1 -1.15781 0.856203 0
M  V30 3056 H 301.053 -4.21174 0.137983 0
M  V30 3057 H 299.777 -3.21072 -0.598362 0
M  V30 3058 H 298.436 -3.33112 1.53075 0
M  V30 3059 H 298.084 -5.02232 -0.277767 0
M  V30 3060 H 297.784 -5.72293 1.33244 0
M  V30 3061 H 299.308 -6.08755 0.474262 0
M  V30 3062 H 300.722 -5.14025 2.53873 0
M  V30 3063 H 299.119 -5.00062 3.3175 0
M  V30 3064 H 300.189 -3.58818 3.26156 0
M  V30 3065 N 301.532 -0.945985 -1.26051 0
M  V30 3066 C 302.948 -0.649045 -1.45807 0
M  V30 3067 C 303.148 0.796158 -1.85104 0
M  V30 3068 O 302.204 1.57233 -1.97571 0
M  V30 3069 C 303.517 -1.61458 -2.53677 0
M  V30 3070 C 305.065 -1.62481 -2.67524 0
M  V30 3071 C 305.54 -2.57776 -3.7857 0
M  V30 3072 N 307.031 -2.5609 -3.85969 0
M  V30 3073 C 307.766 -3.26508 -4.7136 0
M  V30 3074 N 307.262 -4.0637 -5.61102 0
M  V30 3075 N 309.055 -3.15437 -4.65248 0
M  V30 3076 H 301.206 -1.88005 -0.988328 0
M  V30 3077 H 303.469 -0.808198 -0.4955 0
M  V30 3078 H 303.175 -2.64644 -2.31638 0
M  V30 3079 H 303.049 -1.37036 -3.51427 0
M  V30 3080 H 305.436 -0.600167 -2.88933 0
M  V30 3081 H 305.517 -1.90958 -1.70202 0
M  V30 3082 H 305.161 -3.60361 -3.57913 0
M  V30 3083 H 305.091 -2.26587 -4.75359 0
M  V30 3084 H 307.582 -1.98105 -3.21812 0
M  V30 3085 H 307.895 -4.57042 -6.23164 0
M  V30 3086 H 306.24 -4.10469 -5.60839 0
M  V30 3087 H 309.431 -2.52525 -3.94143 0
M  V30 3088 H 309.604 -3.70584 -5.31575 0
M  V30 3089 N 303.011 1.40521 -0.713556 0
M  V30 3090 C 304.422 1.83853 -0.324807 0
M  V30 3091 C 304.773 1.59667 1.14021 0
M  V30 3092 O 303.898 1.07649 1.87725 0
M  V30 3093 C 304.493 3.33751 -0.582746 0
M  V30 3094 C 303.052 3.75584 -0.247727 0
M  V30 3095 C 302.199 2.63753 -0.856121 0
M  V30 3096 H 305.15 1.29817 -0.91286 0
M  V30 3097 H 305.171 3.80194 0.152682 0
M  V30 3098 H 304.683 3.51322 -1.64908 0
M  V30 3099 H 302.784 3.63608 0.813624 0
M  V30 3100 H 302.897 4.7373 -0.715307 0
M  V30 3101 H 301.261 2.53108 -0.28432 0
M  V30 3102 H 302.044 2.84137 -1.92668 0
M  V30 3103 N 304.489 0.459591 1.5075 0
M  V30 3104 C 305.419 -0.330644 2.31147 0
M  V30 3105 C 306.4 -1.00087 1.37538 0
M  V30 3106 O 307.585 -1.00025 1.66459 0
M  V30 3107 C 304.715 -1.41958 3.16962 0
M  V30 3108 C 303.669 -0.871608 4.19031 0
M  V30 3109 C 302.995 -2.05797 4.9351 0
M  V30 3110 C 304.295 0.109251 5.22186 0
M  V30 3111 H 305.989 0.340336 2.97459 0
M  V30 3112 H 303.535 0.165119 1.4305 0
M  V30 3113 H 305.488 -1.9798 3.71997 0
M  V30 3114 H 304.212 -2.11917 2.48513 0
M  V30 3115 H 302.871 -0.333442 3.6508 0
M  V30 3116 H 302.519 -2.74427 4.21544 0
M  V30 3117 H 302.219 -1.6976 5.62544 0
M  V30 3118 H 303.743 -2.62331 5.51375 0
M  V30 3119 H 305.157 -0.361405 5.7216 0
M  V30 3120 H 303.554 0.383316 5.98875 0
M  V30 3121 H 304.624 1.03887 4.73641 0
M  V30 3122 N 305.967 -1.56429 0.191757 0
M  V30 3123 C 307.383 -1.58754 -0.164137 0
M  V30 3124 C 307.583 -1.20782 -1.61288 0
M  V30 3125 O 306.639 -0.928999 -2.34789 0
M  V30 3126 C 307.952 -3.00396 0.135195 0
M  V30 3127 C 309.5 -3.1291 0.0750351 0
M  V30 3128 C 309.975 -4.56679 0.347632 0
M  V30 3129 N 311.466 -4.62252 0.296131 0
M  V30 3130 C 312.201 -5.71379 0.480948 0
M  V30 3131 N 311.697 -6.88986 0.725933 0
M  V30 3132 N 313.49 -5.60563 0.415435 0
M  V30 3133 H 305.641 -1.79393 1.13718 0
M  V30 3134 H 307.904 -0.832414 0.453643 0
M  V30 3135 H 307.61 -3.32726 1.13958 0
M  V30 3136 H 307.484 -3.72963 -0.563773 0
M  V30 3137 H 309.871 -2.80394 -0.919948 0
M  V30 3138 H 309.952 -2.42736 0.807029 0
M  V30 3139 H 309.596 -4.89907 1.33992 0
M  V30 3140 H 309.526 -5.25039 -0.405212 0
M  V30 3141 H 312.017 -3.7773 0.113259 0
M  V30 3142 H 312.33 -7.68046 0.855857 0
M  V30 3143 H 310.675 -6.90801 0.762788 0
M  V30 3144 H 313.866 -4.67561 0.224486 0
M  V30 3145 H 314.039 -6.45551 0.562889 0
M  V30 3146 N 307.445 0.0818655 -1.57387 0
M  V30 3147 C 308.408 1.08265 -2.02018 0
M  V30 3148 C 309.408 1.32183 -0.915664 0
M  V30 3149 O 310.598 1.28073 -1.18081 0
M  V30 3150 C 307.73 2.42871 -2.39221 0
M  V30 3151 H 308.923 0.698204 -2.91659 0
M  V30 3152 H 306.476 0.327303 -1.52835 0
M  V30 3153 H 307.211 2.86167 -1.52575 0
M  V30 3154 H 306.996 2.26855 -3.19811 0
M  V30 3155 H 308.486 3.14826 -2.74362 0
M  V30 3156 N 308.923 1.53595 0.353017 0
M  V30 3157 C 310.172 1.69603 1.09168 0
M  V30 3158 C 310.485 0.460925 1.90092 0
M  V30 3159 O 311.691 0.501774 2.66823 0
M  V30 3160 C 310.147 2.99872 1.9901 0
M  V30 3161 C 309.755 4.30687 1.23339 0
M  V30 3162 C 311.499 3.25246 2.72792 0
M  V30 3163 C 309.406 5.52036 2.12156 0
M  V30 3164 H 308.336 0.631966 0.411261 0
M  V30 3165 H 310.987 1.80096 0.351802 0
M  V30 3166 H 309.369 2.83212 2.7678 0
M  V30 3167 H 310.543 4.58019 0.505456 0
M  V30 3168 H 308.858 4.11853 0.613663 0
M  V30 3169 H 311.455 4.13095 3.39495 0
M  V30 3170 H 311.798 2.41846 3.38846 0
M  V30 3171 H 312.331 3.42638 2.021 0
M  V30 3172 H 309.07 6.37951 1.50659 0
M  V30 3173 H 308.59 5.28966 2.82764 0
M  V30 3174 H 310.269 5.87313 2.71427 0
M  V30 3175 N 310.401 -0.613514 1.45168 0
M  V30 3176 C 311.349 -1.74572 1.53712 0
M  V30 3177 C 312.343 -1.64426 0.407505 0
M  V30 3178 O 313.549 -1.70291 0.583176 0
M  V30 3179 H 309.924 -0.576641 0.48269 0
M  V30 3180 H 311.895 -1.64492 2.48968 0
M  V30 3181 C 310.644 -3.12943 1.51532 0
M  V30 3182 H 309.967 -3.21407 2.37776 0
M  V30 3183 H 311.407 -3.9201 1.61569 0
M  V30 3184 C 309.866 -3.36053 0.238798 0
M  V30 3185 O 310.396 -3.95837 -0.6838 0
M  V30 3186 N 308.602 -2.9028 0.136359 0
M  V30 3187 H 308.149 -2.41811 0.887999 0
M  V30 3188 H 308.107 -3.06116 -0.716944 0
M  V30 3189 N 311.879 -1.3236 -0.855495 0
M  V30 3190 C 313.295 -1.11332 -1.14356 0
M  V30 3191 C 313.495 0.106751 -2.01217 0
M  V30 3192 O 312.551 0.791891 -2.39761 0
M  V30 3193 C 313.864 -2.39237 -1.82171 0
M  V30 3194 C 315.412 -2.44986 -1.9481 0
M  V30 3195 C 315.887 -3.7281 -2.66039 0
M  V30 3196 N 317.378 -3.73787 -2.73565 0
M  V30 3197 C 318.113 -4.69394 -3.29327 0
M  V30 3198 N 317.609 -5.75367 -3.85907 0
M  V30 3199 N 319.402 -4.56893 -3.27423 0
M  V30 3200 H 311.553 -2.10586 -0.277027 0
M  V30 3201 H 313.816 -0.929701 -0.185364 0
M  V30 3202 H 313.522 -3.28431 -1.25802 0
M  V30 3203 H 313.396 -2.50134 -2.82335 0
M  V30 3204 H 315.783 -1.56252 -2.50338 0
M  V30 3205 H 315.864 -2.38043 -0.936448 0
M  V30 3206 H 315.508 -4.61918 -2.11174 0
M  V30 3207 H 315.438 -3.77024 -3.67642 0
M  V30 3208 H 317.929 -2.97189 -2.33424 0
M  V30 3209 H 318.242 -6.44378 -4.26611 0
M  V30 3210 H 316.587 -5.79123 -3.84242 0
M  V30 3211 H 319.778 -3.73269 -2.82467 0
M  V30 3212 H 319.951 -5.31577 -3.7058 0
M  V30 3213 N 313.357 1.07166 -1.15556 0
M  V30 3214 C 314.603 1.80065 -0.932984 0
M  V30 3215 C 314.936 1.86586 0.53845 0
M  V30 3216 O 314.211 1.35098 1.39924 0
M  V30 3217 C 314.494 3.25022 -1.55025 0
M  V30 3218 C 314.347 3.26634 -3.09242 0
M  V30 3219 C 315.666 4.22341 -1.2376 0
M  V30 3220 H 312.785 0.653697 -0.340366 0
M  V30 3221 H 315.427 1.25389 -1.4275 0
M  V30 3222 H 313.577 3.71712 -1.12972 0
M  V30 3223 H 315.249 2.88173 -3.60214 0
M  V30 3224 H 313.492 2.65539 -3.43033 0
M  V30 3225 H 314.163 4.28854 -3.47546 0
M  V30 3226 H 316.639 3.8405 -1.60139 0
M  V30 3227 H 315.515 5.22053 -1.69564 0
M  V30 3228 H 315.776 4.41828 -0.154938 0
M  V30 3229 N 314.835 0.952656 1.25548 0
M  V30 3230 C 316.246 0.647392 1.75116 0
M  V30 3231 C 316.597 -0.837274 1.77438 0
M  V30 3232 O 315.722 -1.65525 1.39393 0
M  V30 3233 C 316.317 1.16845 3.18014 0
M  V30 3234 C 314.876 0.913382 3.6515 0
M  V30 3235 C 314.023 1.31265 2.44264 0
M  V30 3236 H 316.974 1.12968 1.11462 0
M  V30 3237 H 316.995 0.527606 3.76824 0
M  V30 3238 H 316.507 2.24902 3.16292 0
M  V30 3239 H 314.608 -0.152316 3.72289 0
M  V30 3240 H 314.721 1.54845 4.53387 0
M  V30 3241 H 313.085 0.731028 2.43984 0
M  V30 3242 H 313.868 2.40239 2.45234 0
M  V30 3243 N 316.313 -1.40141 0.720998 0
M  V30 3244 C 317.538 -2.05618 0.271258 0
M  V30 3245 C 317.963 -1.53978 -1.08039 0
M  V30 3246 O 317.321 -0.677463 -1.68167 0
M  V30 3247 C 317.369 -3.59609 0.267197 0
M  V30 3248 O 316.473 -4.05526 -0.749814 0
M  V30 3249 H 315.814 -0.651904 0.126162 0
M  V30 3250 H 318.344 -1.79439 0.982997 0
M  V30 3251 H 318.354 -4.0786 0.106744 0
M  V30 3252 H 317.029 -3.96559 1.25354 0
M  V30 3253 H 315.606 -3.68722 -0.556644 0
M  V30 3254 N 317.792 -0.46758 -1.50504 0
M  V30 3255 C 318.725 0.374324 -2.25109 0
M  V30 3256 C 319.703 0.99921 -1.28275 0
M  V30 3257 O 320.887 1.03583 -1.57489 0
M  V30 3258 C 318.014 1.52419 -3.02467 0
M  V30 3259 C 317.06 1.01702 -4.14197 0
M  V30 3260 S 317.893 -0.0654477 -5.3546 0
M  V30 3261 C 319.049 1.08837 -6.16365 0
M  V30 3262 H 319.282 -0.258983 -2.9617 0
M  V30 3263 H 316.815 -0.252421 -1.52323 0
M  V30 3264 H 318.773 2.18322 -3.47628 0
M  V30 3265 H 317.434 2.129 -2.30938 0
M  V30 3266 H 316.627 1.87776 -4.67714 0
M  V30 3267 H 316.229 0.435757 -3.71453 0
M  V30 3268 H 318.521 2.00071 -6.47285 0
M  V30 3269 H 319.464 0.592538 -7.05616 0
M  V30 3270 H 319.872 1.34061 -5.4835 0
M  V30 3271 N 319.27 1.56325 -0.20005 0
M  V30 3272 C 320.686 1.58839 0.155716 0
M  V30 3273 C 320.886 1.21636 1.60645 0
M  V30 3274 O 319.942 0.941437 2.34293 0
M  V30 3275 C 321.255 3.0032 -0.151124 0
M  V30 3276 C 322.803 3.12866 -0.0916284 0
M  V30 3277 C 323.278 4.56488 -0.371845 0
M  V30 3278 N 324.769 4.62089 -0.320641 0
M  V30 3279 C 325.504 5.71116 -0.511243 0
M  V30 3280 N 325 6.88592 -0.762461 0
M  V30 3281 N 326.793 5.60335 -0.445157 0
M  V30 3282 H 318.944 1.78788 -1.14668 0
M  V30 3283 H 321.207 0.829996 -0.458051 0
M  V30 3284 H 320.913 3.32117 -1.15721 0
M  V30 3285 H 320.787 3.73257 0.543986 0
M  V30 3286 H 323.174 2.80878 0.905065 0
M  V30 3287 H 323.255 2.42304 -0.81989 0
M  V30 3288 H 322.899 4.89189 -1.36588 0
M  V30 3289 H 322.829 5.25246 0.377362 0
M  V30 3290 H 325.32 3.77665 -0.13329 0
M  V30 3291 H 325.633 7.67581 -0.896576 0
M  V30 3292 H 323.978 6.90387 -0.799412 0
M  V30 3293 H 327.169 4.67436 -0.249278 0
M  V30 3294 H 327.342 6.45243 -0.597116 0
M  V30 3295 N 320.748 -0.0735177 1.57428 0
M  V30 3296 C 321.997 -0.771809 1.86349 0
M  V30 3297 C 322.31 -1.78828 0.792452 0
M  V30 3298 O 323.516 -2.53602 0.96945 0
M  V30 3299 C 321.972 -1.42358 3.30548 0
M  V30 3300 C 321.58 -0.445761 4.45777 0
M  V30 3301 C 323.324 -2.10434 3.6867 0
M  V30 3302 C 321.231 -1.10335 5.81016 0
M  V30 3303 H 320.161 -0.291999 0.695164 0
M  V30 3304 H 322.812 -0.0250749 1.83483 0
M  V30 3305 H 321.194 -2.21852 3.28021 0
M  V30 3306 H 322.368 0.319239 4.59693 0
M  V30 3307 H 320.683 0.130457 4.16196 0
M  V30 3308 H 323.28 -2.60405 4.67004 0
M  V30 3309 H 323.623 -2.90298 2.98383 0
M  V30 3310 H 324.156 -1.37773 3.7318 0
M  V30 3311 H 320.895 -0.345061 6.54591 0
M  V30 3312 H 320.415 -1.83925 5.70904 0
M  V30 3313 H 322.094 -1.62367 6.26295 0
M  V30 3314 N 322.226 -1.5378 -0.344866 0
M  V30 3315 C 323.156 -1.84662 -1.42906 0
M  V30 3316 C 324.137 -0.701648 -1.54955 0
M  V30 3317 O 325.322 -0.953438 -1.69184 0
M  V30 3318 C 322.452 -2.05503 -2.79974 0
M  V30 3319 C 321.406 -3.21318 -2.82734 0
M  V30 3320 C 320.732 -3.2749 -4.22675 0
M  V30 3321 C 322.032 -4.59456 -2.48389 0
M  V30 3322 H 323.726 -2.75461 -1.17311 0
M  V30 3323 H 321.272 -1.32542 -0.562896 0
M  V30 3324 H 323.225 -2.25691 -3.55867 0
M  V30 3325 H 321.949 -1.11434 -3.07002 0
M  V30 3326 H 320.608 -3.00984 -2.09294 0
M  V30 3327 H 320.256 -2.31019 -4.4681 0
M  V30 3328 H 319.956 -4.05316 -4.25433 0
M  V30 3329 H 321.48 -3.49887 -5.00412 0
M  V30 3330 H 322.894 -4.79667 -3.13995 0
M  V30 3331 H 321.291 -5.39675 -2.62432 0
M  V30 3332 H 322.361 -4.63155 -1.4358 0
M  V30 3333 N 323.704 0.605807 -1.45491 0
M  V30 3334 C 324.95 1.36679 -1.49823 0
M  V30 3335 C 325.283 1.93693 -0.140175 0
M  V30 3336 O 324.558 1.75158 0.845581 0
M  V30 3337 C 324.841 2.51337 -2.57879 0
M  V30 3338 C 324.694 1.99508 -4.03134 0
M  V30 3339 C 326.013 3.53463 -2.62205 0
M  V30 3340 H 323.132 0.495617 -0.545466 0
M  V30 3341 H 325.774 0.682732 -1.7731 0
M  V30 3342 H 323.924 3.09691 -2.34571 0
M  V30 3343 H 325.596 1.45789 -4.37656 0
M  V30 3344 H 323.839 1.30496 -4.13707 0
M  V30 3345 H 324.51 2.82169 -4.74431 0
M  V30 3346 H 326.986 3.04953 -2.83095 0
M  V30 3347 H 325.862 4.31178 -3.39672 0
M  V30 3348 H 326.123 4.09197 -1.67363 0
M  V30 3349 N 325.182 1.32811 0.848464 0
M  V30 3350 C 326.41 1.26739 1.63538 0
M  V30 3351 C 326.825 -0.163484 1.88091 0
M  V30 3352 O 326.182 -1.10258 1.45429 0
M  V30 3353 C 326.233 2.03013 2.99112 0
M  V30 3354 O 325.954 3.40518 2.75643 0
M  V30 3355 C 327.455 2.04038 3.93552 0
M  V30 3356 H 324.675 0.437024 0.509167 0
M  V30 3357 H 327.219 1.75033 1.05753 0
M  V30 3358 H 325.374 1.58426 3.53525 0
M  V30 3359 H 325.788 3.79635 3.61908 0
M  V30 3360 H 327.262 2.61877 4.85926 0
M  V30 3361 H 327.739 1.0282 4.26995 0
M  V30 3362 H 328.345 2.486 3.45077 0
M  V30 3363 N 326.66 -1.06551 1.16123 0
M  V30 3364 C 327.59 -2.15935 0.88851 0
M  V30 3365 C 328.571 -1.69306 -0.164135 0
M  V30 3366 O 329.756 -1.94193 -0.0167857 0
M  V30 3367 C 326.886 -3.45149 0.385942 0
M  V30 3368 C 325.84 -4.05271 1.3762 0
M  V30 3369 C 325.166 -5.29664 0.732137 0
M  V30 3370 C 326.466 -4.44355 2.74493 0
M  V30 3371 H 328.16 -2.39006 1.80323 0
M  V30 3372 H 325.706 -1.14866 0.868435 0
M  V30 3373 H 327.659 -4.21004 0.182647 0
M  V30 3374 H 326.383 -3.21689 -0.564274 0
M  V30 3375 H 325.042 -3.3147 1.56599 0
M  V30 3376 H 324.69 -5.02499 -0.224483 0
M  V30 3377 H 324.39 -5.70848 1.39307 0
M  V30 3378 H 325.914 -6.08218 0.538802 0
M  V30 3379 H 327.328 -5.11303 2.59311 0
M  V30 3380 H 325.725 -4.96515 3.37035 0
M  V30 3381 H 326.795 -3.55339 3.29943 0
M  V30 3382 N 328.138 -0.959301 -1.25041 0
M  V30 3383 C 329.068 -0.501388 -2.28053 0
M  V30 3384 C 330.049 0.454673 -1.63911 0
M  V30 3385 O 331.234 0.352618 -1.90972 0
M  V30 3386 C 328.364 0.217224 -3.4662 0
M  V30 3387 C 327.318 -0.654034 -4.22973 0
M  V30 3388 C 326.644 0.195589 -5.34342 0
M  V30 3389 C 327.944 -1.93447 -4.85155 0
M  V30 3390 H 329.638 -1.36238 -2.66608 0
M  V30 3391 H 327.184 -0.656534 -1.28163 0
M  V30 3392 H 329.137 0.548732 -4.17812 0
M  V30 3393 H 327.861 1.1125 -3.07068 0
M  V30 3394 H 326.52 -0.968693 -3.5357 0
M  V30 3395 H 326.168 1.09076 -4.91031 0
M  V30 3396 H 325.868 -0.384091 -5.86343 0
M  V30 3397 H 327.392 0.521958 -6.08365 0
M  V30 3398 H 328.806 -1.66908 -5.48466 0
M  V30 3399 H 327.203 -2.46018 -5.47353 0
M  V30 3400 H 328.273 -2.63466 -4.07079 0
M  V30 3401 N 329.616 1.39756 -0.72842 0
M  V30 3402 C 330.546 2.33289 -0.0991354 0
M  V30 3403 C 331.527 1.53568 0.731489 0
M  V30 3404 O 332.712 1.81987 0.677807 0
M  V30 3405 C 329.842 3.3763 0.813834 0
M  V30 3406 C 328.796 4.2791 0.0878663 0
M  V30 3407 C 328.122 5.22894 1.11741 0
M  V30 3408 C 329.422 5.11314 -1.06563 0
M  V30 3409 H 331.116 2.86163 -0.880408 0
M  V30 3410 H 328.662 1.37591 -0.424819 0
M  V30 3411 H 330.615 4.0201 1.26355 0
M  V30 3412 H 329.339 2.83181 1.62715 0
M  V30 3413 H 327.998 3.65 -0.342159 0
M  V30 3414 H 327.646 4.64744 1.92412 0
M  V30 3415 H 327.346 5.84143 0.636477 0
M  V30 3416 H 328.87 5.90151 1.56697 0
M  V30 3417 H 330.284 5.69076 -0.694671 0
M  V30 3418 H 328.681 5.81671 -1.47577 0
M  V30 3419 H 329.751 4.46534 -1.89038 0
M  V30 3420 N 331.094 0.475555 1.50254 0
M  V30 3421 C 332.371 -0.139685 1.95101 0
M  V30 3422 C 332.751 -1.56555 1.41611 0
M  V30 3423 O 332.099 -2.19956 0.618993 0
M  V30 3424 C 332.309 -0.0784298 3.48912 0
M  V30 3425 C 333.657 -0.265095 4.23772 0
M  V30 3426 O 334.681 -0.154808 3.55863 0
M  V30 3427 O 333.54 -0.488327 5.44314 0
M  V30 3428 H 330.634 -0.109236 0.819754 0
M  V30 3429 H 333.18 0.536276 1.61004 0
M  V30 3430 H 331.952 0.916918 3.80405 0
M  V30 3431 H 331.575 -0.795655 3.89558 0
M  V30 3432 N 332.573 -1.56217 0.208337 0
M  V30 3433 C 333.801 -2.02337 -0.43215 0
M  V30 3434 C 334.216 -1.08834 -1.54275 0
M  V30 3435 O 333.573 -0.0955462 -1.8225 0
M  V30 3436 C 333.624 -3.48072 -0.976138 0
M  V30 3437 O 333.345 -4.38007 0.0901621 0
M  V30 3438 C 334.846 -4.09773 -1.69119 0
M  V30 3439 H 332.066 -0.662385 -0.10718 0
M  V30 3440 H 334.61 -2.01966 0.320923 0
M  V30 3441 H 332.765 -3.49099 -1.67954 0
M  V30 3442 H 333.179 -5.23543 -0.316701 0
M  V30 3443 H 334.653 -5.13556 -2.02397 0
M  V30 3444 H 335.13 -3.53999 -2.59964 0
M  V30 3445 H 335.736 -4.12556 -1.03332 0
M  V30 3446 N 334.051 0.0651679 -1.57465 0
M  V30 3447 C 334.981 1.07693 -2.07182 0
M  V30 3448 C 335.962 1.39962 -0.966673 0
M  V30 3449 O 337.147 1.49475 -1.2398 0
M  V30 3450 C 334.277 2.3885 -2.52127 0
M  V30 3451 C 333.231 2.20917 -3.66579 0
M  V30 3452 C 332.557 3.57515 -3.97601 0
M  V30 3453 C 333.857 1.62493 -4.9638 0
M  V30 3454 H 335.551 0.663199 -2.91962 0
M  V30 3455 H 333.097 0.317569 -1.40455 0
M  V30 3456 H 335.05 3.09928 -2.85522 0
M  V30 3457 H 333.774 2.82215 -1.64384 0
M  V30 3458 H 332.433 1.52279 -3.33477 0
M  V30 3459 H 332.081 3.98463 -3.06979 0
M  V30 3460 H 331.781 3.46353 -4.74672 0
M  V30 3461 H 333.305 4.30013 -4.33499 0
M  V30 3462 H 334.719 2.23445 -5.27963 0
M  V30 3463 H 333.116 1.62009 -5.77818 0
M  V30 3464 H 334.186 0.587041 -4.81333 0
M  V30 3465 N 335.529 1.53961 0.336706 0
M  V30 3466 C 336.94 1.62914 0.911925 0
M  V30 3467 C 337.291 0.514795 1.89326 0
M  V30 3468 O 336.416 -0.354395 2.13478 0
M  V30 3469 C 337.011 2.95304 1.66076 0
M  V30 3470 C 335.57 3.06496 2.18489 0
M  V30 3471 C 334.717 2.58403 1.00613 0
M  V30 3472 H 337.668 1.58285 0.114649 0
M  V30 3473 H 337.689 2.84727 2.5241 0
M  V30 3474 H 337.201 3.76387 0.946276 0
M  V30 3475 H 335.302 2.3006 2.93092 0
M  V30 3476 H 335.415 4.1208 2.44391 0
M  V30 3477 H 333.779 2.13977 1.38152 0
M  V30 3478 H 334.562 3.41932 0.306179 0
M  V30 3479 N 337.007 -0.598083 1.45811 0
M  V30 3480 C 337.94 -1.7223 1.49706 0
M  V30 3481 C 338.918 -1.58732 0.352535 0
M  V30 3482 O 340.102 -1.80162 0.554438 0
M  V30 3483 C 337.229 -3.10148 1.3611 0
M  V30 3484 C 336.275 -3.42209 2.54549 0
M  V30 3485 S 337.108 -3.35989 4.16979 0
M  V30 3486 C 338.264 -4.76471 4.05865 0
M  V30 3487 H 338.497 -1.68665 2.44826 0
M  V30 3488 H 336.03 -0.775541 1.33509 0
M  V30 3489 H 337.988 -3.8972 1.28953 0
M  V30 3490 H 336.649 -3.11219 0.424451 0
M  V30 3491 H 335.842 -4.42652 2.40988 0
M  V30 3492 H 335.444 -2.70173 2.58617 0
M  V30 3493 H 337.736 -5.665 3.71596 0
M  V30 3494 H 338.679 -4.95089 5.06253 0
M  V30 3495 H 339.087 -4.52599 3.37364 0
M  V30 3496 N 338.485 -1.33259 -0.841409 0
M  V30 3497 C 339.415 -1.25926 -1.96634 0
M  V30 3498 C 340.396 -0.140349 -1.6952 0
M  V30 3499 O 341.581 -0.329707 -1.91381 0
M  V30 3500 C 338.711 -0.99512 -3.32738 0
M  V30 3501 C 337.665 -2.0767 -3.74242 0
M  V30 3502 C 336.991 -1.66474 -5.08125 0
M  V30 3503 C 338.291 -3.49318 -3.88297 0
M  V30 3504 H 339.985 -2.20046 -2.03027 0
M  V30 3505 H 337.531 -1.05931 -0.975425 0
M  V30 3506 H 339.484 -0.930323 -4.11002 0
M  V30 3507 H 338.208 -0.0183004 -3.26595 0
M  V30 3508 H 336.867 -2.13187 -2.98239 0
M  V30 3509 H 336.515 -0.675012 -4.9845 0
M  V30 3510 H 336.215 -2.3885 -5.36865 0
M  V30 3511 H 337.739 -1.61455 -5.88867 0
M  V30 3512 H 339.153 -3.46316 -4.56879 0
M  V30 3513 H 337.55 -4.20158 -4.28471 0
M  V30 3514 H 338.62 -3.8801 -2.9082 0
M  V30 3515 N 339.963 1.05934 -1.16686 0
M  V30 3516 C 341.211 1.78447 -0.948744 0
M  V30 3517 C 341.532 1.87813 0.524523 0
M  V30 3518 O 340.802 1.38945 1.38098 0
M  V30 3519 H 339.382 0.660971 -0.348033 0
M  V30 3520 H 342.044 1.27947 -1.47022 0
M  V30 3521 H 341.14 2.80394 -1.37061 0
M  V30 3522 N 341.441 0.965919 1.2453 0
M  V30 3523 C 342.389 0.486506 2.27455 0
M  V30 3524 C 343.383 -0.449041 1.6334 0
M  V30 3525 O 344.589 -0.324527 1.7705 0
M  V30 3526 H 340.964 0.138857 0.739069 0
M  V30 3527 H 342.935 1.3666 2.65267 0
M  V30 3528 C 341.684 -0.209481 3.47068 0
M  V30 3529 H 341.007 0.50129 3.96645 0
M  V30 3530 H 342.447 -0.508775 4.20936 0
M  V30 3531 C 340.906 -1.43586 3.0477 0
M  V30 3532 O 341.436 -2.53299 3.11773 0
M  V30 3533 N 339.642 -1.30126 2.59838 0
M  V30 3534 H 339.189 -0.408583 2.54339 0
M  V30 3535 H 339.147 -2.12294 2.31902 0
M  V30 3536 N 342.919 -1.39368 0.735821 0
M  V30 3537 C 344.165 -2.00794 0.284544 0
M  V30 3538 C 344.498 -1.58255 -1.12557 0
M  V30 3539 O 343.773 -0.811819 -1.76748 0
M  V30 3540 C 344.056 -3.58011 0.387337 0
M  V30 3541 C 343.909 -4.10566 1.83728 0
M  V30 3542 C 345.228 -4.395 -0.22975 0
M  V30 3543 H 342.347 -0.729501 0.104866 0
M  V30 3544 H 344.989 -1.65564 0.93213 0
M  V30 3545 H 343.139 -3.88154 -0.164006 0
M  V30 3546 H 344.811 -3.91139 2.44556 0
M  V30 3547 H 343.054 -3.64095 2.35833 0
M  V30 3548 H 343.725 -5.19702 1.86047 0
M  V30 3549 H 346.201 -4.15406 0.240257 0
M  V30 3550 H 345.077 -5.48752 -0.127485 0
M  V30 3551 H 345.338 -4.22062 -1.3159 0
M  V30 3552 N 344.397 -0.483516 -1.5 0
M  V30 3553 C 345.327 0.293829 -2.31644 0
M  V30 3554 C 346.308 0.978864 -1.39112 0
M  V30 3555 O 347.493 0.973644 -1.68029 0
M  V30 3556 C 344.623 1.36897 -3.19181 0
M  V30 3557 C 343.577 0.804833 -4.20365 0
M  V30 3558 C 342.903 1.9792 -4.96721 0
M  V30 3559 C 344.203 -0.192313 -5.21946 0
M  V30 3560 H 345.897 -0.387616 -2.9688 0
M  V30 3561 H 343.443 -0.187856 -1.42769 0
M  V30 3562 H 345.396 1.92037 -3.751 0
M  V30 3563 H 344.12 2.07936 -2.51853 0
M  V30 3564 H 342.779 0.275319 -3.65565 0
M  V30 3565 H 342.427 2.67686 -4.25856 0
M  V30 3566 H 342.127 1.60789 -5.65173 0
M  V30 3567 H 343.651 2.53526 -5.55479 0
M  V30 3568 H 345.065 0.270333 -5.72662 0
M  V30 3569 H 343.462 -0.478543 -5.98189 0
M  V30 3570 H 344.532 -1.11409 -4.71928 0
M  V30 3571 N 345.875 1.56104 -0.216619 0
M  V30 3572 C 346.805 2.23063 0.690296 0
M  V30 3573 C 347.786 1.20072 1.20485 0
M  V30 3574 O 348.971 1.48643 1.24976 0
M  V30 3575 C 346.101 2.90672 1.90072 0
M  V30 3576 C 345.055 4.00092 1.5202 0
M  V30 3577 C 344.381 4.54972 2.80899 0
M  V30 3578 C 345.681 5.17398 0.71391 0
M  V30 3579 H 347.375 2.99109 0.132038 0
M  V30 3580 H 344.921 1.43866 0.0620664 0
M  V30 3581 H 346.874 3.36204 2.54057 0
M  V30 3582 H 345.598 2.12066 2.48386 0
M  V30 3583 H 344.257 3.55283 0.903839 0
M  V30 3584 H 343.905 3.73102 3.37348 0
M  V30 3585 H 343.605 5.28817 2.56176 0
M  V30 3586 H 345.129 5.0322 3.45836 0
M  V30 3587 H 346.543 5.59342 1.25735 0
M  V30 3588 H 344.94 5.97444 0.563951 0
M  V30 3589 H 346.01 4.84088 -0.280527 0
M  V30 3590 N 347.353 -0.0568162 1.57498 0
M  V30 3591 C 348.283 -1.06593 2.0775 0
M  V30 3592 C 349.264 -1.39448 0.974082 0
M  V30 3593 O 350.449 -1.48815 1.24771 0
M  V30 3594 C 347.579 -2.37509 2.5339 0
M  V30 3595 C 346.533 -2.1897 3.67745 0
M  V30 3596 C 345.859 -3.55402 3.99492 0
M  V30 3597 C 347.159 -1.59859 4.97235 0
M  V30 3598 H 348.853 -0.647706 2.9231 0
M  V30 3599 H 346.399 -0.310116 1.40621 0
M  V30 3600 H 348.352 -3.08409 2.87162 0
M  V30 3601 H 347.076 -2.8134 1.65878 0
M  V30 3602 H 345.735 -1.50508 3.3428 0
M  V30 3603 H 345.383 -3.9683 3.09088 0
M  V30 3604 H 345.083 -3.43831 4.76502 0
M  V30 3605 H 346.607 -4.27708 4.35773 0
M  V30 3606 H 348.021 -2.20642 5.29141 0
M  V30 3607 H 346.418 -1.58942 5.78669 0
M  V30 3608 H 347.488 -0.561506 4.81638 0
M  V30 3609 N 348.832 -1.54138 -0.328536 0
M  V30 3610 C 350.072 -1.73827 -1.07534 0
M  V30 3611 C 350.436 -0.498777 -1.85408 0
M  V30 3612 O 351.637 -0.572937 -2.62623 0
M  V30 3613 C 349.908 -2.97573 -1.97952 0
M  V30 3614 S 351.467 -3.38143 -2.79652 0
M  V30 3615 H 348.285 -0.611287 -0.36311 0
M  V30 3616 H 350.887 -1.92306 -0.351931 0
M  V30 3617 H 349.591 -3.85939 -1.39569 0
M  V30 3618 H 349.122 -2.81603 -2.74706 0
M  V30 3619 H 351.137 -2.93052 -4.00418 0
M  V30 3620 N 350.31 0.590341 -1.46126 0
M  V30 3621 C 351.557 1.34882 -1.5104 0
M  V30 3622 C 351.885 1.93849 -0.159021 0
M  V30 3623 O 351.14 1.76544 0.844436 0
M  V30 3624 C 351.439 2.5032 -2.55097 0
M  V30 3625 C 351.105 2.09394 -3.99331 0
M  V30 3626 C 349.767 1.97947 -4.38601 0
M  V30 3627 C 352.119 1.77712 -4.89967 0
M  V30 3628 C 349.447 1.53065 -5.66381 0
M  V30 3629 C 351.799 1.34312 -6.18177 0
M  V30 3630 C 350.463 1.21436 -6.56361 0
M  V30 3631 H 349.733 0.493568 -0.552695 0
M  V30 3632 H 352.38 0.665539 -1.79563 0
M  V30 3633 H 350.685 3.24062 -2.20207 0
M  V30 3634 H 352.382 3.08541 -2.56132 0
M  V30 3635 H 348.972 2.19235 -3.68285 0
M  V30 3636 H 353.156 1.85445 -4.60352 0
M  V30 3637 H 348.412 1.41733 -5.94745 0
M  V30 3638 H 352.586 1.08849 -6.87841 0
M  V30 3639 H 350.213 0.864345 -7.5527 0
M  V30 3640 N 351.788 1.33704 0.83433 0
M  V30 3641 C 353.035 1.25417 1.58987 0
M  V30 3642 C 353.363 -0.178869 1.93676 0
M  V30 3643 O 352.618 -1.13723 1.59265 0
M  V30 3644 C 352.917 2.07926 2.90692 0
M  V30 3645 C 352.583 3.57066 2.75345 0
M  V30 3646 C 351.245 3.97724 2.70867 0
M  V30 3647 C 353.597 4.51817 2.59828 0
M  V30 3648 C 350.925 5.31344 2.48778 0
M  V30 3649 C 353.277 5.85604 2.39272 0
M  V30 3650 C 351.941 6.25439 2.33199 0
M  V30 3651 H 351.211 0.458934 0.581774 0
M  V30 3652 H 353.858 1.65335 0.966261 0
M  V30 3653 H 352.163 1.608 3.57282 0
M  V30 3654 H 353.86 1.98868 3.48213 0
M  V30 3655 H 350.45 3.24785 2.79665 0
M  V30 3656 H 354.634 4.21311 2.62319 0
M  V30 3657 H 349.89 5.61241 2.42526 0
M  V30 3658 H 354.064 6.58623 2.2625 0
M  V30 3659 H 351.691 7.28914 2.15843 0
M  V30 3660 N 353.266 -1.05314 1.17247 0
M  V30 3661 C 354.512 -1.78557 0.961513 0
M  V30 3662 C 354.845 -1.87419 -0.508697 0
M  V30 3663 O 354.12 -1.37307 -1.37757 0
M  V30 3664 C 354.403 -3.22514 1.60176 0
M  V30 3665 C 354.256 -3.21673 3.14399 0
M  V30 3666 C 355.575 -4.20318 1.30463 0
M  V30 3667 H 352.694 -0.6482 0.350723 0
M  V30 3668 H 355.336 -1.23102 1.44727 0
M  V30 3669 H 353.486 -3.69867 1.18871 0
M  V30 3670 H 355.158 -2.82405 3.64753 0
M  V30 3671 H 353.401 -2.60048 3.47214 0
M  V30 3672 H 354.072 -4.23271 3.54324 0
M  V30 3673 H 356.548 -3.81454 1.66229 0
M  V30 3674 H 355.424 -5.19289 1.77848 0
M  V30 3675 H 355.685 -4.41526 0.22521 0
M  V30 3676 N 354.744 -0.972509 -1.24016 0
M  V30 3677 C 355.991 -0.637034 -1.92219 0
M  V30 3678 C 356.319 0.828418 -1.75976 0
M  V30 3679 O 355.574 1.61206 -1.10955 0
M  V30 3680 C 355.873 -0.963694 -3.44162 0
M  V30 3681 C 355.539 -2.41807 -3.80579 0
M  V30 3682 C 354.201 -2.81556 -3.9023 0
M  V30 3683 C 356.553 -3.36172 -3.98293 0
M  V30 3684 C 353.881 -4.14702 -4.15017 0
M  V30 3685 C 356.233 -4.68952 -4.24578 0
M  V30 3686 C 354.897 -5.08472 -4.32449 0
M  V30 3687 H 354.167 -0.233107 -0.703379 0
M  V30 3688 H 356.814 -1.2249 -1.47202 0
M  V30 3689 H 355.119 -0.29365 -3.90698 0
M  V30 3690 H 356.816 -0.682449 -3.9515 0
M  V30 3691 H 353.406 -2.09988 -3.73635 0
M  V30 3692 H 357.59 -3.06644 -3.90234 0
M  V30 3693 H 352.846 -4.4494 -4.19331 0
M  V30 3694 H 357.02 -5.42037 -4.37229 0
M  V30 3695 H 354.647 -6.11665 -4.51409 0
M  V30 3696 N 356.222 1.38976 -0.743202 0
M  V30 3697 C 357.469 2.00343 -0.294752 0
M  V30 3698 C 357.797 1.58983 1.12047 0
M  V30 3699 O 357.052 0.813809 1.77977 0
M  V30 3700 C 357.351 3.55647 -0.353517 0
M  V30 3701 C 357.017 4.16685 -1.72292 0
M  V30 3702 C 355.679 4.3307 -2.09771 0
M  V30 3703 C 358.031 4.50464 -2.62168 0
M  V30 3704 C 355.359 4.80526 -3.36618 0
M  V30 3705 C 357.711 4.99332 -3.88395 0
M  V30 3706 C 356.375 5.13924 -4.25956 0
M  V30 3707 H 355.645 0.733108 -0.107857 0
M  V30 3708 H 358.292 1.6618 -0.951651 0
M  V30 3709 H 356.597 3.89884 0.386954 0
M  V30 3710 H 358.294 4.00998 0.0117269 0
M  V30 3711 H 354.884 4.04339 -1.42155 0
M  V30 3712 H 359.068 4.37416 -2.3448 0
M  V30 3713 H 354.324 4.90008 -3.65653 0
M  V30 3714 H 358.498 5.2444 -4.58187 0
M  V30 3715 H 356.125 5.50457 -5.2431 0
M  V30 3716 N 357.7 0.491464 1.49741 0
M  V30 3717 C 358.949 -0.0582189 2.01616 0
M  V30 3718 C 359.262 -1.38927 1.3769 0
M  V30 3719 O 360.468 -2.02509 1.80838 0
M  V30 3720 C 358.924 -0.154235 3.59569 0
M  V30 3721 C 358.532 1.1696 4.32463 0
M  V30 3722 C 360.276 -0.65479 4.1942 0
M  V30 3723 C 358.183 1.03627 5.8225 0
M  V30 3724 H 357.113 -0.0255317 0.753568 0
M  V30 3725 H 359.764 0.629445 1.72367 0
M  V30 3726 H 358.146 -0.906138 3.85493 0
M  V30 3727 H 359.32 1.93405 4.18248 0
M  V30 3728 H 357.635 1.60285 3.84315 0
M  V30 3729 H 360.232 -0.771903 5.29099 0
M  V30 3730 H 360.575 -1.65127 3.8215 0
M  V30 3731 H 361.108 0.040304 3.9778 0
M  V30 3732 H 357.847 2.00672 6.24028 0
M  V30 3733 H 357.367 0.312546 5.98985 0
M  V30 3734 H 359.046 0.711114 6.4308 0
M  V30 3735 N 359.178 -1.55987 0.224894 0
M  V30 3736 C 360.425 -1.9839 -0.4059 0
M  V30 3737 C 360.753 -1.11261 -1.59535 0
M  V30 3738 O 360.008 -0.158314 -1.95059 0
M  V30 3739 C 360.307 -3.46394 -0.880106 0
M  V30 3740 C 359.973 -4.5046 0.19918 0
M  V30 3741 C 358.635 -4.7864 0.495661 0
M  V30 3742 C 360.987 -5.12855 0.928939 0
M  V30 3743 C 358.315 -5.66497 1.52636 0
M  V30 3744 C 360.667 -6.01828 1.949 0
M  V30 3745 C 359.331 -6.28351 2.25236 0
M  V30 3746 H 358.601 -0.725961 -0.148529 0
M  V30 3747 H 361.248 -1.88668 0.328113 0
M  V30 3748 H 359.553 -3.53337 -1.69294 0
M  V30 3749 H 361.25 -3.76577 -1.37808 0
M  V30 3750 H 357.84 -4.28579 -0.0420526 0
M  V30 3751 H 362.024 -4.9115 0.713129 0
M  V30 3752 H 357.28 -5.8531 1.76698 0
M  V30 3753 H 361.454 -6.49225 2.51951 0
M  V30 3754 H 359.081 -6.96226 3.05244 0
M  V30 3755 N 360.656 0.0484629 -1.57525 0
M  V30 3756 C 361.904 0.741657 -1.88 0
M  V30 3757 C 362.225 1.76918 -0.820054 0
M  V30 3758 O 361.495 1.95335 0.148661 0
M  V30 3759 H 360.075 0.276908 -0.69378 0
M  V30 3760 H 362.737 0.019013 -1.94891 0
M  V30 3761 H 361.833 1.24336 -2.86264 0
M  V30 3762 N 362.134 1.5431 0.320358 0
M  V30 3763 C 363.383 1.7188 1.05546 0
M  V30 3764 C 363.696 0.501143 1.89071 0
M  V30 3765 O 364.902 0.558258 2.65699 0
M  V30 3766 C 363.358 3.04025 1.92605 0
M  V30 3767 C 362.966 4.33207 1.14176 0
M  V30 3768 C 364.71 3.30959 2.65832 0
M  V30 3769 C 362.617 5.56412 2.00399 0
M  V30 3770 H 361.547 0.640547 0.397763 0
M  V30 3771 H 364.198 1.80802 0.313522 0
M  V30 3772 H 362.58 2.89019 2.7071 0
M  V30 3773 H 363.754 4.58989 0.40819 0
M  V30 3774 H 362.069 4.13062 0.526165 0
M  V30 3775 H 364.666 4.20203 3.30656 0
M  V30 3776 H 365.009 2.48979 3.33639 0
M  V30 3777 H 365.542 3.46847 1.94787 0
M  V30 3778 H 362.281 6.41004 1.37094 0
M  V30 3779 H 361.801 5.34844 2.7148 0
M  V30 3780 H 363.48 5.92938 2.58908 0
M  V30 3781 N 363.613 -0.582584 1.46437 0
M  V30 3782 C 364.859 -1.34278 1.51978 0
M  V30 3783 C 365.192 -1.93446 0.170973 0
M  V30 3784 O 364.467 -1.76481 -0.817608 0
M  V30 3785 C 364.75 -2.47203 2.61845 0
M  V30 3786 C 364.603 -1.93069 4.06257 0
M  V30 3787 C 365.922 -3.49247 2.67795 0
M  V30 3788 H 363.041 -0.486876 0.553282 0
M  V30 3789 H 365.683 -0.654437 1.78374 0
M  V30 3790 H 363.833 -3.0592 2.39469 0
M  V30 3791 H 365.505 -1.38808 4.3992 0
M  V30 3792 H 363.748 -1.23898 4.1573 0
M  V30 3793 H 364.419 -2.74586 4.7886 0
M  V30 3794 H 366.895 -3.00411 2.8791 0
M  V30 3795 H 365.771 -4.25719 3.46489 0
M  V30 3796 H 366.032 -4.06482 1.73852 0
M  V30 3797 N 365.091 -1.34144 -0.827227 0
M  V30 3798 C 366.339 -1.26009 -1.58007 0
M  V30 3799 C 366.66 0.170971 -1.94249 0
M  V30 3800 O 365.93 1.10256 -1.61927 0
M  V30 3801 H 364.51 -0.463414 -0.585881 0
M  V30 3802 H 367.172 -1.68005 -0.987951 0
M  V30 3803 H 366.268 -1.86187 -2.50481 0
M  V30 3804 N 366.569 1.04691 -1.17803 0
M  V30 3805 C 367.815 1.78045 -0.970969 0
M  V30 3806 C 368.148 1.87686 0.498751 0
M  V30 3807 O 367.423 1.38035 1.37027 0
M  V30 3808 C 367.706 3.2166 -1.61884 0
M  V30 3809 C 367.559 3.20001 -3.161 0
M  V30 3810 C 368.878 4.1962 -1.3269 0
M  V30 3811 H 365.997 0.64633 -0.354155 0
M  V30 3812 H 368.639 1.22333 -1.45378 0
M  V30 3813 H 366.789 3.69232 -1.20831 0
M  V30 3814 H 368.461 2.80467 -3.66246 0
M  V30 3815 H 366.704 2.58203 -3.48588 0
M  V30 3816 H 367.375 4.21386 -3.56564 0
M  V30 3817 H 369.851 3.80567 -1.68249 0
M  V30 3818 H 368.727 5.18339 -1.80599 0
M  V30 3819 H 368.988 4.414 -0.248622 0
M  V30 3820 N 368.047 0.979072 1.23499 0
M  V30 3821 C 368.979 0.476271 2.24197 0
M  V30 3822 C 369.992 -0.421166 1.57258 0
M  V30 3823 O 371.181 -0.225515 1.7707 0
M  V30 3824 C 368.281 -0.330503 3.37285 0
M  V30 3825 C 367.454 0.559744 4.33804 0
M  V30 3826 C 366.513 -0.192954 5.25846 0
M  V30 3827 O 365.539 0.416978 5.67671 0
M  V30 3828 N 366.741 -1.47932 5.61334 0
M  V30 3829 H 369.506 1.34211 2.67969 0
M  V30 3830 H 367.067 0.852189 1.37657 0
M  V30 3831 H 369.059 -0.842361 3.95836 0
M  V30 3832 H 367.629 -1.09734 2.92707 0
M  V30 3833 H 366.849 1.25245 3.73775 0
M  V30 3834 H 368.137 1.1665 4.95248 0
M  V30 3835 H 367.535 -1.9964 5.29302 0
M  V30 3836 H 366.092 -1.93664 6.22364 0
M  V30 3837 N 369.525 -1.3858 0.750561 0
M  V30 3838 C 370.455 -2.33102 0.136237 0
M  V30 3839 C 371.436 -1.54713 -0.706965 0
M  V30 3840 O 372.621 -1.83043 -0.648769 0
M  V30 3841 C 369.751 -3.38882 -0.760017 0
M  V30 3842 C 368.705 -4.27995 -0.0197785 0
M  V30 3843 C 368.031 -5.24605 -1.03408 0
M  V30 3844 C 369.331 -5.09554 1.14684 0
M  V30 3845 H 371.025 -2.84726 0.925822 0
M  V30 3846 H 368.571 -1.36898 0.446654 0
M  V30 3847 H 370.524 -4.0397 -1.19943 0
M  V30 3848 H 369.248 -2.85734 -1.58189 0
M  V30 3849 H 367.907 -3.64409 0.400184 0
M  V30 3850 H 367.555 -4.67746 -1.84994 0
M  V30 3851 H 367.255 -5.85081 -0.543464 0
M  V30 3852 H 368.779 -5.9257 -1.47288 0
M  V30 3853 H 370.193 -5.67899 0.785118 0
M  V30 3854 H 368.59 -5.7925 1.56812 0
M  V30 3855 H 369.66 -4.4347 1.96118 0
M  V30 3856 N 371.003 -0.499398 -1.49478 0
M  V30 3857 C 372.249 0.0377587 -2.03365 0
M  V30 3858 C 372.604 1.3484 -1.37244 0
M  V30 3859 O 371.897 1.85 -0.498547 0
M  V30 3860 C 372.091 0.248424 -3.56536 0
M  V30 3861 C 371.92 -1.04025 -4.37503 0
M  V30 3862 C 370.69 -1.59159 -4.79579 0
M  V30 3863 C 372.888 -1.9431 -4.76181 0
M  V30 3864 N 370.87 -2.82634 -5.44969 0
M  V30 3865 C 372.241 -3.02364 -5.41272 0
M  V30 3866 C 374.296 -1.95008 -4.58123 0
M  V30 3867 C 372.999 -4.1114 -5.90217 0
M  V30 3868 C 375.025 -3.02758 -5.08027 0
M  V30 3869 C 374.387 -4.09531 -5.73118 0
M  V30 3870 H 370.486 -0.026923 -0.781536 0
M  V30 3871 H 373.07 -0.673901 -1.82665 0
M  V30 3872 H 371.241 0.929139 -3.77123 0
M  V30 3873 H 372.973 0.782445 -3.97064 0
M  V30 3874 H 369.728 -1.13696 -4.5975 0
M  V30 3875 H 370.152 -3.45416 -5.82252 0
M  V30 3876 H 374.794 -1.13766 -4.07207 0
M  V30 3877 H 372.512 -4.93181 -6.40155 0
M  V30 3878 H 376.098 -3.04315 -4.95866 0
M  V30 3879 H 374.978 -4.91534 -6.11035 0
M  V30 3880 N 372.481 1.55866 -0.233164 0
M  V30 3881 C 373.444 2.1953 0.658715 0
M  V30 3882 C 374.444 1.16053 1.11303 0
M  V30 3883 O 375.634 1.41218 1.01996 0
M  V30 3884 C 372.766 2.82791 1.90373 0
M  V30 3885 H 373.959 2.99721 0.10347 0
M  V30 3886 H 371.512 1.56291 0.0164245 0
M  V30 3887 H 372.247 2.06501 2.50056 0
M  V30 3888 H 372.032 3.58578 1.58632 0
M  V30 3889 H 373.522 3.31556 2.53891 0
M  V30 3890 N 373.959 -0.0401083 1.57549 0
M  V30 3891 C 375.207 -0.731677 1.8839 0
M  V30 3892 C 375.528 -1.76481 0.829425 0
M  V30 3893 O 374.798 -1.95411 -0.1383 0
M  V30 3894 H 373.378 -0.273225 0.695239 0
M  V30 3895 H 376.04 -0.00867725 1.94898 0
M  V30 3896 H 375.136 -1.22816 2.86919 0
M  V30 3897 N 375.437 -1.54477 -0.31217 0
M  V30 3898 C 376.367 -1.87652 -1.38957 0
M  V30 3899 C 377.348 -0.734358 -1.53431 0
M  V30 3900 O 378.533 -0.98911 -1.67123 0
M  V30 3901 C 375.663 -2.11396 -2.75552 0
M  V30 3902 C 374.617 -3.27243 -2.75855 0
M  V30 3903 C 373.943 -3.36382 -4.15633 0
M  V30 3904 C 375.243 -4.64622 -2.38587 0
M  V30 3905 H 376.937 -2.77887 -1.11442 0
M  V30 3906 H 374.483 -1.33707 -0.534655 0
M  V30 3907 H 376.436 -2.33189 -3.51 0
M  V30 3908 H 375.16 -1.17921 -3.04569 0
M  V30 3909 H 373.819 -3.05356 -2.02863 0
M  V30 3910 H 373.467 -2.40445 -4.41809 0
M  V30 3911 H 373.167 -4.14249 -4.1674 0
M  V30 3912 H 374.691 -3.60422 -4.92877 0
M  V30 3913 H 376.105 -4.86219 -3.03749 0
M  V30 3914 H 374.502 -5.45121 -2.50925 0
M  V30 3915 H 375.572 -4.66097 -1.33723 0
M  V30 3916 N 376.915 0.57481 -1.46744 0
M  V30 3917 C 377.845 1.69337 -1.60771 0
M  V30 3918 C 378.826 1.63825 -0.457736 0
M  V30 3919 O 380.011 1.8172 -0.684947 0
M  V30 3920 C 377.141 3.0798 -1.60517 0
M  V30 3921 C 376.095 3.28327 -2.74564 0
M  V30 3922 C 375.421 4.67578 -2.59373 0
M  V30 3923 C 376.721 3.15398 -4.16319 0
M  V30 3924 H 378.415 1.57853 -2.54407 0
M  V30 3925 H 375.961 0.75799 -1.22436 0
M  V30 3926 H 377.914 3.86061 -1.68923 0
M  V30 3927 H 376.638 3.20381 -0.634305 0
M  V30 3928 H 375.297 2.52649 -2.65639 0
M  V30 3929 H 374.945 4.76755 -1.60353 0
M  V30 3930 H 374.645 4.82144 -3.35873 0
M  V30 3931 H 376.169 5.47817 -2.69682 0
M  V30 3932 H 377.583 3.83315 -4.26313 0
M  V30 3933 H 375.98 3.41482 -4.93468 0
M  V30 3934 H 377.05 2.12372 -4.3592 0
M  V30 3935 N 378.394 1.34581 0.820102 0
M  V30 3936 C 379.81 1.14325 1.11364 0
M  V30 3937 C 380.01 -0.0533648 2.01429 0
M  V30 3938 O 379.066 -0.728044 2.41776 0
M  V30 3939 C 380.379 2.43983 1.75764 0
M  V30 3940 C 381.927 2.50065 1.88246 0
M  V30 3941 C 382.402 3.79732 2.56061 0
M  V30 3942 N 383.893 3.80908 2.63558 0
M  V30 3943 C 384.628 4.77961 3.16766 0
M  V30 3944 N 384.124 5.85397 3.70517 0
M  V30 3945 N 385.917 4.65413 3.15194 0
M  V30 3946 H 378.068 2.11246 0.221096 0
M  V30 3947 H 380.331 0.934289 0.160649 0
M  V30 3948 H 380.037 3.31651 1.1705 0
M  V30 3949 H 379.911 2.57531 2.75604 0
M  V30 3950 H 382.298 1.62834 2.46108 0
M  V30 3951 H 382.379 2.40442 0.873006 0
M  V30 3952 H 382.023 4.67354 1.98853 0
M  V30 3953 H 381.953 3.86639 3.57516 0
M  V30 3954 H 384.444 3.03274 2.25463 0
M  V30 3955 H 384.757 6.55463 4.09376 0
M  V30 3956 H 383.102 5.89107 3.68752 0
M  V30 3957 H 386.293 3.80627 2.72471 0
M  V30 3958 H 386.466 5.41216 3.56356 0
M  V30 3959 N 379.872 -1.04064 1.18357 0
M  V30 3960 C 380.82 -2.14187 0.907007 0
M  V30 3961 C 381.814 -1.68879 -0.132725 0
M  V30 3962 O 383.02 -1.79993 0.0154248 0
M  V30 3963 H 379.395 -0.699585 0.275835 0
M  V30 3964 H 381.366 -2.34711 1.84264 0
M  V30 3965 C 380.115 -3.44785 0.449254 0
M  V30 3966 H 379.438 -3.80058 1.24081 0
M  V30 3967 H 380.878 -4.22974 0.294737 0
M  V30 3968 C 379.337 -3.26391 -0.834909 0
M  V30 3969 O 379.867 -3.53973 -1.89911 0
M  V30 3970 N 378.073 -2.79726 -0.787523 0
M  V30 3971 H 377.62 -2.5748 0.0787347 0
M  V30 3972 H 377.578 -2.67798 -1.64716 0
M  V30 3973 N 381.35 -0.985608 -1.22978 0
M  V30 3974 C 382.766 -0.695104 -1.43668 0
M  V30 3975 C 382.966 0.736866 -1.87543 0
M  V30 3976 O 382.022 1.50868 -2.02473 0
M  V30 3977 C 383.335 -1.69447 -2.48412 0
M  V30 3978 C 384.883 -1.70909 -2.62219 0
M  V30 3979 C 385.358 -2.6969 -3.70178 0
M  V30 3980 N 386.849 -2.6824 -3.77626 0
M  V30 3981 C 387.584 -3.41339 -4.60733 0
M  V30 3982 N 387.08 -4.24015 -5.4789 0
M  V30 3983 N 388.873 -3.30079 -4.54977 0
M  V30 3984 H 381.024 -1.91054 -0.928016 0
M  V30 3985 H 383.287 -0.823553 -0.469536 0
M  V30 3986 H 382.993 -2.7188 -2.23102 0
M  V30 3987 H 382.867 -1.48147 -3.46889 0
M  V30 3988 H 385.254 -0.691785 -2.86877 0
M  V30 3989 H 385.335 -1.96276 -1.6404 0
M  V30 3990 H 384.979 -3.71566 -3.46268 0
M  V30 3991 H 384.909 -2.41595 -4.67909 0
M  V30 3992 H 387.4 -2.08243 -3.15346 0
M  V30 3993 H 387.713 -4.76636 -6.08308 0
M  V30 3994 H 386.058 -4.28104 -5.47496 0
M  V30 3995 H 389.249 -2.64937 -3.85909 0
M  V30 3996 H 389.422 -3.87308 -5.19516 0
M  V30 3997 N 382.828 1.3818 -0.7579 0
M  V30 3998 C 384.068 2.01864 -0.320968 0
M  V30 3999 C 384.432 1.58863 1.07827 0
M  V30 4000 O 385.633 2.14908 1.61456 0
M  V30 4001 C 383.904 3.54626 -0.44446 0
M  V30 4002 S 385.463 4.38706 -0.0907467 0
M  V30 4003 H 382.281 0.700056 -0.124268 0
M  V30 4004 H 384.883 1.68611 -0.989468 0
M  V30 4005 H 383.587 3.83411 -1.4637 0
M  V30 4006 H 383.118 3.92661 0.241073 0
M  V30 4007 H 385.133 4.83435 1.11826 0
M  V30 4008 N 384.306 0.507319 1.49211 0
M  V30 4009 C 385.553 -0.0349529 2.0247 0
M  V30 4010 C 385.881 -1.36409 1.38647 0
M  V30 4011 O 385.136 -1.88841 0.513566 0
M  V30 4012 C 385.435 -0.229513 3.56662 0
M  V30 4013 C 385.101 1.02241 4.39156 0
M  V30 4014 C 383.763 1.36557 4.61417 0
M  V30 4015 C 386.115 1.85428 4.871 0
M  V30 4016 C 383.443 2.53999 5.28868 0
M  V30 4017 C 385.795 3.02028 5.55843 0
M  V30 4018 C 384.459 3.36717 5.76349 0
M  V30 4019 H 383.729 -0.0127902 0.74089 0
M  V30 4020 H 386.376 0.668756 1.79443 0
M  V30 4021 H 384.681 -1.0158 3.78403 0
M  V30 4022 H 386.378 -0.663641 3.9547 0
M  V30 4023 H 382.968 0.745124 4.22073 0
M  V30 4024 H 387.152 1.6023 4.69723 0
M  V30 4025 H 382.408 2.81105 5.42946 0
M  V30 4026 H 386.582 3.66808 5.91967 0
M  V30 4027 H 384.209 4.27821 6.28389 0
M  V30 4028 N 385.784 -1.5574 0.241426 0
M  V30 4029 C 386.714 -2.24133 -0.654722 0
M  V30 4030 C 387.695 -1.21974 -1.1856 0
M  V30 4031 O 388.88 -1.50612 -1.22595 0
M  V30 4032 C 386.01 -2.93659 -1.85423 0
M  V30 4033 C 384.964 -4.0246 -1.45636 0
M  V30 4034 C 384.29 -4.59383 -2.73626 0
M  V30 4035 C 385.59 -5.18468 -0.631506 0
M  V30 4036 H 387.284 -2.99281 -0.0844353 0
M  V30 4037 H 384.83 -1.43947 -0.0391707 0
M  V30 4038 H 386.783 -3.40203 -2.48676 0
M  V30 4039 H 385.507 -2.15991 -2.44981 0
M  V30 4040 H 384.166 -3.56676 -0.847202 0
M  V30 4041 H 383.814 -3.78422 -3.3137 0
M  V30 4042 H 383.514 -5.32826 -2.4773 0
M  V30 4043 H 385.038 -5.08658 -3.37786 0
M  V30 4044 H 386.452 -5.61272 -1.1682 0
M  V30 4045 H 384.849 -5.98266 -0.468831 0
M  V30 4046 H 385.919 -4.8358 0.357506 0
M  V30 4047 N 387.262 0.0317525 -1.57568 0
M  V30 4048 C 388.539 0.758366 -1.803 0
M  V30 4049 C 388.919 1.93718 -0.838845 0
M  V30 4050 O 388.267 2.28187 0.119571 0
M  V30 4051 C 388.477 1.19392 -3.27943 0
M  V30 4052 C 389.825 1.61094 -3.92854 0
M  V30 4053 O 390.849 1.28857 -3.32076 0
M  V30 4054 O 389.708 2.20918 -4.99858 0
M  V30 4055 H 386.802 0.366514 -0.741348 0
M  V30 4056 H 389.348 0.00873765 -1.69698 0
M  V30 4057 H 388.12 0.352275 -3.89711 0
M  V30 4058 H 387.743 2.00365 -3.43424 0
M  V30 4059 N 388.74 1.54641 0.303973 0
M  V30 4060 C 389.965 1.78092 1.06292 0
M  V30 4061 C 390.39 0.537342 1.80262 0
M  V30 4062 O 389.748 -0.511993 1.7392 0
M  V30 4063 C 389.796 2.98612 2.02147 0
M  V30 4064 O 388.9 2.71528 3.10397 0
M  V30 4065 H 388.241 0.589548 0.305497 0
M  V30 4066 H 390.771 2.01716 0.3423 0
M  V30 4067 H 390.781 3.265 2.44667 0
M  V30 4068 H 389.456 3.88785 1.47714 0
M  V30 4069 H 388.033 2.54648 2.72413 0
M  V30 4070 N 390.218 -0.567019 1.47046 0
M  V30 4071 C 391.181 -1.65696 1.58359 0
M  V30 4072 C 392.181 -1.54097 0.459441 0
M  V30 4073 O 393.371 -1.58432 0.724225 0
M  V30 4074 C 390.503 -3.05197 1.51879 0
M  V30 4075 H 391.696 -1.57019 2.5551 0
M  V30 4076 H 389.249 -0.786148 1.3509 0
M  V30 4077 H 389.984 -3.19417 0.560673 0
M  V30 4078 H 389.769 -3.15025 2.33455 0
M  V30 4079 H 391.259 -3.84511 1.62913 0
M  V30 4080 N 391.696 -1.35014 -0.812953 0
M  V30 4081 C 392.943 -1.27931 -1.56971 0
M  V30 4082 C 393.271 0.148034 -1.93936 0
M  V30 4083 O 392.526 1.11175 -1.61054 0
M  V30 4084 C 392.825 -2.12524 -2.87347 0
M  V30 4085 C 392.491 -3.61401 -2.6963 0
M  V30 4086 C 391.153 -4.01983 -2.64506 0
M  V30 4087 C 393.505 -4.55894 -2.52607 0
M  V30 4088 C 390.833 -5.35235 -2.40293 0
M  V30 4089 C 393.185 -5.89336 -2.29925 0
M  V30 4090 C 391.849 -6.2907 -2.23219 0
M  V30 4091 H 391.119 -0.468131 -0.574399 0
M  V30 4092 H 393.766 -1.66851 -0.939836 0
M  V30 4093 H 392.071 -1.66463 -3.54679 0
M  V30 4094 H 393.768 -2.04383 -3.45005 0
M  V30 4095 H 390.358 -3.29193 -2.74463 0
M  V30 4096 H 394.542 -4.25431 -2.55583 0
M  V30 4097 H 389.798 -5.65028 -2.33566 0
M  V30 4098 H 393.972 -6.62139 -2.15743 0
M  V30 4099 H 391.599 -7.32256 -2.04219 0
M  V30 4100 N 393.175 1.03435 -1.18907 0
M  V30 4101 C 394.421 1.77005 -0.989798 0
M  V30 4102 C 394.754 1.88205 0.478816 0
M  V30 4103 O 394.029 1.39481 1.35556 0
M  V30 4104 C 394.312 3.19925 -1.65287 0
M  V30 4105 C 394.165 3.1663 -3.19477 0
M  V30 4106 C 395.484 4.18189 -1.37134 0
M  V30 4107 H 392.603 0.642538 -0.360991 0
M  V30 4108 H 395.245 1.20784 -1.46667 0
M  V30 4109 H 393.395 3.67929 -1.24741 0
M  V30 4110 H 395.067 2.76567 -3.692 0
M  V30 4111 H 393.31 2.54491 -3.51307 0
M  V30 4112 H 393.981 4.1758 -3.61013 0
M  V30 4113 H 396.457 3.78761 -1.72276 0
M  V30 4114 H 395.333 5.16394 -1.86087 0
M  V30 4115 H 395.594 4.41112 -0.295424 0
M  V30 4116 N 394.653 0.992116 1.22453 0
M  V30 4117 C 396.069 0.702713 1.43297 0
M  V30 4118 C 396.269 -0.726909 1.87932 0
M  V30 4119 O 395.325 -1.49792 2.0327 0
M  V30 4120 C 396.638 1.70762 2.47509 0
M  V30 4121 C 398.186 1.72298 2.61309 0
M  V30 4122 C 398.661 2.71649 3.68742 0
M  V30 4123 N 400.152 2.70239 3.76199 0
M  V30 4124 C 400.887 3.43778 4.58917 0
M  V30 4125 N 400.383 4.26914 5.45633 0
M  V30 4126 N 402.176 3.32487 4.5322 0
M  V30 4127 H 394.327 1.91543 0.917871 0
M  V30 4128 H 396.59 0.826031 0.465162 0
M  V30 4129 H 396.296 2.73059 2.21657 0
M  V30 4130 H 396.17 1.49985 3.46099 0
M  V30 4131 H 398.557 0.706989 2.86506 0
M  V30 4132 H 398.638 1.97143 1.62997 0
M  V30 4133 H 398.282 3.73397 3.44292 0
M  V30 4134 H 398.212 2.44074 4.66622 0
M  V30 4135 H 400.703 2.09912 3.14237 0
M  V30 4136 H 401.016 4.79855 6.05771 0
M  V30 4137 H 399.361 4.31002 5.45218 0
M  V30 4138 H 402.552 2.6698 3.84499 0
M  V30 4139 H 402.725 3.90058 5.17454 0
M  V30 4140 N 396.131 -1.37776 0.765217 0
M  V30 4141 C 397.079 -2.32209 0.134798 0
M  V30 4142 C 398.073 -1.54607 -0.692315 0
M  V30 4143 O 399.279 -1.70052 -0.590109 0
M  V30 4144 H 395.654 -0.751591 0.0248005 0
M  V30 4145 H 397.625 -2.8297 0.947119 0
M  V30 4146 C 396.374 -3.39841 -0.735063 0
M  V30 4147 H 395.697 -3.99654 -0.107991 0
M  V30 4148 H 397.137 -4.08296 -1.14326 0
M  V30 4149 C 395.596 -2.79378 -1.88281 0
M  V30 4150 O 396.126 -2.69608 -2.97783 0
M  V30 4151 N 394.332 -2.37016 -1.68142 0
M  V30 4152 H 393.879 -2.45162 -0.790772 0
M  V30 4153 H 393.837 -1.96905 -2.45104 0
M  V30 4154 N 397.609 -0.515225 -1.4894 0
M  V30 4155 C 398.557 0.269115 -2.31038 0
M  V30 4156 C 399.551 0.949443 -1.40292 0
M  V30 4157 O 400.757 0.87551 -1.57273 0
M  V30 4158 H 397.132 0.10565 -0.744542 0
M  V30 4159 H 399.103 -0.443096 -2.95092 0
M  V30 4160 C 397.852 1.31213 -3.21991 0
M  V30 4161 H 397.175 0.798034 -3.91754 0
M  V30 4162 H 398.615 1.83263 -3.82349 0
M  V30 4163 C 397.074 2.33791 -2.42576 0
M  V30 4164 O 397.604 3.3995 -2.14003 0
M  V30 4165 N 395.81 2.06625 -2.0434 0
M  V30 4166 H 395.357 1.20314 -2.27777 0
M  V30 4167 H 395.315 2.75483 -1.51514 0
M  V30 4168 N 399.087 1.5561 -0.249682 0
M  V30 4169 C 400.035 2.22894 0.664906 0
M  V30 4170 C 401.029 1.21743 1.17792 0
M  V30 4171 O 402.235 1.39748 1.13449 0
M  V30 4172 H 398.61 0.715022 0.232912 0
M  V30 4173 H 400.581 2.98307 0.0742998 0
M  V30 4174 C 399.33 2.94424 1.84959 0
M  V30 4175 H 398.653 3.72031 1.46399 0
M  V30 4176 H 400.093 3.44862 2.4667 0
M  V30 4177 C 398.552 1.98454 2.72245 0
M  V30 4178 O 399.082 1.51939 3.71857 0
M  V30 4179 N 397.288 1.65496 2.38871 0
M  V30 4180 H 396.835 2.03517 1.57919 0
M  V30 4181 H 396.793 1.0155 2.97548 0
M  V30 4182 N 400.565 -0.0233959 1.57583 0
M  V30 4183 C 401.495 -1.02162 2.09965 0
M  V30 4184 C 402.476 -1.3735 1.00344 0
M  V30 4185 O 403.661 -1.46135 1.27899 0
M  V30 4186 C 400.791 -2.32081 2.58371 0
M  V30 4187 C 399.745 -2.1112 3.72307 0
M  V30 4188 C 399.071 -3.46848 4.06941 0
M  V30 4189 C 400.371 -1.49276 5.00514 0
M  V30 4190 H 402.065 -0.585557 2.93618 0
M  V30 4191 H 399.611 -0.280218 1.41247 0
M  V30 4192 H 401.564 -3.02249 2.93639 0
M  V30 4193 H 400.288 -2.77758 1.71808 0
M  V30 4194 H 398.947 -1.43384 3.37397 0
M  V30 4195 H 398.595 -3.90184 3.17436 0
M  V30 4196 H 398.295 -3.33646 4.83688 0
M  V30 4197 H 399.819 -4.18369 4.44747 0
M  V30 4198 H 401.233 -2.09368 5.33702 0
M  V30 4199 H 399.63 -1.46632 5.8191 0
M  V30 4200 H 400.7 -0.459217 4.82721 0
M  V30 4201 N 402.043 -1.548 -0.295768 0
M  V30 4202 C 403.271 -1.78327 -1.04914 0
M  V30 4203 C 403.686 -0.545316 -1.80753 0
M  V30 4204 O 403.043 0.485013 -1.75937 0
M  V30 4205 C 403.094 -2.99418 -2.02561 0
M  V30 4206 O 402.815 -4.18431 -1.29798 0
M  V30 4207 C 404.316 -3.35375 -2.89895 0
M  V30 4208 H 401.536 -0.594618 -0.310918 0
M  V30 4209 H 404.08 -2.01763 -0.333454 0
M  V30 4210 H 402.235 -2.78175 -2.69624 0
M  V30 4211 H 402.649 -4.86736 -1.95419 0
M  V30 4212 H 404.123 -4.23332 -3.54251 0
M  V30 4213 H 404.6 -2.53761 -3.58472 0
M  V30 4214 H 405.206 -3.58796 -2.28355 0
M  V30 4215 N 403.521 0.559213 -1.47345 0
M  V30 4216 C 404.768 1.31648 -1.53867 0
M  V30 4217 C 405.096 1.93468 -0.200104 0
M  V30 4218 O 404.351 1.78295 0.806799 0
M  V30 4219 C 404.65 2.44853 -2.6035 0
M  V30 4220 C 404.316 2.00876 -4.03683 0
M  V30 4221 C 402.978 1.88599 -4.42701 0
M  V30 4222 C 405.33 1.67279 -4.93626 0
M  V30 4223 C 402.658 1.41017 -5.69501 0
M  V30 4224 C 405.01 1.21169 -6.20887 0
M  V30 4225 C 403.674 1.07487 -6.58789 0
M  V30 4226 H 402.944 0.481734 -0.56304 0
M  V30 4227 H 405.591 0.627301 -1.80934 0
M  V30 4228 H 403.896 3.19318 -2.27032 0
M  V30 4229 H 405.593 3.03039 -2.62619 0
M  V30 4230 H 402.183 2.11374 -3.72853 0
M  V30 4231 H 406.367 1.75638 -4.64182 0
M  V30 4232 H 401.623 1.29086 -5.97618 0
M  V30 4233 H 405.797 0.942345 -6.89995 0
M  V30 4234 H 403.424 0.703946 -7.56934 0
M  V30 4235 N 404.999 1.35443 0.805782 0
M  V30 4236 C 405.929 1.31095 1.93226 0
M  V30 4237 C 406.91 0.185244 1.69088 0
M  V30 4238 O 408.095 0.380332 1.90439 0
M  V30 4239 C 405.225 1.08299 3.29983 0
M  V30 4240 C 404.179 2.17519 3.68605 0
M  V30 4241 C 403.505 1.79887 5.03532 0
M  V30 4242 C 404.805 3.5949 3.78898 0
M  V30 4243 H 406.499 2.25352 1.97122 0
M  V30 4244 H 404.045 1.0848 0.946996 0
M  V30 4245 H 405.998 1.03897 4.08391 0
M  V30 4246 H 404.722 0.104885 3.26432 0
M  V30 4247 H 403.381 2.2102 2.92482 0
M  V30 4248 H 403.029 0.80693 4.96485 0
M  V30 4249 H 402.729 2.53001 5.30344 0
M  V30 4250 H 404.253 1.77011 5.84379 0
M  V30 4251 H 405.667 3.58307 4.47536 0
M  V30 4252 H 404.064 4.31371 4.1718 0
M  V30 4253 H 405.134 3.95584 2.80431 0
M  V30 4254 N 406.477 -1.02803 1.19454 0
M  V30 4255 C 407.893 -1.28473 0.946937 0
M  V30 4256 C 408.093 -1.97881 -0.380202 0
M  V30 4257 O 407.149 -2.26719 -1.11151 0
M  V30 4258 C 408.462 -2.13099 2.12154 0
M  V30 4259 C 410.01 -2.26404 2.16126 0
M  V30 4260 C 410.485 -3.14402 3.33039 0
M  V30 4261 N 411.976 -3.21991 3.32981 0
M  V30 4262 C 412.711 -3.90272 4.20089 0
M  V30 4263 N 412.207 -4.60777 5.17355 0
M  V30 4264 N 414 -3.8668 4.07964 0
M  V30 4265 H 406.151 -0.561665 2.04839 0
M  V30 4266 H 408.414 -0.310438 0.89573 0
M  V30 4267 H 408.12 -1.69422 3.08203 0
M  V30 4268 H 407.994 -3.13813 2.09287 0
M  V30 4269 H 410.381 -2.69311 1.20647 0
M  V30 4270 H 410.462 -1.25237 2.23045 0
M  V30 4271 H 410.106 -2.72204 4.28798 0
M  V30 4272 H 410.036 -4.1563 3.23356 0
M  V30 4273 H 412.527 -2.71778 2.62574 0
M  V30 4274 H 412.84 -5.10513 5.80169 0
M  V30 4275 H 411.185 -4.5964 5.21302 0
M  V30 4276 H 414.376 -3.30739 3.31254 0
M  V30 4277 H 414.549 -4.39621 4.76064 0
M  V30 4278 N 407.956 -0.998596 -1.21925 0
M  V30 4279 C 409.367 -0.711939 -1.72593 0
M  V30 4280 C 409.718 0.770842 -1.80423 0
M  V30 4281 O 408.843 1.60237 -1.4544 0
M  V30 4282 C 409.438 -1.28567 -3.13458 0
M  V30 4283 C 407.997 -1.04828 -3.61508 0
M  V30 4284 C 407.144 -1.4024 -2.39224 0
M  V30 4285 H 410.095 -1.17027 -1.07193 0
M  V30 4286 H 410.116 -0.667098 -3.74607 0
M  V30 4287 H 409.628 -2.36486 -3.07727 0
M  V30 4288 H 407.729 0.0140383 -3.72597 0
M  V30 4289 H 407.842 -1.71566 -4.47328 0
M  V30 4290 H 406.206 -0.821077 -2.41103 0
M  V30 4291 H 406.989 -2.49176 -2.36149 0
M  V30 4292 N 409.434 1.37368 -0.772513 0
M  V30 4293 C 410.664 2.03647 -0.348082 0
M  V30 4294 C 411.072 1.58392 1.03482 0
M  V30 4295 O 410.415 0.760921 1.672 0
M  V30 4296 C 410.477 3.58131 -0.313404 0
M  V30 4297 C 410.141 4.2652 -1.64102 0
M  V30 4298 C 411.138 4.50587 -2.5936 0
M  V30 4299 C 408.823 4.64335 -1.91567 0
M  V30 4300 C 410.817 5.11526 -3.80289 0
M  V30 4301 C 408.504 5.24996 -3.12766 0
M  V30 4302 C 409.502 5.48529 -4.06946 0
M  V30 4303 O 409.19 6.07921 -5.26011 0
M  V30 4304 H 408.922 0.660538 -0.143753 0
M  V30 4305 H 411.476 1.76669 -1.04772 0
M  V30 4306 H 409.706 3.84159 0.442617 0
M  V30 4307 H 411.395 4.05813 0.0840613 0
M  V30 4308 H 412.161 4.21784 -2.39423 0
M  V30 4309 H 408.04 4.45353 -1.19088 0
M  V30 4310 H 411.584 5.29811 -4.53813 0
M  V30 4311 H 407.481 5.53223 -3.32588 0
M  V30 4312 H 408.249 6.26398 -5.26847 0
M  V30 4313 N 410.912 0.523116 1.48665 0
M  V30 4314 C 412.142 -0.00961724 2.06598 0
M  V30 4315 C 412.55 -1.29333 1.38093 0
M  V30 4316 O 411.893 -1.77846 0.46007 0
M  V30 4317 C 411.955 -0.311135 3.58151 0
M  V30 4318 C 411.619 0.878092 4.48485 0
M  V30 4319 C 412.616 1.77464 4.88674 0
M  V30 4320 C 410.301 1.08315 4.90483 0
M  V30 4321 C 412.295 2.86021 5.69623 0
M  V30 4322 C 409.982 2.17187 5.71203 0
M  V30 4323 C 410.98 3.05873 6.10681 0
M  V30 4324 O 410.668 4.12862 6.89783 0
M  V30 4325 H 410.4 0.0272658 0.67545 0
M  V30 4326 H 412.954 0.726156 1.92136 0
M  V30 4327 H 411.184 -1.10079 3.70701 0
M  V30 4328 H 412.873 -0.785125 3.98234 0
M  V30 4329 H 413.639 1.62813 4.56855 0
M  V30 4330 H 409.518 0.402149 4.59243 0
M  V30 4331 H 413.062 3.55272 6.00356 0
M  V30 4332 H 408.959 2.31824 6.02435 0
M  V30 4333 H 409.727 4.10487 7.08126 0
M  V30 4334 N 412.39 -1.55475 0.257931 0
M  V30 4335 C 413.322 -2.19192 -0.669881 0
M  V30 4336 C 414.335 -1.17148 -1.1305 0
M  V30 4337 O 415.524 -1.43959 -1.05537 0
M  V30 4338 C 412.624 -2.79016 -1.92363 0
M  V30 4339 C 411.797 -4.06586 -1.61265 0
M  V30 4340 C 410.856 -4.50622 -2.7171 0
M  V30 4341 O 409.882 -5.16765 -2.38627 0
M  V30 4342 N 411.084 -4.19325 -4.01431 0
M  V30 4343 H 413.849 -2.99441 -0.124635 0
M  V30 4344 H 411.41 -1.6171 0.0783311 0
M  V30 4345 H 413.402 -3.05427 -2.65511 0
M  V30 4346 H 411.972 -2.0286 -2.37837 0
M  V30 4347 H 411.192 -3.87646 -0.715811 0
M  V30 4348 H 412.48 -4.89737 -1.37967 0
M  V30 4349 H 411.878 -3.66247 -4.31138 0
M  V30 4350 H 410.435 -4.50547 -4.7101 0
M  V30 4351 N 413.868 0.0150385 -1.57593 0
M  V30 4352 C 415.096 0.714395 -1.94175 0
M  V30 4353 C 415.511 1.68135 -0.858841 0
M  V30 4354 O 414.868 1.81766 0.163567 0
M  V30 4355 C 414.919 1.45933 -3.30735 0
M  V30 4356 O 414.64 0.531167 -4.34868 0
M  V30 4357 C 416.141 2.25456 -3.81686 0
M  V30 4358 H 413.361 0.199923 -0.640525 0
M  V30 4359 H 415.905 -0.0316096 -2.04476 0
M  V30 4360 H 414.06 2.15709 -3.21789 0
M  V30 4361 H 414.474 1.05509 -5.13778 0
M  V30 4362 H 415.948 2.731 -4.79709 0
M  V30 4363 H 416.425 3.07485 -3.13607 0
M  V30 4364 H 417.031 1.60727 -3.9376 0
M  V30 4365 N 415.346 1.54954 0.287554 0
M  V30 4366 C 416.256 1.8991 1.37736 0
M  V30 4367 C 417.272 0.794701 1.54792 0
M  V30 4368 O 418.448 1.09243 1.69198 0
M  V30 4369 C 415.513 2.15108 2.71899 0
M  V30 4370 C 414.574 3.38752 2.63715 0
M  V30 4371 C 413.807 3.62739 3.91479 0
M  V30 4372 O 414.03 2.89492 4.91478 0
M  V30 4373 O 412.964 4.56267 3.92561 0
M  V30 4374 H 416.79 2.82652 1.11092 0
M  V30 4375 H 414.375 1.41315 0.484807 0
M  V30 4376 H 416.257 2.32806 3.51254 0
M  V30 4377 H 414.932 1.25551 2.9836 0
M  V30 4378 H 413.839 3.26405 1.82786 0
M  V30 4379 H 415.172 4.28483 2.42205 0
M  V30 4380 N 416.824 -0.551391 1.4764 0
M  V30 4381 C 417.734 -1.68525 1.63207 0
M  V30 4382 C 418.75 -1.6621 0.514815 0
M  V30 4383 O 419.926 -1.85551 0.783113 0
M  V30 4384 C 416.991 -3.05025 1.64805 0
M  V30 4385 C 416.052 -3.18362 2.88 0
M  V30 4386 C 415.285 -4.4835 2.89513 0
M  V30 4387 O 415.508 -5.34163 2.00065 0
M  V30 4388 O 414.442 -4.65602 3.81443 0
M  V30 4389 H 418.268 -1.58333 2.59161 0
M  V30 4390 H 415.853 -0.722063 1.30792 0
M  V30 4391 H 417.735 -3.86245 1.68502 0
M  V30 4392 H 416.41 -3.15587 0.720197 0
M  V30 4393 H 415.317 -2.36518 2.89845 0
M  V30 4394 H 416.65 -3.12707 3.80099 0
M  V30 4395 N 418.302 -1.35869 -0.798587 0
M  V30 4396 C 419.55 -1.29332 -1.55298 0
M  V30 4397 C 419.871 0.129729 -1.94568 0
M  V30 4398 O 419.141 1.06796 -1.6423 0
M  V30 4399 H 417.721 -0.475737 -0.57592 0
M  V30 4400 H 420.383 -1.70062 -0.952093 0
M  V30 4401 H 419.479 -1.91458 -2.46476 0
M  V30 4402 N 419.78 1.02168 -1.19998 0
M  V30 4403 C 420.69 2.14069 -0.959774 0
M  V30 4404 C 421.706 1.73804 0.082655 0
M  V30 4405 O 422.882 2.01133 -0.103633 0
M  V30 4406 C 419.947 3.42936 -0.509459 0
M  V30 4407 C 419.008 3.97474 -1.62213 0
M  V30 4408 C 418.241 5.2019 -1.19321 0
M  V30 4409 O 418.464 5.70369 -0.0597726 0
M  V30 4410 O 417.398 5.67749 -1.99863 0
M  V30 4411 H 421.224 2.37199 -1.89658 0
M  V30 4412 H 418.809 1.12469 -0.983411 0
M  V30 4413 H 420.691 4.20551 -0.267322 0
M  V30 4414 H 419.366 3.21234 0.398821 0
M  V30 4415 H 418.273 3.21161 -1.9185 0
M  V30 4416 H 419.606 4.23555 -2.50723 0
M  V30 4417 N 421.258 1.00505 1.21394 0
M  V30 4418 C 422.168 0.574806 2.27449 0
M  V30 4419 C 423.184 -0.382206 1.6975 0
M  V30 4420 O 424.36 -0.246027 1.99892 0
M  V30 4421 C 421.425 -0.0917414 3.46579 0
M  V30 4422 C 420.486 0.909758 4.1955 0
M  V30 4423 C 419.719 0.274924 5.32991 0
M  V30 4424 O 419.942 -0.928254 5.62796 0
M  V30 4425 O 418.876 0.985877 5.93771 0
M  V30 4426 H 422.702 1.45744 2.66444 0
M  V30 4427 H 420.287 0.773923 1.27792 0
M  V30 4428 H 422.169 -0.464551 4.18832 0
M  V30 4429 H 420.844 -0.948755 3.09484 0
M  V30 4430 H 419.751 1.33372 3.49518 0
M  V30 4431 H 421.084 1.73636 4.60555 0
M  V30 4432 N 422.737 -1.36956 0.779787 0
M  V30 4433 C 423.685 -2.32053 0.15942 0
M  V30 4434 C 424.679 -1.55333 -0.675878 0
M  V30 4435 O 425.885 -1.70668 -0.57204 0
M  V30 4436 H 422.26 -0.751286 0.0327707 0
M  V30 4437 H 424.231 -2.8195 0.977078 0
M  V30 4438 C 422.98 -3.40602 -0.698977 0
M  V30 4439 H 422.303 -3.99746 -0.0655966 0
M  V30 4440 H 423.743 -4.09486 -1.09989 0
M  V30 4441 C 422.202 -2.81359 -1.85307 0
M  V30 4442 O 422.732 -2.72751 -2.94906 0
M  V30 4443 N 420.938 -2.38786 -1.65619 0
M  V30 4444 H 420.485 -2.45987 -0.764725 0
M  V30 4445 H 420.443 -1.99493 -2.43002 0
M  V30 4446 N 424.215 -0.530993 -1.48385 0
M  V30 4447 C 425.626 -0.0907905 -1.86479 0
M  V30 4448 C 425.977 1.33213 -1.44044 0
M  V30 4449 O 425.102 1.99783 -0.831615 0
M  V30 4450 C 425.697 -0.157987 -3.38431 0
M  V30 4451 C 424.256 0.227026 -3.75715 0
M  V30 4452 C 423.403 -0.5173 -2.72432 0
M  V30 4453 H 426.354 -0.742186 -1.40276 0
M  V30 4454 H 426.375 0.630053 -3.75247 0
M  V30 4455 H 425.887 -1.19372 -3.69286 0
M  V30 4456 H 423.988 1.26486 -3.50474 0
M  V30 4457 H 424.101 -0.113288 -4.78966 0
M  V30 4458 H 422.465 0.0365527 -2.54674 0
M  V30 4459 H 423.248 -1.55368 -3.0613 0
M  V30 4460 N 425.693 1.55336 -0.266172 0
M  V30 4461 C 426.94 1.99397 0.353158 0
M  V30 4462 C 427.268 1.15451 1.56529 0
M  V30 4463 O 426.523 0.209974 1.9457 0
M  V30 4464 C 426.822 3.48606 0.787957 0
M  V30 4465 C 426.488 4.49773 -0.318541 0
M  V30 4466 C 425.15 4.77158 -0.62239 0
M  V30 4467 C 427.502 5.10212 -1.06459 0
M  V30 4468 C 424.83 5.62251 -1.67602 0
M  V30 4469 C 427.182 5.96449 -2.10788 0
M  V30 4470 C 425.846 6.22158 -2.41817 0
M  V30 4471 H 425.116 0.729644 0.12923 0
M  V30 4472 H 427.763 1.87732 -0.37802 0
M  V30 4473 H 426.068 3.57701 1.59866 0
M  V30 4474 H 427.765 3.80098 1.27775 0
M  V30 4475 H 424.355 4.2854 -0.0715925 0
M  V30 4476 H 428.539 4.89086 -0.843098 0
M  V30 4477 H 423.795 5.80419 -1.92155 0
M  V30 4478 H 427.969 6.42317 -2.69076 0
M  V30 4479 H 425.596 6.87888 -3.23596 0
M  V30 4480 N 427.171 -0.0066808 1.57599 0
M  V30 4481 C 428.42 -0.692078 1.89455 0
M  V30 4482 C 428.733 -1.75306 0.867586 0
M  V30 4483 O 429.939 -2.49262 1.07614 0
M  V30 4484 C 428.395 -1.2821 3.36289 0
M  V30 4485 C 428.003 -0.256291 4.47266 0
M  V30 4486 C 429.747 -1.94608 3.77264 0
M  V30 4487 C 427.654 -0.855927 5.85173 0
M  V30 4488 H 426.584 -0.262252 0.706923 0
M  V30 4489 H 429.235 0.052769 1.83424 0
M  V30 4490 H 427.617 -2.0774 3.37135 0
M  V30 4491 H 428.791 0.513923 4.57925 0
M  V30 4492 H 427.106 0.306862 4.15268 0
M  V30 4493 H 429.703 -2.40364 4.77629 0
M  V30 4494 H 430.046 -2.77382 3.10427 0
M  V30 4495 H 430.579 -1.21822 3.78688 0
M  V30 4496 H 427.318 -0.0671161 6.55466 0
M  V30 4497 H 426.838 -1.59546 5.78191 0
M  V30 4498 H 428.517 -1.35658 6.32618 0
M  V30 4499 N 428.649 -1.55105 -0.279332 0
M  V30 4500 C 429.889 -1.7716 -1.01949 0
M  V30 4501 C 430.253 -0.557511 -1.83728 0
M  V30 4502 O 431.454 -0.656198 -2.60667 0
M  V30 4503 C 429.725 -3.0372 -1.88385 0
M  V30 4504 S 431.284 -3.46868 -2.68752 0
M  V30 4505 H 428.102 -0.62253 -0.343478 0
M  V30 4506 H 430.704 -1.93329 -0.290572 0
M  V30 4507 H 429.408 -3.90184 -1.2722 0
M  V30 4508 H 428.939 -2.902 -2.65608 0
M  V30 4509 H 430.954 -3.05643 -3.90892 0
M  V30 4510 N 430.127 0.543554 -1.4793 0
M  V30 4511 C 431.352 1.32995 -1.59145 0
M  V30 4512 C 431.777 1.86472 -0.246956 0
M  V30 4513 O 431.135 1.63696 0.779324 0
M  V30 4514 C 431.183 2.46623 -2.63077 0
M  V30 4515 O 430.287 3.49261 -2.19295 0
M  V30 4516 H 429.628 0.394472 -0.534124 0
M  V30 4517 H 432.158 0.655489 -1.93816 0
M  V30 4518 H 432.168 2.93001 -2.83926 0
M  V30 4519 H 430.843 2.07059 -3.60693 0
M  V30 4520 H 429.42 3.09094 -2.08603 0
M  V30 4521 N 431.605 1.3629 0.791371 0
M  V30 4522 C 432.83 1.33726 1.58531 0
M  V30 4523 C 433.255 -0.0794933 1.87932 0
M  V30 4524 O 432.613 -1.05087 1.47738 0
M  V30 4525 C 432.661 2.16425 2.88431 0
M  V30 4526 O 431.765 1.5554 3.81944 0
M  V30 4527 H 431.106 0.457793 0.480959 0
M  V30 4528 H 433.636 1.79547 0.981031 0
M  V30 4529 H 433.646 2.28933 3.37718 0
M  V30 4530 H 432.321 3.19415 2.66359 0
M  V30 4531 H 430.898 1.51961 3.40532 0
M  V30 4532 N 433.083 -1.0153 1.20538 0
M  V30 4533 C 434.499 -1.27461 0.96051 0
M  V30 4534 C 434.699 -1.98273 -0.359193 0
M  V30 4535 O 433.755 -2.27886 -1.0874 0
M  V30 4536 C 435.068 -2.10837 2.14402 0
M  V30 4537 C 436.616 -2.24099 2.18515 0
M  V30 4538 C 437.091 -3.10852 3.36355 0
M  V30 4539 N 438.582 -3.18441 3.36377 0
M  V30 4540 C 439.317 -3.85795 4.24205 0
M  V30 4541 N 438.813 -4.55264 5.22213 0
M  V30 4542 N 440.606 -3.82331 4.12043 0
M  V30 4543 H 432.757 -0.539907 2.05423 0
M  V30 4544 H 435.02 -0.30092 0.898972 0
M  V30 4545 H 434.726 -1.66144 3.09983 0
M  V30 4546 H 434.6 -3.11576 2.12604 0
M  V30 4547 H 436.987 -2.68016 1.23497 0
M  V30 4548 H 437.068 -1.22865 2.24361 0
M  V30 4549 H 436.712 -2.6764 4.31661 0
M  V30 4550 H 436.642 -4.12177 3.27746 0
M  V30 4551 H 439.133 -2.68978 2.65442 0
M  V30 4552 H 439.446 -5.04331 5.85551 0
M  V30 4553 H 437.791 -4.54085 5.26148 0
M  V30 4554 H 440.982 -3.27207 3.34743 0
M  V30 4555 H 441.155 -4.34547 4.807 0
M  V30 4556 N 434.561 -1.01147 -1.20859 0
M  V30 4557 C 435.977 -0.725422 -1.42161 0
M  V30 4558 C 436.177 0.696919 -1.89064 0
M  V30 4559 O 435.233 1.46539 -2.05627 0
M  V30 4560 C 436.546 -1.74678 -2.44761 0
M  V30 4561 C 438.094 -1.76433 -2.58535 0
M  V30 4562 C 438.569 -2.77481 -3.64374 0
M  V30 4563 N 440.06 -2.76189 -3.71852 0
M  V30 4564 C 440.795 -3.51035 -4.53389 0
M  V30 4565 N 440.291 -4.35541 -5.38773 0
M  V30 4566 N 442.084 -3.39655 -4.47873 0
M  V30 4567 H 434.235 -1.92979 -0.887282 0
M  V30 4568 H 436.498 -0.833327 -0.451962 0
M  V30 4569 H 436.204 -2.76551 -2.17285 0
M  V30 4570 H 436.078 -1.55472 -3.43669 0
M  V30 4571 H 438.465 -0.75248 -2.85345 0
M  V30 4572 H 438.546 -1.99712 -1.5984 0
M  V30 4573 H 438.19 -3.78827 -3.38308 0
M  V30 4574 H 438.12 -2.51466 -4.6268 0
M  V30 4575 H 440.611 -2.14885 -3.10858 0
M  V30 4576 H 440.924 -4.89432 -5.98061 0
M  V30 4577 H 439.269 -4.39621 -5.38292 0
M  V30 4578 H 442.46 -2.73063 -3.80203 0
M  V30 4579 H 442.633 -3.9824 -5.11184 0
M  V30 4580 N 436.039 1.36541 -0.78704 0
M  V30 4581 C 437.316 1.9355 -0.282424 0
M  V30 4582 C 437.696 1.71919 1.22503 0
M  V30 4583 O 437.044 1.07677 2.01539 0
M  V30 4584 C 437.254 3.4246 -0.672462 0
M  V30 4585 C 438.602 4.19582 -0.650863 0
M  V30 4586 O 439.626 3.50889 -0.612789 0
M  V30 4587 O 438.485 5.42106 -0.691623 0
M  V30 4588 H 435.579 0.824091 -0.0693 0
M  V30 4589 H 438.125 1.45736 -0.869423 0
M  V30 4590 H 436.897 3.51851 -1.71221 0
M  V30 4591 H 436.52 3.97556 -0.0592211 0
M  V30 4592 N 437.518 0.538854 1.48102 0
M  V30 4593 C 438.466 -0.232325 2.31437 0
M  V30 4594 C 439.46 -0.927004 1.41785 0
M  V30 4595 O 440.666 -0.850378 1.58646 0
M  V30 4596 H 437.041 -0.0937916 0.746128 0
M  V30 4597 H 439.012 0.489986 2.9435 0
M  V30 4598 C 437.761 -1.26074 3.24038 0
M  V30 4599 H 437.084 -0.735609 3.92974 0
M  V30 4600 H 438.524 -1.77157 3.85216 0
M  V30 4601 C 436.983 -2.29902 2.46265 0
M  V30 4602 O 437.513 -3.36502 2.19384 0
M  V30 4603 N 435.719 -2.03348 2.07601 0
M  V30 4604 H 435.266 -1.16675 2.29662 0
M  V30 4605 H 435.224 -2.73038 1.55877 0
M  V30 4606 N 438.996 -1.55193 0.274407 0
M  V30 4607 C 440.244 -1.99187 -0.341902 0
M  V30 4608 C 440.565 -1.16422 -1.56431 0
M  V30 4609 O 439.835 -0.253573 -1.94252 0
M  V30 4610 H 438.415 -0.735721 -0.129317 0
M  V30 4611 H 441.077 -1.91168 0.379578 0
M  V30 4612 H 440.173 -3.05629 -0.632253 0
M  V30 4613 N 440.474 -0.00167713 -1.576 0
M  V30 4614 C 441.407 1.02317 -2.03977 0
M  V30 4615 C 442.385 1.33381 -0.929963 0
M  V30 4616 O 443.569 1.45517 -1.19822 0
M  V30 4617 C 440.696 2.35035 -2.43878 0
M  V30 4618 C 439.742 2.19621 -3.65607 0
M  V30 4619 S 440.575 1.52068 -5.13455 0
M  V30 4620 C 441.731 2.86212 -5.56627 0
M  V30 4621 H 441.964 0.628285 -2.90585 0
M  V30 4622 H 439.497 0.209239 -1.52976 0
M  V30 4623 H 441.455 3.11345 -2.67534 0
M  V30 4624 H 440.116 2.71663 -1.57665 0
M  V30 4625 H 439.309 3.1767 -3.91282 0
M  V30 4626 H 438.911 1.51455 -3.41961 0
M  V30 4627 H 441.203 3.82509 -5.59189 0
M  V30 4628 H 442.146 2.65235 -6.56549 0
M  V30 4629 H 442.554 2.90199 -4.84195 0
M  V30 4630 N 441.952 1.55251 0.271103 0
M  V30 4631 C 442.884 1.84675 1.35749 0
M  V30 4632 C 443.897 0.731366 1.45447 0
M  V30 4633 O 445.086 1.00924 1.4723 0
M  V30 4634 C 442.186 1.99638 2.73857 0
M  V30 4635 C 441.359 3.30312 2.86727 0
M  V30 4636 C 440.418 3.35318 4.05522 0
M  V30 4637 O 439.444 4.08682 3.96191 0
M  V30 4638 N 440.646 2.62857 5.17577 0
M  V30 4639 H 443.411 2.78445 1.10853 0
M  V30 4640 H 440.972 1.55191 0.461218 0
M  V30 4641 H 442.964 2.00355 3.51625 0
M  V30 4642 H 441.534 1.12725 2.91568 0
M  V30 4643 H 440.754 3.42118 1.95829 0
M  V30 4644 H 442.042 4.16488 2.92258 0
M  V30 4645 H 441.44 2.02939 5.28046 0
M  V30 4646 H 439.997 2.69295 5.93568 0
M  V30 4647 N 443.43 -0.535701 1.48216 0
M  V30 4648 C 444.377 -1.64083 1.62312 0
M  V30 4649 C 445.347 -1.59448 0.465365 0
M  V30 4650 O 446.532 -1.77959 0.688135 0
M  V30 4651 C 443.672 -3.0236 1.66349 0
M  V30 4652 C 442.785 -3.17273 2.93193 0
M  V30 4653 C 441.92 -4.46075 2.88427 0
M  V30 4654 C 440.959 -4.54496 4.1 0
M  V30 4655 N 440.096 -5.7468 4.03345 0
M  V30 4656 H 444.936 -1.51374 2.5669 0
M  V30 4657 H 442.473 -0.737059 1.27302 0
M  V30 4658 H 444.431 -3.82461 1.66672 0
M  V30 4659 H 443.061 -3.13854 0.754672 0
M  V30 4660 H 442.113 -2.30462 3.02641 0
M  V30 4661 H 443.425 -3.19357 3.83162 0
M  V30 4662 H 442.579 -5.3446 2.87119 0
M  V30 4663 H 441.318 -4.46504 1.96177 0
M  V30 4664 H 440.323 -3.64519 4.11589 0
M  V30 4665 H 441.548 -4.5581 5.03402 0
M  V30 4666 H 439.494 -5.76017 3.13912 0
M  V30 4667 H 439.411 -5.78234 4.87013 0
M  V30 4668 H 440.679 -6.65367 4.06087 0
M  V30 4669 N 444.908 -1.36708 -0.784132 0
M  V30 4670 C 446.148 -1.32618 -1.55537 0
M  V30 4671 C 446.512 0.0920681 -1.91779 0
M  V30 4672 O 447.713 0.257573 -2.67563 0
M  V30 4673 C 445.984 -2.22788 -2.79464 0
M  V30 4674 S 447.543 -2.36432 -3.69656 0
M  V30 4675 H 444.361 -0.470973 -0.53264 0
M  V30 4676 H 446.963 -1.72333 -0.92312 0
M  V30 4677 H 445.667 -3.24774 -2.50899 0
M  V30 4678 H 445.198 -1.84112 -3.47658 0
M  V30 4679 H 447.213 -1.56573 -4.7085 0
M  V30 4680 N 446.386 1.0089 -1.21074 0
M  V30 4681 C 447.611 1.78727 -1.05221 0
M  V30 4682 C 448.036 1.83932 0.393795 0
M  V30 4683 O 447.394 1.28004 1.28393 0
M  V30 4684 C 447.442 3.20665 -1.64944 0
M  V30 4685 O 446.546 4.02632 -0.892273 0
M  V30 4686 H 445.887 0.550973 -0.370574 0
M  V30 4687 H 448.417 1.26847 -1.60534 0
M  V30 4688 H 448.427 3.71352 -1.69002 0
M  V30 4689 H 447.102 3.16191 -2.70177 0
M  V30 4690 H 445.679 3.61207 -0.926492 0
M  V30 4691 N 447.864 1.01787 1.20321 0
M  V30 4692 C 448.814 0.559976 2.21016 0
M  V30 4693 C 449.798 -0.385366 1.56217 0
M  V30 4694 O 450.99 -0.208126 1.75772 0
M  V30 4695 C 448.119 -0.0990553 3.43157 0
M  V30 4696 C 447.205 0.86807 4.15121 0
M  V30 4697 N 447.596 2.0261 4.63447 0
M  V30 4698 C 445.894 0.689162 4.40643 0
M  V30 4699 C 446.595 2.63518 5.18588 0
M  V30 4700 N 445.571 1.91569 5.08726 0
M  V30 4701 H 449.373 1.44281 2.56048 0
M  V30 4702 H 446.887 0.883381 1.36272 0
M  V30 4703 H 448.884 -0.444643 4.14522 0
M  V30 4704 H 447.544 -0.977709 3.0963 0
M  V30 4705 H 448.555 2.40598 4.58621 0
M  V30 4706 H 445.232 -0.14133 4.17261 0
M  V30 4707 H 446.622 3.61527 5.66346 0
M  V30 4708 N 449.342 -1.36122 0.79427 0
M  V30 4709 C 450.591 -1.98361 0.365464 0
M  V30 4710 C 450.904 -1.6374 -1.06997 0
M  V30 4711 O 452.11 -2.19251 -1.60129 0
M  V30 4712 C 450.566 -3.54821 0.602496 0
M  V30 4713 C 450.174 -3.98362 2.04967 0
M  V30 4714 C 451.918 -4.2383 0.238437 0
M  V30 4715 C 449.825 -5.47619 2.2331 0
M  V30 4716 H 448.755 -0.742193 0.13291 0
M  V30 4717 H 451.406 -1.55354 0.976589 0
M  V30 4718 H 449.788 -3.95922 -0.078409 0
M  V30 4719 H 450.962 -3.68447 2.76737 0
M  V30 4720 H 449.277 -3.42206 2.37243 0
M  V30 4721 H 451.874 -5.33529 0.353705 0
M  V30 4722 H 452.217 -4.08264 -0.814006 0
M  V30 4723 H 452.75 -3.88108 0.872769 0
M  V30 4724 H 449.489 -5.68138 3.26955 0
M  V30 4725 H 449.009 -5.79145 1.5605 0
M  V30 4726 H 450.688 -6.13911 2.0426 0
M  V30 4727 N 450.82 -0.546701 -1.47814 0
M  V30 4728 C 452.231 -0.110564 -1.86372 0
M  V30 4729 C 452.582 1.31678 -1.45449 0
M  V30 4730 O 451.707 1.98889 -0.852758 0
M  V30 4731 C 452.302 -0.193873 -3.38245 0
M  V30 4732 C 450.861 0.187164 -3.75934 0
M  V30 4733 C 450.008 -0.546166 -2.71868 0
M  V30 4734 H 452.959 -0.757022 -1.39481 0
M  V30 4735 H 452.98 0.590218 -3.75895 0
M  V30 4736 H 452.492 -1.23282 -3.67999 0
M  V30 4737 H 450.593 1.22762 -3.51796 0
M  V30 4738 H 450.706 -0.164083 -4.78819 0
M  V30 4739 H 449.07 0.00953904 -2.54698 0
M  V30 4740 H 449.853 -1.58606 -3.04465 0
M  V30 4741 N 452.299 1.55045 -0.282633 0
M  V30 4742 C 453.547 1.99365 0.331334 0
M  V30 4743 C 453.868 1.1725 1.55812 0
M  V30 4744 O 453.138 0.263871 1.94115 0
M  V30 4745 H 451.718 0.736397 0.125414 0
M  V30 4746 H 454.38 1.90964 -0.389711 0
M  V30 4747 H 453.476 3.0596 0.616036 0
M  V30 4748 N 453.777 0.010035 1.57597 0
M  V30 4749 C 455.193 -0.346164 1.55801 0
M  V30 4750 C 455.393 -1.74144 1.01371 0
M  V30 4751 O 454.449 -2.43938 0.651968 0
M  V30 4752 C 455.762 -0.212216 2.9995 0
M  V30 4753 C 457.31 -0.286409 3.11687 0
M  V30 4754 C 457.785 -0.18147 4.5764 0
M  V30 4755 N 459.276 -0.239056 4.62583 0
M  V30 4756 C 460.011 -0.181351 5.73113 0
M  V30 4757 N 459.507 -0.073661 6.92761 0
M  V30 4758 N 461.3 -0.233949 5.61613 0
M  V30 4759 H 453.451 0.922657 1.91313 0
M  V30 4760 H 455.714 0.354595 0.879185 0
M  V30 4761 H 455.42 0.748169 3.4365 0
M  V30 4762 H 455.294 -0.990224 3.6397 0
M  V30 4763 H 457.681 -1.23724 2.67911 0
M  V30 4764 H 457.762 0.521645 2.50425 0
M  V30 4765 H 457.406 0.765863 5.02093 0
M  V30 4766 H 457.336 -1.00814 5.1686 0
M  V30 4767 H 459.827 -0.32321 3.76515 0
M  V30 4768 H 460.14 -0.0358003 7.72792 0
M  V30 4769 H 458.485 -0.0391461 6.94989 0
M  V30 4770 H 461.676 -0.316347 4.6703 0
M  V30 4771 H 461.849 -0.185514 6.47734 0
M  V30 4772 N 455.255 -1.55392 -0.262866 0
M  V30 4773 C 456.671 -1.47459 -0.610582 0
M  V30 4774 C 456.871 -0.697031 -1.8906 0
M  V30 4775 O 455.927 -0.219952 -2.5154 0
M  V30 4776 C 457.24 -2.91751 -0.728131 0
M  V30 4777 C 458.788 -3.02027 -0.821517 0
M  V30 4778 C 459.263 -4.47594 -0.97076 0
M  V30 4779 N 460.754 -4.51465 -1.03603 0
M  V30 4780 C 461.489 -5.61326 -1.17049 0
M  V30 4781 N 460.985 -6.81032 -1.2715 0
M  V30 4782 N 462.778 -5.49089 -1.20239 0
M  V30 4783 H 454.929 -2.04395 0.577632 0
M  V30 4784 H 457.192 -0.927287 0.197086 0
M  V30 4785 H 456.898 -3.51413 0.142132 0
M  V30 4786 H 456.772 -3.4134 -1.6052 0
M  V30 4787 H 459.159 -2.42456 -1.68224 0
M  V30 4788 H 459.24 -2.55674 0.0803688 0
M  V30 4789 H 458.884 -5.07771 -0.114655 0
M  V30 4790 H 458.814 -4.91613 -1.88745 0
M  V30 4791 H 461.305 -3.6524 -0.96996 0
M  V30 4792 H 461.618 -7.60511 -1.37271 0
M  V30 4793 H 459.963 -6.83824 -1.24136 0
M  V30 4794 H 463.154 -4.54507 -1.11985 0
M  V30 4795 H 463.327 -6.34749 -1.30373 0
M  V30 4796 N 456.733 0.527833 -1.48498 0
M  V30 4797 C 457.643 1.65907 -1.65867 0
M  V30 4798 C 458.659 1.6537 -0.541192 0
M  V30 4799 O 459.835 1.84282 -0.812534 0
M  V30 4800 C 456.9 3.02364 -1.69637 0
M  V30 4801 C 455.961 3.1374 -2.93028 0
M  V30 4802 C 455.194 4.43688 -2.96609 0
M  V30 4803 O 455.417 5.30913 -2.08538 0
M  V30 4804 O 454.351 4.59475 -3.88802 0
M  V30 4805 H 458.177 1.5419 -2.61647 0
M  V30 4806 H 455.762 0.701163 -1.31924 0
M  V30 4807 H 457.644 3.83515 -1.74625 0
M  V30 4808 H 456.319 3.14401 -0.770312 0
M  V30 4809 H 455.226 2.31877 -2.93571 0
M  V30 4810 H 456.559 3.06621 -3.85026 0
M  V30 4811 N 458.211 1.37122 0.776871 0
M  V30 4812 C 459.141 1.35164 1.90402 0
M  V30 4813 C 460.122 0.221069 1.68657 0
M  V30 4814 O 461.307 0.420642 1.8959 0
M  V30 4815 C 458.437 1.15274 3.27611 0
M  V30 4816 C 457.391 2.25289 3.63908 0
M  V30 4817 C 456.717 1.90527 4.99603 0
M  V30 4818 C 458.017 3.67446 3.71188 0
M  V30 4819 H 459.711 2.29482 1.92297 0
M  V30 4820 H 457.257 1.10465 0.923773 0
M  V30 4821 H 459.21 1.12536 4.06096 0
M  V30 4822 H 457.934 0.174102 3.26136 0
M  V30 4823 H 456.593 2.27174 2.87728 0
M  V30 4824 H 456.241 0.91206 4.94662 0
M  V30 4825 H 455.941 2.64193 5.24858 0
M  V30 4826 H 457.465 1.89367 5.80493 0
M  V30 4827 H 458.879 3.67719 4.39836 0
M  V30 4828 H 457.276 4.40123 4.07936 0
M  V30 4829 H 458.346 4.01443 2.71977 0
M  V30 4830 N 459.689 -1.00246 1.21608 0
M  V30 4831 C 461.105 -1.26435 0.973975 0
M  V30 4832 C 461.305 -1.98642 -0.338143 0
M  V30 4833 O 460.361 -2.29026 -1.06317 0
M  V30 4834 C 461.674 -2.08551 2.16626 0
M  V30 4835 C 463.222 -2.21769 2.20879 0
M  V30 4836 C 463.697 -3.07267 3.39633 0
M  V30 4837 N 465.188 -3.14855 3.39736 0
M  V30 4838 C 465.923 -3.81274 4.28273 0
M  V30 4839 N 465.419 -4.497 5.27012 0
M  V30 4840 N 467.212 -3.7794 4.16074 0
M  V30 4841 H 459.363 -0.518089 2.05984 0
M  V30 4842 H 461.626 -0.291368 0.902113 0
M  V30 4843 H 461.332 -1.62847 3.11727 0
M  V30 4844 H 461.206 -3.09303 2.15897 0
M  V30 4845 H 463.593 -2.66691 1.26332 0
M  V30 4846 H 463.674 -1.20478 2.25652 0
M  V30 4847 H 463.318 -2.63047 4.34475 0
M  V30 4848 H 463.248 -4.08678 3.321 0
M  V30 4849 H 465.739 -2.66147 2.6828 0
M  V30 4850 H 466.052 -4.98092 5.90867 0
M  V30 4851 H 464.397 -4.48479 5.30935 0
M  V30 4852 H 467.588 -3.23638 3.38195 0
M  V30 4853 H 467.761 -4.29424 4.85282 0
M  V30 4854 N 461.167 -1.02423 -1.1978 0
M  V30 4855 C 462.1 -0.545641 -2.21581 0
M  V30 4856 C 463.078 0.411024 -1.57319 0
M  V30 4857 O 464.262 0.329223 -1.85603 0
M  V30 4858 C 461.389 0.204973 -3.38079 0
M  V30 4859 C 460.435 -0.70241 -4.20676 0
M  V30 4860 S 461.268 -2.17595 -4.89298 0
M  V30 4861 C 462.424 -1.43572 -6.09211 0
M  V30 4862 H 462.657 -1.4082 -2.61834 0
M  V30 4863 H 460.19 -0.833771 -1.29952 0
M  V30 4864 H 462.148 0.631924 -4.05607 0
M  V30 4865 H 460.809 1.0432 -2.9627 0
M  V30 4866 H 460.002 -0.123193 -5.03849 0
M  V30 4867 H 459.604 -1.06747 -3.58442 0
M  V30 4868 H 461.896 -0.719806 -6.73665 0
M  V30 4869 H 462.839 -2.24388 -6.71607 0
M  V30 4870 H 463.247 -0.935252 -5.56699 0
M  V30 4871 N 462.645 1.35699 -0.801477 0
M  V30 4872 C 464.056 1.81415 -0.441073 0
M  V30 4873 C 464.407 1.66595 1.03636 0
M  V30 4874 O 463.532 1.19369 1.80499 0
M  V30 4875 C 464.127 3.29369 -0.793819 0
M  V30 4876 C 462.686 3.73248 -0.486083 0
M  V30 4877 C 461.833 2.57775 -1.02213 0
M  V30 4878 H 464.784 1.23749 -0.993572 0
M  V30 4879 H 464.805 3.80395 -0.0894158 0
M  V30 4880 H 464.317 3.40123 -1.86917 0
M  V30 4881 H 462.418 3.68046 0.580735 0
M  V30 4882 H 462.531 4.68222 -1.01513 0
M  V30 4883 H 460.895 2.50788 -0.444712 0
M  V30 4884 H 461.678 2.71309 -2.10348 0
M  V30 4885 N 464.123 0.554532 1.47522 0
M  V30 4886 C 465.363 0.0317994 2.04375 0
M  V30 4887 C 465.727 -1.29242 1.41988 0
M  V30 4888 O 466.928 -1.90269 1.89872 0
M  V30 4889 C 465.199 -0.0623344 3.57346 0
M  V30 4890 S 466.758 -0.531578 4.35568 0
M  V30 4891 H 463.576 0.0238553 0.7106 0
M  V30 4892 H 466.178 0.74066 1.80927 0
M  V30 4893 H 464.882 0.905857 4.00278 0
M  V30 4894 H 464.413 -0.794831 3.85287 0
M  V30 4895 H 466.428 -1.79175 4.62721 0
M  V30 4896 N 465.601 -1.54893 0.290851 0
M  V30 4897 C 466.829 -2.04343 -0.324288 0
M  V30 4898 C 467.244 -1.16859 -1.48289 0
M  V30 4899 O 466.601 -0.192018 -1.81487 0
M  V30 4900 C 466.652 -3.52756 -0.79026 0
M  V30 4901 O 466.373 -4.36913 0.322213 0
M  V30 4902 C 467.874 -4.18161 -1.4716 0
M  V30 4903 H 465.094 -0.667135 -0.0719173 0
M  V30 4904 H 467.638 -1.99981 0.427529 0
M  V30 4905 H 465.793 -3.57511 -1.49213 0
M  V30 4906 H 466.207 -5.24486 -0.0387372 0
M  V30 4907 H 467.681 -5.23562 -1.7489 0
M  V30 4908 H 468.158 -3.67282 -2.40834 0
M  V30 4909 H 468.764 -4.17454 -0.813178 0
M  V30 4910 N 467.08 -0.0183926 -1.57589 0
M  V30 4911 C 468.01 0.965596 -2.12599 0
M  V30 4912 C 468.991 1.34641 -1.0395 0
M  V30 4913 O 470.176 1.42693 -1.31729 0
M  V30 4914 C 467.306 2.25149 -2.64434 0
M  V30 4915 C 466.26 2.01175 -3.77773 0
M  V30 4916 C 465.586 3.35937 -4.15994 0
M  V30 4917 C 466.886 1.35953 -5.04296 0
M  V30 4918 H 468.58 0.507504 -2.95067 0
M  V30 4919 H 466.126 0.242671 -1.41941 0
M  V30 4920 H 468.079 2.94357 -3.01549 0
M  V30 4921 H 466.803 2.73105 -1.79112 0
M  V30 4922 H 465.462 1.34388 -3.4108 0
M  V30 4923 H 465.11 3.81631 -3.27669 0
M  V30 4924 H 464.81 3.20705 -4.92364 0
M  V30 4925 H 466.334 4.0643 -4.55683 0
M  V30 4926 H 467.748 1.95144 -5.39065 0
M  V30 4927 H 466.145 1.31152 -5.85593 0
M  V30 4928 H 467.215 0.331071 -4.83768 0
M  V30 4929 N 468.558 1.5553 0.254621 0
M  V30 4930 C 469.806 1.7665 0.981793 0
M  V30 4931 C 470.127 0.580963 1.86145 0
M  V30 4932 O 469.397 -0.403537 1.91699 0
M  V30 4933 H 467.977 0.651475 0.365498 0
M  V30 4934 H 470.639 1.92958 0.274426 0
M  V30 4935 H 469.735 2.67486 1.60802 0
M  V30 4936 N 470.036 -0.519951 1.48776 0
M  V30 4937 C 471.282 -1.27456 1.58514 0
M  V30 4938 C 471.637 -1.90634 0.260057 0
M  V30 4939 O 470.93 -1.76815 -0.738036 0
M  V30 4940 C 471.124 -2.37864 2.6675 0
M  V30 4941 C 470.953 -1.85509 4.09654 0
M  V30 4942 C 469.723 -1.67661 4.76674 0
M  V30 4943 C 471.921 -1.37783 4.955 0
M  V30 4944 N 469.903 -1.10037 6.03958 0
M  V30 4945 C 471.274 -0.921714 6.1311 0
M  V30 4946 C 473.329 -1.26179 4.81646 0
M  V30 4947 C 472.032 -0.361057 7.18393 0
M  V30 4948 C 474.058 -0.715121 5.8706 0
M  V30 4949 C 473.42 -0.269132 7.03886 0
M  V30 4950 H 469.519 -0.457049 0.634531 0
M  V30 4951 H 472.103 -0.585073 1.85701 0
M  V30 4952 H 470.274 -3.04296 2.41367 0
M  V30 4953 H 472.006 -3.04901 2.66116 0
M  V30 4954 H 468.761 -1.91478 4.33166 0
M  V30 4955 H 469.185 -0.832067 6.71867 0
M  V30 4956 H 473.827 -1.59263 3.91657 0
M  V30 4957 H 471.545 -0.0179127 8.08098 0
M  V30 4958 H 475.131 -0.628376 5.78397 0
M  V30 4959 H 474.011 0.14729 7.84062 0
M  V30 4960 N 471.514 -1.37532 -0.769588 0
M  V30 4961 C 472.424 -1.35668 -1.91393 0
M  V30 4962 C 473.44 -0.255954 -1.72107 0
M  V30 4963 O 474.616 -0.491704 -1.95305 0
M  V30 4964 C 471.681 -1.16481 -3.26547 0
M  V30 4965 C 470.742 -2.36212 -3.58472 0
M  V30 4966 C 469.975 -2.17932 -4.87177 0
M  V30 4967 O 470.198 -1.1647 -5.58382 0
M  V30 4968 O 469.132 -3.06167 -5.18214 0
M  V30 4969 H 472.958 -2.32055 -1.95918 0
M  V30 4970 H 470.543 -1.18284 -0.912641 0
M  V30 4971 H 472.425 -1.07778 -4.07384 0
M  V30 4972 H 471.1 -0.231687 -3.2287 0
M  V30 4973 H 470.007 -2.50488 -2.77861 0
M  V30 4974 H 471.34 -3.281 -3.66894 0
M  V30 4975 N 472.992 0.995999 -1.22138 0
M  V30 4976 C 473.955 2.06711 -0.990109 0
M  V30 4977 C 474.955 1.60744 0.0422978 0
M  V30 4978 O 476.145 1.73095 -0.195895 0
M  V30 4979 C 473.277 3.37288 -0.49491 0
M  V30 4980 H 474.47 2.28661 -1.94047 0
M  V30 4981 H 472.023 1.16711 -1.03963 0
M  V30 4982 H 472.758 3.21022 0.459948 0
M  V30 4983 H 472.543 3.71986 -1.23971 0
M  V30 4984 H 474.033 4.16103 -0.353253 0
M  V30 4985 N 474.47 1.03057 1.19235 0
M  V30 4986 C 475.7 0.746613 1.92638 0
M  V30 4987 C 476.108 -0.698708 1.75826 0
M  V30 4988 O 475.451 -1.487 1.07861 0
M  V30 4989 C 475.513 1.02024 3.44719 0
M  V30 4990 C 475.177 2.45745 3.85303 0
M  V30 4991 C 476.174 3.43887 3.8992 0
M  V30 4992 C 473.859 2.8019 4.16892 0
M  V30 4993 C 475.853 4.74529 4.2556 0
M  V30 4994 C 473.54 4.1104 4.52205 0
M  V30 4995 C 474.538 5.0802 4.56513 0
M  V30 4996 O 474.226 6.36527 4.91008 0
M  V30 4997 H 473.958 0.272401 0.618687 0
M  V30 4998 H 476.512 1.37853 1.52269 0
M  V30 4999 H 474.742 0.331184 3.85279 0
M  V30 5000 H 476.431 0.725677 3.9936 0
M  V30 5001 H 477.197 3.18614 3.65664 0
M  V30 5002 H 473.076 2.05382 4.12722 0
M  V30 5003 H 476.62 5.50222 4.28838 0
M  V30 5004 H 472.517 4.36086 4.7592 0
M  V30 5005 H 473.285 6.41025 5.08949 0
M  V30 5006 N 475.948 -1.35272 0.808662 0
M  V30 5007 C 477.176 -2.02946 0.402537 0
M  V30 5008 C 477.591 -1.60937 -0.987147 0
M  V30 5009 O 476.948 -0.807917 -1.63643 0
M  V30 5010 C 476.999 -3.58317 0.47868 0
M  V30 5011 O 476.72 -3.98799 1.81358 0
M  V30 5012 C 478.221 -4.43251 0.0656281 0
M  V30 5013 H 475.441 -0.650831 0.163279 0
M  V30 5014 H 477.985 -1.72849 1.09286 0
M  V30 5015 H 476.14 -3.87055 -0.163415 0
M  V30 5016 H 476.554 -4.93451 1.77781 0
M  V30 5017 H 478.028 -5.51738 0.170017 0
M  V30 5018 H 478.505 -4.27913 -0.989278 0
M  V30 5019 H 479.111 -4.19813 0.68096 0
M  V30 5020 N 477.426 -0.562348 -1.47226 0
M  V30 5021 C 478.358 0.220011 -2.28142 0
M  V30 5022 C 479.371 0.874596 -1.37312 0
M  V30 5023 O 480.56 0.747583 -1.62091 0
M  V30 5024 C 477.66 1.32953 -3.11732 0
M  V30 5025 C 476.833 0.770759 -4.30556 0
M  V30 5026 C 475.892 1.76541 -4.95701 0
M  V30 5027 O 474.918 1.3095 -5.53932 0
M  V30 5028 N 476.12 3.09896 -4.90861 0
M  V30 5029 H 478.885 -0.474107 -2.95926 0
M  V30 5030 H 476.446 -0.398761 -1.56912 0
M  V30 5031 H 478.438 1.99378 -3.5218 0
M  V30 5032 H 477.008 1.92681 -2.46156 0
M  V30 5033 H 476.228 -0.0704056 -3.94137 0
M  V30 5034 H 477.516 0.376872 -5.07402 0
M  V30 5035 H 476.914 3.49577 -4.44761 0
M  V30 5036 H 475.471 3.71865 -5.35313 0
M  V30 5037 N 478.904 1.54736 -0.299062 0
M  V30 5038 C 480.315 1.8569 0.193971 0
M  V30 5039 C 480.666 1.22101 1.53577 0
M  V30 5040 O 479.791 0.51799 2.10109 0
M  V30 5041 C 480.386 3.36895 0.358733 0
M  V30 5042 C 478.945 3.67887 0.795986 0
M  V30 5043 C 478.092 2.77131 -0.096807 0
M  V30 5044 H 481.043 1.49934 -0.520134 0
M  V30 5045 H 481.064 3.61294 1.19361 0
M  V30 5046 H 480.576 3.83148 -0.617998 0
M  V30 5047 H 478.677 3.27151 1.78334 0
M  V30 5048 H 478.79 4.75114 0.616718 0
M  V30 5049 H 477.154 2.51153 0.423581 0
M  V30 5050 H 477.937 3.26204 -1.06986 0
M  V30 5051 N 480.382 0.0267497 1.57577 0
M  V30 5052 C 481.314 -0.984594 2.06974 0
M  V30 5053 C 482.327 -1.29032 0.992705 0
M  V30 5054 O 483.516 -1.25539 1.26895 0
M  V30 5055 C 480.616 -2.31262 2.47732 0
M  V30 5056 C 479.789 -2.1924 3.78487 0
M  V30 5057 C 478.848 -3.34956 4.05821 0
M  V30 5058 O 477.874 -3.11948 4.76106 0
M  V30 5059 N 479.076 -4.58672 3.55809 0
M  V30 5060 H 481.841 -0.563143 2.94362 0
M  V30 5061 H 479.402 -0.160061 1.61107 0
M  V30 5062 H 481.394 -3.07496 2.63112 0
M  V30 5063 H 479.964 -2.65056 1.65723 0
M  V30 5064 H 479.184 -1.27747 3.72927 0
M  V30 5065 H 480.472 -2.08409 4.64158 0
M  V30 5066 H 479.87 -4.8026 2.98942 0
M  V30 5067 H 478.427 -5.32083 3.76472 0
M  V30 5068 N 481.861 -1.55662 -0.24637 0
M  V30 5069 C 482.824 -1.89558 -1.28842 0
M  V30 5070 C 483.824 -0.772082 -1.41052 0
M  V30 5071 O 485.014 -1.04007 -1.39743 0
M  V30 5072 C 482.146 -2.12449 -2.66605 0
M  V30 5073 H 483.339 -2.82735 -1.00004 0
M  V30 5074 H 480.892 -1.48562 -0.485684 0
M  V30 5075 H 481.627 -1.21742 -3.00582 0
M  V30 5076 H 481.412 -2.94273 -2.59125 0
M  V30 5077 H 482.902 -2.39854 -3.41847 0
M  V30 5078 N 483.339 0.512053 -1.4905 0
M  V30 5079 C 484.249 1.64139 -1.67617 0
M  V30 5080 C 485.265 1.64786 -0.558701 0
M  V30 5081 O 486.441 1.8341 -0.832034 0
M  V30 5082 C 483.506 3.00548 -1.72835 0
M  V30 5083 C 482.567 3.10615 -2.96339 0
M  V30 5084 C 481.8 4.40517 -3.01298 0
M  V30 5085 O 482.023 5.28671 -2.14157 0
M  V30 5086 O 480.957 4.55325 -3.93653 0
M  V30 5087 H 484.783 1.51407 -2.63267 0
M  V30 5088 H 482.368 0.687131 -1.32661 0
M  V30 5089 H 484.25 3.81641 -1.78683 0
M  V30 5090 H 482.925 3.13566 -0.803616 0
M  V30 5091 H 481.832 2.2875 -2.96014 0
M  V30 5092 H 483.165 3.0252 -3.88256 0
M  V30 5093 N 484.817 1.37938 0.762283 0
M  V30 5094 C 486.065 1.33404 1.51815 0
M  V30 5095 C 486.386 -0.0780975 1.94844 0
M  V30 5096 O 485.656 -1.02405 1.67003 0
M  V30 5097 H 484.236 0.490839 0.563104 0
M  V30 5098 H 486.898 1.72527 0.906669 0
M  V30 5099 H 485.994 1.97926 2.41313 0
M  V30 5100 N 486.295 -0.989507 1.22664 0
M  V30 5101 C 487.541 -1.7321 1.05481 0
M  V30 5102 C 487.874 -1.89852 -0.408635 0
M  V30 5103 O 487.149 -1.44416 -1.30285 0
M  V30 5104 C 487.432 -3.1357 1.77047 0
M  V30 5105 C 487.285 -3.04555 3.31008 0
M  V30 5106 C 488.604 -4.12812 1.5256 0
M  V30 5107 H 485.723 -0.628697 0.384589 0
M  V30 5108 H 488.365 -1.15258 1.51049 0
M  V30 5109 H 486.515 -3.63046 1.3831 0
M  V30 5110 H 488.187 -2.62674 3.7921 0
M  V30 5111 H 486.43 -2.41278 3.6051 0
M  V30 5112 H 487.101 -4.03894 3.76263 0
M  V30 5113 H 489.577 -3.72106 1.86215 0
M  V30 5114 H 488.453 -5.09132 2.05124 0
M  V30 5115 H 488.714 -4.39711 0.458936 0
M  V30 5116 N 487.773 -1.03688 -1.18687 0
M  V30 5117 C 489.021 -0.736572 -1.88199 0
M  V30 5118 C 489.342 0.737665 -1.80509 0
M  V30 5119 O 488.612 1.53204 -1.22088 0
M  V30 5120 H 487.192 -0.269466 -0.696704 0
M  V30 5121 H 489.854 -1.31282 -1.44052 0
M  V30 5122 H 488.95 -1.03802 -2.94332 0
M  V30 5123 N 489.251 1.34841 -0.815825 0
M  V30 5124 C 490.214 2.27959 -0.238185 0
M  V30 5125 C 491.214 1.49983 0.579816 0
M  V30 5126 O 492.404 1.69617 0.396953 0
M  V30 5127 C 489.536 3.34314 0.666876 0
M  V30 5128 H 490.729 2.80558 -1.05958 0
M  V30 5129 H 488.282 1.44852 -0.587156 0
M  V30 5130 H 489.017 2.86916 1.5116 0
M  V30 5131 H 488.802 3.92014 0.0819106 0
M  V30 5132 H 490.292 4.0379 1.06506 0
M  V30 5133 N 490.729 0.570148 1.46925 0
M  V30 5134 C 491.692 -0.159933 2.28641 0
M  V30 5135 C 492.692 -0.830638 1.37685 0
M  V30 5136 O 493.882 -0.684516 1.60187 0
M  V30 5137 C 491.014 -1.2354 3.17727 0
M  V30 5138 H 492.207 0.558035 2.94662 0
M  V30 5139 H 489.76 0.327603 1.52828 0
M  V30 5140 H 490.495 -1.98535 2.56426 0
M  V30 5141 H 490.28 -0.759125 3.84681 0
M  V30 5142 H 491.77 -1.74782 3.79264 0
M  V30 5143 N 492.207 -1.54576 0.307264 0
M  V30 5144 C 493.623 -1.59534 -0.0459251 0
M  V30 5145 C 493.823 -1.32414 -1.51884 0
M  V30 5146 O 492.879 -1.1006 -2.27251 0
M  V30 5147 C 494.192 -2.98566 0.357649 0
M  V30 5148 C 495.74 -3.11491 0.306937 0
M  V30 5149 C 496.215 -4.52842 0.685427 0
M  V30 5150 N 497.706 -4.58782 0.638203 0
M  V30 5151 C 498.441 -5.66238 0.903458 0
M  V30 5152 N 497.937 -6.81703 1.23501 0
M  V30 5153 N 499.73 -5.55937 0.830102 0
M  V30 5154 H 491.881 -1.70464 1.26712 0
M  V30 5155 H 494.144 -0.79647 0.514139 0
M  V30 5156 H 493.85 -3.23356 1.38325 0
M  V30 5157 H 493.724 -3.76117 -0.285565 0
M  V30 5158 H 496.111 -2.86446 -0.709424 0
M  V30 5159 H 496.192 -2.36081 0.984861 0
M  V30 5160 H 495.836 -4.78618 1.69963 0
M  V30 5161 H 495.766 -5.26598 -0.0146346 0
M  V30 5162 H 498.257 -3.75849 0.393138 0
M  V30 5163 H 498.57 -7.59582 1.42322 0
M  V30 5164 H 496.915 -6.8324 1.27311 0
M  V30 5165 H 500.106 -4.64608 0.570693 0
M  V30 5166 H 500.279 -6.39597 1.04019 0
M  V30 5167 N 493.685 -0.035106 -1.57561 0
M  V30 5168 C 494.633 0.962707 -2.11742 0
M  V30 5169 C 495.627 1.33296 -1.0454 0
M  V30 5170 O 496.833 1.31449 -1.22968 0
M  V30 5171 H 493.208 0.32826 -0.676572 0
M  V30 5172 H 495.179 0.48048 -2.94506 0
M  V30 5173 C 493.928 2.23388 -2.66445 0
M  V30 5174 H 493.251 1.95774 -3.48587 0
M  V30 5175 H 494.691 2.91402 -3.07995 0
M  V30 5176 C 493.15 2.96769 -1.59467 0
M  V30 5177 O 493.68 3.89105 -0.998 0
M  V30 5178 N 491.886 2.59212 -1.31369 0
M  V30 5179 H 491.433 1.84202 -1.80076 0
M  V30 5180 H 491.391 3.08618 -0.600173 0
M  V30 5181 N 495.163 1.55791 0.238111 0
M  V30 5182 C 496.126 1.90239 1.27835 0
M  V30 5183 C 497.126 0.779552 1.4064 0
M  V30 5184 O 498.316 1.04747 1.3919 0
M  V30 5185 C 495.448 2.13859 2.65475 0
M  V30 5186 H 496.641 2.83262 0.985034 0
M  V30 5187 H 494.194 1.48818 0.477799 0
M  V30 5188 H 494.929 1.23334 2.99932 0
M  V30 5189 H 494.714 2.95643 2.57561 0
M  V30 5190 H 496.204 2.41664 3.40571 0
M  V30 5191 N 496.642 -0.504142 1.49319 0
M  V30 5192 C 497.882 -1.26867 1.60263 0
M  V30 5193 C 498.246 -1.89924 0.281578 0
M  V30 5194 O 499.447 -2.67479 0.266176 0
M  V30 5195 C 497.718 -2.30956 2.72753 0
M  V30 5196 S 499.277 -3.1679 3.03628 0
M  V30 5197 H 496.095 -0.431198 0.565322 0
M  V30 5198 H 498.697 -0.571407 1.86963 0
M  V30 5199 H 497.401 -1.83156 3.67263 0
M  V30 5200 H 496.932 -3.05356 2.48035 0
M  V30 5201 H 498.947 -4.31549 2.44908 0
M  V30 5202 N 498.12 -1.38341 -0.754957 0
M  V30 5203 C 499.369 -1.33791 -1.5094 0
M  V30 5204 C 499.682 0.0699267 -1.95475 0
M  V30 5205 O 500.888 0.237956 -2.70455 0
M  V30 5206 C 499.344 -2.34934 -2.72643 0
M  V30 5207 C 498.952 -3.81332 -2.35138 0
M  V30 5208 C 500.696 -2.39425 -3.50536 0
M  V30 5209 C 498.603 -4.74164 -3.53444 0
M  V30 5210 H 497.533 -0.497314 -0.566741 0
M  V30 5211 H 500.184 -1.63888 -0.825403 0
M  V30 5212 H 498.566 -1.97878 -3.43017 0
M  V30 5213 H 499.74 -4.27319 -1.7244 0
M  V30 5214 H 498.055 -3.79946 -1.70382 0
M  V30 5215 H 500.652 -3.0598 -4.38498 0
M  V30 5216 H 500.995 -1.41278 -3.91594 0
M  V30 5217 H 501.528 -2.75274 -2.87174 0
M  V30 5218 H 498.267 -5.73501 -3.17453 0
M  V30 5219 H 497.787 -4.3287 -4.15191 0
M  V30 5220 H 499.466 -4.92111 -4.20043 0
M  V30 5221 N 499.598 0.982988 -1.23187 0
M  V30 5222 C 500.546 2.09616 -1.00817 0
M  V30 5223 C 501.54 1.6932 0.0519995 0
M  V30 5224 O 502.746 1.79715 -0.101284 0
M  V30 5225 H 499.121 0.685628 -0.308899 0
M  V30 5226 H 501.092 2.25652 -1.95253 0
M  V30 5227 C 499.841 3.42249 -0.613243 0
M  V30 5228 H 499.164 3.73705 -1.42073 0
M  V30 5229 H 500.604 4.21086 -0.496208 0
M  V30 5230 C 499.063 3.30002 0.678233 0
M  V30 5231 O 499.593 3.6263 1.72807 0
M  V30 5232 N 497.799 2.83164 0.653165 0
M  V30 5233 H 497.346 2.56811 -0.201492 0
M  V30 5234 H 497.304 2.75352 1.51752 0
M  V30 5235 N 501.076 1.04316 1.18135 0
M  V30 5236 C 502.322 0.758899 1.88712 0
M  V30 5237 C 502.677 -0.705863 1.78984 0
M  V30 5238 O 501.97 -1.50874 1.18101 0
M  V30 5239 C 502.164 1.16271 3.37958 0
M  V30 5240 C 501.993 2.66518 3.62213 0
M  V30 5241 C 500.763 3.33702 3.79436 0
M  V30 5242 C 502.961 3.64739 3.62588 0
M  V30 5243 N 500.943 4.72904 3.91452 0
M  V30 5244 C 502.314 4.89627 3.80348 0
M  V30 5245 C 504.369 3.58333 3.4569 0
M  V30 5246 C 503.072 6.08879 3.8296 0
M  V30 5247 C 505.098 4.77016 3.49586 0
M  V30 5248 C 504.46 6.00724 3.67845 0
M  V30 5249 H 500.559 0.329795 0.709055 0
M  V30 5250 H 503.143 1.33334 1.4188 0
M  V30 5251 H 501.314 0.616319 3.83479 0
M  V30 5252 H 503.046 0.829205 3.96114 0
M  V30 5253 H 499.801 2.84105 3.78921 0
M  V30 5254 H 500.225 5.45258 4.01277 0
M  V30 5255 H 504.867 2.63663 3.30517 0
M  V30 5256 H 502.585 7.03903 3.96921 0
M  V30 5257 H 506.171 4.73703 3.37782 0
M  V30 5258 H 505.051 6.91022 3.70753 0
M  V30 5259 N 502.554 -1.34406 0.822964 0
M  V30 5260 C 503.502 -2.31428 0.233165 0
M  V30 5261 C 504.496 -1.57404 -0.626118 0
M  V30 5262 O 505.702 -1.72402 -0.517453 0
M  V30 5263 H 502.077 -0.749863 0.0566557 0
M  V30 5264 H 504.048 -2.78699 1.06628 0
M  V30 5265 C 502.797 -3.42653 -0.590264 0
M  V30 5266 H 502.12 -3.99753 0.0616129 0
M  V30 5267 H 503.56 -4.12778 -0.969054 0
M  V30 5268 C 502.019 -2.87112 -1.76262 0
M  V30 5269 O 502.549 -2.81995 -2.8608 0
M  V30 5270 N 500.755 -2.43934 -1.57938 0
M  V30 5271 H 500.302 -2.48296 -0.686078 0
M  V30 5272 H 500.26 -2.07123 -2.36532 0
M  V30 5273 N 504.032 -0.577932 -1.46621 0
M  V30 5274 C 504.964 0.195801 -2.28362 0
M  V30 5275 C 505.977 0.859983 -1.38232 0
M  V30 5276 O 507.166 0.730349 -1.62875 0
M  V30 5277 C 504.266 1.29639 -3.13124 0
M  V30 5278 C 503.439 0.725049 -4.31349 0
M  V30 5279 C 502.498 1.71274 -4.97546 0
M  V30 5280 O 501.524 1.25067 -5.5529 0
M  V30 5281 N 502.726 3.04672 -4.94121 0
M  V30 5282 H 505.491 -0.505468 -2.95407 0
M  V30 5283 H 503.052 -0.415381 -1.56481 0
M  V30 5284 H 505.044 1.95631 -3.54275 0
M  V30 5285 H 503.614 1.90059 -2.48186 0
M  V30 5286 H 502.834 -0.112205 -3.9404 0
M  V30 5287 H 504.122 0.323034 -5.07774 0
M  V30 5288 H 503.52 3.4484 -4.48444 0
M  V30 5289 H 502.077 3.66166 -5.39227 0
M  V30 5290 N 505.51 1.54411 -0.315457 0
M  V30 5291 C 506.74 2.04536 0.291315 0
M  V30 5292 C 507.148 1.19162 1.4696 0
M  V30 5293 O 506.491 0.213199 1.82459 0
M  V30 5294 C 506.553 3.5056 0.796725 0
M  V30 5295 C 506.217 4.5627 -0.258178 0
M  V30 5296 C 507.214 5.08312 -1.09153 0
M  V30 5297 C 504.899 5.00672 -0.404036 0
M  V30 5298 C 506.893 6.03312 -2.05655 0
M  V30 5299 C 504.58 5.95488 -1.37248 0
M  V30 5300 C 505.578 6.46693 -2.19721 0
M  V30 5301 O 505.266 7.39648 -3.14921 0
M  V30 5302 H 504.998 0.672856 0.0651165 0
M  V30 5303 H 507.552 2.00244 -0.457308 0
M  V30 5304 H 505.782 3.52223 1.59612 0
M  V30 5305 H 507.471 3.83804 1.32096 0
M  V30 5306 H 508.237 4.74793 -0.98979 0
M  V30 5307 H 504.116 4.60436 0.22799 0
M  V30 5308 H 507.66 6.43203 -2.70067 0
M  V30 5309 H 503.557 6.28424 -1.47489 0
M  V30 5310 H 504.325 7.57496 -3.10067 0
M  V30 5311 N 506.988 0.0434614 1.5754 0
M  V30 5312 C 508.218 -0.640905 1.96408 0
M  V30 5313 C 508.626 -1.65365 0.919297 0
M  V30 5314 O 507.969 -1.83395 -0.105795 0
M  V30 5315 C 508.031 -1.39141 3.31482 0
M  V30 5316 C 507.695 -0.535375 4.53853 0
M  V30 5317 C 508.692 0.195335 5.19533 0
M  V30 5318 C 506.377 -0.468564 5.0011 0
M  V30 5319 C 508.371 0.981377 6.298 0
M  V30 5320 C 506.058 0.321171 6.10255 0
M  V30 5321 C 507.056 1.04484 6.74961 0
M  V30 5322 O 506.744 1.8216 7.8299 0
M  V30 5323 H 506.476 -0.180584 0.651433 0
M  V30 5324 H 509.03 0.103848 2.05137 0
M  V30 5325 H 507.26 -2.18162 3.19284 0
M  V30 5326 H 508.949 -1.96526 3.55151 0
M  V30 5327 H 509.715 0.15314 4.84758 0
M  V30 5328 H 505.594 -1.02142 4.49542 0
M  V30 5329 H 509.138 1.54674 6.80237 0
M  V30 5330 H 505.035 0.365032 6.44467 0
M  V30 5331 H 505.803 1.74289 7.99728 0
M  V30 5332 N 508.466 -1.55915 -0.229846 0
M  V30 5333 C 509.414 -1.9258 -1.30444 0
M  V30 5334 C 510.408 -0.806839 -1.48951 0
M  V30 5335 O 511.614 -0.991606 -1.50224 0
M  V30 5336 H 507.989 -0.611878 -0.437161 0
M  V30 5337 H 509.96 -2.82264 -0.96797 0
M  V30 5338 C 508.709 -2.25171 -2.6494 0
M  V30 5339 H 508.032 -3.10782 -2.51504 0
M  V30 5340 H 509.472 -2.54716 -3.38963 0
M  V30 5341 C 507.931 -1.07394 -3.19324 0
M  V30 5342 O 508.461 -0.330759 -4.00336 0
M  V30 5343 N 506.667 -0.859984 -2.77584 0
M  V30 5344 H 506.214 -1.46605 -2.11813 0
M  V30 5345 H 506.172 -0.0736671 -3.14314 0
M  V30 5346 N 509.944 0.496216 -1.49584 0
M  V30 5347 C 511.19 1.25189 -1.59548 0
M  V30 5348 C 511.523 1.9212 -0.283466 0
M  V30 5349 O 510.798 1.80947 0.713324 0
M  V30 5350 C 511.081 2.31516 -2.75812 0
M  V30 5351 C 510.934 1.69054 -4.16822 0
M  V30 5352 C 512.253 3.3304 -2.87702 0
M  V30 5353 H 509.372 0.45379 -0.580727 0
M  V30 5354 H 512.014 0.549327 -1.81886 0
M  V30 5355 H 510.164 2.91438 -2.56897 0
M  V30 5356 H 511.836 1.12923 -4.47265 0
M  V30 5357 H 510.079 0.994485 -4.22247 0
M  V30 5358 H 510.75 2.462 -4.94054 0
M  V30 5359 H 513.226 2.83114 -3.04936 0
M  V30 5360 H 512.102 4.04794 -3.7072 0
M  V30 5361 H 512.363 3.95655 -1.97255 0
M  V30 5362 N 511.423 1.38739 0.74761 0
M  V30 5363 C 512.663 1.36695 1.51966 0
M  V30 5364 C 513.027 -0.0411889 1.91956 0
M  V30 5365 O 514.228 -0.186543 2.68152 0
M  V30 5366 C 512.499 2.30119 2.73459 0
M  V30 5367 S 514.058 2.4615 3.63257 0
M  V30 5368 H 510.876 0.484929 0.519966 0
M  V30 5369 H 513.478 1.7472 0.877104 0
M  V30 5370 H 512.182 3.31312 2.422 0
M  V30 5371 H 511.713 1.93265 3.42655 0
M  V30 5372 H 513.728 1.69001 4.66533 0
M  V30 5373 N 512.901 -0.976442 1.23707 0
M  V30 5374 C 514.317 -1.24341 1.00058 0
M  V30 5375 C 514.517 -1.99315 -0.295932 0
M  V30 5376 O 513.573 -2.3123 -1.01435 0
M  V30 5377 C 514.886 -2.03909 2.21001 0
M  V30 5378 C 516.434 -2.17034 2.25534 0
M  V30 5379 C 516.909 -2.99994 3.46075 0
M  V30 5380 N 518.4 -3.07578 3.46338 0
M  V30 5381 C 519.135 -3.72104 4.36264 0
M  V30 5382 N 518.631 -4.3842 5.36432 0
M  V30 5383 N 520.424 -3.69029 4.23998 0
M  V30 5384 H 512.575 -0.47428 2.07037 0
M  V30 5385 H 514.838 -0.272167 0.908091 0
M  V30 5386 H 514.544 -1.56198 3.15111 0
M  V30 5387 H 514.418 -3.04654 2.22409 0
M  V30 5388 H 516.805 -2.63951 1.31961 0
M  V30 5389 H 516.886 -1.15664 2.28156 0
M  V30 5390 H 516.53 -2.53772 4.39957 0
M  V30 5391 H 516.46 -4.01541 3.40694 0
M  V30 5392 H 518.951 -2.60397 2.73865 0
M  V30 5393 H 519.264 -4.85447 6.013 0
M  V30 5394 H 517.609 -4.37116 5.40328 0
M  V30 5395 H 520.8 -3.16392 3.44984 0
M  V30 5396 H 520.973 -4.19034 4.94282 0
M  V30 5397 N 514.379 -1.04941 -1.1758 0
M  V30 5398 C 515.604 -0.778253 -1.92245 0
M  V30 5399 C 516.029 0.659707 -1.76152 0
M  V30 5400 O 515.387 1.45803 -1.07755 0
M  V30 5401 C 515.435 -1.16051 -3.41416 0
M  V30 5402 O 514.539 -0.291153 -4.11371 0
M  V30 5403 H 513.88 -0.285619 -0.599431 0
M  V30 5404 H 516.41 -1.40159 -1.49052 0
M  V30 5405 H 516.42 -1.12619 -3.92149 0
M  V30 5406 H 515.095 -2.208 -3.52449 0
M  V30 5407 H 513.672 -0.385851 -3.70898 0
M  V30 5408 N 515.857 1.33968 -0.830081 0
M  V30 5409 C 517.105 1.97672 -0.420734 0
M  V30 5410 C 517.426 1.66111 1.02138 0
M  V30 5411 O 516.696 0.955503 1.71017 0
M  V30 5412 H 515.276 0.73125 -0.152587 0
M  V30 5413 H 517.938 1.63483 -1.0611 0
M  V30 5414 H 517.034 3.07294 -0.545588 0
M  V30 5415 N 517.335 0.585699 1.46312 0
M  V30 5416 C 518.612 0.00542031 1.95599 0
M  V30 5417 C 518.992 -1.45619 1.52834 0
M  V30 5418 O 518.34 -2.14759 0.780446 0
M  V30 5419 C 518.55 0.180601 3.48532 0
M  V30 5420 C 519.898 0.049979 4.24571 0
M  V30 5421 O 520.922 0.109589 3.56031 0
M  V30 5422 O 519.781 -0.0832226 5.46437 0
M  V30 5423 H 516.875 -0.0481281 0.825598 0
M  V30 5424 H 519.421 0.654227 1.56582 0
M  V30 5425 H 518.193 1.19657 3.72556 0
M  V30 5426 H 517.816 -0.504498 3.94386 0
M  V30 5427 N 518.813 -1.54241 0.323641 0
M  V30 5428 C 520.038 -2.05452 -0.283605 0
M  V30 5429 C 520.463 -1.19823 -1.44997 0
M  V30 5430 O 519.821 -0.207358 -1.8011 0
M  V30 5431 C 519.869 -3.53823 -0.695795 0
M  V30 5432 O 518.973 -3.71134 -1.79815 0
M  V30 5433 H 518.314 -0.662024 -0.0511917 0
M  V30 5434 H 520.844 -1.99079 0.472073 0
M  V30 5435 H 520.854 -3.96094 -0.978434 0
M  V30 5436 H 519.529 -4.15602 0.157287 0
M  V30 5437 H 518.106 -3.40768 -1.51431 0
M  V30 5438 N 520.291 -0.0518155 -1.57515 0
M  V30 5439 C 521.239 0.940195 -2.12751 0
M  V30 5440 C 522.233 1.3218 -1.05948 0
M  V30 5441 O 523.439 1.30138 -1.24355 0
M  V30 5442 H 519.814 0.321066 -0.680015 0
M  V30 5443 H 521.785 0.449217 -2.94999 0
M  V30 5444 C 520.534 2.2055 -2.68799 0
M  V30 5445 H 519.857 1.92066 -3.50643 0
M  V30 5446 H 521.297 2.88119 -3.11068 0
M  V30 5447 C 519.756 2.95061 -1.62605 0
M  V30 5448 O 520.286 3.88025 -1.03921 0
M  V30 5449 N 518.492 2.57804 -1.34111 0
M  V30 5450 H 518.039 1.82281 -1.8202 0
M  V30 5451 H 517.997 3.07964 -0.632872 0
M  V30 5452 N 521.769 1.56035 0.221574 0
M  V30 5453 C 523.18 1.69229 0.788567 0
M  V30 5454 C 523.531 0.653814 1.84986 0
M  V30 5455 O 522.656 -0.195065 2.15519 0
M  V30 5456 C 523.251 3.06809 1.43713 0
M  V30 5457 C 521.81 3.21858 1.95152 0
M  V30 5458 C 520.957 2.65155 0.811685 0
M  V30 5459 H 523.908 1.587 -0.00307894 0
M  V30 5460 H 523.929 3.02666 2.30594 0
M  V30 5461 H 523.441 3.82369 0.664475 0
M  V30 5462 H 521.542 2.51167 2.7522 0
M  V30 5463 H 521.655 4.29073 2.1315 0
M  V30 5464 H 520.019 2.23635 1.21899 0
M  V30 5465 H 520.802 3.43261 0.0516987 0
M  V30 5466 N 523.247 -0.488276 1.49845 0
M  V30 5467 C 524.197 -1.58556 1.63842 0
M  V30 5468 C 525.181 -1.53142 0.493586 0
M  V30 5469 O 526.373 -1.60457 0.747169 0
M  V30 5470 C 523.502 -2.97101 1.72005 0
M  V30 5471 C 522.588 -3.07463 2.92108 0
M  V30 5472 N 522.979 -2.87681 4.16021 0
M  V30 5473 C 521.277 -3.3858 2.90309 0
M  V30 5474 C 521.978 -3.0256 4.96822 0
M  V30 5475 N 520.954 -3.32002 4.30437 0
M  V30 5476 H 524.756 -1.41935 2.57355 0
M  V30 5477 H 522.27 -0.694668 1.46793 0
M  V30 5478 H 524.267 -3.75976 1.80132 0
M  V30 5479 H 522.927 -3.14782 0.796375 0
M  V30 5480 H 523.938 -2.63603 4.45796 0
M  V30 5481 H 520.615 -3.62357 2.07372 0
M  V30 5482 H 522.005 -2.9165 6.05301 0
M  V30 5483 N 524.725 -1.39134 -0.740242 0
M  V30 5484 C 525.673 -1.3757 -1.87556 0
M  V30 5485 C 526.667 -0.259593 -1.67399 0
M  V30 5486 O 527.873 -0.429349 -1.74804 0
M  V30 5487 H 524.248 -0.42947 -0.6173 0
M  V30 5488 H 526.219 -2.33345 -1.85991 0
M  V30 5489 C 524.968 -1.23087 -3.25184 0
M  V30 5490 H 524.291 -2.08237 -3.41288 0
M  V30 5491 H 525.731 -1.26049 -4.0483 0
M  V30 5492 C 524.19 0.0611471 -3.36845 0
M  V30 5493 O 524.72 1.03328 -3.88183 0
M  V30 5494 N 522.926 0.122454 -2.90342 0
M  V30 5495 H 522.473 -0.669329 -2.48752 0
M  V30 5496 H 522.431 0.986463 -2.98523 0
M  V30 5497 N 526.204 0.969867 -1.24223 0
M  V30 5498 C 527.452 1.70918 -1.0785 0
M  V30 5499 C 527.773 1.91186 0.383763 0
M  V30 5500 O 527.043 1.48806 1.27411 0
M  V30 5501 H 525.623 0.633334 -0.396103 0
M  V30 5502 H 528.285 1.16689 -1.56108 0
M  V30 5503 H 527.381 2.69455 -1.57482 0
M  V30 5504 N 527.682 1.05563 1.17022 0
M  V30 5505 C 528.645 0.664098 2.19368 0
M  V30 5506 C 529.645 -0.286358 1.5823 0
M  V30 5507 O 530.835 -0.069728 1.7406 0
M  V30 5508 C 527.967 -0.0239932 3.40892 0
M  V30 5509 H 529.16 1.57 2.55521 0
M  V30 5510 H 526.713 0.849964 1.31169 0
M  V30 5511 H 527.448 -0.942988 3.10287 0
M  V30 5512 H 527.233 0.659351 3.86516 0
M  V30 5513 H 528.723 -0.283909 4.16634 0
M  V30 5514 N 529.16 -1.33526 0.837174 0
M  V30 5515 C 530.409 -1.97098 0.428387 0
M  V30 5516 C 530.722 -1.67062 -1.01734 0
M  V30 5517 O 531.928 -2.24235 -1.53072 0
M  V30 5518 C 530.384 -3.52725 0.715075 0
M  V30 5519 C 529.992 -3.9164 2.17537 0
M  V30 5520 C 531.736 -4.22857 0.373154 0
M  V30 5521 C 529.643 -5.40237 2.40619 0
M  V30 5522 H 528.573 -0.737589 0.156455 0
M  V30 5523 H 531.224 -1.52169 1.02552 0
M  V30 5524 H 529.606 -3.95971 0.0475904 0
M  V30 5525 H 530.78 -3.59456 2.88319 0
M  V30 5526 H 529.095 -3.34485 2.4801 0
M  V30 5527 H 531.692 -5.32133 0.523264 0
M  V30 5528 H 532.035 -4.10647 -0.683708 0
M  V30 5529 H 532.568 -3.85135 0.995801 0
M  V30 5530 H 529.307 -5.57449 3.44864 0
M  V30 5531 H 528.827 -5.73887 1.74396 0
M  V30 5532 H 530.506 -6.07102 2.23688 0
M  V30 5533 N 530.638 -0.59345 -1.46 0
M  V30 5534 C 531.586 0.146268 -2.3214 0
M  V30 5535 C 532.58 0.873743 -1.45128 0
M  V30 5536 O 533.786 0.790912 -1.61693 0
M  V30 5537 H 530.161 0.0660349 -0.749095 0
M  V30 5538 H 532.132 -0.598895 -2.92328 0
M  V30 5539 C 530.881 1.1396 -3.28494 0
M  V30 5540 H 530.204 0.589252 -3.95434 0
M  V30 5541 H 531.644 1.62738 -3.91526 0
M  V30 5542 C 530.103 2.20604 -2.54628 0
M  V30 5543 O 530.633 3.28128 -2.31722 0
M  V30 5544 N 528.839 1.95502 -2.15005 0
M  V30 5545 H 528.386 1.0807 -2.33834 0
M  V30 5546 H 528.344 2.67064 -1.65904 0
M  V30 5547 N 532.116 1.54067 -0.331816 0
M  V30 5548 C 533.363 2.00715 0.268269 0
M  V30 5549 C 533.691 1.21986 1.51491 0
M  V30 5550 O 532.946 0.292309 1.93505 0
M  V30 5551 C 533.245 3.51634 0.639392 0
M  V30 5552 C 532.911 4.48018 -0.509019 0
M  V30 5553 C 531.573 4.74089 -0.824209 0
M  V30 5554 C 533.925 5.05237 -1.28003 0
M  V30 5555 C 531.253 5.54637 -1.91298 0
M  V30 5556 C 533.605 5.86972 -2.35895 0
M  V30 5557 C 532.269 6.11342 -2.67987 0
M  V30 5558 H 531.539 0.734469 0.0981667 0
M  V30 5559 H 534.186 1.8596 -0.457304 0
M  V30 5560 H 532.491 3.6416 1.44551 0
M  V30 5561 H 534.188 3.85175 1.11539 0
M  V30 5562 H 530.778 4.27851 -0.253287 0
M  V30 5563 H 534.962 4.8507 -1.04978 0
M  V30 5564 H 530.218 5.71747 -2.16599 0
M  V30 5565 H 534.392 6.30327 -2.96076 0
M  V30 5566 H 532.019 6.73544 -3.5248 0
M  V30 5567 N 533.594 0.0601682 1.57485 0
M  V30 5568 C 534.871 -0.651956 1.84415 0
M  V30 5569 C 535.251 -1.88498 0.950361 0
M  V30 5570 O 534.599 -2.28496 0.0136719 0
M  V30 5571 C 534.809 -1.00069 3.34346 0
M  V30 5572 C 536.157 -1.37915 4.01578 0
M  V30 5573 O 537.181 -1.09277 3.39024 0
M  V30 5574 O 536.04 -1.91399 5.11887 0
M  V30 5575 H 533.134 -0.322668 0.761455 0
M  V30 5576 H 535.68 0.0902159 1.6946 0
M  V30 5577 H 534.452 -0.124463 3.91102 0
M  V30 5578 H 534.075 -1.80001 3.54521 0
M  V30 5579 N 535.072 -1.5615 -0.213296 0
M  V30 5580 C 536.02 -1.93953 -1.28394 0
M  V30 5581 C 537.014 -0.822592 -1.48087 0
M  V30 5582 O 538.22 -1.00748 -1.49164 0
M  V30 5583 H 534.595 -0.61648 -0.430646 0
M  V30 5584 H 536.566 -2.83275 -0.937977 0
M  V30 5585 C 535.315 -2.27969 -2.62537 0
M  V30 5586 H 534.638 -3.13432 -2.48194 0
M  V30 5587 H 536.078 -2.58297 -3.36242 0
M  V30 5588 C 534.537 -1.10775 -3.18167 0
M  V30 5589 O 535.067 -0.373201 -3.99963 0
M  V30 5590 N 533.273 -0.889377 -2.76656 0
M  V30 5591 H 532.82 -1.48843 -2.10246 0
M  V30 5592 H 532.778 -0.107 -3.14218 0
M  V30 5593 N 536.55 0.480323 -1.50102 0
M  V30 5594 C 537.799 1.22979 -1.59872 0
M  V30 5595 C 538.112 1.93282 -0.30022 0
M  V30 5596 O 539.318 2.70086 -0.276709 0
M  V30 5597 C 537.774 2.23408 -2.82164 0
M  V30 5598 C 537.382 1.5895 -4.18854 0
M  V30 5599 C 539.126 2.99055 -3.01275 0
M  V30 5600 C 537.033 2.57611 -5.32344 0
M  V30 5601 H 535.963 0.462707 -0.59533 0
M  V30 5602 H 538.614 0.501291 -1.7652 0
M  V30 5603 H 536.996 2.99511 -2.59055 0
M  V30 5604 H 538.17 0.887 -4.52182 0
M  V30 5605 H 536.485 0.956191 -4.05273 0
M  V30 5606 H 539.082 3.72876 -3.83233 0
M  V30 5607 H 539.425 3.57897 -2.12639 0
M  V30 5608 H 539.958 2.30066 -3.24522 0
M  V30 5609 H 536.697 2.03521 -6.23105 0
M  V30 5610 H 536.217 3.26041 -5.03445 0
M  V30 5611 H 537.896 3.19627 -5.62537 0
M  V30 5612 N 538.028 1.39524 0.732853 0
M  V30 5613 C 539.276 1.36594 1.48951 0
M  V30 5614 C 539.597 -0.0367507 1.94965 0
M  V30 5615 O 538.867 -0.988391 1.69138 0
M  V30 5616 H 537.447 0.502673 0.552566 0
M  V30 5617 H 540.109 1.74411 0.869869 0
M  V30 5618 H 539.205 2.03 2.3706 0
M  V30 5619 N 539.506 -0.963266 1.24736 0
M  V30 5620 C 540.736 -1.73913 1.11524 0
M  V30 5621 C 541.144 -1.86218 -0.334612 0
M  V30 5622 O 540.487 -1.3531 -1.24245 0
M  V30 5623 C 540.549 -3.17501 1.68622 0
M  V30 5624 C 540.213 -3.28655 3.17546 0
M  V30 5625 C 541.21 -3.13637 4.14642 0
M  V30 5626 C 538.895 -3.52753 3.5759 0
M  V30 5627 C 540.889 -3.2255 5.49764 0
M  V30 5628 C 538.576 -3.61303 4.92852 0
M  V30 5629 C 539.574 -3.46214 5.88748 0
M  V30 5630 O 539.262 -3.5443 7.2155 0
M  V30 5631 H 538.994 -0.552057 0.390139 0
M  V30 5632 H 541.548 -1.2177 1.65412 0
M  V30 5633 H 539.778 -3.70969 1.09172 0
M  V30 5634 H 541.467 -3.76914 1.50635 0
M  V30 5635 H 542.233 -2.94899 3.85045 0
M  V30 5636 H 538.112 -3.63561 2.83451 0
M  V30 5637 H 541.656 -3.1069 6.24594 0
M  V30 5638 H 537.553 -3.79556 5.22118 0
M  V30 5639 H 538.321 -3.71116 7.29531 0
M  V30 5640 N 540.985 -1.06182 -1.16461 0
M  V30 5641 C 541.948 -0.675723 -2.19013 0
M  V30 5642 C 542.948 0.277963 -1.58379 0
M  V30 5643 O 544.138 0.0604962 -1.74095 0
M  V30 5644 C 541.27 0.00591459 -3.40899 0
M  V30 5645 H 542.463 -1.58353 -2.54685 0
M  V30 5646 H 540.016 -0.856908 -1.30716 0
M  V30 5647 H 540.751 0.92652 -3.10783 0
M  V30 5648 H 540.536 -0.67984 -3.86161 0
M  V30 5649 H 542.026 0.26181 -4.16778 0
M  V30 5650 N 542.463 1.3308 -0.844243 0
M  V30 5651 C 543.709 1.98304 -0.452453 0
M  V30 5652 C 544.064 1.65645 0.978746 0
M  V30 5653 O 543.357 0.928849 1.6758 0
M  V30 5654 C 543.551 3.52045 -0.616354 0
M  V30 5655 C 543.38 3.99643 -2.06193 0
M  V30 5656 C 542.15 4.27224 -2.69829 0
M  V30 5657 C 544.348 4.15471 -3.03131 0
M  V30 5658 N 542.33 4.60998 -4.05406 0
M  V30 5659 C 543.701 4.52665 -4.23668 0
M  V30 5660 C 545.756 3.97776 -2.99465 0
M  V30 5661 C 544.459 4.74011 -5.41023 0
M  V30 5662 C 546.485 4.20301 -4.16055 0
M  V30 5663 C 545.847 4.57801 -5.35348 0
M  V30 5664 H 541.946 0.752122 -0.214096 0
M  V30 5665 H 544.53 1.61096 -1.09344 0
M  V30 5666 H 542.701 3.884 -0.00513205 0
M  V30 5667 H 544.433 4.04228 -0.19548 0
M  V30 5668 H 541.188 4.18911 -2.20931 0
M  V30 5669 H 541.612 4.82087 -4.75312 0
M  V30 5670 H 546.254 3.67893 -2.08362 0
M  V30 5671 H 543.972 5.02753 -6.32665 0
M  V30 5672 H 547.558 4.08122 -4.14641 0
M  V30 5673 H 546.438 4.74884 -6.24063 0
M  V30 5674 N 543.941 0.601185 1.45683 0
M  V30 5675 C 545.19 0.0914953 2.01492 0
M  V30 5676 C 545.503 -1.28331 1.47616 0
M  V30 5677 O 546.709 -1.88537 1.95362 0
M  V30 5678 C 545.165 0.11291 3.59723 0
M  V30 5679 C 544.773 1.48717 4.22596 0
M  V30 5680 C 546.517 -0.341871 4.23121 0
M  V30 5681 C 544.424 1.46531 5.7296 0
M  V30 5682 H 543.354 0.0304365 0.753385 0
M  V30 5683 H 546.005 0.755568 1.67223 0
M  V30 5684 H 544.387 -0.617692 3.91153 0
M  V30 5685 H 545.561 2.23897 4.02749 0
M  V30 5686 H 543.876 1.88351 3.71366 0
M  V30 5687 H 546.473 -0.377304 5.33367 0
M  V30 5688 H 546.816 -1.36325 3.93346 0
M  V30 5689 H 547.349 0.335256 3.96385 0
M  V30 5690 H 544.088 2.46408 6.07423 0
M  V30 5691 H 543.608 0.755997 5.95017 0
M  V30 5692 H 545.287 1.18618 6.36034 0
M  V30 5693 N 545.419 -1.53889 0.339982 0
M  V30 5694 C 546.382 -2.23547 -0.50592 0
M  V30 5695 C 547.382 -1.23445 -1.03044 0
M  V30 5696 O 548.572 -1.47909 -0.920253 0
M  V30 5697 C 545.704 -2.95234 -1.7044 0
M  V30 5698 H 546.897 -2.99722 0.103247 0
M  V30 5699 H 544.45 -1.56033 0.0912804 0
M  V30 5700 H 545.185 -2.23236 -2.35236 0
M  V30 5701 H 544.97 -3.68654 -1.33553 0
M  V30 5702 H 546.46 -3.48258 -2.30447 0
M  V30 5703 N 546.897 -0.0685191 -1.57451 0
M  V30 5704 C 548.146 0.600898 -1.92541 0
M  V30 5705 C 548.459 1.70967 -0.950239 0
M  V30 5706 O 549.665 2.43844 -1.19384 0
M  V30 5707 C 548.121 1.12019 -3.42023 0
M  V30 5708 C 547.729 0.0426028 -4.4798 0
M  V30 5709 C 549.473 1.76386 -3.86119 0
M  V30 5710 C 547.38 0.575759 -5.88591 0
M  V30 5711 H 546.31 0.228225 -0.71863 0
M  V30 5712 H 548.961 -0.140223 -1.82963 0
M  V30 5713 H 547.343 1.91418 -3.46663 0
M  V30 5714 H 548.517 -0.73182 -4.54952 0
M  V30 5715 H 546.832 -0.504642 -4.13331 0
M  V30 5716 H 549.429 2.17302 -4.88553 0
M  V30 5717 H 549.772 2.62255 -3.23308 0
M  V30 5718 H 550.305 1.03615 -3.84069 0
M  V30 5719 H 547.044 -0.245691 -6.55039 0
M  V30 5720 H 546.564 1.31778 -5.85145 0
M  V30 5721 H 548.243 1.0532 -6.3837 0
M  V30 5722 N 548.375 1.56261 0.205012 0
M  V30 5723 C 549.622 1.8004 0.926927 0
M  V30 5724 C 549.95 0.640086 1.83666 0
M  V30 5725 O 549.205 -0.374702 1.92079 0
M  V30 5726 C 549.504 3.09722 1.78345 0
M  V30 5727 C 549.17 4.39082 1.02555 0
M  V30 5728 C 547.832 4.74226 0.816256 0
M  V30 5729 C 550.184 5.18877 0.491559 0
M  V30 5730 C 547.512 5.86668 0.0613287 0
M  V30 5731 C 549.864 6.32105 -0.250107 0
M  V30 5732 C 548.528 6.6584 -0.470508 0
M  V30 5733 H 547.798 0.658812 0.339187 0
M  V30 5734 H 550.445 1.90515 0.19395 0
M  V30 5735 H 548.75 2.9444 2.5848 0
M  V30 5736 H 550.447 3.25324 2.34446 0
M  V30 5737 H 547.037 4.11497 1.19868 0
M  V30 5738 H 551.221 4.92147 0.640684 0
M  V30 5739 H 546.477 6.11283 -0.119501 0
M  V30 5740 H 550.651 6.93157 -0.671307 0
M  V30 5741 H 548.278 7.5281 -1.05739 0
M  V30 5742 N 549.853 -0.472356 1.50355 0
M  V30 5743 C 550.785 -1.58795 1.65278 0
M  V30 5744 C 551.798 -1.53782 0.534313 0
M  V30 5745 O 552.987 -1.59193 0.807446 0
M  V30 5746 C 550.087 -2.97672 1.62001 0
M  V30 5747 C 549.26 -3.27568 2.89859 0
M  V30 5748 C 548.319 -4.45993 2.79242 0
M  V30 5749 O 547.345 -4.46364 3.53197 0
M  V30 5750 N 548.547 -5.47578 1.92713 0
M  V30 5751 H 551.312 -1.46411 2.61503 0
M  V30 5752 H 548.873 -0.660751 1.47803 0
M  V30 5753 H 550.865 -3.74862 1.52513 0
M  V30 5754 H 549.435 -3.03832 0.735159 0
M  V30 5755 H 548.655 -2.39003 3.13483 0
M  V30 5756 H 549.943 -3.44352 3.74565 0
M  V30 5757 H 549.341 -5.50099 1.31939 0
M  V30 5758 H 547.898 -6.23757 1.8913 0
M  V30 5759 N 551.331 -1.39911 -0.725443 0
M  V30 5760 C 552.577 -1.37858 -1.48738 0
M  V30 5761 C 552.91 0.0224187 -1.94187 0
M  V30 5762 O 552.185 0.989204 -1.67466 0
M  V30 5763 C 552.468 -2.3594 -2.72038 0
M  V30 5764 C 552.321 -3.85023 -2.32546 0
M  V30 5765 C 553.64 -2.31704 -3.74167 0
M  V30 5766 H 550.759 -0.502074 -0.539528 0
M  V30 5767 H 553.401 -1.70974 -0.828728 0
M  V30 5768 H 551.551 -2.0783 -3.28236 0
M  V30 5769 H 553.223 -4.2392 -1.81905 0
M  V30 5770 H 551.466 -4.01334 -1.64661 0
M  V30 5771 H 552.137 -4.49152 -3.20884 0
M  V30 5772 H 554.613 -2.5658 -3.27576 0
M  V30 5773 H 553.489 -3.02395 -4.58092 0
M  V30 5774 H 553.75 -1.3253 -4.21768 0
M  V30 5775 N 552.809 0.956637 -1.25245 0
M  V30 5776 C 554.058 1.69537 -1.0927 0
M  V30 5777 C 554.371 1.92136 0.366503 0
M  V30 5778 O 555.577 2.63687 0.64665 0
M  V30 5779 C 554.033 3.05211 -1.9072 0
M  V30 5780 C 553.641 2.90416 -3.41119 0
M  V30 5781 C 555.385 3.82882 -1.83308 0
M  V30 5782 C 553.292 4.21468 -4.14872 0
M  V30 5783 H 552.222 0.635804 -0.405302 0
M  V30 5784 H 554.873 1.06513 -1.49423 0
M  V30 5785 H 553.255 3.69128 -1.43389 0
M  V30 5786 H 554.429 2.35444 -3.9611 0
M  V30 5787 H 552.744 2.26203 -3.49602 0
M  V30 5788 H 555.341 4.79944 -2.35706 0
M  V30 5789 H 555.684 4.0853 -0.800572 0
M  V30 5790 H 556.217 3.25711 -2.28379 0
M  V30 5791 H 552.956 4.01009 -5.18529 0
M  V30 5792 H 552.476 4.76213 -3.64665 0
M  V30 5793 H 554.155 4.90022 -4.22478 0
M  V30 5794 N 554.287 1.06798 1.15896 0
M  V30 5795 C 555.515 0.808694 1.90441 0
M  V30 5796 C 555.93 -0.637506 1.77711 0
M  V30 5797 O 555.287 -1.43684 1.12522 0
M  V30 5798 C 555.338 1.20068 3.40978 0
M  V30 5799 O 555.059 2.59013 3.53333 0
M  V30 5800 C 556.56 0.96987 4.3256 0
M  V30 5801 H 553.78 0.292809 0.603742 0
M  V30 5802 H 556.324 1.42296 1.46874 0
M  V30 5803 H 554.479 0.630842 3.82229 0
M  V30 5804 H 554.893 2.7485 4.46719 0
M  V30 5805 H 556.367 1.29371 5.36626 0
M  V30 5806 H 556.844 -0.0941209 4.39099 0
M  V30 5807 H 557.45 1.52433 3.97044 0
M  V30 5808 N 555.766 -1.3263 0.851289 0
M  V30 5809 C 556.696 -2.31449 0.308771 0
M  V30 5810 C 557.677 -1.59531 -0.590255 0
M  V30 5811 O 558.862 -1.87351 -0.511205 0
M  V30 5812 C 555.992 -3.43586 -0.506548 0
M  V30 5813 C 554.946 -4.26963 0.297753 0
M  V30 5814 C 554.272 -5.30831 -0.642094 0
M  V30 5815 C 555.572 -4.99643 1.52166 0
M  V30 5816 H 557.266 -2.77074 1.13447 0
M  V30 5817 H 554.812 -1.33207 0.546971 0
M  V30 5818 H 556.765 -4.11754 -0.896474 0
M  V30 5819 H 555.489 -2.96681 -1.36558 0
M  V30 5820 H 554.148 -3.60437 0.669391 0
M  V30 5821 H 553.796 -4.8018 -1.49788 0
M  V30 5822 H 553.496 -5.87501 -0.107968 0
M  V30 5823 H 555.02 -6.01862 -1.02927 0
M  V30 5824 H 556.434 -5.6051 1.20421 0
M  V30 5825 H 554.831 -5.66022 1.99347 0
M  V30 5826 H 555.901 -4.27701 2.28474 0
M  V30 5827 N 557.244 -0.608902 -1.45362 0
M  V30 5828 C 558.154 0.110969 -2.34337 0
M  V30 5829 C 559.17 0.859007 -1.51318 0
M  V30 5830 O 560.346 0.816296 -1.84116 0
M  V30 5831 C 557.411 1.09494 -3.28956 0
M  V30 5832 C 556.472 0.348718 -4.27881 0
M  V30 5833 C 555.705 1.28582 -5.17979 0
M  V30 5834 O 555.928 2.52369 -5.11533 0
M  V30 5835 O 554.862 0.782172 -5.96796 0
M  V30 5836 H 558.688 -0.620258 -2.97299 0
M  V30 5837 H 556.273 -0.36916 -1.44767 0
M  V30 5838 H 558.155 1.66163 -3.87257 0
M  V30 5839 H 556.83 1.80717 -2.68557 0
M  V30 5840 H 555.737 -0.260465 -3.73192 0
M  V30 5841 H 557.07 -0.323049 -4.91139 0
M  V30 5842 N 558.722 1.53707 -0.348139 0
M  V30 5843 C 559.97 2.00591 0.246478 0
M  V30 5844 C 560.291 1.23753 1.50699 0
M  V30 5845 O 559.561 0.345964 1.92821 0
M  V30 5846 H 558.141 0.741053 0.0940679 0
M  V30 5847 H 560.803 1.89139 -0.470354 0
M  V30 5848 H 559.899 3.08297 0.485714 0
M  V30 5849 N 560.2 0.0768682 1.57412 0
M  V30 5850 C 561.446 -0.585926 1.94778 0
M  V30 5851 C 561.801 -1.66912 0.956982 0
M  V30 5852 O 561.094 -1.9159 -0.0199454 0
M  V30 5853 C 561.288 -1.20268 3.36557 0
M  V30 5854 C 561.117 -0.18076 4.49337 0
M  V30 5855 C 559.887 0.236362 5.04747 0
M  V30 5856 C 562.085 0.583978 5.10974 0
M  V30 5857 N 560.067 1.24846 6.01071 0
M  V30 5858 C 561.438 1.44841 6.02844 0
M  V30 5859 C 563.493 0.639492 4.93776 0
M  V30 5860 C 562.196 2.36343 6.79363 0
M  V30 5861 C 564.222 1.54204 5.70942 0
M  V30 5862 C 563.584 2.39414 6.62465 0
M  V30 5863 H 559.683 -0.185281 0.759734 0
M  V30 5864 H 562.267 0.155193 1.9408 0
M  V30 5865 H 560.438 -1.9137 3.37982 0
M  V30 5866 H 562.17 -1.82636 3.61146 0
M  V30 5867 H 558.925 -0.14777 4.73369 0
M  V30 5868 H 559.349 1.75217 6.53933 0
M  V30 5869 H 563.991 -0.00510074 4.228 0
M  V30 5870 H 561.709 3.01836 7.49614 0
M  V30 5871 H 565.295 1.5899 5.59655 0
M  V30 5872 H 564.175 3.0812 7.21132 0
M  V30 5873 N 561.678 -1.56367 -0.196722 0
M  V30 5874 C 562.924 -1.80796 -0.918725 0
M  V30 5875 C 563.257 -0.650645 -1.82976 0
M  V30 5876 O 562.532 0.348889 -1.91345 0
M  V30 5877 C 562.815 -3.15472 -1.73636 0
M  V30 5878 C 562.668 -4.41693 -0.85015 0
M  V30 5879 C 563.987 -3.46824 -2.70927 0
M  V30 5880 H 561.106 -0.657702 -0.332561 0
M  V30 5881 H 563.748 -1.89086 -0.186186 0
M  V30 5882 H 561.898 -3.08536 -2.36088 0
M  V30 5883 H 563.57 -4.60673 -0.240459 0
M  V30 5884 H 561.813 -4.33517 -0.156785 0
M  V30 5885 H 562.484 -5.32419 -1.45719 0
M  V30 5886 H 564.96 -3.54049 -2.18607 0
M  V30 5887 H 563.836 -4.4218 -3.25219 0
M  V30 5888 H 564.097 -2.70236 -3.49893 0
M  V30 5889 N 563.156 0.464375 -1.50603 0
M  V30 5890 C 564.433 1.22549 -1.5245 0
M  V30 5891 C 564.813 2.09327 -0.273035 0
M  V30 5892 O 564.161 2.16074 0.743242 0
M  V30 5893 C 564.371 2.05074 -2.82393 0
M  V30 5894 C 565.719 2.63036 -3.33313 0
M  V30 5895 O 566.743 2.1531 -2.8376 0
M  V30 5896 O 565.602 3.5001 -4.19709 0
M  V30 5897 H 562.696 0.556471 -0.611775 0
M  V30 5898 H 565.242 0.475648 -1.62898 0
M  V30 5899 H 564.014 1.41169 -3.64948 0
M  V30 5900 H 563.637 2.87179 -2.7498 0
M  V30 5901 N 564.634 1.40294 0.718013 0
M  V30 5902 C 565.883 1.37746 1.4734 0
M  V30 5903 C 566.196 -0.0180754 1.95592 0
M  V30 5904 O 567.402 -0.166166 2.70991 0
M  V30 5905 C 565.858 2.4208 2.66318 0
M  V30 5906 C 565.466 3.87432 2.24945 0
M  V30 5907 C 567.21 2.48635 3.44065 0
M  V30 5908 C 565.117 4.83368 3.40748 0
M  V30 5909 H 564.047 0.512165 0.553356 0
M  V30 5910 H 566.698 1.66019 0.781661 0
M  V30 5911 H 565.08 2.06903 3.3765 0
M  V30 5912 H 566.254 4.3174 1.6105 0
M  V30 5913 H 564.569 3.8433 1.60249 0
M  V30 5914 H 567.166 3.17499 4.30231 0
M  V30 5915 H 567.509 1.51611 3.87711 0
M  V30 5916 H 568.042 2.82791 2.79775 0
M  V30 5917 H 564.781 5.81716 3.02136 0
M  V30 5918 H 564.301 4.43726 4.03568 0
M  V30 5919 H 565.98 5.03074 4.06848 0
M  V30 5920 N 566.112 -0.949982 1.2575 0
M  V30 5921 C 567.045 -2.047 1.00862 0
M  V30 5922 C 568.023 -1.62475 -0.0636982 0
M  V30 5923 O 569.207 -1.88343 0.0769153 0
M  V30 5924 C 566.334 -3.34597 0.525613 0
M  V30 5925 C 565.38 -3.95788 1.58916 0
M  V30 5926 S 566.213 -4.31175 3.17567 0
M  V30 5927 C 567.369 -5.64183 2.71013 0
M  V30 5928 H 567.602 -2.25497 1.93749 0
M  V30 5929 H 565.135 -1.09022 1.09332 0
M  V30 5930 H 567.093 -4.09716 0.25359 0
M  V30 5931 H 565.754 -3.11758 -0.382828 0
M  V30 5932 H 564.947 -4.89457 1.20201 0
M  V30 5933 H 564.549 -3.27168 1.81211 0
M  V30 5934 H 566.841 -6.42504 2.14928 0
M  V30 5935 H 567.784 -6.07774 3.6334 0
M  V30 5936 H 568.192 -5.2364 2.1086 0
M  V30 5937 N 567.59 -1.07411 -1.15328 0
M  V30 5938 C 568.82 -0.817595 -1.89734 0
M  V30 5939 C 569.228 0.63297 -1.78298 0
M  V30 5940 O 568.571 1.44594 -1.13306 0
M  V30 5941 C 568.633 -1.14748 -3.40695 0
M  V30 5942 C 568.297 -2.59876 -3.75917 0
M  V30 5943 C 569.294 -3.58122 -3.76888 0
M  V30 5944 C 566.979 -2.95469 -4.06206 0
M  V30 5945 C 568.973 -4.89996 -4.07655 0
M  V30 5946 C 566.66 -4.2754 -4.36638 0
M  V30 5947 C 567.658 -5.24614 -4.37344 0
M  V30 5948 O 567.346 -6.54312 -4.67045 0
M  V30 5949 H 567.078 -0.295175 -0.608151 0
M  V30 5950 H 569.632 -1.43409 -1.47048 0
M  V30 5951 H 567.862 -0.47395 -3.83785 0
M  V30 5952 H 569.551 -0.873397 -3.96392 0
M  V30 5953 H 570.317 -3.31966 -3.53587 0
M  V30 5954 H 566.196 -2.20558 -4.04815 0
M  V30 5955 H 569.74 -5.65759 -4.08121 0
M  V30 5956 H 565.637 -4.53449 -4.59407 0
M  V30 5957 H 566.405 -6.59473 -4.84807 0
M  V30 5958 N 569.068 1.32177 -0.85831 0
M  V30 5959 C 570.298 2.01021 -0.476889 0
M  V30 5960 C 570.706 1.64653 0.931995 0
M  V30 5961 O 570.049 0.865713 1.62022 0
M  V30 5962 C 570.111 3.55413 -0.540528 0
M  V30 5963 C 569.775 4.1522 -1.90895 0
M  V30 5964 C 570.772 4.3318 -2.87491 0
M  V30 5965 C 568.457 4.51212 -2.20709 0
M  V30 5966 C 570.451 4.86306 -4.1205 0
M  V30 5967 C 568.138 5.04042 -3.45521 0
M  V30 5968 C 569.136 5.21538 -4.41007 0
M  V30 5969 O 568.824 5.73238 -5.63608 0
M  V30 5970 H 568.556 0.650059 -0.18547 0
M  V30 5971 H 571.11 1.69648 -1.15796 0
M  V30 5972 H 569.34 3.86196 0.19741 0
M  V30 5973 H 571.029 4.05526 -0.174191 0
M  V30 5974 H 571.795 4.05704 -2.65762 0
M  V30 5975 H 567.674 4.36878 -1.4717 0
M  V30 5976 H 571.218 4.99877 -4.86589 0
M  V30 5977 H 567.115 5.30952 -3.67098 0
M  V30 5978 H 567.883 5.91625 -5.65617 0
M  V30 5979 N 570.547 0.616602 1.45037 0
M  V30 5980 C 571.793 0.115501 2.02471 0
M  V30 5981 C 572.126 -1.25406 1.4828 0
M  V30 5982 O 571.401 -1.82922 0.661051 0
M  V30 5983 C 571.684 0.0863588 3.59996 0
M  V30 5984 C 571.537 1.48723 4.24501 0
M  V30 5985 C 572.856 -0.596762 4.36035 0
M  V30 5986 H 569.975 0.0434461 0.735718 0
M  V30 5987 H 572.617 0.7903 1.72784 0
M  V30 5988 H 570.767 -0.488277 3.85419 0
M  V30 5989 H 572.439 2.10964 4.10234 0
M  V30 5990 H 570.682 2.04534 3.82555 0
M  V30 5991 H 571.353 1.419 5.3345 0
M  V30 5992 H 573.829 -0.10824 4.15959 0
M  V30 5993 H 572.705 -0.586289 5.4576 0
M  V30 5994 H 572.966 -1.66451 4.09569 0
M  V30 5995 N 572.025 -1.5352 0.356285 0
M  V30 5996 C 572.958 -2.2177 -0.537913 0
M  V30 5997 C 573.936 -1.20626 -1.09033 0
M  V30 5998 O 575.12 -1.49494 -1.1482 0
M  V30 5999 C 572.247 -2.90513 -1.74126 0
M  V30 6000 C 571.293 -4.05652 -1.31715 0
M  V30 6001 S 572.126 -5.34505 -0.326236 0
M  V30 6002 C 573.282 -6.06757 -1.53612 0
M  V30 6003 H 573.515 -2.97271 0.0417411 0
M  V30 6004 H 571.048 -1.53761 0.140372 0
M  V30 6005 H 573.006 -3.30735 -2.43155 0
M  V30 6006 H 571.667 -2.14754 -2.29215 0
M  V30 6007 H 570.86 -4.52733 -2.21471 0
M  V30 6008 H 570.462 -3.67272 -0.706183 0
M  V30 6009 H 572.754 -6.30924 -2.46863 0
M  V30 6010 H 573.697 -6.99395 -1.10687 0
M  V30 6011 H 574.105 -5.3708 -1.73796 0
M  V30 6012 N 573.503 -0.0852151 -1.57369 0
M  V30 6013 C 574.78 0.622534 -1.85429 0
M  V30 6014 C 575.16 1.86962 -0.980229 0
M  V30 6015 O 574.508 2.28445 -0.0500219 0
M  V30 6016 C 574.718 0.947374 -3.35896 0
M  V30 6017 C 576.066 1.31509 -4.03721 0
M  V30 6018 O 577.09 1.03869 -3.40719 0
M  V30 6019 O 575.949 1.83231 -5.14868 0
M  V30 6020 H 573.043 0.310513 -0.766492 0
M  V30 6021 H 575.589 -0.117164 -1.69295 0
M  V30 6022 H 574.361 0.0622264 -3.91251 0
M  V30 6023 H 573.984 1.74338 -3.5734 0
M  V30 6024 N 574.981 1.5647 0.188427 0
M  V30 6025 C 575.944 1.9421 1.21718 0
M  V30 6026 C 576.944 0.823901 1.38089 0
M  V30 6027 O 578.134 1.09122 1.35787 0
M  V30 6028 C 575.266 2.22197 2.58537 0
M  V30 6029 H 576.459 2.86252 0.894418 0
M  V30 6030 H 574.012 1.50263 0.430211 0
M  V30 6031 H 574.747 1.32814 2.95856 0
M  V30 6032 H 574.532 3.03688 2.48025 0
M  V30 6033 H 576.022 2.52376 3.3271 0
M  V30 6034 N 576.459 -0.456382 1.50847 0
M  V30 6035 C 577.409 -1.55045 1.67168 0
M  V30 6036 C 578.393 -1.52061 0.525958 0
M  V30 6037 O 579.585 -1.58836 0.781036 0
M  V30 6038 C 576.714 -2.93386 1.78268 0
M  V30 6039 C 575.8 -3.01198 2.98564 0
M  V30 6040 N 576.191 -2.78792 4.22029 0
M  V30 6041 C 574.489 -3.32346 2.97426 0
M  V30 6042 C 575.19 -2.91953 5.03128 0
M  V30 6043 N 574.166 -3.22797 4.37382 0
M  V30 6044 H 577.968 -1.36444 2.60308 0
M  V30 6045 H 575.482 -0.663375 1.48233 0
M  V30 6046 H 577.479 -3.72071 1.88067 0
M  V30 6047 H 576.139 -3.13022 0.862965 0
M  V30 6048 H 577.15 -2.54087 4.51287 0
M  V30 6049 H 573.827 -3.57877 2.15012 0
M  V30 6050 H 575.217 -2.78745 6.11351 0
M  V30 6051 N 577.937 -1.40673 -0.710563 0
M  V30 6052 C 579.162 -1.42741 -1.50465 0
M  V30 6053 C 579.587 -0.0302116 -1.88076 0
M  V30 6054 O 578.945 0.962945 -1.53613 0
M  V30 6055 C 578.993 -2.32873 -2.75322 0
M  V30 6056 O 578.097 -1.77544 -3.72226 0
M  V30 6057 H 577.438 -0.485056 -0.45345 0
M  V30 6058 H 579.968 -1.84961 -0.874681 0
M  V30 6059 H 579.978 -2.48233 -3.23797 0
M  V30 6060 H 578.653 -3.34401 -2.47283 0
M  V30 6061 H 577.23 -1.71556 -3.31093 0
M  V30 6062 N 579.415 0.9433 -1.26252 0
M  V30 6063 C 580.662 1.68925 -1.11672 0
M  V30 6064 C 580.99 1.91499 0.340329 0
M  V30 6065 O 580.245 1.49189 1.26653 0
M  V30 6066 C 580.544 3.07073 -1.82868 0
M  V30 6067 C 580.21 3.04262 -3.32769 0
M  V30 6068 C 578.872 3.03203 -3.7366 0
M  V30 6069 C 581.224 2.96729 -4.28487 0
M  V30 6070 C 578.552 2.92373 -5.0866 0
M  V30 6071 C 580.904 2.87442 -5.63525 0
M  V30 6072 C 579.568 2.84724 -6.03729 0
M  V30 6073 H 578.838 0.618141 -0.408635 0
M  V30 6074 H 581.485 1.10124 -1.56668 0
M  V30 6075 H 579.79 3.69486 -1.30335 0
M  V30 6076 H 581.487 3.63635 -1.69029 0
M  V30 6077 H 578.077 3.05865 -3.00241 0
M  V30 6078 H 582.261 2.96658 -3.97879 0
M  V30 6079 H 577.517 2.88645 -5.38975 0
M  V30 6080 H 581.691 2.80576 -6.37377 0
M  V30 6081 H 579.318 2.76089 -7.08293 0
M  V30 6082 N 580.893 1.08022 1.14757 0
M  V30 6083 C 582.123 0.827646 1.89298 0
M  V30 6084 C 582.531 -0.623506 1.78631 0
M  V30 6085 O 581.874 -1.43991 1.14071 0
M  V30 6086 C 581.936 1.16553 3.40082 0
M  V30 6087 C 581.6 2.61866 3.74533 0
M  V30 6088 C 582.597 3.60116 3.74984 0
M  V30 6089 C 580.282 2.97619 4.04633 0
M  V30 6090 C 582.276 4.92151 4.05051 0
M  V30 6091 C 579.963 4.2985 4.34364 0
M  V30 6092 C 580.961 5.26926 4.34555 0
M  V30 6093 O 580.649 6.5678 4.63568 0
M  V30 6094 H 580.381 0.298396 0.606577 0
M  V30 6095 H 582.935 1.44187 1.46285 0
M  V30 6096 H 581.165 0.494296 3.83528 0
M  V30 6097 H 582.854 0.894407 3.95923 0
M  V30 6098 H 583.62 3.33837 3.51821 0
M  V30 6099 H 579.499 2.22702 4.03639 0
M  V30 6100 H 583.043 5.67915 4.05115 0
M  V30 6101 H 578.94 4.55879 4.56995 0
M  V30 6102 H 579.708 6.62035 4.81303 0
M  V30 6103 N 582.371 -1.3172 0.865308 0
M  V30 6104 C 583.319 -2.30569 0.306674 0
M  V30 6105 C 584.313 -1.59317 -0.575724 0
M  V30 6106 O 585.519 -1.73961 -0.462343 0
M  V30 6107 H 581.894 -0.747681 0.0804834 0
M  V30 6108 H 583.865 -2.75165 1.15441 0
M  V30 6109 C 582.614 -3.44358 -0.480952 0
M  V30 6110 H 581.937 -3.99354 0.18876 0
M  V30 6111 H 583.377 -4.15652 -0.837241 0
M  V30 6112 C 581.836 -2.92574 -1.67039 0
M  V30 6113 O 582.366 -2.90954 -2.76964 0
M  V30 6114 N 580.572 -2.48835 -1.50097 0
M  V30 6115 H 580.119 -2.50353 -0.606738 0
M  V30 6116 H 580.077 -2.14543 -2.29823 0
M  V30 6117 N 583.85 -0.624285 -1.44708 0
M  V30 6118 C 585.096 -0.126051 -2.02107 0
M  V30 6119 C 585.425 1.2496 -1.49048 0
M  V30 6120 O 584.68 1.84163 -0.662005 0
M  V30 6121 C 584.979 -0.0546353 -3.57358 0
M  V30 6122 C 584.644 -1.36815 -4.29642 0
M  V30 6123 C 583.307 -1.72792 -4.49106 0
M  V30 6124 C 585.659 -2.23549 -4.70824 0
M  V30 6125 C 582.986 -2.95222 -5.07012 0
M  V30 6126 C 585.339 -3.45243 -5.30085 0
M  V30 6127 C 584.003 -3.81452 -5.47769 0
M  V30 6128 H 583.273 -0.0461252 -0.739563 0
M  V30 6129 H 585.92 -0.809236 -1.73562 0
M  V30 6130 H 584.225 0.711891 -3.85278 0
M  V30 6131 H 585.922 0.347282 -3.99493 0
M  V30 6132 H 582.512 -1.07817 -4.14817 0
M  V30 6133 H 586.696 -1.9705 -4.55505 0
M  V30 6134 H 581.952 -3.23361 -5.18891 0
M  V30 6135 H 586.125 -4.12689 -5.60946 0
M  V30 6136 H 583.753 -4.76403 -5.92405 0
M  V30 6137 N 585.328 1.53329 -0.364422 0
M  V30 6138 C 586.577 2.00421 0.226747 0
M  V30 6139 C 586.89 1.25581 1.49963 0
M  V30 6140 O 588.096 1.63256 2.16933 0
M  V30 6141 C 586.552 3.57017 0.454618 0
M  V30 6142 C 586.16 4.40734 -0.803568 0
M  V30 6143 C 587.904 4.12468 1.00351 0
M  V30 6144 C 585.811 5.8888 -0.545345 0
M  V30 6145 H 584.741 0.748787 0.0885082 0
M  V30 6146 H 587.392 1.7703 -0.482983 0
M  V30 6147 H 585.774 3.76558 1.22558 0
M  V30 6148 H 586.948 4.32967 -1.57723 0
M  V30 6149 H 585.263 3.96381 -1.27559 0
M  V30 6150 H 587.86 5.20783 1.212 0
M  V30 6151 H 588.203 3.6699 1.9653 0
M  V30 6152 H 588.736 3.96721 0.29274 0
M  V30 6153 H 585.475 6.38633 -1.47743 0
M  V30 6154 H 584.995 5.99499 0.189842 0
M  V30 6155 H 586.674 6.46776 -0.170425 0
M  V30 6156 N 586.806 0.0935595 1.57322 0
M  V30 6157 C 588.036 -0.578095 1.98347 0
M  V30 6158 C 588.444 -1.62357 0.971441 0
M  V30 6159 O 587.787 -1.83639 -0.0473959 0
M  V30 6160 C 587.849 -1.28525 3.3574 0
M  V30 6161 C 587.513 -0.390714 4.55327 0
M  V30 6162 C 588.51 0.360522 5.18648 0
M  V30 6163 C 586.195 -0.309221 5.01347 0
M  V30 6164 C 588.189 1.18125 6.26359 0
M  V30 6165 C 585.876 0.515157 6.08925 0
M  V30 6166 C 586.874 1.25904 6.71295 0
M  V30 6167 O 586.562 2.06978 7.76798 0
M  V30 6168 H 586.294 -0.159767 0.656849 0
M  V30 6169 H 588.848 0.169058 2.04703 0
M  V30 6170 H 587.078 -2.07894 3.26063 0
M  V30 6171 H 588.767 -1.85128 3.61223 0
M  V30 6172 H 589.533 0.307285 4.84026 0
M  V30 6173 H 585.412 -0.877881 4.52564 0
M  V30 6174 H 588.956 1.76236 6.74971 0
M  V30 6175 H 584.853 0.56988 6.42979 0
M  V30 6176 H 585.621 1.99644 7.93779 0
M  V30 6177 N 588.284 -1.56567 -0.180126 0
M  V30 6178 C 589.531 -1.81492 -0.898167 0
M  V30 6179 C 589.859 -0.669225 -1.82624 0
M  V30 6180 O 589.114 0.344096 -1.92651 0
M  V30 6181 C 589.413 -3.1252 -1.73395 0
M  V30 6182 C 589.079 -4.40658 -0.955567 0
M  V30 6183 C 587.741 -4.75465 -0.740707 0
M  V30 6184 C 590.093 -5.19593 -0.408948 0
M  V30 6185 C 587.421 -5.86691 0.0320128 0
M  V30 6186 C 589.773 -6.31627 0.350638 0
M  V30 6187 C 588.437 -6.65007 0.576378 0
M  V30 6188 H 587.707 -0.664125 -0.328662 0
M  V30 6189 H 590.354 -1.908 -0.163616 0
M  V30 6190 H 588.659 -2.98515 -2.53763 0
M  V30 6191 H 590.356 -3.29013 -2.29241 0
M  V30 6192 H 586.946 -4.13352 -1.13306 0
M  V30 6193 H 591.13 -4.93104 -0.562307 0
M  V30 6194 H 586.386 -6.11016 0.216735 0
M  V30 6195 H 590.56 -6.92001 0.781497 0
M  V30 6196 H 588.187 -7.51033 1.17703 0
M  V30 6197 N 589.762 0.448376 -1.51087 0
M  V30 6198 C 591.011 1.19561 -1.62444 0
M  V30 6199 C 591.324 1.92602 -0.341151 0
M  V30 6200 O 592.53 2.69439 -0.333936 0
M  V30 6201 C 590.986 2.17373 -2.8684 0
M  V30 6202 C 590.594 1.5003 -4.22131 0
M  V30 6203 C 592.338 2.92597 -3.0755 0
M  V30 6204 C 590.245 2.46262 -5.37689 0
M  V30 6205 H 589.175 0.449975 -0.605011 0
M  V30 6206 H 591.826 0.463735 -1.77544 0
M  V30 6207 H 590.208 2.93948 -2.65349 0
M  V30 6208 H 591.382 0.790886 -4.53962 0
M  V30 6209 H 589.697 0.870011 -4.0721 0
M  V30 6210 H 592.294 3.64663 -3.91056 0
M  V30 6211 H 592.637 3.53306 -2.20183 0
M  V30 6212 H 593.17 2.23131 -3.29329 0
M  V30 6213 H 589.909 1.90258 -6.27281 0
M  V30 6214 H 589.429 3.15289 -5.10248 0
M  V30 6215 H 591.108 3.07623 -5.6919 0
M  V30 6216 N 591.24 1.41047 0.703093 0
M  V30 6217 C 592.17 1.45067 1.82969 0
M  V30 6218 C 593.151 0.31016 1.67248 0
M  V30 6219 O 594.336 0.520548 1.87093 0
M  V30 6220 C 591.466 1.32478 3.2104 0
M  V30 6221 C 590.42 2.44262 3.51454 0
M  V30 6222 C 589.746 2.16742 4.88801 0
M  V30 6223 C 591.046 3.86606 3.51189 0
M  V30 6224 H 592.74 2.39353 1.79863 0
M  V30 6225 H 590.286 1.15206 0.863919 0
M  V30 6226 H 592.239 1.33904 3.99559 0
M  V30 6227 H 590.963 0.346735 3.24754 0
M  V30 6228 H 589.622 2.42107 2.75282 0
M  V30 6229 H 589.27 1.17299 4.89132 0
M  V30 6230 H 588.97 2.91643 5.10116 0
M  V30 6231 H 590.494 2.19872 5.69639 0
M  V30 6232 H 591.908 3.90517 4.19725 0
M  V30 6233 H 590.305 4.61128 3.84033 0
M  V30 6234 H 591.375 4.15296 2.50315 0
M  V30 6235 N 592.718 -0.936591 1.26751 0
M  V30 6236 C 593.648 -2.05315 1.11212 0
M  V30 6237 C 594.629 -1.70092 0.0160262 0
M  V30 6238 O 595.814 -1.93279 0.188894 0
M  V30 6239 C 592.944 -3.39123 0.749171 0
M  V30 6240 C 591.898 -3.88425 1.79751 0
M  V30 6241 C 591.224 -5.18936 1.28876 0
M  V30 6242 C 592.524 -4.12798 3.19992 0
M  V30 6243 H 594.218 -2.18573 2.04613 0
M  V30 6244 H 591.764 -1.05027 0.985159 0
M  V30 6245 H 593.717 -4.16704 0.627323 0
M  V30 6246 H 592.441 -3.25855 -0.220543 0
M  V30 6247 H 591.1 -3.13028 1.90811 0
M  V30 6248 H 590.748 -5.02051 0.308757 0
M  V30 6249 H 590.448 -5.52892 1.98958 0
M  V30 6250 H 591.972 -5.99096 1.17967 0
M  V30 6251 H 593.386 -4.80977 3.11983 0
M  V30 6252 H 591.783 -4.58044 3.87705 0
M  V30 6253 H 592.853 -3.18412 3.65707 0
M  V30 6254 N 594.196 -1.08629 -1.14182 0
M  V30 6255 C 595.445 -0.812271 -1.84621 0
M  V30 6256 C 595.758 0.664313 -1.83973 0
M  V30 6257 O 596.964 1.05357 -2.50224 0
M  V30 6258 C 595.42 -1.4031 -3.31423 0
M  V30 6259 C 595.028 -2.91164 -3.40481 0
M  V30 6260 C 596.772 -1.20767 -4.06959 0
M  V30 6261 C 594.679 -3.43373 -4.81507 0
M  V30 6262 H 593.609 -0.30019 -0.691666 0
M  V30 6263 H 596.26 -1.30798 -1.28701 0
M  V30 6264 H 594.642 -0.835096 -3.87094 0
M  V30 6265 H 595.816 -3.5412 -2.94848 0
M  V30 6266 H 594.131 -3.09646 -2.78403 0
M  V30 6267 H 596.728 -1.57237 -5.11058 0
M  V30 6268 H 597.071 -0.147664 -4.16038 0
M  V30 6269 H 597.604 -1.74274 -3.57594 0
M  V30 6270 H 594.343 -4.48958 -4.77616 0
M  V30 6271 H 593.863 -2.85176 -5.27669 0
M  V30 6272 H 595.542 -3.40095 -5.50404 0
M  V30 6273 N 595.674 1.31259 -0.872281 0
M  V30 6274 C 596.923 1.95893 -0.480493 0
M  V30 6275 C 597.236 1.697 0.972688 0
M  V30 6276 O 598.442 2.28214 1.47073 0
M  V30 6277 C 596.898 3.50705 -0.808342 0
M  V30 6278 C 596.506 3.85735 -2.27844 0
M  V30 6279 C 598.25 4.21719 -0.485136 0
M  V30 6280 C 596.157 5.33668 -2.54858 0
M  V30 6281 H 595.087 0.733182 -0.175955 0
M  V30 6282 H 597.738 1.49396 -1.0655 0
M  V30 6283 H 596.12 3.95706 -0.152558 0
M  V30 6284 H 597.294 3.51686 -2.97748 0
M  V30 6285 H 595.609 3.27792 -2.56791 0
M  V30 6286 H 598.206 5.30559 -0.664166 0
M  V30 6287 H 598.549 4.12316 0.574592 0
M  V30 6288 H 599.082 3.82359 -1.09756 0
M  V30 6289 H 595.821 5.48109 -3.59523 0
M  V30 6290 H 595.341 5.69061 -1.8955 0
M  V30 6291 H 597.02 6.00958 -2.39706 0
M  V30 6292 N 597.152 0.631951 1.44375 0
M  V30 6293 C 598.398 0.13697 2.02337 0
M  V30 6294 C 598.731 -1.23826 1.49602 0
M  V30 6295 O 598.006 -1.8221 0.680415 0
M  V30 6296 C 598.289 0.124536 3.59885 0
M  V30 6297 C 598.142 1.53217 4.229 0
M  V30 6298 C 599.461 -0.550481 4.36644 0
M  V30 6299 H 596.58 0.051247 0.735216 0
M  V30 6300 H 599.222 0.808581 1.71936 0
M  V30 6301 H 597.372 -0.44737 3.85916 0
M  V30 6302 H 599.044 2.15303 4.07973 0
M  V30 6303 H 597.287 2.0858 3.80364 0
M  V30 6304 H 597.958 1.4755 5.31914 0
M  V30 6305 H 600.434 -0.0641154 4.16051 0
M  V30 6306 H 599.31 -0.528371 5.46351 0
M  V30 6307 H 599.571 -1.62097 4.11311 0
M  V30 6308 N 598.631 -1.53133 0.372548 0
M  V30 6309 C 599.879 -2.00958 -0.214534 0
M  V30 6310 C 600.2 -1.26135 -1.48711 0
M  V30 6311 O 599.47 -0.376597 -1.92246 0
M  V30 6312 H 598.05 -0.742456 -0.0822664 0
M  V30 6313 H 600.712 -1.88367 0.500385 0
M  V30 6314 H 599.808 -3.09031 -0.436605 0
M  V30 6315 N 600.109 -0.101901 -1.5727 0
M  V30 6316 C 601.334 0.571759 -1.99363 0
M  V30 6317 C 601.759 1.60507 -0.980768 0
M  V30 6318 O 601.117 1.81231 0.0498517 0
M  V30 6319 C 601.165 1.18996 -3.404 0
M  V30 6320 O 600.269 2.30572 -3.41922 0
M  V30 6321 H 599.61 0.144449 -0.648098 0
M  V30 6322 H 602.14 -0.185325 -2.03759 0
M  V30 6323 H 602.15 1.52962 -3.78241 0
M  V30 6324 H 600.825 0.432984 -4.1364 0
M  V30 6325 H 599.402 1.98173 -3.15883 0
M  V30 6326 N 601.587 1.56661 0.17182 0
M  V30 6327 C 602.834 1.81965 0.888529 0
M  V30 6328 C 603.162 0.6789 1.82267 0
M  V30 6329 O 602.417 -0.333875 1.92831 0
M  V30 6330 C 602.716 3.13435 1.71736 0
M  V30 6331 C 602.382 4.41159 0.932184 0
M  V30 6332 C 601.044 4.75851 0.715481 0
M  V30 6333 C 603.396 5.19803 0.381387 0
M  V30 6334 C 600.724 5.86666 -0.063126 0
M  V30 6335 C 603.076 6.31433 -0.384129 0
M  V30 6336 C 601.74 6.64692 -0.611637 0
M  V30 6337 H 601.01 0.665859 0.325136 0
M  V30 6338 H 603.657 1.90884 0.153495 0
M  V30 6339 H 601.962 2.99857 2.52177 0
M  V30 6340 H 603.659 3.30224 2.27493 0
M  V30 6341 H 600.249 4.13947 1.11112 0
M  V30 6342 H 604.433 4.93396 0.536148 0
M  V30 6343 H 599.689 6.10892 -0.249136 0
M  V30 6344 H 603.863 6.91577 -0.818185 0
M  V30 6345 H 601.49 7.50398 -1.21684 0
M  V30 6346 N 603.065 -0.440357 1.51323 0
M  V30 6347 C 604.312 -1.19004 1.63842 0
M  V30 6348 C 604.64 -1.91266 0.35321 0
M  V30 6349 O 603.895 -1.84143 -0.662565 0
M  V30 6350 C 604.194 -2.2339 2.78984 0
M  V30 6351 C 603.86 -1.68162 4.18369 0
M  V30 6352 C 602.522 -1.52823 4.56288 0
M  V30 6353 C 604.874 -1.27524 5.05358 0
M  V30 6354 C 602.202 -0.953157 5.78906 0
M  V30 6355 C 604.554 -0.714474 6.28552 0
M  V30 6356 C 603.218 -0.547961 6.65247 0
M  V30 6357 H 602.488 -0.435468 0.59954 0
M  V30 6358 H 605.135 -0.481538 1.85347 0
M  V30 6359 H 603.44 -3.00267 2.51688 0
M  V30 6360 H 605.137 -2.81211 2.85869 0
M  V30 6361 H 601.727 -1.81077 3.8847 0
M  V30 6362 H 605.911 -1.38197 4.76671 0
M  V30 6363 H 601.167 -0.811882 6.05986 0
M  V30 6364 H 605.341 -0.391059 6.95301 0
M  V30 6365 H 602.968 -0.100222 7.60134 0
M  V30 6366 N 604.543 -1.41418 -0.695603 0
M  V30 6367 C 605.476 -1.3768 -1.81988 0
M  V30 6368 C 606.454 -0.244061 -1.60758 0
M  V30 6369 O 607.638 -0.430965 -1.83507 0
M  V30 6370 C 604.765 -1.1476 -3.18666 0
M  V30 6371 C 603.811 -2.30752 -3.58686 0
M  V30 6372 S 604.644 -3.9323 -3.63498 0
M  V30 6373 C 605.8 -3.72613 -5.02902 0
M  V30 6374 H 606.033 -2.32822 -1.84882 0
M  V30 6375 H 603.566 -1.27942 -0.86431 0
M  V30 6376 H 605.524 -1.02223 -3.97569 0
M  V30 6377 H 604.185 -0.212385 -3.13381 0
M  V30 6378 H 603.378 -2.10409 -4.57978 0
M  V30 6379 H 602.98 -2.39696 -2.87092 0
M  V30 6380 H 605.272 -3.32317 -5.904 0
M  V30 6381 H 606.215 -4.71507 -5.28286 0
M  V30 6382 H 606.623 -3.0589 -4.74438 0
M  V30 6383 N 606.021 0.929856 -1.27246 0
M  V30 6384 C 607.27 1.67182 -1.12842 0
M  V30 6385 C 607.583 1.9287 0.325666 0
M  V30 6386 O 608.789 2.64999 0.590572 0
M  V30 6387 C 607.245 3.01097 -1.97151 0
M  V30 6388 C 606.853 2.83115 -3.47203 0
M  V30 6389 C 608.597 3.78907 -1.91389 0
M  V30 6390 C 606.504 4.12573 -4.23719 0
M  V30 6391 H 605.434 0.627064 -0.418697 0
M  V30 6392 H 608.085 1.0332 -1.51649 0
M  V30 6393 H 606.467 3.66004 -1.51186 0
M  V30 6394 H 607.641 2.26989 -4.01015 0
M  V30 6395 H 605.956 2.18736 -3.54321 0
M  V30 6396 H 608.553 4.74837 -2.45834 0
M  V30 6397 H 608.896 4.0674 -0.887047 0
M  V30 6398 H 609.429 3.20794 -2.35237 0
M  V30 6399 H 606.168 3.8992 -5.26918 0
M  V30 6400 H 605.688 4.68371 -3.74685 0
M  V30 6401 H 607.367 4.8095 -4.32777 0
M  V30 6402 N 607.499 1.09233 1.13605 0
M  V30 6403 C 608.447 0.724572 2.21027 0
M  V30 6404 C 609.441 -0.273595 1.67176 0
M  V30 6405 O 610.647 -0.135266 1.79491 0
M  V30 6406 H 607.022 0.216319 0.720215 0
M  V30 6407 H 608.993 1.63975 2.49309 0
M  V30 6408 C 607.742 0.159126 3.47336 0
M  V30 6409 H 607.065 0.918387 3.89109 0
M  V30 6410 H 608.505 -0.0602851 4.23957 0
M  V30 6411 C 606.964 -1.10514 3.18258 0
M  V30 6412 O 607.494 -2.18869 3.36837 0
M  V30 6413 N 605.7 -1.01886 2.72154 0
M  V30 6414 H 605.247 -0.137027 2.57235 0
M  V30 6415 H 605.205 -1.8655 2.53074 0
M  V30 6416 N 608.977 -1.30795 0.87923 0
M  V30 6417 C 609.907 -2.30742 0.357796 0
M  V30 6418 C 610.888 -1.60747 -0.556283 0
M  V30 6419 O 612.073 -1.88393 -0.47135 0
M  V30 6420 C 609.203 -3.44583 -0.433555 0
M  V30 6421 C 608.157 -4.26235 0.388251 0
M  V30 6422 C 607.483 -5.32073 -0.529352 0
M  V30 6423 C 608.783 -4.96303 1.62729 0
M  V30 6424 H 610.477 -2.74605 1.19299 0
M  V30 6425 H 608.023 -1.32017 0.575104 0
M  V30 6426 H 609.976 -4.13563 -0.808934 0
M  V30 6427 H 608.7 -2.99511 -1.30234 0
M  V30 6428 H 607.359 -3.58936 0.745695 0
M  V30 6429 H 607.007 -4.83249 -1.39569 0
M  V30 6430 H 606.707 -5.87598 0.0166741 0
M  V30 6431 H 608.231 -6.0391 -0.901373 0
M  V30 6432 H 609.645 -5.5783 1.32283 0
M  V30 6433 H 608.042 -5.61666 2.11309 0
M  V30 6434 H 609.112 -4.22758 2.37494 0
M  V30 6435 N 610.455 -0.639598 -1.44038 0
M  V30 6436 C 611.695 -0.150902 -2.03842 0
M  V30 6437 C 612.059 1.20744 -1.49281 0
M  V30 6438 O 613.26 1.78875 -2.00642 0
M  V30 6439 C 611.531 -0.146114 -3.57101 0
M  V30 6440 S 613.09 0.276725 -4.37927 0
M  V30 6441 H 609.908 -0.0652447 -0.708 0
M  V30 6442 H 612.51 -0.844886 -1.76301 0
M  V30 6443 H 611.214 -1.13769 -3.94316 0
M  V30 6444 H 610.745 0.568846 -3.89266 0
M  V30 6445 H 612.76 1.51893 -4.7238 0
M  V30 6446 N 611.933 1.52934 -0.380664 0
M  V30 6447 C 612.863 2.29118 0.450268 0
M  V30 6448 C 613.844 1.32153 1.07096 0
M  V30 6449 O 615.029 1.61038 1.08537 0
M  V30 6450 C 612.159 3.09161 1.58231 0
M  V30 6451 C 611.113 4.13938 1.0881 0
M  V30 6452 C 610.439 4.82153 2.31155 0
M  V30 6453 C 611.739 5.22048 0.162146 0
M  V30 6454 H 613.433 2.98826 -0.185361 0
M  V30 6455 H 610.979 1.43715 -0.0905886 0
M  V30 6456 H 612.932 3.61211 2.17036 0
M  V30 6457 H 611.656 2.3717 2.2454 0
M  V30 6458 H 610.315 3.62855 0.522633 0
M  V30 6459 H 609.963 4.06719 2.95953 0
M  V30 6460 H 609.663 5.52966 1.98752 0
M  V30 6461 H 611.187 5.37004 2.90618 0
M  V30 6462 H 612.601 5.6951 0.658126 0
M  V30 6463 H 610.998 6.00057 -0.0717122 0
M  V30 6464 H 612.068 4.78398 -0.791438 0
M  V30 6465 N 613.412 0.11024 1.57214 0
M  V30 6466 C 614.658 -0.550684 1.9518 0
M  V30 6467 C 614.991 -1.66885 0.993122 0
M  V30 6468 O 614.266 -1.94479 0.0287907 0
M  V30 6469 C 614.549 -1.09163 3.43155 0
M  V30 6470 C 614.402 0.0225198 4.49794 0
M  V30 6471 C 615.721 -1.98527 3.92778 0
M  V30 6472 H 612.84 -0.198706 0.709708 0
M  V30 6473 H 615.482 0.184024 1.89107 0
M  V30 6474 H 613.632 -1.71775 3.48462 0
M  V30 6475 H 615.304 0.657443 4.56591 0
M  V30 6476 H 613.547 0.686868 4.28328 0
M  V30 6477 H 614.218 -0.39706 5.5057 0
M  V30 6478 H 616.694 -1.458 3.8972 0
M  V30 6479 H 615.57 -2.33298 4.96853 0
M  V30 6480 H 615.831 -2.90846 3.32958 0
M  V30 6481 N 614.89 -1.56749 -0.16351 0
M  V30 6482 C 616.136 -1.82704 -0.880168 0
M  V30 6483 C 616.469 -0.689311 -1.81555 0
M  V30 6484 O 615.744 0.308224 -1.92042 0
M  V30 6485 C 616.027 -3.19084 -1.66905 0
M  V30 6486 C 615.88 -4.43397 -0.756269 0
M  V30 6487 C 617.199 -3.52493 -2.63509 0
M  V30 6488 H 614.318 -0.664608 -0.318535 0
M  V30 6489 H 616.96 -1.89438 -0.146036 0
M  V30 6490 H 615.11 -3.13475 -2.2949 0
M  V30 6491 H 616.782 -4.61079 -0.14269 0
M  V30 6492 H 615.025 -4.33752 -0.0647944 0
M  V30 6493 H 615.696 -5.3539 -1.34393 0
M  V30 6494 H 618.172 -3.58606 -2.11047 0
M  V30 6495 H 617.048 -4.48979 -3.15767 0
M  V30 6496 H 617.309 -2.77597 -3.44082 0
M  V30 6497 N 616.368 0.432326 -1.51554 0
M  V30 6498 C 617.617 1.17831 -1.63703 0
M  V30 6499 C 617.93 1.92229 -0.36156 0
M  V30 6500 O 619.136 2.69069 -0.362495 0
M  V30 6501 C 617.592 2.14318 -2.89129 0
M  V30 6502 C 617.2 1.45544 -4.23699 0
M  V30 6503 C 618.944 2.89319 -3.10636 0
M  V30 6504 C 616.851 2.40545 -5.4027 0
M  V30 6505 H 615.781 0.443533 -0.60975 0
M  V30 6506 H 618.432 0.444878 -1.78026 0
M  V30 6507 H 616.814 2.91117 -2.68452 0
M  V30 6508 H 617.988 0.742693 -4.54775 0
M  V30 6509 H 616.303 0.826772 -4.0811 0
M  V30 6510 H 618.9 3.60495 -3.94902 0
M  V30 6511 H 619.243 3.50951 -2.23918 0
M  V30 6512 H 619.776 2.19625 -3.31677 0
M  V30 6513 H 616.515 1.83594 -6.29264 0
M  V30 6514 H 616.035 3.09859 -5.13563 0
M  V30 6515 H 617.714 3.01569 -5.72421 0
M  V30 6516 N 617.846 1.41785 0.688094 0
M  V30 6517 C 618.809 1.43936 1.78368 0
M  V30 6518 C 619.809 0.328866 1.57401 0
M  V30 6519 O 620.999 0.589093 1.63937 0
M  V30 6520 C 618.131 1.25804 3.16838 0
M  V30 6521 H 619.324 2.41472 1.77852 0
M  V30 6522 H 616.877 1.28037 0.896448 0
M  V30 6523 H 617.612 0.291386 3.22988 0
M  V30 6524 H 617.397 2.06272 3.33458 0
M  V30 6525 H 618.887 1.30162 3.96797 0
M  V30 6526 N 619.324 -0.923095 1.27737 0
M  V30 6527 C 620.552 -1.70525 1.17171 0
M  V30 6528 C 620.967 -1.86847 -0.270881 0
M  V30 6529 O 620.324 -1.38879 -1.18401 0
M  V30 6530 C 620.375 -3.10242 1.85559 0
M  V30 6531 O 620.096 -2.94683 3.24182 0
M  V30 6532 C 621.597 -4.04586 1.81176 0
M  V30 6533 H 618.817 -0.533347 0.407163 0
M  V30 6534 H 621.361 -1.15599 1.68692 0
M  V30 6535 H 619.516 -3.62014 1.3793 0
M  V30 6536 H 619.93 -3.83045 3.58297 0
M  V30 6537 H 621.404 -5.00119 2.33633 0
M  V30 6538 H 621.881 -4.3218 0.782099 0
M  V30 6539 H 622.487 -3.58741 2.2844 0
M  V30 6540 N 620.802 -1.09834 -1.13024 0
M  V30 6541 C 621.734 -0.699379 -2.18269 0
M  V30 6542 C 622.747 0.260841 -1.60697 0
M  V30 6543 O 623.936 0.0462538 -1.7844 0
M  V30 6544 C 621.036 -0.0104537 -3.38898 0
M  V30 6545 C 620.209 -0.993275 -4.25973 0
M  V30 6546 C 619.268 -0.336982 -5.2512 0
M  V30 6547 O 618.294 -0.985892 -5.60597 0
M  V30 6548 N 619.496 0.90716 -5.73368 0
M  V30 6549 H 622.261 -1.60486 -2.5311 0
M  V30 6550 H 619.822 -0.986337 -1.28386 0
M  V30 6551 H 621.814 0.43991 -4.02302 0
M  V30 6552 H 620.384 0.797335 -3.0226 0
M  V30 6553 H 619.604 -1.62208 -3.5928 0
M  V30 6554 H 620.892 -1.65876 -4.81002 0
M  V30 6555 H 620.29 1.45384 -5.46699 0
M  V30 6556 H 618.847 1.30077 -6.38689 0
M  V30 6557 N 622.28 1.30327 -0.886154 0
M  V30 6558 C 623.527 1.96097 -0.505192 0
M  V30 6559 C 623.855 1.69952 0.945868 0
M  V30 6560 O 623.11 0.997653 1.68361 0
M  V30 6561 C 623.409 3.49906 -0.728042 0
M  V30 6562 C 623.075 3.96103 -2.15437 0
M  V30 6563 C 621.737 4.08428 -2.5444 0
M  V30 6564 C 624.089 4.20177 -3.08384 0
M  V30 6565 C 621.417 4.42189 -3.85598 0
M  V30 6566 C 623.769 4.55407 -4.39075 0
M  V30 6567 C 622.433 4.65941 -4.7797 0
M  V30 6568 H 621.703 0.71757 -0.184863 0
M  V30 6569 H 624.35 1.55171 -1.12223 0
M  V30 6570 H 622.655 3.9179 -0.027978 0
M  V30 6571 H 624.352 3.98869 -0.412862 0
M  V30 6572 H 620.942 3.87017 -1.84162 0
M  V30 6573 H 625.126 4.10134 -2.7947 0
M  V30 6574 H 620.382 4.48544 -4.15473 0
M  V30 6575 H 624.556 4.72986 -5.11133 0
M  V30 6576 H 622.183 4.91856 -5.79639 0
M  V30 6577 N 623.758 0.647228 1.43697 0
M  V30 6578 C 624.983 0.164083 2.0675 0
M  V30 6579 C 625.408 -1.15892 1.48158 0
M  V30 6580 O 624.766 -1.71459 0.589194 0
M  V30 6581 C 624.814 0.0800368 3.60511 0
M  V30 6582 O 623.918 -0.959453 4.01084 0
M  V30 6583 H 623.259 0.0921288 0.657578 0
M  V30 6584 H 625.789 0.88846 1.84303 0
M  V30 6585 H 625.799 -0.105263 4.07864 0
M  V30 6586 H 624.474 1.04586 4.02535 0
M  V30 6587 H 623.051 -0.747425 3.65333 0
M  V30 6588 N 625.236 -1.5273 0.388769 0
M  V30 6589 C 626.146 -2.30165 -0.453993 0
M  V30 6590 C 627.162 -1.37058 -1.07197 0
M  V30 6591 O 628.338 -1.70127 -1.0779 0
M  V30 6592 C 625.403 -3.09303 -1.56628 0
M  V30 6593 C 624.464 -4.18117 -0.973467 0
M  V30 6594 C 623.697 -4.93472 -2.03275 0
M  V30 6595 O 623.92 -4.68913 -3.24772 0
M  V30 6596 O 622.854 -5.78833 -1.65034 0
M  V30 6597 H 626.68 -3.03185 0.176816 0
M  V30 6598 H 624.265 -1.4862 0.152501 0
M  V30 6599 H 626.147 -3.58648 -2.21246 0
M  V30 6600 H 624.822 -2.39098 -2.18206 0
M  V30 6601 H 623.729 -3.7297 -0.290556 0
M  V30 6602 H 625.062 -4.90556 -0.401908 0
M  V30 6603 N 626.714 -0.118576 -1.57153 0
M  V30 6604 C 627.942 0.54726 -1.99531 0
M  V30 6605 C 628.357 1.60251 -0.998246 0
M  V30 6606 O 627.714 1.82498 0.00893106 0
M  V30 6607 C 627.765 1.17378 -3.41913 0
M  V30 6608 O 627.486 0.160703 -4.37805 0
M  V30 6609 C 628.987 1.92297 -3.9942 0
M  V30 6610 H 626.207 0.144919 -0.655164 0
M  V30 6611 H 628.751 -0.20479 -2.03472 0
M  V30 6612 H 626.906 1.87661 -3.38913 0
M  V30 6613 H 627.32 0.61586 -5.20872 0
M  V30 6614 H 628.794 2.31462 -5.01128 0
M  V30 6615 H 629.271 2.79801 -3.38538 0
M  V30 6616 H 629.877 1.26777 -4.05965 0
M  V30 6617 N 628.193 1.56834 0.155195 0
M  V30 6618 C 629.14 1.97646 1.19184 0
M  V30 6619 C 630.11 0.842788 1.4313 0
M  V30 6620 O 631.295 1.1042 1.55602 0
M  V30 6621 C 628.435 2.35527 2.52232 0
M  V30 6622 C 627.548 3.62147 2.35529 0
M  V30 6623 C 626.683 3.89167 3.61555 0
M  V30 6624 C 625.722 5.09084 3.39853 0
M  V30 6625 N 624.859 5.32156 4.5799 0
M  V30 6626 H 629.699 2.8601 0.836802 0
M  V30 6627 H 627.236 1.41507 0.401758 0
M  V30 6628 H 629.194 2.55516 3.29799 0
M  V30 6629 H 627.824 1.50253 2.85699 0
M  V30 6630 H 626.876 3.4998 1.49057 0
M  V30 6631 H 628.188 4.49871 2.15448 0
M  V30 6632 H 627.342 4.09611 4.47553 0
M  V30 6633 H 626.081 2.9985 3.84632 0
M  V30 6634 H 625.086 4.88522 2.52243 0
M  V30 6635 H 626.311 5.99947 3.18183 0
M  V30 6636 H 624.257 4.45791 4.81255 0
M  V30 6637 H 624.174 6.14133 4.40882 0
M  V30 6638 H 625.442 5.57091 5.45225 0
M  V30 6639 N 629.671 -0.424282 1.51781 0
M  V30 6640 C 630.603 -1.53457 1.70246 0
M  V30 6641 C 631.616 -1.52004 0.582967 0
M  V30 6642 O 632.805 -1.56544 0.857683 0
M  V30 6643 C 629.905 -2.92368 1.71389 0
M  V30 6644 C 629.078 -3.1818 3.00133 0
M  V30 6645 C 628.137 -4.36884 2.9329 0
M  V30 6646 O 627.163 -4.34901 3.67219 0
M  V30 6647 N 628.365 -5.4117 2.10036 0
M  V30 6648 H 631.13 -1.38017 2.66029 0
M  V30 6649 H 628.691 -0.613394 1.4983 0
M  V30 6650 H 630.683 -3.6982 1.64362 0
M  V30 6651 H 629.253 -3.0134 0.831449 0
M  V30 6652 H 628.473 -2.28908 3.20928 0
M  V30 6653 H 629.761 -3.32261 3.85331 0
M  V30 6654 H 629.159 -5.45623 1.49373 0
M  V30 6655 H 627.716 -6.17425 2.08878 0
M  V30 6656 N 631.149 -1.42148 -0.680565 0
M  V30 6657 C 632.565 -1.24947 -0.992995 0
M  V30 6658 C 632.765 -0.149527 -2.00944 0
M  V30 6659 O 631.821 0.481145 -2.47873 0
M  V30 6660 C 633.134 -2.60426 -1.5033 0
M  V30 6661 C 634.682 -2.67733 -1.62137 0
M  V30 6662 C 635.157 -4.03564 -2.16565 0
M  V30 6663 N 636.648 -4.05488 -2.23905 0
M  V30 6664 C 637.383 -5.07401 -2.67081 0
M  V30 6665 N 636.879 -6.19698 -3.09751 0
M  V30 6666 N 638.672 -4.94758 -2.66778 0
M  V30 6667 H 630.823 -2.12399 -0.0074788 0
M  V30 6668 H 633.086 -0.94571 -0.0658529 0
M  V30 6669 H 632.792 -3.41743 -0.830947 0
M  V30 6670 H 632.666 -2.83949 -2.483 0
M  V30 6671 H 635.053 -1.86765 -2.2848 0
M  V30 6672 H 635.134 -2.48004 -0.626713 0
M  V30 6673 H 634.778 -4.84987 -1.50833 0
M  V30 6674 H 634.708 -4.20641 -3.1681 0
M  V30 6675 H 637.199 -3.24415 -1.93812 0
M  V30 6676 H 637.512 -6.93318 -3.41365 0
M  V30 6677 H 635.857 -6.23212 -3.07623 0
M  V30 6678 H 639.048 -4.06105 -2.32801 0
M  V30 6679 H 639.221 -5.74317 -3.00107 0
M  V30 6680 N 632.627 0.916307 -1.28225 0
M  V30 6681 C 633.537 2.05165 -1.13775 0
M  V30 6682 C 634.553 1.73879 -0.0649418 0
M  V30 6683 O 635.729 1.99531 -0.273722 0
M  V30 6684 C 632.794 3.37385 -0.798267 0
M  V30 6685 C 631.855 3.82296 -1.95316 0
M  V30 6686 C 631.088 5.08206 -1.62978 0
M  V30 6687 O 631.311 5.6781 -0.542948 0
M  V30 6688 O 630.245 5.48768 -2.47261 0
M  V30 6689 H 634.071 2.20273 -2.09078 0
M  V30 6690 H 631.656 1.0373 -1.07519 0
M  V30 6691 H 633.538 4.16773 -0.62278 0
M  V30 6692 H 632.213 3.23458 0.125139 0
M  V30 6693 H 631.12 3.03746 -2.18378 0
M  V30 6694 H 632.453 4.00782 -2.85718 0
M  V30 6695 N 634.105 1.10431 1.1244 0
M  V30 6696 C 635.33 0.869089 1.88313 0
M  V30 6697 C 635.755 -0.574912 1.79099 0
M  V30 6698 O 635.113 -1.40496 1.14589 0
M  V30 6699 C 635.161 1.32208 3.3549 0
M  V30 6700 O 634.265 0.487092 4.09513 0
M  V30 6701 H 633.606 0.313894 0.585121 0
M  V30 6702 H 636.136 1.47111 1.42195 0
M  V30 6703 H 636.146 1.31201 3.86329 0
M  V30 6704 H 634.821 2.37364 3.41513 0
M  V30 6705 H 633.398 0.562372 3.68635 0
M  V30 6706 N 635.583 -1.29855 0.893053 0
M  V30 6707 C 636.515 -2.26911 0.32311 0
M  V30 6708 C 637.528 -1.54039 -0.526858 0
M  V30 6709 O 638.717 -1.75132 -0.345095 0
M  V30 6710 C 635.817 -3.34266 -0.558509 0
M  V30 6711 C 634.99 -4.36601 0.264222 0
M  V30 6712 C 634.049 -5.23326 -0.549171 0
M  V30 6713 O 633.075 -5.69192 0.0309883 0
M  V30 6714 N 634.277 -5.50008 -1.85664 0
M  V30 6715 H 637.042 -2.76455 1.15726 0
M  V30 6716 H 634.603 -1.4312 0.756859 0
M  V30 6717 H 636.595 -3.89211 -1.1089 0
M  V30 6718 H 635.165 -2.8459 -1.29334 0
M  V30 6719 H 634.385 -3.81409 0.996046 0
M  V30 6720 H 635.673 -5.02019 0.827906 0
M  V30 6721 H 635.071 -5.14542 -2.35081 0
M  V30 6722 H 633.628 -6.07796 -2.35431 0
M  V30 6723 N 637.061 -0.65484 -1.43351 0
M  V30 6724 C 637.991 0.0221809 -2.33489 0
M  V30 6725 C 638.972 0.810272 -1.49561 0
M  V30 6726 O 640.157 0.771426 -1.78221 0
M  V30 6727 C 637.287 0.988117 -3.32947 0
M  V30 6728 C 636.241 0.310026 -4.26876 0
M  V30 6729 C 635.567 1.38752 -5.16384 0
M  V30 6730 C 636.867 -0.798589 -5.16159 0
M  V30 6731 H 638.561 -0.730571 -2.9035 0
M  V30 6732 H 636.107 -0.352773 -1.39612 0
M  V30 6733 H 638.06 1.47067 -3.94904 0
M  V30 6734 H 636.784 1.77205 -2.74346 0
M  V30 6735 H 635.443 -0.152097 -3.66284 0
M  V30 6736 H 635.091 2.16293 -4.54121 0
M  V30 6737 H 634.791 0.939051 -5.80048 0
M  V30 6738 H 636.315 1.87141 -5.81215 0
M  V30 6739 H 637.729 -0.398126 -5.71916 0
M  V30 6740 H 636.126 -1.17163 -5.88552 0
M  V30 6741 H 637.196 -1.65588 -4.55751 0
M  V30 6742 N 638.539 1.52521 -0.396863 0
M  V30 6743 C 639.472 2.23118 0.478926 0
M  V30 6744 C 640.45 1.23475 1.05796 0
M  V30 6745 O 641.634 1.52486 1.10817 0
M  V30 6746 C 638.761 2.95028 1.66362 0
M  V30 6747 C 637.807 4.09002 1.20913 0
M  V30 6748 S 638.64 5.35182 0.184407 0
M  V30 6749 C 639.796 6.10616 1.37471 0
M  V30 6750 H 640.029 2.97056 -0.120542 0
M  V30 6751 H 637.562 1.53334 -0.18109 0
M  V30 6752 H 639.52 3.37066 2.34301 0
M  V30 6753 H 638.181 2.20756 2.23441 0
M  V30 6754 H 637.374 4.58445 2.09389 0
M  V30 6755 H 636.976 3.69016 0.608559 0
M  V30 6756 H 639.268 6.37247 2.30048 0
M  V30 6757 H 640.211 7.02084 0.921051 0
M  V30 6758 H 640.619 5.41499 1.59495 0
M  V30 6759 N 640.017 0.126909 1.57088 0
M  V30 6760 C 641.433 -0.229641 1.57939 0
M  V30 6761 C 641.633 -1.66145 1.1401 0
M  V30 6762 O 640.689 -2.3843 0.831119 0
M  V30 6763 C 642.002 0.0108648 3.00698 0
M  V30 6764 C 643.55 -0.054418 3.12953 0
M  V30 6765 C 644.025 0.158497 4.57726 0
M  V30 6766 N 645.516 0.104735 4.63082 0
M  V30 6767 C 646.251 0.24427 5.72879 0
M  V30 6768 N 645.747 0.440415 6.91399 0
M  V30 6769 N 647.54 0.183286 5.61801 0
M  V30 6770 H 639.691 1.06203 1.83942 0
M  V30 6771 H 641.954 0.418834 0.85046 0
M  V30 6772 H 641.66 1.00102 3.37154 0
M  V30 6773 H 641.534 -0.717512 3.70313 0
M  V30 6774 H 643.921 -1.0351 2.7635 0
M  V30 6775 H 644.002 0.705967 2.45865 0
M  V30 6776 H 643.646 1.13619 4.95028 0
M  V30 6777 H 643.576 -0.62197 5.22914 0
M  V30 6778 H 646.067 -0.0430298 3.77876 0
M  V30 6779 H 646.38 0.537536 7.70928 0
M  V30 6780 H 644.725 0.476488 6.93365 0
M  V30 6781 H 647.916 0.0309561 4.6809 0
M  V30 6782 H 648.089 0.295471 6.47326 0
M  V30 6783 N 641.495 -1.56914 -0.146875 0
M  V30 6784 C 642.405 -2.0154 -1.20079 0
M  V30 6785 C 643.421 -0.930838 -1.47008 0
M  V30 6786 O 644.597 -1.24032 -1.58676 0
M  V30 6787 C 641.662 -2.38715 -2.51428 0
M  V30 6788 C 640.723 -3.6112 -2.32145 0
M  V30 6789 C 639.956 -3.96512 -3.57231 0
M  V30 6790 O 640.179 -3.32566 -4.63418 0
M  V30 6791 O 639.113 -4.89758 -3.49887 0
M  V30 6792 H 642.939 -2.91506 -0.851924 0
M  V30 6793 H 640.524 -1.45106 -0.355607 0
M  V30 6794 H 642.406 -2.63485 -3.28867 0
M  V30 6795 H 641.081 -1.51903 -2.85845 0
M  V30 6796 H 639.988 -3.41536 -1.52656 0
M  V30 6797 H 641.321 -4.48549 -2.02644 0
M  V30 6798 N 642.974 0.416227 -1.52004 0
M  V30 6799 C 643.906 1.52552 -1.71058 0
M  V30 6800 C 644.919 1.51693 -0.59102 0
M  V30 6801 O 646.108 1.56087 -0.865973 0
M  V30 6802 C 643.208 2.91455 -1.72937 0
M  V30 6803 C 642.381 3.16584 -3.01816 0
M  V30 6804 C 641.44 4.35322 -2.95603 0
M  V30 6805 O 640.466 4.32947 -3.6952 0
M  V30 6806 N 641.668 5.40049 -2.12903 0
M  V30 6807 H 644.433 1.36604 -2.66757 0
M  V30 6808 H 641.994 0.60544 -1.50153 0
M  V30 6809 H 643.986 3.68944 -1.66321 0
M  V30 6810 H 642.556 3.00895 -0.847418 0
M  V30 6811 H 641.776 2.27203 -3.22137 0
M  V30 6812 H 643.064 3.30213 -3.87088 0
M  V30 6813 H 642.462 5.44823 -1.52265 0
M  V30 6814 H 641.019 6.16308 -2.1215 0
M  V30 6815 N 644.452 1.42507 0.673017 0
M  V30 6816 C 645.868 1.25472 0.986355 0
M  V30 6817 C 646.068 0.160181 2.00862 0
M  V30 6818 O 645.124 -0.467993 2.48125 0
M  V30 6819 C 646.437 2.61219 1.48947 0
M  V30 6820 C 647.985 2.68589 1.60715 0
M  V30 6821 C 648.46 4.04707 2.14422 0
M  V30 6822 N 649.951 4.0667 2.21752 0
M  V30 6823 C 650.686 5.0881 2.64386 0
M  V30 6824 N 650.182 6.21332 3.0646 0
M  V30 6825 N 651.975 4.96166 2.64151 0
M  V30 6826 H 644.126 2.124 -0.00378532 0
M  V30 6827 H 646.389 0.946046 0.0608367 0
M  V30 6828 H 646.095 3.42179 0.812812 0
M  V30 6829 H 645.969 2.85261 2.46791 0
M  V30 6830 H 648.356 1.87974 2.27486 0
M  V30 6831 H 648.437 2.48333 0.613552 0
M  V30 6832 H 648.081 4.8578 1.48258 0
M  V30 6833 H 648.011 4.22315 3.14575 0
M  V30 6834 H 650.502 3.25438 1.92089 0
M  V30 6835 H 650.815 6.95118 3.37684 0
M  V30 6836 H 649.16 6.24835 3.04313 0
M  V30 6837 H 652.351 4.07334 2.30644 0
M  V30 6838 H 652.524 5.759 2.97057 0
M  V30 6839 N 645.93 -0.909495 1.28709 0
M  V30 6840 C 646.893 -1.99399 1.13016 0
M  V30 6841 C 647.893 -1.60654 0.068536 0
M  V30 6842 O 649.083 -1.71334 0.314671 0
M  V30 6843 C 646.215 -3.33078 0.726085 0
M  V30 6844 H 647.408 -2.14751 2.09338 0
M  V30 6845 H 644.961 -1.09272 1.11756 0
M  V30 6846 H 645.696 -3.23428 -0.23771 0
M  V30 6847 H 645.481 -3.62562 1.49302 0
M  V30 6848 H 646.971 -4.12681 0.639058 0
M  V30 6849 N 647.408 -1.11026 -1.11852 0
M  V30 6850 C 648.824 -0.843294 -1.35502 0
M  V30 6851 C 649.024 0.534179 -1.9429 0
M  V30 6852 O 648.08 1.28585 -2.17307 0
M  V30 6853 C 649.393 -1.94793 -2.29077 0
M  V30 6854 C 650.941 -1.97709 -2.42652 0
M  V30 6855 C 651.416 -3.07364 -3.39546 0
M  V30 6856 N 652.907 -3.0671 -3.47107 0
M  V30 6857 C 653.642 -3.88197 -4.22008 0
M  V30 6858 N 653.138 -4.79635 -4.99922 0
M  V30 6859 N 654.931 -3.76391 -4.17476 0
M  V30 6860 H 647.082 -1.99805 -0.720538 0
M  V30 6861 H 649.345 -0.868633 -0.379711 0
M  V30 6862 H 649.051 -2.93971 -1.93065 0
M  V30 6863 H 648.925 -1.84039 -3.29256 0
M  V30 6864 H 651.312 -0.991604 -2.77941 0
M  V30 6865 H 651.393 -2.1254 -1.4234 0
M  V30 6866 H 651.037 -4.06136 -3.04985 0
M  V30 6867 H 650.967 -2.89774 -4.39703 0
M  V30 6868 H 653.458 -2.40457 -2.91528 0
M  V30 6869 H 653.771 -5.38357 -5.54429 0
M  V30 6870 H 652.116 -4.8366 -4.99097 0
M  V30 6871 H 655.307 -3.04303 -3.55693 0
M  V30 6872 H 655.48 -4.40131 -4.75593 0
M  V30 6873 N 648.886 1.2938 -0.899927 0
M  V30 6874 C 649.836 2.25311 -0.349165 0
M  V30 6875 C 650.82 1.51889 0.530892 0
M  V30 6876 O 652.012 1.73028 0.372872 0
M  V30 6877 C 649.141 3.40696 0.422055 0
M  V30 6878 C 648.227 4.21455 -0.472935 0
M  V30 6879 N 648.618 4.8048 -1.58026 0
M  V30 6880 C 646.916 4.45177 -0.270767 0
M  V30 6881 C 647.617 5.41117 -2.13465 0
M  V30 6882 N 646.593 5.24518 -1.42766 0
M  V30 6883 H 650.395 2.68507 -1.19505 0
M  V30 6884 H 647.909 1.43992 -0.751006 0
M  V30 6885 H 649.906 4.08486 0.833369 0
M  V30 6886 H 648.566 2.99037 1.2652 0
M  V30 6887 H 649.577 4.79257 -1.96299 0
M  V30 6888 H 646.254 4.14071 0.533988 0
M  V30 6889 H 647.644 5.979 -3.06537 0
M  V30 6890 N 650.364 0.662433 1.43002 0
M  V30 6891 C 651.294 -0.00979809 2.33498 0
M  V30 6892 C 652.275 -0.802329 1.49989 0
M  V30 6893 O 653.46 -0.761964 1.78627 0
M  V30 6894 C 650.59 -0.970446 3.33466 0
M  V30 6895 C 649.544 -0.287383 4.27034 0
M  V30 6896 C 648.87 -1.36012 5.17112 0
M  V30 6897 C 650.17 0.82595 5.15728 0
M  V30 6898 H 651.864 0.745959 2.89958 0
M  V30 6899 H 649.41 0.360172 1.39423 0
M  V30 6900 H 651.363 -1.44971 3.95679 0
M  V30 6901 H 650.087 -1.75748 2.75282 0
M  V30 6902 H 648.746 0.17152 3.66199 0
M  V30 6903 H 648.394 -2.13882 4.55262 0
M  V30 6904 H 648.094 -0.908276 5.80538 0
M  V30 6905 H 649.618 -1.84056 5.82199 0
M  V30 6906 H 651.032 0.42845 5.71697 0
M  V30 6907 H 649.429 1.20282 5.87922 0
M  V30 6908 H 650.499 1.68003 4.54866 0
M  V30 6909 N 651.842 -1.52309 0.404946 0
M  V30 6910 C 653.067 -2.06666 -0.1743 0
M  V30 6911 C 653.492 -1.27341 -1.38441 0
M  V30 6912 O 652.85 -0.302539 -1.78758 0
M  V30 6913 C 652.898 -3.57014 -0.507262 0
M  V30 6914 O 652.002 -3.80144 -1.59889 0
M  V30 6915 H 651.343 -0.663807 -0.0160273 0
M  V30 6916 H 653.873 -1.96297 0.576937 0
M  V30 6917 H 653.883 -4.00724 -0.767098 0
M  V30 6918 H 652.558 -4.14184 0.377368 0
M  V30 6919 H 651.135 -3.48316 -1.33155 0
M  V30 6920 N 653.32 -0.135238 -1.57019 0
M  V30 6921 C 654.268 0.826099 -2.17436 0
M  V30 6922 C 655.262 1.26378 -1.12805 0
M  V30 6923 O 656.468 1.23363 -1.31079 0
M  V30 6924 H 652.843 0.284568 -0.696078 0
M  V30 6925 H 654.814 0.292212 -2.96966 0
M  V30 6926 C 653.563 2.05991 -2.80112 0
M  V30 6927 H 652.886 1.73209 -3.60331 0
M  V30 6928 H 654.326 2.71225 -3.25903 0
M  V30 6929 C 652.785 2.86027 -1.78017 0
M  V30 6930 O 653.315 3.81971 -1.24344 0
M  V30 6931 N 651.521 2.50332 -1.47588 0
M  V30 6932 H 651.068 1.72377 -1.91426 0
M  V30 6933 H 651.026 3.04177 -0.795228 0
M  V30 6934 N 654.798 1.5699 0.138552 0
M  V30 6935 C 656.075 1.74741 0.87891 0
M  V30 6936 C 656.455 0.705522 1.98961 0
M  V30 6937 O 655.803 -0.274066 2.2685 0
M  V30 6938 C 656.013 3.1909 1.4136 0
M  V30 6939 C 657.361 3.81023 1.87368 0
M  V30 6940 O 658.385 3.22571 1.51084 0
M  V30 6941 O 657.244 4.83722 2.54312 0
M  V30 6942 H 654.338 0.714781 0.415953 0
M  V30 6943 H 656.884 1.69248 0.123817 0
M  V30 6944 H 655.656 3.86424 0.61579 0
M  V30 6945 H 655.279 3.29043 2.23196 0
M  V30 6946 N 656.276 -0.40816 1.52223 0
M  V30 6947 C 657.501 -1.18127 1.70472 0
M  V30 6948 C 657.926 -1.83491 0.41384 0
M  V30 6949 O 657.284 -1.70047 -0.628778 0
M  V30 6950 C 657.332 -2.21935 2.84213 0
M  V30 6951 O 656.436 -3.28099 2.4985 0
M  V30 6952 H 655.777 -0.344781 0.56747 0
M  V30 6953 H 658.307 -0.478328 1.9893 0
M  V30 6954 H 658.317 -2.66248 3.09153 0
M  V30 6955 H 656.992 -1.73744 3.7787 0
M  V30 6956 H 655.569 -2.89058 2.35584 0
M  V30 6957 N 657.755 -1.42862 -0.66545 0
M  V30 6958 C 658.983 -1.47246 -1.45349 0
M  V30 6959 C 659.398 -0.0865944 -1.88601 0
M  V30 6960 O 658.755 0.900652 -1.58728 0
M  V30 6961 C 658.806 -2.40772 -2.6965 0
M  V30 6962 O 658.527 -3.73968 -2.2821 0
M  V30 6963 C 660.028 -2.54272 -3.63126 0
M  V30 6964 H 657.248 -0.500497 -0.446927 0
M  V30 6965 H 659.792 -1.87477 -0.816871 0
M  V30 6966 H 657.947 -2.0377 -3.29479 0
M  V30 6967 H 658.361 -4.24146 -3.08546 0
M  V30 6968 H 659.835 -3.23815 -4.47043 0
M  V30 6969 H 660.312 -1.58364 -4.09656 0
M  V30 6970 H 660.918 -2.92036 -3.09185 0
M  V30 6971 N 659.233 0.902656 -1.29189 0
M  V30 6972 C 660.163 2.02294 -1.16616 0
M  V30 6973 C 661.144 1.6999 -0.0611175 0
M  V30 6974 O 662.329 1.9271 -0.240072 0
M  V30 6975 C 659.459 3.37018 -0.83882 0
M  V30 6976 C 658.413 3.83522 -1.89986 0
M  V30 6977 C 657.739 5.15337 -1.42589 0
M  V30 6978 C 659.039 4.04169 -3.30824 0
M  V30 6979 H 660.733 2.13071 -2.10336 0
M  V30 6980 H 658.279 1.02378 -1.01266 0
M  V30 6981 H 660.232 4.14895 -0.737584 0
M  V30 6982 H 658.956 3.26325 0.134071 0
M  V30 6983 H 657.615 3.07859 -1.99043 0
M  V30 6984 H 657.263 5.01056 -0.441759 0
M  V30 6985 H 656.963 5.47423 -2.13547 0
M  V30 6986 H 658.487 5.95758 -1.3381 0
M  V30 6987 H 659.901 4.72537 -3.24626 0
M  V30 6988 H 658.298 4.47604 -3.99713 0
M  V30 6989 H 659.368 3.08604 -3.74021 0
M  V30 6990 N 660.711 1.11618 1.11262 0
M  V30 6991 C 661.674 0.779447 2.15539 0
M  V30 6992 C 662.674 -0.202081 1.59525 0
M  V30 6993 O 663.864 0.0226356 1.74185 0
M  V30 6994 C 660.996 0.15674 3.40539 0
M  V30 6995 H 662.189 1.70324 2.4684 0
M  V30 6996 H 659.742 0.918298 1.26479 0
M  V30 6997 H 660.477 -0.777186 3.1485 0
M  V30 6998 H 660.262 0.863308 3.82478 0
M  V30 6999 H 661.752 -0.062661 4.17553 0
M  V30 7000 N 662.189 -1.289 0.906776 0
M  V30 7001 C 663.414 -1.99939 0.551303 0
M  V30 7002 C 663.839 -1.67366 -0.858496 0
M  V30 7003 O 663.197 -0.902176 -1.57259 0
M  V30 7004 C 663.245 -3.52523 0.758937 0
M  V30 7005 O 662.349 -4.11983 -0.185308 0
M  V30 7006 H 661.69 -0.628376 0.214568 0
M  V30 7007 H 664.22 -1.64225 1.2203 0
M  V30 7008 H 664.23 -4.02522 0.666329 0
M  V30 7009 H 662.905 -3.75566 1.78671 0
M  V30 7010 H 661.482 -3.72873 -0.0445577 0
M  V30 7011 N 663.667 -0.670007 -1.42649 0
M  V30 7012 C 664.914 -0.190286 -2.01604 0
M  V30 7013 C 665.242 1.20155 -1.52948 0
M  V30 7014 O 664.497 1.81964 -0.72026 0
M  V30 7015 C 664.796 -0.168298 -3.57004 0
M  V30 7016 C 664.462 -1.50415 -4.25072 0
M  V30 7017 C 663.124 -1.86992 -4.43382 0
M  V30 7018 C 665.476 -2.38414 -4.63474 0
M  V30 7019 C 662.804 -3.11203 -4.97363 0
M  V30 7020 C 665.156 -3.61933 -5.18833 0
M  V30 7021 C 663.82 -3.98685 -5.35356 0
M  V30 7022 H 663.09 -0.0696305 -0.737721 0
M  V30 7023 H 665.737 -0.864044 -1.70899 0
M  V30 7024 H 664.042 0.588958 -3.87348 0
M  V30 7025 H 665.739 0.22001 -4.00396 0
M  V30 7026 H 662.329 -1.20959 -4.11177 0
M  V30 7027 H 666.513 -2.11442 -4.49006 0
M  V30 7028 H 661.769 -3.39705 -5.08341 0
M  V30 7029 H 665.943 -4.30326 -5.47533 0
M  V30 7030 H 663.57 -4.95009 -5.76949 0
M  V30 7031 N 665.145 1.52092 -0.413018 0
M  V30 7032 C 666.37 2.06756 0.163338 0
M  V30 7033 C 666.795 1.28073 1.37764 0
M  V30 7034 O 666.153 0.312015 1.78595 0
M  V30 7035 C 666.201 3.57278 0.488322 0
M  V30 7036 O 665.305 3.80986 1.57871 0
M  V30 7037 H 664.646 0.663882 0.0125068 0
M  V30 7038 H 667.176 1.95988 -0.587339 0
M  V30 7039 H 667.186 4.01125 0.745836 0
M  V30 7040 H 665.861 4.13978 -0.399327 0
M  V30 7041 H 664.438 3.49017 1.31306 0
M  V30 7042 N 666.623 0.143563 1.56945 0
M  V30 7043 C 667.533 -0.810562 2.20152 0
M  V30 7044 C 668.549 -1.27431 1.1848 0
M  V30 7045 O 669.725 -1.33221 1.51044 0
M  V30 7046 C 666.79 -2.03353 2.80799 0
M  V30 7047 C 665.851 -1.61936 3.97587 0
M  V30 7048 C 665.084 -2.78403 4.55332 0
M  V30 7049 O 665.307 -3.94521 4.11958 0
M  V30 7050 O 664.241 -2.54073 5.45647 0
M  V30 7051 H 668.067 -0.30253 3.02189 0
M  V30 7052 H 665.652 -0.0832925 1.49168 0
M  V30 7053 H 667.534 -2.74932 3.19359 0
M  V30 7054 H 666.209 -2.53116 2.01777 0
M  V30 7055 H 665.116 -0.873904 3.6375 0
M  V30 7056 H 666.449 -1.16892 4.78118 0
M  V30 7057 N 668.101 -1.57061 -0.130224 0
M  V30 7058 C 669.512 -1.73539 -0.68856 0
M  V30 7059 C 669.863 -0.760554 -1.80859 0
M  V30 7060 O 668.988 0.0690796 -2.1629 0
M  V30 7061 C 669.583 -3.14666 -1.25581 0
M  V30 7062 C 668.142 -3.32689 -1.76055 0
M  V30 7063 C 667.289 -2.69436 -0.655712 0
M  V30 7064 H 670.24 -1.58412 0.0956002 0
M  V30 7065 H 670.261 -3.15595 -2.12556 0
M  V30 7066 H 669.773 -3.85593 -0.440412 0
M  V30 7067 H 667.874 -2.66786 -2.60108 0
M  V30 7068 H 667.987 -4.4077 -1.87772 0
M  V30 7069 H 666.351 -2.30362 -1.08654 0
M  V30 7070 H 667.134 -3.42979 0.14852 0
M  V30 7071 N 669.579 0.400081 -1.52437 0
M  V30 7072 C 670.827 1.14392 -1.6661 0
M  V30 7073 C 671.148 1.90792 -0.402927 0
M  V30 7074 O 670.418 1.87042 0.582425 0
M  V30 7075 H 668.998 0.425275 -0.614125 0
M  V30 7076 H 671.66 0.455076 -1.89513 0
M  V30 7077 H 670.756 1.85298 -2.51139 0
M  V30 7078 N 671.057 1.43213 0.657864 0
M  V30 7079 C 672.282 1.48227 1.45064 0
M  V30 7080 C 672.707 0.0999939 1.87834 0
M  V30 7081 O 672.065 -0.905269 1.57081 0
M  V30 7082 C 672.113 2.42931 2.6649 0
M  V30 7083 O 671.217 1.91237 3.6538 0
M  V30 7084 H 670.558 0.501551 0.435135 0
M  V30 7085 H 673.088 1.8808 0.805431 0
M  V30 7086 H 673.098 2.6008 3.1436 0
M  V30 7087 H 671.773 3.43348 2.34701 0
M  V30 7088 H 670.35 1.83726 3.24498 0
M  V30 7089 N 672.536 -0.895792 1.29666 0
M  V30 7090 C 673.776 -1.6609 1.19136 0
M  V30 7091 C 674.14 -1.90336 -0.252245 0
M  V30 7092 O 675.341 -2.64469 -0.480593 0
M  V30 7093 C 673.612 -2.97129 1.98618 0
M  V30 7094 S 675.171 -3.88146 2.04666 0
M  V30 7095 H 671.989 -0.570188 0.424744 0
M  V30 7096 H 674.591 -1.06411 1.64003 0
M  V30 7097 H 673.295 -2.77199 3.02637 0
M  V30 7098 H 672.826 -3.61847 1.54371 0
M  V30 7099 H 674.841 -4.82301 1.16618 0
M  V30 7100 N 674.014 -1.12206 -1.10668 0
M  V30 7101 C 675.244 -0.897332 -1.86095 0
M  V30 7102 C 675.652 0.556778 -1.80822 0
M  V30 7103 O 674.995 1.39658 -1.19337 0
M  V30 7104 C 675.057 -1.29095 -3.35522 0
M  V30 7105 C 674.721 -2.75586 -3.64556 0
M  V30 7106 C 675.718 -3.73785 -3.6136 0
M  V30 7107 C 673.403 -3.12432 -3.93309 0
M  V30 7108 C 675.397 -5.06845 -3.86506 0
M  V30 7109 C 673.084 -4.45675 -4.18111 0
M  V30 7110 C 674.082 -5.42691 -4.147 0
M  V30 7111 O 673.77 -6.73532 -4.38873 0
M  V30 7112 H 673.502 -0.320704 -0.595084 0
M  V30 7113 H 676.056 -1.49517 -1.40833 0
M  V30 7114 H 674.286 -0.636299 -3.81429 0
M  V30 7115 H 675.975 -1.04073 -3.92331 0
M  V30 7116 H 676.741 -3.46664 -3.39189 0
M  V30 7117 H 672.62 -2.3753 -3.95096 0
M  V30 7118 H 676.164 -5.82559 -3.83758 0
M  V30 7119 H 672.061 -4.72526 -4.39761 0
M  V30 7120 H 672.829 -6.79442 -4.564 0
M  V30 7121 N 675.492 1.28418 -0.913599 0
M  V30 7122 C 676.402 2.31043 -0.406965 0
M  V30 7123 C 677.418 1.66501 0.505298 0
M  V30 7124 O 678.594 1.97558 0.391522 0
M  V30 7125 C 675.659 3.4498 0.344901 0
M  V30 7126 C 674.72 4.25078 -0.600563 0
M  V30 7127 C 673.953 5.33575 0.115516 0
M  V30 7128 O 674.176 5.54503 1.33727 0
M  V30 7129 O 673.11 5.9939 -0.549095 0
M  V30 7130 H 676.936 2.76387 -1.25873 0
M  V30 7131 H 674.521 1.33109 -0.678415 0
M  V30 7132 H 676.403 4.14314 0.769542 0
M  V30 7133 H 675.078 3.01719 1.1725 0
M  V30 7134 H 673.985 3.58334 -1.0746 0
M  V30 7135 H 675.318 4.72018 -1.39497 0
M  V30 7136 N 676.97 0.677563 1.42291 0
M  V30 7137 C 677.88 0.000962654 2.346 0
M  V30 7138 C 678.896 -0.785833 1.55244 0
M  V30 7139 O 680.072 -0.727523 1.87801 0
M  V30 7140 C 677.137 -0.936746 3.33805 0
M  V30 7141 C 676.198 -0.144173 4.29058 0
M  V30 7142 C 675.431 -1.03722 5.23524 0
M  V30 7143 O 675.654 -2.27675 5.22992 0
M  V30 7144 O 674.588 -0.496542 5.99848 0
M  V30 7145 H 678.414 0.761397 2.94001 0
M  V30 7146 H 675.999 0.43781 1.42841 0
M  V30 7147 H 677.881 -1.47497 3.94744 0
M  V30 7148 H 676.556 -1.67698 2.76874 0
M  V30 7149 H 675.463 0.438224 3.71524 0
M  V30 7150 H 676.796 0.55701 4.89038 0
M  V30 7151 N 678.448 -1.51871 0.421078 0
M  V30 7152 C 679.378 -2.30231 -0.389363 0
M  V30 7153 C 680.359 -1.34946 -1.03555 0
M  V30 7154 O 681.544 -1.63859 -1.04229 0
M  V30 7155 C 678.674 -3.13247 -1.49979 0
M  V30 7156 C 677.628 -4.16677 -0.977966 0
M  V30 7157 C 676.954 -4.88112 -2.1829 0
M  V30 7158 C 678.254 -5.22295 -0.0236775 0
M  V30 7159 H 679.948 -2.98229 0.264524 0
M  V30 7160 H 677.494 -1.43424 0.12866 0
M  V30 7161 H 679.447 -3.66838 -2.07383 0
M  V30 7162 H 678.171 -2.4304 -2.18173 0
M  V30 7163 H 676.83 -3.64114 -0.426245 0
M  V30 7164 H 676.478 -4.14423 -2.85066 0
M  V30 7165 H 676.178 -5.58041 -1.84021 0
M  V30 7166 H 677.702 -5.44521 -2.76278 0
M  V30 7167 H 679.116 -5.71055 -0.506899 0
M  V30 7168 H 677.513 -5.99656 0.230782 0
M  V30 7169 H 678.583 -4.76131 0.917999 0
M  V30 7170 N 679.926 -0.151884 -1.56866 0
M  V30 7171 C 680.856 0.781943 -2.20018 0
M  V30 7172 C 681.837 1.25347 -1.14987 0
M  V30 7173 O 683.022 1.31015 -1.43348 0
M  V30 7174 C 680.152 2.01928 -2.82564 0
M  V30 7175 C 679.106 1.68434 -3.93464 0
M  V30 7176 C 678.432 2.99472 -4.42968 0
M  V30 7177 C 679.732 0.927244 -5.14003 0
M  V30 7178 H 681.426 0.255607 -2.98307 0
M  V30 7179 H 678.972 0.121502 -1.43486 0
M  V30 7180 H 680.925 2.67741 -3.25411 0
M  V30 7181 H 679.649 2.56943 -2.01614 0
M  V30 7182 H 678.308 1.04998 -3.51242 0
M  V30 7183 H 677.956 3.52488 -3.58834 0
M  V30 7184 H 677.656 2.77823 -5.17772 0
M  V30 7185 H 679.18 3.66348 -4.88489 0
M  V30 7186 H 680.594 1.48756 -5.53665 0
M  V30 7187 H 678.991 0.810513 -5.94601 0
M  V30 7188 H 680.061 -0.0801163 -4.84834 0
M  V30 7189 N 681.404 1.57128 0.121893 0
M  V30 7190 C 682.351 2.0013 1.14964 0
M  V30 7191 C 683.321 0.872959 1.4131 0
M  V30 7192 O 684.506 1.13696 1.53225 0
M  V30 7193 C 681.646 2.40824 2.4718 0
M  V30 7194 C 680.759 3.67061 2.27794 0
M  V30 7195 C 679.894 3.96749 3.53219 0
M  V30 7196 C 678.933 5.16178 3.28978 0
M  V30 7197 N 678.07 5.41751 4.46599 0
M  V30 7198 H 682.91 2.8772 0.775947 0
M  V30 7199 H 680.447 1.42328 0.371652 0
M  V30 7200 H 682.405 2.62454 3.24305 0
M  V30 7201 H 681.035 1.56279 2.82448 0
M  V30 7202 H 680.087 3.53063 1.416 0
M  V30 7203 H 681.399 4.5434 2.05857 0
M  V30 7204 H 680.553 4.19012 4.38764 0
M  V30 7205 H 679.292 3.07941 3.78185 0
M  V30 7206 H 678.297 4.93762 2.41824 0
M  V30 7207 H 679.522 6.06561 3.05386 0
M  V30 7208 H 677.468 4.55899 4.71691 0
M  V30 7209 H 677.385 6.23347 4.27756 0
M  V30 7210 H 678.653 5.68531 5.33285 0
M  V30 7211 N 682.882 -0.391992 1.52647 0
M  V30 7212 C 684.112 -1.15692 1.71169 0
M  V30 7213 C 684.52 -1.84285 0.428444 0
M  V30 7214 O 683.863 -1.73393 -0.606669 0
M  V30 7215 C 683.925 -2.25033 2.80357 0
M  V30 7216 C 683.589 -1.76433 4.21569 0
M  V30 7217 C 684.586 -1.2427 5.0483 0
M  V30 7218 C 682.271 -1.82746 4.67877 0
M  V30 7219 C 684.265 -0.790657 6.32477 0
M  V30 7220 C 681.952 -1.37153 5.9551 0
M  V30 7221 C 682.95 -0.853997 6.7764 0
M  V30 7222 O 682.638 -0.404708 8.02881 0
M  V30 7223 H 682.37 -0.35297 0.576531 0
M  V30 7224 H 684.924 -0.464994 2.00067 0
M  V30 7225 H 683.154 -2.97641 2.46874 0
M  V30 7226 H 684.843 -2.86718 2.87311 0
M  V30 7227 H 685.609 -1.18752 4.70237 0
M  V30 7228 H 681.488 -2.21971 4.04042 0
M  V30 7229 H 685.032 -0.386024 6.96531 0
M  V30 7230 H 680.929 -1.42356 6.29607 0
M  V30 7231 H 681.697 -0.526459 8.16805 0
M  V30 7232 N 684.36 -1.4356 -0.65026 0
M  V30 7233 C 685.606 -1.45549 -1.41221 0
M  V30 7234 C 685.939 -0.0805472 -1.94033 0
M  V30 7235 O 685.214 0.899043 -1.72475 0
M  V30 7236 C 685.497 -2.50028 -2.59148 0
M  V30 7237 C 685.35 -3.96808 -2.1181 0
M  V30 7238 C 686.669 -2.51212 -3.61359 0
M  V30 7239 H 683.788 -0.529967 -0.512156 0
M  V30 7240 H 686.43 -1.75127 -0.736933 0
M  V30 7241 H 684.58 -2.24937 -3.16758 0
M  V30 7242 H 686.252 -4.32966 -1.59178 0
M  V30 7243 H 684.495 -4.09498 -1.43156 0
M  V30 7244 H 685.166 -4.6553 -2.96625 0
M  V30 7245 H 687.642 -2.73583 -3.13515 0
M  V30 7246 H 686.518 -3.26252 -4.41419 0
M  V30 7247 H 686.779 -1.54701 -4.1415 0
M  V30 7248 N 685.838 0.888903 -1.30139 0
M  V30 7249 C 687.086 1.63713 -1.18501 0
M  V30 7250 C 687.407 1.9324 0.261399 0
M  V30 7251 O 686.677 1.56608 1.17689 0
M  V30 7252 H 685.257 0.606861 -0.435579 0
M  V30 7253 H 687.919 1.06525 -1.63213 0
M  V30 7254 H 687.015 2.58894 -1.743 0
M  V30 7255 N 687.317 1.12792 1.10072 0
M  V30 7256 C 688.267 0.768086 2.14673 0
M  V30 7257 C 689.251 -0.234716 1.59179 0
M  V30 7258 O 690.443 -0.039643 1.76956 0
M  V30 7259 C 687.572 0.228472 3.42539 0
M  V30 7260 C 686.658 1.25979 4.04957 0
M  V30 7261 N 687.049 2.4586 4.42025 0
M  V30 7262 C 685.347 1.10602 4.32069 0
M  V30 7263 C 686.048 3.11747 4.9111 0
M  V30 7264 N 685.024 2.39185 4.88151 0
M  V30 7265 H 688.826 1.68029 2.4113 0
M  V30 7266 H 686.34 1.00925 1.27232 0
M  V30 7267 H 688.337 -0.0475216 4.16873 0
M  V30 7268 H 686.997 -0.678136 3.1754 0
M  V30 7269 H 688.008 2.83215 4.33601 0
M  V30 7270 H 684.685 0.257021 4.16708 0
M  V30 7271 H 686.075 4.13862 5.29309 0
M  V30 7272 N 688.795 -1.27931 0.920396 0
M  V30 7273 C 690.044 -1.93975 0.552867 0
M  V30 7274 C 690.357 -1.73193 -0.909035 0
M  V30 7275 O 691.563 -2.33515 -1.38502 0
M  V30 7276 C 690.019 -3.47463 0.937947 0
M  V30 7277 C 689.627 -3.77013 2.42003 0
M  V30 7278 C 691.371 -4.19628 0.64132 0
M  V30 7279 C 689.278 -5.23841 2.74489 0
M  V30 7280 H 688.208 -0.726146 0.203046 0
M  V30 7281 H 690.859 -1.45339 1.12022 0
M  V30 7282 H 689.241 -3.94867 0.299317 0
M  V30 7283 H 690.415 -3.40393 3.10595 0
M  V30 7284 H 688.73 -3.18035 2.6878 0
M  V30 7285 H 691.327 -5.27729 0.860622 0
M  V30 7286 H 691.67 -4.14164 -0.421168 0
M  V30 7287 H 692.203 -3.78022 1.23872 0
M  V30 7288 H 688.942 -5.34388 3.79618 0
M  V30 7289 H 688.462 -5.61634 2.1054 0
M  V30 7290 H 690.141 -5.91647 2.61845 0
M  V30 7291 N 690.273 -0.685099 -1.4193 0
M  V30 7292 C 691.52 -0.211658 -2.01391 0
M  V30 7293 C 691.848 1.18526 -1.54214 0
M  V30 7294 O 691.103 1.81189 -0.739519 0
M  V30 7295 C 691.402 -0.206154 -3.56805 0
M  V30 7296 C 691.068 -1.54915 -4.23453 0
M  V30 7297 C 689.73 -1.91684 -4.41373 0
M  V30 7298 C 692.082 -2.43317 -4.60919 0
M  V30 7299 C 689.41 -3.16461 -4.94034 0
M  V30 7300 C 691.762 -3.67415 -5.14965 0
M  V30 7301 C 690.426 -4.04341 -5.31098 0
M  V30 7302 H 689.696 -0.0774511 -0.736941 0
M  V30 7303 H 692.343 -0.882121 -1.69973 0
M  V30 7304 H 690.648 0.547841 -3.87951 0
M  V30 7305 H 692.345 0.17753 -4.00607 0
M  V30 7306 H 688.935 -1.25314 -4.09871 0
M  V30 7307 H 693.119 -2.16192 -4.46738 0
M  V30 7308 H 688.375 -3.45078 -5.04709 0
M  V30 7309 H 692.549 -4.3611 -5.42938 0
M  V30 7310 H 690.176 -5.01101 -5.71666 0
M  V30 7311 N 691.751 1.51645 -0.429126 0
M  V30 7312 C 693.167 1.59394 -0.080994 0
M  V30 7313 C 693.367 1.44064 1.40882 0
M  V30 7314 O 692.423 1.27771 2.17786 0
M  V30 7315 C 693.736 2.94779 -0.593773 0
M  V30 7316 C 695.284 3.08067 -0.553494 0
M  V30 7317 C 695.759 4.45963 -1.04311 0
M  V30 7318 N 697.25 4.5226 -1.00076 0
M  V30 7319 C 697.985 5.57268 -1.35056 0
M  V30 7320 N 697.481 6.69734 -1.77282 0
M  V30 7321 N 699.274 5.47582 -1.26925 0
M  V30 7322 H 691.425 1.59856 -1.39857 0
M  V30 7323 H 693.688 0.753095 -0.575805 0
M  V30 7324 H 693.394 3.11342 -1.63583 0
M  V30 7325 H 693.268 3.77197 -0.0142202 0
M  V30 7326 H 695.655 2.91177 0.479556 0
M  V30 7327 H 695.736 2.27508 -1.16935 0
M  V30 7328 H 695.38 4.63598 -2.07459 0
M  V30 7329 H 695.31 5.25049 -0.403873 0
M  V30 7330 H 697.801 3.71537 -0.690564 0
M  V30 7331 H 698.114 7.4587 -2.02232 0
M  V30 7332 H 696.459 6.70963 -1.81202 0
M  V30 7333 H 699.65 4.58604 -0.93809 0
M  V30 7334 H 699.823 6.29308 -1.54516 0
M  V30 7335 N 693.229 0.160201 1.56784 0
M  V30 7336 C 694.176 -0.774416 2.1742 0
M  V30 7337 C 695.146 -1.23483 1.11091 0
M  V30 7338 O 696.331 -1.30499 1.39193 0
M  V30 7339 C 693.471 -2.00283 2.81035 0
M  V30 7340 C 692.584 -1.58701 4.01793 0
M  V30 7341 C 691.719 -2.76824 4.53367 0
M  V30 7342 C 690.758 -2.31679 5.66561 0
M  V30 7343 N 689.895 -3.42856 6.12694 0
M  V30 7344 H 694.735 -0.250542 2.96945 0
M  V30 7345 H 692.272 -0.111943 1.46673 0
M  V30 7346 H 694.23 -2.72316 3.16069 0
M  V30 7347 H 692.86 -2.5006 2.04132 0
M  V30 7348 H 691.912 -0.76384 3.72652 0
M  V30 7349 H 693.224 -1.21555 4.83762 0
M  V30 7350 H 692.378 -3.57029 4.90525 0
M  V30 7351 H 691.117 -3.17223 3.70433 0
M  V30 7352 H 690.122 -1.49917 5.28966 0
M  V30 7353 H 691.347 -1.9235 6.5129 0
M  V30 7354 H 689.293 -3.82852 5.32692 0
M  V30 7355 H 689.21 -3.09767 6.89624 0
M  V30 7356 H 690.478 -4.23379 6.545 0
M  V30 7357 N 694.707 -1.5719 -0.113559 0
M  V30 7358 C 695.953 -1.85412 -0.821597 0
M  V30 7359 C 696.286 -0.746722 -1.7927 0
M  V30 7360 O 695.561 0.246971 -1.92926 0
M  V30 7361 C 695.844 -3.24233 -1.56669 0
M  V30 7362 C 695.697 -4.45578 -0.614823 0
M  V30 7363 C 697.016 -3.60697 -2.52161 0
M  V30 7364 H 694.135 -0.674406 -0.29723 0
M  V30 7365 H 696.777 -1.89807 -0.085694 0
M  V30 7366 H 694.927 -3.20617 -2.19401 0
M  V30 7367 H 696.599 -4.613 0.00407137 0
M  V30 7368 H 694.842 -4.33738 0.0732332 0
M  V30 7369 H 695.513 -5.39395 -1.17292 0
M  V30 7370 H 697.989 -3.65139 -1.99532 0
M  V30 7371 H 696.865 -4.58798 -3.01323 0
M  V30 7372 H 697.126 -2.88403 -3.35076 0
M  V30 7373 N 696.185 0.383891 -1.52853 0
M  V30 7374 C 697.132 1.46924 -1.77995 0
M  V30 7375 C 698.102 1.53958 -0.623396 0
M  V30 7376 O 699.287 1.70134 -0.863657 0
M  V30 7377 C 696.427 2.84093 -1.95921 0
M  V30 7378 C 695.54 2.86171 -3.23621 0
M  V30 7379 C 694.675 4.14799 -3.31836 0
M  V30 7380 C 693.714 4.10948 -4.53639 0
M  V30 7381 N 692.851 5.31192 -4.59107 0
M  V30 7382 H 697.691 1.24786 -2.70615 0
M  V30 7383 H 695.228 0.605265 -1.34071 0
M  V30 7384 H 697.186 3.63755 -2.04299 0
M  V30 7385 H 695.816 3.04671 -1.06656 0
M  V30 7386 H 694.868 1.9885 -3.24288 0
M  V30 7387 H 696.18 2.79194 -4.13343 0
M  V30 7388 H 695.334 5.02867 -3.39425 0
M  V30 7389 H 694.073 4.24505 -2.40097 0
M  V30 7390 H 693.078 3.21268 -4.46169 0
M  V30 7391 H 694.303 4.0286 -5.467 0
M  V30 7392 H 692.249 5.41518 -3.70262 0
M  V30 7393 H 692.166 5.26311 -5.42708 0
M  V30 7394 H 693.434 6.21143 -4.70958 0
M  V30 7395 N 697.663 1.43903 0.642637 0
M  V30 7396 C 699.079 1.27536 0.959519 0
M  V30 7397 C 699.279 0.202751 2.00477 0
M  V30 7398 O 698.335 -0.415256 2.49062 0
M  V30 7399 C 699.648 2.6432 1.43372 0
M  V30 7400 C 701.196 2.71937 1.54981 0
M  V30 7401 C 701.671 4.09164 2.05789 0
M  V30 7402 N 703.162 4.11282 2.13076 0
M  V30 7403 C 703.897 5.14303 2.53534 0
M  V30 7404 N 703.393 6.27693 2.93212 0
M  V30 7405 N 705.186 5.01657 2.53567 0
M  V30 7406 H 697.337 2.12344 -0.0488376 0
M  V30 7407 H 699.6 0.947124 0.0407559 0
M  V30 7408 H 699.306 3.43826 0.740048 0
M  V30 7409 H 699.18 2.90432 2.40685 0
M  V30 7410 H 701.567 1.92757 2.23448 0
M  V30 7411 H 701.648 2.49578 0.560739 0
M  V30 7412 H 701.292 4.88815 1.37921 0
M  V30 7413 H 701.222 4.28893 3.05546 0
M  V30 7414 H 703.713 3.2944 1.85143 0
M  V30 7415 H 704.026 7.02125 3.22863 0
M  V30 7416 H 702.371 6.31149 2.90991 0
M  V30 7417 H 705.562 4.12134 2.21952 0
M  V30 7418 H 705.735 5.82072 2.84774 0
M  V30 7419 N 699.141 -0.881989 1.30609 0
M  V30 7420 C 700.557 -1.16576 1.09005 0
M  V30 7421 C 700.757 -2.00961 -0.14727 0
M  V30 7422 O 699.813 -2.38117 -0.840036 0
M  V30 7423 C 701.126 -1.86954 2.35518 0
M  V30 7424 C 702.674 -1.99706 2.41011 0
M  V30 7425 C 703.149 -2.73497 3.67374 0
M  V30 7426 N 704.64 -2.8104 3.68199 0
M  V30 7427 C 705.375 -3.38718 4.62664 0
M  V30 7428 N 704.871 -3.97421 5.67475 0
M  V30 7429 N 706.664 -3.36561 4.50203 0
M  V30 7430 H 698.815 -0.319398 2.09985 0
M  V30 7431 H 701.078 -0.204058 0.925778 0
M  V30 7432 H 700.784 -1.32393 3.2583 0
M  V30 7433 H 700.658 -2.87317 2.44395 0
M  V30 7434 H 703.045 -2.53436 1.51176 0
M  V30 7435 H 703.126 -0.984218 2.36108 0
M  V30 7436 H 702.77 -2.20438 4.57569 0
M  V30 7437 H 702.7 -3.75163 3.6954 0
M  V30 7438 H 705.191 -2.39365 2.92426 0
M  V30 7439 H 705.504 -4.39507 6.35652 0
M  V30 7440 H 703.849 -3.95832 5.71264 0
M  V30 7441 H 707.04 -2.8993 3.67503 0
M  V30 7442 H 707.213 -3.81215 5.24003 0
M  V30 7443 N 700.619 -1.13374 -1.09472 0
M  V30 7444 C 701.844 -0.918711 -1.85942 0
M  V30 7445 C 702.269 0.527225 -1.8056 0
M  V30 7446 O 701.627 1.37408 -1.18274 0
M  V30 7447 C 701.675 -1.41056 -3.31867 0
M  V30 7448 O 700.779 -0.595496 -4.08078 0
M  V30 7449 H 700.12 -0.329297 -0.576593 0
M  V30 7450 H 702.65 -1.50829 -1.38245 0
M  V30 7451 H 702.66 -1.41398 -3.82715 0
M  V30 7452 H 701.335 -2.46335 -3.35099 0
M  V30 7453 H 699.912 -0.659911 -3.67014 0
M  V30 7454 N 702.098 1.27442 -0.927168 0
M  V30 7455 C 703.028 2.29256 -0.443188 0
M  V30 7456 C 704.009 1.62701 0.49624 0
M  V30 7457 O 705.194 1.90013 0.401105 0
M  V30 7458 C 702.324 3.45955 0.305366 0
M  V30 7459 C 701.278 4.24501 -0.546178 0
M  V30 7460 C 700.604 5.33671 0.331512 0
M  V30 7461 C 701.904 4.89921 -1.81037 0
M  V30 7462 H 703.598 2.69988 -1.29409 0
M  V30 7463 H 701.144 1.29792 -0.623705 0
M  V30 7464 H 703.097 4.1628 0.654885 0
M  V30 7465 H 701.821 3.04138 1.19029 0
M  V30 7466 H 700.48 3.55921 -0.878398 0
M  V30 7467 H 700.128 4.88096 1.21537 0
M  V30 7468 H 699.828 5.87131 -0.234746 0
M  V30 7469 H 701.352 6.0684 0.676614 0
M  V30 7470 H 702.766 5.52536 -1.52895 0
M  V30 7471 H 701.163 5.53436 -2.32009 0
M  V30 7472 H 702.233 4.13652 -2.53021 0
M  V30 7473 N 703.576 0.692616 1.41565 0
M  V30 7474 C 704.992 0.363878 1.55397 0
M  V30 7475 C 705.192 -1.1294 1.66874 0
M  V30 7476 O 704.248 -1.91517 1.64552 0
M  V30 7477 C 705.561 1.10982 2.7947 0
M  V30 7478 C 707.109 1.09387 2.93263 0
M  V30 7479 C 707.584 1.8215 4.20221 0
M  V30 7480 N 709.075 1.79105 4.27172 0
M  V30 7481 C 709.81 2.32247 5.2426 0
M  V30 7482 N 709.306 2.93847 6.27396 0
M  V30 7483 N 711.099 2.22519 5.1618 0
M  V30 7484 H 703.25 1.66116 1.3236 0
M  V30 7485 H 705.513 0.700848 0.63837 0
M  V30 7486 H 705.219 2.1647 2.77188 0
M  V30 7487 H 705.093 0.686492 3.709 0
M  V30 7488 H 707.48 0.0472638 2.95062 0
M  V30 7489 H 707.561 1.55623 2.03015 0
M  V30 7490 H 707.205 2.86789 4.19183 0
M  V30 7491 H 707.135 1.33351 5.09436 0
M  V30 7492 H 709.626 1.34191 3.53272 0
M  V30 7493 H 709.939 3.31972 6.97864 0
M  V30 7494 H 708.284 2.97924 6.27906 0
M  V30 7495 H 711.475 1.7407 4.34531 0
M  V30 7496 H 711.648 2.64239 5.91677 0
M  V30 7497 N 705.054 -1.51416 0.437162 0
M  V30 7498 C 705.984 -2.30631 -0.364922 0
M  V30 7499 C 706.965 -1.36037 -1.02118 0
M  V30 7500 O 708.15 -1.64956 -1.02485 0
M  V30 7501 C 705.28 -3.1482 -1.46648 0
M  V30 7502 C 704.234 -4.17691 -0.933717 0
M  V30 7503 C 703.56 -4.904 -2.13101 0
M  V30 7504 C 704.86 -5.2229 0.0317201 0
M  V30 7505 H 706.554 -2.97932 0.29614 0
M  V30 7506 H 704.1 -1.4328 0.143865 0
M  V30 7507 H 706.053 -3.69017 -2.03481 0
M  V30 7508 H 704.777 -2.4534 -2.15583 0
M  V30 7509 H 703.436 -3.64545 -0.387602 0
M  V30 7510 H 703.084 -4.17423 -2.80654 0
M  V30 7511 H 702.784 -5.59962 -1.78092 0
M  V30 7512 H 704.308 -5.4742 -2.70487 0
M  V30 7513 H 705.722 -5.7156 -0.446302 0
M  V30 7514 H 704.119 -5.99378 0.29437 0
M  V30 7515 H 705.189 -4.75131 0.968447 0
M  V30 7516 N 706.532 -0.168513 -1.56696 0
M  V30 7517 C 707.762 0.482802 -2.0088 0
M  V30 7518 C 708.17 1.57537 -1.0478 0
M  V30 7519 O 707.513 1.83656 -0.0402746 0
M  V30 7520 C 707.575 1.1236 -3.4149 0
M  V30 7521 C 707.239 0.173027 -4.56672 0
M  V30 7522 C 708.236 -0.607565 -5.16338 0
M  V30 7523 C 705.921 0.0696691 -5.02252 0
M  V30 7524 C 707.915 -1.47874 -6.2001 0
M  V30 7525 C 705.602 -0.805096 -6.05773 0
M  V30 7526 C 706.6 -1.57789 -6.64524 0
M  V30 7527 O 706.288 -2.43804 -7.66038 0
M  V30 7528 H 706.02 0.128246 -0.663723 0
M  V30 7529 H 708.574 -0.266532 -2.03663 0
M  V30 7530 H 706.804 1.921 -3.35611 0
M  V30 7531 H 708.493 1.67683 -3.69645 0
M  V30 7532 H 709.259 -0.53787 -4.82008 0
M  V30 7533 H 705.138 0.660957 -4.56237 0
M  V30 7534 H 708.682 -2.0824 -6.65794 0
M  V30 7535 H 704.579 -0.876005 -6.39528 0
M  V30 7536 H 705.347 -2.37289 -7.83349 0
M  V30 7537 N 708.01 1.57248 0.105221 0
M  V30 7538 C 708.973 2.00388 1.11252 0
M  V30 7539 C 709.973 0.89594 1.33527 0
M  V30 7540 O 711.163 1.16166 1.29811 0
M  V30 7541 C 708.295 2.35589 2.46395 0
M  V30 7542 H 709.488 2.90591 0.741424 0
M  V30 7543 H 707.041 1.52332 0.349956 0
M  V30 7544 H 707.776 1.4831 2.884 0
M  V30 7545 H 707.561 3.16408 2.31578 0
M  V30 7546 H 709.051 2.69658 3.18864 0
M  V30 7547 N 709.488 -0.375779 1.53054 0
M  V30 7548 C 710.904 -0.716764 1.426 0
M  V30 7549 C 711.104 -1.93651 0.556931 0
M  V30 7550 O 710.16 -2.52475 0.0354461 0
M  V30 7551 C 711.473 -0.939499 2.85646 0
M  V30 7552 C 713.021 -1.04015 2.95212 0
M  V30 7553 C 713.496 -1.29543 4.39298 0
M  V30 7554 N 714.987 -1.36335 4.42682 0
M  V30 7555 C 715.722 -1.57778 5.51266 0
M  V30 7556 N 715.218 -1.76604 6.69913 0
M  V30 7557 N 717.011 -1.60065 5.38828 0
M  V30 7558 H 709.162 0.42664 2.08071 0
M  V30 7559 H 711.425 0.128758 0.939215 0
M  V30 7560 H 711.131 -0.115189 3.51511 0
M  V30 7561 H 711.005 -1.85048 3.2869 0
M  V30 7562 H 713.392 -1.85501 2.29507 0
M  V30 7563 H 713.473 -0.106785 2.55577 0
M  V30 7564 H 713.117 -0.485611 5.05573 0
M  V30 7565 H 713.047 -2.24184 4.76497 0
M  V30 7566 H 715.538 -1.23441 3.5717 0
M  V30 7567 H 715.851 -1.9251 7.48438 0
M  V30 7568 H 714.196 -1.73802 6.72917 0
M  V30 7569 H 717.387 -1.44917 4.45103 0
M  V30 7570 H 717.56 -1.76435 6.23518 0
M  V30 7571 N 710.966 -1.44241 -0.634997 0
M  V30 7572 C 712.212 -1.48033 -1.39492 0
M  V30 7573 C 712.567 -0.109791 -1.92086 0
M  V30 7574 O 711.86 0.874394 -1.70484 0
M  V30 7575 C 712.054 -2.47279 -2.58046 0
M  V30 7576 C 711.883 -3.93848 -2.17057 0
M  V30 7577 C 710.653 -4.62061 -2.04518 0
M  V30 7578 C 712.851 -4.83172 -1.76208 0
M  V30 7579 N 710.833 -5.93471 -1.57051 0
M  V30 7580 C 712.204 -6.03996 -1.39958 0
M  V30 7581 C 714.259 -4.70271 -1.63554 0
M  V30 7582 C 712.962 -7.13351 -0.923196 0
M  V30 7583 C 714.988 -5.79646 -1.1732 0
M  V30 7584 C 714.35 -6.99609 -0.820181 0
M  V30 7585 H 710.449 -0.596743 -0.505392 0
M  V30 7586 H 713.033 -1.80542 -0.72887 0
M  V30 7587 H 711.204 -2.16766 -3.22284 0
M  V30 7588 H 712.936 -2.41391 -3.24827 0
M  V30 7589 H 709.691 -4.1682 -2.24851 0
M  V30 7590 H 710.115 -6.63275 -1.35628 0
M  V30 7591 H 714.757 -3.77964 -1.8948 0
M  V30 7592 H 712.475 -8.0547 -0.651441 0
M  V30 7593 H 716.061 -5.71689 -1.07993 0
M  V30 7594 H 714.941 -7.82803 -0.467901 0
M  V30 7595 N 712.444 0.87505 -1.31075 0
M  V30 7596 C 713.376 1.98773 -1.14114 0
M  V30 7597 C 714.389 1.62595 -0.0816119 0
M  V30 7598 O 715.578 1.75449 -0.32861 0
M  V30 7599 C 712.678 3.31159 -0.720224 0
M  V30 7600 C 711.851 3.9571 -1.86366 0
M  V30 7601 C 710.91 5.06407 -1.42965 0
M  V30 7602 O 709.936 5.27501 -2.13848 0
M  V30 7603 N 711.138 5.79649 -0.314194 0
M  V30 7604 H 713.903 2.1387 -2.09951 0
M  V30 7605 H 711.464 1.04873 -1.23342 0
M  V30 7606 H 713.456 4.0259 -0.412687 0
M  V30 7607 H 712.026 3.12257 0.146396 0
M  V30 7608 H 711.246 3.17324 -2.33879 0
M  V30 7609 H 712.534 4.35576 -2.62966 0
M  V30 7610 H 711.932 5.65025 0.276228 0
M  V30 7611 H 710.489 6.51766 -0.0661641 0
M  V30 7612 N 713.922 1.13953 1.08869 0
M  V30 7613 C 715.147 0.928559 1.85452 0
M  V30 7614 C 715.572 -0.517642 1.80837 0
M  V30 7615 O 714.93 -1.36779 1.19001 0
M  V30 7616 C 714.978 1.42814 3.31114 0
M  V30 7617 O 714.082 0.617129 4.07756 0
M  V30 7618 H 713.423 0.33235 0.574839 0
M  V30 7619 H 715.953 1.5156 1.37443 0
M  V30 7620 H 715.963 1.43425 3.8196 0
M  V30 7621 H 714.638 2.48109 3.33788 0
M  V30 7622 H 713.215 0.679365 3.66659 0
M  V30 7623 N 715.4 -1.26948 0.933913 0
M  V30 7624 C 716.816 -1.46419 0.635103 0
M  V30 7625 C 717.016 -1.84336 -0.813785 0
M  V30 7626 O 716.072 -1.96061 -1.59111 0
M  V30 7627 C 717.385 -2.55206 1.5903 0
M  V30 7628 C 718.933 -2.69062 1.5992 0
M  V30 7629 C 719.408 -3.81013 2.54152 0
M  V30 7630 N 720.899 -3.88395 2.52395 0
M  V30 7631 C 721.634 -4.74454 3.21996 0
M  V30 7632 N 721.13 -5.64954 4.00997 0
M  V30 7633 N 722.923 -4.68237 3.10983 0
M  V30 7634 H 715.074 -1.00622 1.87053 0
M  V30 7635 H 717.337 -0.503189 0.803433 0
M  V30 7636 H 717.043 -2.34153 2.62422 0
M  V30 7637 H 716.917 -3.52719 1.33677 0
M  V30 7638 H 719.304 -2.89492 0.572569 0
M  V30 7639 H 719.385 -1.72016 1.89325 0
M  V30 7640 H 719.029 -3.61336 3.5693 0
M  V30 7641 H 718.959 -4.77499 2.22041 0
M  V30 7642 H 721.45 -3.23687 1.95025 0
M  V30 7643 H 721.763 -6.27496 4.51074 0
M  V30 7644 H 720.108 -5.6473 4.05099 0
M  V30 7645 H 723.299 -3.96535 2.48753 0
M  V30 7646 H 723.472 -5.35087 3.65494 0
M  V30 7647 N 716.879 -0.700114 -1.41195 0
M  V30 7648 C 718.125 -0.242122 -2.01954 0
M  V30 7649 C 718.48 1.14697 -1.54475 0
M  V30 7650 O 717.773 1.76392 -0.748095 0
M  V30 7651 C 717.967 -0.243986 -3.56566 0
M  V30 7652 C 717.796 -1.63172 -4.19053 0
M  V30 7653 C 716.566 -2.23566 -4.53152 0
M  V30 7654 C 718.764 -2.57916 -4.44954 0
M  V30 7655 N 716.746 -3.54856 -5.00949 0
M  V30 7656 C 718.117 -3.73892 -4.94576 0
M  V30 7657 C 720.172 -2.56125 -4.26971 0
M  V30 7658 C 718.875 -4.88363 -5.28104 0
M  V30 7659 C 720.901 -3.69712 -4.61592 0
M  V30 7660 C 720.263 -4.84418 -5.11389 0
M  V30 7661 H 716.362 -0.134088 -0.770418 0
M  V30 7662 H 718.946 -0.918576 -1.71669 0
M  V30 7663 H 717.117 0.401971 -3.86314 0
M  V30 7664 H 718.849 0.229261 -4.0405 0
M  V30 7665 H 715.604 -1.75809 -4.39759 0
M  V30 7666 H 716.028 -4.22167 -5.29249 0
M  V30 7667 H 720.67 -1.68656 -3.87705 0
M  V30 7668 H 718.388 -5.76488 -5.66292 0
M  V30 7669 H 721.974 -3.69583 -4.49332 0
M  V30 7670 H 720.854 -5.70855 -5.37675 0
M  V30 7671 N 718.357 1.51182 -0.445186 0
M  V30 7672 C 719.773 1.59299 -0.0978954 0
M  V30 7673 C 719.973 1.4555 1.39346 0
M  V30 7674 O 719.029 1.30073 2.16419 0
M  V30 7675 C 720.342 2.94133 -0.625005 0
M  V30 7676 C 721.89 3.07463 -0.586137 0
M  V30 7677 C 722.365 4.44832 -1.09035 0
M  V30 7678 N 723.856 4.51173 -1.04867 0
M  V30 7679 C 724.591 5.55804 -1.40959 0
M  V30 7680 N 724.087 6.67816 -1.84375 0
M  V30 7681 N 725.88 5.46205 -1.32726 0
M  V30 7682 H 718.031 1.58363 -1.41544 0
M  V30 7683 H 720.294 0.746946 -0.58376 0
M  V30 7684 H 720 3.09589 -1.66876 0
M  V30 7685 H 719.874 3.77161 -0.0542262 0
M  V30 7686 H 722.261 2.9167 0.448646 0
M  V30 7687 H 722.342 2.26255 -1.19341 0
M  V30 7688 H 721.986 4.61372 -2.12364 0
M  V30 7689 H 721.916 5.24591 -0.459539 0
M  V30 7690 H 724.407 3.70783 -0.729932 0
M  V30 7691 H 724.72 7.43683 -2.10131 0
M  V30 7692 H 723.065 6.69003 -1.88308 0
M  V30 7693 H 726.256 4.57583 -0.986678 0
M  V30 7694 H 726.429 6.27634 -1.61182 0
M  V30 7695 N 719.835 0.176821 1.56605 0
M  V30 7696 C 720.782 -0.751312 2.18229 0
M  V30 7697 C 721.752 -1.22297 1.12395 0
M  V30 7698 O 722.937 -1.29015 1.40569 0
M  V30 7699 C 720.077 -1.97291 2.83143 0
M  V30 7700 C 719.19 -1.54431 4.03454 0
M  V30 7701 C 718.325 -2.72 4.56278 0
M  V30 7702 C 717.364 -2.25657 5.68986 0
M  V30 7703 N 716.501 -3.36338 6.16296 0
M  V30 7704 H 721.341 -0.219033 2.97194 0
M  V30 7705 H 718.878 -0.0963803 1.46784 0
M  V30 7706 H 720.836 -2.68949 3.1894 0
M  V30 7707 H 719.466 -2.4788 2.06773 0
M  V30 7708 H 718.518 -0.724273 3.73441 0
M  V30 7709 H 719.83 -1.16417 4.85024 0
M  V30 7710 H 718.984 -3.51806 4.94285 0
M  V30 7711 H 717.723 -3.13277 3.73777 0
M  V30 7712 H 716.728 -1.44299 5.30526 0
M  V30 7713 H 717.953 -1.85432 6.53293 0
M  V30 7714 H 715.899 -3.7718 5.36723 0
M  V30 7715 H 715.816 -3.02435 6.9287 0
M  V30 7716 H 717.084 -4.16413 6.58954 0
M  V30 7717 N 721.313 -1.57302 -0.09688 0
M  V30 7718 C 722.26 -2.01933 -1.11766 0
M  V30 7719 C 723.23 -0.895329 -1.39904 0
M  V30 7720 O 724.415 -1.16119 -1.51397 0
M  V30 7721 C 721.555 -2.44726 -2.43317 0
M  V30 7722 C 720.668 -3.70639 -2.21925 0
M  V30 7723 C 719.803 -4.02318 -3.46862 0
M  V30 7724 C 718.842 -5.21346 -3.20725 0
M  V30 7725 N 717.979 -5.48787 -4.37924 0
M  V30 7726 H 722.819 -2.88919 -0.730075 0
M  V30 7727 H 720.356 -1.42901 -0.348962 0
M  V30 7728 H 722.314 -2.6758 -3.20088 0
M  V30 7729 H 720.944 -1.60753 -2.79926 0
M  V30 7730 H 719.996 -3.55271 -1.35965 0
M  V30 7731 H 721.308 -4.57557 -1.98603 0
M  V30 7732 H 720.462 -4.25939 -4.32042 0
M  V30 7733 H 719.201 -3.13918 -3.73238 0
M  V30 7734 H 718.206 -4.97547 -2.33938 0
M  V30 7735 H 719.431 -6.11343 -2.95697 0
M  V30 7736 H 717.377 -4.63346 -4.64378 0
M  V30 7737 H 717.294 -6.30073 -4.17785 0
M  V30 7738 H 718.562 -5.76943 -5.24173 0
M  V30 7739 N 722.791 0.367657 -1.53252 0
M  V30 7740 C 724.037 1.11216 -1.69584 0
M  V30 7741 C 724.37 1.89026 -0.445269 0
M  V30 7742 O 723.645 1.86342 0.557404 0
M  V30 7743 C 723.928 2.07308 -2.94441 0
M  V30 7744 C 723.781 1.3312 -4.2965 0
M  V30 7745 C 725.1 3.07459 -3.14892 0
M  V30 7746 H 722.219 0.40294 -0.617096 0
M  V30 7747 H 724.861 0.393201 -1.85887 0
M  V30 7748 H 723.011 2.68617 -2.80673 0
M  V30 7749 H 724.683 0.746111 -4.55226 0
M  V30 7750 H 722.926 0.633051 -4.29156 0
M  V30 7751 H 723.597 2.03443 -5.13142 0
M  V30 7752 H 726.073 2.56252 -3.27832 0
M  V30 7753 H 724.949 3.71919 -4.03693 0
M  V30 7754 H 725.21 3.77514 -2.30077 0
M  V30 7755 N 724.269 1.44576 0.627338 0
M  V30 7756 C 725.546 1.38033 1.38586 0
M  V30 7757 C 725.926 0.0409468 2.1106 0
M  V30 7758 O 725.274 -0.976582 2.0658 0
M  V30 7759 C 725.484 2.58102 2.34913 0
M  V30 7760 C 726.832 3.02332 2.98129 0
M  V30 7761 O 727.856 2.58334 2.45238 0
M  V30 7762 O 726.715 3.78628 3.94085 0
M  V30 7763 H 723.809 0.546801 0.620434 0
M  V30 7764 H 726.355 1.56672 0.652077 0
M  V30 7765 H 725.127 3.4719 1.80485 0
M  V30 7766 H 724.75 2.41696 3.15703 0
M  V30 7767 N 725.747 -0.868086 1.31537 0
M  V30 7768 C 727.158 -1.437 1.19195 0
M  V30 7769 C 727.509 -1.95169 -0.200842 0
M  V30 7770 O 726.634 -1.86432 -1.09872 0
M  V30 7771 C 727.229 -2.612 2.15778 0
M  V30 7772 C 725.788 -3.1413 2.07363 0
M  V30 7773 C 724.935 -1.86845 2.049 0
M  V30 7774 H 727.886 -0.676457 1.43561 0
M  V30 7775 H 727.907 -3.37948 1.74847 0
M  V30 7776 H 727.419 -2.23709 3.17137 0
M  V30 7777 H 725.52 -3.56238 1.09204 0
M  V30 7778 H 725.633 -3.76285 2.96557 0
M  V30 7779 H 723.997 -2.05886 1.49943 0
M  V30 7780 H 724.78 -1.51589 3.08019 0
M  V30 7781 N 727.225 -1.14528 -1.08264 0
M  V30 7782 C 728.45 -0.938381 -1.84957 0
M  V30 7783 C 728.875 0.508044 -1.81109 0
M  V30 7784 O 728.233 1.36146 -1.19724 0
M  V30 7785 C 728.281 -1.44568 -3.30352 0
M  V30 7786 O 727.385 -0.638745 -4.07423 0
M  V30 7787 H 726.726 -0.335394 -0.573068 0
M  V30 7788 H 729.256 -1.52287 -1.36637 0
M  V30 7789 H 729.266 -1.45449 -3.81194 0
M  V30 7790 H 727.941 -2.49876 -3.32468 0
M  V30 7791 H 726.518 -0.698801 -3.66294 0
M  V30 7792 N 728.703 1.26451 -0.940633 0
M  V30 7793 C 729.666 2.24651 -0.454378 0
M  V30 7794 C 730.666 1.54826 0.434222 0
M  V30 7795 O 731.856 1.72628 0.233477 0
M  V30 7796 C 728.988 3.39148 0.345192 0
M  V30 7797 H 730.181 2.69182 -1.32217 0
M  V30 7798 H 727.734 1.38596 -0.722547 0
M  V30 7799 H 728.469 3.00018 1.23125 0
M  V30 7800 H 728.254 3.9101 -0.292107 0
M  V30 7801 H 729.744 4.12103 0.675341 0
M  V30 7802 N 730.181 0.707592 1.40822 0
M  V30 7803 C 731.427 0.244031 2.01326 0
M  V30 7804 C 731.76 -1.15722 1.55955 0
M  V30 7805 O 731.035 -1.78347 0.776044 0
M  V30 7806 C 731.318 0.315128 3.58718 0
M  V30 7807 C 731.171 1.75419 4.14184 0
M  V30 7808 C 732.49 -0.318251 4.38948 0
M  V30 7809 H 729.609 0.0901471 0.731466 0
M  V30 7810 H 732.251 0.898584 1.67408 0
M  V30 7811 H 730.401 -0.242176 3.87744 0
M  V30 7812 H 732.073 2.36626 3.95987 0
M  V30 7813 H 730.316 2.28449 3.68773 0
M  V30 7814 H 730.987 1.75538 5.23345 0
M  V30 7815 H 733.463 0.156514 4.15806 0
M  V30 7816 H 732.339 -0.238019 5.48384 0
M  V30 7817 H 732.6 -1.40067 4.19325 0
M  V30 7818 N 731.66 -1.50943 0.453197 0
M  V30 7819 C 732.592 -2.25922 -0.38623 0
M  V30 7820 C 733.605 -1.3055 -0.972652 0
M  V30 7821 O 734.794 -1.56191 -0.864097 0
M  V30 7822 C 731.894 -3.01176 -1.5539 0
M  V30 7823 C 731.067 -4.23768 -1.0835 0
M  V30 7824 C 730.126 -4.81466 -2.12313 0
M  V30 7825 O 729.152 -5.42875 -1.71101 0
M  V30 7826 N 730.354 -4.66889 -3.44956 0
M  V30 7827 H 733.119 -2.98601 0.256468 0
M  V30 7828 H 730.68 -1.59408 0.282965 0
M  V30 7829 H 732.672 -3.36659 -2.24594 0
M  V30 7830 H 731.242 -2.31409 -2.10163 0
M  V30 7831 H 730.462 -3.93597 -0.217961 0
M  V30 7832 H 731.75 -5.03289 -0.746857 0
M  V30 7833 H 731.148 -4.18011 -3.81161 0
M  V30 7834 H 729.705 -5.06691 -4.1001 0
M  V30 7835 N 733.138 -0.185124 -1.56509 0
M  V30 7836 C 734.386 0.455357 -1.96903 0
M  V30 7837 C 734.707 1.62839 -1.07277 0
M  V30 7838 O 733.977 1.95385 -0.141966 0
M  V30 7839 H 732.557 0.171218 -0.727113 0
M  V30 7840 H 735.219 -0.26953 -1.93027 0
M  V30 7841 H 734.315 0.80616 -3.01509 0
M  V30 7842 N 734.616 1.57351 0.0885366 0
M  V30 7843 C 735.548 1.99221 1.13329 0
M  V30 7844 C 736.561 0.895705 1.35945 0
M  V30 7845 O 737.75 1.17376 1.34481 0
M  V30 7846 C 734.85 2.3016 2.48756 0
M  V30 7847 C 734.023 3.61444 2.46327 0
M  V30 7848 C 733.082 3.80244 3.63732 0
M  V30 7849 O 732.108 4.52024 3.45924 0
M  V30 7850 N 733.31 3.2132 4.8346 0
M  V30 7851 H 736.075 2.89456 0.776862 0
M  V30 7852 H 733.636 1.59505 0.277428 0
M  V30 7853 H 735.628 2.39925 3.25911 0
M  V30 7854 H 734.198 1.459 2.76464 0
M  V30 7855 H 733.418 3.62588 1.54673 0
M  V30 7856 H 734.706 4.47678 2.41789 0
M  V30 7857 H 734.104 2.63028 5.00832 0
M  V30 7858 H 732.661 3.3656 5.58185 0
M  V30 7859 N 736.094 -0.359525 1.53444 0
M  V30 7860 C 737.342 -1.09935 1.69584 0
M  V30 7861 C 737.663 -1.89656 0.453371 0
M  V30 7862 O 736.933 -1.8852 -0.53263 0
M  V30 7863 H 735.513 -0.408843 0.625185 0
M  V30 7864 H 738.175 -0.40467 1.90653 0
M  V30 7865 H 737.271 -1.78575 2.55964 0
M  V30 7866 N 737.572 -1.44907 -0.619662 0
M  V30 7867 C 738.983 -1.42905 -1.20146 0
M  V30 7868 C 739.334 -0.150341 -1.95623 0
M  V30 7869 O 738.459 0.748732 -2.03034 0
M  V30 7870 C 739.054 -2.58889 -2.18545 0
M  V30 7871 C 737.613 -2.60046 -2.72127 0
M  V30 7872 C 736.76 -2.3493 -1.4732 0
M  V30 7873 H 739.711 -1.53321 -0.409666 0
M  V30 7874 H 739.732 -2.32298 -3.0136 0
M  V30 7875 H 739.244 -3.51941 -1.63583 0
M  V30 7876 H 737.345 -1.70968 -3.3106 0
M  V30 7877 H 737.458 -3.58893 -3.17384 0
M  V30 7878 H 735.822 -1.84248 -1.75855 0
M  V30 7879 H 736.605 -3.3011 -0.942442 0
M  V30 7880 N 739.05 0.861098 -1.31996 0
M  V30 7881 C 740.298 1.61162 -1.21947 0
M  V30 7882 C 740.619 1.93751 0.220351 0
M  V30 7883 O 739.889 1.59069 1.14341 0
M  V30 7884 H 738.469 0.597485 -0.448353 0
M  V30 7885 H 741.131 1.03039 -1.65436 0
M  V30 7886 H 740.227 2.55138 -1.79752 0
M  V30 7887 N 740.528 1.15101 1.07655 0
M  V30 7888 C 741.478 0.813448 2.12995 0
M  V30 7889 C 742.462 -0.200899 1.59641 0
M  V30 7890 O 743.654 -0.00209918 1.77 0
M  V30 7891 C 740.783 0.301078 3.41977 0
M  V30 7892 C 739.869 1.3454 4.02194 0
M  V30 7893 N 740.26 2.55181 4.36711 0
M  V30 7894 C 738.558 1.19742 4.29625 0
M  V30 7895 C 739.259 3.22094 4.84387 0
M  V30 7896 N 738.235 2.49486 4.82968 0
M  V30 7897 H 742.037 1.73105 2.37511 0
M  V30 7898 H 739.551 1.03601 1.25063 0
M  V30 7899 H 741.548 0.040914 4.1688 0
M  V30 7900 H 740.208 -0.610629 3.18907 0
M  V30 7901 H 741.219 2.92349 4.27496 0
M  V30 7902 H 737.896 0.345353 4.16069 0
M  V30 7903 H 739.286 4.24996 5.20411 0
M  V30 7904 N 742.006 -1.2595 0.947325 0
M  V30 7905 C 743.422 -1.45737 0.650597 0
M  V30 7906 C 743.622 -1.85189 -0.794188 0
M  V30 7907 O 742.678 -1.97738 -1.57022 0
M  V30 7908 C 743.991 -2.53505 1.61728 0
M  V30 7909 C 745.539 -2.67351 1.62765 0
M  V30 7910 C 746.014 -3.78296 2.58179 0
M  V30 7911 N 747.505 -3.85696 2.56501 0
M  V30 7912 C 748.24 -4.71012 3.2701 0
M  V30 7913 N 747.736 -5.60669 4.06966 0
M  V30 7914 N 749.529 -4.64912 3.15932 0
M  V30 7915 H 741.68 -0.986327 1.8811 0
M  V30 7916 H 743.943 -0.494639 0.808725 0
M  V30 7917 H 743.649 -2.31357 2.6489 0
M  V30 7918 H 743.523 -3.51281 1.3741 0
M  V30 7919 H 745.91 -2.88869 0.603241 0
M  V30 7920 H 745.991 -1.69998 1.91139 0
M  V30 7921 H 745.635 -3.5753 3.60742 0
M  V30 7922 H 745.565 -4.75117 2.27093 0
M  V30 7923 H 748.056 -3.21601 1.98447 0
M  V30 7924 H 748.369 -6.22677 4.57704 0
M  V30 7925 H 746.714 -5.60402 4.11066 0
M  V30 7926 H 749.905 -3.93874 2.52945 0
M  V30 7927 H 750.078 -5.3118 3.71149 0
M  V30 7928 N 743.484 -0.715051 -1.40445 0
M  V30 7929 C 744.416 -0.0227516 -2.29189 0
M  V30 7930 C 745.429 0.724313 -1.458 0
M  V30 7931 O 746.618 0.571781 -1.69094 0
M  V30 7932 C 743.718 0.992038 -3.24055 0
M  V30 7933 C 742.891 0.310613 -4.36296 0
M  V30 7934 C 741.95 1.23071 -5.11605 0
M  V30 7935 O 740.976 0.71571 -5.64682 0
M  V30 7936 N 742.178 2.56188 -5.2091 0
M  V30 7937 H 744.943 -0.78473 -2.89244 0
M  V30 7938 H 742.504 -0.562637 -1.51809 0
M  V30 7939 H 744.496 1.60973 -3.71308 0
M  V30 7940 H 743.066 1.65538 -2.65171 0
M  V30 7941 H 742.286 -0.487269 -3.91177 0
M  V30 7942 H 743.574 -0.162415 -5.08541 0
M  V30 7943 H 742.972 3.00527 -4.7927 0
M  V30 7944 H 741.529 3.13103 -5.71673 0
M  V30 7945 N 744.962 1.50701 -0.461195 0
M  V30 7946 C 746.378 1.59187 -0.114786 0
M  V30 7947 C 746.578 1.4702 1.37794 0
M  V30 7948 O 745.634 1.32361 2.15027 0
M  V30 7949 C 746.947 2.93453 -0.656167 0
M  V30 7950 C 748.495 3.06824 -0.618715 0
M  V30 7951 C 748.97 4.4365 -1.13747 0
M  V30 7952 N 750.461 4.50035 -1.09646 0
M  V30 7953 C 751.196 5.54278 -1.46846 0
M  V30 7954 N 750.692 6.65822 -1.91448 0
M  V30 7955 N 752.485 5.44767 -1.38512 0
M  V30 7956 H 744.636 1.56853 -1.43216 0
M  V30 7957 H 746.899 0.740712 -0.59165 0
M  V30 7958 H 746.605 3.07802 -1.7015 0
M  V30 7959 H 746.479 3.77082 -0.0942261 0
M  V30 7960 H 748.866 2.92129 0.417685 0
M  V30 7961 H 748.947 2.24976 -1.21734 0
M  V30 7962 H 748.591 4.59093 -2.17245 0
M  V30 7963 H 748.521 5.24074 -0.515153 0
M  V30 7964 H 751.012 3.69988 -0.769217 0
M  V30 7965 H 751.325 7.41413 -2.18007 0
M  V30 7966 H 749.67 6.66968 -1.95393 0
M  V30 7967 H 752.861 4.56511 -1.03516 0
M  V30 7968 H 753.034 6.25889 -1.6783 0
M  V30 7969 N 746.441 0.193421 1.56409 0
M  V30 7970 C 747.857 -0.162447 1.58771 0
M  V30 7971 C 748.057 -1.6116 1.20954 0
M  V30 7972 O 747.113 -2.3469 0.931497 0
M  V30 7973 C 748.426 0.138391 3.00381 0
M  V30 7974 C 749.974 0.0783649 3.12902 0
M  V30 7975 C 750.449 0.352491 4.56642 0
M  V30 7976 N 751.94 0.30105 4.62221 0
M  V30 7977 C 752.675 0.487028 5.71328 0
M  V30 7978 N 752.171 0.733265 6.88909 0
M  V30 7979 N 753.964 0.4214 5.60518 0
M  V30 7980 H 746.115 1.13909 1.79272 0
M  V30 7981 H 748.378 0.454528 0.83193 0
M  V30 7982 H 748.084 1.14312 3.32604 0
M  V30 7983 H 747.958 -0.559804 3.73023 0
M  V30 7984 H 750.345 -0.916963 2.80492 0
M  V30 7985 H 750.426 0.809611 2.4265 0
M  V30 7986 H 750.07 1.34513 4.89764 0
M  V30 7987 H 750 -0.399624 5.25081 0
M  V30 7988 H 752.491 0.117279 3.77718 0
M  V30 7989 H 752.804 0.86403 7.67955 0
M  V30 7990 H 751.149 0.770138 6.9072 0
M  V30 7991 H 754.34 0.229461 4.67537 0
M  V30 7992 H 754.513 0.569758 6.4549 0
M  V30 7993 N 747.919 -1.57396 -0.0801906 0
M  V30 7994 C 748.882 -2.02133 -1.0805 0
M  V30 7995 C 749.882 -0.91707 -1.32085 0
M  V30 7996 O 751.072 -1.18217 -1.27947 0
M  V30 7997 C 748.204 -2.39479 -2.42616 0
M  V30 7998 H 749.397 -2.91733 -0.6951 0
M  V30 7999 H 746.95 -1.52869 -0.325677 0
M  V30 8000 H 747.685 -1.52879 -2.86004 0
M  V30 8001 H 747.47 -3.20052 -2.26515 0
M  V30 8002 H 748.96 -2.74697 -3.14534 0
M  V30 8003 N 749.397 0.351382 -1.53633 0
M  V30 8004 C 750.645 1.09034 -1.70165 0
M  V30 8005 C 750.966 1.89413 -0.463422 0
M  V30 8006 O 750.236 1.888 0.522624 0
M  V30 8007 H 748.816 0.405522 -0.627344 0
M  V30 8008 H 751.478 0.394554 -1.90865 0
M  V30 8009 H 750.574 1.77215 -2.56907 0
M  V30 8010 N 750.875 1.45233 0.611969 0
M  V30 8011 C 752.291 1.29542 0.932251 0
M  V30 8012 C 752.491 0.24523 2.00002 0
M  V30 8013 O 751.547 -0.362333 2.49887 0
M  V30 8014 C 752.86 2.67301 1.37733 0
M  V30 8015 C 754.408 2.75163 1.49178 0
M  V30 8016 C 754.883 4.13437 1.97064 0
M  V30 8017 N 756.374 4.15709 2.04304 0
M  V30 8018 C 757.109 5.19566 2.42568 0
M  V30 8019 N 756.605 6.33771 2.79832 0
M  V30 8020 N 758.398 5.06923 2.42869 0
M  V30 8021 H 750.549 2.12192 -0.0938679 0
M  V30 8022 H 752.812 0.947775 0.0206569 0
M  V30 8023 H 752.518 3.45318 0.666951 0
M  V30 8024 H 752.392 2.95472 2.3447 0
M  V30 8025 H 754.779 1.97453 2.19309 0
M  V30 8026 H 754.86 2.50712 0.507674 0
M  V30 8027 H 754.504 4.91631 1.27521 0
M  V30 8028 H 754.434 4.35277 2.9638 0
M  V30 8029 H 756.925 3.33293 1.78113 0
M  V30 8030 H 757.238 7.08815 3.07898 0
M  V30 8031 H 755.583 6.37179 2.77538 0
M  V30 8032 H 758.774 4.1675 2.1316 0
M  V30 8033 H 758.947 5.87981 2.72364 0
M  V30 8034 N 752.353 -0.854086 1.3245 0
M  V30 8035 C 753.303 -1.9508 1.18016 0
M  V30 8036 C 754.287 -1.60665 0.0869417 0
M  V30 8037 O 755.479 -1.74201 0.313505 0
M  V30 8038 C 752.608 -3.3113 0.905961 0
M  V30 8039 C 751.694 -3.71763 2.04091 0
M  V30 8040 N 752.085 -3.84218 3.28953 0
M  V30 8041 C 750.383 -4.01393 1.94421 0
M  V30 8042 C 751.084 -4.192 4.03294 0
M  V30 8043 N 750.06 -4.30749 3.31596 0
M  V30 8044 H 753.862 -2.02843 2.12678 0
M  V30 8045 H 751.376 -1.04588 1.24238 0
M  V30 8046 H 753.373 -4.09471 0.783508 0
M  V30 8047 H 752.033 -3.24684 -0.0322715 0
M  V30 8048 H 753.044 -3.68524 3.63883 0
M  V30 8049 H 749.721 -4.03246 1.08162 0
M  V30 8050 H 751.111 -4.36301 5.1097 0
M  V30 8051 N 753.831 -1.1567 -1.07043 0
M  V30 8052 C 755.059 -0.957471 -1.83412 0
M  V30 8053 C 755.474 0.494271 -1.82215 0
M  V30 8054 O 754.831 1.34288 -1.23584 0
M  V30 8055 C 754.882 -1.46784 -3.30359 0
M  V30 8056 O 754.603 -2.86271 -3.31633 0
M  V30 8057 C 756.104 -1.31054 -4.23485 0
M  V30 8058 H 753.324 -0.33986 -0.578564 0
M  V30 8059 H 755.868 -1.53518 -1.35102 0
M  V30 8060 H 754.023 -0.932586 -3.76007 0
M  V30 8061 H 754.437 -3.0948 -4.23465 0
M  V30 8062 H 755.911 -1.71605 -5.24648 0
M  V30 8063 H 756.388 -0.255107 -4.38458 0
M  V30 8064 H 756.994 -1.83503 -3.83676 0
M  V30 8065 N 755.309 1.25446 -0.953992 0
M  V30 8066 C 756.272 2.24156 -0.478179 0
M  V30 8067 C 757.272 1.55278 0.417776 0
M  V30 8068 O 758.462 1.72866 0.215155 0
M  V30 8069 C 755.594 3.39495 0.309202 0
M  V30 8070 H 756.787 2.67764 -1.35064 0
M  V30 8071 H 754.34 1.37822 -0.737206 0
M  V30 8072 H 755.075 3.01307 1.19936 0
M  V30 8073 H 754.86 3.90679 -0.333562 0
M  V30 8074 H 756.35 4.12796 0.631594 0
M  V30 8075 N 756.787 0.722489 1.40064 0
M  V30 8076 C 758.012 0.273446 2.05589 0
M  V30 8077 C 758.437 -1.07875 1.54093 0
M  V30 8078 O 757.795 -1.68095 0.679252 0
M  V30 8079 C 757.843 0.271023 3.5958 0
M  V30 8080 O 756.947 -0.745499 4.05606 0
M  V30 8081 H 756.288 0.126856 0.65177 0
M  V30 8082 H 758.818 0.984906 1.79334 0
M  V30 8083 H 758.828 0.111084 4.07849 0
M  V30 8084 H 757.503 1.25776 3.96425 0
M  V30 8085 H 756.08 -0.552719 3.68781 0
M  V30 8086 N 758.265 -1.50454 0.469181 0
M  V30 8087 C 759.511 -2.02615 -0.0865971 0
M  V30 8088 C 759.844 -1.35062 -1.39542 0
M  V30 8089 O 759.119 -0.475701 -1.88593 0
M  V30 8090 C 759.402 -3.59068 -0.272385 0
M  V30 8091 C 759.255 -4.37196 1.05733 0
M  V30 8092 C 760.574 -4.2793 -1.0278 0
M  V30 8093 H 757.693 -0.736389 -0.0299977 0
M  V30 8094 H 760.335 -1.79792 0.614399 0
M  V30 8095 H 758.485 -3.78646 -0.869471 0
M  V30 8096 H 760.157 -4.29195 1.69084 0
M  V30 8097 H 758.4 -4.01013 1.65442 0
M  V30 8098 H 759.071 -5.44924 0.880997 0
M  V30 8099 H 761.547 -4.12816 -0.521718 0
M  V30 8100 H 760.423 -5.37214 -1.12659 0
M  V30 8101 H 760.684 -3.90968 -2.0639 0
M  V30 8102 N 759.743 -0.201713 -1.56304 0
M  V30 8103 C 760.693 0.729444 -2.16016 0
M  V30 8104 C 761.677 1.17164 -1.10279 0
M  V30 8105 O 762.869 1.12893 -1.36324 0
M  V30 8106 C 759.998 1.94594 -2.82822 0
M  V30 8107 C 759.084 1.52434 -3.95758 0
M  V30 8108 N 759.475 0.814106 -4.99205 0
M  V30 8109 C 757.773 1.81314 -4.07481 0
M  V30 8110 C 758.474 0.601896 -5.78578 0
M  V30 8111 N 757.45 1.15263 -5.3124 0
M  V30 8112 H 761.252 0.178163 -2.93359 0
M  V30 8113 H 758.766 -0.00218038 -1.624 0
M  V30 8114 H 760.763 2.62357 -3.23998 0
M  V30 8115 H 759.423 2.50188 -2.06969 0
M  V30 8116 H 760.434 0.468872 -5.15773 0
M  V30 8117 H 757.111 2.3837 -3.42762 0
M  V30 8118 H 758.501 0.0380119 -6.71889 0
M  V30 8119 N 761.222 1.57436 0.0718424 0
M  V30 8120 C 762.172 2.00132 1.09229 0
M  V30 8121 C 763.156 0.883379 1.34481 0
M  V30 8122 O 764.348 1.14728 1.34783 0
M  V30 8123 C 761.477 2.44876 2.40605 0
M  V30 8124 C 760.563 3.63405 2.18627 0
M  V30 8125 N 760.954 4.77583 1.66579 0
M  V30 8126 C 759.252 3.69953 2.491 0
M  V30 8127 C 759.953 5.5943 1.59415 0
M  V30 8128 N 758.929 5.03275 2.05464 0
M  V30 8129 H 762.731 2.85849 0.683185 0
M  V30 8130 H 760.245 1.59987 0.278914 0
M  V30 8131 H 762.242 2.73703 3.14471 0
M  V30 8132 H 760.902 1.60546 2.82232 0
M  V30 8133 H 761.913 4.99875 1.35443 0
M  V30 8134 H 758.59 2.96336 2.94094 0
M  V30 8135 H 759.98 6.61093 1.20026 0
M  V30 8136 N 762.7 -0.34323 1.53817 0
M  V30 8137 C 763.63 -1.42709 1.84814 0
M  V30 8138 C 764.611 -1.5488 0.703297 0
M  V30 8139 O 765.796 -1.69082 0.955237 0
M  V30 8140 C 762.926 -2.79756 2.05801 0
M  V30 8141 C 761.88 -2.82392 3.21619 0
M  V30 8142 C 761.206 -4.22326 3.2794 0
M  V30 8143 C 762.506 -2.479 4.59721 0
M  V30 8144 H 764.2 -1.17018 2.75585 0
M  V30 8145 H 761.746 -0.561485 1.32602 0
M  V30 8146 H 763.699 -3.55627 2.26069 0
M  V30 8147 H 762.423 -3.06883 1.11761 0
M  V30 8148 H 761.082 -2.08974 3.01207 0
M  V30 8149 H 760.73 -4.46564 2.31494 0
M  V30 8150 H 760.43 -4.25001 4.05768 0
M  V30 8151 H 761.954 -5.00039 3.50419 0
M  V30 8152 H 763.368 -3.13484 4.80001 0
M  V30 8153 H 761.765 -2.61857 5.39954 0
M  V30 8154 H 762.835 -1.43087 4.63308 0
M  V30 8155 N 764.178 -1.45556 -0.604258 0
M  V30 8156 C 765.424 -1.49968 -1.36519 0
M  V30 8157 C 765.757 -0.142236 -1.93678 0
M  V30 8158 O 765.032 0.843717 -1.75247 0
M  V30 8159 C 765.315 -2.58146 -2.51063 0
M  V30 8160 C 765.168 -4.03346 -1.99078 0
M  V30 8161 C 766.487 -2.62581 -3.53184 0
M  V30 8162 H 763.606 -0.545993 -0.495036 0
M  V30 8163 H 766.248 -1.77382 -0.680845 0
M  V30 8164 H 764.398 -2.34901 -3.09441 0
M  V30 8165 H 766.07 -4.37811 -1.45323 0
M  V30 8166 H 764.313 -4.13845 -1.30055 0
M  V30 8167 H 764.984 -4.74731 -2.81664 0
M  V30 8168 H 767.46 -2.83419 -3.04652 0
M  V30 8169 H 766.336 -3.40131 -4.30816 0
M  V30 8170 H 766.597 -1.67798 -4.09019 0
M  V30 8171 N 765.656 0.84705 -1.32902 0
M  V30 8172 C 766.886 1.63166 -1.26729 0
M  V30 8173 C 767.294 1.88474 0.165595 0
M  V30 8174 O 766.637 1.45947 1.11558 0
M  V30 8175 C 766.699 3.0103 -1.96522 0
M  V30 8176 C 766.363 2.9873 -3.45846 0
M  V30 8177 C 767.36 2.75032 -4.41196 0
M  V30 8178 C 765.045 3.19125 -3.87898 0
M  V30 8179 C 767.039 2.71743 -5.76571 0
M  V30 8180 C 764.726 3.15462 -5.2338 0
M  V30 8181 C 765.724 2.91801 -6.17528 0
M  V30 8182 O 765.412 2.88027 -7.5053 0
M  V30 8183 H 765.144 0.51469 -0.438258 0
M  V30 8184 H 767.698 1.06383 -1.75704 0
M  V30 8185 H 765.928 3.59634 -1.42128 0
M  V30 8186 H 767.617 3.61821 -1.83958 0
M  V30 8187 H 768.383 2.59034 -4.10032 0
M  V30 8188 H 764.262 3.36565 -3.15032 0
M  V30 8189 H 767.806 2.53194 -6.5003 0
M  V30 8190 H 763.703 3.31006 -5.54171 0
M  V30 8191 H 764.471 3.03927 -7.59981 0
M  V30 8192 N 767.134 1.16236 1.06428 0
M  V30 8193 C 768.084 0.835994 2.12121 0
M  V30 8194 C 769.068 -0.183955 1.59845 0
M  V30 8195 O 770.26 0.0166741 1.76992 0
M  V30 8196 C 767.389 0.337333 3.41639 0
M  V30 8197 C 766.475 1.38798 4.00744 0
M  V30 8198 N 766.866 2.59799 4.3398 0
M  V30 8199 C 765.164 1.24292 4.28331 0
M  V30 8200 C 765.865 3.27213 4.80943 0
M  V30 8201 N 764.841 2.54594 4.80294 0
M  V30 8202 H 768.643 1.75615 2.35662 0
M  V30 8203 H 766.157 1.04921 1.23957 0
M  V30 8204 H 768.154 0.0851274 4.16813 0
M  V30 8205 H 766.814 -0.57677 3.19536 0
M  V30 8206 H 767.825 2.96867 4.24371 0
M  V30 8207 H 764.502 0.389464 4.15679 0
M  V30 8208 H 765.892 4.30492 5.15874 0
M  V30 8209 N 768.612 -1.24939 0.960631 0
M  V30 8210 C 769.562 -2.23388 0.456266 0
M  V30 8211 C 770.546 -1.54249 -0.45782 0
M  V30 8212 O 771.738 -1.7461 -0.289894 0
M  V30 8213 C 768.867 -3.42321 -0.259024 0
M  V30 8214 C 767.953 -4.18718 0.673478 0
M  V30 8215 N 768.344 -4.72394 1.8077 0
M  V30 8216 C 766.642 -4.43378 0.482859 0
M  V30 8217 C 767.343 -5.30316 2.3904 0
M  V30 8218 N 766.319 -5.17109 1.67629 0
M  V30 8219 H 770.121 -2.62499 1.32179 0
M  V30 8220 H 767.635 -1.40245 0.818851 0
M  V30 8221 H 769.632 -4.11997 -0.637527 0
M  V30 8222 H 768.292 -3.04732 -1.12108 0
M  V30 8223 H 769.303 -4.69345 2.18942 0
M  V30 8224 H 765.98 -4.16147 -0.335821 0
M  V30 8225 H 767.37 -5.82594 3.34715 0
M  V30 8226 N 770.09 -0.729906 -1.39679 0
M  V30 8227 C 771.04 -0.0627678 -2.27914 0
M  V30 8228 C 772.024 0.717867 -1.43998 0
M  V30 8229 O 773.216 0.587713 -1.66958 0
M  V30 8230 C 770.345 0.847564 -3.32673 0
M  V30 8231 C 769.431 0.0613515 -4.24056 0
M  V30 8232 N 769.822 -0.962863 -4.96551 0
M  V30 8233 C 768.12 0.291773 -4.45045 0
M  V30 8234 C 768.821 -1.43652 -5.63683 0
M  V30 8235 N 767.797 -0.756044 -5.38317 0
M  V30 8236 H 771.599 -0.847545 -2.81414 0
M  V30 8237 H 769.113 -0.563776 -1.523 0
M  V30 8238 H 771.11 1.34094 -3.94746 0
M  V30 8239 H 769.77 1.63156 -2.80732 0
M  V30 8240 H 770.781 -1.34409 -5.00154 0
M  V30 8241 H 767.458 1.05097 -4.04056 0
M  V30 8242 H 768.848 -2.28835 -6.31731 0
M  V30 8243 N 771.568 1.50203 -0.477153 0
M  V30 8244 C 772.518 2.25561 0.332625 0
M  V30 8245 C 773.502 1.29401 0.956249 0
M  V30 8246 O 774.694 1.54267 0.867795 0
M  V30 8247 C 771.823 3.12984 1.41052 0
M  V30 8248 C 770.909 4.16595 0.79433 0
M  V30 8249 N 771.3 5.05722 -0.0889633 0
M  V30 8250 C 769.598 4.33279 1.0576 0
M  V30 8251 C 770.299 5.80039 -0.439286 0
M  V30 8252 N 769.275 5.43278 0.187018 0
M  V30 8253 H 773.077 2.91836 -0.347718 0
M  V30 8254 H 770.591 1.59759 -0.291686 0
M  V30 8255 H 772.588 3.65582 2.00388 0
M  V30 8256 H 771.248 2.48258 2.09279 0
M  V30 8257 H 772.259 5.15869 -0.458205 0
M  V30 8258 H 768.936 3.79769 1.7344 0
M  V30 8259 H 770.326 6.61802 -1.1605 0
M  V30 8260 N 773.046 0.209999 1.56195 0
M  V30 8261 C 773.996 -0.717978 2.164 0
M  V30 8262 C 774.98 -1.16577 1.10899 0
M  V30 8263 O 776.172 -1.12169 1.3692 0
M  V30 8264 C 773.301 -1.93091 2.8385 0
M  V30 8265 C 772.387 -1.50333 3.96561 0
M  V30 8266 N 772.778 -0.787621 4.9963 0
M  V30 8267 C 771.076 -1.79151 4.08437 0
M  V30 8268 C 771.777 -0.571204 5.78889 0
M  V30 8269 N 770.753 -1.12444 5.31843 0
M  V30 8270 H 774.555 -0.162603 2.9345 0
M  V30 8271 H 772.069 0.0107928 1.62396 0
M  V30 8272 H 774.066 -2.60635 3.25384 0
M  V30 8273 H 772.726 -2.49087 2.08293 0
M  V30 8274 H 773.737 -0.441513 5.16015 0
M  V30 8275 H 770.414 -2.36549 3.44022 0
M  V30 8276 H 771.804 -0.00237941 6.719 0
M  V30 8277 N 774.524 -1.57472 -0.0634922 0
M  V30 8278 C 775.474 -2.00709 -1.08166 0
M  V30 8279 C 776.458 -0.890498 -1.34011 0
M  V30 8280 O 777.65 -1.15441 -1.34173 0
M  V30 8281 C 774.779 -2.46148 -2.39303 0
M  V30 8282 C 773.865 -3.64559 -2.16697 0
M  V30 8283 N 774.256 -4.78459 -1.64043 0
M  V30 8284 C 772.554 -3.71269 -2.47135 0
M  V30 8285 C 773.255 -5.60268 -1.56445 0
M  V30 8286 N 772.231 -5.04357 -2.02792 0
M  V30 8287 H 776.033 -2.86208 -0.668016 0
M  V30 8288 H 773.547 -1.60133 -0.270426 0
M  V30 8289 H 775.544 -2.75367 -3.13016 0
M  V30 8290 H 774.204 -1.62041 -2.81377 0
M  V30 8291 H 775.215 -5.00587 -1.32791 0
M  V30 8292 H 771.892 -2.97891 -2.92518 0
M  V30 8293 H 773.282 -6.6172 -1.16519 0
M  V30 8294 N 776.003 0.335068 -1.53997 0
M  V30 8295 C 776.953 1.4127 -1.7896 0
M  V30 8296 C 777.937 1.474 -0.64513 0
M  V30 8297 O 779.129 1.52127 -0.904785 0
M  V30 8298 C 776.258 2.78292 -2.01018 0
M  V30 8299 C 775.344 2.7652 -3.21555 0
M  V30 8300 N 775.735 2.44374 -4.42849 0
M  V30 8301 C 774.033 3.0766 -3.22895 0
M  V30 8302 C 774.734 2.51049 -5.24737 0
M  V30 8303 N 773.71 2.8702 -4.6165 0
M  V30 8304 H 777.512 1.15327 -2.70327 0
M  V30 8305 H 775.026 0.543483 -1.53036 0
M  V30 8306 H 777.023 3.55949 -2.17039 0
M  V30 8307 H 775.683 3.05175 -1.10898 0
M  V30 8308 H 776.694 2.17422 -4.70051 0
M  V30 8309 H 773.371 3.3966 -2.42771 0
M  V30 8310 H 774.761 2.29283 -6.31569 0
M  V30 8311 N 777.481 1.45874 0.596531 0
M  V30 8312 C 778.431 1.5181 1.70111 0
M  V30 8313 C 779.415 0.380293 1.56341 0
M  V30 8314 O 780.607 0.627849 1.6549 0
M  V30 8315 C 777.736 1.49822 3.08883 0
M  V30 8316 C 776.822 2.68845 3.27998 0
M  V30 8317 N 777.213 3.93873 3.17329 0
M  V30 8318 C 775.511 2.64777 3.589 0
M  V30 8319 C 776.212 4.73371 3.38076 0
M  V30 8320 N 775.188 4.0501 3.62585 0
M  V30 8321 H 778.99 2.46289 1.60372 0
M  V30 8322 H 776.504 1.41321 0.800138 0
M  V30 8323 H 778.501 1.5216 3.8814 0
M  V30 8324 H 777.161 0.564086 3.19763 0
M  V30 8325 H 778.172 4.25329 2.95492 0
M  V30 8326 H 774.849 1.80323 3.7655 0
M  V30 8327 H 776.239 5.82357 3.35127 0
M  V30 8328 N 778.959 -0.83999 1.33349 0
M  V30 8329 C 779.909 -1.93817 1.20079 0
M  V30 8330 C 780.893 -1.60564 0.103978 0
M  V30 8331 O 782.085 -1.73859 0.331964 0
M  V30 8332 C 779.214 -3.30151 0.941031 0
M  V30 8333 C 778.3 -3.69577 2.08023 0
M  V30 8334 N 778.691 -3.80707 3.3301 0
M  V30 8335 C 776.989 -3.99309 1.98667 0
M  V30 8336 C 777.69 -4.14899 4.07717 0
M  V30 8337 N 776.666 -4.27208 3.36146 0
M  V30 8338 H 780.468 -2.00576 2.14817 0
M  V30 8339 H 777.982 -1.03264 1.2534 0
M  V30 8340 H 779.979 -4.08617 0.826894 0
M  V30 8341 H 778.639 -3.247 0.00216738 0
M  V30 8342 H 779.65 -3.64644 3.67771 0
M  V30 8343 H 776.327 -4.02076 1.12433 0
M  V30 8344 H 777.717 -4.30857 5.15569 0
M  V30 8345 N 780.437 -1.16799 -1.0581 0
M  V30 8346 C 781.667 -0.975454 -1.82122 0
M  V30 8347 C 782.075 0.479584 -1.83021 0
M  V30 8348 O 781.418 1.34471 -1.25153 0
M  V30 8349 C 781.48 -1.43209 -3.29744 0
M  V30 8350 C 781.144 -2.908 -3.5254 0
M  V30 8351 C 782.141 -3.88775 -3.45181 0
M  V30 8352 C 779.826 -3.28832 -3.79703 0
M  V30 8353 C 781.82 -5.22782 -3.64661 0
M  V30 8354 C 779.507 -4.63007 -3.98832 0
M  V30 8355 C 780.505 -5.59791 -3.91309 0
M  V30 8356 O 780.193 -6.9154 -4.09911 0
M  V30 8357 H 779.925 -0.345655 -0.580947 0
M  V30 8358 H 782.479 -1.55355 -1.34365 0
M  V30 8359 H 780.709 -0.797504 -3.78387 0
M  V30 8360 H 782.398 -1.2062 -3.87564 0
M  V30 8361 H 783.164 -3.60738 -3.2418 0
M  V30 8362 H 779.043 -2.54073 -3.84666 0
M  V30 8363 H 782.587 -5.98312 -3.58705 0
M  V30 8364 H 778.484 -4.90752 -4.19324 0
M  V30 8365 H 779.252 -6.98188 -4.27172 0
M  V30 8366 N 781.915 1.24427 -0.967243 0
M  V30 8367 C 782.865 2.23143 -0.468106 0
M  V30 8368 C 783.849 1.5449 0.449633 0
M  V30 8369 O 785.041 1.74761 0.28063 0
M  V30 8370 C 782.17 3.42454 0.240867 0
M  V30 8371 C 781.256 4.18355 -0.695674 0
M  V30 8372 N 781.647 4.71428 -1.83273 0
M  V30 8373 C 779.945 4.43116 -0.506365 0
M  V30 8374 C 780.646 5.29041 -2.41849 0
M  V30 8375 N 779.622 5.16213 -1.70369 0
M  V30 8376 H 783.424 2.61795 -1.3357 0
M  V30 8377 H 780.938 1.39809 -0.826277 0
M  V30 8378 H 782.935 4.12329 0.615668 0
M  V30 8379 H 781.595 3.05323 1.10491 0
M  V30 8380 H 782.606 4.68177 -2.21428 0
M  V30 8381 H 779.283 4.16319 0.313747 0
M  V30 8382 H 780.673 5.80811 -3.37799 0
M  V30 8383 N 783.393 0.737304 1.3929 0
M  V30 8384 C 784.64 0.286257 2.00467 0
M  V30 8385 C 784.968 -1.1272 1.58507 0
M  V30 8386 O 784.223 -1.7832 0.806257 0
M  V30 8387 C 784.522 0.338438 3.55794 0
M  V30 8388 C 784.188 1.70524 4.17411 0
M  V30 8389 C 782.85 2.07934 4.33955 0
M  V30 8390 C 785.202 2.60256 4.51571 0
M  V30 8391 C 782.53 3.34578 4.81948 0
M  V30 8392 C 784.882 3.86275 5.00974 0
M  V30 8393 C 783.546 4.23774 5.15725 0
M  V30 8394 H 782.816 0.104749 0.733559 0
M  V30 8395 H 785.463 0.944598 1.66582 0
M  V30 8396 H 783.768 -0.403478 3.89717 0
M  V30 8397 H 785.465 -0.0287255 4.0099 0
M  V30 8398 H 782.055 1.40439 4.04938 0
M  V30 8399 H 786.239 2.32624 4.38406 0
M  V30 8400 H 781.495 3.63572 4.91554 0
M  V30 8401 H 785.669 4.5596 5.26378 0
M  V30 8402 H 783.296 5.21972 5.52674 0
M  V30 8403 N 784.871 -1.49948 0.485112 0
M  V30 8404 C 786.096 -2.073 -0.0645059 0
M  V30 8405 C 786.521 -1.345 -1.31497 0
M  V30 8406 O 785.879 -0.39687 -1.76903 0
M  V30 8407 C 785.927 -3.59201 -0.317304 0
M  V30 8408 O 785.031 -3.88085 -1.39514 0
M  V30 8409 H 784.372 -0.663723 0.0191822 0
M  V30 8410 H 786.902 -1.92963 0.680179 0
M  V30 8411 H 786.912 -4.04227 -0.553604 0
M  V30 8412 H 785.587 -4.11602 0.596387 0
M  V30 8413 H 784.164 -3.54885 -1.14504 0
M  V30 8414 N 786.349 -0.21828 -1.56081 0
M  V30 8415 C 787.299 0.706492 -2.16778 0
M  V30 8416 C 788.283 1.15987 -1.11516 0
M  V30 8417 O 789.475 1.11441 -1.37513 0
M  V30 8418 C 786.604 1.91583 -2.8487 0
M  V30 8419 C 785.69 1.48228 -3.97353 0
M  V30 8420 N 786.081 0.761113 -5.00041 0
M  V30 8421 C 784.379 1.76982 -4.09382 0
M  V30 8422 C 785.08 0.540496 -5.79184 0
M  V30 8423 N 784.056 1.09622 -5.32432 0
M  V30 8424 H 787.858 0.147038 -2.93532 0
M  V30 8425 H 785.372 -0.0194049 -1.62388 0
M  V30 8426 H 787.369 2.58906 -3.26762 0
M  V30 8427 H 786.029 2.47979 -2.09611 0
M  V30 8428 H 787.04 0.414141 -5.16241 0
M  V30 8429 H 783.717 2.34721 -3.45271 0
M  V30 8430 H 785.107 -0.0332531 -6.71892 0
M  V30 8431 N 787.827 1.57504 0.0551401 0
M  V30 8432 C 789.075 1.87684 0.74962 0
M  V30 8433 C 789.396 0.812547 1.77264 0
M  V30 8434 O 788.666 -0.15694 1.9527 0
M  V30 8435 H 787.246 0.6926 0.279846 0
M  V30 8436 H 789.908 1.94881 0.0272745 0
M  V30 8437 H 789.004 2.85734 1.25548 0
M  V30 8438 N 789.305 -0.326896 1.54172 0
M  V30 8439 C 790.53 -1.08924 1.76494 0
M  V30 8440 C 790.955 -1.81039 0.510523 0
M  V30 8441 O 790.313 -1.73141 -0.537756 0
M  V30 8442 C 790.361 -2.06558 2.95578 0
M  V30 8443 O 789.465 -3.14394 2.6689 0
M  V30 8444 H 788.806 -0.314216 0.584948 0
M  V30 8445 H 791.336 -0.372207 2.01186 0
M  V30 8446 H 791.346 -2.49487 3.22832 0
M  V30 8447 H 790.021 -1.53469 3.86549 0
M  V30 8448 H 788.598 -2.76164 2.50576 0
M  V30 8449 N 790.784 -1.46188 -0.588786 0
M  V30 8450 C 792.195 -1.45421 -1.17088 0
M  V30 8451 C 792.546 -0.191801 -1.9526 0
M  V30 8452 O 791.671 0.705497 -2.04577 0
M  V30 8453 C 792.266 -2.63467 -2.13004 0
M  V30 8454 C 790.825 -2.6576 -2.6655 0
M  V30 8455 C 789.972 -2.38002 -1.42304 0
M  V30 8456 H 792.923 -1.54156 -0.377052 0
M  V30 8457 H 792.944 -2.38638 -2.96365 0
M  V30 8458 H 792.456 -3.55331 -1.56081 0
M  V30 8459 H 790.557 -1.77952 -3.27359 0
M  V30 8460 H 790.67 -3.65545 -3.09699 0
M  V30 8461 H 789.034 -1.87936 -1.71907 0
M  V30 8462 H 789.817 -3.32035 -0.872209 0
M  V30 8463 N 792.262 0.832906 -1.33792 0
M  V30 8464 C 793.678 1.1245 -1.13257 0
M  V30 8465 C 793.878 2.01369 0.0725832 0
M  V30 8466 O 792.934 2.41071 0.751082 0
M  V30 8467 C 794.247 1.78084 -2.42294 0
M  V30 8468 C 795.795 1.90624 -2.48257 0
M  V30 8469 C 796.27 2.59673 -3.77271 0
M  V30 8470 N 797.761 2.67181 -3.78376 0
M  V30 8471 C 798.496 3.21313 -4.74916 0
M  V30 8472 N 797.992 3.76086 -5.81835 0
M  V30 8473 N 799.785 3.19621 -4.62384 0
M  V30 8474 H 791.936 0.241244 -2.11026 0
M  V30 8475 H 794.199 0.169557 -0.932713 0
M  V30 8476 H 793.905 1.20209 -3.30519 0
M  V30 8477 H 793.779 2.78049 -2.5489 0
M  V30 8478 H 796.166 2.4765 -1.60478 0
M  V30 8479 H 796.247 0.89591 -2.39598 0
M  V30 8480 H 795.891 2.03304 -4.65435 0
M  V30 8481 H 795.821 3.61189 -3.8321 0
M  V30 8482 H 798.312 2.28346 -3.01108 0
M  V30 8483 H 798.625 4.15612 -6.51526 0
M  V30 8484 H 796.97 3.74357 -5.85561 0
M  V30 8485 H 800.161 2.76091 -3.7801 0
M  V30 8486 H 800.334 3.61504 -5.37791 0
M  V30 8487 N 793.74 1.17359 1.05189 0
M  V30 8488 C 795.156 0.920861 1.30355 0
M  V30 8489 C 795.356 -0.419993 1.97074 0
M  V30 8490 O 794.412 -1.15696 2.24434 0
M  V30 8491 C 795.725 2.07818 2.1733 0
M  V30 8492 C 797.273 2.1152 2.30712 0
M  V30 8493 C 797.748 3.26637 3.21048 0
M  V30 8494 N 799.239 3.26426 3.28634 0
M  V30 8495 C 799.974 4.12141 3.98657 0
M  V30 8496 N 799.47 5.07966 4.71107 0
M  V30 8497 N 801.263 4.00091 3.94821 0
M  V30 8498 H 793.414 2.03666 0.602821 0
M  V30 8499 H 795.677 0.889294 0.328421 0
M  V30 8500 H 795.383 3.04727 1.75597 0
M  V30 8501 H 795.257 2.02922 3.17966 0
M  V30 8502 H 797.644 1.15196 2.71687 0
M  V30 8503 H 797.725 2.20477 1.29706 0
M  V30 8504 H 797.369 4.23227 2.80788 0
M  V30 8505 H 797.299 3.14917 4.2206 0
M  V30 8506 H 799.79 2.57045 2.77013 0
M  V30 8507 H 800.103 5.69766 5.22099 0
M  V30 8508 H 798.448 5.11936 4.7005 0
M  V30 8509 H 801.639 3.24523 3.37346 0
M  V30 8510 H 801.812 4.6711 4.49123 0
M  V30 8511 N 795.218 -1.23913 0.973828 0
M  V30 8512 C 796.629 -1.73992 0.677021 0
M  V30 8513 C 796.98 -1.78833 -0.807036 0
M  V30 8514 O 796.105 -1.42183 -1.63135 0
M  V30 8515 C 796.7 -3.15985 1.22226 0
M  V30 8516 C 795.259 -3.63547 0.975228 0
M  V30 8517 C 794.406 -2.42001 1.35392 0
M  V30 8518 H 797.357 -1.09529 1.14844 0
M  V30 8519 H 797.378 -3.75875 0.591489 0
M  V30 8520 H 796.89 -3.12429 2.30238 0
M  V30 8521 H 794.991 -3.72493 -0.0891047 0
M  V30 8522 H 795.104 -4.50693 1.62518 0
M  V30 8523 H 793.468 -2.42708 0.772334 0
M  V30 8524 H 794.251 -2.41122 2.44367 0
M  V30 8525 N 796.696 -0.74468 -1.38897 0
M  V30 8526 C 797.944 -0.296298 -1.99916 0
M  V30 8527 C 798.265 1.12325 -1.59399 0
M  V30 8528 O 797.535 1.76658 -0.846689 0
M  V30 8529 H 796.115 -0.106561 -0.73936 0
M  V30 8530 H 798.777 -0.956793 -1.69798 0
M  V30 8531 H 797.873 -0.352356 -3.10105 0
M  V30 8532 N 798.174 1.49689 -0.493057 0
M  V30 8533 C 799.585 1.8665 -0.0433032 0
M  V30 8534 C 799.936 1.40607 1.36836 0
M  V30 8535 O 799.061 0.780503 2.01834 0
M  V30 8536 C 799.656 3.38724 -0.0718069 0
M  V30 8537 C 798.215 3.75015 0.32257 0
M  V30 8538 C 797.362 2.7366 -0.4478 0
M  V30 8539 H 800.313 1.42119 -0.706246 0
M  V30 8540 H 800.334 3.73522 0.725347 0
M  V30 8541 H 799.846 3.72204 -1.09935 0
M  V30 8542 H 797.947 3.47142 1.35364 0
M  V30 8543 H 798.06 4.79099 0.00864259 0
M  V30 8544 H 796.424 2.54498 0.101354 0
M  V30 8545 H 797.207 3.09985 -1.47527 0
M  V30 8546 N 799.652 0.226554 1.55963 0
M  V30 8547 C 800.562 -0.692725 2.24139 0
M  V30 8548 C 801.578 -1.20971 1.25068 0
M  V30 8549 O 802.754 -1.25027 1.57893 0
M  V30 8550 C 799.819 -1.88183 2.91184 0
M  V30 8551 C 798.88 -1.40633 4.05612 0
M  V30 8552 C 798.113 -2.53875 4.6945 0
M  V30 8553 O 798.336 -3.72129 4.32292 0
M  V30 8554 O 797.27 -2.24792 5.58348 0
M  V30 8555 H 801.096 -0.141921 3.03368 0
M  V30 8556 H 798.681 -0.0041049 1.49399 0
M  V30 8557 H 800.563 -2.57617 3.33484 0
M  V30 8558 H 799.238 -2.42064 2.14911 0
M  V30 8559 H 798.145 -0.67986 3.67871 0
M  V30 8560 H 799.478 -0.913838 4.83642 0
M  V30 8561 N 801.13 -1.57531 -0.0467866 0
M  V30 8562 C 802.541 -1.76945 -0.595603 0
M  V30 8563 C 802.892 -0.855354 -1.76573 0
M  V30 8564 O 802.017 -0.045668 -2.16352 0
M  V30 8565 C 802.612 -3.20881 -1.08725 0
M  V30 8566 C 801.171 -3.41553 -1.58172 0
M  V30 8567 C 800.318 -2.72533 -0.511968 0
M  V30 8568 H 803.269 -1.57682 0.179436 0
M  V30 8569 H 803.29 -3.26419 -1.95528 0
M  V30 8570 H 802.802 -3.87385 -0.235398 0
M  V30 8571 H 800.903 -2.80199 -2.456 0
M  V30 8572 H 801.016 -4.50104 -1.64143 0
M  V30 8573 H 799.38 -2.35797 -0.962899 0
M  V30 8574 H 800.163 -3.41709 0.330117 0
M  V30 8575 N 802.608 0.318715 -1.54344 0
M  V30 8576 C 803.856 1.054 -1.72439 0
M  V30 8577 C 804.177 1.88388 -0.503495 0
M  V30 8578 O 803.447 1.89866 0.48246 0
M  V30 8579 H 802.027 0.392124 -0.635805 0
M  V30 8580 H 804.689 0.35398 -1.91659 0
M  V30 8581 H 803.785 1.71726 -2.60608 0
M  V30 8582 N 804.086 1.46499 0.581025 0
M  V30 8583 C 805.049 1.5677 1.672 0
M  V30 8584 C 806.049 0.444716 1.54528 0
M  V30 8585 O 807.239 0.709074 1.59116 0
M  V30 8586 C 804.371 1.4896 3.06633 0
M  V30 8587 H 805.564 2.54 1.5945 0
M  V30 8588 H 803.117 1.34334 0.799003 0
M  V30 8589 H 803.852 0.530168 3.19937 0
M  V30 8590 H 803.637 2.30439 3.17239 0
M  V30 8591 H 805.127 1.59237 3.86048 0
M  V30 8592 N 805.565 -0.825799 1.34232 0
M  V30 8593 C 806.805 -1.59541 1.27773 0
M  V30 8594 C 807.169 -1.91405 -0.150998 0
M  V30 8595 O 808.37 -2.66644 -0.339728 0
M  V30 8596 C 806.641 -2.86183 2.14089 0
M  V30 8597 S 808.2 -3.76751 2.24953 0
M  V30 8598 H 805.018 -0.546871 0.454371 0
M  V30 8599 H 807.62 -0.975677 1.69413 0
M  V30 8600 H 806.324 -2.60767 3.16905 0
M  V30 8601 H 805.855 -3.53155 1.73335 0
M  V30 8602 H 807.87 -4.75442 1.4202 0
M  V30 8603 N 807.043 -1.17915 -1.04565 0
M  V30 8604 C 808.32 -0.881187 -1.74627 0
M  V30 8605 C 808.7 0.617123 -2.01878 0
M  V30 8606 O 808.048 1.57032 -1.65991 0
M  V30 8607 C 808.258 -1.72299 -3.03503 0
M  V30 8608 C 809.606 -1.94688 -3.77335 0
M  V30 8609 O 810.63 -1.6931 -3.13389 0
M  V30 8610 O 809.489 -2.37379 -4.92253 0
M  V30 8611 H 806.583 -0.326864 -0.759664 0
M  V30 8612 H 809.129 -1.28642 -1.10676 0
M  V30 8613 H 807.901 -2.73891 -2.79462 0
M  V30 8614 H 807.524 -1.31593 -3.75192 0
M  V30 8615 N 808.521 1.23394 -0.980386 0
M  V30 8616 C 809.749 1.95844 -0.667286 0
M  V30 8617 C 810.164 1.72574 0.765735 0
M  V30 8618 O 809.521 1.01715 1.51526 0
M  V30 8619 C 809.572 3.48844 -0.948151 0
M  V30 8620 O 809.293 3.71325 -2.32485 0
M  V30 8621 C 810.794 4.38494 -0.651002 0
M  V30 8622 H 808.014 0.623535 -0.247882 0
M  V30 8623 H 810.558 1.56885 -1.31176 0
M  V30 8624 H 808.713 3.85819 -0.349681 0
M  V30 8625 H 809.127 4.65619 -2.41452 0
M  V30 8626 H 810.601 5.44648 -0.897887 0
M  V30 8627 H 811.078 4.37236 0.414922 0
M  V30 8628 H 811.684 4.07127 -1.22995 0
M  V30 8629 N 809.999 0.752036 1.385 0
M  V30 8630 C 811.415 0.42946 1.53713 0
M  V30 8631 C 811.615 -1.0576 1.71514 0
M  V30 8632 O 810.671 -1.84366 1.72527 0
M  V30 8633 C 811.984 1.22735 2.74511 0
M  V30 8634 C 813.532 1.21727 2.8836 0
M  V30 8635 C 814.007 1.99809 4.12117 0
M  V30 8636 N 815.498 1.97062 4.19191 0
M  V30 8637 C 816.233 2.54274 5.13938 0
M  V30 8638 N 815.729 3.20193 6.14368 0
M  V30 8639 N 817.522 2.44212 5.06277 0
M  V30 8640 H 809.673 1.71581 1.25195 0
M  V30 8641 H 811.936 0.727293 0.60807 0
M  V30 8642 H 811.642 2.28032 2.67758 0
M  V30 8643 H 811.516 0.843186 3.67655 0
M  V30 8644 H 813.903 0.172367 2.94596 0
M  V30 8645 H 813.984 1.64094 1.96232 0
M  V30 8646 H 813.628 3.0431 4.06642 0
M  V30 8647 H 813.558 1.54837 5.03322 0
M  V30 8648 H 816.049 1.49054 3.47263 0
M  V30 8649 H 816.362 3.61272 6.83156 0
M  V30 8650 H 814.707 3.24287 6.14705 0
M  V30 8651 H 817.898 1.92343 4.26757 0
M  V30 8652 H 818.071 2.89096 5.79937 0
M  V30 8653 N 811.477 -1.49425 0.500989 0
M  V30 8654 C 812.407 -2.31971 -0.266775 0
M  V30 8655 C 813.388 -1.40245 -0.962563 0
M  V30 8656 O 814.573 -1.69154 -0.953968 0
M  V30 8657 C 811.703 -3.20757 -1.33163 0
M  V30 8658 C 810.657 -4.21275 -0.75572 0
M  V30 8659 C 809.983 -4.98997 -1.92109 0
M  V30 8660 C 811.283 -5.21686 0.253213 0
M  V30 8661 H 812.977 -2.96408 0.422237 0
M  V30 8662 H 810.523 -1.4254 0.204505 0
M  V30 8663 H 812.476 -3.77315 -1.87646 0
M  V30 8664 H 811.2 -2.54263 -2.04983 0
M  V30 8665 H 809.859 -3.65861 -0.232637 0
M  V30 8666 H 809.507 -4.28951 -2.62698 0
M  V30 8667 H 809.207 -5.67011 -1.54182 0
M  V30 8668 H 810.731 -5.584 -2.47026 0
M  V30 8669 H 812.145 -5.72939 -0.203483 0
M  V30 8670 H 810.542 -5.9759 0.548322 0
M  V30 8671 H 811.612 -4.70596 1.16909 0
M  V30 8672 N 812.955 -0.234822 -1.55841 0
M  V30 8673 C 814.201 0.393843 -1.98939 0
M  V30 8674 C 814.534 1.58466 -1.1226 0
M  V30 8675 O 813.809 1.93635 -0.183242 0
M  V30 8676 C 814.092 0.815492 -3.50745 0
M  V30 8677 C 813.945 -0.379878 -4.48193 0
M  V30 8678 C 815.264 1.66687 -4.07312 0
M  V30 8679 H 812.383 0.141681 -0.723253 0
M  V30 8680 H 815.025 -0.333716 -1.87046 0
M  V30 8681 H 813.175 1.43541 -3.6101 0
M  V30 8682 H 814.847 -1.0182 -4.49923 0
M  V30 8683 H 813.09 -1.02507 -4.21515 0
M  V30 8684 H 813.761 -0.0417069 -5.51984 0
M  V30 8685 H 816.237 1.14369 -4.00074 0
M  V30 8686 H 815.113 1.93078 -5.13821 0
M  V30 8687 H 815.374 2.63468 -3.55017 0
M  V30 8688 N 814.433 1.57553 0.0384317 0
M  V30 8689 C 815.849 1.54663 0.39391 0
M  V30 8690 C 816.049 0.959685 1.77179 0
M  V30 8691 O 815.105 0.576647 2.45827 0
M  V30 8692 C 816.418 2.99156 0.304352 0
M  V30 8693 C 817.966 3.10659 0.382119 0
M  V30 8694 C 818.441 4.56866 0.322111 0
M  V30 8695 N 819.932 4.61629 0.38119 0
M  V30 8696 C 820.667 5.72284 0.357501 0
M  V30 8697 N 820.163 6.92207 0.286654 0
M  V30 8698 N 821.956 5.60628 0.406538 0
M  V30 8699 H 814.107 1.9406 -0.86339 0
M  V30 8700 H 816.37 0.889673 -0.327392 0
M  V30 8701 H 816.076 3.45788 -0.642141 0
M  V30 8702 H 815.95 3.60753 1.10168 0
M  V30 8703 H 818.337 2.6398 1.31904 0
M  V30 8704 H 818.418 2.5191 -0.444391 0
M  V30 8705 H 818.062 5.0421 -0.611104 0
M  V30 8706 H 817.992 5.13515 1.1666 0
M  V30 8707 H 820.483 3.75343 0.438838 0
M  V30 8708 H 820.796 7.72316 0.273421 0
M  V30 8709 H 819.141 6.9454 0.252841 0
M  V30 8710 H 822.332 4.65836 0.459812 0
M  V30 8711 H 822.505 6.46858 0.384608 0
M  V30 8712 N 815.911 -0.310526 1.54511 0
M  V30 8713 C 816.874 -1.3657 1.84068 0
M  V30 8714 C 817.874 -1.44123 0.713097 0
M  V30 8715 O 819.064 -1.43924 0.981399 0
M  V30 8716 C 816.196 -2.75162 2.01243 0
M  V30 8717 H 817.389 -1.1161 2.78358 0
M  V30 8718 H 814.942 -0.546699 1.46427 0
M  V30 8719 H 815.677 -3.05359 1.09208 0
M  V30 8720 H 815.462 -2.71071 2.83307 0
M  V30 8721 H 816.952 -3.51473 2.25514 0
M  V30 8722 N 817.389 -1.46805 -0.573248 0
M  V30 8723 C 818.637 -1.52302 -1.32847 0
M  V30 8724 C 818.958 -0.180159 -1.94166 0
M  V30 8725 O 818.228 0.794291 -1.79075 0
M  V30 8726 H 816.808 -0.56097 -0.493276 0
M  V30 8727 H 819.47 -1.82998 -0.670642 0
M  V30 8728 H 818.566 -2.28089 -2.13031 0
M  V30 8729 N 818.867 0.818669 -1.34668 0
M  V30 8730 C 819.83 1.9114 -1.26483 0
M  V30 8731 C 820.83 1.598 -0.179044 0
M  V30 8732 O 822.02 1.6876 -0.431952 0
M  V30 8733 C 819.152 3.27285 -0.95381 0
M  V30 8734 H 820.345 1.9982 -2.23634 0
M  V30 8735 H 817.898 1.01314 -1.19018 0
M  V30 8736 H 818.633 3.24297 0.0143428 0
M  V30 8737 H 818.418 3.51416 -1.73924 0
M  V30 8738 H 819.908 4.07299 -0.921827 0
M  V30 8739 N 820.346 1.18468 1.03938 0
M  V30 8740 C 821.757 0.984808 1.58614 0
M  V30 8741 C 822.108 -0.465165 1.90606 0
M  V30 8742 O 821.233 -1.34274 1.69704 0
M  V30 8743 C 821.828 1.78135 2.8819 0
M  V30 8744 C 820.387 1.62579 3.39478 0
M  V30 8745 C 819.534 1.77501 2.13046 0
M  V30 8746 H 822.485 1.32993 0.865944 0
M  V30 8747 H 822.506 1.27119 3.58638 0
M  V30 8748 H 822.018 2.83661 2.64874 0
M  V30 8749 H 820.119 0.59595 3.67803 0
M  V30 8750 H 820.232 2.42463 4.13217 0
M  V30 8751 H 818.596 1.2046 2.24414 0
M  V30 8752 H 819.379 2.84464 1.92185 0
M  V30 8753 N 821.824 -1.22873 0.986916 0
M  V30 8754 C 823.235 -1.73264 0.695438 0
M  V30 8755 C 823.586 -1.79679 -0.788023 0
M  V30 8756 O 822.711 -1.43905 -1.61618 0
M  V30 8757 C 823.306 -3.14671 1.2557 0
M  V30 8758 C 821.865 -3.62492 1.01373 0
M  V30 8759 C 821.012 -2.40551 1.37951 0
M  V30 8760 H 823.963 -1.08304 1.15999 0
M  V30 8761 H 823.984 -3.75226 0.631322 0
M  V30 8762 H 823.496 -3.0997 2.33539 0
M  V30 8763 H 821.597 -3.72567 -0.0495917 0
M  V30 8764 H 821.71 -4.48944 1.67289 0
M  V30 8765 H 820.074 -2.41875 0.798033 0
M  V30 8766 H 820.857 -2.38516 2.46911 0
M  V30 8767 N 823.302 -0.75937 -1.38099 0
M  V30 8768 C 824.527 -0.327859 -2.04792 0
M  V30 8769 C 824.952 1.03752 -1.56899 0
M  V30 8770 O 824.31 1.66235 -0.723581 0
M  V30 8771 C 824.358 -0.366264 -3.58735 0
M  V30 8772 O 823.462 0.637697 -4.0744 0
M  V30 8773 H 822.803 -0.144092 -0.648177 0
M  V30 8774 H 825.333 -1.03211 -1.7666 0
M  V30 8775 H 825.343 -0.219179 -4.07411 0
M  V30 8776 H 824.018 -1.36243 -3.92951 0
M  V30 8777 H 822.595 0.454749 -3.70117 0
M  V30 8778 N 824.78 1.49157 -0.508906 0
M  V30 8779 C 826.191 1.86593 -0.0630975 0
M  V30 8780 C 826.542 1.42051 1.35337 0
M  V30 8781 O 825.667 0.801866 2.00995 0
M  V30 8782 C 826.262 3.38629 -0.107729 0
M  V30 8783 C 824.821 3.75336 0.282776 0
M  V30 8784 C 823.968 2.7317 -0.4768 0
M  V30 8785 H 826.919 1.41362 -0.72128 0
M  V30 8786 H 826.94 3.74271 0.685689 0
M  V30 8787 H 826.452 3.71017 -1.13876 0
M  V30 8788 H 824.553 3.48558 1.31675 0
M  V30 8789 H 824.666 4.79081 -0.0421728 0
M  V30 8790 H 823.03 2.54591 0.0743552 0
M  V30 8791 H 823.813 3.08403 -1.50807 0
M  V30 8792 N 826.258 0.243083 1.55714 0
M  V30 8793 C 827.669 -0.260788 1.8487 0
M  V30 8794 C 828.02 -1.57879 1.16485 0
M  V30 8795 O 827.145 -2.1184 0.441908 0
M  V30 8796 C 827.74 -0.479954 3.35383 0
M  V30 8797 C 826.299 -0.928096 3.64778 0
M  V30 8798 C 825.446 -0.00316416 2.773 0
M  V30 8799 H 828.397 0.465743 1.51712 0
M  V30 8800 H 828.418 -1.32308 3.56756 0
M  V30 8801 H 827.93 0.479468 3.85127 0
M  V30 8802 H 826.031 -1.90012 3.20509 0
M  V30 8803 H 826.144 -0.7876 4.72582 0
M  V30 8804 H 824.508 -0.513849 2.49463 0
M  V30 8805 H 825.291 0.951562 3.29849 0
M  V30 8806 N 827.736 -1.57571 -0.0300757 0
M  V30 8807 C 828.961 -1.93879 -0.736601 0
M  V30 8808 C 829.386 -0.842998 -1.68152 0
M  V30 8809 O 828.744 0.20135 -1.80178 0
M  V30 8810 C 828.792 -3.29247 -1.47066 0
M  V30 8811 O 827.896 -3.21426 -2.58378 0
M  V30 8812 H 827.237 -0.633735 -0.198181 0
M  V30 8813 H 829.767 -2.04595 0.0141485 0
M  V30 8814 H 829.777 -3.64113 -1.84081 0
M  V30 8815 H 828.452 -4.08565 -0.77764 0
M  V30 8816 H 827.029 -2.98189 -2.23914 0
M  V30 8817 N 829.214 0.302327 -1.54673 0
M  V30 8818 C 830.625 0.875409 -1.64904 0
M  V30 8819 C 830.976 1.88132 -0.55684 0
M  V30 8820 O 830.101 2.14215 0.306754 0
M  V30 8821 C 830.696 1.59457 -2.9893 0
M  V30 8822 C 829.255 2.11607 -3.11287 0
M  V30 8823 C 828.402 0.948324 -2.6058 0
M  V30 8824 H 831.353 0.079362 -1.58501 0
M  V30 8825 H 831.374 2.46005 -2.90279 0
M  V30 8826 H 830.886 0.8622 -3.78402 0
M  V30 8827 H 828.987 2.87895 -2.36532 0
M  V30 8828 H 829.1 2.35151 -4.17422 0
M  V30 8829 H 827.464 1.33352 -2.17001 0
M  V30 8830 H 828.247 0.229936 -3.42529 0
M  V30 8831 N 830.692 1.47107 0.565454 0
M  V30 8832 C 831.94 1.53005 1.32038 0
M  V30 8833 C 832.261 0.190453 1.94068 0
M  V30 8834 O 831.531 -0.784783 1.79494 0
M  V30 8835 H 830.111 0.563578 0.490294 0
M  V30 8836 H 832.773 1.83351 0.660928 0
M  V30 8837 H 831.869 2.29215 2.11818 0
M  V30 8838 N 832.17 -0.811516 1.35101 0
M  V30 8839 C 833.586 -1.10634 1.15031 0
M  V30 8840 C 833.786 -2.01459 -0.0405379 0
M  V30 8841 O 832.842 -2.42235 -0.712635 0
M  V30 8842 C 834.155 -1.74207 2.45097 0
M  V30 8843 C 835.703 -1.8665 2.51258 0
M  V30 8844 C 836.178 -2.53638 3.81355 0
M  V30 8845 N 837.669 -2.61128 3.82579 0
M  V30 8846 C 838.404 -3.13717 4.79968 0
M  V30 8847 N 837.9 -3.66782 5.87744 0
M  V30 8848 N 839.693 -3.12224 4.67411 0
M  V30 8849 H 831.844 -0.207641 2.11383 0
M  V30 8850 H 834.107 -0.154697 0.935293 0
M  V30 8851 H 833.813 -1.14936 3.32389 0
M  V30 8852 H 833.687 -2.73958 2.59281 0
M  V30 8853 H 836.074 -2.45066 1.64398 0
M  V30 8854 H 836.155 -0.857678 2.40993 0
M  V30 8855 H 835.799 -1.95873 4.68611 0
M  V30 8856 H 835.729 -3.55047 3.88907 0
M  V30 8857 H 838.22 -2.23527 3.04703 0
M  V30 8858 H 838.533 -4.05194 6.58056 0
M  V30 8859 H 836.878 -3.64994 5.91443 0
M  V30 8860 H 840.069 -2.70042 3.82354 0
M  V30 8861 H 840.242 -3.52903 5.43474 0
M  V30 8862 N 833.648 -1.19017 -1.03309 0
M  V30 8863 C 834.896 -0.988258 -1.76289 0
M  V30 8864 C 835.217 0.482557 -1.88935 0
M  V30 8865 O 834.487 1.34969 -1.41987 0
M  V30 8866 H 833.067 -0.36267 -0.653054 0
M  V30 8867 H 835.729 -1.49836 -1.2464 0
M  V30 8868 H 834.825 -1.43273 -2.77271 0
M  V30 8869 N 835.127 1.22348 -0.993418 0
M  V30 8870 C 836.538 1.72893 -0.704616 0
M  V30 8871 C 836.889 1.80095 0.778483 0
M  V30 8872 O 836.014 1.4476 1.60853 0
M  V30 8873 C 836.609 3.14 -1.27237 0
M  V30 8874 C 835.168 3.61949 -1.03294 0
M  V30 8875 C 834.315 2.39816 -1.39225 0
M  V30 8876 H 837.266 1.07688 -1.16572 0
M  V30 8877 H 837.287 3.74886 -0.651212 0
M  V30 8878 H 836.799 3.08727 -2.3518 0
M  V30 8879 H 834.9 3.72588 0.0298329 0
M  V30 8880 H 835.013 4.48051 -1.69668 0
M  V30 8881 H 833.377 2.41448 -0.810849 0
M  V30 8882 H 834.16 2.37203 -2.48172 0
M  V30 8883 N 836.605 0.766683 1.37694 0
M  V30 8884 C 838.016 0.394761 1.82479 0
M  V30 8885 C 838.367 -1.07842 1.63904 0
M  V30 8886 O 837.492 -1.83479 1.14737 0
M  V30 8887 C 838.087 0.70974 3.31283 0
M  V30 8888 C 836.646 0.390936 3.74364 0
M  V30 8889 C 835.793 0.956192 2.60293 0
M  V30 8890 H 838.744 0.961756 1.26238 0
M  V30 8891 H 838.765 -0.00742144 3.80499 0
M  V30 8892 H 838.277 1.782 3.4477 0
M  V30 8893 H 836.378 -0.674213 3.66449 0
M  V30 8894 H 836.491 0.895645 4.70654 0
M  V30 8895 H 834.855 0.380744 2.51838 0
M  V30 8896 H 835.638 2.03375 2.76575 0
M  V30 8897 N 838.083 -1.48885 0.516809 0
M  V30 8898 C 839.36 -1.95412 -0.0858293 0
M  V30 8899 C 839.74 -1.45875 -1.5259 0
M  V30 8900 O 839.088 -0.679415 -2.18166 0
M  V30 8901 C 839.298 -3.48995 0.0178194 0
M  V30 8902 C 840.646 -4.24342 -0.14813 0
M  V30 8903 O 841.67 -3.56155 -0.0566125 0
M  V30 8904 O 840.529 -5.45454 -0.338035 0
M  V30 8905 H 837.623 -0.822455 -0.0865884 0
M  V30 8906 H 840.169 -1.59464 0.580472 0
M  V30 8907 H 838.941 -3.77732 1.02147 0
M  V30 8908 H 838.564 -3.91604 -0.687924 0
M  V30 8909 N 839.561 -0.251338 -1.55583 0
M  V30 8910 C 840.524 0.63305 -2.20284 0
M  V30 8911 C 841.524 1.09941 -1.17344 0
M  V30 8912 O 842.714 1.00341 -1.42399 0
M  V30 8913 C 839.846 1.8706 -2.84993 0
M  V30 8914 H 841.039 0.0684846 -2.99822 0
M  V30 8915 H 838.592 -0.00181653 -1.563 0
M  V30 8916 H 839.327 2.47629 -2.09405 0
M  V30 8917 H 839.112 1.54436 -3.60405 0
M  V30 8918 H 840.602 2.50004 -3.34496 0
M  V30 8919 N 841.039 1.57585 0.0217189 0
M  V30 8920 C 841.949 2.10444 1.03684 0
M  V30 8921 C 842.965 1.04472 1.39146 0
M  V30 8922 O 844.141 1.36249 1.48317 0
M  V30 8923 C 841.206 2.5794 2.31664 0
M  V30 8924 C 840.267 3.78425 2.02714 0
M  V30 8925 C 839.5 4.23646 3.24592 0
M  V30 8926 O 839.723 3.6834 4.35525 0
M  V30 8927 O 838.657 5.16013 3.09862 0
M  V30 8928 H 842.483 2.97354 0.617584 0
M  V30 8929 H 840.068 1.47473 0.239174 0
M  V30 8930 H 841.95 2.88785 3.06889 0
M  V30 8931 H 840.625 1.74138 2.7287 0
M  V30 8932 H 839.532 3.52587 1.25033 0
M  V30 8933 H 840.865 4.63234 1.66359 0
M  V30 8934 N 842.517 -0.29412 1.54831 0
M  V30 8935 C 843.742 -1.05156 1.78765 0
M  V30 8936 C 844.167 -1.79916 0.548809 0
M  V30 8937 O 843.525 -1.74243 -0.500909 0
M  V30 8938 C 843.573 -2.00242 2.99893 0
M  V30 8939 O 842.677 -3.08662 2.73499 0
M  V30 8940 H 842.018 -0.301737 0.591482 0
M  V30 8941 H 844.548 -0.329449 2.0193 0
M  V30 8942 H 844.558 -2.42583 3.28051 0
M  V30 8943 H 843.233 -1.45235 3.89717 0
M  V30 8944 H 841.81 -2.70786 2.56377 0
M  V30 8945 N 843.995 -1.47404 -0.557645 0
M  V30 8946 C 845.241 -1.54235 -1.31679 0
M  V30 8947 C 845.574 -0.203782 -1.93128 0
M  V30 8948 O 844.849 0.787536 -1.77843 0
M  V30 8949 C 845.132 -2.66003 -2.42723 0
M  V30 8950 C 844.985 -4.09475 -1.86145 0
M  V30 8951 C 846.304 -2.73685 -3.44652 0
M  V30 8952 H 843.423 -0.561466 -0.477415 0
M  V30 8953 H 846.065 -1.79459 -0.624067 0
M  V30 8954 H 844.215 -2.44627 -3.01811 0
M  V30 8955 H 845.887 -4.42213 -1.31321 0
M  V30 8956 H 844.13 -4.17774 -1.16823 0
M  V30 8957 H 844.801 -4.83451 -2.66418 0
M  V30 8958 H 847.277 -2.92968 -2.95481 0
M  V30 8959 H 846.153 -3.53665 -4.19777 0
M  V30 8960 H 846.414 -1.80726 -4.03473 0
M  V30 8961 N 845.473 0.80434 -1.35529 0
M  V30 8962 C 846.423 1.90565 -1.25175 0
M  V30 8963 C 847.407 1.60232 -0.146512 0
M  V30 8964 O 848.599 1.72918 -0.377943 0
M  V30 8965 C 845.728 3.2754 -1.02823 0
M  V30 8966 C 844.814 3.63932 -2.17748 0
M  V30 8967 N 845.205 3.71744 -3.42986 0
M  V30 8968 C 843.503 3.93901 -2.09184 0
M  V30 8969 C 844.204 4.03944 -4.18574 0
M  V30 8970 N 843.18 4.18146 -3.47355 0
M  V30 8971 H 846.982 1.9481 -2.20059 0
M  V30 8972 H 844.496 0.99905 -1.28034 0
M  V30 8973 H 846.493 4.06281 -0.934941 0
M  V30 8974 H 845.153 3.2458 -0.0882551 0
M  V30 8975 H 846.164 3.54765 -3.77309 0
M  V30 8976 H 842.841 3.98954 -1.23054 0
M  V30 8977 H 844.231 4.17036 -5.26811 0
M  V30 8978 N 846.951 1.19563 1.02676 0
M  V30 8979 C 848.176 1.02556 1.80269 0
M  V30 8980 C 848.601 -0.421056 1.83327 0
M  V30 8981 O 847.959 -1.30279 1.26084 0
M  V30 8982 C 848.007 1.60165 3.23078 0
M  V30 8983 O 847.111 0.832404 4.03912 0
M  V30 8984 H 846.452 0.362354 0.556413 0
M  V30 8985 H 848.982 1.58633 1.29216 0
M  V30 8986 H 848.992 1.6347 3.7382 0
M  V30 8987 H 847.667 2.65454 3.20167 0
M  V30 8988 H 846.244 0.872768 3.62543 0
M  V30 8989 N 848.429 -1.21819 0.999893 0
M  V30 8990 C 849.678 -1.90066 0.675108 0
M  V30 8991 C 849.991 -1.78624 -0.79705 0
M  V30 8992 O 851.197 -2.41851 -1.23371 0
M  V30 8993 C 849.653 -3.40795 1.15702 0
M  V30 8994 C 849.261 -3.60859 2.6549 0
M  V30 8995 C 851.005 -4.147 0.906889 0
M  V30 8996 C 848.912 -5.05324 3.07248 0
M  V30 8997 H 847.842 -0.711763 0.248815 0
M  V30 8998 H 850.493 -1.3792 1.21038 0
M  V30 8999 H 848.875 -3.92164 0.549832 0
M  V30 9000 H 850.049 -3.19951 3.31614 0
M  V30 9001 H 848.364 -3.00298 2.88461 0
M  V30 9002 H 850.961 -5.21187 1.1945 0
M  V30 9003 H 851.304 -4.16004 -0.156923 0
M  V30 9004 H 851.837 -3.69379 1.47662 0
M  V30 9005 H 848.576 -5.09164 4.12834 0
M  V30 9006 H 848.096 -5.47108 2.45832 0
M  V30 9007 H 849.775 -5.73797 2.98941 0
M  V30 9008 N 849.908 -0.773975 -1.37286 0
M  V30 9009 C 851.138 -0.350249 -2.03609 0
M  V30 9010 C 851.546 1.03313 -1.58502 0
M  V30 9011 O 850.889 1.67118 -0.7627 0
M  V30 9012 C 850.951 -0.317215 -3.58098 0
M  V30 9013 C 850.615 -1.64556 -4.26345 0
M  V30 9014 C 851.612 -2.59839 -4.50311 0
M  V30 9015 C 849.297 -1.92061 -4.64131 0
M  V30 9016 C 851.291 -3.80833 -5.11122 0
M  V30 9017 C 848.978 -3.13325 -5.24663 0
M  V30 9018 C 849.976 -4.0753 -5.48095 0
M  V30 9019 O 849.664 -5.26658 -6.0736 0
M  V30 9020 H 849.396 -0.144456 -0.660385 0
M  V30 9021 H 851.95 -1.0496 -1.76557 0
M  V30 9022 H 850.18 0.438528 -3.84205 0
M  V30 9023 H 851.869 0.0797428 -4.05822 0
M  V30 9024 H 852.635 -2.39872 -4.21529 0
M  V30 9025 H 848.514 -1.19562 -4.45226 0
M  V30 9026 H 852.058 -4.54377 -5.29327 0
M  V30 9027 H 847.955 -3.33177 -5.52869 0
M  V30 9028 H 848.723 -5.27513 -6.25837 0
M  V30 9029 N 851.386 1.48609 -0.524698 0
M  V30 9030 C 852.336 2.26505 0.260696 0
M  V30 9031 C 853.32 1.32378 0.914597 0
M  V30 9032 O 854.512 1.5695 0.818277 0
M  V30 9033 C 851.641 3.17313 1.31024 0
M  V30 9034 C 850.727 4.18911 0.661391 0
M  V30 9035 N 851.118 5.05183 -0.24981 0
M  V30 9036 C 849.416 4.36425 0.91922 0
M  V30 9037 C 850.117 5.78348 -0.623598 0
M  V30 9038 N 849.093 5.43598 0.0140839 0
M  V30 9039 H 852.895 2.90582 -0.440388 0
M  V30 9040 H 850.409 1.5875 -0.342364 0
M  V30 9041 H 852.406 3.71772 1.88656 0
M  V30 9042 H 851.066 2.54791 2.01275 0
M  V30 9043 H 852.077 5.1415 -0.622093 0
M  V30 9044 H 848.754 3.85095 1.6127 0
M  V30 9045 H 850.144 6.57775 -1.37046 0
M  V30 9046 N 852.864 0.259585 1.55447 0
M  V30 9047 C 853.827 -0.621359 2.20617 0
M  V30 9048 C 854.827 -1.09317 1.17925 0
M  V30 9049 O 856.017 -0.995842 1.42929 0
M  V30 9050 C 853.149 -1.85546 2.85982 0
M  V30 9051 H 854.342 -0.0525833 2.99854 0
M  V30 9052 H 851.895 0.0101055 1.56297 0
M  V30 9053 H 852.63 -2.46515 2.10715 0
M  V30 9054 H 852.415 -1.52523 3.61219 0
M  V30 9055 H 853.905 -2.48227 3.35817 0
M  V30 9056 N 854.342 -1.57594 -0.0133615 0
M  V30 9057 C 855.619 -1.81173 -0.737273 0
M  V30 9058 C 855.999 -0.861395 -1.92726 0
M  V30 9059 O 855.347 0.0929324 -2.28311 0
M  V30 9060 C 855.557 -3.29314 -1.15557 0
M  V30 9061 C 856.905 -3.94707 -1.56498 0
M  V30 9062 O 857.929 -3.33557 -1.24973 0
M  V30 9063 O 856.788 -5.02402 -2.15069 0
M  V30 9064 H 853.882 -0.745575 -0.357837 0
M  V30 9065 H 856.428 -1.69696 0.0110674 0
M  V30 9066 H 855.2 -3.90096 -0.30677 0
M  V30 9067 H 854.823 -3.45739 -1.96343 0
M  V30 9068 N 855.82 0.285905 -1.54985 0
M  V30 9069 C 857.06 1.02699 -1.76726 0
M  V30 9070 C 857.424 1.83962 -0.549717 0
M  V30 9071 O 858.625 2.60943 -0.645142 0
M  V30 9072 C 856.896 1.89671 -3.02919 0
M  V30 9073 S 858.455 2.7022 -3.45726 0
M  V30 9074 H 855.273 0.346114 -0.621068 0
M  V30 9075 H 857.875 0.298764 -1.93204 0
M  V30 9076 H 856.579 1.28873 -3.89641 0
M  V30 9077 H 856.11 2.66836 -2.89071 0
M  V30 9078 H 858.125 3.92184 -3.03983 0
M  V30 9079 N 857.298 1.47698 0.54982 0
M  V30 9080 C 858.248 1.57145 1.65195 0
M  V30 9081 C 859.232 0.429839 1.55052 0
M  V30 9082 O 860.424 0.68018 1.63409 0
M  V30 9083 C 857.553 1.59573 3.0396 0
M  V30 9084 C 856.639 2.79144 3.19279 0
M  V30 9085 N 857.03 4.03769 3.04638 0
M  V30 9086 C 855.328 2.76061 3.50295 0
M  V30 9087 C 856.029 4.83887 3.22845 0
M  V30 9088 N 855.005 4.1634 3.49517 0
M  V30 9089 H 858.807 2.51266 1.52455 0
M  V30 9090 H 856.321 1.43795 0.754773 0
M  V30 9091 H 858.318 1.64431 3.83103 0
M  V30 9092 H 856.978 0.66553 3.17806 0
M  V30 9093 H 857.989 4.34515 2.81811 0
M  V30 9094 H 854.666 1.92211 3.70622 0
M  V30 9095 H 856.056 5.92724 3.1643 0
M  V30 9096 N 858.776 -0.797141 1.35954 0
M  V30 9097 C 860.025 -1.54983 1.29086 0
M  V30 9098 C 860.338 -1.95167 -0.130003 0
M  V30 9099 O 861.544 -2.69596 -0.32101 0
M  V30 9100 C 860 -2.79738 2.26439 0
M  V30 9101 C 859.608 -2.46753 3.73921 0
M  V30 9102 C 861.352 -3.57733 2.28533 0
M  V30 9103 C 859.259 -3.67858 4.63071 0
M  V30 9104 H 858.189 -0.581766 0.479651 0
M  V30 9105 H 860.84 -0.87541 1.61273 0
M  V30 9106 H 859.222 -3.48939 1.87236 0
M  V30 9107 H 860.396 -1.85499 4.21814 0
M  V30 9108 H 858.711 -1.81985 3.74527 0
M  V30 9109 H 861.308 -4.47699 2.92351 0
M  V30 9110 H 861.651 -3.95754 1.29169 0
M  V30 9111 H 862.184 -2.95504 2.66313 0
M  V30 9112 H 858.923 -3.34939 5.63468 0
M  V30 9113 H 858.443 -4.28305 4.19898 0
M  V30 9114 H 860.122 -4.34977 4.78961 0
M  V30 9115 N 860.254 -1.20106 -1.0204 0
M  V30 9116 C 861.164 -0.962051 -2.13967 0
M  V30 9117 C 862.18 0.0808053 -1.73812 0
M  V30 9118 O 863.356 -0.105774 -2.01122 0
M  V30 9119 C 860.421 -0.513108 -3.42882 0
M  V30 9120 C 859.482 -1.62636 -3.97301 0
M  V30 9121 C 858.715 -1.19875 -5.20063 0
M  V30 9122 O 858.938 -0.0658423 -5.70362 0
M  V30 9123 O 857.872 -2.00467 -5.67536 0
M  V30 9124 H 861.698 -1.8991 -2.36998 0
M  V30 9125 H 859.283 -0.984608 -1.12365 0
M  V30 9126 H 861.165 -0.271797 -4.20523 0
M  V30 9127 H 859.84 0.395402 -3.21276 0
M  V30 9128 H 858.747 -1.92192 -3.20957 0
M  V30 9129 H 860.08 -2.51174 -4.23288 0
M  V30 9130 N 861.732 1.21287 -1.00634 0
M  V30 9131 C 862.98 1.90013 -0.688438 0
M  V30 9132 C 863.301 1.78573 0.783365 0
M  V30 9133 O 862.571 1.1815 1.56261 0
M  V30 9134 H 861.151 0.703336 -0.251648 0
M  V30 9135 H 863.813 1.47346 -1.27574 0
M  V30 9136 H 862.909 2.96879 -0.962781 0
M  V30 9137 N 863.21 0.781244 1.36873 0
M  V30 9138 C 864.621 0.414093 1.8205 0
M  V30 9139 C 864.972 -1.06098 1.65039 0
M  V30 9140 O 864.097 -1.82251 1.16677 0
M  V30 9141 C 864.692 0.744837 3.30511 0
M  V30 9142 C 863.251 0.430621 3.73929 0
M  V30 9143 C 862.398 0.983746 2.59264 0
M  V30 9144 H 865.349 0.975091 1.2521 0
M  V30 9145 H 865.37 0.032936 3.80486 0
M  V30 9146 H 864.882 1.81847 3.42861 0
M  V30 9147 H 862.983 -0.635308 3.67144 0
M  V30 9148 H 863.096 0.945514 4.69677 0
M  V30 9149 H 861.46 0.407433 2.5142 0
M  V30 9150 H 862.243 2.06297 2.74402 0
M  V30 9151 N 864.689 -1.48329 0.532571 0
M  V30 9152 C 865.621 -2.27652 -0.265931 0
M  V30 9153 C 866.634 -1.35522 -0.902083 0
M  V30 9154 O 867.823 -1.60552 -0.780088 0
M  V30 9155 C 864.923 -3.0899 -1.39207 0
M  V30 9156 C 864.096 -4.28915 -0.857349 0
M  V30 9157 C 863.155 -4.92044 -1.86493 0
M  V30 9158 O 862.181 -5.51181 -1.42084 0
M  V30 9159 N 863.383 -4.84518 -3.19723 0
M  V30 9160 H 866.148 -2.96821 0.414389 0
M  V30 9161 H 863.709 -1.57684 0.367066 0
M  V30 9162 H 865.701 -3.48091 -2.06433 0
M  V30 9163 H 864.271 -2.42224 -1.97601 0
M  V30 9164 H 863.491 -3.94199 -0.00901765 0
M  V30 9165 H 864.779 -5.0654 -0.479025 0
M  V30 9166 H 864.177 -4.37628 -3.58467 0
M  V30 9167 H 862.734 -5.27712 -3.82575 0
M  V30 9168 N 866.167 -0.267825 -1.55308 0
M  V30 9169 C 867.077 0.633055 -2.25897 0
M  V30 9170 C 868.093 1.17613 -1.28231 0
M  V30 9171 O 869.269 1.20797 -1.61153 0
M  V30 9172 C 866.334 1.80397 -2.96071 0
M  V30 9173 C 865.395 1.29829 -4.09198 0
M  V30 9174 C 864.628 2.4134 -4.76016 0
M  V30 9175 O 864.851 3.60537 -4.42006 0
M  V30 9176 O 863.785 2.09909 -5.64111 0
M  V30 9177 H 867.611 0.0614381 -3.03638 0
M  V30 9178 H 865.196 -0.0355072 -1.49358 0
M  V30 9179 H 867.078 2.48685 -3.40197 0
M  V30 9180 H 865.753 2.36281 -2.21253 0
M  V30 9181 H 864.66 0.582086 -3.69544 0
M  V30 9182 H 865.993 0.785288 -4.85895 0
M  V30 9183 N 867.645 1.57599 0.00500368 0
M  V30 9184 C 869.061 1.55463 0.361015 0
M  V30 9185 C 869.261 0.997051 1.75103 0
M  V30 9186 O 868.317 0.628661 2.44549 0
M  V30 9187 C 869.63 2.99734 0.240828 0
M  V30 9188 C 871.178 3.11399 0.316138 0
M  V30 9189 C 871.653 4.57446 0.22513 0
M  V30 9190 N 873.144 4.62334 0.283186 0
M  V30 9191 C 873.879 5.72914 0.23603 0
M  V30 9192 N 873.375 6.92659 0.139762 0
M  V30 9193 N 875.168 5.61364 0.287529 0
M  V30 9194 H 867.319 1.92185 -0.904359 0
M  V30 9195 H 869.582 0.882529 -0.34619 0
M  V30 9196 H 869.288 3.44348 -0.715343 0
M  V30 9197 H 869.162 3.63009 1.02491 0
M  V30 9198 H 871.549 2.66718 1.26275 0
M  V30 9199 H 871.63 2.50911 -0.497725 0
M  V30 9200 H 871.274 5.02801 -0.717917 0
M  V30 9201 H 871.204 5.15874 1.05742 0
M  V30 9202 H 873.695 3.7619 0.359123 0
M  V30 9203 H 874.008 7.72722 0.10954 0
M  V30 9204 H 872.353 6.9492 0.105462 0
M  V30 9205 H 875.544 4.66707 0.360897 0
M  V30 9206 H 875.717 6.47528 0.247313 0
M  V30 9207 N 869.123 -0.277682 1.55134 0
M  V30 9208 C 870.086 -1.32635 1.86924 0
M  V30 9209 C 871.086 -1.42578 0.743507 0
M  V30 9210 O 872.276 -1.4181 1.01171 0
M  V30 9211 C 869.408 -2.70832 2.07034 0
M  V30 9212 H 870.601 -1.0568 2.80663 0
M  V30 9213 H 868.154 -0.515517 1.47554 0
M  V30 9214 H 868.889 -3.02974 1.15661 0
M  V30 9215 H 868.674 -2.65001 2.88993 0
M  V30 9216 H 870.164 -3.46611 2.32918 0
M  V30 9217 N 870.601 -1.47988 -0.541979 0
M  V30 9218 C 872.017 -1.33843 -0.869383 0
M  V30 9219 C 872.217 -0.340374 -1.98604 0
M  V30 9220 O 871.273 0.242696 -2.51331 0
M  V30 9221 C 872.586 -2.73568 -1.24823 0
M  V30 9222 C 874.134 -2.81967 -1.3588 0
M  V30 9223 C 874.609 -4.22368 -1.77114 0
M  V30 9224 N 876.1 -4.24983 -1.84237 0
M  V30 9225 C 876.835 -5.30547 -2.17503 0
M  V30 9226 N 876.331 -6.46401 -2.49275 0
M  V30 9227 N 878.124 -5.17933 -2.18406 0
M  V30 9228 H 870.275 -2.11503 0.195001 0
M  V30 9229 H 872.538 -0.947681 0.0245862 0
M  V30 9230 H 872.244 -3.48107 -0.501435 0
M  V30 9231 H 872.118 -3.06322 -2.20106 0
M  V30 9232 H 874.505 -2.07692 -2.09638 0
M  V30 9233 H 874.586 -2.52848 -0.387478 0
M  V30 9234 H 874.23 -4.97155 -1.0392 0
M  V30 9235 H 874.16 -4.48922 -2.75275 0
M  V30 9236 H 876.651 -3.41411 -1.62009 0
M  V30 9237 H 876.964 -7.22698 -2.73729 0
M  V30 9238 H 875.309 -6.49696 -2.46821 0
M  V30 9239 H 878.5 -4.26445 -1.93034 0
M  V30 9240 H 878.673 -6.00307 -2.44 0
M  V30 9241 N 872.079 0.78992 -1.36375 0
M  V30 9242 C 873.325 1.55007 -1.3077 0
M  V30 9243 C 873.658 1.93871 0.112979 0
M  V30 9244 O 872.933 1.6267 1.06625 0
M  V30 9245 C 873.216 2.82748 -2.22993 0
M  V30 9246 C 873.069 2.50253 -3.73756 0
M  V30 9247 C 874.388 3.84569 -2.13998 0
M  V30 9248 H 871.507 0.562362 -0.476359 0
M  V30 9249 H 874.149 0.907582 -1.66922 0
M  V30 9250 H 872.299 3.37573 -1.92292 0
M  V30 9251 H 873.971 2.01482 -4.14973 0
M  V30 9252 H 872.214 1.83203 -3.93216 0
M  V30 9253 H 872.885 3.41487 -4.33694 0
M  V30 9254 H 875.361 3.39188 -2.4102 0
M  V30 9255 H 874.237 4.717 -2.80697 0
M  V30 9256 H 874.498 4.27491 -1.12711 0
M  V30 9257 N 873.557 1.20646 1.01402 0
M  V30 9258 C 874.52 0.959314 2.08158 0
M  V30 9259 C 875.52 -0.0661558 1.60664 0
M  V30 9260 O 876.71 0.170177 1.73367 0
M  V30 9261 C 873.842 0.444785 3.37986 0
M  V30 9262 H 875.035 1.90631 2.31517 0
M  V30 9263 H 872.588 1.02219 1.18241 0
M  V30 9264 H 873.323 -0.507553 3.20304 0
M  V30 9265 H 873.108 1.18435 3.73785 0
M  V30 9266 H 874.598 0.291443 4.16582 0
M  V30 9267 N 875.035 -1.20752 1.01276 0
M  V30 9268 C 875.985 -2.21252 0.550602 0
M  V30 9269 C 876.969 -1.56052 -0.391985 0
M  V30 9270 O 878.161 -1.75682 -0.215575 0
M  V30 9271 C 875.29 -3.43112 -0.113601 0
M  V30 9272 C 874.376 -4.15485 0.850465 0
M  V30 9273 N 874.767 -4.64301 2.00643 0
M  V30 9274 C 873.065 -4.40932 0.670476 0
M  V30 9275 C 873.766 -5.197 2.61317 0
M  V30 9276 N 872.742 -5.09534 1.8941 0
M  V30 9277 H 876.544 -2.56657 1.43194 0
M  V30 9278 H 874.058 -1.36646 0.877597 0
M  V30 9279 H 876.055 -4.1433 -0.462211 0
M  V30 9280 H 874.715 -3.09213 -0.990825 0
M  V30 9281 H 875.726 -4.59637 2.38651 0
M  V30 9282 H 872.403 -4.17197 -0.159016 0
M  V30 9283 H 873.793 -5.67873 3.59123 0
M  V30 9284 N 876.513 -0.788492 -1.36457 0
M  V30 9285 C 877.476 -0.192209 -2.28393 0
M  V30 9286 C 878.476 0.609916 -1.48784 0
M  V30 9287 O 879.666 0.431046 -1.68783 0
M  V30 9288 C 876.798 0.734096 -3.32902 0
M  V30 9289 H 877.991 -1.00284 -2.82636 0
M  V30 9290 H 875.544 -0.557852 -1.46006 0
M  V30 9291 H 876.279 1.5691 -2.83813 0
M  V30 9292 H 876.064 0.160875 -3.9177 0
M  V30 9293 H 877.554 1.1462 -4.01562 0
M  V30 9294 N 877.991 1.48044 -0.54043 0
M  V30 9295 C 878.954 2.28273 0.205966 0
M  V30 9296 C 879.954 1.35983 0.858209 0
M  V30 9297 O 881.144 1.58776 0.716651 0
M  V30 9298 C 878.276 3.15174 1.29917 0
M  V30 9299 H 879.469 2.95727 -0.498555 0
M  V30 9300 H 877.022 1.53457 -0.296745 0
M  V30 9301 H 877.757 2.52374 2.03661 0
M  V30 9302 H 877.542 3.83074 0.836475 0
M  V30 9303 H 879.032 3.75666 1.82387 0
M  V30 9304 N 879.47 0.276058 1.55163 0
M  V30 9305 C 880.433 -0.597924 2.21263 0
M  V30 9306 C 881.433 -1.0806 1.19078 0
M  V30 9307 O 882.623 -0.980626 1.43977 0
M  V30 9308 C 879.755 -1.82503 2.87933 0
M  V30 9309 H 880.948 -0.0207769 2.99893 0
M  V30 9310 H 878.501 0.0266823 1.56277 0
M  V30 9311 H 879.236 -2.44266 2.13318 0
M  V30 9312 H 879.021 -1.48683 3.62816 0
M  V30 9313 H 880.511 -2.44651 3.38431 0
M  V30 9314 N 880.948 -1.576 0.00335426 0
M  V30 9315 C 882.176 -1.94996 -0.691685 0
M  V30 9316 C 882.591 -0.878405 -1.67121 0
M  V30 9317 O 881.948 0.142343 -1.81944 0
M  V30 9318 C 881.999 -3.32416 -1.42063 0
M  V30 9319 O 881.72 -4.35458 -0.48038 0
M  V30 9320 C 883.221 -3.84291 -2.20987 0
M  V30 9321 H 880.441 -0.642814 -0.192434 0
M  V30 9322 H 882.985 -2.04425 0.0554706 0
M  V30 9323 H 881.14 -3.24285 -2.11939 0
M  V30 9324 H 881.554 -5.14975 -0.995054 0
M  V30 9325 H 883.028 -4.82863 -2.67483 0
M  V30 9326 H 883.505 -3.17174 -3.03805 0
M  V30 9327 H 884.111 -3.95609 -1.56121 0
M  V30 9328 N 882.426 0.269451 -1.5528 0
M  V30 9329 C 883.389 1.31642 -1.87625 0
M  V30 9330 C 884.389 1.42182 -0.751058 0
M  V30 9331 O 885.579 1.41272 -1.01921 0
M  V30 9332 C 882.711 2.6973 -2.08467 0
M  V30 9333 H 883.904 1.0419 -2.81219 0
M  V30 9334 H 881.457 0.507685 -1.47825 0
M  V30 9335 H 882.192 3.02356 -1.17266 0
M  V30 9336 H 881.977 2.63465 -2.90394 0
M  V30 9337 H 883.467 3.4537 -2.34753 0
M  V30 9338 N 883.904 1.48273 0.534124 0
M  V30 9339 C 884.867 1.6201 1.62127 0
M  V30 9340 C 885.867 0.493653 1.53035 0
M  V30 9341 O 887.057 0.759337 1.56779 0
M  V30 9342 C 884.189 1.5864 3.01739 0
M  V30 9343 H 885.382 2.58944 1.51288 0
M  V30 9344 H 882.935 1.36808 0.755861 0
M  V30 9345 H 883.67 0.631685 3.18088 0
M  V30 9346 H 883.455 2.40415 3.09747 0
M  V30 9347 H 884.945 1.71438 3.80787 0
M  V30 9348 N 885.382 -0.782676 1.36792 0
M  V30 9349 C 886.345 -1.8772 1.31507 0
M  V30 9350 C 887.345 -1.59269 0.221349 0
M  V30 9351 O 888.535 -1.67555 0.476544 0
M  V30 9352 C 885.667 -3.24641 1.04025 0
M  V30 9353 H 886.86 -1.9382 2.28853 0
M  V30 9354 H 884.413 -0.981226 1.21662 0
M  V30 9355 H 885.148 -3.24221 0.0716439 0
M  V30 9356 H 884.933 -3.46681 1.8318 0
M  V30 9357 H 886.423 -4.04711 1.02949 0
M  V30 9358 N 886.86 -1.21182 -1.00761 0
M  V30 9359 C 888.085 -1.05411 -1.78615 0
M  V30 9360 C 888.51 0.391837 -1.83973 0
M  V30 9361 O 887.868 1.28256 -1.28141 0
M  V30 9362 C 887.916 -1.65285 -3.20489 0
M  V30 9363 O 887.02 -0.896558 -4.02536 0
M  V30 9364 H 886.361 -0.37116 -0.550578 0
M  V30 9365 H 888.891 -1.60669 -1.26676 0
M  V30 9366 H 888.901 -1.69397 -3.71172 0
M  V30 9367 H 887.576 -2.70514 -3.15904 0
M  V30 9368 H 886.153 -0.930335 -3.61108 0
M  V30 9369 N 888.338 1.20213 -1.01915 0
M  V30 9370 C 889.268 2.25336 -0.612023 0
M  V30 9371 C 890.249 1.65933 0.374186 0
M  V30 9372 O 891.434 1.92464 0.259053 0
M  V30 9373 C 888.564 3.47267 0.047904 0
M  V30 9374 C 887.518 4.1928 -0.859557 0
M  V30 9375 C 886.844 5.3466 -0.0652655 0
M  V30 9376 C 888.144 4.75143 -2.1688 0
M  V30 9377 H 889.838 2.59645 -1.49079 0
M  V30 9378 H 887.384 1.24808 -0.718263 0
M  V30 9379 H 889.337 4.19991 0.344294 0
M  V30 9380 H 888.061 3.12129 0.961404 0
M  V30 9381 H 886.72 3.48425 -1.13999 0
M  V30 9382 H 886.368 4.95767 0.849964 0
M  V30 9383 H 886.068 5.83772 -0.669618 0
M  V30 9384 H 887.592 6.10187 0.224612 0
M  V30 9385 H 889.006 5.39672 -1.9346 0
M  V30 9386 H 887.403 5.34702 -2.72422 0
M  V30 9387 H 888.473 3.93744 -2.83008 0
M  V30 9388 N 889.816 0.795718 1.36037 0
M  V30 9389 C 891.232 0.478145 1.52269 0
M  V30 9390 C 891.432 -1.0025 1.74792 0
M  V30 9391 O 890.488 -1.78783 1.78305 0
M  V30 9392 C 891.801 1.31406 2.70468 0
M  V30 9393 C 893.349 1.3084 2.84341 0
M  V30 9394 C 893.824 2.12819 4.05551 0
M  V30 9395 N 895.315 2.10298 4.12709 0
M  V30 9396 C 896.05 2.70495 5.05589 0
M  V30 9397 N 895.546 3.39576 6.03871 0
M  V30 9398 N 897.339 2.60195 4.98252 0
M  V30 9399 H 889.49 1.75477 1.19673 0
M  V30 9400 H 891.753 0.74627 0.584624 0
M  V30 9401 H 891.459 2.36435 2.60368 0
M  V30 9402 H 891.333 0.959726 3.64786 0
M  V30 9403 H 893.72 0.266003 2.93899 0
M  V30 9404 H 893.801 1.70254 1.90912 0
M  V30 9405 H 893.445 3.17093 3.96755 0
M  V30 9406 H 893.375 1.70772 4.98141 0
M  V30 9407 H 895.866 1.60026 3.42345 0
M  V30 9408 H 896.179 3.82823 6.71317 0
M  V30 9409 H 894.524 3.43679 6.04077 0
M  V30 9410 H 897.715 2.05823 4.20422 0
M  V30 9411 H 897.888 3.074 5.70447 0
M  V30 9412 N 891.294 -1.47756 0.548274 0
M  V30 9413 C 892.224 -2.32702 -0.19284 0
M  V30 9414 C 893.205 -1.43237 -0.917457 0
M  V30 9415 O 894.39 -1.72103 -0.89967 0
M  V30 9416 C 891.52 -3.24831 -1.22891 0
M  V30 9417 C 890.474 -4.23466 -0.621312 0
M  V30 9418 C 889.8 -5.04856 -1.76137 0
M  V30 9419 C 891.1 -5.20616 0.419055 0
M  V30 9420 H 892.794 -2.94914 0.516323 0
M  V30 9421 H 890.34 -1.41818 0.24975 0
M  V30 9422 H 892.293 -3.83094 -1.75547 0
M  V30 9423 H 891.017 -2.60656 -1.9679 0
M  V30 9424 H 889.676 -3.66416 -0.116123 0
M  V30 9425 H 889.324 -4.37091 -2.48918 0
M  V30 9426 H 889.024 -5.71629 -1.36065 0
M  V30 9427 H 890.548 -5.65976 -2.29136 0
M  V30 9428 H 891.962 -5.73296 -0.0211034 0
M  V30 9429 H 890.359 -5.95543 0.738163 0
M  V30 9430 H 891.429 -4.66638 1.31822 0
M  V30 9431 N 892.772 -0.284283 -1.55015 0
M  V30 9432 C 893.735 0.586182 -2.21577 0
M  V30 9433 C 894.735 1.07427 -1.1965 0
M  V30 9434 O 895.925 0.972977 -1.44495 0
M  V30 9435 C 893.057 1.80973 -2.88897 0
M  V30 9436 H 894.25 0.00487253 -2.999 0
M  V30 9437 H 891.803 -0.0349696 -1.56261 0
M  V30 9438 H 892.538 2.43131 -2.14611 0
M  V30 9439 H 892.323 1.46757 -3.636 0
M  V30 9440 H 893.813 2.42853 -3.39724 0
M  V30 9441 N 894.251 1.57596 -0.0117121 0
M  V30 9442 C 895.479 1.9536 0.681334 0
M  V30 9443 C 895.894 0.887255 1.66653 0
M  V30 9444 O 895.251 -0.132692 1.82017 0
M  V30 9445 C 895.302 3.33165 1.40298 0
M  V30 9446 O 895.023 4.35707 0.45728 0
M  V30 9447 C 896.524 3.85458 2.18946 0
M  V30 9448 H 893.744 0.643826 0.189023 0
M  V30 9449 H 896.288 2.04392 -0.066311 0
M  V30 9450 H 894.443 3.25404 2.10216 0
M  V30 9451 H 894.857 5.15495 0.96773 0
M  V30 9452 H 896.331 4.84275 2.64918 0
M  V30 9453 H 896.808 3.18781 3.02118 0
M  V30 9454 H 897.414 3.96431 1.5402 0
M  V30 9455 N 895.729 -0.261212 1.5542 0
M  V30 9456 C 896.977 -0.989272 1.76232 0
M  V30 9457 C 897.298 -1.86389 0.573067 0
M  V30 9458 O 896.568 -1.91526 -0.41166 0
M  V30 9459 H 895.148 -0.368256 0.64992 0
M  V30 9460 H 897.81 -0.282603 1.9284 0
M  V30 9461 H 896.906 -1.61935 2.66802 0
M  V30 9462 N 897.207 -1.48554 -0.526253 0
M  V30 9463 C 898.137 -1.66252 -1.63959 0
M  V30 9464 C 899.118 -0.511351 -1.62232 0
M  V30 9465 O 900.303 -0.744322 -1.7937 0
M  V30 9466 C 897.433 -1.70556 -3.02536 0
M  V30 9467 C 896.387 -2.8521 -3.19123 0
M  V30 9468 C 895.713 -2.74606 -4.58798 0
M  V30 9469 C 897.013 -4.26463 -3.0154 0
M  V30 9470 H 898.707 -2.59459 -1.49404 0
M  V30 9471 H 896.253 -1.24862 -0.717326 0
M  V30 9472 H 898.206 -1.81524 -3.80298 0
M  V30 9473 H 896.93 -0.739297 -3.18123 0
M  V30 9474 H 895.589 -2.73802 -2.43779 0
M  V30 9475 H 895.237 -1.75941 -4.71226 0
M  V30 9476 H 894.937 -3.51544 -4.70841 0
M  V30 9477 H 896.461 -2.87548 -5.38655 0
M  V30 9478 H 897.875 -4.38685 -3.69091 0
M  V30 9479 H 896.272 -5.04428 -3.25073 0
M  V30 9480 H 897.342 -4.42667 -1.97925 0
M  V30 9481 N 898.685 0.775411 -1.37205 0
M  V30 9482 C 899.933 1.53081 -1.3195 0
M  V30 9483 C 900.254 1.9476 0.0966864 0
M  V30 9484 O 899.524 1.66019 1.03993 0
M  V30 9485 H 898.104 0.567762 -0.485444 0
M  V30 9486 H 900.766 0.92309 -1.71654 0
M  V30 9487 H 899.862 2.4319 -1.95614 0
M  V30 9488 N 900.163 1.21714 1.00117 0
M  V30 9489 C 901.391 1.06278 1.77518 0
M  V30 9490 C 901.806 -0.387193 1.84787 0
M  V30 9491 O 901.163 -1.26854 1.31203 0
M  V30 9492 C 901.214 1.65795 3.21239 0
M  V30 9493 O 900.935 3.05119 3.14378 0
M  V30 9494 C 902.436 1.55521 4.15124 0
M  V30 9495 H 899.656 0.373013 0.557765 0
M  V30 9496 H 902.2 1.61133 1.25922 0
M  V30 9497 H 900.355 1.15022 3.69931 0
M  V30 9498 H 900.769 3.33643 4.04701 0
M  V30 9499 H 902.243 2.01902 5.13751 0
M  V30 9500 H 902.72 0.510307 4.36225 0
M  V30 9501 H 903.326 2.0556 3.72324 0
M  V30 9502 N 901.641 -1.19671 1.02551 0
M  V30 9503 C 902.574 -2.21522 0.547998 0
M  V30 9504 C 903.552 -1.57363 -0.409349 0
M  V30 9505 O 904.736 -1.85638 -0.327248 0
M  V30 9506 C 901.863 -3.38101 -0.201375 0
M  V30 9507 C 900.909 -4.20601 0.706886 0
M  V30 9508 S 901.742 -4.89066 2.18116 0
M  V30 9509 C 902.898 -6.09058 1.4422 0
M  V30 9510 H 903.131 -2.61684 1.41099 0
M  V30 9511 H 900.664 -1.29864 0.835153 0
M  V30 9512 H 902.622 -4.05674 -0.627607 0
M  V30 9513 H 901.283 -2.96381 -1.04005 0
M  V30 9514 H 900.476 -5.03836 0.128554 0
M  V30 9515 H 900.078 -3.58329 1.07129 0
M  V30 9516 H 902.37 -6.73588 0.726975 0
M  V30 9517 H 903.313 -6.71368 2.25102 0
M  V30 9518 H 903.721 -5.56599 0.941176 0
M  V30 9519 N 903.119 -0.802921 -1.35613 0
M  V30 9520 C 904.067 -0.198783 -2.31749 0
M  V30 9521 C 905.061 0.649416 -1.56458 0
M  V30 9522 O 906.267 0.542989 -1.71615 0
M  V30 9523 H 902.642 -0.0455177 -0.750621 0
M  V30 9524 H 904.613 -1.02479 -2.80251 0
M  V30 9525 C 903.362 0.641066 -3.41739 0
M  V30 9526 H 902.685 -0.00226244 -3.998 0
M  V30 9527 H 904.125 1.03022 -4.11294 0
M  V30 9528 C 902.584 1.80505 -2.84464 0
M  V30 9529 O 903.114 2.90235 -2.77717 0
M  V30 9530 N 901.32 1.61542 -2.41563 0
M  V30 9531 H 900.867 0.722863 -2.4725 0
M  V30 9532 H 900.825 2.39581 -2.03589 0
M  V30 9533 N 904.597 1.47463 -0.556102 0
M  V30 9534 C 905.827 2.06568 -0.0364056 0
M  V30 9535 C 906.235 1.40939 1.26225 0
M  V30 9536 O 905.578 0.499572 1.76777 0
M  V30 9537 C 905.64 3.58755 0.231278 0
M  V30 9538 C 905.304 4.46417 -0.977776 0
M  V30 9539 C 906.301 4.846 -1.88305 0
M  V30 9540 C 903.986 4.87948 -1.19214 0
M  V30 9541 C 905.98 5.63111 -2.98639 0
M  V30 9542 C 903.667 5.66224 -2.29857 0
M  V30 9543 C 904.665 6.03716 -3.194 0
M  V30 9544 O 904.353 6.80415 -4.28125 0
M  V30 9545 H 904.085 0.674675 -0.042305 0
M  V30 9546 H 906.639 1.9047 -0.768775 0
M  V30 9547 H 904.869 3.73061 1.01794 0
M  V30 9548 H 906.558 3.99884 0.696221 0
M  V30 9549 H 907.324 4.53115 -1.72949 0
M  V30 9550 H 903.203 4.58233 -0.504347 0
M  V30 9551 H 906.747 5.92293 -3.68557 0
M  V30 9552 H 902.644 5.97121 -2.45186 0
M  V30 9553 H 903.412 6.98807 -4.26159 0
M  V30 9554 N 906.075 0.2925 1.54862 0
M  V30 9555 C 907.486 -0.201841 1.85606 0
M  V30 9556 C 907.837 -1.54093 1.21449 0
M  V30 9557 O 906.962 -2.10327 0.509079 0
M  V30 9558 C 907.557 -0.373011 3.3674 0
M  V30 9559 C 906.116 -0.811574 3.67547 0
M  V30 9560 C 905.263 0.0850583 2.7717 0
M  V30 9561 H 908.214 0.513774 1.50153 0
M  V30 9562 H 908.235 -1.20892 3.60785 0
M  V30 9563 H 907.747 0.601751 3.83407 0
M  V30 9564 H 905.848 -1.79719 3.26392 0
M  V30 9565 H 905.961 -0.636853 4.74848 0
M  V30 9566 H 904.325 -0.434224 2.50971 0
M  V30 9567 H 905.108 1.05602 3.26654 0
M  V30 9568 N 907.553 -1.57587 0.0200696 0
M  V30 9569 C 908.781 -1.95718 -0.670964 0
M  V30 9570 C 909.196 -0.896081 -1.6618 0
M  V30 9571 O 908.553 0.123037 -1.82085 0
M  V30 9572 C 908.604 -3.33904 -1.38529 0
M  V30 9573 O 908.325 -4.35943 -0.434167 0
M  V30 9574 C 909.826 -3.86614 -2.16898 0
M  V30 9575 H 907.046 -0.644819 -0.185606 0
M  V30 9576 H 909.59 -2.04354 0.0771495 0
M  V30 9577 H 907.745 -3.26515 -2.08487 0
M  V30 9578 H 908.159 -5.16001 -0.940378 0
M  V30 9579 H 909.633 -4.85673 -2.62346 0
M  V30 9580 H 910.11 -3.20379 -3.00423 0
M  V30 9581 H 910.716 -3.97243 -1.51916 0
M  V30 9582 N 909.032 0.252966 -1.55557 0
M  V30 9583 C 910.281 0.979736 -1.76307 0
M  V30 9584 C 910.594 1.86714 -0.582871 0
M  V30 9585 O 911.8 2.6302 -0.673247 0
M  V30 9586 C 910.256 1.79205 -3.12112 0
M  V30 9587 C 909.864 0.952333 -4.37761 0
M  V30 9588 C 911.608 2.51191 -3.42203 0
M  V30 9589 C 909.515 1.76018 -5.64599 0
M  V30 9590 H 908.445 0.369538 -0.657235 0
M  V30 9591 H 911.096 0.234619 -1.81994 0
M  V30 9592 H 909.478 2.57888 -3.00515 0
M  V30 9593 H 910.652 0.208251 -4.60329 0
M  V30 9594 H 908.967 0.346082 -4.14959 0
M  V30 9595 H 911.564 3.12074 -4.34182 0
M  V30 9596 H 911.907 3.22499 -2.63249 0
M  V30 9597 H 912.44 1.79523 -3.54988 0
M  V30 9598 H 909.179 1.09095 -6.46358 0
M  V30 9599 H 908.699 2.4797 -5.46142 0
M  V30 9600 H 910.378 2.32884 -6.03634 0
M  V30 9601 N 910.51 1.48831 0.518367 0
M  V30 9602 C 911.44 1.67119 1.63075 0
M  V30 9603 C 912.421 0.519948 1.61958 0
M  V30 9604 O 913.606 0.753824 1.78972 0
M  V30 9605 C 910.736 1.72158 3.01627 0
M  V30 9606 C 909.69 2.86898 3.17606 0
M  V30 9607 C 909.016 2.77035 4.57335 0
M  V30 9608 C 910.316 4.28057 2.99274 0
M  V30 9609 H 912.01 2.60248 1.48025 0
M  V30 9610 H 909.556 1.2524 0.710694 0
M  V30 9611 H 911.509 1.83539 3.7933 0
M  V30 9612 H 910.233 0.756157 3.17726 0
M  V30 9613 H 908.892 2.75091 2.42323 0
M  V30 9614 H 908.54 1.78438 4.70286 0
M  V30 9615 H 908.24 3.54036 4.6897 0
M  V30 9616 H 909.764 2.904 5.37122 0
M  V30 9617 H 911.178 4.40636 3.6676 0
M  V30 9618 H 909.575 5.06145 3.22393 0
M  V30 9619 H 910.645 4.4371 1.95574 0
M  V30 9620 N 911.988 -0.768124 1.37614 0
M  V30 9621 C 913.399 -1.34462 1.29525 0
M  V30 9622 C 913.75 -1.96121 -0.0555168 0
M  V30 9623 O 912.875 -1.94069 -0.957406 0
M  V30 9624 C 913.47 -2.44475 2.34558 0
M  V30 9625 C 912.029 -2.97883 2.30093 0
M  V30 9626 C 911.176 -1.71131 2.18196 0
M  V30 9627 H 914.127 -0.568103 1.48183 0
M  V30 9628 H 914.148 -3.24047 1.99434 0
M  V30 9629 H 913.66 -1.99568 3.32858 0
M  V30 9630 H 911.761 -3.47156 1.35328 0
M  V30 9631 H 911.874 -3.53251 3.23652 0
M  V30 9632 H 910.238 -1.94197 1.64802 0
M  V30 9633 H 911.021 -1.28323 3.18415 0
M  V30 9634 N 913.466 -1.22244 -0.994698 0
M  V30 9635 C 914.691 -1.07299 -1.77487 0
M  V30 9636 C 915.116 0.372302 -1.84379 0
M  V30 9637 O 914.474 1.2689 -1.29494 0
M  V30 9638 C 914.522 -1.68675 -3.18718 0
M  V30 9639 O 913.626 -0.939202 -4.01563 0
M  V30 9640 H 912.967 -0.376979 -0.546611 0
M  V30 9641 H 915.497 -1.62003 -1.24965 0
M  V30 9642 H 915.507 -1.73324 -3.69354 0
M  V30 9643 H 914.182 -2.73849 -3.13017 0
M  V30 9644 H 912.759 -0.968583 -3.60101 0
M  V30 9645 N 914.944 1.19125 -1.03184 0
M  V30 9646 C 916.192 1.8851 -0.728587 0
M  V30 9647 C 916.513 1.80195 0.74531 0
M  V30 9648 O 915.783 1.21437 1.5372 0
M  V30 9649 H 914.363 0.69784 -0.266511 0
M  V30 9650 H 917.025 1.44607 -1.3067 0
M  V30 9651 H 916.121 2.9477 -1.02554 0
M  V30 9652 N 916.422 0.810101 1.35185 0
M  V30 9653 C 917.668 0.392698 1.98962 0
M  V30 9654 C 918.001 -1.03835 1.64109 0
M  V30 9655 O 917.276 -1.721 0.9062 0
M  V30 9656 C 917.559 0.580349 3.55393 0
M  V30 9657 C 917.412 2.05658 4.00031 0
M  V30 9658 C 918.731 0.00822618 4.40099 0
M  V30 9659 H 915.85 0.144157 0.722764 0
M  V30 9660 H 918.492 1.02029 1.60281 0
M  V30 9661 H 916.642 0.0461106 3.88473 0
M  V30 9662 H 918.314 2.65348 3.77344 0
M  V30 9663 H 916.557 2.55174 3.50811 0
M  V30 9664 H 917.228 2.13875 5.08883 0
M  V30 9665 H 919.704 0.464517 4.13499 0
M  V30 9666 H 918.58 0.169414 5.48638 0
M  V30 9667 H 918.841 -1.08576 4.2856 0
M  V30 9668 N 917.9 -1.47166 0.563914 0
M  V30 9669 C 919.148 -2.02056 0.0422873 0
M  V30 9670 C 919.469 -1.43992 -1.31497 0
M  V30 9671 O 918.739 -0.617578 -1.85911 0
M  V30 9672 H 917.319 -0.746893 0.0126427 0
M  V30 9673 H 919.981 -1.80492 0.735441 0
M  V30 9674 H 919.077 -3.12073 -0.0408044 0
M  V30 9675 N 919.378 -0.300708 -1.54705 0
M  V30 9676 C 920.603 0.314073 -2.05008 0
M  V30 9677 C 921.028 1.46759 -1.17657 0
M  V30 9678 O 920.386 1.80398 -0.180598 0
M  V30 9679 C 920.434 0.748243 -3.52752 0
M  V30 9680 O 919.538 1.85305 -3.68424 0
M  V30 9681 H 918.879 0.0610139 -0.661191 0
M  V30 9682 H 921.409 -0.442467 -1.99758 0
M  V30 9683 H 921.419 1.03713 -3.94598 0
M  V30 9684 H 920.094 -0.095573 -4.1579 0
M  V30 9685 H 918.671 1.56473 -3.38483 0
M  V30 9686 N 920.856 1.57574 -0.0284266 0
M  V30 9687 C 922.104 1.91393 0.649079 0
M  V30 9688 C 922.425 0.905368 1.72708 0
M  V30 9689 O 921.695 -0.0532107 1.95828 0
M  V30 9690 H 920.275 0.70646 0.24274 0
M  V30 9691 H 922.937 1.94752 -0.076066 0
M  V30 9692 H 922.033 2.91988 1.10226 0
M  V30 9693 N 922.334 -0.244713 1.55689 0
M  V30 9694 C 923.281 -1.30301 1.905 0
M  V30 9695 C 924.251 -1.4772 0.759478 0
M  V30 9696 O 925.436 -1.61667 1.01333 0
M  V30 9697 C 922.576 -2.653 2.20703 0
M  V30 9698 C 921.689 -2.55872 3.48071 0
M  V30 9699 C 920.824 -3.83238 3.67834 0
M  V30 9700 C 919.863 -3.68436 4.88796 0
M  V30 9701 N 919 -4.877 5.05068 0
M  V30 9702 H 923.84 -0.999143 2.80751 0
M  V30 9703 H 921.377 -0.482099 1.38976 0
M  V30 9704 H 923.335 -3.43884 2.36219 0
M  V30 9705 H 921.965 -2.93831 1.33653 0
M  V30 9706 H 921.017 -1.68846 3.40874 0
M  V30 9707 H 922.329 -2.40845 4.36801 0
M  V30 9708 H 921.483 -4.70266 3.83321 0
M  V30 9709 H 920.222 -4.01165 2.77341 0
M  V30 9710 H 919.227 -2.79793 4.73282 0
M  V30 9711 H 920.452 -3.52003 5.8075 0
M  V30 9712 H 918.398 -5.05983 4.17513 0
M  V30 9713 H 918.315 -4.75312 5.8789 0
M  V30 9714 H 919.583 -5.76219 5.24969 0
M  V30 9715 N 923.813 -1.49104 -0.510467 0
M  V30 9716 C 925.061 -1.578 -1.26268 0
M  V30 9717 C 925.382 -0.262349 -1.93227 0
M  V30 9718 O 924.652 0.717624 -1.82283 0
M  V30 9719 H 923.232 -0.581387 -0.46904 0
M  V30 9720 H 925.894 -1.85678 -0.592423 0
M  V30 9721 H 924.99 -2.36919 -2.03165 0
M  V30 9722 N 925.291 0.760815 -1.38019 0
M  V30 9723 C 926.516 1.55513 -1.37224 0
M  V30 9724 C 926.941 1.88062 0.037611 0
M  V30 9725 O 926.299 1.50042 1.0177 0
M  V30 9726 C 926.347 2.83539 -2.22796 0
M  V30 9727 O 925.451 3.78384 -1.64009 0
M  V30 9728 H 924.792 0.470642 -0.468393 0
M  V30 9729 H 927.322 0.940792 -1.81687 0
M  V30 9730 H 927.332 3.32535 -2.36399 0
M  V30 9731 H 926.007 2.59178 -3.25269 0
M  V30 9732 H 924.584 3.37063 -1.59508 0
M  V30 9733 N 926.769 1.22769 0.988202 0
M  V30 9734 C 927.997 1.08155 1.76381 0
M  V30 9735 C 928.412 -0.367573 1.85187 0
M  V30 9736 O 927.769 -1.25455 1.32541 0
M  V30 9737 C 927.82 1.69193 3.19462 0
M  V30 9738 O 927.541 3.08437 3.11125 0
M  V30 9739 C 929.042 1.59915 4.13451 0
M  V30 9740 H 926.262 0.378908 0.553778 0
M  V30 9741 H 928.806 1.6246 1.24206 0
M  V30 9742 H 926.961 1.18939 3.6869 0
M  V30 9743 H 927.375 3.37916 4.0114 0
M  V30 9744 H 928.849 2.07339 5.1158 0
M  V30 9745 H 929.326 0.556546 4.3566 0
M  V30 9746 H 929.932 2.09497 3.70123 0
M  V30 9747 N 928.247 -1.18576 1.03814 0
M  V30 9748 C 929.472 -1.92978 0.759873 0
M  V30 9749 C 929.897 -1.75514 -0.676486 0
M  V30 9750 O 929.255 -1.06359 -1.46824 0
M  V30 9751 C 929.303 -3.42507 1.12788 0
M  V30 9752 O 928.407 -4.1163 0.251886 0
M  V30 9753 H 927.748 -0.602129 0.279886 0
M  V30 9754 H 930.278 -1.50383 1.3873 0
M  V30 9755 H 930.288 -3.93206 1.08872 0
M  V30 9756 H 928.963 -3.5454 2.17427 0
M  V30 9757 H 927.54 -3.7125 0.350441 0
M  V30 9758 N 929.725 -0.817259 -1.34754 0
M  V30 9759 C 931.136 -0.462215 -1.80888 0
M  V30 9760 C 931.487 1.01685 -1.67794 0
M  V30 9761 O 930.612 1.79094 -1.21468 0
M  V30 9762 C 931.207 -0.832204 -3.2842 0
M  V30 9763 C 929.766 -0.52961 -3.72655 0
M  V30 9764 C 928.913 -1.05214 -2.56564 0
M  V30 9765 H 931.864 -1.00795 -1.22581 0
M  V30 9766 H 931.885 -0.133804 -3.80265 0
M  V30 9767 H 931.397 -1.90873 -3.37919 0
M  V30 9768 H 929.498 0.537743 -3.68699 0
M  V30 9769 H 929.611 -1.06971 -4.67005 0
M  V30 9770 H 927.975 -0.473949 -2.50251 0
M  V30 9771 H 928.758 -2.135 -2.68836 0
M  V30 9772 N 931.203 1.46865 -0.571711 0
M  V30 9773 C 932.451 2.0203 -0.0530022 0
M  V30 9774 C 932.772 1.44687 1.30731 0
M  V30 9775 O 932.042 0.627429 1.85581 0
M  V30 9776 H 930.622 0.746815 -0.0166035 0
M  V30 9777 H 933.284 1.80099 -0.745003 0
M  V30 9778 H 932.38 3.12091 0.0242538 0
M  V30 9779 N 932.681 0.308908 1.54543 0
M  V30 9780 C 934.092 -0.182144 1.85809 0
M  V30 9781 C 934.443 -1.52796 1.23076 0
M  V30 9782 O 933.568 -2.09775 0.531358 0
M  V30 9783 C 934.163 -0.337275 3.37117 0
M  V30 9784 C 932.722 -0.772545 3.68387 0
M  V30 9785 C 931.869 0.114451 2.77064 0
M  V30 9786 H 934.82 0.529671 1.496 0
M  V30 9787 H 934.841 -1.17058 3.62046 0
M  V30 9788 H 934.353 0.642382 3.82747 0
M  V30 9789 H 932.454 -1.76247 3.2828 0
M  V30 9790 H 932.567 -0.586453 4.75497 0
M  V30 9791 H 930.931 -0.407581 2.51418 0
M  V30 9792 H 931.714 1.09061 3.25516 0
M  V30 9793 N 934.159 -1.57557 0.0367827 0
M  V30 9794 C 935.106 -2.10679 -0.942499 0
M  V30 9795 C 936.076 -1.01068 -1.31812 0
M  V30 9796 O 937.261 -1.28533 -1.41011 0
M  V30 9797 C 934.401 -2.64467 -2.21701 0
M  V30 9798 C 933.514 -3.88114 -1.89715 0
M  V30 9799 C 932.649 -4.30268 -3.11518 0
M  V30 9800 C 931.688 -5.46652 -2.75387 0
M  V30 9801 N 930.825 -5.83927 -3.89838 0
M  V30 9802 H 935.665 -2.94066 -0.482588 0
M  V30 9803 H 933.202 -1.45344 -0.226597 0
M  V30 9804 H 935.16 -2.93745 -2.96259 0
M  V30 9805 H 933.79 -1.83898 -2.65295 0
M  V30 9806 H 932.842 -3.65516 -1.05366 0
M  V30 9807 H 934.154 -4.72743 -1.5911 0
M  V30 9808 H 933.308 -4.61023 -3.94389 0
M  V30 9809 H 932.047 -3.44421 -3.4529 0
M  V30 9810 H 931.052 -5.15583 -1.90929 0
M  V30 9811 H 932.277 -6.34204 -2.42822 0
M  V30 9812 H 930.223 -5.01035 -4.23438 0
M  V30 9813 H 930.14 -6.63214 -3.62883 0
M  V30 9814 H 931.408 -6.19291 -4.73391 0
M  V30 9815 N 935.637 0.236453 -1.55816 0
M  V30 9816 C 936.885 0.96111 -1.77784 0
M  V30 9817 C 937.206 1.85454 -0.602648 0
M  V30 9818 O 936.476 1.92157 0.381137 0
M  V30 9819 H 935.056 0.35787 -0.655697 0
M  V30 9820 H 937.718 0.251888 -1.93265 0
M  V30 9821 H 936.814 1.5767 -2.69345 0
M  V30 9822 N 937.115 1.49373 0.502552 0
M  V30 9823 C 938.062 1.65927 1.60427 0
M  V30 9824 C 939.032 0.500768 1.58371 0
M  V30 9825 O 940.217 0.727606 1.76382 0
M  V30 9826 C 937.357 1.73043 2.9858 0
M  V30 9827 C 936.47 3.00187 3.10663 0
M  V30 9828 C 935.605 2.98292 4.3954 0
M  V30 9829 C 934.644 4.20022 4.4525 0
M  V30 9830 N 933.781 4.16046 5.65553 0
M  V30 9831 H 938.621 2.59998 1.45619 0
M  V30 9832 H 936.158 1.28912 0.708519 0
M  V30 9833 H 938.116 1.7515 3.78653 0
M  V30 9834 H 936.746 0.824397 3.12095 0
M  V30 9835 H 935.798 3.07699 2.23663 0
M  V30 9836 H 937.11 3.9018 3.10742 0
M  V30 9837 H 936.264 2.98953 5.27932 0
M  V30 9838 H 935.003 2.06075 4.42023 0
M  V30 9839 H 934.008 4.19607 3.5526 0
M  V30 9840 H 935.233 5.13431 4.44484 0
M  V30 9841 H 933.179 3.26665 5.68881 0
M  V30 9842 H 933.096 4.99773 5.67242 0
M  V30 9843 H 934.364 4.20807 6.56156 0
M  V30 9844 N 938.594 -0.753485 1.38421 0
M  V30 9845 C 939.84 -1.51391 1.35839 0
M  V30 9846 C 940.195 -1.92331 -0.0513518 0
M  V30 9847 O 939.488 -1.62568 -1.01401 0
M  V30 9848 C 939.682 -2.77836 2.24816 0
M  V30 9849 C 939.511 -2.49257 3.74301 0
M  V30 9850 C 938.281 -2.42471 4.43324 0
M  V30 9851 C 940.479 -2.16027 4.6673 0
M  V30 9852 N 938.461 -2.06168 5.78246 0
M  V30 9853 C 939.832 -1.90016 5.90164 0
M  V30 9854 C 941.887 -2.02337 4.54933 0
M  V30 9855 C 940.59 -1.51696 7.03122 0
M  V30 9856 C 942.616 -1.65419 5.67794 0
M  V30 9857 C 941.978 -1.40281 6.9029 0
M  V30 9858 H 938.077 -0.553561 0.552354 0
M  V30 9859 H 940.661 -0.877409 1.73809 0
M  V30 9860 H 938.832 -3.39295 1.89034 0
M  V30 9861 H 940.564 -3.43889 2.13359 0
M  V30 9862 H 937.319 -2.58946 3.9654 0
M  V30 9863 H 937.743 -1.90662 6.49598 0
M  V30 9864 H 942.385 -2.20447 3.60781 0
M  V30 9865 H 940.103 -1.32325 7.97192 0
M  V30 9866 H 943.689 -1.55459 5.60646 0
M  V30 9867 H 942.569 -1.12139 7.76141 0
M  V30 9868 N 940.072 -1.23292 -0.981677 0
M  V30 9869 C 941.035 -1.01417 -2.05542 0
M  V30 9870 C 942.035 0.0235354 -1.60783 0
M  V30 9871 O 943.225 -0.216082 -1.72855 0
M  V30 9872 C 940.357 -0.534239 -3.36688 0
M  V30 9873 H 941.55 -1.96702 -2.26381 0
M  V30 9874 H 939.103 -1.05318 -1.1549 0
M  V30 9875 H 939.838 0.422452 -3.21537 0
M  V30 9876 H 939.623 -1.28304 -3.70514 0
M  V30 9877 H 941.113 -0.40179 -4.15663 0
M  V30 9878 N 941.55 1.18024 -1.04442 0
M  V30 9879 C 942.798 1.87727 -0.74854 0
M  V30 9880 C 943.119 1.80975 0.726156 0
M  V30 9881 O 942.389 1.23061 1.52423 0
M  V30 9882 H 940.969 0.694974 -0.273897 0
M  V30 9883 H 943.631 1.43213 -1.32197 0
M  V30 9884 H 942.727 2.93665 -1.05674 0
M  V30 9885 N 943.028 0.824394 1.34319 0
M  V30 9886 C 944.276 0.41235 1.97849 0
M  V30 9887 C 944.597 -1.02841 1.65677 0
M  V30 9888 O 943.867 -1.71421 0.948245 0
M  V30 9889 H 942.447 0.149486 0.73189 0
M  V30 9890 H 945.109 1.05416 1.63931 0
M  V30 9891 H 944.205 0.532557 3.07523 0
M  V30 9892 N 944.506 -1.46559 0.579492 0
M  V30 9893 C 945.917 -1.8608 0.152052 0
M  V30 9894 C 946.268 -1.48346 -1.28405 0
M  V30 9895 O 945.393 -0.89685 -1.9694 0
M  V30 9896 C 945.988 -3.37729 0.269171 0
M  V30 9897 C 944.547 -3.76258 -0.103376 0
M  V30 9898 C 943.694 -2.70584 0.60659 0
M  V30 9899 H 946.645 -1.3776 0.787904 0
M  V30 9900 H 946.666 -3.77116 -0.506339 0
M  V30 9901 H 946.178 -3.65162 1.31448 0
M  V30 9902 H 944.279 -3.54443 -1.14895 0
M  V30 9903 H 944.392 -4.78335 0.270701 0
M  V30 9904 H 942.756 -2.54656 0.0471984 0
M  V30 9905 H 943.539 -3.00856 1.65349 0
M  V30 9906 N 945.984 -0.3171 -1.54377 0
M  V30 9907 C 947.395 0.172287 -1.85903 0
M  V30 9908 C 947.746 1.52141 -1.23885 0
M  V30 9909 O 946.871 2.0949 -0.542476 0
M  V30 9910 C 947.466 0.319392 -3.37291 0
M  V30 9911 C 946.025 0.752998 -3.68791 0
M  V30 9912 C 945.172 -0.129143 -2.76999 0
M  V30 9913 H 948.123 -0.537597 -1.49317 0
M  V30 9914 H 948.144 1.15137 -3.62662 0
M  V30 9915 H 947.656 -0.662671 -3.82401 0
M  V30 9916 H 945.757 1.74504 -3.2921 0
M  V30 9917 H 945.87 0.561228 -4.75801 0
M  V30 9918 H 944.234 0.394242 -2.5163 0
M  V30 9919 H 945.017 -1.10785 -3.24933 0
M  V30 9920 N 947.462 1.57535 -0.0451378 0
M  V30 9921 C 948.71 1.92071 0.628743 0
M  V30 9922 C 949.031 0.923635 1.71738 0
M  V30 9923 O 948.301 -0.0324376 1.95873 0
M  V30 9924 H 946.881 0.708995 0.235233 0
M  V30 9925 H 949.543 1.9466 -0.0967177 0
M  V30 9926 H 948.639 2.9314 1.07123 0
M  V30 9927 N 948.94 -0.228186 1.55939 0
M  V30 9928 C 950.168 -0.970618 1.8272 0
M  V30 9929 C 950.583 -1.78212 0.623385 0
M  V30 9930 O 949.94 -1.77879 -0.408063 0
M  V30 9931 C 949.991 -1.89352 3.07942 0
M  V30 9932 O 949.712 -1.11483 4.23678 0
M  V30 9933 C 951.213 -2.75039 3.47661 0
M  V30 9934 H 948.433 -0.284772 0.607574 0
M  V30 9935 H 950.977 -0.245419 2.03022 0
M  V30 9936 H 949.132 -2.57275 2.89635 0
M  V30 9937 H 949.546 -1.74073 4.94772 0
M  V30 9938 H 951.02 -3.35511 4.38334 0
M  V30 9939 H 951.497 -3.471 2.69106 0
M  V30 9940 H 952.103 -2.1254 3.68384 0
M  V30 9941 N 950.418 -1.49637 -0.494624 0
M  V30 9942 C 951.666 -1.5913 -1.24587 0
M  V30 9943 C 951.987 -0.282828 -1.92938 0
M  V30 9944 O 951.257 0.69825 -1.83034 0
M  V30 9945 H 949.837 -0.586329 -0.462847 0
M  V30 9946 H 952.499 -1.86296 -0.572696 0
M  V30 9947 H 951.595 -2.3906 -2.00641 0
M  V30 9948 N 951.896 0.746133 -1.38819 0
M  V30 9949 C 953.144 1.50247 -1.35167 0
M  V30 9950 C 953.465 1.94921 0.0553531 0
M  V30 9951 O 952.735 1.68187 1.00449 0
M  V30 9952 H 951.315 0.557337 -0.497377 0
M  V30 9953 H 953.977 0.886472 -1.73573 0
M  V30 9954 H 953.073 2.38986 -2.00728 0
M  V30 9955 N 953.375 1.23811 0.975125 0
M  V30 9956 C 954.325 0.991036 2.05335 0
M  V30 9957 C 955.309 -0.0648793 1.60769 0
M  V30 9958 O 956.501 0.147917 1.76381 0
M  V30 9959 C 953.63 0.589822 3.38195 0
M  V30 9960 C 952.716 1.68142 3.89344 0
M  V30 9961 N 953.107 2.91274 4.13513 0
M  V30 9962 C 951.405 1.55722 4.17931 0
M  V30 9963 C 952.106 3.61987 4.55347 0
M  V30 9964 N 951.082 2.8952 4.60086 0
M  V30 9965 H 954.884 1.92612 2.21986 0
M  V30 9966 H 952.398 1.13827 1.15832 0
M  V30 9967 H 954.395 0.394075 4.15033 0
M  V30 9968 H 953.055 -0.338157 3.22934 0
M  V30 9969 H 954.066 3.27528 4.01181 0
M  V30 9970 H 950.743 0.696732 4.11645 0
M  V30 9971 H 952.133 4.67572 4.8252 0
M  V30 9972 N 954.853 -1.17469 1.05066 0
M  V30 9973 C 956.101 -1.87327 0.758485 0
M  V30 9974 C 956.422 -1.81358 -0.716549 0
M  V30 9975 O 955.692 -1.23868 -1.51768 0
M  V30 9976 H 954.272 -0.693512 0.277579 0
M  V30 9977 H 956.934 -1.4251 1.32954 0
M  V30 9978 H 956.03 -2.93101 1.0723 0
M  V30 9979 N 956.331 -0.831506 -1.3388 0
M  V30 9980 C 957.742 -0.481375 -1.80388 0
M  V30 9981 C 958.093 0.998993 -1.68863 0
M  V30 9982 O 957.218 1.77795 -1.2336 0
M  V30 9983 C 957.813 -0.86699 -3.27519 0
M  V30 9984 C 956.372 -0.569105 -3.72073 0
M  V30 9985 C 955.519 -1.07929 -2.55434 0
M  V30 9986 H 958.47 -1.02089 -1.21505 0
M  V30 9987 H 958.491 -0.174128 -3.80101 0
M  V30 9988 H 958.003 -1.94447 -3.35875 0
M  V30 9989 H 956.104 0.498607 -3.69249 0
M  V30 9990 H 956.217 -1.11918 -4.65845 0
M  V30 9991 H 954.581 -0.500465 -2.49735 0
M  V30 9992 H 955.364 -2.16339 -2.66556 0
M  V30 9993 N 957.809 1.4625 -0.587256 0
M  V30 9994 C 958.739 2.33132 0.131076 0
M  V30 9995 C 959.72 1.45619 0.879158 0
M  V30 9996 O 960.905 1.74428 0.853723 0
M  V30 9997 C 958.035 3.27975 1.14236 0
M  V30 9998 C 956.989 4.24965 0.508819 0
M  V30 9999 C 956.315 5.09349 1.62689 0
M  V30 10000 C 957.615 5.19322 -0.55694 0
M  V30 10001 H 959.309 2.93442 -0.594333 0
M  V30 10002 H 956.855 1.41106 -0.287263 0
M  V30 10003 H 958.808 3.87614 1.65328 0
M  V30 10004 H 957.532 2.65781 1.8981 0
M  V30 10005 H 956.191 3.66595 0.0189337 0
M  V30 10006 H 955.839 4.43537 2.37242 0
M  V30 10007 H 955.539 5.75036 1.20861 0
M  V30 10008 H 957.063 5.71852 2.14049 0
M  V30 10009 H 958.477 5.73151 -0.130903 0
M  V30 10010 H 956.874 5.93376 -0.895801 0
M  V30 10011 H 957.944 4.62979 -1.44148 0
M  V30 10012 N 959.287 0.325282 1.54207 0
M  V30 10013 C 960.512 -0.281418 2.05482 0
M  V30 10014 C 960.937 -1.44869 1.19977 0
M  V30 10015 O 960.295 -1.80088 0.209275 0
M  V30 10016 C 960.343 -0.692029 3.53897 0
M  V30 10017 O 959.447 -1.7942 3.71325 0
M  V30 10018 H 958.788 -0.0504872 0.662078 0
M  V30 10019 H 961.318 0.474191 1.99029 0
M  V30 10020 H 961.328 -0.974219 3.96198 0
M  V30 10021 H 960.003 0.161709 4.15586 0
M  V30 10022 H 958.58 -1.51069 3.40929 0
M  V30 10023 N 960.765 -1.57509 0.0534917 0
M  V30 10024 C 961.695 -2.14698 -0.917999 0
M  V30 10025 C 962.676 -1.06924 -1.32292 0
M  V30 10026 O 963.861 -1.34875 -1.39723 0
M  V30 10027 C 960.991 -2.69383 -2.19203 0
M  V30 10028 C 959.945 -3.82161 -1.9271 0
M  V30 10029 C 959.271 -4.23373 -3.26587 0
M  V30 10030 C 960.571 -5.07199 -1.24686 0
M  V30 10031 H 962.265 -2.96125 -0.44165 0
M  V30 10032 H 959.811 -1.42446 -0.210993 0
M  V30 10033 H 961.764 -3.08031 -2.87567 0
M  V30 10034 H 960.488 -1.85151 -2.69048 0
M  V30 10035 H 959.147 -3.43989 -1.26757 0
M  V30 10036 H 958.795 -3.36089 -3.74237 0
M  V30 10037 H 958.495 -4.99385 -3.09658 0
M  V30 10038 H 960.019 -4.64623 -3.96178 0
M  V30 10039 H 961.433 -5.43279 -1.83088 0
M  V30 10040 H 959.83 -5.88369 -1.18076 0
M  V30 10041 H 960.9 -4.84386 -0.223227 0
M  V30 10042 N 962.243 0.219913 -1.56058 0
M  V30 10043 C 963.191 1.29215 -1.93407 0
M  V30 10044 C 964.185 1.48434 -0.816307 0
M  V30 10045 O 965.391 1.49589 -1.00115 0
M  V30 10046 H 961.766 0.433256 -0.614649 0
M  V30 10047 H 963.737 0.949977 -2.82875 0
M  V30 10048 C 962.486 2.63501 -2.26854 0
M  V30 10049 H 961.809 2.4952 -3.12377 0
M  V30 10050 H 963.249 3.37334 -2.56869 0
M  V30 10051 C 961.708 3.18634 -1.09425 0
M  V30 10052 O 962.238 4.00117 -0.356243 0
M  V30 10053 N 960.444 2.7703 -0.877642 0
M  V30 10054 H 959.991 2.10875 -1.47951 0
M  V30 10055 H 959.949 3.1426 -0.0936792 0
M  V30 10056 N 963.721 1.49897 0.486681 0
M  V30 10057 C 964.946 1.64106 1.26823 0
M  V30 10058 C 965.371 0.317967 1.85393 0
M  V30 10059 O 964.729 -0.71626 1.66551 0
M  V30 10060 C 964.777 2.72301 2.36399 0
M  V30 10061 O 963.881 2.32469 3.40634 0
M  V30 10062 H 963.222 0.548794 0.373793 0
M  V30 10063 H 965.752 1.96177 0.581017 0
M  V30 10064 H 965.762 2.94906 2.81948 0
M  V30 10065 H 964.437 3.68335 1.93137 0
M  V30 10066 H 963.014 2.20251 3.00905 0
M  V30 10067 N 965.199 -0.738761 1.39212 0
M  V30 10068 C 966.61 -1.31684 1.32348 0
M  V30 10069 C 966.961 -1.96195 -0.0139041 0
M  V30 10070 O 966.086 -1.96056 -0.916025 0
M  V30 10071 C 966.681 -2.39444 2.39691 0
M  V30 10072 C 965.24 -2.92935 2.36359 0
M  V30 10073 C 964.387 -1.66465 2.21776 0
M  V30 10074 H 967.338 -0.536543 1.49355 0
M  V30 10075 H 967.359 -3.19744 2.06262 0
M  V30 10076 H 966.871 -1.92463 3.37016 0
M  V30 10077 H 964.972 -3.44207 1.42662 0
M  V30 10078 H 965.085 -3.46306 3.31073 0
M  V30 10079 H 963.449 -1.90657 1.68884 0
M  V30 10080 H 964.232 -1.21541 3.21065 0
M  V30 10081 N 966.677 -1.24326 -0.968545 0
M  V30 10082 C 967.954 -0.990459 -1.68669 0
M  V30 10083 C 968.334 0.487487 -2.05394 0
M  V30 10084 O 967.682 1.46158 -1.75642 0
M  V30 10085 C 967.892 -1.91251 -2.91931 0
M  V30 10086 C 969.24 -2.18291 -3.6419 0
M  V30 10087 O 970.264 -1.88897 -3.01987 0
M  V30 10088 O 969.123 -2.68204 -4.76161 0
M  V30 10089 H 966.217 -0.374515 -0.737338 0
M  V30 10090 H 968.763 -1.35421 -1.02271 0
M  V30 10091 H 967.535 -2.9111 -2.61478 0
M  V30 10092 H 967.158 -1.55188 -3.66064 0
M  V30 10093 N 968.156 1.1691 -1.05688 0
M  V30 10094 C 969.567 1.68915 -0.795273 0
M  V30 10095 C 969.918 1.83968 0.681925 0
M  V30 10096 O 969.043 1.53083 1.52953 0
M  V30 10097 C 969.638 3.06814 -1.43703 0
M  V30 10098 C 968.197 3.55965 -1.22335 0
M  V30 10099 C 967.344 2.32099 -1.51741 0
M  V30 10100 H 970.295 1.01357 -1.22116 0
M  V30 10101 H 970.316 3.70907 -0.849016 0
M  V30 10102 H 969.828 2.95826 -2.51214 0
M  V30 10103 H 967.929 3.72222 -0.16771 0
M  V30 10104 H 968.042 4.38427 -1.9318 0
M  V30 10105 H 966.406 2.36811 -0.937696 0
M  V30 10106 H 967.189 2.23715 -2.60397 0
M  V30 10107 N 969.634 0.838594 1.33437 0
M  V30 10108 C 970.864 0.446995 2.01707 0
M  V30 10109 C 971.272 -0.956335 1.63251 0
M  V30 10110 O 970.615 -1.63289 0.841566 0
M  V30 10111 C 970.677 0.487707 3.56176 0
M  V30 10112 C 970.341 1.8471 4.18009 0
M  V30 10113 C 971.338 2.81028 4.374 0
M  V30 10114 C 969.023 2.13987 4.54439 0
M  V30 10115 C 971.017 4.04785 4.92369 0
M  V30 10116 C 968.704 3.38 5.09116 0
M  V30 10117 C 969.702 4.33216 5.28027 0
M  V30 10118 O 969.39 5.55036 5.81541 0
M  V30 10119 H 969.122 0.175799 0.652741 0
M  V30 10120 H 971.676 1.13265 1.71348 0
M  V30 10121 H 969.906 -0.254719 3.8586 0
M  V30 10122 H 971.595 0.113971 4.0574 0
M  V30 10123 H 972.361 2.5971 4.09604 0
M  V30 10124 H 968.24 1.40668 4.39014 0
M  V30 10125 H 971.784 4.79114 5.07046 0
M  V30 10126 H 967.681 3.59175 5.36343 0
M  V30 10127 H 968.449 5.56772 5.99956 0
M  V30 10128 N 971.112 -1.45937 0.595003 0
M  V30 10129 C 972.022 -2.34221 -0.133325 0
M  V30 10130 C 973.038 -1.50491 -0.873407 0
M  V30 10131 O 974.214 -1.83328 -0.833828 0
M  V30 10132 C 971.279 -3.27896 -1.12628 0
M  V30 10133 C 970.34 -4.27529 -0.389532 0
M  V30 10134 C 969.573 -5.16729 -1.33519 0
M  V30 10135 O 969.796 -5.09102 -2.57238 0
M  V30 10136 O 968.73 -5.96023 -0.839084 0
M  V30 10137 H 972.556 -2.97877 0.591861 0
M  V30 10138 H 970.141 -1.45113 0.355329 0
M  V30 10139 H 972.023 -3.85654 -1.69851 0
M  V30 10140 H 970.698 -2.6682 -1.83272 0
M  V30 10141 H 969.605 -3.73424 0.224843 0
M  V30 10142 H 970.938 -4.91425 0.276169 0
M  V30 10143 N 972.59 -0.333456 -1.54032 0
M  V30 10144 C 973.537 0.527981 -2.2468 0
M  V30 10145 C 974.507 1.10371 -1.24127 0
M  V30 10146 O 975.692 1.14221 -1.52834 0
M  V30 10147 C 972.832 1.67808 -3.01553 0
M  V30 10148 C 971.945 1.13064 -4.16942 0
M  V30 10149 C 971.08 2.24722 -4.81325 0
M  V30 10150 C 970.119 1.67277 -5.88799 0
M  V30 10151 N 969.256 2.72638 -6.47003 0
M  V30 10152 H 974.096 -0.0810308 -2.9789 0
M  V30 10153 H 971.633 -0.051761 -1.47009 0
M  V30 10154 H 973.591 2.35502 -3.44376 0
M  V30 10155 H 972.221 2.25823 -2.30659 0
M  V30 10156 H 971.273 0.344948 -3.78833 0
M  V30 10157 H 972.585 0.670373 -4.94275 0
M  V30 10158 H 971.739 3.00301 -5.27166 0
M  V30 10159 H 970.478 2.74089 -4.03394 0
M  V30 10160 H 969.483 0.902002 -5.4235 0
M  V30 10161 H 970.708 1.18775 -6.68632 0
M  V30 10162 H 968.654 3.21277 -5.71941 0
M  V30 10163 H 968.571 2.31204 -7.19778 0
M  V30 10164 H 969.839 3.48015 -6.97499 0
M  V30 10165 N 974.068 1.57479 -0.061844 0
M  V30 10166 C 975.317 1.92285 0.609055 0
M  V30 10167 C 975.63 0.942983 1.71369 0
M  V30 10168 O 976.836 1.18349 2.44348 0
M  V30 10169 C 975.292 3.41545 1.13468 0
M  V30 10170 C 974.9 4.47958 0.0615926 0
M  V30 10171 C 976.644 3.85368 1.78022 0
M  V30 10172 C 974.551 5.88341 0.600705 0
M  V30 10173 H 973.481 0.717656 0.23127 0
M  V30 10174 H 976.132 1.83021 -0.132466 0
M  V30 10175 H 974.514 3.45848 1.92886 0
M  V30 10176 H 975.688 4.55258 -0.712527 0
M  V30 10177 H 974.003 4.13541 -0.487116 0
M  V30 10178 H 976.6 4.87627 2.19371 0
M  V30 10179 H 976.943 3.22193 2.63623 0
M  V30 10180 H 977.476 3.83626 1.05242 0
M  V30 10181 H 974.215 6.55138 -0.217922 0
M  V30 10182 H 973.735 5.84581 1.34257 0
M  V30 10183 H 975.414 6.37918 1.08025 0
M  V30 10184 N 975.546 -0.211634 1.56173 0
M  V30 10185 C 976.957 -0.777776 1.69728 0
M  V30 10186 C 977.308 -1.84566 0.66558 0
M  V30 10187 O 976.433 -2.15639 -0.181338 0
M  V30 10188 C 977.028 -1.41757 3.07718 0
M  V30 10189 C 975.587 -1.93098 3.23094 0
M  V30 10190 C 974.734 -0.794785 2.65666 0
M  V30 10191 H 977.685 0.0131839 1.58695 0
M  V30 10192 H 977.706 -2.28662 3.04128 0
M  V30 10193 H 977.218 -0.640114 3.82785 0
M  V30 10194 H 975.319 -2.73615 2.52914 0
M  V30 10195 H 975.432 -2.10414 4.30422 0
M  V30 10196 H 973.796 -1.20473 2.24407 0
M  V30 10197 H 974.579 -0.0298408 3.43287 0
M  V30 10198 N 977.024 -1.50153 -0.478725 0
M  V30 10199 C 977.974 -1.64848 -1.57509 0
M  V30 10200 C 978.958 -0.503327 -1.52825 0
M  V30 10201 O 980.15 -0.75737 -1.59978 0
M  V30 10202 C 977.279 -1.73893 -2.96 0
M  V30 10203 C 976.365 -2.9406 -3.05597 0
M  V30 10204 N 976.756 -4.17844 -2.85027 0
M  V30 10205 C 975.054 -2.92459 -3.36725 0
M  V30 10206 C 975.755 -4.98739 -2.9939 0
M  V30 10207 N 974.731 -4.32542 -3.29255 0
M  V30 10208 H 978.533 -2.58254 -1.40293 0
M  V30 10209 H 976.047 -1.47232 -0.685307 0
M  V30 10210 H 978.044 -1.82523 -3.74821 0
M  V30 10211 H 976.704 -0.816402 -3.14269 0
M  V30 10212 H 977.715 -4.47465 -2.60759 0
M  V30 10213 H 974.392 -2.09675 -3.6103 0
M  V30 10214 H 975.782 -6.07146 -2.8779 0
M  V30 10215 N 978.502 0.731368 -1.39602 0
M  V30 10216 C 979.748 1.49321 -1.37227 0
M  V30 10217 C 980.081 1.94176 0.0306502 0
M  V30 10218 O 979.356 1.67046 0.996294 0
M  V30 10219 C 979.639 2.73035 -2.34784 0
M  V30 10220 C 979.492 2.34176 -3.84033 0
M  V30 10221 C 980.811 3.75146 -2.30116 0
M  V30 10222 H 977.93 0.541652 -0.499783 0
M  V30 10223 H 980.572 0.835968 -1.70621 0
M  V30 10224 H 978.722 3.29114 -2.06437 0
M  V30 10225 H 980.394 1.83701 -4.23145 0
M  V30 10226 H 978.637 1.66361 -4.00633 0
M  V30 10227 H 979.308 3.22786 -4.47787 0
M  V30 10228 H 981.784 3.28661 -2.55189 0
M  V30 10229 H 980.66 4.5937 -3.00451 0
M  V30 10230 H 980.921 4.22326 -1.30741 0
M  V30 10231 N 979.98 1.24838 0.961938 0
M  V30 10232 C 981.226 1.09313 1.70817 0
M  V30 10233 C 981.559 -0.366244 1.90715 0
M  V30 10234 O 980.834 -1.27036 1.47282 0
M  V30 10235 C 981.117 1.83988 3.09549 0
M  V30 10236 C 980.97 3.3771 2.97106 0
M  V30 10237 C 982.289 1.61718 4.09311 0
M  V30 10238 H 979.408 0.398498 0.619974 0
M  V30 10239 H 982.05 1.53579 1.11864 0
M  V30 10240 H 980.2 1.46363 3.59875 0
M  V30 10241 H 981.872 3.84967 2.54161 0
M  V30 10242 H 980.115 3.65795 2.33187 0
M  V30 10243 H 980.786 3.85166 3.95412 0
M  V30 10244 H 983.262 1.94458 3.67866 0
M  V30 10245 H 982.138 2.16415 5.04436 0
M  V30 10246 H 982.399 0.55677 4.3858 0
M  V30 10247 N 981.458 -1.16348 1.06306 0
M  V30 10248 C 982.706 -1.86512 0.778311 0
M  V30 10249 C 983.027 -1.82107 -0.697273 0
M  V30 10250 O 982.297 -1.2547 -1.50446 0
M  V30 10251 H 980.877 -0.690529 0.284919 0
M  V30 10252 H 983.539 -1.41092 1.34458 0
M  V30 10253 H 982.635 -2.91947 1.10333 0
M  V30 10254 N 982.937 -0.845659 -1.3299 0
M  V30 10255 C 983.847 -0.2864 -2.32845 0
M  V30 10256 C 984.863 0.591105 -1.63652 0
M  V30 10257 O 986.039 0.493615 -1.95257 0
M  V30 10258 C 983.104 0.523636 -3.42723 0
M  V30 10259 C 982.165 -0.378945 -4.27624 0
M  V30 10260 C 981.398 0.392526 -5.32255 0
M  V30 10261 O 981.621 1.6235 -5.46808 0
M  V30 10262 O 980.555 -0.237 -6.01433 0
M  V30 10263 H 984.381 -1.11346 -2.82552 0
M  V30 10264 H 981.966 -0.608356 -1.36453 0
M  V30 10265 H 983.848 0.983718 -4.09757 0
M  V30 10266 H 982.523 1.32764 -2.95221 0
M  V30 10267 H 981.43 -0.887012 -3.63432 0
M  V30 10268 H 982.763 -1.1479 -4.78627 0
M  V30 10269 N 984.415 1.45619 -0.602734 0
M  V30 10270 C 985.365 2.27568 0.140264 0
M  V30 10271 C 986.349 1.3704 0.84314 0
M  V30 10272 O 987.541 1.61067 0.733931 0
M  V30 10273 C 984.67 3.23812 1.14019 0
M  V30 10274 C 983.756 4.21828 0.438406 0
M  V30 10275 N 984.147 5.03148 -0.517245 0
M  V30 10276 C 982.445 4.40684 0.686588 0
M  V30 10277 C 983.146 5.74229 -0.929291 0
M  V30 10278 N 982.122 5.42909 -0.274086 0
M  V30 10279 H 985.924 2.87839 -0.5938 0
M  V30 10280 H 983.438 1.56712 -0.426033 0
M  V30 10281 H 985.435 3.8125 1.68684 0
M  V30 10282 H 984.095 2.65102 1.87486 0
M  V30 10283 H 985.106 5.1013 -0.893758 0
M  V30 10284 H 981.783 3.93102 1.4063 0
M  V30 10285 H 983.173 6.49586 -1.7172 0
M  V30 10286 N 985.893 0.34162 1.53853 0
M  V30 10287 C 987.141 -0.254979 2.00485 0
M  V30 10288 C 987.462 -1.51222 1.23114 0
M  V30 10289 O 986.732 -1.92966 0.337787 0
M  V30 10290 H 985.312 -0.0972084 0.740648 0
M  V30 10291 H 987.974 0.462332 1.89337 0
M  V30 10292 H 987.07 -0.498778 3.08089 0
M  V30 10293 N 987.371 -1.57444 0.0701946 0
M  V30 10294 C 988.301 -2.15659 -0.895176 0
M  V30 10295 C 989.282 -1.08321 -1.31151 0
M  V30 10296 O 990.467 -1.36349 -1.38284 0
M  V30 10297 C 987.597 -2.71693 -2.16334 0
M  V30 10298 C 986.551 -3.84183 -1.88645 0
M  V30 10299 C 985.877 -4.26814 -3.22078 0
M  V30 10300 C 987.177 -5.08493 -1.19299 0
M  V30 10301 H 988.871 -2.96576 -0.410217 0
M  V30 10302 H 986.417 -1.42662 -0.195872 0
M  V30 10303 H 988.37 -3.11064 -2.84284 0
M  V30 10304 H 987.094 -1.87994 -2.67069 0
M  V30 10305 H 985.753 -3.45314 -1.23101 0
M  V30 10306 H 985.401 -3.40039 -3.70651 0
M  V30 10307 H 985.101 -5.02642 -3.04344 0
M  V30 10308 H 986.625 -4.68799 -3.91228 0
M  V30 10309 H 988.039 -5.4519 -1.77316 0
M  V30 10310 H 986.436 -5.89588 -1.11828 0
M  V30 10311 H 987.506 -4.84595 -0.171839 0
M  V30 10312 N 988.849 0.203349 -1.56283 0
M  V30 10313 C 990.097 0.923183 -1.79782 0
M  V30 10314 C 990.418 1.84134 -0.64185 0
M  V30 10315 O 989.688 1.92922 0.340292 0
M  V30 10316 H 988.268 0.343881 -0.66314 0
M  V30 10317 H 990.93 0.210837 -1.93756 0
M  V30 10318 H 990.026 1.51921 -2.72629 0
M  V30 10319 N 990.327 1.50405 0.470755 0
M  V30 10320 C 991.259 1.65447 1.58619 0
M  V30 10321 C 992.272 0.535949 1.53725 0
M  V30 10322 O 993.461 0.80914 1.59107 0
M  V30 10323 C 990.561 1.62318 2.975 0
M  V30 10324 C 989.734 2.90207 3.27259 0
M  V30 10325 C 988.793 2.79717 4.45696 0
M  V30 10326 O 987.819 3.53672 4.45987 0
M  V30 10327 N 989.021 1.93296 5.47373 0
M  V30 10328 H 991.786 2.61659 1.46132 0
M  V30 10329 H 989.347 1.47873 0.659178 0
M  V30 10330 H 991.339 1.52912 3.747 0
M  V30 10331 H 989.909 0.738392 3.03754 0
M  V30 10332 H 989.129 3.13737 2.38669 0
M  V30 10333 H 990.417 3.74931 3.43953 0
M  V30 10334 H 989.815 1.32524 5.49958 0
M  V30 10335 H 988.372 1.89793 6.23556 0
M  V30 10336 N 991.805 -0.723954 1.39988 0
M  V30 10337 C 992.768 -1.81973 1.3935 0
M  V30 10338 C 993.768 -1.58187 0.288702 0
M  V30 10339 O 994.958 -1.65383 0.547181 0
M  V30 10340 C 992.09 -3.19937 1.177 0
M  V30 10341 H 993.283 -1.83939 2.36868 0
M  V30 10342 H 990.836 -0.928742 1.25714 0
M  V30 10343 H 991.571 -3.23625 0.209093 0
M  V30 10344 H 991.356 -3.386 1.97719 0
M  V30 10345 H 992.846 -3.99981 1.20022 0
M  V30 10346 N 993.283 -1.25346 -0.955304 0
M  V30 10347 C 994.694 -1.09173 -1.51453 0
M  V30 10348 C 995.045 0.332755 -1.93358 0
M  V30 10349 O 994.17 1.22264 -1.78551 0
M  V30 10350 C 994.765 -1.97564 -2.75234 0
M  V30 10351 C 993.324 -1.85579 -3.27471 0
M  V30 10352 C 992.471 -1.91755 -2.00313 0
M  V30 10353 H 995.422 -1.38642 -0.772271 0
M  V30 10354 H 995.443 -1.51523 -3.49029 0
M  V30 10355 H 994.955 -3.01233 -2.44704 0
M  V30 10356 H 993.056 -0.847906 -3.62824 0
M  V30 10357 H 993.169 -2.70353 -3.95533 0
M  V30 10358 H 991.533 -1.35633 -2.15582 0
M  V30 10359 H 992.316 -2.97028 -1.72132 0
M  V30 10360 N 994.761 1.15782 -1.06922 0
M  V30 10361 C 996.009 1.86097 -0.788192 0
M  V30 10362 C 996.33 1.82475 0.687606 0
M  V30 10363 O 995.6 1.26266 1.49778 0
M  V30 10364 H 994.18 0.689008 -0.288577 0
M  V30 10365 H 996.842 1.40377 -1.35205 0
M  V30 10366 H 995.938 2.91358 -1.1188 0
M  V30 10367 N 996.239 0.8527 1.3254 0
M  V30 10368 C 997.189 0.267711 2.26423 0
M  V30 10369 C 998.173 -0.585305 1.49877 0
M  V30 10370 O 999.365 -0.435008 1.71571 0
M  V30 10371 C 996.494 -0.544605 3.38953 0
M  V30 10372 C 995.58 0.32069 4.22886 0
M  V30 10373 N 995.971 1.40601 4.85865 0
M  V30 10374 C 994.269 0.110101 4.45864 0
M  V30 10375 C 994.97 1.93819 5.48461 0
M  V30 10376 N 993.946 1.23764 5.29324 0
M  V30 10377 H 997.748 1.09747 2.7264 0
M  V30 10378 H 995.262 0.698607 1.46606 0
M  V30 10379 H 997.259 -0.98009 4.05216 0
M  V30 10380 H 995.919 -1.37218 2.94281 0
M  V30 10381 H 996.93 1.78894 4.86022 0
M  V30 10382 H 993.607 -0.682917 4.11877 0
M  V30 10383 H 994.997 2.84783 6.08562 0
M  V30 10384 N 997.718 -1.45297 0.610449 0
M  V30 10385 C 998.648 -2.33311 -0.0939698 0
M  V30 10386 C 999.629 -1.46999 -0.85588 0
M  V30 10387 O 1000.81 -1.75764 -0.825865 0
M  V30 10388 C 997.944 -3.29751 -1.09003 0
M  V30 10389 C 996.898 -4.2572 -0.441146 0
M  V30 10390 C 996.224 -5.11873 -1.54566 0
M  V30 10391 C 997.524 -5.1837 0.639489 0
M  V30 10392 H 999.218 -2.92459 0.640941 0
M  V30 10393 H 996.764 -1.40631 0.309675 0
M  V30 10394 H 998.717 -3.90195 -1.59141 0
M  V30 10395 H 997.441 -2.68768 -1.85557 0
M  V30 10396 H 996.1 -3.66579 0.0393908 0
M  V30 10397 H 995.748 -4.47256 -2.30155 0
M  V30 10398 H 995.448 -5.76886 -1.11698 0
M  V30 10399 H 996.972 -5.75185 -2.04925 0
M  V30 10400 H 998.386 -5.7287 0.22207 0
M  V30 10401 H 996.783 -5.91876 0.990089 0
M  V30 10402 H 997.853 -4.60627 1.51495 0
M  V30 10403 N 999.196 -0.349774 -1.5367 0
M  V30 10404 C 1000.42 0.248692 -2.05904 0
M  V30 10405 C 1000.85 1.42942 -1.22267 0
M  V30 10406 O 1000.2 1.79732 -0.237899 0
M  V30 10407 C 1000.25 0.635639 -3.54953 0
M  V30 10408 O 999.356 1.7349 -3.74132 0
M  V30 10409 H 998.697 0.0399477 -0.662797 0
M  V30 10410 H 1001.23 -0.505795 -1.9825 0
M  V30 10411 H 1001.24 0.911064 -3.97698 0
M  V30 10412 H 999.912 -0.227805 -4.15276 0
M  V30 10413 H 998.489 1.45626 -3.43289 0
M  V30 10414 N 1000.67 1.57404 -0.0785433 0
M  V30 10415 C 1001.92 1.93361 0.58786 0
M  V30 10416 C 1002.24 0.959856 1.6974 0
M  V30 10417 O 1001.51 0.0091173 1.95898 0
M  V30 10418 H 1000.09 0.713825 0.220141 0
M  V30 10419 H 1002.75 1.94411 -0.137986 0
M  V30 10420 H 1001.85 2.95346 1.00881 0
M  V30 10421 N 1002.15 -0.195058 1.56388 0
M  V30 10422 C 1003.08 -1.24444 1.97575 0
M  V30 10423 C 1004.06 -1.47471 0.847717 0
M  V30 10424 O 1005.25 -1.59208 1.11205 0
M  V30 10425 C 1002.38 -2.58866 2.31529 0
M  V30 10426 C 1001.33 -2.50451 3.47071 0
M  V30 10427 C 1000.66 -3.89146 3.667 0
M  V30 10428 C 1001.96 -2.02953 4.81256 0
M  V30 10429 H 1003.65 -0.902178 2.85484 0
M  V30 10430 H 1001.2 -0.43254 1.3735 0
M  V30 10431 H 1003.15 -3.3246 2.58936 0
M  V30 10432 H 1001.87 -2.94833 1.40502 0
M  V30 10433 H 1000.53 -1.79313 3.19754 0
M  V30 10434 H 1000.18 -4.22466 2.73004 0
M  V30 10435 H 999.882 -3.84391 4.44429 0
M  V30 10436 H 1001.41 -4.64363 3.96484 0
M  V30 10437 H 1002.82 -2.66306 5.07695 0
M  V30 10438 H 1001.22 -2.092 5.62455 0
M  V30 10439 H 1002.29 -0.982757 4.74837 0
M  V30 10440 N 1003.63 -1.50653 -0.462772 0
M  V30 10441 C 1004.85 -1.66103 -1.24196 0
M  V30 10442 C 1005.28 -0.347421 -1.84864 0
M  V30 10443 O 1004.64 0.689673 -1.6767 0
M  V30 10444 C 1004.69 -2.76027 -2.32037 0
M  V30 10445 O 1003.79 -2.37859 -3.36893 0
M  V30 10446 H 1003.13 -0.554672 -0.365014 0
M  V30 10447 H 1005.66 -1.97076 -0.549734 0
M  V30 10448 H 1005.67 -2.99354 -2.77221 0
M  V30 10449 H 1004.35 -3.71361 -1.87253 0
M  V30 10450 H 1002.92 -2.2501 -2.97363 0
M  V30 10451 N 1005.11 0.71652 -1.4037 0
M  V30 10452 C 1006.35 1.47857 -1.38803 0
M  V30 10453 C 1006.69 1.94197 0.0100536 0
M  V30 10454 O 1005.96 1.68093 0.978521 0
M  V30 10455 C 1006.25 2.7053 -2.37667 0
M  V30 10456 C 1006.1 2.3009 -3.86496 0
M  V30 10457 C 1007.42 3.72684 -2.34082 0
M  V30 10458 H 1004.54 0.53632 -0.505499 0
M  V30 10459 H 1007.18 0.817824 -1.71498 0
M  V30 10460 H 1005.33 3.26906 -2.09916 0
M  V30 10461 H 1007 1.79202 -4.2507 0
M  V30 10462 H 1005.24 1.62102 -4.02375 0
M  V30 10463 H 1005.91 3.18018 -4.51186 0
M  V30 10464 H 1008.39 3.25935 -2.58661 0
M  V30 10465 H 1007.27 4.56157 -3.05306 0
M  V30 10466 H 1007.53 4.20916 -1.35213 0
M  V30 10467 N 1006.59 1.25851 0.948643 0
M  V30 10468 C 1008 1.09975 1.50872 0
M  V30 10469 C 1008.35 -0.322497 1.93531 0
M  V30 10470 O 1007.47 -1.21316 1.79197 0
M  V30 10471 C 1008.07 1.99021 2.74182 0
M  V30 10472 C 1006.63 1.87313 3.26483 0
M  V30 10473 C 1005.77 1.92815 1.99293 0
M  V30 10474 H 1008.73 1.3905 0.764908 0
M  V30 10475 H 1008.75 1.53372 3.4822 0
M  V30 10476 H 1008.26 3.02527 2.43103 0
M  V30 10477 H 1006.36 0.867136 3.62369 0
M  V30 10478 H 1006.47 2.72446 3.94094 0
M  V30 10479 H 1004.84 1.36774 2.1486 0
M  V30 10480 H 1005.62 2.97936 1.70554 0
M  V30 10481 N 1008.06 -1.15214 1.07534 0
M  V30 10482 C 1009.3 -1.87708 0.809009 0
M  V30 10483 C 1009.67 -1.80552 -0.653066 0
M  V30 10484 O 1010.87 -2.48095 -1.03452 0
M  V30 10485 C 1009.14 -3.32703 1.30552 0
M  V30 10486 S 1010.7 -4.2291 1.17015 0
M  V30 10487 H 1007.52 -0.647767 0.293118 0
M  V30 10488 H 1010.12 -1.38992 1.37482 0
M  V30 10489 H 1008.82 -3.35456 2.36427 0
M  V30 10490 H 1008.35 -3.86473 0.734995 0
M  V30 10491 H 1010.37 -4.96081 0.108836 0
M  V30 10492 N 1009.54 -0.859717 -1.32086 0
M  V30 10493 C 1010.95 -0.519529 -1.79326 0
M  V30 10494 C 1011.3 0.96295 -1.70944 0
M  V30 10495 O 1010.43 1.75139 -1.27104 0
M  V30 10496 C 1011.02 -0.936267 -3.25606 0
M  V30 10497 C 1009.58 -0.647899 -3.70782 0
M  V30 10498 C 1008.73 -1.13323 -2.53087 0
M  V30 10499 H 1011.68 -1.04643 -1.19312 0
M  V30 10500 H 1011.7 -0.254714 -3.79646 0
M  V30 10501 H 1011.21 -2.01527 -3.31675 0
M  V30 10502 H 1009.32 0.420172 -3.70223 0
M  V30 10503 H 1009.43 -1.21774 -4.63366 0
M  V30 10504 H 1007.79 -0.553325 -2.48617 0
M  V30 10505 H 1008.58 -2.21945 -2.61907 0
M  V30 10506 N 1011.02 1.44971 -0.618145 0
M  V30 10507 C 1011.95 2.33357 0.0815955 0
M  V30 10508 C 1012.93 1.47451 0.848072 0
M  V30 10509 O 1014.12 1.762 0.816532 0
M  V30 10510 C 1011.25 3.30324 1.07253 0
M  V30 10511 C 1010.2 4.25948 0.418563 0
M  V30 10512 C 1009.53 5.12685 1.51849 0
M  V30 10513 C 1010.83 5.18024 -0.66697 0
M  V30 10514 H 1012.52 2.92115 -0.656442 0
M  V30 10515 H 1010.07 1.40465 -0.317129 0
M  V30 10516 H 1012.02 3.91033 1.57069 0
M  V30 10517 H 1010.74 2.69748 1.8413 0
M  V30 10518 H 1009.4 3.66553 -0.0588308 0
M  V30 10519 H 1009.05 4.4847 2.2778 0
M  V30 10520 H 1008.75 5.7747 1.08637 0
M  V30 10521 H 1010.27 5.76264 2.01871 0
M  V30 10522 H 1011.69 5.72744 -0.252448 0
M  V30 10523 H 1010.09 5.91343 -1.02146 0
M  V30 10524 H 1011.16 4.59817 -1.53936 0
M  V30 10525 N 1012.5 0.357919 1.53482 0
M  V30 10526 C 1013.91 -0.122938 1.86295 0
M  V30 10527 C 1014.26 -1.48803 1.27875 0
M  V30 10528 O 1013.39 -2.07978 0.597828 0
M  V30 10529 C 1013.98 -0.229853 3.38019 0
M  V30 10530 C 1012.54 -0.654955 3.70658 0
M  V30 10531 C 1011.69 0.202539 2.76559 0
M  V30 10532 H 1014.64 0.576997 1.47839 0
M  V30 10533 H 1014.66 -1.05481 3.65587 0
M  V30 10534 H 1014.17 0.763825 3.80509 0
M  V30 10535 H 1012.27 -1.65714 3.33721 0
M  V30 10536 H 1012.38 -0.43488 4.77122 0
M  V30 10537 H 1010.75 -0.327388 2.52587 0
M  V30 10538 H 1011.53 1.19361 3.21882 0
M  V30 10539 N 1013.98 -1.5736 0.0868897 0
M  V30 10540 C 1015.2 -1.98809 -0.590757 0
M  V30 10541 C 1015.63 -0.965407 -1.61436 0
M  V30 10542 O 1014.98 0.067143 -1.81176 0
M  V30 10543 C 1015.03 -3.39249 -1.22238 0
M  V30 10544 O 1014.14 -3.39706 -2.33824 0
M  V30 10545 H 1013.48 -0.64669 -0.150626 0
M  V30 10546 H 1016.01 -2.03927 0.165873 0
M  V30 10547 H 1016.02 -3.76765 -1.56564 0
M  V30 10548 H 1014.69 -4.13208 -0.472434 0
M  V30 10549 H 1013.27 -3.13977 -2.01178 0
M  V30 10550 N 1015.45 0.186762 -1.56489 0
M  V30 10551 C 1016.87 0.750675 -1.70944 0
M  V30 10552 C 1017.22 1.83483 -0.694858 0
M  V30 10553 O 1016.34 2.159 0.147009 0
M  V30 10554 C 1016.94 1.36843 -3.09934 0
M  V30 10555 C 1015.5 1.87934 -3.26125 0
M  V30 10556 C 1014.64 0.75242 -2.66897 0
M  V30 10557 H 1017.59 -0.0384292 -1.58653 0
M  V30 10558 H 1017.61 2.23795 -3.07727 0
M  V30 10559 H 1017.13 0.579135 -3.83755 0
M  V30 10560 H 1015.23 2.69556 -2.57235 0
M  V30 10561 H 1015.34 2.0354 -4.33715 0
M  V30 10562 H 1013.7 1.16888 -2.26295 0
M  V30 10563 H 1014.49 -0.0247769 -3.43291 0
M  V30 10564 N 1016.93 1.50896 0.454776 0
M  V30 10565 C 1018.34 1.55372 1.0352 0
M  V30 10566 C 1018.69 0.366822 1.9274 0
M  V30 10567 O 1017.82 -0.518444 2.10098 0
M  V30 10568 C 1018.41 2.81574 1.88418 0
M  V30 10569 C 1016.97 2.88679 2.4154 0
M  V30 10570 C 1016.12 2.49847 1.20298 0
M  V30 10571 H 1019.07 1.56924 0.236729 0
M  V30 10572 H 1019.09 2.64352 2.73676 0
M  V30 10573 H 1018.6 3.67941 1.23455 0
M  V30 10574 H 1016.71 2.06702 3.10008 0
M  V30 10575 H 1016.82 3.91944 2.7553 0
M  V30 10576 H 1015.18 2.02651 1.54288 0
M  V30 10577 H 1015.97 3.3854 0.569723 0
M  V30 10578 N 1018.41 -0.709066 1.40748 0
M  V30 10579 C 1019.37 -1.80485 1.41272 0
M  V30 10580 C 1020.37 -1.57872 0.305463 0
M  V30 10581 O 1021.56 -1.64793 0.564691 0
M  V30 10582 C 1018.7 -3.1867 1.21087 0
M  V30 10583 H 1019.89 -1.81417 2.38805 0
M  V30 10584 H 1017.44 -0.915356 1.26692 0
M  V30 10585 H 1018.18 -3.23385 0.243406 0
M  V30 10586 H 1017.96 -3.36484 2.01299 0
M  V30 10587 H 1019.45 -3.98685 1.24257 0
M  V30 10588 N 1019.89 -1.26353 -0.941956 0
M  V30 10589 C 1021.14 -1.1163 -1.68473 0
M  V30 10590 C 1021.46 0.34108 -1.91994 0
M  V30 10591 O 1020.73 1.24065 -1.51607 0
M  V30 10592 H 1019.31 -0.410113 -0.624353 0
M  V30 10593 H 1021.97 -1.58669 -1.13182 0
M  V30 10594 H 1021.07 -1.63445 -2.6588 0
M  V30 10595 N 1021.37 1.14642 -1.08144 0
M  V30 10596 C 1022.6 1.89484 -0.830864 0
M  V30 10597 C 1023.01 1.78443 0.616722 0
M  V30 10598 O 1022.37 1.14191 1.42361 0
M  V30 10599 C 1022.42 3.39554 -1.24039 0
M  V30 10600 O 1022.14 3.50286 -2.63119 0
M  V30 10601 C 1023.64 4.31399 -1.02029 0
M  V30 10602 H 1020.86 0.600283 -0.299835 0
M  V30 10603 H 1023.4 1.45204 -1.44001 0
M  V30 10604 H 1021.56 3.81467 -0.675407 0
M  V30 10605 H 1021.97 4.43481 -2.80045 0
M  V30 10606 H 1023.45 5.35079 -1.35625 0
M  V30 10607 H 1023.92 4.39179 0.0428697 0
M  V30 10608 H 1024.53 3.95238 -1.57057 0
M  V30 10609 N 1022.85 0.866709 1.31628 0
M  V30 10610 C 1023.78 0.335762 2.31073 0
M  V30 10611 C 1024.76 -0.571597 1.60209 0
M  V30 10612 O 1025.94 -0.489306 1.87935 0
M  V30 10613 C 1023.07 -0.466416 3.44154 0
M  V30 10614 C 1022.03 0.347561 4.26586 0
M  V30 10615 C 1021.35 -0.5801 5.31544 0
M  V30 10616 C 1022.65 1.57986 4.97833 0
M  V30 10617 H 1024.35 1.16673 2.75731 0
M  V30 10618 H 1021.89 0.56248 1.3256 0
M  V30 10619 H 1023.84 -0.84836 4.12772 0
M  V30 10620 H 1022.57 -1.33086 2.98254 0
M  V30 10621 H 1021.23 0.71141 3.59631 0
M  V30 10622 H 1020.88 -1.44174 4.81895 0
M  V30 10623 H 1020.58 -0.0393965 5.87587 0
M  V30 10624 H 1022.1 -0.958958 6.03023 0
M  V30 10625 H 1023.51 1.26954 5.59067 0
M  V30 10626 H 1021.91 2.05939 5.63657 0
M  V30 10627 H 1022.98 2.3345 4.25005 0
M  V30 10628 N 1024.32 -1.44642 0.625825 0
M  V30 10629 C 1025.55 -2.06458 0.135116 0
M  V30 10630 C 1025.97 -1.46729 -1.18811 0
M  V30 10631 O 1025.32 -0.58818 -1.72762 0
M  V30 10632 C 1025.37 -3.61499 0.00850114 0
M  V30 10633 O 1025.1 -4.19002 1.2794 0
M  V30 10634 C 1026.6 -4.40339 -0.511527 0
M  V30 10635 H 1023.82 -0.666541 0.0772294 0
M  V30 10636 H 1026.36 -1.85597 0.858726 0
M  V30 10637 H 1024.52 -3.81641 -0.665522 0
M  V30 10638 H 1024.93 -5.12385 1.12081 0
M  V30 10639 H 1026.4 -5.49262 -0.549149 0
M  V30 10640 H 1026.88 -4.11409 -1.53752 0
M  V30 10641 H 1027.49 -4.25104 0.129066 0
M  V30 10642 N 1025.8 -0.366053 -1.5329 0
M  V30 10643 C 1027.04 0.223558 -2.03174 0
M  V30 10644 C 1027.41 1.45955 -1.24745 0
M  V30 10645 O 1028.61 2.12481 -1.64637 0
M  V30 10646 C 1026.88 0.507899 -3.53773 0
M  V30 10647 S 1028.44 1.07111 -4.25526 0
M  V30 10648 H 1025.25 0.0650309 -0.70802 0
M  V30 10649 H 1027.86 -0.509028 -1.88757 0
M  V30 10650 H 1026.56 -0.39913 -4.08455 0
M  V30 10651 H 1026.09 1.26954 -3.72352 0
M  V30 10652 H 1028.11 2.35533 -4.36737 0
M  V30 10653 N 1027.28 1.57312 -0.0952337 0
M  V30 10654 C 1028.19 2.17556 0.877877 0
M  V30 10655 C 1029.21 1.14505 1.31014 0
M  V30 10656 O 1030.38 1.46876 1.37802 0
M  V30 10657 C 1027.45 2.74413 2.11892 0
M  V30 10658 C 1026.51 3.92419 1.74085 0
M  V30 10659 C 1025.74 4.46556 2.92273 0
M  V30 10660 O 1025.96 3.99631 4.07002 0
M  V30 10661 O 1024.9 5.37576 2.70732 0
M  V30 10662 H 1028.72 3.01116 0.395312 0
M  V30 10663 H 1026.31 1.48841 0.129123 0
M  V30 10664 H 1028.19 3.10754 2.84622 0
M  V30 10665 H 1026.87 1.93899 2.59201 0
M  V30 10666 H 1025.77 3.6089 0.985346 0
M  V30 10667 H 1027.11 4.74298 1.31539 0
M  V30 10668 N 1028.76 -0.17846 1.56586 0
M  V30 10669 C 1029.69 -1.22342 1.98884 0
M  V30 10670 C 1030.67 -1.46564 0.86331 0
M  V30 10671 O 1031.85 -1.58019 1.12887 0
M  V30 10672 C 1028.98 -2.56396 2.34261 0
M  V30 10673 C 1027.94 -2.46756 3.49708 0
M  V30 10674 C 1027.26 -3.85235 3.70807 0
M  V30 10675 C 1028.56 -1.97838 4.83381 0
M  V30 10676 H 1030.26 -0.871848 2.86425 0
M  V30 10677 H 1027.8 -0.417948 1.37801 0
M  V30 10678 H 1029.76 -3.29695 2.62448 0
M  V30 10679 H 1028.48 -2.93327 1.43621 0
M  V30 10680 H 1027.14 -1.75912 3.21637 0
M  V30 10681 H 1026.79 -4.19547 2.7747 0
M  V30 10682 H 1026.49 -3.79655 4.48481 0
M  V30 10683 H 1028.01 -4.60131 4.01387 0
M  V30 10684 H 1029.43 -2.60906 5.10491 0
M  V30 10685 H 1027.82 -2.03223 5.64642 0
M  V30 10686 H 1028.89 -0.932339 4.75852 0
M  V30 10687 N 1030.24 -1.51135 -0.446768 0
M  V30 10688 C 1031.18 -1.71767 -1.54158 0
M  V30 10689 C 1032.15 -0.559201 -1.56404 0
M  V30 10690 O 1033.34 -0.792567 -1.7356 0
M  V30 10691 C 1030.48 -1.84006 -2.91952 0
M  V30 10692 C 1029.59 -3.11511 -2.99308 0
M  V30 10693 C 1028.73 -3.144 -4.28166 0
M  V30 10694 C 1027.76 -4.36258 -4.29355 0
M  V30 10695 N 1026.9 -4.3675 -5.49722 0
M  V30 10696 H 1031.74 -2.65224 -1.35869 0
M  V30 10697 H 1029.28 -1.31453 -0.660186 0
M  V30 10698 H 1031.24 -1.89083 -3.71892 0
M  V30 10699 H 1029.87 -0.939661 -3.08821 0
M  V30 10700 H 1028.92 -3.15788 -2.12089 0
M  V30 10701 H 1030.23 -4.01445 -2.96047 0
M  V30 10702 H 1029.38 -3.18341 -5.16473 0
M  V30 10703 H 1028.12 -2.22338 -4.3407 0
M  V30 10704 H 1027.13 -4.32503 -3.39442 0
M  V30 10705 H 1028.35 -5.29574 -4.25122 0
M  V30 10706 H 1026.3 -3.47554 -5.56365 0
M  V30 10707 H 1026.22 -5.20481 -5.48302 0
M  V30 10708 H 1027.48 -4.4487 -6.40086 0
M  V30 10709 N 1031.71 0.701592 -1.41122 0
M  V30 10710 C 1032.94 1.49553 -1.43696 0
M  V30 10711 C 1033.36 1.88053 -0.0421865 0
M  V30 10712 O 1032.72 1.54223 0.953144 0
M  V30 10713 C 1032.77 2.73834 -2.34622 0
M  V30 10714 O 1031.87 3.71088 -1.7991 0
M  V30 10715 H 1031.21 0.450352 -0.487933 0
M  V30 10716 H 1033.74 0.862886 -1.85514 0
M  V30 10717 H 1033.75 3.22209 -2.5029 0
M  V30 10718 H 1032.43 2.45149 -3.35969 0
M  V30 10719 H 1031.01 3.29994 -1.73661 0
M  V30 10720 N 1033.19 1.2685 0.935242 0
M  V30 10721 C 1034.43 1.13972 1.69675 0
M  V30 10722 C 1034.8 -0.310655 1.8947 0
M  V30 10723 O 1036 -0.561692 2.62866 0
M  V30 10724 C 1034.27 1.89387 3.03096 0
M  V30 10725 S 1035.83 1.92633 3.94256 0
M  V30 10726 H 1032.64 0.407009 0.582979 0
M  V30 10727 H 1035.25 1.60653 1.11404 0
M  V30 10728 H 1033.95 2.9397 2.86374 0
M  V30 10729 H 1033.48 1.43171 3.66423 0
M  V30 10730 H 1035.5 1.01732 4.85659 0
M  V30 10731 N 1034.67 -1.14067 1.0875 0
M  V30 10732 C 1036.08 -1.66747 0.839778 0
M  V30 10733 C 1036.43 -1.85711 -0.632909 0
M  V30 10734 O 1035.56 -1.57084 -1.48841 0
M  V30 10735 C 1036.15 -3.02896 1.51787 0
M  V30 10736 C 1034.71 -3.52596 1.3173 0
M  V30 10737 C 1033.86 -2.27994 1.57841 0
M  V30 10738 H 1036.81 -0.980838 1.24761 0
M  V30 10739 H 1036.83 -3.68526 0.947057 0
M  V30 10740 H 1036.34 -2.89062 2.58969 0
M  V30 10741 H 1034.44 -3.71647 0.266339 0
M  V30 10742 H 1034.56 -4.33151 2.04736 0
M  V30 10743 H 1032.92 -2.34241 1.00015 0
M  V30 10744 H 1033.7 -2.16732 2.66237 0
M  V30 10745 N 1036.15 -0.873678 -1.31166 0
M  V30 10746 C 1037.38 -0.500317 -2.0045 0
M  V30 10747 C 1037.79 0.912716 -1.65729 0
M  V30 10748 O 1037.13 1.61001 -0.884563 0
M  V30 10749 C 1037.19 -0.58197 -3.54758 0
M  V30 10750 C 1036.86 -1.95728 -4.12964 0
M  V30 10751 C 1037.85 -2.92526 -4.29796 0
M  V30 10752 C 1035.54 -2.2596 -4.48606 0
M  V30 10753 C 1037.53 -4.17697 -4.81464 0
M  V30 10754 C 1035.22 -3.5138 -4.99976 0
M  V30 10755 C 1036.22 -4.47064 -5.16356 0
M  V30 10756 O 1035.9 -5.70259 -5.66621 0
M  V30 10757 H 1035.64 -0.193044 -0.64785 0
M  V30 10758 H 1038.19 -1.17768 -1.68285 0
M  V30 10759 H 1036.42 0.152326 -3.864 0
M  V30 10760 H 1038.11 -0.221506 -4.05295 0
M  V30 10761 H 1038.88 -2.70479 -4.02574 0
M  V30 10762 H 1034.75 -1.52258 -4.3513 0
M  V30 10763 H 1038.3 -4.92389 -4.94165 0
M  V30 10764 H 1034.2 -3.73269 -5.26631 0
M  V30 10765 H 1034.96 -5.72483 -5.84983 0
M  V30 10766 N 1037.63 1.44308 -0.633487 0
M  V30 10767 C 1038.87 2.03904 -0.14226 0
M  V30 10768 C 1039.23 1.48768 1.21376 0
M  V30 10769 O 1040.43 1.99882 1.79724 0
M  V30 10770 C 1038.7 3.5716 -0.130975 0
M  V30 10771 S 1040.26 4.37805 0.295287 0
M  V30 10772 H 1037.08 0.70827 -0.0622429 0
M  V30 10773 H 1039.68 1.76657 -0.837405 0
M  V30 10774 H 1038.39 3.94794 -1.12096 0
M  V30 10775 H 1037.92 3.89021 0.585342 0
M  V30 10776 H 1039.93 4.71732 1.53894 0
M  V30 10777 N 1039.1 0.374177 1.53094 0
M  V30 10778 C 1040.33 -0.213325 2.05797 0
M  V30 10779 C 1040.75 -1.41753 1.24706 0
M  V30 10780 O 1040.1 -1.80183 0.289868 0
M  V30 10781 C 1040.16 -0.598367 3.56513 0
M  V30 10782 O 1039.88 0.557983 4.34532 0
M  V30 10783 C 1041.38 -1.24334 4.25507 0
M  V30 10784 H 1038.6 -0.0357398 0.670048 0
M  V30 10785 H 1041.14 0.535035 1.97377 0
M  V30 10786 H 1039.3 -1.29663 3.65056 0
M  V30 10787 H 1039.71 0.244911 5.23928 0
M  V30 10788 H 1041.18 -1.46325 5.32253 0
M  V30 10789 H 1041.66 -2.20622 3.79766 0
M  V30 10790 H 1042.27 -0.586269 4.2124 0
M  V30 10791 N 1040.58 -1.57259 0.103575 0
M  V30 10792 C 1042 -1.57581 -0.253062 0
M  V30 10793 C 1042.2 -1.11531 -1.67819 0
M  V30 10794 O 1041.25 -0.795632 -2.39637 0
M  V30 10795 C 1042.57 -3.00681 -0.0337753 0
M  V30 10796 C 1044.12 -3.12837 -0.10087 0
M  V30 10797 C 1044.59 -4.57911 0.0905295 0
M  V30 10798 N 1046.08 -4.63186 0.0359789 0
M  V30 10799 C 1046.82 -5.73179 0.159199 0
M  V30 10800 N 1046.31 -6.91976 0.337728 0
M  V30 10801 N 1048.11 -5.62011 0.0998662 0
M  V30 10802 H 1040.26 -1.85499 1.0346 0
M  V30 10803 H 1042.52 -0.856584 0.406163 0
M  V30 10804 H 1042.23 -3.38602 0.950858 0
M  V30 10805 H 1042.1 -3.69207 -0.772406 0
M  V30 10806 H 1044.49 -2.74783 -1.07601 0
M  V30 10807 H 1044.57 -2.46886 0.66939 0
M  V30 10808 H 1044.21 -4.9666 1.06258 0
M  V30 10809 H 1044.14 -5.21933 -0.699528 0
M  V30 10810 H 1046.63 -3.7777 -0.099121 0
M  V30 10811 H 1046.95 -7.71641 0.423032 0
M  V30 10812 H 1045.29 -6.93996 0.373504 0
M  V30 10813 H 1048.48 -4.68084 -0.0385356 0
M  V30 10814 H 1048.65 -6.47693 0.199342 0
M  V30 10815 N 1042.06 0.170153 -1.56679 0
M  V30 10816 C 1043.02 1.19443 -1.95617 0
M  V30 10817 C 1044.02 1.37118 -0.83996 0
M  V30 10818 O 1045.21 1.34504 -1.10699 0
M  V30 10819 C 1042.35 2.55926 -2.25199 0
M  V30 10820 H 1043.54 0.86095 -2.87276 0
M  V30 10821 H 1041.09 0.412646 -1.50755 0
M  V30 10822 H 1041.83 2.94286 -1.36257 0
M  V30 10823 H 1041.61 2.44464 -3.06562 0
M  V30 10824 H 1043.1 3.29742 -2.56242 0
M  V30 10825 N 1043.54 1.5137 0.438746 0
M  V30 10826 C 1044.47 1.75528 1.53987 0
M  V30 10827 C 1045.45 0.605067 1.58975 0
M  V30 10828 O 1046.63 0.847634 1.74725 0
M  V30 10829 C 1043.76 1.87904 2.92078 0
M  V30 10830 C 1042.72 3.0333 3.01951 0
M  V30 10831 C 1042.04 3.00888 4.42007 0
M  V30 10832 C 1043.34 4.43319 2.76163 0
M  V30 10833 H 1045.04 2.67728 1.34022 0
M  V30 10834 H 1042.58 1.28831 0.643308 0
M  V30 10835 H 1044.54 2.03388 3.69068 0
M  V30 10836 H 1043.26 0.923514 3.13271 0
M  V30 10837 H 1041.92 2.87549 2.274 0
M  V30 10838 H 1041.57 2.03116 4.60166 0
M  V30 10839 H 1041.27 3.78397 4.49544 0
M  V30 10840 H 1042.79 3.18464 5.20973 0
M  V30 10841 H 1044.21 4.59458 3.42887 0
M  V30 10842 H 1042.6 5.22523 2.9511 0
M  V30 10843 H 1043.67 4.53453 1.71779 0
M  V30 10844 N 1045.02 -0.694098 1.41492 0
M  V30 10845 C 1045.93 -1.83778 1.45818 0
M  V30 10846 C 1046.94 -1.70471 0.348639 0
M  V30 10847 O 1048.12 -1.92361 0.596588 0
M  V30 10848 C 1045.18 -3.19771 1.33967 0
M  V30 10849 C 1044.24 -3.45175 2.5525 0
M  V30 10850 C 1043.48 -4.74681 2.43955 0
M  V30 10851 O 1043.7 -5.51268 1.46491 0
M  V30 10852 O 1042.63 -5.00901 3.33739 0
M  V30 10853 H 1046.46 -1.83084 2.42309 0
M  V30 10854 H 1044.05 -0.847349 1.23046 0
M  V30 10855 H 1045.93 -4.00961 1.29648 0
M  V30 10856 H 1044.6 -3.21145 0.405926 0
M  V30 10857 H 1043.51 -2.6391 2.65146 0
M  V30 10858 H 1044.84 -3.48617 3.47458 0
M  V30 10859 N 1046.49 -1.27344 -0.928501 0
M  V30 10860 C 1047.77 -1.04362 -1.65433 0
M  V30 10861 C 1048.15 0.421896 -2.06841 0
M  V30 10862 O 1047.5 1.40496 -1.80203 0
M  V30 10863 C 1047.71 -2.00442 -2.85699 0
M  V30 10864 C 1049.06 -2.29767 -3.57061 0
M  V30 10865 O 1050.08 -1.98409 -2.95825 0
M  V30 10866 O 1048.94 -2.83217 -4.67387 0
M  V30 10867 H 1046.03 -0.397783 -0.72505 0
M  V30 10868 H 1048.58 -1.38606 -0.979109 0
M  V30 10869 H 1047.35 -2.99281 -2.52085 0
M  V30 10870 H 1046.98 -1.66755 -3.60941 0
M  V30 10871 N 1047.97 1.13488 -1.09353 0
M  V30 10872 C 1049.38 1.66299 -0.848609 0
M  V30 10873 C 1049.73 1.86044 0.623051 0
M  V30 10874 O 1048.86 1.57871 1.48005 0
M  V30 10875 C 1049.45 3.02087 -1.53391 0
M  V30 10876 C 1048.01 3.51893 -1.33598 0
M  V30 10877 C 1047.16 2.27154 -1.59048 0
M  V30 10878 H 1050.11 0.974208 -1.25279 0
M  V30 10879 H 1050.13 3.68018 -0.966587 0
M  V30 10880 H 1049.64 2.87684 -2.60498 0
M  V30 10881 H 1047.75 3.715 -0.286045 0
M  V30 10882 H 1047.86 4.32059 -2.0703 0
M  V30 10883 H 1046.22 2.33708 -1.01256 0
M  V30 10884 H 1047.01 2.15317 -2.67383 0
M  V30 10885 N 1049.45 0.880621 1.30701 0
M  V30 10886 C 1050.36 0.348034 2.32004 0
M  V30 10887 C 1051.38 -0.547508 1.65162 0
M  V30 10888 O 1052.55 -0.441673 1.96497 0
M  V30 10889 C 1049.62 -0.432585 3.43991 0
M  V30 10890 C 1048.68 0.492189 4.26469 0
M  V30 10891 C 1047.91 -0.25127 5.33108 0
M  V30 10892 O 1048.14 -1.47795 5.5092 0
M  V30 10893 O 1047.07 0.396376 6.00593 0
M  V30 10894 H 1050.9 1.18798 2.79501 0
M  V30 10895 H 1048.48 0.64432 1.34792 0
M  V30 10896 H 1050.36 -0.874733 4.12221 0
M  V30 10897 H 1049.04 -1.2489 2.98637 0
M  V30 10898 H 1047.94 0.983058 3.60953 0
M  V30 10899 H 1049.28 1.27439 4.75416 0
M  V30 10900 N 1050.93 -1.4397 0.641131 0
M  V30 10901 C 1052.18 -2.01548 0.149333 0
M  V30 10902 C 1052.5 -1.50759 -1.23679 0
M  V30 10903 O 1051.77 -0.715257 -1.82376 0
M  V30 10904 H 1050.35 -0.745173 0.0522161 0
M  V30 10905 H 1053.01 -1.7634 0.830082 0
M  V30 10906 H 1052.11 -3.11851 0.124676 0
M  V30 10907 N 1052.41 -0.382291 -1.52893 0
M  V30 10908 C 1053.32 0.463745 -2.29971 0
M  V30 10909 C 1054.33 1.07777 -1.36602 0
M  V30 10910 O 1055.51 1.0851 -1.69669 0
M  V30 10911 C 1052.57 1.57938 -3.08637 0
M  V30 10912 C 1051.64 0.991182 -4.17701 0
M  V30 10913 C 1050.87 2.05365 -4.92606 0
M  V30 10914 O 1051.09 3.26757 -4.67532 0
M  V30 10915 O 1050.03 1.67487 -5.78128 0
M  V30 10916 H 1053.85 -0.163962 -3.03257 0
M  V30 10917 H 1051.44 -0.146199 -1.48683 0
M  V30 10918 H 1053.32 2.22765 -3.57706 0
M  V30 10919 H 1051.99 2.19218 -2.3817 0
M  V30 10920 H 1050.9 0.306364 -3.72843 0
M  V30 10921 H 1052.23 0.422699 -4.90382 0
M  V30 10922 N 1053.89 1.57202 -0.111913 0
M  V30 10923 C 1054.82 2.17957 0.837683 0
M  V30 10924 C 1055.8 1.1176 1.28233 0
M  V30 10925 O 1056.98 1.39967 1.34621 0
M  V30 10926 C 1054.11 2.77333 2.09054 0
M  V30 10927 C 1053.07 3.8905 1.78393 0
M  V30 10928 C 1052.39 4.35203 3.10649 0
M  V30 10929 C 1053.69 5.11477 1.05775 0
M  V30 10930 H 1055.39 2.9756 0.331441 0
M  V30 10931 H 1052.93 1.43131 0.157979 0
M  V30 10932 H 1054.88 3.18492 2.75936 0
M  V30 10933 H 1053.61 1.95009 2.6199 0
M  V30 10934 H 1052.27 3.48456 1.13903 0
M  V30 10935 H 1051.92 3.49747 3.61506 0
M  V30 10936 H 1051.62 5.10534 2.9091 0
M  V30 10937 H 1053.14 4.79007 3.78661 0
M  V30 10938 H 1054.55 5.497 1.62798 0
M  V30 10939 H 1052.95 5.92346 0.961573 0
M  V30 10940 H 1054.02 4.84881 0.043297 0
M  V30 10941 N 1055.36 -0.161842 1.56767 0
M  V30 10942 C 1056.59 -0.896274 1.87034 0
M  V30 10943 C 1057.01 -1.74617 0.699314 0
M  V30 10944 O 1056.37 -1.77861 -0.351435 0
M  V30 10945 C 1056.42 -1.74105 3.15784 0
M  V30 10946 O 1055.52 -2.84372 2.98674 0
M  V30 10947 H 1054.86 -0.250523 0.614926 0
M  V30 10948 H 1057.39 -0.157127 2.03996 0
M  V30 10949 H 1057.4 -2.13907 3.4743 0
M  V30 10950 H 1056.08 -1.11684 4.00624 0
M  V30 10951 H 1054.66 -2.48084 2.78404 0
M  V30 10952 N 1056.84 -1.516 -0.430713 0
M  V30 10953 C 1058.09 -1.64271 -1.17726 0
M  V30 10954 C 1058.41 -0.364406 -1.91565 0
M  V30 10955 O 1057.68 0.619991 -1.8583 0
M  V30 10956 H 1056.26 -0.605432 -0.437562 0
M  V30 10957 H 1058.92 -1.88557 -0.493166 0
M  V30 10958 H 1058.02 -2.47355 -1.90321 0
M  V30 10959 N 1058.32 0.686584 -1.41858 0
M  V30 10960 C 1059.54 1.4802 -1.45275 0
M  V30 10961 C 1059.97 1.87997 -0.0621297 0
M  V30 10962 O 1059.33 1.55226 0.936733 0
M  V30 10963 C 1059.38 2.7133 -2.37513 0
M  V30 10964 O 1058.48 3.69159 -1.83836 0
M  V30 10965 H 1057.82 0.445152 -0.492682 0
M  V30 10966 H 1060.35 0.843161 -1.86419 0
M  V30 10967 H 1060.36 3.19537 -2.53693 0
M  V30 10968 H 1059.04 2.41571 -3.3855 0
M  V30 10969 H 1057.61 3.28134 -1.77151 0
M  V30 10970 N 1059.8 1.27835 0.921735 0
M  V30 10971 C 1060.71 1.12904 2.05645 0
M  V30 10972 C 1061.72 0.0575704 1.73905 0
M  V30 10973 O 1062.9 0.265261 1.99645 0
M  V30 10974 C 1059.96 0.783957 3.3772 0
M  V30 10975 C 1059.03 1.93694 3.8312 0
M  V30 10976 C 1058.26 1.60823 5.08893 0
M  V30 10977 O 1058.48 0.518873 5.68035 0
M  V30 10978 O 1057.42 2.44932 5.49811 0
M  V30 10979 H 1061.24 2.08143 2.21157 0
M  V30 10980 H 1058.83 1.07078 1.04185 0
M  V30 10981 H 1060.71 0.605107 4.17033 0
M  V30 10982 H 1059.38 -0.138849 3.23402 0
M  V30 10983 H 1058.29 2.17089 3.04669 0
M  V30 10984 H 1059.62 2.84016 4.0199 0
M  V30 10985 N 1061.28 -1.12907 1.09954 0
M  V30 10986 C 1062.5 -1.88679 0.861099 0
M  V30 10987 C 1062.93 -1.78853 -0.582499 0
M  V30 10988 O 1062.28 -1.13992 -1.4098 0
M  V30 10989 C 1062.33 -3.36047 1.30785 0
M  V30 10990 O 1061.44 -4.09716 0.469728 0
M  V30 10991 H 1060.78 -0.586447 0.31141 0
M  V30 10992 H 1063.31 -1.42818 1.46507 0
M  V30 10993 H 1063.32 -3.86882 1.29562 0
M  V30 10994 H 1061.99 -3.42516 2.35914 0
M  V30 10995 H 1060.57 -3.6887 0.54674 0
M  V30 10996 N 1062.75 -0.88754 -1.30232 0
M  V30 10997 C 1064 -0.506277 -1.95656 0
M  V30 10998 C 1064.32 0.948191 -1.70395 0
M  V30 10999 O 1063.59 1.66701 -1.02895 0
M  V30 11000 H 1062.17 -0.184235 -0.723924 0
M  V30 11001 H 1064.83 -1.13118 -1.58715 0
M  V30 11002 H 1063.93 -0.678673 -3.04632 0
M  V30 11003 N 1064.23 1.43628 -0.648757 0
M  V30 11004 C 1065.51 1.95391 -0.0904551 0
M  V30 11005 C 1065.89 1.59021 1.38837 0
M  V30 11006 O 1065.24 0.873078 2.11163 0
M  V30 11007 C 1065.45 3.47418 -0.33196 0
M  V30 11008 C 1066.8 4.23952 -0.234521 0
M  V30 11009 O 1067.82 3.55218 -0.264276 0
M  V30 11010 O 1066.68 5.46282 -0.154428 0
M  V30 11011 H 1063.77 0.82691 0.0121884 0
M  V30 11012 H 1066.32 1.5359 -0.721685 0
M  V30 11013 H 1065.09 3.67001 -1.35741 0
M  V30 11014 H 1064.71 3.96207 0.332556 0
M  V30 11015 N 1065.71 0.390394 1.52688 0
M  V30 11016 C 1066.94 -0.194013 2.06491 0
M  V30 11017 C 1067.36 -1.3965 1.26014 0
M  V30 11018 O 1066.72 -1.79038 0.285468 0
M  V30 11019 C 1066.77 -0.541306 3.56514 0
M  V30 11020 O 1065.87 -1.63509 3.78601 0
M  V30 11021 H 1065.21 -0.0223608 0.663623 0
M  V30 11022 H 1067.74 0.558179 1.96839 0
M  V30 11023 H 1067.75 -0.805301 3.99974 0
M  V30 11024 H 1066.43 0.337828 4.14526 0
M  V30 11025 H 1065 -1.36473 3.4703 0
M  V30 11026 N 1067.19 -1.57141 0.120249 0
M  V30 11027 C 1068.47 -1.8677 -0.581075 0
M  V30 11028 C 1068.85 -1.02163 -1.84732 0
M  V30 11029 O 1068.19 -0.100897 -2.28277 0
M  V30 11030 C 1068.4 -3.37923 -0.872316 0
M  V30 11031 C 1069.75 -4.0655 -1.22483 0
M  V30 11032 O 1070.78 -3.42948 -0.962539 0
M  V30 11033 O 1069.63 -5.18821 -1.71717 0
M  V30 11034 H 1066.73 -0.773219 -0.293362 0
M  V30 11035 H 1069.27 -1.68992 0.154846 0
M  V30 11036 H 1068.05 -3.91292 0.0249416 0
M  V30 11037 H 1067.67 -3.61135 -1.66335 0
M  V30 11038 N 1068.67 0.153526 -1.5685 0
M  V30 11039 C 1069.91 0.865519 -1.82629 0
M  V30 11040 C 1070.24 1.81999 -0.700105 0
M  V30 11041 O 1069.51 1.93907 0.278744 0
M  V30 11042 H 1068.09 0.32261 -0.673745 0
M  V30 11043 H 1070.75 0.149088 -1.94329 0
M  V30 11044 H 1069.84 1.43171 -2.77324 0
M  V30 11045 N 1070.14 1.51827 0.422667 0
M  V30 11046 C 1071.56 1.40328 0.760275 0
M  V30 11047 C 1071.76 0.497119 1.95272 0
M  V30 11048 O 1070.82 -0.0422083 2.52465 0
M  V30 11049 C 1072.13 2.82622 1.02689 0
M  V30 11050 C 1073.68 2.91874 1.13044 0
M  V30 11051 C 1074.15 4.35107 1.4299 0
M  V30 11052 N 1075.64 4.3828 1.49883 0
M  V30 11053 C 1076.38 5.46153 1.74655 0
M  V30 11054 N 1075.87 6.64165 1.9712 0
M  V30 11055 N 1077.67 5.33651 1.76558 0
M  V30 11056 H 1069.82 2.09285 -0.362455 0
M  V30 11057 H 1072.08 0.94273 -0.0998161 0
M  V30 11058 H 1071.79 3.50991 0.223226 0
M  V30 11059 H 1071.66 3.22844 1.95068 0
M  V30 11060 H 1074.05 2.23694 1.92471 0
M  V30 11061 H 1074.13 2.55128 0.185326 0
M  V30 11062 H 1073.77 5.03841 0.640848 0
M  V30 11063 H 1073.7 4.69377 2.38731 0
M  V30 11064 H 1076.19 3.53206 1.34366 0
M  V30 11065 H 1076.51 7.42165 2.15434 0
M  V30 11066 H 1074.85 6.67255 1.94413 0
M  V30 11067 H 1078.04 4.40436 1.58536 0
M  V30 11068 H 1078.22 6.17798 1.95525 0
M  V30 11069 N 1071.62 -0.679052 1.4222 0
M  V30 11070 C 1072.87 -1.43627 1.42182 0
M  V30 11071 C 1073.19 -1.94964 0.0377095 0
M  V30 11072 O 1072.46 -1.72788 -0.923098 0
M  V30 11073 H 1071.04 -0.532972 0.523402 0
M  V30 11074 H 1073.7 -0.802649 1.77605 0
M  V30 11075 H 1072.8 -2.29137 2.11902 0
M  V30 11076 N 1073.1 -1.28322 -0.914942 0
M  V30 11077 C 1074.35 -1.15578 -1.66642 0
M  V30 11078 C 1074.68 0.295209 -1.91943 0
M  V30 11079 O 1073.95 1.21482 -1.51896 0
M  V30 11080 C 1074.24 -1.9535 -3.02507 0
M  V30 11081 C 1074.09 -3.48504 -2.84367 0
M  V30 11082 C 1075.41 -1.76798 -4.03027 0
M  V30 11083 H 1072.53 -0.421234 -0.604757 0
M  V30 11084 H 1075.17 -1.57625 -1.06087 0
M  V30 11085 H 1073.32 -1.59619 -3.54195 0
M  V30 11086 H 1074.99 -3.94135 -2.39699 0
M  V30 11087 H 1073.24 -3.74198 -2.1945 0
M  V30 11088 H 1073.91 -3.99576 -3.80845 0
M  V30 11089 H 1076.38 -2.07977 -3.60395 0
M  V30 11090 H 1075.26 -2.34987 -4.96057 0
M  V30 11091 H 1075.52 -0.719162 -4.36211 0
M  V30 11092 N 1074.58 1.12322 -1.10551 0
M  V30 11093 C 1075.81 1.87407 -0.869607 0
M  V30 11094 C 1076.22 1.79976 0.58356 0
M  V30 11095 O 1075.56 1.1725 1.41415 0
M  V30 11096 C 1075.62 3.37401 -1.24099 0
M  V30 11097 C 1075.29 3.68607 -2.70144 0
M  V30 11098 C 1076.28 3.66869 -3.68379 0
M  V30 11099 C 1073.97 3.97903 -3.06559 0
M  V30 11100 C 1075.96 3.93987 -5.01052 0
M  V30 11101 C 1073.65 4.24681 -4.39419 0
M  V30 11102 C 1074.65 4.2271 -5.36475 0
M  V30 11103 O 1074.33 4.48823 -6.66943 0
M  V30 11104 H 1074.07 0.59978 -0.311834 0
M  V30 11105 H 1076.62 1.43037 -1.4741 0
M  V30 11106 H 1074.85 3.82332 -0.579606 0
M  V30 11107 H 1076.54 3.93833 -0.982378 0
M  V30 11108 H 1077.31 3.44297 -3.41591 0
M  V30 11109 H 1073.18 3.98578 -2.31638 0
M  V30 11110 H 1076.73 3.92364 -5.76798 0
M  V30 11111 H 1072.63 4.46727 -4.65945 0
M  V30 11112 H 1073.39 4.66436 -6.72592 0
M  V30 11113 N 1076.06 0.894434 1.2976 0
M  V30 11114 C 1076.97 0.372622 2.31622 0
M  V30 11115 C 1077.98 -0.52996 1.65733 0
M  V30 11116 O 1079.16 -0.420807 1.96955 0
M  V30 11117 C 1076.22 -0.396076 3.4443 0
M  V30 11118 C 1075.28 0.537394 4.25923 0
M  V30 11119 C 1074.52 -0.194713 5.33345 0
M  V30 11120 O 1074.74 -1.41943 5.52457 0
M  V30 11121 O 1073.67 0.460055 6.00139 0
M  V30 11122 H 1077.5 1.21756 2.78225 0
M  V30 11123 H 1075.09 0.65858 1.34101 0
M  V30 11124 H 1076.97 -0.830962 4.13126 0
M  V30 11125 H 1075.64 -1.21716 2.99945 0
M  V30 11126 H 1074.55 1.02129 3.5989 0
M  V30 11127 H 1075.88 1.32475 4.74037 0
M  V30 11128 N 1077.53 -1.43282 0.656365 0
M  V30 11129 C 1078.78 -2.01776 0.171039 0
M  V30 11130 C 1079.11 -1.51795 -1.21609 0
M  V30 11131 O 1078.36 -0.702864 -1.82643 0
M  V30 11132 C 1078.66 -3.57148 0.134225 0
M  V30 11133 C 1078.33 -4.26488 1.46352 0
M  V30 11134 C 1076.99 -4.45146 1.82753 0
M  V30 11135 C 1079.34 -4.65728 2.33981 0
M  V30 11136 C 1076.67 -5.0031 3.06443 0
M  V30 11137 C 1079.02 -5.22263 3.56966 0
M  V30 11138 C 1077.69 -5.39136 3.93559 0
M  V30 11139 H 1076.96 -0.738352 0.0625878 0
M  V30 11140 H 1079.6 -1.71716 0.847697 0
M  V30 11141 H 1077.91 -3.86768 -0.625892 0
M  V30 11142 H 1079.61 -4.00168 -0.258207 0
M  V30 11143 H 1076.2 -4.12313 1.1703 0
M  V30 11144 H 1080.38 -4.51003 2.07148 0
M  V30 11145 H 1075.64 -5.11559 3.34839 0
M  V30 11146 H 1079.81 -5.51614 4.25082 0
M  V30 11147 H 1077.44 -5.81646 4.89481 0
M  V30 11148 N 1079.01 -0.398486 -1.52479 0
M  V30 11149 C 1080.24 0.180557 -2.06111 0
M  V30 11150 C 1080.66 1.39751 -1.26945 0
M  V30 11151 O 1080.01 1.79699 -0.318497 0
M  V30 11152 C 1080.06 0.541573 -3.5742 0
M  V30 11153 O 1079.79 -0.627043 -4.33589 0
M  V30 11154 C 1081.29 1.17549 -4.27431 0
M  V30 11155 H 1078.51 0.0250754 -0.670531 0
M  V30 11156 H 1081.05 -0.566368 -1.96501 0
M  V30 11157 H 1079.21 1.23839 -3.67073 0
M  V30 11158 H 1079.62 -0.328233 -5.23472 0
M  V30 11159 H 1081.09 1.37839 -5.34513 0
M  V30 11160 H 1081.57 2.14553 -3.83228 0
M  V30 11161 H 1082.18 0.51918 -4.22119 0
M  V30 11162 N 1080.49 1.57075 -0.12858 0
M  V30 11163 C 1081.42 2.12907 0.848708 0
M  V30 11164 C 1082.44 1.07406 1.22343 0
M  V30 11165 O 1083.63 1.34746 1.17071 0
M  V30 11166 C 1080.73 2.62167 2.1476 0
M  V30 11167 C 1079.9 3.91871 1.94309 0
M  V30 11168 C 1078.96 4.26629 3.08016 0
M  V30 11169 O 1077.98 4.9528 2.80511 0
M  V30 11170 N 1079.19 3.84721 4.34706 0
M  V30 11171 H 1081.95 2.97387 0.371636 0
M  V30 11172 H 1079.51 1.61805 0.0555574 0
M  V30 11173 H 1081.5 2.82444 2.89841 0
M  V30 11174 H 1080.07 1.82514 2.53786 0
M  V30 11175 H 1079.29 3.80406 1.03367 0
M  V30 11176 H 1080.58 4.76662 1.77962 0
M  V30 11177 H 1079.98 3.2937 4.59926 0
M  V30 11178 H 1078.54 4.10087 5.06628 0
M  V30 11179 N 1081.97 -0.145205 1.5693 0
M  V30 11180 C 1083.25 -0.88631 1.74367 0
M  V30 11181 C 1083.63 -1.99259 0.697081 0
M  V30 11182 O 1082.97 -2.26732 -0.28368 0
M  V30 11183 C 1083.18 -1.42712 3.18488 0
M  V30 11184 C 1084.53 -1.88982 3.80225 0
M  V30 11185 O 1085.56 -1.5245 3.21928 0
M  V30 11186 O 1084.42 -2.56361 4.8264 0
M  V30 11187 H 1081.51 -0.418979 0.713011 0
M  V30 11188 H 1084.06 -0.130991 1.69194 0
M  V30 11189 H 1082.83 -0.632165 3.8616 0
M  V30 11190 H 1082.45 -2.24589 3.28094 0
M  V30 11191 N 1083.45 -1.52049 -0.414609 0
M  V30 11192 C 1084.69 -1.66084 -1.16379 0
M  V30 11193 C 1085.03 -0.386932 -1.90306 0
M  V30 11194 O 1084.3 0.614441 -1.8454 0
M  V30 11195 C 1084.58 -2.87927 -2.16264 0
M  V30 11196 C 1084.44 -4.25353 -1.46269 0
M  V30 11197 C 1085.76 -3.05289 -3.16996 0
M  V30 11198 H 1082.88 -0.604414 -0.421726 0
M  V30 11199 H 1085.52 -1.8459 -0.450177 0
M  V30 11200 H 1083.67 -2.7228 -2.77121 0
M  V30 11201 H 1085.34 -4.52717 -0.885743 0
M  V30 11202 H 1083.58 -4.27006 -0.76472 0
M  V30 11203 H 1084.25 -5.06644 -2.19126 0
M  V30 11204 H 1086.73 -3.19798 -2.66212 0
M  V30 11205 H 1085.61 -3.92065 -3.84156 0
M  V30 11206 H 1085.87 -2.1836 -3.84411 0
M  V30 11207 N 1084.93 0.6715 -1.42579 0
M  V30 11208 C 1086.34 0.985019 -1.25577 0
M  V30 11209 C 1086.54 2.00845 -0.162319 0
M  V30 11210 O 1085.6 2.48175 0.465352 0
M  V30 11211 C 1086.91 1.48668 -2.61377 0
M  V30 11212 C 1088.46 1.60429 -2.68759 0
M  V30 11213 C 1088.93 2.13991 -4.04935 0
M  V30 11214 N 1090.42 2.21319 -4.06906 0
M  V30 11215 C 1091.16 2.63845 -5.09091 0
M  V30 11216 N 1090.66 3.05799 -6.21658 0
M  V30 11217 N 1092.45 2.63623 -4.96447 0
M  V30 11218 H 1084.6 -0.00604561 -2.12399 0
M  V30 11219 H 1086.86 0.0598299 -0.94611 0
M  V30 11220 H 1086.57 0.80917 -3.42265 0
M  V30 11221 H 1086.44 2.46487 -2.85524 0
M  V30 11222 H 1088.83 2.27286 -1.88216 0
M  V30 11223 H 1088.91 0.610909 -2.48398 0
M  V30 11224 H 1088.55 1.47741 -4.85937 0
M  V30 11225 H 1088.48 3.14126 -4.2265 0
M  V30 11226 H 1090.98 1.91743 -3.25643 0
M  V30 11227 H 1091.29 3.36944 -6.95477 0
M  V30 11228 H 1089.63 3.03648 -6.25158 0
M  V30 11229 H 1092.82 2.30211 -4.07579 0
M  V30 11230 H 1093 2.96444 -5.76216 0
M  V30 11231 N 1086.4 1.28806 0.908124 0
M  V30 11232 C 1087.35 1.09849 1.99793 0
M  V30 11233 C 1088.34 0.0204321 1.60887 0
M  V30 11234 O 1089.53 0.241204 1.75349 0
M  V30 11235 C 1086.66 0.768263 3.34593 0
M  V30 11236 C 1085.74 1.88544 3.79884 0
M  V30 11237 N 1086.14 3.12784 3.97492 0
M  V30 11238 C 1084.43 1.77657 4.09089 0
M  V30 11239 C 1085.13 3.85615 4.35518 0
M  V30 11240 N 1084.11 3.13501 4.44092 0
M  V30 11241 H 1087.91 2.04108 2.11464 0
M  V30 11242 H 1085.43 1.19807 1.09636 0
M  V30 11243 H 1087.42 0.613521 4.12361 0
M  V30 11244 H 1086.08 -0.166501 3.24273 0
M  V30 11245 H 1087.09 3.48333 3.83255 0
M  V30 11246 H 1083.77 0.913956 4.07373 0
M  V30 11247 H 1085.16 4.92492 4.57057 0
M  V30 11248 N 1087.88 -1.11734 1.11145 0
M  V30 11249 C 1089.13 -1.83043 0.856717 0
M  V30 11250 C 1089.45 -1.84901 -0.619407 0
M  V30 11251 O 1088.72 -1.31738 -1.44989 0
M  V30 11252 H 1087.3 -0.677823 0.31395 0
M  V30 11253 H 1089.96 -1.35262 1.40322 0
M  V30 11254 H 1089.06 -2.87005 1.22616 0
M  V30 11255 N 1089.36 -0.901303 -1.29284 0
M  V30 11256 C 1090.64 -0.44747 -1.90413 0
M  V30 11257 C 1091.02 1.07298 -1.81797 0
M  V30 11258 O 1090.36 1.91555 -1.24574 0
M  V30 11259 C 1090.57 -0.963849 -3.35427 0
M  V30 11260 C 1091.92 -1.00851 -4.12449 0
M  V30 11261 O 1092.95 -0.91163 -3.44337 0
M  V30 11262 O 1091.81 -1.15426 -5.34171 0
M  V30 11263 H 1088.9 -0.13976 -0.815105 0
M  V30 11264 H 1091.45 -0.991274 -1.37738 0
M  V30 11265 H 1090.22 -2.00782 -3.3586 0
M  V30 11266 H 1089.84 -0.400149 -3.95581 0
M  V30 11267 N 1090.84 1.42931 -0.663954 0
M  V30 11268 C 1092.25 1.56098 -0.332496 0
M  V30 11269 C 1092.45 1.64564 1.16279 0
M  V30 11270 O 1091.51 1.6066 1.94794 0
M  V30 11271 C 1092.82 2.81649 -1.05329 0
M  V30 11272 C 1094.37 2.95408 -1.03457 0
M  V30 11273 C 1094.85 4.23805 -1.73647 0
M  V30 11274 N 1096.34 4.30693 -1.70462 0
M  V30 11275 C 1097.07 5.28833 -2.21637 0
M  V30 11276 N 1096.57 6.33189 -2.81147 0
M  V30 11277 N 1098.36 5.20558 -2.12075 0
M  V30 11278 H 1090.51 1.3568 -1.63416 0
M  V30 11279 H 1092.77 0.652361 -0.687844 0
M  V30 11280 H 1092.48 2.81494 -2.10842 0
M  V30 11281 H 1092.35 3.72208 -0.611626 0
M  V30 11282 H 1094.74 2.95097 0.0121936 0
M  V30 11283 H 1094.82 2.06109 -1.51502 0
M  V30 11284 H 1094.47 4.24876 -2.78285 0
M  V30 11285 H 1094.4 5.12019 -1.2306 0
M  V30 11286 H 1096.89 3.55904 -1.27046 0
M  V30 11287 H 1097.2 7.04411 -3.17844 0
M  V30 11288 H 1095.55 6.33781 -2.85212 0
M  V30 11289 H 1098.74 4.3795 -1.6528 0
M  V30 11290 H 1098.91 5.96881 -2.52264 0
M  V30 11291 N 1092.32 0.406567 1.52266 0
M  V30 11292 C 1093.56 -0.1627 2.02748 0
M  V30 11293 C 1093.92 -1.43022 1.28695 0
M  V30 11294 O 1093.21 -1.87715 0.383881 0
M  V30 11295 C 1093.4 -0.467124 3.54334 0
M  V30 11296 C 1093.23 0.76934 4.4307 0
M  V30 11297 C 1092 1.29377 4.88456 0
M  V30 11298 C 1094.2 1.64671 4.87225 0
M  V30 11299 N 1092.18 2.48599 5.61313 0
M  V30 11300 C 1093.55 2.68519 5.58836 0
M  V30 11301 C 1095.61 1.66477 4.69244 0
M  V30 11302 C 1094.31 3.74081 6.14374 0
M  V30 11303 C 1096.34 2.70956 5.25677 0
M  V30 11304 C 1095.7 3.73525 5.97209 0
M  V30 11305 H 1091.8 -0.0211706 0.781713 0
M  V30 11306 H 1094.38 0.560338 1.86463 0
M  V30 11307 H 1092.55 -1.15921 3.70698 0
M  V30 11308 H 1094.29 -1.02505 3.91503 0
M  V30 11309 H 1091.04 0.85219 4.6587 0
M  V30 11310 H 1091.46 3.0897 6.02384 0
M  V30 11311 H 1096.11 0.88519 4.1343 0
M  V30 11312 H 1093.82 4.52896 6.69261 0
M  V30 11313 H 1097.41 2.73258 5.13635 0
M  V30 11314 H 1096.29 4.53043 6.40095 0
M  V30 11315 N 1093.79 -1.57004 0.136909 0
M  V30 11316 C 1095.07 -1.87375 -0.561233 0
M  V30 11317 C 1095.45 -1.04117 -1.83638 0
M  V30 11318 O 1094.8 -0.125103 -2.28157 0
M  V30 11319 C 1095.01 -3.38829 -0.836426 0
M  V30 11320 C 1096.36 -4.07826 -1.18164 0
M  V30 11321 O 1097.38 -3.4395 -0.92611 0
M  V30 11322 O 1096.24 -5.20614 -1.66204 0
M  V30 11323 H 1093.33 -0.776287 -0.285145 0
M  V30 11324 H 1095.88 -1.68818 0.172761 0
M  V30 11325 H 1094.65 -3.91244 0.066442 0
M  V30 11326 H 1094.28 -3.62879 -1.62496 0
M  V30 11327 N 1095.27 0.136881 -1.57004 0
M  V30 11328 C 1096.68 0.695911 -1.73245 0
M  V30 11329 C 1097.03 1.8118 -0.75288 0
M  V30 11330 O 1096.16 2.16258 0.0782477 0
M  V30 11331 C 1096.75 1.26914 -3.14131 0
M  V30 11332 C 1095.31 1.77463 -3.31939 0
M  V30 11333 C 1094.46 0.667128 -2.69156 0
M  V30 11334 H 1097.41 -0.0888841 -1.58451 0
M  V30 11335 H 1097.43 2.13892 -3.14691 0
M  V30 11336 H 1096.94 0.456754 -3.85403 0
M  V30 11337 H 1095.05 2.61236 -2.65681 0
M  V30 11338 H 1095.16 1.89638 -4.39971 0
M  V30 11339 H 1093.52 1.09629 -2.29899 0
M  V30 11340 H 1094.31 -0.13398 -3.43038 0
M  V30 11341 N 1096.75 1.52266 0.40654 0
M  V30 11342 C 1097.98 1.70304 1.17491 0
M  V30 11343 C 1098.39 0.413656 1.84213 0
M  V30 11344 O 1097.75 -0.610524 1.71985 0
M  V30 11345 C 1097.8 2.84045 2.23609 0
M  V30 11346 O 1097.52 4.0799 1.5961 0
M  V30 11347 C 1099.02 3.13614 3.13306 0
M  V30 11348 H 1096.24 0.570669 0.352955 0
M  V30 11349 H 1098.79 1.98836 0.477967 0
M  V30 11350 H 1096.94 2.58025 2.88967 0
M  V30 11351 H 1097.36 4.7139 2.29983 0
M  V30 11352 H 1098.83 3.96707 3.83833 0
M  V30 11353 H 1099.31 2.27272 3.75824 0
M  V30 11354 H 1099.91 3.41409 2.53614 0
M  V30 11355 N 1098.23 -0.663929 1.42933 0
M  V30 11356 C 1099.64 -0.978346 1.26097 0
M  V30 11357 C 1099.84 -2.00756 0.172968 0
M  V30 11358 O 1098.9 -2.48418 -0.452184 0
M  V30 11359 C 1100.21 -1.4728 2.62162 0
M  V30 11360 C 1101.76 -1.59001 2.69606 0
M  V30 11361 C 1102.24 -2.1184 4.06064 0
M  V30 11362 N 1103.73 -2.19158 4.08074 0
M  V30 11363 C 1104.46 -2.61141 5.10483 0
M  V30 11364 N 1103.96 -3.02498 6.23271 0
M  V30 11365 N 1105.75 -2.60986 4.97838 0
M  V30 11366 H 1097.9 0.0173096 2.12393 0
M  V30 11367 H 1100.17 -0.0548116 0.946414 0
M  V30 11368 H 1099.87 -0.791008 3.42689 0
M  V30 11369 H 1099.75 -2.4497 2.86827 0
M  V30 11370 H 1102.13 -2.26284 1.89418 0
M  V30 11371 H 1102.21 -0.597728 2.48718 0
M  V30 11372 H 1101.86 -1.45162 4.86714 0
M  V30 11373 H 1101.79 -3.1188 4.2431 0
M  V30 11374 H 1104.28 -1.90013 3.26655 0
M  V30 11375 H 1104.59 -3.33251 6.97254 0
M  V30 11376 H 1102.94 -3.00328 6.2676 0
M  V30 11377 H 1106.13 -2.28046 4.08794 0
M  V30 11378 H 1106.3 -2.93384 5.7778 0
M  V30 11379 N 1099.71 -1.29285 -0.901281 0
M  V30 11380 C 1101.12 -1.15499 -1.46686 0
M  V30 11381 C 1101.47 0.250446 -1.94595 0
M  V30 11382 O 1100.59 1.14581 -1.83576 0
M  V30 11383 C 1101.19 -2.0906 -2.66607 0
M  V30 11384 C 1099.75 -1.99301 -3.19306 0
M  V30 11385 C 1098.89 -2.00079 -1.91999 0
M  V30 11386 H 1101.85 -1.41793 -0.712773 0
M  V30 11387 H 1101.87 -1.6619 -3.42288 0
M  V30 11388 H 1101.38 -3.11341 -2.31707 0
M  V30 11389 H 1099.48 -1.00103 -3.58901 0
M  V30 11390 H 1099.59 -2.86885 -3.8371 0
M  V30 11391 H 1097.96 -1.44655 -2.09636 0
M  V30 11392 H 1098.74 -3.04061 -1.59379 0
M  V30 11393 N 1101.18 1.11143 -1.11736 0
M  V30 11394 C 1102.6 1.64462 -0.883693 0
M  V30 11395 C 1102.95 1.87324 0.583448 0
M  V30 11396 O 1102.07 1.60975 1.44623 0
M  V30 11397 C 1102.67 2.98765 -1.59764 0
M  V30 11398 C 1101.23 3.4898 -1.41032 0
M  V30 11399 C 1100.37 2.23729 -1.63831 0
M  V30 11400 H 1103.32 0.947415 -1.27317 0
M  V30 11401 H 1103.34 3.65885 -1.04443 0
M  V30 11402 H 1102.86 2.82094 -2.66542 0
M  V30 11403 H 1100.96 3.7081 -0.364781 0
M  V30 11404 H 1101.07 4.27571 -2.16148 0
M  V30 11405 H 1099.43 2.31507 -1.06191 0
M  V30 11406 H 1100.22 2.09597 -2.7189 0
M  V30 11407 N 1102.66 0.908147 1.28804 0
M  V30 11408 C 1104.08 0.605474 1.47669 0
M  V30 11409 C 1104.28 -0.850759 1.82659 0
M  V30 11410 O 1103.33 -1.63029 1.92816 0
M  V30 11411 C 1104.65 1.53856 2.58358 0
M  V30 11412 C 1106.2 1.54467 2.7223 0
M  V30 11413 C 1106.67 2.46424 3.86056 0
M  V30 11414 N 1108.16 2.44519 3.93402 0
M  V30 11415 C 1108.9 3.12371 4.80845 0
M  V30 11416 N 1108.39 3.89533 5.72919 0
M  V30 11417 N 1110.19 3.01486 4.74407 0
M  V30 11418 H 1102.34 1.84988 1.04371 0
M  V30 11419 H 1104.6 0.793132 0.519274 0
M  V30 11420 H 1104.31 2.57651 2.39393 0
M  V30 11421 H 1104.18 1.26543 3.5534 0
M  V30 11422 H 1106.57 0.514127 2.90587 0
M  V30 11423 H 1106.65 1.85821 1.75796 0
M  V30 11424 H 1106.29 3.49577 3.68454 0
M  V30 11425 H 1106.22 2.12375 4.81876 0
M  V30 11426 H 1108.71 1.88464 3.27551 0
M  V30 11427 H 1109.03 4.3834 6.36457 0
M  V30 11428 H 1107.37 3.93639 5.72777 0
M  V30 11429 H 1110.56 2.40713 4.01466 0
M  V30 11430 H 1110.73 3.5464 5.42342 0
M  V30 11431 N 1104.14 -1.42577 0.671525 0
M  V30 11432 C 1105.1 -2.292 0.000392482 0
M  V30 11433 C 1106.1 -1.43158 -0.732294 0
M  V30 11434 O 1107.29 -1.64583 -0.570789 0
M  V30 11435 C 1104.43 -3.25591 -1.01013 0
M  V30 11436 H 1105.62 -2.90037 0.762783 0
M  V30 11437 H 1103.17 -1.50162 0.433703 0
M  V30 11438 H 1103.91 -2.69685 -1.80112 0
M  V30 11439 H 1103.69 -3.89049 -0.488183 0
M  V30 11440 H 1105.18 -3.90561 -1.47824 0
M  V30 11441 N 1105.62 -0.414636 -1.52048 0
M  V30 11442 C 1106.85 0.158686 -2.06291 0
M  V30 11443 C 1107.26 1.38397 -1.2842 0
M  V30 11444 O 1106.62 1.79351 -0.337539 0
M  V30 11445 C 1106.67 0.503634 -3.57975 0
M  V30 11446 O 1106.39 -0.672996 -4.329 0
M  V30 11447 C 1107.89 1.13009 -4.28653 0
M  V30 11448 H 1105.11 0.0179622 -0.67076 0
M  V30 11449 H 1107.66 -0.587177 -1.95889 0
M  V30 11450 H 1105.81 1.19939 -3.68366 0
M  V30 11451 H 1106.22 -0.383735 -5.23094 0
M  V30 11452 H 1107.7 1.32162 -5.35945 0
M  V30 11453 H 1108.18 2.10476 -3.85482 0
M  V30 11454 H 1108.78 0.474379 -4.22646 0
M  V30 11455 N 1107.1 1.56929 -0.145233 0
M  V30 11456 C 1108.37 1.8767 0.551288 0
M  V30 11457 C 1108.75 1.05089 1.83083 0
M  V30 11458 O 1108.1 0.137201 2.28088 0
M  V30 11459 C 1108.31 3.39268 0.818445 0
M  V30 11460 C 1109.66 4.08447 1.16 0
M  V30 11461 O 1110.68 3.44436 0.907857 0
M  V30 11462 O 1109.54 5.21488 1.63441 0
M  V30 11463 H 1106.64 0.777788 0.281024 0
M  V30 11464 H 1109.18 1.68724 -0.181712 0
M  V30 11465 H 1107.95 3.91203 -0.0871897 0
M  V30 11466 H 1107.58 3.63735 1.60569 0
M  V30 11467 N 1108.58 -0.128553 1.57075 0
M  V30 11468 C 1109.8 -0.85245 1.88523 0
M  V30 11469 C 1110.22 -1.73886 0.735459 0
M  V30 11470 O 1109.58 -1.80114 -0.294113 0
M  V30 11471 C 1109.63 -1.69384 3.19361 0
M  V30 11472 O 1109.35 -0.84313 4.2991 0
M  V30 11473 C 1110.85 -2.52373 3.64449 0
M  V30 11474 H 1108.07 -0.245556 0.624454 0
M  V30 11475 H 1110.61 -0.115807 2.04172 0
M  V30 11476 H 1108.77 -2.38335 3.0541 0
M  V30 11477 H 1109.18 -1.42255 5.0484 0
M  V30 11478 H 1110.66 -3.06955 4.58784 0
M  V30 11479 H 1111.13 -3.29283 2.90636 0
M  V30 11480 H 1111.74 -1.88681 3.81155 0
M  V30 11481 N 1110.05 -1.5248 -0.398459 0
M  V30 11482 C 1111.46 -1.59107 -0.976817 0
M  V30 11483 C 1111.82 -0.438104 -1.91246 0
M  V30 11484 O 1110.94 0.440111 -2.11877 0
M  V30 11485 C 1111.54 -2.88373 -1.77838 0
M  V30 11486 C 1110.09 -2.97445 -2.30659 0
M  V30 11487 C 1109.24 -2.5414 -1.10942 0
M  V30 11488 H 1112.19 -1.57695 -0.178324 0
M  V30 11489 H 1112.21 -2.74327 -2.63676 0
M  V30 11490 H 1111.73 -3.72269 -1.09714 0
M  V30 11491 H 1109.83 -2.18066 -3.02123 0
M  V30 11492 H 1109.94 -4.019 -2.60794 0
M  V30 11493 H 1108.3 -2.08237 -1.46661 0
M  V30 11494 H 1109.09 -3.40421 -0.443684 0
M  V30 11495 N 1111.53 0.65634 -1.43283 0
M  V30 11496 C 1112.78 1.41347 -1.44449 0
M  V30 11497 C 1113.1 1.94879 -0.0687217 0
M  V30 11498 O 1112.37 1.74235 0.895492 0
M  V30 11499 H 1110.95 0.524578 -0.531815 0
M  V30 11500 H 1113.61 0.774292 -1.7886 0
M  V30 11501 H 1112.71 2.25737 -2.15521 0
M  V30 11502 N 1113.01 1.29761 0.894412 0
M  V30 11503 C 1114.42 1.16275 1.46072 0
M  V30 11504 C 1114.77 -0.240123 1.94725 0
M  V30 11505 O 1113.9 -1.13606 1.84181 0
M  V30 11506 C 1114.49 2.10471 2.65494 0
M  V30 11507 C 1113.05 2.00992 3.18244 0
M  V30 11508 C 1112.2 2.01094 1.90936 0
M  V30 11509 H 1115.15 1.42169 0.705243 0
M  V30 11510 H 1115.17 1.68003 3.41402 0
M  V30 11511 H 1114.68 3.12566 2.30053 0
M  V30 11512 H 1112.78 1.02005 3.58365 0
M  V30 11513 H 1112.9 2.88916 3.82184 0
M  V30 11514 H 1111.26 1.45764 2.08866 0
M  V30 11515 H 1112.04 3.04902 1.57764 0
M  V30 11516 N 1114.49 -1.10549 1.12324 0
M  V30 11517 C 1115.74 -1.82124 0.876083 0
M  V30 11518 C 1116.06 -1.85547 -0.599761 0
M  V30 11519 O 1115.33 -1.33269 -1.43584 0
M  V30 11520 H 1113.91 -0.674455 0.321122 0
M  V30 11521 H 1116.57 -1.33766 1.41748 0
M  V30 11522 H 1115.66 -2.85688 1.25653 0
M  V30 11523 N 1115.97 -0.914965 -1.28321 0
M  V30 11524 C 1117.38 -0.59512 -1.76961 0
M  V30 11525 C 1117.73 0.88958 -1.74874 0
M  V30 11526 O 1116.85 1.6959 -1.34418 0
M  V30 11527 C 1117.45 -1.07353 -3.21342 0
M  V30 11528 C 1116.01 -0.804577 -3.677 0
M  V30 11529 C 1115.15 -1.23955 -2.48053 0
M  V30 11530 H 1118.1 -1.0961 -1.14767 0
M  V30 11531 H 1118.13 -0.415506 -3.78225 0
M  V30 11532 H 1117.64 -2.15413 -3.22829 0
M  V30 11533 H 1115.74 0.26277 -3.71672 0
M  V30 11534 H 1115.85 -1.41317 -4.57784 0
M  V30 11535 H 1114.22 -0.658274 -2.46046 0
M  V30 11536 H 1115 -2.32853 -2.52258 0
M  V30 11537 N 1117.44 1.42219 -0.679077 0
M  V30 11538 C 1118.69 2.01081 -0.202718 0
M  V30 11539 C 1119.01 1.53986 1.19639 0
M  V30 11540 O 1118.28 0.763359 1.80415 0
M  V30 11541 H 1116.86 0.743526 -0.0719547 0
M  V30 11542 H 1119.52 1.74077 -0.876544 0
M  V30 11543 H 1118.62 3.11411 -0.207314 0
M  V30 11544 N 1118.92 0.422693 1.51826 0
M  V30 11545 C 1120.15 -0.15017 2.06856 0
M  V30 11546 C 1120.57 -1.36946 1.28948 0
M  V30 11547 O 1119.93 -1.78393 0.32338 0
M  V30 11548 C 1119.98 -0.465563 3.57582 0
M  V30 11549 O 1119.08 -1.55442 3.81984 0
M  V30 11550 H 1118.42 -0.00827931 0.663948 0
M  V30 11551 H 1120.95 0.599806 1.95611 0
M  V30 11552 H 1120.96 -0.720279 4.01592 0
M  V30 11553 H 1119.64 0.425679 4.13716 0
M  V30 11554 H 1118.21 -1.29081 3.49846 0
M  V30 11555 N 1120.4 -1.5685 0.153553 0
M  V30 11556 C 1121.81 -1.83074 -0.36618 0
M  V30 11557 C 1122.16 -1.07257 -1.64288 0
M  V30 11558 O 1121.29 -0.319925 -2.14022 0
M  V30 11559 C 1121.88 -3.32086 -0.671142 0
M  V30 11560 C 1120.44 -3.58868 -1.13537 0
M  V30 11561 C 1119.59 -2.76827 -0.161887 0
M  V30 11562 H 1122.54 -1.54129 0.378139 0
M  V30 11563 H 1122.56 -3.48598 -1.52512 0
M  V30 11564 H 1122.07 -3.8724 0.258234 0
M  V30 11565 H 1120.17 -3.09107 -2.08047 0
M  V30 11566 H 1120.29 -4.67299 -1.05682 0
M  V30 11567 H 1118.65 -2.46112 -0.6558 0
M  V30 11568 H 1119.43 -3.34755 0.761195 0
M  V30 11569 N 1121.88 0.120221 -1.57141 0
M  V30 11570 C 1122.81 1.1732 -1.96898 0
M  V30 11571 C 1123.82 1.37722 -0.868134 0
M  V30 11572 O 1125.01 1.36818 -1.14643 0
M  V30 11573 C 1122.11 2.53343 -2.25102 0
M  V30 11574 C 1121.28 2.53559 -3.56408 0
M  V30 11575 C 1120.34 3.71319 -3.72838 0
M  V30 11576 O 1119.37 3.54961 -4.44962 0
M  V30 11577 N 1120.57 4.89836 -3.11514 0
M  V30 11578 H 1123.34 0.835023 -2.87832 0
M  V30 11579 H 1120.9 0.309508 -1.58914 0
M  V30 11580 H 1122.89 3.30679 -2.3331 0
M  V30 11581 H 1121.46 2.79347 -1.403 0
M  V30 11582 H 1120.68 1.61946 -3.59398 0
M  V30 11583 H 1121.97 2.5076 -4.42716 0
M  V30 11584 H 1121.37 5.0603 -2.52884 0
M  V30 11585 H 1119.92 5.64853 -3.25246 0
M  V30 11586 N 1123.36 1.52689 0.390367 0
M  V30 11587 C 1124.77 1.41909 0.730338 0
M  V30 11588 C 1124.97 0.538427 1.94173 0
M  V30 11589 O 1124.03 0.0113527 2.52497 0
M  V30 11590 C 1125.34 2.84737 0.966714 0
M  V30 11591 C 1126.89 2.94206 1.06827 0
M  V30 11592 C 1127.36 4.38042 1.33728 0
M  V30 11593 N 1128.86 4.4136 1.40553 0
M  V30 11594 C 1129.59 5.49735 1.63031 0
M  V30 11595 N 1129.09 6.68197 1.82988 0
M  V30 11596 N 1130.88 5.37276 1.65199 0
M  V30 11597 H 1123.03 2.08469 -0.406766 0
M  V30 11598 H 1125.29 0.940401 -0.11979 0
M  V30 11599 H 1125 3.51385 0.148725 0
M  V30 11600 H 1124.87 3.26909 1.88176 0
M  V30 11601 H 1127.26 2.27726 1.87683 0
M  V30 11602 H 1127.34 2.55463 0.131168 0
M  V30 11603 H 1126.99 5.05087 0.533832 0
M  V30 11604 H 1126.92 4.74336 2.28721 0
M  V30 11605 H 1129.41 3.55976 1.26844 0
M  V30 11606 H 1129.72 7.46567 1.99643 0
M  V30 11607 H 1128.06 6.71228 1.80215 0
M  V30 11608 H 1131.26 4.437 1.49158 0
M  V30 11609 H 1131.43 6.21806 1.82377 0
M  V30 11610 N 1124.83 -0.648732 1.43629 0
M  V30 11611 C 1126.25 -0.964917 1.27128 0
M  V30 11612 C 1126.45 -2.00561 0.194251 0
M  V30 11613 O 1125.51 -2.48884 -0.42581 0
M  V30 11614 C 1126.82 -1.44491 2.6371 0
M  V30 11615 C 1128.37 -1.56133 2.71278 0
M  V30 11616 C 1128.84 -2.07521 4.08288 0
M  V30 11617 N 1130.33 -2.14817 4.10375 0
M  V30 11618 C 1131.07 -2.55712 5.13224 0
M  V30 11619 N 1130.56 -2.9587 6.26444 0
M  V30 11620 N 1132.36 -2.55691 5.00578 0
M  V30 11621 H 1124.51 0.0398357 2.12363 0
M  V30 11622 H 1126.77 -0.0447705 0.946942 0
M  V30 11623 H 1126.48 -0.754616 3.43509 0
M  V30 11624 H 1126.35 -2.41914 2.89409 0
M  V30 11625 H 1128.74 -2.24263 1.91808 0
M  V30 11626 H 1128.82 -0.571314 2.49338 0
M  V30 11627 H 1128.46 -1.39992 4.88226 0
M  V30 11628 H 1128.39 -3.07362 4.27594 0
M  V30 11629 H 1130.88 -1.86538 3.28652 0
M  V30 11630 H 1131.2 -3.25837 7.0075 0
M  V30 11631 H 1129.54 -2.93664 6.2991 0
M  V30 11632 H 1132.73 -2.23697 4.1119 0
M  V30 11633 H 1132.91 -2.87239 5.80859 0
M  V30 11634 N 1126.31 -1.30234 -0.887518 0
M  V30 11635 C 1127.28 -1.16384 -1.97452 0
M  V30 11636 C 1128.28 -0.0957942 -1.60514 0
M  V30 11637 O 1129.47 -0.343706 -1.70776 0
M  V30 11638 C 1126.6 -0.782514 -3.31797 0
M  V30 11639 H 1127.79 -2.12952 -2.11167 0
M  V30 11640 H 1125.34 -1.13594 -1.07359 0
M  V30 11641 H 1126.08 0.18278 -3.23785 0
M  V30 11642 H 1125.86 -1.55434 -3.59976 0
M  V30 11643 H 1127.35 -0.709011 -4.11537 0
M  V30 11644 N 1127.79 1.09952 -1.12909 0
M  V30 11645 C 1128.72 2.16257 -0.759305 0
M  V30 11646 C 1129.74 1.61355 0.216427 0
M  V30 11647 O 1130.92 1.785 -0.00297224 0
M  V30 11648 C 1128.02 3.38741 -0.103908 0
M  V30 11649 C 1127.2 4.23072 -1.11037 0
M  V30 11650 C 1126.26 5.23991 -0.481667 0
M  V30 11651 O 1125.28 5.57665 -1.14011 0
M  V30 11652 N 1126.48 5.75652 0.748698 0
M  V30 11653 H 1129.25 2.48588 -1.67405 0
M  V30 11654 H 1126.81 1.25617 -1.02137 0
M  V30 11655 H 1128.8 4.03362 0.328799 0
M  V30 11656 H 1127.37 3.04344 0.713677 0
M  V30 11657 H 1126.59 3.5467 -1.72054 0
M  V30 11658 H 1127.88 4.76244 -1.79078 0
M  V30 11659 H 1127.28 5.505 1.30253 0
M  V30 11660 H 1125.84 6.42033 1.12415 0
M  V30 11661 N 1129.27 0.921757 1.27833 0
M  V30 11662 C 1130.2 0.373575 2.26135 0
M  V30 11663 C 1131.21 -0.492414 1.55174 0
M  V30 11664 O 1132.4 -0.305998 1.75858 0
M  V30 11665 C 1129.5 -0.483911 3.35427 0
M  V30 11666 C 1128.68 0.361411 4.35904 0
M  V30 11667 C 1127.73 -0.432461 5.2442 0
M  V30 11668 O 1126.76 0.15777 5.68981 0
M  V30 11669 N 1127.96 -1.73367 5.54007 0
M  V30 11670 H 1130.73 1.21856 2.73809 0
M  V30 11671 H 1128.29 0.788552 1.41398 0
M  V30 11672 H 1130.28 -1.02193 3.91585 0
M  V30 11673 H 1128.85 -1.22963 2.874 0
M  V30 11674 H 1128.07 1.08076 3.79095 0
M  V30 11675 H 1129.36 0.939528 5.0005 0
M  V30 11676 H 1128.76 -2.23561 5.19651 0
M  V30 11677 H 1127.31 -2.21834 6.12889 0
M  V30 11678 N 1130.75 -1.41857 0.686609 0
M  V30 11679 C 1132.16 -1.55549 0.357288 0
M  V30 11680 C 1132.36 -1.66394 -1.13646 0
M  V30 11681 O 1131.42 -1.63739 -1.92213 0
M  V30 11682 C 1132.73 -2.79938 1.09796 0
M  V30 11683 C 1134.28 -2.93724 1.08143 0
M  V30 11684 C 1134.75 -4.20989 1.80367 0
M  V30 11685 N 1136.25 -4.27927 1.77293 0
M  V30 11686 C 1136.98 -5.2524 2.30022 0
M  V30 11687 N 1136.48 -6.28636 2.91185 0
M  V30 11688 N 1138.27 -5.17118 2.20329 0
M  V30 11689 H 1130.42 -1.33063 1.65554 0
M  V30 11690 H 1132.68 -0.641335 0.698135 0
M  V30 11691 H 1132.39 -2.78104 2.15293 0
M  V30 11692 H 1132.26 -3.71188 0.670763 0
M  V30 11693 H 1134.65 -2.9508 0.0347554 0
M  V30 11694 H 1134.73 -2.03673 1.54761 0
M  V30 11695 H 1134.38 -4.20395 2.85009 0
M  V30 11696 H 1134.31 -5.09997 1.3119 0
M  V30 11697 H 1136.8 -3.53838 1.32692 0
M  V30 11698 H 1137.11 -6.99265 3.29011 0
M  V30 11699 H 1135.45 -6.29164 2.95259 0
M  V30 11700 H 1138.65 -4.35265 1.72226 0
M  V30 11701 H 1138.82 -5.92792 2.61728 0
M  V30 11702 N 1132.22 -0.430739 -1.51599 0
M  V30 11703 C 1133.19 0.372319 -2.26156 0
M  V30 11704 C 1134.19 0.955338 -1.29344 0
M  V30 11705 O 1135.38 0.830823 -1.53111 0
M  V30 11706 C 1132.51 1.52613 -3.04831 0
M  V30 11707 H 1133.7 -0.280996 -2.98581 0
M  V30 11708 H 1131.26 -0.183749 -1.55216 0
M  V30 11709 H 1131.99 2.21569 -2.36807 0
M  V30 11710 H 1131.78 1.11433 -3.75932 0
M  V30 11711 H 1133.27 2.09366 -3.61325 0
M  V30 11712 N 1133.7 1.56767 -0.161869 0
M  V30 11713 C 1134.67 2.16299 0.758104 0
M  V30 11714 C 1135.67 1.10859 1.16478 0
M  V30 11715 O 1136.86 1.36422 1.08327 0
M  V30 11716 C 1133.99 2.73819 2.03067 0
M  V30 11717 H 1135.18 2.98938 0.239992 0
M  V30 11718 H 1132.73 1.56054 0.0876532 0
M  V30 11719 H 1133.47 1.94887 2.59209 0
M  V30 11720 H 1133.25 3.50974 1.74813 0
M  V30 11721 H 1134.74 3.19638 2.68741 0
M  V30 11722 N 1135.18 -0.111886 1.57202 0
M  V30 11723 C 1136.59 -0.668261 1.74331 0
M  V30 11724 C 1136.94 -1.79959 0.781609 0
M  V30 11725 O 1136.07 -2.16356 -0.043833 0
M  V30 11726 C 1136.66 -1.219 3.1611 0
M  V30 11727 C 1135.22 -1.7216 3.34721 0
M  V30 11728 C 1134.37 -0.624223 2.70183 0
M  V30 11729 H 1137.32 0.114081 1.58289 0
M  V30 11730 H 1137.34 -2.08858 3.18054 0
M  V30 11731 H 1136.85 -0.395381 3.86081 0
M  V30 11732 H 1134.95 -2.56976 2.69803 0
M  V30 11733 H 1135.07 -1.82615 4.42932 0
M  V30 11734 H 1133.43 -1.05958 2.31614 0
M  V30 11735 H 1134.21 0.188537 3.42782 0
M  V30 11736 N 1136.66 -1.52894 -0.382264 0
M  V30 11737 C 1137.91 -1.67933 -1.1244 0
M  V30 11738 C 1138.23 -0.425166 -1.90309 0
M  V30 11739 O 1137.5 0.560557 -1.87709 0
M  V30 11740 H 1136.08 -0.619047 -0.418079 0
M  V30 11741 H 1138.74 -1.90031 -0.432928 0
M  V30 11742 H 1137.84 -2.53285 -1.82355 0
M  V30 11743 N 1138.14 0.641106 -1.43971 0
M  V30 11744 C 1139.05 1.78239 -1.52538 0
M  V30 11745 C 1140.06 1.6906 -0.411668 0
M  V30 11746 O 1141.24 1.90014 -0.66757 0
M  V30 11747 C 1138.3 3.14579 -1.45743 0
M  V30 11748 C 1137.37 3.35464 -2.67885 0
M  V30 11749 C 1136.6 4.65299 -2.61404 0
M  V30 11750 O 1136.82 5.45451 -1.66851 0
M  V30 11751 O 1135.76 4.8817 -3.521 0
M  V30 11752 H 1139.58 1.73965 -2.48937 0
M  V30 11753 H 1137.17 0.801098 -1.26106 0
M  V30 11754 H 1139.05 3.95873 -1.4444 0
M  V30 11755 H 1137.72 3.19417 -0.524837 0
M  V30 11756 H 1136.63 2.53888 -2.74758 0
M  V30 11757 H 1137.96 3.35481 -3.60157 0
M  V30 11758 N 1139.62 1.30703 0.880598 0
M  V30 11759 C 1141.03 1.17818 1.4483 0
M  V30 11760 C 1141.38 -0.219456 1.94969 0
M  V30 11761 O 1140.5 -1.11646 1.85375 0
M  V30 11762 C 1141.1 2.13275 2.63247 0
M  V30 11763 C 1139.66 2.04356 3.16094 0
M  V30 11764 C 1138.8 2.03108 1.88792 0
M  V30 11765 H 1141.75 1.42909 0.690125 0
M  V30 11766 H 1141.78 1.71615 3.39601 0
M  V30 11767 H 1141.29 3.14988 2.26725 0
M  V30 11768 H 1139.39 1.058 3.57263 0
M  V30 11769 H 1139.5 2.92953 3.79098 0
M  V30 11770 H 1137.87 1.47971 2.07308 0
M  V30 11771 H 1138.65 3.06558 1.54521 0
M  V30 11772 N 1141.09 -1.09351 1.1349 0
M  V30 11773 C 1142.34 -1.81185 0.89535 0
M  V30 11774 C 1142.66 -1.86173 -0.580048 0
M  V30 11775 O 1141.93 -1.34784 -1.42162 0
M  V30 11776 H 1140.51 -0.671011 0.328257 0
M  V30 11777 H 1143.17 -1.32255 1.43159 0
M  V30 11778 H 1142.27 -2.84339 1.28676 0
M  V30 11779 N 1142.57 -0.928524 -1.27343 0
M  V30 11780 C 1143.82 -0.579726 -1.94963 0
M  V30 11781 C 1144.17 0.869595 -1.71627 0
M  V30 11782 O 1143.47 1.61223 -1.03526 0
M  V30 11783 C 1143.66 -0.84269 -3.47323 0
M  V30 11784 C 1143.49 -2.31602 -3.85474 0
M  V30 11785 C 1142.26 -2.96888 -4.08884 0
M  V30 11786 C 1144.46 -3.2936 -3.95002 0
M  V30 11787 N 1142.44 -4.34365 -4.33821 0
M  V30 11788 C 1143.81 -4.5205 -4.24324 0
M  V30 11789 C 1145.86 -3.24557 -3.7758 0
M  V30 11790 C 1144.57 -5.70539 -4.38038 0
M  V30 11791 C 1146.59 -4.4236 -3.9252 0
M  V30 11792 C 1145.96 -5.63828 -4.22229 0
M  V30 11793 H 1142.05 -0.262279 -0.736705 0
M  V30 11794 H 1144.64 -1.19531 -1.53689 0
M  V30 11795 H 1142.81 -0.256254 -3.87554 0
M  V30 11796 H 1144.54 -0.456438 -4.02118 0
M  V30 11797 H 1141.3 -2.47555 -4.03749 0
M  V30 11798 H 1141.72 -5.05488 -4.50345 0
M  V30 11799 H 1146.36 -2.31713 -3.53651 0
M  V30 11800 H 1144.08 -6.63849 -4.60793 0
M  V30 11801 H 1147.67 -4.40162 -3.80458 0
M  V30 11802 H 1146.55 -6.53463 -4.33539 0
M  V30 11803 N 1144.05 1.41491 -0.694123 0
M  V30 11804 C 1144.98 2.28189 0.0226347 0
M  V30 11805 C 1145.96 1.42152 0.7894 0
M  V30 11806 O 1147.14 1.71581 0.780519 0
M  V30 11807 C 1144.27 3.22357 1.03942 0
M  V30 11808 C 1143.32 4.24927 0.365994 0
M  V30 11809 S 1144.15 5.28043 -0.890562 0
M  V30 11810 C 1145.31 6.25776 0.124665 0
M  V30 11811 H 1145.54 2.88631 -0.712698 0
M  V30 11812 H 1143.07 1.46607 -0.484344 0
M  V30 11813 H 1145.03 3.77143 1.62091 0
M  V30 11814 H 1143.69 2.61013 1.74732 0
M  V30 11815 H 1142.88 4.9108 1.13388 0
M  V30 11816 H 1142.49 3.73729 -0.142389 0
M  V30 11817 H 1144.78 6.70398 0.978393 0
M  V30 11818 H 1145.72 7.06312 -0.502901 0
M  V30 11819 H 1146.13 5.62466 0.478792 0
M  V30 11820 N 1145.53 0.438773 1.51369 0
M  V30 11821 C 1146.78 -0.126962 2.01701 0
M  V30 11822 C 1147.1 -1.43086 1.32481 0
M  V30 11823 O 1146.37 -1.90427 0.459823 0
M  V30 11824 H 1144.95 -0.0499092 0.745331 0
M  V30 11825 H 1147.61 0.581808 1.86013 0
M  V30 11826 H 1146.7 -0.301836 3.10637 0
M  V30 11827 N 1147.01 -1.56678 0.170181 0
M  V30 11828 C 1148.42 -1.58512 -0.185999 0
M  V30 11829 C 1148.62 -1.18548 -1.62937 0
M  V30 11830 O 1147.68 -0.896554 -2.36047 0
M  V30 11831 C 1148.99 -3.00554 0.0937842 0
M  V30 11832 C 1150.54 -3.12984 0.0319057 0
M  V30 11833 C 1151.01 -4.57115 0.284664 0
M  V30 11834 N 1152.5 -4.62617 0.2324 0
M  V30 11835 C 1153.24 -5.71988 0.40216 0
M  V30 11836 N 1152.74 -6.89921 0.630915 0
M  V30 11837 N 1154.53 -5.61082 0.338144 0
M  V30 11838 H 1146.68 -1.80944 1.11235 0
M  V30 11839 H 1148.94 -0.838586 0.442128 0
M  V30 11840 H 1148.65 -3.34265 1.09362 0
M  V30 11841 H 1148.52 -3.72151 -0.615118 0
M  V30 11842 H 1150.91 -2.791 -0.958502 0
M  V30 11843 H 1150.99 -2.43825 0.773501 0
M  V30 11844 H 1150.63 -4.91707 1.27227 0
M  V30 11845 H 1150.56 -5.2443 -0.477529 0
M  V30 11846 H 1153.06 -3.7785 0.0611933 0
M  V30 11847 H 1153.37 -7.69153 0.749931 0
M  V30 11848 H 1151.71 -6.91787 0.667516 0
M  V30 11849 H 1154.9 -4.67826 0.16003 0
M  V30 11850 H 1155.08 -6.46265 0.473872 0
M  V30 11851 N 1148.48 0.103547 -1.57259 0
M  V30 11852 C 1149.41 1.12714 -2.04494 0
M  V30 11853 C 1150.39 1.42278 -0.932255 0
M  V30 11854 O 1151.58 1.52453 -1.20298 0
M  V30 11855 C 1148.71 2.44927 -2.46228 0
M  V30 11856 C 1147.66 2.2979 -3.61082 0
M  V30 11857 C 1146.99 3.67105 -3.88765 0
M  V30 11858 C 1148.29 1.7455 -4.9227 0
M  V30 11859 H 1149.98 0.734198 -2.90258 0
M  V30 11860 H 1147.53 0.351725 -1.39638 0
M  V30 11861 H 1149.48 3.16798 -2.77879 0
M  V30 11862 H 1148.21 2.8614 -1.57453 0
M  V30 11863 H 1146.87 1.60366 -3.29664 0
M  V30 11864 H 1146.51 4.05831 -2.97171 0
M  V30 11865 H 1146.21 3.57825 -4.66084 0
M  V30 11866 H 1147.74 4.40456 -4.22884 0
M  V30 11867 H 1149.15 2.36253 -5.22358 0
M  V30 11868 H 1147.55 1.76051 -5.73695 0
M  V30 11869 H 1148.62 0.704242 -4.79759 0
M  V30 11870 N 1149.96 1.53094 0.37415 0
M  V30 11871 C 1151.21 1.70059 1.11586 0
M  V30 11872 C 1151.56 0.442567 1.87241 0
M  V30 11873 O 1150.86 -0.564198 1.83105 0
M  V30 11874 C 1151.05 2.88432 2.11049 0
M  V30 11875 C 1150.88 4.25625 1.45166 0
M  V30 11876 C 1149.65 4.90613 1.20942 0
M  V30 11877 C 1151.85 5.06472 0.893887 0
M  V30 11878 N 1149.83 6.11751 0.513196 0
M  V30 11879 C 1151.2 6.19139 0.326549 0
M  V30 11880 C 1153.25 4.91565 0.791739 0
M  V30 11881 C 1151.96 7.18529 -0.332963 0
M  V30 11882 C 1153.98 5.9122 0.146023 0
M  V30 11883 C 1153.35 7.03203 -0.410477 0
M  V30 11884 H 1149.44 0.675625 0.39377 0
M  V30 11885 H 1152.03 1.90475 0.403383 0
M  V30 11886 H 1150.2 2.6957 2.79619 0
M  V30 11887 H 1151.93 2.94261 2.77835 0
M  V30 11888 H 1148.69 4.49604 1.48841 0
M  V30 11889 H 1149.11 6.76759 0.180695 0
M  V30 11890 H 1153.75 4.05183 1.20776 0
M  V30 11891 H 1151.47 8.04509 -0.76096 0
M  V30 11892 H 1155.06 5.8176 0.0680321 0
M  V30 11893 H 1153.94 7.78993 -0.90223 0
M  V30 11894 N 1151.44 -0.633461 1.44309 0
M  V30 11895 C 1152.69 -1.39513 1.47187 0
M  V30 11896 C 1153.02 -1.93926 0.103186 0
M  V30 11897 O 1152.29 -1.73512 -0.878853 0
M  V30 11898 C 1152.58 -2.56213 2.53036 0
M  V30 11899 C 1152.43 -2.07164 3.99253 0
M  V30 11900 C 1153.75 -3.58403 2.55412 0
M  V30 11901 H 1150.87 -0.505936 0.535908 0
M  V30 11902 H 1153.51 -0.716445 1.75975 0
M  V30 11903 H 1151.66 -3.14111 2.28619 0
M  V30 11904 H 1153.33 -1.54115 4.34795 0
M  V30 11905 H 1151.57 -1.38367 4.11141 0
M  V30 11906 H 1152.25 -2.91172 4.6896 0
M  V30 11907 H 1154.72 -3.103 2.77224 0
M  V30 11908 H 1153.6 -4.37581 3.31382 0
M  V30 11909 H 1153.86 -4.12316 1.59523 0
M  V30 11910 N 1152.92 -1.31168 -0.873655 0
M  V30 11911 C 1154.15 -1.23595 -1.65927 0
M  V30 11912 C 1154.56 0.199349 -1.87745 0
M  V30 11913 O 1153.92 1.13013 -1.43298 0
M  V30 11914 C 1153.97 -1.97268 -3.02932 0
M  V30 11915 O 1153.69 -3.35196 -2.82091 0
M  V30 11916 C 1155.19 -1.9649 -3.97374 0
M  V30 11917 H 1152.41 -0.427228 -0.517414 0
M  V30 11918 H 1154.96 -1.72983 -1.09074 0
M  V30 11919 H 1153.11 -1.51651 -3.56484 0
M  V30 11920 H 1153.52 -3.7266 -3.69087 0
M  V30 11921 H 1155 -2.52557 -4.90835 0
M  V30 11922 H 1155.48 -0.946525 -4.28879 0
M  V30 11923 H 1156.08 -2.4197 -3.49758 0
M  V30 11924 N 1154.4 1.08748 -1.14068 0
M  V30 11925 C 1155.64 1.81065 -0.906738 0
M  V30 11926 C 1155.97 1.86057 0.566844 0
M  V30 11927 O 1155.23 1.32976 1.43582 0
M  V30 11928 C 1155.53 3.26734 -1.44843 0
M  V30 11929 C 1155.19 3.41866 -2.94005 0
M  V30 11930 C 1153.85 3.45703 -3.34729 0
M  V30 11931 C 1156.21 3.45831 -3.89937 0
M  V30 11932 C 1153.53 3.51092 -4.70055 0
M  V30 11933 C 1155.89 3.52755 -5.25116 0
M  V30 11934 C 1154.55 3.54863 -5.65357 0
M  V30 11935 H 1153.82 0.662564 -0.331799 0
M  V30 11936 H 1156.47 1.28065 -1.42378 0
M  V30 11937 H 1154.77 3.82419 -0.852239 0
M  V30 11938 H 1156.47 3.81236 -1.2434 0
M  V30 11939 H 1153.06 3.39568 -2.61518 0
M  V30 11940 H 1157.24 3.421 -3.59557 0
M  V30 11941 H 1152.5 3.51015 -5.00598 0
M  V30 11942 H 1156.67 3.54768 -5.9926 0
M  V30 11943 H 1154.3 3.58792 -6.70203 0
M  V30 11944 N 1155.87 0.935264 1.26849 0
M  V30 11945 C 1157.1 0.595704 1.98661 0
M  V30 11946 C 1157.52 -0.821001 1.69237 0
M  V30 11947 O 1156.88 -1.55211 0.936982 0
M  V30 11948 C 1156.93 0.837275 3.50745 0
M  V30 11949 O 1156.03 -0.0934914 4.12294 0
M  V30 11950 H 1155.38 0.228512 0.623441 0
M  V30 11951 H 1157.91 1.25658 1.61466 0
M  V30 11952 H 1157.92 0.755827 4.00938 0
M  V30 11953 H 1156.59 1.86993 3.71492 0
M  V30 11954 H 1155.17 0.0385124 3.7288 0
M  V30 11955 N 1157.35 -1.41121 0.701616 0
M  V30 11956 C 1158.6 -2.00733 0.234682 0
M  V30 11957 C 1158.92 -1.55869 -1.17174 0
M  V30 11958 O 1158.19 -0.791965 -1.79178 0
M  V30 11959 H 1156.77 -0.742288 0.0837745 0
M  V30 11960 H 1159.43 -1.7266 0.904127 0
M  V30 11961 H 1158.53 -3.11041 0.256831 0
M  V30 11962 N 1158.83 -0.446794 -1.51134 0
M  V30 11963 C 1159.78 0.359865 -2.27977 0
M  V30 11964 C 1160.75 1.0086 -1.31972 0
M  V30 11965 O 1161.93 1.02569 -1.60886 0
M  V30 11966 C 1159.07 1.44978 -3.1317 0
M  V30 11967 C 1158.19 0.818243 -4.2418 0
M  V30 11968 C 1157.32 1.884 -4.96668 0
M  V30 11969 C 1156.36 1.2314 -5.99586 0
M  V30 11970 N 1155.5 2.23894 -6.65444 0
M  V30 11971 H 1160.34 -0.301775 -2.96468 0
M  V30 11972 H 1157.87 -0.160666 -1.4622 0
M  V30 11973 H 1159.83 2.09308 -3.60896 0
M  V30 11974 H 1158.46 2.08092 -2.46775 0
M  V30 11975 H 1157.51 0.0629889 -3.80348 0
M  V30 11976 H 1158.83 0.301885 -4.97886 0
M  V30 11977 H 1157.98 2.6037 -5.4799 0
M  V30 11978 H 1156.72 2.43411 -4.22614 0
M  V30 11979 H 1155.72 0.497215 -5.47547 0
M  V30 11980 H 1156.95 0.688505 -6.75601 0
M  V30 11981 H 1154.89 2.77967 -5.94197 0
M  V30 11982 H 1154.81 1.77176 -7.34945 0
M  V30 11983 H 1156.08 2.95318 -7.21393 0
M  V30 11984 N 1160.31 1.56586 -0.178487 0
M  V30 11985 C 1161.24 2.21313 0.744486 0
M  V30 11986 C 1162.22 1.17098 1.23377 0
M  V30 11987 O 1163.4 1.45551 1.28563 0
M  V30 11988 C 1160.53 2.8595 1.97103 0
M  V30 11989 C 1159.49 3.96266 1.61732 0
M  V30 11990 C 1158.81 4.47987 2.91911 0
M  V30 11991 C 1160.11 5.15503 0.839868 0
M  V30 11992 H 1161.81 2.98698 0.204938 0
M  V30 11993 H 1159.35 1.43672 0.0971306 0
M  V30 11994 H 1161.31 3.29909 2.6218 0
M  V30 11995 H 1160.03 2.05946 2.53484 0
M  V30 11996 H 1158.69 3.52974 0.990208 0
M  V30 11997 H 1158.34 3.64765 3.46346 0
M  V30 11998 H 1158.04 5.22413 2.68995 0
M  V30 11999 H 1159.56 4.94637 3.58004 0
M  V30 12000 H 1160.98 5.5611 1.39337 0
M  V30 12001 H 1159.37 5.95891 0.709473 0
M  V30 12002 H 1160.44 4.84628 -0.162396 0
M  V30 12003 N 1161.79 -0.095206 1.57312 0
M  V30 12004 C 1163.2 -0.449411 1.53142 0
M  V30 12005 C 1163.4 -1.80523 0.895187 0
M  V30 12006 O 1162.46 -2.47746 0.487649 0
M  V30 12007 C 1163.77 -0.412002 2.97864 0
M  V30 12008 C 1165.32 -0.493866 3.09079 0
M  V30 12009 C 1165.79 -0.486606 4.55408 0
M  V30 12010 N 1167.29 -0.547363 4.59955 0
M  V30 12011 C 1168.02 -0.563582 5.70624 0
M  V30 12012 N 1167.52 -0.536015 6.90723 0
M  V30 12013 N 1169.31 -0.608385 5.58798 0
M  V30 12014 H 1161.46 0.792869 1.97047 0
M  V30 12015 H 1163.72 0.295106 0.900898 0
M  V30 12016 H 1163.43 0.517064 3.47878 0
M  V30 12017 H 1163.3 -1.23102 3.56547 0
M  V30 12018 H 1165.69 -1.41335 2.59053 0
M  V30 12019 H 1165.77 0.353286 2.53349 0
M  V30 12020 H 1165.42 0.428935 5.06086 0
M  V30 12021 H 1165.35 -1.35097 5.08976 0
M  V30 12022 H 1167.84 -0.573867 3.73517 0
M  V30 12023 H 1168.15 -0.551671 7.70828 0
M  V30 12024 H 1166.49 -0.503064 6.93177 0
M  V30 12025 H 1169.69 -0.627451 4.63876 0
M  V30 12026 H 1169.86 -0.617556 6.45051 0
M  V30 12027 N 1163.26 -1.53291 -0.366026 0
M  V30 12028 C 1164.68 -1.43053 -0.707669 0
M  V30 12029 C 1164.88 -0.56925 -1.93292 0
M  V30 12030 O 1163.94 -0.0515214 -2.52447 0
M  V30 12031 C 1165.25 -2.86239 -0.921292 0
M  V30 12032 C 1166.8 -2.95868 -1.02133 0
M  V30 12033 C 1167.27 -4.40114 -1.26743 0
M  V30 12034 N 1168.76 -4.43541 -1.33514 0
M  V30 12035 C 1169.5 -5.52259 -1.54264 0
M  V30 12036 N 1168.99 -6.71024 -1.72335 0
M  V30 12037 N 1170.79 -5.39836 -1.5663 0
M  V30 12038 H 1162.94 -2.07795 0.43988 0
M  V30 12039 H 1165.2 -0.938376 0.134736 0
M  V30 12040 H 1164.91 -3.51578 -0.0928042 0
M  V30 12041 H 1164.78 -3.29862 -1.82951 0
M  V30 12042 H 1167.17 -2.30683 -1.84036 0
M  V30 12043 H 1167.25 -2.5564 -0.0905097 0
M  V30 12044 H 1166.89 -5.05872 -0.453409 0
M  V30 12045 H 1166.82 -4.77914 -2.21146 0
M  V30 12046 H 1169.31 -3.57949 -1.21165 0
M  V30 12047 H 1169.63 -7.49649 -1.8774 0
M  V30 12048 H 1167.97 -6.7401 -1.69514 0
M  V30 12049 H 1171.16 -4.46017 -1.4208 0
M  V30 12050 H 1171.34 -6.24629 -1.72461 0
M  V30 12051 N 1164.74 0.6258 -1.44643 0
M  V30 12052 C 1165.99 1.38125 -1.46984 0
M  V30 12053 C 1166.3 1.95299 -0.108429 0
M  V30 12054 O 1167.51 2.71498 -0.00940005 0
M  V30 12055 C 1165.97 2.50108 -2.58793 0
M  V30 12056 C 1165.57 1.99424 -4.01166 0
M  V30 12057 C 1167.32 3.27269 -2.70361 0
M  V30 12058 C 1165.23 3.08781 -5.04389 0
M  V30 12059 H 1164.16 0.519083 -0.546872 0
M  V30 12060 H 1166.81 0.67268 -1.70726 0
M  V30 12061 H 1165.19 3.23565 -2.28302 0
M  V30 12062 H 1166.36 1.32797 -4.4125 0
M  V30 12063 H 1164.68 1.35063 -3.93887 0
M  V30 12064 H 1167.27 4.08802 -3.44652 0
M  V30 12065 H 1167.62 3.77097 -1.76362 0
M  V30 12066 H 1168.15 2.60905 -3.00289 0
M  V30 12067 H 1164.89 2.63891 -6.00035 0
M  V30 12068 H 1164.41 3.74033 -4.68892 0
M  V30 12069 H 1166.09 3.73469 -5.28328 0
M  V30 12070 N 1166.22 1.31629 0.866686 0
M  V30 12071 C 1167.47 1.21683 1.62238 0
M  V30 12072 C 1167.8 -0.223767 1.92907 0
M  V30 12073 O 1167.07 -1.15761 1.563 0
M  V30 12074 C 1167.36 2.06443 2.95048 0
M  V30 12075 C 1167.21 3.58818 2.71237 0
M  V30 12076 C 1168.53 1.91634 3.96187 0
M  V30 12077 H 1165.65 0.443389 0.588707 0
M  V30 12078 H 1168.29 1.61453 1.00164 0
M  V30 12079 H 1166.44 1.72654 3.48027 0
M  V30 12080 H 1168.11 4.0276 2.24905 0
M  V30 12081 H 1166.36 3.82085 2.05411 0
M  V30 12082 H 1167.03 4.13436 3.65752 0
M  V30 12083 H 1169.5 2.21209 3.52428 0
M  V30 12084 H 1168.38 2.53236 4.86993 0
M  V30 12085 H 1168.64 0.880564 4.33242 0
M  V30 12086 N 1167.7 -1.08142 1.14644 0
M  V30 12087 C 1168.98 -1.77254 0.827071 0
M  V30 12088 C 1169.36 -1.99885 -0.67891 0
M  V30 12089 O 1168.7 -1.61084 -1.62062 0
M  V30 12090 C 1168.91 -3.08658 1.62884 0
M  V30 12091 C 1170.26 -3.83143 1.82993 0
M  V30 12092 O 1171.29 -3.18447 1.59593 0
M  V30 12093 O 1170.15 -4.9932 2.2213 0
M  V30 12094 H 1167.24 -0.769356 0.30335 0
M  V30 12095 H 1169.79 -1.1458 1.25178 0
M  V30 12096 H 1168.56 -2.87753 2.65168 0
M  V30 12097 H 1168.18 -3.79061 1.19994 0
M  V30 12098 N 1169.18 -0.941978 -1.26351 0
M  V30 12099 C 1170.4 -0.606231 -1.98342 0
M  V30 12100 C 1170.83 0.812014 -1.6967 0
M  V30 12101 O 1170.19 1.54712 -0.9452 0
M  V30 12102 C 1170.23 -0.855864 -3.50296 0
M  V30 12103 O 1169.34 0.0716251 -4.12338 0
M  V30 12104 H 1168.68 -0.231815 -0.62222 0
M  V30 12105 H 1171.21 -1.26513 -1.60797 0
M  V30 12106 H 1171.22 -0.777079 -4.00531 0
M  V30 12107 H 1169.89 -1.8896 -3.70496 0
M  V30 12108 H 1168.47 -0.0582866 -3.72854 0
M  V30 12109 N 1170.66 1.40747 -0.709091 0
M  V30 12110 C 1171.6 2.30741 -0.0523584 0
M  V30 12111 C 1172.57 1.4784 0.757145 0
M  V30 12112 O 1173.76 1.76595 0.72242 0
M  V30 12113 C 1170.9 3.34 0.868203 0
M  V30 12114 C 1170.01 4.31972 0.0488686 0
M  V30 12115 C 1169.15 5.223 0.968311 0
M  V30 12116 C 1168.18 6.11934 0.142682 0
M  V30 12117 N 1167.32 6.947 1.01665 0
M  V30 12118 H 1172.16 2.86338 -0.825509 0
M  V30 12119 H 1169.7 1.41013 -0.418785 0
M  V30 12120 H 1171.66 3.92431 1.41611 0
M  V30 12121 H 1170.29 2.79921 1.6076 0
M  V30 12122 H 1169.34 3.75377 -0.616137 0
M  V30 12123 H 1170.65 4.95291 -0.590625 0
M  V30 12124 H 1169.8 5.85631 1.58498 0
M  V30 12125 H 1168.54 4.5924 1.64164 0
M  V30 12126 H 1167.55 5.47639 -0.486965 0
M  V30 12127 H 1168.77 6.77052 -0.527046 0
M  V30 12128 H 1166.72 6.34236 1.67575 0
M  V30 12129 H 1166.64 7.54759 0.433045 0
M  V30 12130 H 1167.9 7.62487 1.6197 0
M  V30 12131 N 1172.13 0.454803 1.50895 0
M  V30 12132 C 1173.36 -0.103785 2.06339 0
M  V30 12133 C 1173.77 -1.35494 1.32053 0
M  V30 12134 O 1173.11 -1.79758 0.37852 0
M  V30 12135 C 1173.18 -0.474076 3.5636 0
M  V30 12136 C 1172.84 0.672736 4.52021 0
M  V30 12137 C 1173.84 1.55003 4.96256 0
M  V30 12138 C 1171.52 0.858435 4.9491 0
M  V30 12139 C 1173.52 2.59757 5.82069 0
M  V30 12140 C 1171.2 1.90922 5.8051 0
M  V30 12141 C 1172.2 2.77717 6.23989 0
M  V30 12142 O 1171.89 3.80989 7.07886 0
M  V30 12143 H 1171.62 -0.0035531 0.675991 0
M  V30 12144 H 1174.18 0.637816 1.95246 0
M  V30 12145 H 1172.41 -1.26863 3.65298 0
M  V30 12146 H 1174.09 -0.965845 3.94241 0
M  V30 12147 H 1174.86 1.41818 4.63802 0
M  V30 12148 H 1170.74 0.192384 4.60598 0
M  V30 12149 H 1174.28 3.27535 6.15927 0
M  V30 12150 H 1170.18 2.04121 6.12376 0
M  V30 12151 H 1170.95 3.7778 7.26102 0
M  V30 12152 N 1173.61 -1.56489 0.186789 0
M  V30 12153 C 1174.86 -1.97341 -0.454158 0
M  V30 12154 C 1175.19 -1.07337 -1.622 0
M  V30 12155 O 1174.44 -0.1107 -1.95387 0
M  V30 12156 C 1174.74 -3.44145 -0.964315 0
M  V30 12157 C 1174.41 -4.50812 0.0892734 0
M  V30 12158 C 1173.07 -4.79707 0.378794 0
M  V30 12159 C 1175.42 -5.14968 0.8036 0
M  V30 12160 C 1172.75 -5.70051 1.38776 0
M  V30 12161 C 1175.1 -6.06402 1.80166 0
M  V30 12162 C 1173.76 -6.33657 2.09847 0
M  V30 12163 H 1173.03 -0.722124 -0.166188 0
M  V30 12164 H 1175.68 -1.89412 0.282008 0
M  V30 12165 H 1173.99 -3.49103 -1.7786 0
M  V30 12166 H 1175.68 -3.73104 -1.4695 0
M  V30 12167 H 1172.27 -4.28349 -0.146552 0
M  V30 12168 H 1176.46 -4.92743 0.593147 0
M  V30 12169 H 1171.71 -5.89445 1.62373 0
M  V30 12170 H 1175.89 -6.55176 2.36045 0
M  V30 12171 H 1173.51 -7.03462 2.88175 0
M  V30 12172 N 1175.09 0.086862 -1.5736 0
M  V30 12173 C 1176.31 0.806017 -1.91097 0
M  V30 12174 C 1176.74 1.71082 -0.78183 0
M  V30 12175 O 1176.1 1.79335 0.266175 0
M  V30 12176 C 1176.15 1.5884 -3.23732 0
M  V30 12177 O 1175.25 2.69798 -3.11902 0
M  V30 12178 H 1174.59 0.220899 -0.626179 0
M  V30 12179 H 1177.12 0.059619 -2.04513 0
M  V30 12180 H 1177.13 1.97088 -3.5724 0
M  V30 12181 H 1175.81 0.924426 -4.05496 0
M  V30 12182 H 1174.38 2.34519 -2.89923 0
M  V30 12183 N 1176.57 1.53483 0.357892 0
M  V30 12184 C 1177.98 1.43426 0.700073 0
M  V30 12185 C 1178.18 0.579493 1.92987 0
M  V30 12186 O 1177.24 0.0649086 2.52417 0
M  V30 12187 C 1178.55 2.86723 0.906099 0
M  V30 12188 C 1180.1 2.96405 1.00563 0
M  V30 12189 C 1180.58 4.4078 1.24407 0
M  V30 12190 N 1182.07 4.44243 1.3116 0
M  V30 12191 C 1182.8 5.53069 1.51333 0
M  V30 12192 N 1182.3 6.71928 1.68774 0
M  V30 12193 N 1184.09 5.40659 1.53765 0
M  V30 12194 H 1176.24 2.07559 -0.450894 0
M  V30 12195 H 1178.5 0.937649 -0.139711 0
M  V30 12196 H 1178.21 3.51622 0.0741579 0
M  V30 12197 H 1178.08 3.30827 1.81199 0
M  V30 12198 H 1180.47 2.31656 1.8281 0
M  V30 12199 H 1180.55 2.55684 0.0769512 0
M  V30 12200 H 1180.2 5.06105 0.426575 0
M  V30 12201 H 1180.13 4.7908 2.18608 0
M  V30 12202 H 1182.62 3.58587 1.19265 0
M  V30 12203 H 1182.93 7.50634 1.83762 0
M  V30 12204 H 1181.28 6.749 1.65937 0
M  V30 12205 H 1184.47 4.46764 1.39713 0
M  V30 12206 H 1184.64 6.25535 1.69146 0
M  V30 12207 N 1178.05 -0.61812 1.44973 0
M  V30 12208 C 1179.29 -1.37468 1.48145 0
M  V30 12209 C 1179.61 -1.94628 0.120366 0
M  V30 12210 O 1178.88 -1.76548 -0.848982 0
M  V30 12211 H 1177.46 -0.510293 0.545536 0
M  V30 12212 H 1180.13 -0.726598 1.8085 0
M  V30 12213 H 1179.22 -2.19944 2.2143 0
M  V30 12214 N 1179.52 -1.32087 -0.859693 0
M  V30 12215 C 1180.77 -1.21716 -1.60836 0
M  V30 12216 C 1181.09 0.220904 -1.94349 0
M  V30 12217 O 1182.29 0.446422 -2.67805 0
M  V30 12218 C 1180.75 -2.13143 -2.89997 0
M  V30 12219 C 1180.36 -3.62003 -2.63928 0
M  V30 12220 C 1182.1 -2.11596 -3.68004 0
M  V30 12221 C 1180.01 -4.45407 -3.89059 0
M  V30 12222 H 1178.94 -0.45199 -0.603507 0
M  V30 12223 H 1181.59 -1.57013 -0.949687 0
M  V30 12224 H 1179.97 -1.70755 -3.57294 0
M  V30 12225 H 1181.14 -4.12701 -2.04974 0
M  V30 12226 H 1179.46 -3.6563 -1.99258 0
M  V30 12227 H 1182.06 -2.71149 -4.6085 0
M  V30 12228 H 1182.4 -1.10568 -4.01348 0
M  V30 12229 H 1182.93 -2.52238 -3.07605 0
M  V30 12230 H 1179.67 -5.4723 -3.60859 0
M  V30 12231 H 1179.19 -3.99462 -4.47427 0
M  V30 12232 H 1180.87 -4.58149 -4.56846 0
M  V30 12233 N 1181 1.07532 -1.15215 0
M  V30 12234 C 1181.93 2.1406 -0.7908 0
M  V30 12235 C 1182.91 1.60938 0.231922 0
M  V30 12236 O 1184.1 1.88125 0.118906 0
M  V30 12237 C 1181.22 3.38244 -0.175633 0
M  V30 12238 C 1180.27 4.10139 -1.16996 0
M  V30 12239 S 1181.1 4.61795 -2.71119 0
M  V30 12240 C 1182.26 5.89256 -2.11016 0
M  V30 12241 H 1182.49 2.44381 -1.69308 0
M  V30 12242 H 1180.02 1.19777 -0.974308 0
M  V30 12243 H 1181.98 4.10136 0.172859 0
M  V30 12244 H 1180.64 3.06104 0.704211 0
M  V30 12245 H 1179.84 4.99286 -0.687714 0
M  V30 12246 H 1179.44 3.44203 -1.46289 0
M  V30 12247 H 1181.73 6.61336 -1.47109 0
M  V30 12248 H 1182.67 6.42191 -2.98322 0
M  V30 12249 H 1183.08 5.4269 -1.55394 0
M  V30 12250 N 1182.48 0.948665 1.2585 0
M  V30 12251 C 1183.41 0.408398 2.24516 0
M  V30 12252 C 1184.39 -0.506954 1.54495 0
M  V30 12253 O 1185.58 -0.442695 1.83228 0
M  V30 12254 C 1182.7 -0.41241 3.3618 0
M  V30 12255 C 1181.75 0.442483 4.24198 0
M  V30 12256 S 1182.58 1.87106 5.01749 0
M  V30 12257 C 1183.74 1.05851 6.16884 0
M  V30 12258 H 1183.97 1.24458 2.69995 0
M  V30 12259 H 1181.5 0.752309 1.34832 0
M  V30 12260 H 1183.46 -0.880064 4.00955 0
M  V30 12261 H 1182.12 -1.22335 2.89297 0
M  V30 12262 H 1181.32 -0.186767 5.03654 0
M  V30 12263 H 1180.92 0.845113 3.64327 0
M  V30 12264 H 1183.21 0.304329 6.76816 0
M  V30 12265 H 1184.15 1.82678 6.8413 0
M  V30 12266 H 1184.56 0.591269 5.61395 0
M  V30 12267 N 1183.96 -1.40369 0.716545 0
M  V30 12268 C 1184.92 -2.29083 0.0733105 0
M  V30 12269 C 1185.92 -1.45415 -0.686378 0
M  V30 12270 O 1187.11 -1.66316 -0.518139 0
M  V30 12271 C 1184.24 -3.28639 -0.906032 0
M  V30 12272 H 1185.44 -2.87464 0.85467 0
M  V30 12273 H 1182.99 -1.48706 0.481256 0
M  V30 12274 H 1183.72 -2.75279 -1.71441 0
M  V30 12275 H 1183.51 -3.90405 -0.364163 0
M  V30 12276 H 1185 -3.95066 -1.35324 0
M  V30 12277 N 1185.44 -0.462799 -1.50652 0
M  V30 12278 C 1186.69 0.0966838 -2.01468 0
M  V30 12279 C 1187 1.41529 -1.35014 0
M  V30 12280 O 1188.2 2.05923 -1.76941 0
M  V30 12281 C 1186.66 0.222826 -3.5921 0
M  V30 12282 C 1186.27 -1.08686 -4.34616 0
M  V30 12283 C 1188.01 0.734711 -4.18094 0
M  V30 12284 C 1185.92 -0.924964 -5.84122 0
M  V30 12285 H 1184.85 0.0399078 -0.752943 0
M  V30 12286 H 1187.5 -0.596437 -1.73536 0
M  V30 12287 H 1185.88 0.979539 -3.83694 0
M  V30 12288 H 1187.06 -1.85388 -4.21862 0
M  V30 12289 H 1185.37 -1.52922 -3.87303 0
M  V30 12290 H 1187.97 0.872734 -5.2753 0
M  V30 12291 H 1188.31 1.72389 -3.7893 0
M  V30 12292 H 1188.84 0.0356139 -3.97784 0
M  V30 12293 H 1185.58 -1.88727 -6.27744 0
M  V30 12294 H 1185.1 -0.198181 -5.99473 0
M  V30 12295 H 1186.78 -0.588262 -6.4432 0
M  V30 12296 N 1186.91 1.56388 -0.195085 0
M  V30 12297 C 1187.84 2.22091 0.720971 0
M  V30 12298 C 1188.83 1.184 1.22128 0
M  V30 12299 O 1190.01 1.46907 1.27012 0
M  V30 12300 C 1187.14 2.88025 1.94059 0
M  V30 12301 C 1186.09 3.97959 1.5752 0
M  V30 12302 C 1185.42 4.51058 2.87143 0
M  V30 12303 C 1186.72 5.16365 0.785145 0
M  V30 12304 H 1188.41 2.98898 0.173245 0
M  V30 12305 H 1185.96 1.43767 0.0818868 0
M  V30 12306 H 1187.91 3.32671 2.58666 0
M  V30 12307 H 1186.64 2.08623 2.51285 0
M  V30 12308 H 1185.3 3.54004 0.952715 0
M  V30 12309 H 1184.94 3.68418 3.42458 0
M  V30 12310 H 1184.64 5.25237 2.63439 0
M  V30 12311 H 1186.17 4.98406 3.52738 0
M  V30 12312 H 1187.58 5.57556 1.33431 0
M  V30 12313 H 1185.98 5.9661 0.646231 0
M  V30 12314 H 1187.05 4.84428 -0.213789 0
M  V30 12315 N 1188.39 -0.0785156 1.57404 0
M  V30 12316 C 1189.64 -0.780092 1.87196 0
M  V30 12317 C 1189.97 -1.77562 0.78647 0
M  V30 12318 O 1189.25 -1.93428 -0.203935 0
M  V30 12319 C 1189.53 -1.49408 3.27642 0
M  V30 12320 C 1189.38 -0.515416 4.46837 0
M  V30 12321 C 1190.7 -2.44064 3.66225 0
M  V30 12322 H 1187.82 -0.282134 0.680859 0
M  V30 12323 H 1190.46 -0.0433926 1.8995 0
M  V30 12324 H 1188.61 -2.12205 3.25425 0
M  V30 12325 H 1190.28 0.106827 4.61176 0
M  V30 12326 H 1188.53 0.169832 4.33467 0
M  V30 12327 H 1189.2 -1.05247 5.41874 0
M  V30 12328 H 1191.67 -1.91349 3.69493 0
M  V30 12329 H 1190.55 -2.91029 4.65396 0
M  V30 12330 H 1190.81 -3.28569 2.95796 0
M  V30 12331 N 1189.87 -1.5367 -0.349747 0
M  V30 12332 C 1190.82 -1.81914 -1.44948 0
M  V30 12333 C 1191.81 -0.689218 -1.54745 0
M  V30 12334 O 1193.02 -0.872448 -1.57443 0
M  V30 12335 H 1189.39 -0.576234 -0.483176 0
M  V30 12336 H 1191.36 -2.73932 -1.18338 0
M  V30 12337 C 1190.11 -2.04005 -2.81562 0
M  V30 12338 H 1189.44 -2.90399 -2.74788 0
M  V30 12339 H 1190.88 -2.27737 -3.57648 0
M  V30 12340 C 1189.34 -0.823748 -3.26674 0
M  V30 12341 O 1189.87 -0.0201351 -4.01695 0
M  V30 12342 N 1188.07 -0.642716 -2.83403 0
M  V30 12343 H 1187.62 -1.29783 -2.22517 0
M  V30 12344 H 1187.58 0.169654 -3.13942 0
M  V30 12345 N 1191.35 0.610423 -1.45298 0
M  V30 12346 C 1192.58 1.39621 -1.52688 0
M  V30 12347 C 1192.99 1.88133 -0.158535 0
M  V30 12348 O 1192.35 1.62051 0.839396 0
M  V30 12349 C 1192.4 2.60261 -2.50891 0
M  V30 12350 O 1192.12 2.13766 -3.82408 0
M  V30 12351 C 1193.62 3.53154 -2.6795 0
M  V30 12352 H 1190.84 0.427493 -0.517195 0
M  V30 12353 H 1193.39 0.744701 -1.90459 0
M  V30 12354 H 1191.54 3.2146 -2.162 0
M  V30 12355 H 1191.95 2.92128 -4.35616 0
M  V30 12356 H 1193.43 4.34355 -3.40647 0
M  V30 12357 H 1193.91 4.03311 -1.73888 0
M  V30 12358 H 1194.51 2.9781 -3.03627 0
M  V30 12359 N 1192.83 1.32541 0.852676 0
M  V30 12360 C 1193.76 1.24254 1.97694 0
M  V30 12361 C 1194.74 0.125971 1.69633 0
M  V30 12362 O 1195.92 0.31347 1.91653 0
M  V30 12363 C 1193.05 0.966874 3.3357 0
M  V30 12364 C 1192.01 2.0449 3.75989 0
M  V30 12365 C 1191.33 1.6216 5.09518 0
M  V30 12366 C 1192.63 3.46013 3.91244 0
M  V30 12367 H 1194.33 2.18317 2.04886 0
M  V30 12368 H 1191.87 1.05101 0.984371 0
M  V30 12369 H 1193.83 0.895444 4.11776 0
M  V30 12370 H 1192.55 -0.0093893 3.26599 0
M  V30 12371 H 1191.21 2.10651 3.00036 0
M  V30 12372 H 1190.86 0.632729 4.99005 0
M  V30 12373 H 1190.56 2.3429 5.38871 0
M  V30 12374 H 1192.08 1.56457 5.90215 0
M  V30 12375 H 1193.49 3.4243 4.59799 0
M  V30 12376 H 1191.89 4.1651 4.32017 0
M  V30 12377 H 1192.96 3.8553 2.941 0
M  V30 12378 N 1194.3 -1.0692 1.15784 0
M  V30 12379 C 1195.53 -1.83849 0.959903 0
M  V30 12380 C 1195.95 -1.8169 -0.486873 0
M  V30 12381 O 1195.31 -1.21305 -1.34739 0
M  V30 12382 C 1195.36 -3.28642 1.48414 0
M  V30 12383 O 1194.46 -4.0665 0.686249 0
M  V30 12384 H 1193.81 -0.569115 0.342059 0
M  V30 12385 H 1196.34 -1.34851 1.53871 0
M  V30 12386 H 1196.35 -3.7947 1.49888 0
M  V30 12387 H 1195.02 -3.29529 2.53739 0
M  V30 12388 H 1193.6 -3.65453 0.741501 0
M  V30 12389 N 1195.78 -0.955326 -1.25345 0
M  V30 12390 C 1196.72 -0.420299 -2.24296 0
M  V30 12391 C 1197.69 0.498753 -1.54762 0
M  V30 12392 O 1198.88 0.432971 -1.8346 0
M  V30 12393 C 1196 0.394576 -3.36394 0
M  V30 12394 C 1195.05 -0.464973 -4.23958 0
M  V30 12395 S 1195.88 -1.89764 -5.00749 0
M  V30 12396 C 1197.04 -1.09121 -6.16314 0
M  V30 12397 H 1197.27 -1.25888 -2.69331 0
M  V30 12398 H 1194.81 -0.759449 -1.34431 0
M  V30 12399 H 1196.76 0.858788 -4.01416 0
M  V30 12400 H 1195.42 1.20799 -2.89942 0
M  V30 12401 H 1194.62 0.160055 -5.03746 0
M  V30 12402 H 1194.22 -0.864422 -3.63873 0
M  V30 12403 H 1196.51 -0.340218 -6.76645 0
M  V30 12404 H 1197.45 -1.86304 -6.83152 0
M  V30 12405 H 1197.86 -0.621033 -5.61073 0
M  V30 12406 N 1197.26 1.39987 -0.723979 0
M  V30 12407 C 1198.51 2.00334 -0.266587 0
M  V30 12408 C 1198.83 1.57714 1.14679 0
M  V30 12409 O 1198.1 0.82037 1.77895 0
M  V30 12410 H 1196.68 0.740861 -0.095573 0
M  V30 12411 H 1199.34 1.712 -0.931481 0
M  V30 12412 H 1198.44 3.10594 -0.306282 0
M  V30 12413 N 1198.74 0.470782 1.50404 0
M  V30 12414 C 1199.99 -0.0844409 2.02624 0
M  V30 12415 C 1200.32 -1.39398 1.3521 0
M  V30 12416 O 1199.59 -1.88542 0.477707 0
M  V30 12417 C 1199.88 -0.268563 3.59097 0
M  V30 12418 C 1199.73 1.06198 4.37084 0
M  V30 12419 C 1201.05 -1.02324 4.28039 0
M  V30 12420 H 1198.17 -0.0292141 0.736421 0
M  V30 12421 H 1200.81 0.616312 1.79726 0
M  V30 12422 H 1198.96 -0.865441 3.78738 0
M  V30 12423 H 1200.63 1.69541 4.29015 0
M  V30 12424 H 1198.87 1.65868 4.00837 0
M  V30 12425 H 1199.55 0.886795 5.4483 0
M  V30 12426 H 1202.02 -0.517325 4.12872 0
M  V30 12427 H 1200.9 -1.12087 5.37334 0
M  V30 12428 H 1201.16 -2.05974 3.91187 0
M  V30 12429 N 1200.22 -1.56282 0.203376 0
M  V30 12430 C 1201.13 -2.23086 -0.725922 0
M  V30 12431 C 1202.14 -1.23258 -1.22814 0
M  V30 12432 O 1203.32 -1.5602 -1.27357 0
M  V30 12433 C 1200.38 -2.88358 -1.92485 0
M  V30 12434 C 1199.45 -4.03479 -1.46639 0
M  V30 12435 C 1198.68 -4.65629 -2.60816 0
M  V30 12436 O 1198.9 -4.2672 -3.78506 0
M  V30 12437 O 1197.84 -5.54949 -2.33056 0
M  V30 12438 H 1201.66 -3.03124 -0.18694 0
M  V30 12439 H 1199.25 -1.49377 -0.0262829 0
M  V30 12440 H 1201.13 -3.29623 -2.62539 0
M  V30 12441 H 1199.8 -2.11294 -2.45228 0
M  V30 12442 H 1198.71 -3.66821 -0.734396 0
M  V30 12443 H 1200.04 -4.82232 -0.985535 0
M  V30 12444 N 1201.7 0.070167 -1.57444 0
M  V30 12445 C 1202.93 0.78076 -1.91279 0
M  V30 12446 C 1203.33 1.71559 -0.797754 0
M  V30 12447 O 1202.68 1.82156 0.237665 0
M  V30 12448 C 1202.74 1.62664 -3.20594 0
M  V30 12449 C 1202.4 0.861007 -4.48816 0
M  V30 12450 C 1203.4 0.179522 -5.1959 0
M  V30 12451 C 1201.08 0.8277 -4.95434 0
M  V30 12452 C 1203.08 -0.525024 -6.35234 0
M  V30 12453 C 1200.77 0.119382 -6.10983 0
M  V30 12454 C 1201.76 -0.555778 -6.80735 0
M  V30 12455 O 1201.45 -1.25268 -7.9408 0
M  V30 12456 H 1201.18 0.227053 -0.636728 0
M  V30 12457 H 1203.74 0.0442334 -2.05352 0
M  V30 12458 H 1201.97 2.40601 -3.02734 0
M  V30 12459 H 1203.66 2.21606 -3.40067 0
M  V30 12460 H 1204.42 0.19655 -4.84602 0
M  V30 12461 H 1200.3 1.34268 -4.41014 0
M  V30 12462 H 1203.85 -1.05257 -6.89613 0
M  V30 12463 H 1199.74 0.100287 -6.45422 0
M  V30 12464 H 1200.51 -1.16212 -8.10208 0
M  V30 12465 N 1203.17 1.53854 0.341593 0
M  V30 12466 C 1204.12 1.7836 1.42028 0
M  V30 12467 C 1205.11 0.638876 1.47673 0
M  V30 12468 O 1206.3 0.898328 1.52509 0
M  V30 12469 C 1203.43 1.99837 2.79142 0
M  V30 12470 C 1202.51 3.20379 2.77881 0
M  V30 12471 N 1202.91 4.41809 2.46249 0
M  V30 12472 C 1201.2 3.21588 3.09026 0
M  V30 12473 C 1201.9 5.23668 2.53271 0
M  V30 12474 N 1200.88 4.60429 2.88974 0
M  V30 12475 H 1204.68 2.69836 1.16472 0
M  V30 12476 H 1202.2 1.52804 0.549966 0
M  V30 12477 H 1204.19 2.15528 3.56866 0
M  V30 12478 H 1202.85 1.09603 3.05642 0
M  V30 12479 H 1203.86 4.69125 2.19413 0
M  V30 12480 H 1200.54 2.41329 3.40686 0
M  V30 12481 H 1201.93 6.30591 2.31958 0
M  V30 12482 N 1204.65 -0.602709 1.4562 0
M  V30 12483 C 1205.56 -1.74132 1.5721 0
M  V30 12484 C 1206.58 -1.67909 0.456347 0
M  V30 12485 O 1207.75 -1.88178 0.717714 0
M  V30 12486 C 1204.82 -3.10604 1.54032 0
M  V30 12487 C 1203.88 -3.28244 2.76685 0
M  V30 12488 C 1203.11 -4.58205 2.73649 0
M  V30 12489 O 1203.34 -5.40836 1.81254 0
M  V30 12490 O 1202.27 -4.78663 3.64919 0
M  V30 12491 H 1206.1 -1.67304 2.53462 0
M  V30 12492 H 1203.68 -0.767381 1.28186 0
M  V30 12493 H 1205.56 -3.91904 1.54885 0
M  V30 12494 H 1204.24 -3.17913 0.60934 0
M  V30 12495 H 1203.14 -2.46514 2.81393 0
M  V30 12496 H 1204.48 -3.25814 3.68925 0
M  V30 12497 N 1206.13 -1.32992 -0.845635 0
M  V30 12498 C 1207.06 -1.18513 -1.96182 0
M  V30 12499 C 1208.07 -0.11781 -1.62373 0
M  V30 12500 O 1209.26 -0.36761 -1.74674 0
M  V30 12501 C 1206.36 -0.793812 -3.29472 0
M  V30 12502 C 1205.54 -1.95134 -3.91461 0
M  V30 12503 C 1204.6 -1.54209 -5.03096 0
M  V30 12504 O 1203.62 -2.25545 -5.22607 0
M  V30 12505 N 1204.82 -0.443235 -5.78805 0
M  V30 12506 H 1207.59 -2.14663 -2.09141 0
M  V30 12507 H 1205.15 -1.25648 -1.02099 0
M  V30 12508 H 1207.14 -0.502263 -4.01571 0
M  V30 12509 H 1205.71 0.0768031 -3.12506 0
M  V30 12510 H 1204.93 -2.40889 -3.12035 0
M  V30 12511 H 1206.22 -2.72604 -4.2961 0
M  V30 12512 H 1205.62 0.150298 -5.655 0
M  V30 12513 H 1204.17 -0.211331 -6.51457 0
M  V30 12514 N 1207.61 1.06304 -1.1635 0
M  V30 12515 C 1209.02 1.60566 -0.952652 0
M  V30 12516 C 1209.37 1.8963 0.503473 0
M  V30 12517 O 1208.49 1.66964 1.37666 0
M  V30 12518 C 1209.09 2.9172 -1.72292 0
M  V30 12519 C 1207.65 3.42684 -1.55707 0
M  V30 12520 C 1206.8 2.16579 -1.73172 0
M  V30 12521 H 1209.75 0.892563 -1.31221 0
M  V30 12522 H 1209.77 3.61126 -1.19868 0
M  V30 12523 H 1209.28 2.70535 -2.78267 0
M  V30 12524 H 1207.38 3.68929 -0.521726 0
M  V30 12525 H 1207.49 4.18018 -2.34088 0
M  V30 12526 H 1205.86 2.26795 -1.15914 0
M  V30 12527 H 1206.64 1.97877 -2.80535 0
M  V30 12528 N 1209.09 0.96196 1.24836 0
M  V30 12529 C 1210 0.494876 2.29321 0
M  V30 12530 C 1211.01 -0.441363 1.68309 0
M  V30 12531 O 1212.19 -0.315814 1.98908 0
M  V30 12532 C 1209.25 -0.212944 3.46045 0
M  V30 12533 C 1208.31 0.762411 4.22476 0
M  V30 12534 C 1207.55 0.0882756 5.33627 0
M  V30 12535 O 1207.77 -1.12459 5.59204 0
M  V30 12536 O 1206.7 0.777529 5.96857 0
M  V30 12537 H 1210.53 1.36333 2.7138 0
M  V30 12538 H 1208.11 0.728738 1.30421 0
M  V30 12539 H 1210 -0.610805 4.1695 0
M  V30 12540 H 1208.67 -1.05645 3.05975 0
M  V30 12541 H 1207.58 1.21062 3.5397 0
M  V30 12542 H 1208.91 1.57416 4.66349 0
M  V30 12543 N 1210.56 -1.39601 0.731392 0
M  V30 12544 C 1211.47 -2.34425 0.090527 0
M  V30 12545 C 1212.49 -1.58131 -0.725992 0
M  V30 12546 O 1213.67 -1.90441 -0.655294 0
M  V30 12547 C 1210.73 -3.37138 -0.808624 0
M  V30 12548 C 1209.79 -4.29295 0.0197365 0
M  V30 12549 C 1209.02 -5.27102 -0.836593 0
M  V30 12550 O 1209.25 -5.31302 -2.07543 0
M  V30 12551 O 1208.18 -6.01307 -0.267172 0
M  V30 12552 H 1212.01 -2.9088 0.873084 0
M  V30 12553 H 1209.59 -1.41066 0.492024 0
M  V30 12554 H 1211.47 -4.00087 -1.32319 0
M  V30 12555 H 1210.15 -2.83074 -1.57006 0
M  V30 12556 H 1209.06 -3.69581 0.579744 0
M  V30 12557 H 1210.39 -4.86555 0.743308 0
M  V30 12558 N 1212.04 -0.478751 -1.50152 0
M  V30 12559 C 1212.97 0.301182 -2.31549 0
M  V30 12560 C 1213.95 0.983276 -1.38801 0
M  V30 12561 O 1215.14 0.978973 -1.67719 0
M  V30 12562 C 1212.27 1.3791 -3.18745 0
M  V30 12563 C 1211.22 0.818175 -4.20107 0
M  V30 12564 C 1210.55 1.99496 -4.9609 0
M  V30 12565 C 1211.85 -0.17574 -5.22004 0
M  V30 12566 H 1213.54 -0.378188 -2.97002 0
M  V30 12567 H 1211.09 -0.183323 -1.42828 0
M  V30 12568 H 1213.04 1.93227 -3.74488 0
M  V30 12569 H 1211.77 2.08735 -2.51192 0
M  V30 12570 H 1210.42 0.286924 -3.65475 0
M  V30 12571 H 1210.07 2.69036 -4.25004 0
M  V30 12572 H 1209.77 1.62582 -5.6466 0
M  V30 12573 H 1211.3 2.55288 -5.54671 0
M  V30 12574 H 1212.71 0.288513 -5.72574 0
M  V30 12575 H 1211.11 -0.459549 -5.98338 0
M  V30 12576 H 1212.18 -1.09911 -4.72279 0
M  V30 12577 N 1213.52 1.56172 -0.211661 0
M  V30 12578 C 1214.75 2.02428 0.427843 0
M  V30 12579 C 1215.16 1.09162 1.54043 0
M  V30 12580 O 1214.52 0.0994249 1.82229 0
M  V30 12581 C 1214.57 3.48279 0.968728 0
M  V30 12582 O 1214.29 4.37987 -0.0994841 0
M  V30 12583 C 1215.79 4.10132 1.68246 0
M  V30 12584 H 1213.01 0.662611 0.10577 0
M  V30 12585 H 1215.56 2.01897 -0.32522 0
M  V30 12586 H 1213.71 3.49456 1.6721 0
M  V30 12587 H 1214.13 5.23609 0.305558 0
M  V30 12588 H 1215.6 5.13985 2.01304 0
M  V30 12589 H 1216.08 3.54552 2.5921 0
M  V30 12590 H 1216.68 4.12775 1.02453 0
M  V30 12591 N 1215 -0.0618163 1.57479 0
M  V30 12592 C 1215.95 -1.09105 2.05424 0
M  V30 12593 C 1216.94 -1.3947 0.961479 0
M  V30 12594 O 1218.15 -1.3876 1.14655 0
M  V30 12595 H 1214.52 -0.36923 0.655113 0
M  V30 12596 H 1216.49 -0.66061 2.90996 0
M  V30 12597 C 1215.24 -2.39345 2.52209 0
M  V30 12598 H 1214.56 -2.16832 3.35893 0
M  V30 12599 H 1216 -3.09784 2.89499 0
M  V30 12600 C 1214.46 -3.06011 1.40922 0
M  V30 12601 O 1214.99 -3.94504 0.756921 0
M  V30 12602 N 1213.2 -2.66797 1.15186 0
M  V30 12603 H 1212.75 -1.94923 1.68412 0
M  V30 12604 H 1212.7 -3.11724 0.409324 0
M  V30 12605 N 1216.48 -1.54033 -0.333429 0
M  V30 12606 C 1217.44 -1.82021 -1.39288 0
M  V30 12607 C 1218.44 -0.691623 -1.45166 0
M  V30 12608 O 1219.63 -0.959925 -1.45365 0
M  V30 12609 C 1216.76 -1.97136 -2.78119 0
M  V30 12610 H 1217.95 -2.76671 -1.1573 0
M  V30 12611 H 1215.51 -1.45599 -0.568376 0
M  V30 12612 H 1216.24 -1.04663 -3.06946 0
M  V30 12613 H 1216.03 -2.79251 -2.75247 0
M  V30 12614 H 1217.52 -2.20271 -3.54782 0
M  V30 12615 N 1217.95 0.594978 -1.45938 0
M  V30 12616 C 1218.88 1.71536 -1.58422 0
M  V30 12617 C 1219.87 1.64441 -0.435116 0
M  V30 12618 O 1221.05 1.82647 -0.659839 0
M  V30 12619 C 1218.18 3.10163 -1.56257 0
M  V30 12620 C 1217.13 3.3208 -2.70013 0
M  V30 12621 C 1216.46 4.71108 -2.52905 0
M  V30 12622 C 1217.76 3.21105 -4.11933 0
M  V30 12623 H 1219.45 1.61344 -2.52207 0
M  V30 12624 H 1217 0.774791 -1.2138 0
M  V30 12625 H 1218.95 3.88352 -1.63587 0
M  V30 12626 H 1217.68 3.21225 -0.590093 0
M  V30 12627 H 1216.34 2.56286 -2.62132 0
M  V30 12628 H 1215.98 4.7892 -1.53768 0
M  V30 12629 H 1215.68 4.86727 -3.29197 0
M  V30 12630 H 1217.21 5.51482 -2.62107 0
M  V30 12631 H 1218.62 3.89153 -4.2099 0
M  V30 12632 H 1217.02 3.4825 -4.88715 0
M  V30 12633 H 1218.09 2.18359 -4.32952 0
M  V30 12634 N 1219.43 1.33438 0.838571 0
M  V30 12635 C 1220.34 1.25753 1.98049 0
M  V30 12636 C 1221.36 0.168051 1.73187 0
M  V30 12637 O 1222.53 0.391691 1.97554 0
M  V30 12638 C 1219.6 0.997148 3.32051 0
M  V30 12639 C 1218.66 2.17667 3.70027 0
M  V30 12640 C 1217.89 1.92861 4.97635 0
M  V30 12641 O 1218.12 0.879072 5.63585 0
M  V30 12642 O 1217.05 2.79402 5.33121 0
M  V30 12643 H 1220.88 2.21786 2.07472 0
M  V30 12644 H 1218.46 1.13488 0.971645 0
M  V30 12645 H 1220.34 0.869099 4.1234 0
M  V30 12646 H 1219.02 0.0671036 3.2363 0
M  V30 12647 H 1217.93 2.36025 2.90246 0
M  V30 12648 H 1219.26 3.09006 3.83114 0
M  V30 12649 N 1220.91 -1.05686 1.16912 0
M  V30 12650 C 1222.16 -1.77987 0.948875 0
M  V30 12651 C 1222.47 -1.8845 -0.524011 0
M  V30 12652 O 1223.68 -2.57442 -0.862322 0
M  V30 12653 C 1222.13 -3.19927 1.64848 0
M  V30 12654 C 1221.74 -3.1761 3.15956 0
M  V30 12655 C 1223.49 -3.96719 1.51044 0
M  V30 12656 C 1221.39 -4.54307 3.78628 0
M  V30 12657 H 1220.32 -0.667119 0.35138 0
M  V30 12658 H 1222.97 -1.18496 1.40111 0
M  V30 12659 H 1221.36 -3.79714 1.12397 0
M  V30 12660 H 1222.53 -2.67369 3.75301 0
M  V30 12661 H 1220.85 -2.54317 3.29715 0
M  V30 12662 H 1223.44 -4.97779 1.95243 0
M  V30 12663 H 1223.79 -4.13748 0.460268 0
M  V30 12664 H 1224.32 -3.43468 2.00685 0
M  V30 12665 H 1221.06 -4.42484 4.8362 0
M  V30 12666 H 1220.58 -5.04717 3.24069 0
M  V30 12667 H 1222.26 -5.23255 3.80543 0
M  V30 12668 N 1222.39 -0.968567 -1.24324 0
M  V30 12669 C 1223.61 -0.648166 -1.97012 0
M  V30 12670 C 1224.04 0.775842 -1.71354 0
M  V30 12671 O 1223.4 1.52672 -0.977804 0
M  V30 12672 C 1223.44 -0.929974 -3.48402 0
M  V30 12673 O 1222.55 -0.015854 -4.12397 0
M  V30 12674 H 1221.89 -0.244961 -0.617163 0
M  V30 12675 H 1224.42 -1.29895 -1.58077 0
M  V30 12676 H 1224.43 -0.861863 -3.98793 0
M  V30 12677 H 1223.1 -1.96776 -3.66404 0
M  V30 12678 H 1221.68 -0.137361 -3.72647 0
M  V30 12679 N 1223.87 1.39211 -0.738786 0
M  V30 12680 C 1224.81 2.32424 -0.0904601 0
M  V30 12681 C 1225.81 1.53258 0.721694 0
M  V30 12682 O 1227.01 1.68895 0.622454 0
M  V30 12683 H 1223.39 0.751927 -0.010453 0
M  V30 12684 H 1225.36 2.84726 -0.892945 0
M  V30 12685 C 1224.11 3.38377 0.799783 0
M  V30 12686 H 1223.43 3.99375 0.18424 0
M  V30 12687 H 1224.87 4.0604 1.22096 0
M  V30 12688 C 1223.33 2.75734 1.93578 0
M  V30 12689 O 1223.86 2.63876 3.02874 0
M  V30 12690 N 1222.07 2.33764 1.72634 0
M  V30 12691 H 1221.61 2.43609 0.837413 0
M  V30 12692 H 1221.57 1.92191 2.48817 0
M  V30 12693 N 1225.34 0.486708 1.49896 0
M  V30 12694 C 1226.59 -0.0646197 2.01596 0
M  V30 12695 C 1226.91 -1.39363 1.37249 0
M  V30 12696 O 1228.11 -2.03082 1.80194 0
M  V30 12697 C 1226.57 -0.16565 3.59519 0
M  V30 12698 C 1226.18 1.15586 4.32832 0
M  V30 12699 C 1227.92 -0.668103 4.1921 0
M  V30 12700 C 1225.83 1.01778 5.82576 0
M  V30 12701 H 1224.76 -0.0279241 0.753483 0
M  V30 12702 H 1227.41 0.623969 1.72566 0
M  V30 12703 H 1225.79 -0.918372 3.85204 0
M  V30 12704 H 1226.96 1.92076 4.1886 0
M  V30 12705 H 1225.28 1.59064 3.84822 0
M  V30 12706 H 1227.88 -0.788698 5.28851 0
M  V30 12707 H 1228.22 -1.66339 3.81624 0
M  V30 12708 H 1228.75 0.0276746 3.9779 0
M  V30 12709 H 1225.49 1.9869 6.24662 0
M  V30 12710 H 1225.01 0.293527 5.99081 0
M  V30 12711 H 1226.69 0.690693 6.43303 0
M  V30 12712 N 1226.82 -1.56058 0.219941 0
M  V30 12713 C 1228.07 -1.98554 -0.412808 0
M  V30 12714 C 1228.4 -1.10742 -1.5953 0
M  V30 12715 O 1227.68 -0.164757 -1.93801 0
M  V30 12716 C 1227.96 -3.4995 -0.848923 0
M  V30 12717 C 1227.81 -4.48535 0.337094 0
M  V30 12718 C 1229.13 -4.05703 -1.70567 0
M  V30 12719 H 1226.25 -0.721869 -0.148576 0
M  V30 12720 H 1228.89 -1.87356 0.315852 0
M  V30 12721 H 1227.04 -3.59624 -1.46979 0
M  V30 12722 H 1228.72 -4.50874 0.975216 0
M  V30 12723 H 1226.96 -4.22474 0.984798 0
M  V30 12724 H 1227.63 -5.51999 -0.0109665 0
M  V30 12725 H 1230.11 -3.98964 -1.18182 0
M  V30 12726 H 1228.98 -5.11955 -1.97972 0
M  V30 12727 H 1229.24 -3.52487 -2.66844 0
M  V30 12728 N 1228.3 0.053464 -1.57509 0
M  V30 12729 C 1229.55 0.749102 -1.88135 0
M  V30 12730 C 1229.88 1.76642 -0.814111 0
M  V30 12731 O 1229.13 1.94796 0.187845 0
M  V30 12732 C 1229.43 1.47666 -3.25468 0
M  V30 12733 C 1229.1 0.597619 -4.46922 0
M  V30 12734 C 1227.76 0.355429 -4.79886 0
M  V30 12735 C 1230.11 -0.0107869 -5.21199 0
M  V30 12736 C 1227.44 -0.504347 -5.84528 0
M  V30 12737 C 1229.79 -0.858123 -6.26753 0
M  V30 12738 C 1228.45 -1.11001 -6.58206 0
M  V30 12739 H 1227.72 0.274116 -0.688434 0
M  V30 12740 H 1230.37 0.00944162 -1.91498 0
M  V30 12741 H 1228.68 2.28901 -3.1798 0
M  V30 12742 H 1230.37 2.02002 -3.46404 0
M  V30 12743 H 1226.96 0.796526 -4.21134 0
M  V30 12744 H 1231.15 0.163404 -4.96031 0
M  V30 12745 H 1226.4 -0.708057 -6.07286 0
M  V30 12746 H 1230.58 -1.3362 -6.83461 0
M  V30 12747 H 1228.2 -1.77798 -7.39116 0
M  V30 12748 N 1229.78 1.54207 0.325255 0
M  V30 12749 C 1231.01 1.76293 1.08298 0
M  V30 12750 C 1231.42 0.510722 1.81761 0
M  V30 12751 O 1230.78 -0.5185 1.7498 0
M  V30 12752 C 1230.83 2.95498 2.08238 0
M  V30 12753 O 1230.55 4.15877 1.37759 0
M  V30 12754 C 1232.05 3.29781 2.96242 0
M  V30 12755 H 1229.27 0.588576 0.322209 0
M  V30 12756 H 1231.82 2.0109 0.371896 0
M  V30 12757 H 1229.97 2.72979 2.74884 0
M  V30 12758 H 1230.39 4.82918 2.04672 0
M  V30 12759 H 1231.86 4.16495 3.62265 0
M  V30 12760 H 1232.34 2.46874 3.63249 0
M  V30 12761 H 1232.94 3.54372 2.3516 0
M  V30 12762 N 1231.26 -0.58723 1.46251 0
M  V30 12763 C 1232.48 -1.37661 1.55126 0
M  V30 12764 C 1232.91 -1.87123 0.191489 0
M  V30 12765 O 1232.27 -1.6131 -0.827576 0
M  V30 12766 C 1232.31 -2.54324 2.5564 0
M  V30 12767 O 1231.42 -3.55617 2.0883 0
M  V30 12768 H 1230.76 -0.410154 0.522178 0
M  V30 12769 H 1233.29 -0.712738 1.91784 0
M  V30 12770 H 1233.3 -3.01301 2.75103 0
M  V30 12771 H 1231.97 -2.17675 3.54387 0
M  V30 12772 H 1230.55 -3.15151 1.99335 0
M  V30 12773 N 1232.74 -1.33881 -0.831482 0
M  V30 12774 C 1233.67 -1.19089 -1.94661 0
M  V30 12775 C 1234.65 -0.0845706 -1.6238 0
M  V30 12776 O 1235.83 -0.248163 -1.86859 0
M  V30 12777 C 1232.96 -0.828223 -3.28418 0
M  V30 12778 C 1232 -1.94309 -3.79666 0
M  V30 12779 S 1232.84 -3.55524 -4.00454 0
M  V30 12780 C 1233.99 -3.21279 -5.3715 0
M  V30 12781 H 1234.23 -2.13484 -2.0691 0
M  V30 12782 H 1231.76 -1.18809 -0.986098 0
M  V30 12783 H 1233.72 -0.625759 -4.05702 0
M  V30 12784 H 1232.38 0.0972457 -3.13949 0
M  V30 12785 H 1231.57 -1.64288 -4.76472 0
M  V30 12786 H 1231.17 -2.1026 -3.093 0
M  V30 12787 H 1233.46 -2.72563 -6.20255 0
M  V30 12788 H 1234.41 -4.17193 -5.7215 0
M  V30 12789 H 1234.82 -2.57683 -5.02255 0
M  V30 12790 N 1234.21 1.05064 -1.1747 0
M  V30 12791 C 1235.46 1.78089 -0.963883 0
M  V30 12792 C 1235.79 1.87766 0.507365 0
M  V30 12793 O 1235.04 1.37477 1.39279 0
M  V30 12794 C 1235.34 3.21961 -1.55164 0
M  V30 12795 C 1235.01 3.32339 -3.04732 0
M  V30 12796 C 1233.67 3.34878 -3.45557 0
M  V30 12797 C 1236.02 3.3325 -4.00741 0
M  V30 12798 C 1233.35 3.35959 -4.80987 0
M  V30 12799 C 1235.7 3.3587 -5.36073 0
M  V30 12800 C 1234.37 3.36697 -5.7636 0
M  V30 12801 H 1233.64 0.651672 -0.35271 0
M  V30 12802 H 1236.28 1.23471 -1.4638 0
M  V30 12803 H 1234.59 3.79514 -0.973471 0
M  V30 12804 H 1236.29 3.77087 -1.36406 0
M  V30 12805 H 1232.88 3.31076 -2.72188 0
M  V30 12806 H 1237.06 3.30488 -3.70258 0
M  V30 12807 H 1232.32 3.34911 -5.11512 0
M  V30 12808 H 1236.49 3.35524 -6.10243 0
M  V30 12809 H 1234.12 3.37288 -6.81279 0
M  V30 12810 N 1235.69 0.975146 1.23809 0
M  V30 12811 C 1236.65 0.516157 2.23312 0
M  V30 12812 C 1237.65 -0.39136 1.55965 0
M  V30 12813 O 1238.84 -0.185783 1.73206 0
M  V30 12814 C 1235.98 -0.251534 3.39971 0
M  V30 12815 H 1237.17 1.3959 2.65433 0
M  V30 12816 H 1234.72 0.760493 1.36551 0
M  V30 12817 H 1235.46 -1.14805 3.03299 0
M  V30 12818 H 1235.24 0.399825 3.90056 0
M  V30 12819 H 1236.73 -0.561438 4.13809 0
M  V30 12820 N 1237.17 -1.38817 0.746158 0
M  V30 12821 C 1238.1 -2.33144 0.128836 0
M  V30 12822 C 1239.08 -1.54487 -0.711873 0
M  V30 12823 O 1240.27 -1.82836 -0.654577 0
M  V30 12824 C 1237.4 -3.38639 -0.770772 0
M  V30 12825 C 1236.35 -4.27987 -0.0333669 0
M  V30 12826 C 1235.68 -5.24274 -1.05073 0
M  V30 12827 C 1236.98 -5.09915 1.13066 0
M  V30 12828 H 1238.67 -2.85019 0.916778 0
M  V30 12829 H 1236.22 -1.37039 0.442306 0
M  V30 12830 H 1238.17 -4.03587 -1.21225 0
M  V30 12831 H 1236.89 -2.8523 -1.59095 0
M  V30 12832 H 1235.55 -3.64534 0.388612 0
M  V30 12833 H 1235.2 -4.67156 -1.86478 0
M  V30 12834 H 1234.9 -5.84906 -0.562037 0
M  V30 12835 H 1236.42 -5.92099 -1.49169 0
M  V30 12836 H 1237.84 -5.68145 0.767084 0
M  V30 12837 H 1236.23 -5.79744 1.54972 0
M  V30 12838 H 1237.3 -4.4409 1.94709 0
M  V30 12839 N 1238.65 -0.49465 -1.49636 0
M  V30 12840 C 1239.56 0.291881 -2.32777 0
M  V30 12841 C 1240.57 0.973468 -1.44221 0
M  V30 12842 O 1241.75 0.956252 -1.77251 0
M  V30 12843 C 1238.81 1.34609 -3.19502 0
M  V30 12844 C 1237.88 0.678611 -4.23903 0
M  V30 12845 C 1237.11 1.68259 -5.06483 0
M  V30 12846 O 1237.33 2.91176 -4.90482 0
M  V30 12847 O 1236.27 1.24141 -5.88959 0
M  V30 12848 H 1240.09 -0.388459 -3.01205 0
M  V30 12849 H 1237.68 -0.256086 -1.47189 0
M  V30 12850 H 1239.56 1.95617 -3.73245 0
M  V30 12851 H 1238.23 2.00947 -2.53775 0
M  V30 12852 H 1237.14 0.0289541 -3.74089 0
M  V30 12853 H 1238.47 0.0577817 -4.92166 0
M  V30 12854 N 1240.13 1.55939 -0.228214 0
M  V30 12855 C 1241.06 2.16566 0.719321 0
M  V30 12856 C 1242.04 1.11204 1.18627 0
M  V30 12857 O 1243.22 1.39495 1.2678 0
M  V30 12858 C 1240.35 2.75132 1.97536 0
M  V30 12859 C 1239.39 3.93381 1.64783 0
M  V30 12860 S 1240.23 5.29982 0.76678 0
M  V30 12861 C 1241.38 5.91989 2.03223 0
M  V30 12862 H 1241.62 2.96599 0.204035 0
M  V30 12863 H 1239.15 1.54395 -0.0128406 0
M  V30 12864 H 1241.11 3.09512 2.69652 0
M  V30 12865 H 1239.77 1.95079 2.46176 0
M  V30 12866 H 1238.96 4.32884 2.58122 0
M  V30 12867 H 1238.56 3.60181 1.00724 0
M  V30 12868 H 1240.85 6.08368 2.98152 0
M  V30 12869 H 1241.8 6.87858 1.68099 0
M  V30 12870 H 1242.21 5.20883 2.1758 0
M  V30 12871 N 1241.6 -0.0451101 1.57535 0
M  V30 12872 C 1242.53 -1.05046 2.08537 0
M  V30 12873 C 1243.52 -1.3872 0.984418 0
M  V30 12874 O 1244.7 -1.47884 1.25873 0
M  V30 12875 C 1241.83 -2.3562 2.55148 0
M  V30 12876 C 1240.78 -2.16231 3.69362 0
M  V30 12877 C 1240.11 -3.52423 4.02122 0
M  V30 12878 C 1241.41 -1.56159 4.98409 0
M  V30 12879 H 1243.1 -0.625965 2.92783 0
M  V30 12880 H 1240.65 -0.299657 1.40848 0
M  V30 12881 H 1242.6 -3.06266 2.89446 0
M  V30 12882 H 1241.33 -2.80099 1.67964 0
M  V30 12883 H 1239.99 -1.4802 3.35389 0
M  V30 12884 H 1239.63 -3.94522 3.12028 0
M  V30 12885 H 1239.33 -3.4028 4.79044 0
M  V30 12886 H 1240.86 -4.24458 4.38939 0
M  V30 12887 H 1242.27 -2.16703 5.30766 0
M  V30 12888 H 1240.67 -1.54638 5.79834 0
M  V30 12889 H 1241.74 -0.525698 4.82042 0
M  V30 12890 N 1243.08 -1.54377 -0.317073 0
M  V30 12891 C 1244.01 -1.8721 -1.39552 0
M  V30 12892 C 1244.99 -0.729483 -1.53664 0
M  V30 12893 O 1246.18 -0.983799 -1.67437 0
M  V30 12894 C 1243.31 -2.1052 -2.76222 0
M  V30 12895 C 1242.26 -3.26366 -2.76892 0
M  V30 12896 C 1241.59 -3.35061 -4.16699 0
M  V30 12897 C 1242.89 -4.63862 -2.40061 0
M  V30 12898 H 1244.58 -2.77532 -1.12323 0
M  V30 12899 H 1242.13 -1.33536 -0.538897 0
M  V30 12900 H 1244.08 -2.32073 -3.51739 0
M  V30 12901 H 1242.81 -1.16953 -3.04942 0
M  V30 12902 H 1241.46 -3.0471 -2.03831 0
M  V30 12903 H 1241.11 -2.39041 -4.4257 0
M  V30 12904 H 1240.81 -4.12923 -4.18053 0
M  V30 12905 H 1242.34 -3.58856 -4.94019 0
M  V30 12906 H 1243.75 -4.85252 -3.05292 0
M  V30 12907 H 1242.15 -5.44321 -2.52655 0
M  V30 12908 H 1243.22 -4.6567 -1.35202 0
M  V30 12909 N 1244.56 0.579466 -1.4656 0
M  V30 12910 C 1245.51 1.68829 -1.5737 0
M  V30 12911 C 1246.48 1.60759 -0.417825 0
M  V30 12912 O 1247.66 1.79923 -0.635001 0
M  V30 12913 C 1244.8 3.07166 -1.573 0
M  V30 12914 C 1243.92 3.25837 -2.83645 0
M  V30 12915 C 1243.05 4.54441 -2.75057 0
M  V30 12916 C 1242.09 4.66467 -3.96327 0
M  V30 12917 N 1241.23 5.86401 -3.86107 0
M  V30 12918 H 1246.07 1.58928 -2.52083 0
M  V30 12919 H 1243.6 0.774526 -1.25058 0
M  V30 12920 H 1245.56 3.8724 -1.55245 0
M  V30 12921 H 1244.19 3.15956 -0.661166 0
M  V30 12922 H 1243.24 2.39345 -2.95666 0
M  V30 12923 H 1244.56 3.30591 -3.73512 0
M  V30 12924 H 1243.71 5.42748 -2.71126 0
M  V30 12925 H 1242.45 4.52131 -1.82836 0
M  V30 12926 H 1241.45 3.76577 -4.00587 0
M  V30 12927 H 1242.68 4.70554 -4.89649 0
M  V30 12928 H 1240.62 5.85082 -2.96673 0
M  V30 12929 H 1240.54 5.92437 -4.69632 0
M  V30 12930 H 1241.81 6.7713 -3.86155 0
M  V30 12931 N 1246.04 1.3432 0.824371 0
M  V30 12932 C 1246.97 1.2842 1.95014 0
M  V30 12933 C 1247.95 0.161925 1.69328 0
M  V30 12934 O 1249.13 0.354052 1.90945 0
M  V30 12935 C 1246.26 1.03741 3.31444 0
M  V30 12936 C 1245.22 2.12419 3.71567 0
M  V30 12937 C 1244.54 1.72931 5.05963 0
M  V30 12938 C 1245.84 3.54235 3.83817 0
M  V30 12939 H 1247.54 2.22614 2.00209 0
M  V30 12940 H 1245.08 1.07165 0.961856 0
M  V30 12941 H 1247.04 0.982586 4.09784 0
M  V30 12942 H 1245.76 0.0598892 3.26545 0
M  V30 12943 H 1244.42 2.16968 2.955 0
M  V30 12944 H 1244.07 0.738433 4.9755 0
M  V30 12945 H 1243.77 2.45668 5.3378 0
M  V30 12946 H 1245.29 1.68941 5.86763 0
M  V30 12947 H 1246.71 3.52106 4.52432 0
M  V30 12948 H 1245.1 4.25581 4.23085 0
M  V30 12949 H 1246.17 3.91682 2.85856 0
M  V30 12950 N 1247.52 -1.0444 1.18026 0
M  V30 12951 C 1248.45 -2.14297 0.927314 0
M  V30 12952 C 1249.43 -1.69575 -0.13357 0
M  V30 12953 O 1250.61 -1.94191 0.0182439 0
M  V30 12954 C 1247.74 -3.44397 0.448134 0
M  V30 12955 C 1246.7 -4.02723 1.44907 0
M  V30 12956 C 1246.02 -5.28257 0.827555 0
M  V30 12957 C 1247.32 -4.39331 2.82463 0
M  V30 12958 H 1249.02 -2.35715 1.84605 0
M  V30 12959 H 1246.56 -1.13281 0.889012 0
M  V30 12960 H 1248.52 -4.20606 0.258554 0
M  V30 12961 H 1247.24 -3.22654 -0.506159 0
M  V30 12962 H 1245.9 -3.28591 1.62552 0
M  V30 12963 H 1245.55 -5.02822 -0.13381 0
M  V30 12964 H 1245.25 -5.68242 1.49581 0
M  V30 12965 H 1246.77 -6.07147 0.64842 0
M  V30 12966 H 1248.18 -5.06543 2.68491 0
M  V30 12967 H 1246.58 -4.90355 3.45936 0
M  V30 12968 H 1247.65 -3.4933 3.36299 0
M  V30 12969 N 1248.99 -0.981699 -1.2329 0
M  V30 12970 C 1249.96 -0.527992 -2.23036 0
M  V30 12971 C 1250.96 0.383083 -1.5617 0
M  V30 12972 O 1252.15 0.176595 -1.73303 0
M  V30 12973 C 1249.28 0.233501 -3.40099 0
M  V30 12974 H 1250.47 -1.40995 -2.64689 0
M  V30 12975 H 1248.03 -0.767724 -1.36146 0
M  V30 12976 H 1248.76 1.13194 -3.03904 0
M  V30 12977 H 1248.55 -0.420505 -3.89839 0
M  V30 12978 H 1250.04 0.539485 -4.14101 0
M  V30 12979 N 1250.47 1.3842 -0.753509 0
M  V30 12980 C 1251.71 2.01965 -0.314558 0
M  V30 12981 C 1252.08 1.58519 1.08331 0
M  V30 12982 O 1253.28 2.14395 1.62137 0
M  V30 12983 C 1251.55 3.54765 -0.433199 0
M  V30 12984 S 1253.11 4.38733 -0.0768176 0
M  V30 12985 H 1249.93 0.700447 -0.122045 0
M  V30 12986 H 1252.53 1.68925 -0.98411 0
M  V30 12987 H 1251.23 3.83874 -1.45152 0
M  V30 12988 H 1250.76 3.92582 0.253539 0
M  V30 12989 H 1252.78 4.83077 1.13361 0
M  V30 12990 N 1251.95 0.502579 1.49372 0
M  V30 12991 C 1253.2 -0.0412993 2.02058 0
M  V30 12992 C 1253.52 -1.37338 1.38431 0
M  V30 12993 O 1252.79 -1.88305 0.540175 0
M  V30 12994 H 1251.37 -0.0182522 0.746777 0
M  V30 12995 H 1254.03 0.660179 1.83378 0
M  V30 12996 H 1253.13 -0.169812 3.11638 0
M  V30 12997 N 1253.43 -1.55816 0.23648 0
M  V30 12998 C 1254.84 -1.84757 -0.268622 0
M  V30 12999 C 1255.19 -1.15815 -1.58371 0
M  V30 13000 O 1254.32 -0.432923 -2.12025 0
M  V30 13001 C 1254.91 -3.35177 -0.494167 0
M  V30 13002 C 1253.47 -3.64382 -0.943551 0
M  V30 13003 C 1252.62 -2.77296 -0.0149191 0
M  V30 13004 H 1255.57 -1.51908 0.459308 0
M  V30 13005 H 1255.59 -3.56192 -1.3382 0
M  V30 13006 H 1255.1 -3.85327 0.463138 0
M  V30 13007 H 1253.2 -3.19701 -1.91369 0
M  V30 13008 H 1253.31 -4.72244 -0.807626 0
M  V30 13009 H 1251.68 -2.49243 -0.524419 0
M  V30 13010 H 1252.46 -3.30249 0.937571 0
M  V30 13011 N 1254.91 0.036755 -1.57557 0
M  V30 13012 C 1255.84 1.03939 -2.09091 0
M  V30 13013 C 1256.82 1.38196 -0.991761 0
M  V30 13014 O 1258 1.47214 -1.26656 0
M  V30 13015 C 1255.13 2.34263 -2.56394 0
M  V30 13016 C 1254.09 2.14269 -3.70504 0
M  V30 13017 C 1253.41 3.50286 -4.03985 0
M  V30 13018 C 1254.71 1.53514 -4.9923 0
M  V30 13019 H 1256.41 0.610429 -2.93111 0
M  V30 13020 H 1253.95 0.292183 -1.41005 0
M  V30 13021 H 1255.91 3.04727 -2.91066 0
M  V30 13022 H 1254.63 2.79205 -1.69447 0
M  V30 13023 H 1253.29 1.46239 -3.36169 0
M  V30 13024 H 1252.94 3.92861 -3.14116 0
M  V30 13025 H 1252.64 3.37735 -4.80842 0
M  V30 13026 H 1254.16 4.22124 -4.41184 0
M  V30 13027 H 1255.57 2.13885 -5.31908 0
M  V30 13028 H 1253.97 1.51561 -5.80646 0
M  V30 13029 H 1255.04 0.500126 -4.82314 0
M  V30 13030 N 1256.39 1.54543 0.308881 0
M  V30 13031 C 1257.63 1.73107 1.043 0
M  V30 13032 C 1257.95 0.515481 1.88063 0
M  V30 13033 O 1257.22 -0.47036 1.90169 0
M  V30 13034 H 1255.8 0.638289 0.388068 0
M  V30 13035 H 1258.47 1.9188 0.341769 0
M  V30 13036 H 1257.56 2.61697 1.70063 0
M  V30 13037 N 1257.86 -0.571685 1.46866 0
M  V30 13038 C 1259.09 -1.35327 1.56109 0
M  V30 13039 C 1259.5 -1.88086 0.20504 0
M  V30 13040 O 1258.84 -1.64896 -0.809626 0
M  V30 13041 C 1258.91 -2.56939 2.51441 0
M  V30 13042 C 1258.57 -2.2557 3.97451 0
M  V30 13043 C 1259.57 -1.83737 4.86351 0
M  V30 13044 C 1257.25 -2.37375 4.42672 0
M  V30 13045 C 1259.25 -1.54118 6.18487 0
M  V30 13046 C 1256.93 -2.07368 5.7484 0
M  V30 13047 C 1257.93 -1.65806 6.62569 0
M  V30 13048 O 1257.62 -1.36173 7.92283 0
M  V30 13049 H 1257.35 -0.419368 0.530194 0
M  V30 13050 H 1259.91 -0.700859 1.93073 0
M  V30 13051 H 1258.14 -3.25023 2.09517 0
M  V30 13052 H 1259.82 -3.19012 2.5097 0
M  V30 13053 H 1260.59 -1.74122 4.52666 0
M  V30 13054 H 1256.47 -2.68686 3.74605 0
M  V30 13055 H 1260.01 -1.21603 6.8692 0
M  V30 13056 H 1255.91 -2.16611 6.08071 0
M  V30 13057 H 1256.68 -1.49926 8.04652 0
M  V30 13058 N 1259.34 -1.34755 -0.817236 0
M  V30 13059 C 1260.59 -1.26771 -1.56882 0
M  V30 13060 C 1260.9 0.158962 -1.94953 0
M  V30 13061 O 1262.11 0.360996 -2.69089 0
M  V30 13062 C 1260.57 -2.22261 -2.83069 0
M  V30 13063 C 1260.17 -3.70216 -2.52277 0
M  V30 13064 C 1261.92 -2.23197 -3.61086 0
M  V30 13065 C 1259.82 -4.57559 -3.74691 0
M  V30 13066 H 1258.75 -0.470961 -0.588822 0
M  V30 13067 H 1261.41 -1.59955 -0.899254 0
M  V30 13068 H 1259.79 -1.82036 -3.5168 0
M  V30 13069 H 1260.96 -4.19014 -1.9174 0
M  V30 13070 H 1259.28 -3.71784 -1.87525 0
M  V30 13071 H 1261.87 -2.85673 -4.5199 0
M  V30 13072 H 1262.22 -1.2328 -3.97628 0
M  V30 13073 H 1262.75 -2.61897 -2.99424 0
M  V30 13074 H 1259.49 -5.58434 -3.43267 0
M  V30 13075 H 1259.01 -4.13494 -4.34491 0
M  V30 13076 H 1260.69 -4.72451 -4.42039 0
M  V30 13077 N 1260.82 1.03812 -1.18578 0
M  V30 13078 C 1262.24 1.29271 -0.936011 0
M  V30 13079 C 1262.44 1.97551 0.396965 0
M  V30 13080 O 1261.49 2.25769 1.13069 0
M  V30 13081 C 1262.8 2.1489 -2.1034 0
M  V30 13082 C 1264.35 2.28228 -2.14198 0
M  V30 13083 C 1264.83 3.17214 -3.30362 0
M  V30 13084 N 1266.32 3.24802 -3.30239 0
M  V30 13085 C 1267.05 3.9382 -4.16765 0
M  V30 13086 N 1266.55 4.65147 -5.1343 0
M  V30 13087 N 1268.34 3.90125 -4.04671 0
M  V30 13088 H 1260.49 0.579011 -2.04356 0
M  V30 13089 H 1262.76 0.318021 -0.893066 0
M  V30 13090 H 1262.46 1.72029 -3.06755 0
M  V30 13091 H 1262.34 3.15576 -2.06619 0
M  V30 13092 H 1264.72 2.70324 -1.18359 0
M  V30 13093 H 1264.8 1.27124 -2.21976 0
M  V30 13094 H 1264.45 2.75829 -4.26475 0
M  V30 13095 H 1264.38 4.18356 -3.19821 0
M  V30 13096 H 1266.87 2.73994 -2.60261 0
M  V30 13097 H 1267.18 5.15414 -5.7582 0
M  V30 13098 H 1265.53 4.64043 -5.17387 0
M  V30 13099 H 1268.72 3.33536 -3.28438 0
M  V30 13100 H 1268.89 4.43641 -4.7232 0
M  V30 13101 N 1262.3 0.988223 1.22768 0
M  V30 13102 C 1263.25 0.527454 2.26541 0
M  V30 13103 C 1264.24 -0.419506 1.64123 0
M  V30 13104 O 1265.45 -0.292539 1.77607 0
M  V30 13105 H 1261.82 0.152165 0.736444 0
M  V30 13106 H 1263.79 1.41422 2.62759 0
M  V30 13107 C 1262.54 -0.146845 3.4739 0
M  V30 13108 H 1261.86 0.572752 3.95676 0
M  V30 13109 H 1263.3 -0.432768 4.21786 0
M  V30 13110 C 1261.76 -1.38065 3.0731 0
M  V30 13111 O 1262.29 -2.47634 3.16291 0
M  V30 13112 N 1260.5 -1.25418 2.62143 0
M  V30 13113 H 1260.05 -0.362641 2.55035 0
M  V30 13114 H 1260 -2.08077 2.35694 0
M  V30 13115 N 1263.78 -1.38018 0.760839 0
M  V30 13116 C 1265.19 -1.82645 0.387022 0
M  V30 13117 C 1265.54 -1.63445 -1.08536 0
M  V30 13118 O 1264.66 -1.13958 -1.83963 0
M  V30 13119 C 1265.26 -3.3158 0.69569 0
M  V30 13120 C 1263.82 -3.74527 0.375063 0
M  V30 13121 C 1262.96 -2.60696 0.94515 0
M  V30 13122 H 1265.91 -1.26644 0.956396 0
M  V30 13123 H 1265.94 -3.80493 -0.0235511 0
M  V30 13124 H 1265.45 -3.45522 1.76737 0
M  V30 13125 H 1263.55 -3.6616 -0.689741 0
M  V30 13126 H 1263.66 -4.71029 0.875685 0
M  V30 13127 H 1262.03 -2.51997 0.370065 0
M  V30 13128 H 1262.81 -2.77434 2.02201 0
M  V30 13129 N 1265.25 -0.510493 -1.49103 0
M  V30 13130 C 1266.48 0.0271324 -2.06582 0
M  V30 13131 C 1266.89 1.30499 -1.36991 0
M  V30 13132 O 1266.23 1.78229 -0.444976 0
M  V30 13133 C 1266.3 0.341488 -3.57874 0
M  V30 13134 C 1265.96 -0.840037 -4.49213 0
M  V30 13135 C 1266.96 -1.73315 -4.90161 0
M  V30 13136 C 1264.64 -1.04153 -4.91383 0
M  V30 13137 C 1266.64 -2.81182 -5.72028 0
M  V30 13138 C 1264.32 -2.12336 -5.73024 0
M  V30 13139 C 1265.32 -3.00684 -6.13252 0
M  V30 13140 O 1265.01 -4.06999 -6.93258 0
M  V30 13141 H 1264.74 -0.0215383 -0.675657 0
M  V30 13142 H 1267.3 -0.709841 -1.92744 0
M  V30 13143 H 1265.53 1.13218 -3.69755 0
M  V30 13144 H 1267.21 0.818859 -3.97554 0
M  V30 13145 H 1267.98 -1.58934 -4.58219 0
M  V30 13146 H 1263.86 -0.363199 -4.59567 0
M  V30 13147 H 1267.4 -3.50169 -6.03347 0
M  V30 13148 H 1263.3 -2.26708 -6.04379 0
M  V30 13149 H 1264.07 -4.04469 -7.11581 0
M  V30 13150 N 1266.73 1.55688 -0.24474 0
M  V30 13151 C 1267.68 2.22682 0.67198 0
M  V30 13152 C 1268.67 1.21369 1.18178 0
M  V30 13153 O 1269.88 1.39387 1.13892 0
M  V30 13154 H 1266.25 0.714279 0.235181 0
M  V30 13155 H 1268.23 2.98282 0.0837704 0
M  V30 13156 C 1266.97 2.93835 1.85893 0
M  V30 13157 H 1266.3 3.71565 1.4758 0
M  V30 13158 H 1267.74 3.44077 2.47764 0
M  V30 13159 C 1266.2 1.97589 2.72874 0
M  V30 13160 O 1266.73 1.50758 3.72337 0
M  V30 13161 N 1264.93 1.64737 2.39395 0
M  V30 13162 H 1264.48 2.03015 1.58564 0
M  V30 13163 H 1264.44 1.00605 2.97869 0
M  V30 13164 N 1268.21 -0.0283989 1.57574 0
M  V30 13165 C 1269.46 -0.718121 1.88483 0
M  V30 13166 C 1269.77 -1.76485 0.843345 0
M  V30 13167 O 1270.98 -2.50721 1.04169 0
M  V30 13168 C 1269.43 -1.32832 3.3449 0
M  V30 13169 C 1269.04 -0.317905 4.46871 0
M  V30 13170 C 1270.79 -1.99788 3.74546 0
M  V30 13171 C 1268.69 -0.936489 5.83938 0
M  V30 13172 H 1267.62 -0.271969 0.703242 0
M  V30 13173 H 1270.27 0.0274862 1.83479 0
M  V30 13174 H 1268.66 -2.12366 3.34241 0
M  V30 13175 H 1269.83 0.450767 4.5859 0
M  V30 13176 H 1268.14 0.249605 4.15651 0
M  V30 13177 H 1270.74 -2.46923 4.74271 0
M  V30 13178 H 1271.08 -2.81633 3.06575 0
M  V30 13179 H 1271.62 -1.27029 3.76973 0
M  V30 13180 H 1268.36 -0.15744 6.55311 0
M  V30 13181 H 1267.88 -1.67499 5.75938 0
M  V30 13182 H 1269.56 -1.44363 6.30689 0
M  V30 13183 N 1269.69 -1.54705 -0.300681 0
M  V30 13184 C 1270.93 -1.74001 -1.03585 0
M  V30 13185 C 1271.26 -0.525972 -1.87253 0
M  V30 13186 O 1270.52 0.492068 -1.89413 0
M  V30 13187 C 1270.82 -2.98173 -1.97047 0
M  V30 13188 C 1270.48 -4.31948 -1.29352 0
M  V30 13189 C 1269.14 -4.68312 -1.10623 0
M  V30 13190 C 1271.5 -5.14874 -0.809594 0
M  V30 13191 C 1268.82 -5.85181 -0.42185 0
M  V30 13192 C 1271.18 -6.32447 -0.138935 0
M  V30 13193 C 1269.84 -6.67473 0.0603129 0
M  V30 13194 H 1269.11 -0.636716 -0.379044 0
M  V30 13195 H 1271.76 -1.88963 -0.310697 0
M  V30 13196 H 1270.06 -2.77994 -2.76091 0
M  V30 13197 H 1271.76 -3.10297 -2.54001 0
M  V30 13198 H 1268.35 -4.0335 -1.44937 0
M  V30 13199 H 1272.53 -4.87278 -0.942006 0
M  V30 13200 H 1267.79 -6.10862 -0.256494 0
M  V30 13201 H 1271.96 -6.95973 0.243939 0
M  V30 13202 H 1269.59 -7.57887 0.592626 0
M  V30 13203 N 1271.17 0.563888 -1.47167 0
M  V30 13204 C 1272.44 1.32454 -1.43928 0
M  V30 13205 C 1272.82 2.10683 -0.13267 0
M  V30 13206 O 1272.17 2.1063 0.885845 0
M  V30 13207 C 1272.38 2.2347 -2.68071 0
M  V30 13208 C 1273.73 2.84702 -3.15008 0
M  V30 13209 O 1274.75 2.33775 -2.68752 0
M  V30 13210 O 1273.61 3.77251 -3.95404 0
M  V30 13211 H 1270.71 0.596074 -0.573258 0
M  V30 13212 H 1273.25 0.583345 -1.59359 0
M  V30 13213 H 1272.02 1.6522 -3.54708 0
M  V30 13214 H 1271.65 3.04897 -2.55193 0
M  V30 13215 N 1272.64 1.35187 0.810078 0
M  V30 13216 C 1273.89 1.28011 1.56389 0
M  V30 13217 C 1274.21 -0.14622 1.94451 0
M  V30 13218 O 1273.48 -1.08185 1.63318 0
M  V30 13219 H 1272.06 0.470837 0.579932 0
M  V30 13220 H 1274.73 1.69249 0.966476 0
M  V30 13221 H 1273.82 1.89362 2.4809 0
M  V30 13222 N 1274.12 -1.03182 1.19127 0
M  V30 13223 C 1275.37 -1.75934 0.986415 0
M  V30 13224 C 1275.68 -1.89519 -0.48392 0
M  V30 13225 O 1276.89 -2.59213 -0.80752 0
M  V30 13226 C 1275.35 -3.16358 1.71597 0
M  V30 13227 C 1274.95 -3.10836 3.22622 0
M  V30 13228 C 1276.7 -3.93426 1.59425 0
M  V30 13229 C 1274.61 -4.46174 3.88179 0
M  V30 13230 H 1273.54 -0.659516 0.365451 0
M  V30 13231 H 1276.19 -1.15497 1.42593 0
M  V30 13232 H 1274.57 -3.77245 1.20426 0
M  V30 13233 H 1275.74 -2.59348 3.80887 0
M  V30 13234 H 1274.06 -2.47266 3.35035 0
M  V30 13235 H 1276.65 -4.93526 2.05757 0
M  V30 13236 H 1277 -4.12678 0.547926 0
M  V30 13237 H 1277.53 -3.39134 2.07925 0
M  V30 13238 H 1274.27 -4.32126 4.92897 0
M  V30 13239 H 1273.79 -4.97729 3.34702 0
M  V30 13240 H 1275.47 -5.15066 3.91556 0
M  V30 13241 N 1275.6 -0.99472 -1.22242 0
M  V30 13242 C 1276.85 -0.667045 -1.90351 0
M  V30 13243 C 1277.16 0.804615 -1.78284 0
M  V30 13244 O 1278.37 1.24395 -2.41326 0
M  V30 13245 C 1276.82 -1.14256 -3.41282 0
M  V30 13246 C 1276.43 -2.63958 -3.61981 0
M  V30 13247 C 1278.18 -0.889302 -4.1508 0
M  V30 13248 C 1276.08 -3.05103 -5.06622 0
M  V30 13249 H 1275.01 -0.245795 -0.712812 0
M  V30 13250 H 1277.66 -1.20452 -1.38432 0
M  V30 13251 H 1276.05 -0.533203 -3.92394 0
M  V30 13252 H 1277.22 -3.30255 -3.21354 0
M  V30 13253 H 1275.54 -2.87186 -3.01518 0
M  V30 13254 H 1278.13 -1.17239 -5.21689 0
M  V30 13255 H 1278.48 0.174556 -4.15934 0
M  V30 13256 H 1279.01 -1.46095 -3.70002 0
M  V30 13257 H 1275.75 -4.10672 -5.1091 0
M  V30 13258 H 1275.27 -2.4351 -5.48145 0
M  V30 13259 H 1276.95 -2.96506 -5.75059 0
M  V30 13260 N 1277.08 1.37613 -0.768148 0
M  V30 13261 C 1278.32 2.00075 -0.331331 0
M  V30 13262 C 1278.66 1.60839 1.08833 0
M  V30 13263 O 1277.93 0.852849 1.74805 0
M  V30 13264 C 1278.22 3.57009 -0.470789 0
M  V30 13265 C 1278.07 4.06166 -1.9326 0
M  V30 13266 C 1279.39 4.39916 0.127111 0
M  V30 13267 H 1276.51 0.726855 -0.121864 0
M  V30 13268 H 1279.15 1.63343 -0.970518 0
M  V30 13269 H 1277.3 3.88431 0.0733688 0
M  V30 13270 H 1278.97 3.85325 -2.53618 0
M  V30 13271 H 1277.21 3.58492 -2.44266 0
M  V30 13272 H 1277.88 5.15219 -1.98125 0
M  V30 13273 H 1280.36 4.14732 -0.337144 0
M  V30 13274 H 1279.24 5.489 -0.000624226 0
M  V30 13275 H 1279.5 4.25018 1.21704 0
M  V30 13276 N 1278.56 0.518393 1.4883 0
M  V30 13277 C 1279.8 -0.0199348 2.0279 0
M  V30 13278 C 1280.14 -1.35026 1.39576 0
M  V30 13279 O 1279.41 -1.86927 0.537449 0
M  V30 13280 C 1279.69 -0.154184 3.5977 0
M  V30 13281 C 1279.55 1.2005 4.33484 0
M  V30 13282 C 1280.87 -0.886547 4.31078 0
M  V30 13283 H 1277.98 -0.00577061 0.736977 0
M  V30 13284 H 1280.63 0.673178 1.77675 0
M  V30 13285 H 1278.78 -0.74451 3.81299 0
M  V30 13286 H 1280.45 1.83104 4.23404 0
M  V30 13287 H 1278.69 1.78537 3.95357 0
M  V30 13288 H 1279.36 1.05968 5.41733 0
M  V30 13289 H 1281.84 -0.385711 4.14308 0
M  V30 13290 H 1280.71 -0.949355 5.40628 0
M  V30 13291 H 1280.98 -1.93424 3.97542 0
M  V30 13292 N 1280.03 -1.55556 0.252993 0
M  V30 13293 C 1281.28 -1.98267 -0.370571 0
M  V30 13294 C 1281.6 -1.14449 -1.58622 0
M  V30 13295 O 1282.8 -1.472 -2.28132 0
M  V30 13296 C 1281.26 -3.52813 -0.710685 0
M  V30 13297 C 1280.87 -4.45379 0.483908 0
M  V30 13298 C 1282.61 -4.04165 -1.2981 0
M  V30 13299 C 1280.52 -5.91279 0.119611 0
M  V30 13300 H 1279.45 -0.740463 -0.142232 0
M  V30 13301 H 1282.1 -1.8005 0.354169 0
M  V30 13302 H 1280.48 -3.66748 -1.49372 0
M  V30 13303 H 1281.65 -4.43206 1.26116 0
M  V30 13304 H 1279.97 -4.04542 0.986664 0
M  V30 13305 H 1282.57 -5.10696 -1.5841 0
M  V30 13306 H 1282.91 -3.51875 -2.22462 0
M  V30 13307 H 1283.44 -3.93581 -0.577836 0
M  V30 13308 H 1280.18 -6.47619 1.01343 0
M  V30 13309 H 1279.7 -5.96573 -0.621318 0
M  V30 13310 H 1281.38 -6.46322 -0.296052 0
M  V30 13311 N 1281.51 0.0200419 -1.57587 0
M  V30 13312 C 1282.74 0.724241 -1.94344 0
M  V30 13313 C 1283.16 1.67612 -0.853688 0
M  V30 13314 O 1282.52 1.80303 0.189873 0
M  V30 13315 C 1282.57 1.44967 -3.30177 0
M  V30 13316 O 1281.67 2.56326 -3.23064 0
M  V30 13317 H 1281.01 0.194142 -0.634984 0
M  V30 13318 H 1283.54 -0.0271756 -2.04582 0
M  V30 13319 H 1283.55 1.81758 -3.65278 0
M  V30 13320 H 1282.23 0.75161 -4.09052 0
M  V30 13321 H 1280.81 2.22011 -2.99609 0
M  V30 13322 N 1282.99 1.54862 0.292472 0
M  V30 13323 C 1284.24 1.74807 1.02813 0
M  V30 13324 C 1284.57 0.536935 1.8663 0
M  V30 13325 O 1283.84 -0.465854 1.88839 0
M  V30 13326 C 1284.13 3.04202 1.927 0
M  V30 13327 C 1283.98 4.35631 1.12006 0
M  V30 13328 C 1285.3 3.29514 2.91734 0
M  V30 13329 H 1282.42 0.636015 0.372362 0
M  V30 13330 H 1285.06 1.87583 0.302069 0
M  V30 13331 H 1283.21 2.9344 2.54608 0
M  V30 13332 H 1284.88 4.58323 0.52319 0
M  V30 13333 H 1283.13 4.31733 0.42298 0
M  V30 13334 H 1283.8 5.22454 1.78172 0
M  V30 13335 H 1286.27 3.39941 2.39957 0
M  V30 13336 H 1285.15 4.21352 3.51786 0
M  V30 13337 H 1285.41 2.48216 3.65843 0
M  V30 13338 N 1284.47 -0.556076 1.47464 0
M  V30 13339 C 1285.71 -1.31283 1.55358 0
M  V30 13340 C 1286.07 -1.91212 0.213492 0
M  V30 13341 O 1285.36 -1.74963 -0.780934 0
M  V30 13342 C 1285.56 -2.44298 2.6087 0
M  V30 13343 C 1285.39 -1.95444 4.05008 0
M  V30 13344 C 1284.16 -1.79235 4.72443 0
M  V30 13345 C 1286.35 -1.49825 4.91993 0
M  V30 13346 N 1284.34 -1.24732 6.01095 0
M  V30 13347 C 1285.71 -1.07095 6.1068 0
M  V30 13348 C 1287.76 -1.37887 4.78426 0
M  V30 13349 C 1286.46 -0.536134 7.17299 0
M  V30 13350 C 1288.49 -0.858066 5.85142 0
M  V30 13351 C 1287.85 -0.440699 7.0302 0
M  V30 13352 H 1283.95 -0.472387 0.623197 0
M  V30 13353 H 1286.54 -0.630184 1.84219 0
M  V30 13354 H 1284.71 -3.10092 2.33875 0
M  V30 13355 H 1286.44 -3.11299 2.58601 0
M  V30 13356 H 1283.19 -2.01984 4.28368 0
M  V30 13357 H 1283.62 -0.995659 6.69638 0
M  V30 13358 H 1288.26 -1.68766 3.87657 0
M  V30 13359 H 1285.98 -0.214967 8.07814 0
M  V30 13360 H 1289.56 -0.769235 5.76692 0
M  V30 13361 H 1288.44 -0.0439514 7.84188 0
M  V30 13362 N 1285.95 -1.35615 -0.802897 0
M  V30 13363 C 1286.86 -1.3096 -1.94645 0
M  V30 13364 C 1287.87 -0.213909 -1.7268 0
M  V30 13365 O 1289.05 -0.443932 -1.96446 0
M  V30 13366 C 1286.11 -1.08483 -3.2929 0
M  V30 13367 C 1285.18 -2.27401 -3.64126 0
M  V30 13368 C 1284.41 -2.05987 -4.92347 0
M  V30 13369 O 1284.63 -1.02819 -5.61057 0
M  V30 13370 O 1283.57 -2.93439 -5.25526 0
M  V30 13371 H 1287.39 -2.27209 -2.01519 0
M  V30 13372 H 1284.98 -1.16024 -0.941214 0
M  V30 13373 H 1286.86 -0.978118 -4.09891 0
M  V30 13374 H 1285.53 -0.152885 -3.23339 0
M  V30 13375 H 1284.44 -2.43638 -2.83886 0
M  V30 13376 H 1285.77 -3.19055 -3.74786 0
M  V30 13377 N 1287.43 1.02549 -1.19673 0
M  V30 13378 C 1288.67 1.75408 -0.995732 0
M  V30 13379 C 1288.99 1.89773 0.473863 0
M  V30 13380 O 1290.19 2.59638 0.793762 0
M  V30 13381 C 1288.65 3.15444 -1.73273 0
M  V30 13382 C 1288.26 3.09121 -3.24266 0
M  V30 13383 C 1290 3.92575 -1.61509 0
M  V30 13384 C 1287.91 4.44109 -3.9054 0
M  V30 13385 H 1286.84 0.657569 -0.368944 0
M  V30 13386 H 1289.49 1.14739 -1.43203 0
M  V30 13387 H 1287.87 3.76601 -1.22425 0
M  V30 13388 H 1289.05 2.57325 -3.82257 0
M  V30 13389 H 1287.36 2.45485 -3.36342 0
M  V30 13390 H 1289.96 4.92428 -2.08372 0
M  V30 13391 H 1290.3 4.12382 -0.569804 0
M  V30 13392 H 1290.83 3.38027 -2.09721 0
M  V30 13393 H 1287.57 4.29506 -4.95182 0
M  V30 13394 H 1287.09 4.95947 -3.37337 0
M  V30 13395 H 1288.77 5.12982 -3.94282 0
M  V30 13396 N 1288.9 1.00119 1.21713 0
M  V30 13397 C 1290.15 0.682733 1.90962 0
M  V30 13398 C 1290.48 -0.784131 1.77665 0
M  V30 13399 O 1289.76 -1.56799 1.15084 0
M  V30 13400 C 1290.04 1.09975 3.42896 0
M  V30 13401 C 1289.89 2.62578 3.65202 0
M  V30 13402 C 1291.21 0.659247 4.35134 0
M  V30 13403 H 1288.33 0.249501 0.693483 0
M  V30 13404 H 1290.97 1.24619 1.43423 0
M  V30 13405 H 1289.12 0.620334 3.83515 0
M  V30 13406 H 1290.8 3.18254 3.33934 0
M  V30 13407 H 1289.04 3.04268 3.09198 0
M  V30 13408 H 1289.71 2.86809 4.7164 0
M  V30 13409 H 1292.19 1.07116 4.02076 0
M  V30 13410 H 1291.06 0.979241 5.40095 0
M  V30 13411 H 1291.32 -0.439777 4.39907 0
M  V30 13412 N 1290.38 -1.37203 0.775435 0
M  V30 13413 C 1291.63 -1.99207 0.340756 0
M  V30 13414 C 1291.95 -1.61861 -1.08747 0
M  V30 13415 O 1291.22 -0.88583 -1.74728 0
M  V30 13416 H 1289.8 -0.736803 0.123004 0
M  V30 13417 H 1292.46 -1.67625 0.994379 0
M  V30 13418 H 1291.56 -3.09243 0.421346 0
M  V30 13419 N 1291.86 -0.526279 -1.48553 0
M  V30 13420 C 1292.79 0.275579 -2.27537 0
M  V30 13421 C 1293.8 0.90782 -1.35139 0
M  V30 13422 O 1294.99 0.786887 -1.6022 0
M  V30 13423 C 1292.09 1.40515 -3.08397 0
M  V30 13424 C 1291.27 0.875523 -4.28548 0
M  V30 13425 C 1290.33 1.88577 -4.91249 0
M  V30 13426 O 1289.35 1.44419 -5.50574 0
M  V30 13427 N 1290.55 3.21774 -4.83158 0
M  V30 13428 H 1293.32 -0.401803 -2.96994 0
M  V30 13429 H 1290.88 -0.360378 -1.57838 0
M  V30 13430 H 1292.87 2.07907 -3.47213 0
M  V30 13431 H 1291.44 1.98626 -2.41384 0
M  V30 13432 H 1290.66 0.025728 -3.94192 0
M  V30 13433 H 1291.95 0.500493 -5.06332 0
M  V30 13434 H 1291.35 3.60319 -4.36104 0
M  V30 13435 H 1289.9 3.84808 -5.26085 0
M  V30 13436 N 1293.34 1.5542 -0.261239 0
M  V30 13437 C 1294.3 2.20683 0.619011 0
M  V30 13438 C 1295.3 1.18042 1.09192 0
M  V30 13439 O 1296.49 1.43035 0.99432 0
M  V30 13440 C 1293.62 2.86179 1.85242 0
M  V30 13441 H 1294.82 2.99859 0.0493924 0
M  V30 13442 H 1292.37 1.56296 -0.0117687 0
M  V30 13443 H 1293.1 2.10978 2.4629 0
M  V30 13444 H 1292.89 3.61381 1.52138 0
M  V30 13445 H 1294.38 3.36081 2.47869 0
M  V30 13446 N 1294.82 -0.0116844 1.57596 0
M  V30 13447 C 1296.09 -0.735344 1.81251 0
M  V30 13448 C 1296.47 -1.92634 0.863446 0
M  V30 13449 O 1295.82 -2.28321 -0.0905028 0
M  V30 13450 C 1296.03 -1.15206 3.29437 0
M  V30 13451 C 1297.38 -1.56078 3.94873 0
M  V30 13452 O 1298.4 -1.24618 3.3369 0
M  V30 13453 O 1297.26 -2.14534 5.0263 0
M  V30 13454 H 1294.36 -0.357044 0.745955 0
M  V30 13455 H 1296.9 0.0128733 1.69695 0
M  V30 13456 H 1295.67 -0.302619 3.90128 0
M  V30 13457 H 1295.3 -1.95975 3.45947 0
M  V30 13458 N 1296.29 -1.55015 -0.284256 0
M  V30 13459 C 1297.54 -1.74744 -1.01532 0
M  V30 13460 C 1297.86 -0.545334 -1.87219 0
M  V30 13461 O 1297.13 0.440046 -1.90894 0
M  V30 13462 H 1295.71 -0.644382 -0.377864 0
M  V30 13463 H 1298.37 -1.92399 -0.311199 0
M  V30 13464 H 1297.47 -2.64369 -1.65878 0
M  V30 13465 N 1297.77 0.548248 -1.47757 0
M  V30 13466 C 1299.02 1.30243 -1.54535 0
M  V30 13467 C 1299.34 1.93832 -0.213089 0
M  V30 13468 O 1298.61 1.80397 0.763782 0
M  V30 13469 H 1297.19 0.483684 -0.569262 0
M  V30 13470 H 1299.85 0.639485 -1.8411 0
M  V30 13471 H 1298.95 2.09128 -2.31672 0
M  V30 13472 N 1299.25 1.36039 0.795694 0
M  V30 13473 C 1300.18 1.32528 1.92246 0
M  V30 13474 C 1301.16 0.197805 1.68946 0
M  V30 13475 O 1302.35 0.394474 1.90151 0
M  V30 13476 C 1299.48 1.10748 3.29169 0
M  V30 13477 C 1298.43 2.20253 3.66978 0
M  V30 13478 C 1297.76 1.83624 5.02181 0
M  V30 13479 C 1299.06 3.62296 3.76216 0
M  V30 13480 H 1300.75 2.2681 1.95442 0
M  V30 13481 H 1298.3 1.09181 0.938908 0
M  V30 13482 H 1300.25 1.06929 4.07608 0
M  V30 13483 H 1298.97 0.129141 3.26345 0
M  V30 13484 H 1297.63 2.23187 2.90832 0
M  V30 13485 H 1297.28 0.843804 4.95872 0
M  V30 13486 H 1296.98 2.56935 5.28449 0
M  V30 13487 H 1298.5 1.81349 5.83048 0
M  V30 13488 H 1299.92 3.61623 4.44861 0
M  V30 13489 H 1298.31 4.34459 4.13963 0
M  V30 13490 H 1299.38 3.97657 2.77483 0
M  V30 13491 N 1300.73 -1.01913 1.20215 0
M  V30 13492 C 1301.95 -1.79613 1.03702 0
M  V30 13493 C 1302.38 -1.83591 -0.409374 0
M  V30 13494 O 1301.74 -1.26911 -1.29473 0
M  V30 13495 C 1301.78 -3.22052 1.62219 0
M  V30 13496 O 1300.89 -4.03374 0.858106 0
M  V30 13497 H 1300.23 -0.554095 0.365889 0
M  V30 13498 H 1302.76 -1.28203 1.59452 0
M  V30 13499 H 1302.77 -3.72772 1.65847 0
M  V30 13500 H 1301.44 -3.18471 2.67487 0
M  V30 13501 H 1300.02 -3.6198 0.895835 0
M  V30 13502 N 1302.21 -1.00763 -1.2118 0
M  V30 13503 C 1303.45 -0.692851 -1.90598 0
M  V30 13504 C 1303.79 0.774698 -1.78079 0
M  V30 13505 O 1303.06 1.56186 -1.15914 0
M  V30 13506 C 1303.34 -1.11792 -3.42308 0
M  V30 13507 C 1303.2 -2.64511 -3.63805 0
M  V30 13508 C 1304.52 -0.682314 -4.34779 0
M  V30 13509 H 1301.63 -0.253175 -0.69215 0
M  V30 13510 H 1304.28 -1.25378 -1.4276 0
M  V30 13511 H 1302.43 -0.640665 -3.83181 0
M  V30 13512 H 1304.1 -3.20021 -3.32242 0
M  V30 13513 H 1302.34 -3.05903 -3.0758 0
M  V30 13514 H 1303.01 -2.89306 -4.70113 0
M  V30 13515 H 1305.49 -1.09247 -4.01503 0
M  V30 13516 H 1304.36 -1.00787 -5.39568 0
M  V30 13517 H 1304.63 0.416441 -4.40134 0
M  V30 13518 N 1303.68 1.3679 -0.7827 0
M  V30 13519 C 1304.61 2.32721 -0.190604 0
M  V30 13520 C 1305.6 1.56321 0.670663 0
M  V30 13521 O 1306.78 1.84507 0.605871 0
M  V30 13522 C 1303.91 3.40564 0.680717 0
M  V30 13523 C 1302.86 4.27925 -0.080118 0
M  V30 13524 C 1302.19 5.26876 0.911361 0
M  V30 13525 C 1303.49 5.06738 -1.26545 0
M  V30 13526 H 1305.18 2.82488 -0.992023 0
M  V30 13527 H 1302.73 1.35818 -0.478484 0
M  V30 13528 H 1304.68 4.06659 1.10482 0
M  V30 13529 H 1303.41 2.89348 1.51477 0
M  V30 13530 H 1302.07 3.63376 -0.485125 0
M  V30 13531 H 1301.71 4.71936 1.74026 0
M  V30 13532 H 1301.41 5.8619 0.406762 0
M  V30 13533 H 1302.94 5.95846 1.33418 0
M  V30 13534 H 1304.35 5.65911 -0.917448 0
M  V30 13535 H 1302.75 5.75432 -1.70289 0
M  V30 13536 H 1303.82 4.38772 -2.06415 0
M  V30 13537 N 1305.16 0.53415 1.48272 0
M  V30 13538 C 1306.58 0.192291 1.58437 0
M  V30 13539 C 1306.78 -1.3046 1.53566 0
M  V30 13540 O 1305.83 -2.08316 1.42692 0
M  V30 13541 C 1307.15 0.798515 2.89904 0
M  V30 13542 C 1308.7 0.76763 3.03441 0
M  V30 13543 C 1309.17 1.3525 4.37574 0
M  V30 13544 N 1310.66 1.31466 4.44152 0
M  V30 13545 C 1311.4 1.73706 5.46456 0
M  V30 13546 N 1310.89 2.23695 6.55692 0
M  V30 13547 N 1312.69 1.64918 5.37363 0
M  V30 13548 H 1304.84 1.50696 1.49681 0
M  V30 13549 H 1307.1 0.627073 0.710973 0
M  V30 13550 H 1306.81 1.8496 2.99136 0
M  V30 13551 H 1306.68 0.278033 3.76174 0
M  V30 13552 H 1309.07 -0.274704 2.93819 0
M  V30 13553 H 1309.15 1.32562 2.18771 0
M  V30 13554 H 1308.79 2.39379 4.47951 0
M  V30 13555 H 1308.72 0.770153 5.20938 0
M  V30 13556 H 1311.21 0.948761 3.65796 0
M  V30 13557 H 1311.53 2.5391 7.29897 0
M  V30 13558 H 1309.87 2.27691 6.56644 0
M  V30 13559 H 1313.06 1.25658 4.50919 0
M  V30 13560 H 1313.23 1.98157 6.16958 0
M  V30 13561 N 1306.64 -1.55279 0.269478 0
M  V30 13562 C 1307.87 -2.03876 -0.352418 0
M  V30 13563 C 1308.28 -1.14804 -1.49885 0
M  V30 13564 O 1307.64 -0.166989 -1.81734 0
M  V30 13565 C 1307.69 -3.51634 -0.838799 0
M  V30 13566 O 1307.41 -4.37316 0.261972 0
M  V30 13567 C 1308.91 -4.16094 -1.52909 0
M  V30 13568 H 1306.13 -0.66608 -0.0811043 0
M  V30 13569 H 1308.68 -2.00551 0.399929 0
M  V30 13570 H 1306.83 -3.55421 -1.54125 0
M  V30 13571 H 1307.25 -5.24383 -0.111013 0
M  V30 13572 H 1308.72 -5.21102 -1.82089 0
M  V30 13573 H 1309.2 -3.63928 -2.45872 0
M  V30 13574 H 1309.8 -4.16293 -0.87063 0
M  V30 13575 N 1308.12 0.00332656 -1.576 0
M  V30 13576 C 1309.37 0.688869 -1.90423 0
M  V30 13577 C 1309.69 1.73963 -0.869896 0
M  V30 13578 O 1308.95 1.95295 0.125777 0
M  V30 13579 C 1309.25 1.37237 -3.30001 0
M  V30 13580 C 1308.91 0.455132 -4.48597 0
M  V30 13581 C 1307.58 0.202577 -4.80773 0
M  V30 13582 C 1309.93 -0.176597 -5.20901 0
M  V30 13583 C 1307.26 -0.690055 -5.82628 0
M  V30 13584 C 1309.61 -1.05708 -6.23705 0
M  V30 13585 C 1308.27 -1.31885 -6.54341 0
M  V30 13586 H 1307.54 0.252075 -0.696806 0
M  V30 13587 H 1310.19 -0.0514867 -1.91431 0
M  V30 13588 H 1308.49 2.18669 -3.25102 0
M  V30 13589 H 1310.19 1.9088 -3.52656 0
M  V30 13590 H 1306.78 0.662142 -4.23454 0
M  V30 13591 H 1310.96 0.0055127 -4.963 0
M  V30 13592 H 1306.22 -0.900902 -6.04726 0
M  V30 13593 H 1310.39 -1.55296 -6.78864 0
M  V30 13594 H 1308.02 -2.01222 -7.33085 0
M  V30 13595 N 1309.6 1.55164 0.276031 0
M  V30 13596 C 1311.01 1.46936 0.623061 0
M  V30 13597 C 1311.21 0.680977 1.89644 0
M  V30 13598 O 1310.27 0.198618 2.51718 0
M  V30 13599 C 1311.58 2.91123 0.752839 0
M  V30 13600 C 1313.13 3.01319 0.847093 0
M  V30 13601 C 1313.6 4.46755 1.00867 0
M  V30 13602 N 1315.1 4.5057 1.07427 0
M  V30 13603 C 1315.83 5.60314 1.21804 0
M  V30 13604 N 1315.33 6.7993 1.32919 0
M  V30 13605 N 1317.12 5.4805 1.2489 0
M  V30 13606 H 1309.27 2.04877 -0.560282 0
M  V30 13607 H 1311.53 0.928925 -0.189217 0
M  V30 13608 H 1311.24 3.51521 -0.112333 0
M  V30 13609 H 1311.11 3.39967 1.63408 0
M  V30 13610 H 1313.5 2.41021 1.70274 0
M  V30 13611 H 1313.58 2.55733 -0.0586896 0
M  V30 13612 H 1313.23 5.07655 0.1577 0
M  V30 13613 H 1313.16 4.89995 1.92906 0
M  V30 13614 H 1315.65 3.64404 1.00089 0
M  V30 13615 H 1315.96 7.59319 1.43714 0
M  V30 13616 H 1314.3 6.82747 1.29929 0
M  V30 13617 H 1317.5 4.53542 1.15834 0
M  V30 13618 H 1317.67 6.33621 1.3575 0
M  V30 13619 N 1311.07 -0.540404 1.48045 0
M  V30 13620 C 1312 -1.65538 1.6468 0
M  V30 13621 C 1312.99 -1.62713 0.495847 0
M  V30 13622 O 1314.17 -1.80072 0.727172 0
M  V30 13623 C 1311.3 -3.0415 1.67661 0
M  V30 13624 C 1310.25 -3.2183 2.82152 0
M  V30 13625 C 1309.58 -4.61397 2.70216 0
M  V30 13626 C 1310.88 -3.05596 4.23567 0
M  V30 13627 H 1312.57 -1.51873 2.58021 0
M  V30 13628 H 1310.12 -0.729208 1.24171 0
M  V30 13629 H 1312.07 -3.82013 1.77887 0
M  V30 13630 H 1310.8 -3.18814 0.708907 0
M  V30 13631 H 1309.46 -2.4638 2.71463 0
M  V30 13632 H 1309.1 -4.72883 1.71437 0
M  V30 13633 H 1308.8 -4.74174 3.47035 0
M  V30 13634 H 1310.33 -5.41374 2.82395 0
M  V30 13635 H 1311.74 -3.73261 4.35143 0
M  V30 13636 H 1310.14 -3.29871 5.01303 0
M  V30 13637 H 1311.21 -2.0214 4.40758 0
M  V30 13638 N 1312.55 -1.36459 -0.788468 0
M  V30 13639 C 1313.48 -1.33545 -1.91541 0
M  V30 13640 C 1314.46 -0.206762 -1.68839 0
M  V30 13641 O 1315.65 -0.404553 -1.89939 0
M  V30 13642 C 1312.78 -1.12492 -3.28577 0
M  V30 13643 C 1311.73 -2.22196 -3.65805 0
M  V30 13644 C 1311.06 -1.86285 -5.01201 0
M  V30 13645 C 1312.36 -3.64286 -3.7429 0
M  V30 13646 H 1314.05 -2.27844 -1.94236 0
M  V30 13647 H 1311.6 -1.09677 -0.933105 0
M  V30 13648 H 1313.55 -1.09089 -4.07035 0
M  V30 13649 H 1312.28 -0.146446 -3.26272 0
M  V30 13650 H 1310.93 -2.24727 -2.89644 0
M  V30 13651 H 1310.58 -0.87009 -4.95417 0
M  V30 13652 H 1310.28 -2.59734 -5.27079 0
M  V30 13653 H 1311.81 -1.84439 -5.82078 0
M  V30 13654 H 1313.22 -3.63977 -4.42937 0
M  V30 13655 H 1311.62 -4.36648 -4.11653 0
M  V30 13656 H 1312.69 -3.99123 -2.75371 0
M  V30 13657 N 1314.03 1.01274 -1.20754 0
M  V30 13658 C 1315.45 1.27256 -0.963221 0
M  V30 13659 C 1315.65 1.98349 0.354972 0
M  V30 13660 O 1314.7 2.28116 1.08255 0
M  V30 13661 C 1316.02 2.1038 -2.14851 0
M  V30 13662 C 1317.56 2.23633 -2.18991 0
M  V30 13663 C 1318.04 3.10136 -3.37016 0
M  V30 13664 N 1319.53 3.17724 -3.37054 0
M  V30 13665 C 1320.26 3.84891 -4.25025 0
M  V30 13666 N 1319.76 4.54152 -5.23181 0
M  V30 13667 N 1321.55 3.81454 -4.12855 0
M  V30 13668 H 1313.7 0.535534 -2.05538 0
M  V30 13669 H 1315.97 0.299006 -0.899611 0
M  V30 13670 H 1315.67 1.65484 -3.10335 0
M  V30 13671 H 1315.55 3.11122 -2.13267 0
M  V30 13672 H 1317.93 2.67753 -1.24067 0
M  V30 13673 H 1318.02 1.22387 -2.24622 0
M  V30 13674 H 1317.66 2.66721 -4.32229 0
M  V30 13675 H 1317.59 4.11478 -3.28623 0
M  V30 13676 H 1320.08 2.68412 -2.66014 0
M  V30 13677 H 1320.39 5.03084 -5.86623 0
M  V30 13678 H 1318.74 4.52964 -5.27113 0
M  V30 13679 H 1321.93 3.26494 -3.35439 0
M  V30 13680 H 1322.1 4.33523 -4.81624 0
M  V30 13681 N 1315.51 1.01404 1.20644 0
M  V30 13682 C 1316.76 0.702949 1.90227 0
M  V30 13683 C 1317.09 -0.765243 1.78487 0
M  V30 13684 O 1316.36 -1.55569 1.16741 0
M  V30 13685 C 1316.65 1.13606 3.4171 0
M  V30 13686 C 1316.5 2.66437 3.62397 0
M  V30 13687 C 1317.82 0.705361 4.34411 0
M  V30 13688 H 1314.94 0.256842 0.690797 0
M  V30 13689 H 1317.58 1.26133 1.42093 0
M  V30 13690 H 1315.73 0.660977 3.82836 0
M  V30 13691 H 1317.4 3.21778 3.3054 0
M  V30 13692 H 1315.64 3.0753 3.05954 0
M  V30 13693 H 1316.32 2.91795 4.68572 0
M  V30 13694 H 1318.79 1.11375 4.00918 0
M  V30 13695 H 1317.67 1.03647 5.39026 0
M  V30 13696 H 1317.93 -0.393094 4.40349 0
M  V30 13697 N 1316.99 -1.36373 0.789944 0
M  V30 13698 C 1317.92 -2.32616 0.202944 0
M  V30 13699 C 1318.9 -1.56674 -0.662364 0
M  V30 13700 O 1320.08 -1.84826 -0.596078 0
M  V30 13701 C 1317.21 -3.4092 -0.662646 0
M  V30 13702 C 1316.17 -4.27877 0.102811 0
M  V30 13703 C 1315.49 -5.27352 -0.883407 0
M  V30 13704 C 1316.79 -5.0606 1.29231 0
M  V30 13705 H 1318.49 -2.81958 1.00699 0
M  V30 13706 H 1316.03 -1.35562 0.48568 0
M  V30 13707 H 1317.99 -4.07239 -1.08324 0
M  V30 13708 H 1316.71 -2.90147 -1.4994 0
M  V30 13709 H 1315.37 -3.63114 0.504389 0
M  V30 13710 H 1315.02 -4.72853 -1.71521 0
M  V30 13711 H 1314.72 -5.86398 -0.375669 0
M  V30 13712 H 1316.24 -5.96545 -1.30256 0
M  V30 13713 H 1317.66 -5.65417 0.947446 0
M  V30 13714 H 1316.05 -5.74521 1.73338 0
M  V30 13715 H 1317.12 -4.37671 2.08739 0
M  V30 13716 N 1318.47 -0.542005 -1.47987 0
M  V30 13717 C 1319.41 0.214151 -2.29804 0
M  V30 13718 C 1320.38 0.922625 -1.38119 0
M  V30 13719 O 1321.57 0.921301 -1.67083 0
M  V30 13720 C 1318.71 1.24768 -3.21756 0
M  V30 13721 C 1317.82 0.546824 -4.28525 0
M  V30 13722 C 1316.96 1.56432 -5.07644 0
M  V30 13723 C 1315.99 0.847598 -6.06203 0
M  V30 13724 N 1315.13 1.81121 -6.78336 0
M  V30 13725 H 1319.97 -0.489707 -2.93949 0
M  V30 13726 H 1317.51 -0.253331 -1.44902 0
M  V30 13727 H 1319.47 1.85933 -3.73477 0
M  V30 13728 H 1318.1 1.91976 -2.59509 0
M  V30 13729 H 1317.15 -0.179026 -3.79978 0
M  V30 13730 H 1318.46 -0.0153623 -4.98798 0
M  V30 13731 H 1317.61 2.24992 -5.63439 0
M  V30 13732 H 1316.35 2.16041 -4.37238 0
M  V30 13733 H 1315.36 0.147989 -5.49601 0
M  V30 13734 H 1316.58 0.257454 -6.78612 0
M  V30 13735 H 1314.53 2.39615 -6.10672 0
M  V30 13736 H 1314.45 1.30077 -7.44725 0
M  V30 13737 H 1315.71 2.48842 -7.38714 0
M  V30 13738 N 1319.94 1.55134 -0.277709 0
M  V30 13739 C 1320.87 2.256 0.602232 0
M  V30 13740 C 1321.85 1.24708 1.15681 0
M  V30 13741 O 1323.04 1.53433 1.19046 0
M  V30 13742 C 1320.17 2.97907 1.78519 0
M  V30 13743 C 1319.12 4.0575 1.36203 0
M  V30 13744 C 1318.45 4.65644 2.62829 0
M  V30 13745 C 1319.75 5.19801 0.510327 0
M  V30 13746 H 1321.44 2.99396 0.0145622 0
M  V30 13747 H 1318.99 1.43999 0.00556389 0
M  V30 13748 H 1320.94 3.45915 2.40668 0
M  V30 13749 H 1319.67 2.21649 2.39873 0
M  V30 13750 H 1318.33 3.58557 0.763726 0
M  V30 13751 H 1317.97 3.86053 3.22447 0
M  V30 13752 H 1317.67 5.38463 2.35227 0
M  V30 13753 H 1319.2 5.16403 3.25823 0
M  V30 13754 H 1320.61 5.63845 1.03689 0
M  V30 13755 H 1319.01 5.99197 0.329073 0
M  V30 13756 H 1320.08 4.82614 -0.470273 0
M  V30 13757 N 1321.42 0.00503138 1.57599 0
M  V30 13758 C 1322.67 -0.679766 1.91068 0
M  V30 13759 C 1323 -1.73144 0.879486 0
M  V30 13760 O 1322.28 -1.94237 -0.101116 0
M  V30 13761 C 1322.56 -1.3183 3.35101 0
M  V30 13762 C 1322.41 -0.277833 4.48941 0
M  V30 13763 C 1323.73 -2.24308 3.78647 0
M  V30 13764 H 1320.85 -0.245646 0.694857 0
M  V30 13765 H 1323.49 0.057357 1.89913 0
M  V30 13766 H 1321.64 -1.94657 3.36216 0
M  V30 13767 H 1323.31 0.351136 4.59962 0
M  V30 13768 H 1321.56 0.399365 4.31958 0
M  V30 13769 H 1322.23 -0.763759 5.46691 0
M  V30 13770 H 1324.7 -1.71494 3.79116 0
M  V30 13771 H 1323.58 -2.6595 4.80169 0
M  V30 13772 H 1323.84 -3.12427 3.12797 0
M  V30 13773 N 1322.9 -1.55308 -0.267798 0
M  V30 13774 C 1324.32 -1.47264 -0.61526 0
M  V30 13775 C 1324.52 -0.691025 -1.8928 0
M  V30 13776 O 1323.57 -0.211964 -2.51609 0
M  V30 13777 C 1324.88 -2.91519 -0.73739 0
M  V30 13778 C 1326.43 -3.01764 -0.831102 0
M  V30 13779 C 1326.91 -4.47283 -0.984965 0
M  V30 13780 N 1328.4 -4.51134 -1.05036 0
M  V30 13781 C 1329.13 -5.60952 -1.1883 0
M  V30 13782 N 1328.63 -6.80625 -1.29311 0
M  V30 13783 N 1330.42 -5.48705 -1.21982 0
M  V30 13784 H 1322.57 -2.04577 0.57114 0
M  V30 13785 H 1324.84 -0.927908 0.194141 0
M  V30 13786 H 1324.54 -3.51456 0.130974 0
M  V30 13787 H 1324.42 -3.40829 -1.61603 0
M  V30 13788 H 1326.8 -2.4192 -1.68993 0
M  V30 13789 H 1326.88 -2.55698 0.0722509 0
M  V30 13790 H 1326.53 -5.07732 -0.130776 0
M  V30 13791 H 1326.46 -4.91011 -1.90305 0
M  V30 13792 H 1328.95 -3.6493 -0.981551 0
M  V30 13793 H 1329.26 -7.60071 -1.39685 0
M  V30 13794 H 1327.61 -6.83426 -1.26306 0
M  V30 13795 H 1330.8 -4.5415 -1.13428 0
M  V30 13796 H 1330.97 -6.34332 -1.32388 0
M  V30 13797 N 1324.38 0.532545 -1.4833 0
M  V30 13798 C 1325.62 1.28851 -1.56217 0
M  V30 13799 C 1325.95 1.93076 -0.234967 0
M  V30 13800 O 1325.21 1.79722 0.774508 0
M  V30 13801 C 1325.51 2.40117 -2.64724 0
M  V30 13802 C 1325.17 1.93562 -4.0724 0
M  V30 13803 C 1323.83 1.80583 -4.46031 0
M  V30 13804 C 1326.19 1.58349 -4.96563 0
M  V30 13805 C 1323.51 1.30722 -5.71952 0
M  V30 13806 C 1325.87 1.09951 -6.22972 0
M  V30 13807 C 1324.53 0.955866 -6.60621 0
M  V30 13808 H 1323.8 0.4715 -0.571637 0
M  V30 13809 H 1326.45 0.594564 -1.82036 0
M  V30 13810 H 1324.75 3.15171 -2.32754 0
M  V30 13811 H 1326.45 2.98252 -2.68042 0
M  V30 13812 H 1323.04 2.04614 -3.76605 0
M  V30 13813 H 1327.22 1.67237 -4.67274 0
M  V30 13814 H 1322.48 1.18286 -5.99849 0
M  V30 13815 H 1326.65 0.817736 -6.91582 0
M  V30 13816 H 1324.28 0.567302 -7.5808 0
M  V30 13817 N 1325.86 1.36875 0.78122 0
M  V30 13818 C 1326.79 1.34559 1.9083 0
M  V30 13819 C 1327.77 0.215713 1.68727 0
M  V30 13820 O 1328.95 0.41462 1.89722 0
M  V30 13821 C 1326.08 1.14233 3.27976 0
M  V30 13822 C 1325.04 2.24132 3.64621 0
M  V30 13823 C 1324.36 1.8894 5.00206 0
M  V30 13824 C 1325.66 3.66266 3.72353 0
M  V30 13825 H 1327.36 2.28871 1.93025 0
M  V30 13826 H 1324.9 1.10171 0.927275 0
M  V30 13827 H 1326.85 1.11246 4.06451 0
M  V30 13828 H 1325.58 0.163747 3.26189 0
M  V30 13829 H 1324.24 2.26259 2.88448 0
M  V30 13830 H 1323.89 0.896351 4.94949 0
M  V30 13831 H 1323.59 2.62525 5.25694 0
M  V30 13832 H 1325.11 1.87523 5.81092 0
M  V30 13833 H 1326.52 3.66321 4.41001 0
M  V30 13834 H 1324.92 4.38825 4.09332 0
M  V30 13835 H 1325.99 4.00578 2.7325 0
M  V30 13836 N 1327.33 -1.00632 1.21289 0
M  V30 13837 C 1328.74 -1.55838 1.02817 0
M  V30 13838 C 1329.1 -1.91816 -0.412425 0
M  V30 13839 O 1328.22 -1.73342 -1.29543 0
M  V30 13840 C 1328.82 -2.83168 1.86014 0
M  V30 13841 C 1327.37 -3.34865 1.71879 0
M  V30 13842 C 1326.52 -2.0807 1.83309 0
M  V30 13843 H 1329.47 -0.828939 1.3533 0
M  V30 13844 H 1329.49 -3.54996 1.36961 0
M  V30 13845 H 1329.01 -2.56951 2.90857 0
M  V30 13846 H 1327.11 -3.6602 0.697153 0
M  V30 13847 H 1327.22 -4.06374 2.53766 0
M  V30 13848 H 1325.58 -2.21006 1.26603 0
M  V30 13849 H 1326.37 -1.84267 2.89656 0
M  V30 13850 N 1328.81 -1.02043 -1.20104 0
M  V30 13851 C 1329.77 -0.598682 -2.21243 0
M  V30 13852 C 1330.77 0.333205 -1.5731 0
M  V30 13853 O 1331.96 0.12137 -1.73777 0
M  V30 13854 C 1329.1 0.125183 -3.4067 0
M  V30 13855 H 1330.29 -1.49345 -2.60069 0
M  V30 13856 H 1327.84 -0.810649 -1.33634 0
M  V30 13857 H 1328.58 1.03469 -3.07351 0
M  V30 13858 H 1328.36 -0.544316 -3.88304 0
M  V30 13859 H 1329.85 0.407469 -4.15607 0
M  V30 13860 N 1330.29 1.35952 -0.797165 0
M  V30 13861 C 1331.22 2.32506 -0.215277 0
M  V30 13862 C 1332.2 1.57023 0.654046 0
M  V30 13863 O 1333.39 1.85139 0.586268 0
M  V30 13864 C 1330.52 3.41266 0.644557 0
M  V30 13865 C 1329.47 4.27816 -0.125501 0
M  V30 13866 C 1328.8 5.27813 0.855428 0
M  V30 13867 C 1330.1 5.05367 -1.31913 0
M  V30 13868 H 1331.79 2.8142 -1.02193 0
M  V30 13869 H 1329.34 1.35303 -0.492862 0
M  V30 13870 H 1331.29 4.07808 1.06163 0
M  V30 13871 H 1330.01 2.90938 1.484 0
M  V30 13872 H 1328.67 3.62841 -0.523639 0
M  V30 13873 H 1328.32 4.73755 1.69011 0
M  V30 13874 H 1328.02 5.86589 0.344566 0
M  V30 13875 H 1329.54 5.97227 1.2709 0
M  V30 13876 H 1330.96 5.64907 -0.977418 0
M  V30 13877 H 1329.36 5.73593 -1.76382 0
M  V30 13878 H 1330.43 4.36558 -2.11057 0
M  V30 13879 N 1331.77 0.549846 1.47697 0
M  V30 13880 C 1333.18 0.209085 1.58225 0
M  V30 13881 C 1333.38 -1.28823 1.54941 0
M  V30 13882 O 1332.44 -2.0679 1.44893 0
M  V30 13883 C 1333.75 0.829219 2.89041 0
M  V30 13884 C 1335.3 0.79977 3.0261 0
M  V30 13885 C 1335.78 1.39884 4.36115 0
M  V30 13886 N 1337.27 1.36169 4.42733 0
M  V30 13887 C 1338 1.79492 5.44583 0
M  V30 13888 N 1337.5 2.30637 6.53283 0
M  V30 13889 N 1339.29 1.70608 5.35583 0
M  V30 13890 H 1331.44 1.52275 1.48074 0
M  V30 13891 H 1333.71 0.634579 0.704283 0
M  V30 13892 H 1333.41 1.88122 2.97158 0
M  V30 13893 H 1333.29 0.317916 3.75858 0
M  V30 13894 H 1335.67 -0.243525 2.94093 0
M  V30 13895 H 1335.75 1.34875 2.17353 0
M  V30 13896 H 1335.4 2.44116 4.45387 0
M  V30 13897 H 1335.33 0.825362 5.20092 0
M  V30 13898 H 1337.82 0.987505 3.64769 0
M  V30 13899 H 1338.13 2.61637 7.27163 0
M  V30 13900 H 1336.48 2.34643 6.54192 0
M  V30 13901 H 1339.67 1.30434 4.4956 0
M  V30 13902 H 1339.84 2.0469 6.14822 0
M  V30 13903 N 1333.25 -1.54984 0.285932 0
M  V30 13904 C 1334.66 -1.59455 -0.0679061 0
M  V30 13905 C 1334.86 -1.30308 -1.53695 0
M  V30 13906 O 1333.92 -1.06918 -2.28746 0
M  V30 13907 C 1335.23 -2.9903 0.316469 0
M  V30 13908 C 1336.78 -3.11885 0.263982 0
M  V30 13909 C 1337.25 -4.53744 0.622956 0
M  V30 13910 N 1338.75 -4.59618 0.574917 0
M  V30 13911 C 1339.48 -5.67429 0.825339 0
M  V30 13912 N 1338.98 -6.83341 1.14094 0
M  V30 13913 N 1340.77 -5.57028 0.75341 0
M  V30 13914 H 1332.92 -1.72194 1.2435 0
M  V30 13915 H 1335.18 -0.80348 0.503114 0
M  V30 13916 H 1334.89 -3.25232 1.33855 0
M  V30 13917 H 1334.76 -3.75688 -0.337371 0
M  V30 13918 H 1337.15 -2.85441 -0.748832 0
M  V30 13919 H 1337.23 -2.37416 0.952233 0
M  V30 13920 H 1336.88 -4.80915 1.63351 0
M  V30 13921 H 1336.81 -5.26528 -0.0872039 0
M  V30 13922 H 1339.3 -3.76356 0.341305 0
M  V30 13923 H 1339.61 -7.61471 1.3184 0
M  V30 13924 H 1337.95 -6.8493 1.17883 0
M  V30 13925 H 1341.15 -4.6535 0.506611 0
M  V30 13926 H 1341.32 -6.4097 0.95195 0
M  V30 13927 N 1334.72 -0.0133892 -1.57594 0
M  V30 13928 C 1335.66 1.00211 -2.06132 0
M  V30 13929 C 1336.67 1.29869 -0.98173 0
M  V30 13930 O 1337.86 1.2661 -1.25826 0
M  V30 13931 C 1334.96 2.33354 -2.45763 0
M  V30 13932 C 1334.13 2.22441 -3.76615 0
M  V30 13933 C 1333.19 3.38385 -4.02967 0
M  V30 13934 O 1332.22 3.15973 -4.73445 0
M  V30 13935 N 1333.42 4.61672 -3.51908 0
M  V30 13936 H 1336.18 0.588079 -2.93874 0
M  V30 13937 H 1333.74 0.173714 -1.60965 0
M  V30 13938 H 1335.74 3.09716 -2.60496 0
M  V30 13939 H 1334.31 2.66451 -1.6347 0
M  V30 13940 H 1333.53 1.30905 -3.7183 0
M  V30 13941 H 1334.81 2.12337 -4.62375 0
M  V30 13942 H 1334.21 4.82777 -2.9486 0
M  V30 13943 H 1332.77 5.35256 -3.71947 0
M  V30 13944 N 1336.2 1.55448 0.259558 0
M  V30 13945 C 1337.13 1.9226 1.32508 0
M  V30 13946 C 1338.11 0.786012 1.5085 0
M  V30 13947 O 1339.3 1.04526 1.6367 0
M  V30 13948 C 1336.43 2.20627 2.68218 0
M  V30 13949 C 1335.38 3.36418 2.64589 0
M  V30 13950 C 1334.71 3.50295 4.03977 0
M  V30 13951 C 1336.01 4.72452 2.2268 0
M  V30 13952 H 1337.7 2.81509 1.01945 0
M  V30 13953 H 1335.25 1.35444 0.488965 0
M  V30 13954 H 1337.2 2.44968 3.42883 0
M  V30 13955 H 1335.93 1.28191 3.00391 0
M  V30 13956 H 1334.58 3.12065 1.92382 0
M  V30 13957 H 1334.23 2.55302 4.33394 0
M  V30 13958 H 1333.93 4.28155 4.02439 0
M  V30 13959 H 1335.46 3.76944 4.8036 0
M  V30 13960 H 1336.87 4.96249 2.87071 0
M  V30 13961 H 1335.27 5.53323 2.32279 0
M  V30 13962 H 1336.34 4.70367 1.17826 0
M  V30 13963 N 1337.68 -0.524672 1.4861 0
M  V30 13964 C 1338.93 -1.28211 1.5713 0
M  V30 13965 C 1339.26 -1.92626 0.246751 0
M  V30 13966 O 1338.53 -1.79553 -0.747725 0
M  V30 13967 C 1338.82 -2.36737 2.71344 0
M  V30 13968 C 1338.67 -1.76978 4.1352 0
M  V30 13969 C 1339.99 -3.3847 2.81294 0
M  V30 13970 H 1337.11 -0.46479 0.571961 0
M  V30 13971 H 1339.75 -0.583937 1.80804 0
M  V30 13972 H 1337.9 -2.96287 2.51289 0
M  V30 13973 H 1339.57 -1.21438 4.45029 0
M  V30 13974 H 1337.82 -1.07488 4.20272 0
M  V30 13975 H 1338.49 -2.55583 4.89266 0
M  V30 13976 H 1340.96 -2.88882 2.99477 0
M  V30 13977 H 1339.84 -4.11795 3.62928 0
M  V30 13978 H 1340.1 -3.99347 1.89669 0
M  V30 13979 N 1339.16 -1.37287 -0.77395 0
M  V30 13980 C 1340.4 -1.3257 -1.5347 0
M  V30 13981 C 1340.74 0.090346 -1.9399 0
M  V30 13982 O 1340.01 1.04719 -1.63903 0
M  V30 13983 C 1340.3 -2.26277 -2.80126 0
M  V30 13984 C 1340.15 -3.76651 -2.45874 0
M  V30 13985 C 1341.47 -2.18471 -3.82045 0
M  V30 13986 H 1338.59 -0.48289 -0.556764 0
M  V30 13987 H 1341.23 -1.6797 -0.888039 0
M  V30 13988 H 1339.38 -1.96219 -3.35306 0
M  V30 13989 H 1341.05 -4.17296 -1.96626 0
M  V30 13990 H 1339.29 -3.95327 -1.78602 0
M  V30 13991 H 1339.96 -4.3765 -3.36403 0
M  V30 13992 H 1342.44 -2.44962 -3.36352 0
M  V30 13993 H 1341.32 -2.86183 -4.68392 0
M  V30 13994 H 1341.58 -1.17692 -4.26147 0
M  V30 13995 N 1340.64 0.999871 -1.21821 0
M  V30 13996 C 1341.57 2.10708 -1.00621 0
M  V30 13997 C 1342.55 1.69954 0.0705417 0
M  V30 13998 O 1343.73 1.9399 -0.0903042 0
M  V30 13999 C 1340.86 3.42496 -0.575646 0
M  V30 14000 C 1339.82 3.97068 -1.59754 0
M  V30 14001 C 1339.14 5.24822 -1.02304 0
M  V30 14002 C 1340.44 4.28545 -2.98574 0
M  V30 14003 H 1342.14 2.28701 -1.93226 0
M  V30 14004 H 1339.68 1.09903 -0.930443 0
M  V30 14005 H 1341.64 4.19357 -0.414481 0
M  V30 14006 H 1340.36 3.2431 0.386059 0
M  V30 14007 H 1339.02 3.22332 -1.74636 0
M  V30 14008 H 1338.67 5.02972 -0.0529016 0
M  V30 14009 H 1338.37 5.62299 -1.70567 0
M  V30 14010 H 1339.89 6.04322 -0.873312 0
M  V30 14011 H 1341.3 4.96229 -2.87106 0
M  V30 14012 H 1339.7 4.77178 -3.63897 0
M  V30 14013 H 1340.77 3.36607 -3.49032 0
M  V30 14014 N 1342.11 1.02678 1.19562 0
M  V30 14015 C 1343.36 0.723086 1.89471 0
M  V30 14016 C 1343.69 -0.746269 1.79289 0
M  V30 14017 O 1342.97 -1.54322 1.18384 0
M  V30 14018 C 1343.25 1.17224 3.40486 0
M  V30 14019 C 1343.1 2.70266 3.5955 0
M  V30 14020 C 1344.42 0.751397 4.33638 0
M  V30 14021 H 1341.54 0.264155 0.688034 0
M  V30 14022 H 1344.18 1.27633 1.40747 0
M  V30 14023 H 1342.33 0.701544 3.82113 0
M  V30 14024 H 1344.01 3.25266 3.27108 0
M  V30 14025 H 1342.25 3.10758 3.02675 0
M  V30 14026 H 1342.92 2.96748 4.65451 0
M  V30 14027 H 1345.4 1.15621 3.99714 0
M  V30 14028 H 1344.27 1.09358 5.37896 0
M  V30 14029 H 1344.53 -0.346367 4.40741 0
M  V30 14030 N 1343.59 -1.35528 0.804364 0
M  V30 14031 C 1344.54 -2.29832 0.211186 0
M  V30 14032 C 1345.51 -1.52704 -0.653503 0
M  V30 14033 O 1346.69 -1.81152 -0.599052 0
M  V30 14034 C 1343.83 -3.39188 -0.636054 0
M  V30 14035 C 1342.95 -4.31283 0.248824 0
M  V30 14036 C 1342.08 -5.2773 -0.60621 0
M  V30 14037 C 1341.12 -6.11463 0.279205 0
M  V30 14038 N 1340.26 -7.00054 -0.535672 0
M  V30 14039 H 1345.1 -2.79971 1.0208 0
M  V30 14040 H 1342.64 -1.37793 0.514931 0
M  V30 14041 H 1344.59 -4.01254 -1.14241 0
M  V30 14042 H 1343.22 -2.90331 -1.41095 0
M  V30 14043 H 1342.28 -3.70241 0.873263 0
M  V30 14044 H 1343.59 -4.90046 0.930417 0
M  V30 14045 H 1342.74 -5.95158 -1.17778 0
M  V30 14046 H 1341.48 -4.69458 -1.32138 0
M  V30 14047 H 1340.49 -5.42984 0.863066 0
M  V30 14048 H 1341.71 -6.71813 0.9922 0
M  V30 14049 H 1339.66 -6.44273 -1.23486 0
M  V30 14050 H 1339.57 -7.55949 0.0879213 0
M  V30 14051 H 1340.84 -7.71833 -1.09059 0
M  V30 14052 N 1345.07 -0.557671 -1.47404 0
M  V30 14053 C 1346.3 -0.0386599 -2.06864 0
M  V30 14054 C 1346.71 1.25527 -1.41027 0
M  V30 14055 O 1346.07 1.75318 -0.506949 0
M  V30 14056 C 1346.12 0.160141 -3.61145 0
M  V30 14057 O 1345.84 -1.08255 -4.24515 0
M  V30 14058 C 1347.34 0.716381 -4.37473 0
M  V30 14059 H 1344.56 -0.0460523 -0.669418 0
M  V30 14060 H 1347.11 -0.771214 -1.894 0
M  V30 14061 H 1345.26 0.842826 -3.78121 0
M  V30 14062 H 1345.68 -0.88057 -5.17055 0
M  V30 14063 H 1347.15 0.804773 -5.46102 0
M  V30 14064 H 1347.63 1.72776 -4.03788 0
M  V30 14065 H 1348.23 0.0693787 -4.25243 0
M  V30 14066 N 1346.55 1.54831 -0.294147 0
M  V30 14067 C 1347.48 2.19422 0.626821 0
M  V30 14068 C 1348.46 1.16136 1.13804 0
M  V30 14069 O 1349.64 1.44747 1.2075 0
M  V30 14070 C 1346.77 2.83262 1.85689 0
M  V30 14071 C 1345.82 4.00016 1.4795 0
M  V30 14072 S 1346.65 5.32757 0.541307 0
M  V30 14073 C 1347.81 6.00076 1.77932 0
M  V30 14074 H 1348.04 2.97198 0.0780539 0
M  V30 14075 H 1345.57 1.54201 -0.0783131 0
M  V30 14076 H 1347.53 3.20671 2.56282 0
M  V30 14077 H 1346.19 2.05345 2.37681 0
M  V30 14078 H 1345.38 4.43443 2.3953 0
M  V30 14079 H 1344.99 3.64129 0.853573 0
M  V30 14080 H 1347.28 6.20466 2.7208 0
M  V30 14081 H 1348.22 6.94368 1.38774 0
M  V30 14082 H 1348.63 5.29643 1.95292 0
M  V30 14083 N 1348.03 0.0217466 1.57585 0
M  V30 14084 C 1349.3 -0.696733 1.8277 0
M  V30 14085 C 1349.68 -1.90759 0.904112 0
M  V30 14086 O 1349.03 -2.28461 -0.0420522 0
M  V30 14087 C 1349.24 -1.08193 3.31806 0
M  V30 14088 C 1350.59 -1.47667 3.98095 0
M  V30 14089 O 1351.61 -1.17511 3.36258 0
M  V30 14090 O 1350.47 -2.03825 5.07068 0
M  V30 14091 H 1347.57 -0.341141 0.75336 0
M  V30 14092 H 1350.11 0.0488652 1.6963 0
M  V30 14093 H 1348.89 -0.219799 3.90682 0
M  V30 14094 H 1348.51 -1.88593 3.50026 0
M  V30 14095 N 1349.51 -1.55583 -0.251311 0
M  V30 14096 C 1350.45 -1.90764 -1.33086 0
M  V30 14097 C 1351.45 -0.786236 -1.50049 0
M  V30 14098 O 1352.65 -0.97081 -1.51576 0
M  V30 14099 H 1349.03 -0.605795 -0.445551 0
M  V30 14100 H 1351 -2.80903 -1.00678 0
M  V30 14101 C 1349.75 -2.21499 -2.68018 0
M  V30 14102 H 1349.07 -3.07287 -2.55763 0
M  V30 14103 H 1350.51 -2.50021 -3.42441 0
M  V30 14104 C 1348.97 -1.02983 -3.20774 0
M  V30 14105 O 1349.5 -0.275557 -4.00754 0
M  V30 14106 N 1347.71 -0.821649 -2.78742 0
M  V30 14107 H 1347.25 -1.43672 -2.13813 0
M  V30 14108 H 1347.21 -0.0303445 -3.14385 0
M  V30 14109 N 1350.98 0.516783 -1.48886 0
M  V30 14110 C 1352.23 1.27375 -1.57808 0
M  V30 14111 C 1352.56 1.92492 -0.256963 0
M  V30 14112 O 1351.84 1.79947 0.738193 0
M  V30 14113 C 1352.12 2.35295 -2.72595 0
M  V30 14114 C 1351.97 1.74783 -4.14453 0
M  V30 14115 C 1353.29 3.36973 -2.83085 0
M  V30 14116 H 1350.41 0.46175 -0.574418 0
M  V30 14117 H 1353.05 0.57434 -1.81111 0
M  V30 14118 H 1351.2 2.94951 -2.52857 0
M  V30 14119 H 1352.88 1.19076 -4.45666 0
M  V30 14120 H 1351.12 1.05258 -4.20836 0
M  V30 14121 H 1351.79 2.52985 -4.90615 0
M  V30 14122 H 1354.27 2.87289 -3.01005 0
M  V30 14123 H 1353.14 4.09864 -3.65106 0
M  V30 14124 H 1353.4 3.98336 -1.91784 0
M  V30 14125 N 1352.46 1.37696 0.766659 0
M  V30 14126 C 1353.42 1.33688 1.86172 0
M  V30 14127 C 1354.42 0.239922 1.59 0
M  V30 14128 O 1355.61 0.496066 1.66988 0
M  V30 14129 C 1352.75 1.07807 3.23405 0
M  V30 14130 H 1353.94 2.311 1.91136 0
M  V30 14131 H 1351.49 1.22799 0.966961 0
M  V30 14132 H 1352.23 0.109477 3.24115 0
M  V30 14133 H 1352.01 1.87213 3.4452 0
M  V30 14134 H 1353.5 1.07665 4.03482 0
M  V30 14135 N 1353.94 -0.993397 1.22349 0
M  V30 14136 C 1355.17 -1.76838 1.07406 0
M  V30 14137 C 1355.58 -1.8503 -0.37542 0
M  V30 14138 O 1354.94 -1.32008 -1.26016 0
M  V30 14139 C 1354.99 -3.20177 1.67837 0
M  V30 14140 O 1354.71 -3.12429 3.07115 0
M  V30 14141 C 1356.21 -4.14125 1.58161 0
M  V30 14142 H 1353.43 -0.555379 0.376557 0
M  V30 14143 H 1355.98 -1.24893 1.61932 0
M  V30 14144 H 1354.13 -3.69191 1.17375 0
M  V30 14145 H 1354.55 -4.02568 3.36213 0
M  V30 14146 H 1356.02 -5.12455 2.05169 0
M  V30 14147 H 1356.5 -4.35892 0.538073 0
M  V30 14148 H 1357.1 -3.71008 2.07926 0
M  V30 14149 N 1355.42 -1.03311 -1.19015 0
M  V30 14150 C 1356.66 -0.732039 -1.88805 0
M  V30 14151 C 1356.99 0.739688 -1.79886 0
M  V30 14152 O 1356.25 1.55476 -1.18851 0
M  V30 14153 C 1356.55 -1.13402 -3.38932 0
M  V30 14154 C 1356.21 -2.60473 -3.68055 0
M  V30 14155 C 1354.87 -3.00654 -3.75713 0
M  V30 14156 C 1357.23 -3.55604 -3.81045 0
M  V30 14157 C 1354.55 -4.3487 -3.93833 0
M  V30 14158 C 1356.91 -4.89529 -4.00679 0
M  V30 14159 C 1355.57 -5.29392 -4.06571 0
M  V30 14160 H 1354.84 -0.267872 -0.690888 0
M  V30 14161 H 1357.49 -1.29673 -1.40915 0
M  V30 14162 H 1355.79 -0.487997 -3.88749 0
M  V30 14163 H 1357.49 -0.878532 -3.91258 0
M  V30 14164 H 1354.08 -2.28348 -3.62706 0
M  V30 14165 H 1358.26 -3.25711 -3.74467 0
M  V30 14166 H 1353.52 -4.65285 -3.96636 0
M  V30 14167 H 1357.69 -5.63153 -4.09672 0
M  V30 14168 H 1355.32 -6.33402 -4.20364 0
M  V30 14169 N 1356.9 1.35099 -0.81154 0
M  V30 14170 C 1358.14 2.00449 -0.399935 0
M  V30 14171 C 1358.5 1.62971 1.0151 0
M  V30 14172 O 1359.7 2.21078 1.52898 0
M  V30 14173 C 1357.97 3.52608 -0.583277 0
M  V30 14174 S 1359.53 4.38012 -0.26283 0
M  V30 14175 H 1356.35 0.69464 -0.151644 0
M  V30 14176 H 1358.95 1.64599 -1.05487 0
M  V30 14177 H 1357.65 3.77372 -1.61303 0
M  V30 14178 H 1357.19 3.93304 0.0868032 0
M  V30 14179 H 1359.2 4.87451 0.927696 0
M  V30 14180 N 1358.37 0.56548 1.47106 0
M  V30 14181 C 1359.6 0.0496298 2.0684 0
M  V30 14182 C 1360.02 -1.24777 1.4169 0
M  V30 14183 O 1359.37 -1.75046 0.516239 0
M  V30 14184 C 1359.42 -0.140987 3.61225 0
M  V30 14185 O 1359.15 1.10504 4.23934 0
M  V30 14186 C 1360.65 -0.693171 4.37847 0
M  V30 14187 H 1357.87 0.0496018 0.669164 0
M  V30 14188 H 1360.41 0.781247 1.88989 0
M  V30 14189 H 1358.57 -0.822762 3.78562 0
M  V30 14190 H 1358.98 0.907978 5.16581 0
M  V30 14191 H 1360.45 -0.7758 5.46521 0
M  V30 14192 H 1360.93 -1.70632 4.04699 0
M  V30 14193 H 1361.54 -0.046826 4.25274 0
M  V30 14194 N 1359.85 -1.54672 0.302354 0
M  V30 14195 C 1360.78 -2.2653 -0.566265 0
M  V30 14196 C 1361.76 -1.26532 -1.13682 0
M  V30 14197 O 1362.95 -1.55307 -1.1659 0
M  V30 14198 C 1360.08 -3.00709 -1.73757 0
M  V30 14199 C 1359.03 -4.07865 -1.29731 0
M  V30 14200 C 1358.36 -4.69767 -2.55388 0
M  V30 14201 C 1359.66 -5.20547 -0.427567 0
M  V30 14202 H 1361.35 -2.99382 0.033071 0
M  V30 14203 H 1358.9 -1.4399 0.0173458 0
M  V30 14204 H 1360.85 -3.497 -2.35134 0
M  V30 14205 H 1359.58 -2.25437 -2.36317 0
M  V30 14206 H 1358.23 -3.59726 -0.706586 0
M  V30 14207 H 1357.88 -3.91134 -3.16265 0
M  V30 14208 H 1357.58 -5.42137 -2.26631 0
M  V30 14209 H 1359.11 -5.21521 -3.17566 0
M  V30 14210 H 1360.52 -5.65424 -0.947053 0
M  V30 14211 H 1358.92 -5.99645 -0.233704 0
M  V30 14212 H 1359.99 -4.81805 0.546993 0
M  V30 14213 N 1361.33 -0.0301034 -1.57571 0
M  V30 14214 C 1362.26 0.94977 -2.13311 0
M  V30 14215 C 1363.24 1.33865 -1.04948 0
M  V30 14216 O 1364.43 1.4171 -1.32786 0
M  V30 14217 C 1361.56 2.23178 -2.66099 0
M  V30 14218 C 1360.51 1.98362 -3.79258 0
M  V30 14219 C 1359.84 3.32836 -4.18479 0
M  V30 14220 C 1361.14 1.32201 -5.05292 0
M  V30 14221 H 1362.83 0.485562 -2.95436 0
M  V30 14222 H 1360.38 0.232116 -1.42117 0
M  V30 14223 H 1362.33 2.92108 -3.03728 0
M  V30 14224 H 1361.05 2.71766 -1.81137 0
M  V30 14225 H 1359.71 1.31849 -3.42069 0
M  V30 14226 H 1359.36 3.79185 -3.30496 0
M  V30 14227 H 1359.06 3.17037 -4.94733 0
M  V30 14228 H 1360.58 4.03032 -4.58691 0
M  V30 14229 H 1362 1.91133 -5.40501 0
M  V30 14230 H 1360.4 1.26797 -5.86551 0
M  V30 14231 H 1361.47 0.29511 -4.84001 0
M  V30 14232 N 1362.81 1.55714 0.243056 0
M  V30 14233 C 1363.74 1.85615 1.32748 0
M  V30 14234 C 1364.72 0.711577 1.46203 0
M  V30 14235 O 1365.9 0.957732 1.62357 0
M  V30 14236 C 1363.03 2.04425 2.70052 0
M  V30 14237 C 1362.08 3.27071 2.73727 0
M  V30 14238 S 1362.91 4.83615 2.2995 0
M  V30 14239 C 1364.07 5.05434 3.69171 0
M  V30 14240 H 1364.3 2.77305 1.07187 0
M  V30 14241 H 1361.83 1.47871 0.444234 0
M  V30 14242 H 1363.79 2.15946 3.4911 0
M  V30 14243 H 1362.45 1.1357 2.92849 0
M  V30 14244 H 1361.64 3.37211 3.74573 0
M  V30 14245 H 1361.25 3.14296 2.02716 0
M  V30 14246 H 1363.54 4.93013 4.64698 0
M  V30 14247 H 1364.48 6.07401 3.63963 0
M  V30 14248 H 1364.89 4.33262 3.61862 0
M  V30 14249 N 1364.29 -0.50888 1.49158 0
M  V30 14250 C 1365.22 -1.62008 1.68154 0
M  V30 14251 C 1366.2 -1.61624 0.53025 0
M  V30 14252 O 1367.38 -1.78489 0.765205 0
M  V30 14253 C 1364.51 -3.00525 1.74075 0
M  V30 14254 C 1363.47 -3.15773 2.88915 0
M  V30 14255 C 1362.79 -4.55562 2.79942 0
M  V30 14256 C 1364.09 -2.96542 4.29953 0
M  V30 14257 H 1365.79 -1.46365 2.61185 0
M  V30 14258 H 1363.33 -0.702705 1.2569 0
M  V30 14259 H 1365.29 -3.78154 1.8595 0
M  V30 14260 H 1364.01 -3.17238 0.776373 0
M  V30 14261 H 1362.67 -2.40567 2.76628 0
M  V30 14262 H 1362.32 -4.6914 1.81429 0
M  V30 14263 H 1362.02 -4.66706 3.57015 0
M  V30 14264 H 1363.54 -5.35262 2.93814 0
M  V30 14265 H 1364.95 -3.63947 4.42963 0
M  V30 14266 H 1363.35 -3.19164 5.08187 0
M  V30 14267 H 1364.42 -1.92745 4.44946 0
M  V30 14268 N 1365.76 -1.381 -0.759346 0
M  V30 14269 C 1367.01 -1.33992 -1.5183 0
M  V30 14270 C 1367.34 0.0718172 -1.94367 0
M  V30 14271 O 1366.59 1.0477 -1.65293 0
M  V30 14272 C 1366.89 -2.23636 -2.78786 0
M  V30 14273 C 1366.56 -3.71703 -2.5524 0
M  V30 14274 C 1365.22 -4.12053 -2.48528 0
M  V30 14275 C 1367.57 -4.65455 -2.34523 0
M  V30 14276 C 1364.9 -5.44252 -2.19105 0
M  V30 14277 C 1367.25 -5.97905 -2.06622 0
M  V30 14278 C 1365.92 -6.37345 -1.98362 0
M  V30 14279 H 1365.19 -0.490311 -0.555587 0
M  V30 14280 H 1367.83 -1.70411 -0.873637 0
M  V30 14281 H 1366.14 -1.80253 -3.47874 0
M  V30 14282 H 1367.84 -2.17764 -3.36719 0
M  V30 14283 H 1364.43 -3.3971 -2.61333 0
M  V30 14284 H 1368.61 -4.35132 -2.38691 0
M  V30 14285 H 1363.87 -5.73758 -2.11214 0
M  V30 14286 H 1368.04 -6.70095 -1.89594 0
M  V30 14287 H 1365.67 -7.39706 -1.75328 0
M  V30 14288 N 1367.24 0.986894 -1.22875 0
M  V30 14289 C 1368.49 1.72152 -1.05103 0
M  V30 14290 C 1368.8 1.91185 0.413248 0
M  V30 14291 O 1370.01 2.62031 0.710759 0
M  V30 14292 C 1368.47 3.09771 -1.8322 0
M  V30 14293 C 1368.07 2.98648 -3.33936 0
M  V30 14294 C 1369.82 3.87238 -1.73917 0
M  V30 14295 C 1367.73 4.31459 -4.04471 0
M  V30 14296 H 1366.66 0.645498 -0.389677 0
M  V30 14297 H 1369.31 1.10125 -1.46781 0
M  V30 14298 H 1367.69 3.72515 -1.34345 0
M  V30 14299 H 1368.86 2.45033 -3.9025 0
M  V30 14300 H 1367.18 2.34661 -3.43982 0
M  V30 14301 H 1369.77 4.85549 -2.23933 0
M  V30 14302 H 1370.12 4.1036 -0.700711 0
M  V30 14303 H 1370.65 3.31183 -2.20369 0
M  V30 14304 H 1367.39 4.13534 -5.08596 0
M  V30 14305 H 1366.91 4.84964 -3.52944 0
M  V30 14306 H 1368.59 5.00179 -4.10403 0
M  V30 14307 N 1368.72 1.0394 1.18466 0
M  V30 14308 C 1369.97 0.742042 1.88414 0
M  V30 14309 C 1370.3 -0.730138 1.80275 0
M  V30 14310 O 1369.55 -1.54844 1.19674 0
M  V30 14311 C 1369.85 1.15198 3.38326 0
M  V30 14312 C 1369.52 2.62422 3.66668 0
M  V30 14313 C 1368.18 3.02643 3.74113 0
M  V30 14314 C 1370.53 3.5762 3.79153 0
M  V30 14315 C 1367.86 4.36953 3.91522 0
M  V30 14316 C 1370.21 4.91647 3.98077 0
M  V30 14317 C 1368.87 5.31541 4.03758 0
M  V30 14318 H 1368.14 0.271532 0.689457 0
M  V30 14319 H 1370.79 1.30419 1.40225 0
M  V30 14320 H 1369.1 0.508607 3.88485 0
M  V30 14321 H 1370.79 0.899269 3.90787 0
M  V30 14322 H 1367.38 2.30268 3.61489 0
M  V30 14323 H 1371.57 3.27693 3.72735 0
M  V30 14324 H 1366.82 4.67382 3.94163 0
M  V30 14325 H 1371 5.65318 4.0668 0
M  V30 14326 H 1368.62 6.35622 4.16999 0
M  V30 14327 N 1370.2 -1.34667 0.818693 0
M  V30 14328 C 1371.45 -1.9767 0.401184 0
M  V30 14329 C 1371.76 -1.65644 -1.04027 0
M  V30 14330 O 1372.97 -2.22104 -1.56148 0
M  V30 14331 C 1371.42 -3.53677 0.666398 0
M  V30 14332 C 1371.03 -3.94601 2.12119 0
M  V30 14333 C 1372.77 -4.23331 0.314845 0
M  V30 14334 C 1370.68 -5.43502 2.33151 0
M  V30 14335 H 1369.61 -0.739675 0.146275 0
M  V30 14336 H 1372.26 -1.53568 1.00445 0
M  V30 14337 H 1370.64 -3.95999 -0.00698307 0
M  V30 14338 H 1371.82 -3.63396 2.83338 0
M  V30 14339 H 1370.13 -3.37871 2.43377 0
M  V30 14340 H 1372.73 -5.32804 0.449881 0
M  V30 14341 H 1373.07 -4.09666 -0.740235 0
M  V30 14342 H 1373.61 -3.8647 0.942631 0
M  V30 14343 H 1370.35 -5.62148 3.37149 0
M  V30 14344 H 1369.87 -5.76236 1.66471 0
M  V30 14345 H 1371.54 -6.10127 2.153 0
M  V30 14346 N 1371.68 -0.573274 -1.46804 0
M  V30 14347 C 1372.92 -0.0552613 -2.02425 0
M  V30 14348 C 1373.25 1.30098 -1.44585 0
M  V30 14349 O 1372.51 1.86366 -0.597166 0
M  V30 14350 C 1372.81 0.0704285 -3.57331 0
M  V30 14351 C 1372.47 -1.217 -4.34166 0
M  V30 14352 C 1371.13 -1.56973 -4.54877 0
M  V30 14353 C 1373.49 -2.06939 -4.78357 0
M  V30 14354 C 1370.81 -2.77302 -5.1703 0
M  V30 14355 C 1373.17 -3.26486 -5.41839 0
M  V30 14356 C 1371.83 -3.62053 -5.6078 0
M  V30 14357 H 1371.1 -0.0202215 -0.740724 0
M  V30 14358 H 1373.75 -0.748016 -1.76287 0
M  V30 14359 H 1372.05 0.846254 -3.82552 0
M  V30 14360 H 1373.75 0.486841 -3.98034 0
M  V30 14361 H 1370.34 -0.932374 -4.18336 0
M  V30 14362 H 1374.52 -1.80992 -4.62121 0
M  V30 14363 H 1369.78 -3.05008 -5.29887 0
M  V30 14364 H 1373.95 -3.92811 -5.75042 0
M  V30 14365 H 1371.58 -4.55385 -6.08711 0
M  V30 14366 N 1373.15 1.5451 -0.310553 0
M  V30 14367 C 1374.38 2.05204 0.301013 0
M  V30 14368 C 1374.8 1.1859 1.46007 0
M  V30 14369 O 1374.16 0.192081 1.8028 0
M  V30 14370 C 1374.21 3.53221 0.725767 0
M  V30 14371 O 1373.31 3.69596 1.82955 0
M  V30 14372 H 1372.66 0.661566 0.0568026 0
M  V30 14373 H 1375.19 1.99473 -0.455178 0
M  V30 14374 H 1375.2 3.9525 1.01198 0
M  V30 14375 H 1373.87 4.15721 -0.122046 0
M  V30 14376 H 1372.45 3.39472 1.54315 0
M  V30 14377 N 1374.63 0.0384594 1.57553 0
M  V30 14378 C 1375.88 -0.637533 1.91359 0
M  V30 14379 C 1376.2 -1.7275 0.91744 0
M  V30 14380 O 1377.4 -2.46078 1.14709 0
M  V30 14381 C 1375.86 -1.18526 3.39823 0
M  V30 14382 C 1375.47 -0.128086 4.47817 0
M  V30 14383 C 1377.21 -1.83723 3.82683 0
M  V30 14384 C 1375.12 -0.687978 5.87385 0
M  V30 14385 H 1374.05 -0.241898 0.714144 0
M  V30 14386 H 1376.7 0.105281 1.83198 0
M  V30 14387 H 1375.08 -1.97999 3.42947 0
M  V30 14388 H 1376.25 0.644865 4.56265 0
M  V30 14389 H 1374.57 0.425672 4.14219 0
M  V30 14390 H 1377.17 -2.26585 4.84317 0
M  V30 14391 H 1377.51 -2.68377 3.18244 0
M  V30 14392 H 1378.04 -1.10926 3.82021 0
M  V30 14393 H 1374.78 0.120642 6.55389 0
M  V30 14394 H 1374.3 -1.4292 5.82524 0
M  V30 14395 H 1375.98 -1.17483 6.36244 0
M  V30 14396 N 1376.11 -1.55841 -0.234795 0
M  V30 14397 C 1377.04 -1.94344 -1.29432 0
M  V30 14398 C 1378.02 -0.809912 -1.49581 0
M  V30 14399 O 1379.21 -1.07117 -1.61986 0
M  V30 14400 C 1376.34 -2.24866 -2.64675 0
M  V30 14401 C 1375.29 -3.40584 -2.59203 0
M  V30 14402 C 1374.62 -3.56678 -3.98353 0
M  V30 14403 C 1375.92 -4.75935 -2.15135 0
M  V30 14404 H 1377.61 -2.83096 -0.97454 0
M  V30 14405 H 1375.16 -1.36205 -0.467355 0
M  V30 14406 H 1377.11 -2.50392 -3.38942 0
M  V30 14407 H 1375.83 -1.32953 -2.98314 0
M  V30 14408 H 1374.49 -3.15087 -1.87393 0
M  V30 14409 H 1374.14 -2.62164 -4.29277 0
M  V30 14410 H 1373.84 -4.34503 -3.95577 0
M  V30 14411 H 1375.37 -3.84538 -4.74302 0
M  V30 14412 H 1376.78 -5.00753 -2.7914 0
M  V30 14413 H 1375.18 -5.56949 -2.23446 0
M  V30 14414 H 1376.25 -4.72182 -1.10328 0
M  V30 14415 N 1377.59 0.500963 -1.49426 0
M  V30 14416 C 1378.84 1.25261 -1.58601 0
M  V30 14417 C 1379.16 1.93056 -0.274647 0
M  V30 14418 O 1378.43 1.82736 0.706003 0
M  V30 14419 H 1377.01 0.465328 -0.584362 0
M  V30 14420 H 1379.67 0.580588 -1.86052 0
M  V30 14421 H 1378.77 2.01652 -2.38208 0
M  V30 14422 N 1379.07 1.38501 0.752011 0
M  V30 14423 C 1380 1.30236 1.87387 0
M  V30 14424 C 1380.98 0.179099 1.61611 0
M  V30 14425 O 1382.16 0.356686 1.85095 0
M  V30 14426 C 1379.29 1.01829 3.2303 0
M  V30 14427 C 1378.34 2.16114 3.67691 0
M  V30 14428 S 1379.17 3.78266 3.79044 0
M  V30 14429 C 1380.32 3.5205 5.17505 0
M  V30 14430 H 1380.56 2.25185 1.94111 0
M  V30 14431 H 1378.09 1.24356 0.915152 0
M  V30 14432 H 1380.05 0.861231 4.01364 0
M  V30 14433 H 1378.71 0.0859612 3.13982 0
M  V30 14434 H 1377.9 1.91788 4.66083 0
M  V30 14435 H 1377.5 2.27936 2.96515 0
M  V30 14436 H 1379.8 3.08262 6.03308 0
M  V30 14437 H 1380.74 4.49842 5.46853 0
M  V30 14438 H 1381.15 2.86528 4.86377 0
M  V30 14439 N 1380.55 -0.980364 1.23396 0
M  V30 14440 C 1381.5 -2.05753 0.982323 0
M  V30 14441 C 1382.48 -1.6074 -0.0716939 0
M  V30 14442 O 1383.67 -1.76442 0.140438 0
M  V30 14443 C 1380.8 -3.38442 0.575481 0
M  V30 14444 C 1379.89 -3.90054 1.6649 0
M  V30 14445 N 1380.28 -4.14744 2.89519 0
M  V30 14446 C 1378.58 -4.18588 1.53949 0
M  V30 14447 C 1379.28 -4.56877 3.60053 0
M  V30 14448 N 1378.25 -4.61309 2.87567 0
M  V30 14449 H 1382.05 -2.22801 1.91669 0
M  V30 14450 H 1379.57 -1.16314 1.13335 0
M  V30 14451 H 1381.57 -4.15197 0.376477 0
M  V30 14452 H 1380.23 -3.22788 -0.351844 0
M  V30 14453 H 1381.24 -4.02566 3.25824 0
M  V30 14454 H 1377.91 -4.11937 0.679275 0
M  V30 14455 H 1379.3 -4.84498 4.65523 0
M  V30 14456 N 1382.02 -1.04567 -1.17913 0
M  V30 14457 C 1382.95 -0.662066 -2.23917 0
M  V30 14458 C 1383.93 0.33713 -1.66726 0
M  V30 14459 O 1385.12 0.216116 -1.92994 0
M  V30 14460 C 1382.25 -0.029463 -3.47288 0
M  V30 14461 C 1381.2 -0.95274 -4.17261 0
M  V30 14462 C 1380.53 -0.184347 -5.34382 0
M  V30 14463 C 1381.83 -2.2741 -4.70194 0
M  V30 14464 H 1383.52 -1.54826 -2.5626 0
M  V30 14465 H 1381.07 -0.745886 -1.23177 0
M  V30 14466 H 1383.02 0.250654 -4.20654 0
M  V30 14467 H 1381.75 0.891638 -3.14193 0
M  V30 14468 H 1380.41 -1.21732 -3.45799 0
M  V30 14469 H 1380.05 0.73932 -4.97537 0
M  V30 14470 H 1379.75 -0.79949 -5.82136 0
M  V30 14471 H 1381.28 0.0886344 -6.10536 0
M  V30 14472 H 1382.69 -2.05433 -5.35229 0
M  V30 14473 H 1381.09 -2.84265 -5.28501 0
M  V30 14474 H 1382.16 -2.91708 -3.87342 0
M  V30 14475 N 1383.5 1.34231 -0.825823 0
M  V30 14476 C 1384.75 1.98196 -0.415276 0
M  V30 14477 C 1385.08 1.65463 1.02236 0
M  V30 14478 O 1384.33 0.919868 1.72734 0
M  V30 14479 C 1384.63 3.52861 -0.56778 0
M  V30 14480 C 1384.3 4.05512 -1.97157 0
M  V30 14481 C 1382.96 4.19602 -2.35557 0
M  V30 14482 C 1385.31 4.33798 -2.88909 0
M  V30 14483 C 1382.64 4.59307 -3.6504 0
M  V30 14484 C 1384.99 4.74949 -4.17859 0
M  V30 14485 C 1383.65 4.87245 -4.56233 0
M  V30 14486 H 1382.92 0.725251 -0.15196 0
M  V30 14487 H 1385.57 1.60126 -1.05033 0
M  V30 14488 H 1383.88 3.9151 0.15065 0
M  V30 14489 H 1385.57 4.00336 -0.230608 0
M  V30 14490 H 1382.16 3.9501 -1.66328 0
M  V30 14491 H 1386.35 4.22448 -2.60483 0
M  V30 14492 H 1381.6 4.67017 -3.94594 0
M  V30 14493 H 1385.78 4.95795 -4.8904 0
M  V30 14494 H 1383.4 5.17768 -5.56615 0
M  V30 14495 N 1384.98 0.581051 1.46498 0
M  V30 14496 C 1386.23 0.0658652 2.01993 0
M  V30 14497 C 1386.55 -1.29807 1.45516 0
M  V30 14498 O 1385.82 -1.85177 0.639233 0
M  V30 14499 H 1384.4 0.0213584 0.746695 0
M  V30 14500 H 1387.06 0.756456 1.79621 0
M  V30 14501 H 1386.16 -0.00438128 3.121 0
M  V30 14502 N 1386.46 -1.54343 0.318742 0
M  V30 14503 C 1387.7 -2.0239 -0.285929 0
M  V30 14504 C 1388.06 -1.20197 -1.49722 0
M  V30 14505 O 1389.26 -1.58025 -2.17443 0
M  V30 14506 C 1387.53 -3.52044 -0.616446 0
M  V30 14507 S 1389.09 -4.22031 -1.20146 0
M  V30 14508 H 1385.91 -0.705685 -0.0867722 0
M  V30 14509 H 1388.51 -1.90233 0.450744 0
M  V30 14510 H 1387.22 -4.09489 0.273339 0
M  V30 14511 H 1386.75 -3.68272 -1.38344 0
M  V30 14512 H 1388.76 -4.29287 -2.48851 0
M  V30 14513 N 1387.94 -0.0468143 -1.5753 0
M  V30 14514 C 1388.88 0.929065 -2.11275 0
M  V30 14515 C 1389.85 1.31166 -1.01905 0
M  V30 14516 O 1391.04 1.40189 -1.29428 0
M  V30 14517 C 1388.18 2.20012 -2.65873 0
M  V30 14518 C 1387.29 1.8724 -3.89314 0
M  V30 14519 C 1386.43 3.08772 -4.32242 0
M  V30 14520 C 1385.46 2.719 -5.48395 0
M  V30 14521 N 1384.6 3.86112 -5.86397 0
M  V30 14522 H 1389.44 0.463854 -2.94368 0
M  V30 14523 H 1386.98 0.217338 -1.45486 0
M  V30 14524 H 1388.94 2.94383 -2.95626 0
M  V30 14525 H 1387.57 2.64118 -1.85584 0
M  V30 14526 H 1386.62 1.03037 -3.6618 0
M  V30 14527 H 1387.93 1.56096 -4.73746 0
M  V30 14528 H 1387.08 3.91446 -4.63525 0
M  V30 14529 H 1385.82 3.4309 -3.46613 0
M  V30 14530 H 1384.83 1.87642 -5.16789 0
M  V30 14531 H 1386.05 2.38779 -6.35737 0
M  V30 14532 H 1384 4.2024 -5.03721 0
M  V30 14533 H 1383.92 3.58652 -6.65511 0
M  V30 14534 H 1385.18 4.69438 -6.22293 0
M  V30 14535 N 1389.41 1.55964 0.226527 0
M  V30 14536 C 1390.66 1.78745 0.95165 0
M  V30 14537 C 1390.99 0.614714 1.84531 0
M  V30 14538 O 1390.24 -0.401137 1.91545 0
M  V30 14539 C 1390.54 3.07235 1.82597 0
M  V30 14540 C 1390.21 4.37627 1.08596 0
M  V30 14541 C 1388.87 4.73057 0.881531 0
M  V30 14542 C 1391.22 5.1815 0.563019 0
M  V30 14543 C 1388.55 5.86528 0.142172 0
M  V30 14544 C 1390.9 6.3239 -0.162972 0
M  V30 14545 C 1389.57 6.66425 -0.378704 0
M  V30 14546 H 1388.84 0.654075 0.348233 0
M  V30 14547 H 1391.48 1.9023 0.220187 0
M  V30 14548 H 1389.79 2.9085 2.62514 0
M  V30 14549 H 1391.49 3.22063 2.38907 0
M  V30 14550 H 1388.08 4.09806 1.25527 0
M  V30 14551 H 1392.26 4.91218 0.708446 0
M  V30 14552 H 1387.52 6.1139 -0.0352481 0
M  V30 14553 H 1391.69 6.94016 -0.575719 0
M  V30 14554 H 1389.32 7.54196 -0.953549 0
M  V30 14555 N 1390.89 -0.493031 1.4969 0
M  V30 14556 C 1392.12 -1.27517 1.63567 0
M  V30 14557 C 1392.54 -1.85526 0.310105 0
M  V30 14558 O 1391.9 -1.66246 -0.723314 0
M  V30 14559 C 1391.95 -2.37551 2.71296 0
M  V30 14560 O 1391.05 -3.41617 2.31023 0
M  V30 14561 H 1390.39 -0.376116 0.547205 0
M  V30 14562 H 1392.92 -0.589328 1.95929 0
M  V30 14563 H 1392.93 -2.83196 2.93708 0
M  V30 14564 H 1391.61 -1.94697 3.67513 0
M  V30 14565 H 1390.19 -3.01836 2.18974 0
M  V30 14566 N 1392.37 -1.38898 -0.744656 0
M  V30 14567 C 1393.3 -1.39571 -1.87195 0
M  V30 14568 C 1394.28 -0.260372 -1.68095 0
M  V30 14569 O 1395.47 -0.464776 -1.88556 0
M  V30 14570 C 1392.6 -1.22889 -3.24832 0
M  V30 14571 C 1391.55 -2.33721 -3.58551 0
M  V30 14572 C 1390.88 -2.02136 -4.9502 0
M  V30 14573 C 1392.18 -3.7601 -3.62511 0
M  V30 14574 H 1393.87 -2.33908 -1.86889 0
M  V30 14575 H 1391.42 -1.12591 -0.897739 0
M  V30 14576 H 1393.37 -1.21983 -4.03359 0
M  V30 14577 H 1392.09 -0.250172 -3.2564 0
M  V30 14578 H 1390.75 -2.33828 -2.82348 0
M  V30 14579 H 1390.4 -1.02726 -4.92399 0
M  V30 14580 H 1390.1 -2.76371 -5.18549 0
M  V30 14581 H 1391.62 -2.02864 -5.75915 0
M  V30 14582 H 1393.04 -3.77885 -4.31133 0
M  V30 14583 H 1391.44 -4.49524 -3.97553 0
M  V30 14584 H 1392.51 -4.07682 -2.62533 0
M  V30 14585 N 1393.85 0.973806 -1.23914 0
M  V30 14586 C 1394.8 2.06734 -1.02614 0
M  V30 14587 C 1395.77 1.65997 0.0585705 0
M  V30 14588 O 1396.95 1.90564 -0.0948467 0
M  V30 14589 C 1394.09 3.39292 -0.630493 0
M  V30 14590 C 1393.2 3.9326 -1.78803 0
M  V30 14591 C 1392.34 5.14059 -1.33854 0
M  V30 14592 C 1391.38 5.60209 -2.46642 0
M  V30 14593 N 1390.51 6.72232 -2.02603 0
M  V30 14594 H 1395.35 2.24287 -1.96212 0
M  V30 14595 H 1392.89 1.09935 -0.977376 0
M  V30 14596 H 1394.85 4.15446 -0.382163 0
M  V30 14597 H 1393.48 3.21682 0.268483 0
M  V30 14598 H 1392.53 3.13801 -2.15019 0
M  V30 14599 H 1393.84 4.23475 -2.63573 0
M  V30 14600 H 1393 5.97567 -1.04873 0
M  V30 14601 H 1391.74 4.85513 -0.46131 0
M  V30 14602 H 1390.74 4.75278 -2.7639 0
M  V30 14603 H 1391.97 5.90771 -3.34912 0
M  V30 14604 H 1389.91 6.45433 -1.17269 0
M  V30 14605 H 1389.83 7.01865 -2.80929 0
M  V30 14606 H 1391.1 7.59198 -1.76745 0
M  V30 14607 N 1395.33 1.05191 1.17357 0
M  V30 14608 C 1396.55 0.782373 1.91537 0
M  V30 14609 C 1396.97 -0.661935 1.76816 0
M  V30 14610 O 1396.33 -1.45221 1.10531 0
M  V30 14611 C 1396.38 1.15357 3.426 0
M  V30 14612 O 1396.1 2.54119 3.56869 0
M  V30 14613 C 1397.6 0.910167 4.33856 0
M  V30 14614 H 1394.82 0.284461 0.607719 0
M  V30 14615 H 1397.36 1.40259 1.48821 0
M  V30 14616 H 1395.52 0.578107 3.83062 0
M  V30 14617 H 1395.93 2.68668 4.50464 0
M  V30 14618 H 1397.41 1.21964 5.38358 0
M  V30 14619 H 1397.88 -0.154624 4.38928 0
M  V30 14620 H 1398.49 1.46947 3.99107 0
M  V30 14621 N 1396.8 -1.33791 0.83293 0
M  V30 14622 C 1398.08 -1.9248 0.347955 0
M  V30 14623 C 1398.46 -1.75978 -1.16597 0
M  V30 14624 O 1397.81 -1.14456 -1.97768 0
M  V30 14625 C 1398.02 -3.3998 0.78831 0
M  V30 14626 C 1399.37 -4.17131 0.7929 0
M  V30 14627 O 1400.39 -3.48607 0.731533 0
M  V30 14628 O 1399.25 -5.39446 0.875223 0
M  V30 14629 H 1396.34 -0.821264 0.0972309 0
M  V30 14630 H 1398.89 -1.42702 0.918387 0
M  V30 14631 H 1397.66 -3.45836 1.83065 0
M  V30 14632 H 1397.29 -3.97126 0.194123 0
M  V30 14633 N 1398.28 -0.588812 -1.46187 0
M  V30 14634 C 1399.51 -0.0825301 -2.06735 0
M  V30 14635 C 1399.93 1.22507 -1.43658 0
M  V30 14636 O 1399.28 1.74203 -0.544022 0
M  V30 14637 C 1399.33 0.083501 -3.61404 0
M  V30 14638 O 1399.05 -1.17235 -4.22123 0
M  V30 14639 C 1400.56 0.623425 -4.38894 0
M  V30 14640 H 1397.78 -0.0602413 -0.66829 0
M  V30 14641 H 1400.32 -0.811215 -1.87722 0
M  V30 14642 H 1398.47 0.762432 -3.79823 0
M  V30 14643 H 1398.89 -0.990047 -5.15071 0
M  V30 14644 H 1400.36 0.688755 -5.47686 0
M  V30 14645 H 1400.84 1.64172 -4.07362 0
M  V30 14646 H 1401.45 -0.0208373 -4.25295 0
M  V30 14647 N 1399.76 1.54172 -0.326923 0
M  V30 14648 C 1401.01 2.00233 0.274098 0
M  V30 14649 C 1401.33 1.21665 1.5239 0
M  V30 14650 O 1400.6 0.319359 1.93279 0
M  V30 14651 H 1399.18 0.739687 0.104271 0
M  V30 14652 H 1401.84 1.8977 -0.444244 0
M  V30 14653 H 1400.94 3.07599 0.528154 0
M  V30 14654 N 1401.24 0.0551678 1.57503 0
M  V30 14655 C 1402.52 -0.657808 1.84207 0
M  V30 14656 C 1402.9 -1.88798 0.944372 0
M  V30 14657 O 1402.24 -2.28499 0.00641728 0
M  V30 14658 C 1402.45 -1.0113 3.34026 0
M  V30 14659 C 1403.8 -1.39189 4.01138 0
M  V30 14660 O 1404.83 -1.10353 3.38675 0
M  V30 14661 O 1403.68 -1.93023 5.11277 0
M  V30 14662 H 1400.78 -0.325084 0.760427 0
M  V30 14663 H 1403.32 0.0848352 1.69488 0
M  V30 14664 H 1402.1 -0.13688 3.91061 0
M  V30 14665 H 1401.72 -1.81126 3.53948 0
M  V30 14666 N 1402.72 -1.56081 -0.218252 0
M  V30 14667 C 1403.94 -1.83334 -0.958964 0
M  V30 14668 C 1404.36 -0.63472 -1.77811 0
M  V30 14669 O 1403.72 0.396729 -1.78136 0
M  V30 14670 C 1403.77 -3.09141 -1.87387 0
M  V30 14671 O 1403.49 -4.24379 -1.08783 0
M  V30 14672 C 1404.99 -3.49405 -2.7282 0
M  V30 14673 H 1402.21 -0.609375 -0.280898 0
M  V30 14674 H 1404.75 -2.03174 -0.232486 0
M  V30 14675 H 1402.91 -2.91267 -2.55426 0
M  V30 14676 H 1403.32 -4.9587 -1.70919 0
M  V30 14677 H 1404.8 -4.40461 -3.32713 0
M  V30 14678 H 1405.27 -2.71311 -3.45379 0
M  V30 14679 H 1405.88 -3.6973 -2.1019 0
M  V30 14680 N 1404.2 0.485086 -1.49949 0
M  V30 14681 C 1405.44 1.23999 -1.60474 0
M  V30 14682 C 1405.77 1.91904 -0.297736 0
M  V30 14683 O 1405.05 1.81472 0.699857 0
M  V30 14684 C 1405.33 2.2946 -2.77525 0
M  V30 14685 C 1405.19 1.65952 -4.18067 0
M  V30 14686 C 1406.5 3.30893 -2.90169 0
M  V30 14687 H 1403.62 0.449462 -0.584083 0
M  V30 14688 H 1406.27 0.535795 -1.82289 0
M  V30 14689 H 1404.42 2.89521 -2.59056 0
M  V30 14690 H 1406.09 1.09596 -4.48092 0
M  V30 14691 H 1404.33 0.963079 -4.22974 0
M  V30 14692 H 1405 2.42521 -4.9587 0
M  V30 14693 H 1407.48 2.8084 -3.07031 0
M  V30 14694 H 1406.35 4.02027 -3.73718 0
M  V30 14695 H 1406.61 3.94178 -2.0019 0
M  V30 14696 N 1405.67 1.39291 0.737279 0
M  V30 14697 C 1407.08 1.32489 1.31543 0
M  V30 14698 C 1407.44 -0.0118162 1.96196 0
M  V30 14699 O 1406.56 -0.913938 1.96153 0
M  V30 14700 C 1407.16 2.39946 2.39189 0
M  V30 14701 C 1405.71 2.36671 2.92684 0
M  V30 14702 C 1404.86 2.21953 1.66229 0
M  V30 14703 H 1407.81 1.49412 0.534954 0
M  V30 14704 H 1407.83 2.06603 3.19524 0
M  V30 14705 H 1407.35 3.3722 1.92104 0
M  V30 14706 H 1405.45 1.43028 3.44055 0
M  V30 14707 H 1405.56 3.31441 3.45953 0
M  V30 14708 H 1403.92 1.69087 1.90478 0
M  V30 14709 H 1404.71 3.21194 1.21199 0
M  V30 14710 N 1407.15 -0.967221 1.24429 0
M  V30 14711 C 1408.43 -1.68564 0.992253 0
M  V30 14712 C 1408.81 -2.05446 -0.485301 0
M  V30 14713 O 1408.16 -1.75798 -1.45971 0
M  V30 14714 C 1408.37 -2.91728 1.91562 0
M  V30 14715 C 1409.71 -3.63957 2.18678 0
M  V30 14716 O 1410.74 -3.01786 1.89219 0
M  V30 14717 O 1409.6 -4.75875 2.68711 0
M  V30 14718 H 1406.69 -0.736939 0.375299 0
M  V30 14719 H 1409.24 -1.02127 1.35529 0
M  V30 14720 H 1408.01 -2.61168 2.91388 0
M  V30 14721 H 1407.63 -3.65898 1.55577 0
M  V30 14722 N 1408.63 -1.05812 -1.16797 0
M  V30 14723 C 1410.05 -0.780649 -1.39205 0
M  V30 14724 C 1410.25 0.622191 -1.91653 0
M  V30 14725 O 1409.3 1.38357 -2.11219 0
M  V30 14726 C 1410.61 -1.84148 -2.37718 0
M  V30 14727 C 1412.16 -1.86442 -2.51413 0
M  V30 14728 C 1412.64 -2.91566 -3.53204 0
M  V30 14729 N 1414.13 -2.90568 -3.60727 0
M  V30 14730 C 1414.86 -3.68556 -4.39265 0
M  V30 14731 N 1414.36 -4.56348 -5.21266 0
M  V30 14732 N 1416.15 -3.56969 -4.342 0
M  V30 14733 H 1408.3 -1.96313 -0.810871 0
M  V30 14734 H 1410.57 -0.850421 -0.418913 0
M  V30 14735 H 1410.27 -2.84864 -2.06265 0
M  V30 14736 H 1410.15 -1.68838 -3.37303 0
M  V30 14737 H 1412.53 -0.863873 -2.82172 0
M  V30 14738 H 1412.61 -2.0583 -1.5188 0
M  V30 14739 H 1412.26 -3.91811 -3.23182 0
M  V30 14740 H 1412.19 -2.69429 -4.52455 0
M  V30 14741 H 1414.68 -2.26918 -3.02186 0
M  V30 14742 H 1414.99 -5.12523 -5.78394 0
M  V30 14743 H 1413.34 -4.60406 -5.20626 0
M  V30 14744 H 1416.53 -2.87772 -3.69195 0
M  V30 14745 H 1416.7 -4.17993 -4.95162 0
M  V30 14746 N 1410.11 1.33347 -0.840014 0
M  V30 14747 C 1411.05 2.29191 -0.272048 0
M  V30 14748 C 1412.02 1.54383 0.612787 0
M  V30 14749 O 1413.21 1.82676 0.550812 0
M  V30 14750 C 1410.35 3.40755 0.545901 0
M  V30 14751 C 1409.46 4.30471 -0.363084 0
M  V30 14752 C 1408.6 5.29151 0.466078 0
M  V30 14753 C 1407.64 6.10508 -0.441225 0
M  V30 14754 N 1406.77 7.01228 0.349877 0
M  V30 14755 H 1411.61 2.77166 -1.09467 0
M  V30 14756 H 1409.15 1.36379 -0.551284 0
M  V30 14757 H 1411.11 4.04142 1.03562 0
M  V30 14758 H 1409.74 2.9397 1.33348 0
M  V30 14759 H 1408.79 3.67795 -0.971119 0
M  V30 14760 H 1410.1 4.87406 -1.06002 0
M  V30 14761 H 1409.26 5.98072 1.01957 0
M  V30 14762 H 1408 4.72796 1.19644 0
M  V30 14763 H 1407 5.40504 -1.00672 0
M  V30 14764 H 1408.23 6.68946 -1.16997 0
M  V30 14765 H 1406.17 6.4732 1.0636 0
M  V30 14766 H 1406.09 7.5545 -0.288317 0
M  V30 14767 H 1407.36 7.74453 0.885573 0
M  V30 14768 N 1411.59 0.596556 1.45873 0
M  V30 14769 C 1412.53 -0.141327 2.3217 0
M  V30 14770 C 1413.53 -0.870652 1.45314 0
M  V30 14771 O 1414.73 -0.787469 1.61861 0
M  V30 14772 H 1411.11 -0.0644404 0.749234 0
M  V30 14773 H 1413.08 0.605115 2.922 0
M  V30 14774 C 1411.83 -1.13261 3.28736 0
M  V30 14775 H 1411.15 -0.580835 3.95558 0
M  V30 14776 H 1412.59 -1.61904 3.91871 0
M  V30 14777 C 1411.05 -2.20062 2.55097 0
M  V30 14778 O 1411.58 -3.27634 2.3242 0
M  V30 14779 N 1409.79 -1.95044 2.15421 0
M  V30 14780 H 1409.33 -1.07573 2.34064 0
M  V30 14781 H 1409.29 -2.66711 1.66472 0
M  V30 14782 N 1413.06 -1.53996 0.335095 0
M  V30 14783 C 1414.31 -2.00772 -0.263997 0
M  V30 14784 C 1414.64 -1.22309 -1.51231 0
M  V30 14785 O 1413.89 -0.296427 -1.93442 0
M  V30 14786 C 1414.19 -3.51769 -0.631907 0
M  V30 14787 C 1413.86 -4.47908 0.518553 0
M  V30 14788 C 1412.52 -4.73912 0.834297 0
M  V30 14789 C 1414.87 -5.04964 1.29078 0
M  V30 14790 C 1412.2 -5.54228 1.92478 0
M  V30 14791 C 1414.55 -5.86469 2.37144 0
M  V30 14792 C 1413.22 -6.1077 2.69288 0
M  V30 14793 H 1412.49 -0.734676 -0.0966033 0
M  V30 14794 H 1415.13 -1.85862 0.46126 0
M  V30 14795 H 1413.44 -3.64466 -1.43776 0
M  V30 14796 H 1415.14 -3.85412 -1.10719 0
M  V30 14797 H 1411.73 -4.27796 0.262392 0
M  V30 14798 H 1415.91 -4.84846 1.0601 0
M  V30 14799 H 1411.17 -5.71285 2.17816 0
M  V30 14800 H 1415.34 -6.29695 2.97417 0
M  V30 14801 H 1412.97 -6.72792 3.53913 0
M  V30 14802 N 1414.54 -0.0635198 -1.57472 0
M  V30 14803 C 1415.82 0.648029 -1.84553 0
M  V30 14804 C 1416.2 1.88295 -0.954371 0
M  V30 14805 O 1415.55 2.28492 -0.0185351 0
M  V30 14806 C 1415.76 0.993573 -3.34558 0
M  V30 14807 C 1417.1 1.3706 -4.0187 0
M  V30 14808 O 1418.13 1.08555 -3.39255 0
M  V30 14809 O 1416.99 1.90309 -5.12294 0
M  V30 14810 H 1414.08 0.321047 -0.76214 0
M  V30 14811 H 1416.63 -0.0938223 -1.6944 0
M  V30 14812 H 1415.4 0.116139 -3.91128 0
M  V30 14813 H 1415.02 1.79246 -3.54904 0
M  V30 14814 N 1416.02 1.56195 0.209972 0
M  V30 14815 C 1417.24 1.84189 0.953364 0
M  V30 14816 C 1417.67 0.645288 1.76685 0
M  V30 14817 O 1417.03 -0.405962 1.76696 0
M  V30 14818 C 1417.08 3.10281 1.83733 0
M  V30 14819 O 1416.18 2.89788 2.93422 0
M  V30 14820 H 1415.52 0.606931 0.269314 0
M  V30 14821 H 1418.05 2.03416 0.219783 0
M  V30 14822 H 1418.06 3.40688 2.2449 0
M  V30 14823 H 1416.74 3.97 1.23951 0
M  V30 14824 H 1415.31 2.70643 2.56528 0
M  V30 14825 N 1417.5 -0.477127 1.50204 0
M  V30 14826 C 1418.43 -1.58405 1.71552 0
M  V30 14827 C 1419.41 -1.60463 0.564413 0
M  V30 14828 O 1420.59 -1.76826 0.802893 0
M  V30 14829 C 1417.72 -2.96765 1.8041 0
M  V30 14830 C 1416.68 -3.09573 2.95548 0
M  V30 14831 C 1416 -4.49522 2.89542 0
M  V30 14832 C 1417.3 -2.87356 4.36147 0
M  V30 14833 H 1419 -1.40792 2.64231 0
M  V30 14834 H 1416.54 -0.675886 1.27153 0
M  V30 14835 H 1418.5 -3.74125 1.9393 0
M  V30 14836 H 1417.22 -3.1552 0.843489 0
M  V30 14837 H 1415.88 -2.34645 2.81669 0
M  V30 14838 H 1415.53 -4.65186 1.91339 0
M  V30 14839 H 1415.23 -4.59028 3.66834 0
M  V30 14840 H 1416.75 -5.28909 3.05102 0
M  V30 14841 H 1418.17 -3.54469 4.50583 0
M  V30 14842 H 1416.56 -3.08313 5.14843 0
M  V30 14843 H 1417.63 -1.83264 4.48935 0
M  V30 14844 N 1418.98 -1.3968 -0.729882 0
M  V30 14845 C 1419.91 -1.41549 -1.85704 0
M  V30 14846 C 1420.89 -0.278186 -1.6781 0
M  V30 14847 O 1422.07 -0.484749 -1.88053 0
M  V30 14848 C 1419.2 -1.26327 -3.2351 0
M  V30 14849 C 1418.16 -2.37511 -3.56051 0
M  V30 14850 C 1417.48 -2.07375 -4.92849 0
M  V30 14851 C 1418.78 -3.79833 -3.58502 0
M  V30 14852 H 1420.48 -2.35877 -1.84398 0
M  V30 14853 H 1418.02 -1.13536 -0.885747 0
M  V30 14854 H 1419.98 -1.26254 -4.02042 0
M  V30 14855 H 1418.7 -0.284697 -3.25357 0
M  V30 14856 H 1417.36 -2.36809 -2.79852 0
M  V30 14857 H 1417.01 -1.07943 -4.91281 0
M  V30 14858 H 1416.71 -2.81855 -5.15588 0
M  V30 14859 H 1418.23 -2.08961 -5.73731 0
M  V30 14860 H 1419.64 -3.82436 -4.27101 0
M  V30 14861 H 1418.04 -4.53715 -3.92763 0
M  V30 14862 H 1419.11 -4.10443 -2.58195 0
M  V30 14863 N 1420.45 0.960609 -1.2494 0
M  V30 14864 C 1421.7 1.70765 -1.10503 0
M  V30 14865 C 1422.06 1.89164 0.351384 0
M  V30 14866 O 1421.35 1.44718 1.25568 0
M  V30 14867 C 1421.54 3.09564 -1.78619 0
M  V30 14868 C 1421.37 3.04705 -3.30734 0
M  V30 14869 C 1420.14 3.08793 -3.99969 0
M  V30 14870 C 1422.34 2.86333 -4.27221 0
M  V30 14871 N 1420.32 2.94028 -5.38907 0
M  V30 14872 C 1421.69 2.79938 -5.53204 0
M  V30 14873 C 1423.75 2.70967 -4.17709 0
M  V30 14874 C 1422.45 2.59747 -6.70764 0
M  V30 14875 C 1424.48 2.52146 -5.34954 0
M  V30 14876 C 1423.84 2.46466 -6.59874 0
M  V30 14877 H 1419.94 0.633102 -0.459027 0
M  V30 14878 H 1422.52 1.13833 -1.57956 0
M  V30 14879 H 1420.69 3.64674 -1.33669 0
M  V30 14880 H 1422.42 3.73015 -1.56978 0
M  V30 14881 H 1419.18 3.17751 -3.51185 0
M  V30 14882 H 1419.6 2.89867 -6.11806 0
M  V30 14883 H 1424.25 2.74137 -3.21883 0
M  V30 14884 H 1421.96 2.5532 -7.66705 0
M  V30 14885 H 1425.55 2.41191 -5.29451 0
M  V30 14886 H 1424.43 2.32091 -7.49068 0
M  V30 14887 N 1421.93 1.0643 1.16234 0
M  V30 14888 C 1422.9 0.680383 2.18869 0
M  V30 14889 C 1423.9 -0.274591 1.58438 0
M  V30 14890 O 1425.09 -0.0567907 1.74107 0
M  V30 14891 C 1422.22 0.00134091 3.409 0
M  V30 14892 H 1423.41 1.58894 2.54347 0
M  V30 14893 H 1420.96 0.859688 1.30534 0
M  V30 14894 H 1421.7 -0.919903 3.1098 0
M  V30 14895 H 1421.48 0.688057 3.86016 0
M  V30 14896 H 1422.97 -0.252938 4.16833 0
M  V30 14897 N 1423.41 -1.329 0.847073 0
M  V30 14898 C 1424.66 -1.96774 0.443022 0
M  V30 14899 C 1424.97 -1.67813 -1.0049 0
M  V30 14900 O 1426.18 -2.25366 -1.51402 0
M  V30 14901 C 1424.63 -3.52184 0.741268 0
M  V30 14902 C 1424.24 -3.90013 2.20441 0
M  V30 14903 C 1425.99 -4.22568 0.404569 0
M  V30 14904 C 1423.89 -5.38434 2.44627 0
M  V30 14905 H 1422.82 -0.736406 0.161932 0
M  V30 14906 H 1425.47 -1.51402 1.0368 0
M  V30 14907 H 1423.86 -3.95925 0.0770158 0
M  V30 14908 H 1425.03 -3.57304 2.90982 0
M  V30 14909 H 1423.35 -3.32633 2.50489 0
M  V30 14910 H 1425.94 -5.3173 0.562795 0
M  V30 14911 H 1426.29 -4.11144 -0.653172 0
M  V30 14912 H 1426.82 -3.84384 1.0244 0
M  V30 14913 H 1423.56 -5.5487 3.48997 0
M  V30 14914 H 1423.08 -5.72575 1.78656 0
M  V30 14915 H 1424.76 -6.05423 2.28194 0
M  V30 14916 N 1424.89 -0.604284 -1.45555 0
M  V30 14917 C 1426.13 -0.0983316 -2.02561 0
M  V30 14918 C 1426.47 1.26659 -1.47211 0
M  V30 14919 O 1425.74 1.83476 -0.645519 0
M  V30 14920 C 1426.03 -0.0558349 -3.60057 0
M  V30 14921 C 1425.88 -1.45119 -4.25747 0
M  V30 14922 C 1427.2 0.633708 -4.35514 0
M  V30 14923 H 1424.32 -0.0372071 -0.73606 0
M  V30 14924 H 1426.96 -0.775623 -1.73448 0
M  V30 14925 H 1425.11 0.520935 -3.84992 0
M  V30 14926 H 1426.78 -2.07478 -4.12008 0
M  V30 14927 H 1425.02 -2.01283 -3.84275 0
M  V30 14928 H 1425.69 -1.37372 -5.34633 0
M  V30 14929 H 1428.17 0.143501 -4.15852 0
M  V30 14930 H 1427.05 0.632538 -5.45243 0
M  V30 14931 H 1427.31 1.69917 -4.08143 0
M  V30 14932 N 1426.37 1.53816 -0.343257 0
M  V30 14933 C 1427.59 2.05326 0.254744 0
M  V30 14934 C 1428.01 1.21824 1.44237 0
M  V30 14935 O 1427.37 0.253507 1.80731 0
M  V30 14936 C 1427.42 3.55235 0.670075 0
M  V30 14937 O 1427.14 4.35568 -0.470322 0
M  V30 14938 C 1428.64 4.22915 1.32882 0
M  V30 14939 H 1425.86 0.669191 0.0492324 0
M  V30 14940 H 1428.4 1.98415 -0.495159 0
M  V30 14941 H 1426.56 3.6237 1.36992 0
M  V30 14942 H 1426.97 5.24315 -0.139303 0
M  V30 14943 H 1428.45 5.29197 1.57019 0
M  V30 14944 H 1428.92 3.75244 2.28229 0
M  V30 14945 H 1429.53 4.19973 0.67102 0
M  V30 14946 N 1427.84 0.0718701 1.57436 0
M  V30 14947 C 1429.09 -0.598116 1.93779 0
M  V30 14948 C 1429.42 -1.69258 0.952131 0
M  V30 14949 O 1428.7 -1.94491 -0.0186426 0
M  V30 14950 C 1428.98 -1.17499 3.40391 0
M  V30 14951 C 1428.83 -0.0871719 4.49716 0
M  V30 14952 C 1430.15 -2.08047 3.8782 0
M  V30 14953 H 1427.27 -0.215954 0.704651 0
M  V30 14954 H 1429.91 0.137854 1.89499 0
M  V30 14955 H 1428.06 -1.80221 3.44169 0
M  V30 14956 H 1429.74 0.545906 4.58058 0
M  V30 14957 H 1427.98 0.582213 4.29875 0
M  V30 14958 H 1428.65 -0.531202 5.49438 0
M  V30 14959 H 1431.13 -1.5526 3.86049 0
M  V30 14960 H 1430 -2.45345 4.91016 0
M  V30 14961 H 1430.26 -2.98879 3.25766 0
M  V30 14962 N 1429.32 -1.56304 -0.201686 0
M  V30 14963 C 1430.57 -1.80237 -0.923093 0
M  V30 14964 C 1430.9 -0.643994 -1.83529 0
M  V30 14965 O 1430.15 0.370613 -1.92159 0
M  V30 14966 C 1430.45 -3.10101 -1.77686 0
M  V30 14967 C 1430.12 -4.393 -1.0162 0
M  V30 14968 C 1428.78 -4.74399 -0.806161 0
M  V30 14969 C 1431.13 -5.1898 -0.480515 0
M  V30 14970 C 1428.46 -5.8668 -0.0488423 0
M  V30 14971 C 1430.81 -6.32051 0.26356 0
M  V30 14972 C 1429.48 -6.65738 0.484679 0
M  V30 14973 H 1428.75 -0.659533 -0.337784 0
M  V30 14974 H 1431.39 -1.90556 -0.189895 0
M  V30 14975 H 1429.7 -2.9499 -2.57853 0
M  V30 14976 H 1431.39 -3.25823 -2.33753 0
M  V30 14977 H 1427.98 -4.11751 -1.18992 0
M  V30 14978 H 1432.17 -4.92283 -0.630208 0
M  V30 14979 H 1427.42 -6.11256 0.13251 0
M  V30 14980 H 1431.6 -6.93012 0.686058 0
M  V30 14981 H 1429.23 -7.52583 1.07341 0
M  V30 14982 N 1430.8 0.469154 -1.50455 0
M  V30 14983 C 1431.73 1.58443 -1.65615 0
M  V30 14984 C 1432.75 1.53668 -0.537584 0
M  V30 14985 O 1433.93 1.59021 -0.810832 0
M  V30 14986 C 1431.03 2.97327 -1.62634 0
M  V30 14987 C 1430.21 3.2695 -2.90555 0
M  V30 14988 C 1429.27 4.45398 -2.80191 0
M  V30 14989 O 1428.29 4.45611 -3.54146 0
M  V30 14990 N 1429.49 5.47167 -1.93878 0
M  V30 14991 H 1432.26 1.45854 -2.61814 0
M  V30 14992 H 1429.82 0.657604 -1.47943 0
M  V30 14993 H 1431.81 3.74537 -1.53311 0
M  V30 14994 H 1430.38 3.03675 -0.741624 0
M  V30 14995 H 1429.6 2.38335 -3.13991 0
M  V30 14996 H 1430.89 3.43554 -3.75297 0
M  V30 14997 H 1430.29 5.49817 -1.33109 0
M  V30 14998 H 1428.85 6.23353 -1.90457 0
M  V30 14999 N 1432.28 1.40065 0.722464 0
M  V30 15000 C 1433.53 1.37277 1.47776 0
M  V30 15001 C 1433.84 -0.0242852 1.95585 0
M  V30 15002 O 1435.05 -0.174769 2.70937 0
M  V30 15003 C 1433.5 2.41233 2.67085 0
M  V30 15004 C 1433.11 3.86716 2.26174 0
M  V30 15005 C 1434.85 2.47541 3.44853 0
M  V30 15006 C 1432.76 4.82284 3.42281 0
M  V30 15007 H 1431.69 0.510405 0.55498 0
M  V30 15008 H 1434.34 1.6577 0.786928 0
M  V30 15009 H 1432.72 2.0583 3.38305 0
M  V30 15010 H 1433.9 4.31227 1.6242 0
M  V30 15011 H 1432.21 3.83819 1.61468 0
M  V30 15012 H 1434.81 3.16131 4.31237 0
M  V30 15013 H 1435.15 1.50379 3.8819 0
M  V30 15014 H 1435.69 2.81901 2.80672 0
M  V30 15015 H 1432.43 5.80754 3.03982 0
M  V30 15016 H 1431.95 4.42443 4.04975 0
M  V30 15017 H 1433.62 5.0178 4.08443 0
M  V30 15018 N 1433.76 -0.95397 1.25448 0
M  V30 15019 C 1434.69 -2.06828 1.08372 0
M  V30 15020 C 1435.67 -1.70098 -0.00741585 0
M  V30 15021 O 1436.85 -1.93521 0.16224 0
M  V30 15022 C 1433.98 -3.40124 0.702365 0
M  V30 15023 C 1432.94 -3.90865 1.74381 0
M  V30 15024 C 1432.26 -5.20663 1.21712 0
M  V30 15025 C 1433.56 -4.17169 3.14273 0
M  V30 15026 H 1435.26 -2.21372 2.01581 0
M  V30 15027 H 1432.8 -1.06374 0.970592 0
M  V30 15028 H 1434.76 -4.17529 0.569837 0
M  V30 15029 H 1433.48 -3.2552 -0.265428 0
M  V30 15030 H 1432.14 -3.15628 1.86479 0
M  V30 15031 H 1431.79 -5.02429 0.23954 0
M  V30 15032 H 1431.49 -5.55581 1.91319 0
M  V30 15033 H 1433.01 -6.00665 1.097 0
M  V30 15034 H 1434.43 -4.85231 3.05325 0
M  V30 15035 H 1432.82 -4.63344 3.81356 0
M  V30 15036 H 1433.89 -3.23421 3.61285 0
M  V30 15037 N 1435.24 -1.07045 -1.15668 0
M  V30 15038 C 1436.46 -0.812746 -1.90268 0
M  V30 15039 C 1436.88 0.633722 -1.77847 0
M  V30 15040 O 1436.24 1.43444 -1.12828 0
M  V30 15041 C 1436.29 -1.20793 -3.40722 0
M  V30 15042 O 1436.01 -2.59764 -3.52781 0
M  V30 15043 C 1437.51 -0.979074 -4.32353 0
M  V30 15044 H 1434.73 -0.294093 -0.603117 0
M  V30 15045 H 1437.27 -1.42609 -1.46571 0
M  V30 15046 H 1435.43 -0.638975 -3.82094 0
M  V30 15047 H 1435.84 -2.75801 -4.46133 0
M  V30 15048 H 1437.32 -1.30513 -5.36349 0
M  V30 15049 H 1437.79 0.0847752 -4.39118 0
M  V30 15050 H 1438.4 -1.53278 -3.96719 0
M  V30 15051 N 1436.71 1.32449 -0.85411 0
M  V30 15052 C 1437.65 2.2777 -0.255605 0
M  V30 15053 C 1438.66 1.52407 0.572355 0
M  V30 15054 O 1439.85 1.74031 0.396935 0
M  V30 15055 C 1436.95 3.32461 0.657496 0
M  V30 15056 C 1436.12 4.37193 -0.134492 0
M  V30 15057 C 1435.18 5.21465 0.704288 0
M  V30 15058 O 1434.21 5.69033 0.138001 0
M  V30 15059 N 1435.41 5.44254 2.01911 0
M  V30 15060 H 1438.17 2.79769 -1.07468 0
M  V30 15061 H 1435.73 1.45304 -0.714038 0
M  V30 15062 H 1437.73 3.85748 1.22396 0
M  V30 15063 H 1436.3 2.80625 1.37726 0
M  V30 15064 H 1435.52 3.84198 -0.882378 0
M  V30 15065 H 1436.8 5.04256 -0.678508 0
M  V30 15066 H 1436.2 5.07336 2.50252 0
M  V30 15067 H 1434.76 6.00538 2.53371 0
M  V30 15068 N 1438.19 0.611994 1.45232 0
M  V30 15069 C 1439.1 -0.105981 2.3436 0
M  V30 15070 C 1440.12 -0.855785 1.515 0
M  V30 15071 O 1441.29 -0.812376 1.84289 0
M  V30 15072 C 1438.36 -1.08794 3.29188 0
M  V30 15073 C 1437.42 -0.339611 4.27955 0
M  V30 15074 C 1436.65 -1.27479 5.18252 0
M  V30 15075 O 1436.88 -2.51279 5.12069 0
M  V30 15076 O 1435.81 -0.769469 5.96961 0
M  V30 15077 H 1439.64 0.626584 2.97166 0
M  V30 15078 H 1437.22 0.37224 1.44688 0
M  V30 15079 H 1439.1 -1.65338 3.8761 0
M  V30 15080 H 1437.78 -1.80145 2.68941 0
M  V30 15081 H 1436.68 0.268408 3.73136 0
M  V30 15082 H 1438.02 0.333501 4.91069 0
M  V30 15083 N 1439.67 -1.53632 0.351409 0
M  V30 15084 C 1440.95 -1.93311 -0.298362 0
M  V30 15085 C 1441.33 -1.28369 -1.67584 0
M  V30 15086 O 1440.67 -0.437514 -2.24272 0
M  V30 15087 C 1440.88 -3.47109 -0.362773 0
M  V30 15088 C 1442.23 -4.20197 -0.609878 0
M  V30 15089 O 1443.26 -3.53415 -0.444566 0
M  V30 15090 O 1442.12 -5.38517 -0.930691 0
M  V30 15091 H 1439.21 -0.808112 -0.175739 0
M  V30 15092 H 1441.76 -1.64841 0.40316 0
M  V30 15093 H 1440.53 -3.86617 0.60357 0
M  V30 15094 H 1440.15 -3.81769 -1.11076 0
M  V30 15095 N 1441.15 -0.0802183 -1.57396 0
M  V30 15096 C 1442.39 0.581779 -1.94902 0
M  V30 15097 C 1442.75 1.66708 -0.960532 0
M  V30 15098 O 1442.04 1.91593 0.0158677 0
M  V30 15099 C 1442.24 1.19551 -3.36812 0
M  V30 15100 C 1442.06 0.171196 -4.49374 0
M  V30 15101 C 1440.83 -0.247104 -5.04695 0
M  V30 15102 C 1443.03 -0.594852 -5.10848 0
M  V30 15103 N 1441.01 -1.26125 -6.00804 0
M  V30 15104 C 1442.39 -1.46124 -6.02535 0
M  V30 15105 C 1444.44 -0.65 -4.93639 0
M  V30 15106 C 1443.14 -2.37789 -6.78859 0
M  V30 15107 C 1445.17 -1.55419 -5.70613 0
M  V30 15108 C 1444.53 -2.40824 -6.61954 0
M  V30 15109 H 1440.63 0.183663 -0.760126 0
M  V30 15110 H 1443.21 -0.159324 -1.94047 0
M  V30 15111 H 1441.39 1.90651 -3.38389 0
M  V30 15112 H 1443.12 1.81867 -3.61534 0
M  V30 15113 H 1439.87 0.137694 -4.734 0
M  V30 15114 H 1440.3 -1.76608 -6.53558 0
M  V30 15115 H 1444.94 -0.00389787 -4.228 0
M  V30 15116 H 1442.66 -3.03431 -7.4897 0
M  V30 15117 H 1446.24 -1.60181 -5.59315 0
M  V30 15118 H 1445.12 -3.09654 -7.20475 0
M  V30 15119 N 1442.63 1.56409 0.193394 0
M  V30 15120 C 1443.57 1.95572 1.25914 0
M  V30 15121 C 1444.57 0.841384 1.47028 0
M  V30 15122 O 1445.77 1.0264 1.47868 0
M  V30 15123 H 1442.15 0.621914 0.422761 0
M  V30 15124 H 1444.12 2.84446 0.901827 0
M  V30 15125 C 1442.87 2.31293 2.59613 0
M  V30 15126 H 1442.19 3.16568 2.44182 0
M  V30 15127 H 1443.63 2.62558 3.32926 0
M  V30 15128 C 1442.09 1.14818 3.16731 0
M  V30 15129 O 1442.62 0.424105 3.99455 0
M  V30 15130 N 1440.83 0.924536 2.75501 0
M  V30 15131 H 1440.37 1.51509 2.08334 0
M  V30 15132 H 1440.33 0.147006 3.14056 0
M  V30 15133 N 1444.1 -0.461169 1.50702 0
M  V30 15134 C 1445.35 -1.21431 1.62427 0
M  V30 15135 C 1445.68 -1.91406 0.328228 0
M  V30 15136 O 1444.96 -1.82563 -0.670898 0
M  V30 15137 C 1445.24 -2.25016 2.8114 0
M  V30 15138 C 1445.09 -1.5928 4.20654 0
M  V30 15139 C 1446.41 -3.26234 2.95397 0
M  V30 15140 H 1443.53 -0.440113 0.59116 0
M  V30 15141 H 1446.17 -0.506726 1.83118 0
M  V30 15142 H 1444.32 -2.85363 2.63629 0
M  V30 15143 H 1446 -1.02454 4.49779 0
M  V30 15144 H 1444.24 -0.895665 4.24453 0
M  V30 15145 H 1444.91 -2.34602 4.99666 0
M  V30 15146 H 1447.39 -2.7592 3.1146 0
M  V30 15147 H 1446.26 -3.96031 3.80067 0
M  V30 15148 H 1446.52 -3.90943 2.06436 0
M  V30 15149 N 1445.58 -1.40446 -0.715026 0
M  V30 15150 C 1446.83 -1.3896 -1.47709 0
M  V30 15151 C 1447.16 0.00798698 -1.94198 0
M  V30 15152 O 1446.44 0.976732 -1.68197 0
M  V30 15153 C 1446.72 -2.37955 -2.70277 0
M  V30 15154 C 1446.57 -3.8674 -2.29678 0
M  V30 15155 C 1447.89 -2.34478 -3.72435 0
M  V30 15156 H 1445.01 -0.50607 -0.535782 0
M  V30 15157 H 1447.65 -1.71585 -0.815999 0
M  V30 15158 H 1445.8 -2.10264 -3.26682 0
M  V30 15159 H 1447.47 -4.2526 -1.7875 0
M  V30 15160 H 1445.72 -4.02547 -1.61674 0
M  V30 15161 H 1446.39 -4.51524 -3.17538 0
M  V30 15162 H 1448.86 -2.59007 -3.2566 0
M  V30 15163 H 1447.74 -3.05791 -4.55832 0
M  V30 15164 H 1448 -1.35661 -4.20771 0
M  V30 15165 N 1447.06 0.947303 -1.25952 0
M  V30 15166 C 1447.99 2.0625 -1.09467 0
M  V30 15167 C 1448.97 1.701 -0.00160498 0
M  V30 15168 O 1450.16 1.93432 -0.172501 0
M  V30 15169 C 1447.29 3.39746 -0.720392 0
M  V30 15170 C 1446.24 3.89935 -1.76451 0
M  V30 15171 C 1445.57 5.2001 -1.24472 0
M  V30 15172 C 1446.87 4.15496 -3.16481 0
M  V30 15173 H 1448.56 2.203 -2.02752 0
M  V30 15174 H 1446.11 1.05858 -0.97622 0
M  V30 15175 H 1448.06 4.17221 -0.591972 0
M  V30 15176 H 1446.78 3.25656 0.248161 0
M  V30 15177 H 1445.44 3.14635 -1.8815 0
M  V30 15178 H 1445.09 5.02295 -0.266182 0
M  V30 15179 H 1444.79 5.54559 -1.94263 0
M  V30 15180 H 1446.31 6.00075 -1.12884 0
M  V30 15181 H 1447.73 4.83605 -3.07894 0
M  V30 15182 H 1446.12 4.61315 -3.83808 0
M  V30 15183 H 1447.19 3.21501 -3.62995 0
M  V30 15184 N 1448.54 1.07657 1.15099 0
M  V30 15185 C 1449.77 0.821631 1.89559 0
M  V30 15186 C 1450.18 -0.629174 1.78432 0
M  V30 15187 O 1449.52 -1.44353 1.13613 0
M  V30 15188 C 1449.58 1.15473 3.4045 0
M  V30 15189 C 1449.25 2.60675 3.75363 0
M  V30 15190 C 1450.24 3.58923 3.76125 0
M  V30 15191 C 1447.93 2.96333 4.05576 0
M  V30 15192 C 1449.92 4.90863 4.06611 0
M  V30 15193 C 1447.61 4.28469 4.35727 0
M  V30 15194 C 1448.61 5.25543 4.36226 0
M  V30 15195 O 1448.29 6.55305 4.65651 0
M  V30 15196 H 1448.03 0.296469 0.607521 0
M  V30 15197 H 1450.58 1.43722 1.46742 0
M  V30 15198 H 1448.81 0.482117 3.83683 0
M  V30 15199 H 1450.5 0.881832 3.96205 0
M  V30 15200 H 1451.27 3.32718 3.52879 0
M  V30 15201 H 1447.14 2.2142 4.04344 0
M  V30 15202 H 1450.69 5.66626 4.06916 0
M  V30 15203 H 1446.59 4.54425 4.58441 0
M  V30 15204 H 1447.35 6.60503 4.83402 0
M  V30 15205 N 1450.02 -1.31994 0.861122 0
M  V30 15206 C 1450.96 -2.30666 0.299352 0
M  V30 15207 C 1451.96 -1.59133 -0.580779 0
M  V30 15208 O 1453.16 -1.73813 -0.467864 0
M  V30 15209 H 1449.54 -0.747932 0.0781091 0
M  V30 15210 H 1451.51 -2.7553 1.14567 0
M  V30 15211 C 1450.26 -3.44203 -0.491883 0
M  V30 15212 H 1449.58 -3.99412 0.17608 0
M  V30 15213 H 1451.02 -4.15384 -0.850434 0
M  V30 15214 C 1449.48 -2.92042 -1.67967 0
M  V30 15215 O 1450.01 -2.90073 -2.77886 0
M  V30 15216 N 1448.22 -2.48358 -1.50887 0
M  V30 15217 H 1447.76 -2.50159 -0.614683 0
M  V30 15218 H 1447.72 -2.13813 -2.30503 0
M  V30 15219 N 1451.49 -0.619688 -1.44906 0
M  V30 15220 C 1452.74 -0.119397 -2.01747 0
M  V30 15221 C 1453.06 1.25904 -1.48907 0
M  V30 15222 O 1452.33 1.83417 -0.688104 0
M  V30 15223 H 1450.91 -0.0411482 -0.745866 0
M  V30 15224 H 1453.58 -0.803813 -1.77552 0
M  V30 15225 H 1452.67 -0.078368 -3.12002 0
M  V30 15226 N 1452.97 1.53444 -0.359552 0
M  V30 15227 C 1453.91 2.21884 0.533192 0
M  V30 15228 C 1454.88 1.20858 1.08776 0
M  V30 15229 O 1456.07 1.49738 1.14502 0
M  V30 15230 C 1453.19 2.90883 1.73507 0
M  V30 15231 C 1452.24 4.05931 1.30851 0
M  V30 15232 S 1453.07 5.34574 0.314859 0
M  V30 15233 C 1454.23 6.07083 1.52321 0
M  V30 15234 H 1454.46 2.97261 -0.0480679 0
M  V30 15235 H 1452 1.5373 -0.143645 0
M  V30 15236 H 1453.95 3.31252 2.42451 0
M  V30 15237 H 1452.61 2.15241 2.28758 0
M  V30 15238 H 1451.81 4.53203 2.20507 0
M  V30 15239 H 1451.41 3.67422 0.698365 0
M  V30 15240 H 1453.7 6.31448 2.45519 0
M  V30 15241 H 1454.64 6.99629 1.09198 0
M  V30 15242 H 1455.05 5.37449 1.72652 0
M  V30 15243 N 1454.45 0.0885642 1.57351 0
M  V30 15244 C 1455.41 -0.858178 2.12528 0
M  V30 15245 C 1456.41 -1.21522 1.05304 0
M  V30 15246 O 1457.6 -1.14573 1.3122 0
M  V30 15247 C 1454.74 -2.15619 2.64048 0
M  V30 15248 H 1455.93 -0.37918 2.97493 0
M  V30 15249 H 1453.48 -0.160354 1.55475 0
M  V30 15250 H 1454.22 -2.68018 1.82584 0
M  V30 15251 H 1454 -1.90995 3.42437 0
M  V30 15252 H 1455.49 -2.83359 3.06753 0
M  V30 15253 N 1455.93 -1.56509 -0.185096 0
M  V30 15254 C 1457.15 -1.85683 -0.923941 0
M  V30 15255 C 1457.58 -0.673315 -1.75636 0
M  V30 15256 O 1456.94 0.3778 -1.7732 0
M  V30 15257 C 1456.98 -3.13165 -1.78774 0
M  V30 15258 O 1456.09 -2.9442 -2.88775 0
M  V30 15259 H 1455.43 -0.611139 -0.259624 0
M  V30 15260 H 1457.96 -2.0374 -0.187393 0
M  V30 15261 H 1457.97 -3.44216 -2.19042 0
M  V30 15262 H 1456.64 -3.98922 -1.17619 0
M  V30 15263 H 1455.22 -2.7469 -2.5219 0
M  V30 15264 N 1457.41 0.45317 -1.50944 0
M  V30 15265 C 1458.63 1.22672 -1.66611 0
M  V30 15266 C 1459.05 1.85398 -0.356814 0
M  V30 15267 O 1458.41 1.70026 0.663122 0
M  V30 15268 C 1458.46 2.32238 -2.77034 0
M  V30 15269 O 1458.18 1.72081 -4.02889 0
M  V30 15270 C 1459.68 3.22802 -3.03832 0
M  V30 15271 H 1456.9 0.370337 -0.559546 0
M  V30 15272 H 1459.44 0.538884 -1.97272 0
M  V30 15273 H 1457.6 2.96765 -2.49017 0
M  V30 15274 H 1458.01 2.4437 -4.64095 0
M  V30 15275 H 1459.49 3.95851 -3.84716 0
M  V30 15276 H 1459.96 3.82636 -2.15608 0
M  V30 15277 H 1460.57 2.63993 -3.33449 0
M  V30 15278 N 1458.88 1.40823 0.707568 0
M  V30 15279 C 1460.11 1.43061 1.50161 0
M  V30 15280 C 1460.53 0.0342144 1.88069 0
M  V30 15281 O 1459.89 -0.959674 1.53818 0
M  V30 15282 C 1459.94 2.33459 2.74826 0
M  V30 15283 O 1459.04 1.78336 3.71847 0
M  V30 15284 H 1458.39 0.48602 0.452417 0
M  V30 15285 H 1460.92 1.85147 0.870742 0
M  V30 15286 H 1460.93 2.48922 3.23267 0
M  V30 15287 H 1459.6 3.34927 2.46571 0
M  V30 15288 H 1458.18 1.7226 3.30728 0
M  V30 15289 N 1460.36 -0.94061 1.26453 0
M  V30 15290 C 1461.59 -1.72654 1.14914 0
M  V30 15291 C 1462.01 -1.85823 -0.291789 0
M  V30 15292 O 1461.37 -1.34888 -1.2114 0
M  V30 15293 C 1461.42 -3.11083 1.82372 0
M  V30 15294 O 1460.52 -3.971 1.1129 0
M  V30 15295 H 1459.86 -0.529704 0.400387 0
M  V30 15296 H 1462.39 -1.17803 1.67283 0
M  V30 15297 H 1462.4 -3.6147 1.89219 0
M  V30 15298 H 1461.08 -3.00815 2.87199 0
M  V30 15299 H 1459.66 -3.5555 1.12423 0
M  V30 15300 N 1461.84 -1.08266 -1.14527 0
M  V30 15301 C 1463.09 -0.822513 -1.86028 0
M  V30 15302 C 1463.44 0.644706 -1.81277 0
M  V30 15303 O 1462.73 1.46778 -1.23153 0
M  V30 15304 C 1462.93 -1.27675 -3.33817 0
M  V30 15305 C 1462.76 -2.78659 -3.52958 0
M  V30 15306 C 1461.53 -3.46388 -3.67891 0
M  V30 15307 C 1463.73 -3.76835 -3.49999 0
M  V30 15308 N 1461.71 -4.85918 -3.75176 0
M  V30 15309 C 1463.08 -5.02255 -3.63511 0
M  V30 15310 C 1465.13 -3.6986 -3.33328 0
M  V30 15311 C 1463.84 -6.21527 -3.62073 0
M  V30 15312 C 1465.86 -4.88606 -3.33194 0
M  V30 15313 C 1465.22 -6.12863 -3.47244 0
M  V30 15314 H 1461.32 -0.353671 -0.697453 0
M  V30 15315 H 1463.91 -1.38073 -1.37273 0
M  V30 15316 H 1462.08 -0.746122 -3.81166 0
M  V30 15317 H 1463.81 -0.963174 -3.93071 0
M  V30 15318 H 1460.57 -2.96802 -3.6906 0
M  V30 15319 H 1460.99 -5.58564 -3.82538 0
M  V30 15320 H 1465.63 -2.7473 -3.21377 0
M  V30 15321 H 1463.35 -7.1697 -3.728 0
M  V30 15322 H 1466.94 -4.84895 -3.21509 0
M  V30 15323 H 1465.82 -7.03208 -3.47085 0
M  V30 15324 N 1463.32 1.31536 -0.86811 0
M  V30 15325 C 1464.28 2.26849 -0.327456 0
M  V30 15326 C 1465.28 1.52142 0.520514 0
M  V30 15327 O 1466.47 1.71044 0.330088 0
M  V30 15328 C 1463.6 3.36673 0.535174 0
M  V30 15329 H 1464.8 2.76184 -1.16886 0
M  V30 15330 H 1462.35 1.42437 -0.643545 0
M  V30 15331 H 1463.09 2.92627 1.39785 0
M  V30 15332 H 1462.87 3.92034 -0.0719835 0
M  V30 15333 H 1464.36 4.07658 0.905786 0
M  V30 15334 N 1464.8 0.627364 1.44575 0
M  V30 15335 C 1465.76 -0.0700881 2.29093 0
M  V30 15336 C 1466.76 -0.775969 1.40838 0
M  V30 15337 O 1467.95 -0.621129 1.6275 0
M  V30 15338 C 1465.08 -1.10977 3.2233 0
M  V30 15339 H 1466.28 0.673234 2.92246 0
M  V30 15340 H 1463.83 0.387322 1.51425 0
M  V30 15341 H 1464.56 -1.8832 2.64019 0
M  V30 15342 H 1464.35 -0.607587 3.87364 0
M  V30 15343 H 1465.84 -1.59764 3.8583 0
M  V30 15344 N 1466.28 -1.53251 0.367684 0
M  V30 15345 C 1467.21 -2.28728 -0.469676 0
M  V30 15346 C 1468.19 -1.3124 -1.08213 0
M  V30 15347 O 1469.37 -1.60112 -1.09898 0
M  V30 15348 C 1466.5 -3.07808 -1.60846 0
M  V30 15349 C 1465.46 -4.13 -1.12315 0
M  V30 15350 C 1464.78 -4.80176 -2.35234 0
M  V30 15351 C 1466.08 -5.21892 -0.2064 0
M  V30 15352 H 1467.78 -2.98972 0.160019 0
M  V30 15353 H 1465.32 -1.43786 0.0784011 0
M  V30 15354 H 1467.27 -3.59358 -2.20091 0
M  V30 15355 H 1466 -2.35258 -2.26542 0
M  V30 15356 H 1464.66 -3.62399 -0.553378 0
M  V30 15357 H 1464.31 -4.04196 -2.99391 0
M  V30 15358 H 1464.01 -5.51261 -2.03433 0
M  V30 15359 H 1465.53 -5.34521 -2.9516 0
M  V30 15360 H 1466.94 -5.68932 -0.706386 0
M  V30 15361 H 1465.34 -6.00096 0.0208362 0
M  V30 15362 H 1466.41 -4.79051 0.750851 0
M  V30 15363 N 1467.75 -0.0969077 -1.57302 0
M  V30 15364 C 1468.98 0.573872 -1.9847 0
M  V30 15365 C 1469.39 1.62149 -0.974894 0
M  V30 15366 O 1468.73 1.83649 0.0434873 0
M  V30 15367 C 1468.8 1.2781 -3.36013 0
M  V30 15368 C 1468.46 0.381022 -4.55409 0
M  V30 15369 C 1469.46 -0.371559 -5.18571 0
M  V30 15370 C 1467.14 0.29855 -5.01412 0
M  V30 15371 C 1469.14 -1.19457 -6.26106 0
M  V30 15372 C 1466.82 -0.528116 -6.08814 0
M  V30 15373 C 1467.82 -1.27333 -6.71026 0
M  V30 15374 O 1467.51 -2.08631 -7.76356 0
M  V30 15375 H 1467.24 0.158369 -0.657187 0
M  V30 15376 H 1469.8 -0.173415 -2.04667 0
M  V30 15377 H 1468.03 2.07199 -3.26505 0
M  V30 15378 H 1469.71 1.84359 -3.61617 0
M  V30 15379 H 1470.48 -0.317586 -4.83959 0
M  V30 15380 H 1466.36 0.868247 -4.5275 0
M  V30 15381 H 1469.9 -1.77673 -6.74595 0
M  V30 15382 H 1465.8 -0.583563 -6.42857 0
M  V30 15383 H 1466.57 -2.01333 -7.93352 0
M  V30 15384 N 1469.23 1.56605 0.176793 0
M  V30 15385 C 1470.48 1.81682 0.894302 0
M  V30 15386 C 1470.81 0.67311 1.82481 0
M  V30 15387 O 1470.06 -0.339995 1.92724 0
M  V30 15388 C 1470.36 3.12888 1.7273 0
M  V30 15389 C 1470.03 4.40861 0.946186 0
M  V30 15390 C 1468.69 4.75622 0.730586 0
M  V30 15391 C 1471.04 5.19679 0.397889 0
M  V30 15392 C 1468.37 5.86683 -0.0444995 0
M  V30 15393 C 1470.72 6.31551 -0.36408 0
M  V30 15394 C 1469.38 6.64883 -0.59053 0
M  V30 15395 H 1468.65 0.664823 0.327248 0
M  V30 15396 H 1471.3 1.90834 0.159555 0
M  V30 15397 H 1469.61 2.99055 2.53128 0
M  V30 15398 H 1471.3 3.295 2.2854 0
M  V30 15399 H 1467.89 4.13592 1.12426 0
M  V30 15400 H 1472.08 4.93223 0.55181 0
M  V30 15401 H 1467.33 6.10968 -0.229739 0
M  V30 15402 H 1471.51 6.91833 -0.796223 0
M  V30 15403 H 1469.13 7.50781 -1.19301 0
M  V30 15404 N 1470.71 -0.445159 1.51182 0
M  V30 15405 C 1471.96 -1.19701 1.63705 0
M  V30 15406 C 1472.29 -1.91047 0.348511 0
M  V30 15407 O 1471.56 -1.83264 -0.651497 0
M  V30 15408 C 1471.85 -2.22021 2.83511 0
M  V30 15409 C 1471.7 -1.54809 4.2232 0
M  V30 15410 C 1473.02 -3.23083 2.9884 0
M  V30 15411 H 1470.14 -0.433818 0.595795 0
M  V30 15412 H 1472.78 -0.487276 1.83645 0
M  V30 15413 H 1470.93 -2.82551 2.66641 0
M  V30 15414 H 1472.6 -0.976774 4.5084 0
M  V30 15415 H 1470.84 -0.850596 4.25379 0
M  V30 15416 H 1471.52 -2.29289 5.02126 0
M  V30 15417 H 1473.99 -2.72601 3.14369 0
M  V30 15418 H 1472.87 -3.91978 3.84246 0
M  V30 15419 H 1473.13 -3.88732 2.1057 0
M  V30 15420 N 1472.19 -1.41197 -0.700089 0
M  V30 15421 C 1473.15 -1.42419 -1.79582 0
M  V30 15422 C 1474.15 -0.31551 -1.57674 0
M  V30 15423 O 1475.34 -0.575173 -1.64431 0
M  V30 15424 C 1472.47 -1.23114 -3.17893 0
M  V30 15425 H 1473.67 -2.39956 -1.79892 0
M  V30 15426 H 1471.22 -1.27273 -0.907271 0
M  V30 15427 H 1471.95 -0.263992 -3.23224 0
M  V30 15428 H 1471.74 -2.03437 -3.35195 0
M  V30 15429 H 1473.23 -1.26793 -3.97886 0
M  V30 15430 N 1473.67 0.933891 -1.2695 0
M  V30 15431 C 1474.6 2.05078 -1.11649 0
M  V30 15432 C 1475.58 1.70089 -0.0196463 0
M  V30 15433 O 1476.76 1.93239 -0.193007 0
M  V30 15434 C 1473.89 3.38963 -0.756387 0
M  V30 15435 C 1472.85 3.88041 -1.80577 0
M  V30 15436 C 1472.17 5.18661 -1.2998 0
M  V30 15437 C 1473.47 4.12116 -3.2087 0
M  V30 15438 H 1475.17 2.18137 -2.05077 0
M  V30 15439 H 1472.71 1.04817 -0.987392 0
M  V30 15440 H 1474.66 4.1657 -0.63619 0
M  V30 15441 H 1473.39 3.25901 0.213607 0
M  V30 15442 H 1472.05 3.12622 -1.91477 0
M  V30 15443 H 1471.7 5.01985 -0.319442 0
M  V30 15444 H 1471.4 5.52467 -2.00134 0
M  V30 15445 H 1472.92 5.98844 -1.19242 0
M  V30 15446 H 1474.33 4.80312 -3.13006 0
M  V30 15447 H 1472.73 4.57218 -3.88679 0
M  V30 15448 H 1473.8 3.17633 -3.66384 0
M  V30 15449 N 1475.14 1.08871 1.13951 0
M  V30 15450 C 1476.08 0.666975 2.18235 0
M  V30 15451 C 1477.05 -0.323664 1.59346 0
M  V30 15452 O 1478.24 -0.226394 1.87136 0
M  V30 15453 C 1475.37 -0.018268 3.38695 0
M  V30 15454 C 1474.41 0.933273 4.16164 0
M  V30 15455 S 1475.24 2.44241 4.76557 0
M  V30 15456 C 1476.4 1.76941 6.00369 0
M  V30 15457 H 1476.63 1.55042 2.53672 0
M  V30 15458 H 1474.17 0.904149 1.25158 0
M  V30 15459 H 1476.12 -0.407339 4.08474 0
M  V30 15460 H 1474.79 -0.878272 3.01571 0
M  V30 15461 H 1473.98 0.400793 5.02404 0
M  V30 15462 H 1473.58 1.26347 3.52012 0
M  V30 15463 H 1475.87 1.09012 6.68672 0
M  V30 15464 H 1476.82 2.61074 6.58214 0
M  V30 15465 H 1477.22 1.24075 5.50696 0
M  V30 15466 N 1476.62 -1.31073 0.875073 0
M  V30 15467 C 1477.85 -2.00688 0.503179 0
M  V30 15468 C 1478.26 -1.65657 -0.905714 0
M  V30 15469 O 1477.62 -0.888468 -1.59413 0
M  V30 15470 C 1477.67 -3.55486 0.65666 0
M  V30 15471 O 1477.39 -3.89265 2.01007 0
M  V30 15472 C 1478.89 -4.42374 0.28645 0
M  V30 15473 H 1476.11 -0.641885 0.195512 0
M  V30 15474 H 1478.66 -1.67188 1.17765 0
M  V30 15475 H 1476.81 -3.87389 0.0296852 0
M  V30 15476 H 1477.23 -4.83978 2.02153 0
M  V30 15477 H 1478.7 -5.50205 0.444776 0
M  V30 15478 H 1479.18 -4.32312 -0.774789 0
M  V30 15479 H 1479.78 -4.15898 0.889336 0
M  V30 15480 N 1478.1 -0.635022 -1.4424 0
M  V30 15481 C 1479.35 -0.141067 -2.02008 0
M  V30 15482 C 1479.68 1.23849 -1.49973 0
M  V30 15483 O 1478.93 1.83666 -0.675673 0
M  V30 15484 C 1479.23 -0.081191 -3.57308 0
M  V30 15485 C 1478.9 -1.40004 -4.28614 0
M  V30 15486 C 1477.56 -1.76125 -4.4781 0
M  V30 15487 C 1479.91 -2.27041 -4.6915 0
M  V30 15488 C 1477.24 -2.98982 -5.04804 0
M  V30 15489 C 1479.59 -3.49173 -5.27504 0
M  V30 15490 C 1478.25 -3.85512 -5.44919 0
M  V30 15491 H 1477.52 -0.05162 -0.7392 0
M  V30 15492 H 1480.17 -0.822112 -1.72955 0
M  V30 15493 H 1478.48 0.68324 -3.85797 0
M  V30 15494 H 1480.17 0.317584 -3.9974 0
M  V30 15495 H 1476.76 -1.10897 -4.14005 0
M  V30 15496 H 1480.95 -2.0043 -4.54028 0
M  V30 15497 H 1476.2 -3.27208 -5.16473 0
M  V30 15498 H 1480.38 -4.16847 -5.57864 0
M  V30 15499 H 1478 -4.80793 -5.88848 0
M  V30 15500 N 1479.58 1.53054 -0.375806 0
M  V30 15501 C 1480.83 2.01003 0.210257 0
M  V30 15502 C 1481.15 1.26451 1.48442 0
M  V30 15503 O 1480.42 0.380687 1.92166 0
M  V30 15504 H 1479 0.74263 0.0806861 0
M  V30 15505 H 1481.66 1.8826 -0.504393 0
M  V30 15506 H 1480.76 3.09123 0.430027 0
M  V30 15507 N 1481.06 0.105248 1.57248 0
M  V30 15508 C 1482 -0.867443 2.1582 0
M  V30 15509 C 1483 -1.28508 1.10373 0
M  V30 15510 O 1484.2 -1.25842 1.287 0
M  V30 15511 H 1480.58 -0.2978 0.690521 0
M  V30 15512 H 1482.55 -0.348831 2.96354 0
M  V30 15513 C 1481.3 -2.11299 2.7613 0
M  V30 15514 H 1480.62 -1.80054 3.5696 0
M  V30 15515 H 1482.06 -2.77395 3.20668 0
M  V30 15516 C 1480.52 -2.89372 1.72527 0
M  V30 15517 O 1481.05 -3.84274 1.17032 0
M  V30 15518 N 1479.26 -2.53103 1.42784 0
M  V30 15519 H 1478.8 -1.75998 1.88102 0
M  V30 15520 H 1478.76 -3.05639 0.737035 0
M  V30 15521 N 1482.53 -1.56697 -0.168486 0
M  V30 15522 C 1483.76 -1.86022 -0.898847 0
M  V30 15523 C 1484.17 -0.688909 -1.76212 0
M  V30 15524 O 1483.52 0.35111 -1.80313 0
M  V30 15525 C 1483.58 -3.09795 -1.82394 0
M  V30 15526 C 1483.24 -4.42553 -1.13999 0
M  V30 15527 C 1484.24 -5.1745 -0.504092 0
M  V30 15528 C 1481.92 -4.89288 -1.1359 0
M  V30 15529 C 1483.92 -6.37274 0.126758 0
M  V30 15530 C 1481.6 -6.09041 -0.501222 0
M  V30 15531 C 1482.6 -6.82878 0.128998 0
M  V30 15532 O 1482.29 -8.00359 0.753658 0
M  V30 15533 H 1482.02 -0.621283 -0.266426 0
M  V30 15534 H 1484.58 -2.04674 -0.172562 0
M  V30 15535 H 1482.81 -2.87096 -2.59061 0
M  V30 15536 H 1484.5 -3.25544 -2.42438 0
M  V30 15537 H 1485.26 -4.82424 -0.499207 0
M  V30 15538 H 1481.14 -4.31754 -1.61584 0
M  V30 15539 H 1484.68 -6.94846 0.619267 0
M  V30 15540 H 1480.58 -6.43532 -0.5037 0
M  V30 15541 H 1481.35 -8.1589 0.653188 0
M  V30 15542 N 1484.01 0.437135 -1.51416 0
M  V30 15543 C 1485.26 1.18831 -1.64338 0
M  V30 15544 C 1485.59 1.9086 -0.358638 0
M  V30 15545 O 1484.87 1.83607 0.641769 0
M  V30 15546 C 1485.15 2.20515 -2.84685 0
M  V30 15547 C 1485 1.52568 -4.23135 0
M  V30 15548 C 1486.32 3.21494 -3.00549 0
M  V30 15549 H 1483.44 0.430652 -0.598087 0
M  V30 15550 H 1486.08 0.47753 -1.83901 0
M  V30 15551 H 1484.23 2.81132 -2.68136 0
M  V30 15552 H 1485.9 0.952851 -4.51352 0
M  V30 15553 H 1484.15 0.828025 -4.25824 0
M  V30 15554 H 1484.82 2.26623 -5.03335 0
M  V30 15555 H 1487.29 2.7093 -3.1581 0
M  V30 15556 H 1486.17 3.89934 -3.86319 0
M  V30 15557 H 1486.43 3.8761 -2.12629 0
M  V30 15558 N 1485.49 1.41566 0.692592 0
M  V30 15559 C 1486.42 1.46423 1.81886 0
M  V30 15560 C 1487.4 0.32258 1.67013 0
M  V30 15561 O 1488.59 0.534437 1.86701 0
M  V30 15562 C 1485.72 1.3486 3.20047 0
M  V30 15563 C 1484.67 2.46867 3.49629 0
M  V30 15564 C 1484 2.20369 4.87177 0
M  V30 15565 C 1485.3 3.89205 3.48306 0
M  V30 15566 H 1486.99 2.40683 1.78079 0
M  V30 15567 H 1484.54 1.15845 0.855334 0
M  V30 15568 H 1486.49 1.36869 3.98553 0
M  V30 15569 H 1485.21 0.370859 3.24488 0
M  V30 15570 H 1483.87 2.44146 2.73475 0
M  V30 15571 H 1483.52 1.20931 4.88247 0
M  V30 15572 H 1483.22 2.95426 5.07934 0
M  V30 15573 H 1484.74 2.24099 5.6799 0
M  V30 15574 H 1486.16 3.93626 4.16811 0
M  V30 15575 H 1484.56 4.63969 3.80595 0
M  V30 15576 H 1485.63 4.17144 2.47222 0
M  V30 15577 N 1486.97 -0.927146 1.27443 0
M  V30 15578 C 1488.22 -1.67489 1.13814 0
M  V30 15579 C 1488.54 -1.91917 -0.315914 0
M  V30 15580 O 1487.8 -1.5079 -1.24743 0
M  V30 15581 C 1488.1 -3.0472 1.86764 0
M  V30 15582 C 1487.76 -3 3.36617 0
M  V30 15583 C 1486.43 -2.9842 3.77491 0
M  V30 15584 C 1488.78 -2.91249 4.32231 0
M  V30 15585 C 1486.11 -2.85872 5.12342 0
M  V30 15586 C 1488.46 -2.80242 5.67139 0
M  V30 15587 C 1487.12 -2.77013 6.07306 0
M  V30 15588 H 1486.39 -0.612887 0.416474 0
M  V30 15589 H 1489.04 -1.0812 1.58058 0
M  V30 15590 H 1487.34 -3.67797 1.35029 0
M  V30 15591 H 1489.04 -3.61453 1.73646 0
M  V30 15592 H 1485.63 -3.02017 3.04111 0
M  V30 15593 H 1489.81 -2.91567 4.01625 0
M  V30 15594 H 1485.07 -2.81758 5.42607 0
M  V30 15595 H 1489.24 -2.72437 6.40899 0
M  V30 15596 H 1486.87 -2.67047 7.11751 0
M  V30 15597 N 1488.45 -1.09474 -1.13372 0
M  V30 15598 C 1489.39 -0.729274 -2.20872 0
M  V30 15599 C 1490.39 0.270036 -1.67234 0
M  V30 15600 O 1491.59 0.131445 -1.79519 0
M  V30 15601 H 1487.97 -0.217852 -0.719753 0
M  V30 15602 H 1489.94 -1.64505 -2.48959 0
M  V30 15603 C 1488.69 -0.166518 -3.47301 0
M  V30 15604 H 1488.01 -0.926666 -3.88913 0
M  V30 15605 H 1489.45 0.0512617 -4.23969 0
M  V30 15606 C 1487.91 1.09836 -3.18493 0
M  V30 15607 O 1488.44 2.18152 -3.37302 0
M  V30 15608 N 1486.65 1.01307 -2.7237 0
M  V30 15609 H 1486.19 0.131551 -2.57264 0
M  V30 15610 H 1486.15 1.86011 -2.5347 0
M  V30 15611 N 1489.92 1.30607 -0.882012 0
M  V30 15612 C 1490.85 2.30666 -0.362706 0
M  V30 15613 C 1491.84 1.60865 0.552861 0
M  V30 15614 O 1493.02 1.88493 0.467339 0
M  V30 15615 C 1490.15 3.44675 0.42622 0
M  V30 15616 C 1489.1 4.26152 -0.397322 0
M  V30 15617 C 1488.43 5.32185 0.518027 0
M  V30 15618 C 1489.73 4.95955 -1.63785 0
M  V30 15619 H 1491.42 2.74351 -1.19883 0
M  V30 15620 H 1488.97 1.31895 -0.577912 0
M  V30 15621 H 1490.92 4.13734 0.80013 0
M  V30 15622 H 1489.65 2.99787 1.29597 0
M  V30 15623 H 1488.31 3.58776 -0.753332 0
M  V30 15624 H 1487.95 4.83545 1.3854 0
M  V30 15625 H 1487.65 5.87593 -0.0291802 0
M  V30 15626 H 1489.18 6.04101 0.888518 0
M  V30 15627 H 1490.59 5.57547 -1.3347 0
M  V30 15628 H 1488.99 5.61215 -2.12504 0
M  V30 15629 H 1490.06 4.22252 -2.38394 0
M  V30 15630 N 1491.4 0.642663 1.43901 0
M  V30 15631 C 1492.33 -0.0419756 2.33462 0
M  V30 15632 C 1493.31 -0.822923 1.48869 0
M  V30 15633 O 1494.5 -0.786508 1.7756 0
M  V30 15634 C 1491.63 -1.01631 3.32097 0
M  V30 15635 C 1490.58 -0.346206 4.26597 0
M  V30 15636 C 1489.91 -1.43125 5.15189 0
M  V30 15637 C 1491.21 0.754799 5.16817 0
M  V30 15638 H 1492.9 0.705929 2.90959 0
M  V30 15639 H 1490.45 0.340924 1.39906 0
M  V30 15640 H 1492.4 -1.5041 3.93643 0
M  V30 15641 H 1491.13 -1.79525 2.72834 0
M  V30 15642 H 1489.78 0.121038 3.664 0
M  V30 15643 H 1489.43 -2.20135 4.52271 0
M  V30 15644 H 1489.13 -0.988194 5.79231 0
M  V30 15645 H 1490.66 -1.92061 5.79607 0
M  V30 15646 H 1492.07 0.349624 5.72233 0
M  V30 15647 H 1490.47 1.12169 5.89524 0
M  V30 15648 H 1491.54 1.61718 4.57138 0
M  V30 15649 N 1492.88 -1.52852 0.383918 0
M  V30 15650 C 1494.13 -2.01809 -0.200285 0
M  V30 15651 C 1494.46 -1.27009 -1.46909 0
M  V30 15652 O 1493.74 -0.369002 -1.90968 0
M  V30 15653 C 1494.02 -3.56971 -0.473672 0
M  V30 15654 C 1493.87 -4.42446 0.810048 0
M  V30 15655 C 1495.19 -4.21481 -1.26658 0
M  V30 15656 H 1492.31 -0.733541 -0.0713192 0
M  V30 15657 H 1494.95 -1.8296 0.512425 0
M  V30 15658 H 1493.1 -3.73163 -1.08081 0
M  V30 15659 H 1494.77 -4.38016 1.44706 0
M  V30 15660 H 1493.02 -4.09674 1.42652 0
M  V30 15661 H 1493.69 -5.49013 0.573478 0
M  V30 15662 H 1496.16 -4.09233 -0.752806 0
M  V30 15663 H 1495.04 -5.30037 -1.42661 0
M  V30 15664 H 1495.3 -3.78756 -2.28028 0
M  V30 15665 N 1494.36 -0.113586 -1.5719 0
M  V30 15666 C 1495.32 0.824258 -2.13866 0
M  V30 15667 C 1496.32 1.19831 -1.07224 0
M  V30 15668 O 1497.51 1.12471 -1.33026 0
M  V30 15669 C 1494.64 2.11391 -2.67445 0
M  V30 15670 H 1495.84 0.331803 -2.98059 0
M  V30 15671 H 1493.39 0.135599 -1.55711 0
M  V30 15672 H 1494.13 2.65079 -1.86824 0
M  V30 15673 H 1493.91 1.85523 -3.45433 0
M  V30 15674 H 1495.4 2.78443 -3.11222 0
M  V30 15675 N 1495.84 1.56784 0.160173 0
M  V30 15676 C 1497.09 1.81812 0.873344 0
M  V30 15677 C 1497.4 0.692686 1.82924 0
M  V30 15678 O 1498.61 0.828202 2.5856 0
M  V30 15679 C 1497.06 3.222 1.6036 0
M  V30 15680 C 1496.67 4.42642 0.690776 0
M  V30 15681 C 1498.41 3.56512 2.30433 0
M  V30 15682 C 1496.32 5.74052 1.4219 0
M  V30 15683 H 1495.25 0.678013 0.32987 0
M  V30 15684 H 1497.9 1.83066 0.126164 0
M  V30 15685 H 1496.28 3.15295 2.39593 0
M  V30 15686 H 1497.46 4.60754 -0.0653914 0
M  V30 15687 H 1495.77 4.16282 0.09913 0
M  V30 15688 H 1498.37 4.51942 2.85749 0
M  V30 15689 H 1498.71 2.8193 3.06303 0
M  V30 15690 H 1499.25 3.65019 1.58132 0
M  V30 15691 H 1495.98 6.51694 0.705318 0
M  V30 15692 H 1495.5 5.59899 2.15111 0
M  V30 15693 H 1497.18 6.16395 1.96639 0
M  V30 15694 N 1497.32 -0.429099 1.51646 0
M  V30 15695 C 1498.25 -1.52867 1.76505 0
M  V30 15696 C 1499.23 -1.58586 0.615178 0
M  V30 15697 O 1500.41 -1.74182 0.858742 0
M  V30 15698 C 1497.54 -2.90875 1.8976 0
M  V30 15699 C 1496.5 -3.00014 3.05247 0
M  V30 15700 C 1495.82 -4.40082 3.03696 0
M  V30 15701 C 1497.12 -2.73334 4.45068 0
M  V30 15702 H 1498.82 -1.32315 2.68576 0
M  V30 15703 H 1496.36 -0.635091 1.29238 0
M  V30 15704 H 1498.31 -3.67765 2.05734 0
M  V30 15705 H 1497.04 -3.12677 0.943442 0
M  V30 15706 H 1495.7 -2.25565 2.88991 0
M  V30 15707 H 1495.35 -4.58864 2.06042 0
M  V30 15708 H 1495.05 -4.47125 3.81252 0
M  V30 15709 H 1496.57 -5.18935 3.21774 0
M  V30 15710 H 1497.98 -3.39954 4.61632 0
M  V30 15711 H 1496.38 -2.91777 5.24391 0
M  V30 15712 H 1497.45 -1.68889 4.54538 0
M  V30 15713 N 1498.79 -1.41931 -0.685074 0
M  V30 15714 C 1500.04 -1.42062 -1.44728 0
M  V30 15715 C 1500.37 -0.0332072 -1.94172 0
M  V30 15716 O 1499.65 0.940835 -1.70231 0
M  V30 15717 C 1499.93 -2.43634 -2.65168 0
M  V30 15718 C 1499.78 -3.91525 -2.21423 0
M  V30 15719 C 1501.1 -2.42325 -3.67378 0
M  V30 15720 H 1498.22 -0.517321 -0.524927 0
M  V30 15721 H 1500.86 -1.73277 -0.779419 0
M  V30 15722 H 1499.01 -2.17146 -3.22149 0
M  V30 15723 H 1500.69 -4.28956 -1.69689 0
M  V30 15724 H 1498.93 -4.05886 -1.53099 0
M  V30 15725 H 1499.6 -4.58158 -3.07889 0
M  V30 15726 H 1502.08 -2.65857 -3.20093 0
M  V30 15727 H 1500.95 -3.15391 -4.49243 0
M  V30 15728 H 1501.21 -1.44555 -4.17799 0
M  V30 15729 N 1500.27 0.920374 -1.27933 0
M  V30 15730 C 1501.18 2.05525 -1.13123 0
M  V30 15731 C 1502.2 1.73899 -0.059421 0
M  V30 15732 O 1503.37 1.99617 -0.267386 0
M  V30 15733 C 1500.44 3.37637 -0.787551 0
M  V30 15734 C 1499.5 3.82914 -1.94101 0
M  V30 15735 C 1498.73 5.08721 -1.61364 0
M  V30 15736 O 1498.96 5.6798 -0.524918 0
M  V30 15737 O 1497.89 5.4955 -2.45517 0
M  V30 15738 H 1501.72 2.20935 -2.08378 0
M  V30 15739 H 1499.3 1.04071 -1.07189 0
M  V30 15740 H 1501.18 4.16968 -0.609544 0
M  V30 15741 H 1499.86 3.23417 0.135407 0
M  V30 15742 H 1498.76 3.04438 -2.17413 0
M  V30 15743 H 1500.1 4.01687 -2.84444 0
M  V30 15744 N 1501.75 1.10074 1.1279 0
M  V30 15745 C 1503 0.839212 1.83852 0
M  V30 15746 C 1503.32 -0.637023 1.84301 0
M  V30 15747 O 1502.59 -1.46239 1.30349 0
M  V30 15748 H 1501.17 0.307468 0.680788 0
M  V30 15749 H 1503.83 1.39025 1.36595 0
M  V30 15750 H 1502.93 1.19872 2.88162 0
M  V30 15751 N 1503.23 -1.30138 0.888926 0
M  V30 15752 C 1504.47 -1.95989 0.509365 0
M  V30 15753 C 1504.8 -1.70153 -0.942249 0
M  V30 15754 O 1504.06 -1.00123 -1.68148 0
M  V30 15755 C 1504.36 -3.4975 0.735488 0
M  V30 15756 C 1504.02 -3.95644 2.1628 0
M  V30 15757 C 1502.68 -4.07886 2.55309 0
M  V30 15758 C 1505.04 -4.1952 3.09277 0
M  V30 15759 C 1502.36 -4.41367 3.86539 0
M  V30 15760 C 1504.72 -4.54472 4.40043 0
M  V30 15761 C 1503.38 -4.64923 4.7896 0
M  V30 15762 H 1502.65 -0.717175 0.18639 0
M  V30 15763 H 1505.3 -1.54932 1.12553 0
M  V30 15764 H 1503.6 -3.91783 0.0363165 0
M  V30 15765 H 1505.3 -3.9878 0.421351 0
M  V30 15766 H 1501.89 -3.86624 1.84985 0
M  V30 15767 H 1506.07 -4.09539 2.80342 0
M  V30 15768 H 1501.33 -4.47659 4.16427 0
M  V30 15769 H 1505.5 -4.71897 5.12138 0
M  V30 15770 H 1503.13 -4.90622 5.80685 0
M  V30 15771 N 1504.71 -0.650285 -1.43559 0
M  V30 15772 C 1505.64 0.0817484 -2.29054 0
M  V30 15773 C 1506.65 0.790023 -1.42346 0
M  V30 15774 O 1507.84 0.648269 -1.66312 0
M  V30 15775 C 1504.94 1.13873 -3.19196 0
M  V30 15776 C 1504.11 0.509177 -4.34426 0
M  V30 15777 C 1503.17 1.46265 -5.05463 0
M  V30 15778 O 1502.2 0.972378 -5.60833 0
M  V30 15779 N 1503.4 2.79668 -5.08691 0
M  V30 15780 H 1506.16 -0.652062 -2.92521 0
M  V30 15781 H 1503.73 -0.49285 -1.54216 0
M  V30 15782 H 1505.72 1.77732 -3.63584 0
M  V30 15783 H 1504.29 1.77454 -2.5735 0
M  V30 15784 H 1503.51 -0.308444 -3.92991 0
M  V30 15785 H 1504.8 0.0695732 -5.08752 0
M  V30 15786 H 1504.19 3.22062 -4.65072 0
M  V30 15787 H 1502.75 3.38838 -5.56805 0
M  V30 15788 N 1506.18 1.52647 -0.392018 0
M  V30 15789 C 1507.15 2.25135 0.429754 0
M  V30 15790 C 1508.15 1.26871 0.987946 0
M  V30 15791 O 1509.34 1.50947 0.86952 0
M  V30 15792 C 1506.47 3.00849 1.60321 0
M  V30 15793 H 1507.66 2.99199 -0.204918 0
M  V30 15794 H 1505.21 1.55634 -0.144188 0
M  V30 15795 H 1505.95 2.31092 2.27524 0
M  V30 15796 H 1505.73 3.72975 1.20964 0
M  V30 15797 H 1507.22 3.55879 2.18494 0
M  V30 15798 N 1507.66 0.121921 1.57128 0
M  V30 15799 C 1508.57 -0.840825 2.19014 0
M  V30 15800 C 1509.59 -1.29051 1.16712 0
M  V30 15801 O 1510.76 -1.35289 1.49194 0
M  V30 15802 C 1507.83 -2.07204 2.7797 0
M  V30 15803 C 1506.89 -1.67399 3.95318 0
M  V30 15804 C 1506.12 -2.84652 4.51452 0
M  V30 15805 O 1506.35 -4.00161 4.06482 0
M  V30 15806 O 1505.28 -2.61568 5.42094 0
M  V30 15807 H 1509.11 -0.344146 3.01744 0
M  V30 15808 H 1506.69 -0.103841 1.49039 0
M  V30 15809 H 1508.57 -2.79307 3.1554 0
M  V30 15810 H 1507.25 -2.55872 1.9827 0
M  V30 15811 H 1506.16 -0.92395 3.62511 0
M  V30 15812 H 1507.49 -1.2347 4.76462 0
M  V30 15813 N 1509.14 -1.56867 -0.151857 0
M  V30 15814 C 1510.39 -1.82721 -0.863575 0
M  V30 15815 C 1510.71 -0.702042 -1.81924 0
M  V30 15816 O 1509.98 0.27668 -1.93936 0
M  V30 15817 H 1508.56 -0.674088 -0.321893 0
M  V30 15818 H 1511.22 -1.94345 -0.14702 0
M  V30 15819 H 1510.32 -2.77476 -1.42876 0
M  V30 15820 N 1510.62 0.421051 -1.51871 0
M  V30 15821 C 1511.9 1.18133 -1.55897 0
M  V30 15822 C 1512.28 2.08459 -0.332876 0
M  V30 15823 O 1511.62 2.18114 0.681052 0
M  V30 15824 C 1511.83 1.96902 -2.88151 0
M  V30 15825 C 1513.18 2.53382 -3.4071 0
M  V30 15826 O 1514.21 2.07095 -2.89811 0
M  V30 15827 O 1513.06 3.37846 -4.29561 0
M  V30 15828 H 1510.16 0.538721 -0.627462 0
M  V30 15829 H 1512.7 0.428798 -1.64193 0
M  V30 15830 H 1511.48 1.30659 -3.68841 0
M  V30 15831 H 1511.1 2.79185 -2.83093 0
M  V30 15832 N 1512.1 1.42293 0.677538 0
M  V30 15833 C 1513.06 1.45258 1.77293 0
M  V30 15834 C 1514.06 0.340554 1.57152 0
M  V30 15835 O 1515.25 0.601259 1.63495 0
M  V30 15836 C 1512.38 1.28156 3.15894 0
M  V30 15837 H 1513.57 2.42787 1.76052 0
M  V30 15838 H 1511.13 1.287 0.886908 0
M  V30 15839 H 1511.86 0.315381 3.22763 0
M  V30 15840 H 1511.65 2.08744 3.31916 0
M  V30 15841 H 1513.14 1.33107 3.95818 0
M  V30 15842 N 1513.57 -0.913576 1.28419 0
M  V30 15843 C 1514.52 -2.03739 1.1222 0
M  V30 15844 C 1515.52 -1.69349 0.0414309 0
M  V30 15845 O 1516.72 -1.78883 0.200213 0
M  V30 15846 H 1513.1 -0.667554 0.34623 0
M  V30 15847 H 1515.07 -2.14544 2.07397 0
M  V30 15848 C 1513.82 -3.38348 0.801003 0
M  V30 15849 H 1513.14 -3.65304 1.6246 0
M  V30 15850 H 1514.58 -4.1771 0.727611 0
M  V30 15851 C 1513.04 -3.3324 -0.495261 0
M  V30 15852 O 1513.57 -3.71606 -1.52551 0
M  V30 15853 N 1511.78 -2.86335 -0.496054 0
M  V30 15854 H 1511.32 -2.55309 0.342773 0
M  V30 15855 H 1511.28 -2.833 -1.3634 0
M  V30 15856 N 1515.05 -1.1067 -1.12204 0
M  V30 15857 C 1516.47 -0.838988 -1.35769 0
M  V30 15858 C 1516.67 0.540345 -1.9412 0
M  V30 15859 O 1515.72 1.29274 -2.16897 0
M  V30 15860 C 1517.04 -1.94065 -2.29694 0
M  V30 15861 C 1518.59 -1.96938 -2.43279 0
M  V30 15862 C 1519.06 -3.06284 -3.4052 0
M  V30 15863 N 1520.55 -3.05607 -3.48079 0
M  V30 15864 C 1521.29 -3.86855 -4.23238 0
M  V30 15865 N 1520.78 -4.78046 -5.01442 0
M  V30 15866 N 1522.58 -3.75064 -4.18669 0
M  V30 15867 H 1514.73 -1.99575 -0.726878 0
M  V30 15868 H 1516.99 -0.867423 -0.382467 0
M  V30 15869 H 1516.7 -2.93356 -1.93997 0
M  V30 15870 H 1516.57 -1.82992 -3.29839 0
M  V30 15871 H 1518.96 -0.982774 -2.78254 0
M  V30 15872 H 1519.04 -2.12087 -1.43014 0
M  V30 15873 H 1518.68 -4.05165 -3.06273 0
M  V30 15874 H 1518.61 -2.88376 -4.40621 0
M  V30 15875 H 1521.1 -2.39531 -2.9229 0
M  V30 15876 H 1521.42 -5.36594 -5.56136 0
M  V30 15877 H 1519.76 -4.82073 -5.0063 0
M  V30 15878 H 1522.95 -3.03172 -3.56657 0
M  V30 15879 H 1523.12 -4.38618 -4.76988 0
M  V30 15880 N 1516.53 1.29665 -0.895815 0
M  V30 15881 C 1517.76 2.00399 -0.534333 0
M  V30 15882 C 1518.18 1.66632 0.872654 0
M  V30 15883 O 1517.54 0.888811 1.58018 0
M  V30 15884 C 1517.59 3.53154 -0.729023 0
M  V30 15885 O 1516.69 4.11812 0.22023 0
M  V30 15886 H 1516.03 0.630173 -0.209233 0
M  V30 15887 H 1518.56 1.65253 -1.20634 0
M  V30 15888 H 1518.57 4.03073 -0.632179 0
M  V30 15889 H 1517.25 3.77067 -1.75481 0
M  V30 15890 H 1515.82 3.72822 0.0761687 0
M  V30 15891 N 1518.01 0.657889 1.43212 0
M  V30 15892 C 1519.29 0.102895 1.95329 0
M  V30 15893 C 1519.67 -1.37821 1.59901 0
M  V30 15894 O 1519.01 -2.10602 0.886505 0
M  V30 15895 C 1519.22 0.354075 3.47199 0
M  V30 15896 C 1520.57 0.261511 4.23794 0
M  V30 15897 O 1521.6 0.286889 3.55043 0
M  V30 15898 O 1520.45 0.189209 5.46172 0
M  V30 15899 H 1517.55 -0.00692284 0.826971 0
M  V30 15900 H 1520.09 0.73145 1.53127 0
M  V30 15901 H 1518.87 1.38075 3.6613 0
M  V30 15902 H 1518.49 -0.307321 3.96411 0
M  V30 15903 N 1519.49 -1.52437 0.400108 0
M  V30 15904 C 1520.71 -2.0613 -0.178364 0
M  V30 15905 C 1521.13 -1.27094 -1.39616 0
M  V30 15906 O 1520.49 -0.320409 -1.79665 0
M  V30 15907 C 1520.54 -3.57478 -0.53777 0
M  V30 15908 O 1520.26 -4.33522 0.631657 0
M  V30 15909 C 1521.76 -4.27556 -1.17094 0
M  V30 15910 H 1518.98 -0.670558 -0.0243619 0
M  V30 15911 H 1521.52 -1.9644 0.568459 0
M  V30 15912 H 1519.68 -3.67205 -1.23449 0
M  V30 15913 H 1520.09 -5.23437 0.333803 0
M  V30 15914 H 1521.57 -5.3466 -1.3727 0
M  V30 15915 H 1522.04 -3.83456 -2.14145 0
M  V30 15916 H 1522.65 -4.22174 -0.514687 0
M  V30 15917 N 1520.96 -0.130252 -1.57061 0
M  V30 15918 C 1522.24 0.569171 -1.87136 0
M  V30 15919 C 1522.62 1.84078 -1.03337 0
M  V30 15920 O 1521.97 2.28208 -0.11543 0
M  V30 15921 C 1522.18 0.850782 -3.38471 0
M  V30 15922 C 1523.53 1.19892 -4.07322 0
M  V30 15923 O 1524.55 0.940682 -3.43554 0
M  V30 15924 O 1523.41 1.6841 -5.19904 0
M  V30 15925 H 1520.5 0.288433 -0.775071 0
M  V30 15926 H 1523.05 -0.165603 -1.6889 0
M  V30 15927 H 1521.82 -0.0498562 -3.91268 0
M  V30 15928 H 1521.45 1.64032 -3.62187 0
M  V30 15929 N 1522.44 1.56945 0.143535 0
M  V30 15930 C 1523.35 2.01795 1.1965 0
M  V30 15931 C 1524.37 0.933965 1.4681 0
M  V30 15932 O 1525.55 1.2437 1.58411 0
M  V30 15933 C 1522.61 2.39249 2.5092 0
M  V30 15934 C 1521.67 3.61613 2.31376 0
M  V30 15935 C 1520.9 3.97271 3.56386 0
M  V30 15936 O 1521.13 3.33552 4.62709 0
M  V30 15937 O 1520.06 4.90501 3.48844 0
M  V30 15938 H 1523.89 2.91687 0.845718 0
M  V30 15939 H 1521.47 1.45182 0.352518 0
M  V30 15940 H 1523.35 2.64184 3.28306 0
M  V30 15941 H 1522.03 1.52511 2.85521 0
M  V30 15942 H 1520.94 3.4186 1.51929 0
M  V30 15943 H 1522.27 4.48979 2.01689 0
M  V30 15944 N 1523.92 -0.412991 1.52093 0
M  V30 15945 C 1525.2 -1.17304 1.56522 0
M  V30 15946 C 1525.58 -2.0828 0.343926 0
M  V30 15947 O 1524.93 -2.18473 -0.669475 0
M  V30 15948 C 1525.14 -1.95371 2.89191 0
M  V30 15949 C 1526.48 -2.51571 3.42048 0
M  V30 15950 O 1527.51 -2.05555 2.90905 0
M  V30 15951 O 1526.37 -3.35563 4.31347 0
M  V30 15952 H 1523.46 -0.535386 0.63031 0
M  V30 15953 H 1526.01 -0.420084 1.64418 0
M  V30 15954 H 1524.78 -1.28701 3.69529 0
M  V30 15955 H 1524.4 -2.7768 2.84569 0
M  V30 15956 N 1525.4 -1.4265 -0.669982 0
M  V30 15957 C 1526.35 -1.46504 -1.7834 0
M  V30 15958 C 1527.32 -0.316478 -1.63057 0
M  V30 15959 O 1528.5 -0.521245 -1.83542 0
M  V30 15960 C 1525.64 -1.37784 -3.16401 0
M  V30 15961 C 1524.75 -2.62714 -3.42937 0
M  V30 15962 C 1523.89 -2.46101 -4.70752 0
M  V30 15963 C 1522.93 -3.66381 -4.90338 0
M  V30 15964 N 1522.07 -3.48681 -6.09398 0
M  V30 15965 H 1526.91 -2.41651 -1.74381 0
M  V30 15966 H 1524.44 -1.1997 -0.851215 0
M  V30 15967 H 1526.4 -1.30725 -3.9619 0
M  V30 15968 H 1525.03 -0.462291 -3.19473 0
M  V30 15969 H 1524.08 -2.8012 -2.57366 0
M  V30 15970 H 1525.39 -3.52108 -3.53301 0
M  V30 15971 H 1524.55 -2.36655 -5.58641 0
M  V30 15972 H 1523.29 -1.54204 -4.6268 0
M  V30 15973 H 1522.29 -3.76254 -4.00891 0
M  V30 15974 H 1523.52 -4.59265 -5.00253 0
M  V30 15975 H 1521.46 -2.59505 -6.02489 0
M  V30 15976 H 1521.38 -4.31666 -6.20645 0
M  V30 15977 H 1522.65 -3.43056 -6.99952 0
M  V30 15978 N 1526.88 0.906753 -1.28902 0
M  V30 15979 C 1528.11 1.69019 -1.19333 0
M  V30 15980 C 1528.52 1.87176 0.247065 0
M  V30 15981 O 1527.88 1.40376 1.16623 0
M  V30 15982 C 1527.93 3.07854 -1.89495 0
M  V30 15983 O 1527.65 2.90531 -3.27908 0
M  V30 15984 C 1529.15 4.02246 -1.86314 0
M  V30 15985 H 1526.37 0.528119 -0.413922 0
M  V30 15986 H 1528.91 1.13441 -1.70151 0
M  V30 15987 H 1527.07 3.60228 -1.42529 0
M  V30 15988 H 1527.48 3.78451 -3.63146 0
M  V30 15989 H 1528.96 4.97104 -2.39983 0
M  V30 15990 H 1529.43 4.31149 -0.837071 0
M  V30 15991 H 1530.04 3.55803 -2.3299 0
M  V30 15992 N 1528.36 1.11264 1.11616 0
M  V30 15993 C 1529.58 0.88306 1.87661 0
M  V30 15994 C 1530.01 -0.561586 1.79521 0
M  V30 15995 O 1529.36 -1.3964 1.1563 0
M  V30 15996 C 1529.41 1.34698 3.34498 0
M  V30 15997 O 1528.52 0.517512 4.0914 0
M  V30 15998 H 1527.86 0.318233 0.582772 0
M  V30 15999 H 1530.39 1.48164 1.41098 0
M  V30 16000 H 1530.4 1.34068 3.85344 0
M  V30 16001 H 1529.07 2.39896 3.39739 0
M  V30 16002 H 1527.65 0.589751 3.68207 0
M  V30 16003 N 1529.83 -1.29188 0.902679 0
M  V30 16004 C 1531.08 -1.95727 0.530909 0
M  V30 16005 C 1531.41 -1.70971 -0.921014 0
M  V30 16006 O 1530.69 -1.02436 -1.65339 0
M  V30 16007 C 1530.97 -3.50463 0.827523 0
M  V30 16008 C 1530.82 -3.84665 2.33137 0
M  V30 16009 C 1532.14 -4.38964 0.316053 0
M  V30 16010 H 1529.26 -0.71091 0.194361 0
M  V30 16011 H 1531.9 -1.52752 1.1299 0
M  V30 16012 H 1530.05 -3.87199 0.317732 0
M  V30 16013 H 1531.73 -3.57859 2.91093 0
M  V30 16014 H 1529.97 -3.32102 2.79088 0
M  V30 16015 H 1530.64 -4.92676 2.48947 0
M  V30 16016 H 1533.12 -4.09237 0.75262 0
M  V30 16017 H 1531.99 -5.4611 0.552769 0
M  V30 16018 H 1532.25 -4.35105 -0.783329 0
M  V30 16019 N 1531.31 -0.665475 -1.42861 0
M  V30 16020 C 1532.26 0.0411925 -2.27963 0
M  V30 16021 C 1533.25 0.782763 -1.40576 0
M  V30 16022 O 1534.44 0.66321 -1.64105 0
M  V30 16023 C 1531.57 0.998333 -3.28463 0
M  V30 16024 C 1530.65 0.254595 -4.23335 0
M  V30 16025 N 1531.04 -0.735508 -5.00424 0
M  V30 16026 C 1529.34 0.494345 -4.43252 0
M  V30 16027 C 1530.04 -1.17807 -5.69646 0
M  V30 16028 N 1529.02 -0.509865 -5.41204 0
M  V30 16029 H 1532.82 -0.718381 -2.84985 0
M  V30 16030 H 1530.33 -0.493763 -1.54712 0
M  V30 16031 H 1532.33 1.51949 -3.88223 0
M  V30 16032 H 1530.99 1.75783 -2.73002 0
M  V30 16033 H 1532 -1.1147 -5.05762 0
M  V30 16034 H 1528.68 1.23407 -3.98845 0
M  V30 16035 H 1530.07 -1.998 -6.41506 0
M  V30 16036 N 1532.79 1.52222 -0.408187 0
M  V30 16037 C 1534.04 2.01803 0.167905 0
M  V30 16038 C 1534.36 1.29385 1.45223 0
M  V30 16039 O 1533.62 0.388383 1.91807 0
M  V30 16040 C 1533.92 3.54384 0.463353 0
M  V30 16041 C 1533.58 4.44924 -0.731665 0
M  V30 16042 C 1532.25 4.69392 -1.05946 0
M  V30 16043 C 1534.6 4.9823 -1.53023 0
M  V30 16044 C 1531.93 5.44414 -2.18702 0
M  V30 16045 C 1534.28 5.74486 -2.64855 0
M  V30 16046 C 1532.94 5.97227 -2.98121 0
M  V30 16047 H 1532.21 0.738448 0.0614409 0
M  V30 16048 H 1534.86 1.83449 -0.549412 0
M  V30 16049 H 1533.16 3.70911 1.26223 0
M  V30 16050 H 1534.86 3.90256 0.922042 0
M  V30 16051 H 1531.45 4.26057 -0.4662 0
M  V30 16052 H 1535.64 4.79236 -1.29022 0
M  V30 16053 H 1530.89 5.60242 -2.44824 0
M  V30 16054 H 1535.07 6.14788 -3.27122 0
M  V30 16055 H 1532.69 6.5514 -3.8561 0
M  V30 16056 N 1534.27 0.138579 1.5699 0
M  V30 16057 C 1535.18 -0.817548 2.19894 0
M  V30 16058 C 1536.19 -1.27806 1.18075 0
M  V30 16059 O 1537.37 -1.33699 1.5062 0
M  V30 16060 C 1534.43 -2.04244 2.80152 0
M  V30 16061 C 1533.5 -1.63197 3.97071 0
M  V30 16062 C 1532.73 -2.79847 4.54446 0
M  V30 16063 O 1532.95 -3.95827 4.10703 0
M  V30 16064 O 1531.89 -2.55804 5.44838 0
M  V30 16065 H 1535.71 -0.312123 3.02092 0
M  V30 16066 H 1533.3 -0.0880281 1.4914 0
M  V30 16067 H 1535.18 -2.75945 3.18485 0
M  V30 16068 H 1533.85 -2.53755 2.00973 0
M  V30 16069 H 1532.76 -0.885448 3.6347 0
M  V30 16070 H 1534.09 -1.1841 4.77745 0
M  V30 16071 N 1535.75 -1.57019 -0.13521 0
M  V30 16072 C 1536.66 -2.02427 -1.18578 0
M  V30 16073 C 1537.67 -0.941738 -1.46312 0
M  V30 16074 O 1538.85 -1.25208 -1.57749 0
M  V30 16075 C 1535.91 -2.40577 -2.49647 0
M  V30 16076 C 1534.97 -3.62835 -2.29455 0
M  V30 16077 C 1534.21 -3.99156 -3.54274 0
M  V30 16078 O 1534.43 -3.36001 -4.60933 0
M  V30 16079 O 1533.36 -4.92345 -3.46238 0
M  V30 16080 H 1537.19 -2.92131 -0.830237 0
M  V30 16081 H 1534.77 -1.45366 -0.344814 0
M  V30 16082 H 1536.66 -2.65922 -3.269 0
M  V30 16083 H 1535.33 -1.54023 -2.84708 0
M  V30 16084 H 1534.24 -3.42661 -1.50114 0
M  V30 16085 H 1535.57 -4.50043 -1.99305 0
M  V30 16086 N 1537.22 0.404919 -1.52309 0
M  V30 16087 C 1538.5 1.16473 -1.57142 0
M  V30 16088 C 1538.88 2.08094 -0.354967 0
M  V30 16089 O 1538.23 2.18825 0.65788 0
M  V30 16090 C 1538.44 1.93834 -2.90223 0
M  V30 16091 C 1539.79 2.49754 -3.43378 0
M  V30 16092 O 1540.81 2.04009 -2.91991 0
M  V30 16093 O 1539.67 3.33271 -4.3312 0
M  V30 16094 H 1536.76 0.532036 -0.633141 0
M  V30 16095 H 1539.31 0.411359 -1.64639 0
M  V30 16096 H 1538.08 1.2674 -3.70206 0
M  V30 16097 H 1537.71 2.76167 -2.86038 0
M  V30 16098 N 1538.7 1.43003 0.662408 0
M  V30 16099 C 1539.95 1.44133 1.42239 0
M  V30 16100 C 1540.28 0.062249 1.944 0
M  V30 16101 O 1539.53 -0.931341 1.72118 0
M  V30 16102 C 1539.83 2.4231 2.62718 0
M  V30 16103 C 1539.5 3.88403 2.29028 0
M  V30 16104 C 1538.16 4.28194 2.19552 0
M  V30 16105 C 1540.51 4.80505 2.01902 0
M  V30 16106 C 1537.84 5.58052 1.81092 0
M  V30 16107 C 1540.19 6.10718 1.64943 0
M  V30 16108 C 1538.86 6.49496 1.53985 0
M  V30 16109 H 1538.13 0.527419 0.52049 0
M  V30 16110 H 1540.77 1.76024 0.75417 0
M  V30 16111 H 1539.08 2.03789 3.3463 0
M  V30 16112 H 1540.77 2.40442 3.20918 0
M  V30 16113 H 1537.36 3.56906 2.37311 0
M  V30 16114 H 1541.55 4.50542 2.08149 0
M  V30 16115 H 1536.8 5.86945 1.71187 0
M  V30 16116 H 1540.98 6.81564 1.42982 0
M  V30 16117 H 1538.61 7.50026 1.23954 0
M  V30 16118 N 1540.18 -0.899904 1.29381 0
M  V30 16119 C 1541.13 -1.9909 1.11119 0
M  V30 16120 C 1542.11 -1.60871 0.030676 0
M  V30 16121 O 1543.31 -1.75192 0.252365 0
M  V30 16122 C 1540.44 -3.34097 0.789552 0
M  V30 16123 C 1539.52 -3.78676 1.90959 0
M  V30 16124 N 1539.91 -3.95492 3.15309 0
M  V30 16125 C 1538.21 -4.0795 1.80258 0
M  V30 16126 C 1538.91 -4.33054 3.8838 0
M  V30 16127 N 1537.89 -4.42087 3.16322 0
M  V30 16128 H 1541.69 -2.1016 2.0545 0
M  V30 16129 H 1539.2 -1.08871 1.20503 0
M  V30 16130 H 1541.2 -4.11962 0.639765 0
M  V30 16131 H 1539.86 -3.24372 -0.14585 0
M  V30 16132 H 1540.87 -3.8103 3.50766 0
M  V30 16133 H 1537.55 -4.06783 0.939877 0
M  V30 16134 H 1538.94 -4.53912 4.95393 0
M  V30 16135 N 1541.66 -1.11854 -1.11024 0
M  V30 16136 C 1542.61 -0.780825 -2.17191 0
M  V30 16137 C 1543.58 0.249657 -1.64213 0
M  V30 16138 O 1544.76 0.125603 -1.90386 0
M  V30 16139 C 1541.9 -0.23491 -3.443 0
M  V30 16140 C 1541.01 -1.32247 -4.1126 0
M  V30 16141 C 1540.15 -0.736638 -5.26068 0
M  V30 16142 C 1539.19 -1.80375 -5.8492 0
M  V30 16143 N 1538.32 -1.23709 -6.91115 0
M  V30 16144 H 1543.16 -1.69031 -2.45423 0
M  V30 16145 H 1540.7 -0.844041 -1.20476 0
M  V30 16146 H 1542.66 0.0996064 -4.17081 0
M  V30 16147 H 1541.29 0.637752 -3.16437 0
M  V30 16148 H 1540.34 -1.77387 -3.36509 0
M  V30 16149 H 1541.65 -2.12965 -4.51051 0
M  V30 16150 H 1540.81 -0.352432 -6.05675 0
M  V30 16151 H 1539.55 0.101811 -4.87594 0
M  V30 16152 H 1538.55 -2.19721 -5.03987 0
M  V30 16153 H 1539.78 -2.64531 -6.2546 0
M  V30 16154 H 1537.72 -0.420357 -6.54652 0
M  V30 16155 H 1537.64 -1.98093 -7.29586 0
M  V30 16156 H 1538.91 -0.879912 -7.74518 0
M  V30 16157 N 1543.14 1.28707 -0.909517 0
M  V30 16158 C 1544.07 2.29845 -0.411552 0
M  V30 16159 C 1545.05 1.62001 0.518615 0
M  V30 16160 O 1546.23 1.89442 0.427252 0
M  V30 16161 C 1543.36 3.45501 0.353013 0
M  V30 16162 C 1542.32 4.25213 -0.487625 0
M  V30 16163 C 1541.64 5.33164 0.405026 0
M  V30 16164 C 1542.94 4.9237 -1.74268 0
M  V30 16165 H 1544.64 2.71746 -1.25676 0
M  V30 16166 H 1542.18 1.30639 -0.605759 0
M  V30 16167 H 1544.14 4.15338 0.712191 0
M  V30 16168 H 1542.86 3.02469 1.23209 0
M  V30 16169 H 1541.52 3.57098 -0.829265 0
M  V30 16170 H 1541.17 4.86375 1.28252 0
M  V30 16171 H 1540.87 5.87399 -0.153811 0
M  V30 16172 H 1542.39 6.0585 0.760179 0
M  V30 16173 H 1543.8 5.5459 -1.45266 0
M  V30 16174 H 1542.2 5.56581 -2.2436 0
M  V30 16175 H 1543.27 4.171 -2.47297 0
M  V30 16176 N 1544.61 0.673042 1.42506 0
M  V30 16177 C 1546.03 0.342429 1.55883 0
M  V30 16178 C 1546.23 -1.15229 1.65302 0
M  V30 16179 O 1545.29 -1.93767 1.61897 0
M  V30 16180 C 1546.6 1.0712 2.80973 0
M  V30 16181 C 1548.15 1.05336 2.94743 0
M  V30 16182 C 1548.62 1.76342 4.22691 0
M  V30 16183 N 1550.11 1.73201 4.29599 0
M  V30 16184 C 1550.85 2.25 5.27411 0
M  V30 16185 N 1550.34 2.85173 6.31386 0
M  V30 16186 N 1552.14 2.15385 5.19197 0
M  V30 16187 H 1544.29 1.64277 1.34636 0
M  V30 16188 H 1546.55 0.691984 0.647968 0
M  V30 16189 H 1546.26 2.1263 2.80145 0
M  V30 16190 H 1546.13 0.635313 3.71811 0
M  V30 16191 H 1548.52 0.00659669 2.95099 0
M  V30 16192 H 1548.6 1.52811 2.0514 0
M  V30 16193 H 1548.24 2.80985 4.23096 0
M  V30 16194 H 1548.17 1.26317 5.11225 0
M  V30 16195 H 1550.66 1.2931 3.55088 0
M  V30 16196 H 1550.98 3.22323 7.02373 0
M  V30 16197 H 1549.32 2.89242 6.31953 0
M  V30 16198 H 1552.51 1.68065 4.36889 0
M  V30 16199 H 1552.69 2.5606 5.95262 0
M  V30 16200 N 1546.09 -1.52004 0.416254 0
M  V30 16201 C 1547 -2.30947 -0.412403 0
M  V30 16202 C 1548.02 -1.38969 -1.04707 0
M  V30 16203 O 1549.19 -1.72044 -1.04703 0
M  V30 16204 C 1546.26 -3.12078 -1.51024 0
M  V30 16205 C 1545.32 -4.19805 -0.897892 0
M  V30 16206 C 1544.55 -4.97059 -1.94341 0
M  V30 16207 O 1544.78 -4.74695 -3.16261 0
M  V30 16208 O 1543.71 -5.81715 -1.54567 0
M  V30 16209 H 1547.54 -3.02817 0.231473 0
M  V30 16210 H 1545.12 -1.4832 0.179283 0
M  V30 16211 H 1547 -3.6258 -2.14741 0
M  V30 16212 H 1545.68 -2.42995 -2.13858 0
M  V30 16213 H 1544.59 -3.73433 -0.223236 0
M  V30 16214 H 1545.92 -4.91201 -0.31336 0
M  V30 16215 N 1547.57 -0.146903 -1.56914 0
M  V30 16216 C 1548.5 0.788924 -2.19769 0
M  V30 16217 C 1549.48 1.25712 -1.14589 0
M  V30 16218 O 1550.67 1.3147 -1.42931 0
M  V30 16219 C 1547.8 2.02824 -2.81921 0
M  V30 16220 C 1546.75 1.69683 -3.92927 0
M  V30 16221 C 1546.08 3.00877 -4.42015 0
M  V30 16222 C 1547.38 0.943559 -5.13706 0
M  V30 16223 H 1549.07 0.265076 -2.98224 0
M  V30 16224 H 1546.62 0.126057 -1.43447 0
M  V30 16225 H 1548.57 2.68773 -3.2456 0
M  V30 16226 H 1547.29 2.57581 -2.00797 0
M  V30 16227 H 1545.95 1.06112 -3.50907 0
M  V30 16228 H 1545.6 3.53625 -3.57713 0
M  V30 16229 H 1545.3 2.79466 -5.16888 0
M  V30 16230 H 1546.82 3.67897 -4.87323 0
M  V30 16231 H 1548.24 1.50513 -5.5319 0
M  V30 16232 H 1546.64 0.829387 -5.94341 0
M  V30 16233 H 1547.71 -0.0647228 -4.84857 0
M  V30 16234 N 1549.05 1.57088 0.126881 0
M  V30 16235 C 1549.98 1.96399 1.18153 0
M  V30 16236 C 1550.99 0.862288 1.38089 0
M  V30 16237 O 1552.18 1.14062 1.37303 0
M  V30 16238 C 1549.28 2.24026 2.54295 0
M  V30 16239 C 1548.46 3.5533 2.55068 0
M  V30 16240 C 1547.51 3.71261 3.72896 0
M  V30 16241 O 1546.54 4.43454 3.56844 0
M  V30 16242 N 1547.74 3.09435 4.91152 0
M  V30 16243 H 1550.51 2.87476 0.847217 0
M  V30 16244 H 1548.07 1.58781 0.316242 0
M  V30 16245 H 1550.06 2.31906 3.31665 0
M  V30 16246 H 1548.63 1.39114 2.79939 0
M  V30 16247 H 1547.85 3.58708 1.63468 0
M  V30 16248 H 1549.14 4.41649 2.52634 0
M  V30 16249 H 1548.54 2.50736 5.07097 0
M  V30 16250 H 1547.09 3.22848 5.66226 0
M  V30 16251 N 1550.53 -0.396836 1.52522 0
M  V30 16252 C 1551.75 -1.16404 1.71049 0
M  V30 16253 C 1552.17 -1.83946 0.425378 0
M  V30 16254 O 1551.53 -1.7237 -0.599561 0
M  V30 16255 C 1551.58 -2.21796 2.85463 0
M  V30 16256 O 1551.3 -1.57009 4.08998 0
M  V30 16257 C 1552.8 -3.11303 3.15603 0
M  V30 16258 H 1550.02 -0.349314 0.572905 0
M  V30 16259 H 1552.56 -0.465297 1.99136 0
M  V30 16260 H 1550.72 -2.87318 2.59859 0
M  V30 16261 H 1551.13 -2.26977 4.72844 0
M  V30 16262 H 1552.61 -3.81299 3.99143 0
M  V30 16263 H 1553.08 -3.7437 2.2966 0
M  V30 16264 H 1553.69 -2.51435 3.43017 0
M  V30 16265 N 1552.01 -1.43353 -0.654814 0
M  V30 16266 C 1553.23 -1.48322 -1.4425 0
M  V30 16267 C 1553.65 -0.100608 -1.88532 0
M  V30 16268 O 1553.01 0.888831 -1.59393 0
M  V30 16269 C 1553.06 -2.42769 -2.67853 0
M  V30 16270 O 1552.78 -3.75653 -2.25424 0
M  V30 16271 C 1554.28 -2.56964 -3.61226 0
M  V30 16272 H 1551.5 -0.503805 -0.443195 0
M  V30 16273 H 1554.04 -1.88078 -0.802916 0
M  V30 16274 H 1552.2 -2.06212 -3.27956 0
M  V30 16275 H 1552.61 -4.26427 -3.05386 0
M  V30 16276 H 1554.09 -3.27129 -4.44624 0
M  V30 16277 H 1554.56 -1.61404 -4.08467 0
M  V30 16278 H 1555.17 -2.94325 -3.07006 0
M  V30 16279 N 1553.48 0.89303 -1.29857 0
M  V30 16280 C 1554.39 2.03079 -1.17457 0
M  V30 16281 C 1555.41 1.73733 -0.0962941 0
M  V30 16282 O 1556.59 1.99005 -0.309667 0
M  V30 16283 C 1553.65 3.3589 -0.858991 0
M  V30 16284 C 1552.71 3.78711 -2.0218 0
M  V30 16285 C 1551.94 5.05184 -1.72118 0
M  V30 16286 O 1552.17 5.66738 -0.645276 0
M  V30 16287 O 1551.1 5.44218 -2.57119 0
M  V30 16288 H 1554.93 2.16465 -2.13017 0
M  V30 16289 H 1552.51 1.01774 -1.09373 0
M  V30 16290 H 1554.39 4.15582 -0.697852 0
M  V30 16291 H 1553.07 3.23631 0.0667756 0
M  V30 16292 H 1551.98 2.99758 -2.23822 0
M  V30 16293 H 1553.31 3.95563 -2.929 0
M  V30 16294 N 1554.96 1.12442 1.10429 0
M  V30 16295 C 1555.89 0.814745 2.18824 0
M  V30 16296 C 1556.87 -0.221476 1.68652 0
M  V30 16297 O 1558.06 -0.0826537 1.94024 0
M  V30 16298 C 1555.19 0.268632 3.4626 0
M  V30 16299 C 1554.14 1.23792 4.09707 0
M  V30 16300 C 1553.47 0.552034 5.31843 0
M  V30 16301 C 1554.77 2.5926 4.53411 0
M  V30 16302 H 1556.46 1.72111 2.44986 0
M  V30 16303 H 1554.01 0.828968 1.17746 0
M  V30 16304 H 1555.96 0.0397207 4.21381 0
M  V30 16305 H 1554.68 -0.673079 3.19589 0
M  V30 16306 H 1553.34 1.45264 3.36592 0
M  V30 16307 H 1552.99 -0.394821 5.01448 0
M  V30 16308 H 1552.69 1.19861 5.75245 0
M  V30 16309 H 1554.22 0.332161 6.09696 0
M  V30 16310 H 1555.63 2.41816 5.19806 0
M  V30 16311 H 1554.03 3.19997 5.07663 0
M  V30 16312 H 1555.1 3.17699 3.66327 0
M  V30 16313 N 1556.44 -1.28223 0.91633 0
M  V30 16314 C 1557.39 -2.27215 0.40521 0
M  V30 16315 C 1558.36 -1.57693 -0.521734 0
M  V30 16316 O 1559.54 -1.85577 -0.443369 0
M  V30 16317 C 1556.68 -3.43358 -0.346303 0
M  V30 16318 C 1555.79 -4.27622 0.613443 0
M  V30 16319 C 1554.93 -5.30969 -0.156775 0
M  V30 16320 C 1553.97 -6.06897 0.796418 0
M  V30 16321 N 1553.11 -7.02075 0.0595539 0
M  V30 16322 H 1557.95 -2.70312 1.2544 0
M  V30 16323 H 1555.48 -1.32933 0.629859 0
M  V30 16324 H 1557.44 -4.09492 -0.798231 0
M  V30 16325 H 1556.07 -3.01244 -1.15982 0
M  V30 16326 H 1555.12 -3.61508 1.1839 0
M  V30 16327 H 1556.43 -4.80397 1.34239 0
M  V30 16328 H 1555.59 -6.02999 -0.669146 0
M  V30 16329 H 1554.33 -4.78968 -0.918755 0
M  V30 16330 H 1553.33 -5.33716 1.32014 0
M  V30 16331 H 1554.56 -6.60987 1.558 0
M  V30 16332 H 1552.5 -6.5242 -0.684388 0
M  V30 16333 H 1552.42 -7.52484 0.728275 0
M  V30 16334 H 1553.69 -7.78299 -0.432538 0
M  V30 16335 N 1557.92 -0.68059 -1.42147 0
M  V30 16336 C 1558.85 0.0444079 -2.28157 0
M  V30 16337 C 1559.83 0.802929 -1.41392 0
M  V30 16338 O 1561.01 0.796856 -1.70829 0
M  V30 16339 C 1558.14 1.07013 -3.2135 0
M  V30 16340 C 1557.19 0.406524 -4.24558 0
M  V30 16341 S 1558.02 -0.840134 -5.28869 0
M  V30 16342 C 1559.17 0.184372 -6.25628 0
M  V30 16343 H 1559.41 -0.685124 -2.89298 0
M  V30 16344 H 1556.94 -0.470332 -1.47062 0
M  V30 16345 H 1558.9 1.65683 -3.75579 0
M  V30 16346 H 1557.56 1.77215 -2.59333 0
M  V30 16347 H 1556.75 1.18069 -4.89975 0
M  V30 16348 H 1556.35 -0.10672 -3.73848 0
M  V30 16349 H 1558.65 1.04232 -6.69434 0
M  V30 16350 H 1559.59 -0.43548 -7.0676 0
M  V30 16351 H 1560 0.532442 -5.61983 0
M  V30 16352 N 1559.4 1.51781 -0.424309 0
M  V30 16353 C 1560.64 2.03879 0.145828 0
M  V30 16354 C 1561 1.30226 1.41086 0
M  V30 16355 O 1562.2 1.72629 2.06041 0
M  V30 16356 C 1560.47 3.55454 0.372466 0
M  V30 16357 S 1562.03 4.29305 0.907876 0
M  V30 16358 H 1558.85 0.709986 0.0379529 0
M  V30 16359 H 1561.45 1.86676 -0.58072 0
M  V30 16360 H 1560.15 4.06633 -0.554778 0
M  V30 16361 H 1559.69 3.76928 1.12646 0
M  V30 16362 H 1561.7 4.4541 2.18687 0
M  V30 16363 N 1560.87 0.155222 1.56834 0
M  V30 16364 C 1562.1 -0.503763 2.01189 0
M  V30 16365 C 1562.52 -1.57086 1.03468 0
M  V30 16366 O 1561.88 -1.81296 0.0116895 0
M  V30 16367 C 1561.93 -1.07373 3.44243 0
M  V30 16368 O 1561.03 -2.18834 3.49551 0
M  V30 16369 H 1560.37 -0.122368 0.652627 0
M  V30 16370 H 1562.9 0.254377 2.03013 0
M  V30 16371 H 1562.91 -1.40036 3.83215 0
M  V30 16372 H 1561.59 -0.292339 4.14871 0
M  V30 16373 H 1560.17 -1.87337 3.22427 0
M  V30 16374 N 1562.35 -1.57153 -0.118549 0
M  V30 16375 C 1563.28 -2.03409 -1.1466 0
M  V30 16376 C 1564.26 -0.918636 -1.43161 0
M  V30 16377 O 1565.45 -1.18838 -1.53594 0
M  V30 16378 C 1562.58 -2.43879 -2.47265 0
M  V30 16379 C 1561.53 -3.58873 -2.33225 0
M  V30 16380 C 1560.86 -3.85244 -3.70798 0
M  V30 16381 C 1562.16 -4.90582 -1.79239 0
M  V30 16382 H 1563.85 -2.89545 -0.761862 0
M  V30 16383 H 1561.4 -1.39296 -0.365034 0
M  V30 16384 H 1563.35 -2.74844 -3.19435 0
M  V30 16385 H 1562.07 -1.54715 -2.8763 0
M  V30 16386 H 1560.73 -3.28119 -1.63504 0
M  V30 16387 H 1560.38 -2.93285 -4.08648 0
M  V30 16388 H 1560.08 -4.62649 -3.62257 0
M  V30 16389 H 1561.61 -4.18661 -4.44472 0
M  V30 16390 H 1563.02 -5.20079 -2.41227 0
M  V30 16391 H 1561.42 -5.71989 -1.81518 0
M  V30 16392 H 1562.49 -4.79065 -0.74999 0
M  V30 16393 N 1563.83 0.388742 -1.5273 0
M  V30 16394 C 1564.79 1.45759 -1.76881 0
M  V30 16395 C 1565.79 1.47565 -0.63884 0
M  V30 16396 O 1566.98 1.48731 -0.906895 0
M  V30 16397 C 1564.11 2.85045 -1.86981 0
M  V30 16398 H 1565.31 1.25629 -2.72319 0
M  V30 16399 H 1562.86 0.620497 -1.43456 0
M  V30 16400 H 1563.6 3.1052 -0.935296 0
M  V30 16401 H 1563.38 2.85136 -2.69147 0
M  V30 16402 H 1564.87 3.62492 -2.07338 0
M  V30 16403 N 1565.31 1.43698 0.647203 0
M  V30 16404 C 1566.55 1.45849 1.40911 0
M  V30 16405 C 1566.89 0.0846767 1.94015 0
M  V30 16406 O 1566.16 -0.89537 1.72665 0
M  V30 16407 C 1566.44 2.50579 2.58616 0
M  V30 16408 C 1566.3 3.97258 2.10965 0
M  V30 16409 C 1567.62 2.51981 3.60824 0
M  V30 16410 H 1564.74 0.531056 0.511027 0
M  V30 16411 H 1567.38 1.75283 0.733204 0
M  V30 16412 H 1565.53 2.25611 3.16278 0
M  V30 16413 H 1567.2 4.33304 1.58257 0
M  V30 16414 H 1565.44 4.09802 1.42284 0
M  V30 16415 H 1566.11 4.6616 2.95633 0
M  V30 16416 H 1568.59 2.7425 3.12932 0
M  V30 16417 H 1567.47 3.27191 4.40723 0
M  V30 16418 H 1567.73 1.55582 4.1382 0
M  V30 16419 N 1566.79 -0.886131 1.30328 0
M  V30 16420 C 1568.01 -1.67099 1.22007 0
M  V30 16421 C 1568.43 -1.87546 -0.217255 0
M  V30 16422 O 1567.79 -1.42213 -1.14375 0
M  V30 16423 C 1567.84 -3.048 1.94368 0
M  V30 16424 O 1567.56 -2.85277 3.32489 0
M  V30 16425 C 1569.06 -3.99231 1.9269 0
M  V30 16426 H 1566.28 -0.521467 0.422271 0
M  V30 16427 H 1568.82 -1.1072 1.71934 0
M  V30 16428 H 1566.98 -3.57915 1.48242 0
M  V30 16429 H 1567.39 -3.72626 3.69121 0
M  V30 16430 H 1568.87 -4.93223 2.47861 0
M  V30 16431 H 1569.34 -4.29763 0.905558 0
M  V30 16432 H 1569.95 -3.52051 2.38621 0
M  V30 16433 N 1568.26 -1.13026 -1.09832 0
M  V30 16434 C 1569.68 -0.902826 -1.6342 0
M  V30 16435 C 1570.03 0.561547 -1.87992 0
M  V30 16436 O 1569.15 1.42735 -1.62652 0
M  V30 16437 C 1569.75 -1.6324 -2.96881 0
M  V30 16438 C 1568.31 -1.45095 -3.4731 0
M  V30 16439 C 1567.45 -1.66431 -2.21802 0
M  V30 16440 H 1570.4 -1.28414 -0.932492 0
M  V30 16441 H 1570.42 -1.08706 -3.64641 0
M  V30 16442 H 1569.94 -2.69816 -2.78964 0
M  V30 16443 H 1568.04 -0.408031 -3.70359 0
M  V30 16444 H 1568.15 -2.21123 -4.25019 0
M  V30 16445 H 1566.51 -1.08885 -2.30252 0
M  V30 16446 H 1567.3 -2.74317 -2.0641 0
M  V30 16447 N 1569.74 1.27735 -0.923117 0
M  V30 16448 C 1570.69 2.28975 -0.409065 0
M  V30 16449 C 1571.68 1.61723 0.504194 0
M  V30 16450 O 1572.89 1.75848 0.384402 0
M  V30 16451 H 1569.27 0.743354 -0.113705 0
M  V30 16452 H 1571.24 2.69751 -1.27582 0
M  V30 16453 C 1569.99 3.46158 0.327099 0
M  V30 16454 H 1569.31 3.98117 -0.366444 0
M  V30 16455 H 1570.75 4.18968 0.65128 0
M  V30 16456 C 1569.21 2.99724 1.53842 0
M  V30 16457 O 1569.74 3.03001 2.6373 0
M  V30 16458 N 1567.94 2.55274 1.38865 0
M  V30 16459 H 1567.49 2.52807 0.494629 0
M  V30 16460 H 1567.45 2.24567 2.20039 0
M  V30 16461 N 1571.22 0.688118 1.41784 0
M  V30 16462 C 1572.47 0.215517 2.00948 0
M  V30 16463 C 1572.79 -1.18656 1.54744 0
M  V30 16464 O 1572.06 -1.79925 0.774831 0
M  V30 16465 H 1570.64 0.0766876 0.743053 0
M  V30 16466 H 1573.3 0.88761 1.73515 0
M  V30 16467 H 1572.4 0.227139 3.11272 0
M  V30 16468 N 1572.7 -1.51554 0.432352 0
M  V30 16469 C 1573.65 -2.24474 -0.39944 0
M  V30 16470 C 1574.63 -1.26505 -0.994242 0
M  V30 16471 O 1575.82 -1.51623 -0.913209 0
M  V30 16472 C 1572.95 -3.08659 -1.50282 0
M  V30 16473 C 1572.04 -4.14053 -0.917654 0
M  V30 16474 N 1572.43 -5.05763 -0.061209 0
M  V30 16475 C 1570.73 -4.29949 -1.18576 0
M  V30 16476 C 1571.43 -5.81087 0.266897 0
M  V30 16477 N 1570.41 -5.42484 -0.348218 0
M  V30 16478 H 1574.21 -2.92739 0.260928 0
M  V30 16479 H 1571.72 -1.60555 0.24413 0
M  V30 16480 H 1573.72 -3.59472 -2.11153 0
M  V30 16481 H 1572.38 -2.41936 -2.16557 0
M  V30 16482 H 1573.39 -5.17002 0.304858 0
M  V30 16483 H 1570.07 -3.74453 -1.84638 0
M  V30 16484 H 1571.46 -6.64956 0.963519 0
M  V30 16485 N 1574.18 -0.163538 -1.56749 0
M  V30 16486 C 1575.11 0.765571 -2.20593 0
M  V30 16487 C 1576.09 1.24489 -1.15916 0
M  V30 16488 O 1577.27 1.29946 -1.44318 0
M  V30 16489 C 1574.4 1.99823 -2.84057 0
M  V30 16490 C 1573.36 1.65506 -3.94705 0
M  V30 16491 C 1572.68 2.96172 -4.45181 0
M  V30 16492 C 1573.98 0.88902 -5.14678 0
M  V30 16493 H 1575.68 0.233431 -2.98489 0
M  V30 16494 H 1573.22 0.110836 -1.43573 0
M  V30 16495 H 1575.18 2.65316 -3.27392 0
M  V30 16496 H 1573.9 2.55437 -2.03517 0
M  V30 16497 H 1572.56 1.02384 -3.52013 0
M  V30 16498 H 1572.21 3.49811 -3.61443 0
M  V30 16499 H 1571.91 2.73968 -5.19823 0
M  V30 16500 H 1573.43 3.62708 -4.91198 0
M  V30 16501 H 1574.84 1.44637 -5.54755 0
M  V30 16502 H 1573.24 0.766302 -5.95187 0
M  V30 16503 H 1574.31 -0.116145 -4.84761 0
M  V30 16504 N 1575.65 1.57214 0.110213 0
M  V30 16505 C 1576.56 2.04287 1.15342 0
M  V30 16506 C 1577.58 0.964895 1.44796 0
M  V30 16507 O 1578.76 1.27702 1.55737 0
M  V30 16508 C 1575.82 2.44518 2.45788 0
M  V30 16509 C 1574.88 3.66439 2.23653 0
M  V30 16510 C 1574.12 4.04742 3.47879 0
M  V30 16511 O 1574.34 3.43291 4.5553 0
M  V30 16512 O 1573.27 4.97791 3.38361 0
M  V30 16513 H 1577.1 2.93415 0.783656 0
M  V30 16514 H 1574.68 1.45897 0.321644 0
M  V30 16515 H 1576.57 2.71089 3.22628 0
M  V30 16516 H 1575.24 1.58533 2.82221 0
M  V30 16517 H 1574.15 3.45006 1.44643 0
M  V30 16518 H 1575.48 4.53156 1.9212 0
M  V30 16519 N 1577.13 -0.380637 1.52934 0
M  V30 16520 C 1578.38 -1.12261 1.68053 0
M  V30 16521 C 1578.7 -1.90263 0.427191 0
M  V30 16522 O 1577.97 -1.87768 -0.558559 0
M  V30 16523 H 1576.55 -0.41742 0.619491 0
M  V30 16524 H 1579.21 -0.430906 1.90077 0
M  V30 16525 H 1578.31 -1.82085 2.53479 0
M  V30 16526 N 1578.61 -1.44039 -0.639573 0
M  V30 16527 C 1580.03 -1.2774 -0.956802 0
M  V30 16528 C 1580.23 -0.207018 -2.00434 0
M  V30 16529 O 1579.28 0.409954 -2.4915 0
M  V30 16530 C 1580.6 -2.64624 -1.42809 0
M  V30 16531 C 1582.14 -2.72266 -1.54402 0
M  V30 16532 C 1582.62 -4.09601 -2.04918 0
M  V30 16533 N 1584.11 -4.11735 -2.122 0
M  V30 16534 C 1584.84 -5.14842 -2.52439 0
M  V30 16535 N 1584.34 -6.28316 -2.91875 0
M  V30 16536 N 1586.13 -5.02196 -2.52499 0
M  V30 16537 H 1578.28 -2.12333 0.0533569 0
M  V30 16538 H 1580.55 -0.947208 -0.0387401 0
M  V30 16539 H 1580.25 -3.43983 -0.732728 0
M  V30 16540 H 1580.13 -2.90944 -2.40066 0
M  V30 16541 H 1582.51 -1.93232 -2.23037 0
M  V30 16542 H 1582.6 -2.49697 -0.555426 0
M  V30 16543 H 1582.24 -4.89108 -1.3688 0
M  V30 16544 H 1582.17 -4.29542 -3.04633 0
M  V30 16545 H 1584.66 -3.29833 -1.84441 0
M  V30 16546 H 1584.97 -7.0281 -3.21368 0
M  V30 16547 H 1583.32 -6.31767 -2.89647 0
M  V30 16548 H 1586.51 -4.12606 -2.21075 0
M  V30 16549 H 1586.68 -5.82677 -2.83535 0
M  V30 16550 N 1580.09 0.879207 -1.30796 0
M  V30 16551 C 1581.34 1.62828 -1.19715 0
M  V30 16552 C 1581.66 1.93429 0.247031 0
M  V30 16553 O 1580.93 1.57478 1.16522 0
M  V30 16554 H 1579.51 0.603607 -0.440077 0
M  V30 16555 H 1582.17 1.05309 -1.64 0
M  V30 16556 H 1581.27 2.57591 -1.76219 0
M  V30 16557 N 1581.57 1.13606 1.09231 0
M  V30 16558 C 1582.79 0.922667 1.85746 0
M  V30 16559 C 1583.22 -0.523381 1.80672 0
M  V30 16560 O 1582.58 -1.37156 1.18566 0
M  V30 16561 C 1582.62 1.41762 3.31566 0
M  V30 16562 O 1581.73 0.60418 4.0795 0
M  V30 16563 H 1581.07 0.330523 0.575891 0
M  V30 16564 H 1583.6 1.51123 1.37924 0
M  V30 16565 H 1583.61 1.42212 3.82413 0
M  V30 16566 H 1582.28 2.47048 3.34574 0
M  V30 16567 H 1580.86 0.667721 3.66873 0
M  V30 16568 N 1583.05 -1.27244 0.929878 0
M  V30 16569 C 1583.98 -2.29161 0.448066 0
M  V30 16570 C 1584.96 -1.62806 -0.492776 0
M  V30 16571 O 1586.14 -1.90098 -0.39706 0
M  V30 16572 C 1583.27 -3.46019 -0.298002 0
M  V30 16573 C 1582.23 -4.24384 0.555211 0
M  V30 16574 C 1581.55 -5.33741 -0.320153 0
M  V30 16575 C 1582.85 -4.89535 1.8208 0
M  V30 16576 H 1584.55 -2.69712 1.29983 0
M  V30 16577 H 1582.09 -1.29659 0.626466 0
M  V30 16578 H 1584.04 -4.16419 -0.646024 0
M  V30 16579 H 1582.77 -3.0439 -1.18381 0
M  V30 16580 H 1581.43 -3.55733 0.885971 0
M  V30 16581 H 1581.08 -4.88354 -1.20498 0
M  V30 16582 H 1580.78 -5.8708 0.247241 0
M  V30 16583 H 1582.3 -6.06982 -0.663697 0
M  V30 16584 H 1583.71 -5.52209 1.54071 0
M  V30 16585 H 1582.11 -5.52941 2.33186 0
M  V30 16586 H 1583.18 -4.13113 2.53901 0
M  V30 16587 N 1584.52 -0.695628 -1.41417 0
M  V30 16588 C 1585.75 -0.234163 -2.06074 0
M  V30 16589 C 1586.17 1.10796 -1.52006 0
M  V30 16590 O 1585.53 1.6936 -0.64705 0
M  V30 16591 C 1585.58 -0.202353 -3.60032 0
M  V30 16592 O 1584.68 0.822767 -4.04109 0
M  V30 16593 H 1584.02 -0.114395 -0.654072 0
M  V30 16594 H 1586.55 -0.950503 -1.81181 0
M  V30 16595 H 1586.56 -0.0332321 -4.07986 0
M  V30 16596 H 1585.24 -1.18188 -3.98754 0
M  V30 16597 H 1583.82 0.622995 -3.67659 0
M  V30 16598 N 1586 1.51322 -0.440383 0
M  V30 16599 C 1587.41 1.86687 0.0220272 0
M  V30 16600 C 1587.76 1.35734 1.41671 0
M  V30 16601 O 1586.89 0.709408 2.04442 0
M  V30 16602 C 1587.48 3.38768 0.0467477 0
M  V30 16603 C 1586.04 3.73657 0.45358 0
M  V30 16604 C 1585.19 2.7506 -0.351779 0
M  V30 16605 H 1588.14 1.44503 -0.65609 0
M  V30 16606 H 1588.16 3.70756 0.855589 0
M  V30 16607 H 1587.67 3.75823 -0.968451 0
M  V30 16608 H 1585.77 3.42193 1.47427 0
M  V30 16609 H 1585.89 4.78776 0.176262 0
M  V30 16610 H 1584.25 2.53988 0.190334 0
M  V30 16611 H 1585.03 3.14957 -1.36591 0
M  V30 16612 N 1587.48 0.171848 1.5666 0
M  V30 16613 C 1588.89 -0.34479 1.83489 0
M  V30 16614 C 1589.24 -1.63025 1.09167 0
M  V30 16615 O 1588.37 -2.13634 0.34488 0
M  V30 16616 C 1588.96 -0.63234 3.32847 0
M  V30 16617 C 1587.52 -1.09342 3.60169 0
M  V30 16618 C 1586.67 -0.129569 2.76997 0
M  V30 16619 H 1589.62 0.396101 1.53677 0
M  V30 16620 H 1589.64 -1.48434 3.50354 0
M  V30 16621 H 1589.15 0.303409 3.86912 0
M  V30 16622 H 1587.25 -2.04425 3.11514 0
M  V30 16623 H 1587.37 -1.00221 4.685 0
M  V30 16624 H 1585.73 -0.627033 2.46861 0
M  V30 16625 H 1586.51 0.800211 3.33844 0
M  V30 16626 N 1588.96 -1.5727 -0.101874 0
M  V30 16627 C 1589.89 -2.04614 -1.12496 0
M  V30 16628 C 1590.87 -0.933768 -1.42179 0
M  V30 16629 O 1592.05 -1.2046 -1.52325 0
M  V30 16630 C 1589.18 -2.46488 -2.44665 0
M  V30 16631 C 1588.14 -3.61327 -2.29406 0
M  V30 16632 C 1587.46 -3.89155 -3.66691 0
M  V30 16633 C 1588.76 -4.92455 -1.74026 0
M  V30 16634 H 1590.46 -2.90336 -0.731109 0
M  V30 16635 H 1588 -1.39676 -0.350239 0
M  V30 16636 H 1589.96 -2.78216 -3.16502 0
M  V30 16637 H 1588.68 -1.57757 -2.85972 0
M  V30 16638 H 1587.34 -3.29835 -1.60015 0
M  V30 16639 H 1586.99 -2.97603 -4.05514 0
M  V30 16640 H 1586.69 -4.66465 -3.57329 0
M  V30 16641 H 1588.21 -4.23352 -4.40006 0
M  V30 16642 H 1589.63 -5.22609 -2.35697 0
M  V30 16643 H 1588.02 -5.73882 -1.75441 0
M  V30 16644 H 1589.09 -4.79833 -0.699136 0
M  V30 16645 N 1590.44 0.372521 -1.53134 0
M  V30 16646 C 1591.68 1.11316 -1.68201 0
M  V30 16647 C 1592 1.90662 -0.436714 0
M  V30 16648 O 1593.2 2.67439 -0.467802 0
M  V30 16649 C 1591.66 2.02808 -2.97317 0
M  V30 16650 C 1591.27 1.28806 -4.29084 0
M  V30 16651 C 1593.01 2.76906 -3.2175 0
M  V30 16652 C 1590.92 2.19159 -5.49294 0
M  V30 16653 H 1589.85 0.419264 -0.626685 0
M  V30 16654 H 1592.5 0.374677 -1.79634 0
M  V30 16655 H 1590.88 2.80359 -2.79669 0
M  V30 16656 H 1592.06 0.563661 -4.5734 0
M  V30 16657 H 1590.37 0.665989 -4.1104 0
M  V30 16658 H 1592.97 3.44721 -4.08744 0
M  V30 16659 H 1593.31 3.41894 -2.37517 0
M  V30 16660 H 1593.84 2.06441 -3.4004 0
M  V30 16661 H 1590.58 1.5876 -6.35984 0
M  V30 16662 H 1590.1 2.89468 -5.25327 0
M  V30 16663 H 1591.78 2.78874 -5.83814 0
M  V30 16664 N 1591.91 1.44376 0.631925 0
M  V30 16665 C 1592.85 1.45649 1.75675 0
M  V30 16666 C 1593.82 0.31542 1.59511 0
M  V30 16667 O 1595.01 0.512271 1.81406 0
M  V30 16668 C 1592.14 1.2884 3.13238 0
M  V30 16669 C 1591.18 2.46499 3.48053 0
M  V30 16670 S 1592.01 4.0903 3.45622 0
M  V30 16671 C 1593.17 3.94643 4.85807 0
M  V30 16672 H 1593.4 2.40825 1.74328 0
M  V30 16673 H 1590.94 1.31664 0.806467 0
M  V30 16674 H 1592.89 1.19829 3.92621 0
M  V30 16675 H 1591.56 0.351754 3.12124 0
M  V30 16676 H 1590.75 2.30599 4.48152 0
M  V30 16677 H 1590.35 2.52245 2.76131 0
M  V30 16678 H 1592.64 3.58283 5.75012 0
M  V30 16679 H 1593.59 4.94569 5.06761 0
M  V30 16680 H 1593.99 3.26717 4.60343 0
M  V30 16681 N 1593.39 -0.872258 1.31261 0
M  V30 16682 C 1594.63 -1.63914 1.22113 0
M  V30 16683 C 1595 -1.9076 -0.217873 0
M  V30 16684 O 1596.2 -2.65293 -0.432812 0
M  V30 16685 C 1594.47 -2.93498 2.03945 0
M  V30 16686 S 1596.03 -3.84391 2.11634 0
M  V30 16687 H 1592.84 -0.562434 0.434959 0
M  V30 16688 H 1595.45 -1.03435 1.65896 0
M  V30 16689 H 1594.15 -2.71695 3.07587 0
M  V30 16690 H 1593.68 -3.59004 1.60872 0
M  V30 16691 H 1595.7 -4.8012 1.25298 0
M  V30 16692 N 1594.87 -1.14184 -1.08627 0
M  V30 16693 C 1596.1 -0.932104 -1.84714 0
M  V30 16694 C 1596.51 0.519335 -1.81517 0
M  V30 16695 O 1595.87 1.35978 -1.21722 0
M  V30 16696 C 1595.92 -1.42217 -3.3235 0
M  V30 16697 O 1595.64 -2.81674 -3.35547 0
M  V30 16698 C 1597.14 -1.25205 -4.25251 0
M  V30 16699 H 1594.36 -0.331854 -0.583193 0
M  V30 16700 H 1596.91 -1.51641 -1.37205 0
M  V30 16701 H 1595.06 -0.880679 -3.77257 0
M  V30 16702 H 1595.48 -3.03615 -4.2769 0
M  V30 16703 H 1596.95 -1.64358 -5.26963 0
M  V30 16704 H 1597.43 -0.194659 -4.38768 0
M  V30 16705 H 1598.03 -1.78198 -3.86168 0
M  V30 16706 N 1596.35 1.26749 -0.936613 0
M  V30 16707 C 1597.31 2.24794 -0.447243 0
M  V30 16708 C 1598.31 1.54688 0.439135 0
M  V30 16709 O 1599.5 1.72553 0.238957 0
M  V30 16710 C 1596.63 3.39036 0.355958 0
M  V30 16711 H 1597.83 2.696 -1.31361 0
M  V30 16712 H 1595.38 1.38825 -0.718143 0
M  V30 16713 H 1596.11 2.99625 1.24077 0
M  V30 16714 H 1595.9 3.91101 -0.279691 0
M  V30 16715 H 1597.39 4.11887 0.688421 0
M  V30 16716 N 1597.83 0.703118 1.41046 0
M  V30 16717 C 1598.79 0.0514476 2.29142 0
M  V30 16718 C 1599.79 -0.700223 1.44753 0
M  V30 16719 O 1600.98 -0.533985 1.65814 0
M  V30 16720 C 1598.11 -0.93735 3.2776 0
M  V30 16721 H 1599.3 0.827201 2.88266 0
M  V30 16722 H 1596.86 0.467045 1.49159 0
M  V30 16723 H 1597.59 -1.7406 2.7363 0
M  V30 16724 H 1597.38 -0.4014 3.9004 0
M  V30 16725 H 1598.87 -1.39088 3.93757 0
M  V30 16726 N 1599.3 -1.51086 0.448402 0
M  V30 16727 C 1600.53 -2.06593 -0.112695 0
M  V30 16728 C 1600.95 -1.31471 -1.35502 0
M  V30 16729 O 1600.3 -0.377406 -1.78555 0
M  V30 16730 C 1600.36 -3.59008 -0.423769 0
M  V30 16731 O 1600.08 -4.31293 0.769259 0
M  V30 16732 C 1601.58 -4.31064 -1.03433 0
M  V30 16733 H 1598.8 -0.670993 -0.00301626 0
M  V30 16734 H 1601.34 -1.94532 0.630667 0
M  V30 16735 H 1599.5 -3.70946 -1.11704 0
M  V30 16736 H 1599.91 -5.2211 0.500162 0
M  V30 16737 H 1601.38 -5.38756 -1.20191 0
M  V30 16738 H 1601.86 -3.90075 -2.01837 0
M  V30 16739 H 1602.47 -4.23598 -0.380115 0
M  V30 16740 N 1600.78 -0.180154 -1.56567 0
M  V30 16741 C 1602.19 0.335054 -1.83669 0
M  V30 16742 C 1602.54 1.62443 -1.1003 0
M  V30 16743 O 1601.67 2.13448 -0.356205 0
M  V30 16744 C 1602.26 0.61468 -3.33177 0
M  V30 16745 C 1600.82 1.0743 -3.60743 0
M  V30 16746 C 1599.97 0.114877 -2.77062 0
M  V30 16747 H 1602.92 -0.404245 -1.53465 0
M  V30 16748 H 1602.94 1.46574 -3.51136 0
M  V30 16749 H 1602.45 -0.323923 -3.86746 0
M  V30 16750 H 1600.56 2.0277 -3.12594 0
M  V30 16751 H 1600.67 0.977349 -4.69025 0
M  V30 16752 H 1599.03 0.613933 -2.4719 0
M  V30 16753 H 1599.82 -0.817904 -3.33414 0
M  V30 16754 N 1602.26 1.57322 0.0935319 0
M  V30 16755 C 1603.19 1.97423 1.14452 0
M  V30 16756 C 1604.17 0.84769 1.38755 0
M  V30 16757 O 1605.36 1.10812 1.52489 0
M  V30 16758 C 1602.48 2.29234 2.49338 0
M  V30 16759 C 1601.53 3.51672 2.41306 0
M  V30 16760 S 1602.36 5.0333 1.82808 0
M  V30 16761 C 1603.52 5.3832 3.19315 0
M  V30 16762 H 1603.75 2.86259 0.80268 0
M  V30 16763 H 1601.28 1.51432 0.301269 0
M  V30 16764 H 1603.24 2.48237 3.26938 0
M  V30 16765 H 1601.9 1.40966 2.80691 0
M  V30 16766 H 1601.1 3.71377 3.40727 0
M  V30 16767 H 1600.7 3.32187 1.71837 0
M  V30 16768 H 1602.99 5.35061 4.15591 0
M  V30 16769 H 1603.93 6.39327 3.04413 0
M  V30 16770 H 1604.34 4.6578 3.18919 0
M  V30 16771 N 1603.74 -0.364395 1.53329 0
M  V30 16772 C 1605.15 -0.941133 1.61244 0
M  V30 16773 C 1605.5 -1.90223 0.480596 0
M  V30 16774 O 1604.63 -2.12805 -0.392805 0
M  V30 16775 C 1605.22 -1.7137 2.92263 0
M  V30 16776 C 1603.78 -2.23976 3.02509 0
M  V30 16777 C 1602.93 -1.05253 2.56548 0
M  V30 16778 H 1605.88 -0.143153 1.58053 0
M  V30 16779 H 1605.9 -2.575 2.80132 0
M  V30 16780 H 1605.41 -1.01395 3.74621 0
M  V30 16781 H 1603.51 -2.9719 2.24741 0
M  V30 16782 H 1603.62 -2.51777 4.07609 0
M  V30 16783 H 1601.99 -1.41986 2.11452 0
M  V30 16784 H 1602.77 -0.367744 3.41325 0
M  V30 16785 N 1605.22 -1.44709 -0.62426 0
M  V30 16786 C 1606.44 -1.51348 -1.41072 0
M  V30 16787 C 1606.86 -0.140576 -1.88276 0
M  V30 16788 O 1606.22 0.854821 -1.61242 0
M  V30 16789 C 1606.27 -2.48396 -2.62643 0
M  V30 16790 O 1605.99 -3.8035 -2.17406 0
M  V30 16791 C 1607.49 -2.64568 -3.55694 0
M  V30 16792 H 1604.71 -0.513092 -0.432409 0
M  V30 16793 H 1607.25 -1.89739 -0.762841 0
M  V30 16794 H 1605.41 -2.13122 -3.23508 0
M  V30 16795 H 1605.82 -4.32809 -2.96272 0
M  V30 16796 H 1607.3 -3.36486 -4.37585 0
M  V30 16797 H 1607.77 -1.70031 -4.04952 0
M  V30 16798 H 1608.38 -3.00771 -3.00694 0
M  V30 16799 N 1606.69 0.865285 -1.31722 0
M  V30 16800 C 1608.11 1.43445 -1.195 0
M  V30 16801 C 1608.46 1.95212 0.196688 0
M  V30 16802 O 1607.58 1.86666 1.09475 0
M  V30 16803 C 1608.18 2.6074 -2.16333 0
M  V30 16804 C 1606.74 3.13688 -2.08031 0
M  V30 16805 C 1605.88 1.86409 -2.05298 0
M  V30 16806 H 1608.83 0.6734 -1.43705 0
M  V30 16807 H 1608.85 3.37575 -1.75566 0
M  V30 16808 H 1608.37 2.23033 -3.17612 0
M  V30 16809 H 1606.47 3.56004 -1.09962 0
M  V30 16810 H 1606.58 3.75653 -2.97358 0
M  V30 16811 H 1604.94 2.05567 -1.50381 0
M  V30 16812 H 1605.73 1.50933 -3.08341 0
M  V30 16813 N 1608.17 1.14759 1.0802 0
M  V30 16814 C 1609.12 0.838134 2.15044 0
M  V30 16815 C 1610.09 -0.206031 1.64817 0
M  V30 16816 O 1611.27 -0.0750812 1.90652 0
M  V30 16817 C 1608.41 0.326112 3.43556 0
M  V30 16818 C 1607.53 1.43104 4.07609 0
M  V30 16819 C 1606.66 0.875857 5.2393 0
M  V30 16820 C 1605.7 1.9582 5.79932 0
M  V30 16821 N 1604.84 1.41989 6.87593 0
M  V30 16822 H 1609.68 1.75478 2.40856 0
M  V30 16823 H 1607.22 0.875686 1.18195 0
M  V30 16824 H 1609.17 0.0110103 4.17199 0
M  V30 16825 H 1607.8 -0.55363 3.18017 0
M  V30 16826 H 1606.86 1.86247 3.31687 0
M  V30 16827 H 1608.17 2.24849 4.45246 0
M  V30 16828 H 1607.32 0.512893 6.04528 0
M  V30 16829 H 1606.06 0.0275017 4.87692 0
M  V30 16830 H 1605.07 2.33006 4.97984 0
M  V30 16831 H 1606.29 2.81021 6.18227 0
M  V30 16832 H 1604.24 0.593779 6.53307 0
M  V30 16833 H 1604.15 2.17367 7.24077 0
M  V30 16834 H 1605.42 1.08495 7.71913 0
M  V30 16835 N 1609.65 -1.26251 0.943322 0
M  V30 16836 C 1610.88 -1.98278 0.608341 0
M  V30 16837 C 1611.3 -1.69756 -0.810208 0
M  V30 16838 O 1610.66 -0.946846 -1.54611 0
M  V30 16839 C 1610.71 -3.50205 0.859591 0
M  V30 16840 O 1609.81 -4.12345 -0.0672371 0
M  V30 16841 H 1609.15 -0.621973 0.232477 0
M  V30 16842 H 1611.68 -1.60662 1.26684 0
M  V30 16843 H 1611.69 -4.00449 0.781341 0
M  V30 16844 H 1610.37 -3.70294 1.89354 0
M  V30 16845 H 1608.94 -3.72848 0.0622543 0
M  V30 16846 N 1611.13 -0.710588 -1.40671 0
M  V30 16847 C 1612.35 -0.256007 -2.05814 0
M  V30 16848 C 1612.78 1.09178 -1.53173 0
M  V30 16849 O 1612.14 1.68665 -0.664977 0
M  V30 16850 C 1612.19 -0.240528 -3.59797 0
M  V30 16851 O 1611.29 0.779859 -4.04959 0
M  V30 16852 H 1610.63 -0.121326 -0.652822 0
M  V30 16853 H 1613.16 -0.969667 -1.80163 0
M  V30 16854 H 1613.17 -0.0765027 -4.07928 0
M  V30 16855 H 1611.85 -1.22411 -3.97478 0
M  V30 16856 H 1610.42 0.583965 -3.68299 0
M  V30 16857 N 1612.61 1.50847 -0.456408 0
M  V30 16858 C 1614.02 1.867 0.00222532 0
M  V30 16859 C 1614.37 1.37229 1.40224 0
M  V30 16860 O 1613.49 0.731052 2.03678 0
M  V30 16861 C 1614.09 3.38798 0.0108142 0
M  V30 16862 C 1612.65 3.74117 0.413924 0
M  V30 16863 C 1611.8 2.74671 -0.380933 0
M  V30 16864 H 1614.75 1.43799 -0.671379 0
M  V30 16865 H 1614.77 3.71642 0.816217 0
M  V30 16866 H 1614.28 3.74774 -1.00826 0
M  V30 16867 H 1612.38 3.43737 1.43789 0
M  V30 16868 H 1612.49 4.78936 0.125471 0
M  V30 16869 H 1610.86 2.54175 0.163385 0
M  V30 16870 H 1611.64 3.1349 -1.39924 0
M  V30 16871 N 1614.09 0.188454 1.56469 0
M  V30 16872 C 1615.33 -0.452058 1.9739 0
M  V30 16873 C 1615.66 -1.62086 1.0751 0
M  V30 16874 O 1614.92 -1.95375 0.11278 0
M  V30 16875 C 1615.21 -0.960652 3.44247 0
M  V30 16876 C 1614.88 0.0940708 4.50802 0
M  V30 16877 C 1613.54 0.383899 4.79666 0
M  V30 16878 C 1615.89 0.80908 5.14882 0
M  V30 16879 C 1613.22 1.39383 5.69903 0
M  V30 16880 C 1615.57 1.80811 6.0621 0
M  V30 16881 C 1614.24 2.10521 6.33433 0
M  V30 16882 H 1613.51 -0.16542 0.7223 0
M  V30 16883 H 1616.16 0.284024 1.89382 0
M  V30 16884 H 1614.46 -1.77488 3.49292 0
M  V30 16885 H 1616.16 -1.46553 3.7326 0
M  V30 16886 H 1612.75 -0.141993 4.28365 0
M  V30 16887 H 1616.93 0.598391 4.92679 0
M  V30 16888 H 1612.19 1.63 5.89272 0
M  V30 16889 H 1616.36 2.36742 6.54925 0
M  V30 16890 H 1613.99 2.88924 7.03155 0
M  V30 16891 N 1615.56 -1.5737 -0.0851874 0
M  V30 16892 C 1616.49 -2.05796 -1.10319 0
M  V30 16893 C 1617.47 -0.948796 -1.4118 0
M  V30 16894 O 1618.66 -1.22069 -1.51039 0
M  V30 16895 C 1615.79 -2.49069 -2.42037 0
M  V30 16896 C 1614.74 -3.6374 -2.25561 0
M  V30 16897 C 1614.07 -3.93023 -3.62543 0
M  V30 16898 C 1615.37 -4.94274 -1.68793 0
M  V30 16899 H 1617.06 -2.91095 -0.700274 0
M  V30 16900 H 1614.61 -1.40039 -0.335405 0
M  V30 16901 H 1616.56 -2.81558 -3.13534 0
M  V30 16902 H 1615.29 -1.60781 -2.84283 0
M  V30 16903 H 1613.95 -3.31513 -1.56507 0
M  V30 16904 H 1613.59 -3.01887 -4.02335 0
M  V30 16905 H 1613.29 -4.70229 -3.52362 0
M  V30 16906 H 1614.82 -4.27995 -4.35491 0
M  V30 16907 H 1616.23 -5.25079 -2.30141 0
M  V30 16908 H 1614.63 -5.75711 -1.69344 0
M  V30 16909 H 1615.7 -4.80548 -0.648204 0
M  V30 16910 N 1617.04 0.356258 -1.53521 0
M  V30 16911 C 1618.32 1.11414 -1.60768 0
M  V30 16912 C 1618.7 2.0686 -0.420991 0
M  V30 16913 O 1618.05 2.20807 0.587929 0
M  V30 16914 C 1618.26 1.84503 -2.96243 0
M  V30 16915 C 1619.6 2.38703 -3.5115 0
M  V30 16916 O 1620.63 1.94617 -2.98333 0
M  V30 16917 O 1619.49 3.19322 -4.43504 0
M  V30 16918 H 1616.58 0.511623 -0.649747 0
M  V30 16919 H 1619.13 0.358772 -1.65864 0
M  V30 16920 H 1617.9 1.14898 -3.74051 0
M  V30 16921 H 1617.52 2.66927 -2.94679 0
M  V30 16922 N 1618.52 1.45038 0.616577 0
M  V30 16923 C 1619.48 1.52647 1.70973 0
M  V30 16924 C 1620.48 0.406902 1.55567 0
M  V30 16925 O 1621.67 0.670062 1.60797 0
M  V30 16926 C 1618.8 1.41438 3.10174 0
M  V30 16927 H 1620 2.50036 1.65596 0
M  V30 16928 H 1617.55 1.32346 0.831524 0
M  V30 16929 H 1618.29 0.451991 3.21135 0
M  V30 16930 H 1618.07 2.22634 3.22764 0
M  V30 16931 H 1619.56 1.49776 3.89817 0
M  V30 16932 N 1620 -0.858287 1.32179 0
M  V30 16933 C 1620.96 -1.94811 1.20753 0
M  V30 16934 C 1621.96 -1.60261 0.131526 0
M  V30 16935 O 1623.15 -1.69968 0.381662 0
M  V30 16936 C 1620.28 -3.29972 0.856229 0
M  V30 16937 H 1621.48 -2.06371 2.17603 0
M  V30 16938 H 1619.03 -1.04802 1.15958 0
M  V30 16939 H 1619.76 -3.24111 -0.11061 0
M  V30 16940 H 1619.55 -3.56424 1.63414 0
M  V30 16941 H 1621.04 -4.09856 0.800507 0
M  V30 16942 N 1621.48 -1.1533 -1.07409 0
M  V30 16943 C 1622.89 -0.937287 -1.61468 0
M  V30 16944 C 1623.24 0.521545 -1.89141 0
M  V30 16945 O 1622.36 1.39253 -1.65643 0
M  V30 16946 C 1622.96 -1.69501 -2.93351 0
M  V30 16947 C 1621.52 -1.52429 -3.44154 0
M  V30 16948 C 1620.66 -1.71098 -2.18222 0
M  V30 16949 H 1623.61 -1.30364 -0.905044 0
M  V30 16950 H 1623.64 -1.16416 -3.62253 0
M  V30 16951 H 1623.15 -2.75672 -2.73178 0
M  V30 16952 H 1621.25 -0.486498 -3.6941 0
M  V30 16953 H 1621.36 -2.30089 -4.20233 0
M  V30 16954 H 1619.73 -1.13745 -2.27891 0
M  V30 16955 H 1620.51 -2.78634 -2.00545 0
M  V30 16956 N 1622.95 1.25748 -0.950004 0
M  V30 16957 C 1624.18 1.97952 -0.618848 0
M  V30 16958 C 1624.6 1.70184 0.801194 0
M  V30 16959 O 1623.96 0.955032 1.54107 0
M  V30 16960 C 1624.01 3.49744 -0.878151 0
M  V30 16961 O 1623.11 4.12375 0.0453685 0
M  V30 16962 H 1622.45 0.620731 -0.235773 0
M  V30 16963 H 1624.98 1.59988 -1.27534 0
M  V30 16964 H 1624.99 4.00029 -0.802567 0
M  V30 16965 H 1623.67 3.69285 -1.91315 0
M  V30 16966 H 1622.25 3.7281 -0.0820265 0
M  V30 16967 N 1624.43 0.718038 1.40292 0
M  V30 16968 C 1625.36 0.0818367 2.33357 0
M  V30 16969 C 1626.34 -0.742854 1.53022 0
M  V30 16970 O 1627.53 -0.691281 1.8148 0
M  V30 16971 C 1624.66 -0.838843 3.37017 0
M  V30 16972 C 1623.61 -0.119589 4.27833 0
M  V30 16973 C 1622.94 -1.15615 5.22051 0
M  V30 16974 C 1624.24 1.02769 5.1209 0
M  V30 16975 H 1625.93 0.859167 2.86808 0
M  V30 16976 H 1623.48 0.414606 1.37902 0
M  V30 16977 H 1625.43 -1.29332 4.01063 0
M  V30 16978 H 1624.15 -1.6481 2.81967 0
M  V30 16979 H 1622.81 0.315088 3.65243 0
M  V30 16980 H 1622.46 -1.95852 4.63304 0
M  V30 16981 H 1622.16 -0.679767 5.83655 0
M  V30 16982 H 1623.69 -1.61068 5.88973 0
M  V30 16983 H 1625.1 0.652461 5.69575 0
M  V30 16984 H 1623.5 1.4326 5.82749 0
M  V30 16985 H 1624.57 1.85723 4.47923 0
M  V30 16986 N 1625.91 -1.50602 0.464402 0
M  V30 16987 C 1627.32 -1.86698 0.00767586 0
M  V30 16988 C 1627.67 -1.37971 -1.39494 0
M  V30 16989 O 1626.8 -0.741843 -2.03287 0
M  V30 16990 C 1627.39 -3.38799 0.00715323 0
M  V30 16991 C 1625.95 -3.74331 -0.394077 0
M  V30 16992 C 1625.1 -2.74465 0.395495 0
M  V30 16993 H 1628.05 -1.43441 0.678996 0
M  V30 16994 H 1628.07 -3.7207 -0.796497 0
M  V30 16995 H 1627.58 -3.74234 1.02812 0
M  V30 16996 H 1625.68 -3.44495 -1.41964 0
M  V30 16997 H 1625.8 -4.78995 -0.10007 0
M  V30 16998 H 1624.16 -2.54258 -0.149903 0
M  V30 16999 H 1624.94 -3.12744 1.41585 0
M  V30 17000 N 1627.39 -0.19675 -1.56367 0
M  V30 17001 C 1628.67 0.489288 -1.89381 0
M  V30 17002 C 1629.05 1.79529 -1.11052 0
M  V30 17003 O 1628.39 2.27513 -0.212117 0
M  V30 17004 C 1628.6 0.706459 -3.41775 0
M  V30 17005 C 1629.95 1.02508 -4.1204 0
M  V30 17006 O 1630.98 0.794123 -3.47235 0
M  V30 17007 O 1629.83 1.46207 -5.26579 0
M  V30 17008 H 1626.93 0.2553 -0.786607 0
M  V30 17009 H 1629.47 -0.237086 -1.68036 0
M  V30 17010 H 1628.25 -0.215762 -3.90705 0
M  V30 17011 H 1627.87 1.48523 -3.68818 0
M  V30 17012 N 1628.87 1.57413 0.0768405 0
M  V30 17013 C 1630.09 1.91607 0.793833 0
M  V30 17014 C 1630.52 0.792708 1.70581 0
M  V30 17015 O 1629.87 -0.25475 1.79501 0
M  V30 17016 C 1629.92 3.24736 1.56776 0
M  V30 17017 O 1629.03 3.13613 2.67807 0
M  V30 17018 H 1628.37 0.627572 0.216908 0
M  V30 17019 H 1630.9 2.04547 0.0465957 0
M  V30 17020 H 1630.91 3.58488 1.94809 0
M  V30 17021 H 1629.58 4.06077 0.898588 0
M  V30 17022 H 1628.16 2.91411 2.32668 0
M  V30 17023 N 1630.34 -0.348112 1.53707 0
M  V30 17024 C 1631.76 -0.690926 1.43869 0
M  V30 17025 C 1631.96 -1.92614 0.59177 0
M  V30 17026 O 1631.02 -2.5237 0.0809797 0
M  V30 17027 C 1632.33 -0.887824 2.87295 0
M  V30 17028 C 1633.88 -0.986731 2.9704 0
M  V30 17029 C 1634.35 -1.21598 4.41563 0
M  V30 17030 N 1635.84 -1.28328 4.45069 0
M  V30 17031 C 1636.58 -1.47809 5.54022 0
M  V30 17032 N 1636.07 -1.64492 6.72989 0
M  V30 17033 N 1637.87 -1.5032 5.41628 0
M  V30 17034 H 1630.02 0.464101 2.07268 0
M  V30 17035 H 1632.28 0.145678 0.93674 0
M  V30 17036 H 1631.99 -0.0517672 3.51662 0
M  V30 17037 H 1631.86 -1.79089 3.31974 0
M  V30 17038 H 1634.25 -1.81331 2.32815 0
M  V30 17039 H 1634.33 -0.0606692 2.55728 0
M  V30 17040 H 1633.97 -0.394341 5.06367 0
M  V30 17041 H 1633.9 -2.15553 4.80463 0
M  V30 17042 H 1636.39 -1.16979 3.59339 0
M  V30 17043 H 1636.71 -1.78979 7.51789 0
M  V30 17044 H 1635.05 -1.61636 6.75943 0
M  V30 17045 H 1638.24 -1.36865 4.47644 0
M  V30 17046 H 1638.42 -1.6516 6.26599 0
M  V30 17047 N 1631.82 -1.45363 -0.608876 0
M  V30 17048 C 1633.24 -1.29741 -0.929491 0
M  V30 17049 C 1633.44 -0.249486 -1.9995 0
M  V30 17050 O 1632.49 0.357014 -2.49963 0
M  V30 17051 C 1633.81 -2.67594 -1.37164 0
M  V30 17052 C 1635.36 -2.7548 -1.48592 0
M  V30 17053 C 1635.83 -4.13855 -1.96183 0
M  V30 17054 N 1637.32 -4.16143 -2.03419 0
M  V30 17055 C 1638.06 -5.20081 -2.41462 0
M  V30 17056 N 1637.55 -6.34365 -2.78482 0
M  V30 17057 N 1639.35 -5.07439 -2.4179 0
M  V30 17058 H 1631.5 -2.12172 0.0983838 0
M  V30 17059 H 1633.76 -0.947817 -0.0186397 0
M  V30 17060 H 1633.47 -3.45459 -0.6596 0
M  V30 17061 H 1633.34 -2.9597 -2.33841 0
M  V30 17062 H 1635.73 -1.97919 -2.18888 0
M  V30 17063 H 1635.81 -2.50819 -0.502337 0
M  V30 17064 H 1635.45 -4.91901 -1.26475 0
M  V30 17065 H 1635.38 -4.35907 -2.95453 0
M  V30 17066 H 1637.87 -3.33671 -1.77404 0
M  V30 17067 H 1638.19 -7.09469 -3.06388 0
M  V30 17068 H 1636.53 -6.37769 -2.76181 0
M  V30 17069 H 1639.72 -4.17202 -2.12273 0
M  V30 17070 H 1639.89 -5.8856 -2.71112 0
M  V30 17071 N 1633.3 0.851265 -1.32632 0
M  V30 17072 C 1634.55 1.60252 -1.23141 0
M  V30 17073 C 1634.87 1.93909 0.205946 0
M  V30 17074 O 1634.14 1.59914 1.13156 0
M  V30 17075 H 1632.72 0.594137 -0.452781 0
M  V30 17076 H 1635.38 1.01806 -1.66197 0
M  V30 17077 H 1634.48 2.53796 -1.81643 0
M  V30 17078 N 1634.78 1.15898 1.06796 0
M  V30 17079 C 1636 0.961859 1.83747 0
M  V30 17080 C 1636.43 -0.48494 1.81741 0
M  V30 17081 O 1635.79 -1.3461 1.21449 0
M  V30 17082 C 1635.83 1.48764 3.28484 0
M  V30 17083 O 1634.94 0.690576 4.06577 0
M  V30 17084 H 1634.28 0.342664 0.568751 0
M  V30 17085 H 1636.81 1.54015 1.34687 0
M  V30 17086 H 1636.82 1.50291 3.79311 0
M  V30 17087 H 1635.49 2.54089 3.29259 0
M  V30 17088 H 1634.07 0.74539 3.65374 0
M  V30 17089 N 1636.26 -1.25243 0.956659 0
M  V30 17090 C 1637.48 -1.97621 0.629337 0
M  V30 17091 C 1637.91 -1.70606 -0.792158 0
M  V30 17092 O 1637.26 -0.963192 -1.53598 0
M  V30 17093 C 1637.31 -3.49273 0.896687 0
M  V30 17094 O 1636.42 -4.12393 -0.0234986 0
M  V30 17095 H 1635.76 -0.619472 0.239061 0
M  V30 17096 H 1638.29 -1.5931 1.28381 0
M  V30 17097 H 1638.3 -3.99597 0.82377 0
M  V30 17098 H 1636.97 -3.68265 1.93271 0
M  V30 17099 H 1635.55 -3.72761 0.101796 0
M  V30 17100 N 1637.73 -0.725468 -1.3991 0
M  V30 17101 C 1638.96 -0.277821 -2.05531 0
M  V30 17102 C 1639.38 1.07547 -1.54322 0
M  V30 17103 O 1638.74 1.6795 -0.682828 0
M  V30 17104 C 1638.79 -0.278676 -3.59522 0
M  V30 17105 O 1637.89 0.736864 -4.05764 0
M  V30 17106 H 1637.24 -0.128243 -0.651498 0
M  V30 17107 H 1639.77 -0.988721 -1.79124 0
M  V30 17108 H 1639.78 -0.119765 -4.07824 0
M  V30 17109 H 1638.45 -1.2662 -3.96157 0
M  V30 17110 H 1637.03 0.544869 -3.68898 0
M  V30 17111 N 1639.21 1.50354 -0.472382 0
M  V30 17112 C 1640.44 2.07238 0.0820787 0
M  V30 17113 C 1640.86 1.3338 1.32632 0
M  V30 17114 O 1640.22 0.381857 1.77233 0
M  V30 17115 C 1640.27 3.58919 0.347746 0
M  V30 17116 O 1639.37 3.86888 1.42799 0
M  V30 17117 H 1638.71 0.663862 -0.0135544 0
M  V30 17118 H 1641.24 1.93533 -0.663795 0
M  V30 17119 H 1641.25 4.03743 0.587855 0
M  V30 17120 H 1639.93 4.12093 -0.56147 0
M  V30 17121 H 1638.51 3.53901 1.17509 0
M  V30 17122 N 1640.69 0.205039 1.56261 0
M  V30 17123 C 1641.94 -0.430245 1.97467 0
M  V30 17124 C 1642.26 -1.6146 1.09342 0
M  V30 17125 O 1641.53 -1.95188 0.166836 0
M  V30 17126 H 1640.11 -0.161945 0.729234 0
M  V30 17127 H 1642.77 0.294089 1.92668 0
M  V30 17128 H 1641.87 -0.767699 3.02511 0
M  V30 17129 N 1642.17 -1.57451 -0.0684915 0
M  V30 17130 C 1643.45 -1.78483 -0.800209 0
M  V30 17131 C 1643.83 -0.793438 -1.95621 0
M  V30 17132 O 1643.17 0.172756 -2.27846 0
M  V30 17133 C 1643.38 -3.25069 -1.27008 0
M  V30 17134 C 1644.73 -3.8899 -1.70212 0
M  V30 17135 O 1645.76 -3.2898 -1.36566 0
M  V30 17136 O 1644.62 -4.94569 -2.32515 0
M  V30 17137 H 1641.71 -0.732598 -0.383704 0
M  V30 17138 H 1644.26 -1.69631 -0.0483117 0
M  V30 17139 H 1643.03 -3.88784 -0.443067 0
M  V30 17140 H 1642.65 -3.38657 -2.08319 0
M  V30 17141 N 1643.65 0.339955 -1.5389 0
M  V30 17142 C 1645.06 0.915362 -1.62721 0
M  V30 17143 C 1645.41 1.89434 -0.510798 0
M  V30 17144 O 1644.53 2.13403 0.3589 0
M  V30 17145 C 1645.13 1.66699 -2.94953 0
M  V30 17146 C 1643.69 2.19135 -3.06034 0
M  V30 17147 C 1642.84 1.01159 -2.5819 0
M  V30 17148 H 1645.79 0.11799 -1.58261 0
M  V30 17149 H 1645.81 2.53011 -2.84193 0
M  V30 17150 H 1645.32 0.954219 -3.76186 0
M  V30 17151 H 1643.42 2.93577 -2.29441 0
M  V30 17152 H 1643.53 2.4526 -4.11563 0
M  V30 17153 H 1641.9 1.38604 -2.13685 0
M  V30 17154 H 1642.68 0.313396 -3.41867 0
M  V30 17155 N 1645.13 1.45684 0.601159 0
M  V30 17156 C 1646.54 1.44423 1.18317 0
M  V30 17157 C 1646.89 0.17524 1.95416 0
M  V30 17158 O 1646.01 -0.722816 2.03971 0
M  V30 17159 C 1646.61 2.61651 2.1523 0
M  V30 17160 C 1645.17 2.6349 2.68793 0
M  V30 17161 C 1644.31 2.36787 1.44317 0
M  V30 17162 H 1647.26 1.53831 0.390108 0
M  V30 17163 H 1647.29 2.36117 2.98377 0
M  V30 17164 H 1646.8 3.53995 1.59088 0
M  V30 17165 H 1644.9 1.7517 3.28856 0
M  V30 17166 H 1645.01 3.62906 3.12787 0
M  V30 17167 H 1643.38 1.86472 1.73494 0
M  V30 17168 H 1644.16 3.31284 0.900327 0
M  V30 17169 N 1646.6 -0.84422 1.33082 0
M  V30 17170 C 1647.53 -1.96899 1.25511 0
M  V30 17171 C 1648.51 -1.69549 0.13677 0
M  V30 17172 O 1649.7 -1.9145 0.325667 0
M  V30 17173 C 1646.83 -3.32947 0.988094 0
M  V30 17174 C 1645.78 -3.7468 2.06879 0
M  V30 17175 C 1645.11 -5.08475 1.65401 0
M  V30 17176 C 1646.41 -3.89033 3.48498 0
M  V30 17177 H 1648.1 -2.03491 2.19617 0
M  V30 17178 H 1645.65 -0.977659 1.05725 0
M  V30 17179 H 1647.6 -4.11198 0.921645 0
M  V30 17180 H 1646.33 -3.26598 0.0114067 0
M  V30 17181 H 1644.99 -2.98689 2.12557 0
M  V30 17182 H 1644.63 -4.98592 0.66449 0
M  V30 17183 H 1644.33 -5.37368 2.37717 0
M  V30 17184 H 1645.86 -5.89207 1.60212 0
M  V30 17185 H 1647.27 -4.57609 3.4535 0
M  V30 17186 H 1645.67 -4.29357 4.19253 0
M  V30 17187 H 1646.74 -2.91639 3.87395 0
M  V30 17188 N 1648.08 -1.16463 -1.0618 0
M  V30 17189 C 1649.33 -0.944975 -1.78647 0
M  V30 17190 C 1649.65 0.528486 -1.87702 0
M  V30 17191 O 1648.92 1.38391 -1.38653 0
M  V30 17192 H 1647.5 -0.346637 -0.661704 0
M  V30 17193 H 1650.16 -1.46752 -1.28257 0
M  V30 17194 H 1649.26 -1.36469 -2.80683 0
M  V30 17195 N 1649.56 1.24734 -0.963288 0
M  V30 17196 C 1650.84 1.88004 -0.539809 0
M  V30 17197 C 1651.22 1.86814 0.983035 0
M  V30 17198 O 1650.56 1.33769 1.85251 0
M  V30 17199 C 1650.77 3.30326 -1.1263 0
M  V30 17200 C 1652.12 4.07039 -1.20848 0
M  V30 17201 O 1653.15 3.3948 -1.07849 0
M  V30 17202 O 1652.01 5.27906 -1.41342 0
M  V30 17203 H 1649.1 0.807318 -0.17935 0
M  V30 17204 H 1651.65 1.3274 -1.05727 0
M  V30 17205 H 1650.42 3.25668 -2.16925 0
M  V30 17206 H 1650.04 3.93159 -0.592614 0
M  V30 17207 N 1651.04 0.732878 1.39523 0
M  V30 17208 C 1651.97 0.0519358 2.29141 0
M  V30 17209 C 1652.98 -0.705687 1.4671 0
M  V30 17210 O 1654.17 -0.550202 1.69809 0
M  V30 17211 C 1651.27 -0.950691 3.25292 0
M  V30 17212 C 1650.44 -0.255028 4.36656 0
M  V30 17213 C 1649.5 -1.16546 5.13131 0
M  V30 17214 O 1648.53 -0.643742 5.65548 0
M  V30 17215 N 1649.73 -2.49534 5.24131 0
M  V30 17216 H 1652.5 0.8215 2.88221 0
M  V30 17217 H 1650.06 0.581924 1.5108 0
M  V30 17218 H 1652.05 -1.56232 3.73328 0
M  V30 17219 H 1650.62 -1.62148 2.67258 0
M  V30 17220 H 1649.84 0.537045 3.90525 0
M  V30 17221 H 1651.13 0.227162 5.08293 0
M  V30 17222 H 1650.53 -2.944 4.83058 0
M  V30 17223 H 1649.08 -3.05798 5.75613 0
M  V30 17224 N 1652.52 -1.50101 0.480349 0
M  V30 17225 C 1653.46 -2.28722 -0.308993 0
M  V30 17226 C 1654.43 -1.34186 -0.978948 0
M  V30 17227 O 1655.62 -1.6313 -0.989602 0
M  V30 17228 C 1652.76 -3.16322 -1.37966 0
M  V30 17229 C 1651.87 -4.25898 -0.723552 0
M  V30 17230 C 1651.01 -5.00741 -1.7729 0
M  V30 17231 C 1650.04 -6.0218 -1.09754 0
M  V30 17232 N 1649.18 -6.70266 -2.09015 0
M  V30 17233 H 1654.02 -2.95722 0.367739 0
M  V30 17234 H 1651.56 -1.45826 0.193197 0
M  V30 17235 H 1653.52 -3.65469 -2.01217 0
M  V30 17236 H 1652.15 -2.51349 -2.02543 0
M  V30 17237 H 1651.2 -3.80394 0.0217507 0
M  V30 17238 H 1652.51 -4.98435 -0.190905 0
M  V30 17239 H 1651.66 -5.53653 -2.48098 0
M  V30 17240 H 1650.4 -4.27931 -2.33937 0
M  V30 17241 H 1649.41 -5.48519 -0.375123 0
M  V30 17242 H 1650.63 -6.76967 -0.537841 0
M  V30 17243 H 1648.58 -6.00242 -2.64662 0
M  V30 17244 H 1648.5 -7.3871 -1.6076 0
M  V30 17245 H 1649.76 -7.27792 -2.79175 0
M  V30 17246 N 1653.99 -0.213323 -1.5615 0
M  V30 17247 C 1655.4 0.29602 -1.84338 0
M  V30 17248 C 1655.76 1.60073 -1.13451 0
M  V30 17249 O 1654.88 2.12645 -0.4014 0
M  V30 17250 C 1655.48 0.54387 -3.34406 0
M  V30 17251 C 1654.03 0.997539 -3.62941 0
M  V30 17252 C 1653.18 0.0560823 -2.77243 0
M  V30 17253 H 1656.13 -0.436707 -1.52573 0
M  V30 17254 H 1656.15 1.39093 -3.54166 0
M  V30 17255 H 1655.67 -0.405885 -3.85972 0
M  V30 17256 H 1653.77 1.96094 -3.16825 0
M  V30 17257 H 1653.88 0.877642 -4.70993 0
M  V30 17258 H 1652.24 0.561362 -2.48437 0
M  V30 17259 H 1653.03 -0.888442 -3.31605 0
M  V30 17260 N 1655.47 1.57485 0.0601405 0
M  V30 17261 C 1656.88 1.76433 0.610583 0
M  V30 17262 C 1657.23 0.840353 1.77292 0
M  V30 17263 O 1656.36 0.0273238 2.16383 0
M  V30 17264 C 1656.95 3.19947 1.11441 0
M  V30 17265 C 1655.51 3.402 1.61062 0
M  V30 17266 C 1654.66 2.72089 0.535055 0
M  V30 17267 H 1657.61 1.57829 -0.166062 0
M  V30 17268 H 1657.63 3.24749 1.98288 0
M  V30 17269 H 1657.14 3.87172 0.268233 0
M  V30 17270 H 1655.25 2.78106 2.47967 0
M  V30 17271 H 1655.36 4.48696 1.67954 0
M  V30 17272 H 1653.72 2.34972 0.982855 0
M  V30 17273 H 1654.51 3.41977 -0.301135 0
M  V30 17274 N 1656.95 -0.331789 1.54068 0
M  V30 17275 C 1657.91 -1.39094 1.82169 0
M  V30 17276 C 1658.91 -1.45092 0.693168 0
M  V30 17277 O 1660.1 -1.45263 0.961471 0
M  V30 17278 C 1657.24 -2.77909 1.97432 0
M  V30 17279 H 1658.43 -1.15435 2.76794 0
M  V30 17280 H 1655.98 -0.566827 1.4566 0
M  V30 17281 H 1656.72 -3.06835 1.0499 0
M  V30 17282 H 1656.5 -2.7495 2.79544 0
M  V30 17283 H 1657.99 -3.54548 2.20649 0
M  V30 17284 N 1658.43 -1.46001 -0.593424 0
M  V30 17285 C 1659.65 -1.54541 -1.38318 0
M  V30 17286 C 1660.08 -0.183555 -1.87202 0
M  V30 17287 O 1659.44 0.834407 -1.60958 0
M  V30 17288 C 1659.48 -2.54559 -2.55405 0
M  V30 17289 O 1658.59 -2.07321 -3.56499 0
M  V30 17290 H 1657.93 -0.520434 -0.412364 0
M  V30 17291 H 1660.46 -1.9148 -0.720862 0
M  V30 17292 H 1660.47 -2.73823 -3.02465 0
M  V30 17293 H 1659.14 -3.53461 -2.19176 0
M  V30 17294 H 1657.72 -1.97997 -3.15993 0
M  V30 17295 N 1659.91 0.83715 -1.33527 0
M  V30 17296 C 1660.84 1.96231 -1.26553 0
M  V30 17297 C 1661.82 1.69474 -0.14576 0
M  V30 17298 O 1663 1.91274 -0.335815 0
M  V30 17299 C 1660.13 3.32419 -1.00574 0
M  V30 17300 C 1659.09 3.73577 -2.08864 0
M  V30 17301 C 1658.41 5.07591 -1.68095 0
M  V30 17302 C 1659.71 3.87179 -3.50556 0
M  V30 17303 H 1661.41 2.02324 -2.20693 0
M  V30 17304 H 1658.95 0.972038 -1.06242 0
M  V30 17305 H 1660.91 4.10703 -0.943439 0
M  V30 17306 H 1659.63 3.26587 -0.0287268 0
M  V30 17307 H 1658.29 2.97557 -2.14139 0
M  V30 17308 H 1657.94 4.98232 -0.690922 0
M  V30 17309 H 1657.64 5.361 -2.40563 0
M  V30 17310 H 1659.16 5.88349 -1.63334 0
M  V30 17311 H 1660.57 4.55771 -3.47772 0
M  V30 17312 H 1658.97 4.27127 -4.21524 0
M  V30 17313 H 1660.04 2.8958 -3.88936 0
M  V30 17314 N 1661.38 1.17024 1.05561 0
M  V30 17315 C 1662.8 0.916718 1.30646 0
M  V30 17316 C 1663 -0.426248 1.9694 0
M  V30 17317 O 1662.06 -1.16408 2.24065 0
M  V30 17318 C 1663.37 2.07126 2.17989 0
M  V30 17319 C 1664.92 2.10787 2.31383 0
M  V30 17320 C 1665.39 3.25616 3.22084 0
M  V30 17321 N 1666.88 3.25381 3.29669 0
M  V30 17322 C 1667.62 4.10873 3.99964 0
M  V30 17323 N 1667.11 5.06468 4.72718 0
M  V30 17324 N 1668.91 3.98835 3.9609 0
M  V30 17325 H 1661.06 2.03474 0.609284 0
M  V30 17326 H 1663.32 0.888247 0.331243 0
M  V30 17327 H 1663.03 3.04168 1.76564 0
M  V30 17328 H 1662.9 2.01912 3.18609 0
M  V30 17329 H 1665.29 1.14333 2.72051 0
M  V30 17330 H 1665.37 2.20064 1.30405 0
M  V30 17331 H 1665.01 4.22333 2.8213 0
M  V30 17332 H 1664.94 3.13575 4.23058 0
M  V30 17333 H 1667.43 2.56164 2.77828 0
M  V30 17334 H 1667.75 5.68105 5.23905 0
M  V30 17335 H 1666.09 5.10441 4.71673 0
M  V30 17336 H 1669.28 3.23451 3.38375 0
M  V30 17337 H 1669.46 4.65682 4.50604 0
M  V30 17338 N 1662.86 -1.24221 0.969889 0
M  V30 17339 C 1664.09 -1.96943 0.650262 0
M  V30 17340 C 1664.51 -1.71437 -0.774018 0
M  V30 17341 O 1663.87 -0.979428 -1.52568 0
M  V30 17342 C 1663.92 -3.48303 0.933682 0
M  V30 17343 O 1663.02 -4.12395 0.0202425 0
M  V30 17344 H 1662.36 -0.616902 0.245618 0
M  V30 17345 H 1664.89 -1.57939 1.30063 0
M  V30 17346 H 1664.9 -3.98701 0.866106 0
M  V30 17347 H 1663.58 -3.66194 1.97166 0
M  V30 17348 H 1662.16 -3.72632 0.141327 0
M  V30 17349 N 1664.34 -0.740267 -1.39132 0
M  V30 17350 C 1665.57 -0.299605 -2.05225 0
M  V30 17351 C 1665.99 1.05904 -1.55454 0
M  V30 17352 O 1665.35 1.67216 -0.700603 0
M  V30 17353 C 1665.4 -0.316792 -3.59206 0
M  V30 17354 O 1664.5 0.693786 -4.06522 0
M  V30 17355 H 1663.84 -0.135146 -0.650101 0
M  V30 17356 H 1666.37 -1.00766 -1.78065 0
M  V30 17357 H 1666.38 -0.163013 -4.07674 0
M  V30 17358 H 1665.06 -1.30814 -3.94792 0
M  V30 17359 H 1663.63 0.505712 -3.69455 0
M  V30 17360 N 1665.82 1.49844 -0.488302 0
M  V30 17361 C 1667.23 1.86663 -0.037377 0
M  V30 17362 C 1667.58 1.40172 1.37281 0
M  V30 17363 O 1666.71 0.77409 2.02081 0
M  V30 17364 C 1667.3 3.38745 -0.0610523 0
M  V30 17365 C 1665.86 3.74911 0.334475 0
M  V30 17366 C 1665.01 2.73801 -0.439109 0
M  V30 17367 H 1667.96 1.42343 -0.70173 0
M  V30 17368 H 1667.98 3.7329 0.737203 0
M  V30 17369 H 1667.49 3.72551 -1.08753 0
M  V30 17370 H 1665.59 3.4671 1.36466 0
M  V30 17371 H 1665.7 4.79094 0.0238536 0
M  V30 17372 H 1664.07 2.54465 0.109433 0
M  V30 17373 H 1664.85 3.10452 -1.46542 0
M  V30 17374 N 1667.3 0.221601 1.56034 0
M  V30 17375 C 1668.54 -0.411933 2.00206 0
M  V30 17376 C 1668.9 -1.56945 1.10599 0
M  V30 17377 O 1670.1 -2.269 1.44118 0
M  V30 17378 C 1668.37 -0.835387 3.475 0
M  V30 17379 S 1669.93 -1.46302 4.13692 0
M  V30 17380 H 1666.75 -0.130732 0.698878 0
M  V30 17381 H 1669.35 0.330901 1.92679 0
M  V30 17382 H 1668.06 0.0167339 4.10397 0
M  V30 17383 H 1667.59 -1.61103 3.589 0
M  V30 17384 H 1669.6 -2.75209 4.12885 0
M  V30 17385 N 1668.77 -1.57515 -0.0517878 0
M  V30 17386 C 1669.74 -2.04049 -1.04387 0
M  V30 17387 C 1670.74 -0.940745 -1.30409 0
M  V30 17388 O 1671.93 -1.20505 -1.25794 0
M  V30 17389 C 1669.06 -2.43816 -2.38257 0
M  V30 17390 H 1670.25 -2.9294 -0.642367 0
M  V30 17391 H 1667.81 -1.53432 -0.29805 0
M  V30 17392 H 1668.54 -1.58013 -2.832 0
M  V30 17393 H 1668.33 -3.24086 -2.20705 0
M  V30 17394 H 1669.82 -2.80325 -3.09528 0
M  V30 17395 N 1670.25 0.323614 -1.54242 0
M  V30 17396 C 1671.66 0.898051 -1.63682 0
M  V30 17397 C 1672.02 1.88882 -0.530861 0
M  V30 17398 O 1671.14 2.13772 0.336245 0
M  V30 17399 C 1671.74 1.63561 -2.96704 0
M  V30 17400 C 1670.29 2.15877 -3.08341 0
M  V30 17401 C 1669.44 0.984145 -2.59249 0
M  V30 17402 H 1672.39 0.101198 -1.58377 0
M  V30 17403 H 1672.41 2.49982 -2.86861 0
M  V30 17404 H 1671.93 0.914265 -3.77177 0
M  V30 17405 H 1670.03 2.91127 -2.32542 0
M  V30 17406 H 1670.14 2.40881 -4.14141 0
M  V30 17407 H 1668.5 1.3633 -2.15143 0
M  V30 17408 H 1669.29 0.277118 -3.4218 0
M  V30 17409 N 1671.73 1.46313 0.585673 0
M  V30 17410 C 1672.98 1.52682 1.34387 0
M  V30 17411 C 1673.33 0.174924 1.91603 0
M  V30 17412 O 1672.63 -0.816026 1.73354 0
M  V30 17413 C 1672.82 2.55895 2.49504 0
M  V30 17414 C 1672.65 4.00988 2.03564 0
M  V30 17415 C 1671.42 4.68736 1.88718 0
M  V30 17416 C 1673.62 4.88874 1.59707 0
M  V30 17417 N 1671.6 5.9846 1.36818 0
M  V30 17418 C 1672.97 6.08399 1.19377 0
M  V30 17419 C 1675.02 4.75551 1.47498 0
M  V30 17420 C 1673.73 7.16073 0.680543 0
M  V30 17421 C 1675.75 5.83294 0.975784 0
M  V30 17422 C 1675.12 7.01989 0.582251 0
M  V30 17423 H 1671.21 0.613553 0.484847 0
M  V30 17424 H 1673.8 1.82912 0.667171 0
M  V30 17425 H 1671.97 2.2758 3.14741 0
M  V30 17426 H 1673.7 2.52277 3.16446 0
M  V30 17427 H 1670.46 4.24212 2.10574 0
M  V30 17428 H 1670.88 6.67497 1.13037 0
M  V30 17429 H 1675.52 3.84178 1.76543 0
M  V30 17430 H 1673.24 8.07217 0.377678 0
M  V30 17431 H 1676.83 5.75025 0.885268 0
M  V30 17432 H 1675.71 7.8394 0.201937 0
M  V30 17433 N 1673.21 -0.830057 1.33969 0
M  V30 17434 C 1674.46 -1.58272 1.25675 0
M  V30 17435 C 1674.78 -1.94213 -0.175071 0
M  V30 17436 O 1674.05 -1.61694 -1.10597 0
M  V30 17437 H 1672.63 -0.586858 0.462176 0
M  V30 17438 H 1675.29 -0.991495 1.67796 0
M  V30 17439 H 1674.39 -2.50874 1.85658 0
M  V30 17440 N 1674.69 -1.17582 -1.04939 0
M  V30 17441 C 1676.1 -0.971326 -1.59443 0
M  V30 17442 C 1676.45 0.481308 -1.90205 0
M  V30 17443 O 1675.57 1.35708 -1.6856 0
M  V30 17444 C 1676.17 -1.75685 -2.8969 0
M  V30 17445 C 1674.73 -1.59695 -3.40844 0
M  V30 17446 C 1673.88 -1.75688 -2.14544 0
M  V30 17447 H 1676.83 -1.32254 -0.877188 0
M  V30 17448 H 1676.85 -1.24074 -3.59703 0
M  V30 17449 H 1676.36 -2.81405 -2.67269 0
M  V30 17450 H 1674.46 -0.564746 -3.68295 0
M  V30 17451 H 1674.57 -2.38951 -4.15258 0
M  V30 17452 H 1672.94 -1.18553 -2.25427 0
M  V30 17453 H 1673.72 -2.82825 -1.94589 0
M  V30 17454 N 1676.17 1.23705 -0.976463 0
M  V30 17455 C 1677.39 1.96595 -0.660697 0
M  V30 17456 C 1677.82 1.71845 0.764916 0
M  V30 17457 O 1677.17 0.987506 1.52046 0
M  V30 17458 C 1677.22 3.47803 -0.95214 0
M  V30 17459 O 1676.33 4.12378 -0.0421126 0
M  V30 17460 H 1675.67 0.615591 -0.248886 0
M  V30 17461 H 1678.2 1.57247 -1.30899 0
M  V30 17462 H 1678.21 3.98236 -0.887238 0
M  V30 17463 H 1676.88 3.65144 -1.99105 0
M  V30 17464 H 1675.46 3.72552 -0.161087 0
M  V30 17465 N 1677.64 0.747635 1.38738 0
M  V30 17466 C 1678.89 0.300552 1.99853 0
M  V30 17467 C 1679.21 -1.11986 1.59638 0
M  V30 17468 O 1678.48 -1.76477 0.850447 0
M  V30 17469 H 1677.06 0.108134 0.739132 0
M  V30 17470 H 1679.72 0.960405 1.69594 0
M  V30 17471 H 1678.82 0.358956 3.10029 0
M  V30 17472 N 1679.12 -1.49583 0.496242 0
M  V30 17473 C 1680.08 -2.27561 -0.273642 0
M  V30 17474 C 1681.08 -1.33375 -0.8982 0
M  V30 17475 O 1682.27 -1.56578 -0.76347 0
M  V30 17476 C 1679.41 -3.11178 -1.39216 0
M  V30 17477 H 1680.6 -2.97077 0.410543 0
M  V30 17478 H 1678.15 -1.54271 0.251058 0
M  V30 17479 H 1678.89 -2.46217 -2.11064 0
M  V30 17480 H 1678.67 -3.80422 -0.949829 0
M  V30 17481 H 1680.16 -3.70085 -1.93459 0
M  V30 17482 N 1680.6 -0.229873 -1.55915 0
M  V30 17483 C 1681.85 0.393361 -1.9956 0
M  V30 17484 C 1682.2 1.56794 -1.11506 0
M  V30 17485 O 1681.49 1.90872 -0.16682 0
M  V30 17486 C 1681.69 0.869043 -3.46673 0
M  V30 17487 C 1681.52 -0.2579 -4.4896 0
M  V30 17488 C 1680.29 -0.727024 -5.00042 0
M  V30 17489 C 1682.48 -1.07905 -5.02853 0
M  V30 17490 N 1680.47 -1.82816 -5.86047 0
M  V30 17491 C 1681.84 -2.02888 -5.85864 0
M  V30 17492 C 1683.89 -1.11755 -4.85196 0
M  V30 17493 C 1682.6 -3.01411 -6.53103 0
M  V30 17494 C 1684.62 -2.09099 -5.53201 0
M  V30 17495 C 1683.98 -3.02821 -6.35987 0
M  V30 17496 H 1680.08 0.110376 -0.774171 0
M  V30 17497 H 1682.67 -0.343552 -1.91645 0
M  V30 17498 H 1680.84 1.57529 -3.5502 0
M  V30 17499 H 1682.57 1.46579 -3.77222 0
M  V30 17500 H 1679.32 -0.314148 -4.72557 0
M  V30 17501 H 1679.75 -2.38097 -6.3375 0
M  V30 17502 H 1684.39 -0.406867 -4.20838 0
M  V30 17503 H 1682.11 -3.73437 -7.16638 0
M  V30 17504 H 1685.69 -2.12762 -5.41501 0
M  V30 17505 H 1684.57 -3.76915 -6.8768 0
M  V30 17506 N 1682.08 1.5754 0.0434337 0
M  V30 17507 C 1683.3 1.93247 0.753012 0
M  V30 17508 C 1683.73 0.828712 1.68861 0
M  V30 17509 O 1683.09 -0.216618 1.80001 0
M  V30 17510 C 1683.13 3.27989 1.49852 0
M  V30 17511 O 1682.24 3.19223 2.61094 0
M  V30 17512 H 1681.58 0.632032 0.203547 0
M  V30 17513 H 1684.11 2.046 0.00319776 0
M  V30 17514 H 1684.12 3.62539 1.87161 0
M  V30 17515 H 1682.79 4.07891 0.812251 0
M  V30 17516 H 1681.37 2.9628 2.26434 0
M  V30 17517 N 1683.56 -0.31543 1.54411 0
M  V30 17518 C 1684.78 -1.0761 1.77299 0
M  V30 17519 C 1685.21 -1.80655 0.523963 0
M  V30 17520 O 1684.56 -1.73536 -0.524874 0
M  V30 17521 C 1684.61 -2.04355 2.97105 0
M  V30 17522 O 1683.72 -3.12401 2.69219 0
M  V30 17523 H 1683.06 -0.30986 0.587267 0
M  V30 17524 H 1685.59 -0.357246 2.01457 0
M  V30 17525 H 1685.6 -2.47081 3.24677 0
M  V30 17526 H 1684.27 -1.50592 3.87679 0
M  V30 17527 H 1682.85 -2.74294 2.52621 0
M  V30 17528 N 1685.03 -1.46622 -0.577906 0
M  V30 17529 C 1686.45 -1.31683 -0.901762 0
M  V30 17530 C 1686.65 -0.291842 -1.99375 0
M  V30 17531 O 1685.71 0.303913 -2.50664 0
M  V30 17532 C 1687.02 -2.70443 -1.31457 0
M  V30 17533 C 1688.57 -2.7857 -1.42715 0
M  V30 17534 C 1689.04 -4.17923 -1.87361 0
M  V30 17535 N 1690.53 -4.20364 -1.94546 0
M  V30 17536 C 1691.27 -5.25085 -2.30376 0
M  V30 17537 N 1690.76 -6.4013 -2.64964 0
M  V30 17538 N 1692.56 -5.12453 -2.30972 0
M  V30 17539 H 1684.71 -2.11916 0.143367 0
M  V30 17540 H 1686.97 -0.947999 0.00146914 0
M  V30 17541 H 1686.68 -3.46781 -0.586174 0
M  V30 17542 H 1686.55 -3.00864 -2.2751 0
M  V30 17543 H 1688.94 -2.02518 -2.14641 0
M  V30 17544 H 1689.02 -2.51828 -0.449021 0
M  V30 17545 H 1688.66 -4.94473 -1.16012 0
M  V30 17546 H 1688.59 -4.42076 -2.8614 0
M  V30 17547 H 1691.08 -3.37359 -1.70286 0
M  V30 17548 H 1691.4 -7.15808 -2.91271 0
M  V30 17549 H 1689.74 -6.43483 -2.62591 0
M  V30 17550 H 1692.93 -4.21611 -2.03376 0
M  V30 17551 H 1693.11 -5.94178 -2.58566 0
M  V30 17552 N 1686.51 0.822941 -1.34408 0
M  V30 17553 C 1687.93 1.11606 -1.14089 0
M  V30 17554 C 1688.13 2.01418 0.0576164 0
M  V30 17555 O 1687.18 2.41622 0.733146 0
M  V30 17556 C 1688.5 1.76279 -2.43611 0
M  V30 17557 C 1690.05 1.88773 -2.49667 0
M  V30 17558 C 1690.52 2.56862 -3.79191 0
M  V30 17559 N 1692.01 2.64362 -3.80351 0
M  V30 17560 C 1692.75 3.17775 -4.77291 0
M  V30 17561 N 1692.24 3.71751 -5.84613 0
M  V30 17562 N 1694.04 3.16175 -4.64747 0
M  V30 17563 H 1686.19 0.225555 -2.11199 0
M  V30 17564 H 1688.45 0.162621 -0.933948 0
M  V30 17565 H 1688.16 1.17749 -3.31403 0
M  V30 17566 H 1688.03 2.76147 -2.56949 0
M  V30 17567 H 1690.42 2.46451 -1.62314 0
M  V30 17568 H 1690.5 0.878079 -2.40257 0
M  V30 17569 H 1690.14 1.99839 -4.66933 0
M  V30 17570 H 1690.07 3.58332 -3.85883 0
M  V30 17571 H 1692.56 2.26102 -3.02797 0
M  V30 17572 H 1692.88 4.10759 -6.54597 0
M  V30 17573 H 1691.22 3.69995 -5.88327 0
M  V30 17574 H 1694.41 2.73274 -3.80051 0
M  V30 17575 H 1694.58 3.57498 -5.40462 0
M  V30 17576 N 1687.99 1.18137 1.04314 0
M  V30 17577 C 1689.22 1.00062 1.81666 0
M  V30 17578 C 1689.64 -0.446281 1.82729 0
M  V30 17579 O 1689 -1.32004 1.24277 0
M  V30 17580 C 1689.05 1.55698 3.25255 0
M  V30 17581 O 1688.15 0.776662 4.05021 0
M  V30 17582 H 1687.49 0.354651 0.561354 0
M  V30 17583 H 1690.02 1.56837 1.3139 0
M  V30 17584 H 1690.03 1.58303 3.76037 0
M  V30 17585 H 1688.71 2.61016 3.23795 0
M  V30 17586 H 1687.28 0.822723 3.63711 0
M  V30 17587 N 1689.47 -1.23186 0.98301 0
M  V30 17588 C 1690.69 -1.96242 0.671114 0
M  V30 17589 C 1691.12 -1.72248 -0.755792 0
M  V30 17590 O 1690.48 -0.995555 -1.5152 0
M  V30 17591 C 1690.52 -3.47293 0.970571 0
M  V30 17592 O 1689.63 -4.1235 0.0639814 0
M  V30 17593 H 1688.97 -0.614262 0.252147 0
M  V30 17594 H 1691.5 -1.56551 1.31731 0
M  V30 17595 H 1691.51 -3.9776 0.908345 0
M  V30 17596 H 1690.18 -3.64083 2.01039 0
M  V30 17597 H 1688.76 -3.72461 0.180842 0
M  V30 17598 N 1690.95 -0.754982 -1.38339 0
M  V30 17599 C 1692.19 -0.321184 -2.00848 0
M  V30 17600 C 1692.55 1.08546 -1.58857 0
M  V30 17601 O 1691.84 1.7332 -0.816737 0
M  V30 17602 C 1692.03 -0.383719 -3.55334 0
M  V30 17603 C 1691.86 -1.7949 -4.12327 0
M  V30 17604 C 1690.63 -2.41176 -4.4403 0
M  V30 17605 C 1692.83 -2.75178 -4.3449 0
M  V30 17606 N 1690.81 -3.74241 -4.86638 0
M  V30 17607 C 1692.18 -3.93011 -4.79523 0
M  V30 17608 C 1694.24 -2.72683 -4.16592 0
M  V30 17609 C 1692.94 -5.0871 -5.08534 0
M  V30 17610 C 1694.97 -3.87541 -4.46728 0
M  V30 17611 C 1694.33 -5.04112 -4.91986 0
M  V30 17612 H 1690.43 -0.164217 -0.764563 0
M  V30 17613 H 1693.01 -0.985233 -1.67932 0
M  V30 17614 H 1691.18 0.250068 -3.87594 0
M  V30 17615 H 1692.92 0.0705302 -4.04639 0
M  V30 17616 H 1689.67 -1.9293 -4.32522 0
M  V30 17617 H 1690.1 -4.4261 -5.12275 0
M  V30 17618 H 1694.74 -1.8374 -3.80788 0
M  V30 17619 H 1692.46 -5.98266 -5.43234 0
M  V30 17620 H 1696.04 -3.86931 -4.34483 0
M  V30 17621 H 1694.92 -5.91514 -5.1486 0
M  V30 17622 N 1692.42 1.49318 -0.504168 0
M  V30 17623 C 1693.65 2.07365 0.038102 0
M  V30 17624 C 1694.07 1.36164 1.29773 0
M  V30 17625 O 1693.43 0.419365 1.76383 0
M  V30 17626 C 1693.48 3.59576 0.271535 0
M  V30 17627 O 1692.58 3.8983 1.34561 0
M  V30 17628 H 1691.93 0.663425 -0.0276328 0
M  V30 17629 H 1694.46 1.92081 -0.704696 0
M  V30 17630 H 1694.47 4.04899 0.502083 0
M  V30 17631 H 1693.14 4.10809 -0.648754 0
M  V30 17632 H 1691.72 3.56314 1.09976 0
M  V30 17633 N 1693.9 0.238138 1.5579 0
M  V30 17634 C 1695.13 -0.396409 2.03576 0
M  V30 17635 C 1695.55 -1.5138 1.11649 0
M  V30 17636 O 1694.91 -1.80979 0.107774 0
M  V30 17637 C 1694.96 -0.889749 3.49451 0
M  V30 17638 O 1694.06 -1.99997 3.60659 0
M  V30 17639 H 1693.4 -0.0876017 0.658196 0
M  V30 17640 H 1695.93 0.361632 2.01379 0
M  V30 17641 H 1695.94 -1.19526 3.901 0
M  V30 17642 H 1694.62 -0.0720136 4.15838 0
M  V30 17643 H 1693.2 -1.69983 3.31904 0
M  V30 17644 N 1695.38 -1.57561 -0.0350783 0
M  V30 17645 C 1696.31 -2.09201 -1.03716 0
M  V30 17646 C 1697.29 -0.993231 -1.3809 0
M  V30 17647 O 1698.48 -1.26812 -1.47079 0
M  V30 17648 C 1695.61 -2.56643 -2.3399 0
M  V30 17649 C 1694.56 -3.70731 -2.13874 0
M  V30 17650 C 1693.89 -4.04358 -3.49855 0
M  V30 17651 C 1695.19 -4.99393 -1.52982 0
M  V30 17652 H 1696.88 -2.93176 -0.60731 0
M  V30 17653 H 1694.43 -1.41036 -0.290683 0
M  V30 17654 H 1696.38 -2.9139 -3.04417 0
M  V30 17655 H 1695.1 -1.69744 -2.79024 0
M  V30 17656 H 1693.76 -3.36325 -1.45881 0
M  V30 17657 H 1693.41 -3.14534 -3.92527 0
M  V30 17658 H 1693.11 -4.81201 -3.37223 0
M  V30 17659 H 1694.63 -4.41633 -4.21654 0
M  V30 17660 H 1696.05 -5.32135 -2.13319 0
M  V30 17661 H 1694.45 -5.80807 -1.50943 0
M  V30 17662 H 1695.52 -4.82367 -0.494993 0
M  V30 17663 N 1696.86 0.307236 -1.54576 0
M  V30 17664 C 1698.11 1.04115 -1.73218 0
M  V30 17665 C 1698.43 1.88008 -0.517482 0
M  V30 17666 O 1697.7 1.90219 0.468336 0
M  V30 17667 H 1696.28 0.387388 -0.638701 0
M  V30 17668 H 1698.94 0.339727 -1.91916 0
M  V30 17669 H 1698.04 1.69784 -2.61877 0
M  V30 17670 N 1698.34 1.46926 0.570122 0
M  V30 17671 C 1699.75 1.32159 0.894766 0
M  V30 17672 C 1699.95 0.302411 1.99218 0
M  V30 17673 O 1699.01 -0.290615 2.50822 0
M  V30 17674 C 1700.32 2.71136 1.30021 0
M  V30 17675 C 1701.87 2.79323 1.41236 0
M  V30 17676 C 1702.34 4.18911 1.85142 0
M  V30 17677 N 1703.84 4.2139 1.92314 0
M  V30 17678 C 1704.57 5.263 2.27588 0
M  V30 17679 N 1704.07 6.41526 2.61565 0
M  V30 17680 N 1705.86 5.13671 2.28251 0
M  V30 17681 H 1698.01 2.11837 -0.154603 0
M  V30 17682 H 1700.27 0.947978 -0.00649658 0
M  V30 17683 H 1699.98 3.47087 0.567775 0
M  V30 17684 H 1699.85 3.02066 2.25911 0
M  V30 17685 H 1702.24 2.03653 2.13564 0
M  V30 17686 H 1702.32 2.52063 0.43566 0
M  V30 17687 H 1701.97 4.95081 1.13389 0
M  V30 17688 H 1701.9 4.43587 2.83792 0
M  V30 17689 H 1704.39 3.38257 1.68495 0
M  V30 17690 H 1704.7 7.17343 2.8747 0
M  V30 17691 H 1703.04 6.44867 2.59175 0
M  V30 17692 H 1706.24 4.22684 2.01137 0
M  V30 17693 H 1706.41 5.95541 2.55412 0
M  V30 17694 N 1699.82 -0.815801 1.34842 0
M  V30 17695 C 1700.78 -1.90871 1.2689 0
M  V30 17696 C 1701.78 -1.59762 0.182445 0
M  V30 17697 O 1702.97 -1.68667 0.435543 0
M  V30 17698 C 1700.1 -3.27081 0.960774 0
M  V30 17699 H 1701.29 -1.99343 2.24059 0
M  V30 17700 H 1698.85 -1.0106 1.19233 0
M  V30 17701 H 1699.58 -3.24299 -0.00744059 0
M  V30 17702 H 1699.37 -3.51045 1.74671 0
M  V30 17703 H 1700.86 -4.07101 0.930494 0
M  V30 17704 N 1701.29 -1.18689 -1.03686 0
M  V30 17705 C 1702.7 -0.988182 -1.58404 0
M  V30 17706 C 1703.06 0.461107 -1.90705 0
M  V30 17707 O 1702.18 1.33912 -1.6999 0
M  V30 17708 C 1702.78 -1.78748 -2.8781 0
M  V30 17709 C 1701.33 -1.63301 -3.39131 0
M  V30 17710 C 1700.48 -1.77954 -2.12668 0
M  V30 17711 H 1703.43 -1.33177 -0.863112 0
M  V30 17712 H 1703.45 -1.27882 -3.58366 0
M  V30 17713 H 1702.97 -2.84224 -2.6427 0
M  V30 17714 H 1701.07 -0.603777 -3.67676 0
M  V30 17715 H 1701.18 -2.43342 -4.127 0
M  V30 17716 H 1699.54 -1.20937 -2.24157 0
M  V30 17717 H 1700.33 -2.84873 -1.91579 0
M  V30 17718 N 1702.77 1.22662 -0.989529 0
M  V30 17719 C 1704 1.95883 -0.681511 0
M  V30 17720 C 1704.42 1.72646 0.746646 0
M  V30 17721 O 1703.78 1.00358 1.5099 0
M  V30 17722 C 1703.83 3.46773 -0.988975 0
M  V30 17723 O 1702.93 4.12311 -0.0858485 0
M  V30 17724 H 1702.27 0.612916 -0.255401 0
M  V30 17725 H 1704.8 1.5585 -1.32559 0
M  V30 17726 H 1704.81 3.97273 -0.929426 0
M  V30 17727 H 1703.49 3.63011 -2.02967 0
M  V30 17728 H 1702.06 3.7236 -0.200592 0
M  V30 17729 N 1704.25 0.762308 1.37937 0
M  V30 17730 C 1705.18 0.156036 2.32978 0
M  V30 17731 C 1706.16 -0.693795 1.55308 0
M  V30 17732 O 1707.35 -0.633195 1.83587 0
M  V30 17733 C 1704.48 -0.731199 3.39515 0
M  V30 17734 C 1703.43 0.0165834 4.27997 0
M  V30 17735 C 1702.76 -0.989476 5.25465 0
M  V30 17736 C 1704.06 1.19009 5.08561 0
M  V30 17737 H 1705.75 0.949978 2.83929 0
M  V30 17738 H 1703.3 0.458269 1.36513 0
M  V30 17739 H 1705.25 -1.16507 4.04974 0
M  V30 17740 H 1703.97 -1.55756 2.87067 0
M  V30 17741 H 1702.63 0.431128 3.64056 0
M  V30 17742 H 1702.28 -1.81013 4.69301 0
M  V30 17743 H 1701.98 -0.493738 5.85522 0
M  V30 17744 H 1703.5 -1.42248 5.93799 0
M  V30 17745 H 1704.92 0.833336 5.67211 0
M  V30 17746 H 1703.31 1.61727 5.77896 0
M  V30 17747 H 1704.38 1.99879 4.41788 0
M  V30 17748 N 1705.73 -1.49049 0.51208 0
M  V30 17749 C 1706.67 -2.29326 -0.260408 0
M  V30 17750 C 1707.64 -1.36232 -0.950265 0
M  V30 17751 O 1708.83 -1.65193 -0.954777 0
M  V30 17752 C 1705.97 -3.19177 -1.31225 0
M  V30 17753 C 1705.08 -4.27336 -0.63305 0
M  V30 17754 C 1704.22 -5.04389 -1.66628 0
M  V30 17755 C 1703.26 -6.04372 -0.969561 0
M  V30 17756 N 1702.39 -6.74549 -1.94751 0
M  V30 17757 H 1707.23 -2.94876 0.430384 0
M  V30 17758 H 1704.77 -1.45383 0.224086 0
M  V30 17759 H 1706.73 -3.69655 -1.9342 0
M  V30 17760 H 1705.36 -2.55588 -1.97166 0
M  V30 17761 H 1704.41 -3.80262 0.102433 0
M  V30 17762 H 1705.72 -4.98727 -0.0851363 0
M  V30 17763 H 1704.88 -5.58791 -2.36299 0
M  V30 17764 H 1703.62 -4.32797 -2.24807 0
M  V30 17765 H 1702.62 -5.49191 -0.25869 0
M  V30 17766 H 1703.85 -6.77955 -0.394125 0
M  V30 17767 H 1701.79 -6.0572 -2.5187 0
M  V30 17768 H 1701.71 -7.41954 -1.45055 0
M  V30 17769 H 1702.98 -7.3355 -2.63675 0
M  V30 17770 N 1707.21 -0.246397 -1.55662 0
M  V30 17771 C 1708.62 0.108465 -1.59231 0
M  V30 17772 C 1708.82 1.56961 -1.26354 0
M  V30 17773 O 1707.88 2.31393 -1.01062 0
M  V30 17774 C 1709.19 -0.240265 -2.99739 0
M  V30 17775 C 1710.74 -0.184523 -3.12456 0
M  V30 17776 C 1711.21 -0.507279 -4.55182 0
M  V30 17777 N 1712.7 -0.457761 -4.60933 0
M  V30 17778 C 1713.44 -0.680664 -5.69346 0
M  V30 17779 N 1712.94 -0.966667 -6.86023 0
M  V30 17780 N 1714.73 -0.611405 -5.58765 0
M  V30 17781 H 1706.88 -1.19928 -1.75303 0
M  V30 17782 H 1709.14 -0.482503 -0.816024 0
M  V30 17783 H 1708.85 -1.25535 -3.28533 0
M  V30 17784 H 1708.72 0.432872 -3.74708 0
M  V30 17785 H 1711.11 0.821232 -2.83443 0
M  V30 17786 H 1711.19 -0.891504 -2.39762 0
M  V30 17787 H 1710.83 -1.51059 -4.84916 0
M  V30 17788 H 1710.76 0.221174 -5.26135 0
M  V30 17789 H 1713.26 -0.245414 -3.77102 0
M  V30 17790 H 1713.57 -1.12419 -7.6458 0
M  V30 17791 H 1711.91 -1.00413 -6.87708 0
M  V30 17792 H 1715.1 -0.388018 -4.66489 0
M  V30 17793 H 1715.28 -0.788519 -6.43185 0
M  V30 17794 N 1708.68 1.57577 0.026722 0
M  V30 17795 C 1710.1 1.54951 0.382406 0
M  V30 17796 C 1710.3 0.972826 1.76461 0
M  V30 17797 O 1709.36 0.5949 2.45392 0
M  V30 17798 C 1710.67 2.99374 0.282111 0
M  V30 17799 C 1712.22 3.10934 0.359022 0
M  V30 17800 C 1712.69 4.57093 0.28815 0
M  V30 17801 N 1714.18 4.61899 0.346873 0
M  V30 17802 C 1714.92 5.72534 0.314961 0
M  V30 17803 N 1714.41 6.92401 0.235205 0
M  V30 17804 N 1716.21 5.60915 0.364863 0
M  V30 17805 H 1708.36 1.93413 -0.877788 0
M  V30 17806 H 1710.62 0.887216 -0.333995 0
M  V30 17807 H 1710.33 3.45301 -0.667821 0
M  V30 17808 H 1710.2 3.61562 1.07484 0
M  V30 17809 H 1712.59 2.64953 1.29939 0
M  V30 17810 H 1712.67 2.51573 -0.4631 0
M  V30 17811 H 1712.31 5.03742 -0.648558 0
M  V30 17812 H 1712.24 5.14368 1.12841 0
M  V30 17813 H 1714.73 3.75659 0.410932 0
M  V30 17814 H 1715.05 7.72498 0.216019 0
M  V30 17815 H 1713.39 6.94709 0.201219 0
M  V30 17816 H 1716.58 4.66165 0.42518 0
M  V30 17817 H 1716.76 6.47126 0.336526 0
M  V30 17818 N 1710.16 -0.299034 1.54737 0
M  V30 17819 C 1711.41 -1.03195 1.73767 0
M  V30 17820 C 1711.73 -1.87731 0.527445 0
M  V30 17821 O 1711 -1.90465 -0.458242 0
M  V30 17822 H 1709.58 -0.383996 0.640747 0
M  V30 17823 H 1712.24 -0.329544 1.92094 0
M  V30 17824 H 1711.34 -1.68393 2.62774 0
M  V30 17825 N 1711.64 -1.47227 -0.562322 0
M  V30 17826 C 1712.57 -1.55383 -1.6849 0
M  V30 17827 C 1713.58 -0.440437 -1.56729 0
M  V30 17828 O 1714.77 -0.709803 -1.63781 0
M  V30 17829 C 1711.87 -1.43723 -3.06915 0
M  V30 17830 C 1711.05 -2.69541 -3.4448 0
M  V30 17831 C 1710.11 -2.5179 -4.62048 0
M  V30 17832 O 1709.13 -3.25587 -4.66885 0
M  V30 17833 N 1710.33 -1.59282 -5.5822 0
M  V30 17834 H 1713.1 -2.52181 -1.61941 0
M  V30 17835 H 1710.66 -1.43541 -0.748832 0
M  V30 17836 H 1712.65 -1.2959 -3.83391 0
M  V30 17837 H 1711.22 -0.550272 -3.07719 0
M  V30 17838 H 1710.44 -2.98472 -2.57504 0
M  V30 17839 H 1711.73 -3.53079 -3.66351 0
M  V30 17840 H 1711.13 -0.984666 -5.57064 0
M  V30 17841 H 1709.68 -1.51103 -6.34043 0
M  V30 17842 N 1713.12 0.808639 -1.35273 0
M  V30 17843 C 1714.36 1.57901 -1.29794 0
M  V30 17844 C 1714.72 1.91582 0.126611 0
M  V30 17845 O 1715.92 2.67056 0.305745 0
M  V30 17846 C 1714.19 2.83433 -2.17716 0
M  V30 17847 S 1715.75 3.73856 -2.29732 0
M  V30 17848 H 1712.57 0.541041 -0.461298 0
M  V30 17849 H 1715.17 0.954024 -1.70642 0
M  V30 17850 H 1713.88 2.5671 -3.202 0
M  V30 17851 H 1713.41 3.50919 -1.77818 0
M  V30 17852 H 1715.42 4.73595 -1.48063 0
M  V30 17853 N 1714.6 1.19237 1.03055 0
M  V30 17854 C 1715.84 0.992008 1.76078 0
M  V30 17855 C 1716.17 -0.478535 1.89037 0
M  V30 17856 O 1715.44 -1.34666 1.42274 0
M  V30 17857 H 1714.02 0.364059 0.652281 0
M  V30 17858 H 1716.68 1.50101 1.24321 0
M  V30 17859 H 1715.77 1.43862 2.76966 0
M  V30 17860 N 1716.07 -1.22136 0.99602 0
M  V30 17861 C 1716.98 -2.27869 0.557927 0
M  V30 17862 C 1718 -1.69462 -0.394781 0
M  V30 17863 O 1719.18 -1.99704 -0.26084 0
M  V30 17864 C 1716.24 -3.46501 -0.117434 0
M  V30 17865 C 1715.3 -4.20213 0.878627 0
M  V30 17866 C 1714.54 -5.33181 0.2354 0
M  V30 17867 O 1714.76 -5.62093 -0.969954 0
M  V30 17868 O 1713.69 -5.94486 0.941828 0
M  V30 17869 H 1717.52 -2.67517 1.43765 0
M  V30 17870 H 1715.1 -1.28362 0.764428 0
M  V30 17871 H 1716.99 -4.18476 -0.49559 0
M  V30 17872 H 1715.66 -3.08772 -0.971674 0
M  V30 17873 H 1714.57 -3.50497 1.30777 0
M  V30 17874 H 1715.9 -4.6183 1.70217 0
M  V30 17875 N 1717.55 -0.769612 -1.37531 0
M  V30 17876 C 1718.97 -0.449 -1.53154 0
M  V30 17877 C 1719.17 1.03568 -1.72847 0
M  V30 17878 O 1718.22 1.82154 -1.74861 0
M  V30 17879 C 1719.54 -1.26221 -2.72926 0
M  V30 17880 C 1721.09 -1.2539 -2.86786 0
M  V30 17881 C 1721.56 -2.05041 -4.09539 0
M  V30 17882 N 1723.05 -2.02384 -4.16647 0
M  V30 17883 C 1723.79 -2.60798 -5.10658 0
M  V30 17884 N 1723.28 -3.27991 -6.10241 0
M  V30 17885 N 1725.08 -2.5064 -5.03126 0
M  V30 17886 H 1717.23 -1.73161 -1.23 0
M  V30 17887 H 1719.49 -0.734977 -0.598759 0
M  V30 17888 H 1719.2 -2.31423 -2.64832 0
M  V30 17889 H 1719.07 -0.889937 -3.66551 0
M  V30 17890 H 1721.46 -0.209869 -2.94353 0
M  V30 17891 H 1721.54 -1.6658 -1.94126 0
M  V30 17892 H 1721.18 -3.09464 -4.02734 0
M  V30 17893 H 1721.11 -1.61234 -5.01309 0
M  V30 17894 H 1723.6 -1.53464 -3.45337 0
M  V30 17895 H 1723.92 -3.69942 -6.785 0
M  V30 17896 H 1722.26 -3.32089 -6.10526 0
M  V30 17897 H 1725.45 -1.97762 -4.24273 0
M  V30 17898 H 1725.62 -2.96458 -5.76209 0
M  V30 17899 N 1719.03 1.48775 -0.519977 0
M  V30 17900 C 1719.94 2.33239 0.252329 0
M  V30 17901 C 1720.96 1.45852 0.948849 0
M  V30 17902 O 1722.13 1.78848 0.92603 0
M  V30 17903 C 1719.2 3.2174 1.29166 0
M  V30 17904 C 1718.26 4.24993 0.606564 0
M  V30 17905 C 1717.49 5.09266 1.59638 0
M  V30 17906 O 1717.71 4.95353 2.82809 0
M  V30 17907 O 1716.65 5.90981 1.14127 0
M  V30 17908 H 1720.47 3.00503 -0.439527 0
M  V30 17909 H 1718.06 1.46733 -0.281032 0
M  V30 17910 H 1719.94 3.76512 1.89254 0
M  V30 17911 H 1718.62 2.5715 1.96611 0
M  V30 17912 H 1717.52 3.74084 -0.0345447 0
M  V30 17913 H 1718.86 4.92193 -0.0257627 0
M  V30 17914 N 1720.51 0.254649 1.55529 0
M  V30 17915 C 1721.73 -0.374795 2.03985 0
M  V30 17916 C 1722.16 -1.50188 1.13249 0
M  V30 17917 O 1721.52 -1.80855 0.126963 0
M  V30 17918 C 1721.56 -0.852635 3.50375 0
M  V30 17919 O 1720.67 -1.9616 3.6276 0
M  V30 17920 H 1720.01 -0.0806157 0.659088 0
M  V30 17921 H 1722.54 0.38297 2.00984 0
M  V30 17922 H 1722.55 -1.15381 3.91345 0
M  V30 17923 H 1721.22 -0.0279044 4.15891 0
M  V30 17924 H 1719.8 -1.66453 3.33688 0
M  V30 17925 N 1721.99 -1.57589 -0.0183649 0
M  V30 17926 C 1722.92 -2.1029 -1.01492 0
M  V30 17927 C 1723.9 -1.00782 -1.37029 0
M  V30 17928 O 1725.08 -1.28365 -1.45726 0
M  V30 17929 C 1722.21 -2.59111 -2.31255 0
M  V30 17930 C 1721.17 -3.72979 -2.0993 0
M  V30 17931 C 1720.49 -4.08046 -3.45547 0
M  V30 17932 C 1721.79 -5.00988 -1.47677 0
M  V30 17933 H 1723.49 -2.93804 -0.57618 0
M  V30 17934 H 1721.03 -1.41336 -0.275708 0
M  V30 17935 H 1722.99 -2.94602 -3.0131 0
M  V30 17936 H 1721.71 -1.72694 -2.77208 0
M  V30 17937 H 1720.37 -3.37853 -1.42306 0
M  V30 17938 H 1720.02 -3.1868 -3.89169 0
M  V30 17939 H 1719.72 -4.8475 -3.32101 0
M  V30 17940 H 1721.24 -4.46081 -4.16947 0
M  V30 17941 H 1722.65 -5.34368 -2.07663 0
M  V30 17942 H 1721.05 -5.82375 -1.44774 0
M  V30 17943 H 1722.12 -4.82865 -0.443804 0
M  V30 17944 N 1723.46 0.290824 -1.54893 0
M  V30 17945 C 1724.39 1.36354 -1.89551 0
M  V30 17946 C 1725.38 1.52403 -0.75546 0
M  V30 17947 O 1726.56 1.65743 -1.01208 0
M  V30 17948 C 1723.69 2.72609 -2.15178 0
M  V30 17949 C 1722.64 2.71313 -3.31019 0
M  V30 17950 C 1721.97 4.10952 -3.42085 0
M  V30 17951 C 1723.27 2.32153 -4.6787 0
M  V30 17952 H 1724.96 1.07597 -2.79398 0
M  V30 17953 H 1722.51 0.516154 -1.34432 0
M  V30 17954 H 1724.46 3.47749 -2.3801 0
M  V30 17955 H 1723.19 3.02913 -1.22112 0
M  V30 17956 H 1721.85 1.9863 -3.08126 0
M  V30 17957 H 1721.49 4.38449 -2.46518 0
M  V30 17958 H 1721.19 4.10984 -4.1996 0
M  V30 17959 H 1722.72 4.87857 -3.67189 0
M  V30 17960 H 1724.13 2.97011 -4.90364 0
M  V30 17961 H 1722.53 2.4338 -5.48531 0
M  V30 17962 H 1723.6 1.27279 -4.67897 0
M  V30 17963 N 1724.94 1.47523 0.554506 0
M  V30 17964 C 1726.17 1.58154 1.34172 0
M  V30 17965 C 1726.59 0.233124 1.8665 0
M  V30 17966 O 1725.95 -0.791439 1.63113 0
M  V30 17967 C 1726 2.61242 2.48566 0
M  V30 17968 O 1725.1 2.167 3.50877 0
M  V30 17969 H 1724.44 0.531184 0.398421 0
M  V30 17970 H 1726.97 1.93324 0.669841 0
M  V30 17971 H 1726.98 2.81746 2.95098 0
M  V30 17972 H 1725.66 3.59148 2.09727 0
M  V30 17973 H 1724.24 2.06305 3.10632 0
M  V30 17974 N 1726.42 -0.801453 1.357 0
M  V30 17975 C 1727.67 -1.55571 1.29004 0
M  V30 17976 C 1727.99 -1.9454 -0.133836 0
M  V30 17977 O 1727.26 -1.64004 -1.07143 0
M  V30 17978 H 1725.84 -0.576922 0.47452 0
M  V30 17979 H 1728.5 -0.95568 1.69861 0
M  V30 17980 H 1727.6 -2.46879 1.90937 0
M  V30 17981 N 1727.9 -1.19782 -1.02421 0
M  V30 17982 C 1728.81 -0.955253 -2.14271 0
M  V30 17983 C 1729.82 0.0863233 -1.73786 0
M  V30 17984 O 1731 -0.0993878 -2.01155 0
M  V30 17985 C 1728.07 -0.502219 -3.43043 0
M  V30 17986 C 1727.13 -1.61374 -3.97815 0
M  V30 17987 C 1726.36 -1.18223 -5.20441 0
M  V30 17988 O 1726.58 -0.0477334 -5.7038 0
M  V30 17989 O 1725.52 -1.98664 -5.68169 0
M  V30 17990 H 1729.34 -1.89157 -2.37599 0
M  V30 17991 H 1726.93 -0.981035 -1.12677 0
M  V30 17992 H 1728.81 -0.258445 -4.20607 0
M  V30 17993 H 1727.48 0.4056 -3.21149 0
M  V30 17994 H 1726.39 -1.91172 -3.21565 0
M  V30 17995 H 1727.72 -2.49829 -4.24083 0
M  V30 17996 N 1729.38 1.21606 -1.00248 0
M  V30 17997 C 1730.63 1.90231 -0.682401 0
M  V30 17998 C 1730.95 1.78324 0.78903 0
M  V30 17999 O 1730.22 1.17653 1.56635 0
M  V30 18000 H 1728.8 0.704132 -0.249414 0
M  V30 18001 H 1731.46 1.47751 -1.27105 0
M  V30 18002 H 1730.55 2.97183 -0.953351 0
M  V30 18003 N 1730.86 0.776895 1.37121 0
M  V30 18004 C 1731.8 0.164838 2.30211 0
M  V30 18005 C 1732.77 -0.684137 1.51356 0
M  V30 18006 O 1733.96 -0.635428 1.79908 0
M  V30 18007 C 1731.1 -0.704263 3.37837 0
M  V30 18008 C 1730.21 0.161881 4.31697 0
M  V30 18009 C 1729.35 -0.712411 5.26401 0
M  V30 18010 C 1728.38 0.155953 6.11901 0
M  V30 18011 N 1727.52 -0.676607 6.98832 0
M  V30 18012 H 1732.36 0.964185 2.81971 0
M  V30 18013 H 1729.9 0.487065 1.38802 0
M  V30 18014 H 1731.86 -1.22302 3.98871 0
M  V30 18015 H 1730.49 -1.46916 2.87429 0
M  V30 18016 H 1729.54 0.798491 3.71925 0
M  V30 18017 H 1730.85 0.831496 4.91821 0
M  V30 18018 H 1730 -1.29745 5.92664 0
M  V30 18019 H 1728.74 -1.41569 4.66701 0
M  V30 18020 H 1727.75 0.753493 5.44612 0
M  V30 18021 H 1728.97 0.856645 6.73675 0
M  V30 18022 H 1726.92 -1.36441 6.41654 0
M  V30 18023 H 1726.84 -0.0644017 7.55973 0
M  V30 18024 H 1728.1 -1.24588 7.69479 0
M  V30 18025 N 1732.33 -1.48497 0.527859 0
M  V30 18026 C 1733.58 -2.02099 -0.00699772 0
M  V30 18027 C 1733.9 -1.40742 -1.34969 0
M  V30 18028 O 1733.17 -0.572059 -1.87361 0
M  V30 18029 H 1731.75 -0.746979 -0.00557445 0
M  V30 18030 H 1734.41 -1.82231 0.691209 0
M  V30 18031 H 1733.51 -3.11881 -0.116893 0
M  V30 18032 N 1733.81 -0.262893 -1.55392 0
M  V30 18033 C 1735.04 0.363972 -2.04181 0
M  V30 18034 C 1735.46 1.49585 -1.14044 0
M  V30 18035 O 1734.82 1.80785 -0.136553 0
M  V30 18036 C 1734.87 0.834041 -3.50822 0
M  V30 18037 O 1733.97 1.94234 -3.63795 0
M  V30 18038 H 1733.31 0.0771193 -0.659506 0
M  V30 18039 H 1735.84 -0.393623 -2.00778 0
M  V30 18040 H 1735.85 1.13304 -3.91952 0
M  V30 18041 H 1734.53 0.00584833 -4.159 0
M  V30 18042 H 1733.1 1.64681 -3.34566 0
M  V30 18043 N 1735.29 1.57597 0.0100073 0
M  V30 18044 C 1736.52 1.94402 0.708192 0
M  V30 18045 C 1736.93 0.864205 1.6786 0
M  V30 18046 O 1736.29 -0.157763 1.81817 0
M  V30 18047 C 1736.34 3.312 1.44876 0
M  V30 18048 O 1736.06 4.35035 0.517281 0
M  V30 18049 C 1737.56 3.82404 2.24237 0
M  V30 18050 H 1734.78 0.64116 0.197877 0
M  V30 18051 H 1737.33 2.04464 -0.0381373 0
M  V30 18052 H 1735.48 3.22476 2.1468 0
M  V30 18053 H 1735.9 5.14113 1.03868 0
M  V30 18054 H 1737.37 4.80578 2.71567 0
M  V30 18055 H 1737.85 3.14587 3.06483 0
M  V30 18056 H 1738.45 3.94271 1.59469 0
M  V30 18057 N 1736.77 -0.282606 1.55045 0
M  V30 18058 C 1738.04 -1.03617 1.659 0
M  V30 18059 C 1738.42 -2.04615 0.519207 0
M  V30 18060 O 1737.77 -2.2336 -0.48191 0
M  V30 18061 C 1737.98 -1.70159 3.04708 0
M  V30 18062 C 1739.33 -2.21677 3.62139 0
M  V30 18063 O 1740.35 -1.80161 3.07279 0
M  V30 18064 O 1739.21 -2.97799 4.58234 0
M  V30 18065 H 1736.31 -0.48004 0.673417 0
M  V30 18066 H 1738.85 -0.279228 1.67387 0
M  V30 18067 H 1737.63 -0.969205 3.79107 0
M  V30 18068 H 1737.25 -2.52564 3.07079 0
M  V30 18069 N 1738.25 -1.47815 -0.546675 0
M  V30 18070 C 1739.52 -1.45464 -1.30765 0
M  V30 18071 C 1739.9 -0.157249 -2.10514 0
M  V30 18072 O 1739.25 0.861203 -2.1165 0
M  V30 18073 C 1739.46 -2.70661 -2.20326 0
M  V30 18074 C 1740.81 -3.18309 -2.81007 0
M  V30 18075 O 1741.83 -2.71462 -2.30623 0
M  V30 18076 O 1740.69 -3.9978 -3.7261 0
M  V30 18077 H 1737.79 -0.580175 -0.589343 0
M  V30 18078 H 1740.33 -1.60029 -0.564707 0
M  V30 18079 H 1739.1 -3.56612 -1.61069 0
M  V30 18080 H 1738.73 -2.58734 -3.01898 0
M  V30 18081 N 1739.72 0.794246 -1.36123 0
M  V30 18082 C 1740.63 1.93807 -1.32197 0
M  V30 18083 C 1741.65 1.7254 -0.2249 0
M  V30 18084 O 1742.83 1.9616 -0.456431 0
M  V30 18085 C 1739.89 3.28593 -1.10578 0
M  V30 18086 C 1738.95 3.6267 -2.29715 0
M  V30 18087 C 1738.18 4.91025 -2.09118 0
M  V30 18088 O 1738.41 5.6039 -1.06389 0
M  V30 18089 O 1737.34 5.23647 -2.96779 0
M  V30 18090 H 1741.17 2.00068 -2.28487 0
M  V30 18091 H 1738.75 0.933808 -1.16621 0
M  V30 18092 H 1740.63 4.0926 -1.0042 0
M  V30 18093 H 1739.31 3.23235 -0.17347 0
M  V30 18094 H 1738.22 2.82329 -2.4544 0
M  V30 18095 H 1739.55 3.72747 -3.21435 0
M  V30 18096 N 1741.2 1.20323 1.01785 0
M  V30 18097 C 1742.16 0.9527 2.08462 0
M  V30 18098 C 1743.16 -0.0712564 1.60642 0
M  V30 18099 O 1744.35 0.164672 1.7342 0
M  V30 18100 C 1741.49 0.434052 3.38125 0
M  V30 18101 H 1742.68 1.89895 2.32121 0
M  V30 18102 H 1740.23 1.01843 1.18565 0
M  V30 18103 H 1740.97 -0.51772 3.20141 0
M  V30 18104 H 1740.75 1.17248 3.74159 0
M  V30 18105 H 1742.24 0.278215 4.16672 0
M  V30 18106 N 1742.68 -1.21073 1.00892 0
M  V30 18107 C 1743.59 -2.27265 0.582065 0
M  V30 18108 C 1744.61 -1.69872 -0.376785 0
M  V30 18109 O 1745.78 -1.99969 -0.239644 0
M  V30 18110 C 1742.85 -3.46606 -0.0806764 0
M  V30 18111 C 1741.91 -4.19257 0.923147 0
M  V30 18112 C 1741.14 -5.32901 0.291938 0
M  V30 18113 O 1741.36 -5.6309 -0.910282 0
M  V30 18114 O 1740.3 -5.93453 1.00483 0
M  V30 18115 H 1744.12 -2.65977 1.46594 0
M  V30 18116 H 1741.71 -1.27544 0.777999 0
M  V30 18117 H 1743.59 -4.18978 -0.451177 0
M  V30 18118 H 1742.27 -3.09785 -0.93887 0
M  V30 18119 H 1741.17 -3.4909 1.34488 0
M  V30 18120 H 1742.51 -4.59999 1.75106 0
M  V30 18121 N 1744.16 -0.784156 -1.36707 0
M  V30 18122 C 1745.44 -0.278338 -1.93609 0
M  V30 18123 C 1745.82 1.22865 -1.71661 0
M  V30 18124 O 1745.16 2.01765 -1.07252 0
M  V30 18125 C 1745.37 -0.665232 -3.42601 0
M  V30 18126 C 1746.72 -0.642005 -4.19718 0
M  V30 18127 O 1747.75 -0.605381 -3.51018 0
M  V30 18128 O 1746.6 -0.680178 -5.42251 0
M  V30 18129 H 1743.7 -0.0675603 -0.824236 0
M  V30 18130 H 1746.24 -0.866345 -1.4592 0
M  V30 18131 H 1745.02 -1.70478 -3.52211 0
M  V30 18132 H 1744.64 -0.0508295 -3.97568 0
M  V30 18133 N 1745.64 1.48215 -0.535727 0
M  V30 18134 C 1746.88 2.021 -0.00372016 0
M  V30 18135 C 1747.21 1.41456 1.34221 0
M  V30 18136 O 1746.48 0.581987 1.87055 0
M  V30 18137 H 1745.06 0.746998 0.00161295 0
M  V30 18138 H 1747.72 1.81862 -0.700863 0
M  V30 18139 H 1746.81 3.11939 0.100352 0
M  V30 18140 N 1747.11 0.27113 1.5525 0
M  V30 18141 C 1748.53 -0.0831186 1.59383 0
M  V30 18142 C 1748.73 -1.54931 1.28835 0
M  V30 18143 O 1747.79 -2.29756 1.0473 0
M  V30 18144 C 1749.1 0.287921 2.99318 0
M  V30 18145 C 1750.65 0.234209 3.12123 0
M  V30 18146 C 1751.12 0.57963 4.54317 0
M  V30 18147 N 1752.61 0.531033 4.60146 0
M  V30 18148 C 1753.35 0.771156 5.68191 0
M  V30 18149 N 1752.84 1.07569 6.84398 0
M  V30 18150 N 1754.64 0.700223 5.57722 0
M  V30 18151 H 1746.79 1.22702 1.73373 0
M  V30 18152 H 1749.05 0.495424 0.808244 0
M  V30 18153 H 1748.76 1.30746 3.26494 0
M  V30 18154 H 1748.63 -0.373205 3.75349 0
M  V30 18155 H 1751.02 -0.776035 2.84713 0
M  V30 18156 H 1751.1 0.929535 2.38313 0
M  V30 18157 H 1750.74 1.58754 4.82452 0
M  V30 18158 H 1750.67 -0.137442 5.26421 0
M  V30 18159 H 1753.16 0.305377 3.76664 0
M  V30 18160 H 1753.48 1.24568 7.62694 0
M  V30 18161 H 1751.82 1.11342 6.86023 0
M  V30 18162 H 1755.01 0.462183 4.65813 0
M  V30 18163 H 1755.19 0.890744 6.41849 0
M  V30 18164 N 1748.59 -1.576 -0.00164943 0
M  V30 18165 C 1749.56 -2.07267 -0.978423 0
M  V30 18166 C 1750.56 -0.981758 -1.27351 0
M  V30 18167 O 1751.75 -1.24446 -1.21896 0
M  V30 18168 C 1748.88 -2.51273 -2.30379 0
M  V30 18169 H 1750.07 -2.94835 -0.548845 0
M  V30 18170 H 1747.62 -1.54302 -0.249086 0
M  V30 18171 H 1748.36 -1.66943 -2.7803 0
M  V30 18172 H 1748.14 -3.30943 -2.10283 0
M  V30 18173 H 1749.63 -2.90031 -3.00453 0
M  V30 18174 N 1750.07 0.274379 -1.55193 0
M  V30 18175 C 1751.03 1.32237 -1.87206 0
M  V30 18176 C 1752.03 1.4242 -0.74654 0
M  V30 18177 O 1753.22 1.41595 -1.01472 0
M  V30 18178 C 1750.36 2.7039 -2.0761 0
M  V30 18179 H 1751.55 1.05083 -2.80887 0
M  V30 18180 H 1749.1 0.512375 -1.47663 0
M  V30 18181 H 1749.84 3.02727 -1.16306 0
M  V30 18182 H 1749.62 2.64385 -2.89556 0
M  V30 18183 H 1751.11 3.46114 -2.33655 0
M  V30 18184 N 1751.55 1.48103 0.538828 0
M  V30 18185 C 1752.96 1.49312 1.12085 0
M  V30 18186 C 1753.31 0.257965 1.94497 0
M  V30 18187 O 1752.44 -0.635654 2.06854 0
M  V30 18188 C 1753.03 2.70545 2.03939 0
M  V30 18189 C 1751.59 2.74654 2.57376 0
M  V30 18190 C 1750.74 2.42695 1.34144 0
M  V30 18191 H 1753.69 1.55347 0.324512 0
M  V30 18192 H 1753.71 2.4856 2.88094 0
M  V30 18193 H 1753.22 3.60424 1.4393 0
M  V30 18194 H 1751.32 1.8896 3.21131 0
M  V30 18195 H 1751.43 3.75846 2.97114 0
M  V30 18196 H 1749.8 1.93663 1.65429 0
M  V30 18197 H 1750.58 3.34804 0.759009 0
M  V30 18198 N 1753.03 -0.787016 1.36542 0
M  V30 18199 C 1754.27 -1.54194 1.30647 0
M  V30 18200 C 1754.6 -1.94671 -0.113195 0
M  V30 18201 O 1753.87 -1.65131 -1.05397 0
M  V30 18202 H 1752.45 -0.571857 0.480613 0
M  V30 18203 H 1755.11 -0.93761 1.70865 0
M  V30 18204 H 1754.2 -2.4484 1.93545 0
M  V30 18205 N 1754.5 -1.20861 -1.01145 0
M  V30 18206 C 1755.92 -1.02156 -1.56272 0
M  V30 18207 C 1756.27 0.420552 -1.9164 0
M  V30 18208 O 1755.39 1.30277 -1.72792 0
M  V30 18209 C 1755.99 -1.84812 -2.83954 0
M  V30 18210 C 1754.55 -1.70458 -3.35591 0
M  V30 18211 C 1753.69 -1.82425 -2.08846 0
M  V30 18212 H 1756.64 -1.34978 -0.834669 0
M  V30 18213 H 1756.66 -1.35455 -3.55573 0
M  V30 18214 H 1756.18 -2.89765 -2.58181 0
M  V30 18215 H 1754.28 -0.681631 -3.66312 0
M  V30 18216 H 1754.39 -2.52041 -4.07446 0
M  V30 18217 H 1752.75 -1.25665 -2.21541 0
M  V30 18218 H 1753.54 -2.88872 -1.85493 0
M  V30 18219 N 1755.98 1.20536 -1.01532 0
M  V30 18220 C 1757.4 1.41929 -0.729957 0
M  V30 18221 C 1757.6 1.89286 0.69088 0
M  V30 18222 O 1756.65 2.06094 1.45882 0
M  V30 18223 C 1757.97 2.44202 -1.75458 0
M  V30 18224 C 1759.52 2.57971 -1.77257 0
M  V30 18225 C 1759.99 3.63486 -2.78643 0
M  V30 18226 N 1761.48 3.70968 -2.77375 0
M  V30 18227 C 1762.22 4.52266 -3.52481 0
M  V30 18228 N 1761.71 5.37379 -4.37259 0
M  V30 18229 N 1763.51 4.46787 -3.41084 0
M  V30 18230 H 1755.66 0.881116 -1.93262 0
M  V30 18231 H 1757.92 0.449299 -0.834766 0
M  V30 18232 H 1757.63 2.16401 -2.77243 0
M  V30 18233 H 1757.5 3.43171 -1.56568 0
M  V30 18234 H 1759.89 2.85103 -0.761586 0
M  V30 18235 H 1759.97 1.59202 -2.00221 0
M  V30 18236 H 1759.61 3.37097 -3.79905 0
M  V30 18237 H 1759.54 4.61874 -2.52942 0
M  V30 18238 H 1762.03 3.10171 -2.15876 0
M  V30 18239 H 1762.35 5.96495 -4.91338 0
M  V30 18240 H 1760.69 5.36886 -4.41337 0
M  V30 18241 H 1763.88 3.79329 -2.74275 0
M  V30 18242 H 1764.05 5.0991 -3.9987 0
M  V30 18243 N 1757.46 0.791395 1.36289 0
M  V30 18244 C 1758.42 0.197069 2.28351 0
M  V30 18245 C 1759.42 -0.606748 1.48913 0
M  V30 18246 O 1760.61 -0.427453 1.68874 0
M  V30 18247 C 1757.75 -0.727009 3.33058 0
M  V30 18248 H 1758.94 1.00885 2.82422 0
M  V30 18249 H 1756.49 0.560959 1.45887 0
M  V30 18250 H 1757.23 -1.56306 2.84146 0
M  V30 18251 H 1757.01 -0.152537 3.91803 0
M  V30 18252 H 1758.5 -1.13765 4.01805 0
M  V30 18253 N 1758.94 -1.47929 0.54358 0
M  V30 18254 C 1760.17 -2.06891 0.0189187 0
M  V30 18255 C 1760.58 -1.39822 -1.26867 0
M  V30 18256 O 1759.94 -0.490197 -1.75793 0
M  V30 18257 C 1759.99 -3.60976 -0.194595 0
M  V30 18258 O 1759.71 -4.25528 1.04199 0
M  V30 18259 C 1761.21 -4.3677 -0.758093 0
M  V30 18260 H 1758.43 -0.669827 0.0396625 0
M  V30 18261 H 1760.98 -1.90128 0.753105 0
M  V30 18262 H 1759.13 -3.77299 -0.878869 0
M  V30 18263 H 1759.55 -5.17872 0.831191 0
M  V30 18264 H 1761.02 -5.45309 -0.856846 0
M  V30 18265 H 1761.5 -4.02121 -1.76621 0
M  V30 18266 H 1762.1 -4.25158 -0.109953 0
M  V30 18267 N 1760.42 -0.27936 -1.55104 0
M  V30 18268 C 1761.83 0.217569 -1.85428 0
M  V30 18269 C 1762.18 1.55117 -1.20138 0
M  V30 18270 O 1761.3 2.10751 -0.491229 0
M  V30 18271 C 1761.9 0.401547 -3.36412 0
M  V30 18272 C 1760.46 0.842706 -3.66845 0
M  V30 18273 C 1759.61 -0.0615565 -2.77232 0
M  V30 18274 H 1762.56 -0.501025 -1.50584 0
M  V30 18275 H 1762.58 1.23946 -3.59747 0
M  V30 18276 H 1762.09 -0.569224 -3.83903 0
M  V30 18277 H 1760.19 1.8248 -3.24857 0
M  V30 18278 H 1760.3 0.677088 -4.74291 0
M  V30 18279 H 1758.67 0.455486 -2.50594 0
M  V30 18280 H 1759.45 -1.02829 -3.27538 0
M  V30 18281 N 1761.9 1.57599 -0.0067085 0
M  V30 18282 C 1762.83 2.11878 0.981331 0
M  V30 18283 C 1763.81 1.02949 1.35408 0
M  V30 18284 O 1764.99 1.30667 1.43665 0
M  V30 18285 C 1762.12 2.62757 2.27104 0
M  V30 18286 C 1761.08 3.76272 2.0397 0
M  V30 18287 C 1760.4 4.13491 3.39012 0
M  V30 18288 C 1761.7 5.03274 1.39688 0
M  V30 18289 H 1763.4 2.94683 0.529366 0
M  V30 18290 H 1760.94 1.41757 0.253187 0
M  V30 18291 H 1762.89 2.99359 2.96585 0
M  V30 18292 H 1761.62 1.77082 2.74426 0
M  V30 18293 H 1760.28 3.40074 1.36913 0
M  V30 18294 H 1759.93 3.24831 3.8405 0
M  V30 18295 H 1759.63 4.89972 3.24347 0
M  V30 18296 H 1761.15 4.52657 4.09797 0
M  V30 18297 H 1762.56 5.37604 1.99136 0
M  V30 18298 H 1760.96 5.84604 1.3549 0
M  V30 18299 H 1762.03 4.8351 0.366928 0
M  V30 18300 N 1763.37 -0.266145 1.55336 0
M  V30 18301 C 1764.79 -0.613693 1.47329 0
M  V30 18302 C 1764.99 -1.89207 0.693038 0
M  V30 18303 O 1764.05 -2.51586 0.214642 0
M  V30 18304 C 1765.36 -0.734287 2.91597 0
M  V30 18305 C 1766.91 -0.82789 3.01853 0
M  V30 18306 C 1767.38 -0.980205 4.47388 0
M  V30 18307 N 1768.87 -1.04556 4.51245 0
M  V30 18308 C 1769.61 -1.18233 5.61078 0
M  V30 18309 N 1769.1 -1.28587 6.80762 0
M  V30 18310 N 1770.9 -1.21398 5.48834 0
M  V30 18311 H 1763.05 0.573316 2.04516 0
M  V30 18312 H 1765.31 0.195128 0.927701 0
M  V30 18313 H 1765.02 0.134714 3.51442 0
M  V30 18314 H 1764.89 -1.6124 3.41001 0
M  V30 18315 H 1767.28 -1.68735 2.421 0
M  V30 18316 H 1767.36 0.0749719 2.5569 0
M  V30 18317 H 1767 -0.125373 5.07745 0
M  V30 18318 H 1766.93 -1.89782 4.91213 0
M  V30 18319 H 1769.42 -0.977667 3.65034 0
M  V30 18320 H 1769.74 -1.38876 7.60219 0
M  V30 18321 H 1768.08 -1.25579 6.8356 0
M  V30 18322 H 1771.27 -1.12944 4.5427 0
M  V30 18323 H 1771.45 -1.31713 6.34473 0
M  V30 18324 N 1764.85 -1.48386 -0.530967 0
M  V30 18325 C 1766.27 -1.34485 -0.859412 0
M  V30 18326 C 1766.47 -0.355124 -1.98346 0
M  V30 18327 O 1765.52 0.224012 -2.51504 0
M  V30 18328 C 1766.84 -2.74488 -1.22787 0
M  V30 18329 C 1768.38 -2.82969 -1.33781 0
M  V30 18330 C 1768.86 -4.23673 -1.7397 0
M  V30 18331 N 1770.35 -4.26341 -1.81074 0
M  V30 18332 C 1771.09 -5.32149 -2.13554 0
M  V30 18333 N 1770.58 -6.48235 -2.44464 0
M  V30 18334 N 1772.37 -5.19542 -2.14551 0
M  V30 18335 H 1764.53 -2.11352 0.210713 0
M  V30 18336 H 1766.79 -0.947472 0.0316283 0
M  V30 18337 H 1766.49 -3.4847 -0.475552 0
M  V30 18338 H 1766.37 -3.0795 -2.17823 0
M  V30 18339 H 1768.76 -2.09244 -2.08089 0
M  V30 18340 H 1768.84 -2.53129 -0.368677 0
M  V30 18341 H 1768.48 -4.97914 -1.00222 0
M  V30 18342 H 1768.41 -4.50956 -2.71931 0
M  V30 18343 H 1770.9 -3.42606 -1.59467 0
M  V30 18344 H 1771.21 -7.24712 -2.6835 0
M  V30 18345 H 1769.56 -6.51512 -2.41986 0
M  V30 18346 H 1772.75 -4.27868 -1.89859 0
M  V30 18347 H 1772.92 -6.02103 -2.39532 0
M  V30 18348 N 1766.33 0.779763 -1.36958 0
M  V30 18349 C 1767.29 1.87439 -1.31906 0
M  V30 18350 C 1768.29 1.59222 -0.224739 0
M  V30 18351 O 1769.48 1.67453 -0.480109 0
M  V30 18352 C 1766.61 3.24419 -1.04716 0
M  V30 18353 H 1767.81 1.93333 -2.29265 0
M  V30 18354 H 1765.36 0.978634 -1.21871 0
M  V30 18355 H 1766.1 3.24205 -0.0785442 0
M  V30 18356 H 1765.88 3.4629 -1.83917 0
M  V30 18357 H 1767.37 4.04491 -1.0381 0
M  V30 18358 N 1767.81 1.21396 1.00503 0
M  V30 18359 C 1768.72 0.989221 2.12724 0
M  V30 18360 C 1769.73 -0.0586646 1.73901 0
M  V30 18361 O 1770.91 0.131377 2.00971 0
M  V30 18362 C 1767.97 0.556731 3.42201 0
M  V30 18363 C 1767.04 1.67683 3.95197 0
M  V30 18364 C 1766.27 1.26488 5.18494 0
M  V30 18365 O 1766.49 0.13847 5.70232 0
M  V30 18366 O 1765.43 2.07678 5.64937 0
M  V30 18367 H 1769.25 1.92913 2.3456 0
M  V30 18368 H 1766.84 0.998837 1.11102 0
M  V30 18369 H 1768.72 0.325327 4.20142 0
M  V30 18370 H 1767.39 -0.354457 3.21753 0
M  V30 18371 H 1766.3 1.96263 3.18483 0
M  V30 18372 H 1767.63 2.56544 4.20055 0
M  V30 18373 N 1769.29 -1.19996 1.0217 0
M  V30 18374 C 1770.51 -1.94007 0.733207 0
M  V30 18375 C 1770.94 -1.74565 -0.70061 0
M  V30 18376 O 1770.29 -1.04326 -1.48276 0
M  V30 18377 C 1770.34 -3.44029 1.08057 0
M  V30 18378 O 1769.45 -4.11938 0.195135 0
M  V30 18379 H 1768.79 -0.605929 0.271562 0
M  V30 18380 H 1771.32 -1.5228 1.36645 0
M  V30 18381 H 1771.33 -3.94669 1.03443 0
M  V30 18382 H 1770 -3.57502 2.1252 0
M  V30 18383 H 1768.58 -3.71697 0.299246 0
M  V30 18384 N 1770.76 -0.798611 -1.35867 0
M  V30 18385 C 1771.69 -0.217751 -2.32482 0
M  V30 18386 C 1772.67 0.652374 -1.57093 0
M  V30 18387 O 1773.86 0.584297 -1.85202 0
M  V30 18388 C 1770.99 0.640925 -3.41335 0
M  V30 18389 C 1769.94 -0.130053 -4.27802 0
M  V30 18390 C 1769.27 0.849811 -5.27904 0
M  V30 18391 C 1770.57 -1.32451 -5.05227 0
M  V30 18392 H 1772.26 -1.02492 -2.81311 0
M  V30 18393 H 1769.81 -0.494302 -1.3525 0
M  V30 18394 H 1771.76 1.05729 -4.07921 0
M  V30 18395 H 1770.49 1.4809 -2.91096 0
M  V30 18396 H 1769.15 -0.5275 -3.62785 0
M  V30 18397 H 1768.79 1.68507 -4.73935 0
M  V30 18398 H 1768.49 0.338323 -5.86625 0
M  V30 18399 H 1770.02 1.26455 -5.97362 0
M  V30 18400 H 1771.43 -0.983429 -5.64802 0
M  V30 18401 H 1769.83 -1.76992 -5.73405 0
M  V30 18402 H 1770.9 -2.11522 -4.36333 0
M  V30 18403 N 1772.24 1.47639 -0.551417 0
M  V30 18404 C 1773.52 1.95559 0.0401983 0
M  V30 18405 C 1773.9 1.49396 1.49144 0
M  V30 18406 O 1773.25 0.730148 2.1652 0
M  V30 18407 C 1773.46 3.48859 -0.0992677 0
M  V30 18408 C 1774.8 4.24572 0.0490517 0
M  V30 18409 O 1775.83 3.5619 -0.026527 0
M  V30 18410 O 1774.69 5.46094 0.210638 0
M  V30 18411 H 1771.78 0.824251 0.0673694 0
M  V30 18412 H 1774.33 1.58065 -0.617532 0
M  V30 18413 H 1773.1 3.75245 -1.10936 0
M  V30 18414 H 1772.72 3.93102 0.596339 0
M  V30 18415 N 1773.72 0.287581 1.54954 0
M  V30 18416 C 1775.13 -0.207733 1.85541 0
M  V30 18417 C 1775.48 -1.54478 1.20959 0
M  V30 18418 O 1774.61 -2.10487 0.502399 0
M  V30 18419 C 1775.2 -0.383701 3.3662 0
M  V30 18420 C 1773.76 -0.82324 3.67287 0
M  V30 18421 C 1772.91 0.0762579 2.77195 0
M  V30 18422 H 1775.86 0.509004 1.50316 0
M  V30 18423 H 1775.88 -1.22036 3.60399 0
M  V30 18424 H 1775.39 0.589575 3.83596 0
M  V30 18425 H 1773.49 -1.80754 3.2582 0
M  V30 18426 H 1773.61 -0.651925 4.74644 0
M  V30 18427 H 1771.97 -0.44219 2.50832 0
M  V30 18428 H 1772.75 1.04564 3.26988 0
M  V30 18429 N 1775.2 -1.57593 0.0150662 0
M  V30 18430 C 1776.61 -1.5591 -0.341189 0
M  V30 18431 C 1776.81 -1.01927 -1.73819 0
M  V30 18432 O 1775.87 -0.659752 -2.43728 0
M  V30 18433 C 1777.18 -3.00016 -0.202639 0
M  V30 18434 C 1778.73 -3.11777 -0.276457 0
M  V30 18435 C 1779.21 -4.57696 -0.166859 0
M  V30 18436 N 1780.7 -4.62657 -0.224287 0
M  V30 18437 C 1781.43 -5.73168 -0.163053 0
M  V30 18438 N 1780.93 -6.92781 -0.0515442 0
M  V30 18439 N 1782.72 -5.61685 -0.216018 0
M  V30 18440 H 1774.87 -1.91018 0.92876 0
M  V30 18441 H 1777.14 -0.878048 0.3574 0
M  V30 18442 H 1776.84 -3.43409 0.759136 0
M  V30 18443 H 1776.72 -3.64285 -0.978599 0
M  V30 18444 H 1779.1 -2.68305 -1.22868 0
M  V30 18445 H 1779.18 -2.50257 0.529637 0
M  V30 18446 H 1778.83 -5.01846 0.781888 0
M  V30 18447 H 1778.76 -5.17179 -0.991635 0
M  V30 18448 H 1781.25 -3.76617 -0.311188 0
M  V30 18449 H 1781.56 -7.72799 -0.0111287 0
M  V30 18450 H 1779.91 -6.94998 -0.0169584 0
M  V30 18451 H 1783.1 -4.67128 -0.301435 0
M  V30 18452 H 1783.27 -6.4779 -0.164834 0
M  V30 18453 N 1776.68 0.257904 -1.55475 0
M  V30 18454 C 1778.09 0.82782 -1.67344 0
M  V30 18455 C 1778.44 1.8646 -0.610494 0
M  V30 18456 O 1777.56 2.15005 0.245275 0
M  V30 18457 C 1778.16 1.5083 -3.03374 0
M  V30 18458 C 1776.72 2.02605 -3.17219 0
M  V30 18459 C 1775.86 0.873303 -2.63189 0
M  V30 18460 H 1778.82 0.0339334 -1.58664 0
M  V30 18461 H 1778.84 2.3759 -2.97205 0
M  V30 18462 H 1778.35 0.753469 -3.80716 0
M  V30 18463 H 1776.45 2.81002 -2.4468 0
M  V30 18464 H 1776.56 2.23099 -4.23985 0
M  V30 18465 H 1774.93 1.27082 -2.20731 0
M  V30 18466 H 1775.71 0.131739 -3.43047 0
M  V30 18467 N 1778.15 1.48666 0.52309 0
M  V30 18468 C 1779.08 1.666 1.63605 0
M  V30 18469 C 1780.07 0.514803 1.62123 0
M  V30 18470 O 1781.25 0.748138 1.79211 0
M  V30 18471 C 1778.38 1.71199 3.02172 0
M  V30 18472 C 1777.33 2.85888 3.18515 0
M  V30 18473 C 1776.66 2.75582 4.58213 0
M  V30 18474 C 1777.96 4.27104 3.00631 0
M  V30 18475 H 1779.65 2.59776 1.48851 0
M  V30 18476 H 1777.2 1.25014 0.714667 0
M  V30 18477 H 1779.15 1.82333 3.79911 0
M  V30 18478 H 1777.88 0.746066 3.17964 0
M  V30 18479 H 1776.54 2.7432 2.43195 0
M  V30 18480 H 1776.18 1.76944 4.7085 0
M  V30 18481 H 1775.88 3.52545 4.70091 0
M  V30 18482 H 1777.41 2.88693 5.38041 0
M  V30 18483 H 1778.82 4.3947 3.68157 0
M  V30 18484 H 1777.22 5.05119 3.23999 0
M  V30 18485 H 1778.29 4.43087 1.96982 0
M  V30 18486 N 1779.63 -0.772489 1.37369 0
M  V30 18487 C 1781.05 -1.07294 1.18153 0
M  V30 18488 C 1781.25 -2.01493 0.0171782 0
M  V30 18489 O 1780.3 -2.44177 -0.642964 0
M  V30 18490 C 1781.62 -1.67116 2.49986 0
M  V30 18491 C 1783.17 -1.79377 2.56501 0
M  V30 18492 C 1783.64 -2.42612 3.88463 0
M  V30 18493 N 1785.13 -2.50063 3.89901 0
M  V30 18494 C 1785.87 -2.99841 4.88756 0
M  V30 18495 N 1785.36 -3.49798 5.98008 0
M  V30 18496 N 1787.16 -2.98709 4.76161 0
M  V30 18497 H 1779.31 -0.147014 2.11891 0
M  V30 18498 H 1781.57 -0.127846 0.93934 0
M  V30 18499 H 1781.28 -1.05369 3.35545 0
M  V30 18500 H 1781.15 -2.6642 2.67021 0
M  V30 18501 H 1783.54 -2.40257 1.71349 0
M  V30 18502 H 1783.62 -0.788304 2.4335 0
M  V30 18503 H 1783.26 -1.82372 4.74029 0
M  V30 18504 H 1783.19 -3.43763 3.98917 0
M  V30 18505 H 1785.68 -2.14709 3.1098 0
M  V30 18506 H 1786 -3.86181 6.69391 0
M  V30 18507 H 1784.34 -3.47905 6.01654 0
M  V30 18508 H 1787.53 -2.5898 3.89932 0
M  V30 18509 H 1787.7 -3.37193 5.53358 0
M  V30 18510 N 1781.11 -1.21927 -0.998575 0
M  V30 18511 C 1782.52 -1.03808 -1.5518 0
M  V30 18512 C 1782.87 0.400202 -1.92075 0
M  V30 18513 O 1782 1.28436 -1.74164 0
M  V30 18514 C 1782.59 -1.87814 -2.81978 0
M  V30 18515 C 1781.15 -1.74008 -3.33764 0
M  V30 18516 C 1780.3 -1.8463 -2.06899 0
M  V30 18517 H 1783.25 -1.35855 -0.820305 0
M  V30 18518 H 1783.27 -1.39219 -3.54116 0
M  V30 18519 H 1782.78 -2.92487 -2.55094 0
M  V30 18520 H 1780.88 -0.720445 -3.65569 0
M  V30 18521 H 1781 -2.56348 -4.0475 0
M  V30 18522 H 1779.36 -1.28007 -2.20196 0
M  V30 18523 H 1780.14 -2.90824 -1.82419 0
M  V30 18524 N 1782.59 1.19452 -1.02805 0
M  V30 18525 C 1783.55 2.20857 -0.612757 0
M  V30 18526 C 1784.55 1.57519 0.323182 0
M  V30 18527 O 1785.74 1.7385 0.110303 0
M  V30 18528 C 1782.87 3.40743 0.103488 0
M  V30 18529 H 1784.07 2.59113 -1.50998 0
M  V30 18530 H 1781.62 1.33116 -0.819142 0
M  V30 18531 H 1782.35 3.08004 1.0151 0
M  V30 18532 H 1782.14 3.87949 -0.56903 0
M  V30 18533 H 1783.63 4.15858 0.380998 0
M  V30 18534 N 1784.07 0.805805 1.35442 0
M  V30 18535 C 1785.03 0.221278 2.28129 0
M  V30 18536 C 1786.03 -0.590919 1.49549 0
M  V30 18537 O 1787.22 -0.409518 1.69318 0
M  V30 18538 C 1784.35 -0.691643 3.3381 0
M  V30 18539 H 1785.54 1.03875 2.81336 0
M  V30 18540 H 1783.1 0.5764 1.45284 0
M  V30 18541 H 1783.83 -1.53283 2.85788 0
M  V30 18542 H 1783.62 -0.110972 3.91943 0
M  V30 18543 H 1785.11 -1.09497 4.02989 0
M  V30 18544 N 1785.54 -1.47344 0.559239 0
M  V30 18545 C 1786.47 -2.32839 -0.175542 0
M  V30 18546 C 1787.46 -1.43914 -0.906787 0
M  V30 18547 O 1788.64 -1.72767 -0.886855 0
M  V30 18548 C 1785.77 -3.25735 -1.20474 0
M  V30 18549 C 1784.72 -4.23916 -0.589825 0
M  V30 18550 C 1784.05 -5.06151 -1.7238 0
M  V30 18551 C 1785.35 -5.2029 0.457733 0
M  V30 18552 H 1787.04 -2.94522 0.538225 0
M  V30 18553 H 1784.59 -1.41628 0.260282 0
M  V30 18554 H 1786.54 -3.84388 -1.72695 0
M  V30 18555 H 1785.27 -2.62111 -1.94847 0
M  V30 18556 H 1783.93 -3.66492 -0.0888897 0
M  V30 18557 H 1783.57 -4.38929 -2.45663 0
M  V30 18558 H 1783.27 -5.72625 -1.31813 0
M  V30 18559 H 1784.8 -5.67663 -2.24923 0
M  V30 18560 H 1786.21 -5.73296 0.0215019 0
M  V30 18561 H 1784.61 -5.94978 0.7824 0
M  V30 18562 H 1785.68 -4.65645 1.35286 0
M  V30 18563 N 1787.02 -0.295795 -1.54799 0
M  V30 18564 C 1788.43 0.19789 -1.85648 0
M  V30 18565 C 1788.78 1.53834 -1.21776 0
M  V30 18566 O 1787.91 2.10218 -0.513554 0
M  V30 18567 C 1788.5 0.365844 -3.36819 0
M  V30 18568 C 1787.06 0.80375 -3.67718 0
M  V30 18569 C 1786.21 -0.0909572 -2.77151 0
M  V30 18570 H 1789.16 -0.516968 -1.50044 0
M  V30 18571 H 1789.18 1.20123 -3.61041 0
M  V30 18572 H 1788.69 -0.60991 -3.83278 0
M  V30 18573 H 1786.8 1.79024 -3.26774 0
M  V30 18574 H 1786.91 0.626745 -4.74983 0
M  V30 18575 H 1785.27 0.428882 -2.51063 0
M  V30 18576 H 1786.06 -1.06297 -3.26429 0
M  V30 18577 N 1788.5 1.57583 -0.0234236 0
M  V30 18578 C 1789.91 1.79422 0.516201 0
M  V30 18579 C 1790.26 0.933151 1.72588 0
M  V30 18580 O 1789.39 0.141985 2.15934 0
M  V30 18581 C 1789.98 3.25405 0.943248 0
M  V30 18582 C 1788.54 3.48259 1.42802 0
M  V30 18583 C 1787.69 2.74543 0.390074 0
M  V30 18584 H 1790.64 1.56727 -0.24949 0
M  V30 18585 H 1790.66 3.34803 1.80795 0
M  V30 18586 H 1790.17 3.88049 0.0626242 0
M  V30 18587 H 1788.27 2.9086 2.32877 0
M  V30 18588 H 1788.39 4.56968 1.43933 0
M  V30 18589 H 1786.75 2.39852 0.856919 0
M  V30 18590 H 1787.53 3.399 -0.481986 0
M  V30 18591 N 1789.98 -0.249655 1.5561 0
M  V30 18592 C 1791.21 -0.995707 1.81365 0
M  V30 18593 C 1791.62 -1.79054 0.598767 0
M  V30 18594 O 1790.98 -1.773 -0.432538 0
M  V30 18595 C 1791.03 -1.93577 3.05303 0
M  V30 18596 O 1790.75 -1.17311 4.22102 0
M  V30 18597 C 1792.25 -2.79804 3.43838 0
M  V30 18598 H 1789.47 -0.293118 0.603591 0
M  V30 18599 H 1792.02 -0.273374 2.02665 0
M  V30 18600 H 1790.17 -2.61242 2.86062 0
M  V30 18601 H 1790.59 -1.80875 4.92326 0
M  V30 18602 H 1792.06 -3.4152 4.33668 0
M  V30 18603 H 1792.54 -3.50776 2.64298 0
M  V30 18604 H 1793.14 -2.17596 3.6542 0
M  V30 18605 N 1791.46 -1.48941 -0.515198 0
M  V30 18606 C 1792.4 -1.64561 -1.61828 0
M  V30 18607 C 1793.37 -0.487323 -1.5879 0
M  V30 18608 O 1794.56 -0.712626 -1.76992 0
M  V30 18609 C 1791.7 -1.70506 -3.00036 0
M  V30 18610 C 1790.81 -2.97543 -3.13197 0
M  V30 18611 C 1789.95 -2.94555 -4.42053 0
M  V30 18612 C 1788.99 -4.16232 -4.48795 0
M  V30 18613 N 1788.12 -4.11236 -5.6906 0
M  V30 18614 H 1792.96 -2.58754 -1.47818 0
M  V30 18615 H 1790.5 -1.28307 -0.719423 0
M  V30 18616 H 1792.46 -1.71934 -3.80125 0
M  V30 18617 H 1791.09 -0.797907 -3.12783 0
M  V30 18618 H 1790.14 -3.05792 -2.26264 0
M  V30 18619 H 1791.45 -3.87532 -3.14039 0
M  V30 18620 H 1790.61 -2.94466 -5.30447 0
M  V30 18621 H 1789.35 -2.0232 -4.43754 0
M  V30 18622 H 1788.35 -4.1658 -3.58805 0
M  V30 18623 H 1789.58 -5.09644 -4.48821 0
M  V30 18624 H 1787.52 -3.2183 -5.7163 0
M  V30 18625 H 1787.44 -4.94945 -5.71459 0
M  V30 18626 H 1788.71 -4.15229 -6.59701 0
M  V30 18627 N 1792.94 0.765193 -1.37777 0
M  V30 18628 C 1794.18 1.53692 -1.34752 0
M  V30 18629 C 1794.54 1.91888 0.0655965 0
M  V30 18630 O 1795.74 2.67893 0.220628 0
M  V30 18631 C 1794.01 2.76363 -2.26623 0
M  V30 18632 S 1795.57 3.66358 -2.4151 0
M  V30 18633 H 1792.39 0.526091 -0.478277 0
M  V30 18634 H 1794.99 0.899252 -1.73591 0
M  V30 18635 H 1793.69 2.46393 -3.28205 0
M  V30 18636 H 1793.23 3.45085 -1.88892 0
M  V30 18637 H 1795.24 4.68644 -1.63055 0
M  V30 18638 N 1794.41 1.22455 0.992094 0
M  V30 18639 C 1795.83 0.984682 1.25603 0
M  V30 18640 C 1796.03 -0.321255 1.98923 0
M  V30 18641 O 1795.09 -1.04367 2.29921 0
M  V30 18642 C 1796.4 2.1839 2.06703 0
M  V30 18643 C 1797.95 2.22755 2.19884 0
M  V30 18644 C 1798.42 3.42232 3.04371 0
M  V30 18645 N 1799.91 3.42398 3.11958 0
M  V30 18646 C 1800.65 4.31497 3.77622 0
M  V30 18647 N 1800.14 5.30814 4.45206 0
M  V30 18648 N 1801.94 4.1927 3.74391 0
M  V30 18649 H 1794.09 2.06417 0.50057 0
M  V30 18650 H 1796.35 0.904556 0.283693 0
M  V30 18651 H 1796.06 3.13099 1.60192 0
M  V30 18652 H 1795.93 2.18517 3.07458 0
M  V30 18653 H 1798.32 1.28593 2.65608 0
M  V30 18654 H 1798.4 2.26667 1.18557 0
M  V30 18655 H 1798.04 4.36694 2.59346 0
M  V30 18656 H 1797.97 3.3556 4.05841 0
M  V30 18657 H 1800.46 2.70531 2.63858 0
M  V30 18658 H 1800.78 5.95078 4.93054 0
M  V30 18659 H 1799.12 5.34726 4.43952 0
M  V30 18660 H 1802.31 3.40932 3.20753 0
M  V30 18661 H 1802.49 4.88913 4.25286 0
M  V30 18662 N 1795.89 -1.18905 1.03437 0
M  V30 18663 C 1797.17 -1.84537 0.648503 0
M  V30 18664 C 1797.55 -1.92228 -0.872445 0
M  V30 18665 O 1796.9 -1.44342 -1.77137 0
M  V30 18666 C 1797.11 -3.23198 1.31698 0
M  V30 18667 C 1798.45 -3.99301 1.44374 0
M  V30 18668 O 1799.48 -3.32615 1.27458 0
M  V30 18669 O 1798.34 -5.18767 1.7188 0
M  V30 18670 H 1795.43 -0.795488 0.226114 0
M  V30 18671 H 1797.98 -1.2635 1.13287 0
M  V30 18672 H 1796.75 -3.12466 2.35543 0
M  V30 18673 H 1796.37 -3.89035 0.820829 0
M  V30 18674 N 1797.37 -0.812977 -1.35013 0
M  V30 18675 C 1798.79 -0.497497 -1.51648 0
M  V30 18676 C 1798.99 0.980162 -1.76054 0
M  V30 18677 O 1798.04 1.76498 -1.80567 0
M  V30 18678 C 1799.35 -1.3484 -2.68772 0
M  V30 18679 C 1800.9 -1.3445 -2.82652 0
M  V30 18680 C 1801.38 -2.17966 -4.02808 0
M  V30 18681 N 1802.87 -2.15537 -4.09998 0
M  V30 18682 C 1803.6 -2.76912 -5.02103 0
M  V30 18683 N 1803.1 -3.47239 -5.99497 0
M  V30 18684 N 1804.89 -2.66519 -4.94898 0
M  V30 18685 H 1797.04 -1.76987 -1.17429 0
M  V30 18686 H 1799.31 -0.753654 -0.575073 0
M  V30 18687 H 1799.01 -2.39732 -2.57336 0
M  V30 18688 H 1798.89 -1.0061 -3.63535 0
M  V30 18689 H 1801.27 -0.303409 -2.93536 0
M  V30 18690 H 1801.35 -1.72671 -1.88728 0
M  V30 18691 H 1801 -3.2212 -3.92685 0
M  V30 18692 H 1800.93 -1.77102 -4.95926 0
M  V30 18693 H 1803.42 -1.64373 -3.40279 0
M  V30 18694 H 1803.73 -3.91341 -6.66387 0
M  V30 18695 H 1802.08 -3.51344 -5.99652 0
M  V30 18696 H 1805.27 -2.1116 -4.17767 0
M  V30 18697 H 1805.44 -3.14639 -5.66486 0
M  V30 18698 N 1798.85 1.47045 -0.567045 0
M  V30 18699 C 1800.12 1.9559 0.0194544 0
M  V30 18700 C 1800.5 1.5097 1.47551 0
M  V30 18701 O 1799.85 0.753072 2.15734 0
M  V30 18702 C 1800.06 3.48734 -0.136263 0
M  V30 18703 C 1801.41 4.246 0.00401745 0
M  V30 18704 O 1802.43 3.56142 -0.0643042 0
M  V30 18705 O 1801.29 5.46287 0.152706 0
M  V30 18706 H 1798.39 0.82492 0.0586233 0
M  V30 18707 H 1800.93 1.57401 -0.634262 0
M  V30 18708 H 1799.71 3.74048 -1.14909 0
M  V30 18709 H 1799.33 3.93713 0.554612 0
M  V30 18710 N 1800.33 0.304 1.5464 0
M  V30 18711 C 1801.57 -0.303793 1.99804 0
M  V30 18712 C 1801.89 -1.54179 1.19389 0
M  V30 18713 O 1801.16 -1.93732 0.290631 0
M  V30 18714 H 1799.74 -0.115241 0.738057 0
M  V30 18715 H 1802.41 0.416024 1.90408 0
M  V30 18716 H 1801.5 -0.573759 3.06781 0
M  V30 18717 N 1801.8 -1.57568 0.0317802 0
M  V30 18718 C 1802.74 -2.07288 -0.977981 0
M  V30 18719 C 1803.75 -0.99682 -1.28714 0
M  V30 18720 O 1804.94 -1.27295 -1.25133 0
M  V30 18721 C 1802.04 -2.48469 -2.3047 0
M  V30 18722 C 1801.21 -3.79185 -2.18031 0
M  V30 18723 C 1800.27 -4.06888 -3.33659 0
M  V30 18724 O 1799.3 -4.771 -3.10426 0
M  V30 18725 N 1800.5 -3.57271 -4.57534 0
M  V30 18726 H 1803.26 -2.9454 -0.553743 0
M  V30 18727 H 1800.82 -1.61157 -0.154917 0
M  V30 18728 H 1802.82 -2.64092 -3.06655 0
M  V30 18729 H 1801.39 -1.66568 -2.64526 0
M  V30 18730 H 1800.61 -3.73333 -1.26556 0
M  V30 18731 H 1801.89 -4.64821 -2.06926 0
M  V30 18732 H 1801.29 -3.00474 -4.79303 0
M  V30 18733 H 1799.85 -3.78168 -5.30878 0
M  V30 18734 N 1803.28 0.241399 -1.5574 0
M  V30 18735 C 1804.53 0.970098 -1.78093 0
M  V30 18736 C 1804.86 1.84763 -0.598005 0
M  V30 18737 O 1804.14 1.90268 0.403516 0
M  V30 18738 C 1804.42 1.82594 -3.10373 0
M  V30 18739 C 1804.27 0.976228 -4.39078 0
M  V30 18740 C 1805.59 2.80743 -3.38927 0
M  V30 18741 H 1802.71 0.35125 -0.647914 0
M  V30 18742 H 1805.35 0.240232 -1.88475 0
M  V30 18743 H 1803.5 2.44823 -3.01652 0
M  V30 18744 H 1805.17 0.37222 -4.59796 0
M  V30 18745 H 1803.42 0.280807 -4.3289 0
M  V30 18746 H 1804.09 1.60899 -5.2803 0
M  V30 18747 H 1806.56 2.28651 -3.47646 0
M  V30 18748 H 1805.44 3.37743 -4.3269 0
M  V30 18749 H 1805.7 3.57484 -2.6011 0
M  V30 18750 N 1804.76 1.49212 0.507292 0
M  V30 18751 C 1806.01 1.58616 1.26368 0
M  V30 18752 C 1806.34 0.269215 1.92325 0
M  V30 18753 O 1805.61 -0.72672 1.80414 0
M  V30 18754 C 1805.9 2.74088 2.33555 0
M  V30 18755 C 1805.75 4.15557 1.7214 0
M  V30 18756 C 1807.07 2.85225 3.35164 0
M  V30 18757 H 1804.19 0.577347 0.458083 0
M  V30 18758 H 1806.83 1.81473 0.562797 0
M  V30 18759 H 1804.98 2.5473 2.93335 0
M  V30 18760 H 1806.65 4.46416 1.16236 0
M  V30 18761 H 1804.9 4.21498 1.02576 0
M  V30 18762 H 1805.57 4.92215 2.49856 0
M  V30 18763 H 1808.04 3.02828 2.85367 0
M  V30 18764 H 1806.92 3.67709 4.07531 0
M  V30 18765 H 1807.18 1.94316 3.97107 0
M  V30 18766 N 1806.24 -0.757876 1.38181 0
M  V30 18767 C 1807.2 -1.85317 1.34871 0
M  V30 18768 C 1808.2 -1.58844 0.250041 0
M  V30 18769 O 1809.39 -1.66668 0.506688 0
M  V30 18770 C 1806.52 -3.22712 1.09864 0
M  V30 18771 H 1807.72 -1.89661 2.32312 0
M  V30 18772 H 1805.27 -0.959122 1.23412 0
M  V30 18773 H 1806 -3.24039 0.130112 0
M  V30 18774 H 1805.79 -3.4332 1.89403 0
M  V30 18775 H 1807.28 -4.02789 1.10232 0
M  V30 18776 N 1807.72 -1.22979 -0.985586 0
M  V30 18777 C 1808.65 -1.03073 -2.09519 0
M  V30 18778 C 1809.63 0.0507025 -1.70024 0
M  V30 18779 O 1810.81 -0.112938 -1.93871 0
M  V30 18780 C 1807.94 -0.615578 -3.41801 0
M  V30 18781 C 1806.9 -1.64377 -3.95176 0
M  V30 18782 C 1806.22 -1.08422 -5.23592 0
M  V30 18783 C 1807.52 -3.03555 -4.25032 0
M  V30 18784 H 1809.22 -1.95882 -2.2643 0
M  V30 18785 H 1806.76 -0.943206 -1.0881 0
M  V30 18786 H 1808.72 -0.463394 -4.18844 0
M  V30 18787 H 1807.44 0.348185 -3.24739 0
M  V30 18788 H 1806.1 -1.78386 -3.20272 0
M  V30 18789 H 1805.75 -0.111597 -5.02876 0
M  V30 18790 H 1805.45 -1.77118 -5.6027 0
M  V30 18791 H 1806.97 -0.94378 -6.03262 0
M  V30 18792 H 1808.38 -2.92878 -4.92844 0
M  V30 18793 H 1806.78 -3.69441 -4.72899 0
M  V30 18794 H 1807.85 -3.52937 -3.32511 0
M  V30 18795 N 1809.19 1.18355 -1.04066 0
M  V30 18796 C 1810.61 1.69995 -0.771919 0
M  V30 18797 C 1810.96 1.83011 0.707213 0
M  V30 18798 O 1810.08 1.5096 1.55048 0
M  V30 18799 C 1810.68 3.08765 -1.39461 0
M  V30 18800 C 1809.24 3.57617 -1.17418 0
M  V30 18801 C 1808.38 2.34168 -1.48528 0
M  V30 18802 H 1811.33 1.0303 -1.20708 0
M  V30 18803 H 1811.35 3.72042 -0.79782 0
M  V30 18804 H 1810.87 2.9926 -2.47113 0
M  V30 18805 H 1808.97 3.72418 -0.116398 0
M  V30 18806 H 1809.08 4.41048 -1.87119 0
M  V30 18807 H 1807.44 2.38081 -0.904972 0
M  V30 18808 H 1808.23 2.27282 -2.57289 0
M  V30 18809 N 1810.67 0.820125 1.3458 0
M  V30 18810 C 1811.9 0.418747 2.03129 0
M  V30 18811 C 1812.32 -0.966605 1.61364 0
M  V30 18812 O 1811.68 -1.62847 0.796903 0
M  V30 18813 C 1811.73 0.525681 3.56748 0
M  V30 18814 O 1810.83 -0.455592 4.09876 0
M  V30 18815 H 1810.17 0.172819 0.641116 0
M  V30 18816 H 1812.7 1.10977 1.71888 0
M  V30 18817 H 1812.71 0.400422 4.0603 0
M  V30 18818 H 1811.39 1.53609 3.86493 0
M  V30 18819 H 1809.97 -0.289449 3.71775 0
M  V30 18820 N 1812.15 -1.46743 0.574835 0
M  V30 18821 C 1813.43 -1.95598 -0.00908149 0
M  V30 18822 C 1813.81 -1.5175 -1.46748 0
M  V30 18823 O 1813.16 -0.764502 -2.15331 0
M  V30 18824 C 1813.37 -3.48657 0.154756 0
M  V30 18825 C 1814.71 -4.24596 0.0185002 0
M  V30 18826 O 1815.74 -3.56103 0.0831904 0
M  V30 18827 O 1814.6 -5.4636 -0.123733 0
M  V30 18828 H 1811.69 -0.825219 -0.0542477 0
M  V30 18829 H 1814.24 -1.57063 0.6426 0
M  V30 18830 H 1813.01 -3.73433 1.16891 0
M  V30 18831 H 1812.63 -3.94001 -0.533724 0
M  V30 18832 N 1813.63 -0.312197 -1.54477 0
M  V30 18833 C 1814.88 0.293772 -2.00358 0
M  V30 18834 C 1815.2 1.5303 -1.2005 0
M  V30 18835 O 1814.46 1.93861 -0.267678 0
M  V30 18836 C 1814.76 0.684057 -3.50793 0
M  V30 18837 C 1814.42 -0.452004 -4.48629 0
M  V30 18838 C 1813.09 -0.763853 -4.75099 0
M  V30 18839 C 1815.44 -1.21567 -5.06824 0
M  V30 18840 C 1812.77 -1.84229 -5.57025 0
M  V30 18841 C 1815.12 -2.28412 -5.89924 0
M  V30 18842 C 1813.78 -2.60191 -6.14701 0
M  V30 18843 H 1813.05 0.107499 -0.733161 0
M  V30 18844 H 1815.7 -0.433618 -1.86526 0
M  V30 18845 H 1814 1.4917 -3.62292 0
M  V30 18846 H 1815.7 1.16428 -3.83726 0
M  V30 18847 H 1812.29 -0.198857 -4.28138 0
M  V30 18848 H 1816.47 -0.988007 -4.86366 0
M  V30 18849 H 1811.73 -2.09311 -5.74455 0
M  V30 18850 H 1815.9 -2.88037 -6.34041 0
M  V30 18851 H 1813.53 -3.43887 -6.77972 0
M  V30 18852 N 1815.11 1.57549 -0.040136 0
M  V30 18853 C 1816.35 1.9225 0.636094 0
M  V30 18854 C 1816.68 0.917539 1.71498 0
M  V30 18855 O 1815.94 -0.0718721 1.95568 0
M  V30 18856 C 1816.24 3.3366 1.28084 0
M  V30 18857 C 1815.9 4.49682 0.331249 0
M  V30 18858 C 1814.56 4.81149 0.0699171 0
M  V30 18859 C 1816.92 5.20216 -0.320179 0
M  V30 18860 C 1814.24 5.80503 -0.850464 0
M  V30 18861 C 1816.6 6.20553 -1.22868 0
M  V30 18862 C 1815.26 6.50455 -1.4988 0
M  V30 18863 H 1814.53 0.703493 0.232763 0
M  V30 18864 H 1817.18 1.91216 -0.104258 0
M  V30 18865 H 1815.48 3.31008 2.0962 0
M  V30 18866 H 1817.18 3.57785 1.81082 0
M  V30 18867 H 1813.77 4.25119 0.545114 0
M  V30 18868 H 1817.95 4.96126 -0.131354 0
M  V30 18869 H 1813.21 6.02012 -1.06733 0
M  V30 18870 H 1817.38 6.74323 -1.73958 0
M  V30 18871 H 1815.01 7.27257 -2.21362 0
M  V30 18872 N 1816.58 -0.233136 1.55866 0
M  V30 18873 C 1817.51 -1.29225 1.94482 0
M  V30 18874 C 1818.5 -1.49495 0.811503 0
M  V30 18875 O 1819.68 -1.61872 1.07289 0
M  V30 18876 C 1816.81 -2.64435 2.25147 0
M  V30 18877 C 1815.76 -2.5884 3.4086 0
M  V30 18878 C 1815.09 -3.97973 3.57102 0
M  V30 18879 C 1816.39 -2.14629 4.76164 0
M  V30 18880 H 1818.08 -0.971527 2.83199 0
M  V30 18881 H 1815.63 -0.465905 1.36255 0
M  V30 18882 H 1817.58 -3.38676 2.50752 0
M  V30 18883 H 1816.31 -2.98172 1.33271 0
M  V30 18884 H 1814.97 -1.87057 3.15286 0
M  V30 18885 H 1814.61 -4.28998 2.62621 0
M  V30 18886 H 1814.31 -3.95114 4.34924 0
M  V30 18887 H 1815.84 -4.73893 3.85043 0
M  V30 18888 H 1817.25 -2.78607 5.0105 0
M  V30 18889 H 1815.65 -2.22853 5.57186 0
M  V30 18890 H 1816.72 -1.09826 4.72299 0
M  V30 18891 N 1818.06 -1.49479 -0.499372 0
M  V30 18892 C 1819.48 -1.36278 -0.830692 0
M  V30 18893 C 1819.68 -0.397116 -1.97548 0
M  V30 18894 O 1818.74 0.170614 -2.51923 0
M  V30 18895 C 1820.05 -2.77031 -1.16937 0
M  V30 18896 C 1821.6 -2.85744 -1.27748 0
M  V30 18897 C 1822.07 -4.27267 -1.64944 0
M  V30 18898 N 1823.56 -4.30086 -1.7199 0
M  V30 18899 C 1824.3 -5.36559 -2.02218 0
M  V30 18900 N 1823.79 -6.53275 -2.30659 0
M  V30 18901 N 1825.59 -5.23976 -2.03483 0
M  V30 18902 H 1817.74 -2.10858 0.255497 0
M  V30 18903 H 1820 -0.946588 0.0517184 0
M  V30 18904 H 1819.71 -3.494 -0.401529 0
M  V30 18905 H 1819.58 -3.12501 -2.11242 0
M  V30 18906 H 1821.97 -2.13611 -2.03604 0
M  V30 18907 H 1822.05 -2.53854 -0.314901 0
M  V30 18908 H 1821.69 -4.99927 -0.896384 0
M  V30 18909 H 1821.62 -4.56622 -2.62305 0
M  V30 18910 H 1824.11 -3.45911 -1.52164 0
M  V30 18911 H 1824.43 -7.30241 -2.52918 0
M  V30 18912 H 1822.77 -6.56498 -2.28112 0
M  V30 18913 H 1825.96 -4.31799 -1.80741 0
M  V30 18914 H 1826.14 -6.07049 -2.26707 0
M  V30 18915 N 1819.54 0.750537 -1.38581 0
M  V30 18916 C 1820.79 1.50512 -1.34272 0
M  V30 18917 C 1821.1 1.95496 0.0636858 0
M  V30 18918 O 1822.31 2.7053 0.22932 0
M  V30 18919 C 1820.77 2.71891 -2.35803 0
M  V30 18920 C 1820.37 2.3392 -3.8208 0
M  V30 18921 C 1822.12 3.4977 -2.40543 0
M  V30 18922 C 1820.02 3.51928 -4.7529 0
M  V30 18923 H 1818.95 0.56515 -0.49912 0
M  V30 18924 H 1821.61 0.820167 -1.64151 0
M  V30 18925 H 1819.99 3.42383 -1.98972 0
M  V30 18926 H 1821.16 1.71075 -4.27867 0
M  V30 18927 H 1819.48 1.69168 -3.80488 0
M  V30 18928 H 1822.07 4.37519 -3.07379 0
M  V30 18929 H 1822.42 3.91141 -1.42527 0
M  V30 18930 H 1822.95 2.86294 -2.76189 0
M  V30 18931 H 1819.69 3.15621 -5.74512 0
M  V30 18932 H 1819.21 4.13807 -4.34194 0
M  V30 18933 H 1820.89 4.1847 -4.93449 0
M  V30 18934 N 1821.02 1.235 0.979051 0
M  V30 18935 C 1822.3 0.976124 1.69503 0
M  V30 18936 C 1822.68 -0.504883 2.04974 0
M  V30 18937 O 1822.02 -1.47642 1.74397 0
M  V30 18938 C 1822.23 1.8877 2.93542 0
M  V30 18939 C 1823.58 2.15196 3.66027 0
M  V30 18940 O 1824.61 1.8633 3.03578 0
M  V30 18941 O 1823.47 2.64157 4.78417 0
M  V30 18942 H 1820.56 0.36825 0.740487 0
M  V30 18943 H 1823.11 1.34549 1.03415 0
M  V30 18944 H 1821.88 2.88882 2.63937 0
M  V30 18945 H 1821.5 1.52079 3.67366 0
M  V30 18946 N 1822.5 -1.17802 1.04693 0
M  V30 18947 C 1823.72 -1.92408 0.774194 0
M  V30 18948 C 1824.15 -1.76012 -0.663424 0
M  V30 18949 O 1823.51 -1.07447 -1.4603 0
M  V30 18950 C 1823.55 -3.4166 1.1533 0
M  V30 18951 O 1822.66 -4.11431 0.282469 0
M  V30 18952 H 1822 -0.600033 0.284353 0
M  V30 18953 H 1824.53 -1.49348 1.39844 0
M  V30 18954 H 1824.54 -3.92386 1.11791 0
M  V30 18955 H 1823.21 -3.52914 2.20056 0
M  V30 18956 H 1821.79 -3.70979 0.378021 0
M  V30 18957 N 1823.98 -0.827251 -1.34143 0
M  V30 18958 C 1824.93 -0.224453 -2.26893 0
M  V30 18959 C 1825.91 0.6138 -1.48732 0
M  V30 18960 O 1827.1 0.467671 -1.7071 0
M  V30 18961 C 1824.23 0.60919 -3.37852 0
M  V30 18962 C 1823.32 -0.23993 -4.23421 0
M  V30 18963 N 1823.71 -1.31304 -4.8846 0
M  V30 18964 C 1822.01 -0.0249939 -4.45993 0
M  V30 18965 C 1822.71 -1.83317 -5.5206 0
M  V30 18966 N 1821.68 -1.1364 -5.31589 0
M  V30 18967 H 1825.48 -1.04524 -2.74685 0
M  V30 18968 H 1823 -0.670503 -1.47912 0
M  V30 18969 H 1825 1.05724 -4.03272 0
M  V30 18970 H 1823.66 1.42809 -2.91609 0
M  V30 18971 H 1824.67 -1.69587 -4.89347 0
M  V30 18972 H 1821.34 0.761393 -4.10499 0
M  V30 18973 H 1822.73 -2.73118 -6.13886 0
M  V30 18974 N 1825.45 1.46436 -0.582609 0
M  V30 18975 C 1826.87 1.5772 -0.244278 0
M  V30 18976 C 1827.07 1.57772 1.2534 0
M  V30 18977 O 1826.13 1.49463 2.03512 0
M  V30 18978 C 1827.44 2.87122 -0.893398 0
M  V30 18979 C 1828.99 3.00753 -0.866979 0
M  V30 18980 C 1829.46 4.32891 -1.49564 0
M  V30 18981 N 1830.95 4.3959 -1.45998 0
M  V30 18982 C 1831.69 5.40449 -1.91578 0
M  V30 18983 N 1831.18 6.47983 -2.45132 0
M  V30 18984 N 1832.98 5.3165 -1.82496 0
M  V30 18985 H 1825.13 1.44646 -1.55536 0
M  V30 18986 H 1827.39 0.689972 -0.650109 0
M  V30 18987 H 1827.1 2.92894 -1.94695 0
M  V30 18988 H 1826.97 3.75056 -0.40156 0
M  V30 18989 H 1829.36 2.94563 0.177954 0
M  V30 18990 H 1829.44 2.14295 -1.39684 0
M  V30 18991 H 1829.08 4.39839 -2.53977 0
M  V30 18992 H 1829.01 5.18124 -0.94101 0
M  V30 18993 H 1831.5 3.62479 -1.06851 0
M  V30 18994 H 1831.82 7.21154 -2.7777 0
M  V30 18995 H 1830.16 6.48803 -2.49157 0
M  V30 18996 H 1833.35 4.46543 -1.40416 0
M  V30 18997 H 1833.53 6.1011 -2.18334 0
M  V30 18998 N 1826.93 0.320385 1.54309 0
M  V30 18999 C 1827.84 -0.556017 2.27916 0
M  V30 19000 C 1828.86 -1.13192 1.32149 0
M  V30 19001 O 1830.03 -1.15257 1.6516 0
M  V30 19002 C 1827.1 -1.70244 3.02023 0
M  V30 19003 C 1826.16 -1.15866 4.13369 0
M  V30 19004 C 1825.39 -2.25044 4.83933 0
M  V30 19005 O 1825.62 -3.45327 4.53988 0
M  V30 19006 O 1824.55 -1.90642 5.70911 0
M  V30 19007 H 1828.38 0.0416563 3.03671 0
M  V30 19008 H 1825.96 0.0861809 1.49151 0
M  V30 19009 H 1827.84 -2.36995 3.48442 0
M  V30 19010 H 1826.52 -2.28635 2.29146 0
M  V30 19011 H 1825.42 -0.456323 3.71306 0
M  V30 19012 H 1826.76 -0.619916 4.88281 0
M  V30 19013 N 1828.41 -1.57525 0.0484906 0
M  V30 19014 C 1829.69 -1.83927 -0.66561 0
M  V30 19015 C 1830.07 -0.93636 -1.89197 0
M  V30 19016 O 1829.41 0.00326905 -2.285 0
M  V30 19017 C 1829.62 -3.33595 -1.02545 0
M  V30 19018 C 1830.97 -4.00544 -1.40889 0
M  V30 19019 O 1832 -3.38204 -1.11787 0
M  V30 19020 O 1830.86 -5.10454 -1.95189 0
M  V30 19021 H 1827.95 -0.759042 -0.328305 0
M  V30 19022 H 1830.5 -1.69522 0.0776497 0
M  V30 19023 H 1829.27 -3.90999 -0.153456 0
M  V30 19024 H 1828.89 -3.53177 -1.82625 0
M  V30 19025 N 1829.89 0.224867 -1.55988 0
M  V30 19026 C 1830.85 1.26214 -1.91318 0
M  V30 19027 C 1831.85 1.39973 -0.791472 0
M  V30 19028 O 1833.04 1.38295 -1.05926 0
M  V30 19029 C 1830.17 2.63648 -2.16107 0
M  V30 19030 H 1831.37 0.960933 -2.84088 0
M  V30 19031 H 1828.92 0.465138 -1.49218 0
M  V30 19032 H 1829.65 2.98873 -1.25878 0
M  V30 19033 H 1829.44 2.5504 -2.97821 0
M  V30 19034 H 1830.93 3.38505 -2.44548 0
M  V30 19035 N 1831.37 1.49742 0.491438 0
M  V30 19036 C 1832.33 1.66587 1.57421 0
M  V30 19037 C 1833.33 0.537281 1.51558 0
M  V30 19038 O 1834.52 0.803928 1.5454 0
M  V30 19039 C 1831.65 1.67217 2.97071 0
M  V30 19040 H 1832.84 2.63171 1.4381 0
M  V30 19041 H 1830.4 1.38917 0.716368 0
M  V30 19042 H 1831.13 0.722529 3.16149 0
M  V30 19043 H 1830.92 2.49187 3.02734 0
M  V30 19044 H 1832.41 1.82274 3.75721 0
M  V30 19045 N 1832.84 -0.743177 1.38977 0
M  V30 19046 C 1833.75 -1.88767 1.39299 0
M  V30 19047 C 1834.77 -1.71587 0.288782 0
M  V30 19048 O 1835.95 -1.94331 0.52892 0
M  V30 19049 C 1833.01 -3.24263 1.22697 0
M  V30 19050 C 1832.07 -3.53895 2.43017 0
M  V30 19051 C 1831.31 -4.82925 2.27198 0
M  V30 19052 O 1831.53 -5.56056 1.27114 0
M  V30 19053 O 1830.46 -5.12271 3.16009 0
M  V30 19054 H 1834.29 -1.9145 2.35755 0
M  V30 19055 H 1831.87 -0.889881 1.20006 0
M  V30 19056 H 1833.76 -4.05251 1.1554 0
M  V30 19057 H 1832.43 -3.22368 0.293317 0
M  V30 19058 H 1831.34 -2.73026 2.5575 0
M  V30 19059 H 1832.67 -3.6056 3.35048 0
M  V30 19060 N 1834.32 -1.24018 -0.972487 0
M  V30 19061 C 1835.25 -1.0529 -2.08414 0
M  V30 19062 C 1836.23 0.0326663 -1.70069 0
M  V30 19063 O 1837.42 -0.133494 -1.93741 0
M  V30 19064 C 1834.55 -0.651796 -3.41129 0
M  V30 19065 C 1833.5 -1.68559 -3.9341 0
M  V30 19066 C 1832.83 -1.1397 -5.22413 0
M  V30 19067 C 1834.13 -3.08046 -4.21788 0
M  V30 19068 H 1835.82 -1.98272 -2.2434 0
M  V30 19069 H 1833.37 -0.954694 -1.07804 0
M  V30 19070 H 1835.32 -0.507792 -4.18329 0
M  V30 19071 H 1834.05 0.313722 -3.2509 0
M  V30 19072 H 1832.7 -1.81773 -3.18362 0
M  V30 19073 H 1832.35 -0.164928 -5.0273 0
M  V30 19074 H 1832.05 -1.83051 -5.5836 0
M  V30 19075 H 1833.58 -1.00771 -6.02227 0
M  V30 19076 H 1834.99 -2.98088 -4.8971 0
M  V30 19077 H 1833.39 -3.74436 -4.68954 0
M  V30 19078 H 1834.46 -3.56444 -3.28749 0
M  V30 19079 N 1835.8 1.17245 -1.05316 0
M  V30 19080 C 1837.08 1.83482 -0.677779 0
M  V30 19081 C 1837.46 1.93592 0.841753 0
M  V30 19082 O 1836.81 1.47142 1.74818 0
M  V30 19083 C 1837.02 3.21062 -1.36823 0
M  V30 19084 C 1838.36 3.96954 -1.50708 0
M  V30 19085 O 1839.39 3.30545 -1.32734 0
M  V30 19086 O 1838.25 5.15967 -1.80111 0
M  V30 19087 H 1835.34 0.79179 -0.238741 0
M  V30 19088 H 1837.89 1.24531 -1.15283 0
M  V30 19089 H 1836.66 3.08679 -2.40484 0
M  V30 19090 H 1836.28 3.8768 -0.882617 0
M  V30 19091 N 1837.28 0.834353 1.33702 0
M  V30 19092 C 1838.56 0.350003 1.92443 0
M  V30 19093 C 1838.94 -1.1641 1.76102 0
M  V30 19094 O 1838.28 -1.97646 1.14666 0
M  V30 19095 C 1838.49 0.791928 3.39896 0
M  V30 19096 C 1839.84 0.797338 4.17046 0
M  V30 19097 O 1840.87 0.735242 3.48529 0
M  V30 19098 O 1839.72 0.880963 5.39353 0
M  V30 19099 H 1836.82 0.0981048 0.82116 0
M  V30 19100 H 1839.36 0.919905 1.42604 0
M  V30 19101 H 1838.14 1.83433 3.45641 0
M  V30 19102 H 1837.76 0.198349 3.97105 0
M  V30 19103 N 1838.76 -1.46125 0.590367 0
M  V30 19104 C 1840.03 -1.95597 0.0116648 0
M  V30 19105 C 1840.41 -1.53298 -1.45131 0
M  V30 19106 O 1839.76 -0.787298 -2.14508 0
M  V30 19107 C 1839.97 -3.48473 0.191727 0
M  V30 19108 C 1841.32 -4.24552 0.0635332 0
M  V30 19109 O 1842.34 -3.55995 0.120955 0
M  V30 19110 O 1841.2 -5.4646 -0.0657772 0
M  V30 19111 H 1838.3 -0.825748 -0.0454921 0
M  V30 19112 H 1840.84 -1.56372 0.659223 0
M  V30 19113 H 1839.61 -3.72172 1.20846 0
M  V30 19114 H 1839.24 -3.94545 -0.491905 0
M  V30 19115 N 1840.23 -0.328564 -1.54137 0
M  V30 19116 C 1841.46 0.277044 -2.05541 0
M  V30 19117 C 1841.88 1.44613 -1.20285 0
M  V30 19118 O 1841.24 1.80043 -0.213107 0
M  V30 19119 C 1841.29 0.684495 -3.54044 0
M  V30 19120 O 1840.39 1.78629 -3.71706 0
M  V30 19121 H 1839.74 0.049078 -0.662184 0
M  V30 19122 H 1842.27 -0.478426 -1.98928 0
M  V30 19123 H 1842.28 0.965784 -3.96405 0
M  V30 19124 H 1840.95 -0.170554 -4.1555 0
M  V30 19125 H 1839.53 1.50343 -3.4125 0
M  V30 19126 N 1841.71 1.57497 -0.0568439 0
M  V30 19127 C 1842.62 2.1535 0.930668 0
M  V30 19128 C 1843.64 1.11276 1.33767 0
M  V30 19129 O 1844.81 1.43472 1.41343 0
M  V30 19130 C 1841.88 2.69165 2.18521 0
M  V30 19131 C 1840.94 3.88057 1.83603 0
M  V30 19132 C 1840.17 4.39296 3.03076 0
M  V30 19133 O 1840.4 3.89588 4.16627 0
M  V30 19134 O 1839.33 5.30814 2.8376 0
M  V30 19135 H 1843.16 3.00063 0.468623 0
M  V30 19136 H 1840.74 1.48482 0.16538 0
M  V30 19137 H 1842.62 3.03721 2.92116 0
M  V30 19138 H 1841.3 1.8752 2.63852 0
M  V30 19139 H 1840.21 3.5838 1.07306 0
M  V30 19140 H 1841.54 4.70949 1.43066 0
M  V30 19141 N 1843.19 -0.216591 1.56105 0
M  V30 19142 C 1844.47 -0.964874 1.70146 0
M  V30 19143 C 1844.85 -2.02229 0.605524 0
M  V30 19144 O 1844.2 -2.25203 -0.386742 0
M  V30 19145 C 1844.41 -1.57082 3.11651 0
M  V30 19146 C 1845.75 -2.06118 3.71215 0
M  V30 19147 O 1846.78 -1.66966 3.14644 0
M  V30 19148 O 1845.64 -2.78095 4.70452 0
M  V30 19149 H 1842.73 -0.451047 0.693171 0
M  V30 19150 H 1845.28 -0.207982 1.68421 0
M  V30 19151 H 1844.05 -0.80754 3.82877 0
M  V30 19152 H 1843.67 -2.39312 3.17515 0
M  V30 19153 N 1844.67 -1.5 -0.48349 0
M  V30 19154 C 1845.89 -1.64376 -1.26473 0
M  V30 19155 C 1846.32 -0.321912 -1.85325 0
M  V30 19156 O 1845.68 0.712714 -1.66704 0
M  V30 19157 C 1845.72 -2.72803 -2.35819 0
M  V30 19158 O 1844.83 -2.33194 -3.40139 0
M  V30 19159 H 1844.17 -0.549589 -0.372624 0
M  V30 19160 H 1846.7 -1.963 -0.57684 0
M  V30 19161 H 1846.71 -2.95505 -2.8132 0
M  V30 19162 H 1845.38 -3.68745 -1.92353 0
M  V30 19163 H 1843.96 -2.20891 -3.00436 0
M  V30 19164 N 1846.15 0.735796 -1.39369 0
M  V30 19165 C 1847.39 1.50799 -1.37982 0
M  V30 19166 C 1847.75 1.91984 0.0248794 0
M  V30 19167 O 1848.95 2.68301 0.163755 0
M  V30 19168 C 1847.22 2.71494 -2.32434 0
M  V30 19169 S 1848.78 3.61153 -2.49227 0
M  V30 19170 H 1845.6 0.515828 -0.489329 0
M  V30 19171 H 1848.2 0.862229 -1.75459 0
M  V30 19172 H 1846.91 2.39376 -3.33358 0
M  V30 19173 H 1846.44 3.41 -1.96169 0
M  V30 19174 H 1848.45 4.6508 -1.72959 0
M  V30 19175 N 1847.63 1.24532 0.965897 0
M  V30 19176 C 1848.87 1.09801 1.72404 0
M  V30 19177 C 1849.23 -0.356766 1.88656 0
M  V30 19178 O 1850.43 -0.625626 2.61418 0
M  V30 19179 C 1848.7 1.8194 3.07624 0
M  V30 19180 S 1850.26 1.82962 3.98836 0
M  V30 19181 H 1847.08 0.392672 0.592731 0
M  V30 19182 H 1849.68 1.57889 1.15288 0
M  V30 19183 H 1848.38 2.86899 2.93457 0
M  V30 19184 H 1847.92 1.34193 3.69805 0
M  V30 19185 H 1849.93 0.898584 4.87996 0
M  V30 19186 N 1849.1 -1.16685 1.05936 0
M  V30 19187 C 1850.03 -2.23129 0.688153 0
M  V30 19188 C 1851.01 -1.67108 -0.31765 0
M  V30 19189 O 1852.2 -1.93233 -0.193578 0
M  V30 19190 C 1849.33 -3.47229 0.069991 0
M  V30 19191 C 1848.28 -4.16121 1.00137 0
M  V30 19192 C 1847.61 -5.34131 0.246699 0
M  V30 19193 C 1848.91 -4.67508 2.32882 0
M  V30 19194 H 1850.6 -2.54436 1.57806 0
M  V30 19195 H 1848.15 -1.22298 0.76021 0
M  V30 19196 H 1850.1 -4.20918 -0.201545 0
M  V30 19197 H 1848.83 -3.15212 -0.854909 0
M  V30 19198 H 1847.49 -3.44355 1.25759 0
M  V30 19199 H 1847.13 -4.98366 -0.681204 0
M  V30 19200 H 1846.83 -5.81163 0.867373 0
M  V30 19201 H 1848.36 -6.10598 -0.0173762 0
M  V30 19202 H 1849.77 -5.32795 2.11666 0
M  V30 19203 H 1848.17 -5.25147 2.90414 0
M  V30 19204 H 1849.24 -3.83912 2.96209 0
M  V30 19205 N 1850.58 -0.841432 -1.33258 0
M  V30 19206 C 1852 -0.529552 -1.50559 0
M  V30 19207 C 1852.2 0.942598 -1.78094 0
M  V30 19208 O 1851.25 1.72628 -1.84271 0
M  V30 19209 C 1852.57 -1.40511 -2.65852 0
M  V30 19210 C 1854.11 -1.40415 -2.79737 0
M  V30 19211 C 1854.59 -2.26462 -3.98094 0
M  V30 19212 N 1856.08 -2.24185 -4.05334 0
M  V30 19213 C 1856.82 -2.875 -4.96116 0
M  V30 19214 N 1856.31 -3.59877 -5.91997 0
M  V30 19215 N 1858.1 -2.76957 -4.89133 0
M  V30 19216 H 1850.26 -1.79438 -1.13648 0
M  V30 19217 H 1852.52 -0.765683 -0.558958 0
M  V30 19218 H 1852.22 -2.45136 -2.52193 0
M  V30 19219 H 1852.1 -1.08299 -3.61319 0
M  V30 19220 H 1854.49 -0.365604 -2.92826 0
M  V30 19221 H 1854.57 -1.76636 -1.85023 0
M  V30 19222 H 1854.21 -3.30377 -3.85764 0
M  V30 19223 H 1854.14 -1.87581 -4.92058 0
M  V30 19224 H 1856.63 -1.71553 -3.36716 0
M  V30 19225 H 1856.94 -4.05388 -6.57936 0
M  V30 19226 H 1855.29 -3.63985 -5.92064 0
M  V30 19227 H 1858.48 -2.19974 -4.13194 0
M  V30 19228 H 1858.65 -3.26585 -5.59684 0
M  V30 19229 N 1852.06 1.4581 -0.598108 0
M  V30 19230 C 1852.99 2.33223 0.113747 0
M  V30 19231 C 1853.97 1.46268 0.868312 0
M  V30 19232 O 1855.16 1.75058 0.840737 0
M  V30 19233 C 1852.29 3.28815 1.11795 0
M  V30 19234 C 1851.24 4.25331 0.477223 0
M  V30 19235 C 1850.57 5.10544 1.589 0
M  V30 19236 C 1851.87 5.18894 -0.595518 0
M  V30 19237 H 1853.56 2.92992 -0.616123 0
M  V30 19238 H 1851.11 1.40888 -0.297741 0
M  V30 19239 H 1853.06 3.88832 1.62443 0
M  V30 19240 H 1851.78 2.67185 1.87829 0
M  V30 19241 H 1850.44 3.66599 -0.00831044 0
M  V30 19242 H 1850.09 4.45288 2.33939 0
M  V30 19243 H 1849.79 5.75918 1.16584 0
M  V30 19244 H 1851.31 5.73427 2.09794 0
M  V30 19245 H 1852.73 5.73037 -0.173494 0
M  V30 19246 H 1851.12 5.92694 -0.939873 0
M  V30 19247 H 1852.19 4.61895 -1.47584 0
M  V30 19248 N 1853.54 0.336733 1.53961 0
M  V30 19249 C 1854.49 -0.539031 2.21537 0
M  V30 19250 C 1855.47 -1.07141 1.2004 0
M  V30 19251 O 1856.66 -1.00624 1.45615 0
M  V30 19252 C 1853.79 -1.69289 2.98657 0
M  V30 19253 C 1852.88 -1.17478 4.07504 0
M  V30 19254 N 1853.27 -0.377364 5.0439 0
M  V30 19255 C 1851.57 -1.4523 4.21692 0
M  V30 19256 C 1852.27 -0.0970043 5.81619 0
M  V30 19257 N 1851.24 -0.686775 5.39244 0
M  V30 19258 H 1855.05 0.077355 2.93798 0
M  V30 19259 H 1852.56 0.14325 1.61767 0
M  V30 19260 H 1854.56 -2.33219 3.45564 0
M  V30 19261 H 1853.22 -2.31263 2.2792 0
M  V30 19262 H 1854.23 -0.019042 5.17896 0
M  V30 19263 H 1850.91 -2.07693 3.62174 0
M  V30 19264 H 1852.3 0.545809 6.69679 0
M  V30 19265 N 1855.02 -1.57465 0.0651956 0
M  V30 19266 C 1855.96 -2.12345 -0.904345 0
M  V30 19267 C 1856.93 -1.03429 -1.29968 0
M  V30 19268 O 1858.12 -1.31055 -1.38669 0
M  V30 19269 C 1855.26 -2.68423 -2.16895 0
M  V30 19270 C 1854.37 -3.91472 -1.82684 0
M  V30 19271 C 1853.51 -4.35816 -3.03706 0
M  V30 19272 C 1852.54 -5.5153 -2.65482 0
M  V30 19273 N 1851.68 -5.90863 -3.79242 0
M  V30 19274 H 1856.52 -2.94889 -0.429468 0
M  V30 19275 H 1854.06 -1.45729 -0.200344 0
M  V30 19276 H 1856.02 -2.99041 -2.90913 0
M  V30 19277 H 1854.65 -1.88654 -2.61934 0
M  V30 19278 H 1853.7 -3.67357 -0.987564 0
M  V30 19279 H 1855.01 -4.75536 -1.50557 0
M  V30 19280 H 1854.16 -4.68062 -3.86009 0
M  V30 19281 H 1852.9 -3.50593 -3.39022 0
M  V30 19282 H 1851.91 -5.18943 -1.81598 0
M  V30 19283 H 1853.13 -6.3848 -2.31343 0
M  V30 19284 H 1851.08 -5.08591 -4.14332 0
M  V30 19285 H 1851 -6.69651 -3.50861 0
M  V30 19286 H 1852.26 -6.27729 -4.62144 0
M  V30 19287 N 1856.49 0.20831 -1.56217 0
M  V30 19288 C 1857.74 0.932104 -1.8011 0
M  V30 19289 C 1858.07 1.83453 -0.637061 0
M  V30 19290 O 1857.35 1.91081 0.363066 0
M  V30 19291 C 1857.63 1.7597 -3.14176 0
M  V30 19292 C 1857.48 0.882874 -4.4105 0
M  V30 19293 C 1858.8 2.7349 -3.44806 0
M  V30 19294 H 1855.92 0.337428 -0.655218 0
M  V30 19295 H 1858.56 0.2002 -1.88942 0
M  V30 19296 H 1856.71 2.38369 -3.06778 0
M  V30 19297 H 1858.39 0.274607 -4.60482 0
M  V30 19298 H 1856.63 0.188921 -4.33388 0
M  V30 19299 H 1857.3 1.49662 -5.31324 0
M  V30 19300 H 1859.78 2.21225 -3.52418 0
M  V30 19301 H 1858.65 3.28489 -4.39757 0
M  V30 19302 H 1858.91 3.51887 -2.67635 0
M  V30 19303 N 1857.97 1.50255 0.475528 0
M  V30 19304 C 1858.9 1.71721 1.58222 0
M  V30 19305 C 1859.88 0.56612 1.60403 0
M  V30 19306 O 1861.07 0.804774 1.7674 0
M  V30 19307 C 1858.2 1.80726 2.96573 0
M  V30 19308 C 1857.15 2.95877 3.09258 0
M  V30 19309 C 1856.48 2.9002 4.49213 0
M  V30 19310 C 1857.78 4.36452 2.86891 0
M  V30 19311 H 1859.47 2.6438 1.40511 0
M  V30 19312 H 1857.02 1.27224 0.674533 0
M  V30 19313 H 1858.97 1.94328 3.73918 0
M  V30 19314 H 1857.69 0.846846 3.1543 0
M  V30 19315 H 1856.35 2.81918 2.34345 0
M  V30 19316 H 1856 1.91834 4.64982 0
M  V30 19317 H 1855.7 3.67322 4.58637 0
M  V30 19318 H 1857.23 3.05665 5.28584 0
M  V30 19319 H 1858.64 4.5096 3.53989 0
M  V30 19320 H 1857.04 5.15171 3.07765 0
M  V30 19321 H 1858.11 4.49129 1.82786 0
M  V30 19322 N 1859.45 -0.728395 1.39758 0
M  V30 19323 C 1860.36 -1.87279 1.41293 0
M  V30 19324 C 1861.38 -1.71271 0.306965 0
M  V30 19325 O 1862.55 -1.93759 0.549502 0
M  V30 19326 C 1859.62 -3.22943 1.2613 0
M  V30 19327 C 1858.68 -3.51297 2.46756 0
M  V30 19328 C 1857.91 -4.80489 2.32307 0
M  V30 19329 O 1858.13 -5.54676 1.33005 0
M  V30 19330 O 1857.07 -5.08891 3.21425 0
M  V30 19331 H 1860.89 -1.88939 2.37773 0
M  V30 19332 H 1858.48 -0.877103 1.20943 0
M  V30 19333 H 1860.36 -4.04003 1.19832 0
M  V30 19334 H 1859.04 -3.22039 0.327492 0
M  V30 19335 H 1857.94 -2.70298 2.58631 0
M  V30 19336 H 1859.28 -3.56986 3.38853 0
M  V30 19337 N 1860.93 -1.25042 -0.959279 0
M  V30 19338 C 1862.34 -1.08692 -1.51799 0
M  V30 19339 C 1862.69 0.338893 -1.93251 0
M  V30 19340 O 1861.81 1.22831 -1.78162 0
M  V30 19341 C 1862.41 -1.9669 -2.7586 0
M  V30 19342 C 1860.97 -1.84538 -3.28059 0
M  V30 19343 C 1860.12 -1.91119 -2.0092 0
M  V30 19344 H 1863.07 -1.38396 -0.776669 0
M  V30 19345 H 1863.09 -1.50414 -3.49508 0
M  V30 19346 H 1862.6 -3.00455 -2.45659 0
M  V30 19347 H 1860.7 -0.836383 -3.63091 0
M  V30 19348 H 1860.81 -2.69095 -3.96389 0
M  V30 19349 H 1859.18 -1.34948 -2.16012 0
M  V30 19350 H 1859.96 -2.9648 -1.73074 0
M  V30 19351 N 1862.41 1.16121 -1.06553 0
M  V30 19352 C 1863.64 1.90335 -0.803506 0
M  V30 19353 C 1864.04 1.77824 0.646172 0
M  V30 19354 O 1863.39 1.12231 1.4543 0
M  V30 19355 C 1863.45 3.41537 -1.12219 0
M  V30 19356 C 1863.11 3.77833 -2.57082 0
M  V30 19357 C 1864.11 3.79533 -3.55318 0
M  V30 19358 C 1861.8 4.08385 -2.92449 0
M  V30 19359 C 1863.79 4.11277 -4.8696 0
M  V30 19360 C 1861.48 4.39795 -4.24291 0
M  V30 19361 C 1862.47 4.41221 -5.21357 0
M  V30 19362 O 1862.16 4.71883 -6.50831 0
M  V30 19363 H 1861.89 0.610323 -0.290658 0
M  V30 19364 H 1864.45 1.48107 -1.42315 0
M  V30 19365 H 1862.68 3.84125 -0.445483 0
M  V30 19366 H 1864.37 3.97029 -0.843985 0
M  V30 19367 H 1865.13 3.56038 -3.29336 0
M  V30 19368 H 1861.01 4.06439 -2.17551 0
M  V30 19369 H 1864.56 4.12305 -5.62717 0
M  V30 19370 H 1860.45 4.62756 -4.5003 0
M  V30 19371 H 1861.22 4.89683 -6.5586 0
M  V30 19372 N 1863.88 0.848487 1.3281 0
M  V30 19373 C 1864.83 0.286636 2.29013 0
M  V30 19374 C 1865.8 -0.602944 1.5477 0
M  V30 19375 O 1866.99 -0.539169 1.83024 0
M  V30 19376 C 1864.13 -0.524193 3.41096 0
M  V30 19377 C 1863.24 0.390486 4.30232 0
M  V30 19378 C 1862.37 -0.432376 5.29437 0
M  V30 19379 C 1861.41 0.48009 6.10214 0
M  V30 19380 N 1860.55 -0.30522 7.01436 0
M  V30 19381 H 1865.39 1.1123 2.76463 0
M  V30 19382 H 1862.93 0.559956 1.36025 0
M  V30 19383 H 1864.89 -1.00987 4.04793 0
M  V30 19384 H 1863.52 -1.31474 2.94813 0
M  V30 19385 H 1862.57 0.994518 3.6717 0
M  V30 19386 H 1863.88 1.09103 4.86722 0
M  V30 19387 H 1863.03 -0.981471 5.98709 0
M  V30 19388 H 1861.77 -1.16631 4.73549 0
M  V30 19389 H 1860.78 1.04112 5.39853 0
M  V30 19390 H 1862 1.21254 6.68187 0
M  V30 19391 H 1859.95 -1.02236 6.47984 0
M  V30 19392 H 1859.87 0.336414 7.55251 0
M  V30 19393 H 1861.13 -0.836242 7.75001 0
M  V30 19394 N 1865.36 -1.4549 0.605832 0
M  V30 19395 C 1866.77 -1.85775 0.18559 0
M  V30 19396 C 1867.12 -1.50638 -1.25708 0
M  V30 19397 O 1866.25 -0.932227 -1.95291 0
M  V30 19398 C 1866.84 -3.37189 0.330043 0
M  V30 19399 C 1865.4 -3.76383 -0.0354934 0
M  V30 19400 C 1864.55 -2.69446 0.655297 0
M  V30 19401 H 1867.5 -1.36316 0.812624 0
M  V30 19402 H 1867.52 -3.77968 -0.438236 0
M  V30 19403 H 1867.03 -3.62731 1.38014 0
M  V30 19404 H 1865.14 -3.56458 -1.08483 0
M  V30 19405 H 1865.25 -4.77769 0.356935 0
M  V30 19406 H 1863.61 -2.5453 0.0931235 0
M  V30 19407 H 1864.4 -2.97825 1.70749 0
M  V30 19408 N 1866.84 -0.344893 -1.5378 0
M  V30 19409 C 1867.77 0.545646 -2.2261 0
M  V30 19410 C 1868.79 1.06288 -1.23315 0
M  V30 19411 O 1869.97 0.972802 -1.49662 0
M  V30 19412 C 1867.07 1.76379 -2.89385 0
M  V30 19413 C 1866.25 1.38162 -4.15006 0
M  V30 19414 C 1865.31 2.45958 -4.65179 0
M  V30 19415 O 1864.33 2.0921 -5.29358 0
M  V30 19416 N 1865.53 3.77232 -4.41221 0
M  V30 19417 H 1868.3 -0.043834 -2.99668 0
M  V30 19418 H 1865.86 -0.169081 -1.61015 0
M  V30 19419 H 1867.85 2.47928 -3.19865 0
M  V30 19420 H 1866.42 2.26061 -2.15905 0
M  V30 19421 H 1865.64 0.496839 -3.91056 0
M  V30 19422 H 1866.93 1.10227 -4.96717 0
M  V30 19423 H 1866.33 4.09875 -3.89896 0
M  V30 19424 H 1864.89 4.44947 -4.76304 0
M  V30 19425 N 1868.32 1.57428 -0.0735454 0
M  V30 19426 C 1869.56 1.94654 0.590036 0
M  V30 19427 C 1869.92 0.953457 1.67114 0
M  V30 19428 O 1869.21 -0.0239893 1.91585 0
M  V30 19429 C 1869.41 3.36302 1.20978 0
M  V30 19430 C 1869.24 4.49297 0.190244 0
M  V30 19431 C 1868.01 5.04796 -0.225707 0
M  V30 19432 C 1870.2 5.11096 -0.573191 0
M  V30 19433 N 1868.19 6.01334 -1.23577 0
M  V30 19434 C 1869.56 6.03149 -1.43568 0
M  V30 19435 C 1871.61 4.9391 -0.629068 0
M  V30 19436 C 1870.31 6.7986 -2.34909 0
M  V30 19437 C 1872.34 5.71266 -1.52999 0
M  V30 19438 C 1871.7 6.62969 -2.38015 0
M  V30 19439 H 1867.8 0.759341 0.186884 0
M  V30 19440 H 1870.39 1.94113 -0.151096 0
M  V30 19441 H 1868.56 3.37578 1.92083 0
M  V30 19442 H 1870.29 3.6076 1.83398 0
M  V30 19443 H 1867.04 4.73337 0.157761 0
M  V30 19444 H 1867.47 6.54301 -1.73836 0
M  V30 19445 H 1872.11 4.22798 0.014025 0
M  V30 19446 H 1869.83 7.50249 -3.00253 0
M  V30 19447 H 1873.41 5.59989 -1.57808 0
M  V30 19448 H 1872.29 7.21781 -3.06597 0
M  V30 19449 N 1869.8 -0.200022 1.56326 0
M  V30 19450 C 1871.04 -0.927997 1.8212 0
M  V30 19451 C 1871.4 -1.80652 0.650305 0
M  V30 19452 O 1872.6 -2.56989 0.788027 0
M  V30 19453 C 1870.87 -1.72682 3.12915 0
M  V30 19454 S 1872.43 -2.50748 3.60098 0
M  V30 19455 H 1869.25 -0.311347 0.639206 0
M  V30 19456 H 1871.85 -0.191791 1.94557 0
M  V30 19457 H 1870.56 -1.07195 3.96153 0
M  V30 19458 H 1870.09 -2.50493 3.03343 0
M  V30 19459 H 1872.1 -3.74828 3.25143 0
M  V30 19460 N 1871.27 -1.50505 -0.467553 0
M  V30 19461 C 1872.69 -1.38009 -0.801599 0
M  V30 19462 C 1872.89 -0.43893 -1.96661 0
M  V30 19463 O 1871.95 0.117139 -2.52228 0
M  V30 19464 C 1873.26 -2.79449 -1.11034 0
M  V30 19465 C 1874.81 -2.88389 -1.21659 0
M  V30 19466 C 1875.28 -4.3067 -1.55844 0
M  V30 19467 N 1876.77 -4.33637 -1.62829 0
M  V30 19468 C 1877.51 -5.40727 -1.90791 0
M  V30 19469 N 1877 -6.58021 -2.16751 0
M  V30 19470 N 1878.8 -5.28175 -1.92323 0
M  V30 19471 H 1870.95 -2.10268 0.300165 0
M  V30 19472 H 1873.21 -0.945278 0.0717853 0
M  V30 19473 H 1872.92 -3.50173 -0.327326 0
M  V30 19474 H 1872.79 -3.16911 -2.04566 0
M  V30 19475 H 1875.18 -2.17881 -1.99027 0
M  V30 19476 H 1875.26 -2.54465 -0.260984 0
M  V30 19477 H 1874.9 -5.01716 -0.79014 0
M  V30 19478 H 1874.83 -4.62083 -2.5256 0
M  V30 19479 H 1877.32 -3.49061 -1.44793 0
M  V30 19480 H 1877.64 -7.35442 -2.37371 0
M  V30 19481 H 1875.98 -6.61189 -2.14136 0
M  V30 19482 H 1879.17 -4.35536 -1.71541 0
M  V30 19483 H 1879.35 -6.11721 -2.13779 0
M  V30 19484 N 1872.75 0.720973 -1.40142 0
M  V30 19485 C 1873.98 1.51519 -1.41622 0
M  V30 19486 C 1874.4 1.88093 -0.0162669 0
M  V30 19487 O 1873.76 1.52895 0.974307 0
M  V30 19488 C 1873.81 2.77041 -2.30826 0
M  V30 19489 O 1872.91 3.73532 -1.74779 0
M  V30 19490 H 1872.25 0.457034 -0.481681 0
M  V30 19491 H 1874.78 0.88837 -1.84307 0
M  V30 19492 H 1874.79 3.25628 -2.45826 0
M  V30 19493 H 1873.47 2.49755 -3.32558 0
M  V30 19494 H 1872.05 3.32356 -1.69097 0
M  V30 19495 N 1874.23 1.25549 0.952634 0
M  V30 19496 C 1875.65 1.02414 1.22407 0
M  V30 19497 C 1875.85 -0.257807 1.99844 0
M  V30 19498 O 1874.9 -0.969999 2.33125 0
M  V30 19499 C 1876.22 2.24856 1.9965 0
M  V30 19500 C 1877.76 2.29638 2.12686 0
M  V30 19501 C 1878.24 3.51742 2.93329 0
M  V30 19502 N 1879.73 3.5215 3.00907 0
M  V30 19503 C 1880.46 4.43292 3.63703 0
M  V30 19504 N 1879.96 5.44709 4.28094 0
M  V30 19505 N 1881.75 4.30969 3.60863 0
M  V30 19506 H 1873.9 2.07905 0.434647 0
M  V30 19507 H 1876.17 0.913124 0.254772 0
M  V30 19508 H 1875.87 3.18037 1.5015 0
M  V30 19509 H 1875.75 2.28188 3.0035 0
M  V30 19510 H 1878.13 1.36978 2.61383 0
M  V30 19511 H 1878.22 2.30324 1.11285 0
M  V30 19512 H 1877.86 4.44724 2.45322 0
M  V30 19513 H 1877.79 3.48301 3.9496 0
M  V30 19514 H 1880.28 2.78789 2.55118 0
M  V30 19515 H 1880.59 6.10462 4.73873 0
M  V30 19516 H 1878.94 5.48579 4.26715 0
M  V30 19517 H 1882.13 3.50964 3.09745 0
M  V30 19518 H 1882.3 5.02196 4.09516 0
M  V30 19519 N 1875.71 -1.15554 1.07168 0
M  V30 19520 C 1876.62 -2.2386 0.701714 0
M  V30 19521 C 1877.63 -1.7163 -0.28621 0
M  V30 19522 O 1878.81 -2.00958 -0.133308 0
M  V30 19523 C 1875.88 -3.46546 0.103165 0
M  V30 19524 C 1874.94 -4.13774 1.14409 0
M  V30 19525 C 1874.17 -5.30604 0.574007 0
M  V30 19526 O 1874.39 -5.67123 -0.610521 0
M  V30 19527 O 1873.33 -5.87293 1.31799 0
M  V30 19528 H 1877.15 -2.57833 1.60487 0
M  V30 19529 H 1874.74 -1.23241 0.844514 0
M  V30 19530 H 1876.62 -4.2078 -0.228452 0
M  V30 19531 H 1875.29 -3.14327 -0.773339 0
M  V30 19532 H 1874.2 -3.4147 1.52803 0
M  V30 19533 H 1875.53 -4.5007 1.99243 0
M  V30 19534 N 1877.19 -0.855519 -1.32358 0
M  V30 19535 C 1878.15 -0.305794 -2.27151 0
M  V30 19536 C 1879.15 0.535008 -1.51639 0
M  V30 19537 O 1880.34 0.346394 -1.70721 0
M  V30 19538 C 1877.47 0.567275 -3.36147 0
M  V30 19539 H 1878.67 -1.14245 -2.77287 0
M  V30 19540 H 1876.22 -0.629924 -1.43044 0
M  V30 19541 H 1876.95 1.42571 -2.9128 0
M  V30 19542 H 1876.74 -0.0345714 -3.92085 0
M  V30 19543 H 1878.23 0.944644 -4.06775 0
M  V30 19544 N 1878.67 1.45167 -0.61354 0
M  V30 19545 C 1879.91 2.03048 -0.119679 0
M  V30 19546 C 1880.27 1.47264 1.23819 0
M  V30 19547 O 1879.56 0.640171 1.80589 0
M  V30 19548 C 1879.75 3.57389 -0.0281394 0
M  V30 19549 C 1879.58 4.28144 -1.37559 0
M  V30 19550 C 1878.35 4.6583 -1.95783 0
M  V30 19551 C 1880.55 4.59722 -2.30566 0
M  V30 19552 N 1878.53 5.21471 -3.23946 0
M  V30 19553 C 1879.9 5.16259 -3.43331 0
M  V30 19554 C 1881.96 4.41664 -2.29864 0
M  V30 19555 C 1880.66 5.56642 -4.55568 0
M  V30 19556 C 1882.69 4.83083 -3.41152 0
M  V30 19557 C 1882.05 5.39719 -4.5264 0
M  V30 19558 H 1878.15 0.777111 -0.0873027 0
M  V30 19559 H 1880.73 1.76905 -0.813193 0
M  V30 19560 H 1878.9 3.8318 0.634609 0
M  V30 19561 H 1880.64 4.01927 0.472928 0
M  V30 19562 H 1877.39 4.49577 -1.48922 0
M  V30 19563 H 1877.81 5.53785 -3.89424 0
M  V30 19564 H 1882.46 3.97185 -1.44927 0
M  V30 19565 H 1880.17 6.00084 -5.41226 0
M  V30 19566 H 1883.76 4.70838 -3.41764 0
M  V30 19567 H 1882.64 5.71179 -5.37331 0
M  V30 19568 N 1880.14 0.353044 1.53595 0
M  V30 19569 C 1881.11 -0.48691 2.23968 0
M  V30 19570 C 1882.11 -1.01991 1.24316 0
M  V30 19571 O 1883.3 -0.907654 1.48685 0
M  V30 19572 C 1880.43 -1.67926 2.96671 0
M  V30 19573 H 1881.62 0.128707 2.99624 0
M  V30 19574 H 1879.17 0.104533 1.5595 0
M  V30 19575 H 1879.91 -2.33331 2.25227 0
M  V30 19576 H 1879.69 -1.30417 3.69776 0
M  V30 19577 H 1881.18 -2.2748 3.50203 0
M  V30 19578 N 1881.62 -1.57387 0.0818932 0
M  V30 19579 C 1882.55 -2.16318 -0.879124 0
M  V30 19580 C 1883.53 -1.09293 -1.30342 0
M  V30 19581 O 1884.72 -1.37373 -1.37267 0
M  V30 19582 C 1881.85 -2.73293 -2.14308 0
M  V30 19583 C 1880.8 -3.85575 -1.85785 0
M  V30 19584 C 1880.13 -4.29195 -3.18897 0
M  V30 19585 C 1881.43 -5.09365 -1.15517 0
M  V30 19586 H 1883.12 -2.96873 -0.388166 0
M  V30 19587 H 1880.67 -1.42803 -0.185265 0
M  V30 19588 H 1882.62 -3.13168 -2.81964 0
M  V30 19589 H 1881.34 -1.89974 -2.65664 0
M  V30 19590 H 1880 -3.46219 -1.20532 0
M  V30 19591 H 1879.65 -3.42784 -3.68114 0
M  V30 19592 H 1879.35 -5.04889 -3.006 0
M  V30 19593 H 1880.88 -4.71694 -3.87734 0
M  V30 19594 H 1882.29 -5.46493 -1.73259 0
M  V30 19595 H 1880.69 -5.90403 -1.07444 0
M  V30 19596 H 1881.76 -4.8471 -0.135822 0
M  V30 19597 N 1883.1 0.191729 -1.56429 0
M  V30 19598 C 1884.33 0.926363 -1.84667 0
M  V30 19599 C 1884.74 1.77215 -0.662674 0
M  V30 19600 O 1884.08 1.79772 0.377839 0
M  V30 19601 C 1884.14 1.86973 -3.07053 0
M  V30 19602 C 1883.81 1.20556 -4.40812 0
M  V30 19603 C 1884.8 0.580852 -5.16645 0
M  V30 19604 C 1882.49 1.20841 -4.87548 0
M  V30 19605 C 1884.48 -0.0321402 -6.37392 0
M  V30 19606 C 1882.17 0.59158 -6.0823 0
M  V30 19607 C 1883.17 -0.0276096 -6.82994 0
M  V30 19608 O 1882.86 -0.634761 -8.0139 0
M  V30 19609 H 1882.59 0.27562 -0.61726 0
M  V30 19610 H 1885.14 0.202927 -2.04395 0
M  V30 19611 H 1883.37 2.63295 -2.83219 0
M  V30 19612 H 1885.06 2.47244 -3.21909 0
M  V30 19613 H 1885.83 0.570769 -4.8163 0
M  V30 19614 H 1881.71 1.67975 -4.29308 0
M  V30 19615 H 1885.25 -0.516048 -6.95689 0
M  V30 19616 H 1881.15 0.599177 -6.42713 0
M  V30 19617 H 1881.91 -0.531997 -8.16769 0
M  V30 19618 N 1884.58 1.50751 0.459565 0
M  V30 19619 C 1885.51 1.73389 1.56392 0
M  V30 19620 C 1886.49 0.583101 1.59793 0
M  V30 19621 O 1887.67 0.823474 1.75876 0
M  V30 19622 C 1884.8 1.83861 2.94639 0
M  V30 19623 C 1883.76 2.9914 3.06103 0
M  V30 19624 C 1883.08 2.94768 4.46112 0
M  V30 19625 C 1884.38 4.39471 2.82246 0
M  V30 19626 H 1886.08 2.65856 1.37699 0
M  V30 19627 H 1883.62 1.27933 0.661001 0
M  V30 19628 H 1885.58 1.98283 3.71836 0
M  V30 19629 H 1884.3 0.880254 3.14514 0
M  V30 19630 H 1882.96 2.84388 2.31342 0
M  V30 19631 H 1882.61 1.96755 4.62922 0
M  V30 19632 H 1882.31 3.72166 4.54716 0
M  V30 19633 H 1883.83 3.11254 5.25313 0
M  V30 19634 H 1885.25 4.54689 3.49186 0
M  V30 19635 H 1883.64 5.18406 3.02283 0
M  V30 19636 H 1884.71 4.51043 1.78012 0
M  V30 19637 N 1886.06 -0.713531 1.40522 0
M  V30 19638 C 1887.3 -1.47343 1.38911 0
M  V30 19639 C 1887.63 -1.94498 -0.00787452 0
M  V30 19640 O 1886.89 -1.68648 -0.992786 0
M  V30 19641 C 1887.18 -2.71283 2.32681 0
M  V30 19642 C 1886.85 -2.42881 3.79894 0
M  V30 19643 C 1885.51 -2.34846 4.20001 0
M  V30 19644 C 1887.86 -2.19093 4.72914 0
M  V30 19645 C 1885.19 -2.01093 5.51161 0
M  V30 19646 C 1887.54 -1.86852 6.04375 0
M  V30 19647 C 1886.21 -1.773 6.43522 0
M  V30 19648 H 1885.48 -0.539166 0.508312 0
M  V30 19649 H 1888.13 -0.817138 1.73191 0
M  V30 19650 H 1886.43 -3.41759 1.91593 0
M  V30 19651 H 1888.13 -3.29378 2.28717 0
M  V30 19652 H 1884.72 -2.50023 3.48118 0
M  V30 19653 H 1888.9 -2.24256 4.42745 0
M  V30 19654 H 1884.16 -1.92236 5.80392 0
M  V30 19655 H 1888.33 -1.6746 6.75966 0
M  V30 19656 H 1885.96 -1.50913 7.4507 0
M  V30 19657 N 1887.53 -1.26053 -0.945962 0
M  V30 19658 C 1888.76 -1.14181 -1.7314 0
M  V30 19659 C 1889.18 0.299663 -1.85698 0
M  V30 19660 O 1888.54 1.21711 -1.34373 0
M  V30 19661 C 1888.59 -1.81052 -3.11854 0
M  V30 19662 O 1887.69 -1.09606 -3.97568 0
M  V30 19663 H 1887.03 -0.398138 -0.531397 0
M  V30 19664 H 1889.56 -1.66782 -1.18511 0
M  V30 19665 H 1889.57 -1.87685 -3.62269 0
M  V30 19666 H 1888.25 -2.85921 -3.0203 0
M  V30 19667 H 1886.83 -1.10915 -3.56023 0
M  V30 19668 N 1889.01 1.14984 -1.07779 0
M  V30 19669 C 1890.42 1.67453 -0.825611 0
M  V30 19670 C 1890.77 1.85168 0.648631 0
M  V30 19671 O 1889.9 1.55817 1.50167 0
M  V30 19672 C 1890.49 3.04172 -1.49214 0
M  V30 19673 C 1889.05 3.53701 -1.28736 0
M  V30 19674 C 1888.2 2.29324 -1.55903 0
M  V30 19675 H 1891.15 0.99138 -1.23925 0
M  V30 19676 H 1891.17 3.69315 -0.915779 0
M  V30 19677 H 1890.68 2.91247 -2.56509 0
M  V30 19678 H 1888.78 3.71859 -0.234821 0
M  V30 19679 H 1888.9 4.34871 -2.01056 0
M  V30 19680 H 1887.26 2.35081 -0.980257 0
M  V30 19681 H 1888.04 2.18982 -2.6439 0
M  V30 19682 N 1890.49 0.862526 1.31902 0
M  V30 19683 C 1891.42 0.270103 2.27603 0
M  V30 19684 C 1892.43 -0.562639 1.52768 0
M  V30 19685 O 1893.62 -0.385845 1.7428 0
M  V30 19686 C 1890.72 -0.636314 3.32873 0
M  V30 19687 C 1889.9 0.162327 4.37099 0
M  V30 19688 C 1888.96 -0.67107 5.21903 0
M  V30 19689 O 1887.98 -0.101765 5.69109 0
M  V30 19690 N 1889.18 -1.98441 5.45529 0
M  V30 19691 H 1891.95 1.09248 2.79079 0
M  V30 19692 H 1889.51 0.723275 1.44846 0
M  V30 19693 H 1891.5 -1.19937 3.86519 0
M  V30 19694 H 1890.07 -1.35936 2.81496 0
M  V30 19695 H 1889.29 0.906824 3.83628 0
M  V30 19696 H 1890.58 0.710602 5.03813 0
M  V30 19697 H 1889.98 -2.47017 5.0892 0
M  V30 19698 H 1888.53 -2.49542 6.0214 0
M  V30 19699 N 1891.97 -1.4484 0.62123 0
M  V30 19700 C 1892.92 -2.32377 -0.1019 0
M  V30 19701 C 1893.91 -1.4677 -0.845862 0
M  V30 19702 O 1895.12 -1.63174 -0.759882 0
M  V30 19703 H 1891.49 -0.75022 -0.0517143 0
M  V30 19704 H 1893.46 -2.91131 0.654623 0
M  V30 19705 C 1892.21 -3.30611 -1.07665 0
M  V30 19706 H 1891.53 -3.96487 -0.513612 0
M  V30 19707 H 1892.97 -3.94563 -1.5523 0
M  V30 19708 C 1891.43 -2.58795 -2.157 0
M  V30 19709 O 1891.96 -2.37947 -3.23642 0
M  V30 19710 N 1890.17 -2.187 -1.9136 0
M  V30 19711 H 1889.72 -2.35856 -1.03584 0
M  V30 19712 H 1889.67 -1.70975 -2.63847 0
M  V30 19713 N 1893.45 -0.361184 -1.53405 0
M  V30 19714 C 1894.86 -0.00994785 -1.59597 0
M  V30 19715 C 1895.06 1.47156 -1.37649 0
M  V30 19716 O 1894.12 2.23259 -1.17947 0
M  V30 19717 C 1895.43 -0.461942 -2.97131 0
M  V30 19718 C 1896.98 -0.415787 -3.10226 0
M  V30 19719 C 1897.45 -0.843524 -4.50165 0
M  V30 19720 N 1898.95 -0.798408 -4.56267 0
M  V30 19721 C 1899.68 -1.10112 -5.62728 0
M  V30 19722 N 1899.18 -1.47288 -6.76962 0
M  V30 19723 N 1900.97 -1.0242 -5.5269 0
M  V30 19724 H 1893.12 -1.32601 -1.65924 0
M  V30 19725 H 1895.38 -0.541705 -0.777985 0
M  V30 19726 H 1895.09 -1.49559 -3.18316 0
M  V30 19727 H 1894.96 0.15373 -3.76887 0
M  V30 19728 H 1897.35 0.608719 -2.88754 0
M  V30 19729 H 1897.43 -1.0669 -2.32489 0
M  V30 19730 H 1897.08 -1.86612 -4.72375 0
M  V30 19731 H 1897.01 -0.16971 -5.26326 0
M  V30 19732 H 1899.5 -0.524463 -3.74243 0
M  V30 19733 H 1899.81 -1.68824 -7.54134 0
M  V30 19734 H 1898.15 -1.51149 -6.78365 0
M  V30 19735 H 1901.35 -0.732979 -4.62326 0
M  V30 19736 H 1901.52 -1.26344 -6.35564 0
M  V30 19737 N 1894.92 1.57341 -0.0902386 0
M  V30 19738 C 1896.17 1.94176 0.574609 0
M  V30 19739 C 1896.5 0.971636 1.68492 0
M  V30 19740 O 1895.75 -0.00961728 1.95698 0
M  V30 19741 C 1896.05 3.37566 1.17404 0
M  V30 19742 C 1895.72 4.50508 0.188019 0
M  V30 19743 C 1894.38 4.81128 -0.0831922 0
M  V30 19744 C 1896.73 5.18934 -0.485519 0
M  V30 19745 C 1894.06 5.77504 -1.03472 0
M  V30 19746 C 1896.41 6.1633 -1.42548 0
M  V30 19747 C 1895.08 6.45358 -1.70498 0
M  V30 19748 H 1894.35 0.710542 0.210264 0
M  V30 19749 H 1896.99 1.90788 -0.165039 0
M  V30 19750 H 1895.3 3.3751 1.98984 0
M  V30 19751 H 1897 3.63365 1.69607 0
M  V30 19752 H 1893.59 4.26638 0.40959 0
M  V30 19753 H 1897.77 4.95457 -0.289126 0
M  V30 19754 H 1893.03 5.98311 -1.25831 0
M  V30 19755 H 1897.2 6.68447 -1.95323 0
M  V30 19756 H 1894.83 7.19846 -2.44387 0
M  V30 19757 N 1896.4 -0.183431 1.56529 0
M  V30 19758 C 1897.82 -0.534734 1.50375 0
M  V30 19759 C 1898.02 -1.85267 0.792359 0
M  V30 19760 O 1897.07 -2.50095 0.3477 0
M  V30 19761 C 1898.39 -0.578686 2.95079 0
M  V30 19762 C 1899.94 -0.66672 3.05817 0
M  V30 19763 C 1900.41 -0.741676 4.51955 0
M  V30 19764 N 1901.9 -0.804892 4.56153 0
M  V30 19765 C 1902.64 -0.883257 5.66556 0
M  V30 19766 N 1902.13 -0.923203 6.86621 0
M  V30 19767 N 1903.93 -0.921346 5.54498 0
M  V30 19768 H 1896.08 0.68092 2.0119 0
M  V30 19769 H 1898.34 0.244029 0.916053 0
M  V30 19770 H 1898.05 0.320816 3.50234 0
M  V30 19771 H 1897.92 -1.42937 3.49068 0
M  V30 19772 H 1900.31 -1.55665 2.50704 0
M  V30 19773 H 1900.39 0.210402 2.54933 0
M  V30 19774 H 1900.03 0.143948 5.07696 0
M  V30 19775 H 1899.96 -1.63477 5.00583 0
M  V30 19776 H 1902.45 -0.782796 3.69704 0
M  V30 19777 H 1902.77 -0.983835 7.66512 0
M  V30 19778 H 1901.11 -0.891683 6.89256 0
M  V30 19779 H 1904.3 -0.887056 4.59618 0
M  V30 19780 H 1904.47 -0.978957 6.40563 0
M  V30 19781 N 1897.88 -1.50992 -0.451564 0
M  V30 19782 C 1899.13 -1.63197 -1.20394 0
M  V30 19783 C 1899.46 -0.340409 -1.91193 0
M  V30 19784 O 1898.73 0.65926 -1.82986 0
M  V30 19785 C 1899.02 -2.82567 -2.23221 0
M  V30 19786 C 1898.87 -4.2166 -1.56598 0
M  V30 19787 C 1900.19 -2.97468 -3.24347 0
M  V30 19788 H 1897.31 -0.59395 -0.43634 0
M  V30 19789 H 1899.95 -1.83437 -0.495056 0
M  V30 19790 H 1898.1 -2.65441 -2.83678 0
M  V30 19791 H 1899.77 -4.50422 -0.995877 0
M  V30 19792 H 1898.02 -4.25015 -0.86862 0
M  V30 19793 H 1898.69 -5.0115 -2.31415 0
M  V30 19794 H 1901.16 -3.13211 -2.73931 0
M  V30 19795 H 1900.04 -3.82581 -3.93603 0
M  V30 19796 H 1900.3 -2.08921 -3.89621 0
M  V30 19797 N 1899.36 0.706069 -1.40899 0
M  V30 19798 C 1900.58 1.50008 -1.43221 0
M  V30 19799 C 1901.01 1.88065 -0.0362158 0
M  V30 19800 O 1900.37 1.5392 0.958036 0
M  V30 19801 C 1900.41 2.74578 -2.33751 0
M  V30 19802 O 1899.52 3.71657 -1.78731 0
M  V30 19803 H 1898.86 0.451899 -0.486501 0
M  V30 19804 H 1901.39 0.868772 -1.85239 0
M  V30 19805 H 1901.4 3.23002 -2.49266 0
M  V30 19806 H 1900.07 2.46214 -3.35189 0
M  V30 19807 H 1898.65 3.30544 -1.72612 0
M  V30 19808 N 1900.84 1.26553 0.939264 0
M  V30 19809 C 1902.08 1.13433 1.70036 0
M  V30 19810 C 1902.44 -0.316669 1.89371 0
M  V30 19811 O 1903.64 -0.570035 2.62686 0
M  V30 19812 C 1901.91 1.88424 3.03696 0
M  V30 19813 S 1903.47 1.91381 3.94866 0
M  V30 19814 H 1900.29 0.405156 0.584268 0
M  V30 19815 H 1902.89 1.60299 1.11913 0
M  V30 19816 H 1901.6 2.93059 2.87306 0
M  V30 19817 H 1901.13 1.42007 3.66876 0
M  V30 19818 H 1903.14 1.00189 4.8598 0
M  V30 19819 N 1902.31 -1.14411 1.08387 0
M  V30 19820 C 1903.25 -2.19141 0.671565 0
M  V30 19821 C 1904.26 -1.60352 -0.281256 0
M  V30 19822 O 1905.45 -1.78367 -0.0689422 0
M  V30 19823 C 1902.55 -3.38884 -0.0326447 0
M  V30 19824 C 1901.72 -4.27201 0.939024 0
M  V30 19825 C 1900.78 -5.25506 0.270176 0
M  V30 19826 O 1899.81 -5.61805 0.914522 0
M  V30 19827 N 1901.01 -5.72168 -0.980002 0
M  V30 19828 H 1903.77 -2.5513 1.57254 0
M  V30 19829 H 1901.33 -1.2963 0.969931 0
M  V30 19830 H 1903.33 -4.0171 -0.491035 0
M  V30 19831 H 1901.9 -3.01222 -0.835708 0
M  V30 19832 H 1901.12 -3.61314 1.57626 0
M  V30 19833 H 1902.4 -4.83072 1.59746 0
M  V30 19834 H 1901.8 -5.44806 -1.52325 0
M  V30 19835 H 1900.36 -6.36983 -1.38189 0
M  V30 19836 N 1903.79 -0.869509 -1.31443 0
M  V30 19837 C 1904.74 -0.323034 -2.28528 0
M  V30 19838 C 1905.71 0.578245 -1.5571 0
M  V30 19839 O 1906.89 0.509983 -1.83858 0
M  V30 19840 C 1904.03 0.469861 -3.41886 0
M  V30 19841 C 1903.15 -0.458883 -4.29556 0
M  V30 19842 C 1902.28 0.348092 -5.30058 0
M  V30 19843 C 1901.32 -0.577109 -6.09373 0
M  V30 19844 N 1900.46 0.193589 -7.01833 0
M  V30 19845 H 1905.3 -1.15614 -2.74659 0
M  V30 19846 H 1902.84 -0.581526 -1.35117 0
M  V30 19847 H 1904.79 0.945338 -4.06349 0
M  V30 19848 H 1903.42 1.26767 -2.96867 0
M  V30 19849 H 1902.48 -1.05281 -3.65541 0
M  V30 19850 H 1903.79 -1.16833 -4.84924 0
M  V30 19851 H 1902.94 0.886098 -6.00194 0
M  V30 19852 H 1901.68 1.09083 -4.75344 0
M  V30 19853 H 1900.69 -1.12687 -5.38128 0
M  V30 19854 H 1901.91 -1.31869 -6.66174 0
M  V30 19855 H 1899.86 0.919147 -6.49529 0
M  V30 19856 H 1899.77 -0.456525 -7.5462 0
M  V30 19857 H 1901.04 0.71284 -7.76234 0
M  V30 19858 N 1905.27 1.44508 -0.628902 0
M  V30 19859 C 1906.52 2.02365 -0.132699 0
M  V30 19860 C 1906.85 1.4934 1.24142 0
M  V30 19861 O 1906.12 0.676567 1.82354 0
M  V30 19862 C 1906.41 3.5991 -0.11694 0
M  V30 19863 C 1906.26 4.23223 -1.52324 0
M  V30 19864 C 1907.58 4.36527 0.559696 0
M  V30 19865 H 1904.7 0.735323 -0.049695 0
M  V30 19866 H 1907.34 1.72106 -0.80495 0
M  V30 19867 H 1905.49 3.8582 0.455515 0
M  V30 19868 H 1907.16 4.08427 -2.14441 0
M  V30 19869 H 1905.41 3.80803 -2.07777 0
M  V30 19870 H 1906.08 5.32225 -1.46427 0
M  V30 19871 H 1908.55 4.16036 0.0728971 0
M  V30 19872 H 1907.43 5.46238 0.539902 0
M  V30 19873 H 1907.69 4.10968 1.62965 0
M  V30 19874 N 1906.75 0.369315 1.53212 0
M  V30 19875 C 1908 -0.220348 2.00493 0
M  V30 19876 C 1908.31 -1.49561 1.26059 0
M  V30 19877 O 1909.52 -2.1641 1.63947 0
M  V30 19878 C 1907.97 -0.443218 3.5716 0
M  V30 19879 C 1907.58 0.817634 4.40476 0
M  V30 19880 C 1909.33 -0.990333 4.12786 0
M  V30 19881 C 1907.23 0.564143 5.88703 0
M  V30 19882 H 1906.16 -0.0861173 0.749066 0
M  V30 19883 H 1908.81 0.488632 1.76875 0
M  V30 19884 H 1907.2 -1.21355 3.76947 0
M  V30 19885 H 1908.37 1.59105 4.32461 0
M  V30 19886 H 1906.68 1.28824 3.95971 0
M  V30 19887 H 1909.28 -1.19537 5.21167 0
M  V30 19888 H 1909.62 -1.95357 3.67616 0
M  V30 19889 H 1910.16 -0.280073 3.96813 0
M  V30 19890 H 1906.9 1.49782 6.38158 0
M  V30 19891 H 1906.42 -0.170702 5.99557 0
M  V30 19892 H 1908.1 0.191072 6.46718 0
M  V30 19893 N 1908.23 -1.57291 0.0985816 0
M  V30 19894 C 1909.46 -1.98819 -0.57259 0
M  V30 19895 C 1909.87 -0.977787 -1.61508 0
M  V30 19896 O 1909.23 0.0321385 -1.82472 0
M  V30 19897 C 1909.28 -3.40393 -1.21716 0
M  V30 19898 O 1909 -4.37565 -0.216366 0
M  V30 19899 C 1910.5 -3.96943 -1.97361 0
M  V30 19900 H 1907.72 -0.653268 -0.153239 0
M  V30 19901 H 1910.26 -2.03716 0.178898 0
M  V30 19902 H 1908.42 -3.36499 -1.91956 0
M  V30 19903 H 1908.83 -5.20046 -0.68205 0
M  V30 19904 H 1910.31 -4.98144 -2.37816 0
M  V30 19905 H 1910.78 -3.34953 -2.84083 0
M  V30 19906 H 1911.39 -4.0432 -1.3193 0
M  V30 19907 N 1909.71 0.175127 -1.56624 0
M  V30 19908 C 1910.66 1.22142 -1.92523 0
M  V30 19909 C 1911.64 1.39995 -0.793112 0
M  V30 19910 O 1912.83 1.4203 -1.05625 0
M  V30 19911 C 1909.96 2.56174 -2.28538 0
M  V30 19912 C 1909.05 2.42031 -3.48255 0
M  V30 19913 N 1909.44 1.97597 -4.65606 0
M  V30 19914 C 1907.74 2.72869 -3.52787 0
M  V30 19915 C 1908.44 1.95826 -5.47747 0
M  V30 19916 N 1907.41 2.38086 -4.88688 0
M  V30 19917 H 1911.21 0.869519 -2.80743 0
M  V30 19918 H 1908.73 0.383427 -1.57809 0
M  V30 19919 H 1910.73 3.31775 -2.5245 0
M  V30 19920 H 1909.39 2.92171 -1.41656 0
M  V30 19921 H 1910.4 1.67994 -4.89896 0
M  V30 19922 H 1907.07 3.12929 -2.76373 0
M  V30 19923 H 1908.46 1.63202 -6.51778 0
M  V30 19924 N 1911.18 1.5123 0.44355 0
M  V30 19925 C 1912.13 1.72095 1.53792 0
M  V30 19926 C 1913.1 0.562529 1.56284 0
M  V30 19927 O 1914.29 0.796259 1.73391 0
M  V30 19928 C 1911.43 1.84627 2.9156 0
M  V30 19929 C 1910.54 3.12147 2.98644 0
M  V30 19930 C 1909.67 3.1531 4.27496 0
M  V30 19931 C 1908.71 4.37171 4.28425 0
M  V30 19932 N 1907.85 4.37919 5.48791 0
M  V30 19933 H 1912.69 2.65512 1.35304 0
M  V30 19934 H 1910.23 1.31593 0.657387 0
M  V30 19935 H 1912.18 1.89874 3.71488 0
M  V30 19936 H 1910.81 0.946232 3.0862 0
M  V30 19937 H 1909.87 3.16239 2.11417 0
M  V30 19938 H 1911.18 4.02074 2.95192 0
M  V30 19939 H 1910.33 3.19439 5.15794 0
M  V30 19940 H 1909.07 2.23261 4.33596 0
M  V30 19941 H 1908.08 4.33225 3.38521 0
M  V30 19942 H 1909.3 5.30477 4.23994 0
M  V30 19943 H 1907.25 3.48737 5.55624 0
M  V30 19944 H 1907.16 5.21647 5.47193 0
M  V30 19945 H 1908.43 4.46232 6.39138 0
M  V30 19946 N 1912.66 -0.698586 1.41271 0
M  V30 19947 C 1913.59 -1.82278 1.37295 0
M  V30 19948 C 1914.57 -1.60809 0.240668 0
M  V30 19949 O 1915.76 -1.83598 0.42709 0
M  V30 19950 C 1912.88 -3.18907 1.14087 0
M  V30 19951 C 1911.93 -3.59172 2.29994 0
M  V30 19952 S 1912.76 -3.64327 3.92462 0
M  V30 19953 C 1913.92 -5.03687 3.71551 0
M  V30 19954 H 1914.15 -1.85373 2.32431 0
M  V30 19955 H 1911.68 -0.867008 1.27759 0
M  V30 19956 H 1913.64 -3.97783 1.01383 0
M  V30 19957 H 1912.3 -3.13425 0.20577 0
M  V30 19958 H 1911.5 -4.58421 2.09442 0
M  V30 19959 H 1911.1 -2.87597 2.3909 0
M  V30 19960 H 1913.39 -5.911 3.3107 0
M  V30 19961 H 1914.33 -5.2928 4.70391 0
M  V30 19962 H 1914.74 -4.75083 3.04887 0
M  V30 19963 N 1914.14 -1.27049 -0.93254 0
M  V30 19964 C 1915.39 -1.13103 -1.6797 0
M  V30 19965 C 1915.71 0.324047 -1.91782 0
M  V30 19966 O 1914.97 1.25381 -1.5026 0
M  V30 19967 C 1915.27 -1.8547 -3.05509 0
M  V30 19968 C 1914.93 -3.35342 -3.01424 0
M  V30 19969 C 1913.6 -3.76222 -3.00017 0
M  V30 19970 C 1915.95 -4.30993 -2.93078 0
M  V30 19971 C 1913.28 -5.11125 -2.88041 0
M  V30 19972 C 1915.63 -5.65946 -2.82644 0
M  V30 19973 C 1914.29 -6.06126 -2.79585 0
M  V30 19974 H 1913.56 -0.413872 -0.614647 0
M  V30 19975 H 1916.21 -1.57598 -1.08789 0
M  V30 19976 H 1914.51 -1.33469 -3.68366 0
M  V30 19977 H 1916.21 -1.72112 -3.62186 0
M  V30 19978 H 1912.8 -3.02828 -3.03303 0
M  V30 19979 H 1916.99 -4.00385 -2.93267 0
M  V30 19980 H 1912.24 -5.41408 -2.84056 0
M  V30 19981 H 1916.42 -6.39738 -2.75151 0
M  V30 19982 H 1914.04 -7.10613 -2.70061 0
M  V30 19983 N 1915.62 1.13835 -1.08993 0
M  V30 19984 C 1916.89 1.81232 -0.735809 0
M  V30 19985 C 1917.27 1.96172 0.779737 0
M  V30 19986 O 1916.62 1.52629 1.70049 0
M  V30 19987 C 1916.83 3.16546 -1.46968 0
M  V30 19988 C 1918.18 3.91958 -1.6326 0
M  V30 19989 O 1919.2 3.26155 -1.43183 0
M  V30 19990 O 1918.06 5.09976 -1.96435 0
M  V30 19991 H 1915.16 0.783794 -0.26381 0
M  V30 19992 H 1917.7 1.20801 -1.19186 0
M  V30 19993 H 1916.48 3.00872 -2.50183 0
M  V30 19994 H 1916.1 3.84676 -1.00551 0
M  V30 19995 N 1917.1 0.876467 1.3098 0
M  V30 19996 C 1918.05 0.308508 2.25903 0
M  V30 19997 C 1919.03 -0.558176 1.50908 0
M  V30 19998 O 1920.22 -0.403991 1.72328 0
M  V30 19999 C 1917.35 -0.483379 3.3988 0
M  V30 20000 C 1916.44 0.396914 4.22239 0
M  V30 20001 N 1916.83 1.49342 4.8325 0
M  V30 20002 C 1915.13 0.190504 4.45593 0
M  V30 20003 C 1915.83 2.0368 5.44876 0
M  V30 20004 N 1914.8 1.33291 5.27005 0
M  V30 20005 H 1918.6 1.14647 2.70617 0
M  V30 20006 H 1916.12 0.724937 1.45322 0
M  V30 20007 H 1918.12 -0.906842 4.06918 0
M  V30 20008 H 1916.78 -1.31888 2.96708 0
M  V30 20009 H 1917.79 1.87632 4.82716 0
M  V30 20010 H 1914.46 -0.608515 4.13042 0
M  V30 20011 H 1915.85 2.95713 6.03327 0
M  V30 20012 N 1918.57 -1.44173 0.636557 0
M  V30 20013 C 1919.82 -2.02292 0.143429 0
M  V30 20014 C 1920.15 -1.49996 -1.23348 0
M  V30 20015 O 1919.43 -0.686228 -1.81992 0
M  V30 20016 C 1919.71 -3.59843 0.136025 0
M  V30 20017 C 1919.56 -4.22409 1.54566 0
M  V30 20018 C 1920.88 -4.36817 -0.536538 0
M  V30 20019 H 1918 -0.735049 0.0535939 0
M  V30 20020 H 1920.64 -1.71677 0.814066 0
M  V30 20021 H 1918.79 -3.86056 -0.435048 0
M  V30 20022 H 1920.47 -4.07284 2.16604 0
M  V30 20023 H 1918.71 -3.79696 2.09793 0
M  V30 20024 H 1919.38 -5.31441 1.49247 0
M  V30 20025 H 1921.86 -4.16069 -0.0508327 0
M  V30 20026 H 1920.73 -5.46517 -0.510926 0
M  V30 20027 H 1920.99 -4.11827 -1.60783 0
M  V30 20028 N 1920.05 -0.377435 -1.53014 0
M  V30 20029 C 1921.3 0.208838 -2.01722 0
M  V30 20030 C 1921.63 1.47446 -1.26385 0
M  V30 20031 O 1920.91 1.91122 -0.360903 0
M  V30 20032 C 1921.19 0.4888 -3.56767 0
M  V30 20033 C 1921.04 -0.791285 -4.42785 0
M  V30 20034 C 1922.36 1.28443 -4.2094 0
M  V30 20035 H 1919.48 0.0744281 -0.733232 0
M  V30 20036 H 1922.12 -0.504664 -1.83175 0
M  V30 20037 H 1920.27 1.09662 -3.72702 0
M  V30 20038 H 1921.94 -1.42848 -4.38625 0
M  V30 20039 H 1920.19 -1.40914 -4.10275 0
M  V30 20040 H 1920.86 -0.550199 -5.49251 0
M  V30 20041 H 1923.33 0.770147 -4.08911 0
M  V30 20042 H 1922.21 1.44906 -5.29427 0
M  V30 20043 H 1922.47 2.29631 -3.77786 0
M  V30 20044 N 1921.53 1.57237 -0.106922 0
M  V30 20045 C 1922.46 2.1769 0.844599 0
M  V30 20046 C 1923.44 1.11352 1.28587 0
M  V30 20047 O 1924.63 1.39539 1.35065 0
M  V30 20048 C 1921.76 2.76668 2.09933 0
M  V30 20049 C 1920.71 3.88482 1.79627 0
M  V30 20050 C 1920.04 4.34214 3.12029 0
M  V30 20051 C 1921.34 5.11139 1.07399 0
M  V30 20052 H 1923.03 2.97453 0.340887 0
M  V30 20053 H 1920.58 1.4308 0.162523 0
M  V30 20054 H 1922.53 3.17614 2.76946 0
M  V30 20055 H 1921.25 1.94176 2.62608 0
M  V30 20056 H 1919.91 3.48093 1.15008 0
M  V30 20057 H 1919.56 3.48597 3.62614 0
M  V30 20058 H 1919.26 5.09608 2.9253 0
M  V30 20059 H 1920.78 4.77803 3.8018 0
M  V30 20060 H 1922.2 5.4918 1.64543 0
M  V30 20061 H 1920.6 5.92038 0.980375 0
M  V30 20062 H 1921.67 4.84864 0.0586914 0
M  V30 20063 N 1923.01 -0.166818 1.56715 0
M  V30 20064 C 1924.25 -0.884023 1.82518 0
M  V30 20065 C 1924.59 -1.817 0.685477 0
M  V30 20066 O 1923.86 -1.91977 -0.312277 0
M  V30 20067 C 1924.15 -1.67578 3.18731 0
M  V30 20068 C 1924 -0.765627 4.43236 0
M  V30 20069 C 1925.32 -2.64252 3.51936 0
M  V30 20070 H 1922.44 -0.319938 0.663934 0
M  V30 20071 H 1925.08 -0.150034 1.89407 0
M  V30 20072 H 1923.23 -2.30152 3.1299 0
M  V30 20073 H 1924.9 -0.152422 4.61048 0
M  V30 20074 H 1923.14 -0.0739497 4.33737 0
M  V30 20075 H 1923.81 -1.35523 5.35105 0
M  V30 20076 H 1926.29 -2.11804 3.5816 0
M  V30 20077 H 1925.17 -3.16714 4.48312 0
M  V30 20078 H 1925.43 -3.44667 2.7687 0
M  V30 20079 N 1924.49 -1.51463 -0.435524 0
M  V30 20080 C 1925.73 -1.64221 -1.18481 0
M  V30 20081 C 1926.06 -0.359315 -1.91152 0
M  V30 20082 O 1925.32 0.656683 -1.84353 0
M  V30 20083 C 1925.62 -2.79695 -2.22498 0
M  V30 20084 C 1925.28 -4.18903 -1.66826 0
M  V30 20085 C 1923.94 -4.56773 -1.51366 0
M  V30 20086 C 1926.3 -5.05763 -1.2591 0
M  V30 20087 C 1923.62 -5.79207 -0.93467 0
M  V30 20088 C 1925.98 -6.28777 -0.694404 0
M  V30 20089 C 1924.64 -6.65419 -0.52672 0
M  V30 20090 H 1923.91 -0.600927 -0.433552 0
M  V30 20091 H 1926.56 -1.855 -0.475618 0
M  V30 20092 H 1924.86 -2.52646 -2.99462 0
M  V30 20093 H 1926.56 -2.86766 -2.80297 0
M  V30 20094 H 1923.15 -3.89046 -1.79835 0
M  V30 20095 H 1927.33 -4.7711 -1.36674 0
M  V30 20096 H 1922.59 -6.06242 -0.792531 0
M  V30 20097 H 1926.76 -6.95422 -0.36886 0
M  V30 20098 H 1924.39 -7.60162 -0.0759538 0
M  V30 20099 N 1925.96 0.691085 -1.4164 0
M  V30 20100 C 1927.21 1.44682 -1.40535 0
M  V30 20101 C 1927.53 1.9559 -0.0192882 0
M  V30 20102 O 1928.73 2.71259 0.114373 0
M  V30 20103 C 1927.19 2.61645 -2.47123 0
M  V30 20104 C 1926.8 2.17504 -3.91658 0
M  V30 20105 C 1928.54 3.39253 -2.55162 0
M  V30 20106 C 1926.45 3.31453 -4.89789 0
M  V30 20107 H 1925.38 0.543472 -0.522641 0
M  V30 20108 H 1928.03 0.749807 -1.67482 0
M  V30 20109 H 1926.41 3.33636 -2.13314 0
M  V30 20110 H 1927.58 1.52774 -4.34738 0
M  V30 20111 H 1925.9 1.52878 -3.87321 0
M  V30 20112 H 1928.5 4.24088 -3.25659 0
M  V30 20113 H 1928.84 3.84744 -1.58989 0
M  V30 20114 H 1929.37 2.74322 -2.88083 0
M  V30 20115 H 1926.11 2.9097 -5.87381 0
M  V30 20116 H 1925.63 3.95019 -4.51354 0
M  V30 20117 H 1927.31 3.97164 -5.10754 0
M  V30 20118 N 1927.44 1.27542 0.925789 0
M  V30 20119 C 1928.69 1.13992 1.67368 0
M  V30 20120 C 1929.02 -0.313872 1.91951 0
M  V30 20121 O 1928.27 -1.24583 1.50923 0
M  V30 20122 C 1928.57 1.87088 3.04521 0
M  V30 20123 C 1928.24 3.36936 2.99641 0
M  V30 20124 C 1926.9 3.77808 2.98018 0
M  V30 20125 C 1929.25 4.32541 2.90789 0
M  V30 20126 C 1926.58 5.12646 2.85327 0
M  V30 20127 C 1928.93 5.67437 2.79639 0
M  V30 20128 C 1927.6 6.076 2.76366 0
M  V30 20129 H 1926.87 0.417126 0.612444 0
M  V30 20130 H 1929.51 1.58173 1.07952 0
M  V30 20131 H 1927.82 1.35421 3.67653 0
M  V30 20132 H 1929.51 1.7403 3.61268 0
M  V30 20133 H 1926.1 3.04433 3.01693 0
M  V30 20134 H 1930.29 4.01935 2.91139 0
M  V30 20135 H 1925.54 5.42906 2.81181 0
M  V30 20136 H 1929.72 6.41188 2.71755 0
M  V30 20137 H 1927.35 7.12035 2.66289 0
M  V30 20138 N 1928.92 -1.13255 1.09595 0
M  V30 20139 C 1929.85 -2.20827 0.758791 0
M  V30 20140 C 1930.83 -1.68034 -0.264325 0
M  V30 20141 O 1932.02 -1.93751 -0.132005 0
M  V30 20142 C 1929.15 -3.46831 0.180424 0
M  V30 20143 C 1928.1 -4.12724 1.13325 0
M  V30 20144 C 1927.43 -5.33075 0.416504 0
M  V30 20145 C 1928.73 -4.59862 2.47637 0
M  V30 20146 H 1930.42 -2.49287 1.65821 0
M  V30 20147 H 1927.97 -1.19818 0.798734 0
M  V30 20148 H 1929.92 -4.21346 -0.0675313 0
M  V30 20149 H 1928.64 -3.17773 -0.754194 0
M  V30 20150 H 1927.3 -3.40179 1.36651 0
M  V30 20151 H 1926.95 -5.00281 -0.522308 0
M  V30 20152 H 1926.65 -5.78109 1.05183 0
M  V30 20153 H 1928.17 -6.10344 0.17689 0
M  V30 20154 H 1929.59 -5.25791 2.28509 0
M  V30 20155 H 1927.99 -5.15642 3.06974 0
M  V30 20156 H 1929.06 -3.74294 3.08273 0
M  V30 20157 N 1930.4 -0.883401 -1.30514 0
M  V30 20158 C 1931.35 -0.33846 -2.30124 0
M  V30 20159 C 1932.34 0.553686 -1.60096 0
M  V30 20160 O 1933.55 0.438295 -1.74582 0
M  V30 20161 H 1929.92 -0.0907927 -0.746499 0
M  V30 20162 H 1931.89 -1.19227 -2.73546 0
M  V30 20163 C 1930.64 0.43339 -3.44988 0
M  V30 20164 H 1929.96 -0.243847 -3.99056 0
M  V30 20165 H 1931.4 0.779808 -4.16767 0
M  V30 20166 C 1929.86 1.62986 -2.94851 0
M  V30 20167 O 1930.39 2.72922 -2.94748 0
M  V30 20168 N 1928.6 1.4665 -2.50883 0
M  V30 20169 H 1928.15 0.572135 -2.51166 0
M  V30 20170 H 1928.1 2.2684 -2.17694 0
M  V30 20171 N 1931.88 1.43833 -0.644194 0
M  V30 20172 C 1933.12 2.03793 -0.157409 0
M  V30 20173 C 1933.48 1.49666 1.20267 0
M  V30 20174 O 1934.68 2.01212 1.78233 0
M  V30 20175 C 1932.95 3.57053 -0.157514 0
M  V30 20176 S 1934.51 4.38013 0.262743 0
M  V30 20177 H 1931.33 0.707788 -0.0675047 0
M  V30 20178 H 1933.93 1.7603 -0.85051 0
M  V30 20179 H 1932.64 3.9395 -1.15027 0
M  V30 20180 H 1932.17 3.89445 0.556416 0
M  V30 20181 H 1934.18 4.72863 1.50384 0
M  V30 20182 N 1933.35 0.385544 1.52811 0
M  V30 20183 C 1934.6 -0.198138 2.0183 0
M  V30 20184 C 1934.93 -1.46774 1.27165 0
M  V30 20185 O 1934.21 -1.90928 0.371034 0
M  V30 20186 C 1934.49 -0.469873 3.57021 0
M  V30 20187 C 1934.34 0.814756 4.42359 0
M  V30 20188 C 1935.66 -1.26209 4.21615 0
M  V30 20189 H 1932.78 -0.0705386 0.733617 0
M  V30 20190 H 1935.42 0.514372 1.82905 0
M  V30 20191 H 1933.57 -1.07684 3.73278 0
M  V30 20192 H 1935.25 1.45172 4.37862 0
M  V30 20193 H 1933.49 1.43088 4.09522 0
M  V30 20194 H 1934.16 0.57932 5.48952 0
M  V30 20195 H 1936.64 -0.748451 4.09313 0
M  V30 20196 H 1935.51 -1.42096 5.30188 0
M  V30 20197 H 1935.77 -2.27624 3.78998 0
M  V30 20198 N 1934.83 -1.57178 0.115259 0
M  V30 20199 C 1936.06 -1.99415 -0.55147 0
M  V30 20200 C 1936.48 -0.994862 -1.60462 0
M  V30 20201 O 1935.83 0.0127831 -1.82496 0
M  V30 20202 C 1935.88 -3.41665 -1.18099 0
M  V30 20203 O 1935.6 -4.3777 -0.169944 0
M  V30 20204 C 1937.11 -3.99014 -1.9314 0
M  V30 20205 H 1934.33 -0.654856 -0.146302 0
M  V30 20206 H 1936.87 -2.03515 0.200495 0
M  V30 20207 H 1935.02 -3.38516 -1.88376 0
M  V30 20208 H 1935.44 -5.20741 -0.626853 0
M  V30 20209 H 1936.91 -5.00639 -2.32519 0
M  V30 20210 H 1937.39 -3.37947 -2.80515 0
M  V30 20211 H 1938 -4.05697 -1.27634 0
M  V30 20212 N 1936.31 0.158505 -1.56801 0
M  V30 20213 C 1937.56 0.871408 -1.81905 0
M  V30 20214 C 1937.87 1.8285 -0.694632 0
M  V30 20215 O 1939.08 2.58471 -0.830953 0
M  V30 20216 C 1937.54 1.60017 -3.2237 0
M  V30 20217 C 1937.14 0.686065 -4.42716 0
M  V30 20218 C 1938.89 2.30054 -3.56757 0
M  V30 20219 C 1936.79 1.41579 -5.74203 0
M  V30 20220 H 1935.72 0.329148 -0.678364 0
M  V30 20221 H 1938.38 0.124216 -1.83079 0
M  V30 20222 H 1936.76 2.39258 -3.1555 0
M  V30 20223 H 1937.93 -0.0702946 -4.60746 0
M  V30 20224 H 1936.25 0.0947 -4.16292 0
M  V30 20225 H 1938.84 2.85268 -4.52246 0
M  V30 20226 H 1939.19 3.06002 -2.82256 0
M  V30 20227 H 1939.72 1.57744 -3.65187 0
M  V30 20228 H 1936.46 0.698382 -6.51769 0
M  V30 20229 H 1935.98 2.14515 -5.60128 0
M  V30 20230 H 1937.66 1.95983 -6.16603 0
M  V30 20231 N 1937.79 1.51692 0.427485 0
M  V30 20232 C 1938.75 1.73114 1.50214 0
M  V30 20233 C 1939.75 0.601079 1.49143 0
M  V30 20234 O 1940.94 0.86875 1.50991 0
M  V30 20235 C 1938.07 1.79666 2.89712 0
M  V30 20236 H 1939.27 2.69033 1.32518 0
M  V30 20237 H 1936.82 1.4183 0.656804 0
M  V30 20238 H 1937.56 0.855968 3.128 0
M  V30 20239 H 1937.34 2.61803 2.91893 0
M  V30 20240 H 1938.83 1.98045 3.67652 0
M  V30 20241 N 1939.27 -0.683564 1.42004 0
M  V30 20242 C 1940.2 -1.8095 1.47578 0
M  V30 20243 C 1941.18 -1.66804 0.333208 0
M  V30 20244 O 1942.36 -1.86357 0.546314 0
M  V30 20245 C 1939.49 -3.19182 1.36895 0
M  V30 20246 C 1938.45 -3.4805 2.49089 0
M  V30 20247 C 1937.77 -4.85764 2.23467 0
M  V30 20248 C 1939.07 -3.4582 3.91415 0
M  V30 20249 H 1940.77 -1.76543 2.41812 0
M  V30 20250 H 1938.31 -0.84794 1.16387 0
M  V30 20251 H 1940.27 -3.97674 1.39404 0
M  V30 20252 H 1938.99 -3.24245 0.391513 0
M  V30 20253 H 1937.65 -2.71915 2.45882 0
M  V30 20254 H 1937.3 -4.87467 1.24037 0
M  V30 20255 H 1937 -5.06043 2.98654 0
M  V30 20256 H 1938.52 -5.66551 2.27711 0
M  V30 20257 H 1939.94 -4.14297 3.96272 0
M  V30 20258 H 1938.33 -3.77633 4.66383 0
M  V30 20259 H 1939.4 -2.4456 4.1871 0
M  V30 20260 N 1940.75 -1.28031 -0.919012 0
M  V30 20261 C 1941.66 -1.13341 -2.05404 0
M  V30 20262 C 1942.67 -0.0612715 -1.73892 0
M  V30 20263 O 1943.85 -0.26951 -1.99589 0
M  V30 20264 C 1940.91 -0.791143 -3.37553 0
M  V30 20265 C 1939.97 -1.94509 -3.82707 0
M  V30 20266 C 1939.21 -1.61905 -5.08549 0
M  V30 20267 O 1939.43 -0.530962 -5.67923 0
M  V30 20268 O 1938.36 -2.46102 -5.49288 0
M  V30 20269 H 1942.19 -2.08613 -2.20713 0
M  V30 20270 H 1939.77 -1.073 -1.03957 0
M  V30 20271 H 1941.66 -0.613981 -4.16903 0
M  V30 20272 H 1940.33 0.131966 -3.23431 0
M  V30 20273 H 1939.24 -2.17737 -3.04206 0
M  V30 20274 H 1940.57 -2.84871 -4.01384 0
M  V30 20275 N 1942.22 1.12672 -1.10194 0
M  V30 20276 C 1943.64 1.36123 -0.833225 0
M  V30 20277 C 1943.84 1.93889 0.548569 0
M  V30 20278 O 1942.9 2.16347 1.30192 0
M  V30 20279 C 1944.21 2.30515 -1.93089 0
M  V30 20280 C 1945.76 2.44111 -1.95905 0
M  V30 20281 C 1946.23 3.41816 -3.04838 0
M  V30 20282 N 1947.72 3.49371 -3.04128 0
M  V30 20283 C 1948.46 4.24874 -3.85058 0
M  V30 20284 N 1947.95 5.03464 -4.75916 0
M  V30 20285 N 1949.75 4.20255 -3.73285 0
M  V30 20286 H 1941.9 0.735332 -1.99265 0
M  V30 20287 H 1944.16 0.386141 -0.865794 0
M  V30 20288 H 1943.87 1.95239 -2.92531 0
M  V30 20289 H 1943.74 3.30611 -1.81593 0
M  V30 20290 H 1946.13 2.78669 -0.97097 0
M  V30 20291 H 1946.21 1.43911 -2.11479 0
M  V30 20292 H 1945.85 3.07988 -4.03864 0
M  V30 20293 H 1945.78 4.41839 -2.86506 0
M  V30 20294 H 1948.27 2.93303 -2.38289 0
M  V30 20295 H 1948.59 5.58406 -5.34231 0
M  V30 20296 H 1946.93 5.02669 -4.79946 0
M  V30 20297 H 1950.12 3.57939 -3.01658 0
M  V30 20298 H 1950.3 4.78843 -4.36593 0
M  V30 20299 N 1943.7 0.89031 1.30043 0
M  V30 20300 C 1945.11 0.561241 1.78065 0
M  V30 20301 C 1945.46 -0.922791 1.73144 0
M  V30 20302 O 1944.59 -1.72124 1.31157 0
M  V30 20303 C 1945.18 1.01201 3.23332 0
M  V30 20304 C 1943.74 0.734261 3.69169 0
M  V30 20305 C 1942.89 1.19199 2.50373 0
M  V30 20306 H 1945.84 1.074 1.16838 0
M  V30 20307 H 1945.86 0.343251 3.78949 0
M  V30 20308 H 1945.37 2.09213 3.26881 0
M  V30 20309 H 1943.47 -0.33365 3.71103 0
M  V30 20310 H 1943.59 1.32556 4.60397 0
M  V30 20311 H 1941.95 0.6112 2.47258 0
M  V30 20312 H 1942.73 2.27997 2.56656 0
M  V30 20313 N 1945.18 -1.43489 0.651812 0
M  V30 20314 C 1946.46 -1.95371 0.0946135 0
M  V30 20315 C 1946.84 -1.59316 -1.38498 0
M  V30 20316 O 1946.18 -0.87757 -2.10976 0
M  V30 20317 C 1946.39 -3.47346 0.339353 0
M  V30 20318 C 1947.74 -4.23901 0.243543 0
M  V30 20319 O 1948.77 -3.55161 0.271836 0
M  V30 20320 O 1947.63 -5.46248 0.166055 0
M  V30 20321 H 1944.72 -0.826934 -0.0104284 0
M  V30 20322 H 1947.27 -1.53436 0.724952 0
M  V30 20323 H 1946.04 -3.66712 1.36522 0
M  V30 20324 H 1945.66 -3.96277 -0.324122 0
M  V30 20325 N 1946.66 -0.393643 -1.52605 0
M  V30 20326 C 1947.91 0.188423 -2.00818 0
M  V30 20327 C 1948.22 1.47537 -1.28422 0
M  V30 20328 O 1949.43 2.13775 -1.6737 0
M  V30 20329 C 1947.88 0.386341 -3.5782 0
M  V30 20330 C 1947.49 -0.887606 -4.39119 0
M  V30 20331 C 1949.23 0.924537 -4.1431 0
M  V30 20332 C 1947.14 -0.657729 -5.87731 0
M  V30 20333 H 1946.07 0.0741894 -0.750341 0
M  V30 20334 H 1948.72 -0.516709 -1.76075 0
M  V30 20335 H 1947.1 1.15343 -3.7883 0
M  V30 20336 H 1948.28 -1.65965 -4.29875 0
M  V30 20337 H 1946.59 -1.35107 -3.93872 0
M  V30 20338 H 1949.19 1.1123 -5.23003 0
M  V30 20339 H 1949.53 1.89484 -3.70677 0
M  V30 20340 H 1950.07 0.216908 -3.97208 0
M  V30 20341 H 1946.8 -1.59915 -6.35694 0
M  V30 20342 H 1946.32 0.0752963 -5.99753 0
M  V30 20343 H 1948 -0.293935 -6.46332 0
M  V30 20344 N 1948.14 1.57115 -0.123593 0
M  V30 20345 C 1949.41 1.86893 0.577099 0
M  V30 20346 C 1949.79 1.02556 1.84514 0
M  V30 20347 O 1949.14 0.105755 2.28255 0
M  V30 20348 C 1949.35 3.38107 0.865122 0
M  V30 20349 C 1950.7 4.0681 1.21618 0
M  V30 20350 O 1951.72 3.43153 0.955237 0
M  V30 20351 O 1950.58 5.19186 1.70612 0
M  V30 20352 H 1947.68 0.773842 0.291716 0
M  V30 20353 H 1950.22 1.68959 -0.158443 0
M  V30 20354 H 1948.99 3.91286 -0.0332696 0
M  V30 20355 H 1948.62 3.61488 1.65566 0
M  V30 20356 N 1949.61 -0.150187 1.56883 0
M  V30 20357 C 1951.02 -0.710574 1.72649 0
M  V30 20358 C 1951.38 -1.81812 0.737493 0
M  V30 20359 O 1950.5 -2.16184 -0.0965795 0
M  V30 20360 C 1951.1 -1.29572 3.13044 0
M  V30 20361 C 1949.65 -1.80271 3.30423 0
M  V30 20362 C 1948.8 -0.689923 2.6858 0
M  V30 20363 H 1951.75 0.0754473 1.58521 0
M  V30 20364 H 1951.77 -2.16552 3.12867 0
M  V30 20365 H 1951.29 -0.489412 3.85002 0
M  V30 20366 H 1949.39 -2.63479 2.63457 0
M  V30 20367 H 1949.5 -1.93362 4.38347 0
M  V30 20368 H 1947.86 -1.11574 2.28961 0
M  V30 20369 H 1948.65 0.104892 3.4314 0
M  V30 20370 N 1951.09 -1.51916 -0.419434 0
M  V30 20371 C 1952.34 -1.65142 -1.16502 0
M  V30 20372 C 1952.66 -0.378632 -1.91289 0
M  V30 20373 O 1951.93 0.606164 -1.86286 0
M  V30 20374 H 1950.51 -0.608667 -0.433051 0
M  V30 20375 H 1953.17 -1.88919 -0.47914 0
M  V30 20376 H 1952.27 -2.48762 -1.88477 0
M  V30 20377 N 1952.57 0.676023 -1.42365 0
M  V30 20378 C 1953.8 1.46937 -1.46371 0
M  V30 20379 C 1954.22 1.87946 -0.076099 0
M  V30 20380 O 1953.58 1.55917 0.925172 0
M  V30 20381 C 1953.63 2.69558 -2.39523 0
M  V30 20382 O 1952.73 3.67782 -1.86575 0
M  V30 20383 H 1952.07 0.441478 -0.495977 0
M  V30 20384 H 1954.6 0.829284 -1.8704 0
M  V30 20385 H 1954.61 3.17642 -2.56061 0
M  V30 20386 H 1953.29 2.39049 -3.40336 0
M  V30 20387 H 1951.86 3.26808 -1.79585 0
M  V30 20388 N 1954.05 1.28517 0.912209 0
M  V30 20389 C 1955.28 1.18615 1.69523 0
M  V30 20390 C 1955.69 -0.254997 1.8707 0
M  V30 20391 O 1955.05 -1.17217 1.3988 0
M  V30 20392 C 1955.1 1.88188 3.08655 0
M  V30 20393 O 1954.82 3.26673 2.91918 0
M  V30 20394 C 1956.32 1.84607 4.03032 0
M  V30 20395 H 1953.54 0.411679 0.529869 0
M  V30 20396 H 1956.09 1.69668 1.14162 0
M  V30 20397 H 1954.24 1.41001 3.60829 0
M  V30 20398 H 1954.65 3.61538 3.79987 0
M  V30 20399 H 1956.13 2.37874 4.98116 0
M  V30 20400 H 1956.61 0.818787 4.315 0
M  V30 20401 H 1957.21 2.3148 3.56787 0
M  V30 20402 N 1955.53 -1.12086 1.1079 0
M  V30 20403 C 1956.44 -2.21514 0.772578 0
M  V30 20404 C 1957.45 -1.72454 -0.231462 0
M  V30 20405 O 1958.63 -2.01281 -0.0693074 0
M  V30 20406 C 1955.69 -3.46043 0.213364 0
M  V30 20407 C 1954.75 -4.09925 1.27515 0
M  V30 20408 C 1953.99 -5.28509 0.742524 0
M  V30 20409 O 1954.21 -5.68779 -0.429786 0
M  V30 20410 O 1953.14 -5.82802 1.50417 0
M  V30 20411 H 1956.97 -2.52596 1.68608 0
M  V30 20412 H 1954.56 -1.20492 0.883294 0
M  V30 20413 H 1956.44 -4.21294 -0.0944683 0
M  V30 20414 H 1955.11 -3.16628 -0.672947 0
M  V30 20415 H 1954.02 -3.36436 1.63589 0
M  V30 20416 H 1955.35 -4.43504 2.13461 0
M  V30 20417 N 1957 -0.897194 -1.29569 0
M  V30 20418 C 1958.42 -0.592933 -1.48177 0
M  V30 20419 C 1958.62 0.866214 -1.81931 0
M  V30 20420 O 1957.68 1.64658 -1.91427 0
M  V30 20421 C 1958.99 -1.5166 -2.59653 0
M  V30 20422 C 1960.54 -1.52153 -2.73529 0
M  V30 20423 C 1961.01 -2.43142 -3.88131 0
M  V30 20424 N 1962.5 -2.41175 -3.9546 0
M  V30 20425 C 1963.24 -3.08283 -4.83476 0
M  V30 20426 N 1962.73 -3.84662 -5.76201 0
M  V30 20427 N 1964.53 -2.97453 -4.76946 0
M  V30 20428 H 1956.68 -1.84096 -1.05935 0
M  V30 20429 H 1958.94 -0.788701 -0.52598 0
M  V30 20430 H 1958.65 -2.55612 -2.41569 0
M  V30 20431 H 1958.52 -1.23526 -3.564 0
M  V30 20432 H 1960.91 -0.489472 -2.91012 0
M  V30 20433 H 1960.99 -1.84324 -1.77365 0
M  V30 20434 H 1960.63 -3.46441 -3.71404 0
M  V30 20435 H 1960.56 -2.08282 -4.83659 0
M  V30 20436 H 1963.05 -1.8568 -3.29137 0
M  V30 20437 H 1963.37 -4.32929 -6.4015 0
M  V30 20438 H 1961.71 -3.88769 -5.76094 0
M  V30 20439 H 1964.9 -2.37301 -4.03492 0
M  V30 20440 H 1965.08 -3.50029 -5.45329 0
M  V30 20441 N 1958.48 1.43142 -0.659413 0
M  V30 20442 C 1959.73 2.02038 -0.175593 0
M  V30 20443 C 1960.06 1.5194 1.20946 0
M  V30 20444 O 1959.34 0.715095 1.80877 0
M  V30 20445 C 1959.62 3.59581 -0.193256 0
M  V30 20446 C 1959.47 4.19896 -1.61267 0
M  V30 20447 C 1960.79 4.37616 0.466976 0
M  V30 20448 H 1957.91 0.734103 -0.0652811 0
M  V30 20449 H 1960.55 1.7036 -0.841276 0
M  V30 20450 H 1958.7 3.867 0.373574 0
M  V30 20451 H 1960.37 4.03786 -2.23056 0
M  V30 20452 H 1958.62 3.7631 -2.15807 0
M  V30 20453 H 1959.29 5.28999 -1.57683 0
M  V30 20454 H 1961.76 4.16097 -0.0153667 0
M  V30 20455 H 1960.64 5.47261 0.423915 0
M  V30 20456 H 1960.9 4.14332 1.54211 0
M  V30 20457 N 1959.96 0.40173 1.52394 0
M  V30 20458 C 1961.21 -0.176458 2.0173 0
M  V30 20459 C 1961.54 -1.45771 1.28768 0
M  V30 20460 O 1960.79 -1.9197 0.380249 0
M  V30 20461 C 1961.09 -0.478372 3.54184 0
M  V30 20462 C 1960.76 0.712798 4.4523 0
M  V30 20463 C 1959.42 1.03955 4.69837 0
M  V30 20464 C 1961.77 1.5091 4.98874 0
M  V30 20465 C 1959.1 2.16392 5.45336 0
M  V30 20466 C 1961.45 2.62418 5.75604 0
M  V30 20467 C 1960.11 2.95587 5.98485 0
M  V30 20468 H 1959.38 -0.0645707 0.738181 0
M  V30 20469 H 1962.03 0.541631 1.83681 0
M  V30 20470 H 1960.34 -1.27794 3.70373 0
M  V30 20471 H 1962.03 -0.938577 3.89861 0
M  V30 20472 H 1958.62 0.448135 4.26251 0
M  V30 20473 H 1962.81 1.26989 4.79779 0
M  V30 20474 H 1958.06 2.42447 5.61275 0
M  V30 20475 H 1962.24 3.24513 6.16169 0
M  V30 20476 H 1959.86 3.82829 6.56769 0
M  V30 20477 N 1961.44 -1.57047 0.131923 0
M  V30 20478 C 1962.37 -2.19006 -0.809859 0
M  V30 20479 C 1963.35 -1.13384 -1.26799 0
M  V30 20480 O 1964.53 -1.4167 -1.32827 0
M  V30 20481 C 1961.66 -2.79973 -2.05505 0
M  V30 20482 C 1960.62 -3.9129 -1.73424 0
M  V30 20483 C 1959.94 -4.39123 -3.05081 0
M  V30 20484 C 1961.24 -5.12783 -0.992535 0
M  V30 20485 H 1962.94 -2.97958 -0.293522 0
M  V30 20486 H 1960.48 -1.4332 -0.13974 0
M  V30 20487 H 1962.44 -3.2198 -2.71858 0
M  V30 20488 H 1961.16 -1.9833 -2.59486 0
M  V30 20489 H 1959.82 -3.49879 -1.09456 0
M  V30 20490 H 1959.47 -3.54322 -3.57022 0
M  V30 20491 H 1959.17 -5.14197 -2.84385 0
M  V30 20492 H 1960.69 -4.8379 -3.72531 0
M  V30 20493 H 1962.11 -5.51728 -1.55785 0
M  V30 20494 H 1960.5 -5.93522 -0.886062 0
M  V30 20495 H 1961.57 -4.84896 0.0184538 0
M  V30 20496 N 1962.92 0.141865 -1.5696 0
M  V30 20497 C 1964.14 0.872384 -1.8816 0
M  V30 20498 C 1964.57 1.73713 -0.721494 0
M  V30 20499 O 1963.92 1.78294 0.328757 0
M  V30 20500 C 1963.97 1.7007 -3.17976 0
M  V30 20501 O 1963.08 2.80545 -3.02271 0
M  V30 20502 H 1962.42 0.242672 -0.618066 0
M  V30 20503 H 1964.95 0.131136 -2.04179 0
M  V30 20504 H 1964.96 2.09466 -3.50126 0
M  V30 20505 H 1963.63 1.06573 -4.02014 0
M  V30 20506 H 1962.21 2.44519 -2.81541 0
M  V30 20507 N 1964.39 1.52136 0.411372 0
M  V30 20508 C 1965.64 1.66331 1.16025 0
M  V30 20509 C 1965.97 0.390981 1.90223 0
M  V30 20510 O 1965.25 -0.610512 1.8467 0
M  V30 20511 C 1965.53 2.88386 2.15651 0
M  V30 20512 C 1965.38 4.25664 1.45364 0
M  V30 20513 C 1966.7 3.05963 3.16346 0
M  V30 20514 H 1963.82 0.60531 0.420439 0
M  V30 20515 H 1966.46 1.84685 0.446247 0
M  V30 20516 H 1964.61 2.72869 2.76541 0
M  V30 20517 H 1966.29 4.52904 0.876105 0
M  V30 20518 H 1964.53 4.27168 0.75563 0
M  V30 20519 H 1965.2 5.07109 2.18047 0
M  V30 20520 H 1967.68 3.20363 2.65531 0
M  V30 20521 H 1966.55 3.92882 3.83321 0
M  V30 20522 H 1966.81 2.19177 3.83945 0
M  V30 20523 N 1965.87 -0.668464 1.42721 0
M  V30 20524 C 1967.1 -1.46158 1.47148 0
M  V30 20525 C 1967.52 -1.87903 0.0860652 0
M  V30 20526 O 1966.88 -1.56406 -0.91689 0
M  V30 20527 C 1966.93 -2.68284 2.40949 0
M  V30 20528 O 1966.03 -3.66787 1.88522 0
M  V30 20529 H 1965.37 -0.438842 0.498311 0
M  V30 20530 H 1967.9 -0.819353 1.87477 0
M  V30 20531 H 1967.91 -3.1628 2.57742 0
M  V30 20532 H 1966.59 -2.3724 3.41599 0
M  V30 20533 H 1965.17 -3.25851 1.81315 0
M  V30 20534 N 1967.35 -1.28999 -0.905381 0
M  V30 20535 C 1968.3 -1.13515 -2.0302 0
M  V30 20536 C 1969.29 -0.0522132 -1.6932 0
M  V30 20537 O 1970.5 -0.211599 -1.78752 0
M  V30 20538 H 1966.87 -0.350474 -0.665336 0
M  V30 20539 H 1968.85 -2.08758 -2.13219 0
M  V30 20540 C 1967.59 -0.822531 -3.37831 0
M  V30 20541 H 1966.92 -1.64783 -3.64262 0
M  V30 20542 H 1968.36 -0.754193 -4.17238 0
M  V30 20543 C 1966.82 0.474033 -3.33548 0
M  V30 20544 O 1967.35 1.50182 -3.7257 0
M  V30 20545 N 1965.55 0.477812 -2.86645 0
M  V30 20546 H 1965.1 -0.359023 -2.55086 0
M  V30 20547 H 1965.06 1.34533 -2.84162 0
M  V30 20548 N 1968.83 1.11497 -1.11383 0
M  V30 20549 C 1970.06 1.86756 -0.88351 0
M  V30 20550 C 1970.47 1.80404 0.570169 0
M  V30 20551 O 1969.81 1.18298 1.40539 0
M  V30 20552 C 1969.87 3.3647 -1.26603 0
M  V30 20553 C 1969.54 3.6659 -2.72876 0
M  V30 20554 C 1970.53 3.64121 -3.71095 0
M  V30 20555 C 1968.22 3.95614 -3.09507 0
M  V30 20556 C 1970.21 3.90253 -5.03966 0
M  V30 20557 C 1967.9 4.21404 -4.42563 0
M  V30 20558 C 1968.9 4.18712 -5.39601 0
M  V30 20559 O 1968.59 4.43855 -6.7026 0
M  V30 20560 H 1968.32 0.597446 -0.316283 0
M  V30 20561 H 1970.87 1.41938 -1.48469 0
M  V30 20562 H 1969.1 3.8189 -0.608003 0
M  V30 20563 H 1970.79 3.93092 -1.01162 0
M  V30 20564 H 1971.56 3.41749 -3.4414 0
M  V30 20565 H 1967.44 3.96846 -2.34594 0
M  V30 20566 H 1970.98 3.88067 -5.79698 0
M  V30 20567 H 1966.88 4.43252 -4.69252 0
M  V30 20568 H 1967.64 4.61425 -6.76039 0
M  V30 20569 N 1970.31 0.904053 1.29092 0
M  V30 20570 C 1971.56 0.528154 1.94662 0
M  V30 20571 C 1971.87 -0.930986 1.72023 0
M  V30 20572 O 1973.08 -1.4146 2.31735 0
M  V30 20573 C 1971.53 0.893684 3.48628 0
M  V30 20574 C 1971.14 2.37189 3.8006 0
M  V30 20575 C 1972.88 0.587904 4.20409 0
M  V30 20576 C 1970.79 2.67805 5.2729 0
M  V30 20577 H 1969.72 0.193795 0.72867 0
M  V30 20578 H 1972.37 1.10164 1.46752 0
M  V30 20579 H 1970.75 0.249078 3.95216 0
M  V30 20580 H 1971.93 3.06241 3.44315 0
M  V30 20581 H 1970.24 2.64714 3.21428 0
M  V30 20582 H 1972.84 0.793441 5.2878 0
M  V30 20583 H 1973.18 -0.473803 4.13595 0
M  V30 20584 H 1973.72 1.19054 3.79567 0
M  V30 20585 H 1970.45 3.72791 5.39172 0
M  V30 20586 H 1969.97 2.03381 5.64266 0
M  V30 20587 H 1971.65 2.543 5.94929 0
M  V30 20588 N 1971.79 -1.4279 0.666995 0
M  V30 20589 C 1973.03 -2.01644 0.18603 0
M  V30 20590 C 1973.36 -1.52694 -1.20477 0
M  V30 20591 O 1972.62 -0.716418 -1.82115 0
M  V30 20592 C 1972.91 -3.57038 0.160763 0
M  V30 20593 C 1972.58 -4.25389 1.49517 0
M  V30 20594 C 1971.24 -4.43775 1.86056 0
M  V30 20595 C 1973.59 -4.63976 2.37436 0
M  V30 20596 C 1970.92 -4.98018 3.10152 0
M  V30 20597 C 1973.27 -5.19596 3.60837 0
M  V30 20598 C 1971.94 -5.36197 3.97554 0
M  V30 20599 H 1971.21 -0.737867 0.0680731 0
M  V30 20600 H 1973.86 -1.71081 0.860435 0
M  V30 20601 H 1972.16 -3.87223 -0.597132 0
M  V30 20602 H 1973.86 -4.00349 -0.228461 0
M  V30 20603 H 1970.45 -4.11432 1.20091 0
M  V30 20604 H 1974.63 -4.49451 2.10494 0
M  V30 20605 H 1969.89 -5.09057 3.38632 0
M  V30 20606 H 1974.06 -5.4844 4.2917 0
M  V30 20607 H 1971.69 -5.77992 4.9379 0
M  V30 20608 N 1973.26 -0.409806 -1.52179 0
M  V30 20609 C 1974.49 0.165235 -2.06239 0
M  V30 20610 C 1974.91 1.38804 -1.2798 0
M  V30 20611 O 1974.26 1.79458 -0.331843 0
M  V30 20612 C 1974.31 0.514997 -3.57813 0
M  V30 20613 O 1974.04 -0.659248 -4.33111 0
M  V30 20614 C 1975.54 1.1437 -4.28293 0
M  V30 20615 H 1972.76 0.0200917 -0.670699 0
M  V30 20616 H 1975.3 -0.580955 -1.96074 0
M  V30 20617 H 1973.46 1.21108 -3.67983 0
M  V30 20618 H 1973.87 -0.367126 -5.23214 0
M  V30 20619 H 1975.34 1.33863 -5.35523 0
M  V30 20620 H 1975.82 2.11699 -3.84812 0
M  V30 20621 H 1976.43 0.487795 -4.22493 0
M  V30 20622 N 1974.74 1.56975 -0.14025 0
M  V30 20623 C 1975.7 2.15234 0.78784 0
M  V30 20624 C 1976.7 1.09243 1.17994 0
M  V30 20625 O 1977.89 1.34916 1.10197 0
M  V30 20626 C 1975.03 2.70994 2.06821 0
M  V30 20627 H 1976.22 2.98579 0.281166 0
M  V30 20628 H 1973.77 1.55918 0.109151 0
M  V30 20629 H 1974.51 1.91297 2.6187 0
M  V30 20630 H 1974.29 3.48532 1.79633 0
M  V30 20631 H 1975.78 3.15904 2.7312 0
M  V30 20632 N 1976.22 -0.133539 1.57033 0
M  V30 20633 C 1977.47 -0.842358 1.83268 0
M  V30 20634 C 1977.78 -1.81722 0.723634 0
M  V30 20635 O 1978.99 -2.57117 0.871969 0
M  V30 20636 C 1977.44 -1.54868 3.24875 0
M  V30 20637 C 1977.05 -0.615546 4.43751 0
M  V30 20638 C 1978.8 -2.24349 3.60372 0
M  V30 20639 C 1976.7 -1.32426 5.76383 0
M  V30 20640 H 1975.63 -0.318314 0.683515 0
M  V30 20641 H 1978.28 -0.0950741 1.83254 0
M  V30 20642 H 1976.67 -2.34207 3.19316 0
M  V30 20643 H 1977.84 0.143586 4.60576 0
M  V30 20644 H 1976.15 -0.0284595 4.1639 0
M  V30 20645 H 1978.75 -2.78037 4.56727 0
M  V30 20646 H 1979.09 -3.01473 2.87088 0
M  V30 20647 H 1979.63 -1.51914 3.67651 0
M  V30 20648 H 1976.37 -0.594603 6.52798 0
M  V30 20649 H 1975.89 -2.05577 5.6347 0
M  V30 20650 H 1977.57 -1.86148 6.19643 0
M  V30 20651 N 1977.7 -1.52352 -0.403298 0
M  V30 20652 C 1978.94 -1.66697 -1.14971 0
M  V30 20653 C 1979.27 -0.39978 -1.90347 0
M  V30 20654 O 1978.53 0.617431 -1.85705 0
M  V30 20655 C 1978.83 -2.84352 -2.16515 0
M  V30 20656 C 1978.49 -4.22348 -1.57903 0
M  V30 20657 C 1977.15 -4.59881 -1.41643 0
M  V30 20658 C 1979.51 -5.0832 -1.15154 0
M  V30 20659 C 1976.83 -5.81059 -0.811602 0
M  V30 20660 C 1979.19 -6.30109 -0.560875 0
M  V30 20661 C 1977.85 -6.66386 -0.385456 0
M  V30 20662 H 1977.12 -0.609988 -0.420708 0
M  V30 20663 H 1979.77 -1.86467 -0.436164 0
M  V30 20664 H 1978.07 -2.58941 -2.94036 0
M  V30 20665 H 1979.77 -2.92647 -2.74151 0
M  V30 20666 H 1976.36 -3.92774 -1.71543 0
M  V30 20667 H 1980.54 -4.79902 -1.26523 0
M  V30 20668 H 1975.8 -6.07786 -0.66376 0
M  V30 20669 H 1979.97 -6.96048 -0.221267 0
M  V30 20670 H 1977.6 -7.60152 0.0853049 0
M  V30 20671 N 1979.18 0.660885 -1.43074 0
M  V30 20672 C 1980.42 1.42296 -1.44498 0
M  V30 20673 C 1980.75 1.94087 -0.0661594 0
M  V30 20674 O 1980.03 1.71803 0.911806 0
M  V30 20675 C 1980.31 2.60995 -2.481 0
M  V30 20676 C 1980.17 2.14746 -3.95227 0
M  V30 20677 C 1981.48 3.63212 -2.48526 0
M  V30 20678 H 1978.6 0.516071 -0.526156 0
M  V30 20679 H 1981.25 0.749896 -1.74575 0
M  V30 20680 H 1979.4 3.18417 -2.22583 0
M  V30 20681 H 1981.07 1.62384 -4.31774 0
M  V30 20682 H 1979.31 1.46188 -4.08426 0
M  V30 20683 H 1979.98 3.00068 -4.63318 0
M  V30 20684 H 1982.46 3.15534 -2.71251 0
M  V30 20685 H 1981.33 4.43825 -3.22971 0
M  V30 20686 H 1981.59 4.15285 -1.51626 0
M  V30 20687 N 1980.65 1.29477 0.898527 0
M  V30 20688 C 1981.62 1.14706 1.98432 0
M  V30 20689 C 1982.62 0.0821822 1.6059 0
M  V30 20690 O 1983.81 0.329216 1.71061 0
M  V30 20691 C 1980.94 0.754356 3.32449 0
M  V30 20692 H 1982.13 2.11154 2.12964 0
M  V30 20693 H 1979.69 1.1268 1.08319 0
M  V30 20694 H 1980.42 -0.210224 3.23618 0
M  V30 20695 H 1980.21 1.52377 3.61281 0
M  V30 20696 H 1981.7 0.674095 4.12123 0
M  V30 20697 N 1982.13 -1.10905 1.11972 0
M  V30 20698 C 1983.04 -2.20682 0.796029 0
M  V30 20699 C 1984.06 -1.72689 -0.213158 0
M  V30 20700 O 1985.23 -2.01343 -0.047955 0
M  V30 20701 C 1982.3 -3.45797 0.250055 0
M  V30 20702 C 1981.36 -4.08549 1.31855 0
M  V30 20703 C 1980.59 -5.27692 0.798538 0
M  V30 20704 O 1980.82 -5.69202 -0.369435 0
M  V30 20705 O 1979.75 -5.81174 1.5659 0
M  V30 20706 H 1983.58 -2.50794 1.71278 0
M  V30 20707 H 1981.16 -1.19548 0.896024 0
M  V30 20708 H 1983.04 -4.21371 -0.0497791 0
M  V30 20709 H 1981.72 -3.17324 -0.639327 0
M  V30 20710 H 1980.63 -3.34682 1.67148 0
M  V30 20711 H 1981.96 -4.41215 2.18153 0
M  V30 20712 N 1983.61 -0.910886 -1.2861 0
M  V30 20713 C 1984.54 -0.341567 -2.25629 0
M  V30 20714 C 1985.52 0.552595 -1.52922 0
M  V30 20715 O 1986.71 0.496894 -1.81833 0
M  V30 20716 C 1983.83 0.512029 -3.34807 0
M  V30 20717 C 1982.88 -0.316357 -4.25325 0
M  V30 20718 S 1983.71 -1.72128 -5.07082 0
M  V30 20719 C 1984.87 -0.874908 -6.19755 0
M  V30 20720 H 1985.1 -1.16388 -2.73571 0
M  V30 20721 H 1982.63 -0.71195 -1.37006 0
M  V30 20722 H 1984.59 0.998707 -3.98166 0
M  V30 20723 H 1983.25 1.3087 -2.85538 0
M  V30 20724 H 1982.45 0.336204 -5.02877 0
M  V30 20725 H 1982.05 -0.736583 -3.66675 0
M  V30 20726 H 1984.34 -0.103269 -6.77421 0
M  V30 20727 H 1985.28 -1.62288 -6.89252 0
M  V30 20728 H 1985.69 -0.424347 -5.62903 0
M  V30 20729 N 1985.09 1.42434 -0.674558 0
M  V30 20730 C 1986.02 2.28136 0.0540793 0
M  V30 20731 C 1987 1.41051 0.808915 0
M  V30 20732 O 1988.18 1.70489 0.80409 0
M  V30 20733 C 1985.31 3.20893 1.08375 0
M  V30 20734 C 1984.36 4.24382 0.424518 0
M  V30 20735 S 1985.19 5.2922 -0.817708 0
M  V30 20736 C 1986.35 6.25545 0.210891 0
M  V30 20737 H 1986.58 2.89586 -0.672854 0
M  V30 20738 H 1984.11 1.4726 -0.464094 0
M  V30 20739 H 1986.07 3.74873 1.67273 0
M  V30 20740 H 1984.73 2.5858 1.78312 0
M  V30 20741 H 1983.92 4.8947 1.20145 0
M  V30 20742 H 1983.53 3.7389 -0.0908715 0
M  V30 20743 H 1985.82 6.68986 1.07069 0
M  V30 20744 H 1986.76 7.06938 -0.405516 0
M  V30 20745 H 1987.17 5.61753 0.55626 0
M  V30 20746 N 1986.57 0.417871 1.51959 0
M  V30 20747 C 1987.81 -0.155282 2.02205 0
M  V30 20748 C 1988.15 -1.44044 1.3025 0
M  V30 20749 O 1987.42 -1.90098 0.411449 0
M  V30 20750 C 1987.7 -0.394038 3.57938 0
M  V30 20751 C 1987.56 0.908404 4.40532 0
M  V30 20752 C 1988.88 -1.17238 4.24197 0
M  V30 20753 H 1985.99 -0.0549616 0.734948 0
M  V30 20754 H 1988.64 0.553053 1.81773 0
M  V30 20755 H 1986.79 -0.997422 3.75478 0
M  V30 20756 H 1988.46 1.54427 4.34684 0
M  V30 20757 H 1986.7 1.51743 4.06395 0
M  V30 20758 H 1987.37 0.69563 5.47599 0
M  V30 20759 H 1989.85 -0.661461 4.10809 0
M  V30 20760 H 1988.72 -1.30818 5.33083 0
M  V30 20761 H 1988.99 -2.19534 3.83741 0
M  V30 20762 N 1988.04 -1.56898 0.148573 0
M  V30 20763 C 1988.99 -2.1684 -0.790514 0
M  V30 20764 C 1989.96 -1.10173 -1.24303 0
M  V30 20765 O 1991.15 -1.38221 -1.31527 0
M  V30 20766 C 1988.29 -2.79542 -2.02361 0
M  V30 20767 C 1987.4 -4.00606 -1.61676 0
M  V30 20768 C 1986.53 -4.51303 -2.80178 0
M  V30 20769 C 1985.57 -5.64828 -2.35873 0
M  V30 20770 N 1984.71 -6.10136 -3.47389 0
M  V30 20771 H 1989.55 -2.96751 -0.27255 0
M  V30 20772 H 1987.09 -1.46586 -0.122814 0
M  V30 20773 H 1989.05 -3.14042 -2.74652 0
M  V30 20774 H 1987.68 -2.02273 -2.51566 0
M  V30 20775 H 1986.73 -3.72076 -0.791448 0
M  V30 20776 H 1988.04 -4.82848 -1.25138 0
M  V30 20777 H 1987.19 -4.87865 -3.60656 0
M  V30 20778 H 1985.93 -3.68071 -3.19961 0
M  V30 20779 H 1984.94 -5.2784 -1.53835 0
M  V30 20780 H 1986.16 -6.49846 -1.97174 0
M  V30 20781 H 1984.11 -5.29839 -3.8679 0
M  V30 20782 H 1984.03 -6.87308 -3.14871 0
M  V30 20783 H 1985.29 -6.51344 -4.28219 0
M  V30 20784 N 1989.52 0.125209 -1.57102 0
M  V30 20785 C 1990.77 0.835321 -1.84798 0
M  V30 20786 C 1991.1 1.79819 -0.73341 0
M  V30 20787 O 1990.38 1.92737 0.261268 0
M  V30 20788 C 1990.66 1.59069 -3.23062 0
M  V30 20789 C 1990.51 0.647841 -4.4511 0
M  V30 20790 C 1991.83 2.54829 -3.58818 0
M  V30 20791 H 1988.95 0.302222 -0.672184 0
M  V30 20792 H 1991.59 0.0997638 -1.89738 0
M  V30 20793 H 1989.74 2.21772 -3.18982 0
M  V30 20794 H 1991.41 0.0301293 -4.6129 0
M  V30 20795 H 1989.66 -0.041074 -4.33781 0
M  V30 20796 H 1990.33 1.21288 -5.3851 0
M  V30 20797 H 1992.8 2.02233 -3.63649 0
M  V30 20798 H 1991.68 3.04716 -4.56551 0
M  V30 20799 H 1991.94 3.37205 -2.85911 0
M  V30 20800 N 1991 1.52564 0.395213 0
M  V30 20801 C 1992.25 1.67552 1.14254 0
M  V30 20802 C 1992.58 0.411135 1.89798 0
M  V30 20803 O 1991.85 -0.590891 1.85307 0
M  V30 20804 C 1992.14 2.90657 2.1258 0
M  V30 20805 C 1991.99 4.27181 1.40841 0
M  V30 20806 C 1993.31 3.09301 3.13083 0
M  V30 20807 H 1990.43 0.609735 0.413995 0
M  V30 20808 H 1993.07 1.85148 0.426634 0
M  V30 20809 H 1991.22 2.75787 2.73631 0
M  V30 20810 H 1992.89 4.53808 0.82802 0
M  V30 20811 H 1991.14 4.27946 0.71028 0
M  V30 20812 H 1991.81 5.09393 2.12656 0
M  V30 20813 H 1994.28 3.23162 2.62118 0
M  V30 20814 H 1993.16 3.96925 3.79133 0
M  V30 20815 H 1993.42 2.23237 3.81599 0
M  V30 20816 N 1992.48 -0.653289 1.43422 0
M  V30 20817 C 1993.44 -1.74802 1.48246 0
M  V30 20818 C 1994.44 -1.56552 0.367179 0
M  V30 20819 O 1995.63 -1.62451 0.628923 0
M  V30 20820 C 1992.76 -3.13673 1.33499 0
M  V30 20821 H 1993.96 -1.71906 2.4574 0
M  V30 20822 H 1991.51 -0.864936 1.30187 0
M  V30 20823 H 1992.24 -3.22181 0.370118 0
M  V30 20824 H 1992.03 -3.28325 2.14348 0
M  V30 20825 H 1993.52 -3.93502 1.39806 0
M  V30 20826 N 1993.96 -1.29952 -0.891648 0
M  V30 20827 C 1994.89 -1.18331 -2.01296 0
M  V30 20828 C 1995.87 -0.0755571 -1.69932 0
M  V30 20829 O 1997.05 -0.256435 -1.92499 0
M  V30 20830 C 1994.18 -0.867421 -3.36293 0
M  V30 20831 C 1993.14 -1.93237 -3.81894 0
M  V30 20832 C 1992.46 -1.46962 -5.14107 0
M  V30 20833 C 1993.76 -3.34246 -4.01344 0
M  V30 20834 H 1995.46 -2.12138 -2.11276 0
M  V30 20835 H 1993 -1.02132 -1.01514 0
M  V30 20836 H 1994.96 -0.772806 -4.14253 0
M  V30 20837 H 1993.68 0.106342 -3.26427 0
M  V30 20838 H 1992.34 -2.01651 -3.06157 0
M  V30 20839 H 1991.99 -0.484311 -5.00663 0
M  V30 20840 H 1991.69 -2.1819 -5.45589 0
M  V30 20841 H 1993.21 -1.38866 -5.94599 0
M  V30 20842 H 1994.62 -3.28629 -4.69762 0
M  V30 20843 H 1993.02 -4.03502 -4.44192 0
M  V30 20844 H 1994.09 -3.76629 -3.05415 0
M  V30 20845 N 1995.44 1.1031 -1.12559 0
M  V30 20846 C 1996.68 1.81937 -0.879957 0
M  V30 20847 C 1997 1.85675 0.595811 0
M  V30 20848 O 1996.27 1.33574 1.433 0
M  V30 20849 H 1994.85 0.67377 -0.322556 0
M  V30 20850 H 1997.52 1.33464 -1.42033 0
M  V30 20851 H 1996.61 2.8542 -1.26261 0
M  V30 20852 N 1996.91 0.917694 1.28125 0
M  V30 20853 C 1997.84 0.426179 2.29578 0
M  V30 20854 C 1998.82 -0.508289 1.62328 0
M  V30 20855 O 2000.01 -0.415181 1.8971 0
M  V30 20856 C 1997.14 -0.331007 3.45719 0
M  V30 20857 C 1996.09 0.51469 4.24894 0
M  V30 20858 C 1995.42 -0.371069 5.33411 0
M  V30 20859 C 1996.72 1.774 4.9125 0
M  V30 20860 H 1998.41 1.27403 2.7094 0
M  V30 20861 H 1995.96 0.614065 1.30251 0
M  V30 20862 H 1997.91 -0.68573 4.15783 0
M  V30 20863 H 1996.64 -1.2128 3.03247 0
M  V30 20864 H 1995.3 0.851986 3.56562 0
M  V30 20865 H 1994.94 -1.25152 4.87182 0
M  V30 20866 H 1994.64 0.19121 5.87289 0
M  V30 20867 H 1996.17 -0.721587 6.06321 0
M  V30 20868 H 1997.58 1.48795 5.53654 0
M  V30 20869 H 1995.98 2.27899 5.55141 0
M  V30 20870 H 1997.05 2.49947 4.15517 0
M  V30 20871 N 1998.39 -1.42074 0.682102 0
M  V30 20872 C 1999.32 -2.33489 0.0224223 0
M  V30 20873 C 2000.3 -1.51082 -0.781557 0
M  V30 20874 O 2001.49 -1.79662 -0.737243 0
M  V30 20875 C 1998.62 -3.34773 -0.92434 0
M  V30 20876 C 1997.57 -4.2739 -0.228431 0
M  V30 20877 C 1996.9 -5.1894 -1.28863 0
M  V30 20878 C 1998.2 -5.14539 0.897035 0
M  V30 20879 H 1999.89 -2.88901 0.785898 0
M  V30 20880 H 1997.44 -1.38913 0.379376 0
M  V30 20881 H 1999.39 -3.97641 -1.39497 0
M  V30 20882 H 1998.11 -2.77681 -1.71932 0
M  V30 20883 H 1996.77 -3.65927 0.222034 0
M  V30 20884 H 1996.42 -4.5817 -2.07579 0
M  V30 20885 H 1996.12 -5.81736 -0.828084 0
M  V30 20886 H 1997.65 -5.84683 -1.76005 0
M  V30 20887 H 1999.06 -5.71051 0.507296 0
M  V30 20888 H 1997.46 -5.86206 1.28383 0
M  V30 20889 H 1998.53 -4.52505 1.74263 0
M  V30 20890 N 1999.87 -0.425924 -1.51735 0
M  V30 20891 C 2001.09 0.145767 -2.06887 0
M  V30 20892 C 2001.52 1.36671 -1.29239 0
M  V30 20893 O 2000.88 1.78323 -0.327176 0
M  V30 20894 C 2000.93 0.457951 -3.5768 0
M  V30 20895 O 2000.03 1.54629 -3.82314 0
M  V30 20896 H 1999.37 0.00686619 -0.663964 0
M  V30 20897 H 2001.9 -0.603968 -1.95482 0
M  V30 20898 H 2001.91 0.71173 -4.01744 0
M  V30 20899 H 2000.59 -0.434483 -4.13624 0
M  V30 20900 H 1999.16 1.28336 -3.5012 0
M  V30 20901 N 2001.35 1.56817 -0.156891 0
M  V30 20902 C 2002.6 1.96051 0.490764 0
M  V30 20903 C 2002.92 1.04326 1.64746 0
M  V30 20904 O 2002.19 0.106736 1.95609 0
M  V30 20905 H 2000.77 0.72391 0.184293 0
M  V30 20906 H 2003.43 1.93482 -0.234704 0
M  V30 20907 H 2002.52 3.00007 0.86036 0
M  V30 20908 N 2002.83 -0.116876 1.57166 0
M  V30 20909 C 2003.74 -1.16207 2.03797 0
M  V30 20910 C 2004.75 -1.45203 0.958749 0
M  V30 20911 O 2005.93 -1.56277 1.27041 0
M  V30 20912 C 2002.99 -2.46823 2.43474 0
M  V30 20913 C 2002.05 -2.25205 3.65488 0
M  V30 20914 C 2001.29 -3.49592 4.03263 0
M  V30 20915 O 2001.51 -4.56981 3.41357 0
M  V30 20916 O 2000.44 -3.40468 4.96352 0
M  V30 20917 H 2004.27 -0.796087 2.9308 0
M  V30 20918 H 2001.85 -0.327825 1.45759 0
M  V30 20919 H 2003.74 -3.23774 2.69719 0
M  V30 20920 H 2002.41 -2.82891 1.57335 0
M  V30 20921 H 2001.32 -1.46104 3.4439 0
M  V30 20922 H 2002.65 -1.94039 4.52338 0
M  V30 20923 N 2004.3 -1.52772 -0.387116 0
M  V30 20924 C 2005.25 -1.74065 -1.4726 0
M  V30 20925 C 2006.24 -0.594755 -1.49504 0
M  V30 20926 O 2007.43 -0.852657 -1.55109 0
M  V30 20927 C 2004.56 -1.91462 -2.84951 0
M  V30 20928 C 2003.64 -3.11989 -2.8727 0
M  V30 20929 N 2004.04 -4.34304 -2.59256 0
M  V30 20930 C 2002.33 -3.12272 -3.18437 0
M  V30 20931 C 2003.03 -5.15919 -2.68706 0
M  V30 20932 N 2002.01 -4.51647 -3.02515 0
M  V30 20933 H 2005.81 -2.66259 -1.24431 0
M  V30 20934 H 2003.33 -1.51104 -0.595086 0
M  V30 20935 H 2005.32 -2.04839 -3.63107 0
M  V30 20936 H 2003.98 -1.00481 -3.08761 0
M  V30 20937 H 2004.99 -4.62405 -2.33243 0
M  V30 20938 H 2001.67 -2.31108 -3.477 0
M  V30 20939 H 2003.06 -6.23427 -2.50576 0
M  V30 20940 N 2005.78 0.645673 -1.43767 0
M  V30 20941 C 2006.74 1.74013 -1.49171 0
M  V30 20942 C 2007.74 1.56355 -0.375476 0
M  V30 20943 O 2008.93 1.62115 -0.637529 0
M  V30 20944 C 2006.07 3.12961 -1.3516 0
M  V30 20945 H 2007.26 1.706 -2.46649 0
M  V30 20946 H 2004.81 0.858019 -1.30643 0
M  V30 20947 H 2005.55 3.2198 -0.387199 0
M  V30 20948 H 2005.33 3.27184 -2.16086 0
M  V30 20949 H 2006.82 3.92755 -1.41891 0
M  V30 20950 N 2007.26 1.30423 0.884744 0
M  V30 20951 C 2008.49 1.22007 1.66727 0
M  V30 20952 C 2008.9 -0.219474 1.87923 0
M  V30 20953 O 2008.24 -1.1569 1.42694 0
M  V30 20954 C 2008.3 1.87825 3.06532 0
M  V30 20955 C 2007.97 3.37154 3.08507 0
M  V30 20956 C 2008.96 4.33143 2.87547 0
M  V30 20957 C 2006.65 3.78604 3.30097 0
M  V30 20958 C 2008.64 5.68557 2.88135 0
M  V30 20959 C 2006.33 5.14136 3.30314 0
M  V30 20960 C 2007.33 6.08923 3.09357 0
M  V30 20961 O 2007.02 7.41979 3.09391 0
M  V30 20962 H 2006.75 0.423347 0.527023 0
M  V30 20963 H 2009.3 1.72587 1.11369 0
M  V30 20964 H 2007.53 1.31776 3.63555 0
M  V30 20965 H 2009.22 1.73527 3.66938 0
M  V30 20966 H 2009.99 4.0245 2.70664 0
M  V30 20967 H 2005.87 3.05269 3.45444 0
M  V30 20968 H 2009.41 6.42516 2.71696 0
M  V30 20969 H 2005.31 5.44469 3.46733 0
M  V30 20970 H 2006.07 7.5097 3.25555 0
M  V30 20971 N 2008.74 -1.09711 1.13142 0
M  V30 20972 C 2009.67 -2.18301 0.828662 0
M  V30 20973 C 2010.65 -1.6879 -0.210733 0
M  V30 20974 O 2011.83 -1.94073 -0.0702977 0
M  V30 20975 C 2008.96 -3.46081 0.290674 0
M  V30 20976 C 2007.92 -4.0891 1.26398 0
M  V30 20977 C 2007.24 -5.3148 0.585887 0
M  V30 20978 C 2008.54 -4.51751 2.62142 0
M  V30 20979 H 2010.24 -2.43885 1.73668 0
M  V30 20980 H 2007.78 -1.17216 0.836449 0
M  V30 20981 H 2009.74 -4.21347 0.0665509 0
M  V30 20982 H 2008.46 -3.20011 -0.652716 0
M  V30 20983 H 2007.12 -3.3566 1.47405 0
M  V30 20984 H 2006.77 -5.01689 -0.362883 0
M  V30 20985 H 2006.47 -5.7447 1.23522 0
M  V30 20986 H 2007.99 -6.09472 0.370976 0
M  V30 20987 H 2009.41 -5.18255 2.45121 0
M  V30 20988 H 2007.8 -5.05615 3.23223 0
M  V30 20989 H 2008.87 -3.64297 3.20025 0
M  V30 20990 N 2010.22 -0.924476 -1.27637 0
M  V30 20991 C 2011.15 -0.378387 -2.26055 0
M  V30 20992 C 2012.16 0.489111 -1.55279 0
M  V30 20993 O 2013.35 0.302255 -1.75922 0
M  V30 20994 C 2010.45 0.476771 -3.3553 0
M  V30 20995 C 2009.62 -0.370688 -4.35826 0
M  V30 20996 C 2008.68 0.421299 -5.24511 0
M  V30 20997 O 2007.71 -0.16988 -5.68946 0
M  V30 20998 N 2008.91 1.72187 -5.54375 0
M  V30 20999 H 2011.68 -1.22438 -2.73549 0
M  V30 21000 H 2009.24 -0.791559 -1.4123 0
M  V30 21001 H 2011.23 1.01359 -3.91801 0
M  V30 21002 H 2009.8 1.22351 -2.87661 0
M  V30 21003 H 2009.02 -1.08882 -3.78864 0
M  V30 21004 H 2010.31 -0.950168 -4.99849 0
M  V30 21005 H 2009.7 2.22454 -5.20125 0
M  V30 21006 H 2008.26 2.20529 -6.1336 0
M  V30 21007 N 2011.69 1.41711 -0.689627 0
M  V30 21008 C 2012.92 2.06171 -0.225425 0
M  V30 21009 C 2013.34 1.51535 1.11439 0
M  V30 21010 O 2012.7 0.639865 1.69633 0
M  V30 21011 C 2012.75 3.60114 -0.187089 0
M  V30 21012 O 2011.85 4.03757 0.83989 0
M  V30 21013 H 2011.2 0.654551 -0.111621 0
M  V30 21014 H 2013.73 1.81582 -0.942814 0
M  V30 21015 H 2013.74 4.07997 -0.0159369 0
M  V30 21016 H 2012.41 3.99251 -1.16497 0
M  V30 21017 H 2010.99 3.67392 0.638575 0
M  V30 21018 N 2013.17 0.433965 1.51507 0
M  V30 21019 C 2014.4 -0.134793 2.06962 0
M  V30 21020 C 2014.82 -1.35984 1.29962 0
M  V30 21021 O 2014.18 -1.78147 0.336629 0
M  V30 21022 C 2014.23 -0.438976 3.57918 0
M  V30 21023 O 2013.33 -1.52599 3.83128 0
M  V30 21024 H 2012.67 -0.00334493 0.663992 0
M  V30 21025 H 2015.2 0.614327 1.95159 0
M  V30 21026 H 2015.21 -0.690415 4.02116 0
M  V30 21027 H 2013.89 0.456413 4.13388 0
M  V30 21028 H 2012.47 -1.26478 3.50796 0
M  V30 21029 N 2014.65 -1.56732 0.165206 0
M  V30 21030 C 2015.9 -1.97763 -0.475543 0
M  V30 21031 C 2016.25 -1.04927 -1.6127 0
M  V30 21032 O 2015.54 -0.087751 -1.91399 0
M  V30 21033 C 2015.74 -3.42783 -1.01165 0
M  V30 21034 C 2015.57 -4.49642 0.0720333 0
M  V30 21035 C 2014.34 -5.02621 0.519634 0
M  V30 21036 C 2016.54 -5.06885 0.8702 0
M  V30 21037 N 2014.52 -5.93106 1.58426 0
M  V30 21038 C 2015.89 -5.93752 1.78489 0
M  V30 21039 C 2017.94 -4.89402 0.915962 0
M  V30 21040 C 2016.65 -6.65008 2.74147 0
M  V30 21041 C 2018.67 -5.61374 1.86045 0
M  V30 21042 C 2018.03 -6.47964 2.76264 0
M  V30 21043 H 2014.13 -0.768945 -0.142294 0
M  V30 21044 H 2016.72 -1.92902 0.264013 0
M  V30 21045 H 2014.89 -3.48202 -1.72075 0
M  V30 21046 H 2016.62 -3.70838 -1.62052 0
M  V30 21047 H 2013.38 -4.73452 0.118477 0
M  V30 21048 H 2013.8 -6.43053 2.11688 0
M  V30 21049 H 2018.44 -4.2216 0.232502 0
M  V30 21050 H 2016.16 -7.31467 3.43484 0
M  V30 21051 H 2019.75 -5.49836 1.90189 0
M  V30 21052 H 2018.63 -7.02678 3.48157 0
M  V30 21053 N 2016.13 0.10854 -1.57226 0
M  V30 21054 C 2017.08 1.15155 -2.02094 0
M  V30 21055 C 2018.07 1.42263 -0.919651 0
M  V30 21056 O 2019.28 1.42102 -1.10485 0
M  V30 21057 H 2015.65 0.388515 -0.643863 0
M  V30 21058 H 2017.62 0.746707 -2.88906 0
M  V30 21059 C 2016.37 2.46727 -2.44992 0
M  V30 21060 H 2015.69 2.26708 -3.29307 0
M  V30 21061 H 2017.13 3.18242 -2.80175 0
M  V30 21062 C 2015.59 3.10059 -1.31776 0
M  V30 21063 O 2016.12 3.96577 -0.639471 0
M  V30 21064 N 2014.33 2.70099 -1.07215 0
M  V30 21065 H 2013.88 1.99837 -1.62552 0
M  V30 21066 H 2013.83 3.12802 -0.316602 0
M  V30 21067 N 2017.61 1.52975 0.379009 0
M  V30 21068 C 2018.54 1.81436 1.46981 0
M  V30 21069 C 2019.52 0.666985 1.56478 0
M  V30 21070 O 2020.7 0.915545 1.71264 0
M  V30 21071 C 2017.83 1.99221 2.84479 0
M  V30 21072 C 2016.79 3.14946 2.89816 0
M  V30 21073 C 2016.11 3.18001 4.2986 0
M  V30 21074 C 2017.41 4.53814 2.58554 0
M  V30 21075 H 2019.11 2.72781 1.23413 0
M  V30 21076 H 2016.65 1.31257 0.592257 0
M  V30 21077 H 2018.61 2.17714 3.60803 0
M  V30 21078 H 2017.33 1.04573 3.09406 0
M  V30 21079 H 2015.99 2.96251 2.15942 0
M  V30 21080 H 2015.64 2.21017 4.51841 0
M  V30 21081 H 2015.34 3.95746 4.34349 0
M  V30 21082 H 2016.86 3.38662 5.08075 0
M  V30 21083 H 2018.27 4.72559 3.24593 0
M  V30 21084 H 2016.67 5.33701 2.74379 0
M  V30 21085 H 2017.74 4.59845 1.53853 0
M  V30 21086 N 2019.08 -0.63804 1.44107 0
M  V30 21087 C 2020.01 -1.76164 1.5326 0
M  V30 21088 C 2021 -1.6566 0.386107 0
M  V30 21089 O 2022.18 -1.84525 0.605326 0
M  V30 21090 C 2019.31 -3.14665 1.4698 0
M  V30 21091 C 2018.26 -3.39949 2.60035 0
M  V30 21092 C 2017.59 -4.78409 2.38808 0
M  V30 21093 C 2018.89 -3.33193 4.02219 0
M  V30 21094 H 2020.58 -1.6876 2.47306 0
M  V30 21095 H 2018.13 -0.810483 1.19026 0
M  V30 21096 H 2020.08 -3.93037 1.51986 0
M  V30 21097 H 2018.81 -3.22835 0.494471 0
M  V30 21098 H 2017.47 -2.63955 2.54408 0
M  V30 21099 H 2017.11 -4.83274 1.39483 0
M  V30 21100 H 2016.81 -4.96285 3.14602 0
M  V30 21101 H 2018.34 -5.5902 2.4562 0
M  V30 21102 H 2019.75 -4.0148 4.09252 0
M  V30 21103 H 2018.15 -3.62605 4.78161 0
M  V30 21104 H 2019.22 -2.31116 4.26279 0
M  V30 21105 N 2020.56 -1.3089 -0.877815 0
M  V30 21106 C 2021.84 -1.10773 -1.6121 0
M  V30 21107 C 2022.22 0.340404 -2.08337 0
M  V30 21108 O 2021.57 1.33316 -1.85577 0
M  V30 21109 C 2021.78 -2.11499 -2.77613 0
M  V30 21110 C 2023.13 -2.43601 -3.47769 0
M  V30 21111 O 2024.15 -2.09865 -2.87811 0
M  V30 21112 O 2023.01 -3.0134 -4.55913 0
M  V30 21113 H 2020.1 -0.425928 -0.708882 0
M  V30 21114 H 2022.65 -1.42341 -0.923964 0
M  V30 21115 H 2021.42 -3.08943 -2.40146 0
M  V30 21116 H 2021.04 -1.80791 -3.54119 0
M  V30 21117 N 2022.04 1.0911 -1.13723 0
M  V30 21118 C 2023.29 1.80994 -0.899205 0
M  V30 21119 C 2023.61 1.86296 0.576084 0
M  V30 21120 O 2022.88 1.35086 1.41875 0
M  V30 21121 H 2021.46 0.670311 -0.329685 0
M  V30 21122 H 2024.12 1.3195 -1.4344 0
M  V30 21123 H 2023.22 2.84065 -1.29281 0
M  V30 21124 N 2023.52 0.931232 1.27145 0
M  V30 21125 C 2024.45 0.450505 2.29113 0
M  V30 21126 C 2025.43 -0.491043 1.62858 0
M  V30 21127 O 2026.61 -0.395036 1.9014 0
M  V30 21128 C 2023.74 -0.29432 3.46051 0
M  V30 21129 C 2022.7 0.559727 4.24324 0
M  V30 21130 C 2022.02 -0.314473 5.33774 0
M  V30 21131 C 2023.32 1.826 4.89341 0
M  V30 21132 H 2025.02 1.3027 2.69574 0
M  V30 21133 H 2022.56 0.627845 1.29592 0
M  V30 21134 H 2024.52 -0.641592 4.16487 0
M  V30 21135 H 2023.24 -1.18057 3.04516 0
M  V30 21136 H 2021.9 0.889756 3.55639 0
M  V30 21137 H 2021.55 -1.19978 4.88482 0
M  V30 21138 H 2021.25 0.253489 5.87053 0
M  V30 21139 H 2022.77 -0.657238 6.07053 0
M  V30 21140 H 2024.19 1.54659 5.52045 0
M  V30 21141 H 2022.58 2.33775 5.52693 0
M  V30 21142 H 2023.65 2.5434 4.12842 0
M  V30 21143 N 2025 -1.41343 0.697132 0
M  V30 21144 C 2025.93 -2.33452 0.0471857 0
M  V30 21145 C 2026.91 -1.51902 -0.765488 0
M  V30 21146 O 2028.09 -1.80434 -0.718146 0
M  V30 21147 C 2025.22 -3.35735 -0.888781 0
M  V30 21148 C 2024.18 -4.27608 -0.183088 0
M  V30 21149 C 2023.5 -5.20277 -1.23352 0
M  V30 21150 C 2024.8 -5.13559 0.951558 0
M  V30 21151 H 2026.5 -2.88052 0.816496 0
M  V30 21152 H 2024.04 -1.38502 0.394089 0
M  V30 21153 H 2026 -3.99098 -1.35272 0
M  V30 21154 H 2024.72 -2.79489 -1.68977 0
M  V30 21155 H 2023.38 -3.65671 0.260833 0
M  V30 21156 H 2023.03 -4.60346 -2.02708 0
M  V30 21157 H 2022.73 -5.82581 -0.766336 0
M  V30 21158 H 2024.25 -5.86517 -1.69793 0
M  V30 21159 H 2025.67 -5.70481 0.567835 0
M  V30 21160 H 2024.06 -5.84812 1.34593 0
M  V30 21161 H 2025.13 -4.50631 1.79053 0
M  V30 21162 N 2026.48 -0.441993 -1.51275 0
M  V30 21163 C 2027.72 0.123093 -2.02426 0
M  V30 21164 C 2028.05 1.41953 -1.32525 0
M  V30 21165 O 2027.33 1.8942 -0.44164 0
M  V30 21166 C 2027.61 0.337043 -3.58519 0
M  V30 21167 C 2027.47 -0.978373 -4.39031 0
M  V30 21168 C 2028.78 1.10474 -4.26009 0
M  V30 21169 H 2025.9 0.0432623 -0.735729 0
M  V30 21170 H 2028.55 -0.581901 -1.8087 0
M  V30 21171 H 2026.7 0.93756 -3.77017 0
M  V30 21172 H 2028.37 -1.61323 -4.32172 0
M  V30 21173 H 2026.61 -1.58189 -4.03929 0
M  V30 21174 H 2027.28 -0.78266 -5.46423 0
M  V30 21175 H 2029.76 0.596021 -4.11809 0
M  V30 21176 H 2028.63 1.22321 -5.35097 0
M  V30 21177 H 2028.89 2.13401 -3.87185 0
M  V30 21178 N 2027.95 1.56642 -0.173515 0
M  V30 21179 C 2028.88 2.21076 0.751509 0
M  V30 21180 C 2029.86 1.16706 1.23749 0
M  V30 21181 O 2031.05 1.45142 1.29025 0
M  V30 21182 C 2028.18 2.85323 1.9801 0
M  V30 21183 C 2027.13 3.95751 1.62989 0
M  V30 21184 C 2026.46 4.47058 2.93332 0
M  V30 21185 C 2027.76 5.15234 0.856231 0
M  V30 21186 H 2029.45 2.98631 0.21442 0
M  V30 21187 H 2027 1.4364 0.101692 0
M  V30 21188 H 2028.95 3.29075 2.63226 0
M  V30 21189 H 2027.68 2.0514 2.54136 0
M  V30 21190 H 2026.34 3.52658 1.00141 0
M  V30 21191 H 2025.98 3.63663 3.47503 0
M  V30 21192 H 2025.68 5.21556 2.70652 0
M  V30 21193 H 2027.21 4.93497 3.59573 0
M  V30 21194 H 2028.62 5.55665 1.41102 0
M  V30 21195 H 2027.02 5.95663 0.728389 0
M  V30 21196 H 2028.09 4.84677 -0.147009 0
M  V30 21197 N 2029.43 -0.1002 1.57281 0
M  V30 21198 C 2030.68 -0.805815 1.86103 0
M  V30 21199 C 2031.01 -1.78629 0.761925 0
M  V30 21200 O 2030.29 -1.93128 -0.230572 0
M  V30 21201 C 2030.57 -1.53909 3.25552 0
M  V30 21202 C 2030.42 -0.576946 4.46084 0
M  V30 21203 C 2031.74 -2.49088 3.62827 0
M  V30 21204 H 2028.86 -0.29149 0.676907 0
M  V30 21205 H 2031.5 -0.0695656 1.89873 0
M  V30 21206 H 2029.65 -2.16669 3.2247 0
M  V30 21207 H 2031.32 0.0432618 4.6128 0
M  V30 21208 H 2029.57 0.11008 4.3366 0
M  V30 21209 H 2030.24 -1.12705 5.40372 0
M  V30 21210 H 2032.71 -1.96423 3.66821 0
M  V30 21211 H 2031.59 -2.97415 4.61341 0
M  V30 21212 H 2031.85 -3.32614 2.9124 0
M  V30 21213 N 2030.91 -1.53174 -0.370891 0
M  V30 21214 C 2032.13 -1.73304 -1.13932 0
M  V30 21215 C 2032.56 -0.458494 -1.82427 0
M  V30 21216 O 2031.92 0.587094 -1.71531 0
M  V30 21217 C 2031.97 -2.89544 -2.14933 0
M  V30 21218 O 2031.07 -2.57782 -3.21904 0
M  V30 21219 H 2030.41 -0.575715 -0.33083 0
M  V30 21220 H 2032.94 -2.00038 -0.429641 0
M  V30 21221 H 2032.95 -3.15559 -2.58625 0
M  V30 21222 H 2031.63 -3.81998 -1.64471 0
M  V30 21223 H 2030.2 -2.42568 -2.83223 0
M  V30 21224 N 2032.39 0.630389 -1.44443 0
M  V30 21225 C 2033.32 1.75348 -1.54192 0
M  V30 21226 C 2034.3 1.65453 -0.394887 0
M  V30 21227 O 2035.48 1.84201 -0.615103 0
M  V30 21228 C 2032.61 3.13881 -1.48647 0
M  V30 21229 C 2031.57 3.38566 -2.61835 0
M  V30 21230 C 2030.89 4.77136 -2.41341 0
M  V30 21231 C 2032.19 3.31055 -4.0398 0
M  V30 21232 H 2033.89 1.67446 -2.48198 0
M  V30 21233 H 2031.43 0.804159 -1.19454 0
M  V30 21234 H 2033.39 3.92226 -1.54068 0
M  V30 21235 H 2032.11 3.22568 -0.511585 0
M  V30 21236 H 2030.77 2.62602 -2.55805 0
M  V30 21237 H 2030.42 4.82527 -1.42043 0
M  V30 21238 H 2030.12 4.9461 -3.1723 0
M  V30 21239 H 2031.64 5.57709 -2.48581 0
M  V30 21240 H 2033.06 3.99304 -4.11375 0
M  V30 21241 H 2031.45 3.60064 -4.80077 0
M  V30 21242 H 2032.52 2.28852 -4.27498 0
M  V30 21243 N 2033.87 1.31354 0.870861 0
M  V30 21244 C 2035.11 1.21167 1.62623 0
M  V30 21245 C 2035.44 -0.22989 1.92835 0
M  V30 21246 O 2034.72 -1.16257 1.55931 0
M  V30 21247 C 2035 2.05505 2.95702 0
M  V30 21248 C 2034.86 3.57955 2.72375 0
M  V30 21249 C 2036.17 1.90375 3.96794 0
M  V30 21250 H 2033.29 0.441517 0.590111 0
M  V30 21251 H 2035.94 1.61134 1.00676 0
M  V30 21252 H 2034.09 1.71549 3.48573 0
M  V30 21253 H 2035.76 4.02044 2.26183 0
M  V30 21254 H 2034 3.81431 2.06623 0
M  V30 21255 H 2034.67 4.12273 3.67063 0
M  V30 21256 H 2037.15 2.20089 3.53129 0
M  V30 21257 H 2036.02 2.51689 4.87795 0
M  V30 21258 H 2036.28 0.866804 4.33519 0
M  V30 21259 N 2035.34 -1.08505 1.143 0
M  V30 21260 C 2036.62 -1.77515 0.82144 0
M  V30 21261 C 2037 -1.99668 -0.685253 0
M  V30 21262 O 2036.35 -1.60569 -1.62573 0
M  V30 21263 C 2036.56 -3.09174 1.61903 0
M  V30 21264 C 2037.91 -3.83722 1.81775 0
M  V30 21265 O 2038.93 -3.18952 1.58581 0
M  V30 21266 O 2037.79 -5.00023 2.20543 0
M  V30 21267 H 2034.88 -0.770315 0.300906 0
M  V30 21268 H 2037.43 -1.14976 1.24814 0
M  V30 21269 H 2036.2 -2.88593 2.64253 0
M  V30 21270 H 2035.82 -3.7944 1.1879 0
M  V30 21271 N 2036.82 -0.937962 -1.26649 0
M  V30 21272 C 2038.07 -0.57958 -1.93194 0
M  V30 21273 C 2038.38 0.88505 -1.74431 0
M  V30 21274 O 2039.59 1.35267 -2.35404 0
M  V30 21275 C 2038.05 -0.985803 -3.46136 0
M  V30 21276 C 2037.65 -2.47182 -3.73637 0
M  V30 21277 C 2039.4 -0.699162 -4.18703 0
M  V30 21278 C 2037.3 -2.81691 -5.20004 0
M  V30 21279 H 2036.23 -0.213046 -0.723275 0
M  V30 21280 H 2038.89 -1.14017 -1.43779 0
M  V30 21281 H 2037.27 -0.353775 -3.94417 0
M  V30 21282 H 2038.44 -3.15263 -3.36075 0
M  V30 21283 H 2036.76 -2.73143 -3.14296 0
M  V30 21284 H 2039.35 -0.933359 -5.26491 0
M  V30 21285 H 2039.7 0.363979 -4.14706 0
M  V30 21286 H 2040.23 -1.29076 -3.76277 0
M  V30 21287 H 2036.97 -3.86955 -5.29099 0
M  V30 21288 H 2036.49 -2.1827 -5.58675 0
M  V30 21289 H 2038.17 -2.69984 -5.87978 0
M  V30 21290 N 2038.3 1.40971 -0.704618 0
M  V30 21291 C 2039.55 2.01377 -0.239781 0
M  V30 21292 C 2039.88 1.5571 1.16051 0
M  V30 21293 O 2039.15 0.772278 1.78511 0
M  V30 21294 C 2039.44 3.58784 -0.307556 0
M  V30 21295 C 2039.29 4.14553 -1.74544 0
M  V30 21296 C 2040.61 4.3888 0.327516 0
M  V30 21297 H 2037.73 0.731655 -0.088603 0
M  V30 21298 H 2040.37 1.67597 -0.895048 0
M  V30 21299 H 2038.52 3.87692 0.25036 0
M  V30 21300 H 2040.19 3.96486 -2.3579 0
M  V30 21301 H 2038.43 3.69254 -2.2767 0
M  V30 21302 H 2039.11 5.23715 -1.74433 0
M  V30 21303 H 2041.58 4.15838 -0.147737 0
M  V30 21304 H 2040.46 5.48332 0.249594 0
M  V30 21305 H 2040.72 4.19029 1.40952 0
M  V30 21306 N 2039.78 0.45001 1.51039 0
M  V30 21307 C 2041.02 -0.112357 2.02489 0
M  V30 21308 C 2041.36 -1.41249 1.33276 0
M  V30 21309 O 2040.63 -1.89183 0.451679 0
M  V30 21310 C 2040.92 -0.318025 3.58693 0
M  V30 21311 C 2040.77 1.00164 4.38506 0
M  V30 21312 C 2042.09 -1.08213 4.26589 0
M  V30 21313 H 2039.21 -0.0393599 0.735948 0
M  V30 21314 H 2041.85 0.591485 1.80559 0
M  V30 21315 H 2040 -0.917553 3.77509 0
M  V30 21316 H 2041.67 1.63613 4.3131 0
M  V30 21317 H 2039.91 1.60329 4.03085 0
M  V30 21318 H 2040.58 0.811628 5.46001 0
M  V30 21319 H 2043.06 -0.574174 4.12119 0
M  V30 21320 H 2041.94 -1.19481 5.35738 0
M  V30 21321 H 2042.2 -2.11345 3.88311 0
M  V30 21322 N 2041.26 -1.56548 0.18182 0
M  V30 21323 C 2042.22 -2.17247 -0.730497 0
M  V30 21324 C 2043.22 -1.12333 -1.15056 0
M  V30 21325 O 2044.41 -1.3779 -1.06581 0
M  V30 21326 C 2041.54 -2.76383 -1.99563 0
M  V30 21327 H 2042.73 -2.9922 -0.201904 0
M  V30 21328 H 2040.29 -1.56153 -0.0677734 0
M  V30 21329 H 2041.02 -1.98173 -2.56706 0
M  V30 21330 H 2040.81 -3.53172 -1.70329 0
M  V30 21331 H 2042.3 -3.23034 -2.64649 0
M  V30 21332 N 2042.73 0.0918577 -1.57332 0
M  V30 21333 C 2043.67 1.14242 -1.97545 0
M  V30 21334 C 2044.65 1.38665 -0.849166 0
M  V30 21335 O 2045.83 1.52371 -1.10974 0
M  V30 21336 C 2042.96 2.49094 -2.29499 0
M  V30 21337 C 2042 2.40932 -3.51929 0
M  V30 21338 S 2042.84 1.82272 -5.03525 0
M  V30 21339 C 2043.99 3.18742 -5.3866 0
M  V30 21340 H 2044.22 0.799633 -2.86344 0
M  V30 21341 H 2041.76 0.299658 -1.51464 0
M  V30 21342 H 2043.72 3.26674 -2.48585 0
M  V30 21343 H 2042.38 2.80541 -1.41264 0
M  V30 21344 H 2041.57 3.40331 -3.7174 0
M  V30 21345 H 2041.17 1.71483 -3.3237 0
M  V30 21346 H 2043.46 4.15022 -5.35503 0
M  V30 21347 H 2044.41 3.03732 -6.3965 0
M  V30 21348 H 2044.81 3.18423 -4.66119 0
M  V30 21349 N 2044.21 1.53368 0.362763 0
M  V30 21350 C 2045.18 1.7933 1.42736 0
M  V30 21351 C 2046.18 0.663794 1.4646 0
M  V30 21352 O 2047.37 0.932009 1.47171 0
M  V30 21353 C 2044.5 1.91792 2.81831 0
M  V30 21354 H 2045.69 2.74412 1.20989 0
M  V30 21355 H 2043.24 1.44488 0.596058 0
M  V30 21356 H 2043.98 0.987867 3.08888 0
M  V30 21357 H 2043.76 2.73948 2.80526 0
M  V30 21358 H 2045.25 2.13461 3.58921 0
M  V30 21359 N 2045.69 -0.62272 1.44776 0
M  V30 21360 C 2046.92 -1.41403 1.51723 0
M  V30 21361 C 2047.34 -1.87534 0.145802 0
M  V30 21362 O 2046.7 -1.59244 -0.866667 0
M  V30 21363 C 2046.75 -2.60482 2.49362 0
M  V30 21364 O 2045.85 -3.60604 2.00096 0
M  V30 21365 H 2045.19 -0.422766 0.51202 0
M  V30 21366 H 2047.72 -0.759294 1.89989 0
M  V30 21367 H 2047.73 -3.0792 2.67674 0
M  V30 21368 H 2046.41 -2.26253 3.48974 0
M  V30 21369 H 2044.98 -3.19918 1.9159 0
M  V30 21370 N 2047.17 -1.31814 -0.863883 0
M  V30 21371 C 2048.13 -1.19926 -1.95321 0
M  V30 21372 C 2049.13 -0.124731 -1.60316 0
M  V30 21373 O 2050.32 -0.374454 -1.70128 0
M  V30 21374 C 2047.45 -0.842234 -3.30332 0
M  V30 21375 H 2048.65 -2.16727 -2.07291 0
M  V30 21376 H 2046.2 -1.15512 -1.05293 0
M  V30 21377 H 2046.93 0.124348 -3.24062 0
M  V30 21378 H 2046.72 -1.61902 -3.57114 0
M  V30 21379 H 2048.21 -0.783125 -4.10191 0
M  V30 21380 N 2048.65 1.07897 -1.14873 0
M  V30 21381 C 2049.89 1.8003 -0.918351 0
M  V30 21382 C 2050.22 1.86897 0.556293 0
M  V30 21383 O 2049.49 1.36584 1.40434 0
M  V30 21384 H 2048.07 0.666777 -0.336776 0
M  V30 21385 H 2050.73 1.30421 -1.44832 0
M  V30 21386 H 2049.82 2.82678 -1.32287 0
M  V30 21387 N 2050.12 0.944665 1.2615 0
M  V30 21388 C 2051.37 0.592919 1.93207 0
M  V30 21389 C 2051.69 -0.871356 1.74449 0
M  V30 21390 O 2050.96 -1.61953 1.10218 0
M  V30 21391 H 2049.54 0.216296 0.715 0
M  V30 21392 H 2052.21 1.20074 1.53519 0
M  V30 21393 H 2051.3 0.813682 3.01307 0
M  V30 21394 N 2051.6 -1.40596 0.712085 0
M  V30 21395 C 2052.57 -2.29105 0.0660369 0
M  V30 21396 C 2053.57 -1.45196 -0.690992 0
M  V30 21397 O 2054.76 -1.66151 -0.523417 0
M  V30 21398 C 2051.89 -3.2835 -0.916461 0
M  V30 21399 H 2053.08 -2.87734 0.845539 0
M  V30 21400 H 2050.63 -1.48859 0.476533 0
M  V30 21401 H 2051.37 -2.74733 -1.72314 0
M  V30 21402 H 2051.15 -3.90288 -0.376557 0
M  V30 21403 H 2052.64 -3.94634 -1.36578 0
M  V30 21404 N 2053.08 -0.458013 -1.50798 0
M  V30 21405 C 2054.03 0.342913 -2.28238 0
M  V30 21406 C 2055 0.99876 -1.32718 0
M  V30 21407 O 2056.18 1.01371 -1.61643 0
M  V30 21408 C 2053.32 1.42646 -3.14239 0
M  V30 21409 C 2052.44 0.786698 -4.24776 0
M  V30 21410 C 2051.57 1.84704 -4.98054 0
M  V30 21411 C 2050.61 1.18681 -6.00484 0
M  V30 21412 N 2049.75 2.18942 -6.6709 0
M  V30 21413 H 2054.59 -0.323799 -2.96236 0
M  V30 21414 H 2052.12 -0.171528 -1.46097 0
M  V30 21415 H 2054.08 2.0662 -3.62442 0
M  V30 21416 H 2052.71 2.06252 -2.48314 0
M  V30 21417 H 2051.76 0.0347215 -3.80384 0
M  V30 21418 H 2053.08 0.264877 -4.98096 0
M  V30 21419 H 2052.23 2.5629 -5.49909 0
M  V30 21420 H 2050.97 2.40263 -4.24411 0
M  V30 21421 H 2049.97 0.45651 -5.47901 0
M  V30 21422 H 2051.2 0.638278 -6.76094 0
M  V30 21423 H 2049.14 2.73543 -5.96247 0
M  V30 21424 H 2049.06 1.71709 -7.36242 0
M  V30 21425 H 2050.33 2.89949 -7.23568 0
M  V30 21426 N 2054.56 1.56449 -0.190119 0
M  V30 21427 C 2055.81 1.96613 0.450146 0
M  V30 21428 C 2056.12 1.07965 1.63104 0
M  V30 21429 O 2057.33 1.3789 2.33877 0
M  V30 21430 C 2055.78 3.49664 0.852245 0
M  V30 21431 C 2055.39 4.46967 -0.304086 0
M  V30 21432 C 2057.14 3.98608 1.45987 0
M  V30 21433 C 2055.04 5.91281 0.118694 0
M  V30 21434 H 2053.97 0.734132 0.171947 0
M  V30 21435 H 2056.62 1.8133 -0.281345 0
M  V30 21436 H 2055.01 3.60432 1.64026 0
M  V30 21437 H 2056.18 4.47927 -1.08158 0
M  V30 21438 H 2054.49 4.08188 -0.822886 0
M  V30 21439 H 2057.09 5.039 1.78856 0
M  V30 21440 H 2057.43 3.42627 2.36458 0
M  V30 21441 H 2057.97 3.90933 0.735928 0
M  V30 21442 H 2054.71 6.51176 -0.751699 0
M  V30 21443 H 2054.23 5.93586 0.861154 0
M  V30 21444 H 2055.91 6.44605 0.556195 0
M  V30 21445 N 2056.04 -0.0835127 1.57379 0
M  V30 21446 C 2056.97 -1.101 2.05913 0
M  V30 21447 C 2057.95 -1.41079 0.950298 0
M  V30 21448 O 2059.13 -1.50909 1.2223 0
M  V30 21449 C 2056.26 -2.41772 2.49327 0
M  V30 21450 C 2055.22 -2.25173 3.63979 0
M  V30 21451 C 2054.54 -3.62124 3.93408 0
M  V30 21452 C 2055.84 -1.68267 4.94453 0
M  V30 21453 H 2057.54 -0.697176 2.9117 0
M  V30 21454 H 2055.08 -0.333914 1.40075 0
M  V30 21455 H 2057.04 -3.13234 2.81891 0
M  V30 21456 H 2055.76 -2.84112 1.61084 0
M  V30 21457 H 2054.42 -1.56154 3.3168 0
M  V30 21458 H 2054.07 -4.02013 3.02315 0
M  V30 21459 H 2053.77 -3.51861 4.70603 0
M  V30 21460 H 2055.29 -4.35036 4.28458 0
M  V30 21461 H 2056.71 -2.29582 5.25324 0
M  V30 21462 H 2055.1 -1.68731 5.7589 0
M  V30 21463 H 2056.17 -0.64309 4.80617 0
M  V30 21464 N 2057.52 -1.53558 -0.354624 0
M  V30 21465 C 2058.76 -1.69934 -1.09393 0
M  V30 21466 C 2059.08 -0.459423 -1.89511 0
M  V30 21467 O 2058.35 0.526608 -1.88689 0
M  V30 21468 H 2056.93 -0.626487 -0.406845 0
M  V30 21469 H 2059.6 -1.90781 -0.398582 0
M  V30 21470 H 2058.69 -2.56533 -1.77757 0
M  V30 21471 N 2058.99 0.615033 -1.45104 0
M  V30 21472 C 2060.24 1.37627 -1.48952 0
M  V30 21473 C 2060.57 1.93779 -0.127873 0
M  V30 21474 O 2059.85 1.74617 0.856686 0
M  V30 21475 C 2060.13 2.5297 -2.56278 0
M  V30 21476 C 2059.98 2.02063 -4.01859 0
M  V30 21477 C 2061.3 3.55121 -2.59956 0
M  V30 21478 H 2058.42 0.49907 -0.542308 0
M  V30 21479 H 2061.06 0.693977 -1.76873 0
M  V30 21480 H 2059.21 3.11174 -2.326 0
M  V30 21481 H 2060.89 1.48565 -4.36722 0
M  V30 21482 H 2059.13 1.3312 -4.1287 0
M  V30 21483 H 2059.8 2.85176 -4.72629 0
M  V30 21484 H 2062.28 3.06745 -2.81153 0
M  V30 21485 H 2061.15 4.33326 -3.36927 0
M  V30 21486 H 2061.41 4.10251 -1.64761 0
M  V30 21487 N 2060.47 1.3227 0.85688 0
M  V30 21488 C 2061.4 1.23626 1.98088 0
M  V30 21489 C 2062.38 0.120585 1.69672 0
M  V30 21490 O 2063.57 0.307383 1.91752 0
M  V30 21491 C 2060.7 0.956279 3.33875 0
M  V30 21492 C 2059.65 2.03295 3.76637 0
M  V30 21493 C 2058.98 1.60541 5.1003 0
M  V30 21494 C 2060.28 3.4477 3.92341 0
M  V30 21495 H 2061.97 2.17665 2.05578 0
M  V30 21496 H 2059.52 1.04788 0.987703 0
M  V30 21497 H 2061.47 0.882366 4.12059 0
M  V30 21498 H 2060.19 -0.0197585 3.26594 0
M  V30 21499 H 2058.85 2.09698 3.00703 0
M  V30 21500 H 2058.5 0.616883 4.99203 0
M  V30 21501 H 2058.2 2.32578 5.39612 0
M  V30 21502 H 2059.73 1.54582 5.90709 0
M  V30 21503 H 2061.14 3.40968 4.60884 0
M  V30 21504 H 2059.54 4.15137 4.33338 0
M  V30 21505 H 2060.61 3.84594 2.95322 0
M  V30 21506 N 2061.95 -1.07287 1.15444 0
M  V30 21507 C 2063.37 -1.31993 0.897222 0
M  V30 21508 C 2063.57 -1.96286 -0.455437 0
M  V30 21509 O 2062.62 -2.22313 -1.19722 0
M  V30 21510 C 2063.93 -2.2104 2.03868 0
M  V30 21511 C 2065.48 -2.34486 2.07329 0
M  V30 21512 C 2065.96 -3.26882 3.20799 0
M  V30 21513 N 2067.45 -3.34463 3.20451 0
M  V30 21514 C 2068.18 -4.06019 4.0489 0
M  V30 21515 N 2067.68 -4.80184 4.99395 0
M  V30 21516 N 2069.47 -4.01967 3.92911 0
M  V30 21517 H 2061.62 -0.639423 2.02547 0
M  V30 21518 H 2063.89 -0.344393 0.883231 0
M  V30 21519 H 2063.59 -1.8106 3.01513 0
M  V30 21520 H 2063.47 -3.21571 1.9716 0
M  V30 21521 H 2065.85 -2.73719 1.10282 0
M  V30 21522 H 2065.93 -1.33658 2.18104 0
M  V30 21523 H 2065.58 -2.88368 4.18098 0
M  V30 21524 H 2065.51 -4.27667 3.0726 0
M  V30 21525 H 2068 -2.816 2.52012 0
M  V30 21526 H 2068.31 -5.32281 5.60265 0
M  V30 21527 H 2066.66 -4.79198 5.03383 0
M  V30 21528 H 2069.85 -3.43139 3.18392 0
M  V30 21529 H 2070.02 -4.57468 4.58942 0
M  V30 21530 N 2063.43 -0.951342 -1.25647 0
M  V30 21531 C 2064.67 -0.605246 -1.93558 0
M  V30 21532 C 2065.01 0.85507 -1.74362 0
M  V30 21533 O 2064.28 1.61308 -1.08674 0
M  V30 21534 C 2064.56 -0.960718 -3.47048 0
M  V30 21535 C 2064.42 -2.47652 -3.75484 0
M  V30 21536 C 2065.74 -0.483409 -4.37437 0
M  V30 21537 H 2062.86 -0.22136 -0.702971 0
M  V30 21538 H 2065.5 -1.1874 -1.48327 0
M  V30 21539 H 2063.65 -0.465324 -3.85703 0
M  V30 21540 H 2065.32 -3.04543 -3.46484 0
M  V30 21541 H 2063.56 -2.91564 -3.21205 0
M  V30 21542 H 2064.23 -2.67575 -4.82812 0
M  V30 21543 H 2066.71 -0.908309 -4.06065 0
M  V30 21544 H 2065.59 -0.760858 -5.43601 0
M  V30 21545 H 2065.85 0.616645 -4.37778 0
M  V30 21546 N 2064.91 1.40216 -0.719531 0
M  V30 21547 C 2065.84 2.33348 -0.08432 0
M  V30 21548 C 2066.82 1.53101 0.741225 0
M  V30 21549 O 2068 1.81553 0.68935 0
M  V30 21550 C 2065.13 3.37106 0.835256 0
M  V30 21551 C 2064.09 4.27845 0.115036 0
M  V30 21552 C 2063.41 5.22174 1.15059 0
M  V30 21553 C 2064.71 5.1198 -1.03314 0
M  V30 21554 H 2066.41 2.86716 -0.862219 0
M  V30 21555 H 2063.95 1.37858 -0.416073 0
M  V30 21556 H 2065.9 4.012 1.28905 0
M  V30 21557 H 2064.63 2.82142 1.6451 0
M  V30 21558 H 2063.29 3.6521 -0.318975 0
M  V30 21559 H 2062.94 4.63513 1.95359 0
M  V30 21560 H 2062.64 5.83727 0.673556 0
M  V30 21561 H 2064.16 5.89144 1.60441 0
M  V30 21562 H 2065.57 5.69505 -0.658522 0
M  V30 21563 H 2063.97 5.82596 -1.4388 0
M  V30 21564 H 2065.04 4.47725 -1.86199 0
M  V30 21565 N 2066.38 0.466004 1.50553 0
M  V30 21566 C 2067.8 0.119867 1.59149 0
M  V30 21567 C 2068 -1.37324 1.47459 0
M  V30 21568 O 2067.06 -2.14604 1.33047 0
M  V30 21569 C 2068.37 0.665532 2.93243 0
M  V30 21570 C 2069.92 0.628507 3.06625 0
M  V30 21571 C 2070.39 1.15163 4.43285 0
M  V30 21572 N 2071.88 1.11082 4.49683 0
M  V30 21573 C 2072.62 1.48615 5.53806 0
M  V30 21574 N 2072.11 1.93573 6.65208 0
M  V30 21575 N 2073.91 1.4025 5.44322 0
M  V30 21576 H 2066.06 1.43716 1.56395 0
M  V30 21577 H 2068.32 0.594011 0.73882 0
M  V30 21578 H 2068.03 1.71132 3.07257 0
M  V30 21579 H 2067.9 0.106264 3.7705 0
M  V30 21580 H 2070.29 -0.408356 2.92261 0
M  V30 21581 H 2070.37 1.22452 2.24587 0
M  V30 21582 H 2070.01 2.1871 4.58398 0
M  V30 21583 H 2069.94 0.531882 5.23907 0
M  V30 21584 H 2072.43 0.781025 3.69741 0
M  V30 21585 H 2072.75 2.20373 7.40713 0
M  V30 21586 H 2071.09 1.97521 6.66341 0
M  V30 21587 H 2074.28 1.04972 4.56178 0
M  V30 21588 H 2074.46 1.69827 6.2535 0
M  V30 21589 N 2067.86 -1.56346 0.198413 0
M  V30 21590 C 2068.79 -2.22244 -0.716243 0
M  V30 21591 C 2069.77 -1.1866 -1.21876 0
M  V30 21592 O 2070.96 -1.47177 -1.26699 0
M  V30 21593 C 2068.09 -2.88437 -1.93446 0
M  V30 21594 C 2067.04 -3.98294 -1.56672 0
M  V30 21595 C 2066.37 -4.51668 -2.86182 0
M  V30 21596 C 2067.67 -5.16531 -0.774153 0
M  V30 21597 H 2069.36 -2.98935 -0.166883 0
M  V30 21598 H 2066.91 -1.43784 -0.0788267 0
M  V30 21599 H 2068.86 -3.33221 -2.57957 0
M  V30 21600 H 2067.58 -2.09157 -2.5084 0
M  V30 21601 H 2066.24 -3.54206 -0.945178 0
M  V30 21602 H 2065.89 -3.69146 -3.41673 0
M  V30 21603 H 2065.59 -5.25796 -2.6232 0
M  V30 21604 H 2067.12 -4.99155 -3.51676 0
M  V30 21605 H 2068.53 -5.57839 -1.32244 0
M  V30 21606 H 2066.93 -5.96746 -0.633532 0
M  V30 21607 H 2068 -4.84382 0.224098 0
M  V30 21608 N 2069.34 0.0751653 -1.57421 0
M  V30 21609 C 2070.27 1.09007 -2.06494 0
M  V30 21610 C 2071.25 1.40573 -0.957766 0
M  V30 21611 O 2072.44 1.50259 -1.23028 0
M  V30 21612 C 2069.57 2.40446 -2.50605 0
M  V30 21613 C 2068.52 2.2324 -3.65168 0
M  V30 21614 C 2067.85 3.60033 -3.95323 0
M  V30 21615 C 2069.15 1.65642 -4.95338 0
M  V30 21616 H 2070.84 0.681725 -2.91535 0
M  V30 21617 H 2068.39 0.326481 -1.4025 0
M  V30 21618 H 2070.34 3.11734 -2.83548 0
M  V30 21619 H 2069.06 2.83254 -1.62588 0
M  V30 21620 H 2067.72 1.54393 -3.32503 0
M  V30 21621 H 2067.37 4.00404 -3.04443 0
M  V30 21622 H 2067.07 3.4936 -4.72463 0
M  V30 21623 H 2068.59 4.32757 -4.30759 0
M  V30 21624 H 2070.01 2.26793 -5.26534 0
M  V30 21625 H 2068.41 1.65675 -5.76777 0
M  V30 21626 H 2069.48 0.617593 -4.80951 0
M  V30 21627 N 2070.82 1.53744 0.346476 0
M  V30 21628 C 2072.23 1.43943 0.689395 0
M  V30 21629 C 2072.43 0.593819 1.92551 0
M  V30 21630 O 2071.49 0.0836653 2.52361 0
M  V30 21631 C 2072.8 2.87389 0.884766 0
M  V30 21632 C 2074.35 2.97145 0.98357 0
M  V30 21633 C 2074.83 4.41692 1.21128 0
M  V30 21634 N 2076.32 4.45205 1.27855 0
M  V30 21635 C 2077.05 5.54179 1.47219 0
M  V30 21636 N 2076.55 6.73164 1.63775 0
M  V30 21637 N 2078.34 5.41787 1.49743 0
M  V30 21638 H 2070.49 2.07218 -0.466306 0
M  V30 21639 H 2072.76 0.936584 -0.146675 0
M  V30 21640 H 2072.46 3.51667 0.0480249 0
M  V30 21641 H 2072.34 3.32165 1.78736 0
M  V30 21642 H 2074.72 2.33008 1.81084 0
M  V30 21643 H 2074.8 2.55734 0.0579478 0
M  V30 21644 H 2074.45 5.06409 0.388952 0
M  V30 21645 H 2074.38 4.80692 2.15042 0
M  V30 21646 H 2076.87 3.59463 1.16596 0
M  V30 21647 H 2077.18 7.51979 1.78179 0
M  V30 21648 H 2075.53 6.76114 1.60917 0
M  V30 21649 H 2078.72 4.4779 1.36389 0
M  V30 21650 H 2078.89 6.26774 1.64493 0
M  V30 21651 N 2072.3 -0.607329 1.45428 0
M  V30 21652 C 2073.52 -1.39296 1.52984 0
M  V30 21653 C 2073.94 -1.88099 0.162539 0
M  V30 21654 O 2073.3 -1.62229 -0.835945 0
M  V30 21655 C 2073.35 -2.59727 2.51444 0
M  V30 21656 O 2073.07 -2.12952 3.82862 0
M  V30 21657 C 2074.57 -3.52583 2.68701 0
M  V30 21658 H 2071.79 -0.426391 0.518104 0
M  V30 21659 H 2074.33 -0.740646 1.90617 0
M  V30 21660 H 2072.49 -3.20999 2.16883 0
M  V30 21661 H 2072.9 -2.91201 4.36237 0
M  V30 21662 H 2074.38 -4.33629 3.4157 0
M  V30 21663 H 2074.85 -4.0294 1.74746 0
M  V30 21664 H 2075.46 -2.97163 3.0426 0
M  V30 21665 N 2073.77 -1.32722 -0.849853 0
M  V30 21666 C 2074.7 -1.24675 -1.97429 0
M  V30 21667 C 2075.69 -0.129581 -1.69606 0
M  V30 21668 O 2076.87 -0.317548 -1.91586 0
M  V30 21669 C 2074 -0.973971 -3.33363 0
M  V30 21670 C 2072.95 -2.05289 -3.75553 0
M  V30 21671 C 2072.28 -1.63244 -5.09171 0
M  V30 21672 C 2073.58 -3.46845 -3.90507 0
M  V30 21673 H 2075.27 -2.18753 -2.0442 0
M  V30 21674 H 2072.82 -1.0531 -0.982132 0
M  V30 21675 H 2074.77 -0.904206 -4.11585 0
M  V30 21676 H 2073.5 0.00243816 -3.266 0
M  V30 21677 H 2072.16 -2.11289 -2.99587 0
M  V30 21678 H 2071.8 -0.643348 -4.98869 0
M  V30 21679 H 2071.5 -2.35437 -5.38371 0
M  V30 21680 H 2073.03 -1.57713 -5.8988 0
M  V30 21681 H 2074.44 -3.43408 -4.59069 0
M  V30 21682 H 2072.84 -4.17429 -4.3113 0
M  V30 21683 H 2073.91 -3.86155 -2.93278 0
M  V30 21684 N 2075.25 1.06673 -1.16011 0
M  V30 21685 C 2076.67 1.31515 -0.90421 0
M  V30 21686 C 2076.87 1.96524 0.445021 0
M  V30 21687 O 2075.92 2.22945 1.18541 0
M  V30 21688 C 2077.24 2.19955 -2.05037 0
M  V30 21689 C 2078.79 2.33384 -2.08569 0
M  V30 21690 C 2079.26 3.25176 -3.22528 0
M  V30 21691 N 2080.75 3.32759 -3.2222 0
M  V30 21692 C 2081.49 4.03866 -4.07038 0
M  V30 21693 N 2080.98 4.77529 -5.01934 0
M  V30 21694 N 2082.78 3.99877 -3.95037 0
M  V30 21695 H 2074.93 0.628672 -2.02883 0
M  V30 21696 H 2077.19 0.339704 -0.885045 0
M  V30 21697 H 2076.9 1.79458 -3.02469 0
M  V30 21698 H 2076.77 3.20521 -1.98862 0
M  V30 21699 H 2079.16 2.7313 -1.11732 0
M  V30 21700 H 2079.24 1.32499 -2.1881 0
M  V30 21701 H 2078.88 2.86147 -4.19622 0
M  V30 21702 H 2078.81 4.26031 -3.09524 0
M  V30 21703 H 2081.3 2.80259 -2.53502 0
M  V30 21704 H 2081.62 5.29302 -5.6308 0
M  V30 21705 H 2079.96 4.76522 -5.05917 0
M  V30 21706 H 2083.15 3.41446 -3.20207 0
M  V30 21707 H 2083.32 4.55027 -4.61361 0
M  V30 21708 N 2076.73 0.957992 1.25141 0
M  V30 21709 C 2078.14 0.65484 1.74839 0
M  V30 21710 C 2078.49 -0.829713 1.77793 0
M  V30 21711 O 2077.62 -1.6493 1.40096 0
M  V30 21712 C 2078.21 1.18197 3.17513 0
M  V30 21713 C 2076.77 0.928917 3.64758 0
M  V30 21714 C 2075.92 1.32303 2.43703 0
M  V30 21715 H 2078.87 1.13442 1.1098 0
M  V30 21716 H 2078.89 0.543641 3.76596 0
M  V30 21717 H 2078.4 2.26246 3.15332 0
M  V30 21718 H 2076.5 -0.136467 3.7235 0
M  V30 21719 H 2076.62 1.56774 4.52724 0
M  V30 21720 H 2074.98 0.741407 2.4367 0
M  V30 21721 H 2075.76 2.41281 2.4421 0
M  V30 21722 N 2078.21 -1.39832 0.726957 0
M  V30 21723 C 2079.14 -2.333 0.0966938 0
M  V30 21724 C 2080.12 -1.53492 -0.733095 0
M  V30 21725 O 2081.3 -1.81916 -0.679712 0
M  V30 21726 C 2078.43 -3.37545 -0.817367 0
M  V30 21727 C 2077.39 -4.279 -0.0923447 0
M  V30 21728 C 2076.71 -5.22777 -1.12288 0
M  V30 21729 C 2078.01 -5.11425 1.06028 0
M  V30 21730 H 2079.71 -2.86255 0.877412 0
M  V30 21731 H 2077.25 -1.37635 0.423378 0
M  V30 21732 H 2079.21 -4.01878 -1.26776 0
M  V30 21733 H 2077.93 -2.83011 -1.63011 0
M  V30 21734 H 2076.59 -3.65035 0.338339 0
M  V30 21735 H 2076.24 -4.64542 -1.92898 0
M  V30 21736 H 2075.94 -5.84076 -0.64259 0
M  V30 21737 H 2077.46 -5.89987 -1.57314 0
M  V30 21738 H 2078.88 -5.69148 0.688715 0
M  V30 21739 H 2077.27 -5.81825 1.46968 0
M  V30 21740 H 2078.34 -4.46731 1.88571 0
M  V30 21741 N 2079.69 -0.473982 -1.50304 0
M  V30 21742 C 2081.1 -0.128306 -1.59083 0
M  V30 21743 C 2081.3 1.3654 -1.48186 0
M  V30 21744 O 2080.36 2.13895 -1.34183 0
M  V30 21745 C 2081.67 -0.681074 -2.92885 0
M  V30 21746 C 2083.22 -0.644759 -3.06287 0
M  V30 21747 C 2083.69 -1.17512 -4.42668 0
M  V30 21748 N 2085.19 -1.13466 -4.49088 0
M  V30 21749 C 2085.92 -1.5155 -5.5301 0
M  V30 21750 N 2085.42 -1.97098 -6.64172 0
M  V30 21751 N 2087.21 -1.43135 -5.4357 0
M  V30 21752 H 2079.36 -1.44543 -1.55631 0
M  V30 21753 H 2081.62 -0.597921 -0.735659 0
M  V30 21754 H 2081.33 -1.72759 -3.06345 0
M  V30 21755 H 2081.2 -0.126258 -3.76989 0
M  V30 21756 H 2083.59 0.392851 -2.92473 0
M  V30 21757 H 2083.67 -1.23641 -2.23934 0
M  V30 21758 H 2083.32 -2.21138 -4.57231 0
M  V30 21759 H 2083.25 -0.559658 -5.23618 0
M  V30 21760 H 2085.74 -0.800623 -3.69322 0
M  V30 21761 H 2086.05 -2.24298 -7.39534 0
M  V30 21762 H 2084.39 -2.01052 -6.65284 0
M  V30 21763 H 2087.59 -1.0739 -4.55615 0
M  V30 21764 H 2087.76 -1.73141 -6.24441 0
M  V30 21765 N 2081.16 1.56239 -0.206702 0
M  V30 21766 C 2082.41 1.98197 0.429627 0
M  V30 21767 C 2082.74 1.09386 1.60463 0
M  V30 21768 O 2082.02 0.148321 1.93934 0
M  V30 21769 C 2082.3 3.49218 0.878562 0
M  V30 21770 C 2082.15 4.48805 -0.299054 0
M  V30 21771 C 2083.47 4.04243 1.74 0
M  V30 21772 H 2080.59 0.720583 0.154691 0
M  V30 21773 H 2083.23 1.87617 -0.299957 0
M  V30 21774 H 2081.38 3.58365 1.50023 0
M  V30 21775 H 2083.06 4.51684 -0.936956 0
M  V30 21776 H 2081.3 4.23294 -0.948945 0
M  V30 21777 H 2081.97 5.5197 0.0577652 0
M  V30 21778 H 2084.45 3.97948 1.2156 0
M  V30 21779 H 2083.32 5.10259 2.02305 0
M  V30 21780 H 2083.58 3.50212 2.69823 0
M  V30 21781 N 2082.64 -0.0668159 1.57458 0
M  V30 21782 C 2083.89 -0.76387 1.86676 0
M  V30 21783 C 2084.2 -1.78489 0.800057 0
M  V30 21784 O 2085.41 -2.53187 0.980236 0
M  V30 21785 C 2083.87 -1.4095 3.31151 0
M  V30 21786 C 2083.47 -0.426782 4.45963 0
M  V30 21787 C 2085.22 -2.08863 3.69563 0
M  V30 21788 C 2083.13 -1.07861 5.81481 0
M  V30 21789 H 2082.06 -0.289037 0.6964 0
M  V30 21790 H 2084.71 -0.0172645 1.83492 0
M  V30 21791 H 2083.09 -2.20453 3.28962 0
M  V30 21792 H 2084.26 0.338803 4.59553 0
M  V30 21793 H 2082.58 0.148171 4.16136 0
M  V30 21794 H 2085.17 -2.58415 4.68109 0
M  V30 21795 H 2085.52 -2.89026 2.99616 0
M  V30 21796 H 2086.05 -1.36184 3.73763 0
M  V30 21797 H 2082.79 -0.317194 6.54732 0
M  V30 21798 H 2082.31 -1.81493 5.71682 0
M  V30 21799 H 2083.99 -1.597 6.26981 0
M  V30 21800 N 2084.12 -1.53926 -0.338317 0
M  V30 21801 C 2085.35 -1.75682 -1.1023 0
M  V30 21802 C 2085.77 -0.497087 -1.81413 0
M  V30 21803 O 2085.13 0.550577 -1.72738 0
M  V30 21804 C 2085.18 -2.94038 -2.08743 0
M  V30 21805 O 2084.28 -2.64552 -3.16364 0
M  V30 21806 H 2083.62 -0.582603 -0.318544 0
M  V30 21807 H 2086.15 -2.00904 -0.387113 0
M  V30 21808 H 2086.16 -3.20973 -2.51873 0
M  V30 21809 H 2084.84 -3.854 -1.56331 0
M  V30 21810 H 2083.41 -2.48521 -2.78014 0
M  V30 21811 N 2085.6 0.599608 -1.45748 0
M  V30 21812 C 2087.02 0.921212 -1.3033 0
M  V30 21813 C 2087.22 1.99787 -0.262213 0
M  V30 21814 O 2086.27 2.50186 0.34109 0
M  V30 21815 C 2087.58 1.35457 -2.68462 0
M  V30 21816 C 2089.13 1.46835 -2.76421 0
M  V30 21817 C 2089.61 1.93544 -4.15096 0
M  V30 21818 N 2091.1 2.00765 -4.1743 0
M  V30 21819 C 2091.83 2.38145 -5.21608 0
M  V30 21820 N 2091.33 2.74437 -6.36126 0
M  V30 21821 N 2093.12 2.38554 -5.08968 0
M  V30 21822 H 2085.27 -0.111892 -2.12105 0
M  V30 21823 H 2087.54 0.0126042 -0.947916 0
M  V30 21824 H 2087.24 0.63759 -3.45872 0
M  V30 21825 H 2087.12 2.31951 -2.97453 0
M  V30 21826 H 2089.5 2.17623 -1.99309 0
M  V30 21827 H 2089.58 0.486356 -2.51134 0
M  V30 21828 H 2089.23 1.2334 -4.92696 0
M  V30 21829 H 2089.16 2.92672 -4.3778 0
M  V30 21830 H 2091.65 1.75275 -3.34794 0
M  V30 21831 H 2091.96 3.01865 -7.11405 0
M  V30 21832 H 2090.31 2.72115 -6.39514 0
M  V30 21833 H 2093.5 2.09612 -4.18546 0
M  V30 21834 H 2093.67 2.67359 -5.90274 0
M  V30 21835 N 2087.08 1.33171 0.842803 0
M  V30 21836 C 2088.04 1.23019 1.93388 0
M  V30 21837 C 2089.04 0.15022 1.60097 0
M  V30 21838 O 2090.23 0.401472 1.69511 0
M  V30 21839 C 2087.36 0.89468 3.2895 0
M  V30 21840 H 2088.56 2.19997 2.03817 0
M  V30 21841 H 2086.11 1.17173 1.03442 0
M  V30 21842 H 2086.84 -0.0727774 3.24218 0
M  V30 21843 H 2086.63 1.67563 3.54493 0
M  V30 21844 H 2088.12 0.848284 4.08894 0
M  V30 21845 N 2088.56 -1.06056 1.16576 0
M  V30 21846 C 2089.97 -1.60363 0.956067 0
M  V30 21847 C 2090.32 -1.89737 -0.499436 0
M  V30 21848 O 2089.44 -1.67257 -1.3731 0
M  V30 21849 C 2090.04 -2.91353 1.72913 0
M  V30 21850 C 2088.6 -3.42352 1.56436 0
M  V30 21851 C 2087.74 -2.1621 1.73633 0
M  V30 21852 H 2090.69 -0.889768 1.31411 0
M  V30 21853 H 2090.72 -3.6087 1.20636 0
M  V30 21854 H 2090.23 -2.69942 2.78842 0
M  V30 21855 H 2088.33 -3.68817 0.529577 0
M  V30 21856 H 2088.44 -4.17519 2.34978 0
M  V30 21857 H 2086.81 -2.26548 1.16396 0
M  V30 21858 H 2087.59 -1.97279 2.80955 0
M  V30 21859 N 2090.03 -0.964615 -1.24631 0
M  V30 21860 C 2091.28 -0.623582 -1.92239 0
M  V30 21861 C 2091.6 0.843493 -1.75813 0
M  V30 21862 O 2090.87 1.60179 -1.12781 0
M  V30 21863 H 2089.45 -0.227644 -0.711468 0
M  V30 21864 H 2092.11 -1.22502 -1.51589 0
M  V30 21865 H 2091.21 -0.861514 -2.99974 0
M  V30 21866 N 2091.51 1.39445 -0.734362 0
M  V30 21867 C 2092.44 2.33245 -0.109065 0
M  V30 21868 C 2093.42 1.53878 0.724945 0
M  V30 21869 O 2094.61 1.82274 0.670055 0
M  V30 21870 C 2091.74 3.37973 0.799454 0
M  V30 21871 C 2090.69 4.27943 0.0696508 0
M  V30 21872 C 2090.02 5.23365 1.09514 0
M  V30 21873 C 2091.32 5.10855 -1.08738 0
M  V30 21874 H 2093.01 2.85786 -0.892581 0
M  V30 21875 H 2090.56 1.37409 -0.430672 0
M  V30 21876 H 2092.51 4.02545 1.24643 0
M  V30 21877 H 2091.23 2.83871 1.61508 0
M  V30 21878 H 2089.89 3.64851 -0.357693 0
M  V30 21879 H 2089.54 4.65559 1.90432 0
M  V30 21880 H 2089.24 5.84408 0.611606 0
M  V30 21881 H 2090.77 5.90813 1.54183 0
M  V30 21882 H 2092.18 5.68775 -0.718888 0
M  V30 21883 H 2090.58 5.81038 -1.50051 0
M  V30 21884 H 2091.65 4.45725 -1.90937 0
M  V30 21885 N 2092.99 0.481946 1.5005 0
M  V30 21886 C 2093.94 -0.306558 2.28755 0
M  V30 21887 C 2094.91 -0.97752 1.3429 0
M  V30 21888 O 2096.09 -0.987865 1.63236 0
M  V30 21889 C 2093.23 -1.37629 3.16468 0
M  V30 21890 C 2092.34 -0.71902 4.25974 0
M  V30 21891 C 2091.48 -1.76757 5.0093 0
M  V30 21892 C 2090.52 -1.09113 6.02296 0
M  V30 21893 N 2089.66 -2.08302 6.70489 0
M  V30 21894 H 2094.5 0.370886 2.95683 0
M  V30 21895 H 2092.03 0.194749 1.45805 0
M  V30 21896 H 2093.99 -2.00828 3.65683 0
M  V30 21897 H 2092.62 -2.02275 2.51564 0
M  V30 21898 H 2091.67 0.0257987 3.80391 0
M  V30 21899 H 2092.98 -0.1856 4.98455 0
M  V30 21900 H 2092.14 -2.47509 5.53917 0
M  V30 21901 H 2090.88 -2.33481 4.2818 0
M  V30 21902 H 2089.88 -0.369286 5.48558 0
M  V30 21903 H 2091.11 -0.530637 6.77024 0
M  V30 21904 H 2089.05 -2.64023 6.00523 0
M  V30 21905 H 2088.97 -1.59974 7.3888 0
M  V30 21906 H 2090.24 -2.78401 7.28089 0
M  V30 21907 N 2094.47 -1.56127 0.214985 0
M  V30 21908 C 2095.4 -2.22991 -0.69263 0
M  V30 21909 C 2096.38 -1.19946 -1.20611 0
M  V30 21910 O 2097.56 -1.48512 -1.25131 0
M  V30 21911 C 2094.69 -2.90473 -1.90376 0
M  V30 21912 C 2093.65 -3.99933 -1.52439 0
M  V30 21913 C 2092.97 -4.54678 -2.81375 0
M  V30 21914 C 2094.27 -5.17323 -0.719325 0
M  V30 21915 H 2095.97 -2.99095 -0.135168 0
M  V30 21916 H 2093.51 -1.4386 -0.0635721 0
M  V30 21917 H 2095.47 -3.35938 -2.54408 0
M  V30 21918 H 2094.19 -2.11806 -2.48608 0
M  V30 21919 H 2092.85 -3.55189 -0.907557 0
M  V30 21920 H 2092.5 -3.72749 -3.37739 0
M  V30 21921 H 2092.2 -5.28549 -2.56729 0
M  V30 21922 H 2093.72 -5.02857 -3.46362 0
M  V30 21923 H 2095.14 -5.5921 -1.2632 0
M  V30 21924 H 2093.53 -5.97385 -0.570203 0
M  V30 21925 H 2094.6 -4.84117 0.275461 0
M  V30 21926 N 2095.95 0.0584645 -1.57492 0
M  V30 21927 C 2097.19 0.75619 -1.88174 0
M  V30 21928 C 2097.52 1.76546 -0.809018 0
M  V30 21929 O 2096.8 1.93672 0.179286 0
M  V30 21930 C 2097.08 1.45223 -3.29518 0
M  V30 21931 C 2096.94 0.458472 -4.47457 0
M  V30 21932 C 2098.25 2.39381 -3.69303 0
M  V30 21933 H 2095.37 0.27344 -0.684397 0
M  V30 21934 H 2098.02 0.0191997 -1.8999 0
M  V30 21935 H 2096.17 2.08044 -3.28101 0
M  V30 21936 H 2097.84 -0.165547 -4.61003 0
M  V30 21937 H 2096.08 -0.225018 -4.33216 0
M  V30 21938 H 2096.75 0.983384 -5.4317 0
M  V30 21939 H 2099.23 1.86628 -3.719 0
M  V30 21940 H 2098.1 2.85078 -4.69065 0
M  V30 21941 H 2098.36 3.24775 -2.99956 0
M  V30 21942 N 2097.42 1.54103 0.330149 0
M  V30 21943 C 2098.67 1.72248 1.07045 0
M  V30 21944 C 2099 0.491265 1.87884 0
M  V30 21945 O 2098.28 -0.511764 1.87647 0
M  V30 21946 C 2098.56 2.99412 2.00061 0
M  V30 21947 C 2098.41 4.3277 1.22596 0
M  V30 21948 C 2099.73 3.22301 2.99683 0
M  V30 21949 H 2096.85 0.626746 0.387761 0
M  V30 21950 H 2099.49 1.86791 0.347722 0
M  V30 21951 H 2097.64 2.87144 2.61688 0
M  V30 21952 H 2099.32 4.56911 0.634799 0
M  V30 21953 H 2097.56 4.30573 0.528135 0
M  V30 21954 H 2098.23 5.17954 1.9086 0
M  V30 21955 H 2100.71 3.33988 2.48176 0
M  V30 21956 H 2099.58 4.12648 3.61956 0
M  V30 21957 H 2099.84 2.39221 3.71787 0
M  V30 21958 N 2098.9 -0.59187 1.46064 0
M  V30 21959 C 2099.81 -1.72959 1.585 0
M  V30 21960 C 2100.83 -1.67565 0.468813 0
M  V30 21961 O 2102 -1.87639 0.731679 0
M  V30 21962 C 2099.07 -3.09451 1.56336 0
M  V30 21963 C 2098.13 -3.26179 2.79117 0
M  V30 21964 C 2097.36 -4.56159 2.77046 0
M  V30 21965 O 2097.59 -5.39474 1.85268 0
M  V30 21966 O 2096.52 -4.75937 3.68466 0
M  V30 21967 H 2100.35 -1.65416 2.54699 0
M  V30 21968 H 2097.93 -0.757834 1.28753 0
M  V30 21969 H 2099.81 -3.90742 1.57793 0
M  V30 21970 H 2098.49 -3.17451 0.632949 0
M  V30 21971 H 2097.4 -2.44416 2.83217 0
M  V30 21972 H 2098.73 -3.23064 3.71336 0
M  V30 21973 N 2100.38 -1.33616 -0.835729 0
M  V30 21974 C 2101.61 -1.28297 -1.62319 0
M  V30 21975 C 2102.02 0.145496 -1.88239 0
M  V30 21976 O 2101.38 1.08862 -1.46476 0
M  V30 21977 C 2101.43 -2.05863 -2.97158 0
M  V30 21978 O 2101.15 -3.43137 -2.72375 0
M  V30 21979 C 2102.65 -2.07791 -3.91584 0
M  V30 21980 H 2099.87 -0.441872 -0.504966 0
M  V30 21981 H 2102.42 -1.76036 -1.04075 0
M  V30 21982 H 2100.57 -1.61799 -3.51994 0
M  V30 21983 H 2100.99 -3.83078 -3.58262 0
M  V30 21984 H 2102.46 -2.66511 -4.834 0
M  V30 21985 H 2102.94 -1.06897 -4.25993 0
M  V30 21986 H 2103.54 -2.51888 -3.42684 0
M  V30 21987 N 2101.86 1.05436 -1.17136 0
M  V30 21988 C 2102.79 2.15075 -0.909112 0
M  V30 21989 C 2103.77 1.69455 0.147942 0
M  V30 21990 O 2104.95 1.942 -0.00177952 0
M  V30 21991 C 2102.08 3.44764 -0.41892 0
M  V30 21992 C 2101.04 4.03937 -1.41488 0
M  V30 21993 C 2100.36 5.2894 -0.782739 0
M  V30 21994 C 2101.66 4.4171 -2.78728 0
M  V30 21995 H 2103.36 2.37271 -1.826 0
M  V30 21996 H 2100.9 1.14031 -0.879376 0
M  V30 21997 H 2102.86 4.2081 -0.222885 0
M  V30 21998 H 2101.58 3.22213 0.533496 0
M  V30 21999 H 2100.24 3.29958 -1.59761 0
M  V30 22000 H 2099.89 5.0269 0.176435 0
M  V30 22001 H 2099.59 5.6949 -1.44758 0
M  V30 22002 H 2101.11 6.07675 -0.596922 0
M  V30 22003 H 2102.53 5.08801 -2.64187 0
M  V30 22004 H 2100.92 4.93271 -3.41766 0
M  V30 22005 H 2101.99 3.52168 -3.33325 0
M  V30 22006 N 2103.34 0.971211 1.24118 0
M  V30 22007 C 2104.59 0.630598 1.91589 0
M  V30 22008 C 2104.9 -0.838491 1.76716 0
M  V30 22009 O 2106.1 -1.28978 2.38908 0
M  V30 22010 C 2104.56 1.07723 3.434 0
M  V30 22011 C 2104.17 2.57002 3.66953 0
M  V30 22012 C 2105.91 0.809928 4.16702 0
M  V30 22013 C 2103.82 2.95379 5.12352 0
M  V30 22014 H 2102.75 0.232148 0.717373 0
M  V30 22015 H 2105.4 1.17789 1.40706 0
M  V30 22016 H 2103.78 0.458223 3.9334 0
M  V30 22017 H 2104.96 3.24062 3.27598 0
M  V30 22018 H 2103.27 2.8138 3.06944 0
M  V30 22019 H 2105.87 1.07262 5.23831 0
M  V30 22020 H 2106.21 -0.253899 4.15525 0
M  V30 22021 H 2106.74 1.39007 3.72722 0
M  V30 22022 H 2103.48 4.00847 5.18654 0
M  V30 22023 H 2103 2.33005 5.52692 0
M  V30 22024 H 2104.68 2.85478 5.80613 0
M  V30 22025 N 2104.81 -1.39054 0.741747 0
M  V30 22026 C 2106.04 -2.05193 0.301789 0
M  V30 22027 C 2106.46 -1.55567 -1.05739 0
M  V30 22028 O 2105.82 -0.702382 -1.67141 0
M  V30 22029 C 2105.87 -3.59172 0.320615 0
M  V30 22030 O 2104.97 -4.06596 -0.68946 0
M  V30 22031 H 2104.32 -0.649957 0.135837 0
M  V30 22032 H 2106.85 -1.77958 1.00956 0
M  V30 22033 H 2106.86 -4.07657 0.167351 0
M  V30 22034 H 2105.53 -3.94652 1.31234 0
M  V30 22035 H 2104.11 -3.69509 -0.50178 0
M  V30 22036 N 2106.29 -0.489897 -1.49792 0
M  V30 22037 C 2107.52 0.0578875 -2.07319 0
M  V30 22038 C 2107.94 1.31067 -1.34919 0
M  V30 22039 O 2107.3 1.76775 -0.402515 0
M  V30 22040 C 2107.35 0.305835 -3.59301 0
M  V30 22041 O 2106.45 1.38274 -3.88528 0
M  V30 22042 H 2105.79 -0.021301 -0.663658 0
M  V30 22043 H 2108.32 -0.686335 -1.92745 0
M  V30 22044 H 2108.33 0.540697 -4.04401 0
M  V30 22045 H 2107.01 -0.609525 -4.11409 0
M  V30 22046 H 2105.59 1.13371 -3.55248 0
M  V30 22047 N 2107.77 1.56011 -0.223262 0
M  V30 22048 C 2108.7 2.23355 0.680795 0
M  V30 22049 C 2109.68 1.20584 1.19973 0
M  V30 22050 O 2110.87 1.49174 1.24342 0
M  V30 22051 C 2108 2.91478 1.88833 0
M  V30 22052 C 2106.95 4.00736 1.50316 0
M  V30 22053 C 2106.28 4.56164 2.7896 0
M  V30 22054 C 2107.58 5.17697 0.69188 0
M  V30 22055 H 2109.27 2.99162 0.119304 0
M  V30 22056 H 2106.82 1.43891 0.055942 0
M  V30 22057 H 2108.77 3.37282 2.52623 0
M  V30 22058 H 2107.49 2.13121 2.47481 0
M  V30 22059 H 2106.15 3.55665 0.888708 0
M  V30 22060 H 2105.8 3.74535 3.35757 0
M  V30 22061 H 2105.5 5.29903 2.53922 0
M  V30 22062 H 2107.02 5.04687 3.43691 0
M  V30 22063 H 2108.44 5.59872 1.23353 0
M  V30 22064 H 2106.84 5.97679 0.538515 0
M  V30 22065 H 2107.91 4.83964 -0.301131 0
M  V30 22066 N 2109.25 -0.0501116 1.5752 0
M  V30 22067 C 2110.66 -0.405366 1.54366 0
M  V30 22068 C 2110.86 -1.77885 0.946523 0
M  V30 22069 O 2109.92 -2.46248 0.558406 0
M  V30 22070 C 2111.23 -0.326523 2.98922 0
M  V30 22071 C 2112.78 -0.40514 3.10367 0
M  V30 22072 C 2113.26 -0.355974 4.56615 0
M  V30 22073 N 2114.75 -0.415404 4.61334 0
M  V30 22074 C 2115.48 -0.39992 5.72004 0
M  V30 22075 N 2114.98 -0.337966 6.91975 0
M  V30 22076 N 2116.77 -0.448091 5.60311 0
M  V30 22077 H 2108.92 0.848979 1.94695 0
M  V30 22078 H 2111.19 0.320787 0.892076 0
M  V30 22079 H 2110.89 0.616487 3.46255 0
M  V30 22080 H 2110.77 -1.12839 3.59927 0
M  V30 22081 H 2113.15 -1.33858 2.62995 0
M  V30 22082 H 2113.23 0.425702 2.52233 0
M  V30 22083 H 2112.88 0.573705 5.04649 0
M  V30 22084 H 2112.81 -1.20464 5.12636 0
M  V30 22085 H 2115.3 -0.466654 3.75008 0
M  V30 22086 H 2115.61 -0.330673 7.72092 0
M  V30 22087 H 2113.96 -0.304327 6.94333 0
M  V30 22088 H 2117.15 -0.494336 4.65482 0
M  V30 22089 H 2117.32 -0.432555 6.46555 0
M  V30 22090 N 2110.73 -1.54276 -0.321972 0
M  V30 22091 C 2112.14 -1.63778 -0.896309 0
M  V30 22092 C 2112.49 -0.532871 -1.88825 0
M  V30 22093 O 2111.61 0.33397 -2.13807 0
M  V30 22094 C 2112.21 -2.96878 -1.63245 0
M  V30 22095 C 2110.77 -3.0857 -2.15549 0
M  V30 22096 C 2109.91 -2.59353 -0.981385 0
M  V30 22097 H 2112.87 -1.58388 -0.0995121 0
M  V30 22098 H 2112.89 -2.87127 -2.49677 0
M  V30 22099 H 2112.4 -3.77274 -0.910251 0
M  V30 22100 H 2110.5 -2.32851 -2.9088 0
M  V30 22101 H 2110.61 -4.14398 -2.4044 0
M  V30 22102 H 2108.98 -2.15288 -1.361 0
M  V30 22103 H 2109.76 -3.42209 -0.273477 0
M  V30 22104 N 2112.2 0.584116 -1.46376 0
M  V30 22105 C 2113.45 1.33858 -1.5088 0
M  V30 22106 C 2113.77 1.94909 -0.164319 0
M  V30 22107 O 2114.97 2.7136 -0.0871554 0
M  V30 22108 C 2113.43 2.42594 -2.6585 0
M  V30 22109 C 2113.04 1.87853 -4.06713 0
M  V30 22110 C 2114.78 3.19391 -2.79624 0
M  V30 22111 C 2112.69 2.94209 -5.13026 0
M  V30 22112 H 2111.62 0.503207 -0.561515 0
M  V30 22113 H 2114.27 0.623507 -1.72582 0
M  V30 22114 H 2112.65 3.16894 -2.37475 0
M  V30 22115 H 2113.82 1.20105 -4.44872 0
M  V30 22116 H 2112.14 1.23726 -3.97594 0
M  V30 22117 H 2114.74 3.98763 -3.56219 0
M  V30 22118 H 2115.08 3.71891 -1.8709 0
M  V30 22119 H 2115.61 2.52197 -3.07638 0
M  V30 22120 H 2112.35 2.46598 -6.07347 0
M  V30 22121 H 2111.87 3.6045 -4.79412 0
M  V30 22122 H 2113.55 3.58184 -5.38807 0
M  V30 22123 N 2113.68 1.34058 0.828631 0
M  V30 22124 C 2114.93 1.25844 1.58138 0
M  V30 22125 C 2115.25 -0.173004 1.94231 0
M  V30 22126 O 2114.52 -1.10425 1.61812 0
M  V30 22127 H 2113.1 0.4628 0.586366 0
M  V30 22128 H 2115.76 1.67901 0.989709 0
M  V30 22129 H 2114.86 1.85925 2.50676 0
M  V30 22130 N 2115.16 -1.04814 1.17694 0
M  V30 22131 C 2116.11 -2.14759 0.893388 0
M  V30 22132 C 2117.1 -1.68792 -0.143446 0
M  V30 22133 O 2118.31 -1.8 0.00399528 0
M  V30 22134 H 2114.68 -0.701322 0.271388 0
M  V30 22135 H 2116.66 -2.35876 1.8277 0
M  V30 22136 C 2115.4 -3.45064 0.427351 0
M  V30 22137 H 2114.73 -3.80838 1.21665 0
M  V30 22138 H 2116.17 -4.23153 0.267873 0
M  V30 22139 C 2114.63 -3.25854 -0.855618 0
M  V30 22140 O 2115.16 -3.5276 -1.92155 0
M  V30 22141 N 2113.36 -2.7922 -0.805269 0
M  V30 22142 H 2112.91 -2.57524 0.0623836 0
M  V30 22143 H 2112.87 -2.66747 -1.66413 0
M  V30 22144 N 2116.64 -0.977779 -1.23601 0
M  V30 22145 C 2117.89 -0.640749 -1.91252 0
M  V30 22146 C 2118.2 0.829108 -1.77159 0
M  V30 22147 O 2119.41 1.27709 -2.39589 0
M  V30 22148 C 2117.86 -1.09542 -3.42824 0
M  V30 22149 C 2117.47 -2.58944 -3.65584 0
M  V30 22150 C 2119.22 -0.832015 -4.16266 0
M  V30 22151 C 2117.12 -2.98092 -5.10779 0
M  V30 22152 H 2116.05 -0.235949 -0.716131 0
M  V30 22153 H 2118.7 -1.18533 -1.40079 0
M  V30 22154 H 2117.09 -0.479076 -3.93091 0
M  V30 22155 H 2118.26 -3.25795 -3.25875 0
M  V30 22156 H 2116.57 -2.83003 -3.05447 0
M  V30 22157 H 2119.17 -1.10039 -5.23255 0
M  V30 22158 H 2119.51 0.231859 -4.15654 0
M  V30 22159 H 2120.05 -1.40982 -3.7198 0
M  V30 22160 H 2116.79 -4.03592 -5.16521 0
M  V30 22161 H 2116.31 -2.35933 -5.51449 0
M  V30 22162 H 2117.99 -2.88553 -5.79091 0
M  V30 22163 N 2118.12 1.38658 -0.749111 0
M  V30 22164 C 2119.36 2.00513 -0.303727 0
M  V30 22165 C 2119.7 1.59324 1.11039 0
M  V30 22166 O 2118.97 0.828679 1.75964 0
M  V30 22167 C 2119.25 3.57624 -0.421545 0
M  V30 22168 C 2119.11 4.0879 -1.87644 0
M  V30 22169 C 2120.43 4.39699 0.187724 0
M  V30 22170 H 2117.55 0.728465 -0.111835 0
M  V30 22171 H 2120.19 1.64665 -0.947915 0
M  V30 22172 H 2118.34 3.88293 0.126892 0
M  V30 22173 H 2120.01 3.88784 -2.48284 0
M  V30 22174 H 2118.25 3.61824 -2.39303 0
M  V30 22175 H 2118.92 5.179 -1.91006 0
M  V30 22176 H 2121.4 4.15157 -0.279958 0
M  V30 22177 H 2120.28 5.48849 0.0750199 0
M  V30 22178 H 2120.54 4.23301 1.27549 0
M  V30 22179 N 2119.6 0.497834 1.49531 0
M  V30 22180 C 2120.53 -0.271671 2.31914 0
M  V30 22181 C 2121.51 -0.965521 1.40042 0
M  V30 22182 O 2122.69 -0.957536 1.68952 0
M  V30 22183 C 2119.82 -1.3384 3.20475 0
M  V30 22184 C 2118.78 -0.76461 4.21115 0
M  V30 22185 C 2118.1 -1.93162 4.98591 0
M  V30 22186 C 2119.4 0.242201 5.21738 0
M  V30 22187 H 2121.1 0.415979 2.96496 0
M  V30 22188 H 2118.64 0.201496 1.42583 0
M  V30 22189 H 2120.59 -1.88442 3.76918 0
M  V30 22190 H 2119.32 -2.05519 2.5383 0
M  V30 22191 H 2117.98 -0.240359 3.65811 0
M  V30 22192 H 2117.63 -2.63602 4.28396 0
M  V30 22193 H 2117.33 -1.55378 5.66685 0
M  V30 22194 H 2118.85 -2.48204 5.57877 0
M  V30 22195 H 2120.26 -0.215575 5.72895 0
M  V30 22196 H 2118.66 0.535707 5.97704 0
M  V30 22197 H 2119.73 1.15916 4.70841 0
M  V30 22198 N 2121.07 -1.5589 0.231532 0
M  V30 22199 C 2122.32 -1.97737 -0.397859 0
M  V30 22200 C 2122.64 -1.12252 -1.60184 0
M  V30 22201 O 2123.84 -1.44042 -2.30139 0
M  V30 22202 C 2122.3 -3.518 -0.759238 0
M  V30 22203 C 2121.91 -4.46003 0.422484 0
M  V30 22204 C 2123.65 -4.02338 -1.35368 0
M  V30 22205 C 2121.56 -5.91388 0.0381149 0
M  V30 22206 H 2120.49 -0.738433 -0.152423 0
M  V30 22207 H 2123.14 -1.80521 0.329322 0
M  V30 22208 H 2121.52 -3.64654 -1.54412 0
M  V30 22209 H 2122.69 -4.44902 1.19996 0
M  V30 22210 H 2121.01 -4.05863 0.930821 0
M  V30 22211 H 2123.61 -5.08464 -1.65433 0
M  V30 22212 H 2123.95 -3.48776 -2.2729 0
M  V30 22213 H 2124.48 -3.92747 -0.632021 0
M  V30 22214 H 2121.22 -6.48954 0.924083 0
M  V30 22215 H 2120.74 -5.9566 -0.703473 0
M  V30 22216 H 2122.42 -6.45853 -0.385094 0
M  V30 22217 N 2122.55 0.0417572 -1.57545 0
M  V30 22218 C 2123.79 0.740092 -1.90531 0
M  V30 22219 C 2124.16 1.73194 -0.828727 0
M  V30 22220 O 2125.36 2.47759 -1.04254 0
M  V30 22221 C 2123.63 1.40329 -3.28698 0
M  V30 22222 S 2125.19 2.13254 -3.83495 0
M  V30 22223 H 2122 0.245468 -0.667283 0
M  V30 22224 H 2124.61 -0.00488991 -1.95499 0
M  V30 22225 H 2123.31 0.668013 -4.04927 0
M  V30 22226 H 2122.84 2.18709 -3.27002 0
M  V30 22227 H 2124.86 3.4022 -3.61199 0
M  V30 22228 N 2124.03 1.54445 0.313786 0
M  V30 22229 C 2125.27 1.74847 1.05867 0
M  V30 22230 C 2125.63 0.516479 1.84923 0
M  V30 22231 O 2126.83 0.598017 2.62063 0
M  V30 22232 C 2125.11 2.99452 1.95099 0
M  V30 22233 S 2126.66 3.40801 2.76406 0
M  V30 22234 H 2123.48 0.614731 0.35725 0
M  V30 22235 H 2126.08 1.92634 0.33353 0
M  V30 22236 H 2124.79 3.87255 1.35873 0
M  V30 22237 H 2124.32 2.84216 2.72002 0
M  V30 22238 H 2126.33 2.96867 3.97598 0
M  V30 22239 N 2125.51 -0.576345 1.46683 0
M  V30 22240 C 2126.47 -1.66698 1.57303 0
M  V30 22241 C 2127.47 -1.54385 0.449647 0
M  V30 22242 O 2128.66 -1.58888 0.71415 0
M  V30 22243 C 2125.79 -3.06156 1.49938 0
M  V30 22244 H 2126.99 -1.58638 2.54507 0
M  V30 22245 H 2124.54 -0.79471 1.34588 0
M  V30 22246 H 2125.27 -3.19766 0.540379 0
M  V30 22247 H 2125.06 -3.16502 2.3145 0
M  V30 22248 H 2126.55 -3.85538 1.60469 0
M  V30 22249 N 2126.99 -1.34495 -0.82151 0
M  V30 22250 C 2128.23 -1.26931 -1.57781 0
M  V30 22251 C 2128.56 0.160345 -1.93838 0
M  V30 22252 O 2127.82 1.12196 -1.60345 0
M  V30 22253 C 2128.11 -2.10695 -2.88691 0
M  V30 22254 C 2127.78 -3.59682 -2.71919 0
M  V30 22255 C 2126.44 -4.00295 -2.67053 0
M  V30 22256 C 2128.79 -4.5428 -2.55497 0
M  V30 22257 C 2126.12 -5.33698 -2.43687 0
M  V30 22258 C 2128.47 -5.87864 -2.33663 0
M  V30 22259 C 2127.14 -6.2764 -2.27209 0
M  V30 22260 H 2126.41 -0.464474 -0.57736 0
M  V30 22261 H 2129.06 -1.66251 -0.950411 0
M  V30 22262 H 2127.36 -1.64208 -3.55729 0
M  V30 22263 H 2129.06 -2.02188 -3.46296 0
M  V30 22264 H 2125.65 -3.27444 -2.76547 0
M  V30 22265 H 2129.83 -4.23799 -2.58279 0
M  V30 22266 H 2125.09 -5.63534 -2.37149 0
M  V30 22267 H 2129.26 -6.60756 -2.19943 0
M  V30 22268 H 2126.89 -7.30944 -2.08865 0
M  V30 22269 N 2128.46 1.04188 -1.18248 0
M  V30 22270 C 2129.71 1.77367 -0.977091 0
M  V30 22271 C 2130.04 1.88138 0.493397 0
M  V30 22272 O 2129.29 1.38508 1.38253 0
M  V30 22273 C 2129.59 3.20799 -1.57553 0
M  V30 22274 C 2129.26 3.30065 -3.07193 0
M  V30 22275 C 2127.92 3.32301 -3.48037 0
M  V30 22276 C 2130.27 3.30263 -4.03207 0
M  V30 22277 C 2127.6 3.32376 -4.8347 0
M  V30 22278 C 2129.95 3.31877 -5.38554 0
M  V30 22279 C 2128.62 3.32405 -5.78846 0
M  V30 22280 H 2127.89 0.649033 -0.357543 0
M  V30 22281 H 2130.53 1.2238 -1.47294 0
M  V30 22282 H 2128.84 3.7878 -1.00165 0
M  V30 22283 H 2130.54 3.76063 -1.39204 0
M  V30 22284 H 2127.13 3.29044 -2.74641 0
M  V30 22285 H 2131.31 3.27728 -3.72704 0
M  V30 22286 H 2126.57 3.311 -5.13987 0
M  V30 22287 H 2130.74 3.3098 -6.1272 0
M  V30 22288 H 2128.37 3.32216 -6.83766 0
M  V30 22289 N 2129.94 0.98432 1.23081 0
M  V30 22290 C 2131.19 0.650883 1.90909 0
M  V30 22291 C 2131.5 -0.819701 1.77596 0
M  V30 22292 O 2132.71 -1.26436 2.40263 0
M  V30 22293 C 2131.17 1.11359 3.42239 0
M  V30 22294 C 2130.77 2.60879 3.64206 0
M  V30 22295 C 2132.52 0.854079 4.15819 0
M  V30 22296 C 2130.43 3.00797 5.09191 0
M  V30 22297 H 2129.36 0.239743 0.71487 0
M  V30 22298 H 2132.01 1.19274 1.39449 0
M  V30 22299 H 2130.39 0.499916 3.92832 0
M  V30 22300 H 2131.56 3.27519 3.24142 0
M  V30 22301 H 2129.88 2.84619 3.03942 0
M  V30 22302 H 2132.47 1.12812 5.22664 0
M  V30 22303 H 2132.82 -0.209813 4.15771 0
M  V30 22304 H 2133.35 1.42952 3.71227 0
M  V30 22305 H 2130.09 4.06326 5.14373 0
M  V30 22306 H 2129.61 2.38854 5.5019 0
M  V30 22307 H 2131.29 2.9162 5.77552 0
M  V30 22308 N 2131.42 -1.38259 0.756453 0
M  V30 22309 C 2132.67 -1.99293 0.310658 0
M  V30 22310 C 2132.98 -1.60729 -1.11469 0
M  V30 22311 O 2134.19 -2.14755 -1.6611 0
M  V30 22312 C 2132.64 -3.56347 0.50448 0
M  V30 22313 C 2132.25 -4.0386 1.9391 0
M  V30 22314 C 2134 -4.24326 0.121541 0
M  V30 22315 C 2131.9 -5.53565 2.08133 0
M  V30 22316 H 2130.83 -0.745574 0.112405 0
M  V30 22317 H 2133.48 -1.57987 0.933403 0
M  V30 22318 H 2131.87 -3.95556 -0.187493 0
M  V30 22319 H 2133.04 -3.75934 2.66478 0
M  V30 22320 H 2131.36 -3.48614 2.27722 0
M  V30 22321 H 2133.95 -5.34301 0.206533 0
M  V30 22322 H 2134.3 -4.05866 -0.926213 0
M  V30 22323 H 2134.83 -3.90366 0.765478 0
M  V30 22324 H 2131.57 -5.76933 3.11173 0
M  V30 22325 H 2131.09 -5.83225 1.4003 0
M  V30 22326 H 2132.77 -6.19307 1.87264 0
M  V30 22327 N 2132.9 -0.505757 -1.49264 0
M  V30 22328 C 2134.15 0.0370719 -2.02466 0
M  V30 22329 C 2134.47 1.36554 -1.38504 0
M  V30 22330 O 2133.73 1.88895 -0.51159 0
M  V30 22331 C 2134.03 0.233245 -3.56638 0
M  V30 22332 C 2133.69 -1.01781 -4.39262 0
M  V30 22333 C 2132.36 -1.36074 -4.6156 0
M  V30 22334 C 2134.71 -1.84918 -4.87293 0
M  V30 22335 C 2132.04 -2.53445 -5.29134 0
M  V30 22336 C 2134.39 -3.01446 -5.56159 0
M  V30 22337 C 2133.05 -3.36113 -5.76701 0
M  V30 22338 H 2132.32 0.0135656 -0.740876 0
M  V30 22339 H 2134.97 -0.666878 -1.79513 0
M  V30 22340 H 2133.27 1.01976 -3.78296 0
M  V30 22341 H 2134.97 0.66778 -3.95401 0
M  V30 22342 H 2131.56 -0.740706 -4.22151 0
M  V30 22343 H 2135.74 -1.59738 -4.69891 0
M  V30 22344 H 2131 -2.80536 -5.4324 0
M  V30 22345 H 2135.17 -3.66189 -5.9235 0
M  V30 22346 H 2132.8 -4.27163 -6.28837 0
M  V30 22347 N 2134.38 1.55765 -0.239796 0
M  V30 22348 C 2135.62 1.98377 0.386152 0
M  V30 22349 C 2135.95 1.12912 1.58984 0
M  V30 22350 O 2135.22 0.210274 1.94768 0
M  V30 22351 H 2133.8 0.732661 0.145661 0
M  V30 22352 H 2136.46 1.91966 -0.336934 0
M  V30 22353 H 2135.55 3.04146 0.700123 0
M  V30 22354 N 2135.85 -0.0334016 1.57565 0
M  V30 22355 C 2137.1 -0.724102 1.88254 0
M  V30 22356 C 2137.42 -1.76752 0.837737 0
M  V30 22357 O 2138.62 -2.51051 1.03372 0
M  V30 22358 C 2137.08 -1.33894 3.34067 0
M  V30 22359 C 2136.69 -0.332091 4.46767 0
M  V30 22360 C 2138.43 -2.00977 3.7391 0
M  V30 22361 C 2136.34 -0.955024 5.83638 0
M  V30 22362 H 2135.27 -0.274201 0.702375 0
M  V30 22363 H 2137.92 0.0216608 1.83487 0
M  V30 22364 H 2136.3 -2.13426 3.33565 0
M  V30 22365 H 2137.47 0.436205 4.58731 0
M  V30 22366 H 2135.79 0.236407 4.15728 0
M  V30 22367 H 2138.39 -2.48428 4.73485 0
M  V30 22368 H 2138.73 -2.82605 3.05679 0
M  V30 22369 H 2139.26 -1.28225 3.76568 0
M  V30 22370 H 2136 -0.178244 6.55258 0
M  V30 22371 H 2135.52 -1.69326 5.75403 0
M  V30 22372 H 2137.2 -1.46364 6.30227 0
M  V30 22373 N 2137.33 -1.54609 -0.305591 0
M  V30 22374 C 2138.26 -1.88242 -1.38157 0
M  V30 22375 C 2139.24 -0.740883 -1.53117 0
M  V30 22376 O 2140.43 -0.996214 -1.66701 0
M  V30 22377 C 2137.56 -2.12567 -2.7465 0
M  V30 22378 C 2136.51 -3.28415 -2.74459 0
M  V30 22379 C 2135.84 -3.38148 -4.14198 0
M  V30 22380 C 2137.14 -4.65633 -2.36607 0
M  V30 22381 H 2138.83 -2.78359 -1.10258 0
M  V30 22382 H 2136.38 -1.33933 -0.528959 0
M  V30 22383 H 2138.33 -2.34681 -3.50004 0
M  V30 22384 H 2137.06 -1.19216 -3.04064 0
M  V30 22385 H 2135.71 -3.06217 -2.01561 0
M  V30 22386 H 2135.36 -2.42323 -4.40782 0
M  V30 22387 H 2135.06 -4.16019 -4.14973 0
M  V30 22388 H 2136.59 -3.62517 -4.91339 0
M  V30 22389 H 2138 -4.87508 -3.01677 0
M  V30 22390 H 2136.4 -5.46184 -2.48603 0
M  V30 22391 H 2137.47 -4.66662 -1.31738 0
M  V30 22392 N 2138.81 0.568558 -1.46987 0
M  V30 22393 C 2140.06 1.3236 -1.52726 0
M  V30 22394 C 2140.38 1.94107 -0.186356 0
M  V30 22395 O 2139.65 1.79328 0.78857 0
M  V30 22396 H 2138.23 0.491483 -0.562542 0
M  V30 22397 H 2140.89 0.664797 -1.83212 0
M  V30 22398 H 2139.99 2.12301 -2.28768 0
M  V30 22399 N 2140.29 1.34929 0.814366 0
M  V30 22400 C 2141.53 1.27956 1.57338 0
M  V30 22401 C 2141.87 -0.147896 1.93636 0
M  V30 22402 O 2141.14 -1.09539 1.60722 0
M  V30 22403 C 2141.43 2.17862 2.8672 0
M  V30 22404 C 2141.28 3.69185 2.56948 0
M  V30 22405 C 2142.6 2.07033 3.88362 0
M  V30 22406 H 2139.72 0.466149 0.570854 0
M  V30 22407 H 2142.36 1.65259 0.937513 0
M  V30 22408 H 2140.51 1.86178 3.40984 0
M  V30 22409 H 2142.18 4.11275 2.08927 0
M  V30 22410 H 2140.42 3.89851 1.90259 0
M  V30 22411 H 2141.09 4.2747 3.49247 0
M  V30 22412 H 2143.57 2.34869 3.43476 0
M  V30 22413 H 2142.45 2.72151 4.76681 0
M  V30 22414 H 2142.71 1.04989 4.29453 0
M  V30 22415 N 2141.77 -1.0356 1.18799 0
M  V30 22416 C 2142.7 -2.11742 0.877379 0
M  V30 22417 C 2143.71 -1.62303 -0.127137 0
M  V30 22418 O 2144.9 -1.78212 0.10138 0
M  V30 22419 C 2142 -3.37653 0.290508 0
M  V30 22420 C 2141.17 -4.16306 1.34193 0
M  V30 22421 C 2140.23 -5.20538 0.769826 0
M  V30 22422 O 2139.26 -5.50531 1.44584 0
M  V30 22423 N 2140.46 -5.78904 -0.430185 0
M  V30 22424 H 2143.23 -2.3898 1.80855 0
M  V30 22425 H 2140.79 -1.19795 1.08907 0
M  V30 22426 H 2142.78 -4.04561 -0.105914 0
M  V30 22427 H 2141.35 -3.07816 -0.544797 0
M  V30 22428 H 2140.57 -3.44645 1.91347 0
M  V30 22429 H 2141.86 -4.65647 2.05062 0
M  V30 22430 H 2141.25 -5.56844 -0.997037 0
M  V30 22431 H 2139.81 -6.47254 -0.768466 0
M  V30 22432 N 2143.25 -0.990834 -1.22557 0
M  V30 22433 C 2144.18 -0.559304 -2.26703 0
M  V30 22434 C 2145.16 0.412782 -1.65016 0
M  V30 22435 O 2146.34 0.303868 -1.91808 0
M  V30 22436 C 2143.47 0.12888 -3.47061 0
M  V30 22437 C 2142.43 -0.76154 -4.2117 0
M  V30 22438 C 2141.75 0.0594442 -5.34667 0
M  V30 22439 C 2143.05 -2.0574 -4.80071 0
M  V30 22440 H 2144.75 -1.42983 -2.63052 0
M  V30 22441 H 2142.29 -0.68896 -1.26449 0
M  V30 22442 H 2144.24 0.44215 -4.19074 0
M  V30 22443 H 2142.97 1.03394 -3.09802 0
M  V30 22444 H 2141.63 -1.05842 -3.50989 0
M  V30 22445 H 2141.28 0.965355 -4.9365 0
M  V30 22446 H 2140.98 -0.533291 -5.85175 0
M  V30 22447 H 2142.5 0.366857 -6.09497 0
M  V30 22448 H 2143.91 -1.80821 -5.44037 0
M  V30 22449 H 2142.31 -2.59878 -5.4091 0
M  V30 22450 H 2143.38 -2.73748 -4.00237 0
M  V30 22451 N 2144.72 1.37856 -0.763775 0
M  V30 22452 C 2145.97 1.99883 -0.324496 0
M  V30 22453 C 2146.3 1.60631 1.09672 0
M  V30 22454 O 2145.55 0.840171 1.76747 0
M  V30 22455 C 2145.85 3.55083 -0.406337 0
M  V30 22456 C 2145.52 4.14078 -1.78466 0
M  V30 22457 C 2144.18 4.29904 -2.16185 0
M  V30 22458 C 2146.53 4.46517 -2.68834 0
M  V30 22459 C 2143.86 4.7547 -3.43723 0
M  V30 22460 C 2146.21 4.93504 -3.95774 0
M  V30 22461 C 2144.88 5.07536 -4.33547 0
M  V30 22462 H 2144.15 0.731424 -0.118741 0
M  V30 22463 H 2146.79 1.64747 -0.976245 0
M  V30 22464 H 2145.1 3.90417 0.328964 0
M  V30 22465 H 2146.8 4.00971 -0.0478734 0
M  V30 22466 H 2143.39 4.02182 -1.48149 0
M  V30 22467 H 2147.57 4.33883 -2.40955 0
M  V30 22468 H 2142.83 4.8452 -3.72895 0
M  V30 22469 H 2147 5.17572 -4.65931 0
M  V30 22470 H 2144.63 5.42603 -5.32434 0
M  V30 22471 N 2146.2 0.513665 1.48994 0
M  V30 22472 C 2147.15 -0.257967 2.29354 0
M  V30 22473 C 2148.12 -0.948815 1.36333 0
M  V30 22474 O 2149.3 -0.953018 1.65294 0
M  V30 22475 C 2146.44 -1.30885 3.19317 0
M  V30 22476 C 2145.56 -0.628503 4.27404 0
M  V30 22477 C 2144.69 -1.66091 5.04566 0
M  V30 22478 C 2143.73 -0.963129 6.04475 0
M  V30 22479 N 2142.87 -1.94033 6.74756 0
M  V30 22480 H 2147.71 0.433522 2.9483 0
M  V30 22481 H 2145.24 0.225633 1.45359 0
M  V30 22482 H 2147.2 -1.93026 3.69861 0
M  V30 22483 H 2145.83 -1.96894 2.55798 0
M  V30 22484 H 2144.88 0.10648 3.80251 0
M  V30 22485 H 2146.2 -0.0798289 4.98736 0
M  V30 22486 H 2145.35 -2.35704 5.59043 0
M  V30 22487 H 2144.09 -2.24346 4.33036 0
M  V30 22488 H 2143.09 -0.252846 5.49218 0
M  V30 22489 H 2144.32 -0.386911 6.77997 0
M  V30 22490 H 2142.27 -2.51226 6.05988 0
M  V30 22491 H 2142.18 -1.44265 7.42107 0
M  V30 22492 H 2143.45 -2.62894 7.3383 0
M  V30 22493 N 2147.68 -1.55636 0.248053 0
M  V30 22494 C 2148.93 -1.98579 -0.375626 0
M  V30 22495 C 2149.25 -1.13753 -1.58383 0
M  V30 22496 O 2148.52 -0.2206 -1.94654 0
M  V30 22497 H 2147.1 -0.733423 -0.141773 0
M  V30 22498 H 2149.76 -1.91784 0.34711 0
M  V30 22499 H 2148.86 -3.04513 -0.683983 0
M  V30 22500 N 2149.16 0.0250451 -1.5758 0
M  V30 22501 C 2150.1 1.02441 -2.0682 0
M  V30 22502 C 2151.07 1.35675 -0.958198 0
M  V30 22503 O 2152.26 1.45944 -1.22903 0
M  V30 22504 C 2149.4 2.31904 -2.55567 0
M  V30 22505 C 2148.51 2.04792 -3.80374 0
M  V30 22506 C 2147.65 3.28155 -4.17718 0
M  V30 22507 C 2146.69 2.96616 -5.3543 0
M  V30 22508 N 2145.82 4.12442 -5.68187 0
M  V30 22509 H 2150.66 0.59756 -2.91947 0
M  V30 22510 H 2148.2 0.283432 -1.44344 0
M  V30 22511 H 2150.16 3.07553 -2.81899 0
M  V30 22512 H 2148.79 2.72304 -1.73351 0
M  V30 22513 H 2147.84 1.19622 -3.61102 0
M  V30 22514 H 2149.15 1.7753 -4.66138 0
M  V30 22515 H 2148.31 4.12169 -4.45199 0
M  V30 22516 H 2147.05 3.58534 -3.30612 0
M  V30 22517 H 2146.05 2.11005 -5.07698 0
M  V30 22518 H 2147.28 2.67511 -6.24191 0
M  V30 22519 H 2145.22 4.42765 -4.84041 0
M  V30 22520 H 2145.14 3.88617 -6.4847 0
M  V30 22521 H 2146.41 4.97317 -6.00246 0
M  V30 22522 N 2150.64 1.54769 0.297388 0
M  V30 22523 C 2151.88 1.74221 1.03214 0
M  V30 22524 C 2152.21 0.529956 1.87141 0
M  V30 22525 O 2151.47 -0.488036 1.89517 0
M  V30 22526 C 2151.76 2.98592 1.96412 0
M  V30 22527 C 2151.43 4.32222 1.28433 0
M  V30 22528 C 2150.09 4.68546 1.09626 0
M  V30 22529 C 2152.44 5.15045 0.798634 0
M  V30 22530 C 2149.77 5.8527 0.409394 0
M  V30 22531 C 2152.12 6.32476 0.125474 0
M  V30 22532 C 2150.79 6.67458 -0.0745188 0
M  V30 22533 H 2150.06 0.637521 0.377688 0
M  V30 22534 H 2152.71 1.89028 0.306675 0
M  V30 22535 H 2151.01 2.78581 2.75499 0
M  V30 22536 H 2152.71 3.10837 2.5334 0
M  V30 22537 H 2149.3 4.03658 1.44078 0
M  V30 22538 H 2153.48 4.87477 0.931633 0
M  V30 22539 H 2148.74 6.10915 0.243492 0
M  V30 22540 H 2152.91 6.95919 -0.258751 0
M  V30 22541 H 2150.54 7.57759 -0.608755 0
M  V30 22542 N 2152.11 -0.560755 1.47286 0
M  V30 22543 C 2153.34 -1.34164 1.5711 0
M  V30 22544 C 2153.75 -1.87928 0.219012 0
M  V30 22545 O 2153.09 -1.65493 -0.797349 0
M  V30 22546 C 2153.16 -2.55063 2.53344 0
M  V30 22547 C 2152.82 -2.2261 3.99116 0
M  V30 22548 C 2153.82 -1.80117 4.87703 0
M  V30 22549 C 2151.5 -2.34079 4.44424 0
M  V30 22550 C 2153.5 -1.49517 6.19616 0
M  V30 22551 C 2151.18 -2.03091 5.76366 0
M  V30 22552 C 2152.18 -1.60877 6.63783 0
M  V30 22553 O 2151.87 -1.30281 7.93273 0
M  V30 22554 H 2151.6 -0.415417 0.533296 0
M  V30 22555 H 2154.16 -0.686492 1.93588 0
M  V30 22556 H 2152.39 -3.23457 2.11926 0
M  V30 22557 H 2154.07 -3.17138 2.53334 0
M  V30 22558 H 2154.84 -1.70753 4.53948 0
M  V30 22559 H 2150.72 -2.65895 3.76591 0
M  V30 22560 H 2154.26 -1.16495 6.87804 0
M  V30 22561 H 2150.16 -2.12086 6.09664 0
M  V30 22562 H 2150.93 -1.43942 8.05744 0
M  V30 22563 N 2153.59 -1.35359 -0.807199 0
M  V30 22564 C 2154.82 -1.3152 -1.5933 0
M  V30 22565 C 2155.23 0.109536 -1.88883 0
M  V30 22566 O 2154.57 1.07173 -1.49196 0
M  V30 22567 C 2154.63 -2.05378 -2.9506 0
M  V30 22568 C 2154.3 -3.54567 -2.88325 0
M  V30 22569 C 2155.3 -4.49171 -2.61805 0
M  V30 22570 C 2152.98 -3.97206 -3.07462 0
M  V30 22571 C 2154.97 -5.84389 -2.54496 0
M  V30 22572 C 2152.66 -5.3252 -2.99776 0
M  V30 22573 C 2153.66 -6.25923 -2.73329 0
M  V30 22574 O 2153.35 -7.58755 -2.65605 0
M  V30 22575 H 2153.08 -0.453354 -0.501444 0
M  V30 22576 H 2155.63 -1.78786 -1.01117 0
M  V30 22577 H 2153.86 -1.52748 -3.55253 0
M  V30 22578 H 2155.55 -1.94625 -3.56197 0
M  V30 22579 H 2156.32 -4.17546 -2.4674 0
M  V30 22580 H 2152.2 -3.24891 -3.27058 0
M  V30 22581 H 2155.74 -6.57264 -2.33774 0
M  V30 22582 H 2151.64 -5.63758 -3.14399 0
M  V30 22583 H 2152.41 -7.68673 -2.81218 0
M  V30 22584 N 2155.07 1.02928 -1.19346 0
M  V30 22585 C 2156.31 1.77875 -1.00697 0
M  V30 22586 C 2156.67 1.86548 0.454282 0
M  V30 22587 O 2157.87 2.57815 0.760575 0
M  V30 22588 C 2156.15 3.1666 -1.65715 0
M  V30 22589 S 2157.7 4.07802 -1.61997 0
M  V30 22590 H 2154.52 0.612328 -0.361352 0
M  V30 22591 H 2157.12 1.23334 -1.51687 0
M  V30 22592 H 2155.83 3.07964 -2.71268 0
M  V30 22593 H 2155.36 3.76277 -1.14802 0
M  V30 22594 H 2157.37 4.92005 -0.643881 0
M  V30 22595 N 2156.55 0.997319 1.2203 0
M  V30 22596 C 2157.46 0.560352 2.2781 0
M  V30 22597 C 2158.47 -0.392977 1.69504 0
M  V30 22598 O 2159.65 -0.258715 1.99731 0
M  V30 22599 C 2156.71 -0.113747 3.46513 0
M  V30 22600 C 2155.78 0.883099 4.20119 0
M  V30 22601 C 2155.01 0.241074 5.33155 0
M  V30 22602 O 2155.23 -0.963972 5.62195 0
M  V30 22603 O 2154.17 0.948154 5.94385 0
M  V30 22604 H 2157.99 1.44049 2.67364 0
M  V30 22605 H 2155.58 0.765793 1.28281 0
M  V30 22606 H 2157.46 -0.491137 4.18528 0
M  V30 22607 H 2156.13 -0.968387 3.08875 0
M  V30 22608 H 2155.04 1.3115 3.50358 0
M  V30 22609 H 2156.37 1.70708 4.61649 0
M  V30 22610 N 2158.03 -1.37449 0.771075 0
M  V30 22611 C 2159.27 -1.99314 0.33443 0
M  V30 22612 C 2159.6 -1.61515 -1.0926 0
M  V30 22613 O 2158.87 -0.880278 -1.75008 0
M  V30 22614 H 2157.45 -0.73719 0.120664 0
M  V30 22615 H 2160.11 -1.6794 0.989052 0
M  V30 22616 H 2159.2 -3.09375 0.411526 0
M  V30 22617 N 2159.5 -0.52156 -1.4872 0
M  V30 22618 C 2160.92 -0.0789475 -1.86533 0
M  V30 22619 C 2161.27 1.34125 -1.43196 0
M  V30 22620 O 2160.39 2.00307 -0.818913 0
M  V30 22621 C 2160.99 -0.136494 -3.38525 0
M  V30 22622 C 2159.55 0.250879 -3.75563 0
M  V30 22623 C 2158.69 -0.499991 -2.72755 0
M  V30 22624 H 2161.64 -0.733264 -1.40744 0
M  V30 22625 H 2161.66 0.653868 -3.7484 0
M  V30 22626 H 2161.18 -1.17024 -3.70036 0
M  V30 22627 H 2159.28 1.28709 -3.49664 0
M  V30 22628 H 2159.39 -0.0828724 -4.79028 0
M  V30 22629 H 2157.75 0.0527232 -2.54645 0
M  V30 22630 H 2158.54 -1.53421 -3.0711 0
M  V30 22631 N 2160.98 1.55502 -0.256304 0
M  V30 22632 C 2162.26 1.91111 0.41663 0
M  V30 22633 C 2162.64 1.17825 1.75159 0
M  V30 22634 O 2161.99 0.298822 2.26538 0
M  V30 22635 C 2162.2 3.44223 0.575462 0
M  V30 22636 C 2163.55 4.15653 0.867028 0
M  V30 22637 O 2164.57 3.50014 0.660977 0
M  V30 22638 O 2163.43 5.31777 1.25997 0
M  V30 22639 H 2160.52 0.795781 0.225083 0
M  V30 22640 H 2163.07 1.67008 -0.301066 0
M  V30 22641 H 2161.84 3.89596 -0.364767 0
M  V30 22642 H 2161.46 3.74219 1.34334 0
M  V30 22643 N 2162.46 -0.0166879 1.57591 0
M  V30 22644 C 2163.69 -0.716426 1.941 0
M  V30 22645 C 2164.1 -1.68225 0.857081 0
M  V30 22646 O 2163.46 -1.81748 -0.165469 0
M  V30 22647 C 2163.51 -1.46279 3.30583 0
M  V30 22648 O 2163.23 -0.535718 4.34812 0
M  V30 22649 C 2164.73 -2.25856 3.8145 0
M  V30 22650 H 2161.95 -0.200593 0.640315 0
M  V30 22651 H 2164.5 0.0294696 2.04479 0
M  V30 22652 H 2162.65 -2.16045 3.21564 0
M  V30 22653 H 2163.07 -1.06046 5.13668 0
M  V30 22654 H 2164.54 -2.73602 4.79423 0
M  V30 22655 H 2165.02 -3.07813 3.13285 0
M  V30 22656 H 2165.62 -1.61139 3.93592 0
M  V30 22657 N 2163.94 -1.54924 -0.289176 0
M  V30 22658 C 2165.35 -1.46402 -0.635496 0
M  V30 22659 C 2165.55 -0.664874 -1.90215 0
M  V30 22660 O 2164.61 -0.17727 -2.51877 0
M  V30 22661 C 2165.92 -2.90475 -0.777494 0
M  V30 22662 C 2167.47 -3.0059 -0.872609 0
M  V30 22663 C 2167.95 -4.45884 -1.04651 0
M  V30 22664 N 2169.44 -4.49643 -1.11243 0
M  V30 22665 C 2170.17 -5.59261 -1.2655 0
M  V30 22666 N 2169.67 -6.78778 -1.38679 0
M  V30 22667 N 2171.46 -5.46972 -1.29532 0
M  V30 22668 H 2163.61 -2.05345 0.542893 0
M  V30 22669 H 2165.88 -0.930495 0.181335 0
M  V30 22670 H 2165.58 -3.51603 0.0825272 0
M  V30 22671 H 2165.46 -3.3857 -1.66284 0
M  V30 22672 H 2167.84 -2.39568 -1.72311 0
M  V30 22673 H 2167.92 -2.55773 0.0370062 0
M  V30 22674 H 2167.57 -5.07503 -0.200734 0
M  V30 22675 H 2167.5 -4.88342 -1.97053 0
M  V30 22676 H 2169.99 -3.63543 -1.03175 0
M  V30 22677 H 2170.3 -7.58074 -1.50147 0
M  V30 22678 H 2168.65 -6.81621 -1.35713 0
M  V30 22679 H 2171.84 -4.52543 -1.19675 0
M  V30 22680 H 2172.01 -6.32448 -1.41117 0
M  V30 22681 N 2165.42 0.552936 -1.47582 0
M  V30 22682 C 2166.36 1.68064 -1.60802 0
M  V30 22683 C 2167.36 1.62599 -0.475175 0
M  V30 22684 O 2168.56 1.67733 -0.653122 0
M  V30 22685 H 2164.94 0.556179 -0.506131 0
M  V30 22686 H 2166.91 1.54051 -2.5556 0
M  V30 22687 C 2165.66 3.06407 -1.64348 0
M  V30 22688 H 2164.98 3.11295 -2.50869 0
M  V30 22689 H 2166.42 3.8499 -1.77647 0
M  V30 22690 C 2164.88 3.34777 -0.377611 0
M  V30 22691 O 2165.41 3.98327 0.519466 0
M  V30 22692 N 2163.62 2.89467 -0.256324 0
M  V30 22693 H 2163.16 2.3793 -0.98727 0
M  V30 22694 H 2163.12 3.0882 0.589696 0
M  V30 22695 N 2166.89 1.35785 0.800009 0
M  V30 22696 C 2168.14 1.28759 1.55255 0
M  V30 22697 C 2168.46 -0.134123 1.9514 0
M  V30 22698 O 2169.66 -0.3267 2.69527 0
M  V30 22699 C 2168.12 2.25848 2.80215 0
M  V30 22700 C 2167.73 3.73399 2.47542 0
M  V30 22701 C 2169.47 2.27777 3.58215 0
M  V30 22702 C 2167.38 4.62293 3.68834 0
M  V30 22703 H 2166.31 0.478422 0.582777 0
M  V30 22704 H 2168.96 1.61087 0.878812 0
M  V30 22705 H 2167.34 1.86499 3.49334 0
M  V30 22706 H 2168.51 4.21421 1.86389 0
M  V30 22707 H 2166.83 3.74142 1.82775 0
M  V30 22708 H 2169.43 2.91406 4.48315 0
M  V30 22709 H 2169.77 1.28334 3.96025 0
M  V30 22710 H 2170.3 2.65688 2.96065 0
M  V30 22711 H 2167.04 5.6276 3.36127 0
M  V30 22712 H 2166.56 4.18993 4.29191 0
M  V30 22713 H 2168.24 4.78042 4.35987 0
M  V30 22714 N 2168.37 -1.02294 1.19891 0
M  V30 22715 C 2169.6 -1.79941 1.03131 0
M  V30 22716 C 2170.02 -1.8346 -0.415201 0
M  V30 22717 O 2169.38 -1.26499 -1.29876 0
M  V30 22718 C 2169.43 -3.22565 1.61196 0
M  V30 22719 O 2168.53 -4.03644 0.845295 0
M  V30 22720 H 2167.87 -0.555254 0.364128 0
M  V30 22721 H 2170.4 -1.28709 1.59045 0
M  V30 22722 H 2170.41 -3.73296 1.64663 0
M  V30 22723 H 2169.09 -3.19318 2.66474 0
M  V30 22724 H 2167.67 -3.62262 0.884338 0
M  V30 22725 N 2169.85 -1.00378 -1.21499 0
M  V30 22726 C 2171.08 -0.704573 -1.94534 0
M  V30 22727 C 2171.49 0.732632 -1.74006 0
M  V30 22728 O 2170.85 1.49556 -1.04591 0
M  V30 22729 C 2170.9 -1.01461 -3.4697 0
M  V30 22730 O 2170.62 -2.39535 -3.66817 0
M  V30 22731 C 2172.12 -0.734641 -4.3717 0
M  V30 22732 H 2169.34 -0.259747 -0.618686 0
M  V30 22733 H 2171.89 -1.34149 -1.54351 0
M  V30 22734 H 2170.04 -0.423313 -3.8508 0
M  V30 22735 H 2170.46 -2.50302 -4.60922 0
M  V30 22736 H 2171.93 -1.00176 -5.42834 0
M  V30 22737 H 2172.41 0.331329 -4.37948 0
M  V30 22738 H 2173.01 -1.30749 -4.04703 0
M  V30 22739 N 2171.33 1.37038 -0.778354 0
M  V30 22740 C 2172.28 2.30193 -0.167288 0
M  V30 22741 C 2173.25 1.51429 0.682526 0
M  V30 22742 O 2174.43 1.79976 0.633513 0
M  V30 22743 C 2171.57 3.37912 0.700668 0
M  V30 22744 C 2170.68 4.31679 -0.166475 0
M  V30 22745 C 2169.82 5.26477 0.706809 0
M  V30 22746 C 2168.86 6.11884 -0.162465 0
M  V30 22747 N 2167.99 6.98904 0.66917 0
M  V30 22748 H 2172.83 2.81868 -0.967185 0
M  V30 22749 H 2170.37 1.3875 -0.488542 0
M  V30 22750 H 2172.33 3.99001 1.21877 0
M  V30 22751 H 2170.96 2.87585 1.4661 0
M  V30 22752 H 2170.01 3.7184 -0.802449 0
M  V30 22753 H 2171.32 4.91732 -0.836729 0
M  V30 22754 H 2170.48 5.92802 1.29115 0
M  V30 22755 H 2169.22 4.66851 1.41073 0
M  V30 22756 H 2168.22 5.44532 -0.759288 0
M  V30 22757 H 2169.45 6.73584 -0.863814 0
M  V30 22758 H 2167.39 6.41799 1.35758 0
M  V30 22759 H 2167.31 7.55979 0.0563568 0
M  V30 22760 H 2168.58 7.69611 1.23769 0
M  V30 22761 N 2172.81 0.529439 1.48441 0
M  V30 22762 C 2173.77 -0.222884 2.28114 0
M  V30 22763 C 2174.77 -0.868268 1.35343 0
M  V30 22764 O 2175.96 -0.728402 1.5824 0
M  V30 22765 C 2173.09 -1.3225 3.14202 0
M  V30 22766 H 2174.29 0.476616 2.96088 0
M  V30 22767 H 2171.84 0.28536 1.53673 0
M  V30 22768 H 2172.57 -2.05527 2.50857 0
M  V30 22769 H 2172.36 -0.864853 3.82443 0
M  V30 22770 H 2173.85 -1.85168 3.74303 0
M  V30 22771 N 2174.29 -1.55364 0.264547 0
M  V30 22772 C 2175.22 -2.19475 -0.660544 0
M  V30 22773 C 2176.23 -1.17628 -1.1255 0
M  V30 22774 O 2177.42 -1.44407 -1.04923 0
M  V30 22775 C 2174.52 -2.79832 -1.91173 0
M  V30 22776 C 2173.69 -4.07269 -1.59533 0
M  V30 22777 C 2172.75 -4.51774 -2.6979 0
M  V30 22778 O 2171.78 -5.17776 -2.36425 0
M  V30 22779 N 2172.98 -4.2103 -3.99642 0
M  V30 22780 H 2175.74 -2.99491 -0.111888 0
M  V30 22781 H 2173.31 -1.61676 0.0852139 0
M  V30 22782 H 2175.3 -3.06555 -2.64209 0
M  V30 22783 H 2173.87 -2.03871 -2.36971 0
M  V30 22784 H 2173.09 -3.87948 -0.699303 0
M  V30 22785 H 2174.38 -4.9032 -1.35881 0
M  V30 22786 H 2173.77 -3.68079 -4.29575 0
M  V30 22787 H 2172.33 -4.52548 -4.69088 0
M  V30 22788 N 2175.76 0.00833021 -1.57598 0
M  V30 22789 C 2177 0.699511 -1.92058 0
M  V30 22790 C 2177.37 1.71397 -0.865278 0
M  V30 22791 O 2178.57 2.45492 -1.09486 0
M  V30 22792 C 2176.84 1.33325 -3.31601 0
M  V30 22793 S 2178.4 2.05071 -3.87932 0
M  V30 22794 H 2175.22 0.231259 -0.672339 0
M  V30 22795 H 2177.82 -0.0463571 -1.95445 0
M  V30 22796 H 2176.52 0.581972 -4.06253 0
M  V30 22797 H 2176.05 2.11723 -3.31567 0
M  V30 22798 H 2178.07 3.32482 -3.68334 0
M  V30 22799 N 2177.24 1.55075 0.280956 0
M  V30 22800 C 2178.66 1.46737 0.627723 0
M  V30 22801 C 2178.86 0.674952 1.8986 0
M  V30 22802 O 2177.91 0.190625 2.51779 0
M  V30 22803 C 2179.23 2.90883 0.762079 0
M  V30 22804 C 2180.77 3.01049 0.856656 0
M  V30 22805 C 2181.25 4.46432 1.02285 0
M  V30 22806 N 2182.74 4.50227 1.08857 0
M  V30 22807 C 2183.48 5.59924 1.23582 0
M  V30 22808 N 2182.97 6.79504 1.35077 0
M  V30 22809 N 2184.76 5.47651 1.26629 0
M  V30 22810 H 2176.92 2.05054 -0.553775 0
M  V30 22811 H 2179.18 0.929521 -0.186267 0
M  V30 22812 H 2178.88 3.51554 -0.101172 0
M  V30 22813 H 2178.76 3.39447 1.64486 0
M  V30 22814 H 2181.15 2.40479 1.71038 0
M  V30 22815 H 2181.23 2.5575 -0.05057 0
M  V30 22816 H 2180.87 5.07602 0.173817 0
M  V30 22817 H 2180.8 4.8938 1.94461 0
M  V30 22818 H 2183.29 3.64085 1.01245 0
M  V30 22819 H 2183.6 7.58859 1.46124 0
M  V30 22820 H 2181.95 6.82331 1.32096 0
M  V30 22821 H 2185.14 4.53172 1.17274 0
M  V30 22822 H 2185.31 6.33187 1.37761 0
M  V30 22823 N 2178.72 -0.545102 1.47873 0
M  V30 22824 C 2179.68 -1.63324 1.60804 0
M  V30 22825 C 2180.68 -1.53397 0.482294 0
M  V30 22826 O 2181.87 -1.57338 0.747692 0
M  V30 22827 C 2179 -3.02906 1.56399 0
M  V30 22828 H 2180.2 -1.53204 2.57815 0
M  V30 22829 H 2177.75 -0.765983 1.36244 0
M  V30 22830 H 2178.49 -3.18548 0.608084 0
M  V30 22831 H 2178.27 -3.11521 2.38112 0
M  V30 22832 H 2179.76 -3.82048 1.6861 0
M  V30 22833 N 2180.2 -1.36208 -0.792797 0
M  V30 22834 C 2181.16 -1.30111 -1.88689 0
M  V30 22835 C 2182.16 -0.209535 -1.59429 0
M  V30 22836 O 2183.35 -0.464108 -1.67904 0
M  V30 22837 C 2180.48 -1.01615 -3.25403 0
M  V30 22838 H 2181.68 -2.2741 -1.95511 0
M  V30 22839 H 2179.23 -1.20931 -0.990219 0
M  V30 22840 H 2179.96 -0.0476043 -3.24265 0
M  V30 22841 H 2179.75 -1.80604 -3.48029 0
M  V30 22842 H 2181.24 -0.999458 -4.05463 0
M  V30 22843 N 2181.68 1.01656 -1.20431 0
M  V30 22844 C 2182.63 2.08579 -0.920808 0
M  V30 22845 C 2183.61 1.60457 0.119381 0
M  V30 22846 O 2184.8 1.76781 -0.0879963 0
M  V30 22847 C 2181.93 3.40001 -0.474754 0
M  V30 22848 C 2181.02 3.94824 -1.54837 0
M  V30 22849 N 2181.41 4.23156 -2.77079 0
M  V30 22850 C 2179.71 4.22974 -1.41454 0
M  V30 22851 C 2180.41 4.67364 -3.46331 0
M  V30 22852 N 2179.38 4.69643 -2.73745 0
M  V30 22853 H 2183.18 2.28393 -1.8497 0
M  V30 22854 H 2180.7 1.19627 -1.09832 0
M  V30 22855 H 2182.7 4.16131 -0.253053 0
M  V30 22856 H 2181.36 3.21601 0.447514 0
M  V30 22857 H 2182.37 4.12061 -3.13729 0
M  V30 22858 H 2179.04 4.13772 -0.556685 0
M  V30 22859 H 2180.43 4.98104 -4.50934 0
M  V30 22860 N 2183.15 1.01021 1.20965 0
M  V30 22861 C 2184.38 0.713843 1.93876 0
M  V30 22862 C 2184.79 -0.72842 1.74616 0
M  V30 22863 O 2184.13 -1.50507 1.05324 0
M  V30 22864 C 2184.2 0.961644 3.464 0
M  V30 22865 C 2183.86 2.39177 3.89414 0
M  V30 22866 C 2184.86 3.37226 3.95695 0
M  V30 22867 C 2182.54 2.73081 4.21583 0
M  V30 22868 C 2184.54 4.67245 4.33545 0
M  V30 22869 C 2182.22 4.03314 4.59109 0
M  V30 22870 C 2183.22 5.00207 4.65061 0
M  V30 22871 O 2182.91 6.2811 5.0173 0
M  V30 22872 H 2182.64 0.261872 0.623217 0
M  V30 22873 H 2185.2 1.35251 1.54584 0
M  V30 22874 H 2183.43 0.26581 3.85785 0
M  V30 22875 H 2185.11 0.657859 4.00533 0
M  V30 22876 H 2185.88 3.12369 3.71013 0
M  V30 22877 H 2181.76 1.98355 4.16145 0
M  V30 22878 H 2185.3 5.42871 4.38106 0
M  V30 22879 H 2181.2 4.27954 4.83245 0
M  V30 22880 H 2181.97 6.32304 5.19745 0
M  V30 22881 N 2184.63 -1.36623 0.78561 0
M  V30 22882 C 2186.05 -1.5262 0.466843 0
M  V30 22883 C 2186.25 -1.74044 -1.01543 0
M  V30 22884 O 2185.3 -1.76975 -1.801 0
M  V30 22885 C 2186.62 -2.71435 1.29398 0
M  V30 22886 C 2188.16 -2.85304 1.28728 0
M  V30 22887 C 2188.64 -4.07118 2.09807 0
M  V30 22888 N 2190.13 -4.14257 2.07233 0
M  V30 22889 C 2190.87 -5.0758 2.6674 0
M  V30 22890 N 2190.36 -6.06372 3.3509 0
M  V30 22891 N 2192.15 -5.00167 2.56494 0
M  V30 22892 H 2184.31 -1.20971 1.74585 0
M  V30 22893 H 2186.57 -0.590141 0.741915 0
M  V30 22894 H 2186.27 -2.62113 2.34498 0
M  V30 22895 H 2186.15 -3.65488 0.932654 0
M  V30 22896 H 2188.54 -2.94088 0.244207 0
M  V30 22897 H 2188.62 -1.92169 1.68834 0
M  V30 22898 H 2188.26 -3.99095 3.14143 0
M  V30 22899 H 2188.19 -4.99393 1.67074 0
M  V30 22900 H 2190.68 -3.43522 1.57483 0
M  V30 22901 H 2190.99 -6.74137 3.77836 0
M  V30 22902 H 2189.34 -6.06609 3.39191 0
M  V30 22903 H 2192.53 -4.21936 2.027 0
M  V30 22904 H 2192.7 -5.7271 3.03162 0
M  V30 22905 N 2186.11 -0.537304 -1.48158 0
M  V30 22906 C 2187.36 -0.0140445 -2.03395 0
M  V30 22907 C 2187.71 1.31301 -1.40633 0
M  V30 22908 O 2187 1.83671 -0.5455 0
M  V30 22909 C 2187.2 0.157545 -3.57053 0
M  V30 22910 C 2187.03 -1.15133 -4.34712 0
M  V30 22911 C 2185.8 -1.71321 -4.75371 0
M  V30 22912 C 2187.99 -2.06374 -4.71078 0
M  V30 22913 N 2185.98 -2.96421 -5.37595 0
M  V30 22914 C 2187.35 -3.16051 -5.33397 0
M  V30 22915 C 2189.4 -2.06611 -4.53008 0
M  V30 22916 C 2188.11 -4.26038 -5.79555 0
M  V30 22917 C 2190.13 -3.15598 -5.00152 0
M  V30 22918 C 2189.49 -4.23993 -5.62502 0
M  V30 22919 H 2185.59 -0.0468176 -0.780597 0
M  V30 22920 H 2188.18 -0.720202 -1.8089 0
M  V30 22921 H 2186.35 0.832796 -3.79367 0
M  V30 22922 H 2188.08 0.681071 -3.98928 0
M  V30 22923 H 2184.83 -1.25367 -4.56706 0
M  V30 22924 H 2185.26 -3.60132 -5.73266 0
M  V30 22925 H 2189.9 -1.24099 -4.04177 0
M  V30 22926 H 2187.62 -5.09324 -6.27387 0
M  V30 22927 H 2191.2 -3.16845 -4.87956 0
M  V30 22928 H 2190.08 -5.06936 -5.98319 0
M  V30 22929 N 2187.59 1.55221 -0.272782 0
M  V30 22930 C 2188.83 1.99841 0.345178 0
M  V30 22931 C 2189.17 1.16093 1.55679 0
M  V30 22932 O 2188.44 0.230441 1.9313 0
M  V30 22933 C 2188.73 3.5263 0.729656 0
M  V30 22934 C 2188.58 4.47133 -0.489138 0
M  V30 22935 C 2189.9 4.11259 1.56698 0
M  V30 22936 H 2187.02 0.726495 0.123989 0
M  V30 22937 H 2189.66 1.86176 -0.379262 0
M  V30 22938 H 2187.81 3.64405 1.34689 0
M  V30 22939 H 2189.48 4.47304 -1.12769 0
M  V30 22940 H 2187.72 4.18888 -1.12762 0
M  V30 22941 H 2188.39 5.51718 -0.176396 0
M  V30 22942 H 2190.87 4.02745 1.04572 0
M  V30 22943 H 2189.75 5.1838 1.80481 0
M  V30 22944 H 2190.01 3.61341 2.54726 0
M  V30 22945 N 2189.07 2.77022e-05 1.576 0
M  V30 22946 C 2190.48 -0.35605 1.55578 0
M  V30 22947 C 2190.68 -1.74784 1.00264 0
M  V30 22948 O 2189.74 -2.44347 0.636465 0
M  V30 22949 C 2191.05 -0.231258 2.99809 0
M  V30 22950 C 2192.6 -0.306194 3.11499 0
M  V30 22951 C 2193.07 -0.210525 4.57516 0
M  V30 22952 N 2194.57 -0.268424 4.62422 0
M  V30 22953 C 2195.3 -0.217739 5.72986 0
M  V30 22954 N 2194.8 -0.117649 6.927 0
M  V30 22955 N 2196.59 -0.269606 5.61453 0
M  V30 22956 H 2188.74 0.91049 1.91895 0
M  V30 22957 H 2191 0.349005 0.881419 0
M  V30 22958 H 2190.71 0.726333 3.44118 0
M  V30 22959 H 2190.58 -1.01332 3.63334 0
M  V30 22960 H 2192.97 -1.25423 2.6712 0
M  V30 22961 H 2193.05 0.505733 2.50751 0
M  V30 22962 H 2192.7 0.733965 5.02569 0
M  V30 22963 H 2192.63 -1.04094 5.16209 0
M  V30 22964 H 2195.12 -0.347112 3.76302 0
M  V30 22965 H 2195.43 -0.0848705 7.72753 0
M  V30 22966 H 2193.77 -0.0832758 6.9495 0
M  V30 22967 H 2196.97 -0.345996 4.6682 0
M  V30 22968 H 2197.14 -0.22664 6.47604 0
M  V30 22969 N 2190.54 -1.55222 -0.272728 0
M  V30 22970 C 2191.96 -1.47068 -0.619933 0
M  V30 22971 C 2192.16 -0.685012 -1.89499 0
M  V30 22972 O 2191.22 -0.203975 -2.51675 0
M  V30 22973 C 2192.53 -2.91283 -0.746642 0
M  V30 22974 C 2194.08 -3.01499 -0.840678 0
M  V30 22975 C 2194.55 -4.46968 -0.999161 0
M  V30 22976 N 2196.04 -4.50798 -1.06468 0
M  V30 22977 C 2196.78 -5.60572 -1.20611 0
M  V30 22978 N 2196.27 -6.80211 -1.31471 0
M  V30 22979 N 2198.07 -5.48315 -1.23723 0
M  V30 22980 H 2190.22 -2.04757 0.564642 0
M  V30 22981 H 2192.48 -0.92852 0.191194 0
M  V30 22982 H 2192.19 -3.51496 0.119815 0
M  V30 22983 H 2192.06 -3.40314 -1.62684 0
M  V30 22984 H 2194.45 -2.41382 -1.6976 0
M  V30 22985 H 2194.53 -2.5572 0.0641323 0
M  V30 22986 H 2194.17 -5.07688 -0.146895 0
M  V30 22987 H 2194.1 -4.90404 -1.91862 0
M  V30 22988 H 2196.59 -3.64617 -0.993132 0
M  V30 22989 H 2196.91 -7.59624 -1.42098 0
M  V30 22990 H 2195.25 -6.83022 -1.28475 0
M  V30 22991 H 2198.44 -4.53787 -1.14869 0
M  V30 22992 H 2198.62 -6.33909 -1.34401 0
M  V30 22993 N 2192.02 0.537252 -1.4816 0
M  V30 22994 C 2192.97 1.64253 -1.62141 0
M  V30 22995 C 2193.94 1.59496 -0.463696 0
M  V30 22996 O 2195.12 1.78031 -0.686272 0
M  V30 22997 C 2192.26 3.02534 -1.66033 0
M  V30 22998 C 2191.38 3.17579 -2.9286 0
M  V30 22999 C 2190.51 4.46377 -2.8796 0
M  V30 23000 C 2189.55 4.54925 -4.09524 0
M  V30 23001 N 2188.69 5.75102 -4.02743 0
M  V30 23002 H 2193.53 1.51643 -2.56532 0
M  V30 23003 H 2191.07 0.738391 -1.27225 0
M  V30 23004 H 2193.02 3.82635 -1.66272 0
M  V30 23005 H 2191.65 3.13933 -0.751387 0
M  V30 23006 H 2190.71 2.30779 -3.02399 0
M  V30 23007 H 2192.02 3.19757 -3.82827 0
M  V30 23008 H 2191.17 5.3476 -2.8656 0
M  V30 23009 H 2189.91 4.46709 -1.9571 0
M  V30 23010 H 2188.92 3.6495 -4.11208 0
M  V30 23011 H 2190.14 4.56337 -5.02925 0
M  V30 23012 H 2188.09 5.76345 -3.13309 0
M  V30 23013 H 2188 5.78743 -4.86408 0
M  V30 23014 H 2189.27 6.65792 -4.0539 0
M  V30 23015 N 2193.5 1.36626 0.785562 0
M  V30 23016 C 2194.73 1.34038 1.57217 0
M  V30 23017 C 2195.14 -0.079473 1.89033 0
M  V30 23018 O 2194.48 -1.04786 1.50883 0
M  V30 23019 C 2194.54 2.10046 2.91755 0
M  V30 23020 C 2194.21 3.59109 2.82648 0
M  V30 23021 C 2195.2 4.53279 2.54626 0
M  V30 23022 C 2192.89 4.02047 3.01104 0
M  V30 23023 C 2194.88 5.88364 2.45167 0
M  V30 23024 C 2192.57 5.37222 2.91267 0
M  V30 23025 C 2193.57 6.30193 2.63337 0
M  V30 23026 O 2193.26 7.62884 2.53501 0
M  V30 23027 H 2192.99 0.461274 0.494169 0
M  V30 23028 H 2195.54 1.80372 0.982601 0
M  V30 23029 H 2193.77 1.58381 3.52778 0
M  V30 23030 H 2195.46 2.00267 3.53055 0
M  V30 23031 H 2196.23 4.21418 2.40066 0
M  V30 23032 H 2192.11 3.30053 3.21848 0
M  V30 23033 H 2195.65 6.609 2.23287 0
M  V30 23034 H 2191.55 5.68689 3.0539 0
M  V30 23035 H 2192.32 7.7305 2.68953 0
M  V30 23036 N 2194.98 -1.01016 1.20969 0
M  V30 23037 C 2195.93 -2.11808 0.96126 0
M  V30 23038 C 2196.92 -1.69162 -0.0896736 0
M  V30 23039 O 2198.13 -1.79896 0.0612587 0
M  V30 23040 H 2194.5 -0.692333 0.293562 0
M  V30 23041 H 2196.47 -2.29942 1.90182 0
M  V30 23042 C 2195.22 -3.4353 0.536914 0
M  V30 23043 H 2194.54 -3.76775 1.3372 0
M  V30 23044 H 2195.98 -4.22087 0.40236 0
M  V30 23045 C 2194.44 -3.28411 -0.751517 0
M  V30 23046 O 2194.97 -3.58694 -1.80835 0
M  V30 23047 N 2193.18 -2.81641 -0.716029 0
M  V30 23048 H 2192.73 -2.57196 0.144281 0
M  V30 23049 H 2192.68 -2.71906 -1.57843 0
M  V30 23050 N 2196.46 -1.01661 -1.20428 0
M  V30 23051 C 2197.7 -0.70595 -1.89796 0
M  V30 23052 C 2198.03 0.764408 -1.78849 0
M  V30 23053 O 2197.29 1.571 -1.16697 0
M  V30 23054 C 2197.59 -1.0872 -3.40462 0
M  V30 23055 C 2197.25 -2.55377 -3.71609 0
M  V30 23056 C 2195.91 -2.95448 -3.79821 0
M  V30 23057 C 2198.27 -3.50319 -3.85909 0
M  V30 23058 C 2195.59 -4.29402 -3.99789 0
M  V30 23059 C 2197.95 -4.83961 -4.07387 0
M  V30 23060 C 2196.61 -5.23739 -4.13828 0
M  V30 23061 H 2195.88 -0.258325 -0.694513 0
M  V30 23062 H 2198.53 -1.27719 -1.42689 0
M  V30 23063 H 2196.83 -0.434378 -3.89385 0
M  V30 23064 H 2198.53 -0.82453 -3.92432 0
M  V30 23065 H 2195.12 -2.23327 -3.65818 0
M  V30 23066 H 2199.3 -3.2052 -3.7892 0
M  V30 23067 H 2194.56 -4.59775 -4.0301 0
M  V30 23068 H 2198.73 -5.57454 -4.17394 0
M  V30 23069 H 2196.36 -6.27549 -4.29053 0
M  V30 23070 N 2197.93 1.36205 -0.792844 0
M  V30 23071 C 2199.21 1.93428 -0.290661 0
M  V30 23072 C 2199.59 1.72439 1.2177 0
M  V30 23073 O 2198.94 1.08534 2.01078 0
M  V30 23074 C 2199.15 3.42171 -0.687033 0
M  V30 23075 C 2200.5 4.19301 -0.668717 0
M  V30 23076 O 2201.52 3.50625 -0.62772 0
M  V30 23077 O 2200.38 5.41807 -0.714692 0
M  V30 23078 H 2197.47 0.823789 -0.0728072 0
M  V30 23079 H 2200.02 1.45365 -0.875619 0
M  V30 23080 H 2198.79 3.51119 -1.72718 0
M  V30 23081 H 2198.42 3.97527 -0.0761432 0
M  V30 23082 N 2199.41 0.545154 1.47871 0
M  V30 23083 C 2200.36 -0.222471 2.31534 0
M  V30 23084 C 2201.35 -0.92096 1.42178 0
M  V30 23085 O 2202.56 -0.843617 1.59007 0
M  V30 23086 H 2198.94 -0.0906147 0.746521 0
M  V30 23087 H 2200.91 0.502511 2.94138 0
M  V30 23088 C 2199.66 -1.24693 3.24572 0
M  V30 23089 H 2198.98 -0.718875 3.93284 0
M  V30 23090 H 2200.42 -1.75516 3.85967 0
M  V30 23091 C 2198.88 -2.28852 2.47241 0
M  V30 23092 O 2199.41 -3.35565 2.20814 0
M  V30 23093 N 2197.61 -2.02462 2.08465 0
M  V30 23094 H 2197.16 -1.15696 2.30157 0
M  V30 23095 H 2197.12 -2.72372 1.57038 0
M  V30 23096 N 2200.89 -1.55074 0.28101 0
M  V30 23097 C 2201.82 -2.25728 -0.597429 0
M  V30 23098 C 2202.8 -1.24954 -1.15415 0
M  V30 23099 O 2203.99 -1.53686 -1.1872 0
M  V30 23100 C 2201.12 -2.98286 -1.77884 0
M  V30 23101 C 2200.07 -4.06038 -1.35339 0
M  V30 23102 C 2199.4 -4.66203 -2.61838 0
M  V30 23103 C 2200.7 -5.19908 -0.499263 0
M  V30 23104 H 2202.39 -2.99399 -0.00819002 0
M  V30 23105 H 2199.94 -1.44 -0.00249909 0
M  V30 23106 H 2201.89 -3.46426 -2.39931 0
M  V30 23107 H 2200.61 -2.22159 -2.39401 0
M  V30 23108 H 2199.27 -3.58718 -0.756093 0
M  V30 23109 H 2198.92 -3.86738 -3.21625 0
M  V30 23110 H 2198.62 -5.38962 -2.3408 0
M  V30 23111 H 2200.14 -5.17095 -3.24723 0
M  V30 23112 H 2201.56 -5.64065 -1.02488 0
M  V30 23113 H 2199.96 -5.99266 -0.316319 0
M  V30 23114 H 2201.03 -4.82513 0.480544 0
M  V30 23115 N 2202.37 -0.00838561 -1.57598 0
M  V30 23116 C 2203.62 0.673366 -1.90552 0
M  V30 23117 C 2203.94 1.73845 -0.883332 0
M  V30 23118 O 2203.21 1.95744 0.0781097 0
M  V30 23119 H 2201.79 0.251704 -0.703316 0
M  V30 23120 H 2204.45 -0.0512934 -1.94832 0
M  V30 23121 H 2203.55 1.1393 -2.90562 0
M  V30 23122 N 2203.85 1.55365 0.264492 0
M  V30 23123 C 2204.78 1.85251 1.34962 0
M  V30 23124 C 2205.79 0.737551 1.45135 0
M  V30 23125 O 2206.98 1.0155 1.46799 0
M  V30 23126 C 2204.08 2.00802 2.73005 0
M  V30 23127 C 2203.25 3.3153 2.85319 0
M  V30 23128 C 2202.31 3.37041 4.04091 0
M  V30 23129 O 2201.34 4.10365 3.94448 0
M  V30 23130 N 2202.54 2.65058 5.16454 0
M  V30 23131 H 2205.31 2.78915 1.09667 0
M  V30 23132 H 2202.87 1.55386 0.454608 0
M  V30 23133 H 2204.86 2.0185 3.50769 0
M  V30 23134 H 2203.43 1.13965 2.91085 0
M  V30 23135 H 2202.65 3.42948 1.94371 0
M  V30 23136 H 2203.94 4.17729 2.90483 0
M  V30 23137 H 2203.34 2.05185 5.27177 0
M  V30 23138 H 2201.89 2.71819 5.92417 0
M  V30 23139 N 2205.33 -0.529387 1.48443 0
M  V30 23140 C 2206.29 -1.61609 1.62527 0
M  V30 23141 C 2207.29 -1.52877 0.498536 0
M  V30 23142 O 2208.48 -1.56536 0.764338 0
M  V30 23143 C 2205.61 -3.01231 1.59603 0
M  V30 23144 H 2206.8 -1.50461 2.59425 0
M  V30 23145 H 2204.36 -0.75149 1.37049 0
M  V30 23146 H 2205.09 -3.17885 0.641837 0
M  V30 23147 H 2204.88 -3.08978 2.41402 0
M  V30 23148 H 2206.37 -3.80238 1.72653 0
M  V30 23149 N 2206.8 -1.37041 -0.778305 0
M  V30 23150 C 2207.73 -1.34965 -1.90543 0
M  V30 23151 C 2208.71 -0.219304 -1.6868 0
M  V30 23152 O 2209.9 -0.418657 -1.89634 0
M  V30 23153 C 2207.03 -1.14931 -3.27732 0
M  V30 23154 C 2205.98 -2.24908 -3.64143 0
M  V30 23155 C 2205.31 -1.90004 -4.99802 0
M  V30 23156 C 2206.61 -3.67058 -3.71572 0
M  V30 23157 H 2208.3 -2.29281 -1.92537 0
M  V30 23158 H 2205.85 -1.10368 -0.924928 0
M  V30 23159 H 2207.8 -1.12111 -4.06213 0
M  V30 23160 H 2206.53 -0.170689 -3.26154 0
M  V30 23161 H 2205.19 -2.26873 -2.87966 0
M  V30 23162 H 2204.83 -0.906883 -4.94757 0
M  V30 23163 H 2204.53 -2.63644 -5.25134 0
M  V30 23164 H 2206.06 -1.88759 -5.80691 0
M  V30 23165 H 2207.47 -3.67259 -4.4022 0
M  V30 23166 H 2205.87 -4.39695 -4.08397 0
M  V30 23167 H 2206.94 -4.01158 -2.72397 0
M  V30 23168 N 2208.28 1.00373 -1.21503 0
M  V30 23169 C 2209.21 2.0889 -0.918706 0
M  V30 23170 C 2210.19 1.62045 0.134248 0
M  V30 23171 O 2211.38 1.88499 0.00500942 0
M  V30 23172 C 2208.5 3.36565 -0.379704 0
M  V30 23173 C 2207.55 4.0232 -1.41566 0
M  V30 23174 S 2208.38 4.44568 -2.98528 0
M  V30 23175 C 2209.54 5.75428 -2.46238 0
M  V30 23176 H 2209.77 2.33704 -1.83766 0
M  V30 23177 H 2207.3 1.13671 -1.04491 0
M  V30 23178 H 2209.26 4.10431 -0.0752917 0
M  V30 23179 H 2207.92 3.098 0.517954 0
M  V30 23180 H 2207.12 4.94218 -0.988163 0
M  V30 23181 H 2206.72 3.34734 -1.66821 0
M  V30 23182 H 2209.01 6.51238 -1.86803 0
M  V30 23183 H 2209.95 6.22991 -3.36583 0
M  V30 23184 H 2210.36 5.32309 -1.87904 0
M  V30 23185 N 2209.76 1.02298 1.19887 0
M  V30 23186 C 2210.98 0.735271 1.93929 0
M  V30 23187 C 2211.41 -0.698751 1.7464 0
M  V30 23188 O 2210.77 -1.48165 1.04483 0
M  V30 23189 C 2210.82 1.08423 3.43914 0
M  V30 23190 O 2209.92 0.199519 4.11917 0
M  V30 23191 H 2209.26 0.272207 0.60564 0
M  V30 23192 H 2211.79 1.36807 1.52135 0
M  V30 23193 H 2211.8 1.03863 3.94559 0
M  V30 23194 H 2210.48 2.12901 3.57276 0
M  V30 23195 H 2209.05 0.303201 3.71665 0
M  V30 23196 N 2211.24 -1.35782 0.800057 0
M  V30 23197 C 2212.17 -2.32459 0.220225 0
M  V30 23198 C 2213.15 -1.57162 -0.650702 0
M  V30 23199 O 2214.33 -1.85264 -0.582326 0
M  V30 23200 C 2211.46 -3.41403 -0.637293 0
M  V30 23201 C 2210.42 -4.27788 0.134606 0
M  V30 23202 C 2209.74 -5.27994 -0.844192 0
M  V30 23203 C 2211.04 -5.05086 1.32988 0
M  V30 23204 H 2212.74 -2.81201 1.02792 0
M  V30 23205 H 2210.28 -1.35198 0.495741 0
M  V30 23206 H 2212.24 -4.08033 -1.05295 0
M  V30 23207 H 2210.96 -2.91253 -1.4778 0
M  V30 23208 H 2209.62 -3.62729 0.53136 0
M  V30 23209 H 2209.27 -4.74114 -1.68002 0
M  V30 23210 H 2208.97 -5.86661 -0.332081 0
M  V30 23211 H 2210.49 -5.97496 -1.25819 0
M  V30 23212 H 2211.91 -5.64697 0.989439 0
M  V30 23213 H 2210.3 -5.73217 1.77603 0
M  V30 23214 H 2211.37 -4.36108 2.11986 0
M  V30 23215 N 2212.72 -0.552988 -1.4758 0
M  V30 23216 C 2213.96 -0.0273599 -2.02482 0
M  V30 23217 C 2214.29 1.32078 -1.42778 0
M  V30 23218 O 2213.55 1.87172 -0.571426 0
M  V30 23219 C 2213.84 0.119666 -3.572 0
M  V30 23220 C 2213.51 -1.15705 -4.35802 0
M  V30 23221 C 2212.17 -1.50689 -4.56997 0
M  V30 23222 C 2214.52 -2.00327 -4.81164 0
M  V30 23223 C 2211.85 -2.70151 -5.20803 0
M  V30 23224 C 2214.2 -3.18988 -5.46287 0
M  V30 23225 C 2212.87 -3.5429 -5.65716 0
M  V30 23226 H 2212.14 -0.0100117 -0.740932 0
M  V30 23227 H 2214.79 -0.723651 -1.77301 0
M  V30 23228 H 2213.09 0.898893 -3.81349 0
M  V30 23229 H 2214.79 0.541648 -3.97325 0
M  V30 23230 H 2211.38 -0.874635 -4.19581 0
M  V30 23231 H 2215.56 -1.74607 -4.64571 0
M  V30 23232 H 2210.82 -2.97677 -5.3404 0
M  V30 23233 H 2214.99 -3.84849 -5.804 0
M  V30 23234 H 2212.62 -4.46953 -6.14929 0
M  V30 23235 N 2214.19 1.54923 -0.28923 0
M  V30 23236 C 2215.44 2.00196 0.323963 0
M  V30 23237 C 2215.77 1.17738 1.54439 0
M  V30 23238 O 2215.05 0.250912 1.92875 0
M  V30 23239 C 2215.33 3.53384 0.692214 0
M  V30 23240 C 2215.18 4.46589 -0.536535 0
M  V30 23241 C 2216.5 4.12898 1.52327 0
M  V30 23242 H 2213.62 0.72777 0.116277 0
M  V30 23243 H 2216.26 1.85764 -0.398987 0
M  V30 23244 H 2214.41 3.65813 1.30816 0
M  V30 23245 H 2216.09 4.46083 -1.17507 0
M  V30 23246 H 2214.33 4.17668 -1.17199 0
M  V30 23247 H 2215 5.515 -0.234903 0
M  V30 23248 H 2217.48 4.03832 1.00295 0
M  V30 23249 H 2216.35 5.20265 1.74973 0
M  V30 23250 H 2216.61 3.64022 2.50879 0
M  V30 23251 N 2215.67 0.0167433 1.57591 0
M  V30 23252 C 2216.6 -0.96782 2.12498 0
M  V30 23253 C 2217.58 -1.3475 1.03809 0
M  V30 23254 O 2218.77 -1.4283 1.31579 0
M  V30 23255 C 2215.9 -2.25426 2.64198 0
M  V30 23256 C 2214.85 -2.0157 3.77563 0
M  V30 23257 C 2214.18 -3.36372 4.15642 0
M  V30 23258 C 2215.48 -1.36481 5.04153 0
M  V30 23259 H 2217.17 -0.510591 2.95014 0
M  V30 23260 H 2214.72 -0.244156 1.41915 0
M  V30 23261 H 2216.67 -2.94672 3.01241 0
M  V30 23262 H 2215.39 -2.73292 1.78826 0
M  V30 23263 H 2214.05 -1.34745 3.40939 0
M  V30 23264 H 2213.7 -3.81973 3.27269 0
M  V30 23265 H 2213.4 -3.2122 4.92028 0
M  V30 23266 H 2214.93 -4.06907 4.55258 0
M  V30 23267 H 2216.34 -1.95708 5.38861 0
M  V30 23268 H 2214.74 -1.31765 5.85455 0
M  V30 23269 H 2215.81 -0.336134 4.83734 0
M  V30 23270 N 2217.15 -1.55503 -0.256249 0
M  V30 23271 C 2218.38 -1.81278 -1.00762 0
M  V30 23272 C 2218.8 -0.592551 -1.78523 0
M  V30 23273 O 2218.16 0.458239 -1.75413 0
M  V30 23274 C 2218.21 -3.0469 -1.92864 0
M  V30 23275 O 2217.31 -2.8095 -3.01896 0
M  V30 23276 H 2216.65 -0.598669 -0.287213 0
M  V30 23277 H 2219.18 -2.02674 -0.280074 0
M  V30 23278 H 2219.19 -3.33873 -2.34505 0
M  V30 23279 H 2217.87 -3.93145 -1.35682 0
M  V30 23280 H 2216.44 -2.62909 -2.64449 0
M  V30 23281 N 2218.63 0.521507 -1.48721 0
M  V30 23282 C 2219.85 1.30615 -1.61104 0
M  V30 23283 C 2220.28 1.86084 -0.274643 0
M  V30 23284 O 2219.64 1.64836 0.754908 0
M  V30 23285 C 2219.68 2.42685 -2.66714 0
M  V30 23286 O 2218.79 3.45963 -2.24462 0
M  V30 23287 H 2218.13 0.38649 -0.539927 0
M  V30 23288 H 2220.66 0.626611 -1.94768 0
M  V30 23289 H 2220.67 2.88749 -2.8825 0
M  V30 23290 H 2219.34 2.01675 -3.63731 0
M  V30 23291 H 2217.92 3.0596 -2.13174 0
M  V30 23292 N 2220.11 1.37452 0.771027 0
M  V30 23293 C 2221.05 1.33273 1.88433 0
M  V30 23294 C 2222.02 0.198165 1.64914 0
M  V30 23295 O 2223.21 0.387639 1.86821 0
M  V30 23296 C 2220.35 1.14627 3.25507 0
M  V30 23297 C 2219.46 2.3732 3.60975 0
M  V30 23298 C 2218.6 2.11541 4.87261 0
M  V30 23299 C 2217.64 3.30097 5.15463 0
M  V30 23300 N 2216.77 3.03864 6.32938 0
M  V30 23301 H 2221.61 2.28458 1.9134 0
M  V30 23302 H 2219.15 1.13525 0.935446 0
M  V30 23303 H 2221.11 1.01838 4.0458 0
M  V30 23304 H 2219.74 0.230893 3.21973 0
M  V30 23305 H 2218.79 2.60847 2.76881 0
M  V30 23306 H 2220.1 3.25736 3.77754 0
M  V30 23307 H 2219.26 1.95787 5.74241 0
M  V30 23308 H 2217.99 1.20465 4.72588 0
M  V30 23309 H 2217 3.46389 4.26959 0
M  V30 23310 H 2218.22 4.22025 5.32045 0
M  V30 23311 H 2216.17 2.15418 6.19622 0
M  V30 23312 H 2216.09 3.85823 6.50136 0
M  V30 23313 H 2217.36 2.91729 7.22852 0
M  V30 23314 N 2221.58 -0.997276 1.22033 0
M  V30 23315 C 2222.86 -1.70933 0.950853 0
M  V30 23316 C 2223.24 -2.04201 -0.535256 0
M  V30 23317 O 2222.59 -1.72186 -1.50214 0
M  V30 23318 C 2222.8 -2.96312 1.84391 0
M  V30 23319 C 2224.15 -3.69182 2.09738 0
M  V30 23320 O 2225.17 -3.0631 1.81803 0
M  V30 23321 O 2224.03 -4.82286 2.57026 0
M  V30 23322 H 2221.12 -0.745872 0.357217 0
M  V30 23323 H 2223.67 -1.05401 1.32999 0
M  V30 23324 H 2222.44 -2.68196 2.84932 0
M  V30 23325 H 2222.07 -3.69583 1.46608 0
M  V30 23326 N 2223.06 -1.02932 -1.19343 0
M  V30 23327 C 2224.31 -0.724607 -1.88663 0
M  V30 23328 C 2224.63 0.749112 -1.80037 0
M  V30 23329 O 2223.9 1.53976 -1.21113 0
M  V30 23330 H 2222.48 -0.265037 -0.698401 0
M  V30 23331 H 2225.14 -1.30365 -1.44883 0
M  V30 23332 H 2224.24 -1.01931 -2.94985 0
M  V30 23333 N 2224.54 1.35356 -0.807246 0
M  V30 23334 C 2225.79 1.99475 -0.397629 0
M  V30 23335 C 2226.14 1.62885 1.02403 0
M  V30 23336 O 2225.43 0.882312 1.70076 0
M  V30 23337 C 2225.63 3.5361 -0.519098 0
M  V30 23338 C 2225.46 4.05174 -1.95101 0
M  V30 23339 C 2224.23 4.34498 -2.57952 0
M  V30 23340 C 2226.43 4.23667 -2.91565 0
M  V30 23341 N 2224.41 4.71996 -3.92547 0
M  V30 23342 C 2225.78 4.64169 -4.11032 0
M  V30 23343 C 2227.83 4.05878 -2.88388 0
M  V30 23344 C 2226.54 4.88742 -5.27754 0
M  V30 23345 C 2228.56 4.31607 -4.04313 0
M  V30 23346 C 2227.92 4.72381 -5.22528 0
M  V30 23347 H 2224.02 0.757736 -0.193287 0
M  V30 23348 H 2226.61 1.64048 -1.04863 0
M  V30 23349 H 2224.78 3.88266 0.101911 0
M  V30 23350 H 2226.51 4.04613 -0.0840032 0
M  V30 23351 H 2223.27 4.24841 -2.09302 0
M  V30 23352 H 2223.69 4.95003 -4.61845 0
M  V30 23353 H 2228.33 3.73495 -1.98144 0
M  V30 23354 H 2226.05 5.19997 -6.1857 0
M  V30 23355 H 2229.64 4.19395 -4.03236 0
M  V30 23356 H 2228.52 4.91902 -6.10739 0
M  V30 23357 N 2226.02 0.560807 1.47284 0
M  V30 23358 C 2227.26 0.038154 2.02764 0
M  V30 23359 C 2227.6 -1.30973 1.43386 0
M  V30 23360 O 2226.87 -1.85311 0.590766 0
M  V30 23361 C 2227.16 -0.0510795 3.60064 0
M  V30 23362 C 2227.01 1.32416 4.29868 0
M  V30 23363 C 2228.33 -0.762719 4.3344 0
M  V30 23364 H 2225.45 0.0153393 0.73684 0
M  V30 23365 H 2228.09 0.723789 1.75674 0
M  V30 23366 H 2226.24 -0.634998 3.83275 0
M  V30 23367 H 2227.91 1.95155 4.17986 0
M  V30 23368 H 2226.15 1.89787 3.90081 0
M  V30 23369 H 2226.82 1.2144 5.38476 0
M  V30 23370 H 2229.3 -0.266892 4.15243 0
M  V30 23371 H 2228.18 -0.794125 5.43125 0
M  V30 23372 H 2228.44 -1.81959 4.02919 0
M  V30 23373 N 2227.5 -1.54768 0.297442 0
M  V30 23374 C 2228.44 -2.24834 -0.596011 0
M  V30 23375 C 2229.44 -1.2531 -1.1399 0
M  V30 23376 O 2230.64 -1.43172 -1.09095 0
M  V30 23377 H 2227.02 -0.721849 -0.210802 0
M  V30 23378 H 2228.99 -2.98395 0.0175191 0
M  V30 23379 C 2227.74 -2.99975 -1.75813 0
M  V30 23380 H 2227.06 -3.7636 -1.34883 0
M  V30 23381 H 2228.5 -3.52288 -2.35943 0
M  V30 23382 C 2226.96 -2.06737 -2.6601 0
M  V30 23383 O 2227.49 -1.63308 -3.67006 0
M  V30 23384 N 2225.7 -1.72767 -2.33666 0
M  V30 23385 H 2225.24 -2.0828 -1.51582 0
M  V30 23386 H 2225.2 -1.10657 -2.94283 0
M  V30 23387 N 2228.97 -0.0251005 -1.5758 0
M  V30 23388 C 2230.22 0.653733 -1.90812 0
M  V30 23389 C 2230.54 1.73521 -0.902761 0
M  V30 23390 O 2231.74 2.47041 -1.12618 0
M  V30 23391 C 2230.2 1.21403 -3.38806 0
M  V30 23392 C 2229.81 0.166047 -4.47692 0
M  V30 23393 C 2231.55 1.86961 -3.81111 0
M  V30 23394 C 2229.46 0.737752 -5.8678 0
M  V30 23395 H 2228.39 0.247944 -0.712067 0
M  V30 23396 H 2231.04 -0.0897459 -1.8328 0
M  V30 23397 H 2229.42 2.00899 -3.41256 0
M  V30 23398 H 2230.59 -0.606159 -4.56796 0
M  V30 23399 H 2228.91 -0.390539 -4.14565 0
M  V30 23400 H 2231.51 2.30683 -4.82379 0
M  V30 23401 H 2231.85 2.71066 -3.15958 0
M  V30 23402 H 2232.38 1.14161 -3.81067 0
M  V30 23403 H 2229.12 -0.0650729 -6.55468 0
M  V30 23404 H 2228.64 1.47854 -5.81291 0
M  V30 23405 H 2230.32 1.22873 -6.35225 0
M  V30 23406 N 2230.45 1.55637 0.247999 0
M  V30 23407 C 2231.39 1.85193 1.33337 0
M  V30 23408 C 2232.36 0.706932 1.46428 0
M  V30 23409 O 2233.55 0.952573 1.6266 0
M  V30 23410 C 2230.67 2.03566 2.707 0
M  V30 23411 C 2229.72 3.26201 2.74764 0
M  V30 23412 S 2230.55 4.82882 2.31484 0
M  V30 23413 C 2231.71 5.04259 3.70774 0
M  V30 23414 H 2231.94 2.76964 1.08067 0
M  V30 23415 H 2229.48 1.4773 0.448926 0
M  V30 23416 H 2231.43 2.14836 3.49794 0
M  V30 23417 H 2230.09 1.1264 2.93208 0
M  V30 23418 H 2229.29 3.3602 3.75642 0
M  V30 23419 H 2228.89 3.13651 2.03713 0
M  V30 23420 H 2231.18 4.91535 4.66261 0
M  V30 23421 H 2232.12 6.06243 3.6589 0
M  V30 23422 H 2232.53 4.32111 3.63236 0
M  V30 23423 N 2231.93 -0.513613 1.48996 0
M  V30 23424 C 2233.16 -1.29097 1.61299 0
M  V30 23425 C 2233.57 -1.87136 0.278689 0
M  V30 23426 O 2232.91 -1.67946 -0.744295 0
M  V30 23427 C 2232.97 -2.46874 2.6133 0
M  V30 23428 C 2232.64 -2.098 4.05996 0
M  V30 23429 C 2233.64 -1.6451 4.93186 0
M  V30 23430 C 2231.32 -2.19821 4.51646 0
M  V30 23431 C 2233.31 -1.29729 6.24059 0
M  V30 23432 C 2231 -1.84651 5.82535 0
M  V30 23433 C 2232 -1.39678 6.68565 0
M  V30 23434 O 2231.69 -1.04978 7.97016 0
M  V30 23435 H 2231.42 -0.39824 0.546243 0
M  V30 23436 H 2233.97 -0.624556 1.95674 0
M  V30 23437 H 2232.2 -3.16551 2.2211 0
M  V30 23438 H 2233.89 -3.08918 2.63295 0
M  V30 23439 H 2234.66 -1.56225 4.5915 0
M  V30 23440 H 2230.54 -2.53779 3.8486 0
M  V30 23441 H 2234.08 -0.945537 6.91162 0
M  V30 23442 H 2229.98 -1.92583 6.16102 0
M  V30 23443 H 2230.75 -1.18235 8.09915 0
M  V30 23444 N 2233.41 -1.37859 -0.763727 0
M  V30 23445 C 2234.69 -1.24037 -1.51242 0
M  V30 23446 C 2235.07 0.162612 -2.10473 0
M  V30 23447 O 2234.41 1.17109 -1.96208 0
M  V30 23448 C 2234.62 -2.34266 -2.5869 0
M  V30 23449 C 2235.97 -2.72199 -3.25873 0
M  V30 23450 O 2237 -2.33502 -2.68989 0
M  V30 23451 O 2235.86 -3.38894 -4.28734 0
M  V30 23452 H 2232.95 -0.484474 -0.670234 0
M  V30 23453 H 2235.5 -1.4966 -0.800005 0
M  V30 23454 H 2234.27 -3.28184 -2.13099 0
M  V30 23455 H 2233.89 -2.10152 -3.37523 0
M  V30 23456 N 2234.89 0.990791 -1.22561 0
M  V30 23457 C 2236.14 1.72722 -1.04936 0
M  V30 23458 C 2236.46 1.90508 0.416125 0
M  V30 23459 O 2235.73 1.46624 1.29916 0
M  V30 23460 H 2234.31 0.639959 -0.385308 0
M  V30 23461 H 2236.97 1.19319 -1.54107 0
M  V30 23462 H 2236.06 2.72086 -1.52891 0
M  V30 23463 N 2236.37 1.03564 1.18795 0
M  V30 23464 C 2237.3 0.643058 2.24471 0
M  V30 23465 C 2238.28 -0.351253 1.66434 0
M  V30 23466 O 2239.46 -0.232471 1.92804 0
M  V30 23467 C 2236.59 1.85533e-05 3.473 0
M  V30 23468 C 2235.55 0.91733 4.18054 0
M  V30 23469 C 2234.87 0.139035 5.34519 0
M  V30 23470 C 2236.17 2.23415 4.72105 0
M  V30 23471 H 2237.87 1.52648 2.57564 0
M  V30 23472 H 2235.41 0.735416 1.23805 0
M  V30 23473 H 2237.36 -0.286309 4.20426 0
M  V30 23474 H 2236.09 -0.918243 3.13426 0
M  V30 23475 H 2234.75 1.18796 3.46818 0
M  V30 23476 H 2234.4 -0.781475 4.96892 0
M  V30 23477 H 2234.1 0.750107 5.82793 0
M  V30 23478 H 2235.62 -0.140393 6.10439 0
M  V30 23479 H 2237.03 2.00888 5.36951 0
M  V30 23480 H 2235.43 2.79774 5.30892 0
M  V30 23481 H 2236.5 2.88414 3.89802 0
M  V30 23482 N 2237.84 -1.34926 0.814413 0
M  V30 23483 C 2239.12 -1.92941 0.321397 0
M  V30 23484 C 2239.5 -1.74355 -1.19011 0
M  V30 23485 O 2238.85 -1.1172 -1.99326 0
M  V30 23486 C 2239.06 -3.41034 0.741383 0
M  V30 23487 C 2240.41 -4.18184 0.73534 0
M  V30 23488 O 2241.43 -3.49582 0.683422 0
M  V30 23489 O 2240.29 -5.40601 0.800798 0
M  V30 23490 H 2237.38 -0.822526 0.0859038 0
M  V30 23491 H 2239.93 -1.43954 0.898634 0
M  V30 23492 H 2238.7 -3.48326 1.78282 0
M  V30 23493 H 2238.32 -3.97356 0.139377 0
M  V30 23494 N 2239.32 -0.56861 -1.46985 0
M  V30 23495 C 2240.28 0.162326 -2.28624 0
M  V30 23496 C 2241.28 0.832078 -1.37598 0
M  V30 23497 O 2242.47 0.686192 -1.60116 0
M  V30 23498 C 2239.61 1.23873 -3.17598 0
M  V30 23499 H 2240.8 -0.554951 -2.94721 0
M  V30 23500 H 2238.35 -0.326003 -1.52862 0
M  V30 23501 H 2239.09 1.98804 -2.56218 0
M  V30 23502 H 2238.87 0.763151 -3.84602 0
M  V30 23503 H 2240.36 1.75178 -3.79081 0
M  V30 23504 N 2240.8 1.54608 -0.305646 0
M  V30 23505 C 2242.05 2.00528 0.302711 0
M  V30 23506 C 2242.38 1.19369 1.53182 0
M  V30 23507 O 2241.65 0.271355 1.92598 0
M  V30 23508 C 2241.94 3.54099 0.654694 0
M  V30 23509 C 2241.79 4.45994 -0.583872 0
M  V30 23510 C 2243.11 4.1449 1.47939 0
M  V30 23511 H 2240.23 0.728962 0.108551 0
M  V30 23512 H 2242.87 1.8533 -0.418667 0
M  V30 23513 H 2241.02 3.6718 1.26929 0
M  V30 23514 H 2242.69 4.44811 -1.22231 0
M  V30 23515 H 2240.93 4.16402 -1.21622 0
M  V30 23516 H 2241.61 5.5122 -0.293384 0
M  V30 23517 H 2244.08 4.04873 0.960059 0
M  V30 23518 H 2242.96 5.22091 1.69445 0
M  V30 23519 H 2243.22 3.66662 2.47004 0
M  V30 23520 N 2242.28 0.033457 1.57564 0
M  V30 23521 C 2243.53 -0.642966 1.91599 0
M  V30 23522 C 2243.85 -1.72418 0.910877 0
M  V30 23523 O 2243.12 -1.95844 -0.0469587 0
M  V30 23524 H 2241.7 -0.240483 0.707232 0
M  V30 23525 H 2244.36 0.0822831 1.94726 0
M  V30 23526 H 2243.45 -1.09293 2.92338 0
M  V30 23527 N 2243.76 -1.55766 -0.239741 0
M  V30 23528 C 2245 -1.78196 -0.968202 0
M  V30 23529 C 2245.33 -0.599971 -1.847 0
M  V30 23530 O 2244.61 0.401491 -1.90311 0
M  V30 23531 C 2244.89 -3.10567 -1.82264 0
M  V30 23532 C 2244.75 -4.39182 -0.971555 0
M  V30 23533 C 2246.06 -3.39226 -2.80382 0
M  V30 23534 H 2243.18 -0.648287 -0.350561 0
M  V30 23535 H 2245.83 -1.88501 -0.238226 0
M  V30 23536 H 2243.98 -3.01913 -2.44501 0
M  V30 23537 H 2245.65 -4.59835 -0.367327 0
M  V30 23538 H 2243.89 -4.3292 -0.2762 0
M  V30 23539 H 2244.56 -5.28201 -1.60337 0
M  V30 23540 H 2247.04 -3.47889 -2.28281 0
M  V30 23541 H 2245.91 -4.3305 -3.37282 0
M  V30 23542 H 2246.17 -2.60491 -3.57207 0
M  V30 23543 N 2245.23 0.505704 -1.49266 0
M  V30 23544 C 2246.51 1.26704 -1.49015 0
M  V30 23545 C 2246.89 2.1 -0.215242 0
M  V30 23546 O 2246.24 2.13944 0.802509 0
M  V30 23547 C 2246.45 2.12778 -2.76634 0
M  V30 23548 C 2247.8 2.72122 -3.25937 0
M  V30 23549 O 2248.82 2.23049 -2.77719 0
M  V30 23550 O 2247.68 3.61444 -4.09903 0
M  V30 23551 H 2244.77 0.57312 -0.596207 0
M  V30 23552 H 2247.32 0.520361 -1.61525 0
M  V30 23553 H 2246.09 1.51174 -3.60919 0
M  V30 23554 H 2245.71 2.94648 -2.66961 0
M  V30 23555 N 2246.71 1.38262 0.756405 0
M  V30 23556 C 2247.64 1.3115 1.87969 0
M  V30 23557 C 2248.66 0.224268 1.61248 0
M  V30 23558 O 2249.85 0.481611 1.7188 0
M  V30 23559 C 2246.95 1.00863 3.23543 0
M  V30 23560 C 2246.12 2.20439 3.7779 0
M  V30 23561 C 2245.18 1.8694 4.91874 0
M  V30 23562 O 2244.2 2.59403 5.06654 0
M  V30 23563 N 2245.41 0.822669 5.74641 0
M  V30 23564 H 2248.17 2.27944 1.94581 0
M  V30 23565 H 2245.73 1.32086 0.936211 0
M  V30 23566 H 2247.72 0.765091 3.97402 0
M  V30 23567 H 2246.29 0.128742 3.12335 0
M  V30 23568 H 2245.51 2.60875 2.9553 0
M  V30 23569 H 2246.8 3.00248 4.10766 0
M  V30 23570 H 2246.2 0.221675 5.65266 0
M  V30 23571 H 2244.76 0.639013 6.4866 0
M  V30 23572 N 2248.19 -0.984277 1.23084 0
M  V30 23573 C 2249.12 -2.0783 0.966397 0
M  V30 23574 C 2250.14 -1.62696 -0.0581849 0
M  V30 23575 O 2251.32 -1.77622 0.176875 0
M  V30 23576 C 2248.42 -3.36117 0.433456 0
M  V30 23577 C 2247.6 -4.1024 1.51729 0
M  V30 23578 C 2246.66 -5.16805 0.989912 0
M  V30 23579 O 2245.68 -5.43903 1.67803 0
M  V30 23580 N 2246.88 -5.80207 -0.184265 0
M  V30 23581 H 2249.65 -2.31094 1.90829 0
M  V30 23582 H 2247.21 -1.15068 1.1389 0
M  V30 23583 H 2249.2 -4.04647 0.0657701 0
M  V30 23584 H 2247.77 -3.0985 -0.413752 0
M  V30 23585 H 2246.99 -3.36219 2.05792 0
M  V30 23586 H 2248.28 -4.5653 2.24627 0
M  V30 23587 H 2247.68 -5.60572 -0.759963 0
M  V30 23588 H 2246.24 -6.49931 -0.493252 0
M  V30 23589 N 2249.67 -1.04192 -1.18244 0
M  V30 23590 C 2251.08 -0.773728 -1.69913 0
M  V30 23591 C 2251.43 0.705265 -1.83086 0
M  V30 23592 O 2250.56 1.54887 -1.51125 0
M  V30 23593 C 2251.15 -1.3979 -3.08617 0
M  V30 23594 C 2249.71 -1.17798 -3.57492 0
M  V30 23595 C 2248.86 -1.48777 -2.3401 0
M  V30 23596 H 2251.81 -1.20818 -1.02902 0
M  V30 23597 H 2251.83 -0.801779 -3.71957 0
M  V30 23598 H 2251.34 -2.47432 -2.98997 0
M  V30 23599 H 2249.44 -0.120361 -3.72406 0
M  V30 23600 H 2249.55 -1.87589 -4.40848 0
M  V30 23601 H 2247.92 -0.907505 -2.37984 0
M  V30 23602 H 2248.7 -2.57531 -2.27008 0
M  V30 23603 N 2251.15 1.34492 -0.821557 0
M  V30 23604 C 2252.39 1.98621 -0.409587 0
M  V30 23605 C 2252.73 1.64986 1.02437 0
M  V30 23606 O 2252 0.920788 1.71324 0
M  V30 23607 C 2252.28 3.54887 -0.610521 0
M  V30 23608 C 2252.14 3.98269 -2.0905 0
M  V30 23609 C 2253.46 4.40076 -0.0456153 0
M  V30 23610 H 2250.57 0.721513 -0.150292 0
M  V30 23611 H 2253.22 1.59409 -1.03387 0
M  V30 23612 H 2251.37 3.88419 -0.0791123 0
M  V30 23613 H 2253.04 3.75076 -2.68544 0
M  V30 23614 H 2251.28 3.48631 -2.58146 0
M  V30 23615 H 2251.95 5.07047 -2.18191 0
M  V30 23616 H 2254.43 4.13089 -0.49963 0
M  V30 23617 H 2253.3 5.48475 -0.216018 0
M  V30 23618 H 2253.57 4.29467 1.04932 0
M  V30 23619 N 2252.62 0.576397 1.46681 0
M  V30 23620 C 2253.56 -0.198191 2.28342 0
M  V30 23621 C 2254.57 -0.861429 1.38142 0
M  V30 23622 O 2255.76 -0.732053 1.62798 0
M  V30 23623 C 2252.86 -1.29967 3.12989 0
M  V30 23624 C 2252.03 -0.729563 4.31273 0
M  V30 23625 C 2251.09 -1.71795 4.97366 0
M  V30 23626 O 2250.12 -1.25648 5.55159 0
M  V30 23627 N 2251.32 -3.05189 4.93801 0
M  V30 23628 H 2254.08 0.502376 2.95459 0
M  V30 23629 H 2251.64 0.413743 1.56524 0
M  V30 23630 H 2253.64 -1.96002 3.5407 0
M  V30 23631 H 2252.21 -1.90319 2.47987 0
M  V30 23632 H 2251.43 0.108081 3.94052 0
M  V30 23633 H 2252.71 -0.328348 5.07739 0
M  V30 23634 H 2252.11 -3.45309 4.48083 0
M  V30 23635 H 2250.67 -3.6673 5.38843 0
M  V30 23636 N 2254.1 -1.54444 0.313841 0
M  V30 23637 C 2255.05 -2.25454 -0.572131 0
M  V30 23638 C 2256.04 -1.26512 -1.12655 0
M  V30 23639 O 2257.25 -1.44321 -1.07571 0
M  V30 23640 H 2253.63 -0.724045 -0.203134 0
M  V30 23641 H 2255.6 -2.98359 0.0491669 0
M  V30 23642 C 2254.35 -3.01823 -1.72621 0
M  V30 23643 H 2253.67 -3.77769 -1.30884 0
M  V30 23644 H 2255.11 -3.54771 -2.32193 0
M  V30 23645 C 2253.57 -2.09546 -2.63803 0
M  V30 23646 O 2254.1 -1.67192 -3.65253 0
M  V30 23647 N 2252.3 -1.75236 -2.31821 0
M  V30 23648 H 2251.85 -2.09876 -1.49365 0
M  V30 23649 H 2251.81 -1.13772 -2.93093 0
M  V30 23650 N 2255.58 -0.0418125 -1.57545 0
M  V30 23651 C 2256.53 0.945211 -2.07484 0
M  V30 23652 C 2257.51 1.27765 -0.978005 0
M  V30 23653 O 2258.71 1.26164 -1.24144 0
M  V30 23654 C 2255.84 2.2233 -2.6158 0
M  V30 23655 C 2254.92 1.91867 -3.78217 0
M  V30 23656 N 2255.31 1.31725 -4.88346 0
M  V30 23657 C 2253.61 2.21789 -3.86944 0
M  V30 23658 C 2254.31 1.1868 -5.69465 0
M  V30 23659 N 2253.29 1.68657 -5.16774 0
M  V30 23660 H 2257.09 0.47539 -2.9003 0
M  V30 23661 H 2254.6 0.162883 -1.61581 0
M  V30 23662 H 2256.6 2.93927 -2.95656 0
M  V30 23663 H 2255.26 2.69927 -1.8047 0
M  V30 23664 H 2256.27 0.990639 -5.08337 0
M  V30 23665 H 2252.95 2.71972 -3.16761 0
M  V30 23666 H 2254.34 0.720676 -6.68024 0
M  V30 23667 N 2257.06 1.55891 0.231477 0
M  V30 23668 C 2258.01 1.92443 1.30646 0
M  V30 23669 C 2259 0.80528 1.49036 0
M  V30 23670 O 2260.21 0.990034 1.50327 0
M  V30 23671 H 2256.58 0.61142 0.437801 0
M  V30 23672 H 2258.55 2.82162 0.970923 0
M  V30 23673 C 2257.3 2.24894 2.65176 0
M  V30 23674 H 2256.62 3.10519 2.51829 0
M  V30 23675 H 2258.06 2.54361 3.39229 0
M  V30 23676 C 2256.52 1.0706 3.19437 0
M  V30 23677 O 2257.05 0.326569 4.0037 0
M  V30 23678 N 2255.26 0.857079 2.77673 0
M  V30 23679 H 2254.81 1.46383 2.11966 0
M  V30 23680 H 2254.76 0.0703775 3.14321 0
M  V30 23681 N 2258.54 -0.497781 1.49532 0
M  V30 23682 C 2259.95 -1.07924 1.52346 0
M  V30 23683 C 2260.3 -1.93711 0.311503 0
M  V30 23684 O 2259.42 -2.08528 -0.578369 0
M  V30 23685 C 2260.02 -1.964 2.76066 0
M  V30 23686 C 2258.58 -2.49704 2.81647 0
M  V30 23687 C 2257.72 -1.274 2.46302 0
M  V30 23688 H 2260.68 -0.281549 1.56183 0
M  V30 23689 H 2260.7 -2.8113 2.5641 0
M  V30 23690 H 2260.21 -1.33936 3.64256 0
M  V30 23691 H 2258.31 -3.15797 1.97744 0
M  V30 23692 H 2258.42 -2.86636 3.83896 0
M  V30 23693 H 2256.79 -1.60025 1.98151 0
M  V30 23694 H 2257.57 -0.666391 3.3677 0
M  V30 23695 N 2260.01 -1.38661 -0.749062 0
M  V30 23696 C 2261.26 -1.36322 -1.50957 0
M  V30 23697 C 2261.62 0.0452113 -1.92347 0
M  V30 23698 O 2260.91 1.00881 -1.62891 0
M  V30 23699 C 2261.1 -2.25702 -2.77116 0
M  V30 23700 C 2260.93 -3.75095 -2.4806 0
M  V30 23701 C 2259.7 -4.44096 -2.41054 0
M  V30 23702 C 2261.9 -4.67417 -2.14536 0
M  V30 23703 N 2259.88 -5.78901 -2.04321 0
M  V30 23704 C 2261.25 -5.90768 -1.88131 0
M  V30 23705 C 2263.31 -4.55577 -2.00884 0
M  V30 23706 C 2262.01 -7.03603 -1.49451 0
M  V30 23707 C 2264.04 -5.6832 -1.63606 0
M  V30 23708 C 2263.4 -6.90735 -1.38076 0
M  V30 23709 H 2259.5 -0.554118 -0.551794 0
M  V30 23710 H 2262.08 -1.74088 -0.871856 0
M  V30 23711 H 2260.25 -1.90116 -3.38689 0
M  V30 23712 H 2261.98 -2.14456 -3.43206 0
M  V30 23713 H 2258.74 -3.97365 -2.57678 0
M  V30 23714 H 2259.16 -6.50203 -1.88587 0
M  V30 23715 H 2263.81 -3.61483 -2.19295 0
M  V30 23716 H 2261.52 -7.97611 -1.2978 0
M  V30 23717 H 2265.11 -5.61139 -1.53668 0
M  V30 23718 H 2263.99 -7.76495 -1.0966 0
M  V30 23719 N 2261.49 0.977736 -1.23605 0
M  V30 23720 C 2262.43 2.06894 -0.962808 0
M  V30 23721 C 2263.4 1.62293 0.0998458 0
M  V30 23722 O 2264.59 1.88468 -0.0349752 0
M  V30 23723 C 2261.72 3.35684 -0.451009 0
M  V30 23724 C 2260.76 3.99227 -1.50068 0
M  V30 23725 S 2261.59 4.38136 -3.07891 0
M  V30 23726 C 2262.75 5.70076 -2.58388 0
M  V30 23727 H 2262.98 2.29753 -1.88681 0
M  V30 23728 H 2260.52 1.11429 -1.06878 0
M  V30 23729 H 2262.47 4.10179 -0.162333 0
M  V30 23730 H 2261.14 3.10829 0.452124 0
M  V30 23731 H 2260.33 4.92011 -1.09277 0
M  V30 23732 H 2259.93 3.3112 -1.73884 0
M  V30 23733 H 2262.22 6.47129 -2.00574 0
M  V30 23734 H 2263.17 6.15711 -3.49722 0
M  V30 23735 H 2263.57 5.28203 -1.99152 0
M  V30 23736 N 2262.97 1.04818 1.1769 0
M  V30 23737 C 2263.9 0.66683 2.23776 0
M  V30 23738 C 2264.88 -0.333581 1.66797 0
M  V30 23739 O 2266.07 -0.212008 1.93039 0
M  V30 23740 C 2263.2 0.0368544 3.4728 0
M  V30 23741 C 2262.15 0.961619 4.17057 0
M  V30 23742 C 2261.48 0.19572 5.34342 0
M  V30 23743 C 2262.78 2.2841 4.69709 0
M  V30 23744 H 2264.47 1.55371 2.5593 0
M  V30 23745 H 2262.02 0.748506 1.23018 0
M  V30 23746 H 2263.97 -0.241701 4.20706 0
M  V30 23747 H 2262.69 -0.884949 3.14382 0
M  V30 23748 H 2261.35 1.22468 3.45539 0
M  V30 23749 H 2261 -0.728729 4.97693 0
M  V30 23750 H 2260.7 0.811878 5.81964 0
M  V30 23751 H 2262.23 -0.0756399 6.10553 0
M  V30 23752 H 2263.64 2.06572 5.34791 0
M  V30 23753 H 2262.04 2.8539 5.27895 0
M  V30 23754 H 2263.11 2.92532 3.86721 0
M  V30 23755 N 2264.45 -1.34055 0.828678 0
M  V30 23756 C 2265.38 -2.3194 0.269483 0
M  V30 23757 C 2266.36 -1.58507 -0.617219 0
M  V30 23758 O 2267.55 -1.86457 -0.542898 0
M  V30 23759 C 2264.68 -3.42678 -0.564733 0
M  V30 23760 C 2263.63 -4.27407 0.225316 0
M  V30 23761 C 2262.96 -5.29666 -0.732007 0
M  V30 23762 C 2264.26 -5.02151 1.43672 0
M  V30 23763 H 2265.95 -2.78958 1.08733 0
M  V30 23764 H 2263.5 -1.34116 0.524307 0
M  V30 23765 H 2265.45 -4.10175 -0.966161 0
M  V30 23766 H 2264.17 -2.94323 -1.41569 0
M  V30 23767 H 2262.83 -3.6152 0.608181 0
M  V30 23768 H 2262.48 -4.77571 -1.57908 0
M  V30 23769 H 2262.18 -5.87233 -0.207566 0
M  V30 23770 H 2263.7 -6.00031 -1.13117 0
M  V30 23771 H 2265.12 -5.62471 1.109 0
M  V30 23772 H 2263.51 -5.6932 1.89721 0
M  V30 23773 H 2264.58 -4.31513 2.21189 0
M  V30 23774 N 2265.93 -0.584167 -1.46374 0
M  V30 23775 C 2267.16 -0.0758558 -2.06461 0
M  V30 23776 C 2267.57 1.2351 -1.43325 0
M  V30 23777 O 2266.91 1.7579 -0.533247 0
M  V30 23778 C 2266.97 0.16271 -3.59132 0
M  V30 23779 C 2266.63 -1.06287 -4.44468 0
M  V30 23780 C 2267.63 -1.97527 -4.80915 0
M  V30 23781 C 2265.32 -1.28512 -4.85582 0
M  V30 23782 C 2267.31 -3.0934 -5.57304 0
M  V30 23783 C 2265 -2.4063 -5.6173 0
M  V30 23784 C 2266 -3.30873 -5.97505 0
M  V30 23785 O 2265.68 -4.41044 -6.72113 0
M  V30 23786 H 2265.42 -0.0551843 -0.673744 0
M  V30 23787 H 2267.97 -0.805017 -1.88967 0
M  V30 23788 H 2266.2 0.946499 -3.74938 0
M  V30 23789 H 2267.89 0.619712 -4.01141 0
M  V30 23790 H 2268.65 -1.81573 -4.49729 0
M  V30 23791 H 2264.53 -0.591783 -4.57186 0
M  V30 23792 H 2268.08 -3.79803 -5.85146 0
M  V30 23793 H 2263.97 -2.56547 -5.92329 0
M  V30 23794 H 2264.74 -4.39429 -6.90539 0
M  V30 23795 N 2267.41 1.54275 -0.322027 0
M  V30 23796 C 2268.65 2.00541 0.281009 0
M  V30 23797 C 2268.98 1.21022 1.52263 0
M  V30 23798 O 2268.24 0.280016 1.93686 0
M  V30 23799 C 2268.53 3.51221 0.661707 0
M  V30 23800 C 2268.2 4.48332 -0.48056 0
M  V30 23801 C 2266.86 4.74603 -0.794088 0
M  V30 23802 C 2269.21 5.0604 -1.24792 0
M  V30 23803 C 2266.54 5.5584 -1.87773 0
M  V30 23804 C 2268.89 5.88458 -2.32164 0
M  V30 23805 C 2267.56 6.13031 -2.641 0
M  V30 23806 H 2266.83 0.733831 0.102828 0
M  V30 23807 H 2269.48 1.86246 -0.445486 0
M  V30 23808 H 2267.78 3.63234 1.4686 0
M  V30 23809 H 2269.48 3.84459 1.13982 0
M  V30 23810 H 2266.07 4.28003 -0.226114 0
M  V30 23811 H 2270.25 4.85727 -1.01896 0
M  V30 23812 H 2265.51 5.73111 -2.12964 0
M  V30 23813 H 2269.68 6.32194 -2.92068 0
M  V30 23814 H 2267.31 6.75769 -3.48196 0
M  V30 23815 N 2268.88 0.0501669 1.5752 0
M  V30 23816 C 2270.13 -0.623294 1.91828 0
M  V30 23817 C 2270.45 -1.72063 0.930252 0
M  V30 23818 O 2271.65 -2.45218 1.16534 0
M  V30 23819 C 2270.11 -1.15997 3.40694 0
M  V30 23820 C 2269.72 -0.0948023 4.479 0
M  V30 23821 C 2271.46 -1.80874 3.84038 0
M  V30 23822 C 2269.37 -0.644307 5.8788 0
M  V30 23823 H 2268.3 -0.236584 0.715922 0
M  V30 23824 H 2270.95 0.118893 1.83114 0
M  V30 23825 H 2269.33 -1.95444 3.44409 0
M  V30 23826 H 2270.5 0.678755 4.55774 0
M  V30 23827 H 2268.82 0.456443 4.13891 0
M  V30 23828 H 2271.42 -2.2298 4.85988 0
M  V30 23829 H 2271.76 -2.66005 3.2023 0
M  V30 23830 H 2272.29 -1.08084 3.82835 0
M  V30 23831 H 2269.03 0.169344 6.55281 0
M  V30 23832 H 2268.55 -1.38587 5.8357 0
M  V30 23833 H 2270.23 -1.12752 6.371 0
M  V30 23834 N 2270.36 -1.56011 -0.223207 0
M  V30 23835 C 2271.59 -1.83374 -0.968946 0
M  V30 23836 C 2272.01 -0.630285 -1.77226 0
M  V30 23837 O 2271.37 0.420928 -1.76346 0
M  V30 23838 C 2271.42 -3.08712 -1.86357 0
M  V30 23839 O 2270.52 -2.8729 -2.95868 0
M  V30 23840 H 2269.86 -0.604626 -0.27445 0
M  V30 23841 H 2272.39 -2.03222 -0.237021 0
M  V30 23842 H 2272.4 -3.38772 -2.2737 0
M  V30 23843 H 2271.08 -3.95935 -1.27312 0
M  V30 23844 H 2269.65 -2.68459 -2.58813 0
M  V30 23845 N 2271.84 0.489844 -1.49794 0
M  V30 23846 C 2273.09 1.24324 -1.59843 0
M  V30 23847 C 2273.41 1.92323 -0.290169 0
M  V30 23848 O 2272.67 1.81866 0.722717 0
M  V30 23849 C 2272.97 2.32436 -2.71492 0
M  V30 23850 C 2272.63 1.81819 -4.12617 0
M  V30 23851 C 2271.3 1.67734 -4.5102 0
M  V30 23852 C 2273.65 1.44062 -5.00895 0
M  V30 23853 C 2270.98 1.14287 -5.75461 0
M  V30 23854 C 2273.33 0.920632 -6.25865 0
M  V30 23855 C 2271.99 0.766267 -6.63087 0
M  V30 23856 H 2271.26 0.454934 -0.584907 0
M  V30 23857 H 2273.91 0.542183 -1.83664 0
M  V30 23858 H 2272.21 3.08375 -2.41685 0
M  V30 23859 H 2273.91 2.90453 -2.76474 0
M  V30 23860 H 2270.5 1.93744 -3.8231 0
M  V30 23861 H 2274.69 1.53786 -4.71873 0
M  V30 23862 H 2269.94 1.01057 -6.0299 0
M  V30 23863 H 2274.12 0.619326 -6.93641 0
M  V30 23864 H 2271.74 0.34995 -7.59394 0
M  V30 23865 N 2273.32 1.39056 0.741698 0
M  V30 23866 C 2274.25 1.39969 1.86898 0
M  V30 23867 C 2275.23 0.263949 1.6804 0
M  V30 23868 O 2276.41 0.468788 1.88457 0
M  V30 23869 C 2273.54 1.2358 3.24569 0
M  V30 23870 C 2272.5 2.34484 3.58052 0
M  V30 23871 C 2271.82 2.03189 4.94589 0
M  V30 23872 C 2273.12 3.7678 3.6171 0
M  V30 23873 H 2274.82 2.34305 1.86391 0
M  V30 23874 H 2272.36 1.12781 0.895341 0
M  V30 23875 H 2274.32 1.22841 4.03098 0
M  V30 23876 H 2273.04 0.257103 3.25586 0
M  V30 23877 H 2271.7 2.34428 2.81849 0
M  V30 23878 H 2271.35 1.03774 4.92179 0
M  V30 23879 H 2271.05 2.77474 5.17959 0
M  V30 23880 H 2272.57 2.04089 5.75482 0
M  V30 23881 H 2273.99 3.78802 4.30328 0
M  V30 23882 H 2272.38 4.50369 3.96595 0
M  V30 23883 H 2273.45 4.08239 2.61665 0
M  V30 23884 N 2274.8 -0.971167 1.24121 0
M  V30 23885 C 2275.73 -2.08302 1.05511 0
M  V30 23886 C 2276.71 -1.70072 -0.0308565 0
M  V30 23887 O 2277.89 -1.93726 0.135556 0
M  V30 23888 C 2275.02 -3.41059 0.655425 0
M  V30 23889 C 2273.98 -3.93231 1.68978 0
M  V30 23890 C 2273.3 -5.22291 1.14525 0
M  V30 23891 C 2274.6 -4.2146 3.08494 0
M  V30 23892 H 2276.3 -2.24129 1.98511 0
M  V30 23893 H 2273.84 -1.07702 0.95584 0
M  V30 23894 H 2275.79 -4.18275 0.512243 0
M  V30 23895 H 2274.52 -3.25123 -0.310263 0
M  V30 23896 H 2273.18 -3.18168 1.82111 0
M  V30 23897 H 2272.83 -5.02712 0.170277 0
M  V30 23898 H 2272.53 -5.58165 1.83645 0
M  V30 23899 H 2274.05 -6.0212 1.01412 0
M  V30 23900 H 2275.46 -4.89393 2.98609 0
M  V30 23901 H 2273.86 -4.68555 3.74935 0
M  V30 23902 H 2274.93 -3.2837 3.56793 0
M  V30 23903 N 2276.27 -1.05441 -1.17133 0
M  V30 23904 C 2277.52 -0.761081 -1.8679 0
M  V30 23905 C 2277.84 0.714763 -1.82073 0
M  V30 23906 O 2279.04 1.12213 -2.47225 0
M  V30 23907 C 2277.5 -1.31123 -3.35164 0
M  V30 23908 C 2277.11 -2.8167 -3.48376 0
M  V30 23909 C 2278.85 -1.09506 -4.10133 0
M  V30 23910 C 2276.76 -3.29972 -4.90787 0
M  V30 23911 H 2275.69 -0.281015 -0.699676 0
M  V30 23912 H 2278.34 -1.27202 -1.32257 0
M  V30 23913 H 2276.72 -0.728098 -3.89249 0
M  V30 23914 H 2277.89 -3.4586 -3.04496 0
M  V30 23915 H 2276.21 -3.01856 -2.86831 0
M  V30 23916 H 2278.81 -1.43093 -5.15198 0
M  V30 23917 H 2279.15 -0.0329504 -4.16287 0
M  V30 23918 H 2279.68 -1.64353 -3.62261 0
M  V30 23919 H 2276.42 -4.35624 -4.89808 0
M  V30 23920 H 2275.94 -2.70526 -5.35328 0
M  V30 23921 H 2277.62 -3.24797 -5.59568 0
M  V30 23922 N 2277.75 1.33613 -0.835776 0
M  V30 23923 C 2279 1.98175 -0.430631 0
M  V30 23924 C 2279.33 1.66063 1.00682 0
M  V30 23925 O 2278.61 0.938907 1.70337 0
M  V30 23926 C 2278.89 3.54219 -0.648127 0
M  V30 23927 C 2278.74 3.96029 -2.13262 0
M  V30 23928 C 2280.06 4.40003 -0.0922887 0
M  V30 23929 H 2277.18 0.719879 -0.157936 0
M  V30 23930 H 2279.82 1.58303 -1.05072 0
M  V30 23931 H 2277.97 3.88314 -0.120305 0
M  V30 23932 H 2279.64 3.72207 -2.72507 0
M  V30 23933 H 2277.89 3.45873 -2.61829 0
M  V30 23934 H 2278.56 5.04704 -2.23556 0
M  V30 23935 H 2281.03 4.12536 -0.543416 0
M  V30 23936 H 2279.91 5.48215 -0.274179 0
M  V30 23937 H 2280.17 4.30556 1.00371 0
M  V30 23938 N 2279.23 0.591922 1.46062 0
M  V30 23939 C 2280.46 0.0850678 2.07225 0
M  V30 23940 C 2280.88 -1.21461 1.43628 0
M  V30 23941 O 2280.24 -1.73583 0.523336 0
M  V30 23942 C 2280.29 -0.0575933 3.60554 0
M  V30 23943 O 2279.39 -1.11181 3.9713 0
M  V30 23944 H 2278.73 0.0669684 0.660614 0
M  V30 23945 H 2281.26 0.817483 1.87559 0
M  V30 23946 H 2281.27 -0.260829 4.07165 0
M  V30 23947 H 2279.95 0.891488 4.06233 0
M  V30 23948 H 2278.52 -0.886292 3.62214 0
M  V30 23949 N 2280.71 -1.54102 0.330204 0
M  V30 23950 C 2281.96 -2.00687 -0.27037 0
M  V30 23951 C 2282.28 -1.21828 -1.51619 0
M  V30 23952 O 2281.54 -0.290284 -1.93535 0
M  V30 23953 C 2281.84 -3.51567 -0.643072 0
M  V30 23954 C 2281.5 -4.48071 0.50433 0
M  V30 23955 C 2280.17 -4.74175 0.819247 0
M  V30 23956 C 2282.52 -5.05371 1.27474 0
M  V30 23957 C 2279.85 -5.54837 1.90718 0
M  V30 23958 C 2282.2 -5.87219 2.35281 0
M  V30 23959 C 2280.86 -6.11622 2.67347 0
M  V30 23960 H 2280.13 -0.734366 -0.0989353 0
M  V30 23961 H 2282.78 -1.86007 0.455357 0
M  V30 23962 H 2281.08 -3.64008 -1.44932 0
M  V30 23963 H 2282.78 -3.85058 -1.11942 0
M  V30 23964 H 2279.37 -4.27877 0.248809 0
M  V30 23965 H 2283.55 -4.8518 1.0447 0
M  V30 23966 H 2278.81 -5.71973 2.16001 0
M  V30 23967 H 2282.98 -6.30636 2.95417 0
M  V30 23968 H 2280.61 -6.73913 3.51775 0
M  V30 23969 N 2282.19 -0.0585199 -1.57491 0
M  V30 23970 C 2283.43 0.613615 -1.92979 0
M  V30 23971 C 2283.76 1.70415 -0.937491 0
M  V30 23972 O 2283.02 1.95639 0.0490436 0
M  V30 23973 C 2283.32 1.24182 -3.35132 0
M  V30 23974 C 2282.98 0.278747 -4.50038 0
M  V30 23975 C 2281.64 0.0137601 -4.81198 0
M  V30 23976 C 2284 -0.380868 -5.19807 0
M  V30 23977 C 2281.32 -0.918153 -5.79471 0
M  V30 23978 C 2283.68 -1.30102 -6.19077 0
M  V30 23979 C 2282.34 -1.57461 -6.48662 0
M  V30 23980 H 2281.61 0.224537 -0.706161 0
M  V30 23981 H 2284.26 -0.126567 -1.91081 0
M  V30 23982 H 2282.56 2.05743 -3.33432 0
M  V30 23983 H 2284.26 1.76894 -3.59874 0
M  V30 23984 H 2280.85 0.495464 -4.25727 0
M  V30 23985 H 2285.03 -0.189245 -4.95939 0
M  V30 23986 H 2280.29 -1.13751 -6.00725 0
M  V30 23987 H 2284.46 -1.81816 -6.72247 0
M  V30 23988 H 2282.09 -2.29834 -7.24624 0
M  V30 23989 N 2283.66 1.56128 0.21493 0
M  V30 23990 C 2284.91 1.79713 0.93973 0
M  V30 23991 C 2285.24 0.629279 1.83722 0
M  V30 23992 O 2284.52 -0.371163 1.90926 0
M  V30 23993 C 2284.8 3.13427 1.773 0
M  V30 23994 C 2284.65 4.40672 0.901562 0
M  V30 23995 C 2285.97 3.43643 2.7495 0
M  V30 23996 H 2283.09 0.653782 0.340203 0
M  V30 23997 H 2285.73 1.88856 0.208207 0
M  V30 23998 H 2283.88 3.05764 2.39667 0
M  V30 23999 H 2285.56 4.60361 0.294125 0
M  V30 24000 H 2283.8 4.33304 0.207291 0
M  V30 24001 H 2284.47 5.30685 1.51913 0
M  V30 24002 H 2286.95 3.51477 2.22717 0
M  V30 24003 H 2285.82 4.38361 3.3035 0
M  V30 24004 H 2286.08 2.66141 3.53018 0
M  V30 24005 N 2285.14 -0.481893 1.50052 0
M  V30 24006 C 2286.07 -1.58948 1.71049 0
M  V30 24007 C 2287.05 -1.60641 0.559316 0
M  V30 24008 O 2288.24 -1.7708 0.797274 0
M  V30 24009 C 2285.37 -2.97336 1.79467 0
M  V30 24010 C 2284.32 -3.1051 2.94563 0
M  V30 24011 C 2283.65 -4.50439 2.88113 0
M  V30 24012 C 2284.95 -2.88739 4.35232 0
M  V30 24013 H 2286.64 -1.41631 2.63782 0
M  V30 24014 H 2284.19 -0.67992 1.26937 0
M  V30 24015 H 2286.14 -3.74738 1.92741 0
M  V30 24016 H 2284.87 -3.15786 0.833467 0
M  V30 24017 H 2283.52 -2.35538 2.80923 0
M  V30 24018 H 2283.17 -4.65791 1.89861 0
M  V30 24019 H 2282.87 -4.6019 3.65375 0
M  V30 24020 H 2284.4 -5.29875 3.03421 0
M  V30 24021 H 2285.81 -3.55898 4.49455 0
M  V30 24022 H 2284.21 -3.09946 5.13862 0
M  V30 24023 H 2285.28 -1.84688 4.48351 0
M  V30 24024 N 2286.62 -1.39448 -0.734313 0
M  V30 24025 C 2287.57 -1.38367 -1.86969 0
M  V30 24026 C 2288.56 -0.266717 -1.67287 0
M  V30 24027 O 2289.77 -0.436786 -1.7462 0
M  V30 24028 H 2286.14 -0.432093 -0.615467 0
M  V30 24029 H 2288.11 -2.34135 -1.84996 0
M  V30 24030 C 2286.86 -1.2447 -3.24657 0
M  V30 24031 H 2286.19 -2.09688 -3.40399 0
M  V30 24032 H 2287.63 -1.27771 -4.0429 0
M  V30 24033 C 2286.09 0.0468082 -3.36867 0
M  V30 24034 O 2286.62 1.01675 -3.8862 0
M  V30 24035 N 2284.82 0.110094 -2.90391 0
M  V30 24036 H 2284.37 -0.679912 -2.48465 0
M  V30 24037 H 2284.33 0.973747 -2.98941 0
M  V30 24038 N 2288.1 0.964571 -1.24635 0
M  V30 24039 C 2289.03 2.05861 -0.984698 0
M  V30 24040 C 2290.01 1.6239 0.0826268 0
M  V30 24041 O 2291.19 1.8842 -0.0549627 0
M  V30 24042 C 2288.32 3.35187 -0.486587 0
M  V30 24043 C 2287.37 3.97613 -1.54293 0
M  V30 24044 S 2288.2 4.34846 -3.12521 0
M  V30 24045 C 2289.36 5.67303 -2.6442 0
M  V30 24046 H 2289.59 2.27739 -1.91108 0
M  V30 24047 H 2287.12 1.10289 -1.08054 0
M  V30 24048 H 2289.08 4.09984 -0.205829 0
M  V30 24049 H 2287.74 3.11291 0.419131 0
M  V30 24050 H 2286.93 4.90824 -1.14489 0
M  V30 24051 H 2286.54 3.29257 -1.77386 0
M  V30 24052 H 2288.83 6.44965 -2.07427 0
M  V30 24053 H 2289.77 6.11967 -3.56233 0
M  V30 24054 H 2290.18 5.26061 -2.04743 0
M  V30 24055 N 2289.58 1.0606 1.16572 0
M  V30 24056 C 2290.82 0.775905 1.87045 0
M  V30 24057 C 2291.15 -0.697502 1.81563 0
M  V30 24058 O 2290.41 -1.5266 1.22447 0
M  V30 24059 C 2290.71 1.21281 3.36193 0
M  V30 24060 C 2290.37 2.68993 3.61875 0
M  V30 24061 C 2289.03 3.09341 3.68594 0
M  V30 24062 C 2291.39 3.64401 3.72641 0
M  V30 24063 C 2288.71 4.43944 3.83577 0
M  V30 24064 C 2291.07 4.98748 3.89145 0
M  V30 24065 C 2289.73 5.38737 3.94105 0
M  V30 24066 H 2289 0.283924 0.684447 0
M  V30 24067 H 2291.65 1.32927 1.3785 0
M  V30 24068 H 2289.95 0.578596 3.87504 0
M  V30 24069 H 2291.65 0.96961 3.89101 0
M  V30 24070 H 2288.24 2.36751 3.57277 0
M  V30 24071 H 2292.42 3.34363 3.66763 0
M  V30 24072 H 2287.68 4.74415 3.85668 0
M  V30 24073 H 2291.85 5.72561 3.96417 0
M  V30 24074 H 2289.48 6.4304 4.05467 0
M  V30 24075 N 2291.06 -1.33168 0.84285 0
M  V30 24076 C 2292.3 -1.97944 0.441134 0
M  V30 24077 C 2292.63 -1.66594 -0.997994 0
M  V30 24078 O 2291.91 -0.947927 -1.69837 0
M  V30 24079 C 2292.19 -3.53871 0.666903 0
M  V30 24080 C 2292.05 -3.94893 2.15359 0
M  V30 24081 C 2293.36 -4.39948 0.115622 0
M  V30 24082 H 2290.48 -0.719031 0.161752 0
M  V30 24083 H 2293.13 -1.57744 1.0591 0
M  V30 24084 H 2291.28 -3.88244 0.140896 0
M  V30 24085 H 2292.95 -3.70756 2.74477 0
M  V30 24086 H 2291.19 -3.4448 2.63659 0
M  V30 24087 H 2291.86 -5.03512 2.2623 0
M  V30 24088 H 2294.34 -4.12242 0.565286 0
M  V30 24089 H 2293.21 -5.48062 0.303249 0
M  V30 24090 H 2293.47 -4.31082 -0.980859 0
M  V30 24091 N 2292.53 -0.599659 -1.45746 0
M  V30 24092 C 2293.78 -0.0915827 -2.01892 0
M  V30 24093 C 2294.1 1.27944 -1.47158 0
M  V30 24094 O 2293.37 1.84348 -0.662762 0
M  V30 24095 H 2291.95 -0.0308655 -0.746362 0
M  V30 24096 H 2294.61 -0.779268 -1.78643 0
M  V30 24097 H 2293.71 -0.0353635 -3.1208 0
M  V30 24098 N 2294.01 1.53925 -0.338371 0
M  V30 24099 C 2295.26 2.01125 0.260108 0
M  V30 24100 C 2295.59 1.22592 1.50615 0
M  V30 24101 O 2294.87 0.312147 1.91979 0
M  V30 24102 C 2295.15 3.55408 0.579437 0
M  V30 24103 C 2295 4.44656 -0.678342 0
M  V30 24104 C 2296.32 4.17535 1.39114 0
M  V30 24105 H 2293.44 0.731101 0.0930644 0
M  V30 24106 H 2296.08 1.844 -0.457884 0
M  V30 24107 H 2294.23 3.6979 1.19112 0
M  V30 24108 H 2295.9 4.42119 -1.31639 0
M  V30 24109 H 2294.15 4.13728 -1.30427 0
M  V30 24110 H 2294.82 5.50473 -0.41024 0
M  V30 24111 H 2297.29 4.06818 0.873963 0
M  V30 24112 H 2296.17 5.25568 1.58333 0
M  V30 24113 H 2296.43 3.71819 2.39171 0
M  V30 24114 N 2295.49 0.0668712 1.57458 0
M  V30 24115 C 2296.74 -0.604266 1.93588 0
M  V30 24116 C 2297.07 -1.69559 0.946752 0
M  V30 24117 O 2296.34 -1.94484 -0.0248174 0
M  V30 24118 C 2296.63 -1.18579 3.40016 0
M  V30 24119 C 2296.48 -0.10145 4.49686 0
M  V30 24120 C 2297.8 -2.09277 3.87158 0
M  V30 24121 H 2294.92 -0.21819 0.703962 0
M  V30 24122 H 2297.56 0.131837 1.89542 0
M  V30 24123 H 2295.71 -1.81313 3.43595 0
M  V30 24124 H 2297.38 0.53136 4.58229 0
M  V30 24125 H 2295.62 0.568562 4.30058 0
M  V30 24126 H 2296.3 -0.548643 5.49267 0
M  V30 24127 H 2298.77 -1.56485 3.85554 0
M  V30 24128 H 2297.65 -2.46903 4.90235 0
M  V30 24129 H 2297.91 -2.99912 3.24816 0
M  V30 24130 N 2296.97 -1.56239 -0.206647 0
M  V30 24131 C 2298.21 -1.80209 -0.930186 0
M  V30 24132 C 2298.55 -0.639013 -1.83386 0
M  V30 24133 O 2297.82 0.361032 -1.9112 0
M  V30 24134 C 2298.1 -3.14363 -1.75635 0
M  V30 24135 C 2297.96 -4.41144 -0.87818 0
M  V30 24136 C 2299.28 -3.45097 -2.73123 0
M  V30 24137 H 2296.4 -0.655577 -0.336731 0
M  V30 24138 H 2299.04 -1.88964 -0.198189 0
M  V30 24139 H 2297.19 -3.07031 -2.38042 0
M  V30 24140 H 2298.86 -4.60511 -0.269706 0
M  V30 24141 H 2297.1 -4.33408 -0.184309 0
M  V30 24142 H 2297.77 -5.31483 -1.49097 0
M  V30 24143 H 2300.25 -3.52653 -2.2085 0
M  V30 24144 H 2299.13 -4.40106 -3.28021 0
M  V30 24145 H 2299.39 -2.68009 -3.51602 0
M  V30 24146 N 2298.45 0.473929 -1.50305 0
M  V30 24147 C 2299.36 1.59817 -1.71743 0
M  V30 24148 C 2300.37 1.6331 -0.600486 0
M  V30 24149 O 2301.55 1.81231 -0.878473 0
M  V30 24150 C 2298.61 2.96049 -1.80433 0
M  V30 24151 C 2297.67 3.02967 -3.04154 0
M  V30 24152 C 2296.91 4.32701 -3.12419 0
M  V30 24153 O 2297.13 5.23045 -2.27551 0
M  V30 24154 O 2296.06 4.45152 -4.05121 0
M  V30 24155 H 2299.89 1.44653 -2.67038 0
M  V30 24156 H 2297.47 0.653124 -1.34368 0
M  V30 24157 H 2299.36 3.76967 -1.88345 0
M  V30 24158 H 2298.03 3.11418 -0.883211 0
M  V30 24159 H 2296.94 2.21137 -3.01744 0
M  V30 24160 H 2298.27 2.92534 -3.95834 0
M  V30 24161 N 2299.92 1.39835 0.726907 0
M  V30 24162 C 2300.87 1.39357 1.86232 0
M  V30 24163 C 2301.87 0.275585 1.67143 0
M  V30 24164 O 2303.07 0.44604 1.74386 0
M  V30 24165 H 2299.45 0.435351 0.613167 0
M  V30 24166 H 2301.42 2.35113 1.83752 0
M  V30 24167 C 2300.17 1.2619 3.23993 0
M  V30 24168 H 2299.49 2.1149 3.39282 0
M  V30 24169 H 2300.93 1.29914 4.03607 0
M  V30 24170 C 2299.39 -0.0289426 3.36888 0
M  V30 24171 O 2299.92 -0.996122 3.89153 0
M  V30 24172 N 2298.12 -0.0946926 2.90446 0
M  V30 24173 H 2297.67 0.693079 2.48101 0
M  V30 24174 H 2297.63 -0.95788 2.99453 0
M  V30 24175 N 2301.4 -0.957948 1.25144 0
M  V30 24176 C 2302.65 -1.70215 1.09695 0
M  V30 24177 C 2302.98 -1.9109 -0.362621 0
M  V30 24178 O 2302.23 -1.47703 -1.28383 0
M  V30 24179 C 2302.53 -3.09183 1.79277 0
M  V30 24180 C 2302.2 -3.08119 3.29201 0
M  V30 24181 C 2300.86 -3.07536 3.70101 0
M  V30 24182 C 2303.21 -3.01702 4.25 0
M  V30 24183 C 2300.54 -2.98281 5.05218 0
M  V30 24184 C 2302.89 -2.93989 5.60137 0
M  V30 24185 C 2301.55 -2.9174 6.0037 0
M  V30 24186 H 2300.82 -0.622861 0.401404 0
M  V30 24187 H 2303.47 -1.11942 1.55374 0
M  V30 24188 H 2301.78 -3.7098 1.2602 0
M  V30 24189 H 2303.47 -3.6558 1.6478 0
M  V30 24190 H 2300.06 -3.09343 2.96656 0
M  V30 24191 H 2304.25 -3.01274 3.94395 0
M  V30 24192 H 2299.5 -2.94906 5.35575 0
M  V30 24193 H 2303.68 -2.87984 6.34065 0
M  V30 24194 H 2301.3 -2.84324 7.05028 0
M  V30 24195 N 2302.88 -1.06677 -1.16008 0
M  V30 24196 C 2303.83 -0.650926 -2.18511 0
M  V30 24197 C 2304.81 0.320413 -1.57677 0
M  V30 24198 O 2306.01 0.135235 -1.76483 0
M  V30 24199 C 2303.13 -0.0429858 -3.43273 0
M  V30 24200 C 2302.22 -1.03905 -4.11175 0
M  V30 24201 N 2302.61 -2.21608 -4.54669 0
M  V30 24202 C 2300.91 -0.870856 -4.37415 0
M  V30 24203 C 2301.61 -2.84745 -5.07243 0
M  V30 24204 N 2300.59 -2.12449 -5.00366 0
M  V30 24205 H 2304.39 -1.54749 -2.4986 0
M  V30 24206 H 2301.9 -0.938998 -1.32501 0
M  V30 24207 H 2303.9 0.272784 -4.16007 0
M  V30 24208 H 2302.56 0.848785 -3.1341 0
M  V30 24209 H 2303.57 -2.59364 -4.48275 0
M  V30 24210 H 2300.25 -0.0314027 -4.17488 0
M  V30 24211 H 2301.64 -3.84646 -5.50906 0
M  V30 24212 N 2304.36 1.32719 -0.8499 0
M  V30 24213 C 2305.3 2.28983 -0.289073 0
M  V30 24214 C 2306.27 1.54834 0.601297 0
M  V30 24215 O 2307.46 1.83081 0.537221 0
M  V30 24216 C 2304.6 3.41151 0.520563 0
M  V30 24217 C 2303.71 4.3019 -0.395064 0
M  V30 24218 C 2302.85 5.29483 0.426741 0
M  V30 24219 C 2301.89 6.10163 -0.486583 0
M  V30 24220 N 2301.02 7.01468 0.297755 0
M  V30 24221 H 2305.86 2.76345 -1.11524 0
M  V30 24222 H 2303.4 1.35966 -0.561403 0
M  V30 24223 H 2305.36 4.049 1.00556 0
M  V30 24224 H 2303.99 2.94952 1.3116 0
M  V30 24225 H 2303.04 3.67064 -0.998425 0
M  V30 24226 H 2304.35 4.86605 -1.09621 0
M  V30 24227 H 2303.51 5.98813 0.9751 0
M  V30 24228 H 2302.25 4.73673 1.16127 0
M  V30 24229 H 2301.25 5.39741 -1.04686 0
M  V30 24230 H 2302.48 6.68058 -1.21965 0
M  V30 24231 H 2300.42 6.48093 1.01547 0
M  V30 24232 H 2300.34 7.55215 -0.34445 0
M  V30 24233 H 2301.61 7.7509 0.827994 0
M  V30 24234 N 2305.84 0.60738 1.45426 0
M  V30 24235 C 2307.08 0.105494 2.04128 0
M  V30 24236 C 2307.44 -1.24037 1.46557 0
M  V30 24237 O 2308.64 -1.83296 1.96611 0
M  V30 24238 C 2306.91 0.0665953 3.57338 0
M  V30 24239 S 2308.47 -0.37413 4.37202 0
M  V30 24240 H 2305.29 0.04947 0.709277 0
M  V30 24241 H 2307.89 0.805436 1.78138 0
M  V30 24242 H 2306.6 1.04964 3.9675 0
M  V30 24243 H 2306.13 -0.655347 3.87903 0
M  V30 24244 H 2308.14 -1.62369 4.68882 0
M  V30 24245 N 2307.31 -1.53743 0.34653 0
M  V30 24246 C 2308.73 -1.59599 -0.00528169 0
M  V30 24247 C 2308.93 -1.36239 -1.48463 0
M  V30 24248 O 2307.99 -1.15812 -2.24374 0
M  V30 24249 C 2309.3 -2.97558 0.433568 0
M  V30 24250 C 2310.85 -3.10609 0.386165 0
M  V30 24251 C 2311.32 -4.5095 0.80053 0
M  V30 24252 N 2312.81 -4.57008 0.754834 0
M  V30 24253 C 2313.55 -5.63753 1.04737 0
M  V30 24254 N 2313.04 -6.78337 1.40821 0
M  V30 24255 N 2314.84 -5.53642 0.971414 0
M  V30 24256 H 2306.99 -1.67182 1.31012 0
M  V30 24257 H 2309.25 -0.783118 0.534256 0
M  V30 24258 H 2308.96 -3.19729 1.46515 0
M  V30 24259 H 2308.83 -3.76723 -0.189687 0
M  V30 24260 H 2311.22 -2.8816 -0.636245 0
M  V30 24261 H 2311.3 -2.33496 1.04466 0
M  V30 24262 H 2310.94 -4.74134 1.82096 0
M  V30 24263 H 2310.87 -5.26464 0.119479 0
M  V30 24264 H 2313.36 -3.74726 0.488728 0
M  V30 24265 H 2313.68 -7.55711 1.6162 0
M  V30 24266 H 2312.02 -6.79776 1.44669 0
M  V30 24267 H 2315.21 -4.63004 0.688829 0
M  V30 24268 H 2315.39 -6.3674 1.20274 0
M  V30 24269 N 2308.79 -0.0752207 -1.5742 0
M  V30 24270 C 2309.72 0.920446 -2.09906 0
M  V30 24271 C 2310.74 1.25916 -1.03194 0
M  V30 24272 O 2311.93 1.21575 -1.30697 0
M  V30 24273 C 2309.03 2.2353 -2.5473 0
M  V30 24274 C 2308.2 2.07491 -3.85053 0
M  V30 24275 C 2307.26 3.22311 -4.15935 0
M  V30 24276 O 2306.28 2.97151 -4.85479 0
M  V30 24277 N 2307.49 4.47507 -3.69753 0
M  V30 24278 H 2310.25 0.472307 -2.95955 0
M  V30 24279 H 2307.81 0.110416 -1.61523 0
M  V30 24280 H 2309.8 2.99255 -2.72449 0
M  V30 24281 H 2308.37 2.59831 -1.738 0
M  V30 24282 H 2307.59 1.16213 -3.76681 0
M  V30 24283 H 2308.88 1.94029 -4.70351 0
M  V30 24284 H 2308.28 4.70835 -3.13578 0
M  V30 24285 H 2306.84 5.20248 -3.92665 0
M  V30 24286 N 2310.27 1.56347 0.198358 0
M  V30 24287 C 2311.22 1.90689 1.24987 0
M  V30 24288 C 2312.2 0.772242 1.41157 0
M  V30 24289 O 2313.4 1.03505 1.43582 0
M  V30 24290 C 2310.53 2.2471 2.59538 0
M  V30 24291 C 2309.61 3.44624 2.47175 0
M  V30 24292 N 2310 4.62621 2.04487 0
M  V30 24293 C 2308.3 3.48697 2.78076 0
M  V30 24294 C 2309 5.4478 2.03936 0
M  V30 24295 N 2307.98 4.851 2.45315 0
M  V30 24296 H 2311.78 2.79421 0.9111 0
M  V30 24297 H 2309.29 1.57222 0.406812 0
M  V30 24298 H 2311.29 2.47497 3.35486 0
M  V30 24299 H 2309.95 1.37303 2.94241 0
M  V30 24300 H 2310.96 4.87349 1.75248 0
M  V30 24301 H 2307.64 2.71697 3.16997 0
M  V30 24302 H 2309.03 6.49283 1.7286 0
M  V30 24303 N 2311.75 -0.465951 1.50554 0
M  V30 24304 C 2312.68 -1.5809 1.65952 0
M  V30 24305 C 2313.69 -1.53553 0.540854 0
M  V30 24306 O 2314.88 -1.58848 0.814215 0
M  V30 24307 C 2311.98 -2.9698 1.63267 0
M  V30 24308 C 2311.16 -3.26331 2.9125 0
M  V30 24309 C 2310.21 -4.44801 2.81138 0
M  V30 24310 O 2309.24 -4.44856 3.55094 0
M  V30 24311 N 2310.44 -5.46753 1.95042 0
M  V30 24312 H 2313.21 -1.45296 2.62124 0
M  V30 24313 H 2310.77 -0.654454 1.48083 0
M  V30 24314 H 2312.76 -3.7421 1.54108 0
M  V30 24315 H 2311.33 -3.03517 0.748086 0
M  V30 24316 H 2310.55 -2.37666 3.14497 0
M  V30 24317 H 2311.84 -3.42755 3.76028 0
M  V30 24318 H 2311.24 -5.49532 1.34279 0
M  V30 24319 H 2309.79 -6.22947 1.91783 0
M  V30 24320 N 2313.23 -1.40218 -0.719481 0
M  V30 24321 C 2314.14 -1.42483 -1.86375 0
M  V30 24322 C 2315.15 -0.317864 -1.71072 0
M  V30 24323 O 2316.33 -0.561828 -1.93405 0
M  V30 24324 C 2313.39 -1.28183 -3.22133 0
M  V30 24325 C 2312.45 -2.48988 -3.49719 0
M  V30 24326 C 2311.69 -2.35362 -4.79 0
M  V30 24327 O 2311.91 -1.36534 -5.53818 0
M  V30 24328 O 2310.84 -3.24659 -5.06834 0
M  V30 24329 H 2314.67 -2.38971 -1.87421 0
M  V30 24330 H 2312.26 -1.21499 -0.869384 0
M  V30 24331 H 2314.14 -1.22402 -4.03232 0
M  V30 24332 H 2312.81 -0.347991 -3.21824 0
M  V30 24333 H 2311.72 -2.60347 -2.68645 0
M  V30 24334 H 2313.05 -3.4112 -3.54822 0
M  V30 24335 N 2314.7 0.951297 -1.25651 0
M  V30 24336 C 2315.67 2.03005 -1.06402 0
M  V30 24337 C 2316.67 1.60792 -0.0157077 0
M  V30 24338 O 2317.86 1.72276 -0.2582 0
M  V30 24339 C 2314.99 3.35284 -0.616243 0
M  V30 24340 H 2316.18 2.21514 -2.02168 0
M  V30 24341 H 2313.74 1.12885 -1.08105 0
M  V30 24342 H 2314.47 3.22472 0.343861 0
M  V30 24343 H 2314.26 3.67272 -1.37308 0
M  V30 24344 H 2315.75 4.14558 -0.503105 0
M  V30 24345 N 2316.18 1.07291 1.1544 0
M  V30 24346 C 2317.09 0.704096 2.23785 0
M  V30 24347 C 2318.11 -0.284383 1.7166 0
M  V30 24348 O 2319.28 -0.13117 2.00972 0
M  V30 24349 C 2316.35 0.106853 3.46535 0
M  V30 24350 C 2315.41 1.14849 4.13652 0
M  V30 24351 C 2314.64 0.579653 5.30543 0
M  V30 24352 O 2314.87 -0.604485 5.67188 0
M  V30 24353 O 2313.8 1.32424 5.87152 0
M  V30 24354 H 2317.63 1.60761 2.57662 0
M  V30 24355 H 2315.21 0.845825 1.23151 0
M  V30 24356 H 2317.09 -0.223974 4.20804 0
M  V30 24357 H 2315.77 -0.769994 3.14409 0
M  V30 24358 H 2314.68 1.53166 3.41308 0
M  V30 24359 H 2316.01 1.99722 4.49858 0
M  V30 24360 N 2317.66 -1.32267 0.856927 0
M  V30 24361 C 2318.57 -2.32594 0.306172 0
M  V30 24362 C 2319.59 -1.64148 -0.57718 0
M  V30 24363 O 2320.76 -1.9567 -0.477009 0
M  V30 24364 C 2317.83 -3.43155 -0.4945 0
M  V30 24365 C 2316.89 -4.27287 0.415261 0
M  V30 24366 C 2316.12 -5.32569 -0.347293 0
M  V30 24367 O 2316.34 -5.48167 -1.57698 0
M  V30 24368 O 2315.28 -6.0121 0.288087 0
M  V30 24369 H 2319.1 -2.81596 1.13742 0
M  V30 24370 H 2316.69 -1.35931 0.619926 0
M  V30 24371 H 2318.57 -4.10578 -0.948871 0
M  V30 24372 H 2317.25 -2.96338 -1.30251 0
M  V30 24373 H 2316.15 -3.62665 0.917856 0
M  V30 24374 H 2317.49 -4.77635 1.18852 0
M  V30 24375 N 2319.14 -0.615084 -1.45102 0
M  V30 24376 C 2320.1 0.0895082 -2.29025 0
M  V30 24377 C 2321.1 0.787882 -1.40175 0
M  V30 24378 O 2322.29 0.634905 -1.62218 0
M  V30 24379 C 2319.42 1.13706 -3.21378 0
M  V30 24380 H 2320.62 -0.648433 -2.92806 0
M  V30 24381 H 2318.17 -0.37447 -1.51748 0
M  V30 24382 H 2318.9 1.90552 -2.62413 0
M  V30 24383 H 2318.69 0.640407 -3.86835 0
M  V30 24384 H 2320.18 1.6303 -3.84462 0
M  V30 24385 N 2320.62 1.53557 -0.354678 0
M  V30 24386 C 2322.03 1.596 -0.00318231 0
M  V30 24387 C 2322.23 1.37024 1.47738 0
M  V30 24388 O 2321.29 1.17 2.23757 0
M  V30 24389 C 2322.6 2.97324 -0.449342 0
M  V30 24390 C 2324.15 3.104 -0.402632 0
M  V30 24391 C 2324.63 4.50519 -0.824434 0
M  V30 24392 N 2326.12 4.56601 -0.779059 0
M  V30 24393 C 2326.85 5.6319 -1.07725 0
M  V30 24394 N 2326.35 6.77581 -1.44417 0
M  V30 24395 N 2328.14 5.5312 -1.00076 0
M  V30 24396 H 2320.29 1.66485 -1.31896 0
M  V30 24397 H 2322.55 0.780274 -0.538402 0
M  V30 24398 H 2322.26 3.18947 -1.48208 0
M  V30 24399 H 2322.13 3.76818 0.169706 0
M  V30 24400 H 2324.52 2.88493 0.620954 0
M  V30 24401 H 2324.6 2.32939 -1.05703 0
M  V30 24402 H 2324.25 4.73162 -1.84608 0
M  V30 24403 H 2324.18 5.26394 -0.147397 0
M  V30 24404 H 2326.67 3.74462 -0.508594 0
M  V30 24405 H 2326.98 7.54843 -1.65625 0
M  V30 24406 H 2325.33 6.78999 -1.48272 0
M  V30 24407 H 2328.52 4.62632 -0.713374 0
M  V30 24408 H 2328.69 6.36093 -1.23649 0
M  V30 24409 N 2322.1 0.083568 1.57378 0
M  V30 24410 C 2323.51 -0.273081 1.57246 0
M  V30 24411 C 2323.71 -1.69224 1.09388 0
M  V30 24412 O 2322.77 -2.4063 0.765093 0
M  V30 24413 C 2324.08 -0.07201 3.00614 0
M  V30 24414 C 2325.63 -0.140645 3.12684 0
M  V30 24415 C 2326.1 0.0322899 4.57989 0
M  V30 24416 N 2327.59 -0.0229271 4.63194 0
M  V30 24417 C 2328.33 0.0862949 5.73335 0
M  V30 24418 N 2327.83 0.249702 6.9235 0
M  V30 24419 N 2329.62 0.0283874 5.62093 0
M  V30 24420 H 2321.77 1.01093 1.86799 0
M  V30 24421 H 2324.03 0.395237 0.86168 0
M  V30 24422 H 2323.74 0.907721 3.39784 0
M  V30 24423 H 2323.61 -0.819296 3.68195 0
M  V30 24424 H 2326 -1.11087 2.73393 0
M  V30 24425 H 2326.08 0.63794 2.47718 0
M  V30 24426 H 2325.72 0.999334 4.97972 0
M  V30 24427 H 2325.65 -0.765846 5.21001 0
M  V30 24428 H 2328.15 -0.147154 3.77613 0
M  V30 24429 H 2328.46 0.324869 7.72117 0
M  V30 24430 H 2326.8 0.285219 6.94415 0
M  V30 24431 H 2329.99 -0.0980586 4.67997 0
M  V30 24432 H 2330.17 0.116959 6.47894 0
M  V30 24433 N 2323.57 -1.5645 -0.190064 0
M  V30 24434 C 2324.99 -1.50147 -0.541104 0
M  V30 24435 C 2325.19 -0.784498 -1.85601 0
M  V30 24436 O 2324.25 -0.337095 -2.5024 0
M  V30 24437 C 2325.56 -2.94831 -0.591189 0
M  V30 24438 C 2327.11 -3.05531 -0.679678 0
M  V30 24439 C 2327.58 -4.51636 -0.760828 0
M  V30 24440 N 2329.07 -4.55808 -0.824222 0
M  V30 24441 C 2329.81 -5.66177 -0.907266 0
M  V30 24442 N 2329.3 -6.86224 -0.952301 0
M  V30 24443 N 2331.1 -5.54102 -0.944843 0
M  V30 24444 H 2323.25 -2.01476 0.672385 0
M  V30 24445 H 2325.51 -0.91708 0.240144 0
M  V30 24446 H 2325.22 -3.50367 0.305967 0
M  V30 24447 H 2325.09 -3.48459 -1.44416 0
M  V30 24448 H 2327.48 -2.50042 -1.56726 0
M  V30 24449 H 2327.56 -2.5502 0.199594 0
M  V30 24450 H 2327.2 -5.07752 0.122425 0
M  V30 24451 H 2327.13 -4.99885 -1.65597 0
M  V30 24452 H 2329.62 -3.69368 -0.798461 0
M  V30 24453 H 2329.94 -7.66088 -1.01632 0
M  V30 24454 H 2328.28 -6.88872 -0.920893 0
M  V30 24455 H 2331.47 -4.59238 -0.906532 0
M  V30 24456 H 2331.65 -6.40142 -1.0061 0
M  V30 24457 N 2325.05 0.45796 -1.50799 0
M  V30 24458 C 2325.96 1.57986 -1.73429 0
M  V30 24459 C 2326.98 1.62664 -0.617773 0
M  V30 24460 O 2328.15 1.80289 -0.897646 0
M  V30 24461 C 2325.22 2.94119 -1.83562 0
M  V30 24462 C 2324.28 2.99724 -3.0735 0
M  V30 24463 C 2323.51 4.29363 -3.16991 0
M  V30 24464 O 2323.74 5.20603 -2.33086 0
M  V30 24465 O 2322.67 4.4083 -4.0982 0
M  V30 24466 H 2326.5 1.41812 -2.68557 0
M  V30 24467 H 2324.08 0.638836 -1.35053 0
M  V30 24468 H 2325.96 3.74948 -1.92332 0
M  V30 24469 H 2324.64 3.10464 -0.916191 0
M  V30 24470 H 2323.54 2.17924 -3.04072 0
M  V30 24471 H 2324.88 2.88319 -3.98915 0
M  V30 24472 N 2326.53 1.40598 0.712035 0
M  V30 24473 C 2327.44 1.43469 1.85617 0
M  V30 24474 C 2328.46 0.326932 1.70901 0
M  V30 24475 O 2329.63 0.572077 1.93104 0
M  V30 24476 C 2326.7 1.2989 3.21449 0
M  V30 24477 C 2325.76 2.50839 3.48394 0
M  V30 24478 C 2324.99 2.37899 4.77745 0
M  V30 24479 O 2325.21 1.39469 5.53086 0
M  V30 24480 O 2324.15 3.27342 5.05105 0
M  V30 24481 H 2327.97 2.39961 1.86151 0
M  V30 24482 H 2325.56 1.21959 0.862929 0
M  V30 24483 H 2327.44 1.24538 4.02577 0
M  V30 24484 H 2326.12 0.365053 3.21635 0
M  V30 24485 H 2325.02 2.61768 2.67261 0
M  V30 24486 H 2326.36 3.42996 3.53007 0
M  V30 24487 N 2328.01 -0.94462 1.26153 0
M  V30 24488 C 2328.95 -2.04283 1.07411 0
M  V30 24489 C 2329.92 -1.66088 -0.0198121 0
M  V30 24490 O 2331.11 -1.90291 0.139297 0
M  V30 24491 C 2328.25 -3.37728 0.709509 0
M  V30 24492 C 2327.36 -3.8898 1.87933 0
M  V30 24493 C 2326.5 -5.10795 1.45816 0
M  V30 24494 C 2325.54 -5.543 2.59649 0
M  V30 24495 N 2324.67 -6.67321 2.18238 0
M  V30 24496 H 2329.51 -2.19647 2.01393 0
M  V30 24497 H 2327.05 -1.07624 1.00277 0
M  V30 24498 H 2329.01 -4.14441 0.479021 0
M  V30 24499 H 2327.64 -3.22221 -0.193332 0
M  V30 24500 H 2326.69 -3.08697 2.22285 0
M  V30 24501 H 2328 -4.17208 2.73384 0
M  V30 24502 H 2327.16 -5.94957 1.18791 0
M  V30 24503 H 2325.9 -4.84304 0.5745 0
M  V30 24504 H 2324.9 -4.68697 2.87407 0
M  V30 24505 H 2326.13 -5.82794 3.48609 0
M  V30 24506 H 2324.07 -6.4252 1.32301 0
M  V30 24507 H 2323.99 -6.95118 2.97233 0
M  V30 24508 H 2325.26 -7.54866 1.94416 0
M  V30 24509 N 2329.49 -1.07901 -1.1487 0
M  V30 24510 C 2330.9 -0.80563 -1.37774 0
M  V30 24511 C 2331.1 0.587521 -1.92744 0
M  V30 24512 O 2330.16 1.34525 -2.1368 0
M  V30 24513 C 2331.47 -1.88406 -2.34358 0
M  V30 24514 C 2333.02 -1.90947 -2.48009 0
M  V30 24515 C 2333.49 -2.97889 -3.47888 0
M  V30 24516 N 2334.98 -2.97028 -3.55428 0
M  V30 24517 C 2335.72 -3.76419 -4.32546 0
M  V30 24518 N 2335.22 -4.65676 -5.1295 0
M  V30 24519 N 2337.01 -3.64743 -4.27691 0
M  V30 24520 H 2329.16 -1.97743 -0.77533 0
M  V30 24521 H 2331.42 -0.857839 -0.403506 0
M  V30 24522 H 2331.13 -2.88538 -2.01093 0
M  V30 24523 H 2331 -1.74895 -3.34203 0
M  V30 24524 H 2333.39 -0.914628 -2.80568 0
M  V30 24525 H 2333.47 -2.08536 -1.48143 0
M  V30 24526 H 2333.11 -3.97576 -3.16062 0
M  V30 24527 H 2333.04 -2.77546 -4.47522 0
M  V30 24528 H 2335.54 -2.32332 -2.98044 0
M  V30 24529 H 2335.85 -5.22872 -5.69056 0
M  V30 24530 H 2334.19 -4.69721 -5.12237 0
M  V30 24531 H 2337.38 -2.94385 -3.63944 0
M  V30 24532 H 2337.56 -4.26856 -4.87542 0
M  V30 24533 N 2330.96 1.31811 -0.863929 0
M  V30 24534 C 2331.89 2.31144 -0.330883 0
M  V30 24535 C 2332.87 1.60088 0.574977 0
M  V30 24536 O 2334.06 1.87831 0.493271 0
M  V30 24537 C 2331.19 3.44055 0.473679 0
M  V30 24538 C 2330.14 4.26659 -0.338556 0
M  V30 24539 C 2329.47 5.3142 0.591318 0
M  V30 24540 C 2330.77 4.98165 -1.56935 0
M  V30 24541 H 2332.46 2.75977 -1.16091 0
M  V30 24542 H 2330.01 1.32678 -0.559681 0
M  V30 24543 H 2331.96 4.12592 0.857071 0
M  V30 24544 H 2330.69 2.97973 1.33716 0
M  V30 24545 H 2329.35 3.5978 -0.703818 0
M  V30 24546 H 2328.99 4.8159 1.4519 0
M  V30 24547 H 2328.69 5.87577 0.0517989 0
M  V30 24548 H 2330.22 6.02819 0.971685 0
M  V30 24549 H 2331.63 5.59333 -1.25774 0
M  V30 24550 H 2330.03 5.6409 -2.04749 0
M  V30 24551 H 2331.1 4.25497 -2.32552 0
M  V30 24552 N 2332.44 0.62277 1.44773 0
M  V30 24553 C 2333.86 0.287679 1.56986 0
M  V30 24554 C 2334.06 -1.20942 1.61169 0
M  V30 24555 O 2333.11 -1.99312 1.55019 0
M  V30 24556 C 2334.43 0.972238 2.84549 0
M  V30 24557 C 2335.97 0.949588 2.98248 0
M  V30 24558 C 2336.45 1.61445 4.28602 0
M  V30 24559 N 2337.94 1.58065 4.35396 0
M  V30 24560 C 2338.68 2.0641 5.3496 0
M  V30 24561 N 2338.17 2.62908 6.40977 0
M  V30 24562 N 2339.96 1.97088 5.26415 0
M  V30 24563 H 2332.12 1.59465 1.40302 0
M  V30 24564 H 2334.38 0.66889 0.671782 0
M  V30 24565 H 2334.08 2.02698 2.87413 0
M  V30 24566 H 2333.96 0.504837 3.73806 0
M  V30 24567 H 2336.35 -0.0966549 2.94942 0
M  V30 24568 H 2336.43 1.4554 2.10361 0
M  V30 24569 H 2336.07 2.6601 4.32667 0
M  V30 24570 H 2336 1.08354 5.15332 0
M  V30 24571 H 2338.49 1.16807 3.59395 0
M  V30 24572 H 2338.8 2.97552 7.1322 0
M  V30 24573 H 2337.15 2.66955 6.41685 0
M  V30 24574 H 2340.34 1.52677 4.42501 0
M  V30 24575 H 2340.51 2.35076 6.03857 0
M  V30 24576 N 2333.92 -1.53367 0.362817 0
M  V30 24577 C 2335.34 -1.59596 0.0116462 0
M  V30 24578 C 2335.54 -1.37806 -1.4701 0
M  V30 24579 O 2334.59 -1.18185 -2.23133 0
M  V30 24580 C 2335.9 -2.97081 0.465104 0
M  V30 24581 C 2337.45 -3.10182 0.419088 0
M  V30 24582 C 2337.93 -4.50075 0.848314 0
M  V30 24583 N 2339.42 -4.56182 0.803263 0
M  V30 24584 C 2340.15 -5.62611 1.1071 0
M  V30 24585 N 2339.65 -6.76805 1.48008 0
M  V30 24586 N 2341.44 -5.52581 1.03008 0
M  V30 24587 H 2333.59 -1.65783 1.32777 0
M  V30 24588 H 2335.86 -0.777408 0.542532 0
M  V30 24589 H 2335.56 -3.18157 1.49897 0
M  V30 24590 H 2335.44 -3.76903 -0.14972 0
M  V30 24591 H 2337.82 -2.88818 -0.605646 0
M  V30 24592 H 2337.9 -2.32375 1.06937 0
M  V30 24593 H 2337.55 -4.72176 1.87115 0
M  V30 24594 H 2337.48 -5.26308 0.175311 0
M  V30 24595 H 2339.97 -3.74187 0.528446 0
M  V30 24596 H 2340.28 -7.53954 1.69626 0
M  V30 24597 H 2338.63 -6.78204 1.51871 0
M  V30 24598 H 2341.82 -4.62247 0.737898 0
M  V30 24599 H 2341.99 -6.35429 1.27021 0
M  V30 24600 N 2335.4 -0.091913 -1.57332 0
M  V30 24601 C 2336.33 0.865333 -2.16874 0
M  V30 24602 C 2337.31 1.29644 -1.1012 0
M  V30 24603 O 2338.49 1.3639 -1.38244 0
M  V30 24604 C 2335.62 2.12564 -2.74652 0
M  V30 24605 C 2334.58 1.83326 -3.8675 0
M  V30 24606 C 2333.9 3.16158 -4.31217 0
M  V30 24607 C 2335.2 1.12271 -5.10091 0
M  V30 24608 H 2336.9 0.369255 -2.97114 0
M  V30 24609 H 2334.44 0.176168 -1.42918 0
M  V30 24610 H 2336.4 2.79964 -3.14957 0
M  V30 24611 H 2335.12 2.64449 -1.91662 0
M  V30 24612 H 2333.78 1.18325 -3.4698 0
M  V30 24613 H 2333.43 3.65924 -3.45121 0
M  V30 24614 H 2333.13 2.97379 -5.06793 0
M  V30 24615 H 2334.65 3.84722 -4.74153 0
M  V30 24616 H 2336.07 1.69776 -5.47585 0
M  V30 24617 H 2334.46 1.03682 -5.91075 0
M  V30 24618 H 2335.53 0.104956 -4.84786 0
M  V30 24619 N 2336.88 1.56548 0.181765 0
M  V30 24620 C 2337.79 1.98817 1.24535 0
M  V30 24621 C 2338.8 0.897887 1.49044 0
M  V30 24622 O 2339.98 1.2047 1.61397 0
M  V30 24623 C 2337.04 2.33059 2.56679 0
M  V30 24624 C 2336.1 3.55863 2.40125 0
M  V30 24625 C 2335.34 3.88463 3.65968 0
M  V30 24626 O 2335.56 3.22169 4.70705 0
M  V30 24627 O 2334.49 4.81849 3.60701 0
M  V30 24628 H 2338.32 2.89538 0.916596 0
M  V30 24629 H 2335.91 1.44279 0.387817 0
M  V30 24630 H 2337.79 2.561 3.3465 0
M  V30 24631 H 2336.46 1.45503 2.89155 0
M  V30 24632 H 2335.37 3.38054 1.6022 0
M  V30 24633 H 2336.7 4.43928 2.12578 0
M  V30 24634 N 2338.35 -0.449957 1.5104 0
M  V30 24635 C 2339.77 -0.785438 1.38935 0
M  V30 24636 C 2339.97 -1.96136 0.461851 0
M  V30 24637 O 2339.03 -2.52348 -0.0876945 0
M  V30 24638 C 2340.34 -1.07765 2.80726 0
M  V30 24639 C 2341.89 -1.18285 2.89789 0
M  V30 24640 C 2342.36 -1.50807 4.32459 0
M  V30 24641 N 2343.85 -1.57757 4.35508 0
M  V30 24642 C 2344.59 -1.84468 5.42917 0
M  V30 24643 N 2344.08 -2.09056 6.60505 0
M  V30 24644 N 2345.88 -1.86146 5.30383 0
M  V30 24645 H 2338.03 0.324684 2.09904 0
M  V30 24646 H 2340.29 0.0828123 0.944376 0
M  V30 24647 H 2340 -0.286437 3.50532 0
M  V30 24648 H 2339.87 -2.00853 3.19277 0
M  V30 24649 H 2342.26 -1.96471 2.20189 0
M  V30 24650 H 2342.34 -0.231269 2.54752 0
M  V30 24651 H 2341.98 -0.731534 5.02604 0
M  V30 24652 H 2341.91 -2.4715 4.64999 0
M  V30 24653 H 2344.4 -1.40709 3.50727 0
M  V30 24654 H 2344.72 -2.28772 7.38162 0
M  V30 24655 H 2343.06 -2.06405 6.63643 0
M  V30 24656 H 2346.25 -1.66447 4.37508 0
M  V30 24657 H 2346.43 -2.06626 6.14174 0
M  V30 24658 N 2339.83 -1.40974 -0.704569 0
M  V30 24659 C 2341.25 -1.23245 -1.01404 0
M  V30 24660 C 2341.45 -0.115434 -2.01169 0
M  V30 24661 O 2340.5 0.523104 -2.47022 0
M  V30 24662 C 2341.82 -2.57839 -1.54724 0
M  V30 24663 C 2343.37 -2.64945 -1.66653 0
M  V30 24664 C 2343.84 -3.99834 -2.23376 0
M  V30 24665 N 2345.33 -4.01633 -2.30749 0
M  V30 24666 C 2346.07 -5.02799 -2.75646 0
M  V30 24667 N 2345.56 -6.14357 -3.20214 0
M  V30 24668 N 2347.36 -4.90164 -2.75129 0
M  V30 24669 H 2339.51 -2.12355 -0.0434912 0
M  V30 24670 H 2341.77 -0.944457 -0.0818785 0
M  V30 24671 H 2341.48 -3.40285 -0.888772 0
M  V30 24672 H 2341.35 -2.79698 -2.53079 0
M  V30 24673 H 2343.74 -1.82864 -2.31614 0
M  V30 24674 H 2343.82 -2.46906 -0.668674 0
M  V30 24675 H 2343.46 -4.82359 -1.59034 0
M  V30 24676 H 2343.39 -4.15209 -3.23897 0
M  V30 24677 H 2345.88 -3.21082 -1.99285 0
M  V30 24678 H 2346.2 -6.8743 -3.53072 0
M  V30 24679 H 2344.54 -6.17907 -3.18145 0
M  V30 24680 H 2347.73 -4.02099 -2.39654 0
M  V30 24681 H 2347.9 -5.69146 -3.09802 0
M  V30 24682 N 2341.31 0.937917 -1.26653 0
M  V30 24683 C 2342.73 1.21203 -1.03836 0
M  V30 24684 C 2342.93 2.00131 0.234467 0
M  V30 24685 O 2341.98 2.34241 0.942726 0
M  V30 24686 C 2343.3 1.97013 -2.27171 0
M  V30 24687 C 2344.84 2.09992 -2.32105 0
M  V30 24688 C 2345.32 2.89204 -3.55141 0
M  V30 24689 N 2346.81 2.96776 -3.55638 0
M  V30 24690 C 2347.54 3.58505 -4.47506 0
M  V30 24691 N 2347.04 4.21707 -5.49668 0
M  V30 24692 N 2348.83 3.55809 -4.35151 0
M  V30 24693 H 2340.98 0.410354 -2.08398 0
M  V30 24694 H 2343.25 0.244098 -0.916035 0
M  V30 24695 H 2342.95 1.46428 -3.19768 0
M  V30 24696 H 2342.83 2.97667 -2.31677 0
M  V30 24697 H 2345.21 2.59766 -1.4002 0
M  V30 24698 H 2345.3 1.0859 -2.31607 0
M  V30 24699 H 2344.94 2.40115 -4.47557 0
M  V30 24700 H 2344.87 3.90869 -3.52887 0
M  V30 24701 H 2347.36 2.51847 -2.81747 0
M  V30 24702 H 2347.67 4.66716 -6.15951 0
M  V30 24703 H 2346.02 4.20284 -5.53522 0
M  V30 24704 H 2349.21 3.05628 -3.54555 0
M  V30 24705 H 2349.38 4.03627 -5.06941 0
M  V30 24706 N 2342.79 1.08509 1.14296 0
M  V30 24707 C 2344.2 0.812926 1.37345 0
M  V30 24708 C 2344.4 -0.577291 1.93053 0
M  V30 24709 O 2343.46 -1.3339 2.14391 0
M  V30 24710 C 2344.77 1.89646 2.33356 0
M  V30 24711 C 2346.32 1.92259 2.46993 0
M  V30 24712 C 2346.8 2.9973 3.46303 0
M  V30 24713 N 2348.29 2.98908 3.53847 0
M  V30 24714 C 2349.02 3.78708 4.30544 0
M  V30 24715 N 2348.52 4.68389 5.10474 0
M  V30 24716 N 2350.31 3.67006 4.2575 0
M  V30 24717 H 2342.46 1.98152 0.764832 0
M  V30 24718 H 2344.73 0.859966 0.398951 0
M  V30 24719 H 2344.43 2.89601 1.9956 0
M  V30 24720 H 2344.31 1.76665 3.33271 0
M  V30 24721 H 2346.69 0.929495 2.80079 0
M  V30 24722 H 2346.77 2.09319 1.47035 0
M  V30 24723 H 2346.42 3.99247 3.1395 0
M  V30 24724 H 2346.35 2.79915 4.46044 0
M  V30 24725 H 2348.84 2.33909 2.96808 0
M  V30 24726 H 2349.15 5.25883 5.66275 0
M  V30 24727 H 2347.5 4.72431 5.09739 0
M  V30 24728 H 2350.69 2.96311 3.62378 0
M  V30 24729 H 2350.86 4.29436 4.85272 0
M  V30 24730 N 2344.27 -1.31351 0.870907 0
M  V30 24731 C 2345.49 -2.01382 0.495992 0
M  V30 24732 C 2345.92 -1.64937 -0.904295 0
M  V30 24733 O 2345.27 -0.858494 -1.59686 0
M  V30 24734 C 2345.32 -3.54481 0.661496 0
M  V30 24735 O 2344.43 -4.11316 -0.298778 0
M  V30 24736 H 2343.77 -0.634051 0.197169 0
M  V30 24737 H 2346.3 -1.67525 1.17458 0
M  V30 24738 H 2346.31 -4.04206 0.555143 0
M  V30 24739 H 2344.98 -3.80347 1.68253 0
M  V30 24740 H 2343.56 -3.72609 -0.147303 0
M  V30 24741 N 2345.74 -0.630439 -1.44441 0
M  V30 24742 C 2346.97 -0.141707 -2.06414 0
M  V30 24743 C 2347.39 1.18342 -1.47107 0
M  V30 24744 O 2346.74 1.72573 -0.593692 0
M  V30 24745 C 2346.8 -0.020042 -3.61494 0
M  V30 24746 O 2346.52 -1.29277 -4.18592 0
M  V30 24747 C 2348.02 0.497467 -4.405 0
M  V30 24748 H 2345.24 -0.0793569 -0.666291 0
M  V30 24749 H 2347.78 -0.864647 -1.85322 0
M  V30 24750 H 2345.94 0.653335 -3.81851 0
M  V30 24751 H 2346.35 -1.13716 -5.12024 0
M  V30 24752 H 2347.82 0.531611 -5.49434 0
M  V30 24753 H 2348.3 1.52438 -4.11897 0
M  V30 24754 H 2348.91 -0.142636 -4.25061 0
M  V30 24755 N 2347.22 1.53172 -0.370945 0
M  V30 24756 C 2348.47 2.01333 0.217066 0
M  V30 24757 C 2348.8 1.25805 1.48335 0
M  V30 24758 O 2348.05 0.341494 1.92697 0
M  V30 24759 C 2348.35 3.53148 0.549634 0
M  V30 24760 C 2348.02 4.46576 -0.622951 0
M  V30 24761 C 2346.68 4.71836 -0.944678 0
M  V30 24762 C 2349.03 5.01814 -1.40828 0
M  V30 24763 C 2346.36 5.49585 -2.05361 0
M  V30 24764 C 2348.71 5.80774 -2.50767 0
M  V30 24765 C 2347.38 6.04319 -2.83469 0
M  V30 24766 H 2346.65 0.736731 0.0794301 0
M  V30 24767 H 2349.29 1.84735 -0.504514 0
M  V30 24768 H 2347.6 3.67723 1.3523 0
M  V30 24769 H 2349.29 3.87891 1.01693 0
M  V30 24770 H 2345.88 4.27067 -0.362165 0
M  V30 24771 H 2350.07 4.8224 -1.17297 0
M  V30 24772 H 2345.32 5.66046 -2.3109 0
M  V30 24773 H 2349.5 6.22582 -3.12033 0
M  V30 24774 H 2347.13 6.64349 -3.69519 0
M  V30 24775 N 2348.7 0.100255 1.57281 0
M  V30 24776 C 2350.11 -0.428075 1.81726 0
M  V30 24777 C 2350.46 -1.67832 1.01622 0
M  V30 24778 O 2349.59 -2.14984 0.247136 0
M  V30 24779 C 2350.18 -0.783412 3.29618 0
M  V30 24780 C 2348.74 -1.25646 3.5481 0
M  V30 24781 C 2347.89 -0.255704 2.76119 0
M  V30 24782 H 2350.84 0.325635 1.55323 0
M  V30 24783 H 2350.86 -1.6425 3.43223 0
M  V30 24784 H 2350.37 0.126718 3.87893 0
M  V30 24785 H 2348.47 -2.18413 3.01872 0
M  V30 24786 H 2348.59 -1.21473 4.63445 0
M  V30 24787 H 2346.95 -0.738914 2.43746 0
M  V30 24788 H 2347.73 0.647196 3.37144 0
M  V30 24789 N 2350.18 -1.56643 -0.17346 0
M  V30 24790 C 2351.4 -1.86364 -0.910116 0
M  V30 24791 C 2351.83 -0.686349 -1.75131 0
M  V30 24792 O 2351.19 0.364612 -1.77596 0
M  V30 24793 C 2351.24 -3.14485 -1.76442 0
M  V30 24794 O 2350.34 -2.96558 -2.86579 0
M  V30 24795 H 2349.68 -0.613052 -0.255076 0
M  V30 24796 H 2352.21 -2.03874 -0.172247 0
M  V30 24797 H 2352.22 -3.45835 -2.16477 0
M  V30 24798 H 2350.9 -3.99785 -1.14651 0
M  V30 24799 H 2349.47 -2.76557 -2.50141 0
M  V30 24800 N 2351.66 0.44194 -1.51277 0
M  V30 24801 C 2353.07 1.02196 -1.56246 0
M  V30 24802 C 2353.42 1.92422 -0.383183 0
M  V30 24803 O 2352.54 2.10531 0.500576 0
M  V30 24804 C 2353.14 1.86019 -2.83165 0
M  V30 24805 C 2351.7 2.39079 -2.9072 0
M  V30 24806 C 2350.85 1.18171 -2.5086 0
M  V30 24807 H 2353.8 0.223389 -1.5712 0
M  V30 24808 H 2353.82 2.7142 -2.66667 0
M  V30 24809 H 2353.33 1.20325 -3.68976 0
M  V30 24810 H 2351.43 3.08241 -2.09328 0
M  V30 24811 H 2351.54 2.72191 -3.9427 0
M  V30 24812 H 2349.91 1.52561 -2.03954 0
M  V30 24813 H 2350.69 0.540942 -3.39011 0
M  V30 24814 N 2353.14 1.41345 0.697083 0
M  V30 24815 C 2354.05 1.4543 1.84085 0
M  V30 24816 C 2355.06 0.34504 1.70545 0
M  V30 24817 O 2356.24 0.592526 1.92487 0
M  V30 24818 C 2353.3 1.33292 3.20053 0
M  V30 24819 C 2352.36 2.5452 3.45713 0
M  V30 24820 C 2351.6 2.42952 4.75195 0
M  V30 24821 O 2351.82 1.45328 5.51576 0
M  V30 24822 O 2350.75 3.32681 5.01604 0
M  V30 24823 H 2354.58 2.41922 1.83595 0
M  V30 24824 H 2352.16 1.22867 0.849945 0
M  V30 24825 H 2354.05 1.28801 4.01233 0
M  V30 24826 H 2352.72 0.399146 3.2123 0
M  V30 24827 H 2351.63 2.64588 2.64469 0
M  V30 24828 H 2352.96 3.46721 3.4935 0
M  V30 24829 N 2354.61 -0.931187 1.27148 0
M  V30 24830 C 2355.58 -2.01287 1.09618 0
M  V30 24831 C 2356.58 -1.60747 0.0412864 0
M  V30 24832 O 2357.77 -1.71843 0.285575 0
M  V30 24833 C 2354.9 -3.34261 0.669505 0
M  V30 24834 H 2356.09 -2.18269 2.05666 0
M  V30 24835 H 2353.64 -1.11151 1.09887 0
M  V30 24836 H 2354.38 -3.22978 -0.292515 0
M  V30 24837 H 2354.16 -3.65042 1.43133 0
M  V30 24838 H 2355.65 -4.13705 0.568994 0
M  V30 24839 N 2356.09 -1.09114 -1.13719 0
M  V30 24840 C 2357.02 -0.685505 -2.18709 0
M  V30 24841 C 2358.04 0.27104 -1.60528 0
M  V30 24842 O 2359.23 0.0575835 -1.78407 0
M  V30 24843 C 2356.33 0.0110659 -3.38898 0
M  V30 24844 C 2355.5 -0.966206 -4.26595 0
M  V30 24845 C 2354.56 -0.303632 -5.25323 0
M  V30 24846 O 2353.58 -0.950276 -5.61212 0
M  V30 24847 N 2354.79 0.94355 -5.7278 0
M  V30 24848 H 2357.55 -1.58875 -2.54124 0
M  V30 24849 H 2355.11 -0.978165 -1.2901 0
M  V30 24850 H 2357.1 0.465446 -4.02015 0
M  V30 24851 H 2355.67 0.816511 -3.01748 0
M  V30 24852 H 2354.89 -1.59923 -3.60303 0
M  V30 24853 H 2356.18 -1.62819 -4.82045 0
M  V30 24854 H 2355.58 1.48853 -5.45765 0
M  V30 24855 H 2354.14 1.3413 -6.3785 0
M  V30 24856 N 2357.57 1.30887 -0.877861 0
M  V30 24857 C 2358.99 1.49041 -0.57087 0
M  V30 24858 C 2359.19 1.80625 0.893127 0
M  V30 24859 O 2358.24 1.88961 1.67481 0
M  V30 24860 C 2359.55 2.61876 -1.47789 0
M  V30 24861 C 2361.1 2.75758 -1.48076 0
M  V30 24862 C 2361.58 3.91698 -2.37354 0
M  V30 24863 N 2363.07 3.98997 -2.35278 0
M  V30 24864 C 2363.8 4.87999 -3.01072 0
M  V30 24865 N 2363.3 5.81847 -3.76066 0
M  V30 24866 N 2365.09 4.8131 -2.9034 0
M  V30 24867 H 2357.24 1.08656 -1.82504 0
M  V30 24868 H 2359.51 0.53763 -0.780806 0
M  V30 24869 H 2359.21 2.45337 -2.51998 0
M  V30 24870 H 2359.09 3.58195 -1.18222 0
M  V30 24871 H 2361.47 2.91707 -0.446217 0
M  V30 24872 H 2361.55 1.80082 -1.81671 0
M  V30 24873 H 2361.2 3.76506 -3.40889 0
M  V30 24874 H 2361.13 4.86698 -2.01079 0
M  V30 24875 H 2363.62 3.31857 -1.80774 0
M  V30 24876 H 2363.93 6.46507 -4.23378 0
M  V30 24877 H 2362.28 5.81802 -3.80174 0
M  V30 24878 H 2365.47 4.0697 -2.31285 0
M  V30 24879 H 2365.64 5.50465 -3.41895 0
M  V30 24880 N 2359.05 0.638091 1.44105 0
M  V30 24881 C 2360.46 0.304314 1.56672 0
M  V30 24882 C 2360.66 -1.19225 1.62442 0
M  V30 24883 O 2359.72 -1.97657 1.57124 0
M  V30 24884 C 2361.03 1.00236 2.83502 0
M  V30 24885 C 2362.58 0.981168 2.97224 0
M  V30 24886 C 2363.06 1.65982 4.26865 0
M  V30 24887 N 2364.55 1.62674 4.33695 0
M  V30 24888 C 2365.28 2.12072 5.32741 0
M  V30 24889 N 2364.78 2.69692 6.38152 0
M  V30 24890 N 2366.57 2.0266 5.24295 0
M  V30 24891 H 2358.72 1.60945 1.38602 0
M  V30 24892 H 2360.98 0.675977 0.66465 0
M  V30 24893 H 2360.69 2.05735 2.85247 0
M  V30 24894 H 2360.56 0.544456 3.7325 0
M  V30 24895 H 2362.95 -0.065367 2.95028 0
M  V30 24896 H 2363.03 1.47763 2.08806 0
M  V30 24897 H 2362.68 2.70584 4.29822 0
M  V30 24898 H 2362.61 1.13813 5.14154 0
M  V30 24899 H 2365.1 1.20612 3.58136 0
M  V30 24900 H 2365.41 3.05099 7.10024 0
M  V30 24901 H 2363.76 2.73746 6.38818 0
M  V30 24902 H 2366.95 1.57361 4.40857 0
M  V30 24903 H 2367.12 2.41468 6.0133 0
M  V30 24904 N 2360.53 -1.52973 0.379063 0
M  V30 24905 C 2361.94 -1.86447 -0.0972197 0
M  V30 24906 C 2362.29 -1.29916 -1.47025 0
M  V30 24907 O 2361.41 -0.626469 -2.07134 0
M  V30 24908 C 2362.01 -3.38304 -0.183189 0
M  V30 24909 C 2360.57 -3.71526 -0.603747 0
M  V30 24910 C 2359.71 -2.76254 0.240681 0
M  V30 24911 H 2362.66 -1.47029 0.597341 0
M  V30 24912 H 2362.69 -3.67008 -1.00426 0
M  V30 24913 H 2362.2 -3.79419 0.816257 0
M  V30 24914 H 2360.3 -3.35976 -1.61093 0
M  V30 24915 H 2360.41 -4.77677 -0.369002 0
M  V30 24916 H 2358.78 -2.53015 -0.292503 0
M  V30 24917 H 2359.56 -3.20204 1.23792 0
M  V30 24918 N 2362 -0.108595 -1.57225 0
M  V30 24919 C 2363.23 0.559107 -1.98891 0
M  V30 24920 C 2363.64 1.6142 -0.986918 0
M  V30 24921 O 2362.98 1.83676 0.0298382 0
M  V30 24922 C 2363.05 1.25309 -3.36954 0
M  V30 24923 C 2362.71 0.347168 -4.55679 0
M  V30 24924 C 2363.71 -0.410087 -5.1828 0
M  V30 24925 C 2361.39 0.261279 -5.0162 0
M  V30 24926 C 2363.39 -1.24107 -6.25201 0
M  V30 24927 C 2361.07 -0.573345 -6.08404 0
M  V30 24928 C 2362.07 -1.32316 -6.70061 0
M  V30 24929 O 2361.76 -2.14394 -7.74784 0
M  V30 24930 H 2361.49 0.153481 -0.658346 0
M  V30 24931 H 2364.05 -0.18862 -2.04532 0
M  V30 24932 H 2362.28 2.04767 -3.28036 0
M  V30 24933 H 2363.96 1.81666 -3.62977 0
M  V30 24934 H 2364.73 -0.353542 -4.8371 0
M  V30 24935 H 2360.61 0.834577 -4.53383 0
M  V30 24936 H 2364.15 -1.82681 -6.73256 0
M  V30 24937 H 2360.05 -0.631321 -6.42405 0
M  V30 24938 H 2360.82 -2.07223 -7.91834 0
M  V30 24939 N 2363.48 1.56732 0.16515 0
M  V30 24940 C 2364.71 1.86213 0.894886 0
M  V30 24941 C 2365.12 0.692658 1.76065 0
M  V30 24942 O 2364.46 -0.347272 1.80388 0
M  V30 24943 C 2364.52 3.10182 1.81734 0
M  V30 24944 C 2364.19 4.42795 1.13056 0
M  V30 24945 C 2365.19 5.17557 0.493078 0
M  V30 24946 C 2362.87 4.89529 1.12548 0
M  V30 24947 C 2364.86 6.37246 -0.140321 0
M  V30 24948 C 2362.55 6.09146 0.488259 0
M  V30 24949 C 2363.55 6.82849 -0.143531 0
M  V30 24950 O 2363.24 8.00197 -0.77069 0
M  V30 24951 H 2362.97 0.621849 0.265103 0
M  V30 24952 H 2365.52 2.0471 0.168206 0
M  V30 24953 H 2363.75 2.87647 2.5845 0
M  V30 24954 H 2365.44 3.26059 2.41745 0
M  V30 24955 H 2366.21 4.82529 0.488939 0
M  V30 24956 H 2362.09 4.32097 1.60664 0
M  V30 24957 H 2365.63 6.94713 -0.634054 0
M  V30 24958 H 2361.53 6.43637 0.490002 0
M  V30 24959 H 2362.3 8.15749 -0.670552 0
M  V30 24960 N 2364.96 -0.433911 1.51509 0
M  V30 24961 C 2365.92 -1.50946 1.72476 0
M  V30 24962 C 2366.92 -1.49397 0.594751 0
M  V30 24963 O 2368.11 -1.51358 0.862342 0
M  V30 24964 C 2365.24 -2.90471 1.78437 0
M  V30 24965 H 2366.44 -1.33658 2.68469 0
M  V30 24966 H 2363.99 -0.662811 1.4155 0
M  V30 24967 H 2364.73 -3.1316 0.8427 0
M  V30 24968 H 2364.51 -2.93 2.60563 0
M  V30 24969 H 2366 -3.68488 1.96485 0
M  V30 24970 N 2366.44 -1.41713 -0.689577 0
M  V30 24971 C 2367.72 -1.3188 -1.44454 0
M  V30 24972 C 2368.1 0.0508166 -2.11039 0
M  V30 24973 O 2367.44 1.06544 -2.0214 0
M  V30 24974 C 2367.65 -2.47649 -2.45908 0
M  V30 24975 C 2369 -2.8909 -3.10986 0
M  V30 24976 O 2370.03 -2.47432 -2.56234 0
M  V30 24977 O 2368.88 -3.61144 -4.10167 0
M  V30 24978 H 2365.98 -0.51932 -0.643611 0
M  V30 24979 H 2368.52 -1.5369 -0.719549 0
M  V30 24980 H 2367.3 -3.39018 -1.95403 0
M  V30 24981 H 2366.92 -2.27748 -3.25909 0
M  V30 24982 N 2367.92 0.924431 -1.2764 0
M  V30 24983 C 2369.15 1.704 -1.16822 0
M  V30 24984 C 2369.55 1.87159 0.277158 0
M  V30 24985 O 2368.9 1.39069 1.20023 0
M  V30 24986 C 2368.96 3.12163 -1.78311 0
M  V30 24987 C 2368.62 3.18729 -3.27507 0
M  V30 24988 C 2369.62 3.00731 -4.24095 0
M  V30 24989 C 2367.31 3.41583 -3.68275 0
M  V30 24990 C 2369.3 3.05482 -5.59428 0
M  V30 24991 C 2366.99 3.45968 -5.03736 0
M  V30 24992 C 2367.98 3.27936 -5.99122 0
M  V30 24993 O 2367.67 3.32061 -7.32114 0
M  V30 24994 H 2367.4 0.539792 -0.40694 0
M  V30 24995 H 2369.96 1.16623 -1.6908 0
M  V30 24996 H 2368.19 3.67435 -1.20534 0
M  V30 24997 H 2369.88 3.721 -1.62161 0
M  V30 24998 H 2370.64 2.82912 -3.93936 0
M  V30 24999 H 2366.52 3.54668 -2.94502 0
M  V30 25000 H 2370.07 2.91326 -6.33857 0
M  V30 25001 H 2365.96 3.63312 -5.33549 0
M  V30 25002 H 2366.73 3.48494 -7.40604 0
M  V30 25003 N 2369.39 1.09715 1.13139 0
M  V30 25004 C 2370.62 0.857114 1.88861 0
M  V30 25005 C 2371.04 -0.586273 1.7873 0
M  V30 25006 O 2370.4 -1.4122 1.13695 0
M  V30 25007 C 2370.45 1.30075 3.36323 0
M  V30 25008 O 2369.55 0.461079 4.09814 0
M  V30 25009 H 2368.9 0.310172 0.587103 0
M  V30 25010 H 2371.43 1.46205 1.43127 0
M  V30 25011 H 2371.44 1.28745 3.87155 0
M  V30 25012 H 2370.11 2.35191 3.43013 0
M  V30 25013 H 2368.69 0.538953 3.68985 0
M  V30 25014 N 2370.87 -1.30419 0.88479 0
M  V30 25015 C 2372.28 -1.78301 0.553688 0
M  V30 25016 C 2372.63 -1.72752 -0.930122 0
M  V30 25017 O 2371.76 -1.30426 -1.72679 0
M  V30 25018 C 2372.35 -3.23759 0.998291 0
M  V30 25019 C 2370.91 -3.69477 0.718605 0
M  V30 25020 C 2370.06 -2.50876 1.18137 0
M  V30 25021 H 2373.01 -1.17292 1.06903 0
M  V30 25022 H 2373.03 -3.79091 0.327184 0
M  V30 25023 H 2372.54 -3.27765 2.07826 0
M  V30 25024 H 2370.65 -3.70958 -0.349378 0
M  V30 25025 H 2370.76 -4.60955 1.30603 0
M  V30 25026 H 2369.12 -2.47515 0.600713 0
M  V30 25027 H 2369.91 -2.5762 2.26907 0
M  V30 25028 N 2372.35 -0.645724 -1.43764 0
M  V30 25029 C 2373.58 -0.163592 -2.06252 0
M  V30 25030 C 2373.99 1.16775 -1.48354 0
M  V30 25031 O 2373.35 1.71934 -0.611963 0
M  V30 25032 C 2373.4 -0.0583822 -3.61453 0
M  V30 25033 O 2373.12 -1.33709 -4.17197 0
M  V30 25034 C 2374.62 0.450718 -4.41003 0
M  V30 25035 H 2371.84 -0.0864194 -0.665412 0
M  V30 25036 H 2374.39 -0.884254 -1.84394 0
M  V30 25037 H 2372.54 0.612798 -3.82523 0
M  V30 25038 H 2372.96 -1.1914 -5.10789 0
M  V30 25039 H 2374.43 0.473306 -5.49967 0
M  V30 25040 H 2374.91 1.4806 -4.13491 0
M  V30 25041 H 2375.51 -0.187712 -4.24886 0
M  V30 25042 N 2373.83 1.5277 -0.38717 0
M  V30 25043 C 2375.24 1.59557 -0.0370351 0
M  V30 25044 C 2375.44 1.40127 1.44799 0
M  V30 25045 O 2374.5 1.2172 2.21225 0
M  V30 25046 C 2375.81 2.96304 -0.512308 0
M  V30 25047 C 2377.36 3.09476 -0.468382 0
M  V30 25048 C 2377.84 4.48669 -0.91981 0
M  V30 25049 N 2379.33 4.54846 -0.875736 0
M  V30 25050 C 2380.06 5.60778 -1.19647 0
M  V30 25051 N 2379.56 6.74365 -1.58757 0
M  V30 25052 N 2381.35 5.50872 -1.11786 0
M  V30 25053 H 2373.5 1.63649 -1.35398 0
M  V30 25054 H 2375.77 0.768678 -0.554831 0
M  V30 25055 H 2375.47 3.15732 -1.5494 0
M  V30 25056 H 2375.35 3.77093 0.0897387 0
M  V30 25057 H 2377.73 2.89745 0.55962 0
M  V30 25058 H 2377.81 2.30644 -1.1062 0
M  V30 25059 H 2377.46 4.6914 -1.94603 0
M  V30 25060 H 2377.39 5.25963 -0.25902 0
M  V30 25061 H 2379.88 3.73299 -0.587909 0
M  V30 25062 H 2380.19 7.5116 -1.81599 0
M  V30 25063 H 2378.54 6.75702 -1.62642 0
M  V30 25064 H 2381.73 4.61015 -0.811345 0
M  V30 25065 H 2381.9 6.33328 -1.37114 0
M  V30 25066 N 2375.31 0.116931 1.57166 0
M  V30 25067 C 2376.72 -0.239666 1.5779 0
M  V30 25068 C 2376.92 -1.66865 1.12952 0
M  V30 25069 O 2375.98 -2.38953 0.815962 0
M  V30 25070 C 2377.29 -0.00822916 3.00699 0
M  V30 25071 C 2378.84 -0.0742888 3.12912 0
M  V30 25072 C 2379.31 0.129429 4.57817 0
M  V30 25073 N 2380.81 0.0753284 4.63139 0
M  V30 25074 C 2381.54 0.207888 5.73023 0
M  V30 25075 N 2381.04 0.396504 6.91664 0
M  V30 25076 N 2382.83 0.147609 5.61906 0
M  V30 25077 H 2374.98 1.05033 1.84613 0
M  V30 25078 H 2377.24 0.413425 0.853102 0
M  V30 25079 H 2376.95 0.97959 3.37782 0
M  V30 25080 H 2376.82 -0.741012 3.6985 0
M  V30 25081 H 2379.21 -1.05263 2.75688 0
M  V30 25082 H 2379.29 0.690341 2.46309 0
M  V30 25083 H 2378.94 1.10474 4.9574 0
M  V30 25084 H 2378.87 -0.655161 5.22509 0
M  V30 25085 H 2381.36 -0.0670234 3.77841 0
M  V30 25086 H 2381.67 0.488573 7.71254 0
M  V30 25087 H 2380.01 0.432451 6.93653 0
M  V30 25088 H 2383.21 0.00123264 4.681 0
M  V30 25089 H 2383.38 0.254361 6.47501 0
M  V30 25090 N 2376.78 -1.56818 -0.156836 0
M  V30 25091 C 2378.01 -1.87319 -0.890298 0
M  V30 25092 C 2378.43 -0.704885 -1.74393 0
M  V30 25093 O 2377.79 0.345755 -1.77973 0
M  V30 25094 C 2377.84 -3.16339 -1.73096 0
M  V30 25095 O 2376.94 -2.99581 -2.83417 0
M  V30 25096 H 2376.29 -0.615723 -0.248559 0
M  V30 25097 H 2378.82 -2.04045 -0.150614 0
M  V30 25098 H 2378.83 -3.48111 -2.12797 0
M  V30 25099 H 2377.5 -4.00978 -1.10405 0
M  V30 25100 H 2376.08 -2.79194 -2.47194 0
M  V30 25101 N 2378.26 0.425871 -1.51737 0
M  V30 25102 C 2379.51 1.17133 -1.64203 0
M  V30 25103 C 2379.82 1.92074 -0.369739 0
M  V30 25104 O 2381.03 2.68912 -0.373945 0
M  V30 25105 C 2379.49 2.13086 -2.90039 0
M  V30 25106 C 2379.09 1.4374 -4.24315 0
M  V30 25107 C 2380.84 2.87994 -3.11865 0
M  V30 25108 C 2378.75 2.38243 -5.41289 0
M  V30 25109 H 2377.68 0.440933 -0.611632 0
M  V30 25110 H 2380.33 0.437296 -1.78213 0
M  V30 25111 H 2378.71 2.89972 -2.69689 0
M  V30 25112 H 2379.88 0.723328 -4.55087 0
M  V30 25113 H 2378.2 0.809393 -4.08458 0
M  V30 25114 H 2380.79 3.5881 -3.96433 0
M  V30 25115 H 2381.14 3.49995 -2.2541 0
M  V30 25116 H 2381.67 2.18212 -3.32609 0
M  V30 25117 H 2378.41 1.80914 -6.3004 0
M  V30 25118 H 2377.93 3.07671 -5.14878 0
M  V30 25119 H 2379.61 2.99129 -5.73699 0
M  V30 25120 N 2379.74 1.42077 0.682052 0
M  V30 25121 C 2380.69 1.41447 1.78821 0
M  V30 25122 C 2381.67 0.286837 1.58323 0
M  V30 25123 O 2382.87 0.528527 1.68925 0
M  V30 25124 C 2380 1.31226 3.1723 0
M  V30 25125 C 2379.08 2.48906 3.43376 0
M  V30 25126 N 2379.47 3.74346 3.40145 0
M  V30 25127 C 2377.77 2.4301 3.73981 0
M  V30 25128 C 2378.47 4.52472 3.65573 0
M  V30 25129 N 2377.45 3.82777 3.85983 0
M  V30 25130 H 2381.25 2.36337 1.74706 0
M  V30 25131 H 2378.76 1.36323 0.882598 0
M  V30 25132 H 2380.76 1.28857 3.96487 0
M  V30 25133 H 2379.42 0.37332 3.22547 0
M  V30 25134 H 2380.43 4.07043 3.20213 0
M  V30 25135 H 2377.11 1.57658 3.86588 0
M  V30 25136 H 2378.5 5.61441 3.69098 0
M  V30 25137 N 2381.22 -0.917649 1.28129 0
M  V30 25138 C 2382.44 -1.70553 1.1801 0
M  V30 25139 C 2382.87 -1.86319 -0.258224 0
M  V30 25140 O 2382.23 -1.37051 -1.18687 0
M  V30 25141 C 2382.28 -3.07743 1.87954 0
M  V30 25142 O 2381.38 -3.95028 1.18434 0
M  V30 25143 H 2380.72 -0.522396 0.409876 0
M  V30 25144 H 2383.25 -1.14767 1.69381 0
M  V30 25145 H 2383.26 -3.57998 1.95708 0
M  V30 25146 H 2381.94 -2.95586 2.92578 0
M  V30 25147 H 2380.51 -3.53464 1.18818 0
M  V30 25148 N 2382.7 -1.10314 -1.12555 0
M  V30 25149 C 2383.63 -0.772837 -2.20339 0
M  V30 25150 C 2384.61 0.25362 -1.68199 0
M  V30 25151 O 2385.79 0.119665 -1.93831 0
M  V30 25152 C 2382.92 -0.202504 -3.46709 0
M  V30 25153 C 2381.88 -1.15951 -4.11994 0
M  V30 25154 C 2381.2 -0.450438 -5.32799 0
M  V30 25155 C 2382.5 -2.5056 -4.58276 0
M  V30 25156 H 2384.2 -1.67405 -2.48226 0
M  V30 25157 H 2381.74 -0.806347 -1.19307 0
M  V30 25158 H 2383.7 0.0407012 -4.2138 0
M  V30 25159 H 2382.42 0.733945 -3.18246 0
M  V30 25160 H 2381.08 -1.38814 -3.39302 0
M  V30 25161 H 2380.73 0.490443 -5.00603 0
M  V30 25162 H 2380.43 -1.08862 -5.77428 0
M  V30 25163 H 2381.95 -0.215749 -6.10219 0
M  V30 25164 H 2383.37 -2.31852 -5.24326 0
M  V30 25165 H 2381.76 -3.10251 -5.13677 0
M  V30 25166 H 2382.83 -3.1065 -3.72323 0
M  V30 25167 N 2384.18 1.29948 -0.891694 0
M  V30 25168 C 2385.42 1.97666 -0.52033 0
M  V30 25169 C 2385.78 1.68808 0.914767 0
M  V30 25170 O 2386.98 2.29914 1.39259 0
M  V30 25171 C 2385.25 3.48439 -0.795283 0
M  V30 25172 S 2386.81 4.35624 -0.527029 0
M  V30 25173 H 2383.63 0.684207 -0.193342 0
M  V30 25174 H 2386.23 1.57924 -1.15241 0
M  V30 25175 H 2384.93 3.66935 -1.83812 0
M  V30 25176 H 2384.47 3.9311 -0.151019 0
M  V30 25177 H 2386.48 4.92166 0.631446 0
M  V30 25178 N 2385.65 0.653339 1.4342 0
M  V30 25179 C 2386.88 0.174528 2.06163 0
M  V30 25180 C 2387.3 -1.15987 1.48971 0
M  V30 25181 O 2386.65 -1.71607 0.621072 0
M  V30 25182 C 2386.7 0.0775501 3.61417 0
M  V30 25183 O 2386.43 1.3592 4.16482 0
M  V30 25184 C 2387.93 -0.427324 4.41236 0
M  V30 25185 H 2385.15 0.089947 0.664944 0
M  V30 25186 H 2387.69 0.894021 1.83923 0
M  V30 25187 H 2385.85 -0.592503 3.82842 0
M  V30 25188 H 2386.26 1.21848 5.1015 0
M  V30 25189 H 2387.73 -0.444134 5.5021 0
M  V30 25190 H 2388.21 -1.45865 4.1427 0
M  V30 25191 H 2388.82 0.210242 4.2478 0
M  V30 25192 N 2387.13 -1.52563 0.395266 0
M  V30 25193 C 2388.36 -2.06551 -0.18742 0
M  V30 25194 C 2388.78 -1.26459 -1.39247 0
M  V30 25195 O 2388.14 -0.291182 -1.78946 0
M  V30 25196 C 2388.19 -3.56685 -0.529922 0
M  V30 25197 O 2387.29 -3.79121 -1.623 0
M  V30 25198 H 2386.63 -0.663691 -0.020242 0
M  V30 25199 H 2389.16 -1.9666 0.564461 0
M  V30 25200 H 2389.17 -4.00229 -0.792528 0
M  V30 25201 H 2387.85 -4.14416 0.35106 0
M  V30 25202 H 2386.42 -3.47464 -1.35364 0
M  V30 25203 N 2388.61 -0.125265 -1.57101 0
M  V30 25204 C 2389.56 0.833899 -2.12203 0
M  V30 25205 C 2390.54 1.22401 -1.04436 0
M  V30 25206 O 2391.74 1.19406 -1.30657 0
M  V30 25207 C 2388.86 2.08152 -2.72997 0
M  V30 25208 C 2387.95 1.71549 -3.87855 0
M  V30 25209 N 2388.34 1.05653 -4.94642 0
M  V30 25210 C 2386.64 2.00966 -3.98157 0
M  V30 25211 C 2387.34 0.883275 -5.74955 0
M  V30 25212 N 2386.32 1.41027 -5.24988 0
M  V30 25213 H 2390.12 0.320983 -2.92142 0
M  V30 25214 H 2387.63 0.077003 -1.62217 0
M  V30 25215 H 2389.63 2.77842 -3.10821 0
M  V30 25216 H 2388.29 2.59982 -1.94524 0
M  V30 25217 H 2389.3 0.719788 -5.12874 0
M  V30 25218 H 2385.98 2.54798 -3.30733 0
M  V30 25219 H 2387.37 0.365557 -6.70905 0
M  V30 25220 N 2390.09 1.56899 0.148518 0
M  V30 25221 C 2391.32 1.87152 0.875085 0
M  V30 25222 C 2391.73 0.711293 1.7532 0
M  V30 25223 O 2391.07 -0.32812 1.80746 0
M  V30 25224 C 2391.13 3.12092 1.78434 0
M  V30 25225 C 2390.79 4.43969 1.08354 0
M  V30 25226 C 2391.79 5.1805 0.438156 0
M  V30 25227 C 2389.48 4.90695 1.07349 0
M  V30 25228 C 2391.47 6.37061 -0.207902 0
M  V30 25229 C 2389.16 6.0963 0.423623 0
M  V30 25230 C 2390.16 6.82659 -0.215949 0
M  V30 25231 O 2389.84 7.99335 -0.855519 0
M  V30 25232 H 2389.58 0.624626 0.258493 0
M  V30 25233 H 2392.13 2.04877 0.146484 0
M  V30 25234 H 2390.36 2.90372 2.55384 0
M  V30 25235 H 2392.05 3.28604 2.38273 0
M  V30 25236 H 2392.81 4.83021 0.437732 0
M  V30 25237 H 2388.69 4.33777 1.56072 0
M  V30 25238 H 2392.24 6.94001 -0.707702 0
M  V30 25239 H 2388.13 6.44121 0.421708 0
M  V30 25240 H 2388.9 8.14992 -0.757035 0
M  V30 25241 N 2391.57 -0.417818 1.51961 0
M  V30 25242 C 2392.5 -1.51551 1.77636 0
M  V30 25243 C 2393.48 -1.58125 0.626946 0
M  V30 25244 O 2394.66 -1.73539 0.871662 0
M  V30 25245 C 2391.79 -2.89457 1.91917 0
M  V30 25246 C 2390.75 -2.97737 3.07468 0
M  V30 25247 C 2390.07 -4.37813 3.06959 0
M  V30 25248 C 2391.37 -2.70019 4.47087 0
M  V30 25249 H 2393.07 -1.30315 2.69552 0
M  V30 25250 H 2390.61 -0.625469 1.29707 0
M  V30 25251 H 2392.56 -3.66226 2.08461 0
M  V30 25252 H 2391.29 -3.11967 0.966653 0
M  V30 25253 H 2389.95 -2.23411 2.9066 0
M  V30 25254 H 2389.6 -4.5732 2.09446 0
M  V30 25255 H 2389.3 -4.4428 3.84564 0
M  V30 25256 H 2390.82 -5.16529 3.25622 0
M  V30 25257 H 2392.23 -3.36514 4.64145 0
M  V30 25258 H 2390.63 -2.87872 5.26545 0
M  V30 25259 H 2391.7 -1.65506 4.5578 0
M  V30 25260 N 2393.04 -1.42436 -0.674508 0
M  V30 25261 C 2394.32 -1.33405 -1.43047 0
M  V30 25262 C 2394.7 0.0284303 -2.11081 0
M  V30 25263 O 2394.05 1.04394 -2.03259 0
M  V30 25264 C 2394.26 -2.50243 -2.43268 0
M  V30 25265 C 2395.61 -2.92372 -3.07902 0
M  V30 25266 O 2396.63 -2.50136 -2.53595 0
M  V30 25267 O 2395.49 -3.65474 -4.06314 0
M  V30 25268 H 2392.58 -0.526118 -0.638067 0
M  V30 25269 H 2395.13 -1.54444 -0.703207 0
M  V30 25270 H 2393.9 -3.41071 -1.91797 0
M  V30 25271 H 2393.52 -2.31192 -3.23475 0
M  V30 25272 N 2394.52 0.910841 -1.28614 0
M  V30 25273 C 2395.45 2.0303 -1.15329 0
M  V30 25274 C 2396.43 1.70026 -0.0503222 0
M  V30 25275 O 2397.62 1.92859 -0.22783 0
M  V30 25276 C 2394.75 3.37544 -0.817403 0
M  V30 25277 C 2393.7 3.84721 -1.87547 0
M  V30 25278 C 2393.03 5.16232 -1.39314 0
M  V30 25279 C 2394.33 4.06261 -3.28251 0
M  V30 25280 H 2396.02 2.14402 -2.08979 0
M  V30 25281 H 2393.57 1.03019 -1.00614 0
M  V30 25282 H 2395.52 4.15355 -0.711224 0
M  V30 25283 H 2394.24 3.26233 0.154789 0
M  V30 25284 H 2392.9 3.09117 -1.97084 0
M  V30 25285 H 2392.55 5.01327 -0.409934 0
M  V30 25286 H 2392.25 5.48768 -2.10066 0
M  V30 25287 H 2393.78 5.96595 -1.30024 0
M  V30 25288 H 2395.19 4.74588 -3.21619 0
M  V30 25289 H 2393.59 4.50133 -3.96863 0
M  V30 25290 H 2394.66 3.10973 -3.72054 0
M  V30 25291 N 2396 1.10909 1.11969 0
M  V30 25292 C 2397.25 0.85454 1.83586 0
M  V30 25293 C 2397.58 -0.619867 1.84358 0
M  V30 25294 O 2396.83 -1.47329 1.28812 0
M  V30 25295 C 2397.13 1.35431 3.30746 0
M  V30 25296 C 2396.8 2.84099 3.50141 0
M  V30 25297 C 2395.46 3.24696 3.55142 0
M  V30 25298 C 2397.81 3.79878 3.5685 0
M  V30 25299 C 2395.14 4.59813 3.64402 0
M  V30 25300 C 2397.49 5.14804 3.67641 0
M  V30 25301 C 2396.15 5.54968 3.709 0
M  V30 25302 H 2395.42 0.312698 0.671789 0
M  V30 25303 H 2398.07 1.38654 1.32088 0
M  V30 25304 H 2396.38 0.742429 3.84701 0
M  V30 25305 H 2398.07 1.13377 3.84638 0
M  V30 25306 H 2394.66 2.51691 3.46914 0
M  V30 25307 H 2398.85 3.49617 3.52252 0
M  V30 25308 H 2394.1 4.90346 3.652 0
M  V30 25309 H 2398.28 5.8886 3.71776 0
M  V30 25310 H 2395.9 6.59659 3.77828 0
M  V30 25311 N 2397.48 -1.29474 0.898573 0
M  V30 25312 C 2398.73 -1.94884 0.519898 0
M  V30 25313 C 2399.04 -1.71627 -0.93827 0
M  V30 25314 O 2400.25 -2.31134 -1.42441 0
M  V30 25315 C 2398.7 -3.49003 0.878898 0
M  V30 25316 C 2398.31 -3.81062 2.35576 0
M  V30 25317 C 2400.05 -4.20655 0.570078 0
M  V30 25318 C 2397.96 -5.2842 2.65568 0
M  V30 25319 H 2396.89 -0.729485 0.190704 0
M  V30 25320 H 2399.54 -1.47217 1.09541 0
M  V30 25321 H 2397.92 -3.95318 0.232322 0
M  V30 25322 H 2399.1 -3.4561 3.04779 0
M  V30 25323 H 2397.41 -3.22547 2.63349 0
M  V30 25324 H 2400.01 -5.29112 0.771018 0
M  V30 25325 H 2400.35 -4.1339 -0.491331 0
M  V30 25326 H 2400.89 -3.80068 1.17444 0
M  V30 25327 H 2397.63 -5.40748 3.70502 0
M  V30 25328 H 2397.15 -5.65123 2.00987 0
M  V30 25329 H 2398.82 -5.96002 2.51775 0
M  V30 25330 N 2398.96 -0.660936 -1.43071 0
M  V30 25331 C 2400.18 -0.185458 -2.06067 0
M  V30 25332 C 2400.6 1.15195 -1.49584 0
M  V30 25333 O 2399.96 1.71275 -0.630164 0
M  V30 25334 C 2400.01 -0.0967158 -3.61371 0
M  V30 25335 O 2399.73 -1.38126 -4.15756 0
M  V30 25336 C 2401.23 0.403918 -4.41456 0
M  V30 25337 H 2398.45 -0.0934721 -0.664458 0
M  V30 25338 H 2400.99 -0.903762 -1.83446 0
M  V30 25339 H 2399.15 0.572191 -3.83151 0
M  V30 25340 H 2399.56 -1.24551 -5.09497 0
M  V30 25341 H 2401.04 0.414948 -5.50438 0
M  V30 25342 H 2401.51 1.43666 -4.15038 0
M  V30 25343 H 2402.12 -0.232766 -4.24663 0
M  V30 25344 N 2400.43 1.52351 -0.403352 0
M  V30 25345 C 2401.68 2.01748 0.174312 0
M  V30 25346 C 2402.01 1.28923 1.45633 0
M  V30 25347 O 2401.26 0.382291 1.9193 0
M  V30 25348 C 2401.56 3.54235 0.474602 0
M  V30 25349 C 2401.23 4.45154 -0.717536 0
M  V30 25350 C 2399.89 4.69726 -1.04455 0
M  V30 25351 C 2402.24 4.98714 -1.51441 0
M  V30 25352 C 2399.57 5.45105 -2.16972 0
M  V30 25353 C 2401.92 5.75324 -2.6303 0
M  V30 25354 C 2400.59 5.9817 -2.96224 0
M  V30 25355 H 2399.86 0.73825 0.0637851 0
M  V30 25356 H 2402.5 1.83623 -0.543585 0
M  V30 25357 H 2400.81 3.70508 1.274 0
M  V30 25358 H 2402.51 3.89961 0.934428 0
M  V30 25359 H 2399.1 4.26203 -0.452671 0
M  V30 25360 H 2403.28 4.79643 -1.275 0
M  V30 25361 H 2398.54 5.61016 -2.43044 0
M  V30 25362 H 2402.71 6.15823 -3.25169 0
M  V30 25363 H 2400.34 6.56361 -3.83528 0
M  V30 25364 N 2401.91 0.133594 1.57033 0
M  V30 25365 C 2403.16 -0.520734 1.94862 0
M  V30 25366 C 2403.47 -1.6689 1.02015 0
M  V30 25367 O 2404.68 -2.38696 1.29369 0
M  V30 25368 C 2403.14 -0.977748 3.46364 0
M  V30 25369 C 2402.74 0.142753 4.47773 0
M  V30 25370 C 2404.49 -1.60263 3.93085 0
M  V30 25371 C 2402.4 -0.331779 5.90469 0
M  V30 25372 H 2401.33 -0.198302 0.727456 0
M  V30 25373 H 2403.98 0.215791 1.82227 0
M  V30 25374 H 2402.36 -1.76913 3.54285 0
M  V30 25375 H 2403.53 0.919396 4.51535 0
M  V30 25376 H 2401.85 0.675196 4.10889 0
M  V30 25377 H 2404.44 -1.96905 4.97124 0
M  V30 25378 H 2404.79 -2.48656 3.3388 0
M  V30 25379 H 2405.32 -0.876385 3.88026 0
M  V30 25380 H 2402.06 0.516456 6.53462 0
M  V30 25381 H 2401.58 -1.07459 5.90095 0
M  V30 25382 H 2403.26 -0.788219 6.42181 0
M  V30 25383 N 2403.39 -1.56975 -0.140195 0
M  V30 25384 C 2404.64 -1.82909 -0.85012 0
M  V30 25385 C 2404.95 -0.715924 -1.82027 0
M  V30 25386 O 2406.16 -0.861061 -2.57484 0
M  V30 25387 C 2404.61 -3.24216 -1.56244 0
M  V30 25388 C 2404.22 -4.43486 -0.634352 0
M  V30 25389 C 2405.97 -3.59417 -2.25875 0
M  V30 25390 C 2403.87 -5.75816 -1.34868 0
M  V30 25391 H 2402.8 -0.682159 -0.321209 0
M  V30 25392 H 2405.45 -1.83212 -0.102842 0
M  V30 25393 H 2403.84 -3.18321 -2.35559 0
M  V30 25394 H 2405.01 -4.60633 0.124061 0
M  V30 25395 H 2403.33 -4.16374 -0.0461104 0
M  V30 25396 H 2405.92 -4.55544 -2.7997 0
M  V30 25397 H 2406.27 -2.85807 -3.02688 0
M  V30 25398 H 2406.8 -3.67003 -1.53471 0
M  V30 25399 H 2403.54 -6.5254 -0.62227 0
M  V30 25400 H 2403.06 -5.62593 -2.07964 0
M  V30 25401 H 2404.74 -6.18849 -1.88773 0
M  V30 25402 N 2404.87 0.409753 -1.5218 0
M  V30 25403 C 2406.11 1.16594 -1.67885 0
M  V30 25404 C 2406.47 1.87791 -0.399828 0
M  V30 25405 O 2407.67 2.6529 -0.432967 0
M  V30 25406 C 2405.94 2.13443 -2.86665 0
M  V30 25407 S 2407.5 2.97177 -3.22849 0
M  V30 25408 H 2404.32 0.394992 -0.591187 0
M  V30 25409 H 2406.92 0.45334 -1.90171 0
M  V30 25410 H 2405.63 1.59824 -3.78001 0
M  V30 25411 H 2405.16 2.89243 -2.6665 0
M  V30 25412 H 2407.17 4.15385 -2.71422 0
M  V30 25413 N 2406.35 1.42792 0.666944 0
M  V30 25414 C 2407.59 1.43893 1.42908 0
M  V30 25415 C 2407.93 0.0579313 1.94114 0
M  V30 25416 O 2407.2 -0.91908 1.71415 0
M  V30 25417 C 2407.48 2.46991 2.62044 0
M  V30 25418 C 2407.34 3.94313 2.16419 0
M  V30 25419 C 2408.66 2.46984 3.64262 0
M  V30 25420 H 2405.77 0.523963 0.518297 0
M  V30 25421 H 2408.42 1.74256 0.75729 0
M  V30 25422 H 2406.57 2.21231 3.19357 0
M  V30 25423 H 2408.24 4.31082 1.64213 0
M  V30 25424 H 2406.48 4.07802 1.47918 0
M  V30 25425 H 2407.15 4.62041 3.02029 0
M  V30 25426 H 2409.63 2.69911 3.16681 0
M  V30 25427 H 2408.5 3.21087 4.45191 0
M  V30 25428 H 2408.77 1.49864 4.15924 0
M  V30 25429 N 2407.82 -0.904008 1.29095 0
M  V30 25430 C 2408.77 -2.02899 1.13731 0
M  V30 25431 C 2409.77 -1.69314 0.054015 0
M  V30 25432 O 2410.97 -1.78729 0.213501 0
M  V30 25433 H 2407.35 -0.664963 0.351182 0
M  V30 25434 H 2409.32 -2.12997 2.08985 0
M  V30 25435 C 2408.07 -3.37743 0.826126 0
M  V30 25436 H 2407.39 -3.64086 1.6517 0
M  V30 25437 H 2408.83 -4.17158 0.758633 0
M  V30 25438 C 2407.29 -3.33599 -0.470483 0
M  V30 25439 O 2407.82 -3.7273 -1.49785 0
M  V30 25440 N 2406.03 -2.86696 -0.474762 0
M  V30 25441 H 2405.57 -2.55047 0.361737 0
M  V30 25442 H 2405.53 -2.84305 -1.34231 0
M  V30 25443 N 2409.3 -1.11501 -1.11379 0
M  V30 25444 C 2410.55 -0.865544 -1.83402 0
M  V30 25445 C 2410.88 0.607296 -1.8446 0
M  V30 25446 O 2410.16 1.4484 -1.29814 0
M  V30 25447 C 2410.44 -1.42861 -3.30549 0
M  V30 25448 C 2410.29 -2.96912 -3.37881 0
M  V30 25449 C 2411.61 -1.08007 -4.26641 0
M  V30 25450 H 2408.73 -0.315882 -0.665874 0
M  V30 25451 H 2411.37 -1.38 -1.30598 0
M  V30 25452 H 2409.52 -0.991051 -3.75647 0
M  V30 25453 H 2411.19 -3.49276 -3.01337 0
M  V30 25454 H 2409.44 -3.32946 -2.78082 0
M  V30 25455 H 2410.11 -3.31397 -4.41452 0
M  V30 25456 H 2412.58 -1.45782 -3.89727 0
M  V30 25457 H 2411.46 -1.50081 -5.27984 0
M  V30 25458 H 2411.72 0.00907266 -4.42099 0
M  V30 25459 N 2410.78 1.28995 -0.905426 0
M  V30 25460 C 2412.03 1.94606 -0.530225 0
M  V30 25461 C 2412.34 1.72122 0.929155 0
M  V30 25462 O 2413.55 2.31886 1.41214 0
M  V30 25463 C 2412.01 3.48532 -0.897394 0
M  V30 25464 C 2411.61 3.79807 -2.37593 0
M  V30 25465 C 2413.36 4.20346 -0.592378 0
M  V30 25466 C 2411.26 5.27004 -2.68366 0
M  V30 25467 H 2410.19 0.728463 -0.19457 0
M  V30 25468 H 2412.85 1.46634 -1.10321 0
M  V30 25469 H 2411.23 3.95189 -0.253283 0
M  V30 25470 H 2412.4 3.43989 -3.06608 0
M  V30 25471 H 2410.72 3.21146 -2.65055 0
M  V30 25472 H 2413.31 5.28696 -0.799068 0
M  V30 25473 H 2413.66 4.13645 0.469401 0
M  V30 25474 H 2414.19 3.7944 -1.19458 0
M  V30 25475 H 2410.93 5.38775 -3.73365 0
M  V30 25476 H 2410.45 5.64049 -2.03981 0
M  V30 25477 H 2412.13 5.94658 -2.54933 0
M  V30 25478 N 2412.26 0.668514 1.42719 0
M  V30 25479 C 2413.49 0.196384 2.05966 0
M  V30 25480 C 2413.9 -1.144 1.50193 0
M  V30 25481 O 2413.26 -1.70939 0.639238 0
M  V30 25482 C 2413.31 0.115879 3.61314 0
M  V30 25483 O 2413.03 1.40329 4.15017 0
M  V30 25484 C 2414.53 -0.380501 4.41664 0
M  V30 25485 H 2411.75 0.0969946 0.663953 0
M  V30 25486 H 2414.3 0.913478 1.82964 0
M  V30 25487 H 2412.45 -0.551864 3.83449 0
M  V30 25488 H 2412.87 1.27252 5.08829 0
M  V30 25489 H 2414.34 -0.385751 5.5065 0
M  V30 25490 H 2414.82 -1.41463 4.15794 0
M  V30 25491 H 2415.42 0.255284 4.24533 0
M  V30 25492 N 2413.74 -1.52135 0.411426 0
M  V30 25493 C 2414.67 -2.23565 -0.457574 0
M  V30 25494 C 2415.65 -1.2448 -1.04611 0
M  V30 25495 O 2416.83 -1.53538 -1.09354 0
M  V30 25496 C 2413.96 -2.96604 -1.63534 0
M  V30 25497 C 2413.01 -4.10139 -1.16998 0
M  V30 25498 S 2413.84 -5.35334 -0.133236 0
M  V30 25499 C 2414.99 -6.11903 -1.31628 0
M  V30 25500 H 2415.23 -2.96927 0.148935 0
M  V30 25501 H 2412.76 -1.53154 0.19574 0
M  V30 25502 H 2414.72 -3.3929 -2.31068 0
M  V30 25503 H 2413.38 -2.22882 -2.2132 0
M  V30 25504 H 2412.57 -4.60426 -2.04997 0
M  V30 25505 H 2412.17 -3.69581 -0.573254 0
M  V30 25506 H 2414.47 -6.39417 -2.23946 0
M  V30 25507 H 2415.41 -7.02933 -0.853891 0
M  V30 25508 H 2415.82 -5.42999 -1.54311 0
M  V30 25509 N 2415.22 -0.14192 -1.5696 0
M  V30 25510 C 2416.44 0.520802 -2.00755 0
M  V30 25511 C 2416.87 1.57957 -1.02133 0
M  V30 25512 O 2416.22 1.813 0.00368137 0
M  V30 25513 C 2416.27 1.10288 -3.4332 0
M  V30 25514 O 2415.38 2.21789 -3.47683 0
M  V30 25515 H 2414.72 0.127897 -0.651566 0
M  V30 25516 H 2417.25 -0.237156 -2.03221 0
M  V30 25517 H 2417.26 1.4328 -3.82014 0
M  V30 25518 H 2415.93 0.327502 -4.14609 0
M  V30 25519 H 2414.51 1.90064 -3.20827 0
M  V30 25520 N 2416.69 1.57047 0.131868 0
M  V30 25521 C 2417.63 1.94573 1.19233 0
M  V30 25522 C 2418.6 0.813601 1.40781 0
M  V30 25523 O 2419.79 1.07061 1.55146 0
M  V30 25524 C 2416.92 2.23085 2.54854 0
M  V30 25525 C 2415.96 3.45683 2.4981 0
M  V30 25526 S 2416.79 4.98723 1.95028 0
M  V30 25527 C 2417.95 5.30373 3.32348 0
M  V30 25528 H 2418.18 2.84217 0.872247 0
M  V30 25529 H 2415.72 1.50653 0.338107 0
M  V30 25530 H 2417.67 2.40191 3.32894 0
M  V30 25531 H 2416.34 1.34079 2.84045 0
M  V30 25532 H 2415.53 3.62958 3.49682 0
M  V30 25533 H 2415.13 3.27898 1.79886 0
M  V30 25534 H 2417.42 5.24767 4.28516 0
M  V30 25535 H 2418.37 6.31713 3.19912 0
M  V30 25536 H 2418.77 4.57864 3.30182 0
M  V30 25537 N 2418.17 -0.401677 1.52395 0
M  V30 25538 C 2419.08 -1.51441 1.79173 0
M  V30 25539 C 2420.1 -1.60259 0.67772 0
M  V30 25540 O 2421.27 -1.76834 0.96394 0
M  V30 25541 C 2418.34 -2.87103 1.94352 0
M  V30 25542 C 2417.4 -2.8811 3.18262 0
M  V30 25543 C 2416.63 -4.17302 3.32708 0
M  V30 25544 O 2416.86 -5.11593 2.52247 0
M  V30 25545 O 2415.79 -4.25316 4.25899 0
M  V30 25546 H 2419.62 -1.31747 2.73635 0
M  V30 25547 H 2417.2 -0.588272 1.37331 0
M  V30 25548 H 2419.08 -3.67552 2.06116 0
M  V30 25549 H 2417.76 -3.06849 1.03079 0
M  V30 25550 H 2416.66 -2.06489 3.11951 0
M  V30 25551 H 2418 -2.73315 4.09341 0
M  V30 25552 N 2419.65 -1.43144 -0.659362 0
M  V30 25553 C 2420.6 -1.44274 -1.76548 0
M  V30 25554 C 2421.58 -0.311989 -1.57846 0
M  V30 25555 O 2422.78 -0.555335 -1.68063 0
M  V30 25556 C 2419.9 -1.36256 -3.15102 0
M  V30 25557 C 2418.99 -2.54337 -3.39372 0
M  V30 25558 N 2419.38 -3.7971 -3.34147 0
M  V30 25559 C 2417.68 -2.48929 -3.70068 0
M  V30 25560 C 2418.38 -4.58231 -3.58329 0
M  V30 25561 N 2417.36 -3.88869 -3.79844 0
M  V30 25562 H 2421.16 -2.39086 -1.70924 0
M  V30 25563 H 2418.67 -1.3771 -0.860799 0
M  V30 25564 H 2420.67 -1.35148 -3.94386 0
M  V30 25565 H 2419.33 -0.424587 -3.21912 0
M  V30 25566 H 2420.34 -4.12086 -3.13697 0
M  V30 25567 H 2417.02 -1.63788 -3.84031 0
M  V30 25568 H 2418.41 -5.67242 -3.60119 0
M  V30 25569 N 2421.13 0.897149 -1.29572 0
M  V30 25570 C 2422.36 1.67883 -1.20411 0
M  V30 25571 C 2422.77 1.87705 0.237396 0
M  V30 25572 O 2422.11 1.41584 1.17046 0
M  V30 25573 C 2422.17 3.0831 -1.84892 0
M  V30 25574 C 2421.83 3.1171 -3.34194 0
M  V30 25575 C 2422.83 2.91667 -4.30379 0
M  V30 25576 C 2420.52 3.33695 -3.75437 0
M  V30 25577 C 2422.51 2.93547 -5.65782 0
M  V30 25578 C 2420.2 3.35205 -5.10961 0
M  V30 25579 C 2421.2 3.15154 -6.05943 0
M  V30 25580 O 2420.88 3.16457 -7.38993 0
M  V30 25581 H 2420.62 0.531039 -0.418298 0
M  V30 25582 H 2423.17 1.13011 -1.71516 0
M  V30 25583 H 2421.4 3.64795 -1.28301 0
M  V30 25584 H 2423.09 3.68577 -1.70017 0
M  V30 25585 H 2423.85 2.74492 -3.99849 0
M  V30 25586 H 2419.73 3.48341 -3.01959 0
M  V30 25587 H 2423.28 2.77815 -6.39894 0
M  V30 25588 H 2419.17 3.51912 -5.41136 0
M  V30 25589 H 2419.94 3.32706 -7.47829 0
M  V30 25590 N 2422.61 1.1209 1.10786 0
M  V30 25591 C 2423.55 0.780625 2.1911 0
M  V30 25592 C 2424.55 -0.230931 1.67819 0
M  V30 25593 O 2425.75 -0.0895111 1.79777 0
M  V30 25594 H 2422.13 0.234591 0.714473 0
M  V30 25595 H 2424.1 1.70271 2.45052 0
M  V30 25596 C 2422.85 0.24753 3.46818 0
M  V30 25597 H 2422.17 1.01718 3.86644 0
M  V30 25598 H 2423.61 0.0477036 4.23973 0
M  V30 25599 C 2422.07 -1.02373 3.2097 0
M  V30 25600 O 2422.6 -2.1022 3.42302 0
M  V30 25601 N 2420.81 -0.949223 2.7466 0
M  V30 25602 H 2420.35 -0.071472 2.57501 0
M  V30 25603 H 2420.31 -1.80045 2.57743 0
M  V30 25604 N 2424.08 -1.28513 0.912254 0
M  V30 25605 C 2425.02 -2.26406 0.3568 0
M  V30 25606 C 2426.03 -1.54805 -0.503905 0
M  V30 25607 O 2427.22 -1.75626 -0.319028 0
M  V30 25608 C 2424.32 -3.35059 -0.508767 0
M  V30 25609 C 2423.49 -4.3616 0.329083 0
M  V30 25610 C 2422.55 -5.24085 -0.47133 0
M  V30 25611 O 2421.58 -5.69083 0.115582 0
M  V30 25612 N 2422.78 -5.52707 -1.77469 0
M  V30 25613 H 2425.54 -2.74705 1.19822 0
M  V30 25614 H 2423.1 -1.41979 0.778047 0
M  V30 25615 H 2425.1 -3.90816 -1.05093 0
M  V30 25616 H 2423.67 -2.86481 -1.2509 0
M  V30 25617 H 2422.89 -3.79886 1.05262 0
M  V30 25618 H 2424.17 -5.00733 0.902428 0
M  V30 25619 H 2423.57 -5.17979 -2.27408 0
M  V30 25620 H 2422.13 -6.11228 -2.26372 0
M  V30 25621 N 2425.56 -0.676073 -1.42362 0
M  V30 25622 C 2426.97 -0.27598 -1.84649 0
M  V30 25623 C 2427.32 1.18212 -1.5659 0
M  V30 25624 O 2426.45 1.90512 -1.02637 0
M  V30 25625 C 2427.04 -0.494112 -3.35178 0
M  V30 25626 C 2425.6 -0.148127 -3.76108 0
M  V30 25627 C 2424.75 -0.785938 -2.65929 0
M  V30 25628 H 2427.7 -0.878144 -1.3219 0
M  V30 25629 H 2427.72 0.253363 -3.79656 0
M  V30 25630 H 2427.23 -1.55541 -3.55568 0
M  V30 25631 H 2425.34 0.909678 -3.61325 0
M  V30 25632 H 2425.45 -0.589538 -4.75459 0
M  V30 25633 H 2423.81 -0.217158 -2.53773 0
M  V30 25634 H 2424.6 -1.85072 -2.89142 0
M  V30 25635 N 2427.04 1.51915 -0.419488 0
M  V30 25636 C 2427.99 2.27292 0.400887 0
M  V30 25637 C 2428.96 1.30133 1.03221 0
M  V30 25638 O 2430.14 1.59011 1.05452 0
M  V30 25639 C 2427.28 3.10507 1.50597 0
M  V30 25640 C 2426.4 4.22637 0.894546 0
M  V30 25641 C 2425.53 4.93192 1.97319 0
M  V30 25642 C 2424.57 5.97269 1.33925 0
M  V30 25643 N 2423.71 6.61302 2.35848 0
M  V30 25644 H 2428.55 2.96964 -0.248304 0
M  V30 25645 H 2426.08 1.46486 -0.134292 0
M  V30 25646 H 2428.04 3.57066 2.15777 0
M  V30 25647 H 2426.67 2.42985 2.12505 0
M  V30 25648 H 2425.72 3.80173 0.131516 0
M  V30 25649 H 2427.04 4.97261 0.391553 0
M  V30 25650 H 2426.19 5.43209 2.70202 0
M  V30 25651 H 2424.93 4.18159 2.50987 0
M  V30 25652 H 2423.93 5.46562 0.5958 0
M  V30 25653 H 2425.16 6.7425 0.810133 0
M  V30 25654 H 2423.1 5.89092 2.88629 0
M  V30 25655 H 2423.02 7.31633 1.9039 0
M  V30 25656 H 2424.29 7.15954 3.08269 0
M  V30 25657 N 2428.52 0.150242 1.56882 0
M  V30 25658 C 2429.74 -0.510148 2.01028 0
M  V30 25659 C 2430.17 -1.57414 1.02969 0
M  V30 25660 O 2429.53 -1.81299 0.00593344 0
M  V30 25661 C 2429.57 -1.08466 3.439 0
M  V30 25662 O 2428.68 -2.19942 3.48854 0
M  V30 25663 H 2428.02 -0.124439 0.652235 0
M  V30 25664 H 2430.55 0.24793 2.03092 0
M  V30 25665 H 2430.56 -1.41252 3.82769 0
M  V30 25666 H 2429.23 -0.305509 4.14776 0
M  V30 25667 H 2427.81 -1.8836 3.21831 0
M  V30 25668 N 2430 -1.57115 -0.123538 0
M  V30 25669 C 2430.93 -2.03044 -1.15305 0
M  V30 25670 C 2431.91 -0.914086 -1.43452 0
M  V30 25671 O 2433.09 -1.18349 -1.53971 0
M  V30 25672 C 2430.22 -2.43093 -2.48038 0
M  V30 25673 C 2429.18 -3.58131 -2.34363 0
M  V30 25674 C 2428.5 -3.84065 -3.72019 0
M  V30 25675 C 2429.8 -4.9001 -1.80796 0
M  V30 25676 H 2431.5 -2.89301 -0.771051 0
M  V30 25677 H 2429.04 -1.3918 -0.369455 0
M  V30 25678 H 2431 -2.73828 -3.20306 0
M  V30 25679 H 2429.72 -1.53801 -2.88119 0
M  V30 25680 H 2428.38 -3.27598 -1.64545 0
M  V30 25681 H 2428.03 -2.91986 -4.09577 0
M  V30 25682 H 2427.73 -4.61496 -3.63724 0
M  V30 25683 H 2429.25 -4.17248 -4.45799 0
M  V30 25684 H 2430.66 -5.19311 -2.42877 0
M  V30 25685 H 2429.06 -5.7141 -1.83333 0
M  V30 25686 H 2430.13 -4.78824 -0.765196 0
M  V30 25687 N 2431.47 0.393589 -1.52606 0
M  V30 25688 C 2432.75 1.15302 -1.58003 0
M  V30 25689 C 2433.13 2.07825 -0.370422 0
M  V30 25690 O 2432.48 2.19307 0.6416 0
M  V30 25691 C 2432.69 1.91672 -2.91655 0
M  V30 25692 C 2434.04 2.47195 -3.45224 0
M  V30 25693 O 2435.06 2.01834 -2.93499 0
M  V30 25694 O 2433.92 3.30043 -4.35585 0
M  V30 25695 H 2431.01 0.527316 -0.637077 0
M  V30 25696 H 2433.56 0.399112 -1.6494 0
M  V30 25697 H 2432.33 1.23985 -3.71138 0
M  V30 25698 H 2431.96 2.74034 -2.88082 0
M  V30 25699 N 2432.95 1.43492 0.651762 0
M  V30 25700 C 2433.86 1.51213 1.79365 0
M  V30 25701 C 2434.88 0.399123 1.69361 0
M  V30 25702 O 2436.05 0.653464 1.90504 0
M  V30 25703 C 2433.12 1.43407 3.15651 0
M  V30 25704 C 2432.18 2.6539 3.37441 0
M  V30 25705 C 2431.41 2.57947 4.67225 0
M  V30 25706 O 2431.64 1.62802 5.46673 0
M  V30 25707 O 2430.57 3.48471 4.90767 0
M  V30 25708 H 2434.4 2.47641 1.75806 0
M  V30 25709 H 2431.98 1.25509 0.810425 0
M  V30 25710 H 2433.86 1.41501 3.96932 0
M  V30 25711 H 2432.54 0.501141 3.19797 0
M  V30 25712 H 2431.45 2.72868 2.55918 0
M  V30 25713 H 2432.78 3.5766 3.38142 0
M  V30 25714 N 2434.43 -0.890264 1.30046 0
M  V30 25715 C 2435.39 -1.97698 1.15967 0
M  V30 25716 C 2436.39 -1.60534 0.0924059 0
M  V30 25717 O 2437.58 -1.70848 0.340101 0
M  V30 25718 C 2434.72 -3.31962 0.775509 0
M  V30 25719 H 2435.91 -2.11616 2.12506 0
M  V30 25720 H 2433.46 -1.07599 1.13367 0
M  V30 25721 H 2434.2 -3.23745 -0.189614 0
M  V30 25722 H 2433.98 -3.60303 1.54674 0
M  V30 25723 H 2435.47 -4.11686 0.700323 0
M  V30 25724 N 2435.91 -1.12676 -1.1019 0
M  V30 25725 C 2436.84 -0.8194 -2.18651 0
M  V30 25726 C 2437.82 0.217886 -1.68699 0
M  V30 25727 O 2439 0.078524 -1.94041 0
M  V30 25728 C 2436.13 -0.276001 -3.46202 0
M  V30 25729 C 2435.09 -1.24664 -4.09442 0
M  V30 25730 C 2434.41 -0.563352 -5.31724 0
M  V30 25731 C 2435.71 -2.60225 -4.52858 0
M  V30 25732 H 2437.41 -1.72632 -2.44619 0
M  V30 25733 H 2434.95 -0.831472 -1.17569 0
M  V30 25734 H 2436.91 -0.048689 -4.21372 0
M  V30 25735 H 2435.63 0.666275 -3.19732 0
M  V30 25736 H 2434.29 -1.4598 -3.36282 0
M  V30 25737 H 2433.94 0.384147 -5.01531 0
M  V30 25738 H 2433.64 -1.21085 -5.74989 0
M  V30 25739 H 2435.16 -0.345137 -6.09624 0
M  V30 25740 H 2436.58 -2.42922 -5.1929 0
M  V30 25741 H 2434.97 -3.21077 -5.06981 0
M  V30 25742 H 2436.04 -3.18478 -3.6565 0
M  V30 25743 N 2437.39 1.28028 -0.919057 0
M  V30 25744 C 2438.33 2.27128 -0.410045 0
M  V30 25745 C 2439.3 1.57804 0.518377 0
M  V30 25746 O 2440.49 1.85671 0.439419 0
M  V30 25747 C 2437.63 3.43431 0.338994 0
M  V30 25748 C 2436.74 4.27491 -0.622543 0
M  V30 25749 C 2435.88 5.31001 0.145474 0
M  V30 25750 C 2434.92 6.06726 -0.809333 0
M  V30 25751 N 2434.05 7.0206 -0.0744962 0
M  V30 25752 H 2438.89 2.70045 -1.26015 0
M  V30 25753 H 2436.43 1.32799 -0.632687 0
M  V30 25754 H 2438.39 4.09661 0.789514 0
M  V30 25755 H 2437.02 3.0149 1.15341 0
M  V30 25756 H 2436.07 3.61255 -1.19159 0
M  V30 25757 H 2437.38 4.8011 -1.35261 0
M  V30 25758 H 2436.54 6.0314 0.656311 0
M  V30 25759 H 2435.27 4.79162 0.908559 0
M  V30 25760 H 2434.28 5.33433 -1.3315 0
M  V30 25761 H 2435.5 6.60654 -1.57206 0
M  V30 25762 H 2433.45 6.52564 0.670501 0
M  V30 25763 H 2433.37 7.52327 -0.744289 0
M  V30 25764 H 2434.64 7.78389 0.415972 0
M  V30 25765 N 2438.86 0.683613 1.42002 0
M  V30 25766 C 2440.09 0.217902 2.05448 0
M  V30 25767 C 2440.5 -1.13343 1.51493 0
M  V30 25768 O 2439.85 -1.71699 0.653078 0
M  V30 25769 C 2439.91 0.085075 3.59399 0
M  V30 25770 C 2439.57 1.36653 4.36091 0
M  V30 25771 C 2440.57 2.30187 4.66165 0
M  V30 25772 C 2438.25 1.61658 4.75576 0
M  V30 25773 C 2440.25 3.46997 5.3467 0
M  V30 25774 C 2437.93 2.78755 5.43819 0
M  V30 25775 C 2438.93 3.71248 5.73292 0
M  V30 25776 O 2438.62 4.86296 6.40134 0
M  V30 25777 H 2438.35 0.101466 0.668342 0
M  V30 25778 H 2440.91 0.93328 1.82973 0
M  V30 25779 H 2439.14 -0.685964 3.80567 0
M  V30 25780 H 2440.83 -0.341902 4.04457 0
M  V30 25781 H 2441.59 2.12122 4.36153 0
M  V30 25782 H 2437.47 0.905322 4.52023 0
M  V30 25783 H 2441.01 4.1921 5.57592 0
M  V30 25784 H 2436.91 2.96742 5.73249 0
M  V30 25785 H 2437.68 4.85955 6.58627 0
M  V30 25786 N 2440.34 -1.5169 0.427538 0
M  V30 25787 C 2441.58 -2.0391 -0.141488 0
M  V30 25788 C 2441.95 -1.30526 -1.40808 0
M  V30 25789 O 2443.15 -1.73067 -2.05673 0
M  V30 25790 C 2441.42 -3.55532 -0.3649 0
M  V30 25791 S 2442.98 -4.29498 -0.898737 0
M  V30 25792 H 2439.8 -0.710065 -0.0364417 0
M  V30 25793 H 2442.4 -1.86552 0.584692 0
M  V30 25794 H 2441.1 -4.06514 0.563431 0
M  V30 25795 H 2440.63 -3.77166 -1.11844 0
M  V30 25796 H 2442.65 -4.45875 -2.17739 0
M  V30 25797 N 2441.82 -0.15856 -1.568 0
M  V30 25798 C 2442.77 0.79369 -2.1864 0
M  V30 25799 C 2443.76 1.24687 -1.14671 0
M  V30 25800 O 2444.97 1.21401 -1.32898 0
M  V30 25801 H 2441.34 0.274191 -0.700231 0
M  V30 25802 H 2443.32 0.248043 -2.97367 0
M  V30 25803 C 2442.06 2.01805 -2.83143 0
M  V30 25804 H 2441.39 1.67834 -3.62866 0
M  V30 25805 H 2442.83 2.66351 -3.29899 0
M  V30 25806 C 2441.29 2.8335 -1.82249 0
M  V30 25807 O 2441.82 3.8008 -1.30007 0
M  V30 25808 N 2440.02 2.48111 -1.51292 0
M  V30 25809 H 2439.57 1.69513 -1.93967 0
M  V30 25810 H 2439.53 3.02961 -0.840349 0
M  V30 25811 N 2443.3 1.57178 0.115204 0
M  V30 25812 C 2444.53 1.88966 0.835191 0
M  V30 25813 C 2444.94 0.748321 1.73772 0
M  V30 25814 O 2444.28 -0.289707 1.81401 0
M  V30 25815 C 2444.34 3.15807 1.71774 0
M  V30 25816 C 2444.01 4.46167 0.989119 0
M  V30 25817 C 2445 5.18863 0.328171 0
M  V30 25818 C 2442.69 4.92861 0.969169 0
M  V30 25819 C 2444.68 6.36477 -0.342985 0
M  V30 25820 C 2442.37 6.10391 0.294216 0
M  V30 25821 C 2443.37 6.82047 -0.360702 0
M  V30 25822 O 2443.06 7.9734 -1.02488 0
M  V30 25823 H 2442.79 0.629968 0.245185 0
M  V30 25824 H 2445.34 2.05142 0.102994 0
M  V30 25825 H 2443.57 2.95724 2.49167 0
M  V30 25826 H 2445.26 3.33585 2.31249 0
M  V30 25827 H 2446.03 4.8384 0.335178 0
M  V30 25828 H 2441.91 4.3699 1.46836 0
M  V30 25829 H 2445.45 6.92344 -0.854751 0
M  V30 25830 H 2441.35 6.44871 0.284986 0
M  V30 25831 H 2442.11 8.13202 -0.929737 0
M  V30 25832 N 2444.78 -0.38549 1.52813 0
M  V30 25833 C 2446.02 -1.13185 1.68277 0
M  V30 25834 C 2446.36 -1.89532 0.423212 0
M  V30 25835 O 2445.63 -1.8568 -0.57908 0
M  V30 25836 C 2445.91 -2.10725 2.92005 0
M  V30 25837 C 2445.77 -1.38118 4.28069 0
M  V30 25838 C 2447.09 -3.11107 3.11288 0
M  V30 25839 H 2444.21 -0.410104 0.612359 0
M  V30 25840 H 2446.85 -0.414836 1.85416 0
M  V30 25841 H 2445 -2.7187 2.77523 0
M  V30 25842 H 2446.67 -0.799107 4.54326 0
M  V30 25843 H 2444.91 -0.683017 4.28389 0
M  V30 25844 H 2445.58 -2.09408 5.10737 0
M  V30 25845 H 2448.06 -2.60055 3.24824 0
M  V30 25846 H 2446.94 -3.76598 3.99331 0
M  V30 25847 H 2447.2 -3.80169 2.25663 0
M  V30 25848 N 2446.26 -1.43835 -0.644143 0
M  V30 25849 C 2447.5 -1.45932 -1.40392 0
M  V30 25850 C 2447.83 -0.0869999 -1.94305 0
M  V30 25851 O 2447.09 0.909347 -1.7329 0
M  V30 25852 C 2447.38 -2.45636 -2.59611 0
M  V30 25853 C 2447.05 -3.91288 -2.24063 0
M  V30 25854 C 2445.71 -4.30956 -2.14081 0
M  V30 25855 C 2448.06 -4.83037 -1.95766 0
M  V30 25856 C 2445.39 -5.60313 -1.73971 0
M  V30 25857 C 2447.74 -6.12769 -1.57152 0
M  V30 25858 C 2446.41 -6.51404 -1.45702 0
M  V30 25859 H 2445.68 -0.534005 -0.513732 0
M  V30 25860 H 2448.33 -1.7697 -0.731693 0
M  V30 25861 H 2446.63 -2.08034 -3.32008 0
M  V30 25862 H 2448.33 -2.4451 -3.1783 0
M  V30 25863 H 2444.92 -3.59899 -2.32746 0
M  V30 25864 H 2449.1 -4.53156 -2.02395 0
M  V30 25865 H 2444.36 -5.89078 -1.63699 0
M  V30 25866 H 2448.53 -6.83329 -1.34291 0
M  V30 25867 H 2446.16 -7.51544 -1.14393 0
M  V30 25868 N 2447.73 0.883355 -1.30517 0
M  V30 25869 C 2448.96 1.66839 -1.22362 0
M  V30 25870 C 2449.38 1.87592 0.213263 0
M  V30 25871 O 2448.73 1.42456 1.14072 0
M  V30 25872 C 2448.78 3.04386 -1.95017 0
M  V30 25873 O 2448.51 2.84569 -3.33095 0
M  V30 25874 C 2450.01 3.9882 -1.93539 0
M  V30 25875 H 2447.23 0.520567 -0.42338 0
M  V30 25876 H 2449.77 1.10354 -1.72169 0
M  V30 25877 H 2447.93 3.57598 -1.49004 0
M  V30 25878 H 2448.34 3.71839 -3.69913 0
M  V30 25879 H 2449.81 4.92694 -2.48911 0
M  V30 25880 H 2450.29 4.29569 -0.914702 0
M  V30 25881 H 2450.9 3.51542 -2.3937 0
M  V30 25882 N 2449.21 1.13259 1.09591 0
M  V30 25883 C 2450.46 0.887949 1.81103 0
M  V30 25884 C 2450.77 -0.587639 1.86564 0
M  V30 25885 O 2451.98 -0.94916 2.54368 0
M  V30 25886 C 2450.44 1.539 3.25335 0
M  V30 25887 C 2450.04 3.05 3.28145 0
M  V30 25888 C 2451.79 1.37499 4.01615 0
M  V30 25889 C 2449.69 3.62998 4.6689 0
M  V30 25890 H 2448.62 0.328546 0.678656 0
M  V30 25891 H 2451.28 1.3601 1.2318 0
M  V30 25892 H 2449.66 0.994514 3.83309 0
M  V30 25893 H 2450.83 3.66014 2.79947 0
M  V30 25894 H 2449.15 3.20898 2.65355 0
M  V30 25895 H 2451.74 1.78244 5.04116 0
M  V30 25896 H 2452.09 0.319643 4.15071 0
M  V30 25897 H 2452.62 1.88918 3.50078 0
M  V30 25898 H 2449.36 4.68331 4.58635 0
M  V30 25899 H 2448.88 3.06761 5.1542 0
M  V30 25900 H 2450.56 3.62573 5.35864 0
M  V30 25901 N 2450.69 -1.27539 0.925834 0
M  V30 25902 C 2451.94 -1.94738 0.566126 0
M  V30 25903 C 2452.27 -1.72604 -0.890026 0
M  V30 25904 O 2451.54 -1.05402 -1.63465 0
M  V30 25905 C 2451.83 -3.48913 0.890601 0
M  V30 25906 C 2451.68 -3.80398 2.40037 0
M  V30 25907 C 2453 -4.38322 0.395178 0
M  V30 25908 H 2450.12 -0.707288 0.207152 0
M  V30 25909 H 2452.76 -1.50689 1.15727 0
M  V30 25910 H 2450.91 -3.86562 0.38752 0
M  V30 25911 H 2452.58 -3.5255 2.975 0
M  V30 25912 H 2450.82 -3.27015 2.85033 0
M  V30 25913 H 2451.5 -4.88105 2.57793 0
M  V30 25914 H 2453.97 -4.07813 0.826312 0
M  V30 25915 H 2452.85 -5.45024 0.651181 0
M  V30 25916 H 2453.11 -4.36447 -0.704721 0
M  V30 25917 N 2452.17 -0.691135 -1.41637 0
M  V30 25918 C 2453.41 -0.220228 -2.01299 0
M  V30 25919 C 2453.74 1.17868 -1.54717 0
M  V30 25920 O 2453 1.80873 -0.747225 0
M  V30 25921 C 2453.3 -0.22134 -3.56714 0
M  V30 25922 C 2452.96 -1.56716 -4.22789 0
M  V30 25923 C 2451.62 -1.93561 -4.40554 0
M  V30 25924 C 2453.98 -2.45277 -4.59879 0
M  V30 25925 C 2451.3 -3.18561 -4.92682 0
M  V30 25926 C 2453.66 -3.69604 -5.13396 0
M  V30 25927 C 2452.32 -4.06598 -5.29372 0
M  V30 25928 H 2451.59 -0.0805873 -0.736605 0
M  V30 25929 H 2454.24 -0.889349 -1.69596 0
M  V30 25930 H 2452.54 0.531322 -3.88181 0
M  V30 25931 H 2454.24 0.160476 -4.00679 0
M  V30 25932 H 2450.83 -1.27057 -4.09334 0
M  V30 25933 H 2455.01 -2.18092 -4.45813 0
M  V30 25934 H 2450.27 -3.47223 -5.03236 0
M  V30 25935 H 2454.44 -4.38417 -5.41077 0
M  V30 25936 H 2452.07 -5.03529 -5.69528 0
M  V30 25937 N 2453.65 1.51461 -0.435577 0
M  V30 25938 C 2454.89 2.02372 0.131673 0
M  V30 25939 C 2455.22 1.31922 1.42514 0
M  V30 25940 O 2454.5 0.433606 1.89605 0
M  V30 25941 C 2454.78 3.58373 0.352238 0
M  V30 25942 C 2454.64 4.39441 -0.959754 0
M  V30 25943 C 2455.95 4.25537 1.12279 0
M  V30 25944 H 2453.07 0.735539 0.0463807 0
M  V30 25945 H 2455.72 1.81115 -0.574229 0
M  V30 25946 H 2453.87 3.76616 0.953534 0
M  V30 25947 H 2455.54 4.32852 -1.5949 0
M  V30 25948 H 2453.78 4.04596 -1.56475 0
M  V30 25949 H 2454.45 5.4675 -0.75949 0
M  V30 25950 H 2456.93 4.11553 0.613473 0
M  V30 25951 H 2455.8 5.34574 1.24588 0
M  V30 25952 H 2456.06 3.86277 2.15041 0
M  V30 25953 N 2455.12 0.166873 1.56714 0
M  V30 25954 C 2456.37 -0.479217 1.96748 0
M  V30 25955 C 2456.7 -1.63552 1.05266 0
M  V30 25956 O 2455.95 -1.95512 0.0858442 0
M  V30 25957 C 2456.25 -1.008 3.42891 0
M  V30 25958 C 2455.92 0.0319367 4.50889 0
M  V30 25959 C 2454.58 0.31776 4.8015 0
M  V30 25960 C 2456.93 0.738047 5.15948 0
M  V30 25961 C 2454.26 1.31516 5.7177 0
M  V30 25962 C 2456.61 1.7244 6.08644 0
M  V30 25963 C 2455.28 2.01771 6.36274 0
M  V30 25964 H 2454.55 -0.175358 0.719952 0
M  V30 25965 H 2457.19 0.257898 1.89755 0
M  V30 25966 H 2455.5 -1.82285 3.46813 0
M  V30 25967 H 2457.2 -1.51683 3.71205 0
M  V30 25968 H 2453.79 -0.201013 4.28128 0
M  V30 25969 H 2457.97 0.530438 4.93457 0
M  V30 25970 H 2453.23 1.54863 5.91462 0
M  V30 25971 H 2457.4 2.27694 6.58125 0
M  V30 25972 H 2455.03 2.79206 7.0707 0
M  V30 25973 N 2456.6 -1.57237 -0.106866 0
M  V30 25974 C 2457.51 -2.04532 -1.14907 0
M  V30 25975 C 2458.53 -0.967975 -1.4459 0
M  V30 25976 O 2459.7 -1.28033 -1.55465 0
M  V30 25977 C 2456.77 -2.4504 -2.45267 0
M  V30 25978 C 2455.83 -3.66914 -2.22873 0
M  V30 25979 C 2455.06 -4.05481 -3.47017 0
M  V30 25980 O 2455.29 -3.4426 -4.54798 0
M  V30 25981 O 2454.22 -4.9851 -3.37301 0
M  V30 25982 H 2458.05 -2.93581 -0.777409 0
M  V30 25983 H 2455.63 -1.45965 -0.318538 0
M  V30 25984 H 2457.51 -2.71775 -3.2205 0
M  V30 25985 H 2456.19 -1.59134 -2.81883 0
M  V30 25986 H 2455.1 -3.45313 -1.43909 0
M  V30 25987 H 2456.43 -4.53564 -1.91155 0
M  V30 25988 N 2458.08 0.377381 -1.53015 0
M  V30 25989 C 2459.04 1.44441 -1.77959 0
M  V30 25990 C 2460.04 1.47086 -0.649789 0
M  V30 25991 O 2461.23 1.48053 -0.917923 0
M  V30 25992 C 2458.37 2.83648 -1.89094 0
M  V30 25993 H 2459.56 1.23602 -2.73245 0
M  V30 25994 H 2457.11 0.609819 -1.43913 0
M  V30 25995 H 2457.85 3.09816 -0.958347 0
M  V30 25996 H 2457.63 2.83128 -2.71258 0
M  V30 25997 H 2459.12 3.60942 -2.10026 0
M  V30 25998 N 2459.56 1.44175 0.636506 0
M  V30 25999 C 2460.52 1.50276 1.7306 0
M  V30 26000 C 2461.52 0.385424 1.56113 0
M  V30 26001 O 2462.71 0.647839 1.61706 0
M  V30 26002 C 2459.84 1.3715 3.12094 0
M  V30 26003 H 2461.04 2.4773 1.69026 0
M  V30 26004 H 2458.59 1.31187 0.849683 0
M  V30 26005 H 2459.32 0.407693 3.21727 0
M  V30 26006 H 2459.11 2.18165 3.25801 0
M  V30 26007 H 2460.6 1.44389 3.91844 0
M  V30 26008 N 2461.04 -0.876421 1.30983 0
M  V30 26009 C 2461.97 -1.99901 1.20672 0
M  V30 26010 C 2462.95 -1.69832 0.0953838 0
M  V30 26011 O 2464.13 -1.92187 0.278884 0
M  V30 26012 C 2461.26 -3.35258 0.906609 0
M  V30 26013 C 2460.22 -3.79613 1.97681 0
M  V30 26014 C 2459.54 -5.12357 1.52952 0
M  V30 26015 C 2460.84 -3.97416 3.38907 0
M  V30 26016 H 2462.54 -2.08786 2.1459 0
M  V30 26017 H 2460.08 -1.00315 1.0331 0
M  V30 26018 H 2462.04 -4.13323 0.821098 0
M  V30 26019 H 2460.76 -3.26529 -0.0682395 0
M  V30 26020 H 2459.42 -3.03783 2.05211 0
M  V30 26021 H 2459.07 -5.00064 0.542707 0
M  V30 26022 H 2458.77 -5.43005 2.24542 0
M  V30 26023 H 2460.29 -5.92938 1.45796 0
M  V30 26024 H 2461.7 -4.65894 3.34089 0
M  V30 26025 H 2460.1 -4.39453 4.08658 0
M  V30 26026 H 2461.17 -3.00999 3.80168 0
M  V30 26027 N 2462.51 -1.13839 -1.08989 0
M  V30 26028 C 2463.46 -0.819873 -2.15747 0
M  V30 26029 C 2464.43 0.219997 -1.64637 0
M  V30 26030 O 2465.62 0.0912422 -1.90582 0
M  V30 26031 C 2462.76 -0.296973 -3.4382 0
M  V30 26032 C 2461.87 -1.39644 -4.08808 0
M  V30 26033 C 2461 -0.831406 -5.24653 0
M  V30 26034 C 2460.04 -1.90896 -5.81571 0
M  V30 26035 N 2459.18 -1.36154 -6.88772 0
M  V30 26036 H 2464.02 -1.7343 -2.42335 0
M  V30 26037 H 2461.56 -0.865634 -1.18934 0
M  V30 26038 H 2463.52 0.0243606 -4.17193 0
M  V30 26039 H 2462.15 0.580572 -3.17536 0
M  V30 26040 H 2461.2 -1.83428 -3.33254 0
M  V30 26041 H 2462.51 -2.21066 -4.47137 0
M  V30 26042 H 2461.66 -0.461622 -6.04941 0
M  V30 26043 H 2460.4 0.0138463 -4.87698 0
M  V30 26044 H 2459.41 -2.28776 -4.99942 0
M  V30 26045 H 2460.63 -2.75769 -6.20587 0
M  V30 26046 H 2458.58 -0.538369 -6.53787 0
M  V30 26047 H 2458.5 -2.1122 -7.25894 0
M  V30 26048 H 2459.76 -1.01947 -7.72805 0
M  V30 26049 N 2463.99 1.27046 -0.932584 0
M  V30 26050 C 2464.92 2.29065 -0.452942 0
M  V30 26051 C 2465.9 1.6291 0.48931 0
M  V30 26052 O 2467.09 1.90182 0.393013 0
M  V30 26053 C 2464.22 3.46082 0.290637 0
M  V30 26054 C 2463.17 4.24264 -0.564242 0
M  V30 26055 C 2462.5 5.33808 0.308793 0
M  V30 26056 C 2463.8 4.89146 -1.83121 0
M  V30 26057 H 2465.49 2.69435 -1.30557 0
M  V30 26058 H 2463.04 1.29525 -0.629224 0
M  V30 26059 H 2464.99 4.16555 0.63716 0
M  V30 26060 H 2463.72 3.04642 1.17733 0
M  V30 26061 H 2462.37 3.55544 -0.89354 0
M  V30 26062 H 2462.02 4.88609 1.19458 0
M  V30 26063 H 2461.72 5.87026 -0.259736 0
M  V30 26064 H 2463.25 6.07122 0.650777 0
M  V30 26065 H 2464.66 5.5188 -1.55246 0
M  V30 26066 H 2463.06 5.52444 -2.34363 0
M  V30 26067 H 2464.13 4.12572 -2.5478 0
M  V30 26068 N 2465.47 0.698636 1.41269 0
M  V30 26069 C 2466.72 0.231243 2.01477 0
M  V30 26070 C 2467.05 -1.1671 1.55217 0
M  V30 26071 O 2466.32 -1.78837 0.764703 0
M  V30 26072 C 2466.61 0.292344 3.58911 0
M  V30 26073 C 2466.46 1.72785 4.15289 0
M  V30 26074 C 2467.78 -0.346117 4.38737 0
M  V30 26075 H 2464.9 0.0855006 0.732024 0
M  V30 26076 H 2467.54 0.887936 1.67975 0
M  V30 26077 H 2465.69 -0.266792 3.87583 0
M  V30 26078 H 2467.36 2.34107 3.97482 0
M  V30 26079 H 2465.61 2.26103 3.70216 0
M  V30 26080 H 2466.28 1.72211 5.24449 0
M  V30 26081 H 2468.75 0.130108 4.15897 0
M  V30 26082 H 2467.63 -0.272836 5.48222 0
M  V30 26083 H 2467.89 -1.42727 4.18427 0
M  V30 26084 N 2466.95 -1.51228 0.443603 0
M  V30 26085 C 2467.91 -2.26464 -0.353092 0
M  V30 26086 C 2468.91 -1.30151 -0.944315 0
M  V30 26087 O 2470.1 -1.53811 -0.817786 0
M  V30 26088 C 2467.23 -3.06117 -1.50018 0
M  V30 26089 H 2468.43 -2.98331 0.306352 0
M  V30 26090 H 2465.98 -1.55054 0.196929 0
M  V30 26091 H 2466.71 -2.38681 -2.19549 0
M  V30 26092 H 2466.5 -3.76866 -1.08235 0
M  V30 26093 H 2467.99 -3.6309 -2.06289 0
M  V30 26094 N 2468.43 -0.175182 -1.56623 0
M  V30 26095 C 2469.67 0.468777 -1.96999 0
M  V30 26096 C 2470 1.62992 -1.06132 0
M  V30 26097 O 2469.26 1.95463 -0.0962114 0
M  V30 26098 C 2469.56 0.989803 -3.43421 0
M  V30 26099 C 2469.22 -0.055848 -4.50865 0
M  V30 26100 C 2467.88 -0.343219 -4.79974 0
M  V30 26101 C 2470.24 -0.765399 -5.15549 0
M  V30 26102 C 2467.56 -1.34546 -5.71064 0
M  V30 26103 C 2469.92 -1.75665 -6.07721 0
M  V30 26104 C 2468.58 -2.05143 -6.35195 0
M  V30 26105 H 2467.85 0.171538 -0.720872 0
M  V30 26106 H 2470.5 -0.267957 -1.89616 0
M  V30 26107 H 2468.8 1.80443 -3.47775 0
M  V30 26108 H 2470.5 1.49712 -3.72004 0
M  V30 26109 H 2467.09 0.178305 -4.28229 0
M  V30 26110 H 2471.27 -0.556599 -4.93169 0
M  V30 26111 H 2466.53 -1.57998 -5.90632 0
M  V30 26112 H 2470.7 -2.31181 -6.56908 0
M  V30 26113 H 2468.33 -2.82952 -7.05579 0
M  V30 26114 N 2469.91 1.57292 0.0985263 0
M  V30 26115 C 2471.15 1.85546 0.80106 0
M  V30 26116 C 2471.47 0.763385 1.79436 0
M  V30 26117 O 2470.74 -0.210696 1.94764 0
M  V30 26118 H 2469.32 0.684625 0.298828 0
M  V30 26119 H 2471.99 1.94732 0.0809722 0
M  V30 26120 H 2471.08 2.82166 1.33375 0
M  V30 26121 N 2471.38 -0.369261 1.53213 0
M  V30 26122 C 2472.63 -1.11229 1.69217 0
M  V30 26123 C 2472.96 -1.89409 0.442081 0
M  V30 26124 O 2472.21 -1.87034 -0.575911 0
M  V30 26125 C 2472.51 -2.10127 2.89104 0
M  V30 26126 C 2472.18 -1.48455 4.2576 0
M  V30 26127 C 2470.84 -1.31363 4.62922 0
M  V30 26128 C 2473.19 -1.03802 5.10759 0
M  V30 26129 C 2470.52 -0.681967 5.82723 0
M  V30 26130 C 2472.87 -0.420376 6.31202 0
M  V30 26131 C 2471.54 -0.23692 6.67079 0
M  V30 26132 H 2470.81 -0.407016 0.619209 0
M  V30 26133 H 2473.45 -0.394519 1.87392 0
M  V30 26134 H 2471.76 -2.88195 2.65426 0
M  V30 26135 H 2473.46 -2.67564 2.98681 0
M  V30 26136 H 2470.05 -1.62751 3.96497 0
M  V30 26137 H 2474.23 -1.15802 4.82601 0
M  V30 26138 H 2469.49 -0.528209 6.09114 0
M  V30 26139 H 2473.66 -0.066165 6.96369 0
M  V30 26140 H 2471.29 0.254611 7.59774 0
M  V30 26141 N 2472.86 -1.4451 -0.628851 0
M  V30 26142 C 2474.28 -1.28447 -0.947283 0
M  V30 26143 C 2474.48 -0.221907 -2.00274 0
M  V30 26144 O 2473.53 0.391427 -2.49448 0
M  V30 26145 C 2474.85 -2.65678 -1.40839 0
M  V30 26146 C 2476.39 -2.73406 -1.52374 0
M  V30 26147 C 2476.87 -4.11112 -2.01868 0
M  V30 26148 N 2478.36 -4.133 -2.09134 0
M  V30 26149 C 2479.1 -5.16704 -2.48606 0
M  V30 26150 N 2478.59 -6.30467 -2.87198 0
M  V30 26151 N 2480.38 -5.04059 -2.4876 0
M  V30 26152 H 2472.54 -2.12287 0.069135 0
M  V30 26153 H 2474.8 -0.94747 -0.0316998 0
M  V30 26154 H 2474.5 -3.44518 -0.707145 0
M  V30 26155 H 2474.38 -2.9272 -2.37897 0
M  V30 26156 H 2476.77 -1.94884 -2.21595 0
M  V30 26157 H 2476.85 -2.50103 -0.536855 0
M  V30 26158 H 2476.49 -4.90111 -1.33242 0
M  V30 26159 H 2476.42 -4.31794 -3.01432 0
M  V30 26160 H 2478.91 -3.31195 -1.81985 0
M  V30 26161 H 2479.22 -7.05179 -3.16136 0
M  V30 26162 H 2477.57 -6.33902 -2.84944 0
M  V30 26163 H 2480.76 -4.14237 -2.18002 0
M  V30 26164 H 2480.93 -5.84768 -2.79197 0
M  V30 26165 N 2474.34 0.869463 -1.31446 0
M  V30 26166 C 2475.76 1.15529 -1.10115 0
M  V30 26167 C 2475.96 2.01093 0.128052 0
M  V30 26168 O 2475.01 2.38909 0.817234 0
M  V30 26169 C 2476.32 1.84694 -2.37294 0
M  V30 26170 C 2477.87 1.97393 -2.42909 0
M  V30 26171 C 2478.35 2.69972 -3.69972 0
M  V30 26172 N 2479.84 2.77508 -3.70869 0
M  V30 26173 C 2480.57 3.34279 -4.65881 0
M  V30 26174 N 2480.07 3.91978 -5.71249 0
M  V30 26175 N 2481.86 3.32242 -4.534 0
M  V30 26176 H 2474.01 0.29931 -2.10281 0
M  V30 26177 H 2476.28 0.195198 -0.927686 0
M  V30 26178 H 2475.98 1.29272 -3.2708 0
M  V30 26179 H 2475.86 2.84968 -2.4713 0
M  V30 26180 H 2478.24 2.51979 -1.53592 0
M  V30 26181 H 2478.32 0.961601 -2.37038 0
M  V30 26182 H 2477.97 2.16054 -4.59656 0
M  V30 26183 H 2477.9 3.71613 -3.7311 0
M  V30 26184 H 2480.39 2.36558 -2.94701 0
M  V30 26185 H 2480.7 4.3341 -6.39825 0
M  V30 26186 H 2479.05 3.90352 -5.75022 0
M  V30 26187 H 2482.24 2.86404 -3.70257 0
M  V30 26188 H 2482.41 3.76188 -5.27623 0
M  V30 26189 N 2475.82 1.14415 1.08383 0
M  V30 26190 C 2477.06 0.912514 1.80775 0
M  V30 26191 C 2477.39 -0.560902 1.86237 0
M  V30 26192 O 2476.65 -1.43157 1.33434 0
M  V30 26193 C 2476.95 1.45885 3.2627 0
M  V30 26194 C 2476.61 2.95095 3.40925 0
M  V30 26195 C 2475.27 3.35831 3.44632 0
M  V30 26196 C 2477.63 3.91039 3.44584 0
M  V30 26197 C 2474.95 4.71173 3.49589 0
M  V30 26198 C 2477.31 5.26239 3.51077 0
M  V30 26199 C 2475.97 5.66487 3.53057 0
M  V30 26200 H 2475.24 0.333912 0.661501 0
M  V30 26201 H 2477.89 1.42786 1.2761 0
M  V30 26202 H 2476.19 0.864443 3.82145 0
M  V30 26203 H 2477.89 1.25556 3.80837 0
M  V30 26204 H 2474.48 2.626 3.38731 0
M  V30 26205 H 2478.66 3.60647 3.40951 0
M  V30 26206 H 2473.92 5.01716 3.49415 0
M  V30 26207 H 2478.09 6.00389 3.52854 0
M  V30 26208 H 2475.72 6.71345 3.56651 0
M  V30 26209 N 2477.3 -1.26549 0.939309 0
M  V30 26210 C 2478.54 -1.93839 0.585881 0
M  V30 26211 C 2478.87 -1.73719 -0.874753 0
M  V30 26212 O 2478.13 -1.06645 -1.6409 0
M  V30 26213 C 2478.42 -3.46595 0.872167 0
M  V30 26214 C 2478.09 -3.86852 2.31638 0
M  V30 26215 C 2476.75 -3.97553 2.71118 0
M  V30 26216 C 2479.1 -4.07061 3.25501 0
M  V30 26217 C 2476.43 -4.25859 4.03561 0
M  V30 26218 C 2478.78 -4.36854 4.57538 0
M  V30 26219 C 2477.45 -4.4577 4.96836 0
M  V30 26220 H 2476.72 -0.709308 0.214389 0
M  V30 26221 H 2479.37 -1.50396 1.18546 0
M  V30 26222 H 2477.67 -3.91339 0.190029 0
M  V30 26223 H 2479.37 -3.9682 0.577512 0
M  V30 26224 H 2475.96 -3.79068 2.00014 0
M  V30 26225 H 2480.14 -3.98222 2.96197 0
M  V30 26226 H 2475.4 -4.30973 4.33673 0
M  V30 26227 H 2479.57 -4.51437 5.30262 0
M  V30 26228 H 2477.2 -4.67457 5.9949 0
M  V30 26229 N 2478.77 -0.706118 -1.40896 0
M  V30 26230 C 2479.72 -0.0474879 -2.30751 0
M  V30 26231 C 2480.69 0.760264 -1.47679 0
M  V30 26232 O 2481.88 0.726146 -1.76442 0
M  V30 26233 C 2479.02 0.875251 -3.33816 0
M  V30 26234 C 2478.13 0.0579864 -4.31961 0
M  V30 26235 C 2477.26 0.979333 -5.22094 0
M  V30 26236 C 2476.3 0.155599 -6.11902 0
M  V30 26237 N 2475.44 1.03131 -6.94484 0
M  V30 26238 H 2480.28 -0.819463 -2.86511 0
M  V30 26239 H 2477.82 -0.415808 -1.41101 0
M  V30 26240 H 2479.77 1.42439 -3.92131 0
M  V30 26241 H 2478.4 1.61351 -2.79581 0
M  V30 26242 H 2477.46 -0.608213 -3.75506 0
M  V30 26243 H 2478.77 -0.580169 -4.95414 0
M  V30 26244 H 2477.92 1.59733 -5.85295 0
M  V30 26245 H 2476.66 1.65133 -4.58893 0
M  V30 26246 H 2475.67 -0.475405 -5.47741 0
M  V30 26247 H 2476.89 -0.512754 -6.77161 0
M  V30 26248 H 2474.84 1.68913 -6.3388 0
M  V30 26249 H 2474.75 0.448975 -7.54666 0
M  V30 26250 H 2476.02 1.63579 -7.62143 0
M  V30 26251 N 2480.25 1.50991 -0.451617 0
M  V30 26252 C 2481.53 1.94854 0.170672 0
M  V30 26253 C 2481.91 1.39106 1.58786 0
M  V30 26254 O 2481.26 0.58396 2.20912 0
M  V30 26255 C 2481.47 3.48743 0.133867 0
M  V30 26256 C 2482.81 4.23297 0.332405 0
M  V30 26257 O 2483.84 3.55572 0.211341 0
M  V30 26258 O 2482.7 5.43469 0.574765 0
M  V30 26259 H 2479.79 0.817914 0.12225 0
M  V30 26260 H 2482.34 1.61836 -0.510622 0
M  V30 26261 H 2481.11 3.81815 -0.85635 0
M  V30 26262 H 2480.73 3.88244 0.857461 0
M  V30 26263 N 2481.73 0.183486 1.56528 0
M  V30 26264 C 2483.15 -0.172526 1.58665 0
M  V30 26265 C 2483.35 -1.61924 1.19928 0
M  V30 26266 O 2482.4 -2.35277 0.916576 0
M  V30 26267 C 2483.71 0.119315 3.00463 0
M  V30 26268 C 2485.26 0.0584946 3.12945 0
M  V30 26269 C 2485.74 0.323488 4.56856 0
M  V30 26270 N 2487.23 0.271694 4.62402 0
M  V30 26271 C 2487.96 0.45074 5.71626 0
M  V30 26272 N 2487.46 0.689505 6.8936 0
M  V30 26273 N 2489.25 0.3858 5.60774 0
M  V30 26274 H 2481.4 1.12768 1.79992 0
M  V30 26275 H 2483.67 0.449236 0.8348 0
M  V30 26276 H 2483.37 1.12197 3.33324 0
M  V30 26277 H 2483.25 -0.583479 3.7266 0
M  V30 26278 H 2485.63 -0.934756 2.79904 0
M  V30 26279 H 2485.71 0.794187 2.43159 0
M  V30 26280 H 2485.36 1.314 4.90608 0
M  V30 26281 H 2485.29 -0.432958 5.24817 0
M  V30 26282 H 2487.78 0.093292 3.77785 0
M  V30 26283 H 2488.09 0.815249 7.68488 0
M  V30 26284 H 2486.44 0.726264 6.91195 0
M  V30 26285 H 2489.63 0.199769 4.67674 0
M  V30 26286 H 2489.8 0.528759 6.45839 0
M  V30 26287 N 2483.21 -1.57342 -0.0901833 0
M  V30 26288 C 2484.45 -1.87482 -0.788805 0
M  V30 26289 C 2484.81 -0.774931 -1.76104 0
M  V30 26290 O 2484.1 0.222629 -1.90302 0
M  V30 26291 C 2484.3 -3.21936 -1.55217 0
M  V30 26292 C 2484.12 -4.44899 -0.655363 0
M  V30 26293 C 2482.89 -5.04413 -0.299236 0
M  V30 26294 C 2485.09 -5.14285 0.0398362 0
M  V30 26295 N 2483.07 -6.10909 0.605216 0
M  V30 26296 C 2484.45 -6.14789 0.802169 0
M  V30 26297 C 2486.5 -4.97771 0.113242 0
M  V30 26298 C 2485.2 -7.00563 1.63106 0
M  V30 26299 C 2487.23 -5.84057 0.929044 0
M  V30 26300 C 2486.59 -6.84085 1.67948 0
M  V30 26301 H 2482.69 -0.735854 -0.264657 0
M  V30 26302 H 2485.27 -1.94633 -0.0511111 0
M  V30 26303 H 2483.45 -3.15827 -2.2607 0
M  V30 26304 H 2485.18 -3.39785 -2.19837 0
M  V30 26305 H 2481.93 -4.69146 -0.647997 0
M  V30 26306 H 2482.36 -6.68806 1.05014 0
M  V30 26307 H 2487 -4.2037 -0.452602 0
M  V30 26308 H 2484.72 -7.77352 2.20795 0
M  V30 26309 H 2488.3 -5.7334 0.988579 0
M  V30 26310 H 2487.18 -7.49695 2.30058 0
M  V30 26311 N 2484.69 0.36113 -1.53407 0
M  V30 26312 C 2485.63 1.46293 -1.80834 0
M  V30 26313 C 2486.63 1.55252 -0.677727 0
M  V30 26314 O 2487.83 1.58086 -0.860751 0
M  V30 26315 H 2484.21 0.487435 -0.572635 0
M  V30 26316 H 2486.18 1.20366 -2.73047 0
M  V30 26317 C 2484.93 2.83067 -2.01912 0
M  V30 26318 H 2484.25 2.76933 -2.88354 0
M  V30 26319 H 2485.69 3.59327 -2.25079 0
M  V30 26320 C 2484.15 3.27276 -0.799506 0
M  V30 26321 O 2484.68 4.01699 0.00964701 0
M  V30 26322 N 2482.89 2.83872 -0.621687 0
M  V30 26323 H 2482.43 2.23474 -1.2813 0
M  V30 26324 H 2482.39 3.13808 0.192925 0
M  V30 26325 N 2486.16 1.44842 0.621179 0
M  V30 26326 C 2487.1 1.48469 1.74613 0
M  V30 26327 C 2488.11 0.376938 1.58376 0
M  V30 26328 O 2489.3 0.643244 1.66507 0
M  V30 26329 C 2486.4 1.31241 3.12456 0
M  V30 26330 C 2485.57 2.55444 3.55059 0
M  V30 26331 C 2484.63 2.32971 4.71817 0
M  V30 26332 O 2483.66 3.06514 4.79623 0
M  V30 26333 N 2484.86 1.36664 5.64184 0
M  V30 26334 H 2487.62 2.45452 1.71969 0
M  V30 26335 H 2485.18 1.40408 0.806052 0
M  V30 26336 H 2487.18 1.14039 3.883 0
M  V30 26337 H 2485.75 0.425855 3.09686 0
M  V30 26338 H 2484.97 2.87856 2.69319 0
M  V30 26339 H 2486.25 3.38033 3.80278 0
M  V30 26340 H 2485.65 0.759442 5.60579 0
M  V30 26341 H 2484.21 1.25437 6.39616 0
M  V30 26342 N 2487.64 -0.862479 1.31905 0
M  V30 26343 C 2488.57 -1.9861 1.22785 0
M  V30 26344 C 2489.55 -1.69722 0.113391 0
M  V30 26345 O 2490.74 -1.9188 0.299252 0
M  V30 26346 C 2487.87 -3.34278 0.942117 0
M  V30 26347 C 2486.82 -3.77495 2.01696 0
M  V30 26348 C 2486.15 -5.10706 1.58378 0
M  V30 26349 C 2487.45 -3.93799 3.43103 0
M  V30 26350 H 2489.14 -2.06498 2.16792 0
M  V30 26351 H 2486.69 -0.992136 1.04368 0
M  V30 26352 H 2488.64 -4.12429 0.86489 0
M  V30 26353 H 2487.37 -3.26583 -0.0336029 0
M  V30 26354 H 2486.02 -3.01589 2.08421 0
M  V30 26355 H 2485.67 -4.9946 0.595715 0
M  V30 26356 H 2485.37 -5.40593 2.30289 0
M  V30 26357 H 2486.9 -5.91359 1.52077 0
M  V30 26358 H 2488.31 -4.62325 3.39011 0
M  V30 26359 H 2486.71 -4.35094 4.13296 0
M  V30 26360 H 2487.78 -2.9695 3.83339 0
M  V30 26361 N 2489.12 -1.14988 -1.07775 0
M  V30 26362 C 2490.4 -0.832726 -1.76989 0
M  V30 26363 C 2490.78 0.672525 -2.00101 0
M  V30 26364 O 2490.13 1.61547 -1.61601 0
M  V30 26365 C 2490.34 -1.63869 -3.08136 0
M  V30 26366 C 2491.68 -1.84215 -3.82557 0
M  V30 26367 O 2492.71 -1.60609 -3.17936 0
M  V30 26368 O 2491.57 -2.23723 -4.98608 0
M  V30 26369 H 2488.66 -0.305804 -0.768383 0
M  V30 26370 H 2491.21 -1.25543 -1.14179 0
M  V30 26371 H 2489.98 -2.66085 -2.86905 0
M  V30 26372 H 2489.6 -1.21203 -3.78676 0
M  V30 26373 N 2490.6 1.26049 -0.946007 0
M  V30 26374 C 2491.53 2.28572 -0.477212 0
M  V30 26375 C 2492.51 1.6342 0.472003 0
M  V30 26376 O 2493.69 1.90588 0.372819 0
M  V30 26377 C 2490.82 3.46371 0.253914 0
M  V30 26378 C 2489.78 4.23642 -0.60921 0
M  V30 26379 C 2489.1 5.34105 0.252158 0
M  V30 26380 C 2490.4 4.87176 -1.88299 0
M  V30 26381 H 2492.1 2.68035 -1.33407 0
M  V30 26382 H 2489.64 1.28851 -0.642926 0
M  V30 26383 H 2491.6 4.17208 0.592942 0
M  V30 26384 H 2490.32 3.05873 1.14495 0
M  V30 26385 H 2488.98 3.54576 -0.9312 0
M  V30 26386 H 2488.63 4.89848 1.14269 0
M  V30 26387 H 2488.33 5.86717 -0.321983 0
M  V30 26388 H 2489.85 6.07778 0.586347 0
M  V30 26389 H 2491.27 5.50202 -1.61091 0
M  V30 26390 H 2489.66 5.49927 -2.40209 0
M  V30 26391 H 2490.73 4.09846 -2.59141 0
M  V30 26392 N 2492.08 0.71358 1.4052 0
M  V30 26393 C 2493.04 0.068475 2.29098 0
M  V30 26394 C 2494.04 -0.689446 1.4527 0
M  V30 26395 O 2495.23 -0.521648 1.66206 0
M  V30 26396 C 2492.36 -0.912966 3.28447 0
M  V30 26397 H 2493.55 0.848601 2.87643 0
M  V30 26398 H 2491.11 0.478116 1.48808 0
M  V30 26399 H 2491.84 -1.72022 2.74916 0
M  V30 26400 H 2491.63 -0.372403 3.90328 0
M  V30 26401 H 2493.12 -1.36158 3.9478 0
M  V30 26402 N 2493.55 -1.50749 0.459618 0
M  V30 26403 C 2494.8 -2.01447 -0.100936 0
M  V30 26404 C 2495.12 -1.34715 -1.41814 0
M  V30 26405 O 2496.32 -1.76506 -2.06296 0
M  V30 26406 C 2494.78 -3.59162 -0.230407 0
M  V30 26407 C 2494.39 -4.34845 1.07768 0
M  V30 26408 C 2496.13 -4.17938 -0.743535 0
M  V30 26409 C 2494.04 -5.84316 0.912632 0
M  V30 26410 H 2492.97 -0.752857 -0.041497 0
M  V30 26411 H 2495.62 -1.73662 0.592772 0
M  V30 26412 H 2494 -3.83486 -0.987635 0
M  V30 26413 H 2495.17 -4.22253 1.84497 0
M  V30 26414 H 2493.49 -3.87625 1.52104 0
M  V30 26415 H 2496.09 -5.27344 -0.883866 0
M  V30 26416 H 2496.43 -3.78565 -1.73189 0
M  V30 26417 H 2496.96 -3.97776 -0.04401 0
M  V30 26418 H 2493.7 -6.28141 1.87402 0
M  V30 26419 H 2493.22 -5.99513 0.185527 0
M  V30 26420 H 2494.9 -6.44443 0.57466 0
M  V30 26421 N 2495.03 -0.191784 -1.56429 0
M  V30 26422 C 2496.28 0.448519 -1.97778 0
M  V30 26423 C 2496.61 1.61499 -1.0785 0
M  V30 26424 O 2495.89 1.94066 -0.129808 0
M  V30 26425 C 2496.17 0.911845 -3.48364 0
M  V30 26426 C 2496.02 -0.256215 -4.4907 0
M  V30 26427 C 2497.34 1.77849 -4.02564 0
M  V30 26428 H 2494.46 0.16156 -0.719074 0
M  V30 26429 H 2497.1 -0.28204 -1.87895 0
M  V30 26430 H 2495.25 1.53436 -3.56917 0
M  V30 26431 H 2496.92 -0.893812 -4.52558 0
M  V30 26432 H 2495.17 -0.90851 -4.2418 0
M  V30 26433 H 2495.84 0.110433 -5.5189 0
M  V30 26434 H 2498.31 1.25352 -3.9677 0
M  V30 26435 H 2497.19 2.07165 -5.08305 0
M  V30 26436 H 2497.45 2.73152 -3.47621 0
M  V30 26437 N 2496.51 1.57387 0.0818378 0
M  V30 26438 C 2497.44 2.0603 1.09881 0
M  V30 26439 C 2498.42 0.951798 1.40978 0
M  V30 26440 O 2499.61 1.2239 1.50779 0
M  V30 26441 C 2496.74 2.49584 2.41506 0
M  V30 26442 C 2495.69 3.64219 2.24786 0
M  V30 26443 C 2495.02 3.93793 3.61705 0
M  V30 26444 C 2496.32 4.94632 1.6774 0
M  V30 26445 H 2498.01 2.91244 0.694077 0
M  V30 26446 H 2495.56 1.4011 0.332424 0
M  V30 26447 H 2497.51 2.82224 3.12934 0
M  V30 26448 H 2496.23 1.61386 2.8394 0
M  V30 26449 H 2494.89 3.31846 1.55801 0
M  V30 26450 H 2494.54 3.02743 4.01691 0
M  V30 26451 H 2494.24 4.70978 3.5136 0
M  V30 26452 H 2495.76 4.28921 4.34579 0
M  V30 26453 H 2497.18 5.25568 2.29023 0
M  V30 26454 H 2495.58 5.7607 1.68118 0
M  V30 26455 H 2496.65 4.80685 0.637975 0
M  V30 26456 N 2497.99 -0.35299 1.53596 0
M  V30 26457 C 2498.92 -1.4388 1.83904 0
M  V30 26458 C 2499.9 -1.55323 0.693448 0
M  V30 26459 O 2501.08 -1.69686 0.944482 0
M  V30 26460 C 2498.21 -2.81057 2.04021 0
M  V30 26461 C 2497.17 -2.84428 3.19819 0
M  V30 26462 C 2496.49 -4.244 3.25252 0
M  V30 26463 C 2497.79 -2.50814 4.58137 0
M  V30 26464 H 2499.49 -1.18765 2.74837 0
M  V30 26465 H 2497.03 -0.569894 1.32243 0
M  V30 26466 H 2498.99 -3.57055 2.23807 0
M  V30 26467 H 2497.71 -3.07586 1.0981 0
M  V30 26468 H 2496.37 -2.10882 2.99874 0
M  V30 26469 H 2496.02 -4.48025 2.28654 0
M  V30 26470 H 2495.72 -4.27569 4.03061 0
M  V30 26471 H 2497.24 -5.02254 3.47237 0
M  V30 26472 H 2498.66 -3.16526 4.78001 0
M  V30 26473 H 2497.05 -2.65281 5.38281 0
M  V30 26474 H 2498.12 -1.46026 4.6239 0
M  V30 26475 N 2499.47 -1.45169 -0.613489 0
M  V30 26476 C 2500.69 -1.5262 -1.40434 0
M  V30 26477 C 2501.12 -0.15774 -1.87437 0
M  V30 26478 O 2500.48 0.856509 -1.59792 0
M  V30 26479 C 2500.52 -2.51016 -2.58889 0
M  V30 26480 O 2499.63 -2.02388 -3.59323 0
M  V30 26481 H 2498.97 -0.514702 -0.419497 0
M  V30 26482 H 2501.5 -1.90469 -0.747181 0
M  V30 26483 H 2501.51 -2.69629 -3.06209 0
M  V30 26484 H 2500.18 -3.50407 -2.24026 0
M  V30 26485 H 2498.76 -1.93624 -3.18692 0
M  V30 26486 N 2500.95 0.855472 -1.32361 0
M  V30 26487 C 2501.88 1.97956 -1.23837 0
M  V30 26488 C 2502.86 1.69659 -0.122391 0
M  V30 26489 O 2504.04 1.91719 -0.309424 0
M  V30 26490 C 2501.17 3.33773 -0.959831 0
M  V30 26491 C 2500.13 3.7642 -2.03695 0
M  V30 26492 C 2499.45 5.09859 -1.61084 0
M  V30 26493 C 2500.75 3.91974 -3.45187 0
M  V30 26494 H 2502.45 2.05346 -2.17884 0
M  V30 26495 H 2499.99 0.986587 -1.04893 0
M  V30 26496 H 2501.94 4.11964 -0.88675 0
M  V30 26497 H 2500.67 3.26596 0.016283 0
M  V30 26498 H 2499.33 3.0048 -2.10018 0
M  V30 26499 H 2498.98 4.99137 -0.622195 0
M  V30 26500 H 2498.68 5.39364 -2.33152 0
M  V30 26501 H 2500.2 5.90544 -1.55211 0
M  V30 26502 H 2501.61 4.6052 -3.41458 0
M  V30 26503 H 2500.01 4.32896 -4.15598 0
M  V30 26504 H 2501.08 2.94913 -3.84908 0
M  V30 26505 N 2502.42 1.15558 1.07164 0
M  V30 26506 C 2503.36 0.79763 2.13806 0
M  V30 26507 C 2504.33 -0.226783 1.61011 0
M  V30 26508 O 2505.52 -0.112899 1.88162 0
M  V30 26509 C 2502.65 0.18643 3.38187 0
M  V30 26510 C 2501.69 1.18304 4.09764 0
M  V30 26511 S 2502.52 2.72592 4.60927 0
M  V30 26512 C 2503.68 2.12897 5.8858 0
M  V30 26513 H 2503.91 1.70087 2.4384 0
M  V30 26514 H 2501.45 0.978127 1.19466 0
M  V30 26515 H 2503.4 -0.159764 4.10189 0
M  V30 26516 H 2502.07 -0.694435 3.06327 0
M  V30 26517 H 2501.26 0.70365 4.99064 0
M  V30 26518 H 2500.86 1.47387 3.43734 0
M  V30 26519 H 2503.15 1.49219 6.60863 0
M  V30 26520 H 2504.1 3.00371 6.41235 0
M  V30 26521 H 2504.5 1.57126 5.42192 0
M  V30 26522 N 2503.9 -1.25546 0.952678 0
M  V30 26523 C 2505.15 -1.92825 0.605209 0
M  V30 26524 C 2505.47 -1.75 -0.860231 0
M  V30 26525 O 2504.74 -1.11247 -1.61248 0
M  V30 26526 H 2503.32 -0.713608 0.220844 0
M  V30 26527 H 2505.98 -1.52751 1.2105 0
M  V30 26528 H 2505.08 -3.00782 0.832851 0
M  V30 26529 N 2505.38 -0.721022 -1.40139 0
M  V30 26530 C 2506.63 -0.259839 -2.00019 0
M  V30 26531 C 2506.94 1.15524 -1.57841 0
M  V30 26532 O 2508.15 1.71522 -2.10458 0
M  V30 26533 C 2506.6 -0.413629 -3.57515 0
M  V30 26534 C 2506.21 -1.83569 -4.08664 0
M  V30 26535 C 2507.96 -0.0135133 -4.24498 0
M  V30 26536 C 2505.86 -1.93978 -5.58683 0
M  V30 26537 H 2504.79 -0.0933938 -0.748194 0
M  V30 26538 H 2507.44 -0.892894 -1.60311 0
M  V30 26539 H 2505.83 0.288099 -3.94951 0
M  V30 26540 H 2507 -2.56824 -3.82594 0
M  V30 26541 H 2505.31 -2.18776 -3.54297 0
M  V30 26542 H 2507.91 -0.0704894 -5.34654 0
M  V30 26543 H 2508.25 1.0292 -4.03377 0
M  V30 26544 H 2508.79 -0.665884 -3.92187 0
M  V30 26545 H 2505.53 -2.9639 -5.84665 0
M  V30 26546 H 2505.05 -1.25142 -5.866 0
M  V30 26547 H 2506.73 -1.71442 -6.23872 0
M  V30 26548 N 2506.86 1.50503 -0.467606 0
M  V30 26549 C 2508.09 2.0672 0.086377 0
M  V30 26550 C 2508.5 1.33186 1.33817 0
M  V30 26551 O 2507.86 0.400114 1.7806 0
M  V30 26552 C 2507.91 3.59518 0.378016 0
M  V30 26553 O 2507.63 4.30279 -0.82412 0
M  V30 26554 C 2509.13 4.32347 0.97935 0
M  V30 26555 H 2506.35 0.670977 -0.00552876 0
M  V30 26556 H 2508.89 1.93713 -0.655388 0
M  V30 26557 H 2507.05 3.72339 1.06971 0
M  V30 26558 H 2507.46 5.21431 -0.566609 0
M  V30 26559 H 2508.94 5.40243 1.1332 0
M  V30 26560 H 2509.41 3.92614 1.96853 0
M  V30 26561 H 2510.02 4.24048 0.326141 0
M  V30 26562 N 2508.34 0.200077 1.56325 0
M  V30 26563 C 2509.27 -0.713877 2.2232 0
M  V30 26564 C 2510.25 -1.2175 1.1879 0
M  V30 26565 O 2511.43 -1.26543 1.47311 0
M  V30 26566 C 2508.56 -1.93139 2.88643 0
M  V30 26567 C 2507.52 -1.56248 3.9846 0
M  V30 26568 C 2506.84 -2.85701 4.51972 0
M  V30 26569 C 2508.14 -0.768656 5.16613 0
M  V30 26570 H 2509.84 -0.163702 2.98952 0
M  V30 26571 H 2507.38 -0.0772966 1.43792 0
M  V30 26572 H 2509.33 -2.57602 3.33495 0
M  V30 26573 H 2508.06 -2.50618 2.09424 0
M  V30 26574 H 2506.72 -0.941409 3.54306 0
M  V30 26575 H 2506.37 -3.4128 3.69509 0
M  V30 26576 H 2506.07 -2.61761 5.26075 0
M  V30 26577 H 2507.59 -3.51145 4.99529 0
M  V30 26578 H 2509 -1.3165 5.57979 0
M  V30 26579 H 2507.4 -0.627181 5.96814 0
M  V30 26580 H 2508.47 0.229253 4.84358 0
M  V30 26581 N 2509.81 -1.57429 -0.0734901 0
M  V30 26582 C 2510.72 -2.06924 -1.10543 0
M  V30 26583 C 2511.74 -0.998427 -1.42504 0
M  V30 26584 O 2512.92 -1.31302 -1.52715 0
M  V30 26585 C 2509.98 -2.50188 -2.40014 0
M  V30 26586 C 2509.04 -3.71559 -2.1504 0
M  V30 26587 C 2508.27 -4.12751 -3.38338 0
M  V30 26588 O 2508.5 -3.5383 -4.47393 0
M  V30 26589 O 2507.43 -5.05552 -3.26651 0
M  V30 26590 H 2511.26 -2.95164 -0.714962 0
M  V30 26591 H 2508.84 -1.46608 -0.287505 0
M  V30 26592 H 2510.72 -2.78545 -3.16213 0
M  V30 26593 H 2509.4 -1.65077 -2.78444 0
M  V30 26594 H 2508.31 -3.48288 -1.36552 0
M  V30 26595 H 2509.64 -4.57517 -1.81491 0
M  V30 26596 N 2511.29 0.344839 -1.53781 0
M  V30 26597 C 2512.2 1.44687 -1.8467 0
M  V30 26598 C 2513.22 1.57633 -0.736732 0
M  V30 26599 O 2514.39 1.73134 -1.02891 0
M  V30 26600 C 2511.46 2.79692 -2.04874 0
M  V30 26601 C 2510.52 2.761 -3.28736 0
M  V30 26602 C 2509.75 4.04666 -3.47967 0
M  V30 26603 O 2509.98 5.01879 -2.71061 0
M  V30 26604 O 2508.91 4.09216 -4.4139 0
M  V30 26605 H 2512.74 1.21501 -2.78337 0
M  V30 26606 H 2510.32 0.536897 -1.39419 0
M  V30 26607 H 2512.2 3.59649 -2.19615 0
M  V30 26608 H 2510.88 3.02812 -1.14396 0
M  V30 26609 H 2509.78 1.94769 -3.19399 0
M  V30 26610 H 2511.12 2.57934 -4.19203 0
M  V30 26611 N 2512.77 1.45492 0.605781 0
M  V30 26612 C 2514.02 1.48876 1.36084 0
M  V30 26613 C 2514.33 0.135367 1.95131 0
M  V30 26614 O 2515.54 0.0468621 2.7146 0
M  V30 26615 C 2513.99 2.6222 2.46513 0
M  V30 26616 C 2513.6 4.03879 1.9387 0
M  V30 26617 C 2515.35 2.74851 3.23507 0
M  V30 26618 C 2513.25 5.08601 3.01792 0
M  V30 26619 H 2512.18 0.553983 0.511487 0
M  V30 26620 H 2514.83 1.71638 0.649059 0
M  V30 26621 H 2513.22 2.32745 3.20384 0
M  V30 26622 H 2514.39 4.4304 1.26696 0
M  V30 26623 H 2512.7 3.95713 1.29615 0
M  V30 26624 H 2515.3 3.5026 4.04007 0
M  V30 26625 H 2515.64 1.81549 3.74627 0
M  V30 26626 H 2516.18 3.0386 2.56737 0
M  V30 26627 H 2512.92 6.03619 2.55587 0
M  V30 26628 H 2512.44 4.74008 3.67527 0
M  V30 26629 H 2514.12 5.33431 3.66143 0
M  V30 26630 N 2514.25 -0.848441 1.32813 0
M  V30 26631 C 2515.16 -1.98975 1.24282 0
M  V30 26632 C 2516.17 -1.73306 0.155206 0
M  V30 26633 O 2517.35 -1.97839 0.377034 0
M  V30 26634 C 2514.42 -3.32781 0.972502 0
M  V30 26635 C 2513.48 -3.7163 2.14917 0
M  V30 26636 C 2512.71 -4.99051 1.89166 0
M  V30 26637 O 2512.93 -5.64222 0.837264 0
M  V30 26638 O 2511.87 -5.35178 2.75442 0
M  V30 26639 H 2515.69 -2.09111 2.20242 0
M  V30 26640 H 2513.28 -0.980032 1.12764 0
M  V30 26641 H 2515.16 -4.12973 0.838504 0
M  V30 26642 H 2513.83 -3.23671 0.0431079 0
M  V30 26643 H 2512.74 -2.91988 2.33867 0
M  V30 26644 H 2514.07 -3.85394 3.06157 0
M  V30 26645 N 2515.73 -1.16125 -1.06549 0
M  V30 26646 C 2516.66 -0.808958 -2.1338 0
M  V30 26647 C 2517.64 0.218241 -1.61129 0
M  V30 26648 O 2518.82 0.102919 -1.88219 0
M  V30 26649 C 2515.95 -0.204362 -3.38083 0
M  V30 26650 C 2514.99 -1.20476 -4.09131 0
M  V30 26651 S 2515.83 -2.75032 -4.59475 0
M  V30 26652 C 2516.98 -2.16015 -5.87442 0
M  V30 26653 H 2517.22 -1.71378 -2.42934 0
M  V30 26654 H 2514.75 -0.984449 -1.18945 0
M  V30 26655 H 2516.71 0.138009 -4.10268 0
M  V30 26656 H 2515.37 0.67818 -3.06691 0
M  V30 26657 H 2514.56 -0.730107 -4.98684 0
M  V30 26658 H 2514.16 -1.49208 -3.42947 0
M  V30 26659 H 2516.46 -1.52722 -6.60062 0
M  V30 26660 H 2517.4 -3.03768 -6.39633 0
M  V30 26661 H 2517.81 -1.59999 -5.41351 0
M  V30 26662 N 2517.2 1.25039 -0.959323 0
M  V30 26663 C 2518.43 1.97487 -0.633541 0
M  V30 26664 C 2518.85 1.70774 0.788525 0
M  V30 26665 O 2518.21 0.966458 1.53393 0
M  V30 26666 C 2518.26 3.49082 -0.904119 0
M  V30 26667 O 2517.36 4.12397 0.0147214 0
M  V30 26668 H 2516.71 0.618962 -0.240379 0
M  V30 26669 H 2519.24 1.59036 -1.28719 0
M  V30 26670 H 2519.25 3.99421 -0.832273 0
M  V30 26671 H 2517.92 3.67853 -1.94054 0
M  V30 26672 H 2516.5 3.72739 -0.10973 0
M  V30 26673 N 2518.68 0.728444 1.39755 0
M  V30 26674 C 2519.65 0.09277 2.29012 0
M  V30 26675 C 2520.65 -0.674 1.45993 0
M  V30 26676 O 2521.84 -0.50399 1.6675 0
M  V30 26677 C 2518.97 -0.878079 3.29397 0
M  V30 26678 H 2520.16 0.879061 2.86727 0
M  V30 26679 H 2517.71 0.493873 1.48292 0
M  V30 26680 H 2518.45 -1.69096 2.76725 0
M  V30 26681 H 2518.23 -0.330983 3.90701 0
M  V30 26682 H 2519.72 -1.31963 3.96201 0
M  V30 26683 N 2520.16 -1.50253 0.475581 0
M  V30 26684 C 2521.12 -2.27162 -0.304976 0
M  V30 26685 C 2522.12 -1.32125 -0.916496 0
M  V30 26686 O 2523.31 -1.55511 -0.784976 0
M  V30 26687 C 2520.45 -3.0923 -1.43491 0
M  V30 26688 H 2521.64 -2.97614 0.369564 0
M  V30 26689 H 2519.19 -1.54602 0.229774 0
M  V30 26690 H 2519.93 -2.43284 -2.14437 0
M  V30 26691 H 2519.71 -3.79077 -1.00217 0
M  V30 26692 H 2521.2 -3.67384 -1.98541 0
M  V30 26693 N 2521.64 -0.208365 -1.56217 0
M  V30 26694 C 2522.57 0.702077 -2.22695 0
M  V30 26695 C 2523.55 1.21118 -1.19434 0
M  V30 26696 O 2524.73 1.2576 -1.4798 0
M  V30 26697 C 2521.86 1.91605 -2.89663 0
M  V30 26698 C 2520.82 1.54133 -3.99283 0
M  V30 26699 C 2520.14 2.833 -4.53481 0
M  V30 26700 C 2521.44 0.741248 -5.17013 0
M  V30 26701 H 2523.14 0.147846 -2.99035 0
M  V30 26702 H 2520.68 0.0696698 -1.43831 0
M  V30 26703 H 2522.64 2.5583 -3.34857 0
M  V30 26704 H 2521.36 2.49504 -2.1075 0
M  V30 26705 H 2520.02 0.922606 -3.54801 0
M  V30 26706 H 2519.67 3.39316 -3.71314 0
M  V30 26707 H 2519.37 2.58967 -5.27456 0
M  V30 26708 H 2520.89 3.48491 -5.01385 0
M  V30 26709 H 2522.31 1.2869 -5.5867 0
M  V30 26710 H 2520.7 0.595522 -5.97138 0
M  V30 26711 H 2521.77 -0.254936 -4.84229 0
M  V30 26712 N 2523.12 1.57465 0.0651402 0
M  V30 26713 C 2524.53 1.76239 0.616182 0
M  V30 26714 C 2524.88 0.83472 1.77558 0
M  V30 26715 O 2524 0.0204537 2.1639 0
M  V30 26716 C 2524.6 3.19592 1.12456 0
M  V30 26717 C 2523.16 3.39687 1.62141 0
M  V30 26718 C 2522.3 2.71918 0.543691 0
M  V30 26719 H 2525.26 1.57881 -0.16105 0
M  V30 26720 H 2525.28 3.24118 1.99318 0
M  V30 26721 H 2524.79 3.87085 0.280524 0
M  V30 26722 H 2522.89 2.77318 2.48849 0
M  V30 26723 H 2523 4.48161 1.69377 0
M  V30 26724 H 2521.37 2.34659 0.99031 0
M  V30 26725 H 2522.15 3.42071 -0.290276 0
M  V30 26726 N 2524.59 -0.336679 1.53962 0
M  V30 26727 C 2525.84 -1.0736 1.70753 0
M  V30 26728 C 2526.16 -1.89591 0.481094 0
M  V30 26729 O 2527.36 -2.66275 0.530093 0
M  V30 26730 C 2525.82 -1.95813 3.01969 0
M  V30 26731 C 2525.43 -1.18756 4.31973 0
M  V30 26732 C 2527.17 -2.69321 3.28126 0
M  V30 26733 C 2525.08 -2.06279 5.54259 0
M  V30 26734 H 2524.01 -0.404523 0.636299 0
M  V30 26735 H 2526.66 -0.332649 1.8046 0
M  V30 26736 H 2525.04 -2.73755 2.86136 0
M  V30 26737 H 2526.21 -0.456768 4.58531 0
M  V30 26738 H 2524.53 -0.569873 4.12482 0
M  V30 26739 H 2527.13 -3.35087 4.16678 0
M  V30 26740 H 2527.47 -3.36257 2.45432 0
M  V30 26741 H 2528 -1.98448 3.44765 0
M  V30 26742 H 2524.74 -1.43873 6.39516 0
M  V30 26743 H 2524.26 -2.77128 5.3194 0
M  V30 26744 H 2525.94 -2.65172 5.90163 0
M  V30 26745 N 2526.07 -1.45812 -0.598057 0
M  V30 26746 C 2527.02 -1.55558 -1.72929 0
M  V30 26747 C 2528.01 -0.42495 -1.63983 0
M  V30 26748 O 2529.22 -0.601235 -1.69662 0
M  V30 26749 H 2525.6 -0.488789 -0.57148 0
M  V30 26750 H 2527.57 -2.50702 -1.61837 0
M  V30 26751 C 2526.32 -1.54848 -3.11316 0
M  V30 26752 H 2525.64 -2.41178 -3.18863 0
M  V30 26753 H 2527.08 -1.65724 -3.90271 0
M  V30 26754 C 2525.54 -0.274486 -3.3578 0
M  V30 26755 O 2526.07 0.641708 -3.96541 0
M  V30 26756 N 2524.27 -0.16719 -2.90119 0
M  V30 26757 H 2523.82 -0.913638 -2.40854 0
M  V30 26758 H 2523.78 0.684382 -3.06861 0
M  V30 26759 N 2527.55 0.841385 -1.33261 0
M  V30 26760 C 2528.96 1.41267 -1.22068 0
M  V30 26761 C 2529.31 1.95535 0.161445 0
M  V30 26762 O 2528.44 1.8861 1.06091 0
M  V30 26763 C 2529.03 2.56796 -2.21001 0
M  V30 26764 C 2527.59 3.09885 -2.13655 0
M  V30 26765 C 2526.74 1.82675 -2.08626 0
M  V30 26766 H 2529.69 0.64737 -1.44896 0
M  V30 26767 H 2529.71 3.34353 -1.81626 0
M  V30 26768 H 2529.22 2.17268 -3.21584 0
M  V30 26769 H 2527.32 3.53963 -1.16366 0
M  V30 26770 H 2527.44 3.70228 -3.04085 0
M  V30 26771 H 2525.8 2.02821 -1.54064 0
M  V30 26772 H 2526.58 1.45347 -3.11013 0
M  V30 26773 N 2529.03 1.16688 1.05932 0
M  V30 26774 C 2530.26 0.974961 1.82489 0
M  V30 26775 C 2530.67 -0.476829 1.82679 0
M  V30 26776 O 2530.03 -1.331 1.24862 0
M  V30 26777 C 2530.08 1.49935 3.2894 0
M  V30 26778 O 2529.8 2.89428 3.28881 0
M  V30 26779 C 2531.3 1.35096 4.22213 0
M  V30 26780 H 2528.52 0.345375 0.575289 0
M  V30 26781 H 2531.07 1.54802 1.33628 0
M  V30 26782 H 2529.22 0.968489 3.75099 0
M  V30 26783 H 2529.64 3.13514 4.20487 0
M  V30 26784 H 2531.11 1.76613 5.22984 0
M  V30 26785 H 2531.59 0.297012 4.38195 0
M  V30 26786 H 2532.19 1.87162 3.81904 0
M  V30 26787 N 2530.51 -1.24529 0.96594 0
M  V30 26788 C 2531.76 -1.91855 0.622471 0
M  V30 26789 C 2532.07 -1.76359 -0.845975 0
M  V30 26790 O 2533.28 -2.38359 -1.29989 0
M  V30 26791 C 2531.73 -3.43854 1.06266 0
M  V30 26792 C 2531.34 -3.68039 2.55444 0
M  V30 26793 C 2533.08 -4.17041 0.792256 0
M  V30 26794 C 2530.99 -5.136 2.93205 0
M  V30 26795 H 2529.92 -0.71835 0.229105 0
M  V30 26796 H 2532.57 -1.41204 1.17191 0
M  V30 26797 H 2530.95 -3.93531 0.441545 0
M  V30 26798 H 2532.13 -3.28969 3.22671 0
M  V30 26799 H 2530.44 -3.08134 2.80076 0
M  V30 26800 H 2533.04 -5.24281 1.05041 0
M  V30 26801 H 2533.38 -4.15414 -0.271511 0
M  V30 26802 H 2533.92 -3.73308 1.37426 0
M  V30 26803 H 2530.65 -5.20348 3.98645 0
M  V30 26804 H 2530.17 -5.53675 2.3066 0
M  V30 26805 H 2531.85 -5.81818 2.83014 0
M  V30 26806 N 2531.99 -0.735845 -1.39367 0
M  V30 26807 C 2533.23 -0.281039 -1.99732 0
M  V30 26808 C 2533.55 1.13843 -1.59057 0
M  V30 26809 O 2534.75 1.6928 -2.12265 0
M  V30 26810 C 2533.21 -0.451525 -3.57056 0
M  V30 26811 C 2532.82 -1.87893 -4.06694 0
M  V30 26812 C 2534.56 -0.0585362 -4.2446 0
M  V30 26813 C 2532.47 -1.99893 -5.56594 0
M  V30 26814 H 2531.4 -0.101324 -0.747161 0
M  V30 26815 H 2534.05 -0.909847 -1.59355 0
M  V30 26816 H 2532.43 0.246193 -3.95234 0
M  V30 26817 H 2533.61 -2.60868 -3.79848 0
M  V30 26818 H 2531.92 -2.22521 -3.51956 0
M  V30 26819 H 2534.52 -0.127193 -5.34549 0
M  V30 26820 H 2534.86 0.986362 -4.04446 0
M  V30 26821 H 2535.39 -0.707443 -3.91459 0
M  V30 26822 H 2532.13 -3.02574 -5.81489 0
M  V30 26823 H 2531.65 -1.31356 -5.8524 0
M  V30 26824 H 2533.33 -1.7805 -6.22019 0
M  V30 26825 N 2533.46 1.49999 -0.483543 0
M  V30 26826 C 2534.88 1.58999 -0.138432 0
M  V30 26827 C 2535.08 1.49052 1.35594 0
M  V30 26828 O 2534.14 1.35543 2.13036 0
M  V30 26829 C 2535.45 2.92446 -0.699709 0
M  V30 26830 C 2537 3.0587 -0.664249 0
M  V30 26831 C 2537.47 4.41911 -1.20328 0
M  V30 26832 N 2538.96 4.48356 -1.16323 0
M  V30 26833 C 2539.7 5.52034 -1.55068 0
M  V30 26834 N 2539.19 6.62903 -2.01323 0
M  V30 26835 N 2540.99 5.42648 -1.46593 0
M  V30 26836 H 2533.14 1.54707 -1.45532 0
M  V30 26837 H 2535.4 0.731837 -0.602593 0
M  V30 26838 H 2535.11 3.05239 -1.74706 0
M  V30 26839 H 2534.98 3.76901 -0.15026 0
M  V30 26840 H 2537.37 2.92718 0.374221 0
M  V30 26841 H 2537.45 2.23142 -1.25065 0
M  V30 26842 H 2537.09 4.55814 -2.24045 0
M  V30 26843 H 2537.02 5.23251 -0.592988 0
M  V30 26844 H 2539.51 3.68804 -0.824123 0
M  V30 26845 H 2539.83 7.38091 -2.29003 0
M  V30 26846 H 2538.17 6.6399 -2.05284 0
M  V30 26847 H 2541.36 4.54922 -1.10289 0
M  V30 26848 H 2541.54 6.23326 -1.77114 0
M  V30 26849 N 2534.94 0.216646 1.56104 0
M  V30 26850 C 2536.19 -0.41671 1.97348 0
M  V30 26851 C 2536.5 -1.61248 1.10718 0
M  V30 26852 O 2537.71 -2.31503 1.4184 0
M  V30 26853 C 2536.17 -0.792773 3.5106 0
M  V30 26854 C 2535.77 0.379907 4.46386 0
M  V30 26855 C 2537.52 -1.39201 4.01028 0
M  V30 26856 C 2535.42 -0.0183183 5.91397 0
M  V30 26857 H 2534.35 -0.159462 0.736945 0
M  V30 26858 H 2537.01 0.312082 1.80827 0
M  V30 26859 H 2535.39 -1.57885 3.63164 0
M  V30 26860 H 2536.56 1.15745 4.46027 0
M  V30 26861 H 2534.88 0.89205 4.06733 0
M  V30 26862 H 2537.47 -1.70277 5.06863 0
M  V30 26863 H 2537.82 -2.30608 3.46591 0
M  V30 26864 H 2538.35 -0.669469 3.92126 0
M  V30 26865 H 2535.09 0.862116 6.49806 0
M  V30 26866 H 2534.61 -0.76028 5.94962 0
M  V30 26867 H 2536.29 -0.446705 6.45456 0
M  V30 26868 N 2536.42 -1.57498 -0.0567885 0
M  V30 26869 C 2537.35 -2.00041 -1.09813 0
M  V30 26870 C 2538.33 -0.879843 -1.36739 0
M  V30 26871 O 2539.51 -1.14341 -1.49861 0
M  V30 26872 C 2536.64 -2.34991 -2.4392 0
M  V30 26873 C 2535.69 -3.57208 -2.33033 0
M  V30 26874 S 2536.52 -5.0746 -1.71011 0
M  V30 26875 C 2537.68 -5.45626 -3.06664 0
M  V30 26876 H 2537.91 -2.88055 -0.73565 0
M  V30 26877 H 2535.44 -1.52094 -0.265844 0
M  V30 26878 H 2537.4 -2.558 -3.21055 0
M  V30 26879 H 2536.06 -1.47478 -2.77325 0
M  V30 26880 H 2535.25 -3.79229 -3.31966 0
M  V30 26881 H 2534.86 -3.36107 -1.64037 0
M  V30 26882 H 2537.15 -5.44615 -4.0299 0
M  V30 26883 H 2538.09 -6.46257 -2.89408 0
M  V30 26884 H 2538.5 -4.73096 -3.07961 0
M  V30 26885 N 2537.9 0.328509 -1.54138 0
M  V30 26886 C 2539.31 0.672549 -1.44737 0
M  V30 26887 C 2539.51 1.91845 -0.61625 0
M  V30 26888 O 2538.57 2.52247 -0.113111 0
M  V30 26889 C 2539.88 0.851166 -2.88402 0
M  V30 26890 C 2541.43 0.948825 -2.98272 0
M  V30 26891 C 2541.91 1.15965 -4.43076 0
M  V30 26892 N 2543.4 1.2265 -4.46667 0
M  V30 26893 C 2544.13 1.40742 -5.55859 0
M  V30 26894 N 2543.63 1.55908 -6.75029 0
M  V30 26895 N 2545.42 1.4341 -5.43498 0
M  V30 26896 H 2537.57 -0.490458 -2.0666 0
M  V30 26897 H 2539.83 -0.157595 -0.934809 0
M  V30 26898 H 2539.54 0.00698054 -3.51699 0
M  V30 26899 H 2539.41 1.74847 -3.34228 0
M  V30 26900 H 2541.8 1.78352 -2.35106 0
M  V30 26901 H 2541.88 0.0280986 -2.55785 0
M  V30 26902 H 2541.53 0.329826 -5.06828 0
M  V30 26903 H 2541.46 2.09417 -4.83169 0
M  V30 26904 H 2543.95 1.12393 -3.60799 0
M  V30 26905 H 2544.26 1.6939 -7.54007 0
M  V30 26906 H 2542.61 1.53015 -6.77946 0
M  V30 26907 H 2545.8 1.31154 -4.49351 0
M  V30 26908 H 2545.97 1.57167 -6.28651 0
M  V30 26909 N 2539.38 1.46127 0.590316 0
M  V30 26910 C 2540.62 1.51266 1.35079 0
M  V30 26911 C 2540.95 0.160745 1.93534 0
M  V30 26912 O 2540.23 -0.826925 1.76046 0
M  V30 26913 C 2540.51 2.60535 2.48584 0
M  V30 26914 C 2540.37 4.05231 1.95213 0
M  V30 26915 C 2541.68 2.65946 3.50658 0
M  V30 26916 H 2538.8 0.550701 0.489794 0
M  V30 26917 H 2541.45 1.78025 0.663856 0
M  V30 26918 H 2539.6 2.37848 3.07181 0
M  V30 26919 H 2541.27 4.39181 1.41131 0
M  V30 26920 H 2539.51 4.1507 1.26093 0
M  V30 26921 H 2540.18 4.77402 2.77113 0
M  V30 26922 H 2542.66 2.86319 3.01929 0
M  V30 26923 H 2541.53 3.44234 4.27545 0
M  V30 26924 H 2541.79 1.71701 4.07396 0
M  V30 26925 N 2540.85 -0.834306 1.33705 0
M  V30 26926 C 2541.78 -1.95961 1.26971 0
M  V30 26927 C 2542.76 -1.69443 0.149366 0
M  V30 26928 O 2543.95 -1.91203 0.339885 0
M  V30 26929 C 2541.08 -3.32204 1.01281 0
M  V30 26930 C 2540.03 -3.73132 2.09658 0
M  V30 26931 C 2539.36 -5.07232 1.69175 0
M  V30 26932 C 2540.66 -3.86432 3.51379 0
M  V30 26933 H 2542.35 -2.01854 2.21123 0
M  V30 26934 H 2539.9 -0.969775 1.06449 0
M  V30 26935 H 2541.85 -4.10502 0.952178 0
M  V30 26936 H 2540.58 -3.26581 0.0356777 0
M  V30 26937 H 2539.24 -2.97101 2.14771 0
M  V30 26938 H 2538.88 -4.98084 0.701524 0
M  V30 26939 H 2538.58 -5.35587 2.41704 0
M  V30 26940 H 2540.11 -5.88 1.64586 0
M  V30 26941 H 2541.52 -4.5503 3.48742 0
M  V30 26942 H 2539.92 -4.26229 4.22432 0
M  V30 26943 H 2540.99 -2.88752 3.89552 0
M  V30 26944 N 2542.33 -1.17248 -1.05312 0
M  V30 26945 C 2543.75 -0.919496 -1.30451 0
M  V30 26946 C 2543.95 0.422056 -1.9703 0
M  V30 26947 O 2543 1.15931 -2.24313 0
M  V30 26948 C 2544.32 -2.0759 -2.17547 0
M  V30 26949 C 2545.86 -2.11279 -2.30934 0
M  V30 26950 C 2546.34 -3.26301 -3.2139 0
M  V30 26951 N 2547.83 -3.26082 -3.28976 0
M  V30 26952 C 2548.57 -4.11723 -3.99088 0
M  V30 26953 N 2548.06 -5.07473 -4.71639 0
M  V30 26954 N 2549.85 -3.99677 -3.9524 0
M  V30 26955 H 2542.01 -2.03603 -0.604952 0
M  V30 26956 H 2544.27 -0.88895 -0.329352 0
M  V30 26957 H 2543.97 -3.04543 -1.75916 0
M  V30 26958 H 2543.85 -2.02589 -3.18178 0
M  V30 26959 H 2546.24 -1.14912 -2.71807 0
M  V30 26960 H 2546.32 -2.20341 -1.29936 0
M  V30 26961 H 2545.96 -4.22932 -2.8123 0
M  V30 26962 H 2545.89 -3.14475 -4.2239 0
M  V30 26963 H 2548.38 -2.56755 -2.77282 0
M  V30 26964 H 2548.69 -5.69219 -5.22695 0
M  V30 26965 H 2547.04 -5.11444 -4.70585 0
M  V30 26966 H 2550.23 -3.2417 -3.37685 0
M  V30 26967 H 2550.4 -4.6664 -4.49612 0
M  V30 26968 N 2543.81 1.24015 -0.972531 0
M  V30 26969 C 2545.06 1.91522 -0.632636 0
M  V30 26970 C 2545.37 1.76806 0.83661 0
M  V30 26971 O 2546.58 2.39045 1.28723 0
M  V30 26972 C 2545.03 3.43286 -1.08088 0
M  V30 26973 C 2544.64 3.66679 -2.57392 0
M  V30 26974 C 2546.39 4.16615 -0.814362 0
M  V30 26975 C 2544.29 5.12038 -2.95924 0
M  V30 26976 H 2543.22 0.717125 -0.232911 0
M  V30 26977 H 2545.87 1.4058 -1.17938 0
M  V30 26978 H 2544.26 3.93291 -0.462409 0
M  V30 26979 H 2545.43 3.27253 -3.24411 0
M  V30 26980 H 2543.75 3.06644 -2.81706 0
M  V30 26981 H 2546.34 5.23717 -1.07819 0
M  V30 26982 H 2546.69 4.15552 0.249477 0
M  V30 26983 H 2547.22 3.72574 -1.39404 0
M  V30 26984 H 2543.96 5.18227 -4.01399 0
M  V30 26985 H 2543.48 5.52444 -2.33593 0
M  V30 26986 H 2545.16 5.80309 -2.86096 0
M  V30 26987 N 2545.29 0.743226 1.38974 0
M  V30 26988 C 2546.25 0.117055 2.28901 0
M  V30 26989 C 2547.25 -0.658477 1.46699 0
M  V30 26990 O 2548.44 -0.486276 1.67275 0
M  V30 26991 C 2545.57 -0.843092 3.3031 0
M  V30 26992 H 2546.77 0.909423 2.85779 0
M  V30 26993 H 2544.32 0.509573 1.4776 0
M  V30 26994 H 2545.05 -1.66152 2.78503 0
M  V30 26995 H 2544.84 -0.289525 3.9103 0
M  V30 26996 H 2546.33 -1.27753 3.97579 0
M  V30 26997 N 2546.77 -1.4974 0.491491 0
M  V30 26998 C 2548.18 -1.58923 0.146863 0
M  V30 26999 C 2548.38 -1.49769 -1.34802 0
M  V30 27000 O 2547.44 -1.3667 -2.12314 0
M  V30 27001 C 2548.75 -2.92071 0.715208 0
M  V30 27002 C 2550.3 -3.05514 0.680461 0
M  V30 27003 C 2550.77 -4.41266 1.2267 0
M  V30 27004 N 2552.27 -4.47733 1.18699 0
M  V30 27005 C 2553 -5.51204 1.57994 0
M  V30 27006 N 2552.5 -6.61827 2.04835 0
M  V30 27007 N 2554.29 -5.41863 1.49469 0
M  V30 27008 H 2546.44 -1.53933 1.4635 0
M  V30 27009 H 2548.7 -0.728631 0.606466 0
M  V30 27010 H 2548.41 -3.04308 1.76322 0
M  V30 27011 H 2548.28 -3.76816 0.170246 0
M  V30 27012 H 2550.67 -2.92912 -0.358692 0
M  V30 27013 H 2550.75 -2.22476 1.26246 0
M  V30 27014 H 2550.4 -4.54619 2.26459 0
M  V30 27015 H 2550.33 -5.22929 0.620729 0
M  V30 27016 H 2552.82 -3.68362 0.84367 0
M  V30 27017 H 2553.13 -7.36866 2.32914 0
M  V30 27018 H 2551.47 -6.62892 2.08803 0
M  V30 27019 H 2554.67 -4.54331 1.127 0
M  V30 27020 H 2554.84 -6.22378 1.80417 0
M  V30 27021 N 2548.24 -0.224922 -1.55987 0
M  V30 27022 C 2549.49 0.406467 -1.98685 0
M  V30 27023 C 2549.82 1.59175 -1.11251 0
M  V30 27024 O 2549.1 1.93747 -0.170943 0
M  V30 27025 C 2549.38 0.837747 -3.5022 0
M  V30 27026 C 2549.23 -0.351411 -4.48425 0
M  V30 27027 C 2550.55 1.6927 -4.06246 0
M  V30 27028 H 2547.67 0.146271 -0.722339 0
M  V30 27029 H 2550.31 -0.321832 -1.87254 0
M  V30 27030 H 2548.46 1.45831 -3.60091 0
M  V30 27031 H 2550.14 -0.989605 -4.5056 0
M  V30 27032 H 2548.38 -0.998281 -4.22157 0
M  V30 27033 H 2549.05 -0.00665608 -5.52 0
M  V30 27034 H 2551.53 1.16907 -3.99339 0
M  V30 27035 H 2550.4 1.96337 -5.12585 0
M  V30 27036 H 2550.66 2.65717 -3.53337 0
M  V30 27037 N 2549.72 1.57526 0.0484352 0
M  V30 27038 C 2550.65 2.08314 1.05486 0
M  V30 27039 C 2551.63 0.981488 1.38927 0
M  V30 27040 O 2552.82 1.25561 1.48149 0
M  V30 27041 C 2549.95 2.5465 2.36158 0
M  V30 27042 C 2548.9 3.68905 2.1701 0
M  V30 27043 C 2548.23 4.01377 3.53271 0
M  V30 27044 C 2549.53 4.98078 1.57211 0
M  V30 27045 H 2551.22 2.9265 0.632144 0
M  V30 27046 H 2548.77 1.40784 0.302629 0
M  V30 27047 H 2550.72 2.88799 3.06877 0
M  V30 27048 H 2549.45 1.67373 2.80453 0
M  V30 27049 H 2548.1 3.35076 1.48727 0
M  V30 27050 H 2547.75 3.11195 3.95179 0
M  V30 27051 H 2547.45 4.78324 3.41291 0
M  V30 27052 H 2548.98 4.38043 4.25384 0
M  V30 27053 H 2550.39 5.30307 2.17823 0
M  V30 27054 H 2548.79 5.79506 1.55861 0
M  V30 27055 H 2549.86 4.8193 0.535871 0
M  V30 27056 N 2551.2 -0.32033 1.5431 0
M  V30 27057 C 2552.15 -1.39435 1.8392 0
M  V30 27058 C 2553.12 -1.51247 0.686551 0
M  V30 27059 O 2554.3 -1.66416 0.933298 0
M  V30 27060 C 2551.44 -2.75746 2.07505 0
M  V30 27061 C 2550.56 -2.72538 3.35182 0
M  V30 27062 C 2549.69 -4.00717 3.48711 0
M  V30 27063 C 2548.73 -3.9183 4.7025 0
M  V30 27064 N 2547.87 -5.11745 4.80688 0
M  V30 27065 H 2552.71 -1.13484 2.75546 0
M  V30 27066 H 2550.24 -0.549285 1.3646 0
M  V30 27067 H 2552.2 -3.54992 2.19172 0
M  V30 27068 H 2550.83 -2.99998 1.19168 0
M  V30 27069 H 2549.88 -1.85265 3.32237 0
M  V30 27070 H 2551.2 -2.61856 4.24539 0
M  V30 27071 H 2550.35 -4.88396 3.59937 0
M  V30 27072 H 2549.09 -4.1421 2.57452 0
M  V30 27073 H 2548.09 -3.02536 4.59078 0
M  V30 27074 H 2549.32 -3.799 5.62897 0
M  V30 27075 H 2547.26 -5.25738 3.92347 0
M  V30 27076 H 2547.18 -5.0341 5.64016 0
M  V30 27077 H 2548.45 -6.01129 4.9625 0
M  V30 27078 N 2552.68 -1.46438 -0.582558 0
M  V30 27079 C 2553.61 -1.59874 -1.70184 0
M  V30 27080 C 2554.59 -0.449071 -1.64065 0
M  V30 27081 O 2555.77 -0.675332 -1.82079 0
M  V30 27082 C 2552.9 -1.58886 -3.08824 0
M  V30 27083 C 2551.86 -2.72824 -3.29774 0
M  V30 27084 C 2551.18 -2.56898 -4.68943 0
M  V30 27085 C 2552.48 -4.14646 -3.17594 0
M  V30 27086 H 2554.18 -2.53569 -1.59196 0
M  V30 27087 H 2551.72 -1.22033 -0.764451 0
M  V30 27088 H 2553.68 -1.6688 -3.86948 0
M  V30 27089 H 2552.4 -0.617362 -3.20712 0
M  V30 27090 H 2551.06 -2.643 -2.54049 0
M  V30 27091 H 2550.71 -1.57831 -4.77596 0
M  V30 27092 H 2550.41 -3.3332 -4.83913 0
M  V30 27093 H 2551.93 -2.66783 -5.49235 0
M  V30 27094 H 2553.35 -4.24281 -3.85563 0
M  V30 27095 H 2551.74 -4.91656 -3.44085 0
M  V30 27096 H 2552.81 -4.34791 -2.14673 0
M  V30 27097 N 2554.16 0.827204 -1.34146 0
M  V30 27098 C 2555.09 1.95285 -1.28008 0
M  V30 27099 C 2556.07 1.69361 -0.15835 0
M  V30 27100 O 2557.25 1.9102 -0.35002 0
M  V30 27101 C 2554.38 3.31662 -1.03041 0
M  V30 27102 C 2553.34 3.72015 -2.11634 0
M  V30 27103 C 2552.66 5.06327 -1.71863 0
M  V30 27104 C 2553.96 3.84563 -3.53424 0
M  V30 27105 H 2555.66 2.00678 -2.22191 0
M  V30 27106 H 2553.2 0.964116 -1.06962 0
M  V30 27107 H 2555.16 4.09991 -0.973935 0
M  V30 27108 H 2553.88 3.26557 -0.0529965 0
M  V30 27109 H 2552.54 2.95958 -2.16344 0
M  V30 27110 H 2552.19 4.97705 -0.727929 0
M  V30 27111 H 2551.89 5.34297 -2.44541 0
M  V30 27112 H 2553.41 5.87119 -1.67702 0
M  V30 27113 H 2554.82 4.53174 -3.5115 0
M  V30 27114 H 2553.22 4.23983 -4.24687 0
M  V30 27115 H 2554.29 2.86682 -3.91077 0
M  V30 27116 N 2555.63 1.17805 1.04688 0
M  V30 27117 C 2556.58 0.899381 2.12555 0
M  V30 27118 C 2557.55 -0.158742 1.6534 0
M  V30 27119 O 2558.74 -0.0204462 1.90789 0
M  V30 27120 C 2555.88 0.424375 3.42481 0
M  V30 27121 C 2554.99 1.5472 4.03343 0
M  V30 27122 C 2554.12 1.02556 5.21206 0
M  V30 27123 C 2553.16 2.12349 5.74086 0
M  V30 27124 N 2552.3 1.61624 6.83244 0
M  V30 27125 H 2557.14 1.82305 2.35731 0
M  V30 27126 H 2554.68 0.909179 1.15639 0
M  V30 27127 H 2556.64 0.130495 4.16996 0
M  V30 27128 H 2555.27 -0.462321 3.19472 0
M  V30 27129 H 2554.32 1.9567 3.26217 0
M  V30 27130 H 2555.63 2.37509 4.38624 0
M  V30 27131 H 2554.78 0.685824 6.02811 0
M  V30 27132 H 2553.52 0.167169 4.87413 0
M  V30 27133 H 2552.53 2.47174 4.91106 0
M  V30 27134 H 2553.75 2.98612 6.09924 0
M  V30 27135 H 2551.7 0.780647 6.51339 0
M  V30 27136 H 2551.62 2.38016 7.17554 0
M  V30 27137 H 2552.88 1.30559 7.68489 0
M  V30 27138 N 2557.11 -1.23497 0.979094 0
M  V30 27139 C 2558.05 -2.23452 0.463066 0
M  V30 27140 C 2559.02 -1.55686 -0.469101 0
M  V30 27141 O 2560.21 -1.84254 -0.397849 0
M  V30 27142 C 2557.33 -3.37086 -0.330249 0
M  V30 27143 C 2556.38 -4.22992 0.545869 0
M  V30 27144 S 2557.21 -4.97033 1.99294 0
M  V30 27145 C 2558.37 -6.14118 1.20873 0
M  V30 27146 H 2558.6 -2.66878 1.3101 0
M  V30 27147 H 2556.14 -1.32956 0.784989 0
M  V30 27148 H 2558.09 -4.02983 -0.781956 0
M  V30 27149 H 2556.75 -2.92196 -1.15239 0
M  V30 27150 H 2555.95 -5.0396 -0.0638042 0
M  V30 27151 H 2555.55 -3.62156 0.933768 0
M  V30 27152 H 2557.84 -6.75872 0.469403 0
M  V30 27153 H 2558.78 -6.79469 1.99319 0
M  V30 27154 H 2559.19 -5.59785 0.728091 0
M  V30 27155 N 2558.59 -0.750586 -1.38578 0
M  V30 27156 C 2559.55 -0.129192 -2.28836 0
M  V30 27157 C 2560.55 0.650688 -1.47047 0
M  V30 27158 O 2561.74 0.477398 -1.67531 0
M  V30 27159 C 2558.88 0.825563 -3.30753 0
M  V30 27160 H 2560.07 -0.924566 -2.85292 0
M  V30 27161 H 2557.62 -0.517402 -1.47488 0
M  V30 27162 H 2558.36 1.64672 -2.79381 0
M  V30 27163 H 2558.14 0.268784 -3.91178 0
M  V30 27164 H 2559.63 1.25643 -3.98251 0
M  V30 27165 N 2560.07 1.49477 -0.499425 0
M  V30 27166 C 2561.3 2.06856 0.0425093 0
M  V30 27167 C 2561.71 1.35995 1.30962 0
M  V30 27168 O 2561.07 0.437793 1.77171 0
M  V30 27169 C 2561.12 3.60239 0.301672 0
M  V30 27170 O 2560.84 4.28434 -0.915203 0
M  V30 27171 C 2562.34 4.34327 0.887422 0
M  V30 27172 H 2559.56 0.670709 -0.0197599 0
M  V30 27173 H 2562.11 1.9228 -0.69633 0
M  V30 27174 H 2560.26 3.74524 0.99049 0
M  V30 27175 H 2560.68 5.20111 -0.677085 0
M  V30 27176 H 2562.15 5.42525 1.01835 0
M  V30 27177 H 2562.63 3.96701 1.88481 0
M  V30 27178 H 2563.23 4.24644 0.236121 0
M  V30 27179 N 2561.55 0.233191 1.55865 0
M  V30 27180 C 2562.8 -0.394558 1.98211 0
M  V30 27181 C 2563.12 -1.59461 1.12237 0
M  V30 27182 O 2562.39 -1.94856 0.202016 0
M  V30 27183 H 2560.97 -0.148765 0.732037 0
M  V30 27184 H 2563.63 0.328793 1.92107 0
M  V30 27185 H 2562.72 -0.71301 3.03846 0
M  V30 27186 N 2563.03 -1.57549 -0.0400806 0
M  V30 27187 C 2563.96 -2.01194 -1.07686 0
M  V30 27188 C 2564.94 -0.894297 -1.35798 0
M  V30 27189 O 2566.12 -1.15924 -1.4864 0
M  V30 27190 C 2563.25 -2.37565 -2.41414 0
M  V30 27191 C 2562.29 -3.5966 -2.29231 0
M  V30 27192 S 2563.13 -5.09245 -1.65619 0
M  V30 27193 C 2564.28 -5.48848 -3.0086 0
M  V30 27194 H 2564.52 -2.88819 -0.705057 0
M  V30 27195 H 2562.05 -1.52368 -0.249698 0
M  V30 27196 H 2564.01 -2.59191 -3.18324 0
M  V30 27197 H 2562.67 -1.50412 -2.75745 0
M  V30 27198 H 2561.86 -3.82728 -3.27925 0
M  V30 27199 H 2561.46 -3.37828 -1.60463 0
M  V30 27200 H 2563.75 -5.48858 -3.97191 0
M  V30 27201 H 2564.7 -6.49291 -2.82537 0
M  V30 27202 H 2565.11 -4.76336 -3.02926 0
M  V30 27203 N 2564.5 0.312142 -1.54478 0
M  V30 27204 C 2565.92 0.65716 -1.45443 0
M  V30 27205 C 2566.12 1.91181 -0.636563 0
M  V30 27206 O 2565.18 2.52112 -0.139859 0
M  V30 27207 C 2566.49 0.82053 -2.89288 0
M  V30 27208 C 2568.04 0.917136 -2.99262 0
M  V30 27209 C 2568.51 1.11259 -4.44281 0
M  V30 27210 N 2570 1.17906 -4.47942 0
M  V30 27211 C 2570.74 1.34838 -5.57321 0
M  V30 27212 N 2570.23 1.4874 -6.76645 0
M  V30 27213 N 2572.03 1.37637 -5.44988 0
M  V30 27214 H 2564.18 -0.512349 -2.06128 0
M  V30 27215 H 2566.44 -0.167501 -0.933085 0
M  V30 27216 H 2566.15 -0.0303223 -3.51687 0
M  V30 27217 H 2566.02 1.71292 -3.36064 0
M  V30 27218 H 2568.41 1.75848 -2.36984 0
M  V30 27219 H 2568.49 0.000967605 -2.558 0
M  V30 27220 H 2568.13 0.276051 -5.07149 0
M  V30 27221 H 2568.06 2.04281 -4.85363 0
M  V30 27222 H 2570.55 1.0856 -3.61971 0
M  V30 27223 H 2570.87 1.61384 -7.55761 0
M  V30 27224 H 2569.21 1.45816 -6.79531 0
M  V30 27225 H 2572.4 1.2638 -4.50717 0
M  V30 27226 H 2572.58 1.5049 -6.30283 0
M  V30 27227 N 2565.98 1.46745 0.574784 0
M  V30 27228 C 2566.94 1.57481 1.66531 0
M  V30 27229 C 2567.94 0.45129 1.54337 0
M  V30 27230 O 2569.13 0.715841 1.58812 0
M  V30 27231 C 2566.27 1.50264 3.05996 0
M  V30 27232 H 2567.46 2.54676 1.58367 0
M  V30 27233 H 2565.01 1.34673 0.793278 0
M  V30 27234 H 2565.75 0.543781 3.19708 0
M  V30 27235 H 2565.53 2.31787 3.16255 0
M  V30 27236 H 2567.02 1.60879 3.85367 0
M  V30 27237 N 2567.46 -0.820078 1.34583 0
M  V30 27238 C 2568.39 -1.94603 1.29042 0
M  V30 27239 C 2569.37 -1.69275 0.16733 0
M  V30 27240 O 2570.56 -1.90831 0.360146 0
M  V30 27241 C 2567.69 -3.31111 1.04799 0
M  V30 27242 C 2566.64 -3.70887 2.13604 0
M  V30 27243 C 2565.97 -5.05409 1.74545 0
M  V30 27244 C 2567.27 -3.82684 3.55458 0
M  V30 27245 H 2568.96 -1.99497 2.23252 0
M  V30 27246 H 2566.51 -0.95843 1.07472 0
M  V30 27247 H 2568.46 -4.09469 0.995664 0
M  V30 27248 H 2567.18 -3.26524 0.0703139 0
M  V30 27249 H 2565.84 -2.94806 2.1791 0
M  V30 27250 H 2565.49 -4.97312 0.754313 0
M  V30 27251 H 2565.19 -5.32993 2.47371 0
M  V30 27252 H 2566.71 -5.86221 1.70814 0
M  V30 27253 H 2568.13 -4.51305 3.53548 0
M  V30 27254 H 2566.52 -4.21725 4.26929 0
M  V30 27255 H 2567.59 -2.84604 3.92592 0
M  V30 27256 N 2568.94 -1.18359 -1.04062 0
M  V30 27257 C 2569.87 -0.93415 -2.14 0
M  V30 27258 C 2570.85 0.128156 -1.69617 0
M  V30 27259 O 2572.03 -0.0244434 -1.94185 0
M  V30 27260 C 2569.16 -0.459127 -3.44252 0
M  V30 27261 C 2568.12 -1.46192 -4.02258 0
M  V30 27262 C 2567.44 -0.844415 -5.2799 0
M  V30 27263 C 2568.74 -2.83864 -4.38427 0
M  V30 27264 H 2570.44 -1.85356 -2.35124 0
M  V30 27265 H 2567.98 -0.892624 -1.12997 0
M  V30 27266 H 2569.94 -0.271981 -4.20521 0
M  V30 27267 H 2568.66 0.495856 -3.22814 0
M  V30 27268 H 2567.32 -1.63601 -3.28071 0
M  V30 27269 H 2566.97 0.117756 -5.02862 0
M  V30 27270 H 2566.67 -1.51394 -5.67762 0
M  V30 27271 H 2568.19 -0.6678 -6.06937 0
M  V30 27272 H 2569.61 -2.70107 -5.05683 0
M  V30 27273 H 2568 -3.475 -4.89248 0
M  V30 27274 H 2569.07 -3.37412 -3.48254 0
M  V30 27275 N 2570.42 1.22976 -0.98563 0
M  V30 27276 C 2571.69 1.87 -0.573632 0
M  V30 27277 C 2572.07 1.88557 0.949179 0
M  V30 27278 O 2571.42 1.37089 1.82808 0
M  V30 27279 C 2571.63 3.28241 -1.1857 0
M  V30 27280 C 2572.98 4.04793 -1.2817 0
M  V30 27281 O 2574 3.3748 -1.13955 0
M  V30 27282 O 2572.86 5.25271 -1.50841 0
M  V30 27283 H 2569.96 0.803952 -0.193883 0
M  V30 27284 H 2572.5 1.30811 -1.08105 0
M  V30 27285 H 2571.27 3.21702 -2.22764 0
M  V30 27286 H 2570.9 3.92026 -0.663432 0
M  V30 27287 N 2571.89 0.757924 1.38178 0
M  V30 27288 C 2573.12 0.326973 2.043 0
M  V30 27289 C 2573.54 -1.04617 1.57165 0
M  V30 27290 O 2572.89 -1.66527 0.746655 0
M  V30 27291 C 2572.94 0.345427 3.59846 0
M  V30 27292 O 2572.67 1.66439 4.05253 0
M  V30 27293 C 2574.17 -0.0988491 4.4319 0
M  V30 27294 H 2571.39 0.139023 0.65644 0
M  V30 27295 H 2573.93 1.02799 1.76784 0
M  V30 27296 H 2572.09 -0.306888 3.86183 0
M  V30 27297 H 2572.5 1.59354 4.99707 0
M  V30 27298 H 2573.97 -0.0347775 5.51989 0
M  V30 27299 H 2574.45 -1.14734 4.23949 0
M  V30 27300 H 2575.06 0.524754 4.2205 0
M  V30 27301 N 2573.37 -1.4921 0.507345 0
M  V30 27302 C 2574.62 -2.0277 -0.0349691 0
M  V30 27303 C 2574.95 -1.38571 -1.36057 0
M  V30 27304 O 2574.23 -0.523575 -1.8732 0
M  V30 27305 C 2574.51 -3.59646 -0.180852 0
M  V30 27306 C 2574.36 -4.34362 1.16832 0
M  V30 27307 C 2575.68 -4.30409 -0.918482 0
M  V30 27308 H 2572.8 -0.736914 -0.0112344 0
M  V30 27309 H 2575.44 -1.78169 0.659987 0
M  V30 27310 H 2573.59 -3.80737 -0.772759 0
M  V30 27311 H 2575.26 -4.2475 1.7996 0
M  V30 27312 H 2573.51 -3.9667 1.75601 0
M  V30 27313 H 2574.18 -5.42504 1.01949 0
M  V30 27314 H 2576.65 -4.14011 -0.416417 0
M  V30 27315 H 2575.53 -5.39909 -0.98941 0
M  V30 27316 H 2575.79 -3.96097 -1.96366 0
M  V30 27317 N 2574.85 -0.241454 -1.55739 0
M  V30 27318 C 2576.1 0.385371 -1.99105 0
M  V30 27319 C 2576.43 1.57986 -1.12933 0
M  V30 27320 O 2575.7 1.93555 -0.191483 0
M  V30 27321 C 2575.99 0.800554 -3.51089 0
M  V30 27322 C 2575.84 -0.398953 -4.48027 0
M  V30 27323 C 2577.16 1.64952 -4.08018 0
M  V30 27324 H 2574.28 0.138601 -0.72385 0
M  V30 27325 H 2576.92 -0.341675 -1.86903 0
M  V30 27326 H 2575.07 1.42003 -3.61618 0
M  V30 27327 H 2576.74 -1.03734 -4.49485 0
M  V30 27328 H 2574.99 -1.043 -4.21075 0
M  V30 27329 H 2575.66 -0.0652026 -5.51961 0
M  V30 27330 H 2578.13 1.12665 -4.00557 0
M  V30 27331 H 2577.01 1.90889 -5.14638 0
M  V30 27332 H 2577.27 2.61955 -3.56135 0
M  V30 27333 N 2576.33 1.57568 0.0317248 0
M  V30 27334 C 2577.26 2.03179 1.0607 0
M  V30 27335 C 2578.27 0.944156 1.32626 0
M  V30 27336 O 2579.46 1.2215 1.3016 0
M  V30 27337 C 2576.56 2.38983 2.40293 0
M  V30 27338 C 2575.74 3.70093 2.3313 0
M  V30 27339 C 2574.79 3.93116 3.49781 0
M  V30 27340 O 2573.82 4.64206 3.29395 0
M  V30 27341 N 2575.02 3.38549 4.71556 0
M  V30 27342 H 2577.79 2.9207 0.671954 0
M  V30 27343 H 2575.35 1.60402 0.219717 0
M  V30 27344 H 2577.34 2.51524 3.17045 0
M  V30 27345 H 2575.91 1.55776 2.71021 0
M  V30 27346 H 2575.13 3.67931 1.41494 0
M  V30 27347 H 2576.42 4.56108 2.25485 0
M  V30 27348 H 2575.82 2.80921 4.91019 0
M  V30 27349 H 2574.37 3.56474 5.45683 0
M  V30 27350 N 2577.81 -0.303946 1.54641 0
M  V30 27351 C 2578.77 -1.35786 1.84648 0
M  V30 27352 C 2579.77 -1.43819 0.719225 0
M  V30 27353 O 2580.96 -1.43505 0.987516 0
M  V30 27354 C 2578.09 -2.74303 2.02412 0
M  V30 27355 H 2579.28 -1.10424 2.78831 0
M  V30 27356 H 2576.84 -0.540462 1.46658 0
M  V30 27357 H 2577.57 -3.04891 1.10507 0
M  V30 27358 H 2577.36 -2.69863 2.84458 0
M  V30 27359 H 2578.85 -3.5051 2.27008 0
M  V30 27360 N 2579.28 -1.47047 -0.566994 0
M  V30 27361 C 2580.21 -1.6167 -1.68479 0
M  V30 27362 C 2581.2 -0.466447 -1.6358 0
M  V30 27363 O 2582.38 -0.694606 -1.81353 0
M  V30 27364 C 2579.51 -1.62153 -3.07122 0
M  V30 27365 C 2578.46 -2.76307 -3.26862 0
M  V30 27366 C 2577.79 -2.61858 -4.66192 0
M  V30 27367 C 2579.09 -4.17991 -3.13178 0
M  V30 27368 H 2580.78 -2.55243 -1.56497 0
M  V30 27369 H 2578.33 -1.22837 -0.751465 0
M  V30 27370 H 2580.28 -1.70975 -3.85157 0
M  V30 27371 H 2579.01 -0.651343 -3.20039 0
M  V30 27372 H 2577.67 -2.6698 -2.51232 0
M  V30 27373 H 2577.31 -1.62888 -4.75896 0
M  V30 27374 H 2577.01 -3.38434 -4.8035 0
M  V30 27375 H 2578.54 -2.72593 -5.46375 0
M  V30 27376 H 2579.95 -4.28346 -3.81041 0
M  V30 27377 H 2578.35 -4.95278 -3.38851 0
M  V30 27378 H 2579.42 -4.37044 -2.10049 0
M  V30 27379 N 2580.76 0.812929 -1.35016 0
M  V30 27380 C 2582.17 1.38646 -1.25037 0
M  V30 27381 C 2582.52 1.95833 0.119933 0
M  V30 27382 O 2581.65 1.90818 1.02066 0
M  V30 27383 C 2582.24 2.5205 -2.26398 0
M  V30 27384 C 2580.8 3.05283 -2.2018 0
M  V30 27385 C 2579.95 1.78209 -2.12454 0
M  V30 27386 H 2582.9 0.61649 -1.46236 0
M  V30 27387 H 2582.92 3.30425 -1.88678 0
M  V30 27388 H 2582.43 2.10398 -3.2612 0
M  V30 27389 H 2580.54 3.51415 -1.23848 0
M  V30 27390 H 2580.65 3.63695 -3.1187 0
M  V30 27391 H 2579.01 1.99507 -1.58332 0
M  V30 27392 H 2579.8 1.38717 -3.14026 0
M  V30 27393 N 2582.24 1.18909 1.03433 0
M  V30 27394 C 2583.17 0.879632 2.11649 0
M  V30 27395 C 2584.19 -0.12541 1.62316 0
M  V30 27396 O 2585.37 0.103276 1.78201 0
M  V30 27397 C 2582.47 0.294101 3.37621 0
M  V30 27398 C 2581.65 1.34636 4.16163 0
M  V30 27399 C 2580.71 0.775365 5.20456 0
M  V30 27400 O 2579.73 1.45169 5.50377 0
M  V30 27401 N 2580.93 -0.424024 5.78949 0
M  V30 27402 H 2583.7 1.81109 2.38787 0
M  V30 27403 H 2581.26 1.09034 1.19679 0
M  V30 27404 H 2583.25 -0.101608 4.04572 0
M  V30 27405 H 2581.82 -0.541521 3.07874 0
M  V30 27406 H 2581.04 1.91713 3.44441 0
M  V30 27407 H 2582.33 2.05557 4.65428 0
M  V30 27408 H 2581.73 -0.991111 5.5695 0
M  V30 27409 H 2580.29 -0.761577 6.47335 0
M  V30 27410 N 2583.72 -1.22452 0.992137 0
M  V30 27411 C 2584.96 -1.91463 0.668557 0
M  V30 27412 C 2585.3 -1.77079 -0.797281 0
M  V30 27413 O 2584.57 -1.13919 -1.57648 0
M  V30 27414 C 2584.86 -3.43702 1.0743 0
M  V30 27415 C 2584.71 -3.67139 2.59864 0
M  V30 27416 C 2586.03 -4.35611 0.626968 0
M  V30 27417 H 2583.15 -0.695313 0.244353 0
M  V30 27418 H 2585.79 -1.44343 1.23552 0
M  V30 27419 H 2583.94 -3.83965 0.591884 0
M  V30 27420 H 2585.61 -3.36284 3.1577 0
M  V30 27421 H 2583.85 -3.11446 3.01967 0
M  V30 27422 H 2584.52 -4.73754 2.83304 0
M  V30 27423 H 2587 -4.02859 1.04132 0
M  V30 27424 H 2585.88 -5.40806 0.939171 0
M  V30 27425 H 2586.14 -4.39569 -0.472379 0
M  V30 27426 N 2585.2 -0.765242 -1.37774 0
M  V30 27427 C 2586.44 -0.325978 -1.99454 0
M  V30 27428 C 2586.77 1.09944 -1.61051 0
M  V30 27429 O 2586.04 1.7538 -0.872851 0
M  V30 27430 H 2584.62 -0.117538 -0.737695 0
M  V30 27431 H 2587.28 -0.981924 -1.68358 0
M  V30 27432 H 2586.37 -0.398407 -3.09547 0
M  V30 27433 N 2586.67 1.48939 -0.515251 0
M  V30 27434 C 2587.62 2.31038 0.269074 0
M  V30 27435 C 2588.62 1.40294 0.949419 0
M  V30 27436 O 2589.82 1.57275 0.875482 0
M  V30 27437 H 2586.2 0.744543 0.105637 0
M  V30 27438 H 2588.17 2.95091 -0.443148 0
M  V30 27439 C 2586.92 3.21994 1.31207 0
M  V30 27440 H 2586.24 3.91756 0.797966 0
M  V30 27441 H 2587.68 3.82352 1.83257 0
M  V30 27442 C 2586.14 2.4258 2.33787 0
M  V30 27443 O 2586.67 2.14009 3.39946 0
M  V30 27444 N 2584.88 2.04343 2.06621 0
M  V30 27445 H 2584.42 2.27779 1.2031 0
M  V30 27446 H 2584.38 1.51519 2.7548 0
M  V30 27447 N 2588.15 0.249709 1.55609 0
M  V30 27448 C 2589.08 -0.642787 2.24478 0
M  V30 27449 C 2590.06 -1.17909 1.22603 0
M  V30 27450 O 2591.25 -1.21792 1.51263 0
M  V30 27451 C 2588.38 -1.83858 2.94641 0
M  V30 27452 C 2587.33 -1.43493 4.03229 0
M  V30 27453 C 2586.66 -2.71178 4.60833 0
M  V30 27454 C 2587.96 -0.60391 5.18797 0
M  V30 27455 H 2589.65 -0.0685099 2.99322 0
M  V30 27456 H 2587.2 -0.031511 1.43966 0
M  V30 27457 H 2589.15 -2.46862 3.41522 0
M  V30 27458 H 2587.88 -2.43828 2.17291 0
M  V30 27459 H 2586.54 -0.828212 3.57122 0
M  V30 27460 H 2586.18 -3.29352 3.8018 0
M  V30 27461 H 2585.88 -2.44892 5.34137 0
M  V30 27462 H 2587.41 -3.35075 5.10448 0
M  V30 27463 H 2588.82 -1.13832 5.61885 0
M  V30 27464 H 2587.22 -0.436992 5.98507 0
M  V30 27465 H 2588.29 0.383232 4.83383 0
M  V30 27466 N 2589.63 -1.57583 -0.0233682 0
M  V30 27467 C 2590.88 -1.89157 -0.711621 0
M  V30 27468 C 2591.2 -0.848127 -1.7559 0
M  V30 27469 O 2590.47 0.117532 -1.95547 0
M  V30 27470 H 2589.05 -0.698102 -0.265823 0
M  V30 27471 H 2591.71 -1.94896 0.012029 0
M  V30 27472 H 2590.81 -2.88208 -1.19761 0
M  V30 27473 N 2591.11 0.29574 -1.548 0
M  V30 27474 C 2592.04 1.36955 -1.89118 0
M  V30 27475 C 2593.02 1.52643 -0.750617 0
M  V30 27476 O 2594.21 1.66063 -1.00681 0
M  V30 27477 C 2591.34 2.73291 -2.14311 0
M  V30 27478 C 2590.29 2.72363 -3.30155 0
M  V30 27479 C 2589.62 4.12036 -3.40779 0
M  V30 27480 C 2590.92 2.33638 -4.6713 0
M  V30 27481 H 2592.61 1.08483 -2.79055 0
M  V30 27482 H 2590.16 0.52042 -1.34267 0
M  V30 27483 H 2592.11 3.48503 -2.36904 0
M  V30 27484 H 2590.83 3.03299 -1.2115 0
M  V30 27485 H 2589.49 1.99607 -3.07494 0
M  V30 27486 H 2589.14 4.3923 -2.45125 0
M  V30 27487 H 2588.84 4.12315 -4.18653 0
M  V30 27488 H 2590.36 4.8902 -3.65638 0
M  V30 27489 H 2591.78 2.98567 -4.89419 0
M  V30 27490 H 2590.17 2.4512 -5.47756 0
M  V30 27491 H 2591.24 1.28764 -4.67491 0
M  V30 27492 N 2592.59 1.47346 0.559187 0
M  V30 27493 C 2593.52 1.62561 1.67619 0
M  V30 27494 C 2594.5 0.475115 1.6333 0
M  V30 27495 O 2595.68 0.704214 1.80982 0
M  V30 27496 C 2592.81 1.6378 3.06257 0
M  V30 27497 C 2591.77 2.78036 3.25392 0
M  V30 27498 C 2591.09 2.64326 4.64796 0
M  V30 27499 C 2592.39 4.19646 3.10957 0
M  V30 27500 H 2594.09 2.56069 1.55142 0
M  V30 27501 H 2591.63 1.23234 0.74494 0
M  V30 27502 H 2593.59 1.73015 3.84244 0
M  V30 27503 H 2592.31 0.668306 3.19689 0
M  V30 27504 H 2590.97 2.68308 2.49812 0
M  V30 27505 H 2590.62 1.65409 4.75025 0
M  V30 27506 H 2590.32 3.40977 4.78549 0
M  V30 27507 H 2591.84 2.75487 5.44921 0
M  V30 27508 H 2593.26 4.30361 3.78764 0
M  V30 27509 H 2591.65 4.97068 3.3622 0
M  V30 27510 H 2592.72 4.38152 2.07729 0
M  V30 27511 N 2594.07 -0.805758 1.35445 0
M  V30 27512 C 2595.31 -1.56288 1.28764 0
M  V30 27513 C 2595.64 -1.94012 -0.137713 0
M  V30 27514 O 2594.9 -1.61644 -1.10317 0
M  V30 27515 C 2595.19 -2.86212 2.1405 0
M  V30 27516 C 2594.86 -2.67703 3.6283 0
M  V30 27517 C 2593.52 -2.62363 4.03385 0
M  V30 27518 C 2595.87 -2.50178 4.57231 0
M  V30 27519 C 2593.2 -2.37442 5.36506 0
M  V30 27520 C 2595.55 -2.26786 5.90551 0
M  V30 27521 C 2594.22 -2.19869 6.30249 0
M  V30 27522 H 2593.49 -0.5719 0.471181 0
M  V30 27523 H 2596.14 -0.930944 1.67349 0
M  V30 27524 H 2594.44 -3.53788 1.68348 0
M  V30 27525 H 2596.14 -3.43913 2.06216 0
M  V30 27526 H 2592.73 -2.72707 3.30649 0
M  V30 27527 H 2596.91 -2.53315 4.26784 0
M  V30 27528 H 2592.17 -2.30557 5.66263 0
M  V30 27529 H 2596.34 -2.12217 6.63277 0
M  V30 27530 H 2593.97 -2.0032 7.33332 0
M  V30 27531 N 2595.54 -1.19456 -1.02801 0
M  V30 27532 C 2596.48 -0.876433 -2.10699 0
M  V30 27533 C 2597.45 0.166869 -1.61741 0
M  V30 27534 O 2598.64 0.0429864 -1.88451 0
M  V30 27535 C 2595.77 -0.311817 -3.37262 0
M  V30 27536 C 2594.81 -1.33431 -4.05091 0
M  V30 27537 S 2595.64 -2.89511 -4.50493 0
M  V30 27538 C 2596.8 -2.34595 -5.80273 0
M  V30 27539 H 2597.03 -1.7902 -2.37359 0
M  V30 27540 H 2594.57 -1.02179 -1.15753 0
M  V30 27541 H 2596.52 0.00741536 -4.10499 0
M  V30 27542 H 2595.19 0.580266 -3.08694 0
M  V30 27543 H 2594.38 -0.88839 -4.96108 0
M  V30 27544 H 2593.98 -1.60043 -3.38027 0
M  V30 27545 H 2596.27 -1.73644 -6.54869 0
M  V30 27546 H 2597.22 -3.23963 -6.29645 0
M  V30 27547 H 2597.62 -1.77141 -5.35986 0
M  V30 27548 N 2597.02 1.21924 -0.998617 0
M  V30 27549 C 2597.95 2.26342 -0.573728 0
M  V30 27550 C 2598.93 1.65275 0.402267 0
M  V30 27551 O 2600.12 1.91998 0.291649 0
M  V30 27552 C 2597.25 3.47136 0.106778 0
M  V30 27553 C 2596.2 4.20677 -0.788342 0
M  V30 27554 C 2595.53 5.34694 0.0253987 0
M  V30 27555 C 2596.83 4.78752 -2.08792 0
M  V30 27556 H 2598.52 2.62136 -1.44655 0
M  V30 27557 H 2596.07 1.26008 -0.696998 0
M  V30 27558 H 2598.02 4.19347 0.415457 0
M  V30 27559 H 2596.74 3.10454 1.01419 0
M  V30 27560 H 2595.4 3.50308 -1.08075 0
M  V30 27561 H 2595.05 4.94254 0.933902 0
M  V30 27562 H 2594.75 5.84824 -0.57054 0
M  V30 27563 H 2596.28 6.09718 0.32804 0
M  V30 27564 H 2597.69 5.42875 -1.84282 0
M  V30 27565 H 2596.09 5.39244 -2.63317 0
M  V30 27566 H 2597.16 3.98486 -2.76291 0
M  V30 27567 N 2598.5 0.772537 1.37367 0
M  V30 27568 C 2599.43 0.173345 2.32856 0
M  V30 27569 C 2600.41 -0.682234 1.55819 0
M  V30 27570 O 2601.6 -0.619534 1.84053 0
M  V30 27571 C 2598.73 -0.705947 3.4005 0
M  V30 27572 C 2597.68 0.0483896 4.27973 0
M  V30 27573 C 2597.01 -0.950399 5.26186 0
M  V30 27574 C 2598.31 1.22785 5.07662 0
M  V30 27575 H 2600 0.971052 2.83215 0
M  V30 27576 H 2597.55 0.468401 1.36169 0
M  V30 27577 H 2599.5 -1.13494 4.05829 0
M  V30 27578 H 2598.22 -1.53618 2.88217 0
M  V30 27579 H 2596.88 0.458171 3.63726 0
M  V30 27580 H 2596.53 -1.7752 4.70633 0
M  V30 27581 H 2596.23 -0.450211 5.85873 0
M  V30 27582 H 2597.75 -1.37832 5.9484 0
M  V30 27583 H 2599.17 0.875466 5.66576 0
M  V30 27584 H 2597.56 1.66018 5.76679 0
M  V30 27585 H 2598.63 2.03157 4.4029 0
M  V30 27586 N 2599.98 -1.48664 0.523142 0
M  V30 27587 C 2601.22 -2.02496 -0.0134407 0
M  V30 27588 C 2601.55 -1.40088 -1.34928 0
M  V30 27589 O 2600.81 -0.5336 -1.88285 0
M  V30 27590 C 2601.11 -3.56886 -0.191608 0
M  V30 27591 C 2600.77 -4.38045 1.06901 0
M  V30 27592 C 2599.43 -4.5994 1.41451 0
M  V30 27593 C 2601.79 -4.85102 1.90592 0
M  V30 27594 C 2599.11 -5.2614 2.59603 0
M  V30 27595 C 2601.47 -5.52603 3.07916 0
M  V30 27596 C 2600.13 -5.72739 3.42821 0
M  V30 27597 H 2599.4 -0.740984 -0.00491831 0
M  V30 27598 H 2602.05 -1.78723 0.687782 0
M  V30 27599 H 2600.35 -3.79461 -0.975543 0
M  V30 27600 H 2602.05 -3.96153 -0.62159 0
M  V30 27601 H 2598.64 -4.21258 0.789922 0
M  V30 27602 H 2602.82 -4.67995 1.65211 0
M  V30 27603 H 2598.08 -5.39929 2.86857 0
M  V30 27604 H 2602.25 -5.88036 3.73077 0
M  V30 27605 H 2599.88 -6.23809 4.34473 0
M  V30 27606 N 2601.46 -0.257958 -1.55475 0
M  V30 27607 C 2602.7 0.363693 -1.99207 0
M  V30 27608 C 2603.03 1.57137 -1.14622 0
M  V30 27609 O 2602.29 1.94679 -0.199687 0
M  V30 27610 C 2602.58 0.806372 -3.48184 0
M  V30 27611 C 2602.25 -0.294763 -4.49936 0
M  V30 27612 C 2600.91 -0.59716 -4.7748 0
M  V30 27613 C 2603.26 -1.0376 -5.10767 0
M  V30 27614 C 2600.59 -1.64628 -5.63129 0
M  V30 27615 C 2602.94 -2.07632 -5.97555 0
M  V30 27616 C 2601.61 -2.38525 -6.23428 0
M  V30 27617 H 2600.88 0.133085 -0.728951 0
M  V30 27618 H 2603.53 -0.368092 -1.87929 0
M  V30 27619 H 2601.83 1.61755 -3.56851 0
M  V30 27620 H 2603.53 1.29782 -3.79417 0
M  V30 27621 H 2600.12 -0.0489403 -4.28572 0
M  V30 27622 H 2604.3 -0.817235 -4.89525 0
M  V30 27623 H 2599.56 -1.89084 -5.81427 0
M  V30 27624 H 2603.73 -2.65677 -6.4373 0
M  V30 27625 H 2601.36 -3.19956 -6.89589 0
M  V30 27626 N 2602.93 1.57593 0.0150108 0
M  V30 27627 C 2604.18 1.89086 0.702082 0
M  V30 27628 C 2604.5 0.858308 1.75762 0
M  V30 27629 O 2605.7 1.06295 2.49827 0
M  V30 27630 C 2604.16 3.35606 1.29986 0
M  V30 27631 C 2603.77 4.47125 0.279929 0
M  V30 27632 C 2605.51 3.7623 1.96599 0
M  V30 27633 C 2603.42 5.84713 0.886846 0
M  V30 27634 H 2602.35 0.705527 0.265985 0
M  V30 27635 H 2605 1.83449 -0.0430731 0
M  V30 27636 H 2603.38 3.36033 2.09519 0
M  V30 27637 H 2604.55 4.5819 -0.489711 0
M  V30 27638 H 2602.87 4.15424 -0.284908 0
M  V30 27639 H 2605.47 4.76352 2.42885 0
M  V30 27640 H 2605.81 3.08957 2.79019 0
M  V30 27641 H 2606.34 3.78038 1.23822 0
M  V30 27642 H 2603.08 6.55421 0.101761 0
M  V30 27643 H 2602.6 5.7734 1.626 0
M  V30 27644 H 2604.28 6.31893 1.38999 0
M  V30 27645 N 2604.41 -0.287527 1.54955 0
M  V30 27646 C 2605.64 -1.03813 1.78624 0
M  V30 27647 C 2606.05 -1.80954 0.552483 0
M  V30 27648 O 2605.39 -1.7711 -0.487634 0
M  V30 27649 C 2605.46 -2.05494 2.94979 0
M  V30 27650 C 2605.12 -1.47425 4.32568 0
M  V30 27651 C 2606.12 -0.897346 5.12097 0
M  V30 27652 C 2603.8 -1.50583 4.79197 0
M  V30 27653 C 2605.8 -0.359739 6.36384 0
M  V30 27654 C 2603.48 -0.964353 6.03443 0
M  V30 27655 C 2604.48 -0.392294 6.81872 0
M  V30 27656 O 2604.17 0.140929 8.03776 0
M  V30 27657 H 2603.9 -0.313043 0.59915 0
M  V30 27658 H 2606.45 -0.328189 2.02761 0
M  V30 27659 H 2604.68 -2.80207 2.66498 0
M  V30 27660 H 2606.37 -2.66565 3.06101 0
M  V30 27661 H 2607.14 -0.865757 4.7721 0
M  V30 27662 H 2603.02 -1.94048 4.1817 0
M  V30 27663 H 2606.56 0.0874177 6.97545 0
M  V30 27664 H 2602.46 -0.993133 6.37814 0
M  V30 27665 H 2603.23 0.0289056 8.18495 0
M  V30 27666 N 2605.89 -1.47641 -0.551365 0
M  V30 27667 C 2606.85 -1.6011 -1.64004 0
M  V30 27668 C 2607.85 -0.475787 -1.536 0
M  V30 27669 O 2609.04 -0.741016 -1.57653 0
M  V30 27670 C 2606.18 -1.55113 -3.03567 0
M  V30 27671 H 2607.37 -2.57163 -1.54295 0
M  V30 27672 H 2604.92 -1.35918 -0.771752 0
M  V30 27673 H 2605.66 -0.594576 -3.18803 0
M  V30 27674 H 2605.44 -2.36789 -3.12527 0
M  V30 27675 H 2606.93 -1.66989 -3.82759 0
M  V30 27676 N 2607.37 0.798563 -1.3587 0
M  V30 27677 C 2608.33 1.89239 -1.2931 0
M  V30 27678 C 2609.33 1.59516 -0.202775 0
M  V30 27679 O 2610.52 1.68099 -0.456986 0
M  V30 27680 C 2607.65 3.25831 -1.00235 0
M  V30 27681 H 2608.85 1.96474 -2.26579 0
M  V30 27682 H 2606.4 0.995336 -1.2051 0
M  V30 27683 H 2607.13 3.24282 -0.033858 0
M  V30 27684 H 2606.92 3.48792 -1.79127 0
M  V30 27685 H 2608.41 4.05883 -0.982261 0
M  V30 27686 N 2608.85 1.19999 1.02166 0
M  V30 27687 C 2609.78 0.968077 2.12486 0
M  V30 27688 C 2610.76 -0.101155 1.69799 0
M  V30 27689 O 2611.94 0.0553334 1.94121 0
M  V30 27690 C 2609.07 0.513836 3.43478 0
M  V30 27691 C 2608.03 1.52573 3.99882 0
M  V30 27692 C 2607.35 0.928307 5.2658 0
M  V30 27693 C 2608.65 2.90803 4.33856 0
M  V30 27694 H 2610.35 1.89074 2.32146 0
M  V30 27695 H 2607.89 0.910488 1.11562 0
M  V30 27696 H 2609.85 0.338847 4.20035 0
M  V30 27697 H 2608.57 -0.444436 3.23562 0
M  V30 27698 H 2607.23 1.68799 3.25426 0
M  V30 27699 H 2606.88 -0.0377405 5.02986 0
M  V30 27700 H 2606.58 1.60407 5.65282 0
M  V30 27701 H 2608.1 0.764274 6.05798 0
M  V30 27702 H 2609.51 2.78118 5.01322 0
M  V30 27703 H 2607.91 3.55239 4.83658 0
M  V30 27704 H 2608.98 3.4291 3.42842 0
M  V30 27705 N 2610.32 -1.21392 1.00507 0
M  V30 27706 C 2611.57 -1.90085 0.686449 0
M  V30 27707 C 2611.89 -1.78491 -0.785233 0
M  V30 27708 O 2611.16 -1.17986 -1.56385 0
M  V30 27709 H 2609.74 -0.703599 0.250912 0
M  V30 27710 H 2612.41 -1.4748 1.27419 0
M  V30 27711 H 2611.5 -2.96979 0.959674 0
M  V30 27712 N 2611.8 -0.779811 -1.36955 0
M  V30 27713 C 2613.05 -0.348316 -1.99786 0
M  V30 27714 C 2613.38 1.07462 -1.61758 0
M  V30 27715 O 2612.66 1.74074 -0.867669 0
M  V30 27716 C 2612.94 -0.501102 -3.56596 0
M  V30 27717 C 2612.79 -1.96704 -4.04509 0
M  V30 27718 C 2614.11 0.0897324 -4.40009 0
M  V30 27719 H 2611.23 -0.128034 -0.725794 0
M  V30 27720 H 2613.87 -0.98436 -1.62513 0
M  V30 27721 H 2612.02 0.0403664 -3.88479 0
M  V30 27722 H 2613.69 -2.56883 -3.83156 0
M  V30 27723 H 2611.94 -2.47303 -3.56404 0
M  V30 27724 H 2612.61 -2.02495 -5.13517 0
M  V30 27725 H 2615.08 -0.372366 -4.14431 0
M  V30 27726 H 2613.96 -0.047257 -5.4888 0
M  V30 27727 H 2614.22 1.18088 -4.26037 0
M  V30 27728 N 2613.28 1.48384 -0.531019 0
M  V30 27729 C 2614.19 2.3342 0.234989 0
M  V30 27730 C 2615.21 1.46553 0.937984 0
M  V30 27731 O 2616.38 1.79531 0.912713 0
M  V30 27732 C 2613.45 3.22691 1.26772 0
M  V30 27733 C 2612.51 4.25432 0.574964 0
M  V30 27734 C 2611.74 5.10438 1.55849 0
M  V30 27735 O 2611.96 4.97442 2.7912 0
M  V30 27736 O 2610.9 5.91813 1.09732 0
M  V30 27737 H 2614.72 3.00168 -0.461847 0
M  V30 27738 H 2612.31 1.4652 -0.291928 0
M  V30 27739 H 2614.19 3.77908 1.8645 0
M  V30 27740 H 2612.87 2.58604 1.94694 0
M  V30 27741 H 2611.77 3.74048 -0.062344 0
M  V30 27742 H 2613.11 4.92161 -0.0623395 0
M  V30 27743 N 2614.76 0.2662 1.55336 0
M  V30 27744 C 2615.69 -0.618941 2.25147 0
M  V30 27745 C 2616.67 -1.16602 1.23847 0
M  V30 27746 O 2617.85 -1.20181 1.52546 0
M  V30 27747 C 2614.98 -1.80723 2.96575 0
M  V30 27748 C 2613.94 -1.39208 4.04729 0
M  V30 27749 C 2613.26 -2.66275 4.63683 0
M  V30 27750 C 2614.56 -0.548851 5.19408 0
M  V30 27751 H 2616.26 -0.036759 2.99377 0
M  V30 27752 H 2613.8 -0.0162398 1.43991 0
M  V30 27753 H 2615.76 -2.43226 3.44121 0
M  V30 27754 H 2614.48 -2.4151 2.19865 0
M  V30 27755 H 2613.14 -0.790288 3.5798 0
M  V30 27756 H 2612.79 -3.25301 3.83651 0
M  V30 27757 H 2612.49 -2.39213 5.36704 0
M  V30 27758 H 2614.01 -3.29642 5.13973 0
M  V30 27759 H 2615.43 -1.07866 5.63061 0
M  V30 27760 H 2613.82 -0.373488 5.98937 0
M  V30 27761 H 2614.89 0.434479 4.8295 0
M  V30 27762 N 2616.24 -1.57599 -0.0066531 0
M  V30 27763 C 2617.48 -1.90277 -0.692887 0
M  V30 27764 C 2617.81 -0.866223 -1.74146 0
M  V30 27765 O 2617.07 0.129899 -1.95268 0
M  V30 27766 C 2617.37 -3.29711 -1.37933 0
M  V30 27767 C 2617.03 -4.485 -0.4646 0
M  V30 27768 C 2615.69 -4.8073 -0.212725 0
M  V30 27769 C 2618.05 -5.20937 0.165602 0
M  V30 27770 C 2615.37 -5.82772 0.677756 0
M  V30 27771 C 2617.73 -6.23927 1.04392 0
M  V30 27772 C 2616.39 -6.54618 1.30504 0
M  V30 27773 H 2615.66 -0.696273 -0.253545 0
M  V30 27774 H 2618.31 -1.91441 0.0474459 0
M  V30 27775 H 2616.61 -3.24639 -2.19355 0
M  V30 27776 H 2618.31 -3.52252 -1.91623 0
M  V30 27777 H 2614.9 -4.23314 -0.671079 0
M  V30 27778 H 2619.08 -4.96297 -0.0159884 0
M  V30 27779 H 2614.34 -6.04915 0.888136 0
M  V30 27780 H 2618.51 -6.7919 1.53863 0
M  V30 27781 H 2616.14 -7.33508 1.99675 0
M  V30 27782 N 2617.72 0.279305 -1.55105 0
M  V30 27783 C 2618.96 1.00974 -1.75068 0
M  V30 27784 C 2619.28 1.87044 -0.551309 0
M  V30 27785 O 2618.55 1.91033 0.43395 0
M  V30 27786 H 2617.13 0.375805 -0.645585 0
M  V30 27787 H 2619.8 0.305055 -1.92498 0
M  V30 27788 H 2618.89 1.65033 -2.64897 0
M  V30 27789 N 2619.19 1.47931 0.543528 0
M  V30 27790 C 2620.61 1.33752 0.870783 0
M  V30 27791 C 2620.81 0.338295 1.9864 0
M  V30 27792 O 2619.87 -0.245327 2.51305 0
M  V30 27793 C 2621.18 2.73438 1.25109 0
M  V30 27794 C 2622.73 2.81825 1.36175 0
M  V30 27795 C 2623.2 4.22182 1.77556 0
M  V30 27796 N 2624.69 4.2479 1.84682 0
M  V30 27797 C 2625.43 5.30319 2.18058 0
M  V30 27798 N 2624.92 6.46139 2.49951 0
M  V30 27799 N 2626.72 5.17705 2.18948 0
M  V30 27800 H 2618.87 2.11523 -0.192787 0
M  V30 27801 H 2621.13 0.947706 -0.0235944 0
M  V30 27802 H 2620.84 3.48054 0.505078 0
M  V30 27803 H 2620.71 3.06092 2.20426 0
M  V30 27804 H 2623.1 2.07472 2.09855 0
M  V30 27805 H 2623.18 2.52808 0.390124 0
M  V30 27806 H 2622.82 4.97046 1.0444 0
M  V30 27807 H 2622.75 4.48634 2.75745 0
M  V30 27808 H 2625.24 3.41241 1.62366 0
M  V30 27809 H 2625.56 7.22411 2.74485 0
M  V30 27810 H 2623.9 6.49437 2.47501 0
M  V30 27811 H 2627.09 4.26243 1.9348 0
M  V30 27812 H 2627.27 6.00051 2.44628 0
M  V30 27813 N 2620.67 -0.791347 1.36292 0
M  V30 27814 C 2621.6 -1.91822 1.33141 0
M  V30 27815 C 2622.58 -1.68882 0.203198 0
M  V30 27816 O 2623.77 -1.90024 0.400543 0
M  V30 27817 C 2620.9 -3.28814 1.11799 0
M  V30 27818 C 2619.85 -3.66273 2.21423 0
M  V30 27819 C 2619.18 -5.01593 1.85227 0
M  V30 27820 C 2620.48 -3.75058 3.63495 0
M  V30 27821 H 2622.17 -1.94716 2.27433 0
M  V30 27822 H 2619.72 -0.935418 1.0948 0
M  V30 27823 H 2621.67 -4.07264 1.08229 0
M  V30 27824 H 2620.39 -3.26302 0.139559 0
M  V30 27825 H 2619.05 -2.90118 2.24115 0
M  V30 27826 H 2618.7 -4.956 0.859631 0
M  V30 27827 H 2618.4 -5.27626 2.58621 0
M  V30 27828 H 2619.93 -5.82466 1.8321 0
M  V30 27829 H 2621.34 -4.43705 3.63042 0
M  V30 27830 H 2619.74 -4.12574 4.35778 0
M  V30 27831 H 2620.81 -2.76212 3.98541 0
M  V30 27832 N 2622.15 -1.2054 -1.01528 0
M  V30 27833 C 2623.06 -0.97115 -2.13555 0
M  V30 27834 C 2624.08 0.073406 -1.73845 0
M  V30 27835 O 2625.25 -0.114334 -2.01075 0
M  V30 27836 C 2622.32 -0.527699 -3.42661 0
M  V30 27837 C 2621.38 -1.64326 -3.96605 0
M  V30 27838 C 2620.61 -1.22087 -5.19548 0
M  V30 27839 O 2620.83 -0.0901201 -5.70329 0
M  V30 27840 O 2619.77 -2.02881 -5.66677 0
M  V30 27841 H 2623.59 -1.90917 -2.36187 0
M  V30 27842 H 2621.18 -0.989382 -1.11945 0
M  V30 27843 H 2623.06 -0.289695 -4.20403 0
M  V30 27844 H 2621.74 0.381723 -3.21441 0
M  V30 27845 H 2620.64 -1.93556 -3.20136 0
M  V30 27846 H 2621.98 -2.52973 -4.22215 0
M  V30 27847 N 2623.63 1.20858 -1.01149 0
M  V30 27848 C 2624.87 1.91807 -0.706365 0
M  V30 27849 C 2625.23 1.76758 0.749705 0
M  V30 27850 O 2626.43 2.4214 1.16711 0
M  V30 27851 C 2624.7 3.39273 -1.12377 0
M  V30 27852 S 2626.26 4.28617 -0.93984 0
M  V30 27853 H 2623.08 0.662664 -0.257676 0
M  V30 27854 H 2625.68 1.46221 -1.29768 0
M  V30 27855 H 2624.39 3.47745 -2.17949 0
M  V30 27856 H 2623.92 3.89881 -0.52502 0
M  V30 27857 H 2625.93 4.95944 0.159469 0
M  V30 27858 N 2625.11 0.787064 1.3654 0
M  V30 27859 C 2626.33 0.369089 2.04089 0
M  V30 27860 C 2626.76 -1.00567 1.58959 0
M  V30 27861 O 2626.11 -1.64742 0.756955 0
M  V30 27862 C 2626.16 0.438529 3.57924 0
M  V30 27863 O 2625.27 -0.555407 4.08643 0
M  V30 27864 H 2624.61 0.157133 0.64514 0
M  V30 27865 H 2627.14 1.06752 1.74543 0
M  V30 27866 H 2627.15 0.30129 4.06886 0
M  V30 27867 H 2625.82 1.44139 3.90124 0
M  V30 27868 H 2624.4 -0.380022 3.70959 0
M  V30 27869 N 2626.58 -1.48101 0.53888 0
M  V30 27870 C 2627.49 -2.33541 -0.222607 0
M  V30 27871 C 2628.51 -1.47049 -0.930199 0
M  V30 27872 O 2629.69 -1.80013 -0.903179 0
M  V30 27873 C 2626.75 -3.23359 -1.25059 0
M  V30 27874 C 2625.81 -4.25731 -0.552394 0
M  V30 27875 C 2625.04 -5.11257 -1.5314 0
M  V30 27876 O 2625.27 -4.98915 -2.76478 0
M  V30 27877 O 2624.2 -5.92387 -1.06592 0
M  V30 27878 H 2628.03 -2.99919 0.477759 0
M  V30 27879 H 2625.61 -1.46363 0.299695 0
M  V30 27880 H 2627.49 -3.78891 -1.84444 0
M  V30 27881 H 2626.17 -2.59632 -1.9332 0
M  V30 27882 H 2625.08 -3.7401 0.0821798 0
M  V30 27883 H 2626.41 -4.92121 0.0884391 0
M  V30 27884 N 2628.06 -0.274434 -1.55192 0
M  V30 27885 C 2629.34 0.394298 -1.91585 0
M  V30 27886 C 2629.72 1.73772 -1.19861 0
M  V30 27887 O 2629.07 2.26173 -0.325239 0
M  V30 27888 C 2629.28 0.53525 -3.44871 0
M  V30 27889 C 2630.62 0.818461 -4.16637 0
M  V30 27890 O 2631.65 0.620084 -3.50761 0
M  V30 27891 O 2630.51 1.19782 -5.33211 0
M  V30 27892 H 2627.6 0.21578 -0.798353 0
M  V30 27893 H 2630.15 -0.320536 -1.66645 0
M  V30 27894 H 2628.92 -0.410209 -3.89144 0
M  V30 27895 H 2628.54 1.29958 -3.75762 0
M  V30 27896 N 2629.54 1.576 -0.00170483 0
M  V30 27897 C 2630.49 2.09654 1.00737 0
M  V30 27898 C 2631.48 1.01691 1.35482 0
M  V30 27899 O 2632.69 1.20154 1.34026 0
M  V30 27900 H 2629.06 0.669463 0.342526 0
M  V30 27901 H 2631.03 2.93422 0.542789 0
M  V30 27902 C 2629.78 2.61651 2.28985 0
M  V30 27903 H 2629.11 3.44359 2.03118 0
M  V30 27904 H 2630.55 3.0175 2.97864 0
M  V30 27905 C 2629 1.53141 3.00082 0
M  V30 27906 O 2629.53 0.915309 3.91133 0
M  V30 27907 N 2627.74 1.25845 2.61938 0
M  V30 27908 H 2627.29 1.76132 1.87977 0
M  V30 27909 H 2627.25 0.53463 3.09821 0
M  V30 27910 N 2631.02 -0.271076 1.55251 0
M  V30 27911 C 2632.43 -0.841978 1.66636 0
M  V30 27912 C 2632.78 -1.86971 0.594664 0
M  V30 27913 O 2631.9 -2.1479 -0.263494 0
M  V30 27914 C 2632.5 -1.53396 3.02085 0
M  V30 27915 C 2631.06 -2.05287 3.1549 0
M  V30 27916 C 2630.21 -0.895585 2.6244 0
M  V30 27917 H 2633.16 -0.0473838 1.58629 0
M  V30 27918 H 2633.18 -2.40102 2.9518 0
M  V30 27919 H 2632.69 -0.785719 3.80063 0
M  V30 27920 H 2630.79 -2.83067 2.42289 0
M  V30 27921 H 2630.9 -2.26686 4.22079 0
M  V30 27922 H 2629.27 -1.28949 2.19646 0
M  V30 27923 H 2630.05 -0.160818 3.42923 0
M  V30 27924 N 2632.5 -1.48217 -0.535675 0
M  V30 27925 C 2633.74 -1.57538 -1.30235 0
M  V30 27926 C 2634.1 -0.241263 -1.90478 0
M  V30 27927 O 2635.3 -0.209427 -2.67983 0
M  V30 27928 C 2633.57 -2.67797 -2.36685 0
M  V30 27929 S 2635.13 -2.96845 -3.23154 0
M  V30 27930 H 2631.95 -0.556056 -0.443083 0
M  V30 27931 H 2634.55 -1.8571 -0.610904 0
M  V30 27932 H 2633.26 -3.63299 -1.90898 0
M  V30 27933 H 2632.79 -2.41508 -3.10544 0
M  V30 27934 H 2634.8 -2.35707 -4.36643 0
M  V30 27935 N 2633.97 0.784108 -1.3671 0
M  V30 27936 C 2634.88 1.92819 -1.33634 0
M  V30 27937 C 2635.9 1.72369 -0.237716 0
M  V30 27938 O 2637.08 1.95815 -0.470996 0
M  V30 27939 C 2634.14 3.27762 -1.13017 0
M  V30 27940 C 2633.2 3.60953 -2.32403 0
M  V30 27941 C 2632.44 4.89457 -2.12761 0
M  V30 27942 O 2632.66 5.59584 -1.10551 0
M  V30 27943 O 2631.59 5.21427 -3.00662 0
M  V30 27944 H 2635.42 1.98364 -2.29968 0
M  V30 27945 H 2633 0.925115 -1.17311 0
M  V30 27946 H 2634.89 4.08503 -1.03458 0
M  V30 27947 H 2633.56 3.23097 -0.197487 0
M  V30 27948 H 2632.47 2.80498 -2.47532 0
M  V30 27949 H 2633.8 3.70348 -3.24196 0
M  V30 27950 N 2635.45 1.21076 1.00888 0
M  V30 27951 C 2636.7 1.02361 1.7426 0
M  V30 27952 C 2637.02 -0.44436 1.8987 0
M  V30 27953 O 2636.29 -1.32078 1.4468 0
M  V30 27954 H 2634.87 0.375765 0.645608 0
M  V30 27955 H 2637.53 1.52319 1.21594 0
M  V30 27956 H 2636.63 1.48835 2.74326 0
M  V30 27957 N 2636.93 -1.2032 1.01789 0
M  V30 27958 C 2637.86 -2.254 0.609664 0
M  V30 27959 C 2638.84 -1.65894 -0.375922 0
M  V30 27960 O 2640.03 -1.92437 -0.261067 0
M  V30 27961 C 2637.16 -3.47262 -0.0515384 0
M  V30 27962 C 2636.11 -4.1937 0.855169 0
M  V30 27963 C 2635.44 -5.34667 0.0596697 0
M  V30 27964 C 2636.74 -4.75369 2.16382 0
M  V30 27965 H 2638.43 -2.59801 1.48807 0
M  V30 27966 H 2635.98 -1.24883 0.716956 0
M  V30 27967 H 2637.93 -4.19955 -0.34869 0
M  V30 27968 H 2636.65 -3.12028 -0.964671 0
M  V30 27969 H 2635.31 -3.48544 1.13634 0
M  V30 27970 H 2634.96 -4.95677 -0.855153 0
M  V30 27971 H 2634.66 -5.83842 0.663508 0
M  V30 27972 H 2636.18 -6.10163 -0.230998 0
M  V30 27973 H 2637.6 -5.39874 1.92895 0
M  V30 27974 H 2636 -5.34987 2.71863 0
M  V30 27975 H 2637.07 -3.9404 2.82596 0
M  V30 27976 N 2638.41 -0.794293 -1.3612 0
M  V30 27977 C 2639.63 -0.379907 -2.03891 0
M  V30 27978 C 2640.06 0.997223 -1.5949 0
M  V30 27979 O 2639.42 1.64338 -0.765681 0
M  V30 27980 C 2639.46 -0.457505 -3.57686 0
M  V30 27981 O 2638.57 0.533728 -4.08932 0
M  V30 27982 H 2637.91 -0.160552 -0.644297 0
M  V30 27983 H 2640.44 -1.07676 -1.73974 0
M  V30 27984 H 2640.45 -0.322864 -4.06721 0
M  V30 27985 H 2639.12 -1.46206 -3.89354 0
M  V30 27986 H 2637.7 0.360344 -3.71155 0
M  V30 27987 N 2639.89 1.47813 -0.546727 0
M  V30 27988 C 2641.3 1.58268 -0.205745 0
M  V30 27989 C 2641.5 1.54669 1.2915 0
M  V30 27990 O 2640.56 1.44456 2.07096 0
M  V30 27991 C 2641.87 2.89215 -0.823116 0
M  V30 27992 C 2643.42 3.02778 -0.793381 0
M  V30 27993 C 2643.89 4.3641 -1.38963 0
M  V30 27994 N 2645.39 4.43019 -1.35234 0
M  V30 27995 C 2646.12 5.4496 -1.78342 0
M  V30 27996 N 2645.62 6.53768 -2.29257 0
M  V30 27997 N 2647.41 5.35942 -1.69477 0
M  V30 27998 H 2639.56 1.48396 -1.51962 0
M  V30 27999 H 2641.82 0.70562 -0.633091 0
M  V30 28000 H 2641.53 2.97554 -1.87495 0
M  V30 28001 H 2641.4 3.75924 -0.309981 0
M  V30 28002 H 2643.79 2.94041 0.249732 0
M  V30 28003 H 2643.87 2.17637 -1.34416 0
M  V30 28004 H 2643.52 4.45901 -2.43176 0
M  V30 28005 H 2643.45 5.20265 -0.814383 0
M  V30 28006 H 2645.94 3.64977 -0.979804 0
M  V30 28007 H 2646.25 7.27714 -2.60102 0
M  V30 28008 H 2644.59 6.54686 -2.33262 0
M  V30 28009 H 2647.79 4.49835 -1.29485 0
M  V30 28010 H 2647.96 6.15253 -2.03392 0
M  V30 28011 N 2641.36 0.28266 1.55044 0
M  V30 28012 C 2642.31 -0.616211 2.19515 0
M  V30 28013 C 2643.3 -1.11275 1.16218 0
M  V30 28014 O 2644.49 -1.05657 1.42006 0
M  V30 28015 C 2641.62 -1.79635 2.92551 0
M  V30 28016 C 2640.71 -1.31664 4.03144 0
M  V30 28017 N 2641.1 -0.553606 5.02761 0
M  V30 28018 C 2639.39 -1.59895 4.16353 0
M  V30 28019 C 2640.1 -0.300438 5.80924 0
M  V30 28020 N 2639.07 -0.875022 5.36511 0
M  V30 28021 H 2642.87 -0.0254847 2.93889 0
M  V30 28022 H 2640.39 0.0865647 1.62169 0
M  V30 28023 H 2642.38 -2.45167 3.37193 0
M  V30 28024 H 2641.04 -2.39095 2.1969 0
M  V30 28025 H 2642.06 -0.200229 5.17513 0
M  V30 28026 H 2638.73 -2.20237 3.54686 0
M  V30 28027 H 2640.12 0.311171 6.71179 0
M  V30 28028 N 2642.84 -1.57597 0.0100627 0
M  V30 28029 C 2643.81 -2.07988 -0.962993 0
M  V30 28030 C 2644.81 -0.991195 -1.26617 0
M  V30 28031 O 2646 -1.25349 -1.20968 0
M  V30 28032 C 2643.13 -2.52978 -2.28506 0
M  V30 28033 H 2644.32 -2.95235 -0.526919 0
M  V30 28034 H 2641.87 -1.54483 -0.237612 0
M  V30 28035 H 2642.61 -1.69004 -2.76782 0
M  V30 28036 H 2642.39 -3.32497 -2.07818 0
M  V30 28037 H 2643.88 -2.92256 -2.98289 0
M  V30 28038 N 2644.32 0.262839 -1.55393 0
M  V30 28039 C 2645.55 1.01105 -1.80514 0
M  V30 28040 C 2645.96 1.79555 -0.583565 0
M  V30 28041 O 2645.32 1.76927 0.447554 0
M  V30 28042 C 2645.37 1.96159 -3.03651 0
M  V30 28043 O 2645.09 1.20886 -4.21092 0
M  V30 28044 C 2646.59 2.82709 -3.41453 0
M  V30 28045 H 2643.81 0.298225 -0.601085 0
M  V30 28046 H 2646.36 0.290546 -2.02425 0
M  V30 28047 H 2644.51 2.63658 -2.83837 0
M  V30 28048 H 2644.93 1.85042 -4.90775 0
M  V30 28049 H 2646.4 3.45184 -4.30757 0
M  V30 28050 H 2646.88 3.53004 -2.61314 0
M  V30 28051 H 2647.48 2.20686 -3.63562 0
M  V30 28052 N 2645.8 1.48499 0.527807 0
M  V30 28053 C 2647.05 1.56627 1.28352 0
M  V30 28054 C 2647.37 0.24113 1.93 0
M  V30 28055 O 2646.63 -0.768767 1.79968 0
M  V30 28056 C 2646.93 2.65489 2.39271 0
M  V30 28057 C 2646.59 4.07856 1.92261 0
M  V30 28058 C 2645.26 4.46605 1.79158 0
M  V30 28059 C 2647.61 4.97066 1.56763 0
M  V30 28060 C 2644.94 5.72366 1.28895 0
M  V30 28061 C 2647.29 6.23319 1.07961 0
M  V30 28062 C 2645.95 6.60922 0.93477 0
M  V30 28063 H 2645.22 0.57314 0.469672 0
M  V30 28064 H 2647.87 1.82225 0.588749 0
M  V30 28065 H 2646.17 2.33759 3.14426 0
M  V30 28066 H 2647.87 2.68993 2.97395 0
M  V30 28067 H 2644.46 3.77256 2.03411 0
M  V30 28068 H 2648.64 4.67806 1.65745 0
M  V30 28069 H 2643.9 6.00223 1.1637 0
M  V30 28070 H 2648.07 6.9184 0.795653 0
M  V30 28071 H 2645.7 7.58258 0.543098 0
M  V30 28072 N 2647.28 -0.776847 1.37123 0
M  V30 28073 C 2648.5 -1.57102 1.35403 0
M  V30 28074 C 2648.93 -1.88006 -0.0595231 0
M  V30 28075 O 2648.29 -1.48846 -1.03511 0
M  V30 28076 C 2648.33 -2.86116 2.19477 0
M  V30 28077 O 2647.44 -3.8027 1.59589 0
M  V30 28078 H 2646.78 -0.476068 0.462877 0
M  V30 28079 H 2649.31 -0.9619 1.80579 0
M  V30 28080 H 2649.32 -3.35267 2.32508 0
M  V30 28081 H 2647.99 -2.6295 3.22227 0
M  V30 28082 H 2646.57 -3.38899 1.5557 0
M  V30 28083 N 2648.76 -1.2161 -1.00244 0
M  V30 28084 C 2649.7 -0.974727 -2.11191 0
M  V30 28085 C 2650.7 0.0789006 -1.69216 0
M  V30 28086 O 2651.9 -0.0727122 -1.79853 0
M  V30 28087 H 2648.28 -0.297965 -0.69045 0
M  V30 28088 H 2650.25 -1.91642 -2.28727 0
M  V30 28089 C 2649 -0.558777 -3.43181 0
M  V30 28090 H 2648.32 -1.36116 -3.75915 0
M  V30 28091 H 2649.76 -0.429228 -4.21822 0
M  V30 28092 C 2648.22 0.73059 -3.28883 0
M  V30 28093 O 2648.75 1.78547 -3.59838 0
M  V30 28094 N 2646.96 0.698082 -2.82091 0
M  V30 28095 H 2646.5 -0.160655 -2.57099 0
M  V30 28096 H 2646.46 1.56108 -2.72906 0
M  V30 28097 N 2650.23 1.19778 -1.02425 0
M  V30 28098 C 2651.48 1.89343 -0.718021 0
M  V30 28099 C 2651.81 1.79332 0.753004 0
M  V30 28100 O 2651.06 1.17695 1.56353 0
M  V30 28101 C 2651.36 3.39763 -1.10886 0
M  V30 28102 C 2651.03 3.69976 -2.57738 0
M  V30 28103 C 2649.69 3.77932 -2.97861 0
M  V30 28104 C 2652.04 3.8367 -3.5277 0
M  V30 28105 C 2649.37 3.97047 -4.31938 0
M  V30 28106 C 2651.72 4.04297 -4.86545 0
M  V30 28107 C 2650.39 4.10485 -5.26363 0
M  V30 28108 H 2649.66 0.692855 -0.262742 0
M  V30 28109 H 2652.3 1.41873 -1.28625 0
M  V30 28110 H 2650.61 3.891 -0.459162 0
M  V30 28111 H 2652.31 3.91899 -0.849501 0
M  V30 28112 H 2648.9 3.64389 -2.25652 0
M  V30 28113 H 2653.08 3.76872 -3.22926 0
M  V30 28114 H 2648.34 4.00075 -4.62331 0
M  V30 28115 H 2652.51 4.13836 -5.60101 0
M  V30 28116 H 2650.14 4.25049 -6.30268 0
M  V30 28117 N 2651.71 0.801501 1.35697 0
M  V30 28118 C 2652.96 0.378745 1.98519 0
M  V30 28119 C 2653.28 -1.05635 1.63909 0
M  V30 28120 O 2652.55 -1.73004 0.919043 0
M  V30 28121 H 2651.13 0.137055 0.734319 0
M  V30 28122 H 2653.79 1.02622 1.65695 0
M  V30 28123 H 2652.89 0.480338 3.08382 0
M  V30 28124 N 2653.19 -1.47521 0.554558 0
M  V30 28125 C 2654.12 -2.26909 -0.242402 0
M  V30 28126 C 2655.1 -1.33884 -0.922699 0
M  V30 28127 O 2656.28 -1.63262 -0.942215 0
M  V30 28128 C 2653.41 -3.10841 -1.34519 0
M  V30 28129 C 2652.46 -4.19423 -0.773732 0
M  V30 28130 S 2653.29 -5.34167 0.377619 0
M  V30 28131 C 2654.45 -6.21663 -0.727055 0
M  V30 28132 H 2654.68 -2.94155 0.431269 0
M  V30 28133 H 2652.21 -1.50591 0.340826 0
M  V30 28134 H 2654.17 -3.59769 -1.97677 0
M  V30 28135 H 2652.83 -2.42962 -1.99069 0
M  V30 28136 H 2652.02 -4.77869 -1.60179 0
M  V30 28137 H 2651.63 -3.73362 -0.218383 0
M  V30 28138 H 2653.92 -6.57851 -1.61981 0
M  V30 28139 H 2654.86 -7.07871 -0.180011 0
M  V30 28140 H 2655.27 -5.55235 -1.01853 0
M  V30 28141 N 2654.67 -0.290879 -1.54892 0
M  V30 28142 C 2655.63 0.576745 -2.21825 0
M  V30 28143 C 2656.63 1.06917 -1.20106 0
M  V30 28144 O 2657.82 0.966817 -1.44908 0
M  V30 28145 C 2654.95 1.79742 -2.89665 0
M  V30 28146 H 2656.15 -0.00789323 -2.99899 0
M  V30 28147 H 2653.7 -0.0416208 -1.56245 0
M  V30 28148 H 2654.43 2.42215 -2.15644 0
M  V30 28149 H 2654.22 1.45208 -3.64221 0
M  V30 28150 H 2655.71 2.41404 -3.40755 0
M  V30 28151 N 2656.15 1.57589 -0.0184203 0
M  V30 28152 C 2657.39 1.91355 0.662528 0
M  V30 28153 C 2657.72 0.893818 1.72746 0
M  V30 28154 O 2656.98 -0.0988166 1.9545 0
M  V30 28155 C 2657.27 3.31863 1.3267 0
M  V30 28156 C 2656.94 4.49182 0.393189 0
M  V30 28157 C 2655.6 4.81007 0.136218 0
M  V30 28158 C 2657.95 5.20607 -0.248457 0
M  V30 28159 C 2655.28 5.8162 -0.770384 0
M  V30 28160 C 2657.63 6.22187 -1.14305 0
M  V30 28161 C 2656.3 6.52459 -1.40901 0
M  V30 28162 H 2655.57 0.700218 0.242436 0
M  V30 28163 H 2658.22 1.91342 -0.0778966 0
M  V30 28164 H 2656.52 3.28088 2.14162 0
M  V30 28165 H 2658.22 3.55256 1.85995 0
M  V30 28166 H 2654.81 4.24328 0.603648 0
M  V30 28167 H 2658.99 4.9626 -0.0629703 0
M  V30 28168 H 2654.25 6.03425 -0.98426 0
M  V30 28169 H 2658.42 6.76656 -1.64649 0
M  V30 28170 H 2656.05 7.30239 -2.11319 0
M  V30 28171 N 2657.62 -0.254594 1.5553 0
M  V30 28172 C 2658.55 -1.31893 1.92682 0
M  V30 28173 C 2659.53 -1.50599 0.790824 0
M  V30 28174 O 2660.72 -1.63335 1.05048 0
M  V30 28175 C 2657.85 -2.67513 2.21482 0
M  V30 28176 C 2656.8 -2.63513 3.37261 0
M  V30 28177 C 2656.13 -4.02856 3.51583 0
M  V30 28178 C 2657.43 -2.2117 4.73161 0
M  V30 28179 H 2659.12 -1.01046 2.81833 0
M  V30 28180 H 2656.67 -0.484638 1.356 0
M  V30 28181 H 2658.62 -3.42099 2.46061 0
M  V30 28182 H 2657.35 -2.9998 1.29149 0
M  V30 28183 H 2656.01 -1.91384 3.12678 0
M  V30 28184 H 2655.65 -4.32576 2.56684 0
M  V30 28185 H 2655.35 -4.0107 4.29437 0
M  V30 28186 H 2656.88 -4.79154 3.78475 0
M  V30 28187 H 2658.29 -2.85486 4.97163 0
M  V30 28188 H 2656.69 -2.30511 5.54062 0
M  V30 28189 H 2657.76 -1.16324 4.70741 0
M  V30 28190 N 2659.1 -1.48777 -0.519925 0
M  V30 28191 C 2660.33 -1.60984 -1.29968 0
M  V30 28192 C 2660.74 -0.273917 -1.86802 0
M  V30 28193 O 2660.1 0.738164 -1.66905 0
M  V30 28194 C 2660.15 -2.6642 -2.44342 0
M  V30 28195 O 2659.87 -3.94828 -1.89848 0
M  V30 28196 C 2661.37 -2.89159 -3.36009 0
M  V30 28197 H 2658.59 -0.542503 -0.394882 0
M  V30 28198 H 2661.14 -1.94677 -0.62618 0
M  V30 28199 H 2659.29 -2.35557 -3.07557 0
M  V30 28200 H 2659.71 -4.52755 -2.6479 0
M  V30 28201 H 2661.18 -3.6671 -4.12586 0
M  V30 28202 H 2661.66 -1.98358 -3.91855 0
M  V30 28203 H 2662.26 -3.21364 -2.78577 0
M  V30 28204 N 2660.58 0.769564 -1.37534 0
M  V30 28205 C 2661.51 1.8968 -1.36176 0
M  V30 28206 C 2662.49 1.68537 -0.23004 0
M  V30 28207 O 2663.68 1.89363 -0.430723 0
M  V30 28208 C 2660.81 3.26993 -1.17016 0
M  V30 28209 C 2659.76 3.62704 -2.27222 0
M  V30 28210 C 2659.09 4.98582 -1.93183 0
M  V30 28211 C 2660.39 3.69228 -3.69416 0
M  V30 28212 H 2662.08 1.91074 -2.30502 0
M  V30 28213 H 2659.63 0.917882 -1.10955 0
M  V30 28214 H 2661.58 4.05491 -1.14695 0
M  V30 28215 H 2660.3 3.26038 -0.191453 0
M  V30 28216 H 2658.96 2.86515 -2.28702 0
M  V30 28217 H 2658.61 4.9417 -0.938368 0
M  V30 28218 H 2658.31 5.23445 -2.66982 0
M  V30 28219 H 2659.83 5.79477 -1.92453 0
M  V30 28220 H 2661.25 4.37873 -3.70055 0
M  V30 28221 H 2659.64 4.05589 -4.42287 0
M  V30 28222 H 2660.71 2.69837 -4.02885 0
M  V30 28223 N 2662.06 1.22139 0.995977 0
M  V30 28224 C 2663.31 1.04409 1.73508 0
M  V30 28225 C 2663.63 -0.42121 1.89884 0
M  V30 28226 O 2662.89 -1.32865 1.43685 0
M  V30 28227 C 2663.19 1.69685 3.1455 0
M  V30 28228 C 2662.85 3.19571 3.18097 0
M  V30 28229 C 2661.52 3.60469 3.18772 0
M  V30 28230 C 2663.87 4.15522 3.14629 0
M  V30 28231 C 2661.2 4.95807 3.13676 0
M  V30 28232 C 2663.55 5.50832 3.11074 0
M  V30 28233 C 2662.21 5.91115 3.10063 0
M  V30 28234 H 2661.48 0.382061 0.63491 0
M  V30 28235 H 2664.13 1.51859 1.16667 0
M  V30 28236 H 2662.43 1.14553 3.7468 0
M  V30 28237 H 2664.13 1.5346 3.70474 0
M  V30 28238 H 2660.72 2.87003 3.18319 0
M  V30 28239 H 2664.9 3.84944 3.1326 0
M  V30 28240 H 2660.16 5.26253 3.11236 0
M  V30 28241 H 2664.33 6.24909 3.07346 0
M  V30 28242 H 2661.96 6.95951 3.05869 0
M  V30 28243 N 2663.54 -1.19233 1.03059 0
M  V30 28244 C 2664.95 -1.40988 0.747971 0
M  V30 28245 C 2665.15 -1.9015 -0.666719 0
M  V30 28246 O 2664.21 -2.07935 -1.43245 0
M  V30 28247 C 2665.52 -2.41948 1.78554 0
M  V30 28248 C 2667.07 -2.55692 1.80528 0
M  V30 28249 C 2667.54 -3.59908 2.83249 0
M  V30 28250 N 2669.04 -3.67406 2.82077 0
M  V30 28251 C 2669.77 -4.47741 3.58211 0
M  V30 28252 N 2669.27 -5.31767 4.44067 0
M  V30 28253 N 2671.06 -4.42407 3.46746 0
M  V30 28254 H 2663.21 -0.856434 1.94368 0
M  V30 28255 H 2665.47 -0.438633 0.84042 0
M  V30 28256 H 2665.18 -2.12852 2.79976 0
M  V30 28257 H 2665.05 -3.41149 1.60926 0
M  V30 28258 H 2667.44 -2.8411 0.79783 0
M  V30 28259 H 2667.52 -1.56639 2.02232 0
M  V30 28260 H 2667.17 -3.32232 3.84167 0
M  V30 28261 H 2667.1 -4.58616 2.58803 0
M  V30 28262 H 2669.59 -3.07396 2.19809 0
M  V30 28263 H 2669.9 -5.9019 4.98895 0
M  V30 28264 H 2668.24 -5.31222 4.48138 0
M  V30 28265 H 2671.44 -3.75806 2.79084 0
M  V30 28266 H 2671.61 -5.04776 4.06331 0
M  V30 28267 N 2665.01 -0.808686 -1.3527 0
M  V30 28268 C 2666.26 -0.390616 -1.99003 0
M  V30 28269 C 2666.59 1.04007 -1.64001 0
M  V30 28270 O 2665.87 1.72194 -0.904398 0
M  V30 28271 C 2666.15 -0.576629 -3.55453 0
M  V30 28272 C 2666 -2.0524 -4.00246 0
M  V30 28273 C 2667.32 -0.00362013 -4.401 0
M  V30 28274 H 2664.44 -0.143401 -0.722914 0
M  V30 28275 H 2667.08 -1.01861 -1.60388 0
M  V30 28276 H 2665.23 -0.0420449 -3.88477 0
M  V30 28277 H 2666.91 -2.64952 -3.77621 0
M  V30 28278 H 2665.15 -2.54807 -3.51078 0
M  V30 28279 H 2665.82 -2.13342 -5.09106 0
M  V30 28280 H 2668.3 -0.460189 -4.13547 0
M  V30 28281 H 2667.17 -0.163672 -5.48656 0
M  V30 28282 H 2667.43 1.09025 -4.28446 0
M  V30 28283 N 2666.49 1.47225 -0.562374 0
M  V30 28284 C 2667.72 2.07355 -0.0432997 0
M  V30 28285 C 2668.14 1.41151 1.2433 0
M  V30 28286 O 2667.5 0.488257 1.74602 0
M  V30 28287 C 2667.55 3.60365 0.130224 0
M  V30 28288 O 2666.65 3.9481 1.1916 0
M  V30 28289 H 2665.99 0.661829 -0.0536451 0
M  V30 28290 H 2668.52 1.89168 -0.779528 0
M  V30 28291 H 2668.53 4.06557 0.342809 0
M  V30 28292 H 2667.21 4.07947 -0.809461 0
M  V30 28293 H 2665.79 3.60355 0.95909 0
M  V30 28294 N 2667.97 0.299089 1.54736 0
M  V30 28295 C 2669.2 -0.313411 2.04512 0
M  V30 28296 C 2669.61 -1.47665 1.17646 0
M  V30 28297 O 2668.97 -1.81382 0.201672 0
M  V30 28298 C 2669.02 -0.77148 3.53172 0
M  V30 28299 O 2668.74 0.345456 4.36736 0
M  V30 28300 C 2670.24 -1.44933 4.18938 0
M  V30 28301 H 2667.46 -0.0683666 0.667508 0
M  V30 28302 H 2670.01 0.438164 1.99751 0
M  V30 28303 H 2668.16 -1.47308 3.583 0
M  V30 28304 H 2668.58 -0.0108297 5.24499 0
M  V30 28305 H 2670.05 -1.72102 5.24485 0
M  V30 28306 H 2670.53 -2.38876 3.68558 0
M  V30 28307 H 2671.13 -0.790955 4.1788 0
M  V30 28308 N 2669.45 -1.57577 0.0267774 0
M  V30 28309 C 2670.7 -1.91325 -0.651082 0
M  V30 28310 C 2671.02 -0.90356 -1.72803 0
M  V30 28311 O 2670.29 0.0552602 -1.95822 0
M  V30 28312 H 2668.87 -0.706206 -0.243479 0
M  V30 28313 H 2671.53 -1.94759 0.0740277 0
M  V30 28314 H 2670.63 -2.91872 -1.10531 0
M  V30 28315 N 2670.93 0.246342 -1.55663 0
M  V30 28316 C 2672.2 0.997169 -1.68273 0
M  V30 28317 C 2672.58 2.03348 -0.566821 0
M  V30 28318 O 2671.93 2.24424 0.429648 0
M  V30 28319 C 2672.14 1.63001 -3.08597 0
M  V30 28320 C 2673.49 2.13165 -3.67214 0
M  V30 28321 O 2674.51 1.7294 -3.114 0
M  V30 28322 O 2673.37 2.87023 -4.65059 0
M  V30 28323 H 2670.47 0.464193 -0.684437 0
M  V30 28324 H 2673.01 0.240085 -1.67993 0
M  V30 28325 H 2671.78 0.88046 -3.81266 0
M  V30 28326 H 2671.41 2.45328 -3.1289 0
M  V30 28327 N 2672.4 1.4905 0.512027 0
M  V30 28328 C 2673.35 1.65376 1.63566 0
M  V30 28329 C 2674.35 0.519834 1.61227 0
M  V30 28330 O 2675.55 0.69913 1.65868 0
M  V30 28331 H 2671.93 0.521276 0.54201 0
M  V30 28332 H 2673.9 2.59711 1.46945 0
M  V30 28333 C 2672.65 1.72735 3.01758 0
M  V30 28334 H 2671.97 2.59358 3.04259 0
M  V30 28335 H 2673.41 1.88196 3.79945 0
M  V30 28336 C 2671.87 0.469789 3.33608 0
M  V30 28337 O 2672.4 -0.409421 3.99608 0
M  V30 28338 N 2670.61 0.336053 2.8865 0
M  V30 28339 H 2670.15 1.05251 2.35117 0
M  V30 28340 H 2670.11 -0.504309 3.10329 0
M  V30 28341 N 2673.88 -0.762259 1.3794 0
M  V30 28342 C 2675.13 -1.52251 1.34875 0
M  V30 28343 C 2675.48 -1.92295 -0.0635634 0
M  V30 28344 O 2674.78 -1.61921 -1.02431 0
M  V30 28345 C 2674.97 -2.79257 2.23047 0
M  V30 28346 C 2674.8 -2.51628 3.72711 0
M  V30 28347 C 2673.57 -2.45281 4.41775 0
M  V30 28348 C 2675.77 -2.18986 4.65349 0
M  V30 28349 N 2673.75 -2.09836 5.76925 0
M  V30 28350 C 2675.12 -1.93759 5.88946 0
M  V30 28351 C 2677.18 -2.05222 4.53639 0
M  V30 28352 C 2675.88 -1.56158 7.02145 0
M  V30 28353 C 2677.9 -1.69021 5.66733 0
M  V30 28354 C 2677.27 -1.44661 6.89386 0
M  V30 28355 H 2673.37 -0.557057 0.548828 0
M  V30 28356 H 2675.95 -0.888428 1.73249 0
M  V30 28357 H 2674.12 -3.40488 1.86876 0
M  V30 28358 H 2675.85 -3.45237 2.11172 0
M  V30 28359 H 2672.61 -2.61458 3.94888 0
M  V30 28360 H 2673.03 -1.94783 6.48374 0
M  V30 28361 H 2677.67 -2.22734 3.59374 0
M  V30 28362 H 2675.39 -1.37385 7.96336 0
M  V30 28363 H 2678.98 -1.59016 5.59647 0
M  V30 28364 H 2677.86 -1.17065 7.75413 0
M  V30 28365 N 2675.36 -1.22666 -0.989486 0
M  V30 28366 C 2676.31 -0.997072 -2.10146 0
M  V30 28367 C 2677.3 0.0609485 -1.6929 0
M  V30 28368 O 2678.51 -0.0917839 -1.79766 0
M  V30 28369 H 2674.88 -0.305271 -0.687251 0
M  V30 28370 H 2676.85 -1.94057 -2.26681 0
M  V30 28371 C 2675.6 -0.595145 -3.42569 0
M  V30 28372 H 2674.93 -1.40096 -3.74451 0
M  V30 28373 H 2676.37 -0.473943 -4.21343 0
M  V30 28374 C 2674.83 0.695667 -3.29639 0
M  V30 28375 O 2675.36 1.74721 -3.61712 0
M  V30 28376 N 2673.56 0.668123 -2.82815 0
M  V30 28377 H 2673.11 -0.187915 -2.56914 0
M  V30 28378 H 2673.07 1.53205 -2.74546 0
M  V30 28379 N 2676.84 1.18685 -1.0369 0
M  V30 28380 C 2678.09 1.88198 -0.736605 0
M  V30 28381 C 2678.41 1.8051 0.737633 0
M  V30 28382 O 2677.68 1.22091 1.53201 0
M  V30 28383 H 2676.26 0.6967 -0.269479 0
M  V30 28384 H 2678.92 1.4405 -1.31285 0
M  V30 28385 H 2678.02 2.9433 -1.03807 0
M  V30 28386 N 2678.32 0.815849 1.34839 0
M  V30 28387 C 2679.57 0.397011 1.97754 0
M  V30 28388 C 2679.88 -1.04376 1.65424 0
M  V30 28389 O 2681.09 -1.56616 2.21774 0
M  V30 28390 C 2679.54 0.658931 3.53816 0
M  V30 28391 C 2679.15 2.11285 3.95047 0
M  V30 28392 C 2680.89 0.305909 4.23396 0
M  V30 28393 C 2678.8 2.32004 5.43993 0
M  V30 28394 H 2677.73 0.144713 0.739982 0
M  V30 28395 H 2680.38 1.00121 1.53779 0
M  V30 28396 H 2678.76 -0.0153416 3.95997 0
M  V30 28397 H 2679.94 2.8257 3.63993 0
M  V30 28398 H 2678.25 2.42663 3.38384 0
M  V30 28399 H 2680.85 0.438633 5.32898 0
M  V30 28400 H 2681.19 -0.74888 4.09509 0
M  V30 28401 H 2681.73 0.934471 3.86668 0
M  V30 28402 H 2678.46 3.35962 5.62859 0
M  V30 28403 H 2677.98 1.65254 5.76586 0
M  V30 28404 H 2679.66 2.14012 6.1058 0
M  V30 28405 N 2679.8 -1.46924 0.570174 0
M  V30 28406 C 2680.73 -2.27153 -0.218322 0
M  V30 28407 C 2681.71 -1.34856 -0.908447 0
M  V30 28408 O 2682.89 -1.64252 -0.924846 0
M  V30 28409 C 2680.02 -3.1225 -1.31215 0
M  V30 28410 C 2679.06 -4.2022 -0.729203 0
M  V30 28411 S 2679.9 -5.33736 0.434253 0
M  V30 28412 C 2681.05 -6.22399 -0.661078 0
M  V30 28413 H 2681.29 -2.93681 0.462444 0
M  V30 28414 H 2678.82 -1.50221 0.356779 0
M  V30 28415 H 2680.78 -3.61846 -1.9385 0
M  V30 28416 H 2679.44 -2.45059 -1.96481 0
M  V30 28417 H 2678.63 -4.79541 -1.55101 0
M  V30 28418 H 2678.23 -3.73572 -0.178771 0
M  V30 28419 H 2680.52 -6.59532 -1.54994 0
M  V30 28420 H 2681.47 -7.08022 -0.104921 0
M  V30 28421 H 2681.88 -5.56284 -0.959584 0
M  V30 28422 N 2681.27 -0.307291 -1.54575 0
M  V30 28423 C 2682.22 0.566001 -2.23752 0
M  V30 28424 C 2683.19 1.1246 -1.22237 0
M  V30 28425 O 2684.38 1.16796 -1.50875 0
M  V30 28426 C 2681.52 1.72897 -2.98665 0
M  V30 28427 C 2680.63 1.20117 -4.14965 0
M  V30 28428 C 2679.76 2.32851 -4.77445 0
M  V30 28429 C 2678.8 1.77236 -5.85879 0
M  V30 28430 N 2677.94 2.83569 -6.42287 0
M  V30 28431 H 2682.78 -0.0305102 -2.97984 0
M  V30 28432 H 2680.32 -0.0268273 -1.47076 0
M  V30 28433 H 2682.27 2.41307 -3.40333 0
M  V30 28434 H 2680.9 2.29702 -2.26797 0
M  V30 28435 H 2679.96 0.409132 -3.78193 0
M  V30 28436 H 2681.27 0.754084 -4.93067 0
M  V30 28437 H 2680.42 3.09196 -5.21999 0
M  V30 28438 H 2679.16 2.80889 -3.98689 0
M  V30 28439 H 2678.17 0.993831 -5.40743 0
M  V30 28440 H 2679.39 1.30095 -6.66522 0
M  V30 28441 H 2677.34 3.30929 -5.66412 0
M  V30 28442 H 2677.25 2.43375 -7.15755 0
M  V30 28443 H 2678.52 3.59792 -6.91498 0
M  V30 28444 N 2682.75 1.57561 -0.0351337 0
M  V30 28445 C 2684.03 1.83356 0.68118 0
M  V30 28446 C 2684.41 0.920286 1.89984 0
M  V30 28447 O 2683.76 -0.0226414 2.28489 0
M  V30 28448 C 2683.97 3.32713 1.0537 0
M  V30 28449 C 2685.31 3.99335 1.44279 0
M  V30 28450 O 2686.34 3.37244 1.14651 0
M  V30 28451 O 2685.2 5.08781 1.99509 0
M  V30 28452 H 2682.29 0.756232 0.334728 0
M  V30 28453 H 2684.84 1.69582 -0.0632746 0
M  V30 28454 H 2683.61 3.90855 0.1866 0
M  V30 28455 H 2683.23 3.51616 1.85612 0
M  V30 28456 N 2684.23 -0.238084 1.55791 0
M  V30 28457 C 2685.46 -0.982201 1.821 0
M  V30 28458 C 2685.87 -1.78604 0.612057 0
M  V30 28459 O 2685.23 -1.77617 -0.41935 0
M  V30 28460 C 2685.28 -1.91303 3.06733 0
M  V30 28461 O 2685 -1.14171 4.22962 0
M  V30 28462 C 2686.5 -2.77241 3.45908 0
M  V30 28463 H 2683.72 -0.288625 0.605753 0
M  V30 28464 H 2686.27 -0.258305 2.02862 0
M  V30 28465 H 2684.42 -2.59109 2.87995 0
M  V30 28466 H 2684.84 -1.77211 4.93656 0
M  V30 28467 H 2686.31 -3.38287 4.36195 0
M  V30 28468 H 2686.79 -3.48802 2.66897 0
M  V30 28469 H 2687.39 -2.14874 3.67027 0
M  V30 28470 N 2685.71 -1.4932 -0.504115 0
M  V30 28471 C 2686.64 -1.6867 -1.6147 0
M  V30 28472 C 2687.62 -0.535407 -1.61454 0
M  V30 28473 O 2688.8 -0.770899 -1.78244 0
M  V30 28474 C 2685.93 -1.75033 -2.99968 0
M  V30 28475 C 2684.89 -2.89921 -3.14849 0
M  V30 28476 C 2684.21 -2.81395 -4.54666 0
M  V30 28477 C 2685.51 -4.30898 -2.95168 0
M  V30 28478 H 2687.21 -2.61651 -1.45531 0
M  V30 28479 H 2684.75 -1.25914 -0.698689 0
M  V30 28480 H 2686.71 -1.87157 -3.77558 0
M  V30 28481 H 2685.43 -0.786496 -3.16989 0
M  V30 28482 H 2684.09 -2.77395 -2.39682 0
M  V30 28483 H 2683.74 -1.82926 -4.68559 0
M  V30 28484 H 2683.44 -3.58503 -4.65564 0
M  V30 28485 H 2684.96 -2.95522 -5.34321 0
M  V30 28486 H 2686.38 -4.44122 -3.62531 0
M  V30 28487 H 2684.77 -5.09204 -3.1754 0
M  V30 28488 H 2685.84 -4.45559 -1.91324 0
M  V30 28489 N 2687.19 0.754933 -1.38342 0
M  V30 28490 C 2688.6 1.05781 -1.1951 0
M  V30 28491 C 2688.8 2.01454 -0.0428359 0
M  V30 28492 O 2687.86 2.44976 0.611817 0
M  V30 28493 C 2689.17 1.63919 -2.52094 0
M  V30 28494 C 2690.72 1.76096 -2.58765 0
M  V30 28495 C 2691.19 2.37645 -3.91521 0
M  V30 28496 N 2692.68 2.45078 -3.93054 0
M  V30 28497 C 2693.42 2.93593 -4.92535 0
M  V30 28498 N 2692.92 3.42154 -6.02414 0
M  V30 28499 N 2694.71 2.92621 -4.79926 0
M  V30 28500 H 2686.86 0.120019 -2.12061 0
M  V30 28501 H 2689.12 0.115874 -0.940892 0
M  V30 28502 H 2688.83 1.01087 -3.36859 0
M  V30 28503 H 2688.7 2.62998 -2.70392 0
M  V30 28504 H 2691.09 2.38055 -1.74395 0
M  V30 28505 H 2691.17 0.757251 -2.44335 0
M  V30 28506 H 2690.81 1.7632 -4.76312 0
M  V30 28507 H 2690.74 3.38655 -4.03262 0
M  V30 28508 H 2693.24 2.10731 -3.13689 0
M  V30 28509 H 2693.55 3.77625 -6.74255 0
M  V30 28510 H 2691.89 3.40215 -6.06036 0
M  V30 28511 H 2695.08 2.53994 -3.93198 0
M  V30 28512 H 2695.26 3.30118 -5.57607 0
M  V30 28513 N 2688.66 1.23189 0.982967 0
M  V30 28514 C 2689.57 1.02743 2.10905 0
M  V30 28515 C 2690.59 -0.0272883 1.73979 0
M  V30 28516 O 2691.77 0.167605 2.00701 0
M  V30 28517 C 2688.83 0.618364 3.41141 0
M  V30 28518 C 2687.89 1.74784 3.92109 0
M  V30 28519 C 2687.12 1.35819 5.16129 0
M  V30 28520 O 2687.35 0.241301 5.69889 0
M  V30 28521 O 2686.28 2.17834 5.61099 0
M  V30 28522 H 2690.11 1.97112 2.31042 0
M  V30 28523 H 2687.69 1.01871 1.09282 0
M  V30 28524 H 2689.57 0.401056 4.19487 0
M  V30 28525 H 2688.25 -0.296364 3.2234 0
M  V30 28526 H 2687.16 2.01976 3.14891 0
M  V30 28527 H 2688.49 2.64079 4.15359 0
M  V30 28528 N 2690.14 -1.18133 1.04318 0
M  V30 28529 C 2691.38 -1.89867 0.756971 0
M  V30 28530 C 2691.75 -1.78684 -0.702577 0
M  V30 28531 O 2692.95 -2.4515 -1.1025 0
M  V30 28532 C 2691.22 -3.36174 1.21333 0
M  V30 28533 S 2692.78 -4.25974 1.05315 0
M  V30 28534 H 2689.59 -0.6556 0.275155 0
M  V30 28535 H 2692.2 -1.42729 1.33599 0
M  V30 28536 H 2690.9 -3.41844 2.27092 0
M  V30 28537 H 2690.43 -3.88352 0.628206 0
M  V30 28538 H 2692.45 -4.96192 -0.0279221 0
M  V30 28539 N 2691.62 -0.822988 -1.34405 0
M  V30 28540 C 2692.85 -0.42307 -2.03039 0
M  V30 28541 C 2693.27 0.963168 -1.61569 0
M  V30 28542 O 2692.63 1.62677 -0.800367 0
M  V30 28543 C 2692.68 -0.533272 -3.56635 0
M  V30 28544 O 2691.78 0.446867 -4.09972 0
M  V30 28545 H 2691.12 -0.174183 -0.640747 0
M  V30 28546 H 2693.65 -1.11342 -1.71651 0
M  V30 28547 H 2693.66 -0.409062 -4.05944 0
M  V30 28548 H 2692.34 -1.54432 -3.86165 0
M  V30 28549 H 2690.91 0.281536 -3.71836 0
M  V30 28550 N 2693.1 1.4662 -0.577957 0
M  V30 28551 C 2694.51 1.57796 -0.239269 0
M  V30 28552 C 2694.71 1.57374 1.2584 0
M  V30 28553 O 2693.77 1.48817 2.03985 0
M  V30 28554 C 2695.08 2.87404 -0.884277 0
M  V30 28555 C 2696.63 3.01027 -0.857426 0
M  V30 28556 C 2697.11 4.33364 -1.48189 0
M  V30 28557 N 2698.6 4.40051 -1.44601 0
M  V30 28558 C 2699.33 5.41055 -1.89862 0
M  V30 28559 N 2698.83 6.48758 -2.43073 0
M  V30 28560 N 2700.62 5.32227 -1.80807 0
M  V30 28561 H 2692.77 1.45139 -1.55076 0
M  V30 28562 H 2695.04 0.692033 -0.647916 0
M  V30 28563 H 2694.74 2.9351 -1.93764 0
M  V30 28564 H 2694.62 3.75182 -0.389651 0
M  V30 28565 H 2697 2.94505 0.187305 0
M  V30 28566 H 2697.08 2.14737 -1.39002 0
M  V30 28567 H 2696.73 4.40643 -2.52579 0
M  V30 28568 H 2696.66 5.1842 -0.924555 0
M  V30 28569 H 2699.15 3.62817 -1.057 0
M  V30 28570 H 2699.46 7.22033 -2.75479 0
M  V30 28571 H 2697.81 6.49591 -2.47096 0
M  V30 28572 H 2701 4.46987 -1.38997 0
M  V30 28573 H 2701.17 6.108 -2.16396 0
M  V30 28574 N 2694.58 0.315484 1.5441 0
M  V30 28575 C 2695.49 -0.56325 2.27738 0
M  V30 28576 C 2696.5 -1.13611 1.31789 0
M  V30 28577 O 2697.68 -1.15781 1.64793 0
M  V30 28578 C 2694.74 -1.71202 3.01481 0
M  V30 28579 C 2693.8 -1.17177 4.12999 0
M  V30 28580 C 2693.04 -2.26579 4.83216 0
M  V30 28581 O 2693.26 -3.46767 4.5289 0
M  V30 28582 O 2692.19 -1.92453 5.70303 0
M  V30 28583 H 2696.02 0.0320147 3.03683 0
M  V30 28584 H 2693.61 0.081445 1.49178 0
M  V30 28585 H 2695.49 -2.381 3.47687 0
M  V30 28586 H 2694.16 -2.29362 2.28418 0
M  V30 28587 H 2693.07 -0.468109 3.7116 0
M  V30 28588 H 2694.4 -0.635415 4.88081 0
M  V30 28589 N 2696.05 -1.5754 0.0434891 0
M  V30 28590 C 2697.33 -1.83714 -0.671447 0
M  V30 28591 C 2697.71 -0.930348 -1.89493 0
M  V30 28592 O 2697.06 0.0105237 -2.28498 0
M  V30 28593 C 2697.27 -3.33268 -1.03604 0
M  V30 28594 C 2698.62 -4.00095 -1.4216 0
M  V30 28595 O 2699.64 -3.37848 -1.1286 0
M  V30 28596 O 2698.5 -5.09832 -1.96808 0
M  V30 28597 H 2695.59 -0.757996 -0.330713 0
M  V30 28598 H 2698.14 -1.69546 0.0722671 0
M  V30 28599 H 2696.91 -3.90948 -0.165869 0
M  V30 28600 H 2696.54 -3.52595 -1.83745 0
M  V30 28601 N 2697.53 0.229818 -1.55915 0
M  V30 28602 C 2698.48 1.28474 -1.91737 0
M  V30 28603 C 2699.45 1.46987 -0.773565 0
M  V30 28604 O 2700.63 1.60691 -1.02874 0
M  V30 28605 C 2697.77 2.63178 -2.23229 0
M  V30 28606 C 2696.89 2.52533 -3.50501 0
M  V30 28607 C 2696.02 3.79705 -3.71481 0
M  V30 28608 C 2695.06 3.63747 -4.92295 0
M  V30 28609 N 2694.2 4.82849 -5.09707 0
M  V30 28610 H 2699.04 0.972258 -2.81693 0
M  V30 28611 H 2696.58 0.468791 -1.3943 0
M  V30 28612 H 2698.53 3.4161 -2.39496 0
M  V30 28613 H 2697.16 2.9254 -1.36456 0
M  V30 28614 H 2696.22 1.65579 -3.42473 0
M  V30 28615 H 2697.53 2.36658 -4.39083 0
M  V30 28616 H 2696.68 4.6658 -3.87799 0
M  V30 28617 H 2695.42 3.98495 -2.81164 0
M  V30 28618 H 2694.43 2.75256 -4.75935 0
M  V30 28619 H 2695.65 3.46435 -5.84089 0
M  V30 28620 H 2693.6 5.01969 -4.22331 0
M  V30 28621 H 2693.51 4.6967 -5.92407 0
M  V30 28622 H 2694.78 5.71174 -5.30453 0
M  V30 28623 N 2699.01 1.49585 0.49619 0
M  V30 28624 C 2699.96 1.63001 1.59419 0
M  V30 28625 C 2700.94 0.485484 1.53401 0
M  V30 28626 O 2702.14 0.738677 1.6085 0
M  V30 28627 C 2699.27 1.70432 2.98006 0
M  V30 28628 C 2698.35 2.90479 3.09003 0
M  V30 28629 N 2698.74 4.14494 2.89876 0
M  V30 28630 C 2697.04 2.88516 3.4011 0
M  V30 28631 C 2697.74 4.95216 3.05182 0
M  V30 28632 N 2696.72 4.28676 3.34273 0
M  V30 28633 H 2700.52 2.56602 1.43293 0
M  V30 28634 H 2698.03 1.46424 0.702417 0
M  V30 28635 H 2700.03 1.78142 3.76923 0
M  V30 28636 H 2698.69 0.779725 3.15199 0
M  V30 28637 H 2699.7 4.44396 2.65955 0
M  V30 28638 H 2696.38 2.05454 3.63449 0
M  V30 28639 H 2697.77 6.03751 2.94846 0
M  V30 28640 N 2700.49 -0.747586 1.3874 0
M  V30 28641 C 2701.73 -1.51964 1.36698 0
M  V30 28642 C 2702.09 -1.91956 -0.0411551 0
M  V30 28643 O 2703.29 -2.68152 -0.186496 0
M  V30 28644 C 2701.56 -2.73455 2.30124 0
M  V30 28645 S 2703.12 -3.63253 2.46156 0
M  V30 28646 H 2699.94 -0.519958 0.484938 0
M  V30 28647 H 2702.54 -0.877074 1.74722 0
M  V30 28648 H 2701.25 -2.42194 3.31316 0
M  V30 28649 H 2700.78 -3.42651 1.93271 0
M  V30 28650 H 2702.79 -4.6653 1.6901 0
M  V30 28651 N 2701.97 -1.23709 -0.97642 0
M  V30 28652 C 2702.9 -1.04627 -2.08747 0
M  V30 28653 C 2703.88 0.0380657 -1.70057 0
M  V30 28654 O 2705.06 -0.127342 -1.93782 0
M  V30 28655 C 2702.19 -0.640962 -3.41334 0
M  V30 28656 C 2701.15 -1.67309 -3.93944 0
M  V30 28657 C 2700.47 -1.1231 -5.22772 0
M  V30 28658 C 2701.77 -3.06705 -4.22764 0
M  V30 28659 H 2703.47 -1.97559 -2.24968 0
M  V30 28660 H 2701.01 -0.951266 -1.08106 0
M  V30 28661 H 2702.97 -0.494507 -4.18488 0
M  V30 28662 H 2701.69 0.324042 -3.24989 0
M  V30 28663 H 2700.35 -1.80761 -3.18937 0
M  V30 28664 H 2700 -0.148965 -5.02779 0
M  V30 28665 H 2699.7 -1.81277 -5.58939 0
M  V30 28666 H 2701.22 -0.988585 -6.02544 0
M  V30 28667 H 2702.63 -2.96532 -4.90654 0
M  V30 28668 H 2701.03 -3.72945 -4.7014 0
M  V30 28669 H 2702.1 -3.55398 -3.29879 0
M  V30 28670 N 2703.44 1.17579 -1.04943 0
M  V30 28671 C 2704.67 1.92243 -0.778287 0
M  V30 28672 C 2705.09 1.76153 0.659676 0
M  V30 28673 O 2704.45 1.07758 1.45801 0
M  V30 28674 C 2704.5 3.41414 -1.16057 0
M  V30 28675 O 2703.6 4.1137 -0.291225 0
M  V30 28676 H 2702.95 0.599426 -0.28563 0
M  V30 28677 H 2705.48 1.4905 -1.40162 0
M  V30 28678 H 2705.49 3.92147 -1.12626 0
M  V30 28679 H 2704.16 3.52445 -2.20806 0
M  V30 28680 H 2702.74 3.70898 -0.385916 0
M  V30 28681 N 2704.92 0.830104 1.33967 0
M  V30 28682 C 2706.15 0.434178 2.01986 0
M  V30 28683 C 2706.56 -0.966682 1.6264 0
M  V30 28684 O 2705.9 -1.6382 0.83118 0
M  V30 28685 C 2705.97 0.465081 3.56479 0
M  V30 28686 C 2705.63 1.82052 4.19173 0
M  V30 28687 C 2706.63 2.78245 4.39176 0
M  V30 28688 C 2704.31 2.11097 4.55789 0
M  V30 28689 C 2706.31 4.01651 4.9493 0
M  V30 28690 C 2703.99 3.34761 5.11252 0
M  V30 28691 C 2704.99 4.29854 5.30767 0
M  V30 28692 O 2704.68 5.51332 5.85054 0
M  V30 28693 H 2704.41 0.171651 0.653844 0
M  V30 28694 H 2706.96 1.12174 1.72064 0
M  V30 28695 H 2705.19 -0.279216 3.85691 0
M  V30 28696 H 2706.88 0.0882048 4.05804 0
M  V30 28697 H 2707.65 2.57104 4.11245 0
M  V30 28698 H 2703.53 1.37878 4.39899 0
M  V30 28699 H 2707.07 4.75885 5.10078 0
M  V30 28700 H 2702.97 3.55762 5.38613 0
M  V30 28701 H 2703.74 5.52951 6.0348 0
M  V30 28702 N 2706.4 -1.46311 0.585725 0
M  V30 28703 C 2707.33 -2.33118 -0.133516 0
M  V30 28704 C 2708.31 -1.45527 -0.880682 0
M  V30 28705 O 2709.5 -1.74339 -0.855548 0
M  V30 28706 C 2706.63 -3.27855 -1.14579 0
M  V30 28707 C 2705.58 -4.24911 -0.513266 0
M  V30 28708 C 2704.91 -5.09178 -1.63222 0
M  V30 28709 C 2706.21 -5.1938 0.551504 0
M  V30 28710 H 2707.9 -2.93504 0.591261 0
M  V30 28711 H 2705.45 -1.41136 0.285786 0
M  V30 28712 H 2707.4 -3.87441 -1.65734 0
M  V30 28713 H 2706.12 -2.65583 -1.90088 0
M  V30 28714 H 2704.78 -3.66593 -0.0227705 0
M  V30 28715 H 2704.43 -4.43289 -2.37706 0
M  V30 28716 H 2704.13 -5.74909 -1.21463 0
M  V30 28717 H 2705.66 -5.71628 -2.14648 0
M  V30 28718 H 2707.07 -5.73164 0.124905 0
M  V30 28719 H 2705.47 -5.9347 0.88959 0
M  V30 28720 H 2706.54 -4.6313 1.43663 0
M  V30 28721 N 2707.88 -0.323668 -1.54241 0
M  V30 28722 C 2709.29 0.164372 -1.85975 0
M  V30 28723 C 2709.64 1.51613 -1.24531 0
M  V30 28724 O 2708.77 2.09257 -0.551388 0
M  V30 28725 C 2709.36 0.305031 -3.37424 0
M  V30 28726 C 2707.92 0.737293 -3.69108 0
M  V30 28727 C 2707.07 -0.140933 -2.76942 0
M  V30 28728 H 2710.02 -0.543948 -1.49087 0
M  V30 28729 H 2710.04 1.13592 -3.63149 0
M  V30 28730 H 2709.55 -0.678943 -3.82115 0
M  V30 28731 H 2707.65 1.73101 -3.2995 0
M  V30 28732 H 2707.77 0.540969 -4.76036 0
M  V30 28733 H 2706.13 0.383527 -2.51796 0
M  V30 28734 H 2706.91 -1.12168 -3.24459 0
M  V30 28735 N 2709.36 1.57515 -0.0518432 0
M  V30 28736 C 2710.32 2.10468 0.90751 0
M  V30 28737 C 2711.32 1.02442 1.23945 0
M  V30 28738 O 2712.51 1.28512 1.17602 0
M  V30 28739 C 2709.64 2.58948 2.21718 0
M  V30 28740 H 2710.84 2.96528 0.448457 0
M  V30 28741 H 2708.39 1.55059 0.19657 0
M  V30 28742 H 2709.12 1.76283 2.72203 0
M  V30 28743 H 2708.91 3.3789 1.98929 0
M  V30 28744 H 2710.4 3.00061 2.90436 0
M  V30 28745 N 2710.84 -0.221546 1.56035 0
M  V30 28746 C 2711.77 -1.27776 1.95436 0
M  V30 28747 C 2712.75 -1.48887 0.82259 0
M  V30 28748 O 2713.93 -1.61071 1.08489 0
M  V30 28749 C 2711.06 -2.62755 2.27106 0
M  V30 28750 C 2710.02 -2.563 3.42774 0
M  V30 28751 C 2709.34 -3.95308 3.60049 0
M  V30 28752 C 2710.64 -2.11084 4.77745 0
M  V30 28753 H 2712.34 -0.950454 2.83913 0
M  V30 28754 H 2709.88 -0.455767 1.36597 0
M  V30 28755 H 2711.83 -3.36803 2.53262 0
M  V30 28756 H 2710.56 -2.97173 1.35483 0
M  V30 28757 H 2709.22 -1.84709 3.16667 0
M  V30 28758 H 2708.87 -4.27034 2.65802 0
M  V30 28759 H 2708.57 -3.91871 4.37848 0
M  V30 28760 H 2710.09 -4.71018 3.88554 0
M  V30 28761 H 2711.5 -2.74876 5.03106 0
M  V30 28762 H 2709.9 -2.18707 5.58827 0
M  V30 28763 H 2710.97 -1.06313 4.73102 0
M  V30 28764 N 2712.31 -1.49846 -0.48825 0
M  V30 28765 C 2713.54 -1.63973 -1.26994 0
M  V30 28766 C 2713.96 -0.316026 -1.85426 0
M  V30 28767 O 2713.32 0.718003 -1.66476 0
M  V30 28768 C 2713.37 -2.72053 -2.36684 0
M  V30 28769 O 2712.47 -2.32113 -3.40877 0
M  V30 28770 H 2711.81 -0.548403 -0.374367 0
M  V30 28771 H 2714.34 -1.96116 -0.58307 0
M  V30 28772 H 2714.35 -2.9461 -2.82257 0
M  V30 28773 H 2713.03 -3.68133 -1.93523 0
M  V30 28774 H 2711.61 -2.19936 -3.01135 0
M  V30 28775 N 2713.79 0.740218 -1.39135 0
M  V30 28776 C 2715.2 1.31823 -1.32211 0
M  V30 28777 C 2715.55 1.96194 0.0159574 0
M  V30 28778 O 2714.68 1.9596 0.918077 0
M  V30 28779 C 2715.27 2.39695 -2.3944 0
M  V30 28780 C 2713.83 2.93183 -2.36053 0
M  V30 28781 C 2712.98 1.66697 -2.21602 0
M  V30 28782 H 2715.93 0.538106 -1.49299 0
M  V30 28783 H 2715.95 3.19959 -2.05928 0
M  V30 28784 H 2715.46 1.92815 -3.36814 0
M  V30 28785 H 2713.56 3.44356 -1.42301 0
M  V30 28786 H 2713.68 3.46652 -3.3071 0
M  V30 28787 H 2712.04 1.90834 -1.68684 0
M  V30 28788 H 2712.82 1.21877 -3.20938 0
M  V30 28789 N 2715.27 1.24225 0.969846 0
M  V30 28790 C 2716.52 1.08226 1.71508 0
M  V30 28791 C 2716.85 -0.378346 1.90479 0
M  V30 28792 O 2716.12 -1.27969 1.46473 0
M  V30 28793 C 2716.41 1.82019 3.10711 0
M  V30 28794 C 2716.26 3.35817 2.99244 0
M  V30 28795 C 2717.58 1.59115 4.1033 0
M  V30 28796 H 2714.7 0.394554 0.622492 0
M  V30 28797 H 2717.34 1.52865 1.12837 0
M  V30 28798 H 2715.49 1.44075 3.60797 0
M  V30 28799 H 2717.16 3.83345 2.56601 0
M  V30 28800 H 2715.4 3.64307 2.35505 0
M  V30 28801 H 2716.08 3.82648 3.9785 0
M  V30 28802 H 2718.55 1.92118 3.69093 0
M  V30 28803 H 2717.43 2.13207 5.058 0
M  V30 28804 H 2717.69 0.52891 4.38925 0
M  V30 28805 N 2716.75 -1.1702 1.05565 0
M  V30 28806 C 2717.98 -1.91009 0.78734 0
M  V30 28807 C 2718.39 -1.77269 -0.661224 0
M  V30 28808 O 2717.73 -1.10994 -1.46377 0
M  V30 28809 C 2717.79 -3.42476 1.09319 0
M  V30 28810 C 2717.45 -3.79999 2.53869 0
M  V30 28811 C 2718.45 -3.82532 3.52087 0
M  V30 28812 C 2716.14 -4.1085 2.88977 0
M  V30 28813 C 2718.13 -4.1539 4.83456 0
M  V30 28814 C 2715.82 -4.43377 4.20548 0
M  V30 28815 C 2716.82 -4.45625 5.17597 0
M  V30 28816 O 2716.5 -4.77384 6.46807 0
M  V30 28817 H 2716.24 -0.612765 0.285474 0
M  V30 28818 H 2718.79 -1.49308 1.41054 0
M  V30 28819 H 2717.02 -3.84489 0.4129 0
M  V30 28820 H 2718.71 -3.9773 0.810294 0
M  V30 28821 H 2719.47 -3.58817 3.26305 0
M  V30 28822 H 2715.35 -4.08269 2.14098 0
M  V30 28823 H 2718.9 -4.17061 5.59201 0
M  V30 28824 H 2714.79 -4.66555 4.46091 0
M  V30 28825 H 2715.56 -4.95226 6.51685 0
M  V30 28826 N 2718.23 -0.837197 -1.33524 0
M  V30 28827 C 2719.47 -0.432099 -1.97836 0
M  V30 28828 C 2719.8 1.00826 -1.66326 0
M  V30 28829 O 2719.06 1.71946 -0.93451 0
M  V30 28830 C 2719.35 -0.597737 -3.52366 0
M  V30 28831 C 2719.02 -2.00595 -4.03823 0
M  V30 28832 C 2717.68 -2.39114 -4.17586 0
M  V30 28833 C 2720.03 -2.92584 -4.31328 0
M  V30 28834 C 2717.36 -3.68929 -4.56189 0
M  V30 28835 C 2719.71 -4.21879 -4.71382 0
M  V30 28836 C 2718.38 -4.60356 -4.83352 0
M  V30 28837 H 2717.65 -0.158116 -0.723934 0
M  V30 28838 H 2720.3 -1.0639 -1.59228 0
M  V30 28839 H 2718.6 0.117383 -3.91624 0
M  V30 28840 H 2720.3 -0.264611 -4.00126 0
M  V30 28841 H 2716.89 -1.69678 -3.93583 0
M  V30 28842 H 2721.07 -2.64063 -4.20219 0
M  V30 28843 H 2716.33 -3.98548 -4.63648 0
M  V30 28844 H 2720.5 -4.93235 -4.91622 0
M  V30 28845 H 2718.13 -5.60994 -5.13021 0
M  V30 28846 N 2719.7 1.45999 -0.593476 0
M  V30 28847 C 2720.95 2.02629 -0.0833111 0
M  V30 28848 C 2721.28 1.46268 1.27747 0
M  V30 28849 O 2720.56 0.631898 1.83949 0
M  V30 28850 C 2720.84 3.60088 -0.0291389 0
M  V30 28851 C 2720.69 4.26811 -1.41958 0
M  V30 28852 C 2722.01 4.35032 0.665979 0
M  V30 28853 H 2719.13 0.736316 -0.031749 0
M  V30 28854 H 2721.77 1.74018 -0.762742 0
M  V30 28855 H 2719.92 3.84595 0.549464 0
M  V30 28856 H 2721.6 4.13535 -2.04418 0
M  V30 28857 H 2719.84 3.85757 -1.98429 0
M  V30 28858 H 2720.51 5.35637 -1.33405 0
M  V30 28859 H 2722.99 4.15735 0.174328 0
M  V30 28860 H 2721.86 5.44759 0.672945 0
M  V30 28861 H 2722.12 4.06872 1.72938 0
M  V30 28862 N 2721.18 0.331843 1.54067 0
M  V30 28863 C 2722.41 -0.26996 2.05131 0
M  V30 28864 C 2722.83 -1.45136 1.20752 0
M  V30 28865 O 2722.18 -1.80914 0.240101 0
M  V30 28866 C 2722.23 -0.696393 3.54729 0
M  V30 28867 O 2721.95 0.438017 4.35905 0
M  V30 28868 C 2723.46 -1.36014 4.21918 0
M  V30 28869 H 2720.68 -0.0541924 0.668808 0
M  V30 28870 H 2723.22 0.480435 1.98776 0
M  V30 28871 H 2721.37 -1.39675 3.61344 0
M  V30 28872 H 2721.79 0.100427 5.24404 0
M  V30 28873 H 2723.26 -1.60938 5.28018 0
M  V30 28874 H 2723.74 -2.31005 3.73542 0
M  V30 28875 H 2724.35 -0.702138 4.19464 0
M  V30 28876 N 2722.66 -1.57485 0.0601958 0
M  V30 28877 C 2723.91 -1.93045 -0.611561 0
M  V30 28878 C 2724.24 -0.939304 -1.70315 0
M  V30 28879 O 2723.49 0.0469616 -1.95644 0
M  V30 28880 C 2723.79 -3.35264 -1.23825 0
M  V30 28881 C 2723.46 -4.50067 -0.273958 0
M  V30 28882 C 2722.12 -4.81199 -0.00863935 0
M  V30 28883 C 2724.47 -5.19766 0.3864 0
M  V30 28884 C 2721.8 -5.79373 0.924319 0
M  V30 28885 C 2724.15 -6.18938 1.30761 0
M  V30 28886 C 2722.81 -6.48494 1.58151 0
M  V30 28887 H 2722.08 -0.7064 -0.223786 0
M  V30 28888 H 2724.73 -1.91068 0.1286 0
M  V30 28889 H 2723.04 -3.33651 -2.05388 0
M  V30 28890 H 2724.73 -3.60062 -1.76511 0
M  V30 28891 H 2721.32 -4.25779 -0.490933 0
M  V30 28892 H 2725.51 -4.95919 0.194523 0
M  V30 28893 H 2720.76 -6.00604 1.1439 0
M  V30 28894 H 2724.94 -6.72053 1.82531 0
M  V30 28895 H 2722.56 -7.24379 2.30605 0
M  V30 28896 N 2724.14 0.213268 -1.5615 0
M  V30 28897 C 2725.38 0.937817 -1.79813 0
M  V30 28898 C 2725.72 1.83655 -0.631234 0
M  V30 28899 O 2724.99 1.90965 0.369131 0
M  V30 28900 C 2725.28 1.76966 -3.13616 0
M  V30 28901 C 2725.13 0.896872 -4.40768 0
M  V30 28902 C 2726.45 2.74584 -3.43936 0
M  V30 28903 H 2723.57 0.339507 -0.654144 0
M  V30 28904 H 2726.21 0.206197 -1.88878 0
M  V30 28905 H 2724.36 2.39342 -3.06019 0
M  V30 28906 H 2726.03 0.289225 -4.60392 0
M  V30 28907 H 2724.27 0.20268 -4.33326 0
M  V30 28908 H 2724.94 1.51348 -5.30846 0
M  V30 28909 H 2727.42 2.22343 -3.51714 0
M  V30 28910 H 2726.3 3.29883 -4.38712 0
M  V30 28911 H 2726.56 3.52734 -2.66516 0
M  V30 28912 N 2725.62 1.50103 0.480296 0
M  V30 28913 C 2726.55 1.71218 1.58766 0
M  V30 28914 C 2727.53 0.561025 1.60582 0
M  V30 28915 O 2728.71 0.799158 1.76995 0
M  V30 28916 C 2725.84 1.79783 2.97145 0
M  V30 28917 C 2724.8 2.94894 3.10196 0
M  V30 28918 C 2724.12 2.88592 4.50132 0
M  V30 28919 C 2725.42 4.35539 2.88276 0
M  V30 28920 H 2727.12 2.63933 1.4135 0
M  V30 28921 H 2724.66 1.2701 0.678569 0
M  V30 28922 H 2726.62 1.9314 3.74533 0
M  V30 28923 H 2725.34 0.836827 3.15697 0
M  V30 28924 H 2724 2.81173 2.35239 0
M  V30 28925 H 2723.65 1.90357 4.65589 0
M  V30 28926 H 2723.35 3.65864 4.59801 0
M  V30 28927 H 2724.87 3.03985 5.29552 0
M  V30 28928 H 2726.28 4.49834 3.55419 0
M  V30 28929 H 2724.68 5.14191 3.09399 0
M  V30 28930 H 2725.75 4.48547 1.84211 0
M  V30 28931 N 2727.09 -0.732829 1.39526 0
M  V30 28932 C 2728.34 -1.49464 1.3707 0
M  V30 28933 C 2728.67 -1.94172 -0.0326825 0
M  V30 28934 O 2727.95 -1.66941 -0.998042 0
M  V30 28935 C 2728.23 -2.73281 2.34499 0
M  V30 28936 C 2728.08 -2.34578 3.83788 0
M  V30 28937 C 2729.4 -3.75387 2.29723 0
M  V30 28938 H 2726.52 -0.542174 0.499215 0
M  V30 28939 H 2729.16 -0.837753 1.70534 0
M  V30 28940 H 2727.31 -3.2933 2.06093 0
M  V30 28941 H 2728.99 -1.84143 4.22953 0
M  V30 28942 H 2727.23 -1.6678 4.00458 0
M  V30 28943 H 2727.9 -3.23254 4.47449 0
M  V30 28944 H 2730.38 -3.28927 2.54845 0
M  V30 28945 H 2729.25 -4.59684 2.9997 0
M  V30 28946 H 2729.51 -4.22463 1.30299 0
M  V30 28947 N 2728.57 -1.24737 -0.963244 0
M  V30 28948 C 2729.54 -1.0446 -2.04011 0
M  V30 28949 C 2730.54 -0.00036382 -1.608 0
M  V30 28950 O 2731.73 -0.241749 -1.72514 0
M  V30 28951 C 2728.86 -0.584221 -3.35857 0
M  V30 28952 H 2730.05 -2.00045 -2.23433 0
M  V30 28953 H 2727.6 -1.07023 -1.13912 0
M  V30 28954 H 2728.34 0.374616 -3.22129 0
M  V30 28955 H 2728.12 -1.33797 -3.68566 0
M  V30 28956 H 2729.61 -0.463524 -4.1502 0
M  V30 28957 N 2730.05 1.16459 -1.06184 0
M  V30 28958 C 2730.98 2.20382 -0.629623 0
M  V30 28959 C 2732 1.59786 0.311805 0
M  V30 28960 O 2733.18 1.78203 0.102968 0
M  V30 28961 C 2730.28 3.3876 0.0973099 0
M  V30 28962 C 2729.46 4.28916 -0.857327 0
M  V30 28963 C 2728.52 5.25926 -0.169841 0
M  V30 28964 O 2727.54 5.63448 -0.807143 0
M  V30 28965 N 2728.74 5.70194 1.08901 0
M  V30 28966 H 2731.51 2.58085 -1.52356 0
M  V30 28967 H 2729.07 1.31457 -0.945016 0
M  V30 28968 H 2731.06 4.007 0.567606 0
M  V30 28969 H 2729.63 2.99572 0.89304 0
M  V30 28970 H 2728.85 3.64256 -1.50702 0
M  V30 28971 H 2730.14 4.86033 -1.50498 0
M  V30 28972 H 2729.54 5.418 1.62694 0
M  V30 28973 H 2728.1 6.3423 1.5032 0
M  V30 28974 N 2731.53 0.844266 1.33079 0
M  V30 28975 C 2732.78 0.442585 1.97604 0
M  V30 28976 C 2733.1 -0.999429 1.66858 0
M  V30 28977 O 2732.36 -1.71448 0.943616 0
M  V30 28978 C 2732.66 0.616416 3.52044 0
M  V30 28979 C 2732.32 2.02733 4.02753 0
M  V30 28980 C 2730.99 2.41325 4.16312 0
M  V30 28981 C 2733.34 2.94867 4.29771 0
M  V30 28982 C 2730.67 3.71343 4.54226 0
M  V30 28983 C 2733.02 4.24372 4.69138 0
M  V30 28984 C 2731.68 4.62913 4.80903 0
M  V30 28985 H 2730.95 0.161953 0.723085 0
M  V30 28986 H 2733.6 1.07233 1.58661 0
M  V30 28987 H 2731.9 -0.0966124 3.91681 0
M  V30 28988 H 2733.6 0.285826 3.9998 0
M  V30 28989 H 2730.19 1.71763 3.92677 0
M  V30 28990 H 2734.37 2.66288 4.18813 0
M  V30 28991 H 2729.63 4.01001 4.61528 0
M  V30 28992 H 2733.8 4.95835 4.89 0
M  V30 28993 H 2731.43 5.63706 5.10038 0
M  V30 28994 N 2733.01 -1.45682 0.60121 0
M  V30 28995 C 2734.25 -2.02582 0.0940558 0
M  V30 28996 C 2734.59 -1.46944 -1.26969 0
M  V30 28997 O 2733.86 -0.641644 -1.83611 0
M  V30 28998 C 2734.14 -3.60068 0.0482348 0
M  V30 28999 C 2734 -4.26052 1.4422 0
M  V30 29000 C 2735.32 -4.35379 -0.642899 0
M  V30 29001 H 2732.43 -0.736137 0.0356534 0
M  V30 29002 H 2735.08 -1.73611 0.77196 0
M  V30 29003 H 2733.23 -3.84881 -0.52906 0
M  V30 29004 H 2734.9 -4.12445 2.06608 0
M  V30 29005 H 2733.14 -3.84699 2.00472 0
M  V30 29006 H 2733.81 -5.34922 1.36244 0
M  V30 29007 H 2736.29 -4.15821 -0.152278 0
M  V30 29008 H 2735.16 -5.45108 -0.644046 0
M  V30 29009 H 2735.43 -4.07783 -1.70778 0
M  V30 29010 N 2734.48 -0.340009 -1.53889 0
M  V30 29011 C 2735.41 0.510816 -2.27844 0
M  V30 29012 C 2736.4 1.1056 -1.29269 0
M  V30 29013 O 2737.58 1.12766 -1.58106 0
M  V30 29014 C 2734.71 1.66367 -3.0486 0
M  V30 29015 C 2733.66 1.19739 -4.10909 0
M  V30 29016 C 2732.99 2.43848 -4.75859 0
M  V30 29017 C 2734.29 0.30041 -5.21435 0
M  V30 29018 H 2735.98 -0.10612 -2.99212 0
M  V30 29019 H 2733.53 -0.0524786 -1.43904 0
M  V30 29020 H 2735.48 2.26531 -3.55333 0
M  V30 29021 H 2734.21 2.30745 -2.31137 0
M  V30 29022 H 2732.87 0.618591 -3.61343 0
M  V30 29023 H 2732.51 3.06626 -3.98735 0
M  V30 29024 H 2732.21 2.13333 -5.47506 0
M  V30 29025 H 2733.74 3.04744 -5.29115 0
M  V30 29026 H 2735.15 0.80879 -5.67566 0
M  V30 29027 H 2733.55 0.0873021 -6.00036 0
M  V30 29028 H 2734.62 -0.664406 -4.80327 0
M  V30 29029 N 2735.96 1.57451 -0.0685468 0
M  V30 29030 C 2737.21 1.93653 0.602205 0
M  V30 29031 C 2737.54 0.948556 1.69458 0
M  V30 29032 O 2736.82 -0.0227478 1.94487 0
M  V30 29033 C 2737.1 3.40142 1.18217 0
M  V30 29034 C 2736.95 4.49696 0.0966641 0
M  V30 29035 C 2738.27 3.8738 2.08865 0
M  V30 29036 H 2735.39 0.704194 0.217441 0
M  V30 29037 H 2738.03 1.89528 -0.133854 0
M  V30 29038 H 2736.18 3.43788 1.80947 0
M  V30 29039 H 2737.86 4.58173 -0.536236 0
M  V30 29040 H 2736.1 4.29997 -0.573139 0
M  V30 29041 H 2736.77 5.49325 0.542798 0
M  V30 29042 H 2739.25 3.8572 1.56074 0
M  V30 29043 H 2738.12 4.90497 2.46381 0
M  V30 29044 H 2738.38 3.25135 2.99566 0
M  V30 29045 N 2737.44 -0.204984 1.56261 0
M  V30 29046 C 2738.39 -1.27361 1.94633 0
M  V30 29047 C 2739.38 -1.47647 0.83046 0
M  V30 29048 O 2740.59 -1.48625 1.01541 0
M  V30 29049 H 2736.96 -0.42736 0.618763 0
M  V30 29050 H 2738.94 -0.922891 2.8377 0
M  V30 29051 C 2737.68 -2.6132 2.29362 0
M  V30 29052 H 2737.01 -2.46523 3.14748 0
M  V30 29053 H 2738.45 -3.34863 2.60082 0
M  V30 29054 C 2736.91 -3.17574 1.12466 0
M  V30 29055 O 2737.44 -3.99758 0.394478 0
M  V30 29056 N 2735.64 -2.76179 0.904085 0
M  V30 29057 H 2735.19 -2.09451 1.4996 0
M  V30 29058 H 2735.15 -3.14156 0.123718 0
M  V30 29059 N 2738.92 -1.50356 -0.472329 0
M  V30 29060 C 2740.17 -1.61522 -1.22632 0
M  V30 29061 C 2740.5 -0.314029 -1.91644 0
M  V30 29062 O 2739.77 0.684414 -1.8206 0
M  V30 29063 C 2740.06 -2.79464 -2.27094 0
M  V30 29064 C 2739.91 -4.19462 -1.62394 0
M  V30 29065 C 2741.23 -2.9297 -3.28415 0
M  V30 29066 H 2738.35 -0.587881 -0.444483 0
M  V30 29067 H 2740.99 -1.82738 -0.520289 0
M  V30 29068 H 2739.14 -2.61506 -2.87309 0
M  V30 29069 H 2740.81 -4.49007 -1.05786 0
M  V30 29070 H 2739.05 -4.23777 -0.927109 0
M  V30 29071 H 2739.73 -4.97913 -2.383 0
M  V30 29072 H 2742.2 -3.09406 -2.78221 0
M  V30 29073 H 2741.08 -3.7712 -3.98838 0
M  V30 29074 H 2741.34 -2.03532 -3.92463 0
M  V30 29075 N 2740.4 0.725419 -1.39912 0
M  V30 29076 C 2741.64 1.48735 -1.37861 0
M  V30 29077 C 2741.98 1.94187 0.0223846 0
M  V30 29078 O 2741.25 1.67468 0.989175 0
M  V30 29079 C 2741.53 2.72033 -2.35945 0
M  V30 29080 C 2741.39 2.32539 -3.85027 0
M  V30 29081 C 2742.71 3.74163 -2.31711 0
M  V30 29082 H 2739.83 0.539519 -0.502084 0
M  V30 29083 H 2742.47 0.828697 -1.70975 0
M  V30 29084 H 2740.62 3.28232 -2.07836 0
M  V30 29085 H 2742.29 1.81898 -4.23923 0
M  V30 29086 H 2740.53 1.64654 -4.01337 0
M  V30 29087 H 2741.2 3.20877 -4.49157 0
M  V30 29088 H 2743.68 3.27571 -2.56586 0
M  V30 29089 H 2742.56 4.58087 -3.02403 0
M  V30 29090 H 2742.82 4.21766 -1.32537 0
M  V30 29091 N 2741.88 1.25246 0.956615 0
M  V30 29092 C 2743.12 1.10039 1.7035 0
M  V30 29093 C 2743.45 -0.358122 1.90869 0
M  V30 29094 O 2742.73 -1.26408 1.47822 0
M  V30 29095 C 2743.01 1.85304 3.08763 0
M  V30 29096 C 2742.87 3.38972 2.95666 0
M  V30 29097 C 2744.18 1.63458 4.08619 0
M  V30 29098 H 2741.3 0.401134 0.618272 0
M  V30 29099 H 2743.95 1.54053 1.1121 0
M  V30 29100 H 2742.1 1.47893 3.59249 0
M  V30 29101 H 2743.77 3.86045 2.5252 0
M  V30 29102 H 2742.01 3.66785 2.31628 0
M  V30 29103 H 2742.68 3.86846 3.93769 0
M  V30 29104 H 2745.16 1.96022 3.67035 0
M  V30 29105 H 2744.03 2.1856 5.03511 0
M  V30 29106 H 2744.29 0.575434 4.38339 0
M  V30 29107 N 2743.35 -1.15894 1.068 0
M  V30 29108 C 2744.32 -2.1865 0.687366 0
M  V30 29109 C 2745.32 -1.58525 -0.269532 0
M  V30 29110 O 2746.51 -1.74125 -0.0512321 0
M  V30 29111 C 2743.64 -3.40898 0.0122241 0
M  V30 29112 H 2744.83 -2.53839 1.59705 0
M  V30 29113 H 2742.38 -1.30259 0.863851 0
M  V30 29114 H 2743.12 -3.11272 -0.90997 0
M  V30 29115 H 2742.9 -3.85794 0.700377 0
M  V30 29116 H 2744.39 -4.16912 -0.23963 0
M  V30 29117 N 2744.83 -0.851312 -1.32629 0
M  V30 29118 C 2746.08 -0.453729 -1.97659 0
M  V30 29119 C 2746.41 0.987366 -1.67227 0
M  V30 29120 O 2745.69 1.6923 -0.958722 0
M  V30 29121 C 2745.97 -0.689422 -3.53439 0
M  V30 29122 C 2745.82 -2.17869 -3.93514 0
M  V30 29123 C 2747.14 -0.143633 -4.39866 0
M  V30 29124 H 2744.26 -0.166327 -0.717986 0
M  V30 29125 H 2746.9 -1.06912 -1.57066 0
M  V30 29126 H 2745.05 -0.165615 -3.88147 0
M  V30 29127 H 2746.72 -2.76832 -3.69001 0
M  V30 29128 H 2744.97 -2.65847 -3.42794 0
M  V30 29129 H 2745.64 -2.29431 -5.02061 0
M  V30 29130 H 2748.11 -0.591523 -4.11874 0
M  V30 29131 H 2746.99 -0.33814 -5.47857 0
M  V30 29132 H 2747.25 0.95339 -4.31698 0
M  V30 29133 N 2746.31 1.45361 -0.608928 0
M  V30 29134 C 2747.24 2.33301 0.0964116 0
M  V30 29135 C 2748.22 1.46909 0.857418 0
M  V30 29136 O 2749.41 1.75678 0.827704 0
M  V30 29137 C 2746.54 3.29637 1.09348 0
M  V30 29138 C 2745.49 4.25674 0.445601 0
M  V30 29139 C 2744.82 5.11711 1.55101 0
M  V30 29140 C 2746.12 5.18437 -0.634063 0
M  V30 29141 H 2747.81 2.92526 -0.63788 0
M  V30 29142 H 2745.36 1.40663 -0.308203 0
M  V30 29143 H 2747.31 3.90028 1.59549 0
M  V30 29144 H 2746.03 2.68573 1.85839 0
M  V30 29145 H 2744.69 3.66583 -0.0355542 0
M  V30 29146 H 2744.34 4.47014 2.30623 0
M  V30 29147 H 2744.04 5.76769 1.12301 0
M  V30 29148 H 2745.56 5.74971 2.05527 0
M  V30 29149 H 2746.98 5.72893 -0.216074 0
M  V30 29150 H 2745.37 5.91979 -0.983893 0
M  V30 29151 H 2746.44 4.60785 -1.51013 0
M  V30 29152 N 2747.79 0.348166 1.53706 0
M  V30 29153 C 2748.72 -0.549628 2.21482 0
M  V30 29154 C 2749.7 -1.09669 1.20048 0
M  V30 29155 O 2750.88 -1.15609 1.48885 0
M  V30 29156 C 2748.01 -1.75659 2.89589 0
M  V30 29157 C 2747.06 -1.33857 4.0495 0
M  V30 29158 S 2747.89 -0.354483 5.34325 0
M  V30 29159 C 2749.04 -1.56817 6.05937 0
M  V30 29160 H 2749.28 0.0260278 2.97289 0
M  V30 29161 H 2746.81 0.132243 1.53833 0
M  V30 29162 H 2748.77 -2.449 3.29445 0
M  V30 29163 H 2747.43 -2.30347 2.13539 0
M  V30 29164 H 2746.62 -2.23861 4.51556 0
M  V30 29165 H 2746.22 -0.725586 3.66894 0
M  V30 29166 H 2748.52 -2.50194 6.2961 0
M  V30 29167 H 2749.46 -1.14382 6.98801 0
M  V30 29168 H 2749.87 -1.76632 5.36154 0
M  V30 29169 N 2749.27 -1.57412 0.0768958 0
M  V30 29170 C 2750.21 -2.13011 -0.88854 0
M  V30 29171 C 2751.18 -1.04392 -1.29196 0
M  V30 29172 O 2752.37 -1.32082 -1.37692 0
M  V30 29173 C 2749.51 -2.70027 -2.14894 0
M  V30 29174 C 2748.62 -3.92819 -1.7977 0
M  V30 29175 C 2747.76 -4.38061 -3.00459 0
M  V30 29176 C 2746.79 -5.53488 -2.61376 0
M  V30 29177 N 2745.93 -5.93666 -3.74841 0
M  V30 29178 H 2750.77 -2.952 -0.407542 0
M  V30 29179 H 2748.31 -1.45874 -0.189509 0
M  V30 29180 H 2750.27 -3.01195 -2.88682 0
M  V30 29181 H 2748.9 -1.90595 -2.60525 0
M  V30 29182 H 2747.95 -3.68081 -0.960237 0
M  V30 29183 H 2749.26 -4.76641 -1.47019 0
M  V30 29184 H 2748.41 -4.70917 -3.8252 0
M  V30 29185 H 2747.15 -3.53103 -3.36407 0
M  V30 29186 H 2746.16 -5.20278 -1.77737 0
M  V30 29187 H 2747.38 -6.40182 -2.26592 0
M  V30 29188 H 2745.33 -5.11656 -4.10541 0
M  V30 29189 H 2745.25 -6.7224 -3.45875 0
M  V30 29190 H 2746.51 -6.31146 -4.57466 0
M  V30 29191 N 2750.74 0.196695 -1.56368 0
M  V30 29192 C 2751.69 1.24784 -1.90822 0
M  V30 29193 C 2752.68 1.41074 -0.773744 0
M  V30 29194 O 2753.87 1.43472 -1.03657 0
M  V30 29195 C 2751 2.59299 -2.24986 0
M  V30 29196 C 2750.09 2.46808 -3.44887 0
M  V30 29197 N 2750.48 2.03995 -4.62839 0
M  V30 29198 C 2748.77 2.77705 -3.48993 0
M  V30 29199 C 2749.48 2.03356 -5.44997 0
M  V30 29200 N 2748.45 2.44798 -4.8536 0
M  V30 29201 H 2752.25 0.908126 -2.79518 0
M  V30 29202 H 2749.77 0.405139 -1.57265 0
M  V30 29203 H 2751.76 3.35222 -2.47854 0
M  V30 29204 H 2750.42 2.94095 -1.37616 0
M  V30 29205 H 2751.44 1.74729 -4.87535 0
M  V30 29206 H 2748.11 3.16708 -2.72034 0
M  V30 29207 H 2749.5 1.72169 -6.49467 0
M  V30 29208 N 2752.22 1.50604 0.464349 0
M  V30 29209 C 2753.15 1.72892 1.56941 0
M  V30 29210 C 2754.13 0.578025 1.59978 0
M  V30 29211 O 2755.32 0.817886 1.76137 0
M  V30 29212 C 2752.45 1.82925 2.95222 0
M  V30 29213 C 2751.4 2.98167 3.07051 0
M  V30 29214 C 2750.73 2.9335 4.47045 0
M  V30 29215 C 2752.03 4.38572 2.8364 0
M  V30 29216 H 2753.72 2.65417 1.38542 0
M  V30 29217 H 2751.27 1.27722 0.665059 0
M  V30 29218 H 2753.22 1.97101 3.72464 0
M  V30 29219 H 2751.95 0.870264 3.14792 0
M  V30 29220 H 2750.6 2.83652 2.32243 0
M  V30 29221 H 2750.25 1.95284 4.63544 0
M  V30 29222 H 2749.95 3.7072 4.55895 0
M  V30 29223 H 2751.48 3.09584 5.26298 0
M  V30 29224 H 2752.89 4.53578 3.50628 0
M  V30 29225 H 2751.29 5.17444 3.03928 0
M  V30 29226 H 2752.36 4.50475 1.79443 0
M  V30 29227 N 2753.7 -0.717989 1.40295 0
M  V30 29228 C 2754.61 -1.86224 1.42681 0
M  V30 29229 C 2755.63 -1.71038 0.319685 0
M  V30 29230 O 2756.8 -1.93345 0.563886 0
M  V30 29231 C 2753.87 -3.21997 1.28526 0
M  V30 29232 C 2752.93 -3.49454 2.4936 0
M  V30 29233 C 2752.16 -4.78749 2.35871 0
M  V30 29234 O 2752.38 -5.53673 1.37123 0
M  V30 29235 O 2751.32 -5.06488 3.25198 0
M  V30 29236 H 2755.14 -1.87167 2.3917 0
M  V30 29237 H 2752.73 -0.868091 1.21592 0
M  V30 29238 H 2754.61 -4.03101 1.22831 0
M  V30 29239 H 2753.29 -3.21787 0.351415 0
M  V30 29240 H 2752.19 -2.68368 2.60633 0
M  V30 29241 H 2753.53 -3.54458 3.41497 0
M  V30 29242 N 2755.18 -1.25752 -0.94996 0
M  V30 29243 C 2756.09 -1.08299 -2.08107 0
M  V30 29244 C 2757.1 -0.0188487 -1.7399 0
M  V30 29245 O 2758.28 -0.220759 -2.00186 0
M  V30 29246 C 2755.35 -0.708594 -3.39382 0
M  V30 29247 C 2754.41 -1.85118 -3.87337 0
M  V30 29248 C 2753.64 -1.49456 -5.12346 0
M  V30 29249 O 2753.86 -0.392312 -5.69049 0
M  V30 29250 O 2752.8 -2.32634 -5.55126 0
M  V30 29251 H 2756.62 -2.03169 -2.25735 0
M  V30 29252 H 2754.21 -1.04733 -1.06543 0
M  V30 29253 H 2756.09 -0.512134 -4.18276 0
M  V30 29254 H 2754.76 0.210797 -3.23013 0
M  V30 29255 H 2753.67 -2.10254 -3.09426 0
M  V30 29256 H 2755 -2.74998 -4.08212 0
M  V30 29257 N 2756.66 1.15326 -1.07413 0
M  V30 29258 C 2757.88 1.90549 -0.818889 0
M  V30 29259 C 2758.31 1.77513 0.622163 0
M  V30 29260 O 2757.66 1.10826 1.43482 0
M  V30 29261 C 2757.71 3.38875 -1.23273 0
M  V30 29262 O 2756.82 4.1066 -0.378418 0
M  V30 29263 H 2756.16 0.593233 -0.29828 0
M  V30 29264 H 2758.69 1.46043 -1.43292 0
M  V30 29265 H 2758.7 3.8967 -1.20919 0
M  V30 29266 H 2757.37 3.47682 -2.28232 0
M  V30 29267 H 2755.95 3.69996 -0.464502 0
M  V30 29268 N 2758.13 0.858334 1.32176 0
M  V30 29269 C 2759.08 0.294483 2.30728 0
M  V30 29270 C 2760.08 -0.584137 1.5901 0
M  V30 29271 O 2761.28 -0.471531 1.73714 0
M  V30 29272 H 2757.66 0.0765303 0.748096 0
M  V30 29273 H 2759.63 1.13985 2.75772 0
M  V30 29274 C 2758.38 -0.499147 3.44099 0
M  V30 29275 H 2757.7 0.167649 3.99448 0
M  V30 29276 H 2759.14 -0.8592 4.15203 0
M  V30 29277 C 2757.6 -1.68583 2.91687 0
M  V30 29278 O 2758.13 -2.78498 2.89486 0
M  V30 29279 N 2756.34 -1.51411 2.48039 0
M  V30 29280 H 2755.88 -0.619962 2.50028 0
M  V30 29281 H 2755.84 -2.30953 2.13326 0
M  V30 29282 N 2759.61 -1.45036 0.616628 0
M  V30 29283 C 2760.56 -2.30596 -0.0969034 0
M  V30 29284 C 2761.53 -1.42636 -0.851126 0
M  V30 29285 O 2762.71 -1.71556 -0.835062 0
M  V30 29286 C 2759.85 -3.2769 -1.08229 0
M  V30 29287 C 2758.97 -4.30753 -0.327996 0
M  V30 29288 C 2758.1 -5.14948 -1.3039 0
M  V30 29289 C 2757.14 -6.09732 -0.537942 0
M  V30 29290 N 2756.28 -6.86676 -1.46358 0
M  V30 29291 H 2761.12 -2.91075 0.638692 0
M  V30 29292 H 2758.66 -1.43425 0.326758 0
M  V30 29293 H 2760.61 -3.82457 -1.66682 0
M  V30 29294 H 2759.24 -2.68944 -1.78519 0
M  V30 29295 H 2758.3 -3.78575 0.372202 0
M  V30 29296 H 2759.61 -4.98073 0.26923 0
M  V30 29297 H 2758.76 -5.74161 -1.96022 0
M  V30 29298 H 2757.5 -4.47668 -1.93506 0
M  V30 29299 H 2756.51 -5.49642 0.131949 0
M  V30 29300 H 2757.73 -6.79043 0.0882925 0
M  V30 29301 H 2755.68 -6.22077 -2.08222 0
M  V30 29302 H 2755.59 -7.50381 -0.92002 0
M  V30 29303 H 2756.86 -7.50422 -2.10919 0
M  V30 29304 N 2761.09 -0.356312 -1.53519 0
M  V30 29305 C 2762 0.502672 -2.29151 0
M  V30 29306 C 2763.02 1.10077 -1.34755 0
M  V30 29307 O 2764.19 1.11371 -1.67805 0
M  V30 29308 C 2761.26 1.63148 -3.05914 0
M  V30 29309 C 2760.32 1.06186 -4.1596 0
M  V30 29310 C 2759.55 2.13688 -4.89053 0
M  V30 29311 O 2759.77 3.34637 -4.61924 0
M  V30 29312 O 2758.71 1.77265 -5.75205 0
M  V30 29313 H 2762.53 -0.11252 -3.03491 0
M  V30 29314 H 2760.12 -0.120968 -1.48909 0
M  V30 29315 H 2762 2.28798 -3.53878 0
M  V30 29316 H 2760.68 2.23225 -2.34419 0
M  V30 29317 H 2759.58 0.369538 -3.7227 0
M  V30 29318 H 2760.92 0.505786 -4.89594 0
M  V30 29319 N 2762.57 1.57369 -0.0852427 0
M  V30 29320 C 2763.53 2.12346 0.862662 0
M  V30 29321 C 2764.53 1.05048 1.21744 0
M  V30 29322 O 2765.72 1.30978 1.1485 0
M  V30 29323 C 2762.85 2.63592 2.16176 0
M  V30 29324 H 2764.05 2.97413 0.385459 0
M  V30 29325 H 2761.6 1.55441 0.163636 0
M  V30 29326 H 2762.33 1.82018 2.68403 0
M  V30 29327 H 2762.12 3.42033 1.91717 0
M  V30 29328 H 2763.61 3.06154 2.84006 0
M  V30 29329 N 2764.05 -0.188399 1.5647 0
M  V30 29330 C 2765.46 -0.539505 1.50205 0
M  V30 29331 C 2765.66 -1.85518 0.786472 0
M  V30 29332 O 2764.72 -2.50204 0.339758 0
M  V30 29333 C 2766.03 -0.588051 2.94894 0
M  V30 29334 C 2767.58 -0.676426 3.05603 0
M  V30 29335 C 2768.05 -0.756022 4.51717 0
M  V30 29336 N 2769.55 -0.819371 4.55895 0
M  V30 29337 C 2770.28 -0.90124 5.66273 0
M  V30 29338 N 2769.78 -0.944998 6.86325 0
M  V30 29339 N 2771.57 -0.938946 5.54202 0
M  V30 29340 H 2763.72 0.674529 2.01405 0
M  V30 29341 H 2765.98 0.241119 0.916824 0
M  V30 29342 H 2765.69 0.309695 3.50334 0
M  V30 29343 H 2765.56 -1.44045 3.48613 0
M  V30 29344 H 2767.95 -1.5646 2.50208 0
M  V30 29345 H 2768.03 0.202307 2.54999 0
M  V30 29346 H 2767.68 0.127829 5.07739 0
M  V30 29347 H 2767.61 -1.65065 5.00061 0
M  V30 29348 H 2770.1 -0.794529 3.69453 0
M  V30 29349 H 2770.41 -1.00817 7.66196 0
M  V30 29350 H 2768.75 -0.913562 6.8897 0
M  V30 29351 H 2771.95 -0.901644 4.59334 0
M  V30 29352 H 2772.12 -0.99929 6.40249 0
M  V30 29353 N 2765.53 -1.50848 -0.456355 0
M  V30 29354 C 2766.44 -1.73597 -1.57802 0
M  V30 29355 C 2767.45 -0.619504 -1.62598 0
M  V30 29356 O 2768.63 -0.899564 -1.80194 0
M  V30 29357 C 2765.69 -1.83875 -2.93923 0
M  V30 29358 C 2764.75 -3.07669 -2.99397 0
M  V30 29359 C 2763.99 -3.17448 -4.29025 0
M  V30 29360 O 2764.21 -2.3364 -5.20354 0
M  V30 29361 O 2763.14 -4.10289 -4.40394 0
M  V30 29362 H 2766.97 -2.68708 -1.41526 0
M  V30 29363 H 2764.55 -1.35121 -0.637398 0
M  V30 29364 H 2766.44 -1.92731 -3.74743 0
M  V30 29365 H 2765.11 -0.919494 -3.10366 0
M  V30 29366 H 2764.02 -3.04304 -2.17601 0
M  V30 29367 H 2765.35 -3.99221 -2.87894 0
M  V30 29368 N 2767 0.710538 -1.40674 0
M  V30 29369 C 2768.28 1.46396 -1.29721 0
M  V30 29370 C 2768.66 2.1094 0.0821399 0
M  V30 29371 O 2768.01 2.00536 1.09533 0
M  V30 29372 C 2768.22 2.49558 -2.43971 0
M  V30 29373 C 2769.57 3.15243 -2.84441 0
M  V30 29374 O 2770.59 2.59879 -2.43601 0
M  V30 29375 O 2769.45 4.15483 -3.55015 0
M  V30 29376 H 2766.54 0.65125 -0.509709 0
M  V30 29377 H 2769.09 0.742285 -1.52605 0
M  V30 29378 H 2767.86 2.00415 -3.3608 0
M  V30 29379 H 2767.48 3.29254 -2.22885 0
M  V30 29380 N 2768.48 1.26254 0.943277 0
M  V30 29381 C 2769.44 1.07693 2.02324 0
M  V30 29382 C 2770.44 0.0259457 1.60779 0
M  V30 29383 O 2771.63 0.269164 1.72108 0
M  V30 29384 C 2768.77 0.637579 3.34885 0
M  V30 29385 H 2769.96 2.03574 2.20222 0
M  V30 29386 H 2767.51 1.08821 1.12195 0
M  V30 29387 H 2768.25 -0.323321 3.22684 0
M  V30 29388 H 2768.03 1.39643 3.66391 0
M  V30 29389 H 2769.52 0.529491 4.1423 0
M  V30 29390 N 2769.96 -1.14755 1.08024 0
M  V30 29391 C 2770.87 -2.23332 0.718331 0
M  V30 29392 C 2771.89 -1.71838 -0.273447 0
M  V30 29393 O 2773.06 -2.01052 -0.11837 0
M  V30 29394 C 2770.13 -3.4646 0.128916 0
M  V30 29395 C 2769.19 -4.12913 1.17481 0
M  V30 29396 C 2768.42 -5.30163 0.613423 0
M  V30 29397 O 2768.64 -5.67561 -0.568358 0
M  V30 29398 O 2767.58 -5.86297 1.3616 0
M  V30 29399 H 2771.4 -2.56633 1.62399 0
M  V30 29400 H 2768.99 -1.2261 0.853649 0
M  V30 29401 H 2770.87 -4.20938 -0.197175 0
M  V30 29402 H 2769.55 -3.14893 -0.749959 0
M  V30 29403 H 2768.45 -3.40325 1.55336 0
M  V30 29404 H 2769.79 -4.48577 2.02582 0
M  V30 29405 N 2771.44 -0.865331 -1.31719 0
M  V30 29406 C 2772.37 -0.333343 -2.31108 0
M  V30 29407 C 2773.35 0.573273 -1.60149 0
M  V30 29408 O 2774.53 0.491272 -1.87883 0
M  V30 29409 C 2771.66 0.470017 -3.44105 0
M  V30 29410 C 2770.62 -0.343096 -4.26623 0
M  V30 29411 C 2769.94 0.585663 -5.31483 0
M  V30 29412 C 2771.24 -1.57465 -4.97998 0
M  V30 29413 H 2772.94 -1.16385 -2.75853 0
M  V30 29414 H 2770.48 -0.561092 -1.32619 0
M  V30 29415 H 2772.44 0.852679 -4.12683 0
M  V30 29416 H 2771.16 1.33399 -2.98115 0
M  V30 29417 H 2769.82 -0.707646 -3.59705 0
M  V30 29418 H 2769.47 1.44678 -4.81744 0
M  V30 29419 H 2769.17 0.0455461 -5.87582 0
M  V30 29420 H 2770.69 0.965269 -6.02922 0
M  V30 29421 H 2772.11 -1.26369 -5.59199 0
M  V30 29422 H 2770.5 -2.05349 -5.63872 0
M  V30 29423 H 2771.57 -2.33005 -4.25249 0
M  V30 29424 N 2772.92 1.44707 -0.624311 0
M  V30 29425 C 2774.19 1.95516 -0.0573125 0
M  V30 29426 C 2774.57 1.56644 1.41513 0
M  V30 29427 O 2773.92 0.837148 2.12613 0
M  V30 29428 C 2774.13 3.47931 -0.273005 0
M  V30 29429 C 2775.48 4.24289 -0.162603 0
M  V30 29430 O 2776.5 3.55615 -0.204009 0
M  V30 29431 O 2775.36 5.46465 -0.0617807 0
M  V30 29432 H 2772.46 0.826585 0.0262073 0
M  V30 29433 H 2775 1.54791 -0.695539 0
M  V30 29434 H 2773.77 3.6925 -1.29499 0
M  V30 29435 H 2773.4 3.95586 0.399687 0
M  V30 29436 N 2774.39 0.364449 1.53328 0
M  V30 29437 C 2775.36 -0.470252 2.24324 0
M  V30 29438 C 2776.36 -1.01065 1.2507 0
M  V30 29439 O 2777.55 -0.896579 1.49356 0
M  V30 29440 C 2774.68 -1.65717 2.97911 0
M  V30 29441 H 2775.87 0.15097 2.9952 0
M  V30 29442 H 2773.42 0.11612 1.55868 0
M  V30 29443 H 2774.16 -2.31651 2.26954 0
M  V30 29444 H 2773.94 -1.27665 3.70735 0
M  V30 29445 H 2775.43 -2.24872 3.51884 0
M  V30 29446 N 2775.87 -1.57322 0.0935872 0
M  V30 29447 C 2776.78 -2.17464 -0.880153 0
M  V30 29448 C 2777.8 -1.14368 -1.31133 0
M  V30 29449 O 2778.97 -1.46732 -1.37956 0
M  V30 29450 C 2776.04 -2.74191 -2.12179 0
M  V30 29451 C 2775.1 -3.92237 -1.74496 0
M  V30 29452 C 2774.33 -4.4625 -2.9274 0
M  V30 29453 O 2774.56 -3.99205 -4.0742 0
M  V30 29454 O 2773.49 -5.37292 -2.71294 0
M  V30 29455 H 2777.32 -3.01075 -0.398463 0
M  V30 29456 H 2774.9 -1.48827 -0.130681 0
M  V30 29457 H 2776.78 -3.10456 -2.84948 0
M  V30 29458 H 2775.46 -1.93627 -2.59404 0
M  V30 29459 H 2774.36 -3.60787 -0.989122 0
M  V30 29460 H 2775.7 -4.7416 -1.32036 0
M  V30 29461 N 2777.35 0.180099 -1.56568 0
M  V30 29462 C 2778.6 0.896394 -1.80687 0
M  V30 29463 C 2778.91 1.8379 -0.669367 0
M  V30 29464 O 2780.12 2.59592 -0.795254 0
M  V30 29465 C 2778.57 1.64444 -3.20134 0
M  V30 29466 C 2778.18 0.747011 -4.41728 0
M  V30 29467 C 2779.93 2.34948 -3.53553 0
M  V30 29468 C 2777.83 1.49479 -5.72198 0
M  V30 29469 H 2776.76 0.338465 -0.673764 0
M  V30 29470 H 2779.41 0.149435 -1.82891 0
M  V30 29471 H 2777.8 2.43584 -3.12223 0
M  V30 29472 H 2778.97 -0.00679229 -4.60799 0
M  V30 29473 H 2777.28 0.15206 -4.16122 0
M  V30 29474 H 2779.88 2.91473 -4.48272 0
M  V30 29475 H 2780.22 3.09863 -2.78012 0
M  V30 29476 H 2780.76 1.62761 -3.62979 0
M  V30 29477 H 2777.5 0.788136 -6.50745 0
M  V30 29478 H 2777.02 2.22214 -5.57118 0
M  V30 29479 H 2778.7 2.04462 -6.13844 0
M  V30 29480 N 2778.83 1.51088 0.448349 0
M  V30 29481 C 2779.74 1.74431 1.56879 0
M  V30 29482 C 2780.75 0.628118 1.62267 0
M  V30 29483 O 2781.93 0.909107 1.79714 0
M  V30 29484 C 2778.99 1.85431 2.92944 0
M  V30 29485 C 2778.06 3.09252 2.97761 0
M  V30 29486 C 2777.29 3.19718 4.27336 0
M  V30 29487 O 2777.51 2.36396 5.19108 0
M  V30 29488 O 2776.45 4.12618 4.38212 0
M  V30 29489 H 2780.27 2.69455 1.40099 0
M  V30 29490 H 2777.86 1.35457 0.630223 0
M  V30 29491 H 2779.74 1.94716 3.73716 0
M  V30 29492 H 2778.41 0.935941 3.09874 0
M  V30 29493 H 2777.32 3.05454 2.15984 0
M  V30 29494 H 2778.65 4.00743 2.85773 0
M  V30 29495 N 2780.31 -0.703068 1.41049 0
M  V30 29496 C 2781.24 -1.82967 1.4507 0
M  V30 29497 C 2782.22 -1.67248 0.310189 0
M  V30 29498 O 2783.4 -1.87092 0.52058 0
M  V30 29499 C 2780.53 -3.21038 1.32484 0
M  V30 29500 C 2779.49 -3.5145 2.44268 0
M  V30 29501 C 2778.81 -4.88798 2.16751 0
M  V30 29502 C 2780.11 -3.51182 3.86612 0
M  V30 29503 H 2781.81 -1.79858 2.39356 0
M  V30 29504 H 2779.35 -0.863899 1.15208 0
M  V30 29505 H 2781.31 -3.99557 1.33911 0
M  V30 29506 H 2780.03 -3.24754 0.346792 0
M  V30 29507 H 2778.69 -2.75277 2.42111 0
M  V30 29508 H 2778.34 -4.8913 1.17307 0
M  V30 29509 H 2778.04 -5.10111 2.91652 0
M  V30 29510 H 2779.56 -5.69635 2.19882 0
M  V30 29511 H 2780.97 -4.19718 3.90525 0
M  V30 29512 H 2779.37 -3.84025 4.61134 0
M  V30 29513 H 2780.44 -2.50308 4.153 0
M  V30 29514 N 2781.78 -1.26752 -0.936569 0
M  V30 29515 C 2782.69 -1.105 -2.06947 0
M  V30 29516 C 2783.71 -0.0373016 -1.7396 0
M  V30 29517 O 2784.89 -0.241979 -1.99941 0
M  V30 29518 C 2781.95 -0.74455 -3.38611 0
M  V30 29519 C 2781.01 -1.89216 -3.85352 0
M  V30 29520 C 2780.25 -1.54882 -5.10732 0
M  V30 29521 O 2780.47 -0.452645 -5.68601 0
M  V30 29522 O 2779.4 -2.38509 -5.52628 0
M  V30 29523 H 2783.23 -2.05551 -2.23567 0
M  V30 29524 H 2780.81 -1.05857 -1.05426 0
M  V30 29525 H 2782.7 -0.556469 -4.1771 0
M  V30 29526 H 2781.37 0.176525 -3.23218 0
M  V30 29527 H 2780.28 -2.13524 -3.07178 0
M  V30 29528 H 2781.61 -2.79313 -4.05272 0
M  V30 29529 N 2783.26 1.1418 -1.08631 0
M  V30 29530 C 2784.2 2.18376 -0.662367 0
M  V30 29531 C 2785.17 1.59277 0.327026 0
M  V30 29532 O 2786.36 1.87087 0.230344 0
M  V30 29533 C 2783.48 3.3869 0.025417 0
M  V30 29534 C 2782.53 4.1636 -0.924487 0
M  V30 29535 S 2783.36 4.77072 -2.43234 0
M  V30 29536 C 2784.52 6.00741 -1.75673 0
M  V30 29537 H 2784.75 2.53999 -1.54506 0
M  V30 29538 H 2782.29 1.25348 -0.901506 0
M  V30 29539 H 2784.24 4.08387 0.41596 0
M  V30 29540 H 2782.9 3.01385 0.884636 0
M  V30 29541 H 2782.1 5.02487 -0.390187 0
M  V30 29542 H 2781.7 3.52278 -1.25604 0
M  V30 29543 H 2783.99 6.68901 -1.07601 0
M  V30 29544 H 2784.93 6.58764 -2.59684 0
M  V30 29545 H 2785.34 5.50956 -1.22913 0
M  V30 29546 N 2784.74 0.872304 1.31258 0
M  V30 29547 C 2785.7 0.334696 2.26743 0
M  V30 29548 C 2786.7 -0.515655 1.52308 0
M  V30 29549 O 2787.89 -0.324626 1.71149 0
M  V30 29550 C 2785.03 -0.524423 3.36842 0
M  V30 29551 H 2786.22 1.17767 2.7581 0
M  V30 29552 H 2783.77 0.648089 1.4223 0
M  V30 29553 H 2784.51 -1.3885 2.93072 0
M  V30 29554 H 2784.29 0.0844988 3.92009 0
M  V30 29555 H 2785.78 -0.892767 4.07945 0
M  V30 29556 N 2786.22 -1.44374 0.631976 0
M  V30 29557 C 2787.15 -2.28932 -0.11087 0
M  V30 29558 C 2788.16 -1.4133 -0.808061 0
M  V30 29559 O 2789.35 -1.65474 -0.669367 0
M  V30 29560 C 2786.45 -3.17722 -1.17923 0
M  V30 29561 C 2785.63 -4.33744 -0.564381 0
M  V30 29562 C 2784.68 -5.03562 -1.52681 0
M  V30 29563 O 2783.71 -5.59551 -1.04362 0
M  V30 29564 N 2784.91 -5.05093 -2.86114 0
M  V30 29565 H 2787.68 -2.93326 0.614809 0
M  V30 29566 H 2785.24 -1.5483 0.473199 0
M  V30 29567 H 2787.23 -3.61295 -1.82341 0
M  V30 29568 H 2785.8 -2.55072 -1.80712 0
M  V30 29569 H 2785.02 -3.93352 0.258442 0
M  V30 29570 H 2786.31 -5.08623 -0.134265 0
M  V30 29571 H 2785.71 -4.60939 -3.27951 0
M  V30 29572 H 2784.26 -5.52451 -3.45891 0
M  V30 29573 N 2787.7 -0.372575 -1.53133 0
M  V30 29574 C 2788.94 0.214499 -2.00958 0
M  V30 29575 C 2789.27 1.48709 -1.26138 0
M  V30 29576 O 2788.54 1.92245 -0.37663 0
M  V30 29577 H 2787.12 0.0822534 -0.742458 0
M  V30 29578 H 2789.78 -0.500418 -1.88366 0
M  V30 29579 H 2788.87 0.43655 -3.09032 0
M  V30 29580 N 2789.17 1.5727 -0.101929 0
M  V30 29581 C 2790.59 1.81772 0.426141 0
M  V30 29582 C 2790.94 1.018 1.67723 0
M  V30 29583 O 2790.06 0.249424 2.14958 0
M  V30 29584 C 2790.66 3.29701 0.779904 0
M  V30 29585 C 2789.22 3.54943 1.25269 0
M  V30 29586 C 2788.36 2.76146 0.252765 0
M  V30 29587 H 2791.31 1.55288 -0.327288 0
M  V30 29588 H 2791.33 3.43398 1.63885 0
M  V30 29589 H 2790.85 3.87879 -0.130846 0
M  V30 29590 H 2788.95 3.02104 2.18092 0
M  V30 29591 H 2789.06 4.63574 1.2098 0
M  V30 29592 H 2787.42 2.43825 0.736319 0
M  V30 29593 H 2788.21 3.37075 -0.650783 0
M  V30 29594 N 2790.65 -0.171793 1.56661 0
M  V30 29595 C 2791.9 -0.886742 1.81608 0
M  V30 29596 C 2792.22 -1.82802 0.67885 0
M  V30 29597 O 2791.49 -1.93569 -0.30132 0
M  V30 29598 H 2790.07 -0.330439 0.66994 0
M  V30 29599 H 2792.73 -0.171723 1.94142 0
M  V30 29600 H 2791.83 -1.46393 2.75637 0
M  V30 29601 N 2792.13 -1.51324 -0.44033 0
M  V30 29602 C 2793.36 -1.6793 -1.21713 0
M  V30 29603 C 2793.78 -0.374858 -1.84327 0
M  V30 29604 O 2793.14 0.664676 -1.68676 0
M  V30 29605 C 2793.19 -2.79446 -2.27909 0
M  V30 29606 O 2792.29 -2.4284 -3.3332 0
M  V30 29607 H 2791.63 -0.560035 -0.35673 0
M  V30 29608 H 2794.16 -1.97872 -0.520382 0
M  V30 29609 H 2794.17 -3.03441 -2.72741 0
M  V30 29610 H 2792.85 -3.74103 -1.81713 0
M  V30 29611 H 2791.42 -2.29405 -2.93986 0
M  V30 29612 N 2793.61 0.695578 -1.41419 0
M  V30 29613 C 2794.57 1.79126 -1.42991 0
M  V30 29614 C 2795.57 1.57573 -0.320542 0
M  V30 29615 O 2796.76 1.64246 -0.580419 0
M  V30 29616 C 2793.89 3.17498 -1.24128 0
M  V30 29617 H 2795.09 1.79125 -2.40529 0
M  V30 29618 H 2792.64 0.903203 -1.27562 0
M  V30 29619 H 2793.37 3.23138 -0.274309 0
M  V30 29620 H 2793.16 3.34544 -2.04506 0
M  V30 29621 H 2794.65 3.97479 -1.28063 0
M  V30 29622 N 2795.09 1.27247 0.929833 0
M  V30 29623 C 2796.5 1.04606 1.2054 0
M  V30 29624 C 2796.7 -0.221719 2.00276 0
M  V30 29625 O 2795.76 -0.927792 2.34837 0
M  V30 29626 C 2797.07 2.2842 1.95562 0
M  V30 29627 C 2798.62 2.33437 2.08509 0
M  V30 29628 C 2799.1 3.56975 2.86937 0
M  V30 29629 N 2800.59 3.5752 2.94506 0
M  V30 29630 C 2801.32 4.4978 3.55648 0
M  V30 29631 N 2800.82 5.52342 4.18199 0
M  V30 29632 N 2802.61 4.37408 3.53031 0
M  V30 29633 H 2794.76 2.08655 0.397076 0
M  V30 29634 H 2797.02 0.917571 0.23826 0
M  V30 29635 H 2796.73 3.20694 1.44389 0
M  V30 29636 H 2796.6 2.33568 2.96186 0
M  V30 29637 H 2798.99 1.41671 2.58869 0
M  V30 29638 H 2799.07 2.32294 1.07113 0
M  V30 29639 H 2798.72 4.49077 2.37261 0
M  V30 29640 H 2798.65 3.55369 3.88614 0
M  V30 29641 H 2801.14 2.83345 2.50048 0
M  V30 29642 H 2801.45 6.1891 4.62785 0
M  V30 29643 H 2799.8 5.56187 4.16751 0
M  V30 29644 H 2802.99 3.56494 3.03364 0
M  V30 29645 H 2803.16 5.095 4.00391 0
M  V30 29646 N 2796.57 -1.13603 1.09235 0
M  V30 29647 C 2797.98 -1.36825 0.821654 0
M  V30 29648 C 2798.18 -1.93417 -0.564987 0
M  V30 29649 O 2797.24 -2.15236 -1.32022 0
M  V30 29650 C 2798.55 -2.32143 1.91128 0
M  V30 29651 C 2800.1 -2.45763 1.93828 0
M  V30 29652 C 2800.57 -3.44388 3.01929 0
M  V30 29653 N 2802.06 -3.51937 3.01155 0
M  V30 29654 C 2802.8 -4.28124 3.81442 0
M  V30 29655 N 2802.3 -5.07481 4.7163 0
M  V30 29656 N 2804.09 -4.23405 3.69709 0
M  V30 29657 H 2796.24 -0.7522 1.98635 0
M  V30 29658 H 2798.5 -0.393467 0.862489 0
M  V30 29659 H 2798.21 -1.97712 2.90865 0
M  V30 29660 H 2798.08 -3.32139 1.78783 0
M  V30 29661 H 2800.47 -2.79482 0.947309 0
M  V30 29662 H 2800.55 -1.45699 2.10251 0
M  V30 29663 H 2800.19 -3.11401 4.01238 0
M  V30 29664 H 2800.12 -4.44252 2.8275 0
M  V30 29665 H 2802.62 -2.95313 2.35794 0
M  V30 29666 H 2802.93 -5.62915 5.29478 0
M  V30 29667 H 2801.27 -5.0672 4.75667 0
M  V30 29668 H 2804.46 -3.60484 2.98612 0
M  V30 29669 H 2804.64 -4.82528 4.32517 0
M  V30 29670 N 2798.04 -0.879253 -1.30793 0
M  V30 29671 C 2799.29 -0.495553 -1.96652 0
M  V30 29672 C 2799.62 0.951673 -1.69283 0
M  V30 29673 O 2798.9 1.67158 -0.994403 0
M  V30 29674 C 2799.18 -0.764236 -3.51897 0
M  V30 29675 C 2799.03 -2.26167 -3.88804 0
M  V30 29676 C 2800.35 -0.236902 -4.39462 0
M  V30 29677 H 2797.47 -0.181519 -0.714297 0
M  V30 29678 H 2800.11 -1.1022 -1.54763 0
M  V30 29679 H 2798.26 -0.247909 -3.87708 0
M  V30 29680 H 2799.94 -2.84597 -3.63046 0
M  V30 29681 H 2798.18 -2.73059 -3.37078 0
M  V30 29682 H 2798.85 -2.40029 -4.97082 0
M  V30 29683 H 2801.33 -0.678755 -4.10527 0
M  V30 29684 H 2800.2 -0.454272 -5.47017 0
M  V30 29685 H 2800.46 0.861606 -4.33623 0
M  V30 29686 N 2799.52 1.44037 -0.639624 0
M  V30 29687 C 2800.8 1.95444 -0.0780463 0
M  V30 29688 C 2801.18 1.58136 1.39844 0
M  V30 29689 O 2800.53 0.859652 2.11713 0
M  V30 29690 C 2800.74 3.47621 -0.309893 0
M  V30 29691 C 2802.08 4.24092 -0.207596 0
M  V30 29692 O 2803.11 3.55379 -0.241715 0
M  V30 29693 O 2801.97 5.46369 -0.119737 0
M  V30 29694 H 2799.06 0.826816 0.0174388 0
M  V30 29695 H 2801.61 1.54045 -0.711918 0
M  V30 29696 H 2800.38 3.67856 -1.33408 0
M  V30 29697 H 2800 3.95988 0.357707 0
M  V30 29698 N 2801 0.380691 1.52933 0
M  V30 29699 C 2801.96 -0.446433 2.2481 0
M  V30 29700 C 2802.96 -0.997325 1.26135 0
M  V30 29701 O 2804.15 -0.880687 1.50298 0
M  V30 29702 C 2801.28 -1.62548 2.99652 0
M  V30 29703 H 2802.48 0.182729 2.99343 0
M  V30 29704 H 2800.03 0.132645 1.55736 0
M  V30 29705 H 2800.77 -2.29231 2.29399 0
M  V30 29706 H 2800.55 -1.23726 3.72068 0
M  V30 29707 H 2802.04 -2.21127 3.5425 0
M  V30 29708 N 2802.48 -1.57214 0.110268 0
M  V30 29709 C 2803.75 -1.86397 -0.592923 0
M  V30 29710 C 2804.13 -1.00988 -1.85377 0
M  V30 29711 O 2803.48 -0.0863994 -2.28337 0
M  V30 29712 C 2803.69 -3.37362 -0.893756 0
M  V30 29713 C 2805.04 -4.05764 -1.25062 0
M  V30 29714 O 2806.06 -3.4233 -0.984296 0
M  V30 29715 O 2804.92 -5.17721 -1.75008 0
M  V30 29716 H 2802.02 -0.771341 -0.298266 0
M  V30 29717 H 2804.56 -1.69087 0.144112 0
M  V30 29718 H 2803.34 -3.913 9.48118e-05 0
M  V30 29719 H 2802.96 -3.60071 -1.68625 0
M  V30 29720 N 2803.96 0.163482 -1.5675 0
M  V30 29721 C 2805.37 0.515541 -1.51044 0
M  V30 29722 C 2805.57 1.84243 -0.815887 0
M  V30 29723 O 2804.63 2.49632 -0.37952 0
M  V30 29724 C 2805.94 0.541062 -2.95792 0
M  V30 29725 C 2807.49 0.627722 -3.06641 0
M  V30 29726 C 2807.96 0.684062 -4.52863 0
M  V30 29727 N 2809.45 0.746738 -4.57141 0
M  V30 29728 C 2810.19 0.811037 -5.67635 0
M  V30 29729 N 2809.69 0.83569 -6.87741 0
M  V30 29730 N 2811.48 0.850658 -5.55626 0
M  V30 29731 H 2803.63 -0.706485 -2.00306 0
M  V30 29732 H 2805.89 -0.255675 -0.912872 0
M  V30 29733 H 2805.6 -0.365391 -3.49797 0
M  V30 29734 H 2805.47 1.38481 -3.5086 0
M  V30 29735 H 2807.86 1.5246 -2.52666 0
M  V30 29736 H 2807.94 -0.24285 -2.54645 0
M  V30 29737 H 2807.58 -0.208589 -5.07471 0
M  V30 29738 H 2807.51 1.57089 -5.02624 0
M  V30 29739 H 2810.01 0.735652 -3.7067 0
M  V30 29740 H 2810.32 0.886144 -7.67703 0
M  V30 29741 H 2808.66 0.803837 -6.90336 0
M  V30 29742 H 2811.85 0.828454 -4.60711 0
M  V30 29743 H 2812.03 0.897305 -6.41757 0
M  V30 29744 N 2805.43 1.51555 0.432299 0
M  V30 29745 C 2806.84 1.56894 1.01199 0
M  V30 29746 C 2807.2 0.395428 1.92174 0
M  V30 29747 O 2806.32 -0.487161 2.10845 0
M  V30 29748 C 2806.92 2.84344 1.84212 0
M  V30 29749 C 2805.47 2.92237 2.37223 0
M  V30 29750 C 2804.62 2.51608 1.16571 0
M  V30 29751 H 2807.57 1.57259 0.21338 0
M  V30 29752 H 2807.59 2.6839 2.69717 0
M  V30 29753 H 2807.11 3.69735 1.17973 0
M  V30 29754 H 2805.21 2.11287 3.06902 0
M  V30 29755 H 2805.32 3.95995 2.69675 0
M  V30 29756 H 2803.68 2.04921 1.51259 0
M  V30 29757 H 2804.47 3.39349 0.519344 0
M  V30 29758 N 2806.91 -0.688069 1.41786 0
M  V30 29759 C 2808.32 -1.26825 1.37012 0
M  V30 29760 C 2808.67 -1.96118 0.0568695 0
M  V30 29761 O 2807.8 -1.99232 -0.844715 0
M  V30 29762 C 2808.39 -2.30643 2.48172 0
M  V30 29763 C 2806.95 -2.8422 2.46771 0
M  V30 29764 C 2806.1 -1.58357 2.27636 0
M  V30 29765 H 2809.05 -0.482324 1.51193 0
M  V30 29766 H 2809.07 -3.12096 2.17661 0
M  V30 29767 H 2808.58 -1.80182 3.43738 0
M  V30 29768 H 2806.68 -3.38837 1.54984 0
M  V30 29769 H 2806.8 -3.34139 3.43348 0
M  V30 29770 H 2805.16 -1.84442 1.75651 0
M  V30 29771 H 2805.94 -1.09881 3.2524 0
M  V30 29772 N 2808.39 -1.27739 -0.923072 0
M  V30 29773 C 2809.32 -1.13387 -2.04122 0
M  V30 29774 C 2810.3 -0.0340957 -1.70066 0
M  V30 29775 O 2811.49 -0.209417 -1.93068 0
M  V30 29776 C 2808.62 -0.785156 -3.38308 0
M  V30 29777 C 2807.57 -1.83867 -3.86493 0
M  V30 29778 C 2806.9 -1.34382 -5.17538 0
M  V30 29779 C 2808.2 -3.2436 -4.09375 0
M  V30 29780 H 2809.89 -2.06923 -2.16387 0
M  V30 29781 H 2807.44 -0.996262 -1.03974 0
M  V30 29782 H 2809.39 -0.671558 -4.16014 0
M  V30 29783 H 2808.11 0.185912 -3.2607 0
M  V30 29784 H 2806.77 -1.94126 -3.10984 0
M  V30 29785 H 2806.42 -0.362077 -5.01695 0
M  V30 29786 H 2806.12 -2.0482 -5.50747 0
M  V30 29787 H 2807.64 -1.24326 -5.97809 0
M  V30 29788 H 2809.06 -3.17076 -4.77636 0
M  V30 29789 H 2807.45 -3.9255 -4.53899 0
M  V30 29790 H 2808.52 -3.6907 -3.14509 0
M  V30 29791 N 2809.87 1.13022 -1.09836 0
M  V30 29792 C 2811.28 1.65937 -0.85568 0
M  V30 29793 C 2811.63 1.86308 0.615126 0
M  V30 29794 O 2810.76 1.585 1.47332 0
M  V30 29795 C 2811.35 3.01431 -1.54676 0
M  V30 29796 C 2809.91 3.51321 -1.35095 0
M  V30 29797 C 2809.06 2.26475 -1.60014 0
M  V30 29798 H 2812.01 0.968867 -1.25693 0
M  V30 29799 H 2812.03 3.67603 -0.982244 0
M  V30 29800 H 2811.54 2.86573 -2.6172 0
M  V30 29801 H 2809.64 3.71375 -0.301856 0
M  V30 29802 H 2809.75 4.31174 -2.08867 0
M  V30 29803 H 2808.12 2.33275 -1.0225 0
M  V30 29804 H 2808.9 2.14177 -2.68297 0
M  V30 29805 N 2811.35 0.886177 1.30325 0
M  V30 29806 C 2812.28 0.311112 2.27079 0
M  V30 29807 C 2813.29 -0.534992 1.53758 0
M  V30 29808 O 2814.48 -0.354347 1.74948 0
M  V30 29809 C 2811.58 -0.576169 3.33966 0
M  V30 29810 C 2810.75 0.241141 4.36735 0
M  V30 29811 C 2809.81 -0.576824 5.23029 0
M  V30 29812 O 2808.84 0.000902282 5.692 0
M  V30 29813 N 2810.04 -1.88569 5.49019 0
M  V30 29814 H 2812.81 1.14264 2.77063 0
M  V30 29815 H 2810.37 0.749284 1.43518 0
M  V30 29816 H 2812.36 -1.12946 3.8862 0
M  V30 29817 H 2810.93 -1.30837 2.83902 0
M  V30 29818 H 2810.15 0.975872 3.8193 0
M  V30 29819 H 2811.44 0.80136 5.0245 0
M  V30 29820 H 2810.83 -2.37797 5.13292 0
M  V30 29821 H 2809.39 -2.3864 6.06543 0
M  V30 29822 N 2812.82 -1.43695 0.647253 0
M  V30 29823 C 2813.73 -2.34549 -0.0487585 0
M  V30 29824 C 2814.75 -1.53544 -0.818559 0
M  V30 29825 O 2815.93 -1.86217 -0.767162 0
M  V30 29826 C 2812.99 -3.31745 -1.00728 0
M  V30 29827 C 2812.05 -4.28656 -0.235075 0
M  V30 29828 C 2811.29 -5.21208 -1.14794 0
M  V30 29829 O 2811.51 -5.18049 -2.38708 0
M  V30 29830 O 2810.44 -5.98661 -0.623562 0
M  V30 29831 H 2814.27 -2.95548 0.698915 0
M  V30 29832 H 2811.85 -1.43737 0.407438 0
M  V30 29833 H 2813.74 -3.91529 -1.5583 0
M  V30 29834 H 2812.41 -2.73257 -1.73529 0
M  V30 29835 H 2811.32 -3.7237 0.359385 0
M  V30 29836 H 2812.65 -4.90109 0.453238 0
M  V30 29837 N 2814.3 -0.388796 -1.52729 0
M  V30 29838 C 2815.53 0.196174 -2.0647 0
M  V30 29839 C 2815.95 1.39782 -1.25868 0
M  V30 29840 O 2815.31 1.79068 -0.283594 0
M  V30 29841 C 2815.36 0.545037 -3.56457 0
M  V30 29842 O 2814.46 1.63906 -3.78429 0
M  V30 29843 H 2813.8 0.0230553 -0.6636 0
M  V30 29844 H 2816.33 -0.556119 -1.96897 0
M  V30 29845 H 2816.34 0.809487 -3.99889 0
M  V30 29846 H 2815.02 -0.333489 -4.14561 0
M  V30 29847 H 2813.6 1.36836 -3.46887 0
M  V30 29848 N 2815.78 1.57153 -0.118604 0
M  V30 29849 C 2817.19 1.82213 0.406838 0
M  V30 29850 C 2817.54 1.03574 1.66634 0
M  V30 29851 O 2816.67 0.272209 2.14681 0
M  V30 29852 C 2817.26 3.3051 0.744891 0
M  V30 29853 C 2815.82 3.56252 1.21497 0
M  V30 29854 C 2814.97 2.76398 0.223462 0
M  V30 29855 H 2817.92 1.54933 -0.34374 0
M  V30 29856 H 2817.94 3.45117 1.60234 0
M  V30 29857 H 2817.45 3.87719 -0.171979 0
M  V30 29858 H 2815.55 3.044 2.14875 0
M  V30 29859 H 2815.67 4.64831 1.16057 0
M  V30 29860 H 2814.03 2.44592 0.710417 0
M  V30 29861 H 2814.81 3.36366 -0.686498 0
M  V30 29862 N 2817.26 -0.155167 1.56834 0
M  V30 29863 C 2818.51 -0.86743 1.82538 0
M  V30 29864 C 2818.83 -1.82072 0.6982 0
M  V30 29865 O 2818.1 -1.93877 -0.280773 0
M  V30 29866 H 2816.68 -0.323315 0.673407 0
M  V30 29867 H 2819.34 -0.151122 1.94313 0
M  V30 29868 H 2818.44 -1.43461 2.77174 0
M  V30 29869 N 2818.74 -1.51782 -0.424256 0
M  V30 29870 C 2819.7 -1.73434 -1.49845 0
M  V30 29871 C 2820.7 -0.604251 -1.49015 0
M  V30 29872 O 2821.89 -0.871962 -1.50806 0
M  V30 29873 C 2819.02 -1.80282 -2.89329 0
M  V30 29874 H 2820.21 -2.69315 -1.31946 0
M  V30 29875 H 2817.77 -1.4197 -0.653784 0
M  V30 29876 H 2818.5 -0.862623 -3.12617 0
M  V30 29877 H 2818.29 -2.62424 -2.91335 0
M  V30 29878 H 2819.78 -1.98827 -3.67229 0
M  V30 29879 N 2820.21 0.68054 -1.42149 0
M  V30 29880 C 2821.63 0.992973 -1.24949 0
M  V30 29881 C 2821.83 2.00944 -0.149562 0
M  V30 29882 O 2820.89 2.47874 0.481101 0
M  V30 29883 C 2822.2 1.50325 -2.60428 0
M  V30 29884 C 2823.75 1.62132 -2.67735 0
M  V30 29885 C 2824.22 2.16558 -4.03568 0
M  V30 29886 N 2825.71 2.23898 -4.05492 0
M  V30 29887 C 2826.45 2.67072 -5.07405 0
M  V30 29888 N 2825.94 3.0974 -6.19704 0
M  V30 29889 N 2827.74 2.6677 -4.94763 0
M  V30 29890 H 2819.89 0.00744146 -2.12399 0
M  V30 29891 H 2822.15 0.0658363 -0.945711 0
M  V30 29892 H 2821.86 0.830887 -3.41744 0
M  V30 29893 H 2821.73 2.48295 -2.83953 0
M  V30 29894 H 2824.12 2.28476 -1.86769 0
M  V30 29895 H 2824.2 0.62667 -2.48005 0
M  V30 29896 H 2823.84 1.50824 -4.84989 0
M  V30 29897 H 2823.77 3.16803 -4.20646 0
M  V30 29898 H 2826.26 1.93807 -3.24419 0
M  V30 29899 H 2826.58 3.41353 -6.93324 0
M  V30 29900 H 2824.92 3.07612 -6.23218 0
M  V30 29901 H 2828.11 2.32794 -4.06109 0
M  V30 29902 H 2828.29 3.00097 -5.74322 0
M  V30 29903 N 2821.69 1.28226 0.916285 0
M  V30 29904 C 2822.97 1.05939 1.64427 0
M  V30 29905 C 2823.35 -0.402103 2.07235 0
M  V30 29906 O 2822.7 -1.38767 1.81538 0
M  V30 29907 C 2822.91 2.03164 2.8377 0
M  V30 29908 C 2824.26 2.3317 3.54848 0
M  V30 29909 O 2825.28 2.01228 2.93914 0
M  V30 29910 O 2824.14 2.87672 4.64658 0
M  V30 29911 H 2821.23 0.404696 0.721214 0
M  V30 29912 H 2823.78 1.39535 0.965813 0
M  V30 29913 H 2822.55 3.01677 2.49212 0
M  V30 29914 H 2822.17 1.70198 3.5933 0
M  V30 29915 N 2823.17 -1.12438 1.10433 0
M  V30 29916 C 2824.13 -2.16353 0.75658 0
M  V30 29917 C 2825.13 -1.59302 -0.218962 0
M  V30 29918 O 2826.32 -1.74199 0.0041903 0
M  V30 29919 C 2823.46 -3.40686 0.120672 0
M  V30 29920 H 2824.65 -2.48629 1.677 0
M  V30 29921 H 2822.2 -1.27444 0.904854 0
M  V30 29922 H 2822.94 -3.14009 -0.810481 0
M  V30 29923 H 2822.72 -3.83371 0.82276 0
M  V30 29924 H 2824.21 -4.17463 -0.106871 0
M  V30 29925 N 2824.65 -0.893076 -1.29853 0
M  V30 29926 C 2826.06 -0.56503 -1.77945 0
M  V30 29927 C 2826.41 0.919104 -1.7334 0
M  V30 29928 O 2825.54 1.71845 -1.31523 0
M  V30 29929 C 2826.13 -1.01889 -3.23116 0
M  V30 29930 C 2824.69 -0.742116 -3.69012 0
M  V30 29931 C 2823.84 -1.19732 -2.50119 0
M  V30 29932 H 2826.79 -1.07648 -1.16609 0
M  V30 29933 H 2826.81 -0.351316 -3.78875 0
M  V30 29934 H 2826.32 -2.09909 -3.26435 0
M  V30 29935 H 2824.42 0.325751 -3.71173 0
M  V30 29936 H 2824.54 -1.33535 -4.60114 0
M  V30 29937 H 2822.9 -0.616461 -2.47127 0
M  V30 29938 H 2823.68 -2.28543 -2.5617 0
M  V30 29939 N 2826.13 1.4335 -0.654865 0
M  V30 29940 C 2827.08 2.32551 0.0476375 0
M  V30 29941 C 2828.07 1.48705 0.811377 0
M  V30 29942 O 2829.28 1.64903 0.721592 0
M  V30 29943 H 2825.65 0.751222 0.0341906 0
M  V30 29944 H 2827.62 2.89524 -0.722393 0
M  V30 29945 C 2826.37 3.33034 0.999192 0
M  V30 29946 H 2825.69 3.97578 0.420935 0
M  V30 29947 H 2827.13 3.98078 1.45979 0
M  V30 29948 C 2825.59 2.63759 2.09601 0
M  V30 29949 O 2826.12 2.45436 3.18 0
M  V30 29950 N 2824.33 2.23107 1.86204 0
M  V30 29951 H 2823.88 2.38209 0.980513 0
M  V30 29952 H 2823.83 1.77086 2.59784 0
M  V30 29953 N 2827.61 0.39689 1.52521 0
M  V30 29954 C 2828.54 -0.425901 2.29583 0
M  V30 29955 C 2829.52 -1.05686 1.33283 0
M  V30 29956 O 2830.7 -1.0682 1.62182 0
M  V30 29957 C 2827.83 -1.54938 3.10824 0
M  V30 29958 C 2826.79 -1.04406 4.1507 0
M  V30 29959 C 2826.11 -2.26019 4.84582 0
M  V30 29960 C 2827.41 -0.106675 5.22191 0
M  V30 29961 H 2829.11 0.217097 2.98612 0
M  V30 29962 H 2826.65 0.105852 1.4361 0
M  V30 29963 H 2828.6 -2.13186 3.63496 0
M  V30 29964 H 2827.33 -2.22007 2.39542 0
M  V30 29965 H 2825.99 -0.484054 3.6339 0
M  V30 29966 H 2825.64 -2.91616 4.09841 0
M  V30 29967 H 2825.34 -1.92866 5.55046 0
M  V30 29968 H 2826.86 -2.84897 5.40061 0
M  V30 29969 H 2828.27 -0.597584 5.70177 0
M  V30 29970 H 2826.67 0.135458 5.99947 0
M  V30 29971 H 2827.74 0.842218 4.7753 0
M  V30 29972 N 2829.08 -1.57088 0.126936 0
M  V30 29973 C 2830.33 -1.95754 -0.529917 0
M  V30 29974 C 2830.66 -1.0108 -1.65821 0
M  V30 29975 O 2829.94 -0.0494504 -1.94437 0
M  V30 29976 C 2830.22 -3.44295 -1.05511 0
M  V30 29977 C 2830.07 -4.49745 0.0703043 0
M  V30 29978 C 2831.39 -3.94865 -1.94343 0
M  V30 29979 H 2828.51 -0.711779 -0.191155 0
M  V30 29980 H 2831.15 -1.88901 0.204104 0
M  V30 29981 H 2829.3 -3.50267 -1.68063 0
M  V30 29982 H 2830.98 -4.55867 0.705914 0
M  V30 29983 H 2829.22 -4.27574 0.732334 0
M  V30 29984 H 2829.89 -5.50961 -0.338546 0
M  V30 29985 H 2832.37 -3.91247 -1.41651 0
M  V30 29986 H 2831.24 -4.99304 -2.28006 0
M  V30 29987 H 2831.5 -3.36029 -2.87293 0
M  V30 29988 N 2830.56 0.146848 -1.56914 0
M  V30 29989 C 2831.52 1.16523 -1.9737 0
M  V30 29990 C 2832.52 1.35854 -0.860247 0
M  V30 29991 O 2833.71 1.32844 -1.12686 0
M  V30 29992 C 2830.85 2.52551 -2.28978 0
M  V30 29993 H 2832.04 0.818158 -2.88524 0
M  V30 29994 H 2829.59 0.390194 -1.51351 0
M  V30 29995 H 2830.33 2.92229 -1.40616 0
M  V30 29996 H 2830.11 2.3988 -3.10161 0
M  V30 29997 H 2831.6 3.25897 -2.61115 0
M  V30 29998 N 2832.04 1.52005 0.4162 0
M  V30 29999 C 2833.46 1.4065 0.754295 0
M  V30 30000 C 2833.66 0.505427 1.95058 0
M  V30 30001 O 2832.71 -0.0314613 2.5248 0
M  V30 30002 C 2834.02 2.83057 1.01485 0
M  V30 30003 C 2835.57 2.92352 1.118 0
M  V30 30004 C 2836.05 4.35711 1.41137 0
M  V30 30005 N 2837.54 4.38914 1.48016 0
M  V30 30006 C 2838.27 5.46892 1.72328 0
M  V30 30007 N 2837.77 6.64998 1.94292 0
M  V30 30008 N 2839.56 5.34398 1.74285 0
M  V30 30009 H 2831.71 2.09128 -0.37136 0
M  V30 30010 H 2833.98 0.942297 -0.103828 0
M  V30 30011 H 2833.68 3.51083 0.208283 0
M  V30 30012 H 2833.56 3.23672 1.93692 0
M  V30 30013 H 2835.94 2.24511 1.91517 0
M  V30 30014 H 2836.02 2.55204 0.174465 0
M  V30 30015 H 2835.67 5.04109 0.619395 0
M  V30 30016 H 2835.6 4.70389 2.36731 0
M  V30 30017 H 2838.09 3.53774 1.32861 0
M  V30 30018 H 2838.4 7.43075 2.12272 0
M  V30 30019 H 2836.75 6.68076 1.91571 0
M  V30 30020 H 2839.94 4.41107 1.5666 0
M  V30 30021 H 2840.11 6.18624 1.92894 0
M  V30 30022 N 2833.52 -0.672992 1.42508 0
M  V30 30023 C 2834.46 -1.78649 1.46127 0
M  V30 30024 C 2835.43 -1.63124 0.313036 0
M  V30 30025 O 2836.62 -1.83652 0.51737 0
M  V30 30026 C 2833.76 -3.16691 1.37116 0
M  V30 30027 C 2832.87 -3.4349 2.61989 0
M  V30 30028 C 2832.01 -4.71271 2.45107 0
M  V30 30029 C 2831.05 -4.9111 3.65345 0
M  V30 30030 N 2830.18 -6.10133 3.47394 0
M  V30 30031 H 2835.02 -1.7489 2.41283 0
M  V30 30032 H 2832.56 -0.853745 1.1979 0
M  V30 30033 H 2834.52 -3.96465 1.29888 0
M  V30 30034 H 2833.15 -3.19569 0.455546 0
M  V30 30035 H 2832.2 -2.57956 2.79576 0
M  V30 30036 H 2833.51 -3.54043 3.51361 0
M  V30 30037 H 2832.67 -5.59139 2.35475 0
M  V30 30038 H 2831.41 -4.63004 1.53227 0
M  V30 30039 H 2830.41 -4.01684 3.75407 0
M  V30 30040 H 2831.64 -5.01221 4.58208 0
M  V30 30041 H 2829.58 -6.03036 2.58233 0
M  V30 30042 H 2829.5 -6.21555 4.30355 0
M  V30 30043 H 2830.77 -7.00675 3.41578 0
M  V30 30044 N 2835 -1.2871 -0.909472 0
M  V30 30045 C 2836.24 -1.16286 -1.66149 0
M  V30 30046 C 2836.57 0.287036 -1.92067 0
M  V30 30047 O 2835.85 1.20835 -1.52411 0
M  V30 30048 C 2836.13 -1.96636 -3.01673 0
M  V30 30049 C 2835.99 -3.49711 -2.82881 0
M  V30 30050 C 2837.3 -1.78511 -4.02271 0
M  V30 30051 H 2834.42 -0.423804 -0.602959 0
M  V30 30052 H 2837.07 -1.58075 -1.05415 0
M  V30 30053 H 2835.22 -1.61125 -3.53512 0
M  V30 30054 H 2836.89 -3.95152 -2.38019 0
M  V30 30055 H 2835.13 -3.75129 -2.17855 0
M  V30 30056 H 2835.8 -4.01194 -3.7914 0
M  V30 30057 H 2838.28 -2.09509 -3.59507 0
M  V30 30058 H 2837.15 -2.37097 -4.95052 0
M  V30 30059 H 2837.41 -0.737724 -4.35901 0
M  V30 30060 N 2836.47 1.1185 -1.11028 0
M  V30 30061 C 2837.7 1.87847 -0.879097 0
M  V30 30062 C 2838.12 1.79402 0.565374 0
M  V30 30063 O 2837.48 1.15335 1.39884 0
M  V30 30064 C 2837.53 3.34782 -1.33991 0
M  V30 30065 O 2836.63 4.09248 -0.508875 0
M  V30 30066 H 2835.97 0.583443 -0.317003 0
M  V30 30067 H 2838.5 1.41411 -1.47866 0
M  V30 30068 H 2838.51 3.85626 -1.33255 0
M  V30 30069 H 2837.19 3.40245 -2.39178 0
M  V30 30070 H 2835.77 3.68331 -0.581978 0
M  V30 30071 N 2837.95 0.89995 1.29378 0
M  V30 30072 C 2839.2 0.526776 1.95839 0
M  V30 30073 C 2839.53 -0.924621 1.70776 0
M  V30 30074 O 2838.81 -1.65555 1.02087 0
M  V30 30075 C 2839.09 0.820123 3.50637 0
M  V30 30076 C 2838.94 2.32324 3.85156 0
M  V30 30077 C 2840.26 0.306787 4.39029 0
M  V30 30078 H 2837.38 0.19286 0.711319 0
M  V30 30079 H 2840.02 1.12668 1.5299 0
M  V30 30080 H 2838.17 0.309559 3.87265 0
M  V30 30081 H 2839.84 2.90337 3.58472 0
M  V30 30082 H 2838.09 2.78387 3.32691 0
M  V30 30083 H 2838.76 2.47907 4.932 0
M  V30 30084 H 2841.23 0.74398 4.09395 0
M  V30 30085 H 2840.11 0.54124 5.46225 0
M  V30 30086 H 2840.37 -0.792512 4.34939 0
M  V30 30087 N 2839.43 -1.43001 0.662458 0
M  V30 30088 C 2840.66 -2.06564 0.186039 0
M  V30 30089 C 2841.08 -1.49381 -1.14311 0
M  V30 30090 O 2840.44 -0.607376 -1.70823 0
M  V30 30091 C 2840.49 -3.60406 0.118333 0
M  V30 30092 O 2839.59 -4.02081 -0.916788 0
M  V30 30093 H 2838.93 -0.656562 0.0991096 0
M  V30 30094 H 2841.46 -1.83349 0.90799 0
M  V30 30095 H 2841.47 -4.07953 -0.0619264 0
M  V30 30096 H 2840.15 -4.01401 1.08856 0
M  V30 30097 H 2838.72 -3.66106 -0.70857 0
M  V30 30098 N 2840.91 -0.404973 -1.52308 0
M  V30 30099 C 2842.32 -0.0556535 -1.59503 0
M  V30 30100 C 2842.52 1.43154 -1.41807 0
M  V30 30101 O 2841.58 2.19789 -1.24293 0
M  V30 30102 C 2842.89 -0.546853 -2.95686 0
M  V30 30103 C 2844.44 -0.504467 -3.08908 0
M  V30 30104 C 2844.92 -0.972109 -4.47565 0
M  V30 30105 N 2846.41 -0.928759 -4.53793 0
M  V30 30106 C 2847.14 -1.26183 -5.59344 0
M  V30 30107 N 2846.64 -1.66616 -6.72466 0
M  V30 30108 N 2848.43 -1.18207 -5.4953 0
M  V30 30109 H 2840.58 -1.37299 -1.62058 0
M  V30 30110 H 2842.85 -0.563764 -0.762151 0
M  V30 30111 H 2842.55 -1.58614 -3.13902 0
M  V30 30112 H 2842.43 0.0457242 -3.77172 0
M  V30 30113 H 2844.81 0.525768 -2.90379 0
M  V30 30114 H 2844.89 -1.13305 -2.29338 0
M  V30 30115 H 2844.54 -2.00065 -4.66837 0
M  V30 30116 H 2844.47 -0.320384 -5.25624 0
M  V30 30117 H 2846.96 -0.631434 -3.72587 0
M  V30 30118 H 2847.27 -1.90353 -7.4899 0
M  V30 30119 H 2845.62 -1.70516 -6.73758 0
M  V30 30120 H 2848.81 -0.865092 -4.60037 0
M  V30 30121 H 2848.98 -1.44496 -6.31684 0
M  V30 30122 N 2842.39 1.57018 -0.135265 0
M  V30 30123 C 2843.32 2.11916 0.84658 0
M  V30 30124 C 2844.3 1.03968 1.25018 0
M  V30 30125 O 2845.48 1.31725 1.34836 0
M  V30 30126 C 2842.61 2.62923 2.13516 0
M  V30 30127 C 2841.65 3.82908 1.87839 0
M  V30 30128 S 2842.49 5.24497 1.07996 0
M  V30 30129 C 2843.64 5.78885 2.37998 0
M  V30 30130 H 2843.88 2.94865 0.3797 0
M  V30 30131 H 2841.41 1.54199 0.0788116 0
M  V30 30132 H 2843.37 2.92963 2.87546 0
M  V30 30133 H 2842.03 1.80126 2.5732 0
M  V30 30134 H 2841.22 4.16802 2.83358 0
M  V30 30135 H 2840.82 3.53569 1.21923 0
M  V30 30136 H 2843.12 5.89601 3.33731 0
M  V30 30137 H 2844.06 6.76669 2.08626 0
M  V30 30138 H 2844.47 5.07052 2.4811 0
M  V30 30139 N 2843.86 -0.138524 1.5699 0
M  V30 30140 C 2844.79 -1.17237 2.01935 0
M  V30 30141 C 2845.78 -1.44318 0.900356 0
M  V30 30142 O 2846.96 -1.55093 1.16875 0
M  V30 30143 C 2844.09 -2.50347 2.40715 0
M  V30 30144 C 2843.04 -2.3777 3.55878 0
M  V30 30145 C 2842.37 -3.75667 3.80498 0
M  V30 30146 C 2843.67 -1.85463 4.88263 0
M  V30 30147 H 2845.36 -0.798622 2.88552 0
M  V30 30148 H 2842.91 -0.382719 1.38821 0
M  V30 30149 H 2844.86 -3.22905 2.70759 0
M  V30 30150 H 2843.59 -2.89574 1.51045 0
M  V30 30151 H 2842.25 -1.67663 3.26013 0
M  V30 30152 H 2841.89 -4.12344 2.88064 0
M  V30 30153 H 2841.59 -3.68111 4.58005 0
M  V30 30154 H 2843.12 -4.4976 4.12975 0
M  V30 30155 H 2844.53 -2.47821 5.1697 0
M  V30 30156 H 2842.93 -1.88777 5.69634 0
M  V30 30157 H 2844 -0.810851 4.78072 0
M  V30 30158 N 2845.34 -1.52224 -0.408133 0
M  V30 30159 C 2846.57 -1.70474 -1.18124 0
M  V30 30160 C 2846.99 -0.413872 -1.8349 0
M  V30 30161 O 2846.35 0.628748 -1.70048 0
M  V30 30162 C 2846.4 -2.84217 -2.2193 0
M  V30 30163 O 2845.5 -2.49856 -3.28094 0
M  V30 30164 H 2844.84 -0.567476 -0.344771 0
M  V30 30165 H 2847.37 -1.98931 -0.478293 0
M  V30 30166 H 2847.38 -3.09158 -2.66243 0
M  V30 30167 H 2846.06 -3.77873 -1.73737 0
M  V30 30168 H 2844.64 -2.35589 -2.89054 0
M  V30 30169 N 2846.82 0.665425 -1.42863 0
M  V30 30170 C 2847.75 1.79056 -1.4987 0
M  V30 30171 C 2848.73 1.66367 -0.354423 0
M  V30 30172 O 2849.92 1.85646 -0.570002 0
M  V30 30173 C 2847.05 3.17413 -1.40949 0
M  V30 30174 C 2846 3.4485 -2.53501 0
M  V30 30175 C 2845.33 4.82879 -2.29634 0
M  V30 30176 C 2846.63 3.40808 -3.95787 0
M  V30 30177 H 2848.32 1.73449 -2.44041 0
M  V30 30178 H 2845.87 0.83305 -1.17458 0
M  V30 30179 H 2847.82 3.95866 -1.44457 0
M  V30 30180 H 2846.54 3.2372 -0.432773 0
M  V30 30181 H 2845.2 2.68761 -2.49325 0
M  V30 30182 H 2844.85 4.85848 -1.30235 0
M  V30 30183 H 2844.55 5.02199 -3.05074 0
M  V30 30184 H 2846.07 5.63605 -2.34907 0
M  V30 30185 H 2847.49 4.09217 -4.01515 0
M  V30 30186 H 2845.89 3.71664 -4.71154 0
M  V30 30187 H 2846.96 2.39209 -4.21791 0
M  V30 30188 N 2848.3 1.29191 0.902633 0
M  V30 30189 C 2849.71 1.15345 1.46807 0
M  V30 30190 C 2850.06 -0.252483 1.94569 0
M  V30 30191 O 2849.19 -1.14773 1.83456 0
M  V30 30192 C 2849.78 2.08781 2.66826 0
M  V30 30193 C 2848.34 1.98967 3.19514 0
M  V30 30194 C 2847.49 1.99878 1.92209 0
M  V30 30195 H 2850.44 1.41718 0.714257 0
M  V30 30196 H 2850.46 1.65832 3.42462 0
M  V30 30197 H 2849.97 3.11098 2.32033 0
M  V30 30198 H 2848.07 0.997273 3.59006 0
M  V30 30199 H 2848.18 2.86483 3.8401 0
M  V30 30200 H 2846.55 1.44435 2.09787 0
M  V30 30201 H 2847.33 3.03894 1.59697 0
M  V30 30202 N 2849.78 -1.1126 1.1162 0
M  V30 30203 C 2850.72 -2.19439 0.77133 0
M  V30 30204 C 2851.72 -1.67719 -0.238043 0
M  V30 30205 O 2852.92 -1.79738 -0.0971312 0
M  V30 30206 H 2849.3 -0.715461 0.23156 0
M  V30 30207 H 2851.27 -2.45772 1.6923 0
M  V30 30208 C 2850.02 -3.4692 0.232826 0
M  V30 30209 H 2849.34 -3.87072 1.00078 0
M  V30 30210 H 2850.78 -4.2399 0.0297306 0
M  V30 30211 C 2849.24 -3.20533 -1.03732 0
M  V30 30212 O 2849.77 -3.41408 -2.11669 0
M  V30 30213 N 2847.98 -2.74255 -0.960857 0
M  V30 30214 H 2847.52 -2.57468 -0.0823871 0
M  V30 30215 H 2847.48 -2.56977 -1.81136 0
M  V30 30216 N 2851.25 -0.906798 -1.28899 0
M  V30 30217 C 2852.53 -0.455571 -1.90221 0
M  V30 30218 C 2852.91 1.06523 -1.82252 0
M  V30 30219 O 2852.26 1.91023 -1.25389 0
M  V30 30220 C 2852.47 -0.978119 -3.35013 0
M  V30 30221 C 2853.82 -1.02606 -4.12016 0
M  V30 30222 O 2854.84 -0.926279 -3.43946 0
M  V30 30223 O 2853.7 -1.17698 -5.33675 0
M  V30 30224 H 2850.79 -0.143229 -0.814503 0
M  V30 30225 H 2853.34 -0.997128 -1.37315 0
M  V30 30226 H 2852.11 -2.0221 -3.35003 0
M  V30 30227 H 2851.74 -0.416983 -3.95407 0
M  V30 30228 N 2852.73 1.42648 -0.670032 0
M  V30 30229 C 2853.96 2.06462 -0.196991 0
M  V30 30230 C 2854.38 1.49985 1.13517 0
M  V30 30231 O 2853.74 0.616427 1.70499 0
M  V30 30232 C 2853.79 3.60338 -0.137444 0
M  V30 30233 O 2852.89 4.02561 0.895452 0
M  V30 30234 H 2852.23 0.656027 -0.10259 0
M  V30 30235 H 2854.76 1.82864 -0.917701 0
M  V30 30236 H 2854.77 4.0798 0.0402908 0
M  V30 30237 H 2853.45 4.00818 -1.10984 0
M  V30 30238 H 2852.03 3.66477 0.689145 0
M  V30 30239 N 2854.21 0.413044 1.52091 0
M  V30 30240 C 2855.44 -0.160612 2.05975 0
M  V30 30241 C 2855.85 -1.39082 1.28269 0
M  V30 30242 O 2855.19 -1.80733 0.328836 0
M  V30 30243 C 2855.25 -0.572107 3.54919 0
M  V30 30244 C 2854.92 0.547906 4.53704 0
M  V30 30245 C 2855.92 1.41268 5.00339 0
M  V30 30246 C 2853.6 0.721714 4.97088 0
M  V30 30247 C 2855.59 2.43617 5.89007 0
M  V30 30248 C 2853.28 1.74851 5.85551 0
M  V30 30249 C 2854.28 2.60415 6.31406 0
M  V30 30250 O 2853.97 3.61335 7.18117 0
M  V30 30251 H 2853.7 -0.0221817 0.675636 0
M  V30 30252 H 2856.25 0.583765 1.9693 0
M  V30 30253 H 2854.48 -1.36883 3.61663 0
M  V30 30254 H 2856.17 -1.07413 3.9143 0
M  V30 30255 H 2856.94 1.28982 4.67535 0
M  V30 30256 H 2852.82 0.0653721 4.60954 0
M  V30 30257 H 2856.36 3.10436 6.2472 0
M  V30 30258 H 2852.26 1.87167 6.17769 0
M  V30 30259 H 2853.03 3.57626 7.36238 0
M  V30 30260 N 2855.69 -1.56945 0.143591 0
M  V30 30261 C 2856.62 -2.12362 -0.83533 0
M  V30 30262 C 2857.6 -1.0463 -1.24465 0
M  V30 30263 O 2858.78 -1.32439 -1.34135 0
M  V30 30264 C 2855.91 -2.64052 -2.12118 0
M  V30 30265 C 2854.96 -3.83899 -1.85806 0
M  V30 30266 S 2855.79 -5.25062 -1.05213 0
M  V30 30267 C 2856.95 -5.80139 -2.34925 0
M  V30 30268 H 2857.18 -2.95063 -0.364057 0
M  V30 30269 H 2854.71 -1.54238 -0.0706329 0
M  V30 30270 H 2856.67 -2.94484 -2.85988 0
M  V30 30271 H 2855.33 -1.81488 -2.56361 0
M  V30 30272 H 2854.52 -4.18299 -2.81144 0
M  V30 30273 H 2854.13 -3.5421 -1.20046 0
M  V30 30274 H 2856.42 -5.91363 -3.306 0
M  V30 30275 H 2857.36 -6.77766 -2.05034 0
M  V30 30276 H 2857.77 -5.08361 -2.45417 0
M  V30 30277 N 2857.17 0.130197 -1.57061 0
M  V30 30278 C 2858.41 0.839939 -1.84259 0
M  V30 30279 C 2858.74 1.80401 -0.727018 0
M  V30 30280 O 2858 1.93649 0.282597 0
M  V30 30281 C 2858.3 1.63359 -3.17881 0
M  V30 30282 C 2857.96 0.814813 -4.43477 0
M  V30 30283 C 2856.62 0.588982 -4.77582 0
M  V30 30284 C 2858.98 0.243345 -5.20632 0
M  V30 30285 C 2856.3 -0.218751 -5.86292 0
M  V30 30286 C 2858.66 -0.551518 -6.30191 0
M  V30 30287 C 2857.32 -0.78777 -6.62835 0
M  V30 30288 H 2856.59 0.307356 -0.67425 0
M  V30 30289 H 2859.24 0.102798 -1.91224 0
M  V30 30290 H 2857.54 2.44133 -3.06442 0
M  V30 30291 H 2859.24 2.18652 -3.36144 0
M  V30 30292 H 2855.83 1.00091 -4.16749 0
M  V30 30293 H 2860.01 0.405058 -4.94644 0
M  V30 30294 H 2855.27 -0.411123 -6.10016 0
M  V30 30295 H 2859.44 -1.00138 -6.89163 0
M  V30 30296 H 2857.07 -1.4155 -7.46905 0
M  V30 30297 N 2858.65 1.52438 0.400055 0
M  V30 30298 C 2860.06 1.41443 0.739334 0
M  V30 30299 C 2860.26 0.526087 1.94511 0
M  V30 30300 O 2859.32 -0.00468063 2.525 0
M  V30 30301 C 2860.63 2.84117 0.984774 0
M  V30 30302 C 2862.18 2.93521 1.08693 0
M  V30 30303 C 2862.65 4.37184 1.36507 0
M  V30 30304 N 2864.14 4.40459 1.43353 0
M  V30 30305 C 2864.88 5.48689 1.66518 0
M  V30 30306 N 2864.38 6.67022 1.87227 0
M  V30 30307 N 2866.17 5.36216 1.68607 0
M  V30 30308 H 2858.32 2.08723 -0.39352 0
M  V30 30309 H 2860.58 0.941143 -0.113817 0
M  V30 30310 H 2860.29 3.51284 0.171035 0
M  V30 30311 H 2860.16 3.25708 1.90248 0
M  V30 30312 H 2862.55 2.2653 1.89125 0
M  V30 30313 H 2862.63 2.55375 0.147387 0
M  V30 30314 H 2862.27 5.04738 0.565893 0
M  V30 30315 H 2862.2 4.72874 2.31728 0
M  V30 30316 H 2864.7 3.55164 1.29102 0
M  V30 30317 H 2865.01 7.45284 2.04379 0
M  V30 30318 H 2863.35 6.7007 1.84474 0
M  V30 30319 H 2866.54 4.42744 1.51972 0
M  V30 30320 H 2866.72 6.20635 1.86321 0
M  V30 30321 N 2860.12 -0.657839 1.43214 0
M  V30 30322 C 2861.53 -1.2389 1.39671 0
M  V30 30323 C 2861.89 -1.95953 0.0984561 0
M  V30 30324 O 2861.01 -2.00979 -0.802265 0
M  V30 30325 C 2861.61 -2.25327 2.53008 0
M  V30 30326 C 2860.16 -2.78921 2.52745 0
M  V30 30327 C 2859.31 -1.53493 2.30944 0
M  V30 30328 H 2862.26 -0.450146 1.52182 0
M  V30 30329 H 2862.28 -3.07409 2.24232 0
M  V30 30330 H 2861.8 -1.7285 3.47483 0
M  V30 30331 H 2859.9 -3.35474 1.62136 0
M  V30 30332 H 2860.01 -3.26781 3.50358 0
M  V30 30333 H 2858.37 -1.80675 1.79524 0
M  V30 30334 H 2859.16 -1.02958 3.27498 0
M  V30 30335 N 2861.6 -1.29668 -0.895769 0
M  V30 30336 C 2862.85 -1.18042 -1.64906 0
M  V30 30337 C 2863.18 0.266648 -1.92361 0
M  V30 30338 O 2862.46 1.19211 -1.53684 0
M  V30 30339 C 2862.74 -1.99824 -2.9957 0
M  V30 30340 C 2862.59 -3.52692 -2.79156 0
M  V30 30341 C 2863.91 -1.82768 -4.00355 0
M  V30 30342 H 2861.03 -0.430175 -0.59843 0
M  V30 30343 H 2863.67 -1.59184 -1.03733 0
M  V30 30344 H 2861.82 -1.64865 -3.51784 0
M  V30 30345 H 2863.49 -3.97654 -2.33814 0
M  V30 30346 H 2861.74 -3.77418 -2.13864 0
M  V30 30347 H 2862.41 -4.05193 -3.74864 0
M  V30 30348 H 2864.88 -2.1331 -3.57265 0
M  V30 30349 H 2863.76 -2.42334 -4.92509 0
M  V30 30350 H 2864.02 -0.783916 -4.35094 0
M  V30 30351 N 2863.08 1.10667 -1.12208 0
M  V30 30352 C 2864.33 1.82847 -0.877204 0
M  V30 30353 C 2864.66 1.84843 0.595539 0
M  V30 30354 O 2863.93 1.30734 1.4401 0
M  V30 30355 C 2864.22 3.29633 -1.44963 0
M  V30 30356 C 2864.07 3.35984 -2.99057 0
M  V30 30357 C 2865.39 4.25945 -1.10722 0
M  V30 30358 H 2862.51 0.663849 -0.320115 0
M  V30 30359 H 2865.15 1.29717 -1.38829 0
M  V30 30360 H 2863.3 3.75008 -1.01495 0
M  V30 30361 H 2864.97 2.99107 -3.51188 0
M  V30 30362 H 2863.21 2.75956 -3.3471 0
M  V30 30363 H 2863.89 4.39333 -3.34201 0
M  V30 30364 H 2866.36 3.88791 -1.4826 0
M  V30 30365 H 2865.24 5.27018 -1.5344 0
M  V30 30366 H 2865.5 4.42096 -0.0190777 0
M  V30 30367 N 2864.56 0.913621 1.28416 0
M  V30 30368 C 2865.97 0.593268 1.77023 0
M  V30 30369 C 2866.32 -0.89141 1.74781 0
M  V30 30370 O 2865.44 -1.69731 1.3424 0
M  V30 30371 C 2866.04 1.07016 3.21454 0
M  V30 30372 C 2864.6 0.800729 3.67784 0
M  V30 30373 C 2863.75 1.23696 2.48183 0
M  V30 30374 H 2866.7 1.0949 1.14881 0
M  V30 30375 H 2866.72 0.411547 3.78268 0
M  V30 30376 H 2866.23 2.15075 3.23054 0
M  V30 30377 H 2864.33 -0.266659 3.71645 0
M  V30 30378 H 2864.44 1.40838 4.57932 0
M  V30 30379 H 2862.81 0.655699 2.46115 0
M  V30 30380 H 2863.59 2.32589 2.52502 0
M  V30 30381 N 2866.04 -1.4229 0.677588 0
M  V30 30382 C 2867 -2.29198 0.0101488 0
M  V30 30383 C 2868 -1.43468 -0.726193 0
M  V30 30384 O 2869.19 -1.64825 -0.563778 0
M  V30 30385 C 2866.32 -3.26018 -0.996259 0
M  V30 30386 H 2867.51 -2.8971 0.775122 0
M  V30 30387 H 2865.07 -1.49976 0.440091 0
M  V30 30388 H 2865.8 -2.70449 -1.78963 0
M  V30 30389 H 2865.59 -3.89253 -0.471618 0
M  V30 30390 H 2867.08 -3.91187 -1.4616 0
M  V30 30391 N 2867.51 -0.421104 -1.5187 0
M  V30 30392 C 2868.74 0.152334 -2.0684 0
M  V30 30393 C 2869.16 1.37081 -1.28804 0
M  V30 30394 O 2868.52 1.78426 -0.321513 0
M  V30 30395 C 2868.57 0.469305 -3.57533 0
M  V30 30396 O 2867.67 1.55842 -3.81821 0
M  V30 30397 H 2867.01 0.00897419 -0.663939 0
M  V30 30398 H 2869.54 -0.597759 -1.95673 0
M  V30 30399 H 2869.55 0.724482 -4.01516 0
M  V30 30400 H 2868.23 -0.421349 -4.1376 0
M  V30 30401 H 2866.81 1.29447 -3.49711 0
M  V30 30402 N 2868.99 1.56866 -0.151912 0
M  V30 30403 C 2869.96 2.15814 0.771823 0
M  V30 30404 C 2870.96 1.10117 1.17179 0
M  V30 30405 O 2872.15 1.35731 1.09191 0
M  V30 30406 C 2869.28 2.72524 2.04801 0
M  V30 30407 H 2870.47 2.9878 0.258969 0
M  V30 30408 H 2868.02 1.55995 0.0975606 0
M  V30 30409 H 2868.76 1.93238 2.60441 0
M  V30 30410 H 2868.54 3.49857 1.77038 0
M  V30 30411 H 2870.03 3.17925 2.70765 0
M  V30 30412 N 2870.47 -0.121866 1.57128 0
M  V30 30413 C 2871.88 -0.679317 1.73903 0
M  V30 30414 C 2872.23 -1.80452 0.770166 0
M  V30 30415 O 2871.36 -2.16323 -0.0575703 0
M  V30 30416 C 2871.95 -1.23905 3.1533 0
M  V30 30417 C 2870.51 -1.74282 3.33621 0
M  V30 30418 C 2869.66 -0.641366 2.69781 0
M  V30 30419 H 2872.61 0.104028 1.58359 0
M  V30 30420 H 2872.63 -2.10874 3.16722 0
M  V30 30421 H 2872.14 -0.419889 3.85822 0
M  V30 30422 H 2870.24 -2.58684 2.68166 0
M  V30 30423 H 2870.36 -1.85424 4.41763 0
M  V30 30424 H 2868.72 -1.07426 2.30937 0
M  V30 30425 H 2869.5 0.166767 3.42895 0
M  V30 30426 N 2871.95 -1.52648 -0.391965 0
M  V30 30427 C 2872.9 -1.73596 -1.47812 0
M  V30 30428 C 2873.88 -0.590006 -1.49692 0
M  V30 30429 O 2875.07 -0.847728 -1.55379 0
M  V30 30430 C 2872.2 -1.90556 -2.85558 0
M  V30 30431 C 2871.29 -3.11075 -2.88259 0
M  V30 30432 N 2871.68 -4.33478 -2.60634 0
M  V30 30433 C 2869.98 -3.1126 -3.19427 0
M  V30 30434 C 2870.68 -5.15063 -2.70342 0
M  V30 30435 N 2869.66 -4.50685 -3.03948 0
M  V30 30436 H 2873.46 -2.65863 -1.25276 0
M  V30 30437 H 2870.97 -1.50915 -0.599881 0
M  V30 30438 H 2872.97 -2.03685 -3.63756 0
M  V30 30439 H 2871.63 -0.995007 -3.09079 0
M  V30 30440 H 2872.64 -4.61662 -2.3471 0
M  V30 30441 H 2869.32 -2.30003 -3.48432 0
M  V30 30442 H 2870.71 -6.22628 -2.52554 0
M  V30 30443 N 2873.43 0.650235 -1.43561 0
M  V30 30444 C 2874.84 1.23148 -1.40326 0
M  V30 30445 C 2875.19 1.95898 -0.108847 0
M  V30 30446 O 2874.31 2.01402 0.791595 0
M  V30 30447 C 2874.91 2.23982 -2.54199 0
M  V30 30448 C 2873.47 2.77577 -2.5422 0
M  V30 30449 C 2872.61 1.52266 -2.31755 0
M  V30 30450 H 2875.57 0.442069 -1.52419 0
M  V30 30451 H 2875.59 3.06216 -2.25859 0
M  V30 30452 H 2875.1 1.71005 -3.48395 0
M  V30 30453 H 2873.2 3.34609 -1.63913 0
M  V30 30454 H 2873.31 3.24919 -3.52086 0
M  V30 30455 H 2871.68 1.7972 -1.80479 0
M  V30 30456 H 2872.46 1.01219 -3.28039 0
M  V30 30457 N 2874.9 1.30141 0.88888 0
M  V30 30458 C 2876.32 1.08387 1.17151 0
M  V30 30459 C 2876.52 -0.15789 2.0088 0
M  V30 30460 O 2875.58 -0.852611 2.3767 0
M  V30 30461 C 2876.89 2.34527 1.88196 0
M  V30 30462 C 2878.44 2.39952 2.00977 0
M  V30 30463 C 2878.91 3.65923 2.75435 0
M  V30 30464 N 2880.4 3.66708 2.82983 0
M  V30 30465 C 2881.14 4.60867 3.41158 0
M  V30 30466 N 2880.63 5.65367 4.00415 0
M  V30 30467 N 2882.43 4.48418 3.38936 0
M  V30 30468 H 2874.58 2.09813 0.330493 0
M  V30 30469 H 2876.84 0.924686 0.208948 0
M  V30 30470 H 2876.55 3.25125 1.34114 0
M  V30 30471 H 2876.42 2.42873 2.88605 0
M  V30 30472 H 2878.81 1.49835 2.54231 0
M  V30 30473 H 2878.89 2.35584 0.996684 0
M  V30 30474 H 2878.53 4.56398 2.22853 0
M  V30 30475 H 2878.46 3.67552 3.77111 0
M  V30 30476 H 2880.95 2.91157 2.40907 0
M  V30 30477 H 2881.27 6.3332 4.4286 0
M  V30 30478 H 2879.61 5.69164 3.98846 0
M  V30 30479 H 2882.8 3.65965 2.91869 0
M  V30 30480 H 2882.98 5.21981 3.83979 0
M  V30 30481 N 2876.38 -1.1007 1.12794 0
M  V30 30482 C 2877.79 -1.6361 0.899375 0
M  V30 30483 C 2878.14 -1.87873 -0.565514 0
M  V30 30484 O 2877.27 -1.6235 -1.43078 0
M  V30 30485 C 2877.86 -2.97224 1.62613 0
M  V30 30486 C 2876.42 -3.47616 1.44362 0
M  V30 30487 C 2875.57 -2.22153 1.65962 0
M  V30 30488 H 2878.52 -0.935201 1.28217 0
M  V30 30489 H 2878.54 -3.6487 1.07936 0
M  V30 30490 H 2878.05 -2.79533 2.69226 0
M  V30 30491 H 2876.16 -3.70444 0.400213 0
M  V30 30492 H 2876.27 -4.25485 2.20226 0
M  V30 30493 H 2874.63 -2.30482 1.08399 0
M  V30 30494 H 2875.42 -2.06988 2.73881 0
M  V30 30495 N 2877.86 -0.920419 -1.2793 0
M  V30 30496 C 2878.79 -0.431064 -2.29487 0
M  V30 30497 C 2879.77 0.504833 -1.62436 0
M  V30 30498 O 2880.96 0.411142 -1.89798 0
M  V30 30499 C 2878.09 0.323648 -3.45789 0
M  V30 30500 C 2877.04 -0.523732 -4.24784 0
M  V30 30501 C 2876.37 0.359716 -5.33489 0
M  V30 30502 C 2877.67 -1.78445 -4.90871 0
M  V30 30503 H 2879.36 -1.2798 -2.70669 0
M  V30 30504 H 2876.91 -0.616836 -1.3012 0
M  V30 30505 H 2878.86 0.676879 -4.15928 0
M  V30 30506 H 2877.58 1.20634 -3.03504 0
M  V30 30507 H 2876.24 -0.859572 -3.5638 0
M  V30 30508 H 2875.89 1.24115 -4.87447 0
M  V30 30509 H 2875.59 -0.203709 -5.87247 0
M  V30 30510 H 2877.11 0.708681 -6.06473 0
M  V30 30511 H 2878.53 -1.49973 -5.53336 0
M  V30 30512 H 2876.93 -2.2908 -5.54655 0
M  V30 30513 H 2878 -2.50831 -4.14984 0
M  V30 30514 N 2879.34 1.41929 -0.685124 0
M  V30 30515 C 2880.27 2.29185 0.0258276 0
M  V30 30516 C 2881.28 1.44232 0.755051 0
M  V30 30517 O 2882.47 1.67845 0.607491 0
M  V30 30518 C 2879.57 3.2188 1.0605 0
M  V30 30519 C 2878.75 4.35539 0.403011 0
M  V30 30520 C 2877.8 5.08882 1.33886 0
M  V30 30521 O 2876.83 5.63039 0.835227 0
M  V30 30522 N 2878.03 5.15364 2.67171 0
M  V30 30523 H 2880.8 2.90842 -0.723252 0
M  V30 30524 H 2878.36 1.52967 -0.530337 0
M  V30 30525 H 2880.35 3.67813 1.68806 0
M  V30 30526 H 2878.92 2.61603 1.71121 0
M  V30 30527 H 2878.14 3.92122 -0.404254 0
M  V30 30528 H 2879.43 5.08771 -0.0545992 0
M  V30 30529 H 2878.83 4.72793 3.10617 0
M  V30 30530 H 2877.38 5.64908 3.25149 0
M  V30 30531 N 2880.82 0.429152 1.51644 0
M  V30 30532 C 2881.73 -0.392768 2.31289 0
M  V30 30533 C 2882.74 -1.03523 1.39854 0
M  V30 30534 O 2883.92 -1.03238 1.72927 0
M  V30 30535 C 2880.98 -1.48367 3.1335 0
M  V30 30536 C 2880.04 -0.862194 4.20553 0
M  V30 30537 C 2879.28 -1.90111 4.98692 0
M  V30 30538 O 2879.5 -3.12217 4.77364 0
M  V30 30539 O 2878.43 -1.49619 5.83007 0
M  V30 30540 H 2882.26 0.257191 3.02609 0
M  V30 30541 H 2879.85 0.191877 1.48163 0
M  V30 30542 H 2881.73 -2.11653 3.64391 0
M  V30 30543 H 2880.4 -2.11786 2.44803 0
M  V30 30544 H 2879.31 -0.191502 3.7361 0
M  V30 30545 H 2880.64 -0.271618 4.9145 0
M  V30 30546 N 2882.29 -1.56783 0.160229 0
M  V30 30547 C 2883.54 -1.96834 -0.488276 0
M  V30 30548 C 2883.87 -1.04574 -1.6364 0
M  V30 30549 O 2883.15 -0.0906822 -1.94288 0
M  V30 30550 C 2883.43 -3.46456 -0.981847 0
M  V30 30551 C 2883.28 -4.49495 0.165686 0
M  V30 30552 C 2884.6 -3.98899 -1.85924 0
M  V30 30553 H 2881.72 -0.715673 -0.176014 0
M  V30 30554 H 2884.36 -1.88425 0.244127 0
M  V30 30555 H 2882.51 -3.53753 -1.60596 0
M  V30 30556 H 2884.19 -4.54267 0.802451 0
M  V30 30557 H 2882.43 -4.25924 0.822864 0
M  V30 30558 H 2883.1 -5.51555 -0.221602 0
M  V30 30559 H 2885.58 -3.94164 -1.3332 0
M  V30 30560 H 2884.45 -5.04028 -2.17364 0
M  V30 30561 H 2884.71 -3.42047 -2.801 0
M  V30 30562 N 2883.77 0.113531 -1.57191 0
M  V30 30563 C 2884.68 1.15773 -2.04043 0
M  V30 30564 C 2885.7 1.44999 -0.961837 0
M  V30 30565 O 2886.88 1.56007 -1.27373 0
M  V30 30566 C 2883.94 2.46304 -2.43999 0
M  V30 30567 C 2883 2.24426 -3.65966 0
M  V30 30568 C 2882.23 3.48733 -4.04006 0
M  V30 30569 O 2882.46 4.56253 -3.42329 0
M  V30 30570 O 2881.39 3.39411 -4.97075 0
M  V30 30571 H 2885.22 0.789848 -2.93249 0
M  V30 30572 H 2882.8 0.324722 -1.45828 0
M  V30 30573 H 2884.68 3.232 -2.70407 0
M  V30 30574 H 2883.36 2.82555 -1.57937 0
M  V30 30575 H 2882.27 1.45371 -3.447 0
M  V30 30576 H 2883.6 1.93076 -4.5275 0
M  V30 30577 N 2885.25 1.52854 0.383864 0
M  V30 30578 C 2886.18 1.72754 1.49102 0
M  V30 30579 C 2887.16 0.575464 1.52076 0
M  V30 30580 O 2888.35 0.805884 1.70405 0
M  V30 30581 C 2885.47 1.7898 2.87548 0
M  V30 30582 C 2884.52 3.00782 3.02378 0
M  V30 30583 S 2885.35 4.60662 2.7304 0
M  V30 30584 C 2886.51 4.69711 4.1367 0
M  V30 30585 H 2886.74 2.66391 1.31997 0
M  V30 30586 H 2884.27 1.43211 0.577063 0
M  V30 30587 H 2886.23 1.83253 3.67326 0
M  V30 30588 H 2884.89 0.864268 3.01976 0
M  V30 30589 H 2884.09 3.01695 4.03728 0
M  V30 30590 H 2883.69 2.94527 2.30499 0
M  V30 30591 H 2885.98 4.48641 5.07668 0
M  V30 30592 H 2886.92 5.71729 4.1777 0
M  V30 30593 H 2887.33 3.98504 3.99818 0
M  V30 30594 N 2886.73 -0.642612 1.43904 0
M  V30 30595 C 2887.64 -1.78399 1.52352 0
M  V30 30596 C 2888.66 -1.69103 0.409899 0
M  V30 30597 O 2889.83 -1.90084 0.665581 0
M  V30 30598 C 2886.9 -3.14731 1.45414 0
M  V30 30599 C 2885.96 -3.35744 2.67533 0
M  V30 30600 C 2885.19 -4.65573 2.60917 0
M  V30 30601 O 2885.41 -5.45626 1.6628 0
M  V30 30602 O 2884.35 -4.88538 3.51589 0
M  V30 30603 H 2888.17 -1.74225 2.48755 0
M  V30 30604 H 2885.76 -0.802417 1.26022 0
M  V30 30605 H 2887.64 -3.96023 1.44026 0
M  V30 30606 H 2886.32 -3.19472 0.521494 0
M  V30 30607 H 2885.22 -2.54175 2.74492 0
M  V30 30608 H 2886.56 -3.35858 3.59806 0
M  V30 30609 N 2888.21 -1.30611 -0.881966 0
M  V30 30610 C 2889.44 -1.22539 -1.66708 0
M  V30 30611 C 2889.85 0.211267 -1.87614 0
M  V30 30612 O 2889.21 1.1392 -1.42578 0
M  V30 30613 C 2889.26 -1.9534 -3.04178 0
M  V30 30614 O 2888.98 -3.33398 -2.84214 0
M  V30 30615 C 2890.48 -1.93963 -3.98614 0
M  V30 30616 H 2887.7 -0.423934 -0.520116 0
M  V30 30617 H 2890.24 -1.72287 -1.10171 0
M  V30 30618 H 2888.4 -1.49384 -3.5744 0
M  V30 30619 H 2888.81 -3.70309 -3.71446 0
M  V30 30620 H 2890.29 -2.49435 -4.92429 0
M  V30 30621 H 2890.76 -0.919273 -4.29472 0
M  V30 30622 H 2891.37 -2.39744 -3.51287 0
M  V30 30623 N 2889.69 1.0947 -1.13376 0
M  V30 30624 C 2890.92 1.85132 -0.917052 0
M  V30 30625 C 2891.32 1.81403 0.537536 0
M  V30 30626 O 2890.67 1.20814 1.38383 0
M  V30 30627 C 2890.73 3.34131 -1.32652 0
M  V30 30628 C 2890.39 3.61608 -2.79444 0
M  V30 30629 C 2891.39 3.57368 -3.77603 0
M  V30 30630 C 2889.07 3.89967 -3.16593 0
M  V30 30631 C 2891.07 3.81099 -5.10923 0
M  V30 30632 C 2888.76 4.13353 -4.50092 0
M  V30 30633 C 2889.75 4.08911 -5.47066 0
M  V30 30634 O 2889.44 4.31693 -6.78157 0
M  V30 30635 H 2889.17 0.591644 -0.327008 0
M  V30 30636 H 2891.73 1.39236 -1.51005 0
M  V30 30637 H 2889.96 3.80732 -0.676786 0
M  V30 30638 H 2891.65 3.91203 -1.08236 0
M  V30 30639 H 2892.41 3.35486 -3.50248 0
M  V30 30640 H 2888.29 3.9255 -2.41714 0
M  V30 30641 H 2891.84 3.77548 -5.86603 0
M  V30 30642 H 2887.73 4.34716 -4.77171 0
M  V30 30643 H 2888.5 4.49156 -6.84252 0
M  V30 30644 N 2891.16 0.92719 1.2744 0
M  V30 30645 C 2892.41 0.566237 1.94006 0
M  V30 30646 C 2892.73 -0.895314 1.73231 0
M  V30 30647 O 2892 -1.63457 1.07976 0
M  V30 30648 H 2890.58 0.206422 0.717913 0
M  V30 30649 H 2893.24 1.17947 1.55159 0
M  V30 30650 H 2892.34 0.772082 3.02399 0
M  V30 30651 N 2892.64 -1.41564 0.692641 0
M  V30 30652 C 2893.6 -2.29174 0.0344577 0
M  V30 30653 C 2894.6 -1.4423 -0.710936 0
M  V30 30654 O 2895.79 -1.65413 -0.546264 0
M  V30 30655 C 2892.93 -3.27056 -0.961624 0
M  V30 30656 H 2894.12 -2.88872 0.805806 0
M  V30 30657 H 2891.67 -1.49501 0.455973 0
M  V30 30658 H 2892.41 -2.72332 -1.76084 0
M  V30 30659 H 2892.19 -3.89732 -0.430306 0
M  V30 30660 H 2893.68 -3.92715 -1.42003 0
M  V30 30661 N 2894.12 -0.437188 -1.51415 0
M  V30 30662 C 2895.37 0.129073 -2.01687 0
M  V30 30663 C 2895.69 1.43225 -1.32332 0
M  V30 30664 O 2894.96 1.90475 -0.457829 0
M  V30 30665 H 2893.54 0.0506892 -0.745278 0
M  V30 30666 H 2896.2 -0.579861 -1.86074 0
M  V30 30667 H 2895.3 0.305087 -3.10605 0
M  V30 30668 N 2895.6 1.56696 -0.168541 0
M  V30 30669 C 2896.83 2.01172 0.483468 0
M  V30 30670 C 2897.24 1.04875 1.56992 0
M  V30 30671 O 2896.6 0.0491658 1.82434 0
M  V30 30672 C 2896.65 3.45476 1.06434 0
M  V30 30673 O 2896.37 4.38095 0.0212604 0
M  V30 30674 C 2897.87 4.05339 1.79485 0
M  V30 30675 H 2895.09 0.659445 0.123991 0
M  V30 30676 H 2897.63 2.02717 -0.269455 0
M  V30 30677 H 2895.79 3.44715 1.76778 0
M  V30 30678 H 2896.2 5.22568 0.449745 0
M  V30 30679 H 2897.68 5.08242 2.15392 0
M  V30 30680 H 2898.15 3.47273 2.68883 0
M  V30 30681 H 2898.76 4.09795 1.1379 0
M  V30 30682 N 2897.08 -0.105193 1.57249 0
M  V30 30683 C 2898.49 -0.660834 1.74613 0
M  V30 30684 C 2898.84 -1.79625 0.789262 0
M  V30 30685 O 2897.96 -2.16372 -0.034623 0
M  V30 30686 C 2898.56 -1.20553 3.16626 0
M  V30 30687 C 2897.12 -1.70734 3.3545 0
M  V30 30688 C 2896.26 -0.612716 2.70446 0
M  V30 30689 H 2899.21 0.120818 1.58239 0
M  V30 30690 H 2899.24 -2.07502 3.1894 0
M  V30 30691 H 2898.75 -0.378944 3.86246 0
M  V30 30692 H 2896.85 -2.55826 2.70895 0
M  V30 30693 H 2896.96 -1.80728 4.43705 0
M  V30 30694 H 2895.33 -1.04971 2.32063 0
M  V30 30695 H 2896.11 0.203127 3.42699 0
M  V30 30696 N 2898.55 -1.53055 -0.375752 0
M  V30 30697 C 2899.48 -1.81748 -1.46594 0
M  V30 30698 C 2900.47 -0.670314 -1.56336 0
M  V30 30699 O 2901.65 -0.919188 -1.71069 0
M  V30 30700 C 2898.78 -1.99826 -2.84054 0
M  V30 30701 C 2897.73 -3.15562 -2.89145 0
M  V30 30702 C 2897.06 -3.18915 -4.29182 0
M  V30 30703 C 2898.36 -4.54363 -2.57587 0
M  V30 30704 H 2900.05 -2.73043 -1.22832 0
M  V30 30705 H 2897.6 -1.31382 -0.589462 0
M  V30 30706 H 2899.55 -2.18482 -3.60338 0
M  V30 30707 H 2898.28 -1.05232 -3.09183 0
M  V30 30708 H 2896.94 -2.9671 -2.15311 0
M  V30 30709 H 2896.58 -2.21978 -4.5137 0
M  V30 30710 H 2896.28 -3.9667 -4.33505 0
M  V30 30711 H 2897.81 -3.39742 -5.07353 0
M  V30 30712 H 2899.22 -4.73249 -3.23587 0
M  V30 30713 H 2897.62 -5.34283 -2.73242 0
M  V30 30714 H 2898.69 -4.60171 -1.52874 0
M  V30 30715 N 2900.03 0.634971 -1.44242 0
M  V30 30716 C 2901.28 1.39185 -1.46533 0
M  V30 30717 C 2901.6 1.94755 -0.0976783 0
M  V30 30718 O 2900.87 1.75546 0.869497 0
M  V30 30719 H 2899.45 0.516615 -0.539553 0
M  V30 30720 H 2902.11 0.747623 -1.79991 0
M  V30 30721 H 2901.21 2.22509 -2.18852 0
M  V30 30722 N 2901.51 1.31076 0.875027 0
M  V30 30723 C 2902.74 1.23553 1.66581 0
M  V30 30724 C 2903.16 -0.196827 1.87067 0
M  V30 30725 O 2902.52 -1.14117 1.40879 0
M  V30 30726 C 2902.57 1.9797 3.01397 0
M  V30 30727 O 2901.67 1.31358 3.9092 0
M  V30 30728 H 2901.01 0.42683 0.508638 0
M  V30 30729 H 2903.54 1.73062 1.09136 0
M  V30 30730 H 2903.55 2.07372 3.5137 0
M  V30 30731 H 2902.23 3.02138 2.85806 0
M  V30 30732 H 2900.8 1.30374 3.49366 0
M  V30 30733 N 2902.99 -1.08867 1.13955 0
M  V30 30734 C 2904.23 -1.81428 0.906183 0
M  V30 30735 C 2904.57 -1.85767 -0.566057 0
M  V30 30736 O 2903.84 -1.33008 -1.41912 0
M  V30 30737 C 2904.13 -3.27285 1.50189 0
M  V30 30738 C 2903.98 -3.31183 3.04364 0
M  V30 30739 C 2905.3 -4.24129 1.17484 0
M  V30 30740 H 2902.42 -0.658672 0.330636 0
M  V30 30741 H 2905.06 -1.27492 1.40875 0
M  V30 30742 H 2903.21 -3.73346 1.07448 0
M  V30 30743 H 2904.88 -2.93482 3.55902 0
M  V30 30744 H 2903.12 -2.70596 3.39058 0
M  V30 30745 H 2903.79 -4.3396 3.41149 0
M  V30 30746 H 2906.27 -3.86383 1.54427 0
M  V30 30747 H 2905.15 -5.2451 1.61805 0
M  V30 30748 H 2905.41 -4.4201 0.0894089 0
M  V30 30749 N 2904.47 -0.933936 -1.26946 0
M  V30 30750 C 2905.43 -0.442497 -2.24888 0
M  V30 30751 C 2906.43 0.442399 -1.54595 0
M  V30 30752 O 2907.62 0.242599 -1.72502 0
M  V30 30753 C 2904.75 0.363114 -3.38961 0
M  V30 30754 H 2905.94 -1.30792 -2.69877 0
M  V30 30755 H 2903.5 -0.715211 -1.38976 0
M  V30 30756 H 2904.23 1.24709 -2.99363 0
M  V30 30757 H 2904.02 -0.271435 -3.91159 0
M  V30 30758 H 2905.51 0.697114 -4.1174 0
M  V30 30759 N 2905.94 1.41194 -0.700139 0
M  V30 30760 C 2907.17 2.05998 -0.240741 0
M  V30 30761 C 2907.59 1.52359 1.1031 0
M  V30 30762 O 2906.95 0.652454 1.69153 0
M  V30 30763 C 2907 3.59965 -0.213846 0
M  V30 30764 O 2906.1 4.0437 0.809862 0
M  V30 30765 H 2905.45 0.653703 -0.116482 0
M  V30 30766 H 2907.98 1.80877 -0.956283 0
M  V30 30767 H 2907.99 4.07974 -0.0462569 0
M  V30 30768 H 2906.66 3.98374 -1.19461 0
M  V30 30769 H 2905.24 3.67856 0.611255 0
M  V30 30770 N 2907.42 0.445212 1.51181 0
M  V30 30771 C 2908.67 -0.118785 2.02452 0
M  V30 30772 C 2909 -1.41671 1.32827 0
M  V30 30773 O 2908.28 -1.89325 0.44567 0
M  V30 30774 C 2908.56 -0.329412 3.5859 0
M  V30 30775 C 2908.41 0.987715 4.38821 0
M  V30 30776 C 2909.73 -1.09567 4.26243 0
M  V30 30777 H 2906.85 -0.0416963 0.73582 0
M  V30 30778 H 2909.49 0.585749 1.80746 0
M  V30 30779 H 2907.64 -0.929534 3.77216 0
M  V30 30780 H 2909.31 1.62242 4.31828 0
M  V30 30781 H 2907.56 1.59048 4.03592 0
M  V30 30782 H 2908.23 0.794288 5.46255 0
M  V30 30783 H 2910.7 -0.587255 4.11935 0
M  V30 30784 H 2909.58 -1.21182 5.35356 0
M  V30 30785 H 2909.84 -2.12577 3.87638 0
M  V30 30786 N 2908.9 -1.56605 0.176849 0
M  V30 30787 C 2909.85 -2.1483 -0.763681 0
M  V30 30788 C 2910.83 -1.08403 -1.18901 0
M  V30 30789 O 2912.03 -1.34512 -1.15045 0
M  V30 30790 C 2909.16 -2.79693 -1.99064 0
M  V30 30791 C 2908.24 -3.93286 -1.58704 0
M  V30 30792 N 2908.63 -4.97849 -0.893335 0
M  V30 30793 C 2906.93 -4.04549 -1.87767 0
M  V30 30794 C 2907.63 -5.77548 -0.693765 0
M  V30 30795 N 2906.61 -5.29341 -1.2369 0
M  V30 30796 H 2910.41 -2.93039 -0.22476 0
M  V30 30797 H 2907.92 -1.62383 -0.0236278 0
M  V30 30798 H 2909.92 -3.19787 -2.67473 0
M  V30 30799 H 2908.58 -2.02967 -2.53445 0
M  V30 30800 H 2909.59 -5.14963 -0.550777 0
M  V30 30801 H 2906.27 -3.38931 -2.43787 0
M  V30 30802 H 2907.66 -6.71744 -0.144781 0
M  V30 30803 N 2910.38 0.0968524 -1.57302 0
M  V30 30804 C 2911.6 0.818135 -1.90582 0
M  V30 30805 C 2912.03 1.71575 -0.770951 0
M  V30 30806 O 2911.39 1.79163 0.277557 0
M  V30 30807 C 2911.43 1.60893 -3.22716 0
M  V30 30808 O 2910.54 2.71773 -3.10182 0
M  V30 30809 H 2909.88 0.224871 -0.624763 0
M  V30 30810 H 2912.41 0.072604 -2.04471 0
M  V30 30811 H 2912.42 1.99352 -3.55981 0
M  V30 30812 H 2911.09 0.950156 -4.04901 0
M  V30 30813 H 2909.67 2.36355 -2.88428 0
M  V30 30814 N 2911.86 1.53252 0.36763 0
M  V30 30815 C 2913.27 1.61045 0.944535 0
M  V30 30816 C 2913.62 0.476579 1.90324 0
M  V30 30817 O 2912.74 -0.397296 2.12722 0
M  V30 30818 C 2913.34 2.91901 1.71987 0
M  V30 30819 C 2911.9 3.02035 2.24614 0
M  V30 30820 C 2911.04 2.56326 1.05795 0
M  V30 30821 H 2914 1.58022 0.146489 0
M  V30 30822 H 2914.02 2.79588 2.5809 0
M  V30 30823 H 2913.53 3.74406 1.02185 0
M  V30 30824 H 2911.63 2.24114 2.97664 0
M  V30 30825 H 2911.74 4.07077 2.52636 0
M  V30 30826 H 2910.11 2.11152 1.42432 0
M  V30 30827 H 2910.89 3.41246 0.374948 0
M  V30 30828 N 2913.34 -0.627313 1.44577 0
M  V30 30829 C 2914.75 -1.209 1.42268 0
M  V30 30830 C 2915.1 -1.957 0.139998 0
M  V30 30831 O 2914.22 -2.02636 -0.759454 0
M  V30 30832 C 2914.82 -2.1991 2.57731 0
M  V30 30833 C 2913.38 -2.73498 2.58604 0
M  V30 30834 C 2912.52 -1.4856 2.34148 0
M  V30 30835 H 2915.47 -0.417764 1.53103 0
M  V30 30836 H 2915.5 -3.02584 2.30702 0
M  V30 30837 H 2915.01 -1.65441 3.51071 0
M  V30 30838 H 2913.11 -3.31959 1.69216 0
M  V30 30839 H 2913.22 -3.19276 3.57211 0
M  V30 30840 H 2911.59 -1.76826 1.83316 0
M  V30 30841 H 2912.37 -0.959877 3.29608 0
M  V30 30842 N 2914.81 -1.31539 -0.868063 0
M  V30 30843 C 2915.78 -1.19306 -1.95701 0
M  V30 30844 C 2916.78 -0.11964 -1.60354 0
M  V30 30845 O 2917.97 -0.36905 -1.70246 0
M  V30 30846 C 2915.1 -0.831742 -3.30598 0
M  V30 30847 H 2916.29 -2.16067 -2.07978 0
M  V30 30848 H 2913.84 -1.15177 -1.05659 0
M  V30 30849 H 2914.58 0.134637 -3.2402 0
M  V30 30850 H 2914.36 -1.60767 -3.57626 0
M  V30 30851 H 2915.85 -0.770098 -4.10438 0
M  V30 30852 N 2916.29 1.08262 -1.1453 0
M  V30 30853 C 2917.2 2.18764 -0.847318 0
M  V30 30854 C 2918.22 1.7314 0.172795 0
M  V30 30855 O 2919.39 2.014 0.000949935 0
M  V30 30856 C 2916.46 3.45119 -0.330693 0
M  V30 30857 C 2915.52 4.05361 -1.41355 0
M  V30 30858 C 2914.75 5.25685 -0.92148 0
M  V30 30859 O 2914.98 5.6991 0.236487 0
M  V30 30860 O 2913.91 5.77361 -1.70111 0
M  V30 30861 H 2917.74 2.46728 -1.77085 0
M  V30 30862 H 2915.32 1.17424 -0.923682 0
M  V30 30863 H 2917.2 4.21372 -0.0485793 0
M  V30 30864 H 2915.88 3.18729 0.565091 0
M  V30 30865 H 2914.78 3.3069 -1.74914 0
M  V30 30866 H 2916.12 4.36003 -2.28391 0
M  V30 30867 N 2917.77 0.940655 1.26449 0
M  V30 30868 C 2918.99 0.604155 1.98405 0
M  V30 30869 C 2919.42 -0.81379 1.69585 0
M  V30 30870 O 2918.78 -1.5481 0.943581 0
M  V30 30871 C 2918.83 0.852197 3.50385 0
M  V30 30872 O 2917.93 -0.0759406 4.1233 0
M  V30 30873 H 2917.27 0.231164 0.622462 0
M  V30 30874 H 2919.8 1.26344 1.60929 0
M  V30 30875 H 2919.81 0.772887 4.00613 0
M  V30 30876 H 2918.49 1.88572 3.70693 0
M  V30 30877 H 2917.06 0.0543843 3.7286 0
M  V30 30878 N 2919.25 -1.40821 0.707617 0
M  V30 30879 C 2920.49 -2.0289 0.248021 0
M  V30 30880 C 2920.85 -1.54874 -1.13481 0
M  V30 30881 O 2922.05 -2.08951 -1.69095 0
M  V30 30882 C 2920.32 -3.55997 0.316388 0
M  V30 30883 S 2921.88 -4.38748 -0.0673927 0
M  V30 30884 H 2918.7 -0.704079 0.0989624 0
M  V30 30885 H 2921.3 -1.72067 0.928069 0
M  V30 30886 H 2920.01 -3.88436 1.32459 0
M  V30 30887 H 2919.54 -3.91537 -0.382406 0
M  V30 30888 H 2921.55 -4.79092 -1.29173 0
M  V30 30889 N 2920.73 -0.453223 -1.50943 0
M  V30 30890 C 2921.69 0.338665 -2.26684 0
M  V30 30891 C 2922.69 0.936009 -1.3075 0
M  V30 30892 O 2923.88 0.807975 -1.54329 0
M  V30 30893 C 2921.01 1.48066 -3.07066 0
M  V30 30894 H 2922.2 -0.325342 -2.9813 0
M  V30 30895 H 2919.76 -0.206798 -1.54926 0
M  V30 30896 H 2920.49 2.18025 -2.40074 0
M  V30 30897 H 2920.28 1.05833 -3.77547 0
M  V30 30898 H 2921.77 2.03973 -3.64396 0
M  V30 30899 N 2922.2 1.56509 -0.185151 0
M  V30 30900 C 2923.43 2.02114 0.465242 0
M  V30 30901 C 2923.85 1.0645 1.55081 0
M  V30 30902 O 2923.21 0.0463171 1.81241 0
M  V30 30903 C 2923.26 3.46231 1.00778 0
M  V30 30904 O 2922.36 3.53667 2.12117 0
M  V30 30905 H 2921.7 0.654845 0.10988 0
M  V30 30906 H 2924.23 2.0249 -0.293108 0
M  V30 30907 H 2924.24 3.8582 1.32691 0
M  V30 30908 H 2922.92 4.15354 0.21304 0
M  V30 30909 H 2921.5 3.25946 1.81144 0
M  V30 30910 N 2923.68 -0.0885089 1.57351 0
M  V30 30911 C 2924.61 -1.10753 2.05562 0
M  V30 30912 C 2925.59 -1.4138 0.945814 0
M  V30 30913 O 2926.78 -1.51296 1.2175 0
M  V30 30914 C 2923.91 -2.42562 2.48558 0
M  V30 30915 C 2922.86 -2.26328 3.63263 0
M  V30 30916 C 2922.19 -3.63371 3.92257 0
M  V30 30917 C 2923.49 -1.69836 4.93916 0
M  V30 30918 H 2925.18 -0.706417 2.90947 0
M  V30 30919 H 2922.73 -0.33836 1.39968 0
M  V30 30920 H 2924.68 -3.14127 2.80895 0
M  V30 30921 H 2923.4 -2.84622 1.60181 0
M  V30 30922 H 2922.06 -1.57207 3.31182 0
M  V30 30923 H 2921.71 -4.02971 3.01037 0
M  V30 30924 H 2921.41 -3.53353 4.69484 0
M  V30 30925 H 2922.94 -4.36394 4.27075 0
M  V30 30926 H 2924.35 -2.31248 5.24592 0
M  V30 30927 H 2922.75 -1.70559 5.75352 0
M  V30 30928 H 2923.82 -0.658346 4.8041 0
M  V30 30929 N 2925.16 -1.53445 -0.359498 0
M  V30 30930 C 2926.09 -1.76604 -1.46095 0
M  V30 30931 C 2927.1 -0.646939 -1.49394 0
M  V30 30932 O 2928.29 -0.923334 -1.52764 0
M  V30 30933 C 2925.39 -1.8364 -2.84832 0
M  V30 30934 C 2924.57 -3.13364 -3.05159 0
M  V30 30935 C 2923.63 -3.11563 -4.24046 0
M  V30 30936 O 2922.65 -3.85342 -4.18928 0
M  V30 30937 N 2923.85 -2.32809 -5.31771 0
M  V30 30938 H 2926.62 -2.71646 -1.26605 0
M  V30 30939 H 2924.18 -1.52298 -0.549267 0
M  V30 30940 H 2926.17 -1.79906 -3.62513 0
M  V30 30941 H 2924.74 -0.958562 -2.97541 0
M  V30 30942 H 2923.96 -3.30351 -2.15085 0
M  V30 30943 H 2925.25 -3.99082 -3.15612 0
M  V30 30944 H 2924.65 -1.7239 -5.38793 0
M  V30 30945 H 2923.2 -2.34888 -6.08006 0
M  V30 30946 N 2926.64 0.619637 -1.44908 0
M  V30 30947 C 2927.89 1.37498 -1.47571 0
M  V30 30948 C 2928.2 1.95251 -0.116741 0
M  V30 30949 O 2929.41 2.71492 -0.0209567 0
M  V30 30950 C 2927.86 2.49004 -2.59855 0
M  V30 30951 C 2927.47 1.97715 -4.02011 0
M  V30 30952 C 2929.21 3.26115 -2.71752 0
M  V30 30953 C 2927.12 3.06632 -5.05699 0
M  V30 30954 H 2926.05 0.51675 -0.549077 0
M  V30 30955 H 2928.7 0.665407 -1.7101 0
M  V30 30956 H 2927.08 3.2259 -2.29677 0
M  V30 30957 H 2928.26 1.30918 -4.41811 0
M  V30 30958 H 2926.57 1.33385 -3.94458 0
M  V30 30959 H 2929.17 4.07331 -3.46389 0
M  V30 30960 H 2929.51 3.76343 -1.77966 0
M  V30 30961 H 2930.05 2.59624 -3.01397 0
M  V30 30962 H 2926.78 2.61335 -6.01152 0
M  V30 30963 H 2926.3 3.72033 -4.7048 0
M  V30 30964 H 2927.98 3.71216 -5.29913 0
M  V30 30965 N 2928.12 1.31997 0.861075 0
M  V30 30966 C 2929.53 1.19957 1.43063 0
M  V30 30967 C 2929.88 -0.190455 1.95273 0
M  V30 30968 O 2929 -1.08879 1.87014 0
M  V30 30969 C 2929.6 2.17164 2.60048 0
M  V30 30970 C 2928.16 2.09031 3.13022 0
M  V30 30971 C 2927.3 2.05892 1.85752 0
M  V30 30972 H 2930.26 1.43919 0.668809 0
M  V30 30973 H 2930.28 1.76643 3.37013 0
M  V30 30974 H 2929.79 3.18323 2.22018 0
M  V30 30975 H 2927.89 1.11098 3.55651 0
M  V30 30976 H 2928 2.98555 3.74702 0
M  V30 30977 H 2926.37 1.51036 2.05086 0
M  V30 30978 H 2927.15 3.08821 1.49948 0
M  V30 30979 N 2929.59 -1.07653 1.15103 0
M  V30 30980 C 2930.52 -2.16771 0.867902 0
M  V30 30981 C 2931.51 -1.69142 -0.180253 0
M  V30 30982 O 2932.69 -1.94168 -0.0352811 0
M  V30 30983 C 2929.82 -3.45501 0.35305 0
M  V30 30984 C 2928.77 -4.06564 1.33753 0
M  V30 30985 C 2928.1 -5.30337 0.681656 0
M  V30 30986 C 2929.4 -4.46949 2.70248 0
M  V30 30987 H 2931.09 -2.40713 1.78039 0
M  V30 30988 H 2928.64 -1.15688 0.857455 0
M  V30 30989 H 2930.59 -4.21159 0.142539 0
M  V30 30990 H 2929.32 -3.21136 -0.594888 0
M  V30 30991 H 2927.98 -3.32946 1.53435 0
M  V30 30992 H 2927.62 -5.02262 -0.272334 0
M  V30 30993 H 2927.32 -5.72149 1.33863 0
M  V30 30994 H 2928.85 -6.08704 0.480847 0
M  V30 30995 H 2930.26 -5.1375 2.54429 0
M  V30 30996 H 2928.66 -4.99703 3.32291 0
M  V30 30997 H 2929.73 -3.58465 3.26544 0
M  V30 30998 N 2931.07 -0.947348 -1.25949 0
M  V30 30999 C 2932.04 -0.466324 -2.24406 0
M  V30 31000 C 2933.04 0.425978 -1.55055 0
M  V30 31001 O 2934.23 0.224289 -1.7275 0
M  V30 31002 C 2931.36 0.327142 -3.39327 0
M  V30 31003 H 2932.55 -1.33647 -2.68474 0
M  V30 31004 H 2930.1 -0.729911 -1.3821 0
M  V30 31005 H 2930.84 1.21527 -3.00669 0
M  V30 31006 H 2930.62 -0.312907 -3.90849 0
M  V30 31007 H 2932.11 0.653404 -4.12457 0
M  V30 31008 N 2932.55 1.40444 -0.715075 0
M  V30 31009 C 2933.8 2.01194 -0.25474 0
M  V30 31010 C 2934.13 1.56569 1.14891 0
M  V30 31011 O 2933.4 0.785522 1.77932 0
M  V30 31012 C 2933.69 3.58546 -0.334211 0
M  V30 31013 C 2933.54 4.13245 -1.7762 0
M  V30 31014 C 2934.86 4.39111 0.294891 0
M  V30 31015 H 2931.98 0.730976 -0.0940379 0
M  V30 31016 H 2934.62 1.66928 -0.907479 0
M  V30 31017 H 2932.77 3.87868 0.221541 0
M  V30 31018 H 2934.44 3.94722 -2.3873 0
M  V30 31019 H 2932.69 3.67552 -2.30408 0
M  V30 31020 H 2933.36 5.22404 -1.7832 0
M  V30 31021 H 2935.83 4.15716 -0.178636 0
M  V30 31022 H 2934.71 5.48503 0.208838 0
M  V30 31023 H 2934.97 4.20065 1.37834 0
M  V30 31024 N 2934.03 0.461222 1.507 0
M  V30 31025 C 2935.25 -0.0974409 2.07171 0
M  V30 31026 C 2935.68 -1.33617 1.32393 0
M  V30 31027 O 2935.04 -1.77511 0.368707 0
M  V30 31028 C 2935.08 -0.374346 3.58652 0
M  V30 31029 O 2934.19 -1.45664 3.85818 0
M  V30 31030 H 2933.53 0.00863214 0.663944 0
M  V30 31031 H 2936.06 0.649428 1.9402 0
M  V30 31032 H 2936.07 -0.617772 4.03296 0
M  V30 31033 H 2934.74 0.530902 4.12498 0
M  V30 31034 H 2933.32 -1.2013 3.5302 0
M  V30 31035 N 2935.51 -1.56408 0.193449 0
M  V30 31036 C 2936.73 -2.02358 -0.454517 0
M  V30 31037 C 2937.16 -1.07271 -1.54514 0
M  V30 31038 O 2936.51 -0.055928 -1.81214 0
M  V30 31039 C 2936.56 -3.46761 -0.989408 0
M  V30 31040 O 2935.67 -3.54787 -2.10238 0
M  V30 31041 H 2935.01 -0.655419 -0.106405 0
M  V30 31042 H 2937.54 -2.02331 0.303842 0
M  V30 31043 H 2937.55 -3.86518 -1.30643 0
M  V30 31044 H 2936.22 -4.15461 -0.19101 0
M  V30 31045 H 2934.8 -3.26903 -1.79413 0
M  V30 31046 N 2936.98 0.0801629 -1.57396 0
M  V30 31047 C 2938.4 0.632971 -1.75643 0
M  V30 31048 C 2938.75 1.78346 -0.817739 0
M  V30 31049 O 2937.87 2.164 0.000195706 0
M  V30 31050 C 2938.47 1.15501 -3.18504 0
M  V30 31051 C 2937.03 1.65375 -3.38124 0
M  V30 31052 C 2936.17 0.569613 -2.71387 0
M  V30 31053 H 2939.12 -0.145977 -1.58027 0
M  V30 31054 H 2939.14 2.02402 -3.22201 0
M  V30 31055 H 2938.66 0.317447 -3.868 0
M  V30 31056 H 2936.76 2.51484 -2.7493 0
M  V30 31057 H 2936.87 1.73646 -4.46524 0
M  V30 31058 H 2935.23 1.01266 -2.33704 0
M  V30 31059 H 2936.02 -0.257621 -3.42332 0
M  V30 31060 N 2938.46 1.53634 0.351355 0
M  V30 31061 C 2939.43 1.80385 1.41399 0
M  V30 31062 C 2940.43 0.67466 1.45962 0
M  V30 31063 O 2941.62 0.94292 1.46474 0
M  V30 31064 C 2938.75 1.93881 2.80398 0
M  V30 31065 H 2939.94 2.75303 1.18946 0
M  V30 31066 H 2937.49 1.44927 0.585304 0
M  V30 31067 H 2938.23 1.01079 3.08145 0
M  V30 31068 H 2938.01 2.76025 2.78483 0
M  V30 31069 H 2939.5 2.16122 3.57325 0
M  V30 31070 N 2939.94 -0.611943 1.45234 0
M  V30 31071 C 2941.36 -0.932228 1.29544 0
M  V30 31072 C 2941.56 -2.00002 0.245265 0
M  V30 31073 O 2940.61 -2.49887 -0.362289 0
M  V30 31074 C 2941.93 -1.37729 2.67304 0
M  V30 31075 C 2943.47 -1.49173 2.75166 0
M  V30 31076 C 2943.95 -1.97056 4.1344 0
M  V30 31077 N 2945.44 -2.04297 4.15713 0
M  V30 31078 C 2946.17 -2.42559 5.1957 0
M  V30 31079 N 2945.67 -2.79821 6.33776 0
M  V30 31080 N 2947.46 -2.4286 5.06927 0
M  V30 31081 H 2939.61 0.0939052 2.12192 0
M  V30 31082 H 2941.88 -0.0206402 0.947775 0
M  V30 31083 H 2941.58 -0.66689 3.45319 0
M  V30 31084 H 2941.46 -2.34465 2.95476 0
M  V30 31085 H 2943.84 -2.19305 1.97457 0
M  V30 31086 H 2943.93 -0.50763 2.50713 0
M  V30 31087 H 2943.57 -1.27513 4.91633 0
M  V30 31088 H 2943.5 -2.96373 4.35283 0
M  V30 31089 H 2945.99 -1.78108 3.33296 0
M  V30 31090 H 2946.3 -3.07885 7.08821 0
M  V30 31091 H 2944.65 -2.77527 6.37184 0
M  V30 31092 H 2947.84 -2.13153 4.16753 0
M  V30 31093 H 2948.01 -2.72353 5.87986 0
M  V30 31094 N 2941.42 -1.32452 -0.854063 0
M  V30 31095 C 2942.64 -1.26188 -1.64594 0
M  V30 31096 C 2943.07 0.167041 -1.87357 0
M  V30 31097 O 2942.43 1.11862 -1.42677 0
M  V30 31098 C 2942.47 -2.0274 -2.9821 0
M  V30 31099 O 2941.58 -1.37561 -3.88781 0
M  V30 31100 H 2940.92 -0.434868 -0.501783 0
M  V30 31101 H 2943.45 -1.74777 -1.06369 0
M  V30 31102 H 2943.46 -2.12936 -3.48026 0
M  V30 31103 H 2942.13 -3.06647 -2.80964 0
M  V30 31104 H 2940.71 -1.35916 -3.47248 0
M  V30 31105 N 2942.9 1.07041 -1.15672 0
M  V30 31106 C 2944.15 1.79342 -0.931705 0
M  V30 31107 C 2944.47 1.87305 0.542388 0
M  V30 31108 O 2943.74 1.37624 1.39415 0
M  V30 31109 H 2942.32 0.664256 -0.341721 0
M  V30 31110 H 2944.98 1.29342 -1.45797 0
M  V30 31111 H 2944.07 2.81687 -1.34384 0
M  V30 31112 N 2944.38 0.954014 1.25445 0
M  V30 31113 C 2945.29 0.480304 2.29631 0
M  V30 31114 C 2946.3 -0.452041 1.68026 0
M  V30 31115 O 2947.48 -0.328437 1.98704 0
M  V30 31116 C 2944.54 -0.234913 3.45903 0
M  V30 31117 C 2943.6 0.735569 4.22951 0
M  V30 31118 C 2942.84 0.0543895 5.33672 0
M  V30 31119 O 2943.06 -1.16008 5.58479 0
M  V30 31120 O 2941.99 0.739614 5.97339 0
M  V30 31121 H 2945.82 1.34607 2.7224 0
M  V30 31122 H 2943.4 0.720442 1.30882 0
M  V30 31123 H 2945.29 -0.637268 4.16554 0
M  V30 31124 H 2943.96 -1.07586 3.05298 0
M  V30 31125 H 2942.87 1.18812 3.54732 0
M  V30 31126 H 2944.2 1.54452 4.67339 0
M  V30 31127 N 2945.85 -1.40063 0.722513 0
M  V30 31128 C 2947.26 -1.83642 0.336539 0
M  V30 31129 C 2947.62 -1.60392 -1.12999 0
M  V30 31130 O 2946.74 -1.08845 -1.87034 0
M  V30 31131 C 2947.34 -3.33372 0.604044 0
M  V30 31132 C 2945.89 -3.75418 0.271703 0
M  V30 31133 C 2945.04 -2.63201 0.872945 0
M  V30 31134 H 2947.99 -1.29232 0.921131 0
M  V30 31135 H 2948.01 -3.80283 -0.128404 0
M  V30 31136 H 2947.53 -3.50262 1.67147 0
M  V30 31137 H 2945.63 -3.6412 -0.790391 0
M  V30 31138 H 2945.74 -4.73264 0.74554 0
M  V30 31139 H 2944.1 -2.52921 0.300475 0
M  V30 31140 H 2944.89 -2.82901 1.94478 0
M  V30 31141 N 2947.33 -0.469207 -1.50453 0
M  V30 31142 C 2948.26 0.315879 -2.31354 0
M  V30 31143 C 2949.24 0.99207 -1.38174 0
M  V30 31144 O 2950.43 0.989604 -1.67094 0
M  V30 31145 C 2947.56 1.39931 -3.17862 0
M  V30 31146 C 2946.51 0.844835 -4.19579 0
M  V30 31147 C 2945.84 2.02642 -4.94814 0
M  V30 31148 C 2947.14 -0.14259 -5.22105 0
M  V30 31149 H 2948.83 -0.359322 -2.97236 0
M  V30 31150 H 2946.38 -0.174249 -1.42942 0
M  V30 31151 H 2948.33 1.95601 -3.73254 0
M  V30 31152 H 2947.05 2.10326 -2.49861 0
M  V30 31153 H 2945.71 0.310125 -3.65286 0
M  V30 31154 H 2945.36 2.7173 -4.23287 0
M  V30 31155 H 2945.06 1.66164 -5.63616 0
M  V30 31156 H 2946.59 2.58805 -5.53039 0
M  V30 31157 H 2948 0.324865 -5.72379 0
M  V30 31158 H 2946.4 -0.421546 -5.98618 0
M  V30 31159 H 2947.47 -1.06909 -4.72968 0
M  V30 31160 N 2948.81 1.56303 -0.201741 0
M  V30 31161 C 2949.76 2.16018 0.729406 0
M  V30 31162 C 2950.74 1.10281 1.17162 0
M  V30 31163 O 2951.94 1.36326 1.12891 0
M  V30 31164 C 2949.06 2.82825 1.94589 0
M  V30 31165 C 2948.15 3.95761 1.52427 0
M  V30 31166 N 2948.54 4.99207 0.814019 0
M  V30 31167 C 2946.84 4.07485 1.81307 0
M  V30 31168 C 2947.54 5.78579 0.601794 0
M  V30 31169 N 2946.52 5.31242 1.15253 0
M  V30 31170 H 2950.32 2.9336 0.178111 0
M  V30 31171 H 2947.83 1.624 -0.00220893 0
M  V30 31172 H 2949.83 3.24002 2.62351 0
M  V30 31173 H 2948.49 2.06973 2.50184 0
M  V30 31174 H 2949.5 5.15774 0.468781 0
M  V30 31175 H 2946.18 3.42767 2.38364 0
M  V30 31176 H 2947.57 6.71889 0.0378938 0
M  V30 31177 N 2950.29 -0.0718147 1.57436 0
M  V30 31178 C 2951.25 -1.06973 2.02705 0
M  V30 31179 C 2952.25 -1.31595 0.924085 0
M  V30 31180 O 2953.44 -1.27316 1.18896 0
M  V30 31181 C 2950.57 -2.41338 2.40767 0
M  V30 31182 H 2951.77 -0.679568 2.92099 0
M  V30 31183 H 2949.32 -0.317538 1.5304 0
M  V30 31184 H 2950.05 -2.85187 1.54399 0
M  V30 31185 H 2949.84 -2.24809 3.21253 0
M  V30 31186 H 2951.33 -3.13068 2.76366 0
M  V30 31187 N 2951.77 -1.53818 -0.343203 0
M  V30 31188 C 2952.7 -1.84817 -1.42706 0
M  V30 31189 C 2953.68 -0.703324 -1.54879 0
M  V30 31190 O 2954.86 -0.955267 -1.69081 0
M  V30 31191 C 2951.99 -2.05806 -2.79752 0
M  V30 31192 C 2950.95 -3.21624 -2.82386 0
M  V30 31193 C 2950.27 -3.27947 -4.22321 0
M  V30 31194 C 2951.57 -4.59725 -2.47892 0
M  V30 31195 H 2953.27 -2.75587 -1.17013 0
M  V30 31196 H 2950.81 -1.32603 -0.561462 0
M  V30 31197 H 2952.76 -2.26076 -3.55623 0
M  V30 31198 H 2951.49 -1.11766 -3.06881 0
M  V30 31199 H 2950.15 -3.0121 -2.08968 0
M  V30 31200 H 2949.8 -2.31502 -4.4656 0
M  V30 31201 H 2949.5 -4.05776 -4.24994 0
M  V30 31202 H 2951.02 -3.50428 -5.00033 0
M  V30 31203 H 2952.43 -4.80006 -3.13475 0
M  V30 31204 H 2950.83 -5.39959 -2.61848 0
M  V30 31205 H 2951.9 -4.6331 -1.43079 0
M  V30 31206 N 2953.24 0.604233 -1.45557 0
M  V30 31207 C 2954.47 1.3946 -1.53512 0
M  V30 31208 C 2954.89 1.87333 -0.169671 0
M  V30 31209 O 2954.25 1.60335 0.846317 0
M  V30 31210 C 2954.3 2.57286 -2.52659 0
M  V30 31211 O 2953.4 3.58027 -2.04672 0
M  V30 31212 H 2952.74 0.416211 -0.517363 0
M  V30 31213 H 2955.27 0.735038 -1.90941 0
M  V30 31214 H 2955.28 3.04486 -2.71573 0
M  V30 31215 H 2953.96 2.2179 -3.51826 0
M  V30 31216 H 2952.54 3.17452 -1.95649 0
M  V30 31217 N 2954.72 1.32903 0.847027 0
M  V30 31218 C 2956.13 1.21468 1.41783 0
M  V30 31219 C 2956.48 -0.169732 1.95464 0
M  V30 31220 O 2955.61 -1.06889 1.88159 0
M  V30 31221 C 2956.2 2.1991 2.5773 0
M  V30 31222 C 2954.76 2.12339 3.10788 0
M  V30 31223 C 2953.91 2.0785 1.83558 0
M  V30 31224 H 2956.86 1.4462 0.653506 0
M  V30 31225 H 2956.88 1.80207 3.3512 0
M  V30 31226 H 2956.39 3.2066 2.1863 0
M  V30 31227 H 2954.49 1.14864 3.54453 0
M  V30 31228 H 2954.61 3.02513 3.71514 0
M  V30 31229 H 2952.97 1.53203 2.03472 0
M  V30 31230 H 2953.75 3.10394 1.46664 0
M  V30 31231 N 2956.2 -1.06426 1.16238 0
M  V30 31232 C 2957.62 -1.31322 0.907007 0
M  V30 31233 C 2957.82 -1.96619 -0.440837 0
M  V30 31234 O 2956.87 -2.23196 -1.18066 0
M  V30 31235 C 2958.18 -2.19518 2.05505 0
M  V30 31236 C 2959.73 -2.32939 2.09065 0
M  V30 31237 C 2960.21 -3.24489 3.2322 0
M  V30 31238 N 2961.7 -3.32072 3.22928 0
M  V30 31239 C 2962.43 -4.02999 4.07897 0
M  V30 31240 N 2961.93 -4.7646 5.02949 0
M  V30 31241 N 2963.72 -3.99036 3.95888 0
M  V30 31242 H 2955.87 -0.624353 2.03016 0
M  V30 31243 H 2958.14 -0.33782 0.885766 0
M  V30 31244 H 2957.84 -1.78814 3.0285 0
M  V30 31245 H 2957.72 -3.20097 1.99544 0
M  V30 31246 H 2960.1 -2.72891 1.12313 0
M  V30 31247 H 2960.18 -1.32033 2.19091 0
M  V30 31248 H 2959.83 -2.85253 4.2023 0
M  V30 31249 H 2959.76 -4.25371 3.1043 0
M  V30 31250 H 2962.25 -2.79719 2.54098 0
M  V30 31251 H 2962.56 -5.28102 5.64205 0
M  V30 31252 H 2960.91 -4.75444 5.0693 0
M  V30 31253 H 2964.1 -3.40763 3.20933 0
M  V30 31254 H 2964.27 -4.54044 4.62329 0
M  V30 31255 N 2957.68 -0.960653 -1.24937 0
M  V30 31256 C 2958.93 -0.617475 -1.92436 0
M  V30 31257 C 2959.25 0.84907 -1.75544 0
M  V30 31258 O 2958.52 1.60536 -1.12271 0
M  V30 31259 H 2957.1 -0.225384 -0.712188 0
M  V30 31260 H 2959.76 -1.2202 -1.51978 0
M  V30 31261 H 2958.86 -0.851986 -3.00246 0
M  V30 31262 N 2959.16 1.39677 -0.729931 0
M  V30 31263 C 2960.38 2.04917 -0.285745 0
M  V30 31264 C 2960.8 1.55025 1.07762 0
M  V30 31265 O 2960.16 0.712952 1.67998 0
M  V30 31266 C 2960.21 3.60469 -0.272856 0
M  V30 31267 O 2959.93 4.08524 -1.5824 0
M  V30 31268 C 2961.43 4.42901 0.188121 0
M  V30 31269 H 2958.65 0.659108 -0.125769 0
M  V30 31270 H 2961.19 1.7882 -0.992161 0
M  V30 31271 H 2959.35 3.85486 0.384631 0
M  V30 31272 H 2959.76 5.02816 -1.49253 0
M  V30 31273 H 2961.24 5.51807 0.145983 0
M  V30 31274 H 2961.71 4.21551 1.23252 0
M  V30 31275 H 2962.32 4.23022 -0.439615 0
M  V30 31276 N 2960.63 0.47718 1.50202 0
M  V30 31277 C 2961.6 -0.302559 2.27194 0
M  V30 31278 C 2962.6 -0.915089 1.32222 0
M  V30 31279 O 2963.79 -0.783321 1.55595 0
M  V30 31280 C 2960.92 -1.43162 3.09382 0
M  V30 31281 H 2962.11 0.37273 2.97575 0
M  V30 31282 H 2959.67 0.231419 1.54577 0
M  V30 31283 H 2960.4 -2.14178 2.43513 0
M  V30 31284 H 2960.19 -0.99813 3.79183 0
M  V30 31285 H 2961.68 -1.9815 3.67595 0
M  V30 31286 N 2962.11 -1.56194 0.210027 0
M  V30 31287 C 2963.53 -1.58935 -0.145571 0
M  V30 31288 C 2963.73 -1.22659 -1.59865 0
M  V30 31289 O 2962.78 -0.956378 -2.33687 0
M  V30 31290 C 2964.1 -3.00217 0.170296 0
M  V30 31291 C 2965.65 -3.12801 0.111603 0
M  V30 31292 C 2966.12 -4.56241 0.400985 0
M  V30 31293 N 2967.61 -4.61875 0.350139 0
M  V30 31294 C 2968.35 -5.70778 0.547698 0
M  V30 31295 N 2967.84 -6.88091 0.806412 0
M  V30 31296 N 2969.64 -5.60039 0.480926 0
M  V30 31297 H 2961.79 -1.78052 1.15807 0
M  V30 31298 H 2964.05 -0.827055 0.463341 0
M  V30 31299 H 2963.76 -3.31371 1.17839 0
M  V30 31300 H 2963.63 -3.73597 -0.520143 0
M  V30 31301 H 2966.02 -2.8145 -0.887112 0
M  V30 31302 H 2966.1 -2.41776 0.835345 0
M  V30 31303 H 2965.74 -4.88307 1.39709 0
M  V30 31304 H 2965.67 -5.25476 -0.343818 0
M  V30 31305 H 2968.16 -3.77572 0.157401 0
M  V30 31306 H 2968.48 -7.66993 0.945568 0
M  V30 31307 H 2966.82 -6.89863 0.843476 0
M  V30 31308 H 2970.01 -4.67267 0.279119 0
M  V30 31309 H 2970.18 -6.44849 0.638302 0
M  V30 31310 N 2963.59 0.0634645 -1.57472 0
M  V30 31311 C 2964.82 0.777526 -1.92274 0
M  V30 31312 C 2965.24 1.69901 -0.807171 0
M  V30 31313 O 2964.6 1.79711 0.239491 0
M  V30 31314 C 2964.65 1.54011 -3.26057 0
M  V30 31315 O 2963.75 2.65133 -3.15877 0
M  V30 31316 H 2963.09 0.211568 -0.629393 0
M  V30 31317 H 2965.62 0.0292164 -2.04579 0
M  V30 31318 H 2965.63 1.91756 -3.6013 0
M  V30 31319 H 2964.31 0.864057 -4.06825 0
M  V30 31320 H 2962.88 2.30184 -2.93377 0
M  V30 31321 N 2965.07 1.53998 0.33504 0
M  V30 31322 C 2966.48 1.63012 0.910162 0
M  V30 31323 C 2966.83 0.516843 1.8927 0
M  V30 31324 O 2965.96 -0.352085 2.13517 0
M  V30 31325 C 2966.55 2.95483 1.65756 0
M  V30 31326 C 2965.11 3.06732 2.18157 0
M  V30 31327 C 2964.26 2.58512 1.00334 0
M  V30 31328 H 2967.21 1.58298 0.112937 0
M  V30 31329 H 2967.23 2.85 2.52102 0
M  V30 31330 H 2966.74 3.76489 0.942204 0
M  V30 31331 H 2964.84 2.30377 2.92843 0
M  V30 31332 H 2964.95 4.12344 2.43945 0
M  V30 31333 H 2963.32 2.14126 1.37921 0
M  V30 31334 H 2964.1 3.41965 0.30248 0
M  V30 31335 N 2966.55 -0.596505 1.45875 0
M  V30 31336 C 2967.77 -1.38643 1.54249 0
M  V30 31337 C 2968.2 -1.87241 0.179604 0
M  V30 31338 O 2967.55 -1.60781 -0.837803 0
M  V30 31339 C 2967.6 -2.55942 2.5402 0
M  V30 31340 O 2966.71 -3.56936 2.06568 0
M  V30 31341 H 2966.05 -0.413462 0.519563 0
M  V30 31342 H 2968.58 -0.724902 1.91328 0
M  V30 31343 H 2968.59 -3.03042 2.73184 0
M  V30 31344 H 2967.26 -2.19921 3.52998 0
M  V30 31345 H 2965.84 -3.1641 1.9733 0
M  V30 31346 N 2968.02 -1.3335 -0.839967 0
M  V30 31347 C 2968.95 -1.26139 -1.96498 0
M  V30 31348 C 2969.94 -0.142182 -1.69505 0
M  V30 31349 O 2971.12 -0.331777 -1.91345 0
M  V30 31350 C 2968.25 -0.998719 -3.3263 0
M  V30 31351 C 2967.2 -2.08075 -3.74017 0
M  V30 31352 C 2966.53 -1.67023 -5.07944 0
M  V30 31353 C 2967.83 -3.49738 -3.87918 0
M  V30 31354 H 2969.52 -2.20266 -2.02789 0
M  V30 31355 H 2967.07 -1.06037 -0.974278 0
M  V30 31356 H 2969.02 -0.934768 -4.10902 0
M  V30 31357 H 2967.75 -0.0218333 -3.26593 0
M  V30 31358 H 2966.41 -2.1351 -2.98008 0
M  V30 31359 H 2966.05 -0.680404 -4.98377 0
M  V30 31360 H 2965.75 -2.39431 -5.36606 0
M  V30 31361 H 2967.28 -1.62092 -5.88692 0
M  V30 31362 H 2968.69 -3.4681 -4.56504 0
M  V30 31363 H 2967.09 -4.20621 -4.28016 0
M  V30 31364 H 2968.16 -3.88324 -2.90401 0
M  V30 31365 N 2969.5 1.05808 -1.16801 0
M  V30 31366 C 2970.73 1.82923 -0.977435 0
M  V30 31367 C 2971.15 1.82147 0.469482 0
M  V30 31368 O 2970.51 1.22588 1.33574 0
M  V30 31369 C 2970.56 3.27208 -1.51549 0
M  V30 31370 O 2969.66 4.05976 -0.725093 0
M  V30 31371 H 2969 0.565819 -0.347484 0
M  V30 31372 H 2971.53 1.33374 -1.55154 0
M  V30 31373 H 2971.54 3.7802 -1.53508 0
M  V30 31374 H 2970.22 3.27088 -2.56877 0
M  V30 31375 H 2968.8 3.64728 -0.776404 0
M  V30 31376 N 2970.98 0.967265 1.24426 0
M  V30 31377 C 2972.4 0.673725 1.44683 0
M  V30 31378 C 2972.6 -0.764593 1.8643 0
M  V30 31379 O 2971.65 -1.53853 2.00213 0
M  V30 31380 C 2972.97 1.65745 2.50897 0
M  V30 31381 C 2974.51 1.67003 2.64725 0
M  V30 31382 C 2974.99 2.64171 3.74136 0
M  V30 31383 N 2976.48 2.62611 3.81562 0
M  V30 31384 C 2977.21 3.3447 4.65744 0
M  V30 31385 N 2976.71 4.15844 5.54117 0
M  V30 31386 N 2978.5 3.23297 4.59821 0
M  V30 31387 H 2970.65 1.89657 0.956242 0
M  V30 31388 H 2972.92 0.8165 0.481696 0
M  V30 31389 H 2972.62 2.68542 2.27109 0
M  V30 31390 H 2972.5 1.42988 3.49048 0
M  V30 31391 H 2974.88 0.649172 2.87871 0
M  V30 31392 H 2974.97 1.93822 1.66933 0
M  V30 31393 H 2974.61 3.66391 3.51739 0
M  V30 31394 H 2974.54 2.34631 4.7144 0
M  V30 31395 H 2977.03 2.03544 3.18399 0
M  V30 31396 H 2977.34 4.67564 6.15308 0
M  V30 31397 H 2975.69 4.19939 5.53784 0
M  V30 31398 H 2978.88 2.59186 3.89795 0
M  V30 31399 H 2979.05 3.79562 5.25201 0
M  V30 31400 N 2972.46 -1.39288 0.737328 0
M  V30 31401 C 2973.39 -2.33221 0.114029 0
M  V30 31402 C 2974.37 -1.54032 -0.721668 0
M  V30 31403 O 2975.56 -1.82416 -0.666174 0
M  V30 31404 C 2972.69 -3.38143 -0.792259 0
M  V30 31405 C 2971.64 -4.27957 -0.0605426 0
M  V30 31406 C 2970.97 -5.23597 -1.084 0
M  V30 31407 C 2972.27 -5.10623 1.09826 0
M  V30 31408 H 2973.96 -2.85595 0.898661 0
M  V30 31409 H 2971.51 -1.37317 0.433595 0
M  V30 31410 H 2973.46 -4.02809 -1.23786 0
M  V30 31411 H 2972.18 -2.84214 -1.60903 0
M  V30 31412 H 2970.84 -3.64774 0.365457 0
M  V30 31413 H 2970.49 -4.65963 -1.8944 0
M  V30 31414 H 2970.19 -5.84537 -0.599166 0
M  V30 31415 H 2971.71 -5.9114 -1.52925 0
M  V30 31416 H 2973.13 -5.68621 0.730992 0
M  V30 31417 H 2971.52 -5.80717 1.51288 0
M  V30 31418 H 2972.59 -4.45318 1.91886 0
M  V30 31419 N 2973.94 -0.485139 -1.49947 0
M  V30 31420 C 2974.87 0.291323 -2.31676 0
M  V30 31421 C 2975.85 0.977359 -1.39218 0
M  V30 31422 O 2977.03 0.971825 -1.68134 0
M  V30 31423 C 2974.16 1.36552 -3.19329 0
M  V30 31424 C 2973.12 0.800285 -4.20451 0
M  V30 31425 C 2972.44 1.97382 -4.96935 0
M  V30 31426 C 2973.74 -0.197959 -5.21925 0
M  V30 31427 H 2975.44 -0.390827 -2.96838 0
M  V30 31428 H 2972.98 -0.189401 -1.42749 0
M  V30 31429 H 2974.94 1.91631 -3.75307 0
M  V30 31430 H 2973.66 2.07664 -2.52078 0
M  V30 31431 H 2972.32 0.271364 -3.65594 0
M  V30 31432 H 2971.97 2.67225 -4.26145 0
M  V30 31433 H 2971.67 1.60177 -5.65347 0
M  V30 31434 H 2973.19 2.52925 -5.55753 0
M  V30 31435 H 2974.61 0.264138 -5.72691 0
M  V30 31436 H 2973 -0.485014 -5.98137 0
M  V30 31437 H 2974.07 -1.1192 -4.71807 0
M  V30 31438 N 2975.42 1.56081 -0.218307 0
M  V30 31439 C 2976.66 2.00119 0.416158 0
M  V30 31440 C 2977.02 1.10268 1.57178 0
M  V30 31441 O 2978.22 1.43639 2.27203 0
M  V30 31442 C 2976.49 3.47323 0.84272 0
M  V30 31443 S 2978.05 4.13382 1.47175 0
M  V30 31444 H 2974.87 0.6986 0.132207 0
M  V30 31445 H 2977.47 1.92749 -0.326833 0
M  V30 31446 H 2976.17 4.10399 -0.00807139 0
M  V30 31447 H 2975.71 3.58559 1.6186 0
M  V30 31448 H 2977.72 4.12304 2.7608 0
M  V30 31449 N 2976.89 -0.0551124 1.57504 0
M  V30 31450 C 2978.31 -0.410265 1.54237 0
M  V30 31451 C 2978.51 -1.78185 0.94087 0
M  V30 31452 O 2977.57 -2.46424 0.550585 0
M  V30 31453 C 2978.88 -0.336011 2.98817 0
M  V30 31454 C 2980.43 -0.414992 3.10237 0
M  V30 31455 C 2980.9 -0.370469 4.56499 0
M  V30 31456 N 2982.39 -0.430049 4.61199 0
M  V30 31457 C 2983.13 -0.418079 5.71874 0
M  V30 31458 N 2982.62 -0.359934 6.91864 0
M  V30 31459 N 2984.42 -0.465878 5.60166 0
M  V30 31460 H 2976.57 0.842794 1.94963 0
M  V30 31461 H 2978.83 0.317953 0.89309 0
M  V30 31462 H 2978.54 0.60549 3.46449 0
M  V30 31463 H 2978.41 -1.13982 3.59566 0
M  V30 31464 H 2980.8 -1.34692 2.62568 0
M  V30 31465 H 2980.88 0.417692 2.52367 0
M  V30 31466 H 2980.52 0.55768 5.04829 0
M  V30 31467 H 2980.45 -1.22091 5.12251 0
M  V30 31468 H 2982.94 -0.478558 3.74858 0
M  V30 31469 H 2983.26 -0.355185 7.71983 0
M  V30 31470 H 2981.6 -0.32637 6.94233 0
M  V30 31471 H 2984.79 -0.509112 4.65323 0
M  V30 31472 H 2984.97 -0.453081 6.46414 0
M  V30 31473 N 2978.37 -1.54173 -0.326869 0
M  V30 31474 C 2979.3 -1.79663 -1.42316 0
M  V30 31475 C 2980.32 -0.678482 -1.47988 0
M  V30 31476 O 2981.51 -0.95553 -1.50771 0
M  V30 31477 C 2978.61 -1.89641 -2.80873 0
M  V30 31478 C 2977.78 -3.19766 -2.98443 0
M  V30 31479 C 2976.84 -3.20488 -4.17342 0
M  V30 31480 O 2975.86 -3.94141 -4.1066 0
M  V30 31481 N 2977.07 -2.44037 -5.26713 0
M  V30 31482 H 2979.83 -2.7427 -1.20814 0
M  V30 31483 H 2977.39 -1.53429 -0.516839 0
M  V30 31484 H 2979.38 -1.87555 -3.58616 0
M  V30 31485 H 2977.95 -1.02146 -2.9544 0
M  V30 31486 H 2977.17 -3.34839 -2.08029 0
M  V30 31487 H 2978.46 -4.05687 -3.07076 0
M  V30 31488 H 2977.86 -1.8378 -5.35015 0
M  V30 31489 H 2976.42 -2.47732 -6.02887 0
M  V30 31490 N 2979.85 0.58876 -1.4619 0
M  V30 31491 C 2980.76 1.72621 -1.58868 0
M  V30 31492 C 2981.78 1.67465 -0.472378 0
M  V30 31493 O 2982.95 1.87483 -0.735671 0
M  V30 31494 C 2980.02 3.09117 -1.56995 0
M  V30 31495 C 2979.08 3.25584 -2.7981 0
M  V30 31496 C 2978.31 4.55568 -2.78017 0
M  V30 31497 O 2978.53 5.39078 -1.86416 0
M  V30 31498 O 2977.47 4.75152 -3.69478 0
M  V30 31499 H 2981.29 1.64873 -2.5505 0
M  V30 31500 H 2978.88 0.755092 -1.28914 0
M  V30 31501 H 2980.76 3.90405 -1.58625 0
M  V30 31502 H 2979.44 3.17316 -0.639704 0
M  V30 31503 H 2978.34 2.43813 -2.83736 0
M  V30 31504 H 2979.68 3.22273 -3.72023 0
M  V30 31505 N 2981.33 1.33794 0.832883 0
M  V30 31506 C 2982.29 1.24452 1.92469 0
M  V30 31507 C 2983.29 0.162113 1.59981 0
M  V30 31508 O 2984.48 0.414058 1.69208 0
M  V30 31509 C 2981.61 0.919102 3.28276 0
M  V30 31510 H 2982.81 2.21506 2.02176 0
M  V30 31511 H 2980.36 1.17938 1.02568 0
M  V30 31512 H 2981.09 -0.048681 3.24263 0
M  V30 31513 H 2980.88 1.70193 3.53238 0
M  V30 31514 H 2982.37 0.878648 4.08252 0
M  V30 31515 N 2982.81 -1.05187 1.1736 0
M  V30 31516 C 2984.05 -1.78453 0.963444 0
M  V30 31517 C 2984.38 -1.87474 -0.50667 0
M  V30 31518 O 2983.66 -1.37456 -1.37609 0
M  V30 31519 C 2983.94 -3.22341 1.60525 0
M  V30 31520 C 2983.8 -3.21333 3.14747 0
M  V30 31521 C 2985.11 -4.20177 1.30918 0
M  V30 31522 H 2982.23 -0.64782 0.351424 0
M  V30 31523 H 2984.88 -1.22946 1.4486 0
M  V30 31524 H 2983.03 -3.69738 1.19272 0
M  V30 31525 H 2984.7 -2.82011 3.65058 0
M  V30 31526 H 2982.94 -2.59672 3.47495 0
M  V30 31527 H 2983.61 -4.22887 3.54782 0
M  V30 31528 H 2986.09 -3.81274 1.66641 0
M  V30 31529 H 2984.96 -5.19097 1.7841 0
M  V30 31530 H 2985.22 -4.41501 0.229986 0
M  V30 31531 N 2984.28 -0.97385 -1.23911 0
M  V30 31532 C 2985.23 -0.479973 -2.22891 0
M  V30 31533 C 2986.22 0.441406 -1.54727 0
M  V30 31534 O 2987.41 0.271327 -1.74908 0
M  V30 31535 C 2984.54 0.222642 -3.42577 0
M  V30 31536 C 2983.62 -0.717925 -4.17979 0
M  V30 31537 N 2984.02 -1.85779 -4.70446 0
M  V30 31538 C 2982.31 -0.529936 -4.4284 0
M  V30 31539 C 2983.01 -2.4466 -5.27746 0
M  V30 31540 N 2981.99 -1.73113 -5.15299 0
M  V30 31541 H 2985.79 -1.34961 -2.6108 0
M  V30 31542 H 2983.31 -0.833704 -1.39367 0
M  V30 31543 H 2985.3 0.59372 -4.12651 0
M  V30 31544 H 2983.96 1.08864 -3.05906 0
M  V30 31545 H 2984.97 -2.23916 -4.66993 0
M  V30 31546 H 2981.65 0.291591 -4.1648 0
M  V30 31547 H 2983.04 -3.40885 -5.79005 0
M  V30 31548 N 2985.76 1.38895 -0.744705 0
M  V30 31549 C 2986.99 2.04603 -0.307463 0
M  V30 31550 C 2987.4 1.56159 1.06112 0
M  V30 31551 O 2986.76 0.730731 1.67232 0
M  V30 31552 C 2986.81 3.60159 -0.311074 0
M  V30 31553 O 2986.53 4.06822 -1.62564 0
M  V30 31554 C 2988.03 4.43075 0.141135 0
M  V30 31555 H 2985.25 0.657737 -0.132753 0
M  V30 31556 H 2987.8 1.77757 -1.01107 0
M  V30 31557 H 2985.95 3.85872 0.343724 0
M  V30 31558 H 2986.37 5.01204 -1.54578 0
M  V30 31559 H 2987.84 5.51931 0.0874479 0
M  V30 31560 H 2988.32 4.22835 1.18774 0
M  V30 31561 H 2988.92 4.22532 -0.484457 0
M  V30 31562 N 2987.24 0.493084 1.49688 0
M  V30 31563 C 2988.52 -0.116872 1.95251 0
M  V30 31564 C 2988.9 -1.54889 1.43431 0
M  V30 31565 O 2988.25 -2.19218 0.644659 0
M  V30 31566 C 2988.46 -0.0376436 3.4898 0
M  V30 31567 C 2989.8 -0.215546 4.24053 0
M  V30 31568 O 2990.83 -0.113204 3.5602 0
M  V30 31569 O 2989.69 -0.424674 5.44847 0
M  V30 31570 H 2986.78 -0.0996476 0.820975 0
M  V30 31571 H 2989.33 0.555057 1.60366 0
M  V30 31572 H 2988.1 0.961317 3.79308 0
M  V30 31573 H 2987.72 -0.750069 3.90461 0
M  V30 31574 N 2988.72 -1.55963 0.226582 0
M  V30 31575 C 2989.94 -2.03277 -0.411491 0
M  V30 31576 C 2990.37 -1.10524 -1.52204 0
M  V30 31577 O 2989.73 -0.0943536 -1.81054 0
M  V30 31578 C 2989.77 -3.48782 -0.915632 0
M  V30 31579 O 2988.88 -3.59166 -2.02665 0
M  V30 31580 H 2988.22 -0.657528 -0.0924791 0
M  V30 31581 H 2990.75 -2.01641 0.346691 0
M  V30 31582 H 2990.76 -3.89203 -1.22415 0
M  V30 31583 H 2989.43 -4.15773 -0.102842 0
M  V30 31584 H 2988.01 -3.30635 -1.72439 0
M  V30 31585 N 2990.2 0.0467589 -1.57531 0
M  V30 31586 C 2991.13 1.05264 -2.08427 0
M  V30 31587 C 2992.11 1.38823 -0.982966 0
M  V30 31588 O 2993.29 1.48015 -1.25718 0
M  V30 31589 C 2990.42 2.35887 -2.54902 0
M  V30 31590 C 2989.38 2.16617 -3.69136 0
M  V30 31591 C 2988.7 3.52844 -4.01753 0
M  V30 31592 C 2990 1.56681 -4.98245 0
M  V30 31593 H 2991.7 0.629029 -2.92718 0
M  V30 31594 H 2989.24 0.301131 -1.40816 0
M  V30 31595 H 2991.2 3.06569 -2.89125 0
M  V30 31596 H 2989.92 2.80275 -1.67671 0
M  V30 31597 H 2988.58 1.48371 -3.35234 0
M  V30 31598 H 2988.23 3.94848 -3.11615 0
M  V30 31599 H 2987.93 3.40782 -4.78687 0
M  V30 31600 H 2989.45 4.24917 -4.38495 0
M  V30 31601 H 2990.86 2.17259 -5.30539 0
M  V30 31602 H 2989.26 1.55244 -5.79672 0
M  V30 31603 H 2990.33 0.530742 -4.81987 0
M  V30 31604 N 2991.67 1.54344 0.318688 0
M  V30 31605 C 2992.58 1.87099 1.41531 0
M  V30 31606 C 2993.6 0.763381 1.5636 0
M  V30 31607 O 2994.78 1.05814 1.71363 0
M  V30 31608 C 2991.84 2.09591 2.76174 0
M  V30 31609 C 2990.9 3.33375 2.7048 0
M  V30 31610 C 2990.14 3.54785 3.98702 0
M  V30 31611 O 2990.36 2.7954 4.97206 0
M  V30 31612 O 2989.29 4.48273 4.01666 0
M  V30 31613 H 2993.12 2.80359 1.16759 0
M  V30 31614 H 2990.7 1.40311 0.513156 0
M  V30 31615 H 2992.59 2.25688 3.55869 0
M  V30 31616 H 2991.26 1.19519 3.00827 0
M  V30 31617 H 2990.17 3.22659 1.89319 0
M  V30 31618 H 2991.5 4.2352 2.50782 0
M  V30 31619 N 2993.15 -0.580999 1.465 0
M  V30 31620 C 2994.4 -1.3365 1.51598 0
M  V30 31621 C 2994.72 -1.94258 0.169893 0
M  V30 31622 O 2993.99 -1.78653 -0.803745 0
M  V30 31623 H 2992.57 -0.496234 0.558355 0
M  V30 31624 H 2995.23 -0.680306 1.82641 0
M  V30 31625 H 2994.33 -2.14233 2.26959 0
M  V30 31626 N 2994.63 -1.34234 -0.825776 0
M  V30 31627 C 2995.58 -1.25574 -1.93649 0
M  V30 31628 C 2996.55 -0.131565 -1.65578 0
M  V30 31629 O 2997.73 -0.31206 -1.88231 0
M  V30 31630 C 2994.87 -1.01421 -3.2986 0
M  V30 31631 C 2993.99 -2.22585 -3.70243 0
M  V30 31632 C 2993.12 -1.91739 -4.95388 0
M  V30 31633 C 2992.16 -3.09063 -5.28343 0
M  V30 31634 N 2991.3 -2.78119 -6.44666 0
M  V30 31635 H 2996.14 -2.20564 -2.00388 0
M  V30 31636 H 2993.67 -1.09664 -0.980422 0
M  V30 31637 H 2995.63 -0.854557 -4.08354 0
M  V30 31638 H 2994.26 -0.100993 -3.22642 0
M  V30 31639 H 2993.31 -2.49481 -2.87165 0
M  V30 31640 H 2994.63 -3.10253 -3.9057 0
M  V30 31641 H 2993.78 -1.72494 -5.81662 0
M  V30 31642 H 2992.52 -1.01328 -4.77058 0
M  V30 31643 H 2991.52 -3.28907 -4.40568 0
M  V30 31644 H 2992.75 -4.00248 -5.48615 0
M  V30 31645 H 2990.69 -1.90281 -6.27797 0
M  V30 31646 H 2990.61 -3.59318 -6.65152 0
M  V30 31647 H 2991.88 -2.62371 -7.34018 0
M  V30 31648 N 2996.11 1.04563 -1.17917 0
M  V30 31649 C 2997.36 1.77071 -0.965847 0
M  V30 31650 C 2997.67 1.88943 0.505972 0
M  V30 31651 O 2998.88 2.58254 0.837671 0
M  V30 31652 C 2997.33 3.18336 -1.67899 0
M  V30 31653 C 2996.94 3.14575 -3.18978 0
M  V30 31654 C 2998.68 3.95257 -1.5483 0
M  V30 31655 C 2996.59 4.50667 -3.82953 0
M  V30 31656 H 2995.52 0.66373 -0.357741 0
M  V30 31657 H 2998.17 1.17151 -1.41237 0
M  V30 31658 H 2996.55 3.78622 -1.16022 0
M  V30 31659 H 2997.73 2.63769 -3.77839 0
M  V30 31660 H 2996.04 2.51153 -3.32131 0
M  V30 31661 H 2998.64 4.9589 -1.99993 0
M  V30 31662 H 2998.98 4.13289 -0.4998 0
M  V30 31663 H 2999.52 3.41534 -2.03959 0
M  V30 31664 H 2996.26 4.3784 -4.87828 0
M  V30 31665 H 2995.78 5.01596 -3.28879 0
M  V30 31666 H 2997.45 5.19594 -3.85528 0
M  V30 31667 N 2997.59 0.980408 1.23393 0
M  V30 31668 C 2998.86 0.5657 1.87241 0
M  V30 31669 C 2999.24 -0.957164 1.88153 0
M  V30 31670 O 2998.59 -1.83388 1.36313 0
M  V30 31671 C 2998.8 1.17178 3.28741 0
M  V30 31672 C 3000.15 1.26453 4.05333 0
M  V30 31673 O 3001.17 1.12523 3.3796 0
M  V30 31674 O 3000.03 1.48613 5.25905 0
M  V30 31675 H 2997.13 0.190473 0.804766 0
M  V30 31676 H 2999.67 1.07549 1.31268 0
M  V30 31677 H 2998.44 2.21398 3.22643 0
M  V30 31678 H 2998.07 0.646808 3.92304 0
M  V30 31679 N 2999.06 -1.38498 0.75206 0
M  V30 31680 C 3000.29 -2.04963 0.317029 0
M  V30 31681 C 3000.71 -1.56348 -1.0458 0
M  V30 31682 O 3000.07 -0.714784 -1.66615 0
M  V30 31683 C 3000.12 -3.58924 0.347298 0
M  V30 31684 O 2999.22 -4.07097 -0.659224 0
M  V30 31685 H 2998.57 -0.64893 0.140664 0
M  V30 31686 H 3001.1 -1.77203 1.02276 0
M  V30 31687 H 3001.11 -4.07521 0.197642 0
M  V30 31688 H 2999.78 -3.93666 1.34164 0
M  V30 31689 H 2998.36 -3.69871 -0.474306 0
M  V30 31690 N 3000.54 -0.501015 -1.49424 0
M  V30 31691 C 3001.95 -0.0532339 -1.86624 0
M  V30 31692 C 3002.3 1.36086 -1.41334 0
M  V30 31693 O 3001.43 2.01416 -0.791231 0
M  V30 31694 C 3002.02 -0.0898288 -3.38681 0
M  V30 31695 C 3000.58 0.302611 -3.75182 0
M  V30 31696 C 2999.73 -0.462355 -2.73418 0
M  V30 31697 H 3002.68 -0.713798 -1.41741 0
M  V30 31698 H 3002.7 0.705463 -3.73903 0
M  V30 31699 H 3002.21 -1.11914 -3.71614 0
M  V30 31700 H 3000.32 1.33515 -3.47857 0
M  V30 31701 H 3000.43 -0.0168495 -4.79097 0
M  V30 31702 H 2998.79 0.087811 -2.54549 0
M  V30 31703 H 2999.58 -1.49174 -3.09196 0
M  V30 31704 N 3002.02 1.5584 -0.234849 0
M  V30 31705 C 3003.44 1.59146 0.120267 0
M  V30 31706 C 3003.64 1.25187 1.57894 0
M  V30 31707 O 3002.69 0.993434 2.32136 0
M  V30 31708 C 3004.01 2.99908 -0.218036 0
M  V30 31709 C 3005.55 3.12584 -0.161353 0
M  V30 31710 C 3006.03 4.55546 -0.473518 0
M  V30 31711 N 3007.52 4.61259 -0.423575 0
M  V30 31712 C 3008.26 5.69835 -0.638434 0
M  V30 31713 N 3007.75 6.86721 -0.915779 0
M  V30 31714 N 3009.54 5.59203 -0.569962 0
M  V30 31715 H 3001.7 1.76187 -1.18625 0
M  V30 31716 H 3003.96 0.819579 -0.47644 0
M  V30 31717 H 3003.66 3.29455 -1.23096 0
M  V30 31718 H 3003.54 3.74377 0.460641 0
M  V30 31719 H 3005.93 2.82826 0.842224 0
M  V30 31720 H 3006.01 2.40416 -0.873703 0
M  V30 31721 H 3005.65 4.86023 -1.47459 0
M  V30 31722 H 3005.58 5.25957 0.260175 0
M  V30 31723 H 3008.07 3.77274 -0.217449 0
M  V30 31724 H 3008.38 7.65392 -1.06747 0
M  V30 31725 H 3006.73 6.88433 -0.953121 0
M  V30 31726 H 3009.92 4.66764 -0.353422 0
M  V30 31727 H 3010.09 6.43751 -0.740811 0
M  V30 31728 N 3003.5 -0.038404 1.57553 0
M  V30 31729 C 3004.78 -0.765971 1.79978 0
M  V30 31730 C 3005.16 -1.9407 0.83066 0
M  V30 31731 O 3004.5 -2.28134 -0.129203 0
M  V30 31732 C 3004.71 -1.20776 3.27436 0
M  V30 31733 C 3006.06 -1.62751 3.9217 0
M  V30 31734 O 3007.09 -1.30258 3.31529 0
M  V30 31735 O 3005.95 -2.23026 4.98921 0
M  V30 31736 H 3003.04 -0.369641 0.739794 0
M  V30 31737 H 3005.59 -0.0159014 1.69693 0
M  V30 31738 H 3004.36 -0.368724 3.89559 0
M  V30 31739 H 3003.98 -2.01813 3.42575 0
M  V30 31740 N 3004.98 -1.54511 -0.310498 0
M  V30 31741 C 3006.21 -1.7732 -1.06608 0
M  V30 31742 C 3006.62 -0.528075 -1.81264 0
M  V30 31743 O 3005.98 0.501749 -1.75467 0
M  V30 31744 C 3006.03 -2.97475 -2.05403 0
M  V30 31745 O 3005.75 -4.17175 -1.33777 0
M  V30 31746 C 3007.25 -3.32598 -2.93076 0
M  V30 31747 H 3004.47 -0.59163 -0.316568 0
M  V30 31748 H 3007.01 -2.01436 -0.352656 0
M  V30 31749 H 3005.17 -2.75595 -2.72261 0
M  V30 31750 H 3005.58 -4.84852 -2.00046 0
M  V30 31751 H 3007.06 -4.19939 -3.58267 0
M  V30 31752 H 3007.53 -2.50335 -3.60872 0
M  V30 31753 H 3008.14 -3.56604 -2.31762 0
M  V30 31754 N 3006.46 0.573222 -1.46806 0
M  V30 31755 C 3007.39 1.69163 -1.60954 0
M  V30 31756 C 3008.37 1.63776 -0.459508 0
M  V30 31757 O 3009.55 1.81646 -0.686912 0
M  V30 31758 C 3006.68 3.07806 -1.6085 0
M  V30 31759 C 3005.64 3.2803 -2.74919 0
M  V30 31760 C 3004.96 4.67298 -2.59879 0
M  V30 31761 C 3006.26 3.14947 -4.1666 0
M  V30 31762 H 3007.96 1.57578 -2.54577 0
M  V30 31763 H 3005.5 0.756665 -1.22518 0
M  V30 31764 H 3007.45 3.85878 -1.6934 0
M  V30 31765 H 3006.18 3.20312 -0.63777 0
M  V30 31766 H 3004.84 2.52361 -2.65912 0
M  V30 31767 H 3004.49 4.76582 -1.60869 0
M  V30 31768 H 3004.19 4.8178 -3.36395 0
M  V30 31769 H 3005.71 5.47525 -2.70275 0
M  V30 31770 H 3007.12 3.82853 -4.26727 0
M  V30 31771 H 3005.52 3.40948 -4.93837 0
M  V30 31772 H 3006.59 2.119 -4.36149 0
M  V30 31773 N 3007.93 1.3467 0.818645 0
M  V30 31774 C 3009.21 1.17844 1.56116 0
M  V30 31775 C 3009.59 -0.247273 2.09647 0
M  V30 31776 O 3008.94 -1.24918 1.91331 0
M  V30 31777 C 3009.15 2.23654 2.67918 0
M  V30 31778 C 3010.5 2.58849 3.36574 0
M  V30 31779 O 3011.52 2.22476 2.78178 0
M  V30 31780 O 3010.38 3.21347 4.42039 0
M  V30 31781 H 3007.47 0.457079 0.689208 0
M  V30 31782 H 3010.02 1.46315 0.859649 0
M  V30 31783 H 3008.79 3.19332 2.26148 0
M  V30 31784 H 3008.41 1.96383 3.45716 0
M  V30 31785 N 3009.41 -1.03936 1.1847 0
M  V30 31786 C 3010.82 -1.58612 0.984836 0
M  V30 31787 C 3011.17 -1.90607 -0.465131 0
M  V30 31788 O 3010.3 -1.69706 -1.34271 0
M  V30 31789 C 3010.89 -2.88187 1.7814 0
M  V30 31790 C 3009.45 -3.39475 1.62585 0
M  V30 31791 C 3008.6 -2.13043 1.77505 0
M  V30 31792 H 3011.55 -0.865921 1.32994 0
M  V30 31793 H 3011.57 -3.58635 1.27125 0
M  V30 31794 H 3011.08 -2.64869 2.83665 0
M  V30 31795 H 3009.18 -3.67802 0.596015 0
M  V30 31796 H 3009.3 -4.13213 2.4247 0
M  V30 31797 H 3007.66 -2.24412 1.20464 0
M  V30 31798 H 3008.44 -1.9218 2.84468 0
M  V30 31799 N 3010.89 -0.986938 -1.22871 0
M  V30 31800 C 3011.85 -0.537481 -2.22809 0
M  V30 31801 C 3012.85 0.376432 -1.56332 0
M  V30 31802 O 3014.04 0.169216 -1.73376 0
M  V30 31803 C 3011.17 0.219022 -3.40196 0
M  V30 31804 H 3012.37 -1.42121 -2.64087 0
M  V30 31805 H 3009.92 -0.773512 -1.35818 0
M  V30 31806 H 3010.66 1.119 -3.04383 0
M  V30 31807 H 3010.44 -0.437095 -3.89656 0
M  V30 31808 H 3011.93 0.521853 -4.14327 0
M  V30 31809 N 3012.37 1.38098 -0.759394 0
M  V30 31810 C 3013.28 2.34195 -0.137781 0
M  V30 31811 C 3014.29 1.59563 0.693957 0
M  V30 31812 O 3015.47 1.91724 0.616759 0
M  V30 31813 C 3012.53 3.387 0.740475 0
M  V30 31814 C 3011.6 4.29168 -0.1063 0
M  V30 31815 C 3010.83 5.28682 0.730132 0
M  V30 31816 O 3011.05 5.35379 1.96787 0
M  V30 31817 O 3009.99 6.01723 0.145863 0
M  V30 31818 H 3013.81 2.8906 -0.931563 0
M  V30 31819 H 3011.4 1.40045 -0.52037 0
M  V30 31820 H 3013.28 4.02674 1.24225 0
M  V30 31821 H 3011.95 2.86183 1.51266 0
M  V30 31822 H 3010.86 3.68336 -0.654152 0
M  V30 31823 H 3012.19 4.84957 -0.841271 0
M  V30 31824 N 3013.85 0.508932 1.49156 0
M  V30 31825 C 3015.26 0.0631303 1.86593 0
M  V30 31826 C 3015.61 -1.35334 1.42053 0
M  V30 31827 O 3014.73 -2.00994 0.801901 0
M  V30 31828 C 3015.33 0.107789 3.38628 0
M  V30 31829 C 3013.89 -0.28271 3.75337 0
M  V30 31830 C 3013.03 0.476848 2.73169 0
M  V30 31831 H 3015.98 0.721305 1.41361 0
M  V30 31832 H 3016.01 -0.685624 3.74272 0
M  V30 31833 H 3015.52 1.13883 3.71015 0
M  V30 31834 H 3013.62 -1.31669 3.4856 0
M  V30 31835 H 3013.73 0.042257 4.79081 0
M  V30 31836 H 3012.1 -0.0743104 2.54592 0
M  V30 31837 H 3012.88 1.50812 3.084 0
M  V30 31838 N 3015.32 -1.55714 0.243111 0
M  V30 31839 C 3016.57 -1.98458 -0.381929 0
M  V30 31840 C 3016.89 -1.1325 -1.58743 0
M  V30 31841 O 3016.16 -0.214419 -1.94723 0
M  V30 31842 H 3014.74 -0.732969 -0.144101 0
M  V30 31843 H 3017.4 -1.91893 0.341019 0
M  V30 31844 H 3016.5 -3.04294 -0.693648 0
M  V30 31845 N 3016.8 0.030048 -1.57571 0
M  V30 31846 C 3017.71 1.04794 -2.09893 0
M  V30 31847 C 3018.73 1.39697 -1.03735 0
M  V30 31848 O 3019.9 1.49036 -1.35464 0
M  V30 31849 C 3016.97 2.33024 -2.56712 0
M  V30 31850 C 3016.03 2.04712 -3.77348 0
M  V30 31851 C 3015.26 3.26827 -4.21924 0
M  V30 31852 O 3015.49 4.37466 -3.66033 0
M  V30 31853 O 3014.42 3.12585 -5.14368 0
M  V30 31854 H 3018.25 0.633292 -2.97024 0
M  V30 31855 H 3015.83 0.246966 -1.47345 0
M  V30 31856 H 3017.71 3.08411 -2.87159 0
M  V30 31857 H 3016.39 2.73786 -1.72693 0
M  V30 31858 H 3015.3 1.26895 -3.51921 0
M  V30 31859 H 3016.63 1.68805 -4.62348 0
M  V30 31860 N 3018.28 1.54674 0.3023 0
M  V30 31861 C 3019.23 1.85535 1.37279 0
M  V30 31862 C 3020.2 0.704156 1.50436 0
M  V30 31863 O 3021.38 0.952656 1.65315 0
M  V30 31864 C 3018.52 2.10709 2.73305 0
M  V30 31865 C 3017.64 3.3834 2.68608 0
M  V30 31866 C 3016.77 3.53364 3.9662 0
M  V30 31867 C 3015.81 4.74791 3.86315 0
M  V30 31868 N 3014.95 4.86628 5.061 0
M  V30 31869 H 3019.79 2.76851 1.10261 0
M  V30 31870 H 3017.32 1.37092 0.533322 0
M  V30 31871 H 3019.28 2.233 3.5241 0
M  V30 31872 H 3017.91 1.22661 2.98587 0
M  V30 31873 H 3016.96 3.34376 1.81375 0
M  V30 31874 H 3018.28 4.27566 2.56883 0
M  V30 31875 H 3017.43 3.65612 4.84162 0
M  V30 31876 H 3016.17 2.62269 4.11177 0
M  V30 31877 H 3015.17 4.62577 2.97157 0
M  V30 31878 H 3016.4 5.67292 3.73305 0
M  V30 31879 H 3014.34 3.98455 5.21123 0
M  V30 31880 H 3014.26 5.69853 4.96794 0
M  V30 31881 H 3015.53 5.03231 5.95297 0
M  V30 31882 N 3019.76 -0.565428 1.47108 0
M  V30 31883 C 3020.99 -1.34857 1.56911 0
M  V30 31884 C 3021.4 -1.87556 0.216345 0
M  V30 31885 O 3020.76 -1.64557 -0.789139 0
M  V30 31886 C 3020.81 -2.52419 2.5878 0
M  V30 31887 O 3020.53 -2.01899 3.88804 0
M  V30 31888 C 3022.03 -3.44742 2.78689 0
M  V30 31889 H 3019.25 -0.411377 0.530104 0
M  V30 31890 H 3021.8 -0.685748 1.9266 0
M  V30 31891 H 3019.95 -3.14656 2.25988 0
M  V30 31892 H 3020.36 -2.78587 4.44398 0
M  V30 31893 H 3021.84 -4.23668 3.5385 0
M  V30 31894 H 3022.32 -3.9777 1.86215 0
M  V30 31895 H 3022.92 -2.88327 3.12646 0
M  V30 31896 N 3021.24 -1.35102 -0.811492 0
M  V30 31897 C 3022.65 -1.25185 -1.38513 0
M  V30 31898 C 3023 0.117849 -1.95846 0
M  V30 31899 O 3022.12 1.01863 -1.90926 0
M  V30 31900 C 3022.72 -2.26666 -2.51809 0
M  V30 31901 C 3021.28 -2.20505 -3.05049 0
M  V30 31902 C 3020.42 -2.12644 -1.77983 0
M  V30 31903 H 3023.38 -1.46302 -0.614933 0
M  V30 31904 H 3023.4 -1.89029 -3.30224 0
M  V30 31905 H 3022.91 -3.26344 -2.10051 0
M  V30 31906 H 3021.01 -1.24222 -3.51283 0
M  V30 31907 H 3021.12 -3.12257 -3.63363 0
M  V30 31908 H 3019.49 -1.58544 -1.99339 0
M  V30 31909 H 3020.27 -3.14174 -1.38383 0
M  V30 31910 N 3022.71 1.03306 -1.19019 0
M  V30 31911 C 3023.96 1.76898 -0.991712 0
M  V30 31912 C 3024.29 1.88256 0.47678 0
M  V30 31913 O 3023.57 1.39627 1.35405 0
M  V30 31914 C 3023.85 3.19746 -1.65633 0
M  V30 31915 C 3023.7 3.16285 -3.19819 0
M  V30 31916 C 3025.02 4.18041 -1.37586 0
M  V30 31917 H 3022.14 0.642147 -0.361685 0
M  V30 31918 H 3024.78 1.20626 -1.46797 0
M  V30 31919 H 3022.93 3.67794 -1.25139 0
M  V30 31920 H 3024.61 2.76167 -3.69499 0
M  V30 31921 H 3022.85 2.54111 -3.51582 0
M  V30 31922 H 3023.52 4.1719 -3.61465 0
M  V30 31923 H 3026 3.78575 -1.72686 0
M  V30 31924 H 3024.87 5.16193 -1.86645 0
M  V30 31925 H 3025.13 4.4108 -0.300196 0
M  V30 31926 N 3024.19 0.99344 1.22346 0
M  V30 31927 C 3025.61 0.704263 1.43221 0
M  V30 31928 C 3025.81 -0.724876 1.8801 0
M  V30 31929 O 3024.86 -1.49572 2.03432 0
M  V30 31930 C 3026.18 1.71029 2.47325 0
M  V30 31931 C 3027.73 1.7258 2.61123 0
M  V30 31932 C 3028.2 2.72048 3.68448 0
M  V30 31933 N 3029.69 2.70645 3.75906 0
M  V30 31934 C 3030.43 3.44274 4.58545 0
M  V30 31935 N 3029.92 4.27504 5.45171 0
M  V30 31936 N 3031.72 3.32977 4.5286 0
M  V30 31937 H 3023.87 1.91643 0.915798 0
M  V30 31938 H 3026.13 0.826534 0.464269 0
M  V30 31939 H 3025.84 2.73299 2.21361 0
M  V30 31940 H 3025.71 1.50359 3.45936 0
M  V30 31941 H 3028.1 0.710087 2.86429 0
M  V30 31942 H 3028.18 1.9732 1.62784 0
M  V30 31943 H 3027.82 3.73769 3.43888 0
M  V30 31944 H 3027.75 2.44578 4.66357 0
M  V30 31945 H 3030.24 2.10252 3.1401 0
M  V30 31946 H 3030.56 4.8051 6.05252 0
M  V30 31947 H 3028.9 4.31591 5.44751 0
M  V30 31948 H 3032.09 2.67396 3.8421 0
M  V30 31949 H 3032.26 3.90617 5.17032 0
M  V30 31950 N 3025.67 -1.37693 0.766707 0
M  V30 31951 C 3027.08 -1.82478 0.394793 0
M  V30 31952 C 3027.43 -1.63906 -1.07839 0
M  V30 31953 O 3026.56 -1.1474 -1.83477 0
M  V30 31954 C 3027.15 -3.31281 0.709798 0
M  V30 31955 C 3025.71 -3.74364 0.391002 0
M  V30 31956 C 3024.86 -2.60291 0.956238 0
M  V30 31957 H 3027.81 -1.26236 0.961778 0
M  V30 31958 H 3027.83 -3.80499 -0.00735456 0
M  V30 31959 H 3027.34 -3.44767 1.78206 0
M  V30 31960 H 3025.44 -3.66451 -0.674148 0
M  V30 31961 H 3025.56 -4.70652 0.895728 0
M  V30 31962 H 3023.92 -2.51837 0.380788 0
M  V30 31963 H 3024.7 -2.76571 2.0338 0
M  V30 31964 N 3027.15 -0.516835 -1.48884 0
M  V30 31965 C 3028.39 0.0220572 -2.02788 0
M  V30 31966 C 3028.73 1.35172 -1.39435 0
M  V30 31967 O 3028 1.86983 -0.535492 0
M  V30 31968 C 3028.29 0.157949 -3.59753 0
M  V30 31969 C 3028.14 -1.19596 -4.33609 0
M  V30 31970 C 3029.46 0.891058 -4.30985 0
M  V30 31971 H 3026.58 0.00654193 -0.736971 0
M  V30 31972 H 3029.22 -0.671318 -1.77745 0
M  V30 31973 H 3027.37 0.748501 -3.81221 0
M  V30 31974 H 3029.04 -1.82661 -4.23595 0
M  V30 31975 H 3027.28 -1.78123 -3.95544 0
M  V30 31976 H 3027.95 -1.05401 -5.41844 0
M  V30 31977 H 3030.43 0.390047 -4.14268 0
M  V30 31978 H 3029.31 0.955012 -5.40528 0
M  V30 31979 H 3029.57 1.9384 -3.97339 0
M  V30 31980 N 3028.63 1.55583 -0.251365 0
M  V30 31981 C 3029.85 2.03452 0.376151 0
M  V30 31982 C 3030.27 1.1305 1.51213 0
M  V30 31983 O 3029.63 0.145801 1.81917 0
M  V30 31984 C 3029.68 3.50633 0.879717 0
M  V30 31985 O 3029.4 4.37592 -0.210994 0
M  V30 31986 C 3030.9 4.14283 1.57747 0
M  V30 31987 H 3028.12 0.66509 0.0888606 0
M  V30 31988 H 3030.66 2.01004 -0.376532 0
M  V30 31989 H 3028.82 3.53601 1.58256 0
M  V30 31990 H 3029.23 5.24218 0.172111 0
M  V30 31991 H 3030.71 5.18945 1.88149 0
M  V30 31992 H 3031.18 3.61038 2.50097 0
M  V30 31993 H 3031.79 4.15251 0.919081 0
M  V30 31994 N 3030.1 -0.0216912 1.57585 0
M  V30 31995 C 3031.04 -1.04774 2.03851 0
M  V30 31996 C 3032.05 -1.32022 0.952581 0
M  V30 31997 O 3033.24 -1.29379 1.22977 0
M  V30 31998 C 3030.34 -2.38766 2.40508 0
M  V30 31999 C 3029.51 -2.30769 3.7157 0
M  V30 32000 C 3028.57 -3.4727 3.95335 0
M  V30 32001 O 3027.6 -3.26432 4.66294 0
M  V30 32002 N 3028.8 -4.69391 3.41545 0
M  V30 32003 H 3031.56 -0.653344 2.92492 0
M  V30 32004 H 3029.12 -0.209499 1.60539 0
M  V30 32005 H 3031.12 -3.15437 2.53538 0
M  V30 32006 H 3029.69 -2.70024 1.57499 0
M  V30 32007 H 3028.91 -1.39148 3.68824 0
M  V30 32008 H 3030.19 -2.22576 4.57534 0
M  V30 32009 H 3029.59 -4.89221 2.84041 0
M  V30 32010 H 3028.15 -5.43402 3.59941 0
M  V30 32011 N 3031.58 -1.54832 -0.294093 0
M  V30 32012 C 3032.83 -1.74096 -1.0264 0
M  V30 32013 C 3033.15 -0.533435 -1.87562 0
M  V30 32014 O 3032.42 0.452159 -1.9061 0
M  V30 32015 H 3031 -0.641969 -0.381948 0
M  V30 32016 H 3033.66 -1.92198 -0.32341 0
M  V30 32017 H 3032.76 -2.6331 -1.67553 0
M  V30 32018 N 3033.06 0.557619 -1.47405 0
M  V30 32019 C 3034.31 1.31222 -1.53705 0
M  V30 32020 C 3034.63 1.93964 -0.200776 0
M  V30 32021 O 3033.9 1.79909 0.775221 0
M  V30 32022 H 3032.48 0.487289 -0.566179 0
M  V30 32023 H 3035.14 0.651163 -1.83701 0
M  V30 32024 H 3034.24 2.10595 -2.30339 0
M  V30 32025 N 3034.54 1.35531 0.804316 0
M  V30 32026 C 3035.76 1.3221 1.59798 0
M  V30 32027 C 3036.19 -0.0973896 1.87848 0
M  V30 32028 O 3035.55 -1.06489 1.4673 0
M  V30 32029 C 3035.6 2.13668 2.9048 0
M  V30 32030 O 3034.7 1.51895 3.83408 0
M  V30 32031 H 3034.04 0.453192 0.485297 0
M  V30 32032 H 3036.57 1.78604 0.998087 0
M  V30 32033 H 3036.58 2.25706 3.39884 0
M  V30 32034 H 3035.26 3.16863 2.69389 0
M  V30 32035 H 3033.83 1.4871 3.41964 0
M  V30 32036 N 3036.02 -1.02674 1.19565 0
M  V30 32037 C 3036.95 -2.12895 0.959061 0
M  V30 32038 C 3037.93 -1.69755 -0.108352 0
M  V30 32039 O 3039.11 -1.94143 0.0471039 0
M  V30 32040 C 3036.24 -3.43693 0.499271 0
M  V30 32041 C 3035.2 -4.00525 1.50877 0
M  V30 32042 C 3034.52 -5.26969 0.905976 0
M  V30 32043 C 3035.82 -4.35085 2.88961 0
M  V30 32044 H 3037.52 -2.32945 1.88088 0
M  V30 32045 H 3035.06 -1.11947 0.905751 0
M  V30 32046 H 3037.02 -4.20175 0.321039 0
M  V30 32047 H 3035.74 -3.23371 -0.458148 0
M  V30 32048 H 3034.4 -3.26139 1.67418 0
M  V30 32049 H 3034.05 -5.02965 -0.0590622 0
M  V30 32050 H 3033.75 -5.65956 1.5801 0
M  V30 32051 H 3035.27 -6.06117 0.738587 0
M  V30 32052 H 3036.69 -5.02496 2.7599 0
M  V30 32053 H 3035.08 -4.8516 3.53186 0
M  V30 32054 H 3036.15 -3.44293 3.41453 0
M  V30 32055 N 3037.5 -0.999914 -1.21817 0
M  V30 32056 C 3038.43 -0.514295 -2.23355 0
M  V30 32057 C 3039.44 0.394386 -1.57951 0
M  V30 32058 O 3040.63 0.195397 -1.77427 0
M  V30 32059 C 3037.73 0.273148 -3.37797 0
M  V30 32060 C 3036.9 -0.633369 -4.3279 0
M  V30 32061 C 3035.96 0.103581 -5.26098 0
M  V30 32062 O 3034.99 -0.513369 -5.6688 0
M  V30 32063 N 3036.19 1.38373 -5.63767 0
M  V30 32064 H 3038.95 -1.38744 -2.6565 0
M  V30 32065 H 3036.52 -0.875455 -1.36189 0
M  V30 32066 H 3038.51 0.774984 -3.9721 0
M  V30 32067 H 3037.08 1.04745 -2.94529 0
M  V30 32068 H 3036.3 -1.31577 -3.71593 0
M  V30 32069 H 3037.59 -1.25048 -4.93194 0
M  V30 32070 H 3036.98 1.90618 -5.32617 0
M  V30 32071 H 3035.54 1.83062 -6.25565 0
M  V30 32072 N 3038.97 1.37284 -0.773999 0
M  V30 32073 C 3040.2 2.04432 -0.349597 0
M  V30 32074 C 3040.62 1.57992 1.02079 0
M  V30 32075 O 3039.98 0.741201 1.65457 0
M  V30 32076 C 3040.03 3.58326 -0.404355 0
M  V30 32077 O 3039.13 4.08094 0.594375 0
M  V30 32078 H 3038.47 0.64661 -0.15097 0
M  V30 32079 H 3041 1.75553 -1.05082 0
M  V30 32080 H 3041.01 4.07155 -0.26245 0
M  V30 32081 H 3039.69 3.91482 -1.4041 0
M  V30 32082 H 3038.27 3.70579 0.415403 0
M  V30 32083 N 3040.45 0.524724 1.48608 0
M  V30 32084 C 3041.86 0.0829174 1.86516 0
M  V30 32085 C 3042.21 -1.3382 1.43481 0
M  V30 32086 O 3041.34 -2.00132 0.823174 0
M  V30 32087 C 3041.93 0.143699 3.38495 0
M  V30 32088 C 3040.49 -0.242885 3.75616 0
M  V30 32089 C 3039.64 0.505795 2.72648 0
M  V30 32090 H 3042.59 0.736257 1.40588 0
M  V30 32091 H 3042.61 -0.645889 3.74978 0
M  V30 32092 H 3042.12 1.17812 3.69786 0
M  V30 32093 H 3040.22 -1.27964 3.49937 0
M  V30 32094 H 3040.34 0.0930676 4.7901 0
M  V30 32095 H 3038.7 -0.0473034 2.54656 0
M  V30 32096 H 3039.48 1.54074 3.06783 0
M  V30 32097 N 3041.93 -1.55447 0.259613 0
M  V30 32098 C 3043.34 -1.85136 -0.241133 0
M  V30 32099 C 3043.69 -1.18156 -1.56632 0
M  V30 32100 O 3042.82 -0.464388 -2.11358 0
M  V30 32101 C 3043.41 -3.35874 -0.444296 0
M  V30 32102 C 3041.97 -3.65744 -0.889289 0
M  V30 32103 C 3041.12 -2.77288 0.0262961 0
M  V30 32104 H 3044.07 -1.51209 0.481835 0
M  V30 32105 H 3044.09 -3.58141 -1.28511 0
M  V30 32106 H 3043.6 -3.84596 0.520357 0
M  V30 32107 H 3041.7 -3.2251 -1.86596 0
M  V30 32108 H 3041.82 -4.73392 -0.737348 0
M  V30 32109 H 3040.18 -2.49995 -0.487317 0
M  V30 32110 H 3040.96 -3.28819 0.986552 0
M  V30 32111 N 3043.41 0.0133338 -1.57594 0
M  V30 32112 C 3044.82 0.369228 -1.5527 0
M  V30 32113 C 3045.02 1.75628 -0.987782 0
M  V30 32114 O 3044.08 2.44878 -0.615726 0
M  V30 32115 C 3045.39 0.256667 -2.99603 0
M  V30 32116 C 3046.94 0.332593 -3.11228 0
M  V30 32117 C 3047.42 0.249306 -4.57321 0
M  V30 32118 N 3048.91 0.307619 -4.62177 0
M  V30 32119 C 3049.64 0.266309 -5.72781 0
M  V30 32120 N 3049.14 0.176372 -6.92575 0
M  V30 32121 N 3050.93 0.317197 -5.61204 0
M  V30 32122 H 3043.08 -0.894188 -1.9266 0
M  V30 32123 H 3045.34 -0.34152 -0.884346 0
M  V30 32124 H 3045.05 -0.697132 -3.44722 0
M  V30 32125 H 3044.92 1.04408 -3.62462 0
M  V30 32126 H 3047.31 1.27683 -2.66047 0
M  V30 32127 H 3047.39 -0.484456 -2.51171 0
M  V30 32128 H 3047.04 -0.691331 -5.03173 0
M  V30 32129 H 3046.97 1.08467 -5.15308 0
M  V30 32130 H 3049.46 0.379002 -3.75995 0
M  V30 32131 H 3049.77 0.150382 -7.72654 0
M  V30 32132 H 3048.12 0.142191 -6.94855 0
M  V30 32133 H 3051.31 0.385561 -4.66509 0
M  V30 32134 H 3051.48 0.281536 -6.47388 0
M  V30 32135 N 3044.89 1.54985 0.285878 0
M  V30 32136 C 3046.11 1.79322 1.04204 0
M  V30 32137 C 3046.54 0.558374 1.79621 0
M  V30 32138 O 3045.89 -0.491631 1.74507 0
M  V30 32139 C 3045.94 3.00954 1.98643 0
M  V30 32140 O 3045.05 2.75137 3.07202 0
M  V30 32141 H 3044.39 0.593079 0.298586 0
M  V30 32142 H 3046.92 2.02103 0.3187 0
M  V30 32143 H 3046.93 3.29337 2.40834 0
M  V30 32144 H 3045.6 3.90484 1.4316 0
M  V30 32145 H 3044.18 2.57814 2.69418 0
M  V30 32146 N 3046.36 -0.549794 1.47699 0
M  V30 32147 C 3047.78 -1.13189 1.48476 0
M  V30 32148 C 3048.13 -1.94683 0.243538 0
M  V30 32149 O 3047.25 -2.06377 -0.650973 0
M  V30 32150 C 3047.85 -2.05939 2.69025 0
M  V30 32151 C 3046.41 -2.59405 2.72738 0
M  V30 32152 C 3045.55 -1.35939 2.41694 0
M  V30 32153 H 3048.5 -0.33602 1.55102 0
M  V30 32154 H 3048.52 -2.89929 2.46417 0
M  V30 32155 H 3048.04 -1.46599 3.59347 0
M  V30 32156 H 3046.14 -3.22523 1.86574 0
M  V30 32157 H 3046.25 -2.99892 3.73633 0
M  V30 32158 H 3044.61 -1.6686 1.92431 0
M  V30 32159 H 3045.4 -0.78381 3.34232 0
M  V30 32160 N 3047.84 -1.35955 -0.797117 0
M  V30 32161 C 3049.26 -1.162 -1.09406 0
M  V30 32162 C 3049.46 0.0191328 -2.01491 0
M  V30 32163 O 3048.51 0.68686 -2.42978 0
M  V30 32164 C 3049.83 -2.46934 -1.71593 0
M  V30 32165 C 3051.38 -2.53227 -1.8397 0
M  V30 32166 C 3051.85 -3.84028 -2.49573 0
M  V30 32167 N 3053.34 -3.85331 -2.57049 0
M  V30 32168 C 3054.08 -4.83274 -3.086 0
M  V30 32169 N 3053.57 -5.91608 -3.60517 0
M  V30 32170 N 3055.37 -4.70701 -3.07241 0
M  V30 32171 H 3047.52 -2.11591 -0.185172 0
M  V30 32172 H 3049.78 -0.936884 -0.144752 0
M  V30 32173 H 3049.49 -3.33592 -1.11398 0
M  V30 32174 H 3049.36 -2.62177 -2.71188 0
M  V30 32175 H 3051.75 -1.66992 -2.43306 0
M  V30 32176 H 3051.83 -2.4189 -0.832027 0
M  V30 32177 H 3051.47 -4.70665 -1.90884 0
M  V30 32178 H 3051.4 -3.92657 -3.50895 0
M  V30 32179 H 3053.89 -3.07061 -2.20277 0
M  V30 32180 H 3054.21 -6.62324 -3.9818 0
M  V30 32181 H 3052.55 -5.95287 -3.5869 0
M  V30 32182 H 3055.74 -3.85202 -2.65965 0
M  V30 32183 H 3055.91 -5.47192 -3.47109 0
M  V30 32184 N 3049.32 1.02038 -1.20108 0
M  V30 32185 C 3050.73 1.57025 -1.00995 0
M  V30 32186 C 3051.08 1.91323 0.434749 0
M  V30 32187 O 3050.21 1.71821 1.31554 0
M  V30 32188 C 3050.8 2.85316 -1.82702 0
M  V30 32189 C 3049.36 3.36845 -1.67965 0
M  V30 32190 C 3048.51 2.10192 -1.80871 0
M  V30 32191 H 3051.46 0.844653 -1.34355 0
M  V30 32192 H 3051.48 3.56568 -1.32815 0
M  V30 32193 H 3050.99 2.60323 -2.87843 0
M  V30 32194 H 3049.09 3.66807 -0.654454 0
M  V30 32195 H 3049.21 4.09303 -2.49013 0
M  V30 32196 H 3047.57 2.22467 -1.24019 0
M  V30 32197 H 3048.35 1.8763 -2.87489 0
M  V30 32198 N 3050.8 1.00636 1.21285 0
M  V30 32199 C 3051.76 0.57286 2.21926 0
M  V30 32200 C 3052.76 -0.351514 1.56911 0
M  V30 32201 O 3053.95 -0.141612 1.73623 0
M  V30 32202 C 3051.08 -0.164872 3.40501 0
M  V30 32203 H 3052.28 1.46304 2.61792 0
M  V30 32204 H 3049.83 0.795022 1.3457 0
M  V30 32205 H 3050.56 -1.07043 3.06125 0
M  V30 32206 H 3050.35 0.49903 3.88911 0
M  V30 32207 H 3051.84 -0.455872 4.15104 0
M  V30 32208 N 3052.28 -1.36872 0.781268 0
M  V30 32209 C 3053.5 -2.04244 0.360434 0
M  V30 32210 C 3053.93 -1.58531 -1.0124 0
M  V30 32211 O 3053.28 -0.749965 -1.65061 0
M  V30 32212 C 3053.33 -3.58106 0.423353 0
M  V30 32213 O 3052.44 -4.08404 -0.572725 0
M  V30 32214 H 3051.78 -0.6458 0.154397 0
M  V30 32215 H 3054.31 -1.74994 1.06011 0
M  V30 32216 H 3054.32 -4.0701 0.284039 0
M  V30 32217 H 3052.99 -3.90732 1.42484 0
M  V30 32218 H 3051.57 -3.70794 -0.395744 0
M  V30 32219 N 3053.75 -0.532597 -1.48328 0
M  V30 32220 C 3055 0.000547572 -2.028 0
M  V30 32221 C 3055.33 1.33686 -1.40861 0
M  V30 32222 O 3054.61 1.86405 -0.555294 0
M  V30 32223 C 3054.89 0.119783 -3.59901 0
M  V30 32224 C 3054.74 -1.24188 -4.32316 0
M  V30 32225 C 3056.06 0.845296 -4.31906 0
M  V30 32226 H 3053.18 -0.00127501 -0.736999 0
M  V30 32227 H 3055.82 -0.690133 -1.77023 0
M  V30 32228 H 3053.97 0.708025 -3.81994 0
M  V30 32229 H 3055.65 -1.87143 -4.21634 0
M  V30 32230 H 3053.89 -1.82308 -3.93632 0
M  V30 32231 H 3054.56 -1.11142 -5.40695 0
M  V30 32232 H 3057.04 0.346086 -4.14658 0
M  V30 32233 H 3055.91 0.897628 -5.41511 0
M  V30 32234 H 3056.17 1.89615 -3.99373 0
M  V30 32235 N 3055.23 1.55307 -0.267853 0
M  V30 32236 C 3056.65 1.59366 0.0864827 0
M  V30 32237 C 3056.85 1.28508 1.55203 0
M  V30 32238 O 3055.9 1.04245 2.29977 0
M  V30 32239 C 3057.22 2.99379 -0.281602 0
M  V30 32240 C 3058.77 3.12171 -0.22762 0
M  V30 32241 C 3059.24 4.54439 -0.570039 0
M  V30 32242 N 3060.73 4.60257 -0.521319 0
M  V30 32243 C 3061.47 5.68352 -0.759161 0
M  V30 32244 N 3060.96 6.84624 -1.06124 0
M  V30 32245 N 3062.76 5.57868 -0.688449 0
M  V30 32246 H 3054.91 1.73631 -1.22335 0
M  V30 32247 H 3057.17 0.809288 -0.493717 0
M  V30 32248 H 3056.88 3.26769 -1.30056 0
M  V30 32249 H 3056.75 3.7527 0.381126 0
M  V30 32250 H 3059.14 2.84549 0.782043 0
M  V30 32251 H 3059.22 2.38509 -0.924503 0
M  V30 32252 H 3058.86 4.82786 -1.57735 0
M  V30 32253 H 3058.79 5.2639 0.148554 0
M  V30 32254 H 3061.28 3.76728 -0.297426 0
M  V30 32255 H 3061.6 7.62956 -1.22958 0
M  V30 32256 H 3059.94 6.86257 -1.09893 0
M  V30 32257 H 3063.13 4.65909 -0.45235 0
M  V30 32258 H 3063.3 6.42035 -0.877194 0
M  V30 32259 N 3056.71 -0.00497598 1.57599 0
M  V30 32260 C 3057.94 -0.701982 1.94627 0
M  V30 32261 C 3058.35 -1.67583 0.869559 0
M  V30 32262 O 3057.71 -1.81866 -0.151958 0
M  V30 32263 C 3057.76 -1.43818 3.3166 0
M  V30 32264 O 3057.48 -0.50339 4.35198 0
M  V30 32265 C 3058.98 -2.23015 3.83118 0
M  V30 32266 H 3056.2 -0.195829 0.641788 0
M  V30 32267 H 3058.75 0.0446647 2.04451 0
M  V30 32268 H 3056.9 -2.1365 3.2316 0
M  V30 32269 H 3057.32 -1.02226 5.14442 0
M  V30 32270 H 3058.79 -2.70031 4.81443 0
M  V30 32271 H 3059.27 -3.05477 3.15564 0
M  V30 32272 H 3059.87 -1.58209 3.94778 0
M  V30 32273 N 3058.19 -1.55135 -0.277654 0
M  V30 32274 C 3059.6 -1.4687 -0.624599 0
M  V30 32275 C 3059.8 -0.678992 -1.89715 0
M  V30 32276 O 3058.86 -0.195983 -2.51738 0
M  V30 32277 C 3060.17 -2.91044 -0.755886 0
M  V30 32278 C 3061.72 -3.0123 -0.850246 0
M  V30 32279 C 3062.2 -4.46649 -1.01335 0
M  V30 32280 N 3063.69 -4.50458 -1.07898 0
M  V30 32281 C 3064.42 -5.60186 -1.2239 0
M  V30 32282 N 3063.92 -6.7979 -1.3363 0
M  V30 32283 N 3065.71 -5.47919 -1.25463 0
M  V30 32284 H 3057.86 -2.04936 0.558138 0
M  V30 32285 H 3060.13 -0.929122 0.188245 0
M  V30 32286 H 3059.83 -3.51532 0.108654 0
M  V30 32287 H 3059.71 -3.39796 -1.63764 0
M  V30 32288 H 3062.09 -2.40842 -1.70526 0
M  V30 32289 H 3062.17 -2.55739 0.0560131 0
M  V30 32290 H 3061.82 -5.07638 -0.163013 0
M  V30 32291 H 3061.75 -4.89793 -1.93419 0
M  V30 32292 H 3064.24 -3.64299 -1.0047 0
M  V30 32293 H 3064.55 -7.59169 -1.44509 0
M  V30 32294 H 3062.9 -6.82611 -1.30643 0
M  V30 32295 H 3066.09 -4.5342 -1.16309 0
M  V30 32296 H 3066.26 -6.33479 -1.36413 0
M  V30 32297 N 3059.67 0.541953 -1.47989 0
M  V30 32298 C 3060.61 1.64767 -1.61618 0
M  V30 32299 C 3061.58 1.59643 -0.45863 0
M  V30 32300 O 3062.77 1.78248 -0.680617 0
M  V30 32301 C 3059.91 3.0306 -1.65072 0
M  V30 32302 C 3059.02 3.18508 -2.91851 0
M  V30 32303 C 3058.16 4.47289 -2.86541 0
M  V30 32304 C 3057.2 4.56223 -4.08078 0
M  V30 32305 N 3056.33 5.76378 -4.00915 0
M  V30 32306 H 3061.17 1.52456 -2.56049 0
M  V30 32307 H 3058.71 0.742427 -1.2699 0
M  V30 32308 H 3060.67 3.83161 -1.65056 0
M  V30 32309 H 3059.3 3.1417 -0.741416 0
M  V30 32310 H 3058.35 2.31738 -3.01665 0
M  V30 32311 H 3059.66 3.20971 -3.8181 0
M  V30 32312 H 3058.82 5.35667 -2.8486 0
M  V30 32313 H 3057.55 4.47328 -1.94291 0
M  V30 32314 H 3056.56 3.66253 -4.10047 0
M  V30 32315 H 3057.78 4.57931 -5.01474 0
M  V30 32316 H 3055.73 5.77337 -3.11477 0
M  V30 32317 H 3055.65 5.80285 -4.84568 0
M  V30 32318 H 3056.92 6.67076 -4.03274 0
M  V30 32319 N 3061.15 1.36376 0.789896 0
M  V30 32320 C 3062.1 1.27193 1.89225 0
M  V30 32321 C 3063.08 0.163526 1.60067 0
M  V30 32322 O 3064.27 0.396292 1.72507 0
M  V30 32323 C 3061.4 1.06297 3.26429 0
M  V30 32324 C 3060.49 2.21602 3.61598 0
M  V30 32325 N 3060.88 3.46917 3.6808 0
M  V30 32326 C 3059.18 2.13357 3.91656 0
M  V30 32327 C 3059.88 4.22842 3.99474 0
M  V30 32328 N 3058.85 3.51777 4.14432 0
M  V30 32329 H 3062.65 2.22117 1.92461 0
M  V30 32330 H 3060.17 1.29088 0.985391 0
M  V30 32331 H 3062.17 0.978051 4.05265 0
M  V30 32332 H 3060.83 0.122733 3.24468 0
M  V30 32333 H 3061.84 3.81057 3.50736 0
M  V30 32334 H 3058.51 1.27286 3.97624 0
M  V30 32335 H 3059.9 5.31212 4.11416 0
M  V30 32336 N 3062.62 -1.014 1.20647 0
M  V30 32337 C 3063.85 -1.78633 1.04392 0
M  V30 32338 C 3064.27 -1.84367 -0.406738 0
M  V30 32339 O 3063.62 -1.29853 -1.28236 0
M  V30 32340 C 3063.67 -3.22976 1.62384 0
M  V30 32341 O 3063.4 -3.17592 3.01773 0
M  V30 32342 C 3064.9 -4.16748 1.51117 0
M  V30 32343 H 3062.12 -0.561684 0.367086 0
M  V30 32344 H 3064.66 -1.27621 1.59791 0
M  V30 32345 H 3062.82 -3.71128 1.11099 0
M  V30 32346 H 3063.23 -4.08211 3.29339 0
M  V30 32347 H 3064.7 -5.1586 1.9645 0
M  V30 32348 H 3065.18 -4.36741 0.464088 0
M  V30 32349 H 3065.79 -3.7448 2.01606 0
M  V30 32350 N 3064.1 -1.01278 -1.2075 0
M  V30 32351 C 3065.35 -0.699921 -1.90019 0
M  V30 32352 C 3065.68 0.770082 -1.78606 0
M  V30 32353 O 3064.93 1.57469 -1.16198 0
M  V30 32354 C 3065.23 -1.07639 -3.40806 0
M  V30 32355 C 3064.9 -2.54195 -3.72418 0
M  V30 32356 C 3063.56 -2.94241 -3.80757 0
M  V30 32357 C 3065.91 -3.49092 -3.87019 0
M  V30 32358 C 3063.24 -4.2813 -4.0115 0
M  V30 32359 C 3065.59 -4.82665 -4.08922 0
M  V30 32360 C 3064.25 -5.22423 -4.15489 0
M  V30 32361 H 3063.52 -0.256119 -0.69533 0
M  V30 32362 H 3066.17 -1.27265 -1.43093 0
M  V30 32363 H 3064.48 -0.422013 -3.89521 0
M  V30 32364 H 3066.17 -0.812066 -3.92691 0
M  V30 32365 H 3062.76 -2.22165 -3.66525 0
M  V30 32366 H 3066.95 -3.19315 -3.79936 0
M  V30 32367 H 3062.2 -4.58493 -4.04468 0
M  V30 32368 H 3066.38 -5.56126 -4.19162 0
M  V30 32369 H 3064 -6.26183 -4.31044 0
M  V30 32370 N 3065.58 1.36456 -0.788516 0
M  V30 32371 C 3066.83 1.98872 -0.359784 0
M  V30 32372 C 3067.15 1.62894 1.07194 0
M  V30 32373 O 3066.42 0.902493 1.73873 0
M  V30 32374 H 3065 0.735594 -0.130042 0
M  V30 32375 H 3067.66 1.66667 -1.01036 0
M  V30 32376 H 3066.76 3.08826 -0.45089 0
M  V30 32377 N 3067.06 0.540456 1.48043 0
M  V30 32378 C 3067.99 -0.253814 2.2779 0
M  V30 32379 C 3069 -0.894859 1.36 0
M  V30 32380 O 3070.19 -0.771535 1.60965 0
M  V30 32381 C 3067.29 -1.37561 3.09726 0
M  V30 32382 C 3066.46 -0.834515 4.29365 0
M  V30 32383 C 3065.52 -1.83872 4.93029 0
M  V30 32384 O 3064.55 -1.39149 5.5193 0
M  V30 32385 N 3065.75 -3.1714 4.86212 0
M  V30 32386 H 3068.52 0.430177 2.96597 0
M  V30 32387 H 3066.08 0.37545 1.57486 0
M  V30 32388 H 3068.07 -2.04578 3.49185 0
M  V30 32389 H 3066.64 -1.96309 2.43272 0
M  V30 32390 H 3065.86 0.0119571 3.94198 0
M  V30 32391 H 3067.15 -0.452066 5.06788 0
M  V30 32392 H 3066.55 -3.56133 4.39529 0
M  V30 32393 H 3065.1 -3.79761 5.2974 0
M  V30 32394 N 3068.54 -1.55163 0.276085 0
M  V30 32395 C 3069.95 -1.59409 -0.0780299 0
M  V30 32396 C 3070.15 -1.29329 -1.54519 0
M  V30 32397 O 3069.21 -1.05463 -2.29421 0
M  V30 32398 C 3070.52 -2.99225 0.297475 0
M  V30 32399 C 3072.07 -3.12046 0.244172 0
M  V30 32400 C 3072.54 -4.5413 0.594131 0
M  V30 32401 N 3074.03 -4.59974 0.545721 0
M  V30 32402 C 3074.77 -5.67942 0.789292 0
M  V30 32403 N 3074.27 -6.84051 1.09753 0
M  V30 32404 N 3076.06 -5.57495 0.718024 0
M  V30 32405 H 3068.21 -1.7298 1.23254 0
M  V30 32406 H 3070.47 -0.806658 0.498002 0
M  V30 32407 H 3070.18 -3.26075 1.31787 0
M  V30 32408 H 3070.05 -3.75466 -0.36122 0
M  V30 32409 H 3072.44 -2.8496 -0.766941 0
M  V30 32410 H 3072.52 -2.38015 0.937138 0
M  V30 32411 H 3072.16 -4.81942 1.60294 0
M  V30 32412 H 3072.09 -5.26462 -0.120636 0
M  V30 32413 H 3074.59 -3.76565 0.3174 0
M  V30 32414 H 3074.9 -7.62293 1.27002 0
M  V30 32415 H 3073.24 -6.85664 1.13531 0
M  V30 32416 H 3076.43 -4.65663 0.477052 0
M  V30 32417 H 3076.61 -6.41561 0.91123 0
M  V30 32418 N 3070.01 -0.00338196 -1.576 0
M  V30 32419 C 3071.25 0.685219 -1.92572 0
M  V30 32420 C 3071.62 1.70749 -0.877991 0
M  V30 32421 O 3072.82 2.44671 -1.11307 0
M  V30 32422 C 3071.09 1.30857 -3.32583 0
M  V30 32423 S 3072.65 2.02183 -3.89445 0
M  V30 32424 H 3069.47 0.226256 -0.674039 0
M  V30 32425 H 3072.07 -0.0608804 -1.95405 0
M  V30 32426 H 3070.77 0.551765 -4.06674 0
M  V30 32427 H 3070.3 2.09253 -3.33132 0
M  V30 32428 H 3072.32 3.29736 -3.70795 0
M  V30 32429 N 3071.49 1.5528 0.269423 0
M  V30 32430 C 3072.74 1.76316 1.00203 0
M  V30 32431 C 3073.07 0.564614 1.85811 0
M  V30 32432 O 3072.35 -0.437736 1.8951 0
M  V30 32433 C 3072.63 3.07032 1.88158 0
M  V30 32434 C 3072.48 4.37248 1.05519 0
M  V30 32435 C 3073.8 3.33813 2.86805 0
M  V30 32436 H 3070.92 0.641479 0.362868 0
M  V30 32437 H 3073.56 1.88012 0.274155 0
M  V30 32438 H 3071.71 2.97192 2.50218 0
M  V30 32439 H 3073.38 4.5905 0.455013 0
M  V30 32440 H 3071.63 4.32314 0.358766 0
M  V30 32441 H 3072.3 5.25045 1.70388 0
M  V30 32442 H 3074.77 3.4347 2.34878 0
M  V30 32443 H 3073.65 4.26534 3.45485 0
M  V30 32444 H 3073.91 2.53626 3.62113 0
M  V30 32445 N 3072.97 -0.534097 1.48274 0
M  V30 32446 C 3074.19 -1.31976 1.59991 0
M  V30 32447 C 3074.62 -1.8631 0.258857 0
M  V30 32448 O 3073.98 -1.6419 -0.768856 0
M  V30 32449 C 3074.03 -2.44938 2.64647 0
M  V30 32450 O 3073.13 -3.47854 2.21521 0
M  V30 32451 H 3072.47 -0.391053 0.536631 0
M  V30 32452 H 3075 -0.643101 1.9423 0
M  V30 32453 H 3075.01 -2.91182 2.85791 0
M  V30 32454 H 3073.69 -2.04752 3.62008 0
M  V30 32455 H 3072.26 -3.07756 2.10572 0
M  V30 32456 N 3074.45 -1.36793 -0.782652 0
M  V30 32457 C 3075.67 -1.34735 -1.57674 0
M  V30 32458 C 3076.1 0.0674923 -1.87979 0
M  V30 32459 O 3075.46 1.04141 -1.48406 0
M  V30 32460 C 3075.5 -2.18262 -2.87044 0
M  V30 32461 O 3074.61 -1.57976 -3.80943 0
M  V30 32462 H 3073.95 -0.460855 -0.478026 0
M  V30 32463 H 3076.48 -1.80169 -0.969547 0
M  V30 32464 H 3076.49 -2.31085 -3.3625 0
M  V30 32465 H 3075.16 -3.21109 -2.64314 0
M  V30 32466 H 3073.74 -1.54132 -3.39555 0
M  V30 32467 N 3075.93 1.00759 -1.21184 0
M  V30 32468 C 3077.34 1.26845 -0.968629 0
M  V30 32469 C 3077.54 1.98498 0.346526 0
M  V30 32470 O 3076.6 2.28575 1.07283 0
M  V30 32471 C 3077.91 2.09464 -2.15744 0
M  V30 32472 C 3079.46 2.22699 -2.19941 0
M  V30 32473 C 3079.93 3.08698 -3.38333 0
M  V30 32474 N 3081.43 3.16287 -3.38404 0
M  V30 32475 C 3082.16 3.83078 -4.2666 0
M  V30 32476 N 3081.66 4.51921 -5.25109 0
M  V30 32477 N 3083.45 3.79693 -4.14475 0
M  V30 32478 H 3075.6 0.52678 -2.05764 0
M  V30 32479 H 3077.86 0.295174 -0.900875 0
M  V30 32480 H 3077.57 1.64161 -3.11037 0
M  V30 32481 H 3077.44 3.10212 -2.14589 0
M  V30 32482 H 3079.83 2.67222 -1.25205 0
M  V30 32483 H 3079.91 1.2143 -2.25141 0
M  V30 32484 H 3079.56 2.64879 -4.33361 0
M  V30 32485 H 3079.49 4.10076 -3.30372 0
M  V30 32486 H 3081.98 2.67277 -2.67154 0
M  V30 32487 H 3082.29 5.00582 -5.88759 0
M  V30 32488 H 3080.63 4.50716 -5.29037 0
M  V30 32489 H 3083.83 3.25063 -3.36826 0
M  V30 32490 H 3084 4.31469 -4.83465 0
M  V30 32491 N 3077.4 1.01917 1.20211 0
M  V30 32492 C 3078.82 0.741161 1.71358 0
M  V30 32493 C 3079.17 -0.740076 1.81707 0
M  V30 32494 O 3078.29 -1.57743 1.48142 0
M  V30 32495 C 3078.89 1.33875 3.11228 0
M  V30 32496 C 3077.45 1.10955 3.59675 0
M  V30 32497 C 3076.59 1.44284 2.36807 0
M  V30 32498 H 3079.54 1.18832 1.05189 0
M  V30 32499 H 3079.56 0.73065 3.73419 0
M  V30 32500 H 3079.08 2.41681 3.03664 0
M  V30 32501 H 3077.18 0.0492707 3.72567 0
M  V30 32502 H 3077.29 1.79141 4.44348 0
M  V30 32503 H 3075.65 0.861924 2.39673 0
M  V30 32504 H 3076.44 2.53152 2.31881 0
M  V30 32505 N 3078.88 -1.36036 0.795742 0
M  V30 32506 C 3079.85 -2.28287 0.204358 0
M  V30 32507 C 3080.85 -1.49106 -0.601991 0
M  V30 32508 O 3082.04 -1.6901 -0.42206 0
M  V30 32509 C 3079.17 -3.33288 -0.716373 0
M  V30 32510 H 3080.36 -2.82098 1.01786 0
M  V30 32511 H 3077.91 -1.45707 0.565613 0
M  V30 32512 H 3078.65 -2.84644 -1.55398 0
M  V30 32513 H 3078.43 -3.9185 -0.140028 0
M  V30 32514 H 3079.92 -4.02166 -1.12481 0
M  V30 32515 N 3080.36 -0.5483 -1.47755 0
M  V30 32516 C 3081.32 0.193817 -2.28379 0
M  V30 32517 C 3082.32 0.850962 -1.36438 0
M  V30 32518 O 3083.51 0.708192 -1.59155 0
M  V30 32519 C 3080.65 1.28238 -3.15861 0
M  V30 32520 H 3081.84 -0.514283 -2.95458 0
M  V30 32521 H 3079.39 -0.304906 -1.53297 0
M  V30 32522 H 3080.13 2.02316 -2.53454 0
M  V30 32523 H 3079.91 0.816081 -3.83513 0
M  V30 32524 H 3081.4 1.80386 -3.76631 0
M  V30 32525 N 3081.84 1.55014 -0.28431 0
M  V30 32526 C 3083.25 1.85496 0.211649 0
M  V30 32527 C 3083.6 1.20633 1.54733 0
M  V30 32528 O 3082.73 0.497955 2.10593 0
M  V30 32529 C 3083.32 3.36538 0.390805 0
M  V30 32530 C 3081.88 3.67112 0.83099 0
M  V30 32531 C 3081.03 2.77211 -0.0704068 0
M  V30 32532 H 3083.98 1.50423 -0.50583 0
M  V30 32533 H 3084 3.6014 1.22797 0
M  V30 32534 H 3083.51 3.83719 -0.581477 0
M  V30 32535 H 3081.61 3.25438 1.81442 0
M  V30 32536 H 3081.72 4.74505 0.661943 0
M  V30 32537 H 3080.09 2.50738 0.447484 0
M  V30 32538 H 3080.87 3.27208 -1.03874 0
M  V30 32539 N 3083.32 0.0117398 1.57596 0
M  V30 32540 C 3084.56 -0.669309 1.90695 0
M  V30 32541 C 3084.89 -1.73657 0.88703 0
M  V30 32542 O 3084.16 -1.9576 -0.0739435 0
M  V30 32543 H 3082.74 -0.250207 0.703851 0
M  V30 32544 H 3085.4 0.05544 1.94821 0
M  V30 32545 H 3084.49 -1.13311 2.90804 0
M  V30 32546 N 3084.79 -1.55421 -0.261185 0
M  V30 32547 C 3086.04 -1.76234 -0.989241 0
M  V30 32548 C 3086.36 -0.5731 -1.86388 0
M  V30 32549 O 3085.63 0.411626 -1.91527 0
M  V30 32550 H 3084.21 -0.649927 -0.368245 0
M  V30 32551 H 3086.88 -1.92841 -0.282569 0
M  V30 32552 H 3085.97 -2.66805 -1.6193 0
M  V30 32553 N 3086.27 0.526227 -1.48555 0
M  V30 32554 C 3087.18 1.65728 -1.66046 0
M  V30 32555 C 3088.2 1.65311 -0.54298 0
M  V30 32556 O 3089.37 1.84194 -0.814527 0
M  V30 32557 C 3086.44 3.02181 -1.69964 0
M  V30 32558 C 3085.5 3.13423 -2.93367 0
M  V30 32559 C 3084.73 4.43367 -2.97089 0
M  V30 32560 O 3084.96 5.30687 -2.09112 0
M  V30 32561 O 3083.89 4.59054 -3.89298 0
M  V30 32562 H 3087.72 1.53907 -2.61813 0
M  V30 32563 H 3085.3 0.699736 -1.32 0
M  V30 32564 H 3087.18 3.83326 -1.7504 0
M  V30 32565 H 3085.86 3.14317 -0.773713 0
M  V30 32566 H 3084.77 2.31559 -2.93822 0
M  V30 32567 H 3086.1 3.06204 -3.85357 0
M  V30 32568 N 3087.75 1.37206 0.775387 0
M  V30 32569 C 3088.66 1.34859 1.91964 0
M  V30 32570 C 3089.68 0.248687 1.72214 0
M  V30 32571 O 3090.85 0.483455 1.95511 0
M  V30 32572 C 3087.92 1.15102 3.27036 0
M  V30 32573 C 3086.98 2.34697 3.59466 0
M  V30 32574 C 3086.21 2.15873 4.88093 0
M  V30 32575 O 3086.43 1.14112 5.58869 0
M  V30 32576 O 3085.37 3.03976 5.19502 0
M  V30 32577 H 3089.19 2.31226 1.96896 0
M  V30 32578 H 3086.78 1.17898 0.917627 0
M  V30 32579 H 3088.66 1.06057 4.07835 0
M  V30 32580 H 3087.34 0.218055 3.22965 0
M  V30 32581 H 3086.24 2.49313 2.78916 0
M  V30 32582 H 3087.58 3.26548 3.68276 0
M  V30 32583 N 3089.23 -1.00115 1.21716 0
M  V30 32584 C 3090.19 -2.07127 0.981374 0
M  V30 32585 C 3091.19 -1.60725 -0.0490833 0
M  V30 32586 O 3092.38 -1.73176 0.188586 0
M  V30 32587 C 3089.51 -3.37494 0.480667 0
M  V30 32588 H 3090.71 -2.29478 1.93079 0
M  V30 32589 H 3088.26 -1.17149 1.03469 0
M  V30 32590 H 3088.99 -3.20825 -0.473495 0
M  V30 32591 H 3088.78 -3.72506 1.224 0
M  V30 32592 H 3090.27 -4.16249 0.335684 0
M  V30 32593 N 3090.71 -1.02553 -1.19669 0
M  V30 32594 C 3091.62 -0.613368 -2.2644 0
M  V30 32595 C 3092.63 0.353309 -1.70375 0
M  V30 32596 O 3093.81 0.212029 -2.00281 0
M  V30 32597 C 3090.87 0.0328419 -3.46684 0
M  V30 32598 C 3089.94 -0.980911 -4.17943 0
M  V30 32599 C 3089.17 -0.365443 -5.32447 0
M  V30 32600 O 3089.39 0.832497 -5.64292 0
M  V30 32601 O 3088.33 -1.08662 -5.9201 0
M  V30 32602 H 3092.15 -1.5025 -2.63929 0
M  V30 32603 H 3089.74 -0.795524 -1.26459 0
M  V30 32604 H 3091.62 0.393321 -4.1956 0
M  V30 32605 H 3090.29 0.896034 -3.11051 0
M  V30 32606 H 3089.2 -1.39292 -3.47201 0
M  V30 32607 H 3090.53 -1.81436 -4.57539 0
M  V30 32608 N 3092.19 1.35612 -0.802945 0
M  V30 32609 C 3093.15 2.28176 -0.216462 0
M  V30 32610 C 3094.15 1.49424 0.594075 0
M  V30 32611 O 3095.34 1.69231 0.413091 0
M  V30 32612 C 3092.47 3.33663 0.698688 0
M  V30 32613 H 3093.66 2.81555 -1.03281 0
M  V30 32614 H 3091.22 1.45405 -0.573332 0
M  V30 32615 H 3091.95 2.85464 1.53886 0
M  V30 32616 H 3091.74 3.91919 0.119245 0
M  V30 32617 H 3093.23 4.02757 1.10347 0
M  V30 32618 N 3093.66 0.556128 1.47462 0
M  V30 32619 C 3094.89 0.0345093 2.07371 0
M  V30 32620 C 3095.31 -1.24927 1.40623 0
M  V30 32621 O 3094.67 -1.74807 0.480851 0
M  V30 32622 C 3094.72 -0.145499 3.60306 0
M  V30 32623 O 3093.82 -1.20832 3.94301 0
M  V30 32624 H 3093.16 0.050839 0.662051 0
M  V30 32625 H 3095.69 0.771502 1.89497 0
M  V30 32626 H 3095.7 -0.360041 4.06408 0
M  V30 32627 H 3094.38 0.79216 4.08286 0
M  V30 32628 H 3092.96 -0.974357 3.59945 0
M  V30 32629 N 3095.14 -1.54861 0.292527 0
M  V30 32630 C 3096.42 -1.92032 -0.371912 0
M  V30 32631 C 3096.8 -1.21881 -1.72361 0
M  V30 32632 O 3096.15 -0.351613 -2.25779 0
M  V30 32633 C 3096.36 -3.45472 -0.494966 0
M  V30 32634 C 3097.7 -4.17564 -0.769782 0
M  V30 32635 O 3098.73 -3.51461 -0.579106 0
M  V30 32636 O 3097.59 -5.34573 -1.13551 0
M  V30 32637 H 3094.68 -0.800817 -0.206449 0
M  V30 32638 H 3097.23 -1.6626 0.339962 0
M  V30 32639 H 3096 -3.88639 0.455596 0
M  V30 32640 H 3095.62 -3.77253 -1.25564 0
M  V30 32641 N 3096.62 -0.0200973 -1.57587 0
M  V30 32642 C 3098.03 0.519987 -1.79313 0
M  V30 32643 C 3098.38 1.72785 -0.929506 0
M  V30 32644 O 3097.51 2.15963 -0.137427 0
M  V30 32645 C 3098.1 0.950115 -3.25205 0
M  V30 32646 C 3096.66 1.43537 -3.47957 0
M  V30 32647 C 3095.81 0.395868 -2.7446 0
M  V30 32648 H 3098.76 -0.246181 -1.56779 0
M  V30 32649 H 3098.78 1.81502 -3.34421 0
M  V30 32650 H 3098.29 0.0708148 -3.88035 0
M  V30 32651 H 3096.39 2.3349 -2.90367 0
M  V30 32652 H 3096.51 1.44897 -4.56664 0
M  V30 32653 H 3094.87 0.86198 -2.39671 0
M  V30 32654 H 3095.65 -0.47481 -3.40001 0
M  V30 32655 N 3098.1 1.55557 0.252939 0
M  V30 32656 C 3099.06 1.89013 1.29641 0
M  V30 32657 C 3100.06 0.766121 1.41376 0
M  V30 32658 O 3101.25 1.03416 1.40181 0
M  V30 32659 C 3098.38 2.11321 2.675 0
M  V30 32660 H 3099.58 2.8231 1.01197 0
M  V30 32661 H 3097.13 1.48356 0.491951 0
M  V30 32662 H 3097.86 1.20472 3.01093 0
M  V30 32663 H 3097.65 2.93177 2.60365 0
M  V30 32664 H 3099.14 2.38409 3.42857 0
M  V30 32665 N 3099.58 -0.518341 1.48832 0
M  V30 32666 C 3100.85 -1.27963 1.47935 0
M  V30 32667 C 3101.23 -2.10175 0.19743 0
M  V30 32668 O 3100.58 -2.13256 -0.820619 0
M  V30 32669 C 3100.79 -2.15116 2.7482 0
M  V30 32670 C 3102.14 -2.74875 3.23618 0
M  V30 32671 O 3103.16 -2.25395 2.75818 0
M  V30 32672 O 3102.02 -3.64906 4.06824 0
M  V30 32673 H 3099.12 -0.578154 0.591327 0
M  V30 32674 H 3101.66 -0.534037 1.61078 0
M  V30 32675 H 3100.43 -1.54228 3.59624 0
M  V30 32676 H 3100.06 -2.96901 2.64454 0
M  V30 32677 N 3101.05 -1.37615 -0.7681 0
M  V30 32678 C 3101.96 -1.35875 -1.91246 0
M  V30 32679 C 3102.98 -0.257816 -1.72079 0
M  V30 32680 O 3104.16 -0.493817 -1.95252 0
M  V30 32681 C 3101.22 -1.16834 -3.26421 0
M  V30 32682 C 3100.28 -2.366 -3.58216 0
M  V30 32683 C 3099.51 -2.18459 -4.86941 0
M  V30 32684 O 3099.74 -1.17074 -5.58256 0
M  V30 32685 O 3098.67 -3.06727 -5.17882 0
M  V30 32686 H 3102.5 -2.32267 -1.95667 0
M  V30 32687 H 3100.08 -1.18383 -0.911361 0
M  V30 32688 H 3101.96 -1.08219 -4.07267 0
M  V30 32689 H 3100.64 -0.23518 -3.22845 0
M  V30 32690 H 3099.55 -2.50788 -2.7759 0
M  V30 32691 H 3100.88 -3.28496 -3.66539 0
M  V30 32692 N 3102.53 0.994677 -1.22245 0
M  V30 32693 C 3103.44 2.11876 -1.00726 0
M  V30 32694 C 3104.46 1.73945 0.0438884 0
M  V30 32695 O 3105.63 2.00852 -0.148446 0
M  V30 32696 C 3102.7 3.41715 -0.585783 0
M  V30 32697 C 3101.76 3.93759 -1.71034 0
M  V30 32698 C 3100.99 5.17401 -1.30888 0
M  V30 32699 O 3101.22 5.70094 -0.18691 0
M  V30 32700 O 3100.15 5.63152 -2.1247 0
M  V30 32701 H 3103.98 2.32913 -1.94899 0
M  V30 32702 H 3101.56 1.10249 -1.00824 0
M  V30 32703 H 3103.44 4.19851 -0.361009 0
M  V30 32704 H 3102.12 3.22043 0.327109 0
M  V30 32705 H 3101.02 3.16804 -1.98962 0
M  V30 32706 H 3102.36 4.1786 -2.60103 0
M  V30 32707 N 3104.01 1.03186 1.19123 0
M  V30 32708 C 3105.26 0.731144 1.89162 0
M  V30 32709 C 3105.59 -0.738631 1.79605 0
M  V30 32710 O 3104.86 -1.53817 1.1904 0
M  V30 32711 C 3105.15 1.18672 3.39984 0
M  V30 32712 C 3105 2.71794 3.58397 0
M  V30 32713 C 3106.32 0.769848 4.33314 0
M  V30 32714 H 3103.44 0.267081 0.686904 0
M  V30 32715 H 3106.08 1.28231 1.40203 0
M  V30 32716 H 3104.23 0.717803 3.81811 0
M  V30 32717 H 3105.9 3.26655 3.25721 0
M  V30 32718 H 3104.14 3.12043 3.01349 0
M  V30 32719 H 3104.82 2.98727 4.64183 0
M  V30 32720 H 3107.29 1.17321 3.99218 0
M  V30 32721 H 3106.17 1.11647 5.37426 0
M  V30 32722 H 3106.43 -0.327603 4.40885 0
M  V30 32723 N 3105.49 -1.35184 0.810125 0
M  V30 32724 C 3106.71 -2.03434 0.403676 0
M  V30 32725 C 3107.14 -1.60643 -0.978541 0
M  V30 32726 O 3106.5 -0.784808 -1.63433 0
M  V30 32727 C 3106.54 -3.57128 0.499217 0
M  V30 32728 O 3105.65 -4.09527 -0.485967 0
M  V30 32729 H 3104.99 -0.64238 0.168061 0
M  V30 32730 H 3107.52 -1.72706 1.09699 0
M  V30 32731 H 3107.53 -4.06316 0.370308 0
M  V30 32732 H 3106.2 -3.87621 1.5074 0
M  V30 32733 H 3104.78 -3.7155 -0.317004 0
M  V30 32734 N 3106.97 -0.56394 -1.47165 0
M  V30 32735 C 3107.92 0.20051 -2.27117 0
M  V30 32736 C 3108.9 0.879154 -1.34758 0
M  V30 32737 O 3110.09 0.776349 -1.59065 0
M  V30 32738 C 3107.22 1.22559 -3.20678 0
M  V30 32739 C 3106.31 0.550018 -4.20518 0
M  V30 32740 N 3106.7 -0.383751 -5.04342 0
M  V30 32741 C 3105 0.803109 -4.3871 0
M  V30 32742 C 3105.7 -0.776819 -5.7649 0
M  V30 32743 N 3104.67 -0.130142 -5.43444 0
M  V30 32744 H 3108.48 -0.517326 -2.89311 0
M  V30 32745 H 3105.99 -0.384362 -1.57786 0
M  V30 32746 H 3107.99 1.78726 -3.76646 0
M  V30 32747 H 3106.65 1.94445 -2.60041 0
M  V30 32748 H 3107.66 -0.758282 -5.12319 0
M  V30 32749 H 3104.33 1.50997 -3.89238 0
M  V30 32750 H 3105.72 -1.54449 -6.53908 0
M  V30 32751 N 3108.44 1.54704 -0.300735 0
M  V30 32752 C 3109.69 1.99313 0.309393 0
M  V30 32753 C 3110.01 1.19275 1.55025 0
M  V30 32754 O 3111.21 1.5415 2.23495 0
M  V30 32755 C 3109.67 3.54833 0.601794 0
M  V30 32756 C 3109.28 4.43679 -0.620714 0
M  V30 32757 C 3111.02 4.07968 1.17313 0
M  V30 32758 C 3108.93 5.90631 -0.30148 0
M  V30 32759 H 3107.86 0.744489 0.119382 0
M  V30 32760 H 3110.51 1.78875 -0.409399 0
M  V30 32761 H 3108.89 3.7117 1.38017 0
M  V30 32762 H 3110.06 4.39116 -1.39693 0
M  V30 32763 H 3108.38 4.01314 -1.11067 0
M  V30 32764 H 3110.98 5.15328 1.42622 0
M  V30 32765 H 3111.32 3.58553 2.1153 0
M  V30 32766 H 3111.85 3.95172 0.456465 0
M  V30 32767 H 3108.59 6.44194 -1.21221 0
M  V30 32768 H 3108.11 5.98203 0.437469 0
M  V30 32769 H 3109.79 6.46927 0.0970503 0
M  V30 32770 N 3109.92 0.0284543 1.57574 0
M  V30 32771 C 3111.15 -0.660541 1.96073 0
M  V30 32772 C 3111.57 -1.65701 0.90491 0
M  V30 32773 O 3110.92 -1.82148 -0.113347 0
M  V30 32774 C 3110.97 -1.3675 3.34636 0
M  V30 32775 O 3110.69 -0.410965 4.36168 0
M  V30 32776 C 3112.2 -2.14838 3.87762 0
M  V30 32777 H 3109.42 -0.182172 0.645797 0
M  V30 32778 H 3111.96 0.0880217 2.0431 0
M  V30 32779 H 3110.11 -2.06747 3.27619 0
M  V30 32780 H 3110.53 -0.912909 5.16494 0
M  V30 32781 H 3112 -2.59758 4.87062 0
M  V30 32782 H 3112.48 -2.98714 3.21973 0
M  V30 32783 H 3113.09 -1.498 3.98045 0
M  V30 32784 N 3111.4 -1.55689 -0.244686 0
M  V30 32785 C 3112.63 -1.82022 -0.994125 0
M  V30 32786 C 3113.05 -0.605802 -1.78078 0
M  V30 32787 O 3112.41 0.44519 -1.75749 0
M  V30 32788 C 3112.46 -3.06115 -1.90594 0
M  V30 32789 O 3111.56 -2.83186 -2.99799 0
M  V30 32790 H 3110.9 -0.600787 -0.282756 0
M  V30 32791 H 3113.43 -2.02877 -0.265004 0
M  V30 32792 H 3113.44 -3.35607 -2.32017 0
M  V30 32793 H 3112.12 -3.94143 -1.32756 0
M  V30 32794 H 3110.69 -2.64867 -2.62488 0
M  V30 32795 N 3112.88 0.510441 -1.49105 0
M  V30 32796 C 3114.1 1.29414 -1.6207 0
M  V30 32797 C 3114.53 1.85875 -0.288465 0
M  V30 32798 O 3113.89 1.65392 0.742637 0
M  V30 32799 C 3113.93 2.40697 -2.6851 0
M  V30 32800 O 3113.04 3.44286 -2.27027 0
M  V30 32801 H 3112.38 0.382467 -0.542785 0
M  V30 32802 H 3114.91 0.612119 -1.95229 0
M  V30 32803 H 3114.92 2.86599 -2.90388 0
M  V30 32804 H 3113.59 1.98967 -3.65219 0
M  V30 32805 H 3112.17 3.04367 -2.15442 0
M  V30 32806 N 3114.36 1.38021 0.760791 0
M  V30 32807 C 3115.32 1.3448 1.85601 0
M  V30 32808 C 3116.32 0.246688 1.58896 0
M  V30 32809 O 3117.51 0.503169 1.66775 0
M  V30 32810 C 3114.64 1.09182 3.22943 0
M  V30 32811 H 3115.83 2.31911 1.90151 0
M  V30 32812 H 3113.39 1.23209 0.961725 0
M  V30 32813 H 3114.12 0.123272 3.24066 0
M  V30 32814 H 3113.91 1.88678 3.4372 0
M  V30 32815 H 3115.4 1.09382 4.0302 0
M  V30 32816 N 3115.83 -0.98818 1.22771 0
M  V30 32817 C 3117.07 -1.74355 1.06676 0
M  V30 32818 C 3117.44 -1.87983 -0.390704 0
M  V30 32819 O 3118.64 -2.60248 -0.672631 0
M  V30 32820 C 3116.91 -3.10853 1.76367 0
M  V30 32821 S 3118.47 -4.02068 1.75745 0
M  V30 32822 H 3115.29 -0.59971 0.381927 0
M  V30 32823 H 3117.89 -1.18114 1.55786 0
M  V30 32824 H 3116.59 -2.98579 2.81564 0
M  V30 32825 H 3116.12 -3.72163 1.27507 0
M  V30 32826 H 3118.14 -4.89536 0.810504 0
M  V30 32827 N 3117.31 -1.03816 -1.18575 0
M  V30 32828 C 3118.72 -0.768329 -1.70158 0
M  V30 32829 C 3119.07 0.711074 -1.82861 0
M  V30 32830 O 3118.2 1.55366 -1.50633 0
M  V30 32831 C 3118.79 -1.38809 -3.09059 0
M  V30 32832 C 3117.35 -1.16663 -3.57864 0
M  V30 32833 C 3116.5 -1.48033 -2.34481 0
M  V30 32834 H 3119.45 -1.2049 -1.03285 0
M  V30 32835 H 3119.47 -0.789966 -3.72209 0
M  V30 32836 H 3118.98 -2.46481 -2.99781 0
M  V30 32837 H 3117.09 -0.108537 -3.72442 0
M  V30 32838 H 3117.2 -1.86188 -4.41442 0
M  V30 32839 H 3115.56 -0.899944 -2.38271 0
M  V30 32840 H 3116.35 -2.56809 -2.27825 0
M  V30 32841 N 3118.79 1.34753 -0.817283 0
M  V30 32842 C 3120.04 1.99174 -0.412442 0
M  V30 32843 C 3120.39 1.63641 1.01189 0
M  V30 32844 O 3119.68 0.894927 1.69416 0
M  V30 32845 C 3119.88 3.53215 -0.545362 0
M  V30 32846 C 3119.71 4.03713 -1.98107 0
M  V30 32847 C 3118.48 4.32569 -2.61174 0
M  V30 32848 C 3120.68 4.21489 -2.94706 0
M  V30 32849 N 3118.66 4.69066 -3.96044 0
M  V30 32850 C 3120.03 4.61102 -4.1447 0
M  V30 32851 C 3122.08 4.03723 -2.91397 0
M  V30 32852 C 3120.79 4.84806 -5.31371 0
M  V30 32853 C 3122.81 4.28591 -4.0751 0
M  V30 32854 C 3122.17 4.68485 -5.26024 0
M  V30 32855 H 3118.27 0.756279 -0.198913 0
M  V30 32856 H 3120.86 1.63265 -1.06079 0
M  V30 32857 H 3119.03 3.88331 0.0730537 0
M  V30 32858 H 3120.76 4.04539 -0.11407 0
M  V30 32859 H 3117.52 4.23274 -2.12453 0
M  V30 32860 H 3117.94 4.91557 -4.65511 0
M  V30 32861 H 3122.58 3.72013 -2.00914 0
M  V30 32862 H 3120.3 5.15386 -6.22417 0
M  V30 32863 H 3123.89 4.16386 -4.06342 0
M  V30 32864 H 3122.77 4.8735 -6.14378 0
M  V30 32865 N 3120.27 0.571737 1.46864 0
M  V30 32866 C 3121.2 -0.205439 2.28277 0
M  V30 32867 C 3122.21 -0.86581 1.37868 0
M  V30 32868 O 3123.4 -0.737218 1.62565 0
M  V30 32869 C 3120.5 -1.3096 3.12574 0
M  V30 32870 C 3119.68 -0.743252 4.31039 0
M  V30 32871 C 3118.74 -1.73373 4.96818 0
M  V30 32872 O 3117.76 -1.2741 5.54757 0
M  V30 32873 N 3118.96 -3.06755 4.9283 0
M  V30 32874 H 3121.73 0.492992 2.95617 0
M  V30 32875 H 3119.29 0.408771 1.56655 0
M  V30 32876 H 3121.28 -1.97125 3.53446 0
M  V30 32877 H 3119.85 -1.91105 2.47381 0
M  V30 32878 H 3119.07 0.0955697 3.94084 0
M  V30 32879 H 3120.36 -0.344467 5.07633 0
M  V30 32880 H 3119.76 -3.4673 4.46984 0
M  V30 32881 H 3118.31 -3.68439 5.37676 0
M  V30 32882 N 3121.75 -1.54542 0.308935 0
M  V30 32883 C 3123.16 -1.8581 -0.182111 0
M  V30 32884 C 3123.51 -1.23079 -1.52794 0
M  V30 32885 O 3122.63 -0.531395 -2.09774 0
M  V30 32886 C 3123.23 -3.37118 -0.337215 0
M  V30 32887 C 3121.79 -3.68388 -0.772481 0
M  V30 32888 C 3120.94 -2.77064 0.1145 0
M  V30 32889 H 3123.89 -1.49599 0.529697 0
M  V30 32890 H 3123.91 -3.62049 -1.17052 0
M  V30 32891 H 3123.42 -3.82746 0.64245 0
M  V30 32892 H 3121.52 -3.28283 -1.76241 0
M  V30 32893 H 3121.63 -4.75498 -0.586369 0
M  V30 32894 H 3120 -2.51418 -0.407537 0
M  V30 32895 H 3120.78 -3.25514 1.09066 0
M  V30 32896 N 3123.23 -0.0368104 -1.57557 0
M  V30 32897 C 3124.45 0.650133 -1.9642 0
M  V30 32898 C 3124.87 1.65219 -0.913685 0
M  V30 32899 O 3124.23 1.82205 0.103686 0
M  V30 32900 C 3124.28 1.34974 -3.35357 0
M  V30 32901 O 3124 0.387828 -4.3638 0
M  V30 32902 C 3125.5 2.12779 -3.88896 0
M  V30 32903 H 3122.72 0.178745 -0.646754 0
M  V30 32904 H 3125.26 -0.0988556 -2.04261 0
M  V30 32905 H 3123.42 2.05007 -3.28711 0
M  V30 32906 H 3123.83 0.885506 -5.16971 0
M  V30 32907 H 3125.31 2.57172 -4.88433 0
M  V30 32908 H 3125.78 2.97003 -3.23552 0
M  V30 32909 H 3126.39 1.47687 -3.98834 0
M  V30 32910 N 3124.7 1.55817 0.236426 0
M  V30 32911 C 3125.67 1.90377 1.27629 0
M  V30 32912 C 3126.67 0.781073 1.40556 0
M  V30 32913 O 3127.86 1.04897 1.39076 0
M  V30 32914 C 3124.99 2.14147 2.65243 0
M  V30 32915 H 3126.18 2.83368 0.981969 0
M  V30 32916 H 3123.73 1.4887 0.476188 0
M  V30 32917 H 3124.47 1.23658 2.99798 0
M  V30 32918 H 3124.25 2.95922 2.57241 0
M  V30 32919 H 3125.74 2.42032 3.40309 0
M  V30 32920 N 3126.18 -0.502526 1.49373 0
M  V30 32921 C 3127.09 -1.63065 1.68662 0
M  V30 32922 C 3128.11 -1.64426 0.569211 0
M  V30 32923 O 3129.28 -1.82875 0.843728 0
M  V30 32924 C 3126.35 -2.99438 1.7475 0
M  V30 32925 C 3125.41 -3.08716 2.98317 0
M  V30 32926 C 3124.64 -4.38584 3.04105 0
M  V30 32927 O 3124.87 -5.27293 2.17528 0
M  V30 32928 O 3123.8 -4.52802 3.96552 0
M  V30 32929 H 3127.63 -1.49722 2.64229 0
M  V30 32930 H 3125.21 -0.678647 1.33097 0
M  V30 32931 H 3127.09 -3.80493 1.81116 0
M  V30 32932 H 3125.77 -3.13047 0.82362 0
M  V30 32933 H 3124.67 -2.26855 2.97469 0
M  V30 32934 H 3126.01 -3.00034 3.9018 0
M  V30 32935 N 3127.66 -1.38422 -0.75346 0
M  V30 32936 C 3129.07 -1.30947 -1.33078 0
M  V30 32937 C 3129.42 0.0346779 -1.96169 0
M  V30 32938 O 3128.55 0.936734 -1.95075 0
M  V30 32939 C 3129.14 -2.37142 -2.41969 0
M  V30 32940 C 3127.7 -2.33244 -2.95422 0
M  V30 32941 C 3126.85 -2.20001 -1.68804 0
M  V30 32942 H 3129.8 -1.48778 -0.552328 0
M  V30 32943 H 3129.82 -2.02865 -3.2191 0
M  V30 32944 H 3129.33 -3.34959 -1.96021 0
M  V30 32945 H 3127.43 -1.39009 -3.45698 0
M  V30 32946 H 3127.55 -3.27387 -3.49792 0
M  V30 32947 H 3125.91 -1.66856 -1.92435 0
M  V30 32948 H 3126.69 -3.1976 -1.24933 0
M  V30 32949 N 3129.14 0.981655 -1.23294 0
M  V30 32950 C 3130.09 2.05856 -0.980169 0
M  V30 32951 C 3131.07 1.60733 0.0733761 0
M  V30 32952 O 3132.26 1.76457 -0.138592 0
M  V30 32953 C 3129.39 3.38502 -0.571938 0
M  V30 32954 C 3128.48 3.90228 -1.66082 0
M  V30 32955 N 3128.87 4.15047 -2.89085 0
M  V30 32956 C 3127.17 4.18749 -1.53511 0
M  V30 32957 C 3127.87 4.57253 -3.59575 0
M  V30 32958 N 3126.84 4.6161 -2.87084 0
M  V30 32959 H 3130.65 2.23001 -1.91436 0
M  V30 32960 H 3128.16 1.16432 -1.13213 0
M  V30 32961 H 3130.16 4.15236 -0.372132 0
M  V30 32962 H 3128.82 3.22751 0.355222 0
M  V30 32963 H 3129.83 4.02907 -3.25402 0
M  V30 32964 H 3126.51 4.12008 -0.674964 0
M  V30 32965 H 3127.9 4.84985 -4.65015 0
M  V30 32966 N 3130.62 1.04444 1.18022 0
M  V30 32967 C 3131.86 0.748573 1.87725 0
M  V30 32968 C 3132.18 -0.726125 1.80976 0
M  V30 32969 O 3131.45 -1.52421 1.23064 0
M  V30 32970 H 3130.03 0.273909 0.69497 0
M  V30 32971 H 3132.7 1.32199 1.43211 0
M  V30 32972 H 3131.79 1.0568 2.93664 0
M  V30 32973 N 3132.09 -1.34317 0.824418 0
M  V30 32974 C 3133.5 -1.80639 0.471833 0
M  V30 32975 C 3133.86 -1.68332 -1.0079 0
M  V30 32976 O 3132.98 -1.22419 -1.78445 0
M  V30 32977 C 3133.58 -3.27973 0.849667 0
M  V30 32978 C 3132.13 -3.72368 0.549431 0
M  V30 32979 C 3131.28 -2.56001 1.06578 0
M  V30 32980 H 3134.23 -1.22043 1.01445 0
M  V30 32981 H 3134.25 -3.80188 0.154035 0
M  V30 32982 H 3133.77 -3.36898 1.92668 0
M  V30 32983 H 3131.87 -3.6898 -0.518118 0
M  V30 32984 H 3131.98 -4.6643 1.09454 0
M  V30 32985 H 3130.34 -2.49996 0.487258 0
M  V30 32986 H 3131.13 -2.67696 2.14927 0
M  V30 32987 N 3133.57 -0.579517 -1.46558 0
M  V30 32988 C 3134.48 0.158119 -2.34067 0
M  V30 32989 C 3135.5 0.889294 -1.49558 0
M  V30 32990 O 3136.67 0.853193 -1.82435 0
M  V30 32991 C 3133.74 1.16094 -3.26685 0
M  V30 32992 C 3132.8 0.43478 -4.27093 0
M  V30 32993 C 3132.03 1.38983 -5.15286 0
M  V30 32994 O 3132.26 2.62615 -5.06349 0
M  V30 32995 O 3131.19 0.902149 -5.95101 0
M  V30 32996 H 3135.02 -0.560286 -2.98487 0
M  V30 32997 H 3132.6 -0.339943 -1.45481 0
M  V30 32998 H 3134.48 1.73925 -3.83833 0
M  V30 32999 H 3133.16 1.86087 -2.64865 0
M  V30 33000 H 3132.06 -0.185289 -3.73641 0
M  V30 33001 H 3133.4 -0.224118 -4.91689 0
M  V30 33002 N 3135.05 1.54376 -0.317127 0
M  V30 33003 C 3136.01 2.22772 0.539011 0
M  V30 33004 C 3137.01 1.21903 1.04863 0
M  V30 33005 O 3138.2 1.46528 0.942083 0
M  V30 33006 C 3135.34 2.92674 1.74799 0
M  V30 33007 H 3136.53 2.99842 -0.0587944 0
M  V30 33008 H 3134.08 1.56151 -0.0681345 0
M  V30 33009 H 3134.82 2.19724 2.3852 0
M  V30 33010 H 3134.6 3.66633 1.39005 0
M  V30 33011 H 3136.09 3.44803 2.35586 0
M  V30 33012 N 3136.53 0.0451655 1.57535 0
M  V30 33013 C 3137.75 -0.643225 1.97173 0
M  V30 33014 C 3138.18 -1.63937 0.922295 0
M  V30 33015 O 3137.54 -1.80934 -0.115123 0
M  V30 33016 C 3137.58 -1.31184 3.35891 0
M  V30 33017 O 3136.69 -2.42743 3.33391 0
M  V30 33018 H 3136.03 -0.167708 0.642472 0
M  V30 33019 H 3138.56 0.111783 2.04294 0
M  V30 33020 H 3138.57 -1.66492 3.72484 0
M  V30 33021 H 3137.24 -0.581751 4.11811 0
M  V30 33022 H 3135.82 -2.09427 3.08537 0
M  V30 33023 N 3138.01 -1.5594 -0.228159 0
M  V30 33024 C 3139.42 -1.68895 -0.795704 0
M  V30 33025 C 3139.77 -0.645999 -1.8526 0
M  V30 33026 O 3138.89 0.204162 -2.15435 0
M  V30 33027 C 3139.49 -3.062 -1.45007 0
M  V30 33028 C 3138.05 -3.21032 -1.96509 0
M  V30 33029 C 3137.19 -2.6481 -0.822872 0
M  V30 33030 H 3140.15 -1.587 -0.00362061 0
M  V30 33031 H 3140.17 -3.01689 -2.3187 0
M  V30 33032 H 3139.68 -3.82085 -0.68061 0
M  V30 33033 H 3137.78 -2.50003 -2.76277 0
M  V30 33034 H 3137.89 -4.28169 -2.1496 0
M  V30 33035 H 3136.26 -2.23118 -1.22842 0
M  V30 33036 H 3137.04 -3.43236 -0.066189 0
M  V30 33037 N 3139.48 0.494597 -1.49638 0
M  V30 33038 C 3140.73 1.25016 -1.59684 0
M  V30 33039 C 3141.06 1.92089 -0.285544 0
M  V30 33040 O 3140.34 1.81024 0.711366 0
M  V30 33041 C 3140.62 2.31218 -2.76062 0
M  V30 33042 C 3140.47 1.68603 -4.17005 0
M  V30 33043 C 3141.79 3.32728 -2.88062 0
M  V30 33044 H 3138.91 0.453162 -0.581217 0
M  V30 33045 H 3141.55 0.547359 -1.81945 0
M  V30 33046 H 3139.7 2.9116 -2.57212 0
M  V30 33047 H 3141.38 1.12439 -4.47387 0
M  V30 33048 H 3139.62 0.989917 -4.22354 0
M  V30 33049 H 3140.29 2.45665 -4.9432 0
M  V30 33050 H 3142.77 2.82784 -3.05242 0
M  V30 33051 H 3141.64 4.04392 -3.71158 0
M  V30 33052 H 3141.9 3.95441 -1.97683 0
M  V30 33053 N 3140.96 1.3882 0.746109 0
M  V30 33054 C 3141.93 1.36441 1.84165 0
M  V30 33055 C 3142.93 0.263527 1.58626 0
M  V30 33056 O 3144.12 0.52083 1.66232 0
M  V30 33057 C 3141.25 1.12601 3.21767 0
M  V30 33058 H 3142.44 2.33915 1.8768 0
M  V30 33059 H 3139.99 1.24222 0.948603 0
M  V30 33060 H 3140.73 0.157637 3.23917 0
M  V30 33061 H 3140.51 1.92313 3.41699 0
M  V30 33062 H 3142 1.1365 4.01838 0
M  V30 33063 N 3142.44 -0.975103 1.23812 0
M  V30 33064 C 3143.69 -1.71371 1.07127 0
M  V30 33065 C 3144.01 -1.91023 -0.391831 0
M  V30 33066 O 3143.28 -1.48267 -1.28038 0
M  V30 33067 H 3141.86 -0.635 0.393426 0
M  V30 33068 H 3144.52 -1.17347 1.55614 0
M  V30 33069 H 3143.62 -2.70117 1.56343 0
M  V30 33070 N 3143.92 -1.05068 -1.17467 0
M  V30 33071 C 3145.17 -0.758518 -1.87326 0
M  V30 33072 C 3145.49 0.716517 -1.81359 0
M  V30 33073 O 3144.76 1.51766 -1.2387 0
M  V30 33074 H 3143.34 -0.277591 -0.693507 0
M  V30 33075 H 3146 -1.32957 -1.42508 0
M  V30 33076 H 3145.1 -1.07235 -2.93099 0
M  V30 33077 N 3145.4 1.33878 -0.831529 0
M  V30 33078 C 3146.31 2.33135 -0.261729 0
M  V30 33079 C 3147.32 1.63017 0.608401 0
M  V30 33080 O 3148.5 1.94724 0.514263 0
M  V30 33081 C 3145.56 3.42149 0.559897 0
M  V30 33082 C 3144.62 4.28002 -0.333644 0
M  V30 33083 C 3143.86 5.31809 0.448863 0
M  V30 33084 O 3144.08 5.45058 1.68131 0
M  V30 33085 O 3143.01 6.0165 -0.173302 0
M  V30 33086 H 3146.84 2.83715 -1.08348 0
M  V30 33087 H 3144.43 1.37089 -0.593873 0
M  V30 33088 H 3146.31 4.08693 1.02705 0
M  V30 33089 H 3144.98 2.93798 1.35883 0
M  V30 33090 H 3143.89 3.64351 -0.84848 0
M  V30 33091 H 3145.22 4.79816 -1.09715 0
M  V30 33092 N 3146.87 0.587281 1.46249 0
M  V30 33093 C 3148.29 0.249312 1.57641 0
M  V30 33094 C 3148.49 -1.24836 1.58172 0
M  V30 33095 O 3147.55 -2.03033 1.50112 0
M  V30 33096 C 3148.86 0.90256 2.86835 0
M  V30 33097 C 3150.41 0.876577 3.00475 0
M  V30 33098 C 3150.88 1.50945 4.32411 0
M  V30 33099 N 3152.37 1.474 4.39121 0
M  V30 33100 C 3153.11 1.93303 5.39835 0
M  V30 33101 N 3152.6 2.47199 6.47197 0
M  V30 33102 N 3154.4 1.84192 5.31065 0
M  V30 33103 H 3146.55 1.55997 1.44148 0
M  V30 33104 H 3148.81 0.652309 0.687893 0
M  V30 33105 H 3148.52 1.95629 2.92271 0
M  V30 33106 H 3148.39 0.413532 3.74926 0
M  V30 33107 H 3150.78 -0.168549 2.94618 0
M  V30 33108 H 3150.86 1.40367 2.13848 0
M  V30 33109 H 3150.5 2.5538 4.39026 0
M  V30 33110 H 3150.43 0.957546 5.17821 0
M  V30 33111 H 3152.92 1.08008 3.62136 0
M  V30 33112 H 3153.24 2.80071 7.20264 0
M  V30 33113 H 3151.58 2.51227 6.48004 0
M  V30 33114 H 3154.77 1.4184 4.46093 0
M  V30 33115 H 3154.95 2.20281 6.0941 0
M  V30 33116 N 3148.35 -1.54206 0.325309 0
M  V30 33117 C 3149.63 -1.92777 -0.331096 0
M  V30 33118 C 3150.01 -1.25509 -1.69737 0
M  V30 33119 O 3149.36 -0.399424 -2.24982 0
M  V30 33120 C 3149.57 -3.46444 -0.421575 0
M  V30 33121 C 3150.92 -4.19103 -0.681037 0
M  V30 33122 O 3151.94 -3.5261 -0.504426 0
M  V30 33123 O 3150.8 -5.36861 -1.02187 0
M  V30 33124 H 3147.89 -0.805016 -0.189416 0
M  V30 33125 H 3150.44 -1.65501 0.375152 0
M  V30 33126 H 3149.21 -3.87585 0.53793 0
M  V30 33127 H 3148.83 -3.79831 -1.17533 0
M  V30 33128 N 3149.83 -0.0535194 -1.57509 0
M  V30 33129 C 3150.76 0.917961 -2.14699 0
M  V30 33130 C 3151.74 1.32291 -1.06926 0
M  V30 33131 O 3152.93 1.3972 -1.34877 0
M  V30 33132 C 3150.06 2.19198 -2.69387 0
M  V30 33133 C 3149.01 1.92703 -3.82164 0
M  V30 33134 C 3148.34 3.26579 -4.23379 0
M  V30 33135 C 3149.64 1.24677 -5.07201 0
M  V30 33136 H 3151.33 0.441598 -2.96125 0
M  V30 33137 H 3148.88 0.210968 -1.42446 0
M  V30 33138 H 3150.83 2.87561 -3.08036 0
M  V30 33139 H 3149.55 2.69044 -1.85156 0
M  V30 33140 H 3148.21 1.26751 -3.43991 0
M  V30 33141 H 3147.86 3.74231 -3.36095 0
M  V30 33142 H 3147.56 3.09649 -4.99391 0
M  V30 33143 H 3149.09 3.9617 -4.6463 0
M  V30 33144 H 3150.5 1.83078 -5.43282 0
M  V30 33145 H 3148.9 1.18065 -5.88371 0
M  V30 33146 H 3149.97 0.223142 -4.84386 0
M  V30 33147 N 3151.31 1.56059 0.219886 0
M  V30 33148 C 3152.73 1.49087 0.569658 0
M  V30 33149 C 3152.93 0.748936 1.87065 0
M  V30 33150 O 3151.98 0.289279 2.50837 0
M  V30 33151 C 3153.29 2.93649 0.647346 0
M  V30 33152 C 3154.84 3.04179 0.737861 0
M  V30 33153 C 3155.32 4.50102 0.846878 0
M  V30 33154 N 3156.81 4.54152 0.911056 0
M  V30 33155 C 3157.54 5.64342 1.01515 0
M  V30 33156 N 3157.04 6.84281 1.08308 0
M  V30 33157 N 3158.83 5.52198 1.05041 0
M  V30 33158 H 3150.98 2.02723 -0.633814 0
M  V30 33159 H 3153.25 0.921495 -0.222599 0
M  V30 33160 H 3152.95 3.50887 -0.239048 0
M  V30 33161 H 3152.83 3.4564 1.51039 0
M  V30 33162 H 3155.21 2.47005 1.6147 0
M  V30 33163 H 3155.29 2.55355 -0.15089 0
M  V30 33164 H 3154.94 5.07894 -0.0255059 0
M  V30 33165 H 3154.87 4.96634 1.75107 0
M  V30 33166 H 3157.36 3.67777 0.868804 0
M  V30 33167 H 3157.67 7.64009 1.16233 0
M  V30 33168 H 3156.02 6.86989 1.05219 0
M  V30 33169 H 3159.21 4.57424 0.994006 0
M  V30 33170 H 3159.38 6.38105 1.12808 0
M  V30 33171 N 3152.79 -0.486655 1.49898 0
M  V30 33172 C 3154.2 -0.819085 1.36979 0
M  V30 33173 C 3154.4 -1.97204 0.413885 0
M  V30 33174 O 3153.46 -2.52059 -0.149205 0
M  V30 33175 C 3154.77 -1.14579 2.78015 0
M  V30 33176 C 3156.32 -1.25316 2.86819 0
M  V30 33177 C 3156.8 -1.61308 4.28653 0
M  V30 33178 N 3158.29 -1.6833 4.31531 0
M  V30 33179 C 3159.02 -1.97652 5.38257 0
M  V30 33180 N 3158.52 -2.25101 6.55211 0
M  V30 33181 N 3160.31 -1.99024 5.25686 0
M  V30 33182 H 3152.46 0.273401 2.10633 0
M  V30 33183 H 3154.72 0.0597585 0.946115 0
M  V30 33184 H 3154.43 -0.371831 3.49729 0
M  V30 33185 H 3154.3 -2.08579 3.14284 0
M  V30 33186 H 3156.69 -2.01782 2.15333 0
M  V30 33187 H 3156.77 -0.293323 2.54113 0
M  V30 33188 H 3156.42 -0.85388 5.00671 0
M  V30 33189 H 3156.35 -2.58416 4.58834 0
M  V30 33190 H 3158.84 -1.4922 3.47191 0
M  V30 33191 H 3159.15 -2.46705 7.32364 0
M  V30 33192 H 3157.5 -2.22527 6.58412 0
M  V30 33193 H 3160.69 -1.77066 4.33319 0
M  V30 33194 H 3160.86 -2.21541 6.08953 0
M  V30 33195 N 3154.27 -1.39214 -0.738737 0
M  V30 33196 C 3155.2 -1.40367 -1.866 0
M  V30 33197 C 3156.18 -0.267525 -1.67983 0
M  V30 33198 O 3157.36 -0.472798 -1.88357 0
M  V30 33199 C 3154.49 -1.2427 -3.24306 0
M  V30 33200 C 3153.45 -2.35245 -3.57552 0
M  V30 33201 C 3152.77 -2.04241 -4.94155 0
M  V30 33202 C 3154.07 -3.77549 -3.60907 0
M  V30 33203 H 3155.77 -2.34701 -1.85892 0
M  V30 33204 H 3153.31 -1.12972 -0.892939 0
M  V30 33205 H 3155.26 -1.23699 -4.02836 0
M  V30 33206 H 3153.99 -0.264032 -3.25531 0
M  V30 33207 H 3152.65 -2.35027 -2.8135 0
M  V30 33208 H 3152.3 -1.04821 -4.91957 0
M  V30 33209 H 3152 -2.78576 -5.17368 0
M  V30 33210 H 3153.52 -2.05313 -5.75047 0
M  V30 33211 H 3154.93 -3.79717 -4.29521 0
M  V30 33212 H 3153.33 -4.51212 -3.95636 0
M  V30 33213 H 3154.4 -4.08795 -2.60796 0
M  V30 33214 N 3155.74 0.968523 -1.24328 0
M  V30 33215 C 3156.97 1.74383 -1.10789 0
M  V30 33216 C 3157.38 1.86075 0.34247 0
M  V30 33217 O 3156.72 1.34785 1.24815 0
M  V30 33218 C 3156.79 3.1821 -1.6728 0
M  V30 33219 C 3156.45 3.29992 -3.16155 0
M  V30 33220 C 3157.45 3.15385 -4.13314 0
M  V30 33221 C 3155.13 3.54259 -3.56098 0
M  V30 33222 C 3157.13 3.24868 -5.48397 0
M  V30 33223 C 3154.81 3.6338 -4.91323 0
M  V30 33224 C 3155.81 3.48697 -5.87282 0
M  V30 33225 O 3155.5 3.57473 -7.20048 0
M  V30 33226 H 3155.23 0.5537 -0.387805 0
M  V30 33227 H 3157.79 1.22468 -1.64896 0
M  V30 33228 H 3156.02 3.71427 -1.07605 0
M  V30 33229 H 3157.7 3.77546 -1.49043 0
M  V30 33230 H 3158.47 2.96522 -3.83797 0
M  V30 33231 H 3154.35 3.64755 -2.81913 0
M  V30 33232 H 3157.89 3.13324 -6.23277 0
M  V30 33233 H 3153.79 3.81757 -5.20511 0
M  V30 33234 H 3154.56 3.74193 -7.27958 0
M  V30 33235 N 3157.22 1.0569 1.16908 0
M  V30 33236 C 3158.45 0.790512 1.91744 0
M  V30 33237 C 3158.87 -0.648447 1.76569 0
M  V30 33238 O 3158.23 -1.45112 1.08684 0
M  V30 33239 C 3158.28 1.18228 3.40668 0
M  V30 33240 O 3157.38 0.317413 4.11177 0
M  V30 33241 H 3156.72 0.289441 0.597595 0
M  V30 33242 H 3159.25 1.41108 1.48154 0
M  V30 33243 H 3159.26 1.15121 3.91422 0
M  V30 33244 H 3157.94 2.23046 3.51032 0
M  V30 33245 H 3156.51 0.409524 3.70644 0
M  V30 33246 N 3158.7 -1.33435 0.838617 0
M  V30 33247 C 3159.95 -1.98083 0.434847 0
M  V30 33248 C 3160.28 -1.66277 -1.00328 0
M  V30 33249 O 3159.55 -0.942531 -1.70137 0
M  V30 33250 C 3159.84 -3.54081 0.655664 0
M  V30 33251 C 3159.69 -3.95575 2.14104 0
M  V30 33252 C 3161.01 -4.39983 0.101653 0
M  V30 33253 H 3158.13 -0.719541 0.159468 0
M  V30 33254 H 3160.77 -1.58079 1.05408 0
M  V30 33255 H 3158.92 -3.88287 0.128569 0
M  V30 33256 H 3160.59 -3.71626 2.73298 0
M  V30 33257 H 3158.83 -3.45315 2.62564 0
M  V30 33258 H 3159.51 -5.04228 2.2463 0
M  V30 33259 H 3161.98 -4.1242 0.552195 0
M  V30 33260 H 3160.86 -5.48155 0.285847 0
M  V30 33261 H 3161.12 -4.30768 -0.99454 0
M  V30 33262 N 3160.18 -0.595029 -1.45935 0
M  V30 33263 C 3161.45 -0.0179092 -1.95592 0
M  V30 33264 C 3161.83 1.4464 -1.53761 0
M  V30 33265 O 3161.18 2.14256 -0.794142 0
M  V30 33266 C 3161.39 -0.202851 -3.4841 0
M  V30 33267 C 3162.74 -0.0770867 -4.2453 0
M  V30 33268 O 3163.76 -0.13232 -3.55954 0
M  V30 33269 O 3162.62 0.0483311 -5.46479 0
M  V30 33270 H 3159.72 0.0428557 -0.825889 0
M  V30 33271 H 3162.26 -0.664212 -1.56161 0
M  V30 33272 H 3161.04 -1.22033 -3.71784 0
M  V30 33273 H 3160.66 0.479307 -3.947 0
M  V30 33274 N 3161.66 1.54031 -0.333483 0
M  V30 33275 C 3162.62 2.23331 0.515353 0
M  V30 33276 C 3163.62 1.23009 1.03564 0
M  V30 33277 O 3164.81 1.47519 0.926488 0
M  V30 33278 C 3161.94 2.94511 1.71685 0
M  V30 33279 H 3163.13 2.99763 -0.0905934 0
M  V30 33280 H 3160.69 1.5607 -0.0846926 0
M  V30 33281 H 3161.42 2.22241 2.36177 0
M  V30 33282 H 3161.21 3.68087 1.35108 0
M  V30 33283 H 3162.7 3.47282 2.31915 0
M  V30 33284 N 3163.13 0.0618717 1.57479 0
M  V30 33285 C 3164.07 -0.938209 2.09118 0
M  V30 33286 C 3165.08 -1.26787 1.02122 0
M  V30 33287 O 3166.27 -1.22679 1.29662 0
M  V30 33288 C 3163.37 -2.25682 2.52826 0
M  V30 33289 C 3162.54 -2.10748 3.8328 0
M  V30 33290 C 3161.6 -3.25826 4.13187 0
M  V30 33291 O 3160.63 -3.01256 4.82942 0
M  V30 33292 N 3161.83 -4.50626 3.65946 0
M  V30 33293 H 3164.59 -0.497381 2.95544 0
M  V30 33294 H 3162.15 -0.124106 1.61424 0
M  V30 33295 H 3164.15 -3.01555 2.69902 0
M  V30 33296 H 3162.72 -2.61296 1.71591 0
M  V30 33297 H 3161.94 -1.19402 3.75682 0
M  V30 33298 H 3163.22 -1.9801 4.68689 0
M  V30 33299 H 3162.62 -4.73477 3.09575 0
M  V30 33300 H 3161.18 -5.23558 3.8824 0
M  V30 33301 N 3164.61 -1.56173 -0.211607 0
M  V30 33302 C 3165.86 -1.79292 -0.932673 0
M  V30 33303 C 3166.18 -0.632108 -1.84471 0
M  V30 33304 O 3165.45 0.350485 -1.92739 0
M  V30 33305 H 3164.03 -0.661313 -0.347382 0
M  V30 33306 H 3166.69 -1.93642 -0.221076 0
M  V30 33307 H 3165.79 -2.71822 -1.5336 0
M  V30 33308 N 3166.09 0.478699 -1.50154 0
M  V30 33309 C 3167.34 1.23133 -1.60762 0
M  V30 33310 C 3167.67 1.92102 -0.304454 0
M  V30 33311 O 3166.92 1.82398 0.709181 0
M  V30 33312 C 3167.22 2.30412 -2.73212 0
M  V30 33313 C 3166.89 1.78748 -4.13957 0
M  V30 33314 C 3165.55 1.64378 -4.52254 0
M  V30 33315 C 3167.9 1.40335 -5.01952 0
M  V30 33316 C 3165.23 1.10007 -5.76294 0
M  V30 33317 C 3167.58 0.874095 -6.26532 0
M  V30 33318 C 3166.24 0.716968 -6.63638 0
M  V30 33319 H 3165.51 0.450575 -0.588272 0
M  V30 33320 H 3168.16 0.528519 -1.84062 0
M  V30 33321 H 3166.47 3.06571 -2.43971 0
M  V30 33322 H 3168.16 2.8839 -2.78625 0
M  V30 33323 H 3164.75 1.90898 -3.8374 0
M  V30 33324 H 3168.94 1.50275 -4.73002 0
M  V30 33325 H 3164.19 0.965732 -6.03725 0
M  V30 33326 H 3168.37 0.567761 -6.94082 0
M  V30 33327 H 3165.99 0.293505 -7.59633 0
M  V30 33328 N 3167.57 1.39603 0.731343 0
M  V30 33329 C 3168.5 1.41355 1.85852 0
M  V30 33330 C 3169.48 0.27643 1.67839 0
M  V30 33331 O 3170.66 0.48278 1.88103 0
M  V30 33332 C 3167.79 1.25989 3.23642 0
M  V30 33333 C 3166.75 2.37138 3.563 0
M  V30 33334 C 3166.07 2.06859 4.93065 0
M  V30 33335 C 3167.37 3.79458 3.589 0
M  V30 33336 H 3169.07 2.35684 1.84644 0
M  V30 33337 H 3166.61 1.13444 0.886935 0
M  V30 33338 H 3168.57 1.25834 4.02174 0
M  V30 33339 H 3167.29 0.281292 3.25386 0
M  V30 33340 H 3165.95 2.36516 2.80099 0
M  V30 33341 H 3165.6 1.07429 4.91394 0
M  V30 33342 H 3165.3 2.81315 5.15883 0
M  V30 33343 H 3166.82 2.0836 5.7395 0
M  V30 33344 H 3168.24 3.81989 4.27501 0
M  V30 33345 H 3166.63 4.53304 3.93238 0
M  V30 33346 H 3167.7 4.10173 2.58624 0
M  V30 33347 N 3169.05 -0.961916 1.2484 0
M  V30 33348 C 3170.32 -1.6814 0.99942 0
M  V30 33349 C 3170.7 -2.05651 -0.476552 0
M  V30 33350 O 3170.05 -1.76417 -1.45221 0
M  V30 33351 C 3170.26 -2.9091 1.92802 0
M  V30 33352 C 3171.61 -3.63023 2.20226 0
M  V30 33353 O 3172.63 -3.00978 1.90502 0
M  V30 33354 O 3171.49 -4.74727 2.70734 0
M  V30 33355 H 3168.59 -0.735335 0.378432 0
M  V30 33356 H 3171.13 -1.01549 1.35963 0
M  V30 33357 H 3169.9 -2.59926 2.92497 0
M  V30 33358 H 3169.53 -3.65233 1.57133 0
M  V30 33359 N 3170.52 -1.06308 -1.16346 0
M  V30 33360 C 3171.47 -0.674001 -2.20739 0
M  V30 33361 C 3172.44 0.329425 -1.628 0
M  V30 33362 O 3173.63 0.218279 -1.89547 0
M  V30 33363 C 3170.77 -0.0667615 -3.45035 0
M  V30 33364 C 3169.88 -1.12038 -4.17219 0
M  V30 33365 C 3169.01 -0.479269 -5.29034 0
M  V30 33366 C 3168.05 -1.51642 -5.93019 0
M  V30 33367 N 3167.19 -0.898651 -6.96325 0
M  V30 33368 H 3172.03 -1.56864 -2.53373 0
M  V30 33369 H 3169.57 -0.784298 -1.24448 0
M  V30 33370 H 3171.53 0.302843 -4.16099 0
M  V30 33371 H 3170.16 0.791278 -3.12951 0
M  V30 33372 H 3169.21 -1.60769 -3.44757 0
M  V30 33373 H 3170.52 -1.9072 -4.60898 0
M  V30 33374 H 3169.67 -0.0567059 -6.06673 0
M  V30 33375 H 3168.41 0.339424 -4.86517 0
M  V30 33376 H 3167.42 -1.94887 -5.141 0
M  V30 33377 H 3168.64 -2.33721 -6.37614 0
M  V30 33378 H 3166.59 -0.100671 -6.55923 0
M  V30 33379 H 3166.51 -1.62285 -7.38376 0
M  V30 33380 H 3167.77 -0.501237 -7.77887 0
M  V30 33381 N 3172 1.32989 -0.845682 0
M  V30 33382 C 3173.41 1.79866 -0.500512 0
M  V30 33383 C 3173.76 1.69914 0.980997 0
M  V30 33384 O 3172.89 1.25242 1.76475 0
M  V30 33385 C 3173.48 3.26579 -0.901737 0
M  V30 33386 C 3172.04 3.71447 -0.608602 0
M  V30 33387 C 3171.19 2.54273 -1.10637 0
M  V30 33388 H 3174.14 1.20414 -1.03374 0
M  V30 33389 H 3174.16 3.79895 -0.2145 0
M  V30 33390 H 3173.67 3.3379 -1.98004 0
M  V30 33391 H 3171.78 3.69758 0.459351 0
M  V30 33392 H 3171.89 4.64629 -1.16861 0
M  V30 33393 H 3170.25 2.49189 -0.526969 0
M  V30 33394 H 3171.04 2.64243 -2.19159 0
M  V30 33395 N 3173.48 0.60276 1.45618 0
M  V30 33396 C 3174.73 0.0958795 2.01872 0
M  V30 33397 C 3175.05 -1.2763 1.4743 0
M  V30 33398 O 3174.32 -1.84207 0.666684 0
M  V30 33399 H 3172.9 0.032454 0.746295 0
M  V30 33400 H 3175.56 0.783068 1.78477 0
M  V30 33401 H 3174.66 0.0420055 3.12072 0
M  V30 33402 N 3174.96 -1.53852 0.341647 0
M  V30 33403 C 3176.37 -1.59597 -0.0103488 0
M  V30 33404 C 3176.57 -1.35767 -1.48895 0
M  V30 33405 O 3175.63 -1.15099 -2.24741 0
M  V30 33406 C 3176.94 -2.97694 0.424119 0
M  V30 33407 C 3178.49 -3.1073 0.376302 0
M  V30 33408 C 3178.97 -4.51201 0.786209 0
M  V30 33409 N 3180.46 -4.57246 0.74032 0
M  V30 33410 C 3181.19 -5.64083 1.02946 0
M  V30 33411 N 3180.69 -6.78781 1.38667 0
M  V30 33412 N 3182.48 -5.53948 0.953831 0
M  V30 33413 H 3174.63 -1.67597 1.3048 0
M  V30 33414 H 3176.9 -0.784811 0.531767 0
M  V30 33415 H 3176.6 -3.20192 1.45499 0
M  V30 33416 H 3176.48 -3.76661 -0.201646 0
M  V30 33417 H 3178.86 -2.87956 -0.64539 0
M  V30 33418 H 3178.94 -2.33827 1.03725 0
M  V30 33419 H 3178.59 -4.7471 1.8059 0
M  V30 33420 H 3178.52 -5.265 0.102763 0
M  V30 33421 H 3181.01 -3.7488 0.476829 0
M  V30 33422 H 3181.32 -7.5622 1.5922 0
M  V30 33423 H 3179.67 -6.80232 1.4251 0
M  V30 33424 H 3182.86 -4.6322 0.674126 0
M  V30 33425 H 3183.03 -6.37119 1.18252 0
M  V30 33426 N 3176.44 -0.0702223 -1.57443 0
M  V30 33427 C 3177.4 0.882886 -2.11513 0
M  V30 33428 C 3178.4 1.22741 -1.03881 0
M  V30 33429 O 3179.59 1.16094 -1.29876 0
M  V30 33430 C 3176.72 2.18681 -2.61518 0
M  V30 33431 H 3177.91 0.413821 -2.97031 0
M  V30 33432 H 3175.47 0.178461 -1.55278 0
M  V30 33433 H 3176.2 2.70128 -1.79448 0
M  V30 33434 H 3175.99 1.94972 -3.40188 0
M  V30 33435 H 3177.48 2.86914 -3.0343 0
M  V30 33436 N 3177.91 1.56283 0.203321 0
M  V30 33437 C 3179.19 1.70959 0.950385 0
M  V30 33438 C 3179.57 0.622683 2.01707 0
M  V30 33439 O 3178.92 -0.367595 2.25524 0
M  V30 33440 C 3179.13 3.12974 1.54428 0
M  V30 33441 C 3180.48 3.72953 2.02957 0
M  V30 33442 O 3181.5 3.16051 1.64287 0
M  V30 33443 O 3180.36 4.72798 2.74089 0
M  V30 33444 H 3177.45 0.696978 0.445141 0
M  V30 33445 H 3180 1.68591 0.193666 0
M  V30 33446 H 3178.77 3.83549 0.774983 0
M  V30 33447 H 3178.4 3.19536 2.36606 0
M  V30 33448 N 3179.39 -0.470729 1.50406 0
M  V30 33449 C 3180.3 -1.59451 1.72083 0
M  V30 33450 C 3181.32 -1.63182 0.60396 0
M  V30 33451 O 3182.5 -1.81044 0.882328 0
M  V30 33452 C 3179.56 -2.95664 1.81062 0
M  V30 33453 C 3178.62 -3.02319 3.04798 0
M  V30 33454 C 3177.85 -4.32035 3.13339 0
M  V30 33455 O 3178.08 -5.2256 2.28664 0
M  V30 33456 O 3177.01 -4.44289 4.06068 0
M  V30 33457 H 3180.84 -1.44084 2.67345 0
M  V30 33458 H 3178.42 -0.650263 1.34506 0
M  V30 33459 H 3180.3 -3.76565 1.89147 0
M  V30 33460 H 3178.98 -3.11229 0.889837 0
M  V30 33461 H 3177.89 -2.20494 3.02214 0
M  V30 33462 H 3179.22 -2.91691 3.96456 0
M  V30 33463 N 3180.87 -1.39989 -0.72393 0
M  V30 33464 C 3181.8 -1.35501 -1.84857 0
M  V30 33465 C 3182.82 -0.261841 -1.60681 0
M  V30 33466 O 3184.01 -0.521596 -1.70709 0
M  V30 33467 C 3181.11 -1.08386 -3.21101 0
M  V30 33468 C 3180.28 -2.29196 -3.72542 0
M  V30 33469 C 3179.34 -1.98369 -4.87377 0
M  V30 33470 O 3178.36 -2.71158 -5.00462 0
M  V30 33471 N 3179.57 -0.956562 -5.72565 0
M  V30 33472 H 3182.33 -2.32423 -1.89208 0
M  V30 33473 H 3179.89 -1.34235 -0.905128 0
M  V30 33474 H 3181.88 -0.857633 -3.95508 0
M  V30 33475 H 3180.45 -0.201604 -3.11949 0
M  V30 33476 H 3179.67 -2.67702 -2.8936 0
M  V30 33477 H 3180.96 -3.09754 -4.03646 0
M  V30 33478 H 3180.36 -0.353543 -5.64594 0
M  V30 33479 H 3178.92 -0.790232 -6.46992 0
M  V30 33480 N 3182.35 0.955282 -1.25348 0
M  V30 33481 C 3183.6 1.70293 -1.11229 0
M  V30 33482 C 3183.95 1.89312 0.343329 0
M  V30 33483 O 3183.24 1.45251 1.2495 0
M  V30 33484 C 3183.44 3.08801 -1.79935 0
M  V30 33485 C 3183.27 3.03295 -3.32028 0
M  V30 33486 C 3182.04 3.07087 -4.0128 0
M  V30 33487 C 3184.23 2.84512 -4.28436 0
M  V30 33488 N 3182.22 2.91731 -5.40154 0
M  V30 33489 C 3183.59 2.7758 -5.54391 0
M  V30 33490 C 3185.64 2.69187 -4.18859 0
M  V30 33491 C 3184.35 2.5689 -6.71863 0
M  V30 33492 C 3186.37 2.49867 -5.36023 0
M  V30 33493 C 3185.73 2.43655 -6.60917 0
M  V30 33494 H 3181.83 0.631142 -0.461718 0
M  V30 33495 H 3184.42 1.1316 -1.58439 0
M  V30 33496 H 3182.59 3.64102 -1.3522 0
M  V30 33497 H 3184.32 3.72343 -1.58564 0
M  V30 33498 H 3181.07 3.16254 -3.52535 0
M  V30 33499 H 3181.5 2.8726 -6.13034 0
M  V30 33500 H 3186.14 2.72764 -3.23047 0
M  V30 33501 H 3183.86 2.52054 -7.67785 0
M  V30 33502 H 3187.44 2.38935 -5.30473 0
M  V30 33503 H 3186.32 2.289 -7.50049 0
M  V30 33504 N 3183.83 1.06924 1.1578 0
M  V30 33505 C 3185.24 0.793921 1.38452 0
M  V30 33506 C 3185.44 -0.603841 1.92239 0
M  V30 33507 O 3184.5 -1.36331 2.12532 0
M  V30 33508 C 3185.81 1.86412 2.35947 0
M  V30 33509 C 3187.36 1.88837 2.49619 0
M  V30 33510 C 3187.84 2.94929 3.50401 0
M  V30 33511 N 3189.33 2.94004 3.57933 0
M  V30 33512 C 3190.06 3.72739 4.35722 0
M  V30 33513 N 3189.56 4.6131 5.1688 0
M  V30 33514 N 3191.35 3.61103 4.30768 0
M  V30 33515 H 3183.5 1.97079 0.792067 0
M  V30 33516 H 3185.76 0.854387 0.410764 0
M  V30 33517 H 3185.47 2.86823 2.03532 0
M  V30 33518 H 3185.34 1.72055 3.35674 0
M  V30 33519 H 3187.73 0.890808 2.81334 0
M  V30 33520 H 3187.81 2.07273 1.49906 0
M  V30 33521 H 3187.46 3.94882 3.19422 0
M  V30 33522 H 3187.39 2.73742 4.49859 0
M  V30 33523 H 3189.88 2.29796 3.00003 0
M  V30 33524 H 3190.19 5.18029 5.73468 0
M  V30 33525 H 3188.54 4.65362 5.16201 0
M  V30 33526 H 3191.73 2.91289 3.66427 0
M  V30 33527 H 3191.9 4.22708 4.91144 0
M  V30 33528 N 3185.31 -1.32538 0.852723 0
M  V30 33529 C 3186.72 -1.79598 0.510043 0
M  V30 33530 C 3187.07 -1.70432 -0.971972 0
M  V30 33531 O 3186.19 -1.26176 -1.75808 0
M  V30 33532 C 3186.79 -3.26097 0.919043 0
M  V30 33533 C 3185.35 -3.71119 0.628292 0
M  V30 33534 C 3184.49 -2.53683 1.11984 0
M  V30 33535 H 3187.44 -1.19864 1.04011 0
M  V30 33536 H 3187.47 -3.79776 0.234644 0
M  V30 33537 H 3186.98 -3.32736 1.99771 0
M  V30 33538 H 3185.08 -3.69996 -0.439735 0
M  V30 33539 H 3185.19 -4.64003 1.19323 0
M  V30 33540 H 3183.56 -2.48906 0.540176 0
M  V30 33541 H 3184.34 -2.63077 2.20557 0
M  V30 33542 N 3186.78 -0.610474 -1.45296 0
M  V30 33543 C 3188.01 -0.11145 -2.071 0
M  V30 33544 C 3188.43 1.19622 -1.45163 0
M  V30 33545 O 3187.79 1.72902 -0.545398 0
M  V30 33546 C 3187.84 0.0116738 -3.60598 0
M  V30 33547 O 3186.94 1.06115 -3.98514 0
M  V30 33548 H 3186.28 -0.0753756 -0.659708 0
M  V30 33549 H 3188.81 -0.841301 -1.86503 0
M  V30 33550 H 3188.82 0.208957 -4.07465 0
M  V30 33551 H 3187.5 -0.943147 -4.05065 0
M  V30 33552 H 3186.08 0.840094 -3.63314 0
M  V30 33553 N 3188.26 1.53669 -0.349801 0
M  V30 33554 C 3189.22 2.23865 0.491636 0
M  V30 33555 C 3190.22 1.241 1.02254 0
M  V30 33556 O 3191.41 1.48493 0.91079 0
M  V30 33557 C 3188.55 2.96316 1.68552 0
M  V30 33558 H 3189.74 2.9965 -0.122382 0
M  V30 33559 H 3187.29 1.55972 -0.101241 0
M  V30 33560 H 3188.03 2.24734 2.33806 0
M  V30 33561 H 3187.81 3.69499 1.31197 0
M  V30 33562 H 3189.3 3.49723 2.28219 0
M  V30 33563 N 3189.74 0.0785709 1.57404 0
M  V30 33564 C 3190.65 -0.900864 2.16614 0
M  V30 33565 C 3191.67 -1.32219 1.13112 0
M  V30 33566 O 3192.84 -1.3935 1.45408 0
M  V30 33567 C 3189.91 -2.14786 2.72154 0
M  V30 33568 C 3188.97 -1.78231 3.90554 0
M  V30 33569 C 3188.2 -2.96985 4.43436 0
M  V30 33570 O 3188.42 -4.11211 3.95299 0
M  V30 33571 O 3187.36 -2.76409 5.34679 0
M  V30 33572 H 3191.18 -0.427174 3.00681 0
M  V30 33573 H 3188.77 -0.144876 1.48696 0
M  V30 33574 H 3190.65 -2.87897 3.07723 0
M  V30 33575 H 3189.33 -2.61239 1.91143 0
M  V30 33576 H 3188.23 -1.0235 3.59827 0
M  V30 33577 H 3189.57 -1.36554 4.72878 0
M  V30 33578 N 3191.22 -1.56389 -0.19503 0
M  V30 33579 C 3192.15 -1.97577 -1.24441 0
M  V30 33580 C 3193.13 -0.847743 -1.4747 0
M  V30 33581 O 3194.31 -1.11208 -1.59206 0
M  V30 33582 C 3191.44 -2.31533 -2.58862 0
M  V30 33583 C 3190.4 -3.47075 -2.50445 0
M  V30 33584 C 3189.72 -3.66707 -3.8914 0
M  V30 33585 C 3191.02 -4.81259 -2.02945 0
M  V30 33586 H 3192.72 -2.85486 -0.902128 0
M  V30 33587 H 3190.26 -1.37351 -0.432516 0
M  V30 33588 H 3192.22 -2.58942 -3.32456 0
M  V30 33589 H 3190.94 -1.40507 -2.94831 0
M  V30 33590 H 3189.6 -3.19757 -1.79307 0
M  V30 33591 H 3189.25 -2.73012 -4.22461 0
M  V30 33592 H 3188.95 -4.44436 -3.84383 0
M  V30 33593 H 3190.47 -3.96492 -4.64356 0
M  V30 33594 H 3191.89 -5.07699 -2.66297 0
M  V30 33595 H 3190.28 -5.62458 -2.0919 0
M  V30 33596 H 3191.35 -4.74838 -0.982674 0
M  V30 33597 N 3192.7 0.462746 -1.50653 0
M  V30 33598 C 3193.94 1.21181 -1.61739 0
M  V30 33599 C 3194.26 1.92294 -0.323724 0
M  V30 33600 O 3193.53 1.84475 0.659237 0
M  V30 33601 H 3192.11 0.450295 -0.596023 0
M  V30 33602 H 3194.78 0.533018 -1.8747 0
M  V30 33603 H 3193.87 1.9552 -2.43266 0
M  V30 33604 N 3194.17 1.40371 0.716495 0
M  V30 33605 C 3195.4 1.42105 1.51066 0
M  V30 33606 C 3195.82 0.0222717 1.88087 0
M  V30 33607 O 3195.18 -0.969421 1.53205 0
M  V30 33608 C 3195.23 2.31709 2.76303 0
M  V30 33609 O 3194.33 1.75971 3.72972 0
M  V30 33610 H 3193.68 0.483137 0.455494 0
M  V30 33611 H 3196.21 1.8459 0.882481 0
M  V30 33612 H 3196.22 2.46864 3.24842 0
M  V30 33613 H 3194.89 3.33354 2.48692 0
M  V30 33614 H 3193.47 1.70157 3.31815 0
M  V30 33615 N 3195.65 -0.948621 1.25853 0
M  V30 33616 C 3196.9 -1.69061 1.10738 0
M  V30 33617 C 3197.22 -1.91811 -0.351224 0
M  V30 33618 O 3196.49 -1.50949 -1.24864 0
M  V30 33619 H 3195.07 -0.626512 0.406807 0
M  V30 33620 H 3197.73 -1.1402 1.58068 0
M  V30 33621 H 3196.83 -2.6674 1.62038 0
M  V30 33622 N 3197.13 -1.07536 -1.15212 0
M  V30 33623 C 3198.04 -0.708857 -2.23634 0
M  V30 33624 C 3199.06 0.280729 -1.7172 0
M  V30 33625 O 3200.23 0.126892 -2.01 0
M  V30 33626 C 3197.3 -0.114228 -3.46512 0
M  V30 33627 C 3196.36 -1.15729 -4.13407 0
M  V30 33628 C 3195.59 -0.590943 -5.30418 0
M  V30 33629 O 3195.81 0.592412 -5.67315 0
M  V30 33630 O 3194.75 -1.33674 -5.86869 0
M  V30 33631 H 3198.57 -1.61309 -2.57319 0
M  V30 33632 H 3196.16 -0.848444 -1.22971 0
M  V30 33633 H 3198.04 0.215017 -4.20851 0
M  V30 33634 H 3196.72 0.7633 -3.14572 0
M  V30 33635 H 3195.62 -1.53892 -3.40981 0
M  V30 33636 H 3196.96 -2.00679 -4.49432 0
M  V30 33637 N 3198.61 1.32084 -0.85974 0
M  V30 33638 C 3200.02 1.79325 -0.519561 0
M  V30 33639 C 3200.37 1.70945 0.96292 0
M  V30 33640 O 3199.5 1.27107 1.75136 0
M  V30 33641 C 3200.09 3.25605 -0.936324 0
M  V30 33642 C 3198.65 3.70781 -0.647964 0
M  V30 33643 C 3197.8 2.53085 -1.13328 0
M  V30 33644 H 3200.75 1.19311 -1.04645 0
M  V30 33645 H 3200.77 3.79646 -0.254781 0
M  V30 33646 H 3200.28 3.31672 -2.01533 0
M  V30 33647 H 3198.38 3.70224 0.420107 0
M  V30 33648 H 3198.49 4.63364 -1.21782 0
M  V30 33649 H 3196.86 2.48616 -0.553369 0
M  V30 33650 H 3197.64 2.61904 -2.21949 0
M  V30 33651 N 3200.09 0.618171 1.4497 0
M  V30 33652 C 3201.33 0.117285 2.01759 0
M  V30 33653 C 3201.66 -1.2606 1.48775 0
M  V30 33654 O 3200.93 -1.83489 0.686184 0
M  V30 33655 H 3199.51 0.0403676 0.745908 0
M  V30 33656 H 3202.17 0.801954 1.77636 0
M  V30 33657 H 3201.26 0.0751026 3.1201 0
M  V30 33658 N 3201.56 -1.53481 0.357946 0
M  V30 33659 C 3202.47 -2.29205 -0.500233 0
M  V30 33660 C 3203.49 -1.34872 -1.09934 0
M  V30 33661 O 3204.67 -1.67923 -1.11192 0
M  V30 33662 C 3201.73 -3.06088 -1.62823 0
M  V30 33663 C 3200.79 -4.16073 -1.05744 0
M  V30 33664 C 3200.03 -4.8928 -2.13167 0
M  V30 33665 O 3200.25 -4.6228 -3.34145 0
M  V30 33666 O 3199.18 -5.75393 -1.76653 0
M  V30 33667 H 3203.01 -3.03479 0.115749 0
M  V30 33668 H 3200.59 -1.48897 0.122553 0
M  V30 33669 H 3202.48 -3.54121 -2.28421 0
M  V30 33670 H 3201.15 -2.34657 -2.22975 0
M  V30 33671 H 3200.06 -3.72309 -0.365576 0
M  V30 33672 H 3201.39 -4.89648 -0.500575 0
M  V30 33673 N 3203.04 -0.0869173 -1.5736 0
M  V30 33674 C 3204.01 0.860402 -2.12438 0
M  V30 33675 C 3205.01 1.21632 -1.05177 0
M  V30 33676 O 3206.2 1.1471 -1.311 0
M  V30 33677 C 3203.33 2.15895 -2.63822 0
M  V30 33678 H 3204.52 0.382293 -2.97453 0
M  V30 33679 H 3202.07 0.161981 -1.55458 0
M  V30 33680 H 3202.81 2.68209 -1.82303 0
M  V30 33681 H 3202.59 1.91353 -3.42237 0
M  V30 33682 H 3204.08 2.8368 -3.06457 0
M  V30 33683 N 3204.52 1.5649 0.186734 0
M  V30 33684 C 3205.47 1.95207 1.23138 0
M  V30 33685 C 3206.44 0.813805 1.44798 0
M  V30 33686 O 3207.62 1.07266 1.57793 0
M  V30 33687 C 3204.76 2.30402 2.56922 0
M  V30 33688 C 3203.88 3.57332 2.42771 0
M  V30 33689 C 3203.01 3.81811 3.69316 0
M  V30 33690 C 3202.05 5.02139 3.50032 0
M  V30 33691 N 3201.19 5.22829 4.68609 0
M  V30 33692 H 3206.03 2.84267 0.894206 0
M  V30 33693 H 3203.56 1.4067 0.430162 0
M  V30 33694 H 3205.52 2.48826 3.34876 0
M  V30 33695 H 3204.15 1.44471 2.88666 0
M  V30 33696 H 3203.2 3.46909 1.56072 0
M  V30 33697 H 3204.52 4.45443 2.2446 0
M  V30 33698 H 3203.67 4.00519 4.55708 0
M  V30 33699 H 3202.41 2.92046 3.9059 0
M  V30 33700 H 3201.41 4.83345 2.62026 0
M  V30 33701 H 3202.64 5.9342 3.30196 0
M  V30 33702 H 3200.58 4.36013 4.90131 0
M  V30 33703 H 3200.5 6.05134 4.53155 0
M  V30 33704 H 3201.77 5.46003 5.56328 0
M  V30 33705 N 3206 -0.45475 1.50897 0
M  V30 33706 C 3206.96 -1.53309 1.70379 0
M  V30 33707 C 3207.96 -1.50202 0.574106 0
M  V30 33708 O 3209.15 -1.52532 0.841401 0
M  V30 33709 C 3206.28 -2.92902 1.74417 0
M  V30 33710 H 3207.48 -1.37345 2.66602 0
M  V30 33711 H 3205.03 -0.682255 1.40624 0
M  V30 33712 H 3205.76 -3.14291 0.799464 0
M  V30 33713 H 3205.55 -2.96563 2.56501 0
M  V30 33714 H 3207.04 -3.71161 1.91388 0
M  V30 33715 N 3207.48 -1.40749 -0.709041 0
M  V30 33716 C 3208.72 -1.40589 -1.4699 0
M  V30 33717 C 3209.08 -0.00989682 -1.92397 0
M  V30 33718 O 3208.37 0.961743 -1.65714 0
M  V30 33719 C 3208.56 -2.33546 -2.70538 0
M  V30 33720 C 3208.39 -3.82046 -2.37216 0
M  V30 33721 C 3207.16 -4.50817 -2.28236 0
M  V30 33722 C 3209.36 -4.7337 -2.0106 0
M  V30 33723 N 3207.34 -5.84515 -1.87657 0
M  V30 33724 C 3208.71 -5.95914 -1.71133 0
M  V30 33725 C 3210.77 -4.61143 -1.87753 0
M  V30 33726 C 3209.47 -7.07595 -1.29238 0
M  V30 33727 C 3211.5 -5.72772 -1.47261 0
M  V30 33728 C 3210.86 -6.94406 -1.18236 0
M  V30 33729 H 3206.96 -0.569695 -0.535698 0
M  V30 33730 H 3209.54 -1.76514 -0.821638 0
M  V30 33731 H 3207.71 -1.99738 -3.33105 0
M  V30 33732 H 3209.45 -2.24198 -3.36923 0
M  V30 33733 H 3206.2 -4.04582 -2.46192 0
M  V30 33734 H 3206.63 -6.55338 -1.69887 0
M  V30 33735 H 3211.27 -3.67615 -2.08851 0
M  V30 33736 H 3208.99 -8.01 -1.06882 0
M  V30 33737 H 3212.57 -5.6531 -1.37534 0
M  V30 33738 H 3211.45 -7.79317 -0.87376 0
M  V30 33739 N 3208.96 0.941933 -1.26354 0
M  V30 33740 C 3210.2 1.68471 -1.11633 0
M  V30 33741 C 3210.52 1.91994 0.341046 0
M  V30 33742 O 3209.79 1.5161 1.24062 0
M  V30 33743 H 3208.37 0.624346 -0.410124 0
M  V30 33744 H 3211.04 1.1318 -1.58671 0
M  V30 33745 H 3210.13 2.65877 -1.6345 0
M  V30 33746 N 3210.43 1.08146 1.1464 0
M  V30 33747 C 3211.84 0.830953 1.67189 0
M  V30 33748 C 3212.2 -0.642716 1.85374 0
M  V30 33749 O 3211.32 -1.49669 1.56295 0
M  V30 33750 C 3211.92 1.50184 3.03694 0
M  V30 33751 C 3210.47 1.29864 3.53288 0
M  V30 33752 C 3209.62 1.56634 2.28825 0
M  V30 33753 H 3212.57 1.24241 0.987419 0
M  V30 33754 H 3212.59 0.927565 3.69021 0
M  V30 33755 H 3212.11 2.57437 2.90427 0
M  V30 33756 H 3210.21 0.246691 3.71782 0
M  V30 33757 H 3210.32 2.02444 4.34227 0
M  V30 33758 H 3208.68 0.987757 2.34767 0
M  V30 33759 H 3209.47 2.65088 2.18136 0
M  V30 33760 N 3211.91 -1.31626 0.866732 0
M  V30 33761 C 3212.82 -2.3236 0.323448 0
M  V30 33762 C 3213.84 -1.64573 -0.564966 0
M  V30 33763 O 3215.01 -1.96019 -0.462454 0
M  V30 33764 C 3212.08 -3.43513 -0.468985 0
M  V30 33765 C 3211.14 -4.26966 0.447004 0
M  V30 33766 C 3210.37 -5.32812 -0.307705 0
M  V30 33767 O 3210.6 -5.49324 -1.5362 0
M  V30 33768 O 3209.53 -6.00979 0.332759 0
M  V30 33769 H 3213.36 -2.80743 1.15832 0
M  V30 33770 H 3210.94 -1.35467 0.630011 0
M  V30 33771 H 3212.82 -4.11272 -0.918333 0
M  V30 33772 H 3211.5 -2.97298 -1.28046 0
M  V30 33773 H 3210.4 -3.61973 0.944783 0
M  V30 33774 H 3211.74 -4.76738 1.22398 0
M  V30 33775 N 3213.39 -0.62585 -1.4464 0
M  V30 33776 C 3214.35 0.0724857 -2.29085 0
M  V30 33777 C 3215.35 0.777443 -1.40757 0
M  V30 33778 O 3216.54 0.622832 -1.62685 0
M  V30 33779 C 3213.67 1.11314 -3.22214 0
M  V30 33780 H 3214.87 -0.670175 -2.92316 0
M  V30 33781 H 3212.42 -0.385737 -1.51465 0
M  V30 33782 H 3213.16 1.88596 -2.63822 0
M  V30 33783 H 3212.94 0.611641 -3.873 0
M  V30 33784 H 3214.43 1.60168 -3.85663 0
M  V30 33785 N 3214.87 1.53289 -0.36608 0
M  V30 33786 C 3215.78 2.29467 0.488071 0
M  V30 33787 C 3216.79 1.35453 1.09217 0
M  V30 33788 O 3217.97 1.68511 1.103 0
M  V30 33789 C 3215.03 3.06947 1.61197 0
M  V30 33790 C 3214.1 4.16628 1.03536 0
M  V30 33791 C 3213.33 4.90404 2.1057 0
M  V30 33792 O 3213.55 4.64046 3.31689 0
M  V30 33793 O 3212.49 5.76322 1.73599 0
M  V30 33794 H 3216.31 3.03414 -0.131842 0
M  V30 33795 H 3213.9 1.48829 -0.130447 0
M  V30 33796 H 3215.78 3.55328 2.2654 0
M  V30 33797 H 3214.45 2.35836 2.21728 0
M  V30 33798 H 3213.36 3.72498 0.345827 0
M  V30 33799 H 3214.69 4.89907 0.474601 0
M  V30 33800 N 3216.35 0.0952613 1.57312 0
M  V30 33801 C 3217.76 -0.433843 1.81589 0
M  V30 33802 C 3218.11 -1.68153 1.01088 0
M  V30 33803 O 3217.23 -2.15062 0.240309 0
M  V30 33804 C 3217.83 -0.793873 3.29368 0
M  V30 33805 C 3216.39 -1.26772 3.54409 0
M  V30 33806 C 3215.53 -0.264469 2.76036 0
M  V30 33807 H 3218.48 0.320702 1.55426 0
M  V30 33808 H 3218.51 -1.65339 3.427 0
M  V30 33809 H 3218.02 0.114403 3.87931 0
M  V30 33810 H 3216.12 -2.1937 3.01177 0
M  V30 33811 H 3216.23 -1.22944 4.63057 0
M  V30 33812 H 3214.6 -0.746649 2.4351 0
M  V30 33813 H 3215.38 0.636488 3.37348 0
M  V30 33814 N 3217.82 -1.56587 -0.178432 0
M  V30 33815 C 3218.79 -1.94983 -1.20476 0
M  V30 33816 C 3219.79 -0.832701 -1.3756 0
M  V30 33817 O 3220.98 -1.09987 -1.35087 0
M  V30 33818 C 3218.11 -2.23843 -2.57113 0
M  V30 33819 H 3219.3 -2.86817 -0.876122 0
M  V30 33820 H 3216.85 -1.50534 -0.420608 0
M  V30 33821 H 3217.59 -1.347 -2.95002 0
M  V30 33822 H 3217.37 -3.05265 -2.4608 0
M  V30 33823 H 3218.86 -2.54496 -3.31092 0
M  V30 33824 N 3219.3 0.446741 -1.51136 0
M  V30 33825 C 3220.23 1.54913 -1.74712 0
M  V30 33826 C 3221.21 1.59292 -0.596656 0
M  V30 33827 O 3222.4 1.75171 -0.838386 0
M  V30 33828 C 3219.53 2.93067 -1.86358 0
M  V30 33829 C 3218.48 3.0355 -3.0173 0
M  V30 33830 C 3217.81 4.43591 -2.98548 0
M  V30 33831 C 3219.11 2.78502 -4.41853 0
M  V30 33832 H 3220.8 1.35435 -2.67016 0
M  V30 33833 H 3218.35 0.650108 -1.2849 0
M  V30 33834 H 3220.3 3.70138 -2.01435 0
M  V30 33835 H 3219.02 3.13755 -0.906942 0
M  V30 33836 H 3217.68 2.28917 -2.86343 0
M  V30 33837 H 3217.33 4.61233 -2.00681 0
M  V30 33838 H 3217.03 4.51537 -3.76015 0
M  V30 33839 H 3218.56 5.22649 -3.15705 0
M  V30 33840 H 3219.97 3.45311 -4.57639 0
M  V30 33841 H 3218.37 2.97868 -5.20955 0
M  V30 33842 H 3219.44 1.74174 -4.52539 0
M  V30 33843 N 3220.78 1.41123 0.701567 0
M  V30 33844 C 3222.03 1.39881 1.45869 0
M  V30 33845 C 3222.35 0.00672197 1.94999 0
M  V30 33846 O 3221.62 -0.95044 1.71299 0
M  V30 33847 H 3220.2 0.514866 0.541222 0
M  V30 33848 H 3222.86 1.76307 0.830772 0
M  V30 33849 H 3221.96 2.08234 2.32476 0
M  V30 33850 N 3222.26 -0.935219 1.26852 0
M  V30 33851 C 3223.22 -2.01634 1.08979 0
M  V30 33852 C 3224.22 -1.60759 0.0361826 0
M  V30 33853 O 3225.41 -1.71933 0.280118 0
M  V30 33854 C 3222.54 -3.34472 0.65889 0
M  V30 33855 H 3223.74 -2.18921 2.04972 0
M  V30 33856 H 3221.29 -1.11499 1.09533 0
M  V30 33857 H 3222.02 -3.22884 -0.302768 0
M  V30 33858 H 3221.81 -3.65494 1.41973 0
M  V30 33859 H 3223.3 -4.13884 0.555856 0
M  V30 33860 N 3223.74 -1.08752 -1.14065 0
M  V30 33861 C 3225.15 -0.815847 -1.37172 0
M  V30 33862 C 3225.35 0.573181 -1.93176 0
M  V30 33863 O 3224.41 1.32933 -2.14674 0
M  V30 33864 C 3225.72 -1.90142 -2.32952 0
M  V30 33865 C 3227.27 -1.92785 -2.46583 0
M  V30 33866 C 3227.74 -3.00466 -3.45665 0
M  V30 33867 N 3229.24 -2.99661 -3.5321 0
M  V30 33868 C 3229.97 -3.79623 -4.29737 0
M  V30 33869 N 3229.47 -4.69475 -5.09476 0
M  V30 33870 N 3231.26 -3.67911 -4.24968 0
M  V30 33871 H 3223.41 -1.98314 -0.760613 0
M  V30 33872 H 3225.67 -0.860814 -0.39712 0
M  V30 33873 H 3225.38 -2.90025 -1.98944 0
M  V30 33874 H 3225.25 -1.77374 -3.32894 0
M  V30 33875 H 3227.64 -0.935453 -2.79881 0
M  V30 33876 H 3227.72 -2.09631 -1.46589 0
M  V30 33877 H 3227.37 -3.99914 -3.13099 0
M  V30 33878 H 3227.3 -2.80864 -4.45447 0
M  V30 33879 H 3229.79 -2.3454 -2.96309 0
M  V30 33880 H 3230.1 -5.27087 -5.65154 0
M  V30 33881 H 3228.44 -4.73515 -5.08732 0
M  V30 33882 H 3231.64 -2.97081 -3.61746 0
M  V30 33883 H 3231.81 -4.30468 -4.84357 0
M  V30 33884 N 3225.21 1.31165 -0.873701 0
M  V30 33885 C 3226.63 1.49222 -0.566135 0
M  V30 33886 C 3226.83 1.80341 0.898857 0
M  V30 33887 O 3225.89 1.88428 1.6808 0
M  V30 33888 C 3227.2 2.62344 -1.46957 0
M  V30 33889 C 3228.75 2.76227 -1.472 0
M  V30 33890 C 3229.22 3.9245 -2.36109 0
M  V30 33891 N 3230.71 3.99742 -2.3401 0
M  V30 33892 C 3231.45 4.88953 -2.99521 0
M  V30 33893 N 3230.94 5.83039 -3.74216 0
M  V30 33894 N 3232.74 4.82229 -2.88811 0
M  V30 33895 H 3224.89 1.09235 -1.82158 0
M  V30 33896 H 3227.15 0.540106 -0.779095 0
M  V30 33897 H 3226.86 2.46135 -2.51218 0
M  V30 33898 H 3226.73 3.58568 -1.17084 0
M  V30 33899 H 3229.12 2.91847 -0.436954 0
M  V30 33900 H 3229.2 1.80657 -1.81098 0
M  V30 33901 H 3228.84 3.77587 -3.39692 0
M  V30 33902 H 3228.77 4.87334 -1.99533 0
M  V30 33903 H 3231.26 3.3243 -1.79719 0
M  V30 33904 H 3231.58 6.47848 -4.21323 0
M  V30 33905 H 3229.92 5.83006 -3.78324 0
M  V30 33906 H 3233.11 4.07703 -2.29992 0
M  V30 33907 H 3233.29 5.51548 -3.40145 0
M  V30 33908 N 3226.69 0.633512 1.44307 0
M  V30 33909 C 3227.64 -0.0699852 2.30694 0
M  V30 33910 C 3228.61 -0.834422 1.4362 0
M  V30 33911 O 3229.79 -0.814983 1.72519 0
M  V30 33912 C 3226.93 -1.04397 3.2893 0
M  V30 33913 C 3226.05 -0.277703 4.31106 0
M  V30 33914 C 3225.18 -1.24372 5.16435 0
M  V30 33915 C 3224.22 -0.466747 6.10318 0
M  V30 33916 N 3223.36 -1.38335 6.88337 0
M  V30 33917 H 3228.2 0.672618 2.9031 0
M  V30 33918 H 3225.74 0.343474 1.43034 0
M  V30 33919 H 3227.69 -1.62207 3.84376 0
M  V30 33920 H 3226.32 -1.75368 2.71009 0
M  V30 33921 H 3225.38 0.416358 3.78115 0
M  V30 33922 H 3226.69 0.327339 4.97725 0
M  V30 33923 H 3225.84 -1.89308 5.76409 0
M  V30 33924 H 3224.58 -1.88268 4.49896 0
M  V30 33925 H 3223.59 0.196086 5.4945 0
M  V30 33926 H 3224.81 0.167534 6.78893 0
M  V30 33927 H 3222.76 -2.00948 6.24465 0
M  V30 33928 H 3222.67 -0.832385 7.51404 0
M  V30 33929 H 3223.94 -2.02147 7.52833 0
M  V30 33930 N 3228.17 -1.53093 0.374204 0
M  V30 33931 C 3229.12 -2.26001 -0.468186 0
M  V30 33932 C 3230.09 -1.27011 -1.07039 0
M  V30 33933 O 3231.27 -1.55811 -1.10126 0
M  V30 33934 C 3228.41 -3.05899 -1.59749 0
M  V30 33935 C 3227.53 -4.19795 -1.01962 0
M  V30 33936 C 3226.66 -4.87117 -2.11873 0
M  V30 33937 C 3225.7 -5.9303 -1.51597 0
M  V30 33938 N 3224.84 -6.54009 -2.55376 0
M  V30 33939 H 3229.68 -2.9757 0.160035 0
M  V30 33940 H 3227.21 -1.4682 0.0907454 0
M  V30 33941 H 3229.17 -3.50503 -2.26282 0
M  V30 33942 H 3227.8 -2.36569 -2.19624 0
M  V30 33943 H 3226.85 -3.79615 -0.244319 0
M  V30 33944 H 3228.17 -4.95879 -0.539002 0
M  V30 33945 H 3227.32 -5.34948 -2.86209 0
M  V30 33946 H 3226.06 -4.10524 -2.6329 0
M  V30 33947 H 3225.06 -5.44553 -0.757795 0
M  V30 33948 H 3226.29 -6.71548 -1.00994 0
M  V30 33949 H 3224.23 -5.80264 -3.0599 0
M  V30 33950 H 3224.15 -7.25659 -2.12026 0
M  V30 33951 H 3225.42 -7.06487 -3.29388 0
M  V30 33952 N 3229.65 -0.103603 -1.57259 0
M  V30 33953 C 3230.6 0.852257 -2.14488 0
M  V30 33954 C 3231.57 1.27405 -1.0657 0
M  V30 33955 O 3232.75 1.3543 -1.344 0
M  V30 33956 C 3229.89 2.1028 -2.73636 0
M  V30 33957 C 3229 1.73076 -3.95814 0
M  V30 33958 C 3228.14 2.92981 -4.43098 0
M  V30 33959 C 3227.18 2.51944 -5.57845 0
M  V30 33960 N 3226.31 3.6471 -5.99942 0
M  V30 33961 H 3231.15 0.357378 -2.95849 0
M  V30 33962 H 3228.69 0.164722 -1.46175 0
M  V30 33963 H 3230.65 2.83528 -3.06051 0
M  V30 33964 H 3229.28 2.57253 -1.94989 0
M  V30 33965 H 3228.33 0.897623 -3.69658 0
M  V30 33966 H 3229.64 1.38908 -4.79068 0
M  V30 33967 H 3228.8 3.74472 -4.77342 0
M  V30 33968 H 3227.54 3.30365 -3.58762 0
M  V30 33969 H 3226.54 1.68881 -5.2322 0
M  V30 33970 H 3227.77 2.15693 -6.43936 0
M  V30 33971 H 3225.71 4.01798 -5.18551 0
M  V30 33972 H 3225.63 3.34415 -6.78014 0
M  V30 33973 H 3226.9 4.46687 -6.3882 0
M  V30 33974 N 3231.13 1.56679 0.170126 0
M  V30 33975 C 3232.06 1.91608 1.23942 0
M  V30 33976 C 3233.04 0.779029 1.42723 0
M  V30 33977 O 3234.22 1.03245 1.57711 0
M  V30 33978 C 3231.35 2.16804 2.60218 0
M  V30 33979 C 3230.39 3.39489 2.58166 0
M  V30 33980 S 3231.23 4.93819 2.07131 0
M  V30 33981 C 3232.38 5.22111 3.45182 0
M  V30 33982 H 3232.62 2.82005 0.941296 0
M  V30 33983 H 3230.15 1.49783 0.374744 0
M  V30 33984 H 3232.11 2.32002 3.38652 0
M  V30 33985 H 3230.77 1.27113 2.8723 0
M  V30 33986 H 3229.96 3.54323 3.58429 0
M  V30 33987 H 3229.56 3.23414 1.87828 0
M  V30 33988 H 3231.86 5.14162 4.41185 0
M  V30 33989 H 3232.8 6.23724 3.35222 0
M  V30 33990 H 3233.21 4.49677 3.41249 0
M  V30 33991 N 3232.6 -0.43872 1.5137 0
M  V30 33992 C 3233.83 -1.21534 1.6806 0
M  V30 33993 C 3234.25 -1.84287 0.37682 0
M  V30 33994 O 3233.61 -1.68747 -0.662881 0
M  V30 33995 C 3233.66 -2.27612 2.79688 0
M  V30 33996 O 3232.76 -3.33062 2.43195 0
M  V30 33997 H 3232.11 -0.356134 0.560415 0
M  V30 33998 H 3234.64 -0.518276 1.97927 0
M  V30 33999 H 3234.65 -2.72418 3.03731 0
M  V30 34000 H 3233.32 -1.81315 3.74296 0
M  V30 34001 H 3231.9 -2.93742 2.29718 0
M  V30 34002 N 3234.08 -1.41493 -0.694073 0
M  V30 34003 C 3235.49 -1.36473 -1.27405 0
M  V30 34004 C 3235.84 -0.0485554 -1.9614 0
M  V30 34005 O 3234.97 0.853153 -1.98872 0
M  V30 34006 C 3235.56 -2.47192 -2.31693 0
M  V30 34007 C 3234.12 -2.45564 -2.85263 0
M  V30 34008 C 3233.27 -2.26963 -1.59321 0
M  V30 34009 H 3236.22 -1.50987 -0.488729 0
M  V30 34010 H 3236.24 -2.16336 -3.13016 0
M  V30 34011 H 3235.75 -3.42971 -1.81638 0
M  V30 34012 H 3233.86 -1.53546 -3.39491 0
M  V30 34013 H 3233.97 -3.41928 -3.35592 0
M  V30 34014 H 3232.33 -1.74867 -1.85185 0
M  V30 34015 H 3233.12 -3.24771 -1.11259 0
M  V30 34016 N 3235.56 0.928479 -1.27346 0
M  V30 34017 C 3236.97 1.49101 -1.12364 0
M  V30 34018 C 3237.32 1.9402 0.291632 0
M  V30 34019 O 3236.45 1.81106 1.18446 0
M  V30 34020 C 3237.04 2.70978 -2.03363 0
M  V30 34021 C 3235.6 3.23458 -1.92489 0
M  V30 34022 C 3234.75 1.96197 -1.95965 0
M  V30 34023 H 3237.7 0.742665 -1.4025 0
M  V30 34024 H 3237.72 3.45733 -1.58898 0
M  V30 34025 H 3237.23 2.38254 -3.0636 0
M  V30 34026 H 3235.33 3.60942 -0.924739 0
M  V30 34027 H 3235.45 3.89704 -2.78688 0
M  V30 34028 H 3233.81 2.12654 -1.40179 0
M  V30 34029 H 3234.59 1.65787 -3.00615 0
M  V30 34030 N 3237.04 1.09355 1.13486 0
M  V30 34031 C 3238.28 0.838802 1.86396 0
M  V30 34032 C 3238.64 -0.624227 1.81569 0
M  V30 34033 O 3239.84 -0.994879 2.49711 0
M  V30 34034 C 3238.11 1.35834 3.30581 0
M  V30 34035 S 3239.67 1.23735 4.20993 0
M  V30 34036 H 3236.49 0.303398 0.643017 0
M  V30 34037 H 3239.09 1.39678 1.36785 0
M  V30 34038 H 3237.8 2.4174 3.31648 0
M  V30 34039 H 3237.33 0.796454 3.85253 0
M  V30 34040 H 3239.34 0.187832 4.95844 0
M  V30 34041 N 3238.52 -1.307 0.880644 0
M  V30 34042 C 3239.77 -1.95582 0.492991 0
M  V30 34043 C 3240.08 -1.70318 -0.961833 0
M  V30 34044 O 3241.29 -2.29149 -1.45613 0
M  V30 34045 C 3239.74 -3.50182 0.830718 0
M  V30 34046 C 3239.35 -3.84272 2.30302 0
M  V30 34047 C 3241.09 -4.214 0.512053 0
M  V30 34048 C 3239 -5.3203 2.5826 0
M  V30 34049 H 3237.93 -0.732043 0.180633 0
M  V30 34050 H 3240.58 -1.48713 1.07502 0
M  V30 34051 H 3238.96 -3.95601 0.177821 0
M  V30 34052 H 3240.14 -3.49778 2.99987 0
M  V30 34053 H 3238.45 -3.26145 2.58879 0
M  V30 34054 H 3241.05 -5.30124 0.698028 0
M  V30 34055 H 3241.39 -4.12674 -0.548254 0
M  V30 34056 H 3241.93 -3.8165 1.12195 0
M  V30 34057 H 3238.66 -5.45803 3.63015 0
M  V30 34058 H 3238.18 -5.67839 1.9318 0
M  V30 34059 H 3239.86 -5.99415 2.43538 0
M  V30 34060 N 3240 -0.641156 -1.43969 0
M  V30 34061 C 3241.22 -0.155354 -2.06817 0
M  V30 34062 C 3241.65 1.16516 -1.47667 0
M  V30 34063 O 3241 1.71706 -0.58195 0
M  V30 34064 C 3241.05 -0.064817 -3.60542 0
M  V30 34065 O 3240.16 0.976377 -4.00675 0
M  V30 34066 H 3239.5 -0.089352 -0.657961 0
M  V30 34067 H 3242.03 -0.880672 -1.84676 0
M  V30 34068 H 3242.04 0.122481 -4.07816 0
M  V30 34069 H 3240.71 -1.02886 -4.02973 0
M  V30 34070 H 3239.29 0.762841 -3.65014 0
M  V30 34071 N 3241.47 1.52892 -0.382318 0
M  V30 34072 C 3242.72 2.01787 0.202397 0
M  V30 34073 C 3243.05 1.26855 1.47042 0
M  V30 34074 O 3242.33 0.367003 1.91006 0
M  V30 34075 C 3242.61 3.56921 0.477408 0
M  V30 34076 C 3242.46 4.4253 -0.805417 0
M  V30 34077 C 3243.78 4.21348 1.27099 0
M  V30 34078 H 3240.9 0.733466 0.0720869 0
M  V30 34079 H 3243.54 1.83013 -0.51051 0
M  V30 34080 H 3241.69 3.7305 1.08472 0
M  V30 34081 H 3243.37 4.38167 -1.44248 0
M  V30 34082 H 3241.61 4.09823 -1.42223 0
M  V30 34083 H 3242.28 5.49073 -0.567731 0
M  V30 34084 H 3244.76 4.09154 0.757089 0
M  V30 34085 H 3243.63 5.29887 1.43215 0
M  V30 34086 H 3243.89 3.78517 2.28424 0
M  V30 34087 N 3242.95 0.111941 1.57202 0
M  V30 34088 C 3243.86 -0.854715 2.18476 0
M  V30 34089 C 3244.88 -1.2979 1.15891 0
M  V30 34090 O 3246.05 -1.36234 1.48332 0
M  V30 34091 C 3243.12 -2.08965 2.76649 0
M  V30 34092 C 3242.18 -1.69906 3.94247 0
M  V30 34093 C 3241.41 -2.87512 4.49636 0
M  V30 34094 O 3241.64 -4.02734 4.03933 0
M  V30 34095 O 3240.57 -2.65005 5.40422 0
M  V30 34096 H 3244.4 -0.363299 3.01519 0
M  V30 34097 H 3241.98 -0.113303 1.4897 0
M  V30 34098 H 3243.86 -2.81305 3.1376 0
M  V30 34099 H 3242.54 -2.57126 1.96641 0
M  V30 34100 H 3241.44 -0.94695 3.61917 0
M  V30 34101 H 3242.78 -1.26493 4.75668 0
M  V30 34102 N 3244.43 -1.56767 -0.161814 0
M  V30 34103 C 3245.84 -1.72118 -0.723354 0
M  V30 34104 C 3246.19 -0.723993 -1.82353 0
M  V30 34105 O 3245.32 0.112605 -2.16107 0
M  V30 34106 C 3245.91 -3.12075 -1.3189 0
M  V30 34107 C 3244.47 -3.29077 -1.82716 0
M  V30 34108 C 3243.62 -2.68061 -0.709816 0
M  V30 34109 H 3246.57 -1.58572 0.0636926 0
M  V30 34110 H 3246.59 -3.11252 -2.18866 0
M  V30 34111 H 3246.1 -3.84628 -0.517942 0
M  V30 34112 H 3244.2 -2.61496 -2.65425 0
M  V30 34113 H 3244.32 -4.36901 -1.96606 0
M  V30 34114 H 3242.68 -2.28128 -1.13269 0
M  V30 34115 H 3243.46 -3.43208 0.0794488 0
M  V30 34116 N 3245.91 0.430686 -1.51601 0
M  V30 34117 C 3247.32 1.01032 -1.57001 0
M  V30 34118 C 3247.67 1.92132 -0.397473 0
M  V30 34119 O 3246.79 2.10897 0.484917 0
M  V30 34120 C 3247.39 1.8391 -2.84539 0
M  V30 34121 C 3245.95 2.36911 -2.92489 0
M  V30 34122 C 3245.1 1.16303 -2.51732 0
M  V30 34123 H 3248.05 0.211706 -1.57282 0
M  V30 34124 H 3248.07 2.69431 -2.68677 0
M  V30 34125 H 3247.58 1.17579 -3.6986 0
M  V30 34126 H 3245.68 3.06677 -2.11613 0
M  V30 34127 H 3245.79 2.69253 -3.96282 0
M  V30 34128 H 3244.16 1.51041 -2.05082 0
M  V30 34129 H 3244.94 0.515733 -3.39404 0
M  V30 34130 N 3247.39 1.4186 0.686559 0
M  V30 34131 C 3248.35 1.44129 1.78212 0
M  V30 34132 C 3249.35 0.330569 1.57365 0
M  V30 34133 O 3250.54 0.590866 1.63873 0
M  V30 34134 C 3247.67 1.26147 3.16701 0
M  V30 34135 H 3248.86 2.41664 1.7759 0
M  V30 34136 H 3246.42 1.28134 0.895062 0
M  V30 34137 H 3247.15 0.294879 3.22957 0
M  V30 34138 H 3246.94 2.06632 3.33235 0
M  V30 34139 H 3248.43 1.30591 3.96656 0
M  V30 34140 N 3248.86 -0.921712 1.27837 0
M  V30 34141 C 3249.77 -2.05643 1.12907 0
M  V30 34142 C 3250.79 -1.73905 0.0576009 0
M  V30 34143 O 3251.97 -1.99645 0.265296 0
M  V30 34144 C 3249.03 -3.37719 0.784017 0
M  V30 34145 C 3248.09 -3.83117 1.937 0
M  V30 34146 C 3247.32 -5.0889 1.60831 0
M  V30 34147 O 3247.55 -5.68034 0.518973 0
M  V30 34148 O 3246.48 -5.49806 2.44942 0
M  V30 34149 H 3250.31 -2.21153 2.08147 0
M  V30 34150 H 3247.89 -1.04183 1.0708 0
M  V30 34151 H 3249.77 -4.17032 0.60518 0
M  V30 34152 H 3248.45 -3.23402 -0.138792 0
M  V30 34153 H 3247.36 -3.04665 2.17094 0
M  V30 34154 H 3248.69 -4.01985 2.84023 0
M  V30 34155 N 3250.34 -1.09956 -1.12905 0
M  V30 34156 C 3251.62 -0.75118 -1.80601 0
M  V30 34157 C 3252 0.763043 -1.96827 0
M  V30 34158 O 3251.35 1.68746 -1.54068 0
M  V30 34159 C 3251.56 -1.49652 -3.15286 0
M  V30 34160 C 3252.9 -1.66585 -3.90557 0
M  V30 34161 O 3253.93 -1.45949 -3.24927 0
M  V30 34162 O 3252.79 -2.00761 -5.08289 0
M  V30 34163 H 3249.88 -0.27046 -0.781525 0
M  V30 34164 H 3252.43 -1.20208 -1.19784 0
M  V30 34165 H 3251.2 -2.5273 -2.98736 0
M  V30 34166 H 3250.82 -1.03815 -3.83807 0
M  V30 34167 N 3251.82 1.30231 -0.887563 0
M  V30 34168 C 3252.73 2.31816 -0.360374 0
M  V30 34169 C 3253.75 1.65451 0.538712 0
M  V30 34170 O 3254.92 1.9673 0.431211 0
M  V30 34171 C 3251.99 3.44216 0.414276 0
M  V30 34172 C 3251.05 4.26201 -0.514874 0
M  V30 34173 C 3250.28 5.33234 0.222901 0
M  V30 34174 O 3250.5 5.51699 1.44862 0
M  V30 34175 O 3249.44 6.00374 -0.428327 0
M  V30 34176 H 3253.26 2.78865 -1.20284 0
M  V30 34177 H 3250.85 1.34447 -0.651483 0
M  V30 34178 H 3252.73 4.12681 0.852787 0
M  V30 34179 H 3251.41 2.99297 1.233 0
M  V30 34180 H 3250.31 3.60424 -1.00225 0
M  V30 34181 H 3251.65 4.74731 -1.29967 0
M  V30 34182 N 3253.3 0.648782 1.43627 0
M  V30 34183 C 3254.55 0.160055 2.01465 0
M  V30 34184 C 3254.87 -1.22875 1.51415 0
M  V30 34185 O 3254.14 -1.81993 0.724951 0
M  V30 34186 H 3252.72 0.0561803 0.744884 0
M  V30 34187 H 3255.38 0.839453 1.75895 0
M  V30 34188 H 3254.48 0.141268 3.1178 0
M  V30 34189 N 3254.78 -1.52688 0.390421 0
M  V30 34190 C 3256 -2.06491 -0.193977 0
M  V30 34191 C 3256.43 -1.26016 -1.39648 0
M  V30 34192 O 3255.78 -0.285499 -1.79038 0
M  V30 34193 C 3255.83 -3.56515 -0.541244 0
M  V30 34194 O 3254.94 -3.78603 -1.63503 0
M  V30 34195 H 3254.28 -0.663624 -0.0223491 0
M  V30 34196 H 3256.81 -1.96838 0.558214 0
M  V30 34197 H 3256.82 -3.99975 -0.805231 0
M  V30 34198 H 3255.49 -4.14525 0.337901 0
M  V30 34199 H 3254.07 -3.47032 -1.36467 0
M  V30 34200 N 3256.25 -0.120276 -1.5714 0
M  V30 34201 C 3257.22 0.815147 -2.14215 0
M  V30 34202 C 3258.22 1.19374 -1.07734 0
M  V30 34203 O 3259.41 1.11904 -1.33504 0
M  V30 34204 C 3256.54 2.1025 -2.68342 0
M  V30 34205 H 3257.73 0.319113 -2.98197 0
M  V30 34206 H 3255.29 0.12897 -1.55767 0
M  V30 34207 H 3256.02 2.64282 -1.87951 0
M  V30 34208 H 3255.81 1.84051 -3.46219 0
M  V30 34209 H 3257.3 2.77115 -3.12405 0
M  V30 34210 N 3257.73 1.56851 0.153498 0
M  V30 34211 C 3259.15 1.51369 0.505913 0
M  V30 34212 C 3259.35 0.827602 1.8372 0
M  V30 34213 O 3258.4 0.395408 2.49385 0
M  V30 34214 C 3259.72 2.96131 0.522217 0
M  V30 34215 C 3261.27 3.07034 0.608184 0
M  V30 34216 C 3261.74 4.53289 0.655212 0
M  V30 34217 N 3263.23 4.57607 0.717615 0
M  V30 34218 C 3263.97 5.6814 0.774877 0
M  V30 34219 N 3263.46 6.88259 0.791882 0
M  V30 34220 N 3265.26 5.56156 0.815262 0
M  V30 34221 H 3257.41 1.99852 -0.719225 0
M  V30 34222 H 3259.67 0.911225 -0.261482 0
M  V30 34223 H 3259.38 3.49557 -0.387656 0
M  V30 34224 H 3259.25 3.51735 1.36244 0
M  V30 34225 H 3261.64 2.53631 1.50848 0
M  V30 34226 H 3261.72 2.54485 -0.259059 0
M  V30 34227 H 3261.36 5.07328 -0.240898 0
M  V30 34228 H 3261.29 5.03614 1.53885 0
M  V30 34229 H 3263.78 3.71131 0.712035 0
M  V30 34230 H 3264.1 7.68251 0.837243 0
M  V30 34231 H 3262.44 6.90834 0.759864 0
M  V30 34232 H 3265.63 4.61229 0.799102 0
M  V30 34233 H 3265.8 6.42316 0.856424 0
M  V30 34234 N 3259.21 -0.42264 1.51827 0
M  V30 34235 C 3260.62 -1.00198 1.57535 0
M  V30 34236 C 3260.97 -1.91918 0.407656 0
M  V30 34237 O 3260.1 -2.11151 -0.473726 0
M  V30 34238 C 3260.69 -1.82398 2.85511 0
M  V30 34239 C 3259.25 -2.35357 2.93741 0
M  V30 34240 C 3258.4 -1.14967 2.52345 0
M  V30 34241 H 3261.35 -0.203362 1.57392 0
M  V30 34242 H 3261.37 -2.68002 2.70102 0
M  V30 34243 H 3260.88 -1.15616 3.70479 0
M  V30 34244 H 3258.98 -3.0555 2.13237 0
M  V30 34245 H 3259.1 -2.67148 3.97705 0
M  V30 34246 H 3257.46 -1.49951 2.0588 0
M  V30 34247 H 3258.24 -0.497726 3.39673 0
M  V30 34248 N 3260.69 -1.42222 -0.679027 0
M  V30 34249 C 3261.91 -1.4606 -1.47245 0
M  V30 34250 C 3262.34 -0.0721318 -1.87962 0
M  V30 34251 O 3261.7 0.928461 -1.55722 0
M  V30 34252 C 3261.74 -2.38953 -2.70063 0
M  V30 34253 O 3260.85 -1.85798 -3.68175 0
M  V30 34254 H 3260.19 -0.495044 -0.442524 0
M  V30 34255 H 3262.72 -1.86865 -0.83323 0
M  V30 34256 H 3262.73 -2.5539 -3.18182 0
M  V30 34257 H 3261.4 -3.39831 -2.39767 0
M  V30 34258 H 3259.98 -1.78895 -3.27187 0
M  V30 34259 N 3262.17 0.91492 -1.28324 0
M  V30 34260 C 3263.13 1.99875 -1.12173 0
M  V30 34261 C 3264.13 1.60681 -0.0617534 0
M  V30 34262 O 3265.32 1.71466 -0.307435 0
M  V30 34263 C 3262.45 3.33381 -0.712018 0
M  V30 34264 H 3263.64 2.15632 -2.08429 0
M  V30 34265 H 3261.2 1.09743 -1.11293 0
M  V30 34266 H 3261.93 3.23324 0.251361 0
M  V30 34267 H 3261.72 3.63189 -1.4777 0
M  V30 34268 H 3263.21 4.12947 -0.621631 0
M  V30 34269 N 3263.64 1.10553 1.1232 0
M  V30 34270 C 3264.61 0.758882 2.16272 0
M  V30 34271 C 3265.61 -0.217266 1.59325 0
M  V30 34272 O 3266.8 0.00604408 1.74199 0
M  V30 34273 C 3263.93 0.124297 3.40673 0
M  V30 34274 H 3265.12 1.67965 2.48451 0
M  V30 34275 H 3262.68 0.90621 1.27348 0
M  V30 34276 H 3263.41 -0.807139 3.14095 0
M  V30 34277 H 3263.2 0.826839 3.83283 0
M  V30 34278 H 3264.69 -0.102429 4.17474 0
M  V30 34279 N 3265.12 -1.29758 0.894457 0
M  V30 34280 C 3266.03 -2.31621 0.372663 0
M  V30 34281 C 3267.05 -1.65734 -0.52993 0
M  V30 34282 O 3268.22 -1.96956 -0.420772 0
M  V30 34283 C 3265.29 -3.44431 -0.396015 0
M  V30 34284 C 3264.35 -4.25922 0.537469 0
M  V30 34285 C 3263.58 -5.33345 -0.194619 0
M  V30 34286 O 3263.81 -5.52459 -1.41934 0
M  V30 34287 O 3262.74 -6.00138 0.46016 0
M  V30 34288 H 3266.57 -2.78223 1.21761 0
M  V30 34289 H 3264.15 -1.341 0.658604 0
M  V30 34290 H 3266.03 -4.13127 -0.830889 0
M  V30 34291 H 3264.71 -2.99947 -1.21711 0
M  V30 34292 H 3263.62 -3.59888 1.02135 0
M  V30 34293 H 3264.95 -4.74035 1.32483 0
M  V30 34294 N 3266.6 -0.65639 -1.4328 0
M  V30 34295 C 3267.85 -0.170737 -2.01378 0
M  V30 34296 C 3268.17 1.22071 -1.52065 0
M  V30 34297 O 3267.44 1.81605 -0.734592 0
M  V30 34298 H 3266.02 -0.0601298 -0.744576 0
M  V30 34299 H 3268.68 -0.84877 -1.75448 0
M  V30 34300 H 3267.78 -0.1578 -3.11701 0
M  V30 34301 N 3268.08 1.52478 -0.398513 0
M  V30 34302 C 3269.33 2.01294 0.180359 0
M  V30 34303 C 3269.65 1.28644 1.46546 0
M  V30 34304 O 3268.92 0.409206 1.91578 0
M  V30 34305 H 3267.5 0.743747 0.0696397 0
M  V30 34306 H 3270.16 1.8749 -0.532318 0
M  V30 34307 H 3269.26 3.09728 0.384035 0
M  V30 34308 N 3269.56 0.128608 1.57074 0
M  V30 34309 C 3270.78 -0.537804 2.00306 0
M  V30 34310 C 3271.21 -1.58818 1.0079 0
M  V30 34311 O 3270.57 -1.8129 -0.019052 0
M  V30 34312 C 3270.61 -1.13195 3.42373 0
M  V30 34313 O 3269.72 -2.24729 3.4579 0
M  V30 34314 H 3269.06 -0.133416 0.650458 0
M  V30 34315 H 3271.59 0.219918 2.03415 0
M  V30 34316 H 3271.6 -1.46513 3.80786 0
M  V30 34317 H 3270.27 -0.362641 4.14316 0
M  V30 34318 H 3268.85 -1.92777 3.19204 0
M  V30 34319 N 3271.04 -1.5693 -0.145178 0
M  V30 34320 C 3272.26 -1.8761 -0.872365 0
M  V30 34321 C 3272.68 -0.717006 -1.74655 0
M  V30 34322 O 3272.04 0.313168 -1.79793 0
M  V30 34323 C 3272.09 -3.17549 -1.72756 0
M  V30 34324 O 3271.81 -4.28993 -0.888605 0
M  V30 34325 C 3273.31 -3.61756 -2.56218 0
M  V30 34326 H 3270.53 -0.621819 -0.252155 0
M  V30 34327 H 3273.07 -2.04038 -0.13742 0
M  V30 34328 H 3271.23 -3.02869 -2.41555 0
M  V30 34329 H 3271.64 -5.03306 -1.47592 0
M  V30 34330 H 3273.12 -4.55508 -3.11796 0
M  V30 34331 H 3273.59 -2.87133 -3.32342 0
M  V30 34332 H 3274.2 -3.79136 -1.92707 0
M  V30 34333 N 3272.51 0.414582 -1.52049 0
M  V30 34334 C 3273.74 1.18389 -1.69681 0
M  V30 34335 C 3274.16 1.84429 -0.403914 0
M  V30 34336 O 3273.51 1.7166 0.619606 0
M  V30 34337 C 3273.56 2.25107 -2.82859 0
M  V30 34338 O 3273.29 1.61765 -4.07141 0
M  V30 34339 C 3274.79 3.1496 -3.11954 0
M  V30 34340 H 3272.01 0.355967 -0.568796 0
M  V30 34341 H 3274.55 0.48847 -1.98581 0
M  V30 34342 H 3272.71 2.90327 -2.56494 0
M  V30 34343 H 3273.12 2.32471 -4.70167 0
M  V30 34344 H 3274.59 3.85925 -3.94672 0
M  V30 34345 H 3275.07 3.77021 -2.25282 0
M  V30 34346 H 3275.68 2.55415 -3.40064 0
M  V30 34347 N 3273.99 1.4258 0.671475 0
M  V30 34348 C 3274.92 1.4911 1.7969 0
M  V30 34349 C 3275.9 0.347367 1.66515 0
M  V30 34350 O 3277.09 0.562127 1.85886 0
M  V30 34351 C 3274.22 1.39602 3.18007 0
M  V30 34352 C 3273.17 2.52036 3.45921 0
M  V30 34353 C 3272.5 2.27585 4.83848 0
M  V30 34354 C 3273.8 3.94339 3.42483 0
M  V30 34355 H 3275.49 2.43303 1.74482 0
M  V30 34356 H 3273.04 1.17103 0.838022 0
M  V30 34357 H 3274.99 1.42778 3.96475 0
M  V30 34358 H 3273.71 0.419046 3.23901 0
M  V30 34359 H 3272.37 2.48183 2.69816 0
M  V30 34360 H 3272.02 1.28174 4.86395 0
M  V30 34361 H 3271.72 3.02943 5.03487 0
M  V30 34362 H 3273.25 2.32516 5.64596 0
M  V30 34363 H 3274.66 3.99777 4.10915 0
M  V30 34364 H 3273.06 4.69574 3.73658 0
M  V30 34365 H 3274.13 4.20773 2.40994 0
M  V30 34366 N 3275.47 -0.908102 1.28807 0
M  V30 34367 C 3276.89 -1.18747 1.06636 0
M  V30 34368 C 3277.09 -2.00624 -0.187694 0
M  V30 34369 O 3276.14 -2.36378 -0.887799 0
M  V30 34370 C 3277.45 -1.91657 2.31707 0
M  V30 34371 C 3279 -2.04517 2.36942 0
M  V30 34372 C 3279.48 -2.80836 3.61794 0
M  V30 34373 N 3280.97 -2.88395 3.62467 0
M  V30 34374 C 3281.7 -3.47962 4.55752 0
M  V30 34375 N 3281.2 -4.08764 5.5936 0
M  V30 34376 N 3282.99 -3.45556 4.43337 0
M  V30 34377 H 3275.14 -0.361603 2.09299 0
M  V30 34378 H 3277.41 -0.222652 0.921483 0
M  V30 34379 H 3277.11 -1.38925 3.23098 0
M  V30 34380 H 3276.99 -2.92178 2.38561 0
M  V30 34381 H 3279.37 -2.56428 1.46044 0
M  V30 34382 H 3279.45 -1.03155 2.34079 0
M  V30 34383 H 3279.1 -2.29604 4.53039 0
M  V30 34384 H 3279.03 -3.82526 3.61914 0
M  V30 34385 H 3281.52 -2.45203 2.87548 0
M  V30 34386 H 3281.83 -4.52213 6.26676 0
M  V30 34387 H 3280.18 -4.07251 5.6318 0
M  V30 34388 H 3283.37 -2.97269 3.61592 0
M  V30 34389 H 3283.54 -3.91686 5.16223 0
M  V30 34390 N 3276.95 -1.11147 -1.11732 0
M  V30 34391 C 3278.36 -0.84476 -1.3541 0
M  V30 34392 C 3278.56 0.532077 -1.94348 0
M  V30 34393 O 3277.62 1.2835 -2.17446 0
M  V30 34394 C 3278.93 -1.95041 -2.28866 0
M  V30 34395 C 3280.48 -1.97972 -2.42438 0
M  V30 34396 C 3280.96 -3.07731 -3.39213 0
M  V30 34397 N 3282.45 -3.07086 -3.46775 0
M  V30 34398 C 3283.18 -3.88653 -4.21588 0
M  V30 34399 N 3282.68 -4.80176 -4.99403 0
M  V30 34400 N 3284.47 -3.76842 -4.17069 0
M  V30 34401 H 3276.62 -1.99883 -0.718377 0
M  V30 34402 H 3278.88 -0.869043 -0.378771 0
M  V30 34403 H 3278.59 -2.94179 -1.92747 0
M  V30 34404 H 3278.46 -1.84395 -3.29057 0
M  V30 34405 H 3280.85 -0.99461 -2.77834 0
M  V30 34406 H 3280.93 -2.12694 -1.4211 0
M  V30 34407 H 3280.58 -4.06466 -3.04546 0
M  V30 34408 H 3280.51 -2.90249 -4.39389 0
M  V30 34409 H 3283 -2.40773 -2.91268 0
M  V30 34410 H 3283.31 -5.38956 -5.53847 0
M  V30 34411 H 3281.66 -4.84199 -4.98574 0
M  V30 34412 H 3284.85 -3.04688 -3.55363 0
M  V30 34413 H 3285.02 -4.40645 -4.75117 0
M  V30 34414 N 3278.43 1.29282 -0.901326 0
M  V30 34415 C 3279.84 1.47987 -0.59766 0
M  V30 34416 C 3280.04 1.82207 0.860402 0
M  V30 34417 O 3279.1 1.91951 1.64046 0
M  V30 34418 C 3280.41 2.59168 -1.52488 0
M  V30 34419 C 3281.96 2.73042 -1.53026 0
M  V30 34420 C 3282.43 3.87353 -2.4438 0
M  V30 34421 N 3283.92 3.94688 -2.42436 0
M  V30 34422 C 3284.66 4.82489 -3.09825 0
M  V30 34423 N 3284.16 5.7497 -3.86499 0
M  V30 34424 N 3285.95 4.75994 -2.98975 0
M  V30 34425 H 3278.1 1.05347 -1.84434 0
M  V30 34426 H 3280.36 0.523459 -0.790376 0
M  V30 34427 H 3280.07 2.40751 -2.56382 0
M  V30 34428 H 3279.94 3.56004 -1.24663 0
M  V30 34429 H 3282.33 2.90855 -0.49876 0
M  V30 34430 H 3282.41 1.76775 -1.84889 0
M  V30 34431 H 3282.05 3.70296 -3.47625 0
M  V30 34432 H 3281.98 4.82992 -2.09825 0
M  V30 34433 H 3284.48 3.28543 -1.8673 0
M  V30 34434 H 3284.79 6.38765 -4.3497 0
M  V30 34435 H 3283.13 5.7485 -3.90606 0
M  V30 34436 H 3286.32 4.02732 -2.38588 0
M  V30 34437 H 3286.5 5.44209 -3.51768 0
M  V30 34438 N 3279.9 0.663979 1.4293 0
M  V30 34439 C 3281.13 0.189844 2.06027 0
M  V30 34440 C 3281.55 -1.14877 1.49829 0
M  V30 34441 O 3280.9 -1.71141 0.633808 0
M  V30 34442 C 3280.95 0.104407 3.61349 0
M  V30 34443 O 3280.68 1.39011 4.15461 0
M  V30 34444 C 3282.18 -0.394522 4.41541 0
M  V30 34445 H 3279.4 0.0948861 0.664257 0
M  V30 34446 H 3281.94 0.907664 1.83253 0
M  V30 34447 H 3280.1 -0.564035 3.83272 0
M  V30 34448 H 3280.51 1.25635 5.09231 0
M  V30 34449 H 3281.98 -0.403232 5.50525 0
M  V30 34450 H 3282.46 -1.42783 4.15343 0
M  V30 34451 H 3283.07 0.241804 4.24612 0
M  V30 34452 N 3281.38 -1.52265 0.406593 0
M  V30 34453 C 3282.79 -1.86592 -0.0635742 0
M  V30 34454 C 3283.14 -1.32547 -1.44657 0
M  V30 34455 O 3282.27 -0.663728 -2.0597 0
M  V30 34456 C 3282.86 -3.3858 -0.122138 0
M  V30 34457 C 3281.42 -3.72555 -0.536636 0
M  V30 34458 C 3280.57 -2.75774 0.29047 0
M  V30 34459 H 3283.52 -1.45928 0.623764 0
M  V30 34460 H 3283.54 -3.6876 -0.937899 0
M  V30 34461 H 3283.05 -3.77885 0.884561 0
M  V30 34462 H 3281.15 -3.38827 -1.55007 0
M  V30 34463 H 3281.27 -4.78265 -0.282783 0
M  V30 34464 H 3279.63 -2.53501 -0.246819 0
M  V30 34465 H 3280.41 -3.17919 1.29547 0
M  V30 34466 N 3282.86 -0.136936 -1.57004 0
M  V30 34467 C 3284.09 0.527173 -2.00588 0
M  V30 34468 C 3284.51 1.58281 -1.01631 0
M  V30 34469 O 3283.87 1.81298 0.00943748 0
M  V30 34470 C 3283.92 1.11378 -3.42969 0
M  V30 34471 O 3283.02 2.22892 -3.46977 0
M  V30 34472 H 3282.36 0.129965 -0.651157 0
M  V30 34473 H 3284.89 -0.230703 -2.03295 0
M  V30 34474 H 3284.9 1.44492 -3.81557 0
M  V30 34475 H 3283.58 0.340663 -4.14502 0
M  V30 34476 H 3282.15 1.91082 -3.20222 0
M  V30 34477 N 3284.34 1.57005 0.136853 0
M  V30 34478 C 3285.58 1.85712 0.85384 0
M  V30 34479 C 3285.94 0.722587 1.77884 0
M  V30 34480 O 3287.14 0.890965 2.53605 0
M  V30 34481 C 3285.41 3.19621 1.59929 0
M  V30 34482 S 3286.97 3.69912 2.36031 0
M  V30 34483 H 3283.79 0.651235 0.285331 0
M  V30 34484 H 3286.39 1.95172 0.11322 0
M  V30 34485 H 3285.1 4.00152 0.911409 0
M  V30 34486 H 3284.63 3.13192 2.38063 0
M  V30 34487 H 3286.64 3.39986 3.61419 0
M  V30 34488 N 3285.82 -0.406513 1.52267 0
M  V30 34489 C 3286.73 -1.52009 1.78691 0
M  V30 34490 C 3287.74 -1.60473 0.672628 0
M  V30 34491 O 3288.92 -1.77139 0.958321 0
M  V30 34492 C 3285.98 -2.87719 1.93439 0
M  V30 34493 C 3285.04 -2.89119 3.17346 0
M  V30 34494 C 3284.28 -4.18356 3.31381 0
M  V30 34495 O 3284.5 -5.12391 2.50622 0
M  V30 34496 O 3283.43 -4.26666 4.24546 0
M  V30 34497 H 3287.26 -1.32615 2.73216 0
M  V30 34498 H 3284.85 -0.592629 1.37143 0
M  V30 34499 H 3286.73 -3.68204 2.04948 0
M  V30 34500 H 3285.4 -3.07175 1.02104 0
M  V30 34501 H 3284.31 -2.07478 3.11294 0
M  V30 34502 H 3285.64 -2.74613 4.08471 0
M  V30 34503 N 3287.29 -1.42934 -0.663904 0
M  V30 34504 C 3288.26 -1.46946 -1.75896 0
M  V30 34505 C 3289.26 -0.355562 -1.5682 0
M  V30 34506 O 3290.45 -0.616862 -1.62912 0
M  V30 34507 C 3287.58 -1.3117 -3.14654 0
M  V30 34508 H 3288.77 -2.44459 -1.73723 0
M  V30 34509 H 3286.33 -1.29542 -0.874564 0
M  V30 34510 H 3287.06 -0.346222 -3.22447 0
M  V30 34511 H 3286.85 -2.11908 -3.29905 0
M  V30 34512 H 3288.34 -1.36885 -3.94528 0
M  V30 34513 N 3288.77 0.901258 -1.29287 0
M  V30 34514 C 3290 1.68509 -1.20051 0
M  V30 34515 C 3290.42 1.8728 0.239095 0
M  V30 34516 O 3289.77 1.40871 1.16024 0
M  V30 34517 C 3289.82 3.07045 -1.90803 0
M  V30 34518 O 3289.54 2.89132 -3.29142 0
M  V30 34519 C 3291.05 4.0145 -1.88024 0
M  V30 34520 H 3288.27 0.526353 -0.416166 0
M  V30 34521 H 3290.81 1.12716 -1.70632 0
M  V30 34522 H 3288.96 3.59618 -1.44061 0
M  V30 34523 H 3289.38 3.76902 -3.64754 0
M  V30 34524 H 3290.85 4.96078 -2.42097 0
M  V30 34525 H 3291.33 4.30789 -0.855416 0
M  V30 34526 H 3291.94 3.54808 -2.34503 0
M  V30 34527 N 3290.25 1.11738 1.11141 0
M  V30 34528 C 3291.66 0.883722 1.6446 0
M  V30 34529 C 3292.01 -0.583416 1.87325 0
M  V30 34530 O 3291.14 -1.44621 1.60978 0
M  V30 34531 C 3291.73 1.5977 2.98763 0
M  V30 34532 C 3290.29 1.41038 3.48977 0
M  V30 34533 C 3289.44 1.63835 2.23726 0
M  V30 34534 H 3292.39 1.27319 0.947393 0
M  V30 34535 H 3292.41 1.0445 3.65883 0
M  V30 34536 H 3291.92 2.66547 2.82089 0
M  V30 34537 H 3290.02 0.364846 3.70809 0
M  V30 34538 H 3290.14 2.16156 4.27567 0
M  V30 34539 H 3288.5 1.06195 2.31505 0
M  V30 34540 H 3289.28 2.71893 2.09592 0
M  V30 34541 N 3291.73 -1.28802 0.90817 0
M  V30 34542 C 3292.68 -2.25083 0.363544 0
M  V30 34543 C 3293.66 -1.52225 -0.521184 0
M  V30 34544 O 3294.85 -1.73262 -0.361817 0
M  V30 34545 C 3291.98 -3.40958 -0.400294 0
M  V30 34546 C 3291.07 -4.21144 0.499835 0
M  V30 34547 N 3291.46 -4.79462 1.61091 0
M  V30 34548 C 3289.76 -4.44995 0.299186 0
M  V30 34549 C 3290.46 -5.39743 2.16916 0
M  V30 34550 N 3289.44 -5.23595 1.46112 0
M  V30 34551 H 3293.24 -2.67738 1.21217 0
M  V30 34552 H 3290.75 -1.43509 0.760184 0
M  V30 34553 H 3292.75 -4.09009 -0.807271 0
M  V30 34554 H 3291.41 -2.99838 -1.24608 0
M  V30 34555 H 3292.42 -4.77994 1.99355 0
M  V30 34556 H 3289.1 -4.14404 -0.507538 0
M  V30 34557 H 3290.49 -5.95931 3.10348 0
M  V30 34558 N 3293.21 -0.67155 -1.42576 0
M  V30 34559 C 3294.62 -0.340797 -1.55919 0
M  V30 34560 C 3294.82 1.15402 -1.65181 0
M  V30 34561 O 3293.88 1.93936 -1.61694 0
M  V30 34562 C 3295.19 -1.06826 -2.81085 0
M  V30 34563 C 3296.74 -1.05027 -2.94853 0
M  V30 34564 C 3297.21 -1.75899 -4.22875 0
M  V30 34565 N 3298.71 -1.72751 -4.2978 0
M  V30 34566 C 3299.44 -2.24448 -5.27646 0
M  V30 34567 N 3298.94 -2.84512 -6.31684 0
M  V30 34568 N 3300.73 -2.14841 -5.19422 0
M  V30 34569 H 3292.88 -1.64136 -1.34808 0
M  V30 34570 H 3295.14 -0.691305 -0.648692 0
M  V30 34571 H 3294.85 -2.12337 -2.80368 0
M  V30 34572 H 3294.72 -0.631421 -3.71878 0
M  V30 34573 H 3297.11 -0.0035082 -2.951 0
M  V30 34574 H 3297.19 -1.52596 -2.053 0
M  V30 34575 H 3296.84 -2.80542 -4.23389 0
M  V30 34576 H 3296.77 -1.25782 -5.11357 0
M  V30 34577 H 3299.26 -1.28938 -3.55223 0
M  V30 34578 H 3299.57 -3.21588 -7.0271 0
M  V30 34579 H 3297.91 -2.88581 -6.32255 0
M  V30 34580 H 3301.11 -1.67608 -4.37064 0
M  V30 34581 H 3301.28 -2.55437 -5.9553 0
M  V30 34582 N 3294.68 1.52047 -0.414663 0
M  V30 34583 C 3295.96 1.9438 0.218138 0
M  V30 34584 C 3296.34 1.35192 1.62131 0
M  V30 34585 O 3295.69 0.529916 2.2227 0
M  V30 34586 C 3295.9 3.48313 0.218871 0
M  V30 34587 C 3297.25 4.2236 0.43553 0
M  V30 34588 O 3298.27 3.54951 0.297986 0
M  V30 34589 O 3297.13 5.41906 0.707122 0
M  V30 34590 H 3294.22 0.81469 0.142159 0
M  V30 34591 H 3296.77 1.63033 -0.471006 0
M  V30 34592 H 3295.54 3.83789 -0.762988 0
M  V30 34593 H 3295.17 3.86038 0.951882 0
M  V30 34594 N 3296.16 0.145261 1.56929 0
M  V30 34595 C 3297.39 -0.516528 2.00865 0
M  V30 34596 C 3297.81 -1.5774 1.02469 0
M  V30 34597 O 3297.17 -1.813 0.000177307 0
M  V30 34598 C 3297.22 -1.09557 3.43554 0
M  V30 34599 O 3296.32 -2.21049 3.48154 0
M  V30 34600 H 3295.66 -0.12651 0.651837 0
M  V30 34601 H 3298.19 0.241481 2.0317 0
M  V30 34602 H 3298.2 -1.42466 3.82318 0
M  V30 34603 H 3296.88 -0.318677 4.14677 0
M  V30 34604 H 3295.46 -1.89381 3.21231 0
M  V30 34605 N 3297.64 -1.57075 -0.128525 0
M  V30 34606 C 3298.57 -2.02677 -1.15949 0
M  V30 34607 C 3299.55 -0.909527 -1.43742 0
M  V30 34608 O 3300.74 -1.1786 -1.54346 0
M  V30 34609 C 3297.87 -2.42304 -2.48809 0
M  V30 34610 C 3296.82 -3.57385 -2.35499 0
M  V30 34611 C 3296.15 -3.82882 -3.73236 0
M  V30 34612 C 3297.45 -4.89434 -1.8235 0
M  V30 34613 H 3299.14 -2.89055 -0.780232 0
M  V30 34614 H 3296.69 -1.39062 -0.373872 0
M  V30 34615 H 3298.64 -2.7281 -3.21174 0
M  V30 34616 H 3297.36 -1.52886 -2.88606 0
M  V30 34617 H 3296.02 -3.27074 -1.65584 0
M  V30 34618 H 3295.67 -2.90684 -4.10502 0
M  V30 34619 H 3295.37 -4.60339 -3.65187 0
M  V30 34620 H 3296.9 -4.15831 -4.47121 0
M  V30 34621 H 3298.31 -5.18537 -2.44524 0
M  V30 34622 H 3296.71 -5.70825 -1.85146 0
M  V30 34623 H 3297.78 -4.78579 -0.780394 0
M  V30 34624 N 3299.12 0.398432 -1.5248 0
M  V30 34625 C 3300.03 1.51059 -1.79495 0
M  V30 34626 C 3301.05 1.60114 -0.681129 0
M  V30 34627 O 3302.22 1.76628 -0.967702 0
M  V30 34628 C 3299.29 2.86689 -1.94963 0
M  V30 34629 C 3298.35 2.87432 -3.18875 0
M  V30 34630 C 3297.58 4.16593 -3.33595 0
M  V30 34631 O 3297.8 5.11055 -2.53336 0
M  V30 34632 O 3296.74 4.24409 -4.26803 0
M  V30 34633 H 3300.56 1.31165 -2.73915 0
M  V30 34634 H 3298.15 0.585347 -1.37456 0
M  V30 34635 H 3300.03 3.67112 -2.06898 0
M  V30 34636 H 3298.71 3.06629 -1.03731 0
M  V30 34637 H 3297.61 2.05824 -3.12389 0
M  V30 34638 H 3298.95 2.72443 -4.09922 0
M  V30 34639 N 3300.6 1.43284 0.656314 0
M  V30 34640 C 3302.01 1.39803 1.23742 0
M  V30 34641 C 3302.36 0.100541 1.95942 0
M  V30 34642 O 3301.48 -0.800125 2.01065 0
M  V30 34643 C 3302.08 2.53248 2.25058 0
M  V30 34644 C 3300.64 2.53041 2.78652 0
M  V30 34645 C 3299.79 2.31107 1.53247 0
M  V30 34646 H 3302.74 1.5223 0.448526 0
M  V30 34647 H 3302.76 2.24559 3.0717 0
M  V30 34648 H 3302.27 3.47667 1.7248 0
M  V30 34649 H 3300.37 1.62493 3.35301 0
M  V30 34650 H 3300.48 3.50706 3.26408 0
M  V30 34651 H 3298.85 1.79716 1.80484 0
M  V30 34652 H 3299.63 3.27607 1.02609 0
M  V30 34653 N 3302.08 -0.894389 1.29763 0
M  V30 34654 C 3303.3 -1.6787 1.20943 0
M  V30 34655 C 3303.72 -1.87404 -0.22916 0
M  V30 34656 O 3303.08 -1.41484 -1.15276 0
M  V30 34657 C 3303.13 -3.06028 1.92429 0
M  V30 34658 O 3302.85 -2.87383 3.3067 0
M  V30 34659 C 3304.35 -4.00447 1.90151 0
M  V30 34660 H 3301.57 -0.524138 0.418951 0
M  V30 34661 H 3304.11 -1.1181 1.71228 0
M  V30 34662 H 3302.27 -3.58849 1.45967 0
M  V30 34663 H 3302.68 -3.74962 3.66747 0
M  V30 34664 H 3304.16 -4.94787 2.44724 0
M  V30 34665 H 3304.63 -4.30329 0.87825 0
M  V30 34666 H 3305.24 -3.53559 2.36381 0
M  V30 34667 N 3303.55 -1.12326 -1.10547 0
M  V30 34668 C 3304.46 -0.803071 -2.20427 0
M  V30 34669 C 3305.48 0.207644 -1.72757 0
M  V30 34670 O 3306.66 0.0415269 -2.01357 0
M  V30 34671 C 3303.72 -0.261093 -3.45715 0
M  V30 34672 C 3302.78 -1.33159 -4.08126 0
M  V30 34673 C 3302.01 -0.81538 -5.27435 0
M  V30 34674 O 3302.24 0.351261 -5.69317 0
M  V30 34675 O 3301.17 -1.58444 -5.80671 0
M  V30 34676 H 3305 -1.72078 -2.50246 0
M  V30 34677 H 3302.58 -0.899836 -1.19261 0
M  V30 34678 H 3304.46 0.0363266 -4.21384 0
M  V30 34679 H 3303.14 0.629193 -3.17526 0
M  V30 34680 H 3302.05 -1.68216 -3.34147 0
M  V30 34681 H 3303.38 -2.1956 -4.40516 0
M  V30 34682 N 3305.03 1.28319 -0.914988 0
M  V30 34683 C 3306.28 1.94537 -0.547699 0
M  V30 34684 C 3306.6 1.72369 0.911804 0
M  V30 34685 O 3305.87 1.06411 1.6448 0
M  V30 34686 H 3304.45 0.71985 -0.199562 0
M  V30 34687 H 3307.11 1.56278 -1.16462 0
M  V30 34688 H 3306.21 3.03122 -0.743191 0
M  V30 34689 N 3306.51 0.679102 1.42218 0
M  V30 34690 C 3307.73 0.210133 2.06333 0
M  V30 34691 C 3308.16 -1.1256 1.50705 0
M  V30 34692 O 3307.52 -1.70103 0.627271 0
M  V30 34693 C 3307.57 0.160386 3.60243 0
M  V30 34694 O 3306.67 -0.869801 4.03123 0
M  V30 34695 H 3306.01 0.106765 0.65536 0
M  V30 34696 H 3308.54 0.929326 1.82276 0
M  V30 34697 H 3308.55 -0.0143123 4.07997 0
M  V30 34698 H 3307.23 1.13533 4.00104 0
M  V30 34699 H 3305.8 -0.665796 3.66908 0
M  V30 34700 N 3307.99 -1.51825 0.42272 0
M  V30 34701 C 3309.24 -2.01555 -0.148312 0
M  V30 34702 C 3309.56 -1.30959 -1.44481 0
M  V30 34703 O 3308.83 -0.439633 -1.90903 0
M  V30 34704 H 3307.41 -0.744761 -0.0577985 0
M  V30 34705 H 3310.07 -1.86619 0.562079 0
M  V30 34706 H 3309.16 -3.103 -0.334711 0
M  V30 34707 N 3309.47 -0.153581 -1.5685 0
M  V30 34708 C 3310.43 0.769526 -2.15896 0
M  V30 34709 C 3311.43 1.17062 -1.10241 0
M  V30 34710 O 3312.62 1.09047 -1.35847 0
M  V30 34711 C 3309.75 2.04511 -2.72742 0
M  V30 34712 H 3310.94 0.255789 -2.98807 0
M  V30 34713 H 3308.5 0.0959005 -1.56006 0
M  V30 34714 H 3309.23 2.60236 -1.93515 0
M  V30 34715 H 3309.02 1.76666 -3.50045 0
M  V30 34716 H 3310.51 2.70427 -3.18213 0
M  V30 34717 N 3310.94 1.57141 0.120193 0
M  V30 34718 C 3312.19 1.84425 0.826554 0
M  V30 34719 C 3312.51 0.738584 1.80471 0
M  V30 34720 O 3311.78 -0.237516 1.94455 0
M  V30 34721 H 3310.36 0.680442 0.308234 0
M  V30 34722 H 3313.02 1.94602 0.107801 0
M  V30 34723 H 3312.12 2.80301 1.37251 0
M  V30 34724 N 3312.42 -0.39034 1.5269 0
M  V30 34725 C 3313.67 -1.13326 1.67337 0
M  V30 34726 C 3313.99 -1.90531 0.415101 0
M  V30 34727 O 3313.26 -1.8741 -0.570471 0
M  V30 34728 H 3311.84 -0.421346 0.616828 0
M  V30 34729 H 3314.5 -0.442967 1.89799 0
M  V30 34730 H 3313.6 -1.83691 2.52317 0
M  V30 34731 N 3313.9 -1.4363 -0.648706 0
M  V30 34732 C 3315.18 -1.35963 -1.40618 0
M  V30 34733 C 3315.56 -0.00964733 -2.11098 0
M  V30 34734 O 3314.91 1.00711 -2.05109 0
M  V30 34735 C 3315.12 -2.54591 -2.38715 0
M  V30 34736 C 3316.46 -2.97878 -3.02579 0
M  V30 34737 O 3317.49 -2.5467 -2.49042 0
M  V30 34738 O 3316.35 -3.72743 -3.99656 0
M  V30 34739 H 3313.44 -0.537541 -0.628473 0
M  V30 34740 H 3315.99 -1.55688 -0.675236 0
M  V30 34741 H 3314.76 -3.44475 -1.85613 0
M  V30 34742 H 3314.38 -2.36989 -3.19252 0
M  V30 34743 N 3315.38 0.887495 -1.30236 0
M  V30 34744 C 3316.79 1.45451 -1.17051 0
M  V30 34745 C 3317.14 1.9485 0.229759 0
M  V30 34746 O 3316.27 1.84783 1.12625 0
M  V30 34747 C 3316.86 2.64371 -2.11881 0
M  V30 34748 C 3315.42 3.1717 -2.02682 0
M  V30 34749 C 3314.57 1.89863 -2.02107 0
M  V30 34750 H 3317.52 0.697669 -1.42542 0
M  V30 34751 H 3317.54 3.40503 -1.69817 0
M  V30 34752 H 3317.05 2.28387 -3.13785 0
M  V30 34753 H 3315.15 3.57818 -1.0391 0
M  V30 34754 H 3315.26 3.80641 -2.90946 0
M  V30 34755 H 3313.63 2.08087 -1.46874 0
M  V30 34756 H 3314.41 1.5614 -3.05737 0
M  V30 34757 N 3316.86 1.12911 1.0995 0
M  V30 34758 C 3317.82 0.804586 2.14614 0
M  V30 34759 C 3318.82 -0.183422 1.5975 0
M  V30 34760 O 3320.01 0.0429929 1.74147 0
M  V30 34761 C 3317.14 0.196531 3.40333 0
M  V30 34762 H 3318.33 1.73197 2.44832 0
M  V30 34763 H 3315.89 0.933019 1.25397 0
M  V30 34764 H 3316.62 -0.740333 3.15737 0
M  V30 34765 H 3316.41 0.907953 3.81443 0
M  V30 34766 H 3317.9 -0.013853 4.17598 0
M  V30 34767 N 3318.33 -1.27832 0.92178 0
M  V30 34768 C 3319.3 -2.253 0.421017 0
M  V30 34769 C 3320.3 -1.54165 -0.457131 0
M  V30 34770 O 3321.49 -1.72263 -0.259048 0
M  V30 34771 C 3318.62 -3.38599 -0.395441 0
M  V30 34772 H 3319.81 -2.71112 1.28211 0
M  V30 34773 H 3317.37 -1.39652 0.701917 0
M  V30 34774 H 3318.1 -2.98159 -1.2756 0
M  V30 34775 H 3317.89 -3.91401 0.234097 0
M  V30 34776 H 3319.38 -4.11056 -0.736371 0
M  V30 34777 N 3319.81 -0.686634 -1.41856 0
M  V30 34778 C 3320.76 -0.0156836 -2.30795 0
M  V30 34779 C 3321.73 0.780544 -1.46618 0
M  V30 34780 O 3322.91 0.750393 -1.75424 0
M  V30 34781 C 3320.05 0.921171 -3.32578 0
M  V30 34782 C 3319.17 0.11751 -4.3184 0
M  V30 34783 C 3318.3 1.05119 -5.20695 0
M  V30 34784 C 3317.34 0.23991 -6.1163 0
M  V30 34785 N 3316.48 1.12692 -6.92997 0
M  V30 34786 H 3321.32 -0.779901 -2.87614 0
M  V30 34787 H 3318.86 -0.396323 -1.4166 0
M  V30 34788 H 3320.81 1.47829 -3.90131 0
M  V30 34789 H 3319.44 1.65189 -2.77331 0
M  V30 34790 H 3318.5 -0.556406 -3.76309 0
M  V30 34791 H 3319.81 -0.511841 -4.96167 0
M  V30 34792 H 3318.96 1.67784 -5.83038 0
M  V30 34793 H 3317.7 1.71441 -4.56573 0
M  V30 34794 H 3316.71 -0.399875 -5.48344 0
M  V30 34795 H 3317.93 -0.419385 -6.77804 0
M  V30 34796 H 3315.88 1.77633 -6.31492 0
M  V30 34797 H 3315.79 0.552933 -7.53975 0
M  V30 34798 H 3317.06 1.74067 -7.59816 0
M  V30 34799 N 3321.29 1.51599 -0.430766 0
M  V30 34800 C 3322.54 2.01631 0.137621 0
M  V30 34801 C 3322.86 1.31723 1.43784 0
M  V30 34802 O 3322.13 0.449751 1.90667 0
M  V30 34803 H 3320.71 0.745057 0.0538481 0
M  V30 34804 H 3323.37 1.86318 -0.571967 0
M  V30 34805 H 3322.47 3.10473 0.318251 0
M  V30 34806 N 3322.77 0.161897 1.56766 0
M  V30 34807 C 3323.68 -0.784775 2.21085 0
M  V30 34808 C 3324.69 -1.26037 1.19961 0
M  V30 34809 O 3325.87 -1.31446 1.52591 0
M  V30 34810 C 3322.94 -2.00058 2.83157 0
M  V30 34811 C 3322 -1.57278 3.99452 0
M  V30 34812 C 3321.23 -2.73062 4.58555 0
M  V30 34813 O 3321.45 -3.89679 4.16541 0
M  V30 34814 O 3320.39 -2.47678 5.48579 0
M  V30 34815 H 3324.21 -0.267189 3.02522 0
M  V30 34816 H 3321.8 -0.0658521 1.49255 0
M  V30 34817 H 3323.68 -2.71181 3.22551 0
M  V30 34818 H 3322.35 -2.5074 2.04722 0
M  V30 34819 H 3321.26 -0.831329 3.64746 0
M  V30 34820 H 3322.59 -1.11296 4.79452 0
M  V30 34821 N 3324.25 -1.57203 -0.111858 0
M  V30 34822 C 3325.66 -1.52657 -0.465602 0
M  V30 34823 C 3325.86 -0.876021 -1.81461 0
M  V30 34824 O 3324.92 -0.461389 -2.48249 0
M  V30 34825 C 3326.23 -2.97411 -0.443519 0
M  V30 34826 C 3327.78 -3.08539 -0.526566 0
M  V30 34827 C 3328.25 -4.54867 -0.534801 0
M  V30 34828 N 3329.75 -4.59349 -0.596036 0
M  V30 34829 C 3330.48 -5.69995 -0.623972 0
M  V30 34830 N 3329.98 -6.90117 -0.609124 0
M  V30 34831 N 3331.77 -5.58122 -0.66752 0
M  V30 34832 H 3323.92 -1.97875 0.77196 0
M  V30 34833 H 3326.18 -0.903972 0.28555 0
M  V30 34834 H 3325.89 -3.48406 0.480199 0
M  V30 34835 H 3325.76 -3.55224 -1.2687 0
M  V30 34836 H 3328.15 -2.57542 -1.4407 0
M  V30 34837 H 3328.23 -2.53709 0.32644 0
M  V30 34838 H 3327.88 -5.06511 0.375322 0
M  V30 34839 H 3327.81 -5.07517 -1.40479 0
M  V30 34840 H 3330.3 -3.72889 -0.613386 0
M  V30 34841 H 3330.61 -7.70201 -0.633261 0
M  V30 34842 H 3328.95 -6.92605 -0.576435 0
M  V30 34843 H 3332.15 -4.63185 -0.676534 0
M  V30 34844 H 3332.32 -6.4436 -0.685824 0
M  V30 34845 N 3325.72 0.382237 -1.52894 0
M  V30 34846 C 3326.97 1.12483 -1.69467 0
M  V30 34847 C 3327.33 1.87472 -0.432664 0
M  V30 34848 O 3326.62 1.82804 0.573868 0
M  V30 34849 C 3326.81 2.12571 -2.87312 0
M  V30 34850 C 3326.64 1.47414 -4.24852 0
M  V30 34851 C 3325.41 1.23534 -4.89967 0
M  V30 34852 C 3327.61 0.920645 -5.05993 0
M  V30 34853 N 3325.59 0.545524 -6.11471 0
M  V30 34854 C 3326.96 0.359271 -6.18958 0
M  V30 34855 C 3329.02 0.817711 -4.91139 0
M  V30 34856 C 3327.72 -0.294979 -7.18695 0
M  V30 34857 C 3329.75 0.177271 -5.91134 0
M  V30 34858 C 3329.11 -0.373303 -7.0341 0
M  V30 34859 H 3325.21 0.397336 -0.673534 0
M  V30 34860 H 3327.79 0.413446 -1.9026 0
M  V30 34861 H 3325.96 2.8104 -2.68088 0
M  V30 34862 H 3327.69 2.79387 -2.92789 0
M  V30 34863 H 3324.45 1.51215 -4.48811 0
M  V30 34864 H 3324.87 0.216463 -6.76654 0
M  V30 34865 H 3329.52 1.22916 -4.04538 0
M  V30 34866 H 3327.23 -0.718426 -8.049 0
M  V30 34867 H 3330.82 0.0987811 -5.81716 0
M  V30 34868 H 3329.7 -0.861042 -7.79459 0
M  V30 34869 N 3327.2 1.43972 0.64108 0
M  V30 34870 C 3328.45 1.45942 1.39805 0
M  V30 34871 C 3328.77 0.0894216 1.94795 0
M  V30 34872 O 3328.04 -0.876931 1.75176 0
M  V30 34873 H 3326.62 0.537358 0.518898 0
M  V30 34874 H 3329.28 1.79672 0.755246 0
M  V30 34875 H 3328.38 2.17907 2.23435 0
M  V30 34876 N 3328.68 -0.880575 1.30704 0
M  V30 34877 C 3329.61 -1.99253 1.13274 0
M  V30 34878 C 3330.63 -1.62628 0.0747472 0
M  V30 34879 O 3331.82 -1.75586 0.3212 0
M  V30 34880 C 3328.92 -3.3146 0.706237 0
M  V30 34881 C 3328.09 -3.96493 1.84694 0
M  V30 34882 C 3327.15 -5.07006 1.40825 0
M  V30 34883 O 3326.17 -5.28399 2.11619 0
M  V30 34884 N 3327.38 -5.79777 0.289721 0
M  V30 34885 H 3330.14 -2.14755 2.09047 0
M  V30 34886 H 3327.7 -1.05393 1.22898 0
M  V30 34887 H 3329.69 -4.02761 0.395688 0
M  V30 34888 H 3328.26 -3.12192 -0.159577 0
M  V30 34889 H 3327.48 -3.18308 2.32537 0
M  V30 34890 H 3328.77 -4.36682 2.61125 0
M  V30 34891 H 3328.17 -5.64904 -0.300078 0
M  V30 34892 H 3326.73 -6.51789 0.0386492 0
M  V30 34893 N 3330.16 -1.13492 -1.09349 0
M  V30 34894 C 3331.12 -0.815956 -2.14184 0
M  V30 34895 C 3332.12 0.174948 -1.59845 0
M  V30 34896 O 3333.31 -0.0522277 -1.74122 0
M  V30 34897 C 3330.44 -0.214577 -3.40224 0
M  V30 34898 H 3331.64 -1.74493 -2.4391 0
M  V30 34899 H 3329.19 -0.939656 -1.24901 0
M  V30 34900 H 3329.93 0.723578 -3.16125 0
M  V30 34901 H 3329.71 -0.928169 -3.80956 0
M  V30 34902 H 3331.2 -0.00829339 -4.17599 0
M  V30 34903 N 3331.64 1.27341 -0.928546 0
M  V30 34904 C 3332.86 1.98973 -0.585195 0
M  V30 34905 C 3333.29 1.68801 0.829935 0
M  V30 34906 O 3332.65 0.928765 1.55704 0
M  V30 34907 C 3332.69 3.51183 -0.818724 0
M  V30 34908 O 3331.8 4.12239 0.115283 0
M  V30 34909 H 3331.14 0.62464 -0.225214 0
M  V30 34910 H 3333.67 1.62128 -1.24803 0
M  V30 34911 H 3333.68 4.01332 -0.734624 0
M  V30 34912 H 3332.35 3.72476 -1.85026 0
M  V30 34913 H 3330.93 3.72895 -0.0188026 0
M  V30 34914 N 3333.12 0.694147 1.4149 0
M  V30 34915 C 3334.36 0.22865 2.03117 0
M  V30 34916 C 3334.72 -1.14954 1.53784 0
M  V30 34917 O 3335.92 -1.71081 2.07328 0
M  V30 34918 C 3334.19 0.282404 3.56283 0
M  V30 34919 S 3335.75 -0.109256 4.38664 0
M  V30 34920 H 3332.57 0.0922394 0.704991 0
M  V30 34921 H 3335.17 0.911608 1.72945 0
M  V30 34922 H 3333.87 1.28747 3.89682 0
M  V30 34923 H 3333.41 -0.419749 3.91154 0
M  V30 34924 H 3335.42 -1.33739 4.77837 0
M  V30 34925 N 3334.59 -1.51368 0.438799 0
M  V30 34926 C 3336.01 -1.59339 0.0911696 0
M  V30 34927 C 3336.21 -1.44961 -1.39959 0
M  V30 34928 O 3335.27 -1.29158 -2.16966 0
M  V30 34929 C 3336.58 -2.94394 0.612583 0
M  V30 34930 C 3338.13 -3.07708 0.573153 0
M  V30 34931 C 3338.6 -4.45288 1.07156 0
M  V30 34932 N 3340.09 -4.51612 1.02961 0
M  V30 34933 C 3340.83 -5.56394 1.38612 0
M  V30 34934 N 3340.32 -6.68588 1.81554 0
M  V30 34935 N 3342.12 -5.46761 1.30419 0
M  V30 34936 H 3334.27 -1.58959 1.40875 0
M  V30 34937 H 3336.53 -0.749404 0.580602 0
M  V30 34938 H 3336.24 -3.10291 1.65567 0
M  V30 34939 H 3336.11 -3.77181 0.0383038 0
M  V30 34940 H 3338.5 -2.91478 -0.460954 0
M  V30 34941 H 3338.58 -2.26757 1.18385 0
M  V30 34942 H 3338.22 -4.62264 2.10414 0
M  V30 34943 H 3338.15 -5.2478 0.437389 0
M  V30 34944 H 3340.64 -3.71088 0.714273 0
M  V30 34945 H 3340.96 -7.44564 2.0699 0
M  V30 34946 H 3339.3 -6.69792 1.85482 0
M  V30 34947 H 3342.49 -4.57996 0.967352 0
M  V30 34948 H 3342.67 -6.28309 1.58531 0
M  V30 34949 N 3336.07 -0.170208 -1.56678 0
M  V30 34950 C 3337.03 0.746584 -2.167 0
M  V30 34951 C 3338.03 1.15886 -1.11477 0
M  V30 34952 O 3339.22 1.076 -1.36996 0
M  V30 34953 C 3336.36 2.01607 -2.74895 0
M  V30 34954 H 3337.55 0.224082 -2.99062 0
M  V30 34955 H 3335.1 0.0793487 -1.56098 0
M  V30 34956 H 3335.84 2.58168 -1.96264 0
M  V30 34957 H 3335.62 1.72943 -3.51899 0
M  V30 34958 H 3337.11 2.67036 -3.21063 0
M  V30 34959 N 3337.55 1.5726 0.10352 0
M  V30 34960 C 3338.46 2.04777 1.14472 0
M  V30 34961 C 3339.48 0.97105 1.44384 0
M  V30 34962 O 3340.65 1.28364 1.55192 0
M  V30 34963 C 3337.72 2.45562 2.44745 0
M  V30 34964 C 3336.78 3.67388 2.22091 0
M  V30 34965 C 3336.01 4.06219 3.46153 0
M  V30 34966 O 3336.23 3.45227 4.54064 0
M  V30 34967 O 3335.17 4.99226 3.36239 0
M  V30 34968 H 3338.99 2.93746 0.771159 0
M  V30 34969 H 3336.58 1.46032 0.31543 0
M  V30 34970 H 3338.46 2.7246 3.21471 0
M  V30 34971 H 3337.14 1.59733 2.81544 0
M  V30 34972 H 3336.04 3.45619 1.43173 0
M  V30 34973 H 3337.38 4.5397 1.90189 0
M  V30 34974 N 3339.03 -0.374123 1.53095 0
M  V30 34975 C 3339.98 -1.45776 1.75309 0
M  V30 34976 C 3340.96 -1.48993 0.607435 0
M  V30 34977 O 3342.15 -1.54379 0.865804 0
M  V30 34978 C 3339.28 -2.83314 1.93876 0
M  V30 34979 C 3338.37 -2.84609 3.14418 0
M  V30 34980 N 3338.76 -2.55557 4.36491 0
M  V30 34981 C 3337.06 -3.15772 3.14966 0
M  V30 34982 C 3337.76 -2.64313 5.18183 0
M  V30 34983 N 3336.73 -2.98668 4.54201 0
M  V30 34984 H 3340.54 -1.22165 2.67307 0
M  V30 34985 H 3338.05 -0.582227 1.51604 0
M  V30 34986 H 3340.05 -3.61354 2.07916 0
M  V30 34987 H 3338.71 -3.07897 1.03101 0
M  V30 34988 H 3339.72 -2.29306 4.6437 0
M  V30 34989 H 3336.4 -3.45724 2.34054 0
M  V30 34990 H 3337.79 -2.45271 6.25533 0
M  V30 34991 N 3340.51 -1.4431 -0.633436 0
M  V30 34992 C 3341.44 -1.53822 -1.75673 0
M  V30 34993 C 3342.42 -0.391394 -1.65536 0
M  V30 34994 O 3343.6 -0.611214 -1.84331 0
M  V30 34995 C 3340.73 -1.47984 -3.14194 0
M  V30 34996 C 3339.69 -2.61119 -3.39118 0
M  V30 34997 C 3339.01 -2.40334 -4.77644 0
M  V30 34998 C 3340.31 -4.0328 -3.31907 0
M  V30 34999 H 3342.01 -2.47844 -1.6797 0
M  V30 35000 H 3339.55 -1.19284 -0.806679 0
M  V30 35001 H 3341.5 -1.5324 -3.9255 0
M  V30 35002 H 3340.23 -0.504775 -3.22676 0
M  V30 35003 H 3338.89 -2.5525 -2.63141 0
M  V30 35004 H 3338.54 -1.41025 -4.82826 0
M  V30 35005 H 3338.24 -3.16185 -4.95278 0
M  V30 35006 H 3339.76 -2.47403 -5.58233 0
M  V30 35007 H 3341.17 -4.10531 -4.00171 0
M  V30 35008 H 3339.57 -4.79316 -3.61076 0
M  V30 35009 H 3340.64 -4.27014 -2.29754 0
M  V30 35010 N 3341.98 0.873632 -1.3117 0
M  V30 35011 C 3343.21 1.65925 -1.23598 0
M  V30 35012 C 3343.63 1.87745 0.199316 0
M  V30 35013 O 3342.98 1.433 1.1301 0
M  V30 35014 C 3343.04 3.02928 -1.97273 0
M  V30 35015 O 3342.76 2.82085 -3.35201 0
M  V30 35016 C 3344.26 3.97371 -1.96497 0
M  V30 35017 H 3341.48 0.517407 -0.427237 0
M  V30 35018 H 3344.02 1.09071 -1.72985 0
M  V30 35019 H 3342.18 3.56481 -1.51657 0
M  V30 35020 H 3342.59 3.6908 -3.72666 0
M  V30 35021 H 3344.06 4.90831 -2.52565 0
M  V30 35022 H 3344.54 4.28878 -0.946601 0
M  V30 35023 H 3345.15 3.49754 -2.41976 0
M  V30 35024 N 3343.46 1.1407 1.08746 0
M  V30 35025 C 3344.71 0.908113 1.81332 0
M  V30 35026 C 3345.04 -0.564079 1.85827 0
M  V30 35027 O 3344.32 -1.41771 1.33159 0
M  V30 35028 C 3344.6 1.50537 3.27125 0
M  V30 35029 C 3344.45 3.04717 3.30859 0
M  V30 35030 C 3345.77 1.17935 4.24004 0
M  V30 35031 H 3342.89 0.331337 0.65832 0
M  V30 35032 H 3345.53 1.41011 1.27342 0
M  V30 35033 H 3343.68 1.07845 3.73231 0
M  V30 35034 H 3345.35 3.56214 2.93103 0
M  V30 35035 H 3343.6 3.39345 2.70235 0
M  V30 35036 H 3344.27 3.4161 4.33597 0
M  V30 35037 H 3346.74 1.54838 3.86218 0
M  V30 35038 H 3345.62 1.62363 5.24337 0
M  V30 35039 H 3345.88 0.0941126 4.42 0
M  V30 35040 N 3344.94 -1.26847 0.935286 0
M  V30 35041 C 3346.35 -1.75991 0.623229 0
M  V30 35042 C 3346.7 -1.76269 -0.861616 0
M  V30 35043 O 3345.83 -1.37102 -1.67428 0
M  V30 35044 C 3346.42 -3.19592 1.12457 0
M  V30 35045 C 3344.98 -3.66372 0.863038 0
M  V30 35046 C 3344.13 -2.46047 1.2789 0
M  V30 35047 H 3347.08 -1.13006 1.11424 0
M  V30 35048 H 3347.1 -3.77515 0.475692 0
M  V30 35049 H 3346.61 -3.19357 2.20528 0
M  V30 35050 H 3344.71 -3.72044 -0.203541 0
M  V30 35051 H 3344.83 -4.55475 1.4859 0
M  V30 35052 H 3343.19 -2.44967 0.697378 0
M  V30 35053 H 3343.97 -2.48518 2.36841 0
M  V30 35054 N 3346.42 -0.701641 -1.4112 0
M  V30 35055 C 3347.64 -0.242933 -2.05972 0
M  V30 35056 C 3348.07 1.10148 -1.52476 0
M  V30 35057 O 3347.43 1.69083 -0.654253 0
M  V30 35058 C 3347.47 -0.217677 -3.59942 0
M  V30 35059 O 3346.58 0.805558 -4.04456 0
M  V30 35060 H 3345.92 -0.117178 -0.653579 0
M  V30 35061 H 3348.45 -0.958207 -1.80775 0
M  V30 35062 H 3348.46 -0.0505984 -4.07969 0
M  V30 35063 H 3347.13 -1.19884 -3.98247 0
M  V30 35064 H 3345.71 0.60734 -3.67921 0
M  V30 35065 N 3347.9 1.51133 -0.446821 0
M  V30 35066 C 3349.14 2.02165 0.116458 0
M  V30 35067 C 3349.47 1.33041 1.41881 0
M  V30 35068 O 3348.73 0.437105 1.90756 0
M  V30 35069 C 3349.03 3.55449 0.372952 0
M  V30 35070 C 3348.69 4.42916 -0.844737 0
M  V30 35071 C 3347.35 4.66542 -1.17865 0
M  V30 35072 C 3349.71 4.94172 -1.65662 0
M  V30 35073 C 3347.03 5.38667 -2.32496 0
M  V30 35074 C 3349.39 5.67555 -2.794 0
M  V30 35075 C 3348.05 5.89441 -3.13234 0
M  V30 35076 H 3347.32 0.739774 0.0426149 0
M  V30 35077 H 3349.97 1.81991 -0.595953 0
M  V30 35078 H 3348.27 3.74005 1.16736 0
M  V30 35079 H 3349.97 3.92477 0.822356 0
M  V30 35080 H 3346.56 4.24732 -0.574553 0
M  V30 35081 H 3350.74 4.75795 -1.41185 0
M  V30 35082 H 3346 5.53825 -2.59013 0
M  V30 35083 H 3350.17 6.06258 -3.42673 0
M  V30 35084 H 3347.8 6.45108 -4.02169 0
M  V30 35085 N 3349.37 0.178515 1.56586 0
M  V30 35086 C 3350.34 -0.735081 2.17093 0
M  V30 35087 C 3351.34 -1.15293 1.1209 0
M  V30 35088 O 3352.53 -1.06872 1.37565 0
M  V30 35089 C 3349.66 -2.00146 2.75961 0
M  V30 35090 H 3350.85 -0.208219 2.99176 0
M  V30 35091 H 3348.41 -0.0710693 1.56138 0
M  V30 35092 H 3349.14 -2.57124 1.9763 0
M  V30 35093 H 3348.93 -1.71074 3.52812 0
M  V30 35094 H 3350.42 -2.6533 3.22475 0
M  V30 35095 N 3350.85 -1.57312 -0.0951784 0
M  V30 35096 C 3352.1 -1.86084 -0.798687 0
M  V30 35097 C 3352.43 -0.767023 -1.78737 0
M  V30 35098 O 3351.68 0.239391 -1.9423 0
M  V30 35099 C 3351.98 -3.21441 -1.56238 0
M  V30 35100 C 3351.65 -4.45182 -0.715825 0
M  V30 35101 C 3350.31 -4.78775 -0.482453 0
M  V30 35102 C 3352.66 -5.21044 -0.127312 0
M  V30 35103 C 3349.99 -5.85659 0.349296 0
M  V30 35104 C 3352.34 -6.28806 0.691759 0
M  V30 35105 C 3351.01 -6.60916 0.935223 0
M  V30 35106 H 3350.28 -0.68093 -0.29226 0
M  V30 35107 H 3352.92 -1.91405 -0.0601769 0
M  V30 35108 H 3351.23 -3.11804 -2.37246 0
M  V30 35109 H 3352.92 -3.40931 -2.1111 0
M  V30 35110 H 3349.51 -4.18875 -0.907828 0
M  V30 35111 H 3353.7 -4.95424 -0.294773 0
M  V30 35112 H 3348.95 -6.08949 0.546904 0
M  V30 35113 H 3353.13 -6.86761 1.15464 0
M  V30 35114 H 3350.76 -7.43567 1.58152 0
M  V30 35115 N 3352.33 0.365999 -1.53291 0
M  V30 35116 C 3353.24 1.47218 -1.82658 0
M  V30 35117 C 3354.26 1.58634 -0.714938 0
M  V30 35118 O 3355.43 1.74536 -1.00495 0
M  V30 35119 C 3352.5 2.82489 -2.01 0
M  V30 35120 C 3351.56 2.80604 -3.249 0
M  V30 35121 C 3350.79 4.09423 -3.42357 0
M  V30 35122 O 3351.01 5.05566 -2.64119 0
M  V30 35123 O 3349.95 4.1526 -4.35709 0
M  V30 35124 H 3353.77 1.25325 -2.76636 0
M  V30 35125 H 3351.36 0.556059 -1.38666 0
M  V30 35126 H 3353.24 3.62641 -2.14638 0
M  V30 35127 H 3351.92 3.0436 -1.10212 0
M  V30 35128 H 3350.82 1.99152 -3.16685 0
M  V30 35129 H 3352.16 2.63687 -4.15608 0
M  V30 35130 N 3353.81 1.44644 0.625774 0
M  V30 35131 C 3355.22 1.42396 1.20748 0
M  V30 35132 C 3355.57 0.142081 1.95685 0
M  V30 35133 O 3354.7 -0.757297 2.02716 0
M  V30 35134 C 3355.29 2.57964 2.19636 0
M  V30 35135 C 3353.85 2.58895 2.73222 0
M  V30 35136 C 3353 2.34306 1.48311 0
M  V30 35137 H 3355.95 1.53147 0.416135 0
M  V30 35138 H 3355.97 2.31024 3.02338 0
M  V30 35139 H 3355.48 3.51247 1.65067 0
M  V30 35140 H 3353.58 1.69569 3.31779 0
M  V30 35141 H 3353.69 3.5755 3.18896 0
M  V30 35142 H 3352.06 1.83504 1.76631 0
M  V30 35143 H 3352.84 3.2971 0.956369 0
M  V30 35144 N 3355.29 -0.866663 1.31631 0
M  V30 35145 C 3356.22 -1.98999 1.22154 0
M  V30 35146 C 3357.2 -1.69757 0.108002 0
M  V30 35147 O 3358.38 -1.91975 0.293158 0
M  V30 35148 C 3355.51 -3.34575 0.931499 0
M  V30 35149 C 3354.47 -3.78134 2.00497 0
M  V30 35150 C 3353.79 -5.11206 1.56756 0
M  V30 35151 C 3355.09 -3.94886 3.41851 0
M  V30 35152 H 3356.79 -2.07186 2.16135 0
M  V30 35153 H 3354.33 -0.995444 1.04052 0
M  V30 35154 H 3356.29 -4.12701 0.851792 0
M  V30 35155 H 3355.01 -3.2657 -0.0439715 0
M  V30 35156 H 3353.67 -3.0225 2.07462 0
M  V30 35157 H 3353.32 -4.99647 0.579855 0
M  V30 35158 H 3353.02 -5.41322 2.28571 0
M  V30 35159 H 3354.54 -5.91838 1.50199 0
M  V30 35160 H 3355.95 -4.63399 3.37542 0
M  V30 35161 H 3354.35 -4.36403 4.11913 0
M  V30 35162 H 3355.42 -2.98165 3.82394 0
M  V30 35163 N 3356.77 -1.14645 -1.0814 0
M  V30 35164 C 3358.04 -0.827103 -1.77252 0
M  V30 35165 C 3358.42 0.678875 -1.99886 0
M  V30 35166 O 3357.77 1.62059 -1.61087 0
M  V30 35167 C 3357.98 -1.6289 -3.08655 0
M  V30 35168 C 3359.33 -1.82999 -3.8314 0
M  V30 35169 O 3360.35 -1.59598 -3.18444 0
M  V30 35170 O 3359.21 -2.22139 -4.99316 0
M  V30 35171 H 3356.31 -0.303363 -0.76935 0
M  V30 35172 H 3358.85 -1.2518 -1.14577 0
M  V30 35173 H 3357.62 -2.65173 -2.87748 0
M  V30 35174 H 3357.25 -1.2 -3.79059 0
M  V30 35175 N 3358.24 1.26349 -0.942 0
M  V30 35176 C 3359.17 2.28722 -0.469953 0
M  V30 35177 C 3360.15 1.63269 0.47719 0
M  V30 35178 O 3361.34 1.90468 0.378869 0
M  V30 35179 C 3358.47 3.46288 0.26491 0
M  V30 35180 C 3357.42 4.23833 -0.595756 0
M  V30 35181 C 3356.75 5.34022 0.269114 0
M  V30 35182 C 3358.05 4.87772 -1.86751 0
M  V30 35183 H 3359.74 2.68457 -1.32555 0
M  V30 35184 H 3357.29 1.29054 -0.638832 0
M  V30 35185 H 3359.24 4.17017 0.606185 0
M  V30 35186 H 3357.97 3.05508 1.15466 0
M  V30 35187 H 3356.63 3.5487 -0.919938 0
M  V30 35188 H 3356.27 4.89483 1.15824 0
M  V30 35189 H 3355.97 5.86816 -0.303354 0
M  V30 35190 H 3357.5 6.07589 0.605641 0
M  V30 35191 H 3358.91 5.50711 -1.59343 0
M  V30 35192 H 3357.31 5.50687 -2.38462 0
M  V30 35193 H 3358.38 4.10667 -2.57839 0
M  V30 35194 N 3359.72 0.709115 1.40746 0
M  V30 35195 C 3360.97 0.245359 2.00605 0
M  V30 35196 C 3361.29 -1.16343 1.56491 0
M  V30 35197 O 3360.56 -1.78754 0.801488 0
M  V30 35198 H 3359.14 0.0877229 0.741831 0
M  V30 35199 H 3361.8 0.913301 1.72177 0
M  V30 35200 H 3360.9 0.273377 3.109 0
M  V30 35201 N 3361.2 -1.50894 0.454829 0
M  V30 35202 C 3362.45 -2.02523 -0.105892 0
M  V30 35203 C 3362.78 -1.33726 -1.40822 0
M  V30 35204 O 3362.05 -0.457716 -1.89038 0
M  V30 35205 C 3362.34 -3.58793 -0.306572 0
M  V30 35206 C 3362.19 -4.38184 1.01564 0
M  V30 35207 C 3363.51 -4.26932 -1.06851 0
M  V30 35208 H 3360.63 -0.73607 -0.0370102 0
M  V30 35209 H 3363.27 -1.80369 0.597246 0
M  V30 35210 H 3361.42 -3.778 -0.905496 0
M  V30 35211 H 3363.09 -4.30786 1.64989 0
M  V30 35212 H 3361.33 -4.02571 1.61615 0
M  V30 35213 H 3362.01 -5.45739 0.829054 0
M  V30 35214 H 3364.48 -4.12301 -0.561014 0
M  V30 35215 H 3363.36 -5.36117 -1.1777 0
M  V30 35216 H 3363.62 -3.88984 -2.10104 0
M  V30 35217 N 3362.68 -0.186817 -1.56489 0
M  V30 35218 C 3364.09 0.327233 -1.8381 0
M  V30 35219 C 3364.44 1.61974 -1.1072 0
M  V30 35220 O 3363.56 2.13295 -0.365288 0
M  V30 35221 C 3364.16 0.600492 -3.33436 0
M  V30 35222 C 3362.72 1.05893 -3.61197 0
M  V30 35223 C 3361.87 0.103082 -2.77108 0
M  V30 35224 H 3364.82 -0.410774 -1.53292 0
M  V30 35225 H 3364.84 1.45078 -3.51757 0
M  V30 35226 H 3364.35 -0.340383 -3.86604 0
M  V30 35227 H 3362.45 2.01438 -3.13454 0
M  V30 35228 H 3362.56 0.957375 -4.69437 0
M  V30 35229 H 3360.93 0.603405 -2.47449 0
M  V30 35230 H 3361.71 -0.832089 -3.33063 0
M  V30 35231 N 3364.16 1.57361 0.0868344 0
M  V30 35232 C 3365.38 1.91099 0.805983 0
M  V30 35233 C 3365.81 0.78186 1.71081 0
M  V30 35234 O 3365.16 -0.266143 1.79336 0
M  V30 35235 C 3365.21 3.23734 1.58835 0
M  V30 35236 O 3364.32 3.11907 2.69793 0
M  V30 35237 H 3363.66 0.626182 0.220888 0
M  V30 35238 H 3366.19 2.04513 0.0595831 0
M  V30 35239 H 3366.2 3.57244 1.97081 0
M  V30 35240 H 3364.87 4.05498 0.924355 0
M  V30 35241 H 3363.45 2.89927 2.34513 0
M  V30 35242 N 3365.63 -0.357865 1.53483 0
M  V30 35243 C 3366.88 -1.09751 1.69703 0
M  V30 35244 C 3367.2 -1.89607 0.455422 0
M  V30 35245 O 3366.47 -1.88578 -0.53059 0
M  V30 35246 H 3365.05 -0.408167 0.625627 0
M  V30 35247 H 3367.71 -0.402608 1.90696 0
M  V30 35248 H 3366.81 -1.78298 2.56157 0
M  V30 35249 N 3367.11 -1.44974 -0.618094 0
M  V30 35250 C 3368.39 -1.38915 -1.37702 0
M  V30 35251 C 3368.77 -0.0544221 -2.1103 0
M  V30 35252 O 3368.12 0.963372 -2.07199 0
M  V30 35253 C 3368.33 -2.59597 -2.33261 0
M  V30 35254 C 3369.67 -3.04229 -2.96192 0
M  V30 35255 O 3370.7 -2.59895 -2.43584 0
M  V30 35256 O 3369.56 -3.81137 -3.91659 0
M  V30 35257 H 3366.65 -0.550751 -0.61693 0
M  V30 35258 H 3369.2 -1.57085 -0.64206 0
M  V30 35259 H 3367.97 -3.48335 -1.78265 0
M  V30 35260 H 3367.59 -2.43707 -3.14154 0
M  V30 35261 N 3368.59 0.85967 -1.32089 0
M  V30 35262 C 3370 1.42936 -1.2011 0
M  V30 35263 C 3370.35 1.95294 0.188376 0
M  V30 35264 O 3369.48 1.8713 1.0868 0
M  V30 35265 C 3370.07 2.59817 -2.17441 0
M  V30 35266 C 3368.63 3.128 -2.09364 0
M  V30 35267 C 3367.78 1.85533 -2.06089 0
M  V30 35268 H 3370.73 0.667277 -1.4399 0
M  V30 35269 H 3370.75 3.36824 -1.77001 0
M  V30 35270 H 3370.26 2.21679 -3.18559 0
M  V30 35271 H 3368.36 3.55533 -1.11477 0
M  V30 35272 H 3368.48 3.74384 -2.98954 0
M  V30 35273 H 3366.84 2.04925 -1.51254 0
M  V30 35274 H 3367.62 1.49619 -3.0898 0
M  V30 35275 N 3370.07 1.15217 1.0753 0
M  V30 35276 C 3371.31 0.925923 1.80091 0
M  V30 35277 C 3371.64 -0.547046 1.86648 0
M  V30 35278 O 3370.9 -1.42161 1.34494 0
M  V30 35279 C 3371.2 1.48306 3.25177 0
M  V30 35280 C 3370.86 2.9762 3.38723 0
M  V30 35281 C 3369.52 3.38382 3.42127 0
M  V30 35282 C 3371.88 3.93589 3.41669 0
M  V30 35283 C 3369.2 4.73758 3.46078 0
M  V30 35284 C 3371.56 5.28834 3.47156 0
M  V30 35285 C 3370.22 5.69095 3.48837 0
M  V30 35286 H 3369.49 0.338819 0.659001 0
M  V30 35287 H 3372.14 1.43731 1.26546 0
M  V30 35288 H 3370.44 0.892818 3.81492 0
M  V30 35289 H 3372.14 1.28383 3.79893 0
M  V30 35290 H 3368.73 2.6511 3.36771 0
M  V30 35291 H 3372.91 3.63171 3.38261 0
M  V30 35292 H 3368.17 5.04299 3.45677 0
M  V30 35293 H 3372.34 6.02995 3.48382 0
M  V30 35294 H 3369.97 6.73977 3.51652 0
M  V30 35295 N 3371.55 -1.25848 0.948687 0
M  V30 35296 C 3372.48 -2.28469 0.482076 0
M  V30 35297 C 3373.46 -1.6352 -0.468524 0
M  V30 35298 O 3374.64 -1.90667 -0.368762 0
M  V30 35299 C 3371.77 -3.46424 -0.246542 0
M  V30 35300 C 3370.73 -4.23511 0.618225 0
M  V30 35301 C 3370.05 -5.34158 -0.24079 0
M  V30 35302 C 3371.35 -4.86775 1.89335 0
M  V30 35303 H 3373.05 -2.67751 1.33977 0
M  V30 35304 H 3370.59 -1.28713 0.645667 0
M  V30 35305 H 3372.55 -4.17333 -0.584062 0
M  V30 35306 H 3371.27 -3.06116 -1.13844 0
M  V30 35307 H 3369.93 -3.54377 0.938744 0
M  V30 35308 H 3369.58 -4.90091 -1.13226 0
M  V30 35309 H 3369.28 -5.86647 0.33447 0
M  V30 35310 H 3370.8 -6.07902 -0.57341 0
M  V30 35311 H 3372.21 -5.49858 1.62261 0
M  V30 35312 H 3370.61 -5.49415 2.41379 0
M  V30 35313 H 3371.68 -4.09294 2.60013 0
M  V30 35314 N 3373.02 -0.716569 -1.40368 0
M  V30 35315 C 3374.3 -0.18361 -1.94736 0
M  V30 35316 C 3374.68 1.31089 -1.65466 0
M  V30 35317 O 3374.03 2.06755 -0.972868 0
M  V30 35318 C 3374.24 -0.4974 -3.45437 0
M  V30 35319 C 3375.59 -0.436601 -4.22349 0
M  V30 35320 O 3376.61 -0.433517 -3.53552 0
M  V30 35321 O 3375.47 -0.414986 -5.44922 0
M  V30 35322 H 3372.56 -0.027293 -0.82655 0
M  V30 35323 H 3375.11 -0.794169 -1.4997 0
M  V30 35324 H 3373.88 -1.53103 -3.60104 0
M  V30 35325 H 3373.51 0.143072 -3.97343 0
M  V30 35326 N 3374.5 1.50651 -0.462825 0
M  V30 35327 C 3375.75 2.01877 0.0948213 0
M  V30 35328 C 3376.07 1.34744 1.40958 0
M  V30 35329 O 3375.34 0.490093 1.89671 0
M  V30 35330 H 3373.92 0.746031 0.0380322 0
M  V30 35331 H 3376.58 1.85063 -0.61136 0
M  V30 35332 H 3375.68 3.11078 0.252323 0
M  V30 35333 N 3375.98 0.195113 1.56388 0
M  V30 35334 C 3377.21 -0.452363 2.02407 0
M  V30 35335 C 3377.63 -1.544 1.07435 0
M  V30 35336 O 3376.99 -1.81208 0.0578564 0
M  V30 35337 C 3377.04 -0.985717 3.46866 0
M  V30 35338 O 3376.14 -2.09861 3.5501 0
M  V30 35339 H 3375.48 -0.105708 0.655532 0
M  V30 35340 H 3378.01 0.305995 2.02299 0
M  V30 35341 H 3378.02 -1.30231 3.86657 0
M  V30 35342 H 3376.7 -0.186589 4.15481 0
M  V30 35343 H 3375.27 -1.79065 3.27093 0
M  V30 35344 N 3377.46 -1.57404 -0.0784879 0
M  V30 35345 C 3378.41 -1.9967 -1.10073 0
M  V30 35346 C 3379.39 -0.877694 -1.34853 0
M  V30 35347 O 3380.58 -1.14158 -1.35266 0
M  V30 35348 C 3377.71 -2.43858 -2.41637 0
M  V30 35349 C 3376.8 -3.62479 -2.20159 0
M  V30 35350 N 3377.19 -4.76875 -1.68593 0
M  V30 35351 C 3375.49 -3.68898 -2.5066 0
M  V30 35352 C 3376.19 -5.58752 -1.61775 0
M  V30 35353 N 3375.17 -5.02403 -2.07586 0
M  V30 35354 H 3378.97 -2.85558 -0.695246 0
M  V30 35355 H 3376.48 -1.59868 -0.285666 0
M  V30 35356 H 3378.48 -2.72373 -3.15624 0
M  V30 35357 H 3377.14 -1.59353 -2.82908 0
M  V30 35358 H 3378.15 -4.99299 -1.37552 0
M  V30 35359 H 3374.83 -2.95092 -2.95342 0
M  V30 35360 H 3376.22 -6.6058 -1.22816 0
M  V30 35361 N 3378.94 0.34972 -1.53671 0
M  V30 35362 C 3380.16 1.11529 -1.7486 0
M  V30 35363 C 3380.59 1.81777 -0.483623 0
M  V30 35364 O 3379.94 1.72325 0.563369 0
M  V30 35365 C 3379.99 2.10918 -2.92483 0
M  V30 35366 O 3379.1 3.18316 -2.62199 0
M  V30 35367 H 3378.44 0.322854 -0.580225 0
M  V30 35368 H 3380.97 0.401997 -2.00612 0
M  V30 35369 H 3380.98 2.54246 -3.19097 0
M  V30 35370 H 3379.65 1.59184 -3.84231 0
M  V30 35371 H 3378.23 2.79849 -2.46453 0
M  V30 35372 N 3380.41 1.45299 0.610397 0
M  V30 35373 C 3381.66 1.4939 1.37151 0
M  V30 35374 C 3381.99 0.134059 1.93737 0
M  V30 35375 O 3381.27 -0.851107 1.7489 0
M  V30 35376 C 3381.55 2.57084 2.5215 0
M  V30 35377 C 3381.4 4.02502 2.00779 0
M  V30 35378 C 3382.72 2.61088 3.5429 0
M  V30 35379 H 3379.84 0.543898 0.497336 0
M  V30 35380 H 3382.48 1.77093 0.688327 0
M  V30 35381 H 3380.63 2.33592 3.1043 0
M  V30 35382 H 3382.31 4.37194 1.4717 0
M  V30 35383 H 3380.55 4.13293 1.31801 0
M  V30 35384 H 3381.22 4.73537 2.83666 0
M  V30 35385 H 3383.7 2.8213 3.05846 0
M  V30 35386 H 3382.57 3.38309 4.32248 0
M  V30 35387 H 3382.83 1.6607 4.09723 0
M  V30 35388 N 3381.89 -0.852653 1.32543 0
M  V30 35389 C 3383.12 -1.63937 1.26222 0
M  V30 35390 C 3383.54 -1.88038 -0.169422 0
M  V30 35391 O 3382.89 -1.4508 -1.10716 0
M  V30 35392 C 3382.94 -2.99751 2.02068 0
M  V30 35393 O 3382.66 -2.76717 3.39646 0
M  V30 35394 C 3384.17 -3.94195 2.02794 0
M  V30 35395 H 3381.39 -0.510544 0.435414 0
M  V30 35396 H 3383.93 -1.06306 1.74698 0
M  V30 35397 H 3382.08 -3.54023 1.57309 0
M  V30 35398 H 3382.5 -3.63105 3.78491 0
M  V30 35399 H 3383.97 -4.86751 2.60342 0
M  V30 35400 H 3384.45 -4.27317 1.01471 0
M  V30 35401 H 3385.06 -3.4586 2.4751 0
M  V30 35402 N 3383.37 -1.15786 -1.06918 0
M  V30 35403 C 3384.78 -0.944151 -1.61067 0
M  V30 35404 C 3385.13 0.513489 -1.89361 0
M  V30 35405 O 3384.26 1.38546 -1.66234 0
M  V30 35406 C 3384.85 -1.70748 -2.92627 0
M  V30 35407 C 3383.41 -1.53893 -3.43502 0
M  V30 35408 C 3382.56 -1.72025 -2.17492 0
M  V30 35409 H 3385.51 -1.30748 -0.899487 0
M  V30 35410 H 3385.53 -1.17957 -3.61755 0
M  V30 35411 H 3385.04 -2.76833 -2.72002 0
M  V30 35412 H 3383.14 -0.502218 -3.692 0
M  V30 35413 H 3383.26 -2.31876 -4.1925 0
M  V30 35414 H 3381.62 -1.14714 -2.27405 0
M  V30 35415 H 3382.4 -2.79485 -1.99357 0
M  V30 35416 N 3384.85 1.25343 -0.955348 0
M  V30 35417 C 3385.76 2.29579 -0.482748 0
M  V30 35418 C 3386.77 1.68074 0.450253 0
M  V30 35419 O 3387.95 1.98739 0.326323 0
M  V30 35420 C 3385.02 3.45928 0.231232 0
M  V30 35421 C 3384.08 4.22873 -0.74007 0
M  V30 35422 C 3383.31 5.33666 -0.0600686 0
M  V30 35423 O 3383.53 5.58602 1.15414 0
M  V30 35424 O 3382.47 5.97259 -0.74597 0
M  V30 35425 H 3386.29 2.72097 -1.34897 0
M  V30 35426 H 3383.88 1.30805 -0.721834 0
M  V30 35427 H 3385.76 4.16621 0.632835 0
M  V30 35428 H 3384.43 3.05412 1.07261 0
M  V30 35429 H 3383.34 3.54605 -1.19189 0
M  V30 35430 H 3384.67 4.67174 -1.54949 0
M  V30 35431 N 3386.33 0.724003 1.39986 0
M  V30 35432 C 3387.55 0.27567 2.0556 0
M  V30 35433 C 3387.98 -1.07708 1.54209 0
M  V30 35434 O 3387.34 -1.68021 0.68107 0
M  V30 35435 C 3387.38 0.274913 3.59551 0
M  V30 35436 O 3386.49 -0.741111 4.05686 0
M  V30 35437 H 3385.83 0.127561 0.651632 0
M  V30 35438 H 3388.36 0.986846 1.79228 0
M  V30 35439 H 3388.37 0.115496 4.07836 0
M  V30 35440 H 3387.04 1.26205 3.96289 0
M  V30 35441 H 3385.62 -0.54873 3.68841 0
M  V30 35442 N 3387.81 -1.50403 0.470808 0
M  V30 35443 C 3389.22 -1.5911 0.124947 0
M  V30 35444 C 3389.42 -1.47897 -1.36853 0
M  V30 35445 O 3388.48 -1.33732 -2.14178 0
M  V30 35446 C 3389.79 -2.93029 0.67489 0
M  V30 35447 C 3391.34 -3.06423 0.638293 0
M  V30 35448 C 3391.81 -4.42915 1.16578 0
M  V30 35449 N 3393.3 -4.49326 1.12517 0
M  V30 35450 C 3394.04 -5.53329 1.50382 0
M  V30 35451 N 3393.54 -6.64586 1.95695 0
M  V30 35452 N 3395.33 -5.43871 1.41987 0
M  V30 35453 H 3387.48 -1.55936 1.44215 0
M  V30 35454 H 3389.74 -0.73692 0.596367 0
M  V30 35455 H 3389.45 -3.06709 1.72112 0
M  V30 35456 H 3389.32 -3.77014 0.118301 0
M  V30 35457 H 3391.71 -2.9239 -0.399024 0
M  V30 35458 H 3391.79 -2.24195 1.23168 0
M  V30 35459 H 3391.43 -4.57697 2.20172 0
M  V30 35460 H 3391.36 -5.23735 0.548605 0
M  V30 35461 H 3393.86 -3.6949 0.792825 0
M  V30 35462 H 3394.17 -7.40005 2.22737 0
M  V30 35463 H 3392.51 -6.65707 1.99648 0
M  V30 35464 H 3395.7 -4.55841 1.06428 0
M  V30 35465 H 3395.88 -6.24805 1.71823 0
M  V30 35466 N 3389.28 -0.203404 -1.56282 0
M  V30 35467 C 3390.25 0.700451 -2.18235 0
M  V30 35468 C 3391.25 1.13495 -1.1391 0
M  V30 35469 O 3392.44 1.0467 -1.39248 0
M  V30 35470 C 3389.57 1.95731 -2.7911 0
M  V30 35471 H 3390.76 0.160597 -2.9947 0
M  V30 35472 H 3388.31 0.04622 -1.56232 0
M  V30 35473 H 3389.05 2.53947 -2.01696 0
M  V30 35474 H 3388.83 1.6544 -3.55489 0
M  V30 35475 H 3390.32 2.60166 -3.26655 0
M  V30 35476 N 3390.76 1.57444 0.0701393 0
M  V30 35477 C 3391.99 1.91943 0.78567 0
M  V30 35478 C 3392.41 0.799961 1.70242 0
M  V30 35479 O 3391.77 -0.247107 1.79608 0
M  V30 35480 C 3391.82 3.25401 1.55392 0
M  V30 35481 O 3390.92 3.14751 2.66469 0
M  V30 35482 H 3390.26 0.62849 0.214234 0
M  V30 35483 H 3392.79 2.04565 0.0378884 0
M  V30 35484 H 3392.8 3.59314 1.93281 0
M  V30 35485 H 3391.48 4.06455 0.881295 0
M  V30 35486 H 3390.05 2.92398 2.31425 0
M  V30 35487 N 3392.24 -0.341566 1.53854 0
M  V30 35488 C 3393.46 -1.106 1.75449 0
M  V30 35489 C 3393.89 -1.81517 0.493256 0
M  V30 35490 O 3393.25 -1.72621 -0.554222 0
M  V30 35491 C 3393.3 -2.09364 2.93597 0
M  V30 35492 O 3392.4 -3.16921 2.63884 0
M  V30 35493 H 3391.74 -0.319773 0.581929 0
M  V30 35494 H 3394.27 -0.391353 2.00822 0
M  V30 35495 H 3394.28 -2.5255 3.20441 0
M  V30 35496 H 3392.96 -1.57144 3.8507 0
M  V30 35497 H 3391.53 -2.78538 2.47934 0
M  V30 35498 N 3393.72 -1.45621 -0.602683 0
M  V30 35499 C 3394.94 -1.5366 -1.39296 0
M  V30 35500 C 3395.37 -0.171665 -1.87315 0
M  V30 35501 O 3394.73 0.844611 -1.60424 0
M  V30 35502 C 3394.77 -2.52933 -2.57017 0
M  V30 35503 O 3393.88 -2.05053 -3.57809 0
M  V30 35504 H 3393.22 -0.517805 -0.415661 0
M  V30 35505 H 3395.75 -1.91019 -0.733006 0
M  V30 35506 H 3395.76 -2.71897 -3.04197 0
M  V30 35507 H 3394.43 -3.52062 -2.21416 0
M  V30 35508 H 3393.01 -1.95987 -3.17244 0
M  V30 35509 N 3395.2 0.845612 -1.32993 0
M  V30 35510 C 3396.44 1.59726 -1.23822 0
M  V30 35511 C 3396.76 1.93995 0.19769 0
M  V30 35512 O 3396.03 1.60394 1.12474 0
M  V30 35513 H 3394.61 0.592204 -0.455306 0
M  V30 35514 H 3397.28 1.01098 -1.66629 0
M  V30 35515 H 3396.37 2.5302 -1.82722 0
M  V30 35516 N 3396.67 1.16351 1.06302 0
M  V30 35517 C 3397.64 0.872457 2.11945 0
M  V30 35518 C 3398.64 -0.132506 1.60253 0
M  V30 35519 O 3399.83 0.0983747 1.73922 0
M  V30 35520 C 3396.96 0.304706 3.39535 0
M  V30 35521 H 3398.15 1.80899 2.39198 0
M  V30 35522 H 3395.7 0.97244 1.22365 0
M  V30 35523 H 3396.44 -0.639509 3.17932 0
M  V30 35524 H 3396.22 1.02885 3.78361 0
M  V30 35525 H 3397.71 0.11901 4.1743 0
M  V30 35526 N 3398.15 -1.24835 0.961982 0
M  V30 35527 C 3399.4 -1.92051 0.616376 0
M  V30 35528 C 3399.71 -1.7609 -0.85157 0
M  V30 35529 O 3400.92 -2.37945 -1.30745 0
M  V30 35530 C 3399.38 -3.4419 1.05174 0
M  V30 35531 C 3398.98 -3.68848 2.54274 0
M  V30 35532 C 3400.73 -4.17291 0.779011 0
M  V30 35533 C 3398.63 -5.14528 2.91573 0
M  V30 35534 H 3397.56 -0.719074 0.226823 0
M  V30 35535 H 3400.22 -1.41575 1.16742 0
M  V30 35536 H 3398.6 -3.93669 0.429048 0
M  V30 35537 H 3399.77 -3.29991 3.21624 0
M  V30 35538 H 3398.09 -3.09022 2.79096 0
M  V30 35539 H 3400.68 -5.24612 1.03375 0
M  V30 35540 H 3401.03 -4.15325 -0.284699 0
M  V30 35541 H 3401.56 -3.73743 1.3624 0
M  V30 35542 H 3398.3 -5.21611 3.96991 0
M  V30 35543 H 3397.82 -5.54404 2.28901 0
M  V30 35544 H 3399.5 -5.82713 2.81166 0
M  V30 35545 N 3399.63 -0.731417 -1.396 0
M  V30 35546 C 3400.88 -0.278203 -2.00883 0
M  V30 35547 C 3401.21 1.13056 -1.57899 0
M  V30 35548 O 3400.48 1.77003 -0.806234 0
M  V30 35549 C 3400.77 -0.376032 -3.58131 0
M  V30 35550 C 3400.62 -1.82431 -4.11144 0
M  V30 35551 C 3401.94 0.243625 -4.39425 0
M  V30 35552 H 3399.06 -0.102562 -0.729829 0
M  V30 35553 H 3401.7 -0.926898 -1.65857 0
M  V30 35554 H 3399.85 0.17626 -3.881 0
M  V30 35555 H 3401.52 -2.4332 -3.9191 0
M  V30 35556 H 3399.76 -2.34682 -3.64838 0
M  V30 35557 H 3400.44 -1.84405 -5.20287 0
M  V30 35558 H 3402.91 -0.22714 -4.1548 0
M  V30 35559 H 3401.79 0.144811 -5.48709 0
M  V30 35560 H 3402.05 1.32922 -4.21645 0
M  V30 35561 N 3401.11 1.50152 -0.478778 0
M  V30 35562 C 3402.52 1.86683 -0.0255235 0
M  V30 35563 C 3402.87 1.39298 1.38169 0
M  V30 35564 O 3402 0.761243 2.02569 0
M  V30 35565 C 3402.59 3.38777 -0.0395414 0
M  V30 35566 C 3401.15 3.74691 0.358274 0
M  V30 35567 C 3400.3 2.74075 -0.421715 0
M  V30 35568 H 3403.25 1.42785 -0.692678 0
M  V30 35569 H 3403.27 3.72815 0.760891 0
M  V30 35570 H 3402.78 3.73234 -1.06385 0
M  V30 35571 H 3400.88 3.45837 1.38665 0
M  V30 35572 H 3400.99 4.79069 0.0542747 0
M  V30 35573 H 3399.36 2.5439 0.125589 0
M  V30 35574 H 3400.14 3.11376 -1.44568 0
M  V30 35575 N 3402.59 0.211689 1.56172 0
M  V30 35576 C 3403.52 -0.697336 2.22844 0
M  V30 35577 C 3404.5 -1.20864 1.19691 0
M  V30 35578 O 3405.68 -1.25444 1.48248 0
M  V30 35579 C 3402.81 -1.90988 2.9007 0
M  V30 35580 C 3401.77 -1.53283 3.9961 0
M  V30 35581 C 3401.09 -2.82335 4.54083 0
M  V30 35582 C 3402.39 -0.730242 5.1717 0
M  V30 35583 H 3404.09 -0.141481 2.99066 0
M  V30 35584 H 3401.63 -0.0666085 1.43846 0
M  V30 35585 H 3403.59 -2.55117 3.354 0
M  V30 35586 H 3402.31 -2.49054 2.1128 0
M  V30 35587 H 3400.97 -0.915052 3.54996 0
M  V30 35588 H 3400.62 -3.38525 3.72035 0
M  V30 35589 H 3400.32 -2.57844 5.28006 0
M  V30 35590 H 3401.84 -3.47423 5.02125 0
M  V30 35591 H 3403.25 -1.275 5.58942 0
M  V30 35592 H 3401.65 -0.582811 5.97263 0
M  V30 35593 H 3402.72 0.265242 4.84174 0
M  V30 35594 N 3404.06 -1.57479 -0.0617887 0
M  V30 35595 C 3404.97 -2.0774 -1.09002 0
M  V30 35596 C 3405.99 -1.00899 -1.41758 0
M  V30 35597 O 3407.17 -1.32433 -1.51735 0
M  V30 35598 C 3404.23 -2.51965 -2.38149 0
M  V30 35599 C 3403.29 -3.73147 -2.12273 0
M  V30 35600 C 3402.53 -4.15254 -3.35261 0
M  V30 35601 O 3402.75 -3.57145 -4.44751 0
M  V30 35602 O 3401.68 -5.07966 -3.22885 0
M  V30 35603 H 3405.51 -2.95688 -0.693007 0
M  V30 35604 H 3403.09 -1.46817 -0.276602 0
M  V30 35605 H 3404.98 -2.80887 -3.14134 0
M  V30 35606 H 3403.65 -1.67142 -2.7721 0
M  V30 35607 H 3402.56 -3.49293 -1.3396 0
M  V30 35608 H 3403.89 -4.58853 -1.78086 0
M  V30 35609 N 3405.54 0.333401 -1.54033 0
M  V30 35610 C 3406.95 0.908427 -1.63109 0
M  V30 35611 C 3407.3 1.89215 -0.518857 0
M  V30 35612 O 3406.43 2.13554 0.349813 0
M  V30 35613 C 3407.02 1.65442 -2.95659 0
M  V30 35614 C 3405.58 2.17831 -3.06964 0
M  V30 35615 C 3404.73 1.00059 -2.58619 0
M  V30 35616 H 3407.68 0.111252 -1.5831 0
M  V30 35617 H 3407.7 2.51798 -2.85268 0
M  V30 35618 H 3407.21 0.938197 -3.76589 0
M  V30 35619 H 3405.32 2.92598 -2.30688 0
M  V30 35620 H 3405.43 2.43506 -4.12604 0
M  V30 35621 H 3403.79 1.37693 -2.14273 0
M  V30 35622 H 3404.58 0.298841 -3.41997 0
M  V30 35623 N 3407.02 1.45939 0.594952 0
M  V30 35624 C 3408.43 1.44926 1.17701 0
M  V30 35625 C 3408.78 0.183557 1.95339 0
M  V30 35626 O 3407.91 -0.714127 2.04277 0
M  V30 35627 C 3408.5 2.62565 2.14114 0
M  V30 35628 C 3407.06 2.64632 2.67669 0
M  V30 35629 C 3406.21 2.37399 1.43307 0
M  V30 35630 H 3409.16 1.53995 0.383556 0
M  V30 35631 H 3409.18 2.37385 2.9737 0
M  V30 35632 H 3408.69 3.54669 1.57579 0
M  V30 35633 H 3406.79 1.76568 3.28107 0
M  V30 35634 H 3406.91 3.64234 3.1124 0
M  V30 35635 H 3405.27 1.87209 1.72699 0
M  V30 35636 H 3406.05 3.31664 0.886218 0
M  V30 35637 N 3408.5 -0.838547 1.3344 0
M  V30 35638 C 3409.41 -1.98046 1.25757 0
M  V30 35639 C 3410.42 -1.73186 0.168081 0
M  V30 35640 O 3411.6 -1.97554 0.391726 0
M  V30 35641 C 3408.67 -3.32049 0.997206 0
M  V30 35642 C 3407.73 -3.70023 2.17673 0
M  V30 35643 C 3406.96 -4.97631 1.92869 0
M  V30 35644 O 3407.18 -5.63584 0.879171 0
M  V30 35645 O 3406.12 -5.33116 2.79412 0
M  V30 35646 H 3409.94 -2.07468 2.2179 0
M  V30 35647 H 3407.53 -0.971625 1.13489 0
M  V30 35648 H 3409.41 -4.12339 0.869172 0
M  V30 35649 H 3408.08 -3.2363 0.0671605 0
M  V30 35650 H 3406.99 -2.90242 2.3603 0
M  V30 35651 H 3408.32 -3.83108 3.09013 0
M  V30 35652 N 3409.98 -1.16914 -1.05683 0
M  V30 35653 C 3411.2 -0.979381 -1.82819 0
M  V30 35654 C 3411.63 0.467543 -1.82197 0
M  V30 35655 O 3410.98 1.33443 -1.2273 0
M  V30 35656 C 3411.03 -1.51897 -3.27047 0
M  V30 35657 O 3410.14 -0.729413 -4.05898 0
M  V30 35658 H 3409.48 -0.348086 -0.565449 0
M  V30 35659 H 3412.01 -1.55295 -1.33209 0
M  V30 35660 H 3412.02 -1.53911 -3.77856 0
M  V30 35661 H 3410.69 -2.57225 -3.26815 0
M  V30 35662 H 3409.27 -0.780285 -3.64645 0
M  V30 35663 N 3411.45 1.24323 -0.968589 0
M  V30 35664 C 3412.36 2.29054 -0.50707 0
M  V30 35665 C 3413.38 1.68542 0.432401 0
M  V30 35666 O 3414.56 1.99074 0.305225 0
M  V30 35667 C 3411.62 3.46154 0.194529 0
M  V30 35668 C 3410.68 4.22064 -0.784879 0
M  V30 35669 C 3409.92 5.33572 -0.116668 0
M  V30 35670 O 3410.14 5.59794 1.09482 0
M  V30 35671 O 3409.07 5.96435 -0.809275 0
M  V30 35672 H 3412.9 2.70651 -1.37775 0
M  V30 35673 H 3410.48 1.30032 -0.735667 0
M  V30 35674 H 3412.37 4.17269 0.588611 0
M  V30 35675 H 3411.04 3.06533 1.04016 0
M  V30 35676 H 3409.95 3.53321 -1.22944 0
M  V30 35677 H 3411.28 4.65504 -1.59895 0
M  V30 35678 N 3412.93 0.73881 1.3921 0
M  V30 35679 C 3414.34 0.357948 1.83237 0
M  V30 35680 C 3414.69 -1.1112 1.617 0
M  V30 35681 O 3413.82 -1.85751 1.1102 0
M  V30 35682 C 3414.41 0.642909 3.32644 0
M  V30 35683 C 3412.97 0.315498 3.75075 0
M  V30 35684 C 3412.12 0.903602 2.62165 0
M  V30 35685 H 3415.07 0.93615 1.28148 0
M  V30 35686 H 3415.09 -0.0840143 3.80407 0
M  V30 35687 H 3414.6 1.71224 3.48287 0
M  V30 35688 H 3412.71 -0.747842 3.65018 0
M  V30 35689 H 3412.82 0.800721 4.72361 0
M  V30 35690 H 3411.18 0.329972 2.52554 0
M  V30 35691 H 3411.97 1.97766 2.80612 0
M  V30 35692 N 3414.41 -1.49895 0.486734 0
M  V30 35693 C 3415.82 -1.86666 0.0354234 0
M  V30 35694 C 3416.17 -1.40029 -1.37428 0
M  V30 35695 O 3415.3 -0.771975 -2.02162 0
M  V30 35696 C 3415.89 -3.38751 0.057507 0
M  V30 35697 C 3414.45 -3.74876 -0.338398 0
M  V30 35698 C 3413.6 -2.73847 0.436244 0
M  V30 35699 H 3416.55 -1.42416 0.70024 0
M  V30 35700 H 3416.57 -3.73213 -0.741109 0
M  V30 35701 H 3416.08 -3.72665 1.08363 0
M  V30 35702 H 3414.18 -3.46567 -1.36829 0
M  V30 35703 H 3414.3 -4.79091 -0.0288677 0
M  V30 35704 H 3412.66 -2.54453 -0.112097 0
M  V30 35705 H 3413.44 -3.10605 1.46217 0
M  V30 35706 N 3415.89 -0.219968 -1.56057 0
M  V30 35707 C 3416.82 0.730758 -2.16183 0
M  V30 35708 C 3417.8 1.19213 -1.10576 0
M  V30 35709 O 3418.98 1.27516 -1.38823 0
M  V30 35710 C 3416.11 1.98987 -2.74084 0
M  V30 35711 C 3415.16 1.6686 -3.92505 0
M  V30 35712 S 3415.99 0.794782 -5.29569 0
M  V30 35713 C 3417.15 2.06349 -5.90907 0
M  V30 35714 H 3417.38 0.21971 -2.96487 0
M  V30 35715 H 3414.91 -0.00467968 -1.54399 0
M  V30 35716 H 3416.87 2.71285 -3.08083 0
M  V30 35717 H 3415.53 2.47204 -1.93776 0
M  V30 35718 H 3414.72 2.60407 -4.31514 0
M  V30 35719 H 3414.33 1.02627 -3.59644 0
M  V30 35720 H 3416.62 3.01363 -6.06784 0
M  V30 35721 H 3417.56 1.71733 -6.8696 0
M  V30 35722 H 3417.97 2.2033 -5.19726 0
M  V30 35723 N 3417.37 1.57509 0.0534363 0
M  V30 35724 C 3418.78 1.76692 0.603068 0
M  V30 35725 C 3419.13 0.847892 1.76933 0
M  V30 35726 O 3418.25 0.0365342 2.16369 0
M  V30 35727 C 3418.85 3.20419 1.10078 0
M  V30 35728 C 3417.41 3.40882 1.59612 0
M  V30 35729 C 3416.56 2.72314 0.523468 0
M  V30 35730 H 3419.51 1.57757 -0.172778 0
M  V30 35731 H 3419.53 3.2559 1.96904 0
M  V30 35732 H 3419.04 3.87283 0.25175 0
M  V30 35733 H 3417.14 2.79159 2.46781 0
M  V30 35734 H 3417.25 4.49407 1.66042 0
M  V30 35735 H 3415.62 2.35389 0.972844 0
M  V30 35736 H 3416.4 3.41845 -0.315689 0
M  V30 35737 N 3418.85 -0.325228 1.54208 0
M  V30 35738 C 3420.09 -1.06494 1.72588 0
M  V30 35739 C 3420.42 -1.87726 0.497261 0
M  V30 35740 O 3419.7 -1.87809 -0.505771 0
M  V30 35741 C 3419.98 -1.99104 3.00049 0
M  V30 35742 C 3419.84 -1.21214 4.3316 0
M  V30 35743 C 3421.15 -2.98652 3.23257 0
M  V30 35744 H 3418.27 -0.385758 0.62798 0
M  V30 35745 H 3420.92 -0.341757 1.86901 0
M  V30 35746 H 3419.07 -2.6077 2.87978 0
M  V30 35747 H 3420.74 -0.620209 4.57112 0
M  V30 35748 H 3418.98 -0.514386 4.30739 0
M  V30 35749 H 3419.65 -1.89205 5.18561 0
M  V30 35750 H 3422.13 -2.47108 3.34779 0
M  V30 35751 H 3421 -3.60637 4.13802 0
M  V30 35752 H 3421.26 -3.71021 2.40407 0
M  V30 35753 N 3420.32 -1.46252 -0.587204 0
M  V30 35754 C 3421.57 -1.5103 -1.34292 0
M  V30 35755 C 3421.89 -0.161657 -1.94329 0
M  V30 35756 O 3421.16 0.811311 -1.7831 0
M  V30 35757 H 3419.74 -0.556247 -0.498597 0
M  V30 35758 H 3422.4 -1.82351 -0.688042 0
M  V30 35759 H 3421.5 -2.26049 -2.15193 0
M  V30 35760 N 3421.8 0.831459 -1.33883 0
M  V30 35761 C 3423.08 1.57234 -1.16348 0
M  V30 35762 C 3423.46 2.09401 0.267267 0
M  V30 35763 O 3422.81 1.9013 1.26739 0
M  V30 35764 C 3423.02 2.7004 -2.21087 0
M  V30 35765 C 3424.36 3.39029 -2.55626 0
M  V30 35766 O 3425.39 2.80288 -2.19811 0
M  V30 35767 O 3424.25 4.45085 -3.17114 0
M  V30 35768 H 3421.34 0.693538 -0.450482 0
M  V30 35769 H 3423.89 0.873571 -1.45488 0
M  V30 35770 H 3422.66 2.29185 -3.17159 0
M  V30 35771 H 3422.28 3.47574 -1.93076 0
M  V30 35772 N 3423.28 1.17472 1.05062 0
M  V30 35773 C 3424.69 0.969656 1.59545 0
M  V30 35774 C 3425.04 -0.483298 1.90154 0
M  V30 35775 O 3424.17 -1.35884 1.68418 0
M  V30 35776 C 3424.76 1.75382 2.89874 0
M  V30 35777 C 3423.32 1.59338 3.41011 0
M  V30 35778 C 3422.47 1.75464 2.14727 0
M  V30 35779 H 3425.42 1.32162 0.878572 0
M  V30 35780 H 3425.44 1.23697 3.59832 0
M  V30 35781 H 3424.95 2.81125 2.67564 0
M  V30 35782 H 3423.05 0.560891 3.68354 0
M  V30 35783 H 3423.17 2.38516 4.15508 0
M  V30 35784 H 3421.53 1.18317 2.25551 0
M  V30 35785 H 3422.31 2.82621 1.94885 0
M  V30 35786 N 3424.76 -1.23807 0.975168 0
M  V30 35787 C 3426.17 -1.73919 0.678903 0
M  V30 35788 C 3426.52 -1.78921 -0.805101 0
M  V30 35789 O 3425.64 -1.42359 -1.62981 0
M  V30 35790 C 3426.24 -3.15852 1.22567 0
M  V30 35791 C 3424.8 -3.63441 0.97916 0
M  V30 35792 C 3423.95 -2.41854 1.35653 0
M  V30 35793 H 3426.9 -1.09404 1.14962 0
M  V30 35794 H 3426.92 -3.7581 0.595555 0
M  V30 35795 H 3426.43 -3.1218 2.30576 0
M  V30 35796 H 3424.53 -3.72503 -0.0850752 0
M  V30 35797 H 3424.64 -4.50517 1.63006 0
M  V30 35798 H 3423.01 -2.42624 0.774959 0
M  V30 35799 H 3423.79 -2.40857 2.44628 0
M  V30 35800 N 3426.24 -0.746182 -1.38816 0
M  V30 35801 C 3427.15 -0.115427 -2.34316 0
M  V30 35802 C 3428.16 0.709151 -1.58893 0
M  V30 35803 O 3429.34 0.635025 -1.91127 0
M  V30 35804 C 3426.4 0.772761 -3.37978 0
M  V30 35805 C 3425.46 -0.0653434 -4.2925 0
M  V30 35806 C 3424.7 0.780547 -5.27961 0
M  V30 35807 O 3424.92 2.01886 -5.33477 0
M  V30 35808 O 3423.85 0.203274 -6.01557 0
M  V30 35809 H 3427.68 -0.903938 -2.89936 0
M  V30 35810 H 3425.26 -0.506983 -1.40535 0
M  V30 35811 H 3427.15 1.28061 -4.0147 0
M  V30 35812 H 3425.82 1.53989 -2.84726 0
M  V30 35813 H 3424.73 -0.618975 -3.68944 0
M  V30 35814 H 3426.06 -0.794957 -4.85738 0
M  V30 35815 N 3427.71 1.49635 -0.494676 0
M  V30 35816 C 3428.66 2.29007 0.287113 0
M  V30 35817 C 3429.63 1.35115 0.966075 0
M  V30 35818 O 3430.82 1.64069 0.973962 0
M  V30 35819 C 3427.96 3.17626 1.34935 0
M  V30 35820 C 3427.07 4.2657 0.682804 0
M  V30 35821 C 3426.2 5.02413 1.72495 0
M  V30 35822 C 3425.24 6.03201 1.03992 0
M  V30 35823 N 3424.38 6.72234 2.02598 0
M  V30 35824 H 3429.22 2.95357 -0.395993 0
M  V30 35825 H 3426.76 1.45634 -0.207129 0
M  V30 35826 H 3428.71 3.67376 1.97714 0
M  V30 35827 H 3427.34 2.53274 2.00131 0
M  V30 35828 H 3426.4 3.80356 -0.0581146 0
M  V30 35829 H 3427.71 4.98594 0.143247 0
M  V30 35830 H 3426.86 5.56 2.42794 0
M  V30 35831 H 3425.6 4.30148 2.29835 0
M  V30 35832 H 3424.61 5.48852 0.322669 0
M  V30 35833 H 3425.83 6.7745 0.4731 0
M  V30 35834 H 3423.78 6.02744 2.58912 0
M  V30 35835 H 3423.69 7.40213 1.53691 0
M  V30 35836 H 3424.96 7.30428 2.72205 0
M  V30 35837 N 3429.19 0.228241 1.55939 0
M  V30 35838 C 3430.61 -0.127012 1.59094 0
M  V30 35839 C 3430.81 -1.58423 1.24517 0
M  V30 35840 O 3429.86 -2.32555 0.983585 0
M  V30 35841 C 3431.18 0.205321 2.99998 0
M  V30 35842 C 3432.72 0.148101 3.12649 0
M  V30 35843 C 3433.2 0.454203 4.55742 0
M  V30 35844 N 3434.69 0.404018 4.61435 0
M  V30 35845 C 3435.43 0.614273 5.701 0
M  V30 35846 N 3434.92 0.88666 6.87103 0
M  V30 35847 N 3436.71 0.546252 5.59439 0
M  V30 35848 H 3428.87 1.17877 1.76688 0
M  V30 35849 H 3431.13 0.472961 0.821591 0
M  V30 35850 H 3430.83 1.21698 3.29973 0
M  V30 35851 H 3430.71 -0.476507 3.74178 0
M  V30 35852 H 3433.1 -0.854206 2.82467 0
M  V30 35853 H 3433.18 0.863504 2.40785 0
M  V30 35854 H 3432.82 1.45398 4.86644 0
M  V30 35855 H 3432.75 -0.282469 5.25842 0
M  V30 35856 H 3435.24 0.201454 3.77363 0
M  V30 35857 H 3435.55 1.03501 7.65838 0
M  V30 35858 H 3433.9 0.923929 6.88831 0
M  V30 35859 H 3437.09 0.333632 4.6691 0
M  V30 35860 H 3437.26 0.713516 6.4406 0
M  V30 35861 N 3430.67 -1.57536 -0.0450825 0
M  V30 35862 C 3432.09 -1.54495 -0.400436 0
M  V30 35863 C 3432.29 -0.952197 -1.77582 0
M  V30 35864 O 3431.34 -0.566264 -2.46068 0
M  V30 35865 C 3432.66 -2.99025 -0.316978 0
M  V30 35866 C 3434.2 -3.10495 -0.39523 0
M  V30 35867 C 3434.68 -4.56726 -0.341395 0
M  V30 35868 N 3436.17 -4.61464 -0.400674 0
M  V30 35869 C 3436.9 -5.72128 -0.381657 0
M  V30 35870 N 3436.4 -6.9208 -0.315873 0
M  V30 35871 N 3438.19 -5.60451 -0.430201 0
M  V30 35872 H 3430.34 -1.94423 0.855191 0
M  V30 35873 H 3432.61 -0.891047 0.323633 0
M  V30 35874 H 3432.31 -3.46056 0.627538 0
M  V30 35875 H 3432.19 -3.60285 -1.1169 0
M  V30 35876 H 3434.57 -2.63421 -1.33017 0
M  V30 35877 H 3434.66 -2.52096 0.433753 0
M  V30 35878 H 3434.3 -5.04464 0.589813 0
M  V30 35879 H 3434.23 -5.13018 -1.18827 0
M  V30 35880 H 3436.72 -3.75155 -0.454679 0
M  V30 35881 H 3437.03 -7.72194 -0.306022 0
M  V30 35882 H 3435.38 -6.94427 -0.282159 0
M  V30 35883 H 3438.57 -4.65638 -0.479473 0
M  V30 35884 H 3438.74 -6.46689 -0.411912 0
M  V30 35885 N 3432.15 0.317045 -1.54378 0
M  V30 35886 C 3433.4 1.05213 -1.72553 0
M  V30 35887 C 3433.72 1.88333 -0.505533 0
M  V30 35888 O 3432.99 1.89918 0.480405 0
M  V30 35889 H 3431.57 0.391436 -0.636229 0
M  V30 35890 H 3434.23 0.351906 -1.91697 0
M  V30 35891 H 3433.33 1.71444 -2.60794 0
M  V30 35892 N 3433.63 1.46561 0.57944 0
M  V30 35893 C 3434.56 1.60236 1.69843 0
M  V30 35894 C 3435.54 0.452562 1.63969 0
M  V30 35895 O 3436.72 0.679206 1.81935 0
M  V30 35896 C 3433.85 1.59543 3.08485 0
M  V30 35897 C 3432.81 2.73526 3.29193 0
M  V30 35898 C 3432.13 2.57896 4.68395 0
M  V30 35899 C 3433.43 4.15321 3.16711 0
M  V30 35900 H 3435.13 2.53907 1.58656 0
M  V30 35901 H 3432.67 1.22196 0.761852 0
M  V30 35902 H 3434.63 1.67703 3.86592 0
M  V30 35903 H 3433.35 0.624186 3.2058 0
M  V30 35904 H 3432.01 2.6484 2.53486 0
M  V30 35905 H 3431.66 1.58847 4.77259 0
M  V30 35906 H 3431.36 3.34349 4.83202 0
M  V30 35907 H 3432.88 2.67951 5.48666 0
M  V30 35908 H 3434.29 4.251 3.84659 0
M  V30 35909 H 3432.69 4.92387 3.43038 0
M  V30 35910 H 3433.76 4.35247 2.13747 0
M  V30 35911 N 3435.1 -0.824347 1.34322 0
M  V30 35912 C 3436.33 -1.60989 1.29483 0
M  V30 35913 C 3436.74 -1.88728 -0.133548 0
M  V30 35914 O 3436.09 -1.47821 -1.09062 0
M  V30 35915 C 3436.15 -2.97648 2.01609 0
M  V30 35916 C 3435.81 -2.92811 3.50872 0
M  V30 35917 C 3436.81 -2.67496 4.45805 0
M  V30 35918 C 3434.49 -3.12488 3.93264 0
M  V30 35919 C 3436.49 -2.61907 5.81105 0
M  V30 35920 C 3434.17 -3.06524 5.28664 0
M  V30 35921 C 3435.17 -2.81267 6.22397 0
M  V30 35922 O 3434.86 -2.75233 7.55316 0
M  V30 35923 H 3434.59 -0.507169 0.44694 0
M  V30 35924 H 3437.15 -1.03383 1.77486 0
M  V30 35925 H 3435.38 -3.57167 1.48218 0
M  V30 35926 H 3437.07 -3.58643 1.90079 0
M  V30 35927 H 3437.83 -2.5203 4.14374 0
M  V30 35928 H 3433.71 -3.31163 3.20705 0
M  V30 35929 H 3437.25 -2.42113 6.54238 0
M  V30 35930 H 3433.15 -3.21543 5.59715 0
M  V30 35931 H 3433.92 -2.9097 7.65035 0
M  V30 35932 N 3436.58 -1.18028 -1.04437 0
M  V30 35933 C 3437.51 -0.927351 -2.14295 0
M  V30 35934 C 3438.49 0.13354 -1.69575 0
M  V30 35935 O 3439.68 -0.018278 -1.94191 0
M  V30 35936 C 3436.81 -0.448195 -3.44396 0
M  V30 35937 C 3435.76 -1.44914 -4.02721 0
M  V30 35938 C 3435.09 -0.827647 -5.28256 0
M  V30 35939 C 3436.39 -2.8247 -4.39326 0
M  V30 35940 H 3438.08 -1.84609 -2.35711 0
M  V30 35941 H 3435.63 -0.889032 -1.13279 0
M  V30 35942 H 3437.58 -0.258628 -4.20606 0
M  V30 35943 H 3436.31 0.506102 -3.22655 0
M  V30 35944 H 3434.96 -1.62558 -3.28588 0
M  V30 35945 H 3434.61 0.133721 -5.02822 0
M  V30 35946 H 3434.31 -1.4959 -5.6824 0
M  V30 35947 H 3435.84 -0.648527 -6.07146 0
M  V30 35948 H 3437.25 -2.685 -5.06538 0
M  V30 35949 H 3435.65 -3.45945 -4.90349 0
M  V30 35950 H 3436.72 -3.36305 -3.49324 0
M  V30 35951 N 3438.06 1.23288 -0.98172 0
M  V30 35952 C 3439.29 1.95772 -0.669404 0
M  V30 35953 C 3439.7 1.72657 0.763868 0
M  V30 35954 O 3439.06 1.01879 1.51416 0
M  V30 35955 C 3439.11 3.48742 -0.951924 0
M  V30 35956 O 3438.83 3.71073 -2.32887 0
M  V30 35957 C 3440.33 4.38423 -0.655745 0
M  V30 35958 H 3437.55 0.623266 -0.248556 0
M  V30 35959 H 3440.1 1.56743 -1.31346 0
M  V30 35960 H 3438.25 3.85781 -0.353855 0
M  V30 35961 H 3438.67 4.65358 -2.41956 0
M  V30 35962 H 3440.14 5.44551 -0.903778 0
M  V30 35963 H 3440.62 4.3728 0.410192 0
M  V30 35964 H 3441.22 4.06994 -1.23435 0
M  V30 35965 N 3439.54 0.753533 1.38418 0
M  V30 35966 C 3440.78 0.310127 2.00415 0
M  V30 35967 C 3441.12 -1.10529 1.59677 0
M  V30 35968 O 3440.39 -1.75698 0.834292 0
M  V30 35969 C 3440.68 0.43296 3.57488 0
M  V30 35970 C 3440.53 1.88948 4.08189 0
M  V30 35971 C 3441.85 -0.173685 4.39757 0
M  V30 35972 H 3438.97 0.11416 0.728105 0
M  V30 35973 H 3441.61 0.953167 1.64362 0
M  V30 35974 H 3439.76 -0.114495 3.88331 0
M  V30 35975 H 3441.43 2.49524 3.87989 0
M  V30 35976 H 3439.67 2.40456 3.61058 0
M  V30 35977 H 3440.34 1.92659 5.17288 0
M  V30 35978 H 3442.82 0.29321 4.15066 0
M  V30 35979 H 3441.7 -0.0574975 5.4887 0
M  V30 35980 H 3441.96 -1.26197 4.23706 0
M  V30 35981 N 3441.02 -1.49371 0.502605 0
M  V30 35982 C 3442.43 -1.86618 0.0552198 0
M  V30 35983 C 3442.78 -1.41478 -1.35935 0
M  V30 35984 O 3441.9 -0.793374 -2.01332 0
M  V30 35985 C 3442.5 -3.38671 0.0934329 0
M  V30 35986 C 3441.06 -3.75214 -0.298619 0
M  V30 35987 C 3440.2 -2.73369 0.465264 0
M  V30 35988 H 3443.16 -1.41665 0.715306 0
M  V30 35989 H 3443.18 -3.73978 -0.701483 0
M  V30 35990 H 3442.69 -3.71495 1.12309 0
M  V30 35991 H 3440.79 -3.47999 -1.33145 0
M  V30 35992 H 3440.9 -4.79095 0.0219479 0
M  V30 35993 H 3439.27 -2.54558 -0.0851021 0
M  V30 35994 H 3440.05 -3.09037 1.49503 0
M  V30 35995 N 3442.49 -0.236508 -1.55815 0
M  V30 35996 C 3443.43 0.699986 -2.18249 0
M  V30 35997 C 3444.44 1.14651 -1.15581 0
M  V30 35998 O 3445.63 1.07508 -1.42493 0
M  V30 35999 C 3442.73 1.96185 -2.76342 0
M  V30 36000 C 3441.9 1.66845 -4.04328 0
M  V30 36001 C 3440.96 2.77887 -4.46839 0
M  V30 36002 O 3439.99 2.45716 -5.13432 0
M  V30 36003 N 3441.19 4.07164 -4.13761 0
M  V30 36004 H 3443.95 0.165837 -2.99241 0
M  V30 36005 H 3441.51 -0.0560668 -1.61803 0
M  V30 36006 H 3443.51 2.6969 -3.01744 0
M  V30 36007 H 3442.08 2.40607 -1.99568 0
M  V30 36008 H 3441.3 0.769096 -3.86625 0
M  V30 36009 H 3442.58 1.44694 -4.87792 0
M  V30 36010 H 3441.98 4.36138 -3.60278 0
M  V30 36011 H 3440.54 4.77166 -4.44022 0
M  V30 36012 N 3443.97 1.57557 0.0367273 0
M  V30 36013 C 3445.21 1.90766 0.734006 0
M  V30 36014 C 3445.58 0.834252 1.72928 0
M  V30 36015 O 3446.78 1.05044 2.47425 0
M  V30 36016 C 3445.05 3.29145 1.39279 0
M  V30 36017 S 3446.61 3.84174 2.12028 0
M  V30 36018 H 3443.43 0.668063 0.243337 0
M  V30 36019 H 3446.03 1.95497 -0.0111312 0
M  V30 36020 H 3444.73 4.05138 0.655083 0
M  V30 36021 H 3444.26 3.27698 2.17663 0
M  V30 36022 H 3446.28 3.62283 3.39066 0
M  V30 36023 N 3445.45 -0.308854 1.54544 0
M  V30 36024 C 3446.86 -0.882363 1.64533 0
M  V30 36025 C 3447.21 -1.88366 0.548893 0
M  V30 36026 O 3446.34 -2.14083 -0.315794 0
M  V30 36027 C 3446.93 -1.60717 2.98254 0
M  V30 36028 C 3445.49 -2.1292 3.1039 0
M  V30 36029 C 3444.64 -0.959316 2.60178 0
M  V30 36030 H 3447.59 -0.0860524 1.58467 0
M  V30 36031 H 3447.61 -2.47228 2.89238 0
M  V30 36032 H 3447.12 -0.878166 3.78034 0
M  V30 36033 H 3445.22 -2.88891 2.35314 0
M  V30 36034 H 3445.34 -2.36911 4.16425 0
M  V30 36035 H 3443.7 -1.34267 2.16436 0
M  V30 36036 H 3444.48 -0.244394 3.42429 0
M  V30 36037 N 3446.93 -1.46867 -0.571659 0
M  V30 36038 C 3447.86 -1.61134 -1.68991 0
M  V30 36039 C 3448.84 -0.461251 -1.63727 0
M  V30 36040 O 3450.03 -0.688845 -1.81572 0
M  V30 36041 C 3447.16 -1.61177 -3.07635 0
M  V30 36042 C 3446.11 -2.75267 -3.27737 0
M  V30 36043 C 3445.44 -2.60376 -4.67021 0
M  V30 36044 C 3446.74 -4.16995 -3.14504 0
M  V30 36045 H 3448.43 -2.54745 -1.57307 0
M  V30 36046 H 3445.98 -1.22598 -0.755361 0
M  V30 36047 H 3447.93 -1.69751 -3.85697 0
M  V30 36048 H 3446.65 -0.641179 -3.20244 0
M  V30 36049 H 3445.31 -2.66181 -2.52078 0
M  V30 36050 H 3444.96 -1.61376 -4.7641 0
M  V30 36051 H 3444.66 -3.36907 -4.81422 0
M  V30 36052 H 3446.18 -2.70857 -5.47237 0
M  V30 36053 H 3447.6 -4.27134 -3.82399 0
M  V30 36054 H 3445.99 -4.94199 -3.40422 0
M  V30 36055 H 3447.06 -4.36375 -2.11436 0
M  V30 36056 N 3448.41 0.817212 -1.34757 0
M  V30 36057 C 3449.32 1.96021 -1.28892 0
M  V30 36058 C 3450.33 1.72897 -0.195612 0
M  V30 36059 O 3451.51 1.96906 -0.423106 0
M  V30 36060 C 3448.57 3.30421 -1.04991 0
M  V30 36061 C 3447.64 3.66513 -2.23532 0
M  V30 36062 C 3446.87 4.945 -2.00762 0
M  V30 36063 O 3447.09 5.62114 -0.968721 0
M  V30 36064 O 3446.03 5.28603 -2.87858 0
M  V30 36065 H 3449.85 2.03913 -2.25062 0
M  V30 36066 H 3447.44 0.953447 -1.15021 0
M  V30 36067 H 3449.32 4.10904 -0.934661 0
M  V30 36068 H 3447.99 3.23483 -0.118639 0
M  V30 36069 H 3446.9 2.8645 -2.40618 0
M  V30 36070 H 3448.23 3.78143 -3.15069 0
M  V30 36071 N 3449.89 1.1858 1.0381 0
M  V30 36072 C 3450.83 0.915152 2.11881 0
M  V30 36073 C 3451.8 -0.14645 1.65453 0
M  V30 36074 O 3452.99 -0.00626705 1.90799 0
M  V30 36075 C 3450.13 0.449815 3.42156 0
M  V30 36076 C 3449.24 1.57713 4.02182 0
M  V30 36077 C 3448.38 1.06426 5.2043 0
M  V30 36078 C 3447.41 2.16609 5.72492 0
M  V30 36079 N 3446.55 1.66697 6.82024 0
M  V30 36080 H 3451.39 1.84051 2.3437 0
M  V30 36081 H 3448.93 0.917748 1.1496 0
M  V30 36082 H 3450.89 0.16148 4.16887 0
M  V30 36083 H 3449.52 -0.438566 3.19807 0
M  V30 36084 H 3448.57 1.98089 3.24754 0
M  V30 36085 H 3449.88 2.40762 4.36847 0
M  V30 36086 H 3449.03 0.730603 6.02285 0
M  V30 36087 H 3447.77 0.203387 4.87276 0
M  V30 36088 H 3446.78 2.50816 4.89256 0
M  V30 36089 H 3448 3.03136 6.07688 0
M  V30 36090 H 3445.95 0.82903 6.5074 0
M  V30 36091 H 3445.87 2.43342 7.15766 0
M  V30 36092 H 3447.13 1.36266 7.67497 0
M  V30 36093 N 3451.36 -1.22766 0.988245 0
M  V30 36094 C 3452.77 -1.73189 0.697311 0
M  V30 36095 C 3453.13 -1.79764 -0.786079 0
M  V30 36096 O 3452.25 -1.4408 -1.61462 0
M  V30 36097 C 3452.85 -3.14535 1.25911 0
M  V30 36098 C 3451.4 -3.62382 1.01765 0
M  V30 36099 C 3450.55 -2.40402 1.38211 0
M  V30 36100 H 3453.5 -1.08179 1.16116 0
M  V30 36101 H 3453.52 -3.75158 0.635381 0
M  V30 36102 H 3453.04 -3.09717 2.33874 0
M  V30 36103 H 3451.14 -3.72572 -0.0455615 0
M  V30 36104 H 3451.25 -4.48763 1.67775 0
M  V30 36105 H 3449.61 -2.41789 0.800649 0
M  V30 36106 H 3450.4 -2.38249 2.47169 0
M  V30 36107 N 3452.84 -0.760864 -1.38017 0
M  V30 36108 C 3454.09 -0.319644 -1.99556 0
M  V30 36109 C 3454.41 1.10455 -1.60701 0
M  V30 36110 O 3453.68 1.75656 -0.867279 0
M  V30 36111 H 3452.26 -0.115195 -0.738064 0
M  V30 36112 H 3454.92 -0.976574 -1.68668 0
M  V30 36113 H 3454.02 -0.388577 -3.09672 0
M  V30 36114 N 3454.32 1.49102 -0.510519 0
M  V30 36115 C 3455.54 2.07379 0.0292749 0
M  V30 36116 C 3455.97 1.36715 1.29192 0
M  V30 36117 O 3455.33 0.426869 1.76203 0
M  V30 36118 C 3455.38 3.59689 0.256227 0
M  V30 36119 O 3454.48 3.90399 1.329 0
M  V30 36120 H 3453.82 0.663301 -0.0304565 0
M  V30 36121 H 3456.35 1.9178 -0.712866 0
M  V30 36122 H 3456.36 4.05109 0.484843 0
M  V30 36123 H 3455.04 4.10529 -0.666235 0
M  V30 36124 H 3453.61 3.56779 1.08458 0
M  V30 36125 N 3455.8 0.244768 1.55688 0
M  V30 36126 C 3457.21 -0.258788 1.84898 0
M  V30 36127 C 3457.56 -1.57753 1.16656 0
M  V30 36128 O 3456.68 -2.11792 0.444199 0
M  V30 36129 C 3457.28 -0.476326 3.35435 0
M  V30 36130 C 3455.84 -0.924149 3.64879 0
M  V30 36131 C 3454.99 -0.000164477 2.773 0
M  V30 36132 H 3457.94 0.467384 1.51661 0
M  V30 36133 H 3457.96 -1.31922 3.56899 0
M  V30 36134 H 3457.47 0.483634 3.85075 0
M  V30 36135 H 3455.57 -1.89665 3.20715 0
M  V30 36136 H 3455.68 -0.782487 4.72667 0
M  V30 36137 H 3454.05 -0.51115 2.49518 0
M  V30 36138 H 3454.83 0.95513 3.29746 0
M  V30 36139 N 3457.28 -1.57574 -0.0283712 0
M  V30 36140 C 3458.5 -1.93958 -0.734503 0
M  V30 36141 C 3458.93 -0.844817 -1.68061 0
M  V30 36142 O 3458.28 0.1994 -1.802 0
M  V30 36143 C 3458.33 -3.29406 -1.4671 0
M  V30 36144 O 3457.44 -3.21705 -2.5803 0
M  V30 36145 H 3456.78 -0.633949 -0.197496 0
M  V30 36146 H 3459.31 -2.04593 0.0163617 0
M  V30 36147 H 3459.32 -3.64312 -1.83687 0
M  V30 36148 H 3457.99 -4.08649 -0.77322 0
M  V30 36149 H 3456.57 -2.98431 -2.23591 0
M  V30 36150 N 3458.75 0.300654 -1.54706 0
M  V30 36151 C 3459.72 1.35392 -1.84937 0
M  V30 36152 C 3460.72 1.43665 -0.722285 0
M  V30 36153 O 3461.91 1.43295 -0.990568 0
M  V30 36154 C 3459.04 2.73872 -2.02995 0
M  V30 36155 H 3460.23 1.0983 -2.79065 0
M  V30 36156 H 3457.78 0.537339 -1.46773 0
M  V30 36157 H 3458.52 3.04655 -1.11156 0
M  V30 36158 H 3458.3 2.69257 -2.85032 0
M  V30 36159 H 3459.79 3.50026 -2.27753 0
M  V30 36160 N 3460.23 1.47168 0.563863 0
M  V30 36161 C 3461.46 1.57055 1.3469 0
M  V30 36162 C 3461.88 0.218341 1.87533 0
M  V30 36163 O 3461.23 -0.787387 1.6464 0
M  V30 36164 C 3461.28 2.59049 2.52143 0
M  V30 36165 O 3461 3.89018 2.01485 0
M  V30 36166 C 3462.51 2.79056 3.44445 0
M  V30 36167 H 3459.73 0.530541 0.410813 0
M  V30 36168 H 3462.27 1.92733 0.683697 0
M  V30 36169 H 3460.42 2.26323 3.14415 0
M  V30 36170 H 3460.84 4.44694 2.78114 0
M  V30 36171 H 3462.31 3.543 4.23291 0
M  V30 36172 H 3462.79 1.86638 3.97571 0
M  V30 36173 H 3463.4 3.12953 2.87994 0
M  V30 36174 N 3461.71 -0.810054 1.35188 0
M  V30 36175 C 3463.12 -1.38379 1.25332 0
M  V30 36176 C 3463.47 -1.95858 -0.115765 0
M  V30 36177 O 3462.6 -1.91035 -1.0166 0
M  V30 36178 C 3463.19 -2.51568 2.26934 0
M  V30 36179 C 3461.75 -3.04814 2.20829 0
M  V30 36180 C 3460.9 -1.77756 2.12833 0
M  V30 36181 H 3463.85 -0.613376 1.46367 0
M  V30 36182 H 3463.87 -3.30023 1.89381 0
M  V30 36183 H 3463.38 -2.09704 3.26567 0
M  V30 36184 H 3461.48 -3.51151 1.24595 0
M  V30 36185 H 3461.6 -3.6303 3.12643 0
M  V30 36186 H 3459.96 -1.9917 1.58756 0
M  V30 36187 H 3460.74 -1.38049 3.14321 0
M  V30 36188 N 3463.19 -1.19129 -1.0318 0
M  V30 36189 C 3464.15 -0.928343 -2.09558 0
M  V30 36190 C 3465.15 0.089971 -1.60548 0
M  V30 36191 O 3466.34 -0.144452 -1.736 0
M  V30 36192 C 3463.47 -0.394621 -3.38608 0
M  V30 36193 H 3464.67 -1.87177 -2.34318 0
M  V30 36194 H 3462.22 -1.00454 -1.19744 0
M  V30 36195 H 3462.95 0.55499 -3.19516 0
M  V30 36196 H 3462.74 -1.1288 -3.755 0
M  V30 36197 H 3464.23 -0.229642 -4.16968 0
M  V30 36198 N 3464.67 1.2224 -0.994741 0
M  V30 36199 C 3466.08 1.72817 -0.706486 0
M  V30 36200 C 3466.43 1.80179 0.776535 0
M  V30 36201 O 3465.55 1.44934 1.60696 0
M  V30 36202 C 3466.15 3.13862 -1.27577 0
M  V30 36203 C 3464.71 3.61837 -1.03686 0
M  V30 36204 C 3463.85 2.39665 -1.39484 0
M  V30 36205 H 3466.81 1.07562 -1.16688 0
M  V30 36206 H 3466.83 3.74815 -0.655267 0
M  V30 36207 H 3466.34 3.08472 -2.35513 0
M  V30 36208 H 3464.44 3.72591 0.0258024 0
M  V30 36209 H 3464.55 4.47867 -1.70153 0
M  V30 36210 H 3462.92 2.41361 -0.81346 0
M  V30 36211 H 3463.7 2.36935 -2.48429 0
M  V30 36212 N 3466.14 0.768172 1.37611 0
M  V30 36213 C 3467.39 0.330222 1.99384 0
M  V30 36214 C 3467.71 -1.09601 1.61284 0
M  V30 36215 O 3466.98 -1.75194 0.876582 0
M  V30 36216 H 3465.56 0.119108 0.737443 0
M  V30 36217 H 3468.23 0.985505 1.68148 0
M  V30 36218 H 3467.32 0.404994 3.09461 0
M  V30 36219 N 3467.62 -1.48829 0.518419 0
M  V30 36220 C 3468.87 -2.0209 -0.0198305 0
M  V30 36221 C 3469.19 -1.39882 -1.3586 0
M  V30 36222 O 3468.46 -0.56015 -1.87721 0
M  V30 36223 H 3467.04 -0.746929 -0.0103175 0
M  V30 36224 H 3469.7 -1.82667 0.679624 0
M  V30 36225 H 3468.8 -3.11801 -0.136695 0
M  V30 36226 N 3469.1 -0.253021 -1.55556 0
M  V30 36227 C 3470.35 0.369285 -1.98698 0
M  V30 36228 C 3470.67 1.58019 -1.14258 0
M  V30 36229 O 3469.94 1.94583 -0.226813 0
M  V30 36230 H 3468.52 0.139431 -0.733872 0
M  V30 36231 H 3471.18 -0.353231 -1.91672 0
M  V30 36232 H 3470.28 0.674258 -3.0473 0
M  V30 36233 N 3470.58 1.57587 0.0200142 0
M  V30 36234 C 3471.54 2.06113 1.00251 0
M  V30 36235 C 3472.54 0.966851 1.28486 0
M  V30 36236 O 3473.73 1.23018 1.23338 0
M  V30 36237 C 3470.86 2.48571 2.33292 0
M  V30 36238 H 3472.06 2.94175 0.583164 0
M  V30 36239 H 3469.61 1.54002 0.26705 0
M  V30 36240 H 3470.34 1.63692 2.79956 0
M  V30 36241 H 3470.13 3.2847 2.14125 0
M  V30 36242 H 3471.62 2.8651 3.03812 0
M  V30 36243 N 3472.06 -0.292445 1.54863 0
M  V30 36244 C 3473.33 -1.04668 1.65239 0
M  V30 36245 C 3473.71 -2.04941 0.506204 0
M  V30 36246 O 3473.06 -2.2305 -0.496083 0
M  V30 36247 C 3473.27 -1.7209 3.03622 0
M  V30 36248 C 3474.62 -2.23972 3.60724 0
M  V30 36249 O 3475.64 -1.82109 3.06129 0
M  V30 36250 O 3474.5 -3.00702 4.56334 0
M  V30 36251 H 3471.6 -0.484307 0.670355 0
M  V30 36252 H 3474.14 -0.289851 1.67206 0
M  V30 36253 H 3472.91 -0.993258 3.78484 0
M  V30 36254 H 3472.54 -2.54508 3.05469 0
M  V30 36255 N 3473.53 -1.47465 -0.55605 0
M  V30 36256 C 3474.81 -1.44631 -1.31686 0
M  V30 36257 C 3475.19 -0.143878 -2.10609 0
M  V30 36258 O 3474.54 0.874625 -2.11098 0
M  V30 36259 C 3474.75 -2.69257 -2.2204 0
M  V30 36260 C 3476.1 -3.16518 -2.83022 0
M  V30 36261 O 3477.12 -2.69992 -2.32342 0
M  V30 36262 O 3475.98 -3.97406 -3.75141 0
M  V30 36263 H 3473.07 -0.576421 -0.593016 0
M  V30 36264 H 3475.62 -1.59667 -0.574857 0
M  V30 36265 H 3474.39 -3.55582 -1.6333 0
M  V30 36266 H 3474.02 -2.56812 -3.03535 0
M  V30 36267 N 3475.01 0.802873 -1.35616 0
M  V30 36268 C 3476.42 1.37713 -1.26064 0
M  V30 36269 C 3476.78 1.95917 0.105376 0
M  V30 36270 O 3475.9 1.91571 1.00645 0
M  V30 36271 C 3476.5 2.50361 -2.28265 0
M  V30 36272 C 3475.05 3.03638 -2.22443 0
M  V30 36273 C 3474.2 1.76625 -2.13773 0
M  V30 36274 H 3477.15 0.605605 -1.46691 0
M  V30 36275 H 3477.17 3.29014 -1.91128 0
M  V30 36276 H 3476.69 2.07969 -3.27675 0
M  V30 36277 H 3474.79 3.50485 -1.26456 0
M  V30 36278 H 3474.9 3.61367 -3.14564 0
M  V30 36279 H 3473.26 1.98325 -1.5981 0
M  V30 36280 H 3474.05 1.3638 -3.15048 0
M  V30 36281 N 3476.49 1.19674 1.02547 0
M  V30 36282 C 3477.74 1.00296 1.76263 0
M  V30 36283 C 3478.07 -0.464783 1.88556 0
M  V30 36284 O 3477.35 -1.34513 1.40487 0
M  V30 36285 C 3477.63 1.67666 3.18685 0
M  V30 36286 C 3477.48 3.21826 3.14242 0
M  V30 36287 C 3478.8 1.40245 4.17156 0
M  V30 36288 H 3475.92 0.365767 0.639831 0
M  V30 36289 H 3478.56 1.47563 1.19688 0
M  V30 36290 H 3476.71 1.27478 3.6699 0
M  V30 36291 H 3478.38 3.7125 2.73809 0
M  V30 36292 H 3476.63 3.53193 2.51867 0
M  V30 36293 H 3477.3 3.64114 4.1488 0
M  V30 36294 H 3479.77 1.75093 3.77467 0
M  V30 36295 H 3478.65 1.89928 5.14994 0
M  V30 36296 H 3478.91 0.328275 4.4088 0
M  V30 36297 O 3478.01 -1.15479 1.12902 0
M  V30 36298 H 3478.7 -1.74407 0.842734 0
M  V30 END ATOM
M  V30 BEGIN BOND
M  V30 END BOND
M  V30 END CTAB
M  END
$$$$
