drugbank_target|Q8IE82 60S ribosomal protein L23 (DB11638)
 OpenBabel12092121113D

  0  0  0     0  0            999 V3000
M  V30 BEGIN CTAB
M  V30 COUNTS 3278 3294 0 0 0
M  V30 BEGIN ATOM
M  V30 1 H -0.908 1.98254 -0.117106 0
M  V30 2 N 0 1.576 0 0
M  V30 3 C 0.933 2.03868 1.02534 0
M  V30 4 C 1.911 0.928543 1.3348 0
M  V30 5 O 3.095 1.19667 1.45644 0
M  V30 6 C 0.222 2.43627 2.35294 0
M  V30 7 C -0.732 3.65373 2.2001 0
M  V30 8 S 0.101 5.13292 1.52614 0
M  V30 9 C 1.257 5.56322 2.86805 0
M  V30 10 H 1.49 2.90518 0.631377 0
M  V30 11 H -0.977 1.52953 0.210867 0
M  V30 12 H 0.981 2.67203 3.11629 0
M  V30 13 H -0.358 1.57376 2.7183 0
M  V30 14 H -1.165 3.90944 3.18086 0
M  V30 15 H -1.563 3.418 1.51819 0
M  V30 16 H 0.729 5.58782 3.83104 0
M  V30 17 H 1.672 6.56266 2.65933 0
M  V30 18 H 2.08 4.83886 2.90714 0
M  V30 19 N 1.4781 -0.272755 1.55222 0
M  V30 20 C 2.7061 -1.02255 1.79865 0
M  V30 21 C 3.1211 -1.79924 0.572088 0
M  V30 22 O 2.4781 -1.76638 -0.458842 0
M  V30 23 C 2.5291 -1.98094 3.02392 0
M  V30 24 O 2.2501 -1.23572 4.20311 0
M  V30 25 C 3.7511 -2.84884 3.39641 0
M  V30 26 H 0.9711 -0.302057 0.599168 0
M  V30 27 H 3.5151 -0.303465 2.02236 0
M  V30 28 H 1.6701 -2.65465 2.82147 0
M  V30 29 H 2.0841 -1.88172 4.89583 0
M  V30 30 H 3.5581 -3.47927 4.28545 0
M  V30 31 H 4.0351 -3.54665 2.59055 0
M  V30 32 H 4.6411 -2.23003 3.62146 0
M  V30 33 N 2.9562 -1.48159 -0.537278 0
M  V30 34 C 3.8882 -1.58218 -1.65831 0
M  V30 35 C 4.9012 -0.466948 -1.5596 0
M  V30 36 O 6.0902 -0.73747 -1.62553 0
M  V30 37 C 3.1902 -1.48906 -3.04434 0
M  V30 38 C 2.3632 -2.75343 -3.3986 0
M  V30 39 C 1.4222 -2.59588 -4.57712 0
M  V30 40 O 0.4482 -3.33457 -4.61297 0
M  V30 41 N 1.6502 -1.68724 -5.55439 0
M  V30 42 H 4.4152 -2.54891 -1.57641 0
M  V30 43 H 1.9762 -1.4479 -0.724386 0
M  V30 44 H 3.9682 -1.36072 -3.81139 0
M  V30 45 H 2.5382 -0.602368 -3.06741 0
M  V30 46 H 1.7582 -3.02795 -2.52406 0
M  V30 47 H 3.0462 -3.5924 -3.60311 0
M  V30 48 H 2.4442 -1.07898 -5.55315 0
M  V30 49 H 1.0012 -1.61832 -6.3139 0
M  V30 50 N 4.4343 0.785586 -1.36625 0
M  V30 51 C 5.6803 1.54591 -1.31261 0
M  V30 52 C 6.0133 1.93906 0.106823 0
M  V30 53 O 5.2883 1.63007 1.06108 0
M  V30 54 C 5.5713 2.82038 -2.23889 0
M  V30 55 C 5.4243 2.49066 -3.74548 0
M  V30 56 C 6.7433 3.83887 -2.15217 0
M  V30 57 H 3.8623 0.560846 -0.478143 0
M  V30 58 H 6.5043 0.902278 -1.67209 0
M  V30 59 H 4.6543 3.36961 -1.93363 0
M  V30 60 H 6.3263 2.00164 -4.15611 0
M  V30 61 H 4.5693 1.81954 -3.93796 0
M  V30 62 H 5.2403 3.40109 -4.34776 0
M  V30 63 H 7.7163 3.38421 -2.42096 0
M  V30 64 H 6.5923 4.70806 -2.82193 0
M  V30 65 H 6.8533 4.27131 -1.14068 0
M  V30 66 N 5.9124 1.20967 1.01018 0
M  V30 67 C 6.8224 0.980157 2.13143 0
M  V30 68 C 7.8384 -0.0660665 1.73875 0
M  V30 69 O 9.0144 0.122821 2.01025 0
M  V30 70 C 6.0794 0.54216 3.42435 0
M  V30 71 C 5.1404 1.65999 3.95908 0
M  V30 72 C 4.3734 1.2428 5.19028 0
M  V30 73 O 4.5964 0.114196 5.70286 0
M  V30 74 O 3.5304 2.05271 5.65816 0
M  V30 75 H 7.3564 1.91913 2.35379 0
M  V30 76 H 4.9414 0.994099 1.11526 0
M  V30 77 H 6.8234 0.30744 4.20277 0
M  V30 78 H 5.4984 -0.36815 3.216 0
M  V30 79 H 4.4054 1.94906 3.19316 0
M  V30 80 H 5.7384 2.54753 4.21143 0
M  V30 81 N 7.3905 -1.2043 1.01659 0
M  V30 82 C 8.3375 -2.23215 0.586822 0
M  V30 83 C 9.3075 -1.61382 -0.393085 0
M  V30 84 O 10.4925 -1.88544 -0.292525 0
M  V30 85 C 7.6325 -3.45032 -0.0687464 0
M  V30 86 C 6.7455 -4.21296 0.955724 0
M  V30 87 C 5.8805 -5.30507 0.271208 0
M  V30 88 C 4.9195 -5.98515 1.28244 0
M  V30 89 N 4.0565 -6.99316 0.62459 0
M  V30 90 H 8.8965 -2.59336 1.46796 0
M  V30 91 H 6.4335 -1.27431 0.734836 0
M  V30 92 H 8.3915 -4.1459 -0.465965 0
M  V30 93 H 7.0215 -3.09604 -0.913529 0
M  V30 94 H 6.0735 -3.50803 1.4711 0
M  V30 95 H 7.3855 -4.6803 1.72479 0
M  V30 96 H 6.5395 -6.06428 -0.18151 0
M  V30 97 H 5.2785 -4.8481 -0.530163 0
M  V30 98 H 4.2835 -5.21355 1.74554 0
M  V30 99 H 5.5085 -6.46298 2.08509 0
M  V30 100 H 3.4545 -6.55812 -0.156914 0
M  V30 101 H 3.3715 -7.44178 1.33172 0
M  V30 102 H 4.6395 -7.79255 0.195462 0
M  V30 103 N 8.8686 -0.792821 -1.36206 0
M  V30 104 C 9.8156 -0.191653 -2.30003 0
M  V30 105 C 10.7856 0.666453 -1.52143 0
M  V30 106 O 11.9706 0.61442 -1.80636 0
M  V30 107 C 9.1106 0.664848 -3.38635 0
M  V30 108 C 8.2236 -0.212175 -4.31479 0
M  V30 109 C 7.3586 0.651022 -5.27196 0
M  V30 110 C 6.3976 -0.227247 -6.11678 0
M  V30 111 N 5.5346 0.595127 -6.99573 0
M  V30 112 H 10.3746 -0.996978 -2.80828 0
M  V30 113 H 7.9116 -0.503206 -1.38225 0
M  V30 114 H 9.8696 1.17645 -4.00269 0
M  V30 115 H 8.4996 1.43557 -2.89122 0
M  V30 116 H 7.5516 -0.841777 -3.70969 0
M  V30 117 H 8.8636 -0.888751 -4.90818 0
M  V30 118 H 8.0176 1.2283 -5.94136 0
M  V30 119 H 6.7566 1.36121 -4.68319 0
M  V30 120 H 5.7616 -0.816904 -5.43697 0
M  V30 121 H 6.9866 -0.93509 -6.72631 0
M  V30 122 H 4.9326 1.28955 -6.432 0
M  V30 123 H 4.8496 -0.0236952 -7.55996 0
M  V30 124 H 6.1176 1.15613 -7.70879 0
M  V30 125 N 10.3467 1.47872 -0.545128 0
M  V30 126 C 11.2937 2.29849 0.2093 0
M  V30 127 C 12.2637 1.38313 0.919707 0
M  V30 128 O 13.4487 1.67277 0.917772 0
M  V30 129 C 10.5887 3.22019 1.24088 0
M  V30 130 C 9.7017 4.2864 0.537778 0
M  V30 131 C 8.8367 5.07973 1.5536 0
M  V30 132 C 7.8757 6.06381 0.8348 0
M  V30 133 N 7.0127 6.78717 1.79688 0
M  V30 134 H 11.8527 2.93845 -0.49591 0
M  V30 135 H 9.3897 1.44848 -0.256389 0
M  V30 136 H 11.3477 3.73868 1.85144 0
M  V30 137 H 9.9777 2.59914 1.91428 0
M  V30 138 H 9.0297 3.7994 -0.187046 0
M  V30 139 H 10.3417 4.98793 -0.0258907 0
M  V30 140 H 9.4957 5.63912 2.23803 0
M  V30 141 H 8.2347 4.37693 2.15118 0
M  V30 142 H 7.2397 5.49631 0.136388 0
M  V30 143 H 8.4647 6.78665 0.24313 0
M  V30 144 H 6.4107 6.11177 2.38326 0
M  V30 145 H 6.3277 7.44998 1.28505 0
M  V30 146 H 7.5957 7.39237 2.47282 0
M  V30 147 N 11.8248 0.280983 1.55075 0
M  V30 148 C 12.7718 -0.603937 2.22758 0
M  V30 149 C 13.7418 -1.1452 1.20309 0
M  V30 150 O 14.9268 -1.19343 1.48869 0
M  V30 151 C 12.0668 -1.77947 2.95684 0
M  V30 152 C 11.1798 -1.2715 4.12864 0
M  V30 153 C 10.3148 -2.4093 4.7342 0
M  V30 154 C 9.3538 -1.87165 5.82783 0
M  V30 155 N 8.4908 -2.94441 6.37377 0
M  V30 156 H 13.3308 -0.020124 2.97993 0
M  V30 157 H 10.8678 0.00183425 1.471 0
M  V30 158 H 12.8258 -2.47055 3.36184 0
M  V30 159 H 11.4558 -2.33522 2.22861 0
M  V30 160 H 10.5078 -0.473331 3.77444 0
M  V30 161 H 11.8198 -0.837751 4.91715 0
M  V30 162 H 10.9738 -3.18021 5.1667 0
M  V30 163 H 9.7128 -2.87623 3.93859 0
M  V30 164 H 8.7178 -1.08556 5.38976 0
M  V30 165 H 9.9428 -1.41401 6.64216 0
M  V30 166 H 7.8888 -3.40505 5.60707 0
M  V30 167 H 7.8058 -2.55501 7.11516 0
M  V30 168 H 9.0738 -3.71489 6.85285 0
M  V30 169 N 13.3029 -1.57598 0.00835791 0
M  V30 170 C 14.2509 -2.10078 -0.998508 0
M  V30 171 C 15.2449 -1.02262 -1.35051 0
M  V30 172 O 16.4509 -1.20719 -1.33518 0
M  V30 173 H 12.8259 -0.670903 -0.339696 0
M  V30 174 H 14.7969 -2.93648 -0.530398 0
M  V30 175 C 13.5459 -2.62615 -2.27879 0
M  V30 176 H 12.8689 -3.45213 -2.01662 0
M  V30 177 H 14.3089 -3.03004 -2.96588 0
M  V30 178 C 12.7679 -1.54407 -2.99433 0
M  V30 179 O 13.2979 -0.931812 -3.90743 0
M  V30 180 N 11.5039 -1.2695 -2.61404 0
M  V30 181 H 11.0509 -1.76924 -1.87232 0
M  V30 182 H 11.0089 -0.547704 -3.09593 0
M  V30 183 N 14.781 0.264519 -1.55364 0
M  V30 184 C 16.027 0.99646 -1.76631 0
M  V30 185 C 16.36 1.85632 -0.570478 0
M  V30 186 O 15.635 1.89647 0.43175 0
M  V30 187 C 15.918 1.87187 -3.07625 0
M  V30 188 C 15.771 1.04138 -4.37579 0
M  V30 189 C 17.09 2.85749 -3.34717 0
M  V30 190 H 14.209 0.360841 -0.642622 0
M  V30 191 H 16.851 0.268218 -1.88097 0
M  V30 192 H 15.001 2.49279 -2.9798 0
M  V30 193 H 16.673 0.440517 -4.59192 0
M  V30 194 H 14.916 0.345115 -4.32425 0
M  V30 195 H 15.587 1.68729 -5.2558 0
M  V30 196 H 18.063 2.33793 -3.4421 0
M  V30 197 H 16.939 3.44136 -4.27623 0
M  V30 198 H 17.2 3.61311 -2.54768 0
M  V30 199 N 16.2591 1.48442 0.529413 0
M  V30 200 C 17.2061 1.63007 1.63394 0
M  V30 201 C 18.1761 0.47212 1.59249 0
M  V30 202 O 19.3611 0.695673 1.77666 0
M  V30 203 C 16.5011 1.6763 3.01653 0
M  V30 204 C 15.6141 2.94535 3.16027 0
M  V30 205 C 14.7491 2.90316 4.44849 0
M  V30 206 C 13.7881 4.11923 4.52754 0
M  V30 207 N 12.9251 4.05777 5.72965 0
M  V30 208 H 17.7651 2.5733 1.50285 0
M  V30 209 H 15.3021 1.27613 0.731656 0
M  V30 210 H 17.2601 1.68292 3.81751 0
M  V30 211 H 15.8901 0.76797 3.13532 0
M  V30 212 H 14.9421 3.03615 2.29177 0
M  V30 213 H 16.2541 3.84512 3.17729 0
M  V30 214 H 15.4081 2.89382 5.33238 0
M  V30 215 H 14.1471 1.98068 4.45668 0
M  V30 216 H 13.1521 4.13131 3.62771 0
M  V30 217 H 14.3771 5.0533 4.53672 0
M  V30 218 H 12.3231 3.16351 5.74681 0
M  V30 219 H 12.2401 4.8946 5.76164 0
M  V30 220 H 13.5081 4.08904 6.6364 0
M  V30 221 N 17.7372 -0.778329 1.37039 0
M  V30 222 C 18.6852 -1.91278 1.32345 0
M  V30 223 C 19.6792 -1.68051 0.213331 0
M  V30 224 O 20.8852 -1.75922 0.38098 0
M  V30 225 H 17.2602 -0.628909 0.412283 0
M  V30 226 H 19.2312 -1.92355 2.28127 0
M  V30 227 C 17.9802 -3.28455 1.14073 0
M  V30 228 H 17.3032 -3.46901 1.98746 0
M  V30 229 H 18.7432 -4.08152 1.14837 0
M  V30 230 C 17.2022 -3.36548 -0.154015 0
M  V30 231 O 17.7322 -3.85186 -1.13993 0
M  V30 232 N 15.9382 -2.89894 -0.202475 0
M  V30 233 H 15.4852 -2.50504 0.600476 0
M  V30 234 H 15.4432 -2.9569 -1.06841 0
M  V30 235 N 19.2153 -1.21501 -1.00376 0
M  V30 236 C 20.4613 -1.03452 -1.74429 0
M  V30 237 C 20.7943 0.430764 -1.89362 0
M  V30 238 O 20.0693 1.31962 -1.42886 0
M  V30 239 C 20.3523 -1.73375 -3.15615 0
M  V30 240 C 20.2053 -3.27431 -3.08397 0
M  V30 241 C 21.5243 -1.47732 -4.14564 0
M  V30 242 H 18.6433 -0.377226 -0.633143 0
M  V30 243 H 21.2853 -1.49693 -1.17013 0
M  V30 244 H 19.4353 -1.34064 -3.64636 0
M  V30 245 H 21.1073 -3.76119 -2.67081 0
M  V30 246 H 19.3503 -3.5767 -2.45468 0
M  V30 247 H 20.0213 -3.71524 -4.08258 0
M  V30 248 H 22.4973 -1.8186 -3.74254 0
M  V30 249 H 21.3733 -1.99169 -5.11491 0
M  V30 250 H 21.6343 -0.407589 -4.40217 0
M  V30 251 N 20.6934 1.19889 -1.02296 0
M  V30 252 C 21.6414 2.24938 -0.592081 0
M  V30 253 C 22.6354 1.65257 0.372357 0
M  V30 254 O 23.8414 1.78371 0.241583 0
M  V30 255 H 20.2164 0.731787 -0.173182 0
M  V30 256 H 22.1874 2.58603 -1.48885 0
M  V30 257 C 20.9364 3.47668 0.047351 0
M  V30 258 H 20.2594 3.93875 -0.685772 0
M  V30 259 H 21.6994 4.22852 0.311862 0
M  V30 260 C 20.1584 3.11136 1.29212 0
M  V30 261 O 20.6884 3.2325 2.38479 0
M  V30 262 N 18.8944 2.65625 1.17863 0
M  V30 263 H 18.4414 2.55968 0.289493 0
M  V30 264 H 18.3994 2.41553 2.01245 0
M  V30 265 N 22.1715 0.800033 1.35784 0
M  V30 266 C 23.1185 0.203848 2.29898 0
M  V30 267 C 24.0885 -0.658375 1.52495 0
M  V30 268 O 25.2735 -0.604832 1.8096 0
M  V30 269 C 22.4135 -0.64688 3.38983 0
M  V30 270 C 21.5265 0.235054 4.3136 0
M  V30 271 C 20.6615 -0.623054 5.27533 0
M  V30 272 C 19.7005 0.259682 6.11549 0
M  V30 273 N 18.8375 -0.558019 6.99879 0
M  V30 274 H 23.6775 1.01186 2.80295 0
M  V30 275 H 21.2145 0.51053 1.37957 0
M  V30 276 H 23.1725 -1.15521 4.00887 0
M  V30 277 H 21.8025 -1.42021 2.89879 0
M  V30 278 H 20.8545 0.861438 3.70518 0
M  V30 279 H 22.1665 0.914768 4.9034 0
M  V30 280 H 21.3205 -1.19678 5.94779 0
M  V30 281 H 20.0595 -1.33636 4.69034 0
M  V30 282 H 19.0645 0.845726 5.43256 0
M  V30 283 H 20.2895 0.970748 6.72126 0
M  V30 284 H 18.2355 -1.25542 6.43875 0
M  V30 285 H 18.1525 0.0637872 7.55973 0
M  V30 286 H 19.4205 -1.11523 7.71481 0
M  V30 287 N 23.6496 -1.47581 0.552962 0
M  V30 288 C 24.5996 -2.26961 -0.217423 0
M  V30 289 C 25.5836 -1.34099 -0.889168 0
M  V30 290 O 26.7756 -1.58483 -0.788176 0
M  V30 291 C 23.9046 -3.19756 -1.24944 0
M  V30 292 C 22.9906 -4.20097 -0.581327 0
M  V30 293 N 23.3816 -5.04614 0.346171 0
M  V30 294 C 21.6796 -4.38099 -0.835767 0
M  V30 295 C 22.3806 -5.77052 0.733854 0
M  V30 296 N 21.3566 -5.43526 0.0896567 0
M  V30 297 H 25.1586 -2.89688 0.495761 0
M  V30 298 H 22.6726 -1.58068 0.372597 0
M  V30 299 H 24.6696 -3.75305 -1.81527 0
M  V30 300 H 23.3296 -2.58585 -1.96376 0
M  V30 301 H 24.3406 -5.12869 0.720098 0
M  V30 302 H 21.0176 -3.88102 -1.53892 0
M  V30 303 H 22.4076 -6.5504 1.49574 0
M  V30 304 N 25.1277 -0.289203 -1.54924 0
M  V30 305 C 26.0747 0.592115 -2.23075 0
M  V30 306 C 27.0447 1.13881 -1.20915 0
M  V30 307 O 28.2297 1.18551 -1.495 0
M  V30 308 C 25.3697 1.76376 -2.96623 0
M  V30 309 C 24.4827 1.24959 -4.13533 0
M  V30 310 C 23.6177 2.38416 -4.74691 0
M  V30 311 C 22.6567 1.84072 -5.83767 0
M  V30 312 N 21.7937 2.91057 -6.38929 0
M  V30 313 H 26.6337 0.00432038 -2.98 0
M  V30 314 H 24.1707 -0.00963529 -1.47097 0
M  V30 315 H 26.1287 2.45268 -3.3749 0
M  V30 316 H 24.7587 2.32337 -2.24097 0
M  V30 317 H 23.8107 0.453307 -3.77689 0
M  V30 318 H 25.1227 0.811662 -4.92152 0
M  V30 319 H 24.2767 3.15276 -5.18349 0
M  V30 320 H 23.0157 2.8553 -3.95378 0
M  V30 321 H 22.0207 1.05697 -5.39545 0
M  V30 322 H 23.2457 1.37877 -6.64956 0
M  V30 323 H 21.1917 3.37526 -5.62505 0
M  V30 324 H 21.1087 2.51724 -7.12861 0
M  V30 325 H 22.3767 3.6785 -6.87246 0
M  V30 326 N 26.6058 1.57591 -0.0167156 0
M  V30 327 C 27.8548 1.90461 0.663877 0
M  V30 328 C 28.1678 0.893515 1.73999 0
M  V30 329 O 29.3738 1.11302 2.47637 0
M  V30 330 C 27.8298 3.38155 1.23204 0
M  V30 331 C 27.4378 4.47597 0.189866 0
M  V30 332 C 29.1818 3.80111 1.88986 0
M  V30 333 C 27.0888 5.86379 0.768964 0
M  V30 334 H 26.0188 0.710738 0.251729 0
M  V30 335 H 28.6698 1.83326 -0.0799926 0
M  V30 336 H 27.0518 3.40182 2.02712 0
M  V30 337 H 28.2258 4.57112 -0.581846 0
M  V30 338 H 26.5408 4.14766 -0.368475 0
M  V30 339 H 29.1378 4.81145 2.33247 0
M  V30 340 H 29.4808 3.14511 2.72743 0
M  V30 341 H 30.0138 3.80454 1.16187 0
M  V30 342 H 26.7528 6.55493 -0.0301957 0
M  V30 343 H 26.2728 5.80496 1.50945 0
M  V30 344 H 27.9518 6.34563 1.26251 0
M  V30 345 N 28.0839 -0.256276 1.55502 0
M  V30 346 C 29.3329 -0.983486 1.76098 0
M  V30 347 C 29.6459 -1.86837 0.578896 0
M  V30 348 O 30.8519 -2.63163 0.667648 0
M  V30 349 C 29.3079 -1.79868 3.1173 0
M  V30 350 C 28.9159 -0.961648 4.37557 0
M  V30 351 C 30.6599 -2.51919 3.41668 0
M  V30 352 C 28.5669 -1.77219 5.64223 0
M  V30 353 H 27.4969 -0.370936 0.656447 0
M  V30 354 H 30.1479 -0.238492 1.81944 0
M  V30 355 H 28.5299 -2.58527 2.99966 0
M  V30 356 H 29.7039 -0.218048 4.60284 0
M  V30 357 H 28.0189 -0.354913 4.14885 0
M  V30 358 H 30.6159 -3.12998 4.33516 0
M  V30 359 H 30.9589 -3.23059 2.62562 0
M  V30 360 H 31.4919 -1.80278 3.54605 0
M  V30 361 H 28.2309 -1.10471 6.46124 0
M  V30 362 H 27.7509 -2.49132 5.45613 0
M  V30 363 H 29.4299 -2.34169 6.03137 0
M  V30 364 N 29.562 -1.4872 -0.521534 0
M  V30 365 C 30.512 -1.60269 -1.62166 0
M  V30 366 C 31.496 -0.45935 -1.54204 0
M  V30 367 O 32.688 -0.711241 -1.62081 0
M  V30 368 C 29.817 -1.65344 -3.00859 0
M  V30 369 C 28.903 -2.85187 -3.13894 0
M  V30 370 N 29.294 -4.09509 -2.96877 0
M  V30 371 C 27.592 -2.82695 -3.44963 0
M  V30 372 C 28.293 -4.89959 -3.13552 0
M  V30 373 N 27.269 -4.22934 -3.41508 0
M  V30 374 H 31.071 -2.5413 -1.47632 0
M  V30 375 H 28.585 -1.45209 -0.727194 0
M  V30 376 H 30.582 -1.71713 -3.79895 0
M  V30 377 H 29.242 -0.726058 -3.16478 0
M  V30 378 H 30.253 -4.39814 -2.73467 0
M  V30 379 H 26.93 -1.99249 -3.66887 0
M  V30 380 H 28.32 -5.98654 -3.05061 0
M  V30 381 N 31.0401 0.771051 -1.3745 0
M  V30 382 C 31.9871 1.88435 -1.3327 0
M  V30 383 C 32.9571 1.64914 -0.198136 0
M  V30 384 O 34.1421 1.86821 -0.387606 0
M  V30 385 C 31.2821 3.25509 -1.14622 0
M  V30 386 C 30.3951 3.60979 -2.37314 0
M  V30 387 C 29.5301 4.87265 -2.11533 0
M  V30 388 C 28.5691 5.15469 -3.30088 0
M  V30 389 N 27.7061 6.32944 -3.03853 0
M  V30 390 H 32.5461 1.91344 -2.28455 0
M  V30 391 H 30.0831 0.935466 -1.13523 0
M  V30 392 H 32.0411 4.04582 -1.01831 0
M  V30 393 H 30.6711 3.21974 -0.230837 0
M  V30 394 H 29.7231 2.76885 -2.60842 0
M  V30 395 H 31.0351 3.77759 -3.25729 0
M  V30 396 H 30.1891 5.74244 -1.95777 0
M  V30 397 H 28.9281 4.7259 -1.20457 0
M  V30 398 H 27.9331 4.26966 -3.46382 0
M  V30 399 H 29.1581 5.32052 -4.22016 0
M  V30 400 H 27.1041 6.19625 -2.15407 0
M  V30 401 H 27.0211 6.50143 -3.85812 0
M  V30 402 H 28.2891 7.22857 -2.91716 0
M  V30 403 N 32.5182 1.22032 0.997298 0
M  V30 404 C 33.9342 0.979326 1.26021 0
M  V30 405 C 34.1342 -0.32972 1.98784 0
M  V30 406 O 33.1902 -1.05345 2.29475 0
M  V30 407 C 34.5032 2.17509 2.07631 0
M  V30 408 C 36.0512 2.21817 2.2083 0
M  V30 409 C 36.5262 3.40933 3.05825 0
M  V30 410 N 38.0172 3.41067 3.13412 0
M  V30 411 C 38.7522 4.29885 3.79455 0
M  V30 412 N 38.2482 5.28914 4.47462 0
M  V30 413 N 40.0412 4.17673 3.76173 0
M  V30 414 H 32.1922 2.06202 0.509352 0
M  V30 415 H 34.4552 0.90334 0.287541 0
M  V30 416 H 34.1612 3.12415 1.61524 0
M  V30 417 H 34.0352 2.17206 3.08385 0
M  V30 418 H 36.4222 1.27462 2.66153 0
M  V30 419 H 36.5032 2.2616 1.1952 0
M  V30 420 H 36.1472 4.35586 2.61203 0
M  V30 421 H 36.0772 3.33829 4.07266 0
M  V30 422 H 38.5682 2.69406 2.65007 0
M  V30 423 H 38.8812 5.92973 4.95583 0
M  V30 424 H 37.2262 5.32831 4.46224 0
M  V30 425 H 40.4172 3.39564 3.22202 0
M  V30 426 H 40.5902 4.87098 4.27363 0
M  V30 427 N 33.9963 -1.19345 1.0293 0
M  V30 428 C 35.2423 -1.89318 0.727083 0
M  V30 429 C 35.5753 -1.79446 -0.742483 0
M  V30 430 O 34.8503 -1.1871 -1.54072 0
M  V30 431 C 35.1333 -3.40238 1.17942 0
M  V30 432 C 34.9863 -3.58979 2.71024 0
M  V30 433 C 36.3053 -4.33479 0.760548 0
M  V30 434 H 33.4243 -0.687475 0.265606 0
M  V30 435 H 36.0663 -1.40477 1.2793 0
M  V30 436 H 34.2163 -3.81964 0.709608 0
M  V30 437 H 35.8883 -3.26421 3.25955 0
M  V30 438 H 34.1313 -3.02018 3.11396 0
M  V30 439 H 34.8023 -4.64823 2.9773 0
M  V30 440 H 37.2783 -3.99469 1.16464 0
M  V30 441 H 36.1543 -5.37664 1.10493 0
M  V30 442 H 36.4153 -4.40813 -0.337063 0
M  V30 443 N 35.4744 -0.807222 -1.35358 0
M  V30 444 C 36.7234 -0.384376 -1.98004 0
M  V30 445 C 37.0364 1.0543 -1.64754 0
M  V30 446 O 38.2424 1.58029 -2.20769 0
M  V30 447 C 36.6984 -0.636326 -3.5423 0
M  V30 448 C 36.3064 -2.08759 -3.96388 0
M  V30 449 C 38.0504 -0.278869 -4.23583 0
M  V30 450 C 35.9574 -2.28525 -5.45463 0
M  V30 451 H 34.8874 -0.139986 -0.740891 0
M  V30 452 H 37.5384 -0.991369 -1.54415 0
M  V30 453 H 35.9204 0.0406256 -3.95979 0
M  V30 454 H 37.0944 -2.8024 -3.6579 0
M  V30 455 H 35.4094 -2.40497 -3.39926 0
M  V30 456 H 38.0064 -0.404599 -5.33167 0
M  V30 457 H 38.3494 0.775012 -4.09022 0
M  V30 458 H 38.8824 -0.909764 -3.87257 0
M  V30 459 H 35.6214 -3.32361 -5.64992 0
M  V30 460 H 35.1414 -1.61569 -5.77629 0
M  V30 461 H 36.8204 -2.10109 -6.11934 0
M  V30 462 N 36.9525 1.47285 -0.560781 0
M  V30 463 C 37.8995 2.30058 0.18491 0
M  V30 464 C 38.8695 1.39281 0.904986 0
M  V30 465 O 40.0545 1.68241 0.899979 0
M  V30 466 C 37.1945 3.23317 1.20666 0
M  V30 467 C 36.3075 4.29186 0.492285 0
M  V30 468 C 35.4425 5.09592 1.49964 0
M  V30 469 C 34.4815 6.07232 0.770439 0
M  V30 470 N 33.6185 6.80584 1.72479 0
M  V30 471 H 38.4585 2.93302 -0.527048 0
M  V30 472 H 35.9955 1.44568 -0.271738 0
M  V30 473 H 37.9535 3.75811 1.81168 0
M  V30 474 H 36.5835 2.61929 1.88661 0
M  V30 475 H 35.6355 3.7972 -0.227333 0
M  V30 476 H 36.9475 4.98738 -0.0787929 0
M  V30 477 H 36.1015 5.66254 2.17809 0
M  V30 478 H 34.8405 4.3995 2.10464 0
M  V30 479 H 33.8455 5.49745 0.0780846 0
M  V30 480 H 35.0705 6.78884 0.171134 0
M  V30 481 H 33.0165 6.1367 2.3183 0
M  V30 482 H 32.9335 7.46319 1.20596 0
M  V30 483 H 34.2015 7.41818 2.39428 0
M  V30 484 N 38.4306 0.297415 1.54768 0
M  V30 485 C 39.3776 -0.580276 2.23386 0
M  V30 486 C 40.3476 -1.13238 1.21517 0
M  V30 487 O 41.5326 -1.17757 1.50126 0
M  V30 488 C 38.6726 -1.74801 2.97555 0
M  V30 489 C 37.7856 -1.22764 4.1419 0
M  V30 490 C 36.9206 -2.35895 4.75949 0
M  V30 491 C 35.9596 -1.80974 5.84735 0
M  V30 492 N 35.0966 -2.87664 6.40464 0
M  V30 493 H 39.9366 0.0114833 2.97998 0
M  V30 494 H 37.4736 0.0174361 1.4709 0
M  V30 495 H 39.4316 -2.43475 3.38786 0
M  V30 496 H 38.0616 -2.31145 2.25326 0
M  V30 497 H 37.1136 -0.433271 3.77924 0
M  V30 498 H 38.4256 -0.785551 4.92575 0
M  V30 499 H 37.5796 -3.12523 5.20014 0
M  V30 500 H 36.3186 -2.83429 3.96887 0
M  V30 501 H 35.3236 -1.02834 5.40097 0
M  V30 502 H 36.5486 -1.34348 6.65678 0
M  V30 503 H 34.4946 -3.34538 5.64287 0
M  V30 504 H 34.4116 -2.4794 7.14186 0
M  V30 505 H 35.6796 -3.642 6.89187 0
M  V30 506 N 39.9087 -1.5758 0.0250728 0
M  V30 507 C 41.1567 -1.91255 -0.653151 0
M  V30 508 C 41.4777 -0.901691 -1.729 0
M  V30 509 O 40.7477 0.0573785 -1.95816 0
M  V30 510 H 39.3277 -0.705942 -0.244243 0
M  V30 511 H 41.9897 -1.94767 0.0719209 0
M  V30 512 H 41.0857 -2.91752 -1.10847 0
M  V30 513 N 41.3868 0.248026 -1.55636 0
M  V30 514 C 42.3348 1.32683 -1.91045 0
M  V30 515 C 43.3288 1.49883 -0.789401 0
M  V30 516 O 44.5348 1.51371 -0.974007 0
M  V30 517 H 40.9098 0.444272 -0.606734 0
M  V30 518 H 42.8808 1.00085 -2.81115 0
M  V30 519 C 41.6298 2.6755 -2.22064 0
M  V30 520 H 40.9528 2.55114 -3.07826 0
M  V30 521 H 42.3928 3.41912 -2.50743 0
M  V30 522 C 40.8518 3.20556 -1.0366 0
M  V30 523 O 41.3818 4.00695 -0.284016 0
M  V30 524 N 39.5878 2.78568 -0.82753 0
M  V30 525 H 39.1348 2.1351 -1.44123 0
M  V30 526 H 39.0928 3.14378 -0.0369803 0
M  V30 527 N 42.8649 1.48995 0.513639 0
M  V30 528 C 44.2809 1.35478 0.843682 0
M  V30 529 C 44.4809 0.378213 1.97919 0
M  V30 530 O 43.5369 -0.194689 2.51748 0
M  V30 531 C 44.8499 2.75901 1.1958 0
M  V30 532 C 46.3979 2.84509 1.30474 0
M  V30 533 C 46.8729 4.25671 1.69021 0
M  V30 534 N 48.3639 4.28422 1.76094 0
M  V30 535 C 49.0989 5.34601 2.07338 0
M  V30 536 N 48.5949 6.5104 2.36894 0
M  V30 537 N 50.3879 5.22007 2.08483 0
M  V30 538 H 42.5389 2.11092 -0.235328 0
M  V30 539 H 44.8019 0.947039 -0.0426669 0
M  V30 540 H 44.5079 3.49001 0.434913 0
M  V30 541 H 44.3819 3.10467 2.1422 0
M  V30 542 H 46.7689 2.11655 2.05637 0
M  V30 543 H 46.8499 2.53542 0.339155 0
M  V30 544 H 46.4939 4.99048 0.944135 0
M  V30 545 H 46.4239 4.54094 2.66658 0
M  V30 546 H 48.9149 3.44441 1.55464 0
M  V30 547 H 49.2279 7.2779 2.59887 0
M  V30 548 H 47.5729 6.54287 2.34378 0
M  V30 549 H 50.7639 4.30051 1.84861 0
M  V30 550 H 50.9369 6.04854 2.325 0
M  V30 551 N 44.343 -0.763751 1.37857 0
M  V30 552 C 45.29 -1.87726 1.34267 0
M  V30 553 C 46.26 -1.64807 0.206879 0
M  V30 554 O 47.445 -1.86613 0.397508 0
M  V30 555 C 44.585 -3.24896 1.16346 0
M  V30 556 C 43.698 -3.59716 2.39225 0
M  V30 557 C 42.833 -4.86137 2.14114 0
M  V30 558 C 41.872 -5.13711 3.32817 0
M  V30 559 N 41.009 -6.31323 3.07206 0
M  V30 560 H 45.849 -1.90129 2.29466 0
M  V30 561 H 43.386 -0.929433 1.14017 0
M  V30 562 H 45.344 -4.04036 1.03975 0
M  V30 563 H 43.974 -3.21847 0.247909 0
M  V30 564 H 43.026 -2.75498 2.62307 0
M  V30 565 H 44.338 -3.76027 3.27728 0
M  V30 566 H 43.492 -5.73198 1.9882 0
M  V30 567 H 42.231 -4.71945 1.22961 0
M  V30 568 H 41.236 -4.25123 3.48641 0
M  V30 569 H 42.461 -5.29807 4.24832 0
M  V30 570 H 40.407 -6.18474 2.1869 0
M  V30 571 H 40.324 -6.48087 3.89254 0
M  V30 572 H 41.592 -7.213 2.95546 0
M  V30 573 N 45.8211 -1.22559 -0.990812 0
M  V30 574 C 47.0511 -1.07623 -1.76355 0
M  V30 575 C 47.4591 0.37601 -1.85426 0
M  V30 576 O 46.8021 1.27228 -1.32509 0
M  V30 577 C 46.8641 -1.61507 -3.21179 0
M  V30 578 C 46.5281 -3.10146 -3.35646 0
M  V30 579 C 47.5251 -4.07553 -3.22796 0
M  V30 580 C 45.2101 -3.49644 -3.60631 0
M  V30 581 C 47.2041 -5.42442 -3.34716 0
M  V30 582 C 44.8911 -4.84682 -3.72192 0
M  V30 583 C 45.8891 -5.8089 -3.59243 0
M  V30 584 O 45.5771 -7.13476 -3.70415 0
M  V30 585 H 45.3091 -0.377745 -0.560611 0
M  V30 586 H 47.8631 -1.62658 -1.25425 0
M  V30 587 H 46.0931 -1.00881 -3.73309 0
M  V30 588 H 47.7821 -1.42202 -3.80175 0
M  V30 589 H 48.5481 -3.78381 -3.03403 0
M  V30 590 H 44.4271 -2.75282 -3.69785 0
M  V30 591 H 47.9711 -6.17518 -3.24526 0
M  V30 592 H 43.8681 -5.13534 -3.91092 0
M  V30 593 H 44.6361 -7.21083 -3.87275 0
M  V30 594 N 47.2992 1.18797 -1.03562 0
M  V30 595 C 48.5272 1.92599 -0.755869 0
M  V30 596 C 48.9422 1.75886 0.686271 0
M  V30 597 O 48.2992 1.08517 1.46732 0
M  V30 598 C 48.3502 3.44159 -1.10619 0
M  V30 599 O 48.0712 3.60341 -2.4917 0
M  V30 600 C 49.5722 4.3507 -0.850214 0
M  V30 601 H 46.7922 0.611587 -0.276048 0
M  V30 602 H 49.3362 1.50742 -1.38192 0
M  V30 603 H 47.4912 3.83823 -0.525194 0
M  V30 604 H 47.9052 4.54128 -2.62427 0
M  V30 605 H 49.3792 5.39989 -1.14523 0
M  V30 606 H 49.8562 4.38673 0.215176 0
M  V30 607 H 50.4622 4.01097 -1.41426 0
M  V30 608 N 48.7773 0.814389 1.34928 0
M  V30 609 C 49.7253 0.218424 2.31572 0
M  V30 610 C 50.7193 -0.636128 1.57002 0
M  V30 611 O 51.9253 -0.52842 1.72069 0
M  V30 612 H 48.3003 0.0518799 0.750208 0
M  V30 613 H 50.2713 1.04852 2.79372 0
M  V30 614 C 49.0203 -0.61207 3.4227 0
M  V30 615 H 48.3433 0.0361578 3.99784 0
M  V30 616 H 49.7833 -0.995317 4.12152 0
M  V30 617 C 48.2423 -1.78087 2.85984 0
M  V30 618 O 48.7723 -2.8787 2.80168 0
M  V30 619 N 46.9783 -1.59488 2.42924 0
M  V30 620 H 46.5253 -0.701874 2.47854 0
M  V30 621 H 46.4833 -2.37846 2.05613 0
M  V30 622 N 50.2554 -1.46986 0.568584 0
M  V30 623 C 51.5034 -2.02041 0.0487022 0
M  V30 624 C 51.8244 -1.44408 -1.31039 0
M  V30 625 O 51.0944 -0.623477 -1.85714 0
M  V30 626 H 49.6744 -0.746849 0.015014 0
M  V30 627 H 52.3364 -1.80257 0.741168 0
M  V30 628 H 51.4324 -3.12085 -0.0308961 0
M  V30 629 N 51.7335 -0.305618 -1.54608 0
M  V30 630 C 52.6815 0.584119 -2.25146 0
M  V30 631 C 53.6755 1.13326 -1.25911 0
M  V30 632 O 54.8815 1.08337 -1.43747 0
M  V30 633 H 51.2565 0.206983 -0.722954 0
M  V30 634 H 53.2275 -0.033291 -2.98381 0
M  V30 635 C 51.9765 1.74225 -3.009 0
M  V30 636 H 51.2995 1.32892 -3.77067 0
M  V30 637 H 52.7395 2.34077 -3.53531 0
M  V30 638 C 51.1985 2.64914 -2.0814 0
M  V30 639 O 51.7285 3.66137 -1.65246 0
M  V30 640 N 49.9345 2.3275 -1.74 0
M  V30 641 H 49.4815 1.50479 -2.09078 0
M  V30 642 H 49.4395 2.93694 -1.12211 0
M  V30 643 N 53.2116 1.57565 -0.0334293 0
M  V30 644 C 54.4396 1.9628 0.654347 0
M  V30 645 C 54.8546 0.910138 1.65414 0
M  V30 646 O 54.2116 -0.107595 1.82183 0
M  V30 647 C 54.2626 3.35067 1.35693 0
M  V30 648 O 53.9836 4.36296 0.397191 0
M  V30 649 C 55.4846 3.88439 2.13613 0
M  V30 650 H 52.7046 0.646369 0.180132 0
M  V30 651 H 55.2486 2.04282 -0.0944721 0
M  V30 652 H 53.4036 3.2827 2.05712 0
M  V30 653 H 53.8176 5.1678 0.896597 0
M  V30 654 H 55.2916 4.8788 2.58219 0
M  V30 655 H 55.7686 3.22914 2.97696 0
M  V30 656 H 56.3746 3.98516 1.48543 0
M  V30 657 N 54.6897 -0.239769 1.55765 0
M  V30 658 C 55.6367 -1.29696 1.90913 0
M  V30 659 C 56.6067 -1.47478 0.764164 0
M  V30 660 O 57.7917 -1.61345 1.01845 0
M  V30 661 C 54.9317 -2.64598 2.21544 0
M  V30 662 C 54.0447 -2.54765 3.48882 0
M  V30 663 C 53.1797 -3.82069 3.69049 0
M  V30 664 C 52.2187 -3.66883 4.89963 0
M  V30 665 N 51.3557 -4.86094 5.06614 0
M  V30 666 H 56.1957 -0.990224 2.81067 0
M  V30 667 H 53.7327 -0.477684 1.39128 0
M  V30 668 H 55.6907 -3.43132 2.3731 0
M  V30 669 H 54.3207 -2.93405 1.34585 0
M  V30 670 H 53.3727 -1.67763 3.41409 0
M  V30 671 H 54.6847 -2.39457 4.37563 0
M  V30 672 H 53.8387 -4.69046 3.84812 0
M  V30 673 H 52.5777 -4.00282 2.78614 0
M  V30 674 H 51.5827 -2.78289 4.74168 0
M  V30 675 H 52.8077 -3.50157 5.81865 0
M  V30 676 H 50.7537 -5.04655 4.19117 0
M  V30 677 H 50.6707 -4.73443 5.89396 0
M  V30 678 H 51.9387 -5.74549 5.26795 0
M  V30 679 N 56.1678 -1.49265 -0.50573 0
M  V30 680 C 57.4138 -1.58748 -1.26202 0
M  V30 681 C 57.7468 -0.271227 -1.92297 0
M  V30 682 O 57.0218 0.724831 -1.80489 0
M  V30 683 C 57.3048 -2.74332 -2.33268 0
M  V30 684 C 57.1578 -4.15737 -1.71705 0
M  V30 685 C 58.4768 -2.85576 -3.34865 0
M  V30 686 H 55.5958 -0.577826 -0.457478 0
M  V30 687 H 58.2378 -1.81532 -0.560897 0
M  V30 688 H 56.3878 -2.55036 -2.93068 0
M  V30 689 H 58.0598 -4.46537 -1.15769 0
M  V30 690 H 56.3028 -4.21605 -1.02135 0
M  V30 691 H 56.9738 -4.92477 -2.49341 0
M  V30 692 H 59.4498 -3.03127 -2.8505 0
M  V30 693 H 58.3258 -3.68135 -4.07146 0
M  V30 694 H 58.5868 -1.94732 -3.96903 0
M  V30 695 N 57.6459 0.756429 -1.3826 0
M  V30 696 C 58.5929 1.87011 -1.35261 0
M  V30 697 C 59.5629 1.64695 -0.215616 0
M  V30 698 O 60.7479 1.864 -0.407399 0
M  V30 699 C 57.8879 3.24275 -1.18068 0
M  V30 700 C 57.0009 3.58442 -2.41129 0
M  V30 701 C 56.1359 4.84994 -2.16689 0
M  V30 702 C 55.1749 5.11939 -3.35537 0
M  V30 703 N 54.3119 6.29685 -3.10549 0
M  V30 704 H 59.1519 1.8891 -2.30472 0
M  V30 705 H 56.6889 0.923373 -1.14509 0
M  V30 706 H 58.6469 4.03479 -1.06116 0
M  V30 707 H 57.2769 3.21711 -0.264973 0
M  V30 708 H 56.3289 2.74103 -2.63764 0
M  V30 709 H 57.6409 3.74283 -3.29717 0
M  V30 710 H 56.7949 5.72135 -2.01857 0
M  V30 711 H 55.5339 4.71286 -1.25462 0
M  V30 712 H 54.5389 4.23268 -3.50891 0
M  V30 713 H 55.7639 5.27546 -4.27635 0
M  V30 714 H 53.7099 6.17306 -2.21967 0
M  V30 715 H 53.6269 6.46014 -3.92686 0
M  V30 716 H 54.8949 7.19722 -2.99367 0
M  V30 717 N 59.124 1.23083 0.984299 0
M  V30 718 C 60.354 1.08556 1.75781 0
M  V30 719 C 60.762 -0.366171 1.85623 0
M  V30 720 O 60.105 -1.26524 1.33182 0
M  V30 721 C 60.167 1.63208 3.20318 0
M  V30 722 C 59.831 3.11922 3.33997 0
M  V30 723 C 60.828 4.09259 3.2063 0
M  V30 724 C 58.513 3.51552 3.58771 0
M  V30 725 C 60.507 5.4421 3.31835 0
M  V30 726 C 58.194 4.86649 3.69616 0
M  V30 727 C 59.192 5.82787 3.56157 0
M  V30 728 O 58.88 7.15431 3.66626 0
M  V30 729 H 58.612 0.380713 0.5586 0
M  V30 730 H 61.166 1.63321 1.2456 0
M  V30 731 H 59.396 1.0286 3.72769 0
M  V30 732 H 61.085 1.44216 3.79416 0
M  V30 733 H 61.851 3.79984 3.01392 0
M  V30 734 H 57.73 2.77239 3.6832 0
M  V30 735 H 61.274 6.1923 3.21247 0
M  V30 736 H 57.171 5.15601 3.88363 0
M  V30 737 H 57.939 7.23127 3.83445 0
M  V30 738 N 60.6021 -1.18246 1.0419 0
M  V30 739 C 62.0181 -1.40269 0.761366 0
M  V30 740 C 62.2181 -1.90777 -0.648578 0
M  V30 741 O 61.2741 -2.0929 -1.41258 0
M  V30 742 C 62.5871 -2.40237 1.8085 0
M  V30 743 C 64.1351 -2.53961 1.82955 0
M  V30 744 C 64.6101 -3.57194 2.86664 0
M  V30 745 N 66.1011 -3.64702 2.85563 0
M  V30 746 C 66.8361 -4.44309 3.6246 0
M  V30 747 N 66.3321 -5.27514 4.49111 0
M  V30 748 N 68.1251 -4.39084 3.50944 0
M  V30 749 H 60.2761 -0.837882 1.95175 0
M  V30 750 H 62.5391 -0.430608 0.84456 0
M  V30 751 H 62.2451 -2.10176 2.81991 0
M  V30 752 H 62.1191 -3.39601 1.64168 0
M  V30 753 H 64.5061 -2.83338 0.824855 0
M  V30 754 H 64.5871 -1.54706 2.03715 0
M  V30 755 H 64.2311 -3.28558 3.87314 0
M  V30 756 H 64.1611 -4.5613 2.6316 0
M  V30 757 H 66.6521 -3.05289 2.22727 0
M  V30 758 H 66.9651 -5.85411 5.04493 0
M  V30 759 H 65.3101 -5.2693 4.53178 0
M  V30 760 H 68.5011 -3.7313 2.82651 0
M  V30 761 H 68.6741 -5.00883 4.11121 0
M  V30 762 N 62.0802 -0.821533 -1.34494 0
M  V30 763 C 63.0272 -0.240397 -2.29545 0
M  V30 764 C 63.9972 0.634031 -1.53523 0
M  V30 765 O 65.1822 0.575966 -1.81899 0
M  V30 766 C 62.3222 0.592869 -3.39969 0
M  V30 767 C 61.4352 -0.30365 -4.30932 0
M  V30 768 C 60.5702 0.539049 -5.28458 0
M  V30 769 C 59.6092 -0.356942 -6.11058 0
M  V30 770 N 58.7462 0.446603 -7.00678 0
M  V30 771 H 63.5862 -1.05632 -2.7865 0
M  V30 772 H 61.1232 -0.532413 -1.37127 0
M  V30 773 H 63.0812 1.09129 -4.02675 0
M  V30 774 H 61.7112 1.37392 -2.92102 0
M  V30 775 H 60.7632 -0.920276 -3.691 0
M  V30 776 H 62.0752 -0.992661 -4.88823 0
M  V30 777 H 61.2292 1.102 -5.96608 0
M  V30 778 H 59.9682 1.26157 -4.71101 0
M  V30 779 H 58.9732 -0.932047 -5.41842 0
M  V30 780 H 60.1982 -1.07755 -6.70497 0
M  V30 781 H 58.1442 1.15282 -6.45791 0
M  V30 782 H 58.0612 -0.184048 -7.55776 0
M  V30 783 H 59.3292 0.992352 -7.73158 0
M  V30 784 N 63.5583 1.46682 -0.576371 0
M  V30 785 C 64.4903 2.28341 0.198231 0
M  V30 786 C 65.5033 1.38141 0.861453 0
M  V30 787 O 66.6923 1.62797 0.732082 0
M  V30 788 C 63.7923 3.12986 1.29972 0
M  V30 789 C 62.9653 4.31271 0.729639 0
M  V30 790 C 62.0243 4.97363 1.71803 0
M  V30 791 O 61.0503 5.55156 1.25658 0
M  V30 792 N 62.2523 4.93796 3.05198 0
M  V30 793 H 65.0173 2.9546 -0.502324 0
M  V30 794 H 62.5783 1.56525 -0.413715 0
M  V30 795 H 64.5703 3.54066 1.96008 0
M  V30 796 H 63.1403 2.47984 1.90323 0
M  V30 797 H 62.3603 3.94052 -0.108012 0
M  V30 798 H 63.6483 5.07739 0.328438 0
M  V30 799 H 63.0463 4.48077 3.45317 0
M  V30 800 H 61.6033 5.38837 3.6674 0
M  V30 801 N 65.0364 0.313813 1.54444 0
M  V30 802 C 66.2824 -0.292108 2.00685 0
M  V30 803 C 66.6154 -1.52548 1.20177 0
M  V30 804 O 65.8904 -1.92452 0.281531 0
M  V30 805 C 66.1734 -0.635968 3.5444 0
M  V30 806 C 66.0264 0.607437 4.4568 0
M  V30 807 C 67.3454 -1.45747 4.15266 0
M  V30 808 H 64.4644 -0.104697 0.729526 0
M  V30 809 H 67.1064 0.428457 1.85106 0
M  V30 810 H 65.2564 -1.24986 3.67846 0
M  V30 811 H 66.9284 1.24581 4.44159 0
M  V30 812 H 65.1714 1.23822 4.15753 0
M  V30 813 H 65.8424 0.322515 5.51057 0
M  V30 814 H 68.3184 -0.938645 4.05375 0
M  V30 815 H 67.1944 -1.66683 5.2298 0
M  V30 816 H 67.4554 -2.45063 3.67963 0
M  V30 817 N 66.5145 -1.57545 0.0417849 0
M  V30 818 C 67.7605 -1.92601 -0.635021 0
M  V30 819 C 68.0935 -0.919627 -1.71045 0
M  V30 820 O 67.3685 0.0557892 -1.9442 0
M  V30 821 C 67.6515 -3.38085 -1.23979 0
M  V30 822 C 67.5045 -4.49467 -0.173057 0
M  V30 823 C 68.8235 -3.83776 -2.15416 0
M  V30 824 H 65.9425 -0.700397 -0.229374 0
M  V30 825 H 68.5845 -1.89728 0.101633 0
M  V30 826 H 66.7345 -3.40664 -1.86762 0
M  V30 827 H 68.4065 -4.59018 0.458312 0
M  V30 828 H 66.6495 -4.30909 0.499996 0
M  V30 829 H 67.3205 -5.48323 -0.636054 0
M  V30 830 H 69.7965 -3.83013 -1.62605 0
M  V30 831 H 68.6725 -4.8624 -2.54679 0
M  V30 832 H 68.9335 -3.19998 -3.05047 0
M  V30 833 N 67.9926 0.231505 -1.5589 0
M  V30 834 C 68.9396 1.28682 -1.91598 0
M  V30 835 C 69.9096 1.47071 -0.771974 0
M  V30 836 O 71.0946 1.60802 -1.027 0
M  V30 837 C 68.2346 2.6342 -2.22944 0
M  V30 838 C 67.3476 2.52912 -3.50228 0
M  V30 839 C 66.4826 3.80106 -3.7107 0
M  V30 840 C 65.5216 3.64279 -4.91902 0
M  V30 841 N 64.6586 4.834 -5.09184 0
M  V30 842 H 69.4986 0.975305 -2.81588 0
M  V30 843 H 67.0356 0.470299 -1.39379 0
M  V30 844 H 68.9936 3.41869 -2.39126 0
M  V30 845 H 67.6236 2.92687 -1.36139 0
M  V30 846 H 66.6756 1.6595 -3.42294 0
M  V30 847 H 67.9876 2.37133 -4.38827 0
M  V30 848 H 67.1416 4.66999 -3.87295 0
M  V30 849 H 65.8806 3.98799 -2.80733 0
M  V30 850 H 64.8856 2.7577 -4.75637 0
M  V30 851 H 66.1106 3.47067 -5.83714 0
M  V30 852 H 64.0566 5.02425 -4.21788 0
M  V30 853 H 63.9736 4.70311 -5.91898 0
M  V30 854 H 65.2416 5.71747 -5.29835 0
M  V30 855 N 69.4707 1.49531 0.497807 0
M  V30 856 C 70.4177 1.66436 1.59899 0
M  V30 857 C 71.3877 0.505793 1.58212 0
M  V30 858 O 72.5727 0.733202 1.7615 0
M  V30 859 C 69.7127 1.7399 2.98029 0
M  V30 860 C 68.8257 3.01172 3.09708 0
M  V30 861 C 67.9607 2.99686 4.38591 0
M  V30 862 C 66.9997 4.21434 4.43914 0
M  V30 863 N 66.1367 4.1784 5.64229 0
M  V30 864 H 70.9767 2.60459 1.44793 0
M  V30 865 H 68.5137 1.29137 0.704423 0
M  V30 866 H 70.4717 1.76352 3.78095 0
M  V30 867 H 69.1017 0.834301 3.11832 0
M  V30 868 H 68.1537 3.08408 2.22685 0
M  V30 869 H 69.4657 3.91165 3.09502 0
M  V30 870 H 68.6197 3.00628 5.2698 0
M  V30 871 H 67.3587 2.07477 4.41367 0
M  V30 872 H 66.3637 4.20733 3.53926 0
M  V30 873 H 67.5887 5.14839 4.42851 0
M  V30 874 H 65.5347 3.28469 5.67841 0
M  V30 875 H 65.4517 5.01571 5.65652 0
M  V30 876 H 66.7197 4.22889 6.54817 0
M  V30 877 N 70.9488 -0.749086 1.3866 0
M  V30 878 C 72.1768 -1.53834 1.38358 0
M  V30 879 C 72.5918 -1.88783 -0.0255219 0
M  V30 880 O 71.9488 -1.53101 -0.993292 0
M  V30 881 C 71.9998 -2.83468 2.2434 0
M  V30 882 O 71.7208 -2.50008 3.5976 0
M  V30 883 C 73.2218 -3.7758 2.32267 0
M  V30 884 H 70.4418 -0.47585 0.473083 0
M  V30 885 H 72.9858 -0.926726 1.82297 0
M  V30 886 H 71.1408 -3.40995 1.83851 0
M  V30 887 H 71.5548 -3.33182 4.05081 0
M  V30 888 H 73.0288 -4.65478 2.96706 0
M  V30 889 H 73.5058 -4.18334 1.33765 0
M  V30 890 H 74.1118 -3.25976 2.73166 0
M  V30 891 N 72.4269 -1.23603 -0.977757 0
M  V30 892 C 73.6759 -1.06377 -1.71368 0
M  V30 893 C 73.9889 0.399062 -1.91486 0
M  V30 894 O 75.1949 0.691312 -2.62551 0
M  V30 895 C 73.6509 -1.85512 -3.08404 0
M  V30 896 C 73.2589 -3.36141 -2.96164 0
M  V30 897 C 75.0029 -1.76783 -3.85938 0
M  V30 898 C 72.9099 -4.07659 -4.28449 0
M  V30 899 H 71.8399 -0.394452 -0.642591 0
M  V30 900 H 74.4909 -1.47594 -1.09034 0
M  V30 901 H 72.8729 -1.37103 -3.71509 0
M  V30 902 H 74.0469 -3.92056 -2.42133 0
M  V30 903 H 72.3619 -3.45712 -2.32104 0
M  V30 904 H 74.9589 -2.27526 -4.83876 0
M  V30 905 H 75.3019 -0.731116 -4.0983 0
M  V30 906 H 75.8349 -2.22818 -3.2954 0
M  V30 907 H 72.5739 -5.11648 -4.09752 0
M  V30 908 H 72.0939 -3.5653 -4.82334 0
M  V30 909 H 73.7729 -4.141 -4.97122 0
M  V30 910 N 73.905 1.17692 -1.04816 0
M  V30 911 C 74.853 2.23632 -0.63966 0
M  V30 912 C 75.847 1.6601 0.337219 0
M  V30 913 O 77.053 1.78844 0.203693 0
M  V30 914 H 73.428 0.727949 -0.188665 0
M  V30 915 H 75.399 2.55387 -1.54337 0
M  V30 916 C 74.148 3.4769 -0.0264051 0
M  V30 917 H 73.471 3.92331 -0.769164 0
M  V30 918 H 74.911 4.23418 0.222098 0
M  V30 919 C 73.37 3.13807 1.22584 0
M  V30 920 O 73.9 3.28236 2.31569 0
M  V30 921 N 72.106 2.68065 1.12202 0
M  V30 922 H 71.653 2.56525 0.235133 0
M  V30 923 H 71.611 2.45767 1.96076 0
M  V30 924 N 75.3831 0.828654 1.34056 0
M  V30 925 C 76.3301 0.252567 2.29414 0
M  V30 926 C 77.3001 -0.62588 1.53857 0
M  V30 927 O 78.4851 -0.566312 1.82202 0
M  V30 928 C 75.6251 -0.574831 3.40279 0
M  V30 929 C 74.7381 0.326499 4.30764 0
M  V30 930 C 73.8731 -0.511016 5.28736 0
M  V30 931 C 72.9121 0.389342 6.1086 0
M  V30 932 N 72.0491 -0.409439 7.00905 0
M  V30 933 H 76.8891 1.07108 2.78086 0
M  V30 934 H 74.4261 0.539677 1.36843 0
M  V30 935 H 76.3841 -1.06992 4.03248 0
M  V30 936 H 75.0141 -1.35841 2.92826 0
M  V30 937 H 74.0661 0.939837 3.68607 0
M  V30 938 H 75.3781 1.01857 4.88289 0
M  V30 939 H 74.5321 -1.07035 5.97184 0
M  V30 940 H 73.2711 -1.23657 4.71763 0
M  V30 941 H 72.2761 0.960769 5.4134 0
M  V30 942 H 73.5011 1.1131 6.69916 0
M  V30 943 H 71.4471 -1.11856 6.46393 0
M  V30 944 H 71.3641 0.224126 7.55668 0
M  V30 945 H 72.6321 -0.951336 7.73673 0
M  V30 946 N 76.8612 -1.46375 0.584142 0
M  V30 947 C 77.8092 -2.32042 -0.161047 0
M  V30 948 C 78.8032 -1.44569 -0.882966 0
M  V30 949 O 80.0092 -1.61186 -0.801191 0
M  V30 950 H 76.3842 -0.748659 -0.0708033 0
M  V30 951 H 78.3552 -2.92704 0.580269 0
M  V30 952 C 77.1042 -3.27762 -1.1605 0
M  V30 953 H 76.4272 -3.95051 -0.614419 0
M  V30 954 H 77.8672 -3.90481 -1.65228 0
M  V30 955 C 76.3262 -2.53218 -2.22221 0
M  V30 956 O 76.8562 -2.29628 -3.29597 0
M  V30 957 N 75.0622 -2.13756 -1.96868 0
M  V30 958 H 74.6092 -2.33142 -1.09557 0
M  V30 959 H 74.5672 -1.642 -2.68115 0
M  V30 960 N 78.3393 -0.321999 -1.54275 0
M  V30 961 C 79.5853 0.281461 -2.00837 0
M  V30 962 C 79.9183 1.51909 -1.20985 0
M  V30 963 O 79.1933 1.923 -0.291733 0
M  V30 964 C 79.4763 0.617162 -3.54772 0
M  V30 965 C 79.3293 -0.631064 -4.45351 0
M  V30 966 C 80.6483 1.43542 -4.16033 0
M  V30 967 H 77.7673 0.100826 -0.730071 0
M  V30 968 H 80.4093 -0.438268 -1.84876 0
M  V30 969 H 78.5593 1.23034 -3.68504 0
M  V30 970 H 80.2313 -1.26934 -4.43492 0
M  V30 971 H 78.4743 -1.26025 -4.15091 0
M  V30 972 H 79.1453 -0.351735 -5.50878 0
M  V30 973 H 81.6213 0.917134 -4.05867 0
M  V30 974 H 80.4973 1.63907 -5.23856 0
M  V30 975 H 80.7583 2.43108 -3.69257 0
M  V30 976 N 79.8174 1.5752 -0.0501392 0
M  V30 977 C 81.0424 1.97376 0.636997 0
M  V30 978 C 81.4674 0.927466 1.63645 0
M  V30 979 O 80.8254 -0.10941 1.8097 0
M  V30 980 C 80.8734 3.36304 1.30123 0
M  V30 981 O 79.9774 3.34156 2.41689 0
M  V30 982 H 79.3184 0.642998 0.165679 0
M  V30 983 H 81.8484 2.04258 -0.118233 0
M  V30 984 H 81.8584 3.73008 1.65315 0
M  V30 985 H 80.5334 4.11993 0.568746 0
M  V30 986 H 79.1104 3.09196 2.08451 0
M  V30 987 N 81.2955 -0.223234 1.56011 0
M  V30 988 C 82.2425 -1.27664 1.92277 0
M  V30 989 C 83.2125 -1.46659 0.779763 0
M  V30 990 O 84.3975 -1.60256 1.03551 0
M  V30 991 C 81.5375 -2.62234 2.24338 0
M  V30 992 C 80.6505 -2.51051 3.51564 0
M  V30 993 C 79.7855 -3.78133 3.7308 0
M  V30 994 C 78.8245 -3.61665 4.93827 0
M  V30 995 N 77.9615 -4.80693 5.11741 0
M  V30 996 H 82.8015 -0.960358 2.82101 0
M  V30 997 H 80.3385 -0.462901 1.39627 0
M  V30 998 H 82.2965 -3.40596 2.40936 0
M  V30 999 H 80.9265 -2.91961 1.3769 0
M  V30 1000 H 79.9785 -1.64132 3.43169 0
M  V30 1001 H 81.2905 -2.34803 4.40079 0
M  V30 1002 H 80.4445 -4.64938 3.89766 0
M  V30 1003 H 79.1835 -3.97304 2.82844 0
M  V30 1004 H 78.1885 -2.73244 4.77093 0
M  V30 1005 H 79.4135 -3.43966 5.85546 0
M  V30 1006 H 77.3595 -5.00181 4.24446 0
M  V30 1007 H 77.2765 -4.67165 5.94384 0
M  V30 1008 H 78.5445 -5.6893 5.3286 0
M  V30 1009 N 82.7736 -1.49793 -0.48987 0
M  V30 1010 C 83.7206 -1.67281 -1.59014 0
M  V30 1011 C 84.6906 -0.514177 -1.57941 0
M  V30 1012 O 85.8756 -0.742533 -1.75759 0
M  V30 1013 C 83.0156 -1.75569 -2.97102 0
M  V30 1014 C 82.1286 -3.0281 -3.08107 0
M  V30 1015 C 81.2636 -3.02008 -4.36995 0
M  V30 1016 C 80.3026 -4.23782 -4.41673 0
M  V30 1017 N 79.4396 -4.20826 -5.62005 0
M  V30 1018 H 84.2796 -2.61224 -1.43409 0
M  V30 1019 H 81.8166 -1.29508 -0.697565 0
M  V30 1020 H 83.7746 -1.78354 -3.77155 0
M  V30 1021 H 82.4046 -0.850827 -3.11385 0
M  V30 1022 H 81.4566 -3.09584 -2.21047 0
M  V30 1023 H 82.7686 -3.92801 -3.07423 0
M  V30 1024 H 81.9226 -3.03418 -5.25378 0
M  V30 1025 H 80.6616 -2.09815 -4.4026 0
M  V30 1026 H 79.6666 -4.22604 -3.5169 0
M  V30 1027 H 80.8916 -5.17181 -4.40115 0
M  V30 1028 H 78.8376 -3.31476 -5.66091 0
M  V30 1029 H 78.7546 -5.04564 -5.62984 0
M  V30 1030 H 80.0226 -4.26355 -6.52565 0
M  V30 1031 N 84.2517 0.741722 -1.39055 0
M  V30 1032 C 85.1987 1.85566 -1.37237 0
M  V30 1033 C 86.1687 1.64457 -0.233072 0
M  V30 1034 O 87.3537 1.85957 -0.427147 0
M  V30 1035 C 84.4937 3.23004 -1.215 0
M  V30 1036 C 83.6067 3.55864 -2.44918 0
M  V30 1037 C 82.7417 4.82669 -2.21821 0
M  V30 1038 C 81.7807 5.08351 -3.40948 0
M  V30 1039 N 80.9177 6.26356 -3.17211 0
M  V30 1040 H 85.7577 1.86455 -2.32462 0
M  V30 1041 H 83.2947 0.911176 -1.15482 0
M  V30 1042 H 85.2527 4.02331 -1.10389 0
M  V30 1043 H 83.8827 3.21411 -0.29908 0
M  V30 1044 H 82.9347 2.7129 -2.66657 0
M  V30 1045 H 84.2467 3.70765 -3.33668 0
M  V30 1046 H 83.4007 5.69962 -2.07914 0
M  V30 1047 H 82.1397 4.69929 -1.30454 0
M  V30 1048 H 81.1447 4.19522 -3.55361 0
M  V30 1049 H 82.3697 5.22981 -4.33207 0
M  V30 1050 H 80.3157 6.14917 -2.28502 0
M  V30 1051 H 80.2327 6.41813 -3.99515 0
M  V30 1052 H 81.5007 7.16506 -3.06984 0
M  V30 1053 N 85.7298 1.2412 0.971189 0
M  V30 1054 C 86.6598 1.05508 2.08304 0
M  V30 1055 C 87.6408 -0.0308864 1.70072 0
M  V30 1056 O 88.8258 0.135521 1.93727 0
M  V30 1057 C 85.9558 0.655365 3.4106 0
M  V30 1058 C 84.9098 1.68971 3.93234 0
M  V30 1059 C 84.2358 1.14516 5.22293 0
M  V30 1060 C 85.5358 3.08487 4.21465 0
M  V30 1061 H 87.2298 1.98507 2.24132 0
M  V30 1062 H 84.7758 0.955821 1.07704 0
M  V30 1063 H 86.7288 0.51217 4.18276 0
M  V30 1064 H 85.4528 -0.31032 3.25122 0
M  V30 1065 H 84.1118 1.82106 3.18171 0
M  V30 1066 H 83.7598 0.170189 5.02712 0
M  V30 1067 H 83.4598 1.83635 5.58168 0
M  V30 1068 H 84.9838 1.01401 6.02121 0
M  V30 1069 H 86.3978 2.98601 4.89398 0
M  V30 1070 H 84.7948 3.74926 4.68562 0
M  V30 1071 H 85.8648 3.56787 3.28376 0
M  V30 1072 N 87.2079 -1.17134 1.05439 0
M  V30 1073 C 88.1379 -2.2342 0.678649 0
M  V30 1074 C 89.1189 -1.66971 -0.32476 0
M  V30 1075 O 90.3039 -1.93149 -0.201802 0
M  V30 1076 C 87.4339 -3.47256 0.0552099 0
M  V30 1077 C 86.3879 -4.16543 0.98365 0
M  V30 1078 C 85.7139 -5.34231 0.223961 0
M  V30 1079 C 87.0139 -4.68495 2.3089 0
M  V30 1080 H 88.7079 -2.55105 1.56722 0
M  V30 1081 H 86.2539 -1.2262 0.754998 0
M  V30 1082 H 88.2069 -4.20828 -0.21946 0
M  V30 1083 H 86.9309 -3.14846 -0.868319 0
M  V30 1084 H 85.5899 -3.44887 1.24293 0
M  V30 1085 H 85.2379 -4.98071 -0.702412 0
M  V30 1086 H 84.9379 -5.81527 0.842627 0
M  V30 1087 H 86.4619 -6.10585 -0.0433671 0
M  V30 1088 H 87.8759 -5.33691 2.09396 0
M  V30 1089 H 86.2729 -5.26379 2.88176 0
M  V30 1090 H 87.3429 -3.85169 2.94572 0
M  V30 1091 N 88.686 -0.835752 -1.33615 0
M  V30 1092 C 89.633 -0.26473 -2.29277 0
M  V30 1093 C 90.603 0.617712 -1.54187 0
M  V30 1094 O 91.788 0.556641 -1.825 0
M  V30 1095 C 88.928 0.556777 -3.40579 0
M  V30 1096 C 88.041 -0.349339 -4.30585 0
M  V30 1097 C 87.176 0.482969 -5.29 0
M  V30 1098 C 86.215 -0.421732 -6.10645 0
M  V30 1099 N 85.352 0.372262 -7.01112 0
M  V30 1100 H 90.192 -1.08582 -2.77514 0
M  V30 1101 H 87.729 -0.546927 -1.36554 0
M  V30 1102 H 89.687 1.04852 -4.03809 0
M  V30 1103 H 88.317 1.34286 -2.93542 0
M  V30 1104 H 87.369 -0.959372 -3.68104 0
M  V30 1105 H 88.681 -1.04445 -4.87742 0
M  V30 1106 H 87.835 1.03866 -5.97743 0
M  V30 1107 H 86.574 1.21153 -4.72412 0
M  V30 1108 H 85.579 -0.989464 -5.40823 0
M  V30 1109 H 86.804 -1.14861 -6.69316 0
M  V30 1110 H 84.75 1.08426 -6.46977 0
M  V30 1111 H 84.667 -0.264198 -7.55538 0
M  V30 1112 H 85.935 0.910293 -7.74167 0
M  V30 1113 N 90.1641 1.46063 -0.591896 0
M  V30 1114 C 91.0741 2.34192 0.13831 0
M  V30 1115 C 92.0901 1.50305 0.876608 0
M  V30 1116 O 93.2661 1.8315 0.837728 0
M  V30 1117 C 90.3311 3.27656 1.13326 0
M  V30 1118 C 89.3921 4.27445 0.39863 0
M  V30 1119 C 88.6251 5.16443 1.34618 0
M  V30 1120 O 88.8481 5.08553 2.58321 0
M  V30 1121 O 87.7821 5.95843 0.851768 0
M  V30 1122 H 91.6081 2.98002 -0.58552 0
M  V30 1123 H 89.1931 1.45188 -0.352239 0
M  V30 1124 H 91.0751 3.85291 1.70671 0
M  V30 1125 H 89.7501 2.6643 1.83839 0
M  V30 1126 H 88.6571 3.73471 -0.216895 0
M  V30 1127 H 89.9901 4.91482 -0.265709 0
M  V30 1128 N 91.6422 0.330177 1.54103 0
M  V30 1129 C 92.5902 -0.548226 2.26047 0
M  V30 1130 C 93.5842 -1.11309 1.27698 0
M  V30 1131 O 94.7902 -1.06036 1.45452 0
M  V30 1132 H 91.1652 -0.195456 0.726155 0
M  V30 1133 H 93.1362 0.0807567 2.98291 0
M  V30 1134 C 91.8852 -1.69415 3.03634 0
M  V30 1135 H 91.2082 -1.26876 3.79134 0
M  V30 1136 H 92.6482 -2.28423 3.5721 0
M  V30 1137 C 91.1072 -2.61569 2.12328 0
M  V30 1138 O 91.6372 -3.63462 1.7105 0
M  V30 1139 N 89.8432 -2.29952 1.77681 0
M  V30 1140 H 89.3902 -1.47134 2.11446 0
M  V30 1141 H 89.3482 -2.91871 1.16869 0
M  V30 1142 N 93.1203 -1.57491 0.0584922 0
M  V30 1143 C 94.3663 -1.93264 -0.614558 0
M  V30 1144 C 94.6993 -0.937717 -1.7006 0
M  V30 1145 O 93.9743 0.0351652 -1.94468 0
M  V30 1146 C 94.2573 -3.3938 -1.20386 0
M  V30 1147 C 94.1103 -4.49625 -0.125375 0
M  V30 1148 C 95.4293 -3.86039 -2.11334 0
M  V30 1149 H 92.5483 -0.702791 -0.221933 0
M  V30 1150 H 95.1903 -1.8961 0.12175 0
M  V30 1151 H 93.3403 -3.42626 -1.83139 0
M  V30 1152 H 95.0123 -4.58506 0.506971 0
M  V30 1153 H 93.2553 -4.30354 0.545672 0
M  V30 1154 H 93.9263 -5.48967 -0.577861 0
M  V30 1155 H 96.4023 -3.84716 -1.58534 0
M  V30 1156 H 95.2783 -4.88914 -2.49507 0
M  V30 1157 H 95.5393 -3.23215 -3.01636 0
M  V30 1158 N 94.5984 0.214957 -1.56127 0
M  V30 1159 C 95.8754 0.963093 -1.70247 0
M  V30 1160 C 96.2554 2.02166 -0.60764 0
M  V30 1161 O 95.6034 2.25244 0.384385 0
M  V30 1162 C 95.8134 1.56756 -3.11815 0
M  V30 1163 C 97.1614 2.0573 -3.7143 0
M  V30 1164 O 98.1854 1.66637 -3.14818 0
M  V30 1165 O 97.0444 2.77603 -4.70743 0
M  V30 1166 H 94.1384 0.450321 -0.693643 0
M  V30 1167 H 96.6844 0.206219 -1.68442 0
M  V30 1168 H 95.4564 0.803533 -3.82961 0
M  V30 1169 H 95.0794 2.3898 -3.17765 0
M  V30 1170 N 96.0765 1.50051 0.48192 0
M  V30 1171 C 97.0235 1.68122 1.58125 0
M  V30 1172 C 97.9935 0.522545 1.57666 0
M  V30 1173 O 99.1785 0.751844 1.75362 0
M  V30 1174 C 96.3185 1.77142 2.96167 0
M  V30 1175 C 95.4315 3.0444 3.06497 0
M  V30 1176 C 94.5665 3.04321 4.35387 0
M  V30 1177 C 93.6055 4.26118 4.3942 0
M  V30 1178 N 92.7425 4.238 5.59766 0
M  V30 1179 H 97.5825 2.6198 1.42022 0
M  V30 1180 H 95.1195 1.29877 0.690687 0
M  V30 1181 H 97.0775 1.80352 3.76203 0
M  V30 1182 H 95.7075 0.867329 3.1093 0
M  V30 1183 H 94.7595 3.10752 2.19402 0
M  V30 1184 H 96.0715 3.94426 3.05336 0
M  V30 1185 H 95.2255 3.062 5.23762 0
M  V30 1186 H 93.9645 2.12147 4.39141 0
M  V30 1187 H 92.9695 4.24463 3.49444 0
M  V30 1188 H 94.1945 5.19507 4.37366 0
M  V30 1189 H 92.1405 3.34474 5.64326 0
M  V30 1190 H 92.0575 5.07542 5.60301 0
M  V30 1191 H 93.3255 4.2981 6.50295 0
M  V30 1192 N 97.5546 -0.734337 1.39446 0
M  V30 1193 C 98.8316 -1.48579 1.27215 0
M  V30 1194 C 99.2116 -2.1077 -0.117968 0
M  V30 1195 O 98.5596 -1.98646 -1.12924 0
M  V30 1196 C 98.7696 -2.53667 2.39696 0
M  V30 1197 C 100.118 -3.20031 2.79044 0
M  V30 1198 O 101.142 -2.6398 2.39151 0
M  V30 1199 O 100.001 -4.21455 3.47905 0
M  V30 1200 H 97.0946 -0.659816 0.49857 0
M  V30 1201 H 99.6406 -0.768106 1.51322 0
M  V30 1202 H 98.4126 -2.06096 3.32626 0
M  V30 1203 H 98.0356 -3.32994 2.17258 0
M  V30 1204 N 99.0327 -1.24633 -0.964593 0
M  V30 1205 C 99.9427 -1.05859 -2.09359 0
M  V30 1206 C 100.959 0.00148855 -1.74 0
M  V30 1207 O 102.135 -0.197346 -2.00431 0
M  V30 1208 C 99.1997 -0.668879 -3.40187 0
M  V30 1209 C 98.2607 -1.80578 -3.89474 0
M  V30 1210 C 97.4937 -1.43457 -5.14058 0
M  V30 1211 O 97.7167 -0.325775 -5.69469 0
M  V30 1212 O 96.6507 -2.2613 -5.57807 0
M  V30 1213 H 100.477 -2.00516 -2.28094 0
M  V30 1214 H 98.0617 -1.03481 -1.0776 0
M  V30 1215 H 99.9437 -0.463211 -4.18846 0
M  V30 1216 H 98.6187 0.248536 -3.22744 0
M  V30 1217 H 97.5257 -2.06623 -3.11862 0
M  V30 1218 H 98.8587 -2.70208 -4.11398 0
M  V30 1219 N 100.511 1.16574 -1.06058 0
M  V30 1220 C 101.458 2.20883 -0.669263 0
M  V30 1221 C 102.428 1.62729 0.332918 0
M  V30 1222 O 103.613 1.895 0.222346 0
M  V30 1223 C 100.753 3.45049 -0.0593572 0
M  V30 1224 C 99.8658 4.17458 -1.11143 0
M  V30 1225 C 99.0008 5.29135 -0.467916 0
M  V30 1226 C 98.0398 5.93343 -1.50369 0
M  V30 1227 N 97.1768 6.96516 -0.883706 0
M  V30 1228 H 102.017 2.53709 -1.5632 0
M  V30 1229 H 99.5538 1.24616 -0.781625 0
M  V30 1230 H 101.512 4.16033 0.311771 0
M  V30 1231 H 100.142 3.12781 0.797992 0
M  V30 1232 H 99.1938 3.45101 -1.60029 0
M  V30 1233 H 100.506 4.61307 -1.89731 0
M  V30 1234 H 99.6598 6.06684 -0.0436871 0
M  V30 1235 H 98.3988 4.86443 0.349864 0
M  V30 1236 H 97.4038 5.14517 -1.93784 0
M  V30 1237 H 98.6288 6.38114 -2.32352 0
M  V30 1238 H 96.5748 6.55943 -0.086595 0
M  V30 1239 H 96.4918 7.38723 -1.607 0
M  V30 1240 H 97.7598 7.77993 -0.484543 0
M  V30 1241 N 101.989 0.842826 1.3317 0
M  V30 1242 C 102.936 0.276885 2.29133 0
M  V30 1243 C 103.906 -0.609527 1.54512 0
M  V30 1244 O 105.091 -0.546955 1.82792 0
M  V30 1245 C 102.231 -0.538707 3.40869 0
M  V30 1246 C 101.344 0.372169 4.30394 0
M  V30 1247 C 100.479 -0.454908 5.29249 0
M  V30 1248 C 99.5179 0.45411 6.10413 0
M  V30 1249 N 98.6549 -0.335075 7.013 0
M  V30 1250 H 103.495 1.10052 2.76934 0
M  V30 1251 H 101.032 0.554161 1.36262 0
M  V30 1252 H 102.99 -1.02709 4.0436 0
M  V30 1253 H 101.62 -1.32727 2.9425 0
M  V30 1254 H 100.672 0.97888 3.6759 0
M  V30 1255 H 101.984 1.0703 4.87182 0
M  V30 1256 H 101.138 -1.00695 5.98285 0
M  V30 1257 H 99.8769 -1.18646 4.73048 0
M  V30 1258 H 98.8819 1.01813 5.40291 0
M  V30 1259 H 100.107 1.18409 6.68697 0
M  V30 1260 H 98.0529 -1.04994 6.47543 0
M  V30 1261 H 97.9699 0.304262 7.55387 0
M  V30 1262 H 99.2379 -0.869224 7.74638 0
M  V30 1263 N 103.467 -1.45747 0.599634 0
M  V30 1264 C 104.414 -2.30467 -0.123849 0
M  V30 1265 C 105.384 -1.41632 -0.86774 0
M  V30 1266 O 106.569 -1.70568 -0.855056 0
M  V30 1267 C 103.709 -3.26402 -1.12051 0
M  V30 1268 C 102.822 -4.3034 -0.37832 0
M  V30 1269 C 101.957 -5.13389 -1.364 0
M  V30 1270 C 100.996 -6.09061 -0.609171 0
M  V30 1271 N 100.133 -6.84918 -1.54374 0
M  V30 1272 H 104.973 -2.91802 0.604627 0
M  V30 1273 H 102.51 -1.43797 0.309972 0
M  V30 1274 H 104.468 -3.80482 -1.7114 0
M  V30 1275 H 103.098 -2.66839 -1.8165 0
M  V30 1276 H 102.15 -3.78984 0.327929 0
M  V30 1277 H 103.462 -4.98354 0.210997 0
M  V30 1278 H 102.616 -5.7183 -2.02719 0
M  V30 1279 H 101.355 -4.45376 -1.98725 0
M  V30 1280 H 100.36 -5.49758 0.0676979 0
M  V30 1281 H 101.585 -6.79099 0.00891991 0
M  V30 1282 H 99.531 -6.19601 -2.15478 0
M  V30 1283 H 99.448 -7.49254 -1.00766 0
M  V30 1284 H 100.716 -7.47906 -2.19676 0
M  V30 1285 N 104.945 -0.338344 -1.53925 0
M  V30 1286 C 105.892 0.520845 -2.24846 0
M  V30 1287 C 106.862 1.09976 -1.24477 0
M  V30 1288 O 108.047 1.13735 -1.53196 0
M  V30 1289 C 105.187 1.6685 -3.02084 0
M  V30 1290 C 104.3 1.11739 -4.17299 0
M  V30 1291 C 103.435 2.23193 -4.82036 0
M  V30 1292 C 102.474 1.65407 -5.89328 0
M  V30 1293 N 101.611 2.70582 -6.47866 0
M  V30 1294 H 106.451 -0.0904881 -2.97863 0
M  V30 1295 H 103.988 -0.0564282 -1.46992 0
M  V30 1296 H 105.946 2.34407 -3.45122 0
M  V30 1297 H 104.576 2.2509 -2.31375 0
M  V30 1298 H 103.628 0.332919 -3.7894 0
M  V30 1299 H 104.94 0.654677 -4.94485 0
M  V30 1300 H 104.094 2.98626 -5.28117 0
M  V30 1301 H 102.833 2.72807 -4.04262 0
M  V30 1302 H 101.838 0.884779 -5.42634 0
M  V30 1303 H 103.063 1.16652 -6.69006 0
M  V30 1304 H 101.009 3.1946 -5.72959 0
M  V30 1305 H 100.926 2.28917 -7.20509 0
M  V30 1306 H 102.194 3.45799 -6.98601 0
M  V30 1307 N 106.423 1.57458 -0.0668435 0
M  V30 1308 C 107.356 2.08033 0.93795 0
M  V30 1309 C 108.334 0.984321 1.29421 0
M  V30 1310 O 109.518 1.25736 1.40437 0
M  V30 1311 C 106.645 2.53388 2.24749 0
M  V30 1312 C 105.691 3.74376 2.04315 0
M  V30 1313 S 106.524 5.19303 1.30706 0
M  V30 1314 C 107.68 5.67986 2.62951 0
M  V30 1315 H 107.913 2.92935 0.50759 0
M  V30 1316 H 105.446 1.5371 0.145804 0
M  V30 1317 H 107.404 2.8018 3.00016 0
M  V30 1318 H 106.065 1.68763 2.64911 0
M  V30 1319 H 105.258 4.04083 3.01218 0
M  V30 1320 H 104.86 3.47931 1.37186 0
M  V30 1321 H 107.152 5.74528 3.5906 0
M  V30 1322 H 108.095 6.66955 2.3786 0
M  V30 1323 H 108.503 4.95781 2.69929 0
M  V30 1324 N 107.901 -0.206675 1.56239 0
M  V30 1325 C 108.848 -1.25617 1.93621 0
M  V30 1326 C 109.818 -1.45824 0.795274 0
M  V30 1327 O 111.003 -1.59148 1.05245 0
M  V30 1328 C 108.143 -2.59839 2.27107 0
M  V30 1329 C 107.256 -2.47308 3.54207 0
M  V30 1330 C 106.391 -3.74155 3.7707 0
M  V30 1331 C 105.43 -3.56407 4.97635 0
M  V30 1332 N 104.567 -4.75238 5.1681 0
M  V30 1333 H 109.407 -0.930383 2.83104 0
M  V30 1334 H 106.944 -0.448065 1.4011 0
M  V30 1335 H 108.902 -3.38021 2.44535 0
M  V30 1336 H 107.532 -2.90485 1.40778 0
M  V30 1337 H 106.584 -1.60483 3.4489 0
M  V30 1338 H 107.896 -2.30122 4.42544 0
M  V30 1339 H 107.05 -4.60778 3.94675 0
M  V30 1340 H 105.789 -3.94282 2.87042 0
M  V30 1341 H 104.794 -2.68168 4.79964 0
M  V30 1342 H 106.019 -3.37736 5.89161 0
M  V30 1343 H 103.965 -4.95651 4.29728 0
M  V30 1344 H 103.882 -4.60835 5.99306 0
M  V30 1345 H 105.15 -5.63246 5.38864 0
M  V30 1346 N 109.379 -1.50304 -0.473955 0
M  V30 1347 C 110.628 -1.60392 -1.22301 0
M  V30 1348 C 110.941 -0.308411 -1.93153 0
M  V30 1349 O 112.147 -0.288156 -2.69966 0
M  V30 1350 C 110.603 -2.83109 -2.2221 0
M  V30 1351 C 110.211 -4.19524 -1.57173 0
M  V30 1352 C 111.955 -3.0254 -2.97775 0
M  V30 1353 C 109.862 -5.33431 -2.55353 0
M  V30 1354 H 108.792 -0.597286 -0.460179 0
M  V30 1355 H 111.443 -1.76731 -0.493803 0
M  V30 1356 H 109.825 -2.60322 -2.9841 0
M  V30 1357 H 110.999 -4.52554 -0.867824 0
M  V30 1358 H 109.314 -4.05674 -0.939002 0
M  V30 1359 H 111.911 -3.84811 -3.71248 0
M  V30 1360 H 112.254 -2.14154 -3.56992 0
M  V30 1361 H 112.787 -3.25494 -2.28688 0
M  V30 1362 H 109.526 -6.23962 -2.00878 0
M  V30 1363 H 109.046 -5.04823 -3.23904 0
M  V30 1364 H 110.725 -5.63887 -3.17239 0
M  V30 1365 N 110.857 0.726932 -1.39834 0
M  V30 1366 C 112.082 1.52121 -1.40976 0
M  V30 1367 C 112.507 1.88098 -0.00826029 0
M  V30 1368 O 111.865 1.52479 0.980807 0
M  V30 1369 C 111.913 2.78021 -2.29644 0
M  V30 1370 O 111.017 3.74272 -1.73188 0
M  V30 1371 H 110.358 0.45908 -0.479731 0
M  V30 1372 H 112.888 0.896207 -1.83927 0
M  V30 1373 H 112.898 3.26671 -2.44438 0
M  V30 1374 H 111.573 2.51169 -3.31492 0
M  V30 1375 H 110.15 3.33073 -1.6768 0
M  V30 1376 N 112.336 1.25143 0.95797 0
M  V30 1377 C 113.585 1.0909 1.69654 0
M  V30 1378 C 113.898 -0.368548 1.92097 0
M  V30 1379 O 115.104 -0.649455 2.63618 0
M  V30 1380 C 113.56 1.90395 3.05414 0
M  V30 1381 C 113.168 3.4081 2.90779 0
M  V30 1382 C 114.912 1.82901 3.83076 0
M  V30 1383 C 112.819 4.14423 4.21909 0
M  V30 1384 H 111.749 0.404625 0.636235 0
M  V30 1385 H 114.4 1.4931 1.06672 0
M  V30 1386 H 112.782 1.42996 3.69281 0
M  V30 1387 H 113.956 3.95859 2.35865 0
M  V30 1388 H 112.271 3.49361 2.26575 0
M  V30 1389 H 114.868 2.35196 4.80195 0
M  V30 1390 H 115.211 0.796224 4.08615 0
M  V30 1391 H 115.744 2.28033 3.25954 0
M  V30 1392 H 112.483 5.18102 4.01561 0
M  V30 1393 H 112.003 3.64159 4.76601 0
M  V30 1394 H 113.682 4.21956 4.90471 0
M  V30 1395 N 113.814 -1.1601 1.06675 0
M  V30 1396 C 115.23 -1.38622 0.790948 0
M  V30 1397 C 115.43 -1.92109 -0.607965 0
M  V30 1398 O 114.486 -2.12239 -1.36787 0
M  V30 1399 C 115.799 -2.36347 1.85905 0
M  V30 1400 C 117.347 -2.50023 1.88301 0
M  V30 1401 C 117.822 -3.51033 2.94176 0
M  V30 1402 N 119.313 -3.58563 2.93235 0
M  V30 1403 C 120.048 -4.36521 3.71803 0
M  V30 1404 N 119.544 -5.17869 4.602 0
M  V30 1405 N 121.337 -4.31541 3.60178 0
M  V30 1406 H 113.488 -0.796294 1.96908 0
M  V30 1407 H 115.751 -0.412597 0.853503 0
M  V30 1408 H 115.457 -2.04147 2.86386 0
M  V30 1409 H 115.331 -3.36042 1.71334 0
M  V30 1410 H 117.718 -2.81524 0.884769 0
M  V30 1411 H 117.799 -1.5035 2.06951 0
M  V30 1412 H 117.443 -3.20268 3.94196 0
M  V30 1413 H 117.373 -4.50445 2.72776 0
M  V30 1414 H 119.864 -3.00496 2.29152 0
M  V30 1415 H 120.177 -5.74578 5.16797 0
M  V30 1416 H 118.522 -5.17199 4.64253 0
M  V30 1417 H 121.713 -3.67051 2.90502 0
M  V30 1418 H 121.886 -4.9205 4.21653 0
M  V30 1419 N 115.292 -0.849877 -1.32721 0
M  V30 1420 C 116.539 -0.450923 -1.97416 0
M  V30 1421 C 116.867 0.992376 -1.67279 0
M  V30 1422 O 116.122 1.71048 -0.950845 0
M  V30 1423 C 116.421 -0.631272 -3.51781 0
M  V30 1424 C 116.087 -2.04432 -4.01894 0
M  V30 1425 C 114.749 -2.4308 -4.1529 0
M  V30 1426 C 117.101 -2.96679 -4.28522 0
M  V30 1427 C 114.429 -3.73257 -4.52654 0
M  V30 1428 C 116.781 -4.26349 -4.67343 0
M  V30 1429 C 115.445 -4.64939 -4.78945 0
M  V30 1430 H 114.715 -0.165004 -0.722395 0
M  V30 1431 H 117.362 -1.07901 -1.58207 0
M  V30 1432 H 115.667 0.0800767 -3.91718 0
M  V30 1433 H 117.364 -0.302709 -3.99856 0
M  V30 1434 H 113.954 -1.73419 -3.91949 0
M  V30 1435 H 118.138 -2.68054 -4.17685 0
M  V30 1436 H 113.394 -4.02946 -4.59831 0
M  V30 1437 H 117.568 -4.97895 -4.86902 0
M  V30 1438 H 115.195 -5.65855 -5.07654 0
M  V30 1439 N 116.77 1.45427 -0.607355 0
M  V30 1440 C 117.717 2.3053 0.111625 0
M  V30 1441 C 118.687 1.4209 0.860216 0
M  V30 1442 O 119.872 1.71019 0.845998 0
M  V30 1443 C 117.012 3.26992 1.10319 0
M  V30 1444 C 116.125 4.30535 0.355493 0
M  V30 1445 C 115.26 5.14105 1.33676 0
M  V30 1446 C 114.299 6.09376 0.576862 0
M  V30 1447 N 113.436 6.85727 1.5074 0
M  V30 1448 H 118.276 2.91477 -0.620093 0
M  V30 1449 H 115.813 1.43631 -0.317594 0
M  V30 1450 H 117.771 3.81385 1.6912 0
M  V30 1451 H 116.401 2.67799 1.80232 0
M  V30 1452 H 115.453 3.78805 -0.348023 0
M  V30 1453 H 116.765 4.98235 -0.237423 0
M  V30 1454 H 115.919 5.72897 1.99684 0
M  V30 1455 H 114.658 4.46423 1.9636 0
M  V30 1456 H 113.663 5.49715 -0.0968519 0
M  V30 1457 H 114.888 6.79085 -0.0449341 0
M  V30 1458 H 112.834 6.20735 2.12189 0
M  V30 1459 H 112.751 7.49778 0.967913 0
M  V30 1460 H 114.019 7.4906 2.15706 0
M  V30 1461 N 118.248 0.346503 1.53744 0
M  V30 1462 C 119.195 -0.508914 2.25119 0
M  V30 1463 C 120.165 -1.09315 1.25058 0
M  V30 1464 O 121.35 -1.12921 1.53797 0
M  V30 1465 C 118.49 -1.65246 3.02965 0
M  V30 1466 C 117.603 -1.09525 4.17886 0
M  V30 1467 C 116.738 -2.20634 4.83212 0
M  V30 1468 C 115.777 -1.62279 5.90196 0
M  V30 1469 N 114.914 -2.67143 6.49291 0
M  V30 1470 H 119.754 0.106283 2.9781 0
M  V30 1471 H 117.291 0.0642227 1.4696 0
M  V30 1472 H 119.249 -2.32574 3.4636 0
M  V30 1473 H 117.879 -2.2386 2.32565 0
M  V30 1474 H 116.931 -0.312818 3.79112 0
M  V30 1475 H 118.243 -0.628444 4.94825 0
M  V30 1476 H 117.397 -2.95821 5.29693 0
M  V30 1477 H 116.136 -2.70659 4.05703 0
M  V30 1478 H 115.141 -0.855989 5.43096 0
M  V30 1479 H 116.366 -1.13102 6.69615 0
M  V30 1480 H 114.312 -3.16417 5.74645 0
M  V30 1481 H 114.229 -2.25093 7.21713 0
M  V30 1482 H 115.497 -3.4209 7.00425 0
M  V30 1483 N 119.726 -1.57421 0.075193 0
M  V30 1484 C 121.137 -1.81021 -0.456964 0
M  V30 1485 C 121.488 -0.98936 -1.69429 0
M  V30 1486 O 120.613 -0.212865 -2.15351 0
M  V30 1487 C 121.208 -3.28329 -0.83581 0
M  V30 1488 C 119.767 -3.52764 -1.31281 0
M  V30 1489 C 118.914 -2.75676 -0.299648 0
M  V30 1490 H 121.865 -1.55822 0.300856 0
M  V30 1491 H 121.886 -3.40564 -1.69696 0
M  V30 1492 H 121.398 -3.88046 0.0649238 0
M  V30 1493 H 119.499 -2.98355 -2.23193 0
M  V30 1494 H 119.612 -4.61451 -1.28839 0
M  V30 1495 H 117.976 -2.42538 -0.777641 0
M  V30 1496 H 118.759 -3.38132 0.593417 0
M  V30 1497 N 121.204 0.198386 -1.56346 0
M  V30 1498 C 122.151 1.24589 -1.94284 0
M  V30 1499 C 123.121 1.454 -0.802997 0
M  V30 1500 O 124.306 1.58588 -1.06087 0
M  V30 1501 C 121.446 2.58631 -2.28482 0
M  V30 1502 C 120.559 2.45426 -3.55514 0
M  V30 1503 C 119.694 3.7215 -3.79049 0
M  V30 1504 C 118.733 3.53763 -4.99518 0
M  V30 1505 N 117.87 4.72491 -5.19323 0
M  V30 1506 H 122.71 0.915356 -2.83593 0
M  V30 1507 H 120.247 0.440629 -1.40346 0
M  V30 1508 H 122.205 3.3672 -2.46324 0
M  V30 1509 H 120.835 2.89734 -1.42317 0
M  V30 1510 H 119.887 1.58652 -3.45737 0
M  V30 1511 H 121.199 2.27772 -4.43758 0
M  V30 1512 H 120.353 4.58679 -3.97113 0
M  V30 1513 H 119.092 3.92754 -2.89129 0
M  V30 1514 H 118.097 2.65619 -4.8138 0
M  V30 1515 H 119.322 3.34607 -5.90944 0
M  V30 1516 H 117.268 4.93365 -4.3235 0
M  V30 1517 H 117.185 4.5765 -6.01741 0
M  V30 1518 H 118.453 5.6038 -5.41843 0
M  V30 1519 N 122.682 1.50554 0.465978 0
M  V30 1520 C 123.91 1.65563 1.24083 0
M  V30 1521 C 124.325 0.341051 1.85694 0
M  V30 1522 O 123.682 -0.677543 1.69457 0
M  V30 1523 C 123.733 2.75051 2.34583 0
M  V30 1524 O 123.454 4.01413 1.75497 0
M  V30 1525 C 124.955 3.01078 3.25372 0
M  V30 1526 H 122.175 0.55638 0.375077 0
M  V30 1527 H 124.719 1.96807 0.555624 0
M  V30 1528 H 122.874 2.46486 2.9887 0
M  V30 1529 H 123.288 4.62002 2.48303 0
M  V30 1530 H 124.762 3.81339 3.99105 0
M  V30 1531 H 125.239 2.12349 3.84453 0
M  V30 1532 H 125.845 3.31194 2.66816 0
M  V30 1533 N 124.16 -0.719506 1.40217 0
M  V30 1534 C 125.09 -1.8465 1.42922 0
M  V30 1535 C 126.071 -1.67599 0.29062 0
M  V30 1536 O 127.256 -1.87688 0.498677 0
M  V30 1537 C 124.386 -3.22565 1.28722 0
M  V30 1538 C 123.34 -3.54281 2.40144 0
M  V30 1539 C 122.666 -4.91298 2.11023 0
M  V30 1540 C 123.966 -3.55676 3.82481 0
M  V30 1541 H 125.66 -1.82644 2.37237 0
M  V30 1542 H 123.206 -0.877305 1.1419 0
M  V30 1543 H 125.159 -4.01095 1.29232 0
M  V30 1544 H 123.883 -3.25137 0.308811 0
M  V30 1545 H 122.542 -2.78088 2.38877 0
M  V30 1546 H 122.19 -4.90468 1.11582 0
M  V30 1547 H 121.89 -5.13485 2.8567 0
M  V30 1548 H 123.414 -5.72166 2.13209 0
M  V30 1549 H 124.828 -4.24254 3.85592 0
M  V30 1550 H 123.225 -3.89388 4.56614 0
M  V30 1551 H 124.295 -2.55144 4.12346 0
M  V30 1552 N 125.638 -1.25649 -0.95132 0
M  V30 1553 C 126.887 -1.09988 -1.69073 0
M  V30 1554 C 127.2 0.358355 -1.92289 0
M  V30 1555 O 128.406 0.635466 -2.63958 0
M  V30 1556 C 126.862 -1.92012 -3.044 0
M  V30 1557 C 126.47 -3.42347 -2.88968 0
M  V30 1558 C 128.214 -1.8493 -3.82101 0
M  V30 1559 C 126.121 -4.16655 -4.19705 0
M  V30 1560 H 125.051 -0.407993 -0.63408 0
M  V30 1561 H 127.702 -1.49873 -1.05879 0
M  V30 1562 H 126.084 -1.44952 -3.68517 0
M  V30 1563 H 127.258 -3.97104 -2.33762 0
M  V30 1564 H 125.573 -3.50557 -2.24719 0
M  V30 1565 H 128.17 -2.37739 -4.78941 0
M  V30 1566 H 128.513 -0.817883 -4.08187 0
M  V30 1567 H 129.046 -2.29758 -3.2474 0
M  V30 1568 H 125.785 -5.20224 -3.98807 0
M  V30 1569 H 125.305 -3.66681 -4.74663 0
M  V30 1570 H 126.984 -4.24551 -4.88227 0
M  V30 1571 N 127.117 1.15442 -1.07289 0
M  V30 1572 C 128.347 1.89821 -0.815576 0
M  V30 1573 C 128.755 1.7823 0.634867 0
M  V30 1574 O 128.098 1.13152 1.44715 0
M  V30 1575 C 128.16 3.40817 -1.14385 0
M  V30 1576 C 127.824 3.76193 -2.59476 0
M  V30 1577 C 128.821 3.77269 -3.57721 0
M  V30 1578 C 126.506 4.0652 -2.95037 0
M  V30 1579 C 128.5 4.08176 -4.89562 0
M  V30 1580 C 126.187 4.37092 -4.27076 0
M  V30 1581 C 127.185 4.37902 -5.24148 0
M  V30 1582 O 126.873 4.67741 -6.53815 0
M  V30 1583 H 126.605 0.608465 -0.294528 0
M  V30 1584 H 129.159 1.472 -1.43252 0
M  V30 1585 H 127.389 3.83835 -0.469865 0
M  V30 1586 H 129.078 3.96485 -0.869179 0
M  V30 1587 H 129.844 3.5394 -3.3159 0
M  V30 1588 H 125.723 4.05049 -2.20128 0
M  V30 1589 H 129.267 4.08723 -5.65324 0
M  V30 1590 H 125.164 4.59889 -4.5296 0
M  V30 1591 H 125.932 4.85509 -6.58957 0
M  V30 1592 N 128.595 0.856903 1.32268 0
M  V30 1593 C 129.558 0.308171 2.27119 0
M  V30 1594 C 130.558 -0.533421 1.51695 0
M  V30 1595 O 131.748 -0.344607 1.70757 0
M  V30 1596 C 128.88 -0.563757 3.36206 0
M  V30 1597 H 130.073 1.14535 2.77167 0
M  V30 1598 H 127.626 0.631421 1.42978 0
M  V30 1599 H 128.361 -1.42266 2.91429 0
M  V30 1600 H 128.146 0.0386749 3.92081 0
M  V30 1601 H 129.636 -0.940386 4.06874 0
M  V30 1602 N 130.073 -1.45103 0.615059 0
M  V30 1603 C 131.489 -1.57137 0.279322 0
M  V30 1604 C 131.689 -1.60523 -1.21797 0
M  V30 1605 O 130.745 -1.53956 -2.00134 0
M  V30 1606 C 132.058 -2.85062 0.957083 0
M  V30 1607 C 133.606 -2.98749 0.933706 0
M  V30 1608 C 134.081 -4.29455 1.59162 0
M  V30 1609 N 135.572 -4.36231 1.55746 0
M  V30 1610 C 136.307 -5.36051 2.0356 0
M  V30 1611 N 135.803 -6.42367 2.59494 0
M  V30 1612 N 137.596 -5.27456 1.94284 0
M  V30 1613 H 129.747 -1.41148 1.58717 0
M  V30 1614 H 132.01 -0.675331 0.665306 0
M  V30 1615 H 131.716 -2.88488 2.01166 0
M  V30 1616 H 131.59 -3.7407 0.48494 0
M  V30 1617 H 133.977 -2.94886 -0.112347 0
M  V30 1618 H 134.058 -2.11132 1.44419 0
M  V30 1619 H 133.702 -4.34077 2.63704 0
M  V30 1620 H 133.632 -5.15901 1.0561 0
M  V30 1621 H 136.123 -3.60011 1.14893 0
M  V30 1622 H 136.436 -7.14793 2.93752 0
M  V30 1623 H 134.781 -6.43097 2.63537 0
M  V30 1624 H 137.972 -4.43308 1.5032 0
M  V30 1625 H 138.145 -6.05099 2.3186 0
M  V30 1626 N 131.551 -0.354651 -1.53558 0
M  V30 1627 C 132.499 0.512195 -2.26891 0
M  V30 1628 C 133.493 1.09263 -1.29452 0
M  V30 1629 O 134.699 1.03709 -1.47121 0
M  V30 1630 H 131.074 0.183878 -0.729173 0
M  V30 1631 H 133.045 -0.128202 -2.98124 0
M  V30 1632 C 131.794 1.64563 -3.06291 0
M  V30 1633 H 131.117 1.20829 -3.81104 0
M  V30 1634 H 132.557 2.22711 -3.60799 0
M  V30 1635 C 131.016 2.58158 -2.16462 0
M  V30 1636 O 131.546 3.60695 -1.76811 0
M  V30 1637 N 129.752 2.27096 -1.81317 0
M  V30 1638 H 129.299 1.43751 -2.1376 0
M  V30 1639 H 129.257 2.89975 -1.21498 0
M  V30 1640 N 133.029 1.57378 -0.0835403 0
M  V30 1641 C 134.44 1.81261 0.447358 0
M  V30 1642 C 134.791 0.998331 1.68902 0
M  V30 1643 O 133.916 0.224282 2.15235 0
M  V30 1644 C 134.511 3.28767 0.818386 0
M  V30 1645 C 133.07 3.53455 1.29409 0
M  V30 1646 C 132.217 2.75831 0.285024 0
M  V30 1647 H 135.168 1.5566 -0.309115 0
M  V30 1648 H 135.189 3.41459 1.67887 0
M  V30 1649 H 134.701 3.88006 -0.0855019 0
M  V30 1650 H 132.802 2.99534 2.21608 0
M  V30 1651 H 132.915 4.62128 1.2639 0
M  V30 1652 H 131.279 2.42947 0.764767 0
M  V30 1653 H 132.062 3.37813 -0.611341 0
M  V30 1654 N 134.507 -0.190092 1.56449 0
M  V30 1655 C 135.454 -1.23557 1.94942 0
M  V30 1656 C 136.424 -1.44972 0.810696 0
M  V30 1657 O 137.609 -1.58023 1.06927 0
M  V30 1658 C 134.749 -2.57416 2.2985 0
M  V30 1659 C 133.862 -2.43537 3.5681 0
M  V30 1660 C 132.997 -3.70134 3.81017 0
M  V30 1661 C 132.036 -3.51109 5.01387 0
M  V30 1662 N 131.173 -4.6973 5.21822 0
M  V30 1663 H 136.013 -0.900304 2.84075 0
M  V30 1664 H 133.55 -0.43318 1.40577 0
M  V30 1665 H 135.508 -3.35409 2.48106 0
M  V30 1666 H 134.138 -2.88975 1.43852 0
M  V30 1667 H 133.19 -1.56816 3.46573 0
M  V30 1668 H 134.502 -2.25415 4.4496 0
M  V30 1669 H 133.656 -4.56566 3.9954 0
M  V30 1670 H 132.395 -3.91215 2.91207 0
M  V30 1671 H 131.4 -2.63063 4.82782 0
M  V30 1672 H 132.625 -3.31468 5.9271 0
M  V30 1673 H 130.571 -4.91065 4.34961 0
M  V30 1674 H 130.488 -4.54452 6.0416 0
M  V30 1675 H 131.756 -5.57499 5.44808 0
M  V30 1676 N 135.985 -1.50799 -0.457987 0
M  V30 1677 C 137.225 -1.64088 -1.21879 0
M  V30 1678 C 137.589 -0.339848 -1.88968 0
M  V30 1679 O 138.79 -0.348301 -2.66534 0
M  V30 1680 C 137.061 -2.79726 -2.2246 0
M  V30 1681 S 138.62 -3.13225 -3.07303 0
M  V30 1682 H 135.438 -0.578314 -0.41361 0
M  V30 1683 H 138.04 -1.88632 -0.513645 0
M  V30 1684 H 136.744 -3.72722 -1.71775 0
M  V30 1685 H 136.275 -2.57308 -2.97584 0
M  V30 1686 H 138.29 -2.58062 -4.23814 0
M  V30 1687 N 137.463 0.71206 -1.40597 0
M  V30 1688 C 138.874 1.29135 -1.34837 0
M  V30 1689 C 139.225 1.96186 -0.0235395 0
M  V30 1690 O 138.35 1.97768 0.878444 0
M  V30 1691 C 138.945 2.34827 -2.44217 0
M  V30 1692 C 137.504 2.88371 -2.41907 0
M  V30 1693 C 136.651 1.62202 -2.24913 0
M  V30 1694 H 139.602 0.507944 -1.50352 0
M  V30 1695 H 139.623 3.15749 -2.12327 0
M  V30 1696 H 139.135 1.85996 -3.40627 0
M  V30 1697 H 137.236 3.41422 -1.49204 0
M  V30 1698 H 137.349 3.39925 -3.37621 0
M  V30 1699 H 135.713 1.874 -1.72492 0
M  V30 1700 H 136.496 1.15391 -3.23326 0
M  V30 1701 N 138.941 1.26152 0.944643 0
M  V30 1702 C 140.357 1.03189 1.21754 0
M  V30 1703 C 140.557 -0.245112 2.00004 0
M  V30 1704 O 139.613 -0.955176 2.33736 0
M  V30 1705 C 140.926 2.26119 1.98219 0
M  V30 1706 C 142.474 2.30984 2.11224 0
M  V30 1707 C 142.949 3.53597 2.91089 0
M  V30 1708 N 144.44 3.54053 2.98664 0
M  V30 1709 C 145.175 4.45593 3.60881 0
M  V30 1710 N 144.671 5.47416 4.24626 0
M  V30 1711 N 146.464 4.33252 3.58119 0
M  V30 1712 H 138.615 2.08177 0.421437 0
M  V30 1713 H 140.878 0.914723 0.248969 0
M  V30 1714 H 140.584 3.18984 1.48128 0
M  V30 1715 H 140.458 2.3009 2.98895 0
M  V30 1716 H 142.845 1.38635 2.60508 0
M  V30 1717 H 142.926 2.31026 1.09821 0
M  V30 1718 H 142.57 4.46273 2.42493 0
M  V30 1719 H 142.5 3.50802 3.92741 0
M  V30 1720 H 144.991 2.80403 2.53343 0
M  V30 1721 H 145.304 6.13459 4.69987 0
M  V30 1722 H 143.649 5.51278 4.23223 0
M  V30 1723 H 146.84 3.52924 3.0751 0
M  V30 1724 H 147.013 5.04786 4.06319 0
M  V30 1725 N 140.419 -1.14872 1.07899 0
M  V30 1726 C 141.668 -1.85135 0.800499 0
M  V30 1727 C 141.981 -1.83547 -0.676014 0
M  V30 1728 O 143.187 -2.49548 -1.06948 0
M  V30 1729 C 141.643 -3.3231 1.38197 0
M  V30 1730 C 141.251 -3.42329 2.8899 0
M  V30 1731 C 142.995 -4.0772 1.18174 0
M  V30 1732 C 140.902 -4.83684 3.403 0
M  V30 1733 H 139.832 -0.693563 0.29578 0
M  V30 1734 H 142.483 -1.29532 1.29976 0
M  V30 1735 H 140.865 -3.87618 0.810431 0
M  V30 1736 H 142.039 -2.97097 3.52236 0
M  V30 1737 H 140.354 -2.80369 3.07867 0
M  V30 1738 H 142.951 -5.12049 1.5398 0
M  V30 1739 H 143.294 -4.16124 0.12117 0
M  V30 1740 H 143.827 -3.58696 1.71994 0
M  V30 1741 H 140.566 -4.80465 4.45907 0
M  V30 1742 H 140.086 -5.29474 2.81811 0
M  V30 1743 H 141.765 -5.52558 3.36584 0
M  V30 1744 N 141.898 -0.863906 -1.31812 0
M  V30 1745 C 143.144 -0.472535 -1.97218 0
M  V30 1746 C 143.477 0.971394 -1.68159 0
M  V30 1747 O 142.752 1.68309 -0.974798 0
M  V30 1748 C 143.035 -0.723054 -3.52766 0
M  V30 1749 C 142.888 -2.21608 -3.91421 0
M  V30 1750 C 144.207 -0.185522 -4.39709 0
M  V30 1751 H 141.326 -0.173158 -0.71637 0
M  V30 1752 H 143.968 -1.08403 -1.56041 0
M  V30 1753 H 142.118 -0.202577 -3.87971 0
M  V30 1754 H 143.79 -2.80334 -3.66347 0
M  V30 1755 H 142.033 -2.691 -3.40246 0
M  V30 1756 H 142.704 -2.34203 -4.99853 0
M  V30 1757 H 145.18 -0.630726 -4.11292 0
M  V30 1758 H 144.056 -0.390306 -5.47511 0
M  V30 1759 H 144.317 0.912229 -4.32586 0
M  V30 1760 N 143.376 1.44774 -0.622745 0
M  V30 1761 C 144.323 2.30635 0.0871679 0
M  V30 1762 C 145.293 1.42994 0.845097 0
M  V30 1763 O 146.478 1.71907 0.827812 0
M  V30 1764 C 143.618 3.28144 1.06844 0
M  V30 1765 C 142.731 4.30888 0.309809 0
M  V30 1766 C 141.866 5.15494 1.28215 0
M  V30 1767 C 140.905 6.09953 0.512198 0
M  V30 1768 N 140.042 6.87287 1.43458 0
M  V30 1769 H 144.882 2.90803 -0.650974 0
M  V30 1770 H 142.419 1.43286 -0.33281 0
M  V30 1771 H 144.377 3.83157 1.65066 0
M  V30 1772 H 143.007 2.69695 1.77382 0
M  V30 1773 H 142.059 3.78414 -0.388181 0
M  V30 1774 H 143.371 4.97955 -0.290254 0
M  V30 1775 H 142.525 5.74983 1.93596 0
M  V30 1776 H 141.264 4.48481 1.91614 0
M  V30 1777 H 140.269 5.49581 -0.155151 0
M  V30 1778 H 141.494 6.78999 -0.116958 0
M  V30 1779 H 139.44 6.2295 2.05594 0
M  V30 1780 H 139.357 7.50763 0.888335 0
M  V30 1781 H 140.625 7.51306 2.07749 0
M  V30 1782 N 144.854 0.36279 1.53368 0
M  V30 1783 C 146.079 -0.231226 2.06107 0
M  V30 1784 C 146.504 -1.419 1.23474 0
M  V30 1785 O 145.862 -1.79524 0.253128 0
M  V30 1786 C 145.91 -0.605523 3.5548 0
M  V30 1787 O 145.014 -1.70312 3.7559 0
M  V30 1788 H 144.355 -0.034327 0.663112 0
M  V30 1789 H 146.885 0.522584 1.97814 0
M  V30 1790 H 146.895 -0.877314 3.98456 0
M  V30 1791 H 145.57 0.263004 4.15068 0
M  V30 1792 H 144.147 -1.4271 3.44512 0
M  V30 1793 N 146.332 -1.57332 0.0918853 0
M  V30 1794 C 147.572 -1.96117 -0.575988 0
M  V30 1795 C 147.936 -0.972499 -1.65549 0
M  V30 1796 O 149.137 -1.24872 -2.38034 0
M  V30 1797 C 147.408 -3.39407 -1.11973 0
M  V30 1798 S 148.967 -4.00185 -1.79992 0
M  V30 1799 H 145.785 -0.685682 -0.188045 0
M  V30 1800 H 148.387 -1.94755 0.170525 0
M  V30 1801 H 147.091 -4.09131 -0.322504 0
M  V30 1802 H 146.622 -3.44358 -1.90214 0
M  V30 1803 H 148.637 -3.88728 -3.08391 0
M  V30 1804 N 147.81 0.181792 -1.56548 0
M  V30 1805 C 148.76 1.22961 -1.92002 0
M  V30 1806 C 149.744 1.40331 -0.787146 0
M  V30 1807 O 150.936 1.42478 -1.05019 0
M  V30 1808 C 148.065 2.57144 -2.27446 0
M  V30 1809 C 147.151 2.43512 -3.47222 0
M  V30 1810 N 147.542 1.99577 -4.64761 0
M  V30 1811 C 145.84 2.74368 -3.51622 0
M  V30 1812 C 146.541 1.98156 -5.46909 0
M  V30 1813 N 145.517 2.40164 -4.8767 0
M  V30 1814 H 149.319 0.881462 -2.8037 0
M  V30 1815 H 146.833 0.390141 -1.57644 0
M  V30 1816 H 148.83 3.32847 -2.51035 0
M  V30 1817 H 147.49 2.92771 -1.40411 0
M  V30 1818 H 148.501 1.70078 -4.89177 0
M  V30 1819 H 145.178 3.14102 -2.75038 0
M  V30 1820 H 146.568 1.65975 -6.51077 0
M  V30 1821 N 149.288 1.51039 0.449983 0
M  V30 1822 C 150.513 1.6715 1.22783 0
M  V30 1823 C 150.938 0.363081 1.84563 0
M  V30 1824 O 150.296 -0.675433 1.68249 0
M  V30 1825 C 150.344 2.77985 2.29689 0
M  V30 1826 O 149.448 2.40707 3.34864 0
M  V30 1827 H 148.789 0.557746 0.360299 0
M  V30 1828 H 151.319 1.97535 0.533005 0
M  V30 1829 H 151.329 3.01693 2.74673 0
M  V30 1830 H 150.004 3.72935 1.84098 0
M  V30 1831 H 148.581 2.27523 2.95445 0
M  V30 1832 N 150.766 -0.704594 1.40972 0
M  V30 1833 C 151.713 -1.81862 1.42109 0
M  V30 1834 C 152.683 -1.63781 0.276593 0
M  V30 1835 O 153.868 -1.84759 0.4763 0
M  V30 1836 C 151.008 -3.19669 1.30022 0
M  V30 1837 C 150.121 -3.49246 2.54267 0
M  V30 1838 C 149.256 -4.76618 2.3454 0
M  V30 1839 C 148.295 -4.99133 3.54306 0
M  V30 1840 N 147.432 -6.17726 3.33706 0
M  V30 1841 H 152.272 -1.80226 2.37324 0
M  V30 1842 H 149.809 -0.880238 1.17857 0
M  V30 1843 H 151.767 -3.99263 1.21018 0
M  V30 1844 H 150.397 -3.20506 0.384192 0
M  V30 1845 H 149.449 -2.64125 2.73756 0
M  V30 1846 H 150.761 -3.61788 3.43381 0
M  V30 1847 H 149.915 -5.64249 2.22952 0
M  V30 1848 H 148.654 -4.66305 1.42867 0
M  V30 1849 H 147.659 -4.09953 3.66359 0
M  V30 1850 H 148.884 -5.11311 4.4692 0
M  V30 1851 H 146.83 -6.08642 2.44725 0
M  V30 1852 H 146.747 -6.30995 4.16391 0
M  V30 1853 H 148.015 -7.08115 3.25873 0
M  V30 1854 N 152.244 -1.26651 -0.937939 0
M  V30 1855 C 153.472 -1.15173 -1.7188 0
M  V30 1856 C 153.887 0.292668 -1.86518 0
M  V30 1857 O 153.244 1.20014 -1.37488 0
M  V30 1858 C 153.295 -1.81925 -3.12387 0
M  V30 1859 O 153.016 -3.2072 -2.98446 0
M  V30 1860 C 154.517 -1.76442 -4.06673 0
M  V30 1861 H 151.737 -0.400911 -0.538063 0
M  V30 1862 H 154.281 -1.67332 -1.1756 0
M  V30 1863 H 152.436 -1.33696 -3.63599 0
M  V30 1864 H 152.85 -3.53802 -3.872 0
M  V30 1865 H 154.324 -2.27781 -5.02812 0
M  V30 1866 H 154.801 -0.731608 -4.33064 0
M  V30 1867 H 155.407 -2.24238 -3.61382 0
M  V30 1868 N 153.722 1.14298 -1.08507 0
M  V30 1869 C 154.652 2.21542 -0.737646 0
M  V30 1870 C 155.633 1.67773 0.280377 0
M  V30 1871 O 156.818 1.93616 0.150521 0
M  V30 1872 C 153.948 3.46988 -0.147259 0
M  V30 1873 C 152.902 4.13789 -1.09374 0
M  V30 1874 C 152.228 5.33449 -0.365524 0
M  V30 1875 C 153.528 4.62208 -2.4323 0
M  V30 1876 H 155.222 2.5086 -1.6343 0
M  V30 1877 H 152.768 1.20576 -0.787243 0
M  V30 1878 H 154.721 4.21262 0.107808 0
M  V30 1879 H 153.445 3.17037 0.784538 0
M  V30 1880 H 152.104 3.4147 -1.33393 0
M  V30 1881 H 151.752 4.99759 0.57011 0
M  V30 1882 H 151.452 5.79088 -0.996512 0
M  V30 1883 H 152.976 6.10485 -0.118534 0
M  V30 1884 H 154.39 5.27952 -2.23472 0
M  V30 1885 H 152.787 5.18553 -3.02031 0
M  V30 1886 H 153.857 3.77224 -3.04681 0
M  V30 1887 N 155.201 0.870884 1.31352 0
M  V30 1888 C 156.478 0.402907 1.91405 0
M  V30 1889 C 156.858 -1.11512 1.79244 0
M  V30 1890 O 156.206 -1.94411 1.2007 0
M  V30 1891 C 156.416 0.885301 3.37585 0
M  V30 1892 C 157.764 0.911971 4.14691 0
M  V30 1893 O 158.788 0.831016 3.46371 0
M  V30 1894 O 157.647 1.02927 5.3672 0
M  V30 1895 H 154.741 0.120698 0.818145 0
M  V30 1896 H 157.287 0.958857 1.40014 0
M  V30 1897 H 156.059 1.92889 3.40455 0
M  V30 1898 H 155.682 0.307714 3.96407 0
M  V30 1899 N 156.679 -1.44442 0.630414 0
M  V30 1900 C 157.626 -2.30678 -0.0749355 0
M  V30 1901 C 158.596 -1.4344 -0.837502 0
M  V30 1902 O 159.781 -1.72343 -0.818684 0
M  V30 1903 C 156.921 -3.28706 -1.05103 0
M  V30 1904 C 156.034 -4.31046 -0.286954 0
M  V30 1905 C 155.169 -5.16167 -1.2548 0
M  V30 1906 C 154.208 -6.10216 -0.479843 0
M  V30 1907 N 153.345 -6.88039 -1.39811 0
M  V30 1908 H 158.185 -2.90454 0.666386 0
M  V30 1909 H 155.722 -1.43107 0.340404 0
M  V30 1910 H 157.68 -3.84027 -1.63031 0
M  V30 1911 H 156.31 -2.70632 -1.75949 0
M  V30 1912 H 155.362 -3.78203 0.408243 0
M  V30 1913 H 156.674 -4.97794 0.316657 0
M  V30 1914 H 155.828 -5.76002 -1.90544 0
M  V30 1915 H 154.567 -4.49491 -1.89233 0
M  V30 1916 H 153.572 -5.49491 0.184295 0
M  V30 1917 H 154.797 -6.78928 0.152965 0
M  V30 1918 H 152.743 -6.24032 -2.02287 0
M  V30 1919 H 152.66 -7.51223 -0.848508 0
M  V30 1920 H 153.928 -7.52397 -2.03762 0
M  V30 1921 N 158.157 -0.370918 -1.53173 0
M  V30 1922 C 159.387 0.217389 -2.05453 0
M  V30 1923 C 159.795 1.42568 -1.24382 0
M  V30 1924 O 159.138 1.81571 -0.278839 0
M  V30 1925 C 159.2 0.669827 -3.53205 0
M  V30 1926 C 158.864 -0.4225 -4.55043 0
M  V30 1927 C 159.861 -1.27407 -5.04047 0
M  V30 1928 C 157.546 -0.58427 -4.9889 0
M  V30 1929 C 159.54 -2.27271 -5.95505 0
M  V30 1930 C 157.227 -1.58627 -5.90153 0
M  V30 1931 C 158.225 -2.42892 -6.38351 0
M  V30 1932 O 157.913 -3.41382 -7.27814 0
M  V30 1933 H 157.645 0.0408171 -0.674767 0
M  V30 1934 H 160.199 -0.5292 -1.98466 0
M  V30 1935 H 158.429 1.4681 -3.57748 0
M  V30 1936 H 160.118 1.18173 -3.88317 0
M  V30 1937 H 160.884 -1.16031 -4.70916 0
M  V30 1938 H 156.763 0.061851 -4.60959 0
M  V30 1939 H 160.307 -2.93079 -6.33049 0
M  V30 1940 H 156.204 -1.70048 -6.22699 0
M  V30 1941 H 156.972 -3.37173 -7.45826 0
M  V30 1942 N 159.635 1.57281 -0.100228 0
M  V30 1943 C 160.883 1.94153 0.561157 0
M  V30 1944 C 161.204 0.983157 1.68401 0
M  V30 1945 O 160.474 0.0361132 1.95867 0
M  V30 1946 H 159.054 0.716791 0.210283 0
M  V30 1947 H 161.716 1.94202 -0.164765 0
M  V30 1948 H 160.812 2.96709 0.968008 0
M  V30 1949 N 161.113 -0.173488 1.56642 0
M  V30 1950 C 162.043 -1.2171 1.99271 0
M  V30 1951 C 163.024 -1.46289 0.867959 0
M  V30 1952 O 164.209 -1.5766 1.13388 0
M  V30 1953 C 161.339 -2.55651 2.35074 0
M  V30 1954 C 160.293 -2.45645 3.50489 0
M  V30 1955 C 159.619 -3.84056 3.72028 0
M  V30 1956 C 160.919 -1.96302 4.84007 0
M  V30 1957 H 162.613 -0.86275 2.867 0
M  V30 1958 H 160.159 -0.413571 1.37933 0
M  V30 1959 H 162.112 -3.2886 2.63494 0
M  V30 1960 H 160.836 -2.92869 1.44552 0
M  V30 1961 H 159.495 -1.7489 3.22194 0
M  V30 1962 H 159.143 -4.18664 2.788 0
M  V30 1963 H 158.843 -3.7823 4.49684 0
M  V30 1964 H 160.367 -4.58854 4.02846 0
M  V30 1965 H 161.781 -2.59284 5.11317 0
M  V30 1966 H 160.178 -2.01429 5.65284 0
M  V30 1967 H 161.248 -0.917226 4.76146 0
M  V30 1968 N 162.591 -1.51276 -0.441967 0
M  V30 1969 C 163.84 -1.6295 -1.18871 0
M  V30 1970 C 164.153 -0.349312 -1.92456 0
M  V30 1971 O 165.359 -0.345355 -2.69295 0
M  V30 1972 C 163.815 -2.87759 -2.16155 0
M  V30 1973 C 163.423 -4.22764 -1.48239 0
M  V30 1974 C 165.167 -3.08788 -2.91291 0
M  V30 1975 C 163.074 -5.38728 -2.4398 0
M  V30 1976 H 162.004 -0.606913 -0.447406 0
M  V30 1977 H 164.655 -1.77739 -0.456205 0
M  V30 1978 H 163.037 -2.66593 -2.92821 0
M  V30 1979 H 164.211 -4.54293 -0.771635 0
M  V30 1980 H 162.526 -4.07575 -0.852741 0
M  V30 1981 H 165.123 -3.92599 -3.63002 0
M  V30 1982 H 165.466 -2.21679 -3.5237 0
M  V30 1983 H 165.999 -3.30272 -2.21733 0
M  V30 1984 H 162.738 -6.28082 -1.87598 0
M  V30 1985 H 162.258 -5.1158 -3.13123 0
M  V30 1986 H 163.937 -5.70489 -3.05207 0
M  V30 1987 N 164.069 0.697108 -1.41344 0
M  V30 1988 C 165.016 1.81106 -1.43071 0
M  V30 1989 C 165.986 1.63632 -0.285275 0
M  V30 1990 O 167.171 1.84504 -0.486091 0
M  V30 1991 C 164.311 3.18975 -1.31715 0
M  V30 1992 C 163.424 3.47892 -2.56115 0
M  V30 1993 C 162.559 4.75367 -2.37064 0
M  V30 1994 C 161.598 4.97247 -3.56948 0
M  V30 1995 N 160.735 6.15947 -3.36977 0
M  V30 1996 H 165.575 1.78965 -2.38276 0
M  V30 1997 H 163.112 0.873975 -1.18322 0
M  V30 1998 H 165.07 3.98615 -1.23133 0
M  V30 1999 H 163.7 3.20297 -0.401183 0
M  V30 2000 H 162.752 2.62669 -2.75153 0
M  V30 2001 H 164.064 3.59962 -3.45295 0
M  V30 2002 H 163.218 5.63059 -2.25941 0
M  V30 2003 H 161.957 4.65541 -1.45338 0
M  V30 2004 H 160.962 4.08004 -3.68527 0
M  V30 2005 H 162.187 5.08934 -4.49626 0
M  V30 2006 H 160.133 6.07336 -2.47949 0
M  V30 2007 H 160.05 6.28777 -4.19732 0
M  V30 2008 H 161.318 7.06377 -3.29623 0
M  V30 2009 N 165.547 1.27147 0.931209 0
M  V30 2010 C 166.777 1.15914 1.71019 0
M  V30 2011 C 167.185 -0.287112 1.87009 0
M  V30 2012 O 166.528 -1.20761 1.38429 0
M  V30 2013 C 166.59 1.76647 3.13107 0
M  V30 2014 C 166.254 3.25807 3.20467 0
M  V30 2015 C 167.251 4.22489 3.02983 0
M  V30 2016 C 164.936 3.66452 3.43538 0
M  V30 2017 C 166.93 5.57794 3.08454 0
M  V30 2018 C 164.617 5.01888 3.48643 0
M  V30 2019 C 165.615 5.97369 3.31119 0
M  V30 2020 O 165.303 7.30337 3.35952 0
M  V30 2021 H 165.035 0.404062 0.54195 0
M  V30 2022 H 167.589 1.68457 1.17521 0
M  V30 2023 H 165.819 1.18578 3.68071 0
M  V30 2024 H 167.508 1.60179 3.72958 0
M  V30 2025 H 168.274 3.92425 2.85004 0
M  V30 2026 H 164.153 2.92611 3.5623 0
M  V30 2027 H 167.697 6.32298 2.94694 0
M  V30 2028 H 163.594 5.31609 3.66145 0
M  V30 2029 H 164.362 7.38739 3.5243 0
M  V30 2030 N 167.025 -1.13721 1.09112 0
M  V30 2031 C 168.436 -1.6648 0.845068 0
M  V30 2032 C 168.787 -1.85911 -0.62701 0
M  V30 2033 O 167.912 -1.57556 -1.48341 0
M  V30 2034 C 168.507 -3.02413 1.52748 0
M  V30 2035 C 167.066 -3.52176 1.32849 0
M  V30 2036 C 166.213 -2.27492 1.58564 0
M  V30 2037 H 169.164 -0.976872 1.25072 0
M  V30 2038 H 169.185 -3.68223 0.958752 0
M  V30 2039 H 168.697 -2.88238 2.59885 0
M  V30 2040 H 166.798 -3.7156 0.278137 0
M  V30 2041 H 166.911 -4.32499 2.0611 0
M  V30 2042 H 165.275 -2.33923 1.00758 0
M  V30 2043 H 166.058 -2.15886 2.66924 0
M  V30 2044 N 168.503 -0.877838 -1.30888 0
M  V30 2045 C 169.433 -0.35534 -2.3078 0
M  V30 2046 C 170.414 0.557994 -1.60687 0
M  V30 2047 O 171.599 0.473355 -1.88343 0
M  V30 2048 C 168.729 0.437221 -3.44537 0
M  V30 2049 C 167.683 -0.383715 -4.26276 0
M  V30 2050 C 167.009 0.535014 -5.32017 0
M  V30 2051 C 168.309 -1.62201 -4.96476 0
M  V30 2052 H 170.003 -1.19007 -2.74732 0
M  V30 2053 H 167.549 -0.573698 -1.32078 0
M  V30 2054 H 169.502 0.813334 -4.13477 0
M  V30 2055 H 168.226 1.30553 -2.99372 0
M  V30 2056 H 166.885 -0.741874 -3.59015 0
M  V30 2057 H 166.533 1.40083 -4.831 0
M  V30 2058 H 166.233 -0.0104211 -5.87599 0
M  V30 2059 H 167.757 0.907799 -6.03814 0
M  V30 2060 H 169.171 -1.31689 -5.5797 0
M  V30 2061 H 167.568 -2.10711 -5.61891 0
M  V30 2062 H 168.638 -2.37044 -4.23011 0
M  V30 2063 N 169.982 1.44106 -0.638065 0
M  V30 2064 C 171.21 2.06336 -0.152615 0
M  V30 2065 C 171.625 1.47731 1.17563 0
M  V30 2066 O 170.982 0.602806 1.72257 0
M  V30 2067 C 171.033 3.61479 -0.0391491 0
M  V30 2068 O 170.754 4.17903 -1.31487 0
M  V30 2069 C 172.255 4.40757 0.474176 0
M  V30 2070 H 169.475 0.665862 -0.0828776 0
M  V30 2071 H 172.019 1.84862 -0.87443 0
M  V30 2072 H 170.174 3.82191 0.633142 0
M  V30 2073 H 170.588 5.11416 -1.16421 0
M  V30 2074 H 172.062 5.49707 0.502562 0
M  V30 2075 H 172.539 4.12697 1.50258 0
M  V30 2076 H 173.145 4.24979 -0.165102 0
M  V30 2077 N 171.46 0.379036 1.52974 0
M  V30 2078 C 172.685 -0.209353 2.06341 0
M  V30 2079 C 173.11 -1.40583 1.24972 0
M  V30 2080 O 172.468 -1.79246 0.272155 0
M  V30 2081 C 172.516 -0.567786 3.56102 0
M  V30 2082 O 171.62 -1.66318 3.77375 0
M  V30 2083 H 170.961 -0.0272919 0.663439 0
M  V30 2084 H 173.491 0.543536 1.97248 0
M  V30 2085 H 173.501 -0.835003 3.99364 0
M  V30 2086 H 172.176 0.307013 4.14765 0
M  V30 2087 H 170.753 -1.39048 3.46006 0
M  V30 2088 N 172.938 -1.57226 0.108567 0
M  V30 2089 C 173.848 -2.18292 -0.859401 0
M  V30 2090 C 174.864 -1.15612 -1.30038 0
M  V30 2091 O 176.04 -1.48039 -1.36552 0
M  V30 2092 C 173.105 -2.762 -2.09558 0
M  V30 2093 C 172.166 -3.93881 -1.70752 0
M  V30 2094 C 171.399 -4.49018 -2.88477 0
M  V30 2095 O 171.622 -4.03068 -4.036 0
M  V30 2096 O 170.556 -5.39852 -2.66164 0
M  V30 2097 H 174.382 -3.01441 -0.369769 0
M  V30 2098 H 171.967 -1.48945 -0.1165 0
M  V30 2099 H 173.849 -3.13156 -2.81978 0
M  V30 2100 H 172.524 -1.96089 -2.57548 0
M  V30 2101 H 171.431 -3.61713 -0.954714 0
M  V30 2102 H 172.764 -4.75396 -1.27513 0
M  V30 2103 N 174.416 0.165178 -1.56732 0
M  V30 2104 C 175.363 1.2044 -1.96883 0
M  V30 2105 C 176.333 1.43664 -0.833657 0
M  V30 2106 O 177.518 1.56302 -1.09427 0
M  V30 2107 C 174.658 2.53727 -2.33916 0
M  V30 2108 C 173.771 2.3783 -3.6064 0
M  V30 2109 C 172.906 3.64026 -3.86857 0
M  V30 2110 C 171.945 3.43088 -5.06909 0
M  V30 2111 N 171.082 4.61369 -5.29229 0
M  V30 2112 H 175.922 0.854996 -2.85471 0
M  V30 2113 H 173.459 0.41076 -1.41249 0
M  V30 2114 H 175.417 3.31419 -2.53411 0
M  V30 2115 H 174.047 2.8665 -1.48431 0
M  V30 2116 H 173.099 1.51282 -3.49024 0
M  V30 2117 H 174.411 2.18308 -4.4849 0
M  V30 2118 H 173.565 4.50152 -4.06753 0
M  V30 2119 H 172.304 3.86533 -2.97394 0
M  V30 2120 H 171.309 2.55349 -4.86906 0
M  V30 2121 H 172.534 3.21997 -5.97909 0
M  V30 2122 H 170.48 4.84084 -4.42718 0
M  V30 2123 H 170.397 4.44783 -6.11313 0
M  V30 2124 H 171.665 5.48761 -5.53608 0
M  V30 2125 N 175.894 1.51508 0.433938 0
M  V30 2126 C 176.857 1.72473 1.50949 0
M  V30 2127 C 177.857 0.594725 1.49398 0
M  V30 2128 O 179.047 0.862315 1.5136 0
M  V30 2129 C 176.179 1.78431 2.90474 0
M  V30 2130 H 177.372 2.68467 1.33662 0
M  V30 2131 H 174.925 1.41549 0.662836 0
M  V30 2132 H 175.66 0.842645 3.13161 0
M  V30 2133 H 175.445 2.60558 2.93005 0
M  V30 2134 H 176.935 1.96479 3.68491 0
M  V30 2135 N 177.372 -0.689602 1.41712 0
M  V30 2136 C 178.305 -1.81403 1.3845 0
M  V30 2137 C 179.283 -1.60653 0.250874 0
M  V30 2138 O 180.467 -1.83323 0.43874 0
M  V30 2139 C 177.594 -3.18176 1.1611 0
M  V30 2140 C 176.64 -3.57705 2.3227 0
M  V30 2141 S 177.473 -3.61827 3.94767 0
M  V30 2142 C 178.629 -5.01318 3.74742 0
M  V30 2143 H 178.862 -1.83893 2.33603 0
M  V30 2144 H 176.395 -0.858878 1.28307 0
M  V30 2145 H 178.353 -3.97132 1.03907 0
M  V30 2146 H 177.014 -3.13288 0.225668 0
M  V30 2147 H 176.207 -4.57082 2.12349 0
M  V30 2148 H 175.809 -2.86073 2.40911 0
M  V30 2149 H 178.101 -5.88986 3.34817 0
M  V30 2150 H 179.044 -5.26283 4.73743 0
M  V30 2151 H 179.452 -4.73138 3.07898 0
M  V30 2152 N 178.85 -1.27639 -0.924453 0
M  V30 2153 C 179.797 -1.10644 -2.0255 0
M  V30 2154 C 180.767 -0.00658438 -1.66099 0
M  V30 2155 O 181.952 -0.16952 -1.90045 0
M  V30 2156 C 179.092 -0.76309 -3.36557 0
M  V30 2157 C 178.205 -1.94091 -3.85944 0
M  V30 2158 C 177.34 -1.53914 -5.08413 0
M  V30 2159 C 176.379 -2.68425 -5.50104 0
M  V30 2160 N 175.516 -2.28815 -6.63768 0
M  V30 2161 H 180.356 -2.04858 -2.16419 0
M  V30 2162 H 177.893 -1.01974 -1.06017 0
M  V30 2163 H 179.851 -0.544822 -4.13627 0
M  V30 2164 H 178.481 0.142102 -3.22487 0
M  V30 2165 H 177.533 -2.27162 -3.05125 0
M  V30 2166 H 178.845 -2.7998 -4.12811 0
M  V30 2167 H 177.999 -1.28231 -5.92994 0
M  V30 2168 H 176.738 -0.651391 -4.8333 0
M  V30 2169 H 175.743 -2.94819 -4.64071 0
M  V30 2170 H 176.968 -3.57826 -5.7718 0
M  V30 2171 H 174.914 -1.42495 -6.40337 0
M  V30 2172 H 174.831 -3.08242 -6.90306 0
M  V30 2173 H 176.099 -2.06387 -7.51681 0
M  V30 2174 N 180.328 1.1314 -1.09713 0
M  V30 2175 C 181.275 2.18642 -0.739196 0
M  V30 2176 C 182.245 1.63706 0.280978 0
M  V30 2177 O 183.43 1.90111 0.161946 0
M  V30 2178 C 180.57 3.44685 -0.169102 0
M  V30 2179 C 179.683 4.13711 -1.24367 0
M  V30 2180 C 178.818 5.27379 -0.636019 0
M  V30 2181 C 177.857 5.88259 -1.69169 0
M  V30 2182 N 176.994 6.93352 -1.10485 0
M  V30 2183 H 181.834 2.48607 -1.64312 0
M  V30 2184 H 179.371 1.22066 -0.820875 0
M  V30 2185 H 181.329 4.16815 0.179256 0
M  V30 2186 H 179.959 3.15161 0.698079 0
M  V30 2187 H 179.011 3.39835 -1.70927 0
M  V30 2188 H 180.323 4.55037 -2.04311 0
M  V30 2189 H 179.477 6.06238 -0.236677 0
M  V30 2190 H 178.216 4.8731 0.194928 0
M  V30 2191 H 177.221 5.08092 -2.10055 0
M  V30 2192 H 178.446 6.30399 -2.52536 0
M  V30 2193 H 176.392 6.55335 -0.295234 0
M  V30 2194 H 176.309 7.33236 -1.84121 0
M  V30 2195 H 177.577 7.76057 -0.73181 0
M  V30 2196 N 181.806 0.884767 1.30421 0
M  V30 2197 C 183.055 0.499164 1.95426 0
M  V30 2198 C 183.368 -0.95645 1.70621 0
M  V30 2199 O 184.574 -1.44889 2.29607 0
M  V30 2200 C 183.03 0.84177 3.49917 0
M  V30 2201 C 182.638 2.31514 3.83543 0
M  V30 2202 C 184.382 0.525355 4.21237 0
M  V30 2203 C 182.289 2.59939 5.31212 0
M  V30 2204 H 181.219 0.182944 0.73147 0
M  V30 2205 H 183.87 1.07971 1.48373 0
M  V30 2206 H 182.252 0.190311 3.95542 0
M  V30 2207 H 183.426 3.0109 3.48829 0
M  V30 2208 H 181.741 2.59907 3.25326 0
M  V30 2209 H 184.338 0.714762 5.29901 0
M  V30 2210 H 184.681 -0.535222 4.12845 0
M  V30 2211 H 185.214 1.134 3.81294 0
M  V30 2212 H 181.953 3.64736 5.44654 0
M  V30 2213 H 181.473 1.94972 5.67227 0
M  V30 2214 H 183.152 2.45429 5.98643 0
M  V30 2215 N 183.284 -1.43765 0.645699 0
M  V30 2216 C 184.194 -2.34544 -0.0512957 0
M  V30 2217 C 185.21 -1.53455 -0.82022 0
M  V30 2218 O 186.386 -1.86133 -0.769176 0
M  V30 2219 C 183.451 -3.31636 -1.01087 0
M  V30 2220 C 182.512 -4.2863 -0.239712 0
M  V30 2221 C 181.745 -5.21084 -1.15358 0
M  V30 2222 O 181.968 -5.1779 -2.39269 0
M  V30 2223 O 180.902 -5.98593 -0.630038 0
M  V30 2224 H 184.728 -2.95624 0.695718 0
M  V30 2225 H 182.313 -1.43781 0.405882 0
M  V30 2226 H 184.195 -3.9136 -1.56254 0
M  V30 2227 H 182.87 -2.73069 -1.73824 0
M  V30 2228 H 181.777 -3.72408 0.355356 0
M  V30 2229 H 183.11 -4.90157 0.447936 0
M  V30 2230 N 184.763 -0.387143 -1.52771 0
M  V30 2231 C 185.673 0.456442 -2.30117 0
M  V30 2232 C 186.689 1.07342 -1.36944 0
M  V30 2233 O 187.865 1.07971 -1.70013 0
M  V30 2234 C 184.93 1.56957 -3.09136 0
M  V30 2235 C 183.991 0.977916 -4.18014 0
M  V30 2236 C 183.224 2.038 -4.93256 0
M  V30 2237 O 183.447 3.25271 -4.68567 0
M  V30 2238 O 182.381 1.6565 -5.78657 0
M  V30 2239 H 186.207 -0.17359 -3.03203 0
M  V30 2240 H 183.792 -0.150919 -1.48636 0
M  V30 2241 H 185.674 2.21628 -3.58412 0
M  V30 2242 H 184.349 2.18461 -2.38865 0
M  V30 2243 H 183.256 0.294525 -3.72939 0
M  V30 2244 H 184.589 0.407128 -4.90513 0
M  V30 2245 N 186.241 1.57166 -0.116904 0
M  V30 2246 C 187.49 1.94298 0.541407 0
M  V30 2247 C 187.803 1.00236 1.67964 0
M  V30 2248 O 189.009 1.26826 2.40057 0
M  V30 2249 C 187.465 3.45306 1.01449 0
M  V30 2250 C 187.073 4.47899 -0.0951738 0
M  V30 2251 C 188.817 3.91361 1.6443 0
M  V30 2252 C 186.724 5.90083 0.394491 0
M  V30 2253 H 185.654 0.725308 0.206019 0
M  V30 2254 H 188.305 1.82446 -0.196419 0
M  V30 2255 H 186.687 3.52385 1.80667 0
M  V30 2256 H 187.861 4.52486 -0.871374 0
M  V30 2257 H 186.176 4.11583 -0.631505 0
M  V30 2258 H 188.773 4.95004 2.02176 0
M  V30 2259 H 189.116 3.3122 2.52189 0
M  V30 2260 H 189.649 3.87073 0.917559 0
M  V30 2261 H 186.388 6.53974 -0.447004 0
M  V30 2262 H 185.908 5.88921 1.13722 0
M  V30 2263 H 187.587 6.41307 0.856399 0
M  V30 2264 N 187.719 -0.156864 1.56817 0
M  V30 2265 C 188.667 -1.21319 1.98455 0
M  V30 2266 C 189.661 -1.45025 0.875444 0
M  V30 2267 O 190.867 -1.45435 1.0606 0
M  V30 2268 H 187.242 -0.408142 0.631605 0
M  V30 2269 H 189.213 -0.835244 2.86472 0
M  V30 2270 C 187.962 -2.54148 2.37285 0
M  V30 2271 H 187.285 -2.36733 3.22176 0
M  V30 2272 H 188.725 -3.26712 2.70251 0
M  V30 2273 C 187.184 -3.13967 1.22173 0
M  V30 2274 O 187.714 -3.98357 0.517149 0
M  V30 2275 N 185.92 -2.7327 0.988536 0
M  V30 2276 H 185.467 -2.04744 1.56326 0
M  V30 2277 H 185.425 -3.13628 0.220209 0
M  V30 2278 N 189.197 -1.51736 -0.425897 0
M  V30 2279 C 190.425 -1.68794 -1.1965 0
M  V30 2280 C 190.84 -0.390164 -1.84725 0
M  V30 2281 O 190.197 0.632376 -1.71194 0
M  V30 2282 C 190.248 -2.81174 -2.27208 0
M  V30 2283 O 189.969 -4.05925 -1.64793 0
M  V30 2284 C 191.47 -3.09599 -3.17275 0
M  V30 2285 H 188.69 -0.566128 -0.360194 0
M  V30 2286 H 191.234 -1.98211 -0.503249 0
M  V30 2287 H 189.389 -2.54324 -2.9223 0
M  V30 2288 H 189.803 -4.68423 -2.35967 0
M  V30 2289 H 191.277 -3.91786 -3.88854 0
M  V30 2290 H 191.754 -2.22468 -3.78688 0
M  V30 2291 H 192.36 -3.38151 -2.57941 0
M  V30 2292 N 190.675 0.682077 -1.42076 0
M  V30 2293 C 191.605 1.80796 -1.47767 0
M  V30 2294 C 192.586 1.6677 -0.334954 0
M  V30 2295 O 193.771 1.863 -0.548264 0
M  V30 2296 C 190.901 3.19038 -1.37229 0
M  V30 2297 C 189.855 3.47789 -2.49453 0
M  V30 2298 C 189.181 4.8553 -2.23975 0
M  V30 2299 C 190.481 3.45411 -3.91776 0
M  V30 2300 H 192.175 1.7629 -2.41997 0
M  V30 2301 H 189.721 0.846721 -1.16476 0
M  V30 2302 H 191.674 3.97528 -1.39821 0
M  V30 2303 H 190.398 3.24204 -0.394907 0
M  V30 2304 H 189.057 2.71657 -2.46166 0
M  V30 2305 H 188.705 4.87337 -1.24547 0
M  V30 2306 H 188.405 5.0573 -2.99184 0
M  V30 2307 H 189.929 5.66312 -2.28304 0
M  V30 2308 H 191.343 4.13882 -3.96705 0
M  V30 2309 H 189.74 3.77145 -4.66778 0
M  V30 2310 H 190.81 2.44122 -4.18966 0
M  V30 2311 N 192.153 1.28127 0.917671 0
M  V30 2312 C 193.399 1.15223 1.66888 0
M  V30 2313 C 193.732 -0.299293 1.9188 0
M  V30 2314 O 193.007 -1.21805 1.51637 0
M  V30 2315 C 193.29 1.94706 3.02922 0
M  V30 2316 C 193.143 3.47898 2.85109 0
M  V30 2317 C 194.462 1.75939 4.03402 0
M  V30 2318 H 191.581 0.419946 0.605652 0
M  V30 2319 H 194.223 1.57398 1.06423 0
M  V30 2320 H 192.373 1.58864 3.54534 0
M  V30 2321 H 194.045 3.93624 2.40537 0
M  V30 2322 H 192.288 3.7373 2.20246 0
M  V30 2323 H 192.959 3.98765 3.81694 0
M  V30 2324 H 195.435 2.07209 3.60837 0
M  V30 2325 H 194.311 2.33931 4.96556 0
M  V30 2326 H 194.572 0.709877 4.36364 0
M  V30 2327 N 193.631 -1.12557 1.10312 0
M  V30 2328 C 194.878 -1.84038 0.844759 0
M  V30 2329 C 195.206 -1.84026 -0.629668 0
M  V30 2330 O 194.461 -1.28026 -1.48013 0
M  V30 2331 C 194.76 -3.31462 1.33669 0
M  V30 2332 C 194.426 -3.51647 2.82232 0
M  V30 2333 C 193.088 -3.56864 3.22802 0
M  V30 2334 C 195.44 -3.58867 3.77974 0
M  V30 2335 C 192.768 -3.66844 4.57867 0
M  V30 2336 C 195.12 -3.70375 5.1284 0
M  V30 2337 C 193.784 -3.73848 5.52986 0
M  V30 2338 H 193.054 -0.673444 0.309119 0
M  V30 2339 H 195.701 -1.32824 1.37949 0
M  V30 2340 H 194.006 -3.85091 0.721949 0
M  V30 2341 H 195.703 -3.85236 1.11329 0
M  V30 2342 H 192.293 -3.48249 2.49842 0
M  V30 2343 H 196.477 -3.54107 3.47738 0
M  V30 2344 H 191.733 -3.67804 4.88396 0
M  V30 2345 H 195.907 -3.74904 5.86873 0
M  V30 2346 H 193.534 -3.81333 6.57639 0
M  V30 2347 N 195.109 -0.891671 -1.2995 0
M  V30 2348 C 196.042 -0.307994 -2.26112 0
M  V30 2349 C 197.02 0.575262 -1.52084 0
M  V30 2350 O 198.204 0.523864 -1.81074 0
M  V30 2351 C 195.331 0.561734 -3.34009 0
M  V30 2352 C 194.377 -0.253107 -4.25748 0
M  V30 2353 S 195.21 -1.64572 -5.09584 0
M  V30 2354 C 196.366 -0.782699 -6.20987 0
M  V30 2355 H 196.599 -1.12309 -2.75271 0
M  V30 2356 H 194.132 -0.691509 -1.38049 0
M  V30 2357 H 196.09 1.05777 -3.96638 0
M  V30 2358 H 194.751 1.35099 -2.83561 0
M  V30 2359 H 193.944 0.410908 -5.02322 0
M  V30 2360 H 193.546 -0.682004 -3.67729 0
M  V30 2361 H 195.838 -0.00257476 -6.775 0
M  V30 2362 H 196.781 -1.52026 -6.91588 0
M  V30 2363 H 197.189 -0.340638 -5.63471 0
M  V30 2364 N 196.587 1.43421 -0.653314 0
M  V30 2365 C 197.827 2.03689 -0.170346 0
M  V30 2366 C 198.191 1.50427 1.19314 0
M  V30 2367 O 199.392 2.0234 1.76952 0
M  V30 2368 C 197.663 3.56946 -0.180183 0
M  V30 2369 S 199.222 4.38171 0.234925 0
M  V30 2370 H 196.04 0.707345 -0.0719976 0
M  V30 2371 H 198.642 1.75486 -0.86167 0
M  V30 2372 H 197.346 3.93212 -1.17526 0
M  V30 2373 H 196.877 3.89791 0.531675 0
M  V30 2374 H 198.892 4.73808 1.47378 0
M  V30 2375 N 198.065 0.39524 1.52563 0
M  V30 2376 C 199.342 -0.242908 1.94086 0
M  V30 2377 C 199.722 -1.63841 1.33114 0
M  V30 2378 O 199.07 -2.22928 0.501529 0
M  V30 2379 C 199.28 -0.26327 3.48006 0
M  V30 2380 C 200.628 -0.489354 4.21771 0
M  V30 2381 O 201.652 -0.343226 3.54543 0
M  V30 2382 O 200.511 -0.776169 5.4096 0
M  V30 2383 H 197.605 -0.152536 0.812811 0
M  V30 2384 H 200.151 0.450178 1.6362 0
M  V30 2385 H 198.923 0.713985 3.84731 0
M  V30 2386 H 198.546 -1.00103 3.84792 0
M  V30 2387 N 199.544 -1.57102 0.125237 0
M  V30 2388 C 200.491 -2.15641 -0.822655 0
M  V30 2389 C 201.461 -1.08313 -1.25927 0
M  V30 2390 O 202.646 -1.36251 -1.33567 0
M  V30 2391 C 199.786 -2.76504 -2.06494 0
M  V30 2392 C 198.899 -3.98158 -1.67612 0
M  V30 2393 C 198.034 -4.47088 -2.86854 0
M  V30 2394 C 197.073 -5.6126 -2.44242 0
M  V30 2395 N 196.21 -6.04905 -3.56419 0
M  V30 2396 H 201.05 -2.96313 -0.316625 0
M  V30 2397 H 198.587 -1.46388 -0.144588 0
M  V30 2398 H 200.545 -3.09925 -2.79289 0
M  V30 2399 H 199.175 -1.98512 -2.54545 0
M  V30 2400 H 198.227 -3.70858 -0.846661 0
M  V30 2401 H 199.539 -4.80934 -1.32301 0
M  V30 2402 H 198.693 -4.82451 -3.67867 0
M  V30 2403 H 197.432 -3.63275 -3.25396 0
M  V30 2404 H 196.437 -5.25495 -1.61663 0
M  V30 2405 H 197.662 -6.46843 -2.0681 0
M  V30 2406 H 195.608 -5.24032 -3.94623 0
M  V30 2407 H 195.525 -6.82552 -3.25051 0
M  V30 2408 H 196.793 -6.44907 -4.37853 0
M  V30 2409 N 201.022 0.148545 -1.56898 0
M  V30 2410 C 202.438 0.501131 -1.51528 0
M  V30 2411 C 202.638 1.83458 -0.833399 0
M  V30 2412 O 201.694 2.49259 -0.40328 0
M  V30 2413 C 203.007 0.512864 -2.96294 0
M  V30 2414 C 204.555 0.598487 -3.07225 0
M  V30 2415 C 205.03 0.640897 -4.53494 0
M  V30 2416 N 206.521 0.703163 -4.57832 0
M  V30 2417 C 207.256 0.756935 -5.68382 0
M  V30 2418 N 206.752 0.770147 -6.88506 0
M  V30 2419 N 208.545 0.797698 -5.56411 0
M  V30 2420 H 200.696 -0.725532 -1.99624 0
M  V30 2421 H 202.959 -0.264358 -0.910395 0
M  V30 2422 H 202.665 -0.398691 -3.49433 0
M  V30 2423 H 202.539 1.35133 -3.52163 0
M  V30 2424 H 204.926 1.50046 -2.54106 0
M  V30 2425 H 205.007 -0.267093 -2.54402 0
M  V30 2426 H 204.651 -0.256915 -5.0725 0
M  V30 2427 H 204.581 1.52295 -5.04097 0
M  V30 2428 H 207.072 0.700314 -3.71354 0
M  V30 2429 H 207.385 0.812983 -7.68512 0
M  V30 2430 H 205.73 0.738049 -6.9107 0
M  V30 2431 H 208.921 0.784535 -4.61479 0
M  V30 2432 H 209.094 0.83614 -6.42583 0
M  V30 2433 N 202.5 1.5196 0.417844 0
M  V30 2434 C 203.463 1.74065 1.49111 0
M  V30 2435 C 204.463 0.610537 1.48758 0
M  V30 2436 O 205.653 0.87832 1.50437 0
M  V30 2437 C 202.785 1.81502 2.88565 0
M  V30 2438 H 203.978 2.69869 1.30807 0
M  V30 2439 H 201.531 1.42244 0.647785 0
M  V30 2440 H 202.266 0.875813 3.1225 0
M  V30 2441 H 202.051 2.63651 2.90225 0
M  V30 2442 H 203.541 2.00376 3.66387 0
M  V30 2443 N 203.978 -0.674533 1.42435 0
M  V30 2444 C 204.926 -1.80934 1.46169 0
M  V30 2445 C 205.92 -1.66006 0.3374 0
M  V30 2446 O 207.126 -1.72611 0.510425 0
M  V30 2447 H 203.501 -0.596594 0.457798 0
M  V30 2448 H 205.472 -1.74903 2.41767 0
M  V30 2449 C 204.221 -3.19088 1.38123 0
M  V30 2450 H 203.544 -3.31203 2.23931 0
M  V30 2451 H 204.984 -3.9851 1.44797 0
M  V30 2452 C 203.443 -3.36763 0.0960517 0
M  V30 2453 O 203.973 -3.92581 -0.851073 0
M  V30 2454 N 202.179 -2.90597 0.0131186 0
M  V30 2455 H 201.726 -2.45359 0.784639 0
M  V30 2456 H 201.684 -3.028 -0.846133 0
M  V30 2457 N 205.456 -1.28612 -0.910864 0
M  V30 2458 C 206.403 -1.12786 -2.01365 0
M  V30 2459 C 207.373 -0.024201 -1.66082 0
M  V30 2460 O 208.558 -0.189667 -1.89855 0
M  V30 2461 C 205.698 -0.798743 -3.35729 0
M  V30 2462 C 204.811 -1.98173 -3.83864 0
M  V30 2463 C 203.946 -1.59298 -5.06752 0
M  V30 2464 C 202.985 -2.74245 -5.47226 0
M  V30 2465 N 202.122 -2.35842 -6.61304 0
M  V30 2466 H 206.962 -2.07142 -2.14234 0
M  V30 2467 H 204.499 -1.03093 -1.0493 0
M  V30 2468 H 206.457 -0.588662 -4.13026 0
M  V30 2469 H 205.087 0.10789 -3.2262 0
M  V30 2470 H 204.139 -2.30386 -3.02699 0
M  V30 2471 H 205.451 -2.84343 -4.09818 0
M  V30 2472 H 204.605 -1.34513 -5.916 0
M  V30 2473 H 203.344 -0.702618 -4.82612 0
M  V30 2474 H 202.349 -2.99725 -4.60918 0
M  V30 2475 H 203.574 -3.63928 -5.73353 0
M  V30 2476 H 201.52 -1.49279 -6.38789 0
M  V30 2477 H 201.437 -3.15546 -6.86998 0
M  V30 2478 H 202.705 -2.14348 -7.4945 0
M  V30 2479 N 206.934 1.1197 -1.10907 0
M  V30 2480 C 207.881 2.17846 -0.762345 0
M  V30 2481 C 208.851 1.63995 0.263599 0
M  V30 2482 O 210.036 1.90273 0.141773 0
M  V30 2483 C 207.176 3.44487 -0.205651 0
M  V30 2484 C 206.289 4.12369 -1.28748 0
M  V30 2485 C 205.424 5.26674 -0.691919 0
M  V30 2486 C 204.463 5.86431 -1.75399 0
M  V30 2487 N 203.6 6.92142 -1.17833 0
M  V30 2488 H 208.44 2.46851 -1.6694 0
M  V30 2489 H 205.977 1.21188 -0.833776 0
M  V30 2490 H 207.935 4.16981 0.135037 0
M  V30 2491 H 206.565 3.15884 0.664613 0
M  V30 2492 H 205.617 3.38003 -1.74522 0
M  V30 2493 H 206.929 4.52844 -2.09125 0
M  V30 2494 H 206.083 6.05953 -0.300963 0
M  V30 2495 H 204.822 4.8749 0.143232 0
M  V30 2496 H 203.827 5.05835 -2.15432 0
M  V30 2497 H 205.052 6.27685 -2.59208 0
M  V30 2498 H 202.998 6.54985 -0.364725 0
M  V30 2499 H 202.915 7.31242 -1.91887 0
M  V30 2500 H 204.183 7.75237 -0.81408 0
M  V30 2501 N 208.412 0.89855 1.29475 0
M  V30 2502 C 209.36 0.365253 2.29714 0
M  V30 2503 C 210.354 -0.534993 1.6073 0
M  V30 2504 O 211.56 -0.417921 1.75081 0
M  V30 2505 H 207.935 0.0994853 0.74539 0
M  V30 2506 H 209.906 1.22406 2.72138 0
M  V30 2507 C 208.655 -0.393159 3.4547 0
M  V30 2508 H 207.978 0.290332 3.98744 0
M  V30 2509 H 209.418 -0.731189 4.17648 0
M  V30 2510 C 207.877 -1.59539 2.9673 0
M  V30 2511 O 208.407 -2.69469 2.97908 0
M  V30 2512 N 206.613 -1.43716 2.52575 0
M  V30 2513 H 206.16 -0.542828 2.51816 0
M  V30 2514 H 206.118 -2.24288 2.20323 0
M  V30 2515 N 209.89 -1.43072 0.660911 0
M  V30 2516 C 211.139 -2.00942 0.174735 0
M  V30 2517 C 211.452 -1.52797 -1.22117 0
M  V30 2518 O 212.658 -2.02991 -1.80297 0
M  V30 2519 C 211.114 -3.58948 0.261559 0
M  V30 2520 C 210.722 -4.16085 1.66064 0
M  V30 2521 C 212.466 -4.24173 -0.166617 0
M  V30 2522 C 210.373 -5.6641 1.70098 0
M  V30 2523 H 209.303 -0.751483 0.0615631 0
M  V30 2524 H 211.954 -1.63955 0.824069 0
M  V30 2525 H 210.336 -3.93372 -0.455421 0
M  V30 2526 H 211.51 -3.93147 2.40359 0
M  V30 2527 H 209.825 -3.6326 2.03546 0
M  V30 2528 H 212.422 -5.34471 -0.156433 0
M  V30 2529 H 212.765 -3.98647 -1.19943 0
M  V30 2530 H 213.298 -3.94659 0.498875 0
M  V30 2531 H 210.037 -5.96715 2.71315 0
M  V30 2532 H 209.557 -5.91382 1.00139 0
M  V30 2533 H 211.236 -6.30585 1.44816 0
M  V30 2534 N 211.368 -0.403325 -1.52352 0
M  V30 2535 C 212.315 0.425011 -2.26853 0
M  V30 2536 C 213.285 1.04598 -1.29029 0
M  V30 2537 O 214.47 1.07135 -1.57882 0
M  V30 2538 C 211.61 1.53888 -3.08889 0
M  V30 2539 C 210.723 0.939396 -4.21663 0
M  V30 2540 C 209.858 2.02547 -4.91068 0
M  V30 2541 C 208.897 1.40263 -5.95813 0
M  V30 2542 N 208.034 2.4286 -6.58759 0
M  V30 2543 H 212.874 -0.21674 -2.97211 0
M  V30 2544 H 210.411 -0.118722 -1.4662 0
M  V30 2545 H 212.369 2.19558 -3.54753 0
M  V30 2546 H 210.999 2.15074 -2.40714 0
M  V30 2547 H 210.051 0.171898 -3.80011 0
M  V30 2548 H 211.363 0.44436 -4.96817 0
M  V30 2549 H 210.517 2.75958 -5.40308 0
M  V30 2550 H 209.256 2.55415 -4.15469 0
M  V30 2551 H 208.261 0.653833 -5.45898 0
M  V30 2552 H 209.486 0.881719 -6.73352 0
M  V30 2553 H 207.432 2.94871 -5.85992 0
M  V30 2554 H 207.349 1.98152 -7.2957 0
M  V30 2555 H 208.617 3.15858 -7.12639 0
M  V30 2556 N 212.846 1.57033 -0.133567 0
M  V30 2557 C 213.793 2.16074 0.811208 0
M  V30 2558 C 214.763 1.08979 1.2535 0
M  V30 2559 O 215.948 1.36958 1.32843 0
M  V30 2560 C 213.088 2.77595 2.05024 0
M  V30 2561 C 212.201 3.99042 1.65498 0
M  V30 2562 C 211.336 4.48603 2.84479 0
M  V30 2563 C 210.375 5.62547 2.41262 0
M  V30 2564 N 209.512 6.06787 3.53206 0
M  V30 2565 H 214.352 2.96477 0.300906 0
M  V30 2566 H 211.889 1.46462 0.136822 0
M  V30 2567 H 213.847 3.11402 2.77642 0
M  V30 2568 H 212.477 1.99859 2.53488 0
M  V30 2569 H 211.529 3.71302 0.826981 0
M  V30 2570 H 212.841 4.81629 1.29748 0
M  V30 2571 H 211.995 4.84395 3.65303 0
M  V30 2572 H 210.734 3.64995 3.23465 0
M  V30 2573 H 209.739 5.26345 1.58874 0
M  V30 2574 H 210.964 6.47931 2.03377 0
M  V30 2575 H 208.91 5.26117 3.91838 0
M  V30 2576 H 208.827 6.84266 3.21427 0
M  V30 2577 H 210.095 6.4722 4.34427 0
M  V30 2578 N 214.325 -0.140222 1.56975 0
M  V30 2579 C 215.55 -0.870414 1.88251 0
M  V30 2580 C 215.975 -1.73637 0.723312 0
M  V30 2581 O 215.333 -1.78329 -0.32689 0
M  V30 2582 C 215.381 -1.69737 3.18154 0
M  V30 2583 O 214.485 -2.80229 3.02565 0
M  V30 2584 H 213.826 -0.242025 0.61832 0
M  V30 2585 H 216.356 -0.128999 2.04193 0
M  V30 2586 H 216.366 -2.09099 3.50345 0
M  V30 2587 H 215.041 -1.06152 4.02125 0
M  V30 2588 H 213.618 -2.44224 2.81796 0
M  V30 2589 N 215.803 -1.52179 -0.40978 0
M  V30 2590 C 217.049 -1.66453 -1.15851 0
M  V30 2591 C 217.382 -0.392972 -1.90182 0
M  V30 2592 O 216.657 0.608579 -1.84734 0
M  V30 2593 C 216.94 -2.88612 -2.15349 0
M  V30 2594 C 216.793 -4.25815 -1.44918 0
M  V30 2595 C 218.112 -3.06294 -3.16026 0
M  V30 2596 H 215.231 -0.60575 -0.419805 0
M  V30 2597 H 217.873 -1.84732 -0.444314 0
M  V30 2598 H 216.023 -2.73158 -2.76255 0
M  V30 2599 H 217.695 -4.52995 -0.871365 0
M  V30 2600 H 215.938 -4.27247 -0.751159 0
M  V30 2601 H 216.609 -5.07337 -2.17516 0
M  V30 2602 H 219.085 -3.20641 -2.65195 0
M  V30 2603 H 217.961 -3.93283 -3.8291 0
M  V30 2604 H 218.222 -2.19579 -3.83715 0
M  V30 2605 N 217.281 0.66697 -1.42791 0
M  V30 2606 C 218.228 1.7803 -1.4688 0
M  V30 2607 C 219.198 1.6299 -0.319919 0
M  V30 2608 O 220.383 1.83432 -0.525118 0
M  V30 2609 C 217.523 3.1611 -1.38451 0
M  V30 2610 C 216.636 3.42381 -2.63437 0
M  V30 2611 C 215.771 4.70232 -2.47094 0
M  V30 2612 C 214.81 4.89564 -3.67415 0
M  V30 2613 N 213.947 6.08661 -3.49966 0
M  V30 2614 H 218.787 1.7387 -2.42019 0
M  V30 2615 H 216.324 0.84868 -1.20149 0
M  V30 2616 H 218.282 3.95914 -1.31561 0
M  V30 2617 H 216.912 3.19374 -0.469033 0
M  V30 2618 H 215.964 2.56774 -2.80662 0
M  V30 2619 H 217.276 3.52557 -3.52853 0
M  V30 2620 H 216.43 5.5814 -2.37834 0
M  V30 2621 H 215.169 4.62353 -1.5518 0
M  V30 2622 H 214.174 4.00096 -3.77099 0
M  V30 2623 H 215.399 4.99282 -4.6032 0
M  V30 2624 H 213.345 6.0194 -2.60776 0
M  V30 2625 H 213.262 6.19733 -4.32975 0
M  V30 2626 H 214.53 6.99226 -3.44532 0
M  V30 2627 N 218.759 1.29093 0.90403 0
M  V30 2628 C 219.707 1.13727 2.02901 0
M  V30 2629 C 220.701 0.0539853 1.69314 0
M  V30 2630 O 221.907 0.213469 1.7873 0
M  V30 2631 H 218.282 0.35117 0.664969 0
M  V30 2632 H 220.253 2.08982 2.13001 0
M  V30 2633 C 219.002 0.826066 3.37745 0
M  V30 2634 H 218.325 1.65164 3.64089 0
M  V30 2635 H 219.765 0.758559 4.17159 0
M  V30 2636 C 218.224 -0.470541 3.33598 0
M  V30 2637 O 218.754 -1.49792 3.72727 0
M  V30 2638 N 216.96 -0.474812 2.86695 0
M  V30 2639 H 216.507 0.361692 2.55048 0
M  V30 2640 H 216.465 -1.34236 2.84303 0
M  V30 2641 N 220.237 -1.11381 1.11499 0
M  V30 2642 C 221.167 -2.19509 0.796125 0
M  V30 2643 C 222.148 -1.68458 -0.235796 0
M  V30 2644 O 223.333 -1.93947 -0.0991344 0
M  V30 2645 C 220.463 -3.46475 0.239205 0
M  V30 2646 C 219.417 -4.10744 1.20307 0
M  V30 2647 C 218.743 -5.32293 0.50683 0
M  V30 2648 C 220.043 -4.55597 2.55399 0
M  V30 2649 H 221.737 -2.46439 1.70024 0
M  V30 2650 H 219.283 -1.18446 0.818935 0
M  V30 2651 H 221.236 -4.214 0.00392006 0
M  V30 2652 H 219.96 -3.19006 -0.700206 0
M  V30 2653 H 218.619 -3.37813 1.42399 0
M  V30 2654 H 218.267 -5.01095 -0.437408 0
M  V30 2655 H 217.967 -5.76243 1.1497 0
M  V30 2656 H 219.491 -6.09956 0.280351 0
M  V30 2657 H 220.905 -5.21841 2.37391 0
M  V30 2658 H 219.302 -5.10363 3.15673 0
M  V30 2659 H 220.372 -3.69013 3.14575 0
M  V30 2660 N 221.715 -0.905404 -1.28997 0
M  V30 2661 C 222.962 -0.534248 -1.95325 0
M  V30 2662 C 223.29 0.920535 -1.71337 0
M  V30 2663 O 222.545 1.66861 -1.02254 0
M  V30 2664 C 222.844 -0.779906 -3.48787 0
M  V30 2665 C 222.51 -2.21293 -3.92861 0
M  V30 2666 C 221.172 -2.60475 -4.04606 0
M  V30 2667 C 223.524 -3.14587 -4.15553 0
M  V30 2668 C 220.852 -3.9212 -4.36416 0
M  V30 2669 C 223.204 -4.45787 -4.48839 0
M  V30 2670 C 221.868 -4.84834 -4.58794 0
M  V30 2671 H 221.138 -0.195495 -0.714747 0
M  V30 2672 H 223.785 -1.14514 -1.53488 0
M  V30 2673 H 222.09 -0.0861365 -3.91705 0
M  V30 2674 H 223.787 -0.472029 -3.98212 0
M  V30 2675 H 220.377 -1.89887 -3.84241 0
M  V30 2676 H 224.561 -2.85528 -4.0594 0
M  V30 2677 H 219.817 -4.22086 -4.42327 0
M  V30 2678 H 223.991 -5.18098 -4.65346 0
M  V30 2679 H 221.618 -5.86877 -4.83197 0
M  V30 2680 N 223.193 1.4272 -0.668489 0
M  V30 2681 C 224.441 2.01226 -0.187769 0
M  V30 2682 C 224.762 1.53092 1.2078 0
M  V30 2683 O 224.032 0.74993 1.80977 0
M  V30 2684 H 222.612 0.744041 -0.0664272 0
M  V30 2685 H 225.274 1.74723 -0.863583 0
M  V30 2686 H 224.37 3.11556 -0.184166 0
M  V30 2687 N 224.671 0.411399 1.52136 0
M  V30 2688 C 225.92 -0.165009 2.01024 0
M  V30 2689 C 226.233 -1.4603 1.30133 0
M  V30 2690 O 227.439 -2.1181 1.69849 0
M  V30 2691 C 225.895 -0.344618 3.58246 0
M  V30 2692 C 225.503 0.938716 4.38055 0
M  V30 2693 C 227.247 -0.876195 4.15359 0
M  V30 2694 C 225.154 0.726172 5.86925 0
M  V30 2695 H 224.084 -0.0654407 0.751155 0
M  V30 2696 H 226.735 0.537192 1.75461 0
M  V30 2697 H 225.117 -1.10921 3.80148 0
M  V30 2698 H 226.291 1.70963 4.27912 0
M  V30 2699 H 224.606 1.39688 3.92271 0
M  V30 2700 H 227.203 -1.05128 5.24263 0
M  V30 2701 H 227.546 -1.85152 3.7286 0
M  V30 2702 H 228.079 -0.170607 3.97434 0
M  V30 2703 H 224.818 1.67312 6.33788 0
M  V30 2704 H 224.338 -0.00540283 5.998 0
M  V30 2705 H 226.017 0.369231 6.45946 0
M  V30 2706 N 226.149 -1.5696 0.141893 0
M  V30 2707 C 227.059 -2.20066 -0.812905 0
M  V30 2708 C 228.075 -1.18344 -1.27557 0
M  V30 2709 O 229.251 -1.50902 -1.33381 0
M  V30 2710 C 226.316 -2.80583 -2.03652 0
M  V30 2711 C 225.377 -3.97414 -1.62359 0
M  V30 2712 C 224.61 -4.55036 -2.78887 0
M  V30 2713 O 224.833 -4.11538 -3.94959 0
M  V30 2714 O 223.767 -5.45376 -2.54653 0
M  V30 2715 H 227.593 -3.02157 -0.305746 0
M  V30 2716 H 225.178 -1.49159 -0.0848799 0
M  V30 2717 H 227.06 -3.19067 -2.75272 0
M  V30 2718 H 225.735 -2.01508 -2.5333 0
M  V30 2719 H 224.642 -3.63656 -0.877775 0
M  V30 2720 H 225.975 -4.77994 -1.17401 0
M  V30 2721 N 227.627 0.131896 -1.57047 0
M  V30 2722 C 228.867 0.847972 -1.85981 0
M  V30 2723 C 229.231 1.77655 -0.7282 0
M  V30 2724 O 230.432 2.53322 -0.898968 0
M  V30 2725 C 228.703 1.58919 -3.20124 0
M  V30 2726 S 230.262 2.34862 -3.70655 0
M  V30 2727 H 227.08 0.283273 -0.652133 0
M  V30 2728 H 229.682 0.107057 -1.95207 0
M  V30 2729 H 228.386 0.898771 -4.00438 0
M  V30 2730 H 227.917 2.37073 -3.13942 0
M  V30 2731 H 229.932 3.60344 -3.41126 0
M  V30 2732 N 229.106 1.52395 0.401703 0
M  V30 2733 C 230.383 1.57387 1.16141 0
M  V30 2734 C 230.763 0.359359 2.08019 0
M  V30 2735 O 230.111 -0.65326 2.18963 0
M  V30 2736 C 230.321 2.90631 1.93221 0
M  V30 2737 C 231.669 3.43904 2.49028 0
M  V30 2738 O 232.693 2.92421 2.03393 0
M  V30 2739 O 231.552 4.33823 3.32356 0
M  V30 2740 H 228.646 0.634262 0.530698 0
M  V30 2741 H 231.192 1.64725 0.407883 0
M  V30 2742 H 229.964 3.70473 1.25958 0
M  V30 2743 H 229.587 2.8662 2.75563 0
M  V30 2744 N 230.584 -0.659388 1.43143 0
M  V30 2745 C 231.531 -1.77249 1.47822 0
M  V30 2746 C 232.501 -1.62818 0.328558 0
M  V30 2747 O 233.686 -1.83151 0.534838 0
M  V30 2748 C 230.826 -3.15371 1.40126 0
M  V30 2749 C 229.939 -3.4098 2.65249 0
M  V30 2750 C 229.074 -4.68915 2.49584 0
M  V30 2751 C 228.113 -4.87608 3.70006 0
M  V30 2752 N 227.25 -6.06796 3.53189 0
M  V30 2753 H 232.09 -1.72584 2.42938 0
M  V30 2754 H 229.627 -0.842297 1.20598 0
M  V30 2755 H 231.585 -3.9521 1.33659 0
M  V30 2756 H 230.215 -3.19121 0.485964 0
M  V30 2757 H 229.267 -2.55282 2.8202 0
M  V30 2758 H 230.579 -3.50681 3.54717 0
M  V30 2759 H 229.733 -5.56871 2.4079 0
M  V30 2760 H 228.472 -4.61524 1.5763 0
M  V30 2761 H 227.477 -3.9809 3.79215 0
M  V30 2762 H 228.702 -4.96834 4.62961 0
M  V30 2763 H 226.648 -6.00549 2.63965 0
M  V30 2764 H 226.565 -6.17428 4.36255 0
M  V30 2765 H 227.833 -6.9739 3.48236 0
M  V30 2766 N 232.062 -1.29571 -0.897171 0
M  V30 2767 C 233.308 -1.17863 -1.65034 0
M  V30 2768 C 233.641 0.268729 -1.92332 0
M  V30 2769 O 232.916 1.19378 -1.53555 0
M  V30 2770 C 233.199 -1.995 -2.99786 0
M  V30 2771 C 233.052 -3.5239 -2.79538 0
M  V30 2772 C 234.371 -1.82335 -4.00552 0
M  V30 2773 H 231.49 -0.429528 -0.598895 0
M  V30 2774 H 234.132 -1.59072 -1.03905 0
M  V30 2775 H 232.282 -1.64485 -3.51962 0
M  V30 2776 H 233.954 -3.97401 -2.34244 0
M  V30 2777 H 232.197 -3.77187 -2.14273 0
M  V30 2778 H 232.868 -4.04787 -3.75302 0
M  V30 2779 H 235.344 -2.12924 -3.57495 0
M  V30 2780 H 234.22 -2.41801 -4.92771 0
M  V30 2781 H 234.481 -0.779209 -4.35179 0
M  V30 2782 N 233.54 1.10788 -1.12088 0
M  V30 2783 C 234.488 2.19111 -0.780587 0
M  V30 2784 C 235.482 1.67818 0.230961 0
M  V30 2785 O 236.688 1.79777 0.0895427 0
M  V30 2786 H 233.063 0.714477 -0.234578 0
M  V30 2787 H 235.034 2.45055 -1.70266 0
M  V30 2788 C 233.783 3.46818 -0.24747 0
M  V30 2789 H 233.106 3.86646 -1.01712 0
M  V30 2790 H 234.546 4.23973 -0.0476291 0
M  V30 2791 C 233.005 3.20968 1.02378 0
M  V30 2792 O 233.535 3.42298 2.10226 0
M  V30 2793 N 231.741 2.74658 0.949271 0
M  V30 2794 H 231.288 2.57501 0.0715173 0
M  V30 2795 H 231.246 2.57739 1.80049 0
M  V30 2796 N 235.018 0.912232 1.28515 0
M  V30 2797 C 236.264 0.545405 1.95328 0
M  V30 2798 C 236.597 -0.908313 1.71649 0
M  V30 2799 O 235.872 -1.64575 1.03659 0
M  V30 2800 C 236.155 0.853483 3.4984 0
M  V30 2801 C 236.008 2.35982 3.82926 0
M  V30 2802 C 237.327 0.348589 4.38717 0
M  V30 2803 H 234.446 0.199626 0.709449 0
M  V30 2804 H 237.088 1.1412 1.5191 0
M  V30 2805 H 235.238 0.34643 3.86952 0
M  V30 2806 H 236.91 2.93738 3.55691 0
M  V30 2807 H 235.153 2.81543 3.30024 0
M  V30 2808 H 235.824 2.52593 4.90816 0
M  V30 2809 H 238.3 0.78294 4.08668 0
M  V30 2810 H 237.176 0.593242 5.45685 0
M  V30 2811 H 237.437 -0.751049 4.35674 0
M  V30 2812 N 236.496 -1.42363 0.676048 0
M  V30 2813 C 237.426 -2.33497 0.0124832 0
M  V30 2814 C 238.407 -1.50748 -0.787981 0
M  V30 2815 O 239.592 -1.79346 -0.744884 0
M  V30 2816 C 236.722 -3.34377 -0.938582 0
M  V30 2817 C 235.676 -4.27289 -0.246622 0
M  V30 2818 C 235.002 -5.18386 -1.31071 0
M  V30 2819 C 236.302 -5.14916 0.875125 0
M  V30 2820 H 237.996 -2.89233 0.773593 0
M  V30 2821 H 235.542 -1.39073 0.37346 0
M  V30 2822 H 237.495 -3.97044 -1.41188 0
M  V30 2823 H 236.219 -2.76947 -1.73113 0
M  V30 2824 H 234.878 -3.66018 0.206456 0
M  V30 2825 H 234.526 -4.57282 -2.09528 0
M  V30 2826 H 234.226 -5.81378 -0.852839 0
M  V30 2827 H 235.75 -5.83929 -1.78492 0
M  V30 2828 H 237.164 -5.71262 0.482983 0
M  V30 2829 H 235.561 -5.86747 1.25887 0
M  V30 2830 H 236.631 -4.53242 1.72335 0
M  V30 2831 N 237.974 -0.419461 -1.51915 0
M  V30 2832 C 238.922 0.415502 -2.28859 0
M  V30 2833 C 239.916 1.03674 -1.3397 0
M  V30 2834 O 241.122 0.973757 -1.51387 0
M  V30 2835 H 237.497 0.152786 -0.736315 0
M  V30 2836 H 239.468 -0.254531 -2.97312 0
M  V30 2837 C 238.217 1.51425 -3.12995 0
M  V30 2838 H 237.54 1.04556 -3.85886 0
M  V30 2839 H 238.98 2.07208 -3.6992 0
M  V30 2840 C 237.439 2.48745 -2.27217 0
M  V30 2841 O 237.969 3.52871 -1.9195 0
M  V30 2842 N 236.175 2.19202 -1.90785 0
M  V30 2843 H 235.722 1.34556 -2.19664 0
M  V30 2844 H 235.68 2.84561 -1.33687 0
M  V30 2845 N 239.452 1.56882 -0.150215 0
M  V30 2846 C 240.68 2.00593 0.506948 0
M  V30 2847 C 241.095 1.03033 1.58208 0
M  V30 2848 O 240.452 0.0278396 1.82479 0
M  V30 2849 C 240.503 3.44209 1.10465 0
M  V30 2850 O 240.224 4.3804 0.0724636 0
M  V30 2851 C 241.725 4.03214 1.84211 0
M  V30 2852 H 238.945 0.65795 0.13169 0
M  V30 2853 H 241.489 2.03018 -0.245743 0
M  V30 2854 H 239.644 3.42625 1.80795 0
M  V30 2855 H 240.058 5.22007 0.510793 0
M  V30 2856 H 241.532 5.0569 2.21318 0
M  V30 2857 H 242.009 3.44107 2.72923 0
M  V30 2858 H 242.615 4.08437 1.18572 0
M  V30 2859 N 240.93 -0.123565 1.57115 0
M  V30 2860 C 241.86 -1.15309 2.03042 0
M  V30 2861 C 242.841 -1.43454 0.914061 0
M  V30 2862 O 244.026 -1.53973 1.18347 0
M  V30 2863 C 241.156 -2.48043 2.43089 0
M  V30 2864 C 240.11 -2.3437 3.58127 0
M  V30 2865 C 239.436 -3.72026 3.84059 0
M  V30 2866 C 240.736 -1.80804 4.90007 0
M  V30 2867 H 242.43 -0.771102 2.893 0
M  V30 2868 H 239.976 -0.369479 1.39179 0
M  V30 2869 H 241.929 -3.20311 2.73823 0
M  V30 2870 H 240.653 -2.88122 1.53796 0
M  V30 2871 H 239.312 -1.64551 3.27595 0
M  V30 2872 H 238.96 -4.09582 2.91979 0
M  V30 2873 H 238.66 -3.63732 4.6149 0
M  V30 2874 H 240.184 -4.45806 4.1724 0
M  V30 2875 H 241.598 -2.42886 5.19307 0
M  V30 2876 H 239.995 -1.83343 5.71407 0
M  V30 2877 H 241.065 -0.76528 4.78823 0
M  V30 2878 N 242.408 -1.52605 -0.393616 0
M  V30 2879 C 243.356 -1.77688 -1.50099 0
M  V30 2880 C 244.35 -0.644615 -1.56656 0
M  V30 2881 O 245.556 -0.826997 -1.59877 0
M  V30 2882 H 241.931 -0.562159 -0.499481 0
M  V30 2883 H 243.902 -2.7043 -1.26135 0
M  V30 2884 C 242.651 -1.95858 -2.87289 0
M  V30 2885 H 241.974 -2.8241 -2.82992 0
M  V30 2886 H 243.414 -2.174 -3.64024 0
M  V30 2887 C 241.873 -0.729848 -3.28899 0
M  V30 2888 O 242.403 0.0949217 -4.01588 0
M  V30 2889 N 240.609 -0.561283 -2.85128 0
M  V30 2890 H 240.156 -1.23357 -2.26143 0
M  V30 2891 H 240.114 0.2595 -3.13327 0
M  V30 2892 N 243.887 0.651787 -1.4349 0
M  V30 2893 C 245.135 1.40888 -1.44897 0
M  V30 2894 C 245.456 1.94856 -0.0749086 0
M  V30 2895 O 244.726 1.74518 0.889956 0
M  V30 2896 H 243.306 0.522887 -0.533478 0
M  V30 2897 H 245.968 0.768609 -1.79104 0
M  V30 2898 H 245.064 2.25052 -2.16236 0
M  V30 2899 N 245.365 1.30045 0.890287 0
M  V30 2900 C 246.642 1.09227 1.62262 0
M  V30 2901 C 247.022 -0.360305 2.08002 0
M  V30 2902 O 246.37 -1.35084 1.84295 0
M  V30 2903 C 246.58 2.08835 2.79623 0
M  V30 2904 C 247.928 2.40266 3.50082 0
M  V30 2905 O 248.952 2.07104 2.89804 0
M  V30 2906 O 247.811 2.96967 4.58773 0
M  V30 2907 H 244.905 0.419132 0.712922 0
M  V30 2908 H 247.451 1.41451 0.937529 0
M  V30 2909 H 246.223 3.06633 2.43089 0
M  V30 2910 H 245.846 1.77397 3.55832 0
M  V30 2911 N 246.843 -1.10192 1.12674 0
M  V30 2912 C 247.79 -2.16606 0.796906 0
M  V30 2913 C 248.76 -1.64394 -0.237476 0
M  V30 2914 O 249.945 -1.90474 -0.111484 0
M  V30 2915 C 247.085 -3.44116 0.26043 0
M  V30 2916 C 246.198 -4.10268 1.35293 0
M  V30 2917 C 245.333 -5.25507 0.775621 0
M  V30 2918 C 244.372 -5.83567 1.84706 0
M  V30 2919 N 243.509 -6.90179 1.28829 0
M  V30 2920 H 248.349 -2.44163 1.70846 0
M  V30 2921 H 245.886 -1.19846 0.85295 0
M  V30 2922 H 247.844 -4.17143 -0.0686814 0
M  V30 2923 H 246.474 -3.16901 -0.614274 0
M  V30 2924 H 245.526 -3.35184 1.79877 0
M  V30 2925 H 246.838 -4.4946 2.16303 0
M  V30 2926 H 245.992 -6.05398 0.397327 0
M  V30 2927 H 244.731 -4.87656 -0.0656581 0
M  V30 2928 H 243.736 -5.02344 2.23452 0
M  V30 2929 H 244.961 -6.23482 2.69161 0
M  V30 2930 H 242.907 -6.54322 0.468881 0
M  V30 2931 H 242.824 -7.28097 2.03497 0
M  V30 2932 H 244.092 -7.73844 0.937311 0
M  V30 2933 N 248.321 -0.919034 -1.28029 0
M  V30 2934 C 249.268 -0.410005 -2.27129 0
M  V30 2935 C 250.238 0.518405 -1.57803 0
M  V30 2936 O 251.423 0.439451 -1.8567 0
M  V30 2937 C 248.563 0.339054 -3.4343 0
M  V30 2938 C 247.676 -0.622468 -4.27492 0
M  V30 2939 C 246.811 0.145567 -5.31001 0
M  V30 2940 C 245.85 -0.809226 -6.06727 0
M  V30 2941 N 244.987 -0.0743728 -7.02061 0
M  V30 2942 H 249.827 -1.26011 -2.70047 0
M  V30 2943 H 247.364 -0.632663 -1.328 0
M  V30 2944 H 249.322 0.789586 -4.0966 0
M  V30 2945 H 247.952 1.15346 -3.01488 0
M  V30 2946 H 247.004 -1.19153 -3.61257 0
M  V30 2947 H 248.316 -1.35252 -4.80113 0
M  V30 2948 H 247.47 0.656417 -6.03139 0
M  V30 2949 H 246.209 0.908643 -4.79161 0
M  V30 2950 H 245.214 -1.3314 -5.33436 0
M  V30 2951 H 246.439 -1.57194 -6.60656 0
M  V30 2952 H 244.385 0.670616 -6.52563 0
M  V30 2953 H 244.302 -0.744157 -7.52329 0
M  V30 2954 H 245.57 0.416109 -7.78389 0
M  V30 2955 N 249.799 1.42003 -0.683588 0
M  V30 2956 C 250.762 2.29191 -0.0198243 0
M  V30 2957 C 251.762 1.43773 0.72013 0
M  V30 2958 O 252.952 1.65061 0.556815 0
M  V30 2959 C 250.084 3.26435 0.982487 0
M  V30 2960 H 251.277 2.8938 -0.787345 0
M  V30 2961 H 248.83 1.49789 -0.446418 0
M  V30 2962 H 249.565 2.71203 1.77819 0
M  V30 2963 H 249.35 3.89449 0.455182 0
M  V30 2964 H 250.84 3.918 1.44508 0
M  V30 2965 N 251.277 0.427512 1.51691 0
M  V30 2966 C 252.507 -0.140986 2.06118 0
M  V30 2967 C 252.915 -1.37854 1.29588 0
M  V30 2968 O 252.258 -1.80411 0.346036 0
M  V30 2969 C 252.32 -0.538276 3.55447 0
M  V30 2970 C 251.984 0.591095 4.53161 0
M  V30 2971 C 252.981 1.46027 4.98971 0
M  V30 2972 C 250.666 0.769028 4.96378 0
M  V30 2973 C 252.66 2.49216 5.8666 0
M  V30 2974 C 250.347 1.80421 5.83859 0
M  V30 2975 C 251.345 2.66417 6.28897 0
M  V30 2976 O 251.033 3.68159 7.14643 0
M  V30 2977 H 250.765 -0.0157455 0.675817 0
M  V30 2978 H 253.319 0.602495 1.96365 0
M  V30 2979 H 251.549 -1.33432 3.6295 0
M  V30 2980 H 253.238 -1.0368 3.92435 0
M  V30 2981 H 254.004 1.33429 4.66285 0
M  V30 2982 H 249.883 0.109273 4.6087 0
M  V30 2983 H 253.427 3.16372 6.21735 0
M  V30 2984 H 249.324 1.93042 6.15959 0
M  V30 2985 H 250.092 3.64622 7.32798 0
M  V30 2986 N 252.755 -1.56801 0.158532 0
M  V30 2987 C 254.001 -1.96781 -0.490405 0
M  V30 2988 C 254.334 -1.04397 -1.63753 0
M  V30 2989 O 253.609 -0.0885805 -1.94298 0
M  V30 2990 C 253.892 -3.4635 -0.985594 0
M  V30 2991 C 253.745 -4.49512 0.160824 0
M  V30 2992 C 255.064 -3.98697 -1.86355 0
M  V30 2993 H 252.183 -0.715482 -0.176788 0
M  V30 2994 H 254.825 -1.88451 0.242088 0
M  V30 2995 H 252.975 -3.53579 -1.60978 0
M  V30 2996 H 254.647 -4.54353 0.797537 0
M  V30 2997 H 252.89 -4.26013 0.818256 0
M  V30 2998 H 253.561 -5.51531 -0.227569 0
M  V30 2999 H 256.037 -3.94019 -1.33746 0
M  V30 3000 H 254.913 -5.03792 -2.17909 0
M  V30 3001 H 255.174 -3.41744 -2.8047 0
M  V30 3002 N 254.233 0.115231 -1.57178 0
M  V30 3003 C 255.649 0.468877 -1.52557 0
M  V30 3004 C 255.849 1.81649 -0.872125 0
M  V30 3005 O 254.905 2.48347 -0.45606 0
M  V30 3006 C 256.218 0.4499 -2.97315 0
M  V30 3007 C 257.766 0.533185 -3.08425 0
M  V30 3008 C 258.241 0.54456 -4.54751 0
M  V30 3009 N 259.732 0.605892 -4.5922 0
M  V30 3010 C 260.467 0.636203 -5.6986 0
M  V30 3011 N 259.963 0.623931 -6.89985 0
M  V30 3012 N 261.756 0.679496 -5.57978 0
M  V30 3013 H 253.907 -0.767712 -1.9804 0
M  V30 3014 H 256.17 -0.283609 -0.904583 0
M  V30 3015 H 255.876 -0.472721 -3.48509 0
M  V30 3016 H 255.75 1.27632 -3.5495 0
M  V30 3017 H 258.137 1.44623 -2.57232 0
M  V30 3018 H 258.218 -0.320995 -2.53778 0
M  V30 3019 H 257.862 -0.364452 -5.06591 0
M  V30 3020 H 257.792 1.41568 -5.07214 0
M  V30 3021 H 260.283 0.621386 -3.72756 0
M  V30 3022 H 260.596 0.649787 -7.70063 0
M  V30 3023 H 258.941 0.591296 -6.9248 0
M  V30 3024 H 262.132 0.686472 -4.63039 0
M  V30 3025 H 262.305 0.69965 -6.44212 0
M  V30 3026 N 255.711 1.52812 0.385517 0
M  V30 3027 C 256.641 1.80808 1.47752 0
M  V30 3028 C 257.622 0.660318 1.5676 0
M  V30 3029 O 258.807 0.908246 1.71652 0
M  V30 3030 C 255.937 1.98008 2.85324 0
M  V30 3031 C 254.891 3.13709 2.91154 0
M  V30 3032 C 254.217 3.16169 4.31209 0
M  V30 3033 C 255.517 4.52709 2.60483 0
M  V30 3034 H 257.211 2.72253 1.24573 0
M  V30 3035 H 254.757 1.31003 0.597839 0
M  V30 3036 H 256.71 2.16176 3.61726 0
M  V30 3037 H 255.434 1.03255 3.09848 0
M  V30 3038 H 254.093 2.95329 2.17201 0
M  V30 3039 H 253.741 2.19092 4.52778 0
M  V30 3040 H 253.441 3.93894 4.36029 0
M  V30 3041 H 254.965 3.36496 5.09512 0
M  V30 3042 H 256.379 4.71173 3.26602 0
M  V30 3043 H 254.776 5.32528 2.76648 0
M  V30 3044 H 255.846 4.59186 1.55809 0
M  V30 3045 N 257.189 -0.644168 1.43834 0
M  V30 3046 C 258.414 -1.43642 1.49605 0
M  V30 3047 C 258.839 -1.8773 0.117913 0
M  V30 3048 O 258.197 -1.57938 -0.890239 0
M  V30 3049 C 258.245 -2.6416 2.45463 0
M  V30 3050 O 257.349 -3.63538 1.94714 0
M  V30 3051 H 256.69 -0.430329 0.50568 0
M  V30 3052 H 259.22 -0.787448 1.8884 0
M  V30 3053 H 259.23 -3.11864 2.63068 0
M  V30 3054 H 257.905 -2.31414 3.45572 0
M  V30 3055 H 256.482 -3.2273 1.86814 0
M  V30 3056 N 258.668 -1.30515 -0.883378 0
M  V30 3057 C 259.916 -1.19194 -1.63209 0
M  V30 3058 C 260.237 0.253205 -1.93349 0
M  V30 3059 O 259.507 1.17025 -1.57105 0
M  V30 3060 H 258.087 -0.438148 -0.605009 0
M  V30 3061 H 260.749 -1.63663 -1.05832 0
M  V30 3062 H 259.845 -1.75396 -2.58153 0
M  V30 3063 N 260.146 1.09593 -1.13257 0
M  V30 3064 C 261.056 2.19739 -0.821691 0
M  V30 3065 C 262.072 1.72926 0.19302 0
M  V30 3066 O 263.248 2.01385 0.0244895 0
M  V30 3067 C 260.313 3.45482 -0.290333 0
M  V30 3068 C 259.374 4.06985 -1.36607 0
M  V30 3069 C 258.607 5.26726 -0.859975 0
M  V30 3070 O 258.83 5.69594 0.303082 0
M  V30 3071 O 257.764 5.7931 -1.63351 0
M  V30 3072 H 261.59 2.48781 -1.74189 0
M  V30 3073 H 259.175 1.18496 -0.909894 0
M  V30 3074 H 261.057 4.214 0.000674022 0
M  V30 3075 H 259.732 3.18047 0.602306 0
M  V30 3076 H 258.639 3.32712 -1.71037 0
M  V30 3077 H 259.972 4.38643 -2.23279 0
M  V30 3078 N 261.624 0.925811 1.2754 0
M  V30 3079 C 262.574 0.394488 2.24561 0
M  V30 3080 C 263.558 -0.500183 1.52928 0
M  V30 3081 O 264.75 -0.337936 1.73744 0
M  V30 3082 C 261.879 -0.353328 3.41477 0
M  V30 3083 C 260.965 0.557752 4.20416 0
M  V30 3084 N 261.356 1.67674 4.77199 0
M  V30 3085 C 259.654 0.360404 4.44541 0
M  V30 3086 C 260.355 2.24324 5.36706 0
M  V30 3087 N 259.331 1.53305 5.21535 0
M  V30 3088 H 263.133 1.2489 2.66045 0
M  V30 3089 H 260.647 0.779864 1.4245 0
M  V30 3090 H 262.644 -0.7509 4.10082 0
M  V30 3091 H 261.304 -1.20469 3.01525 0
M  V30 3092 H 262.315 2.05915 4.75204 0
M  V30 3093 H 258.992 -0.450454 4.15063 0
M  V30 3094 H 260.382 3.18521 5.91603 0
M  V30 3095 N 263.102 -1.41638 0.69111 0
M  V30 3096 C 264.379 -1.95036 0.148421 0
M  V30 3097 C 264.759 -1.63072 -1.34055 0
M  V30 3098 O 264.107 -0.93538 -2.08478 0
M  V30 3099 C 264.317 -3.46279 0.434951 0
M  V30 3100 C 265.665 -4.23069 0.360275 0
M  V30 3101 O 266.689 -3.54277 0.369613 0
M  V30 3102 O 265.548 -5.45583 0.316534 0
M  V30 3103 H 262.642 -0.826908 0.0123654 0
M  V30 3104 H 265.188 -1.5138 0.766963 0
M  V30 3105 H 263.96 -3.6281 1.46576 0
M  V30 3106 H 263.583 -3.97019 -0.214787 0
M  V30 3107 N 264.58 -0.43555 -1.51462 0
M  V30 3108 C 265.543 0.365137 -2.26273 0
M  V30 3109 C 266.543 0.951227 -1.29647 0
M  V30 3110 O 267.733 0.825958 -1.53374 0
M  V30 3111 C 264.865 1.51645 -3.05314 0
M  V30 3112 H 266.058 -0.290474 -2.9849 0
M  V30 3113 H 263.611 -0.188676 -1.55157 0
M  V30 3114 H 264.346 2.20816 -2.3751 0
M  V30 3115 H 264.131 1.10238 -3.76284 0
M  V30 3116 H 265.621 2.08218 -3.61987 0
M  V30 3117 N 266.058 1.56714 -0.166846 0
M  V30 3118 C 266.988 2.20754 0.760913 0
M  V30 3119 C 267.969 1.16178 1.24244 0
M  V30 3120 O 269.154 1.44592 1.29641 0
M  V30 3121 C 266.284 2.84478 1.99223 0
M  V30 3122 C 265.238 3.95053 1.64672 0
M  V30 3123 C 264.564 4.45805 2.95232 0
M  V30 3124 C 265.864 5.14865 0.878155 0
M  V30 3125 H 267.558 2.98537 0.22713 0
M  V30 3126 H 265.104 1.43596 0.107805 0
M  V30 3127 H 267.057 3.27951 2.64624 0
M  V30 3128 H 265.781 2.04056 2.55007 0
M  V30 3129 H 264.44 3.52228 1.01641 0
M  V30 3130 H 264.088 3.62181 3.49047 0
M  V30 3131 H 263.788 5.204 2.7287 0
M  V30 3132 H 265.312 4.91962 3.6167 0
M  V30 3133 H 266.726 5.55059 1.43466 0
M  V30 3134 H 265.123 5.95348 0.753738 0
M  V30 3135 H 266.193 4.84735 -0.126377 0
M  V30 3136 N 267.536 -0.106894 1.57237 0
M  V30 3137 C 268.446 -1.14911 2.0453 0
M  V30 3138 C 269.462 -1.44592 0.96795 0
M  V30 3139 O 270.638 -1.55468 1.2803 0
M  V30 3140 C 267.703 -2.45272 2.45036 0
M  V30 3141 C 266.764 -2.22879 3.66911 0
M  V30 3142 C 265.997 -3.47024 4.05475 0
M  V30 3143 O 266.22 -4.54804 3.44252 0
M  V30 3144 O 265.154 -3.3731 4.98504 0
M  V30 3145 H 268.98 -0.777461 2.9358 0
M  V30 3146 H 266.565 -0.318563 1.45964 0
M  V30 3147 H 268.447 -3.22055 2.71769 0
M  V30 3148 H 267.122 -2.81886 1.59129 0
M  V30 3149 H 266.029 -1.43915 3.45311 0
M  V30 3150 H 267.362 -1.91163 4.53561 0
M  V30 3151 N 269.014 -1.53014 -0.377408 0
M  V30 3152 C 270.26 -1.68872 -1.12294 0
M  V30 3153 C 270.593 -0.433224 -1.89306 0
M  V30 3154 O 269.868 0.569258 -1.85983 0
M  V30 3155 C 270.151 -2.93115 -2.09179 0
M  V30 3156 C 270.004 -4.28794 -1.35853 0
M  V30 3157 C 271.323 -3.12928 -3.09458 0
M  V30 3158 H 268.442 -0.614518 -0.406862 0
M  V30 3159 H 271.084 -1.85633 -0.40503 0
M  V30 3160 H 269.234 -2.78956 -2.70399 0
M  V30 3161 H 270.906 -4.54742 -0.775082 0
M  V30 3162 H 269.149 -4.28744 -0.660364 0
M  V30 3163 H 269.82 -5.11837 -2.06706 0
M  V30 3164 H 272.296 -3.26194 -2.58334 0
M  V30 3165 H 271.172 -4.01316 -3.74482 0
M  V30 3166 H 271.433 -2.27669 -3.78971 0
M  V30 3167 N 270.492 0.636531 -1.44174 0
M  V30 3168 C 271.455 1.73063 -1.50273 0
M  V30 3169 C 272.455 1.56113 -0.385397 0
M  V30 3170 O 273.645 1.61707 -0.64781 0
M  V30 3171 C 270.777 3.12096 -1.37145 0
M  V30 3172 H 271.97 1.69031 -2.47727 0
M  V30 3173 H 269.523 0.849706 -1.31186 0
M  V30 3174 H 270.258 3.21728 -0.407636 0
M  V30 3175 H 270.043 3.25805 -2.18159 0
M  V30 3176 H 271.533 3.91846 -1.44382 0
M  V30 3177 N 271.97 1.30982 0.876444 0
M  V30 3178 C 272.918 1.18006 2.00443 0
M  V30 3179 C 273.912 0.0898871 1.69161 0
M  V30 3180 O 275.118 0.251333 1.78237 0
M  V30 3181 H 271.493 0.365196 0.65737 0
M  V30 3182 H 273.464 2.13453 2.0852 0
M  V30 3183 C 272.213 0.897521 3.35916 0
M  V30 3184 H 271.536 1.7285 3.60504 0
M  V30 3185 H 272.976 0.846874 4.15456 0
M  V30 3186 C 271.435 -0.399674 3.34521 0
M  V30 3187 O 271.965 -1.41852 3.7582 0
M  V30 3188 N 270.171 -0.413893 2.87637 0
M  V30 3189 H 269.718 0.41571 2.54224 0
M  V30 3190 H 269.676 -1.28175 2.87086 0
M  V30 3191 N 273.449 -1.08991 1.13837 0
M  V30 3192 C 274.396 -2.15748 0.819835 0
M  V30 3193 C 275.366 -1.64636 -0.220026 0
M  V30 3194 O 276.551 -1.90582 -0.0912757 0
M  V30 3195 C 273.691 -3.4382 0.296913 0
M  V30 3196 C 272.804 -4.0881 1.39636 0
M  V30 3197 C 271.939 -5.24655 0.831314 0
M  V30 3198 C 270.978 -5.81575 1.90886 0
M  V30 3199 N 270.115 -6.88774 1.36142 0
M  V30 3200 H 274.955 -2.42338 1.73426 0
M  V30 3201 H 272.492 -1.18935 0.865613 0
M  V30 3202 H 274.45 -4.17193 -0.0244339 0
M  V30 3203 H 273.08 -3.17535 -0.580628 0
M  V30 3204 H 272.132 -3.33258 1.83422 0
M  V30 3205 H 273.444 -4.47141 2.21058 0
M  V30 3206 H 272.598 -6.04942 0.461515 0
M  V30 3207 H 271.337 -4.87698 -0.013932 0
M  V30 3208 H 270.342 -4.99946 2.28767 0
M  V30 3209 H 271.567 -6.20592 2.75758 0
M  V30 3210 H 269.513 -6.53788 0.538254 0
M  V30 3211 H 269.43 -7.25898 2.11208 0
M  V30 3212 H 270.698 -7.72806 1.01933 0
M  V30 3213 N 274.927 -0.932562 -1.27047 0
M  V30 3214 C 276.176 -0.571351 -1.93439 0
M  V30 3215 C 276.489 0.892467 -1.74053 0
M  V30 3216 O 277.695 1.36267 -2.34826 0
M  V30 3217 C 276.151 -0.97106 -3.46552 0
M  V30 3218 C 275.759 -2.4559 -3.74686 0
M  V30 3219 C 277.503 -0.681333 -4.18997 0
M  V30 3220 C 275.41 -2.79475 -5.21198 0
M  V30 3221 H 274.34 -0.209966 -0.724176 0
M  V30 3222 H 276.991 -1.13403 -1.44263 0
M  V30 3223 H 275.373 -0.336983 -3.94564 0
M  V30 3224 H 276.547 -3.13829 -3.37414 0
M  V30 3225 H 274.862 -2.71802 -3.15456 0
M  V30 3226 H 277.459 -0.910939 -5.26883 0
M  V30 3227 H 277.802 0.381628 -4.14547 0
M  V30 3228 H 278.335 -1.27473 -3.76823 0
M  V30 3229 H 275.074 -3.847 -5.30741 0
M  V30 3230 H 274.594 -2.1589 -5.596 0
M  V30 3231 H 276.273 -2.67478 -5.89122 0
M  V30 3232 N 276.405 1.4127 -0.698611 0
M  V30 3233 C 277.653 2.00782 -0.230409 0
M  V30 3234 C 277.974 1.5562 1.17505 0
M  V30 3235 O 277.244 0.78815 1.79346 0
M  V30 3236 H 275.824 0.742464 -0.0821944 0
M  V30 3237 H 278.486 1.72852 -0.90045 0
M  V30 3238 H 277.582 3.11095 -0.25021 0
M  V30 3239 N 277.883 0.443576 1.51229 0
M  V30 3240 C 279.132 -0.122332 2.01329 0
M  V30 3241 C 279.445 -1.43237 1.33201 0
M  V30 3242 O 280.651 -2.0816 1.74304 0
M  V30 3243 C 279.107 -0.268551 3.58897 0
M  V30 3244 C 278.715 1.03142 4.35965 0
M  V30 3245 C 280.459 -0.787894 4.17124 0
M  V30 3246 C 278.366 0.850504 5.85252 0
M  V30 3247 H 277.296 -0.0494929 0.752374 0
M  V30 3248 H 279.947 0.574289 1.74282 0
M  V30 3249 H 278.329 -1.02832 3.82415 0
M  V30 3250 H 279.503 1.80001 4.24189 0
M  V30 3251 H 277.818 1.47977 3.89219 0
M  V30 3252 H 280.415 -0.939841 5.26375 0
M  V30 3253 H 280.758 -1.77201 3.76703 0
M  V30 3254 H 281.291 -0.0862669 3.97706 0
M  V30 3255 H 278.03 1.80718 6.30096 0
M  V30 3256 H 277.55 0.121825 5.99676 0
M  V30 3257 H 279.229 0.506163 6.45017 0
M  V30 3258 N 279.361 -1.56624 0.175154 0
M  V30 3259 C 280.291 -2.21155 -0.749195 0
M  V30 3260 C 281.272 -1.16836 -1.23626 0
M  V30 3261 O 282.457 -1.45277 -1.28873 0
M  V30 3262 C 279.587 -2.8553 -1.97711 0
M  V30 3263 C 278.541 -3.95921 -1.62575 0
M  V30 3264 C 277.867 -4.47365 -2.92864 0
M  V30 3265 C 279.167 -5.15323 -0.850838 0
M  V30 3266 H 280.861 -2.98653 -0.211295 0
M  V30 3267 H 278.407 -1.43651 -0.100188 0
M  V30 3268 H 280.36 -3.2935 -2.62881 0
M  V30 3269 H 279.084 -2.05406 -2.53921 0
M  V30 3270 H 277.743 -3.52762 -0.997719 0
M  V30 3271 H 277.391 -3.64027 -3.47122 0
M  V30 3272 H 277.091 -5.21839 -2.70106 0
M  V30 3273 H 278.615 -4.93873 -3.59056 0
M  V30 3274 H 280.029 -5.55812 -1.40521 0
M  V30 3275 H 278.426 -5.95739 -0.722154 0
M  V30 3276 H 279.496 -4.84661 0.152082 0
M  V30 3277 O 280.878 -0.0374081 -1.61457 0
M  V30 3278 H 281.569 0.573968 -1.85001 0
M  V30 END ATOM
M  V30 BEGIN BOND
M  V30 END BOND
M  V30 END CTAB
M  END
$$$$
