drugbank_target|P51956 Serine/threonine-protein kinase Nek3 (DB12010)
 OpenBabel12092121173D

  0  0  0     0  0            999 V3000
M  V30 BEGIN CTAB
M  V30 COUNTS 8085 8169 0 0 0
M  V30 BEGIN ATOM
M  V30 1 H -0.908 1.98254 -0.117106 0
M  V30 2 N 0 1.576 0 0
M  V30 3 C 0.933 2.03868 1.02534 0
M  V30 4 C 1.911 0.928543 1.3348 0
M  V30 5 O 3.095 1.19667 1.45644 0
M  V30 6 C 0.222 2.43627 2.35294 0
M  V30 7 C -0.732 3.65373 2.2001 0
M  V30 8 S 0.101 5.13292 1.52614 0
M  V30 9 C 1.257 5.56322 2.86805 0
M  V30 10 H 1.49 2.90518 0.631377 0
M  V30 11 H -0.977 1.52953 0.210867 0
M  V30 12 H 0.981 2.67203 3.11629 0
M  V30 13 H -0.358 1.57376 2.7183 0
M  V30 14 H -1.165 3.90944 3.18086 0
M  V30 15 H -1.563 3.418 1.51819 0
M  V30 16 H 0.729 5.58782 3.83104 0
M  V30 17 H 1.672 6.56266 2.65933 0
M  V30 18 H 2.08 4.83886 2.90714 0
M  V30 19 N 1.4781 -0.272755 1.55222 0
M  V30 20 C 2.7551 -1.02562 1.66555 0
M  V30 21 C 3.1351 -2.04282 0.532189 0
M  V30 22 O 2.4831 -2.23662 -0.467717 0
M  V30 23 C 2.6931 -1.6822 3.05782 0
M  V30 24 C 4.0411 -2.19373 3.63539 0
M  V30 25 O 5.0651 -1.78206 3.08417 0
M  V30 26 O 3.9241 -2.94883 4.60115 0
M  V30 27 H 1.0181 -0.475755 0.676451 0
M  V30 28 H 3.5641 -0.268593 1.67561 0
M  V30 29 H 2.3361 -0.945112 3.79715 0
M  V30 30 H 1.9591 -2.50609 3.08676 0
M  V30 31 N 2.9562 -1.48159 -0.537278 0
M  V30 32 C 4.2332 -1.46291 -1.29839 0
M  V30 33 C 4.6132 -0.170613 -2.10409 0
M  V30 34 O 3.9612 0.847746 -2.12192 0
M  V30 35 C 4.1712 -2.72055 -2.18603 0
M  V30 36 C 5.5192 -3.20087 -2.7898 0
M  V30 37 O 6.5432 -2.72921 -2.28894 0
M  V30 38 O 5.4022 -4.02138 -3.70064 0
M  V30 39 H 2.4962 -0.583906 -0.585647 0
M  V30 40 H 5.0422 -1.60384 -0.554534 0
M  V30 41 H 3.8142 -3.57628 -1.58801 0
M  V30 42 H 3.4372 -2.60646 -3.00249 0
M  V30 43 N 4.4343 0.785586 -1.36625 0
M  V30 44 C 5.6643 1.5722 -1.34036 0
M  V30 45 C 6.0723 1.89033 0.0795062 0
M  V30 46 O 5.4153 1.50881 1.04789 0
M  V30 47 C 5.4773 2.91759 -2.10041 0
M  V30 48 C 5.1413 2.82654 -3.59104 0
M  V30 49 C 6.1383 2.54634 -4.53274 0
M  V30 50 C 3.8233 3.01111 -4.02042 0
M  V30 51 C 5.8173 2.45177 -5.88359 0
M  V30 52 C 3.5043 2.91276 -5.37216 0
M  V30 53 C 4.5023 2.63348 -6.30188 0
M  V30 54 O 4.1903 2.53514 -7.6288 0
M  V30 55 H 3.9223 0.494177 -0.461265 0
M  V30 56 H 6.4763 0.982632 -1.8037 0
M  V30 57 H 4.7063 3.52781 -1.58375 0
M  V30 58 H 6.3953 3.53059 -2.00261 0
M  V30 59 H 7.1613 2.40073 -4.21414 0
M  V30 60 H 3.0403 3.21854 -3.30047 0
M  V30 61 H 6.5843 2.23299 -6.60896 0
M  V30 62 H 2.4813 3.054 -5.68684 0
M  V30 63 H 3.2493 2.68967 -7.73045 0
M  V30 64 N 5.9124 1.20967 1.01018 0
M  V30 65 C 6.8454 0.907578 2.09376 0
M  V30 66 C 7.8234 -0.142868 1.61971 0
M  V30 67 O 9.0074 -0.0150391 1.88494 0
M  V30 68 C 6.1344 0.361791 3.36762 0
M  V30 69 C 5.1804 1.39423 4.03068 0
M  V30 70 S 6.0134 2.96159 4.4615 0
M  V30 71 C 7.1694 2.43173 5.7673 0
M  V30 72 H 7.4024 1.82519 2.34678 0
M  V30 73 H 4.9354 1.03884 1.14225 0
M  V30 74 H 6.8934 0.0534523 4.10465 0
M  V30 75 H 5.5544 -0.53443 3.0952 0
M  V30 76 H 4.7474 0.961853 4.94737 0
M  V30 77 H 4.3494 1.65038 3.35617 0
M  V30 78 H 6.6414 1.83335 6.52223 0
M  V30 79 H 7.5844 3.33264 6.24773 0
M  V30 80 H 7.9924 1.85069 5.33301 0
M  V30 81 N 7.3905 -1.2043 1.01659 0
M  V30 82 C 8.6365 -1.90079 0.706963 0
M  V30 83 C 8.9695 -1.78648 -0.761474 0
M  V30 84 O 8.2445 -1.17069 -1.55323 0
M  V30 85 C 8.5275 -3.41469 1.14327 0
M  V30 86 C 8.3805 -3.61833 2.67201 0
M  V30 87 C 9.6995 -4.34261 0.714529 0
M  V30 88 H 6.8185 -0.690254 0.2583 0
M  V30 89 H 9.4605 -1.41826 1.26433 0
M  V30 90 H 7.6105 -3.82696 0.669056 0
M  V30 91 H 9.2825 -3.2986 3.22475 0
M  V30 92 H 7.5255 -3.05304 3.08175 0
M  V30 93 H 8.1965 -4.67955 2.92783 0
M  V30 94 H 10.6725 -4.00682 1.12221 0
M  V30 95 H 9.5485 -5.38806 1.04784 0
M  V30 96 H 9.8095 -4.40431 -0.383799 0
M  V30 97 N 8.8686 -0.792821 -1.36206 0
M  V30 98 C 9.7986 -0.207853 -2.32573 0
M  V30 99 C 10.7796 0.659055 -1.56813 0
M  V30 100 O 11.9646 0.592176 -1.84951 0
M  V30 101 C 9.0946 0.655449 -3.41059 0
M  V30 102 C 8.0486 -0.111842 -4.27854 0
M  V30 103 C 7.3746 0.872274 -5.27537 0
M  V30 104 C 8.6746 -1.30299 -5.05786 0
M  V30 105 H 10.3686 -1.01294 -2.81744 0
M  V30 106 H 7.9146 -0.48854 -1.3546 0
M  V30 107 H 9.8676 1.07464 -4.07467 0
M  V30 108 H 8.5916 1.49328 -2.90463 0
M  V30 109 H 7.2506 -0.512053 -3.63006 0
M  V30 110 H 6.8986 1.70523 -4.73214 0
M  V30 111 H 6.5986 0.363291 -5.86476 0
M  V30 112 H 8.1226 1.28996 -5.96818 0
M  V30 113 H 9.5366 -0.959379 -5.65216 0
M  V30 114 H 7.9336 -1.7455 -5.74154 0
M  V30 115 H 9.0036 -2.09663 -4.37229 0
M  V30 116 N 10.3467 1.47872 -0.545128 0
M  V30 117 C 11.7627 1.5829 -0.204032 0
M  V30 118 C 11.9627 1.54529 1.29317 0
M  V30 119 O 11.0187 1.44232 2.07252 0
M  V30 120 C 12.3317 2.89304 -0.819987 0
M  V30 121 C 13.8797 3.02864 -0.790105 0
M  V30 122 C 14.3547 4.3656 -1.38491 0
M  V30 123 N 15.8457 4.43165 -1.34755 0
M  V30 124 C 16.5807 5.45153 -1.77753 0
M  V30 125 N 16.0767 6.54016 -2.2855 0
M  V30 126 N 17.8697 5.36125 -1.68897 0
M  V30 127 H 10.0207 1.4856 -1.51802 0
M  V30 128 H 12.2837 0.706305 -0.632327 0
M  V30 129 H 11.9897 2.97757 -1.87173 0
M  V30 130 H 11.8637 3.75957 -0.305915 0
M  V30 131 H 14.2507 2.94014 0.252913 0
M  V30 132 H 14.3317 2.17782 -1.34181 0
M  V30 133 H 13.9757 4.46164 -2.42693 0
M  V30 134 H 13.9057 5.20353 -0.808754 0
M  V30 135 H 16.3967 3.65083 -0.975855 0
M  V30 136 H 16.7097 7.27994 -2.59314 0
M  V30 137 H 15.0547 6.54938 -2.32553 0
M  V30 138 H 18.2457 4.49975 -1.28998 0
M  V30 139 H 18.4187 6.15472 -2.02726 0
M  V30 140 N 11.8248 0.280983 1.55075 0
M  V30 141 C 12.7578 -0.645439 2.18882 0
M  V30 142 C 13.7358 -1.14786 1.15165 0
M  V30 143 O 14.9198 -1.21975 1.43716 0
M  V30 144 C 12.0468 -1.88088 2.81674 0
M  V30 145 C 11.0928 -1.51343 3.98745 0
M  V30 146 S 11.9258 -0.586548 5.32278 0
M  V30 147 C 13.0818 -1.83024 5.98543 0
M  V30 148 H 13.3148 -0.1033 2.9712 0
M  V30 149 H 10.8478 0.0652099 1.54262 0
M  V30 150 H 12.8058 -2.58997 3.18482 0
M  V30 151 H 11.4668 -2.39417 2.03318 0
M  V30 152 H 10.6598 -2.43289 4.41392 0
M  V30 153 H 10.2618 -0.884477 3.63391 0
M  V30 154 H 12.5538 -2.77342 6.18133 0
M  V30 155 H 13.4968 -1.44668 6.93164 0
M  V30 156 H 13.9048 -1.99785 5.27964 0
M  V30 157 N 13.3029 -1.57598 0.00835791 0
M  V30 158 C 14.5519 -1.90107 -0.673968 0
M  V30 159 C 14.8649 -0.884275 -1.7447 0
M  V30 160 O 16.0709 -1.09987 -2.48224 0
M  V30 161 C 14.5269 -3.37497 -1.24995 0
M  V30 162 C 14.1349 -4.47491 -0.2136 0
M  V30 163 C 15.8789 -3.79104 -1.90999 0
M  V30 164 C 13.7859 -5.85963 -0.80005 0
M  V30 165 H 12.7159 -0.709393 -0.255495 0
M  V30 166 H 15.3669 -1.83365 0.0702693 0
M  V30 167 H 13.7489 -3.39102 -2.04513 0
M  V30 168 H 14.9229 -4.57414 0.557596 0
M  V30 169 H 13.2379 -4.14956 0.346474 0
M  V30 170 H 15.8349 -4.79901 -2.35795 0
M  V30 171 H 16.1779 -3.1306 -2.74407 0
M  V30 172 H 16.7109 -3.79833 -1.18203 0
M  V30 173 H 13.4499 -6.555 -0.00456708 0
M  V30 174 H 12.9699 -5.79687 -1.54021 0
M  V30 175 H 14.6489 -6.33884 -1.29615 0
M  V30 176 N 14.781 0.264519 -1.55364 0
M  V30 177 C 16.029 0.993021 -1.76021 0
M  V30 178 C 16.35 1.86511 -0.569099 0
M  V30 179 O 15.62 1.91438 0.415735 0
M  V30 180 H 14.2 0.369639 -0.649135 0
M  V30 181 H 16.862 0.286707 -1.9278 0
M  V30 182 H 15.958 1.62502 -2.66457 0
M  V30 183 N 16.2591 1.48442 0.529413 0
M  V30 184 C 17.1691 1.6569 1.66084 0
M  V30 185 C 18.1851 0.539432 1.65427 0
M  V30 186 O 19.3611 0.810572 1.84368 0
M  V30 187 C 16.4261 1.69315 3.02545 0
M  V30 188 C 15.4871 2.92694 3.14052 0
M  V30 189 C 14.7201 2.96137 4.44003 0
M  V30 190 O 14.9431 2.07973 5.31134 0
M  V30 191 O 13.8771 3.88312 4.59888 0
M  V30 192 H 17.7031 2.61483 1.54469 0
M  V30 193 H 15.2881 1.3185 0.702567 0
M  V30 194 H 17.1701 1.74217 3.83701 0
M  V30 195 H 15.8451 0.766966 3.14483 0
M  V30 196 H 14.7521 2.93324 2.32189 0
M  V30 197 H 16.0851 3.84699 3.0703 0
M  V30 198 N 17.7372 -0.778329 1.37039 0
M  V30 199 C 18.9852 -1.53361 1.31623 0
M  V30 200 C 19.3062 -1.94739 -0.100831 0
M  V30 201 O 18.5762 -1.65797 -1.04347 0
M  V30 202 H 17.1562 -0.568794 0.484234 0
M  V30 203 H 19.8182 -0.926742 1.71457 0
M  V30 204 H 18.9142 -2.43606 1.95096 0
M  V30 205 N 19.2153 -1.21501 -1.00376 0
M  V30 206 C 20.4403 -1.05977 -1.78279 0
M  V30 207 C 20.8653 0.385994 -1.84097 0
M  V30 208 O 20.2233 1.27849 -1.28547 0
M  V30 209 C 20.2713 -1.66302 -3.19963 0
M  V30 210 O 19.3753 -0.909333 -4.0225 0
M  V30 211 H 18.7163 -0.372906 -0.549397 0
M  V30 212 H 21.2463 -1.6107 -1.26165 0
M  V30 213 H 21.2563 -1.70574 -3.70632 0
M  V30 214 H 19.9313 -2.71515 -3.15043 0
M  V30 215 H 18.5083 -0.941795 -3.60811 0
M  V30 216 N 20.6934 1.19889 -1.02296 0
M  V30 217 C 21.9404 1.8942 -0.715972 0
M  V30 218 C 22.2684 1.79251 0.754944 0
M  V30 219 O 21.5234 1.17526 1.56481 0
M  V30 220 C 21.8224 3.39883 -1.10518 0
M  V30 221 C 21.4884 3.70254 -2.57337 0
M  V30 222 C 20.1504 3.78254 -2.97452 0
M  V30 223 C 22.5024 3.84052 -3.52354 0
M  V30 224 C 19.8304 3.97514 -4.31509 0
M  V30 225 C 22.1824 4.04824 -4.86108 0
M  V30 226 C 20.8464 4.11054 -5.25919 0
M  V30 227 H 20.1164 0.693138 -0.261993 0
M  V30 228 H 22.7634 1.42012 -1.28472 0
M  V30 229 H 21.0684 3.8915 -0.454953 0
M  V30 230 H 22.7654 3.9199 -0.845261 0
M  V30 231 H 19.3554 3.64632 -2.25258 0
M  V30 232 H 23.5394 3.77221 -3.22518 0
M  V30 233 H 18.7954 4.00574 -4.61898 0
M  V30 234 H 22.9694 4.14442 -5.59653 0
M  V30 235 H 20.5964 4.2573 -6.29808 0
M  V30 236 N 22.1715 0.800033 1.35784 0
M  V30 237 C 23.4195 0.376597 1.9856 0
M  V30 238 C 23.7405 -1.05812 1.63795 0
M  V30 239 O 23.0105 -1.73103 0.917171 0
M  V30 240 H 21.5905 0.136261 0.734467 0
M  V30 241 H 24.2525 1.02442 1.65806 0
M  V30 242 H 23.3485 0.477002 3.08433 0
M  V30 243 N 23.6496 -1.47581 0.552962 0
M  V30 244 C 25.0656 -1.5818 0.212424 0
M  V30 245 C 25.2656 -1.55213 -1.28496 0
M  V30 246 O 24.3216 -1.45329 -2.06484 0
M  V30 247 C 25.6346 -2.88865 0.835318 0
M  V30 248 C 27.1826 -3.0244 0.806156 0
M  V30 249 C 27.6576 -4.35819 1.40804 0
M  V30 250 N 29.1486 -4.42444 1.37103 0
M  V30 251 C 29.8836 -5.44202 1.80641 0
M  V30 252 N 29.3796 -6.52795 2.32015 0
M  V30 253 N 31.1726 -5.35222 1.71738 0
M  V30 254 H 23.3236 -1.47753 1.52587 0
M  V30 255 H 25.5866 -0.702941 0.636064 0
M  V30 256 H 25.2926 -2.9676 1.88749 0
M  V30 257 H 25.1666 -3.7579 0.325848 0
M  V30 258 H 27.5536 -2.94144 -0.237317 0
M  V30 259 H 27.6346 -2.17068 1.35334 0
M  V30 260 H 27.2786 -4.44871 2.45056 0
M  V30 261 H 27.2086 -5.19916 0.836338 0
M  V30 262 H 29.6996 -3.6456 0.995202 0
M  V30 263 H 30.0126 -7.26609 2.63171 0
M  V30 264 H 28.3576 -6.53696 2.36023 0
M  V30 265 H 31.5486 -4.49284 1.31382 0
M  V30 266 H 31.7216 -6.14389 2.05987 0
M  V30 267 N 25.1277 -0.289203 -1.54924 0
M  V30 268 C 26.0907 0.579144 -2.21762 0
M  V30 269 C 27.0907 1.07047 -1.1999 0
M  V30 270 O 28.2807 0.968384 -1.44803 0
M  V30 271 C 25.4127 1.80055 -2.8947 0
M  V30 272 H 26.6057 -0.00464908 -2.999 0
M  V30 273 H 24.1587 -0.0399306 -1.56249 0
M  V30 274 H 24.8937 2.42449 -2.15381 0
M  V30 275 H 24.6787 1.45602 -3.64064 0
M  V30 276 H 26.1687 2.41773 -3.40493 0
M  V30 277 N 26.6058 1.57591 -0.0167156 0
M  V30 278 C 27.5358 2.12496 0.967858 0
M  V30 279 C 28.5168 1.03807 1.34752 0
M  V30 280 O 29.7018 1.31577 1.42833 0
M  V30 281 C 26.8318 2.64194 2.25431 0
M  V30 282 C 25.7858 3.77559 2.01576 0
M  V30 283 C 25.1118 4.15636 3.36379 0
M  V30 284 C 26.4118 5.04151 1.36489 0
M  V30 285 H 28.1058 2.95013 0.510643 0
M  V30 286 H 25.6518 1.41915 0.244181 0
M  V30 287 H 27.6048 3.01236 2.94678 0
M  V30 288 H 26.3288 1.78821 2.73296 0
M  V30 289 H 24.9878 3.40937 1.34751 0
M  V30 290 H 24.6358 3.27263 3.81979 0
M  V30 291 H 24.3358 4.92022 3.21229 0
M  V30 292 H 25.8598 4.5525 4.06915 0
M  V30 293 H 27.2738 5.38857 1.95718 0
M  V30 294 H 25.6708 5.85453 1.31776 0
M  V30 295 H 26.7408 4.83733 0.336219 0
M  V30 296 N 28.0839 -0.256276 1.55502 0
M  V30 297 C 29.0139 -1.32102 1.92539 0
M  V30 298 C 29.9949 -1.50684 0.789194 0
M  V30 299 O 31.1799 -1.63449 1.04872 0
M  V30 300 C 28.3099 -2.67752 2.21192 0
M  V30 301 C 27.2639 -2.63878 3.36975 0
M  V30 302 C 26.5899 -4.03236 3.51147 0
M  V30 303 C 27.8899 -2.21682 4.72921 0
M  V30 304 H 29.5839 -1.01351 2.81724 0
M  V30 305 H 27.1299 -0.486105 1.35547 0
M  V30 306 H 29.0829 -3.42365 2.45691 0
M  V30 307 H 27.8069 -3.0012 1.28824 0
M  V30 308 H 26.4659 -1.91722 3.12471 0
M  V30 309 H 26.1139 -4.32854 2.56216 0
M  V30 310 H 25.8139 -4.01535 4.29003 0
M  V30 311 H 27.3379 -4.79563 3.77957 0
M  V30 312 H 28.7519 -2.86023 4.96854 0
M  V30 313 H 27.1489 -2.3111 5.53812 0
M  V30 314 H 28.2189 -1.16833 4.70615 0
M  V30 315 N 29.562 -1.4872 -0.521534 0
M  V30 316 C 30.808 -1.574 -1.27879 0
M  V30 317 C 31.141 -0.250817 -1.92573 0
M  V30 318 O 30.416 0.743934 -1.79711 0
M  V30 319 C 30.699 -2.71843 -2.36164 0
M  V30 320 C 30.552 -4.13893 -1.76105 0
M  V30 321 C 31.871 -2.82008 -3.37875 0
M  V30 322 H 28.99 -0.572941 -0.463581 0
M  V30 323 H 31.632 -1.80927 -0.580119 0
M  V30 324 H 29.782 -2.51914 -2.95756 0
M  V30 325 H 31.454 -4.45284 -1.20499 0
M  V30 326 H 29.697 -4.20498 -1.06601 0
M  V30 327 H 30.368 -4.89804 -2.5455 0
M  V30 328 H 32.844 -3.00086 -2.88249 0
M  V30 329 H 31.72 -3.63796 -4.11028 0
M  V30 330 H 31.981 -1.90511 -3.98946 0
M  V30 331 N 31.0401 0.771051 -1.3745 0
M  V30 332 C 31.9721 1.89352 -1.29146 0
M  V30 333 C 32.9851 1.61477 -0.207124 0
M  V30 334 O 34.1741 1.72382 -0.463324 0
M  V30 335 C 31.2741 3.24596 -0.974195 0
M  V30 336 C 30.4471 3.80111 -2.16413 0
M  V30 337 C 29.5061 4.93832 -1.81703 0
M  V30 338 O 28.5321 5.09382 -2.54006 0
M  V30 339 N 29.7341 5.75483 -0.761573 0
M  V30 340 H 32.4991 1.96991 -2.25864 0
M  V30 341 H 30.0601 0.950191 -1.31084 0
M  V30 342 H 32.0521 3.98193 -0.722828 0
M  V30 343 H 30.6221 3.12454 -0.0955527 0
M  V30 344 H 29.8421 2.98284 -2.57721 0
M  V30 345 H 31.1301 4.13932 -2.95867 0
M  V30 346 H 30.5281 5.65469 -0.161609 0
M  V30 347 H 29.0851 6.49302 -0.570064 0
M  V30 348 N 32.5182 1.22032 0.997298 0
M  V30 349 C 33.4682 0.953838 2.07089 0
M  V30 350 C 34.4522 -0.0938669 1.60626 0
M  V30 351 O 35.6442 0.116078 1.76619 0
M  V30 352 C 32.7732 0.528726 3.39204 0
M  V30 353 C 31.8592 1.61092 3.92314 0
M  V30 354 N 32.2502 2.83768 4.18699 0
M  V30 355 C 30.5482 1.48158 4.20672 0
M  V30 356 C 31.2492 3.53715 4.61802 0
M  V30 357 N 30.2252 2.81174 4.65233 0
M  V30 358 H 34.0272 1.88577 2.25424 0
M  V30 359 H 31.5412 1.11719 1.17867 0
M  V30 360 H 33.5382 0.31915 4.15677 0
M  V30 361 H 32.1982 -0.39635 3.22272 0
M  V30 362 H 33.2092 3.20238 4.07023 0
M  V30 363 H 29.8862 0.622369 4.12835 0
M  V30 364 H 31.2762 4.58793 4.90875 0
M  V30 365 N 33.9963 -1.19345 1.0293 0
M  V30 366 C 34.9063 -2.26245 0.620515 0
M  V30 367 C 35.9223 -1.70486 -0.347928 0
M  V30 368 O 37.0983 -2.00347 -0.205704 0
M  V30 369 C 34.1633 -3.46693 -0.0218957 0
M  V30 370 C 33.2243 -4.17632 0.994102 0
M  V30 371 C 32.4573 -5.32329 0.382253 0
M  V30 372 O 32.6803 -5.64552 -0.814676 0
M  V30 373 O 31.6143 -5.91664 1.10531 0
M  V30 374 H 35.4403 -2.63453 1.51083 0
M  V30 375 H 33.0253 -1.26207 0.799513 0
M  V30 376 H 34.9073 -4.19683 -0.380072 0
M  V30 377 H 33.5823 -3.11333 -0.886209 0
M  V30 378 H 32.4893 -3.4676 1.40387 0
M  V30 379 H 33.8223 -4.56964 1.8288 0
M  V30 380 N 35.4744 -0.807222 -1.35358 0
M  V30 381 C 36.6994 -0.399309 -2.0352 0
M  V30 382 C 37.1244 0.981986 -1.60433 0
M  V30 383 O 36.4824 1.63601 -0.781299 0
M  V30 384 C 36.5304 -0.491552 -3.57234 0
M  V30 385 O 35.6344 0.494754 -4.09421 0
M  V30 386 H 34.9754 -0.166682 -0.642739 0
M  V30 387 H 37.5054 -1.09328 -1.72941 0
M  V30 388 H 37.5154 -0.361588 -4.06395 0
M  V30 389 H 36.1904 -1.49907 -3.87944 0
M  V30 390 H 34.7674 0.324977 -3.71481 0
M  V30 391 N 36.9525 1.47285 -0.560781 0
M  V30 392 C 38.1775 2.07359 -0.0410566 0
M  V30 393 C 38.6025 1.41017 1.24483 0
M  V30 394 O 37.9605 0.486368 1.74654 0
M  V30 395 C 38.0085 3.6035 0.134123 0
M  V30 396 O 37.1125 3.94681 1.19587 0
M  V30 397 H 36.4535 0.661887 -0.0529291 0
M  V30 398 H 38.9835 1.89252 -0.777482 0
M  V30 399 H 38.9935 4.0652 0.347207 0
M  V30 400 H 37.6685 4.08034 -0.805047 0
M  V30 401 H 36.2455 3.60251 0.962987 0
M  V30 402 N 38.4306 0.297415 1.54768 0
M  V30 403 C 39.3786 -0.596051 2.24833 0
M  V30 404 C 40.3726 -1.13992 1.25308 0
M  V30 405 O 41.5786 -1.09098 1.4317 0
M  V30 406 H 37.9536 -0.210814 0.721846 0
M  V30 407 H 39.9246 0.0174667 2.98395 0
M  V30 408 C 38.6736 -1.75818 2.99972 0
M  V30 409 H 37.9966 -1.3489 3.76357 0
M  V30 410 H 39.4366 -2.35949 3.52284 0
M  V30 411 C 37.8956 -2.66014 2.06732 0
M  V30 412 O 38.4256 -3.67009 1.63302 0
M  V30 413 N 36.6316 -2.33669 1.72763 0
M  V30 414 H 36.1786 -1.51586 2.08277 0
M  V30 415 H 36.1366 -2.94285 1.10652 0
M  V30 416 N 39.9087 -1.5758 0.0250728 0
M  V30 417 C 40.8407 -2.06869 -0.986796 0
M  V30 418 C 41.8537 -0.991332 -1.29137 0
M  V30 419 O 43.0427 -1.26761 -1.25674 0
M  V30 420 C 40.1427 -2.47486 -2.31525 0
M  V30 421 C 39.3157 -3.78253 -2.19643 0
M  V30 422 C 38.3747 -4.05464 -3.35388 0
M  V30 423 O 37.4007 -4.75774 -3.12454 0
M  V30 424 N 38.6027 -3.55321 -4.59051 0
M  V30 425 H 41.3677 -2.94302 -0.566276 0
M  V30 426 H 38.9287 -1.6109 -0.161776 0
M  V30 427 H 40.9207 -2.62785 -3.07776 0
M  V30 428 H 39.4907 -1.65441 -2.65232 0
M  V30 429 H 38.7107 -3.7279 -1.28144 0
M  V30 430 H 39.9987 -4.63936 -2.08903 0
M  V30 431 H 39.3967 -2.98431 -4.80578 0
M  V30 432 H 37.9537 -3.75905 -5.32483 0
M  V30 433 N 41.3868 0.248026 -1.55636 0
M  V30 434 C 42.3198 1.3334 -1.85191 0
M  V30 435 C 43.2978 1.46429 -0.706906 0
M  V30 436 O 44.4818 1.62662 -0.952544 0
M  V30 437 C 41.6088 2.70703 -2.03562 0
M  V30 438 C 40.6548 2.7477 -3.26196 0
M  V30 439 S 41.4878 2.31493 -4.82878 0
M  V30 440 C 42.6438 3.70783 -5.04253 0
M  V30 441 H 42.8768 1.08072 -2.76962 0
M  V30 442 H 40.4098 0.448952 -1.47729 0
M  V30 443 H 42.3678 3.49798 -2.1483 0
M  V30 444 H 41.0288 2.9321 -1.12635 0
M  V30 445 H 40.2218 3.75648 -3.36013 0
M  V30 446 H 39.8238 2.03719 -3.13647 0
M  V30 447 H 42.1158 4.6627 -4.91527 0
M  V30 448 H 43.0588 3.65901 -6.06236 0
M  V30 449 H 43.4668 3.63244 -4.32105 0
M  V30 450 N 42.8649 1.48995 0.513639 0
M  V30 451 C 44.1119 1.57843 1.26854 0
M  V30 452 C 44.4399 0.259501 1.92761 0
M  V30 453 O 43.6949 -0.75159 1.80692 0
M  V30 454 C 43.9939 2.67756 2.36731 0
M  V30 455 C 43.6599 4.09669 1.88368 0
M  V30 456 C 42.3219 4.48291 1.74896 0
M  V30 457 C 44.6739 4.98537 1.52021 0
M  V30 458 C 42.0019 5.73568 1.23438 0
M  V30 459 C 44.3539 6.24319 1.0202 0
M  V30 460 C 43.0179 6.61783 0.871778 0
M  V30 461 H 42.2879 0.577587 0.464192 0
M  V30 462 H 44.9349 1.82778 0.571366 0
M  V30 463 H 43.2399 2.36743 3.12185 0
M  V30 464 H 44.9369 2.71813 2.9482 0
M  V30 465 H 41.5269 3.79176 1.99808 0
M  V30 466 H 45.7109 4.69363 1.61281 0
M  V30 467 H 40.9669 6.01304 1.10648 0
M  V30 468 H 45.1409 6.92566 0.729722 0
M  V30 469 H 42.7679 7.5874 0.470852 0
M  V30 470 N 44.343 -0.763751 1.37857 0
M  V30 471 C 45.306 -1.85889 1.34081 0
M  V30 472 C 46.306 -1.58949 0.243277 0
M  V30 473 O 47.496 -1.66882 0.499589 0
M  V30 474 C 44.628 -3.23176 1.08489 0
M  V30 475 H 45.821 -1.90648 2.31502 0
M  V30 476 H 43.374 -0.964367 1.23003 0
M  V30 477 H 44.109 -3.24091 0.116318 0
M  V30 478 H 43.894 -3.44124 1.8794 0
M  V30 479 H 45.384 -4.03254 1.08517 0
M  V30 480 N 45.8211 -1.22559 -0.990812 0
M  V30 481 C 46.7541 -0.940773 -2.07905 0
M  V30 482 C 47.7321 0.117082 -1.62178 0
M  V30 483 O 48.9161 -0.0149506 -1.88494 0
M  V30 484 C 46.0431 -0.415321 -3.36144 0
M  V30 485 C 45.0891 -1.45818 -4.00799 0
M  V30 486 S 45.9221 -3.03219 -4.41382 0
M  V30 487 C 47.0781 -2.52317 -5.72789 0
M  V30 488 H 47.3111 -1.8623 -2.31745 0
M  V30 489 H 44.8441 -1.05688 -1.12558 0
M  V30 490 H 46.8021 -0.118747 -4.10328 0
M  V30 491 H 45.4631 0.485121 -3.10331 0
M  V30 492 H 44.6561 -1.04044 -4.93144 0
M  V30 493 H 44.2581 -1.70356 -3.32949 0
M  V30 494 H 46.5501 -1.93688 -6.49224 0
M  V30 495 H 47.4931 -3.43161 -6.19392 0
M  V30 496 H 47.9011 -1.93529 -5.30289 0
M  V30 497 N 47.2992 1.18797 -1.03562 0
M  V30 498 C 48.2462 2.22253 -0.622259 0
M  V30 499 C 49.2162 1.61987 0.36736 0
M  V30 500 O 50.4012 1.88986 0.262492 0
M  V30 501 C 47.5412 3.45097 0.0138462 0
M  V30 502 C 46.6542 4.19722 -1.02263 0
M  V30 503 C 45.7892 5.30009 -0.355573 0
M  V30 504 C 44.8282 5.96399 -1.37749 0
M  V30 505 N 43.9652 6.98234 -0.735766 0
M  V30 506 H 48.8052 2.56968 -1.50903 0
M  V30 507 H 46.3422 1.26245 -0.755017 0
M  V30 508 H 48.3002 4.15279 0.399948 0
M  V30 509 H 46.9302 3.11018 0.864158 0
M  V30 510 H 45.9822 3.48418 -1.52673 0
M  V30 511 H 47.2942 4.65227 -1.79903 0
M  V30 512 H 46.4482 6.0664 0.0850095 0
M  V30 513 H 45.1872 4.85592 0.452967 0
M  V30 514 H 44.1922 5.18512 -1.82826 0
M  V30 515 H 45.4172 6.42899 -2.18764 0
M  V30 516 H 43.3632 6.55979 0.0525597 0
M  V30 517 H 43.2802 7.41965 -1.44995 0
M  V30 518 H 44.5482 7.78845 -0.31941 0
M  V30 519 N 48.7773 0.814389 1.34928 0
M  V30 520 C 49.6873 0.231978 2.3345 0
M  V30 521 C 50.7033 -0.629139 1.62228 0
M  V30 522 O 51.8793 -0.539052 1.94052 0
M  V30 523 C 48.9443 -0.603482 3.41407 0
M  V30 524 C 48.0053 0.279037 4.28392 0
M  V30 525 C 47.2383 -0.516643 5.31193 0
M  V30 526 O 47.4613 -1.75068 5.4287 0
M  V30 527 O 46.3953 0.0965652 6.01823 0
M  V30 528 H 50.2213 1.04721 2.85074 0
M  V30 529 H 47.8063 0.576343 1.37836 0
M  V30 530 H 49.6883 -1.07908 4.0735 0
M  V30 531 H 48.3633 -1.39618 2.92042 0
M  V30 532 H 47.2703 0.801948 3.65403 0
M  V30 533 H 48.6033 1.03588 4.81176 0
M  V30 534 N 50.2554 -1.46986 0.568584 0
M  V30 535 C 51.5044 -2.01646 0.0465894 0
M  V30 536 C 51.8174 -1.44721 -1.31587 0
M  V30 537 O 53.0234 -1.91113 -1.92842 0
M  V30 538 C 51.4794 -3.59885 0.032752 0
M  V30 539 C 51.0874 -4.25804 1.39266 0
M  V30 540 C 52.8314 -4.22255 -0.436038 0
M  V30 541 C 50.7384 -5.76081 1.33732 0
M  V30 542 H 49.6684 -0.753876 0.013647 0
M  V30 543 H 52.3194 -1.68864 0.718131 0
M  V30 544 H 50.7014 -3.8968 -0.704669 0
M  V30 545 H 51.8754 -4.07637 2.1487 0
M  V30 546 H 50.1904 -3.7547 1.80032 0
M  V30 547 H 52.7874 -5.32394 -0.49602 0
M  V30 548 H 53.1304 -3.90212 -1.45053 0
M  V30 549 H 53.6634 -3.97033 0.246877 0
M  V30 550 H 50.4024 -6.12761 2.32817 0
M  V30 551 H 49.9224 -5.96553 0.623267 0
M  V30 552 H 51.6014 -6.38518 1.0442 0
M  V30 553 N 51.7335 -0.305618 -1.54608 0
M  V30 554 C 53.1495 0.0476228 -1.59529 0
M  V30 555 C 53.3495 1.52025 -1.32252 0
M  V30 556 O 52.4055 2.27368 -1.09818 0
M  V30 557 C 53.7185 -0.354471 -2.98603 0
M  V30 558 C 55.2665 -0.303622 -3.11524 0
M  V30 559 C 55.7415 -0.680608 -4.52915 0
M  V30 560 N 57.2325 -0.63332 -4.5885 0
M  V30 561 C 57.9675 -0.897432 -5.66334 0
M  V30 562 N 57.4635 -1.22775 -6.81834 0
M  V30 563 N 59.2565 -0.824186 -5.56025 0
M  V30 564 H 51.4075 -1.2653 -1.70599 0
M  V30 565 H 53.6705 -0.513291 -0.797017 0
M  V30 566 H 53.3765 -1.3798 -3.23503 0
M  V30 567 H 53.2505 0.289568 -3.76087 0
M  V30 568 H 55.6375 0.712472 -2.8637 0
M  V30 569 H 55.7185 -0.982348 -2.36185 0
M  V30 570 H 55.3625 -1.69453 -4.78799 0
M  V30 571 H 55.2925 0.0202385 -5.26596 0
M  V30 572 H 57.7835 -0.389138 -3.75891 0
M  V30 573 H 58.0965 -1.41513 -7.59733 0
M  V30 574 H 56.4415 -1.26583 -6.83375 0
M  V30 575 H 59.6325 -0.565748 -4.64669 0
M  V30 576 H 59.8055 -1.03338 -6.39707 0
M  V30 577 N 53.2116 1.57565 -0.0334293 0
M  V30 578 C 54.1416 2.13511 0.945265 0
M  V30 579 C 55.1226 1.05231 1.33643 0
M  V30 580 O 56.3076 1.33084 1.41429 0
M  V30 581 C 53.4376 2.6657 2.22616 0
M  V30 582 C 52.3916 3.79676 1.97561 0
M  V30 583 C 51.7176 4.1918 3.31952 0
M  V30 584 C 53.0176 5.0557 1.31135 0
M  V30 585 H 54.7116 2.95538 0.479325 0
M  V30 586 H 52.2576 1.42166 0.229115 0
M  V30 587 H 54.2106 3.04344 2.91466 0
M  V30 588 H 52.9346 1.8171 2.71384 0
M  V30 589 H 51.5936 3.42347 1.31127 0
M  V30 590 H 51.2416 3.31296 3.78487 0
M  V30 591 H 50.9416 4.95402 3.15992 0
M  V30 592 H 52.4656 4.59541 4.02063 0
M  V30 593 H 53.8796 5.40903 1.89992 0
M  V30 594 H 52.2766 5.86818 1.25559 0
M  V30 595 H 53.3466 4.84062 0.284894 0
M  V30 596 N 54.6897 -0.239769 1.55765 0
M  V30 597 C 56.1007 -0.808263 1.68297 0
M  V30 598 C 56.4517 -1.85736 0.632181 0
M  V30 599 O 55.5767 -2.15277 -0.220204 0
M  V30 600 C 56.1717 -1.47284 3.05111 0
M  V30 601 C 54.7307 -1.98895 3.19559 0
M  V30 602 C 53.8777 -0.842575 2.64189 0
M  V30 603 H 56.8287 -0.0154422 1.58692 0
M  V30 604 H 56.8497 -2.34111 2.99954 0
M  V30 605 H 56.3617 -0.709053 3.81568 0
M  V30 606 H 54.4627 -2.78132 2.47938 0
M  V30 607 H 54.5757 -2.18143 4.26556 0
M  V30 608 H 52.9397 -1.24501 2.22197 0
M  V30 609 H 53.7227 -0.0917552 3.43177 0
M  V30 610 N 56.1678 -1.49265 -0.50573 0
M  V30 611 C 57.1148 -1.65585 -1.6078 0
M  V30 612 C 58.0848 -0.497396 -1.58478 0
M  V30 613 O 59.2698 -0.72385 -1.76536 0
M  V30 614 C 56.4098 -1.72408 -2.98948 0
M  V30 615 C 55.5228 -2.99525 -3.11301 0
M  V30 616 C 54.6578 -2.97356 -4.40174 0
M  V30 617 C 53.6968 -4.19074 -4.46143 0
M  V30 618 N 52.8338 -4.14841 -5.66437 0
M  V30 619 H 57.6738 -2.59688 -1.46172 0
M  V30 620 H 55.2108 -1.28761 -0.711261 0
M  V30 621 H 57.1688 -1.74344 -3.79025 0
M  V30 622 H 55.7988 -0.817753 -3.1227 0
M  V30 623 H 54.8508 -3.07222 -2.24318 0
M  V30 624 H 56.1628 -3.89518 -3.11572 0
M  V30 625 H 55.3168 -2.97829 -5.28567 0
M  V30 626 H 54.0558 -2.05133 -4.42461 0
M  V30 627 H 53.0608 -4.1885 -3.56153 0
M  V30 628 H 54.2858 -5.12483 -4.45575 0
M  V30 629 H 52.2318 -3.25453 -5.69575 0
M  V30 630 H 52.1488 -4.98564 -5.68304 0
M  V30 631 H 53.4168 -4.1941 -6.57051 0
M  V30 632 N 57.6459 0.756429 -1.3826 0
M  V30 633 C 58.8709 1.55077 -1.37717 0
M  V30 634 C 59.2959 1.88073 0.03164 0
M  V30 635 O 58.6539 1.50364 1.01293 0
M  V30 636 C 58.7019 2.8283 -2.23695 0
M  V30 637 O 57.8059 3.77862 -1.6521 0
M  V30 638 H 57.1469 0.469152 -0.469885 0
M  V30 639 H 59.6769 0.935019 -1.81985 0
M  V30 640 H 59.6869 3.31783 -2.37453 0
M  V30 641 H 58.3619 2.58144 -3.2609 0
M  V30 642 H 56.9389 3.36555 -1.60578 0
M  V30 643 N 59.124 1.23083 0.984299 0
M  V30 644 C 60.371 1.06057 1.72505 0
M  V30 645 C 60.699 -0.403105 1.90277 0
M  V30 646 O 59.954 -1.3149 1.44944 0
M  V30 647 C 60.253 1.72673 3.1292 0
M  V30 648 C 59.919 3.22586 3.15038 0
M  V30 649 C 58.581 3.63489 3.15324 0
M  V30 650 C 60.933 4.185 3.10657 0
M  V30 651 C 58.261 4.98772 3.08939 0
M  V30 652 C 60.613 5.53769 3.05814 0
M  V30 653 C 59.277 5.94041 3.04419 0
M  V30 654 H 58.547 0.388091 0.631242 0
M  V30 655 H 61.194 1.52963 1.15215 0
M  V30 656 H 59.499 1.18116 3.73572 0
M  V30 657 H 61.196 1.56982 3.68996 0
M  V30 658 H 57.786 2.90022 3.15571 0
M  V30 659 H 61.97 3.87911 3.09579 0
M  V30 660 H 57.226 5.29193 3.0621 0
M  V30 661 H 61.4 6.27808 3.0138 0
M  V30 662 H 59.027 6.98833 2.99227 0
M  V30 663 N 60.6021 -1.18246 1.0419 0
M  V30 664 C 61.8271 -1.92736 0.765996 0
M  V30 665 C 62.2521 -1.75728 -0.67091 0
M  V30 666 O 61.6101 -1.06825 -1.46486 0
M  V30 667 C 61.6581 -3.42148 1.13875 0
M  V30 668 O 60.7621 -4.11548 0.264954 0
M  V30 669 H 60.1031 -0.601238 0.281797 0
M  V30 670 H 62.6331 -1.49942 1.39207 0
M  V30 671 H 62.6431 -3.92858 1.1012 0
M  V30 672 H 61.3181 -3.53848 2.18551 0
M  V30 673 H 59.8951 -3.71137 0.362226 0
M  V30 674 N 62.0802 -0.821533 -1.34494 0
M  V30 675 C 63.0282 -0.230702 -2.31453 0
M  V30 676 C 64.0222 0.627793 -1.57338 0
M  V30 677 O 65.2282 0.519288 -1.72347 0
M  V30 678 H 61.6032 -0.0558577 -0.749923 0
M  V30 679 H 63.5742 -1.06332 -2.78812 0
M  V30 680 C 62.3232 0.59391 -3.4259 0
M  V30 681 H 61.6462 -0.0573588 -3.99759 0
M  V30 682 H 63.0862 0.973446 -4.12674 0
M  V30 683 C 61.5452 1.76568 -2.86924 0
M  V30 684 O 62.0752 2.8638 -2.81691 0
M  V30 685 N 60.2812 1.58198 -2.43766 0
M  V30 686 H 59.8282 0.68872 -2.48222 0
M  V30 687 H 59.7862 2.36752 -2.06871 0
M  V30 688 N 63.5583 1.46682 -0.576371 0
M  V30 689 C 64.7863 2.06798 -0.0649635 0
M  V30 690 C 65.2013 1.42612 1.23723 0
M  V30 691 O 64.5583 0.529203 1.74659 0
M  V30 692 C 64.6093 3.6132 0.114202 0
M  V30 693 O 64.3303 4.23104 -1.13644 0
M  V30 694 C 65.8313 4.38349 0.66069 0
M  V30 695 H 63.0513 0.668778 -0.0545616 0
M  V30 696 H 65.5953 1.88404 -0.795237 0
M  V30 697 H 63.7503 3.79162 0.794673 0
M  V30 698 H 64.1643 5.15894 -0.946253 0
M  V30 699 H 65.6383 5.47081 0.73526 0
M  V30 700 H 66.1153 4.05953 1.67627 0
M  V30 701 H 66.7213 4.25297 0.0152951 0
M  V30 702 N 65.0364 0.313813 1.54444 0
M  V30 703 C 65.9684 -0.590425 2.21465 0
M  V30 704 C 66.9814 -1.08753 1.21147 0
M  V30 705 O 68.1704 -1.00278 1.4767 0
M  V30 706 C 65.2704 -1.82179 2.85769 0
M  V30 707 C 64.4434 -1.46502 4.12136 0
M  V30 708 C 63.5024 -2.55288 4.60124 0
M  V30 709 O 62.5284 -2.19842 5.25032 0
M  V30 710 N 63.7304 -3.86053 4.33525 0
M  V30 711 H 66.4954 -0.0166033 2.99695 0
M  V30 712 H 64.0564 0.136578 1.61323 0
M  V30 713 H 66.0484 -2.54328 3.14801 0
M  V30 714 H 64.6184 -2.30369 2.11303 0
M  V30 715 H 63.8384 -0.575595 3.89975 0
M  V30 716 H 65.1264 -1.20221 4.94393 0
M  V30 717 H 64.5244 -4.17654 3.81552 0
M  V30 718 H 63.0814 -4.54461 4.67235 0
M  V30 719 N 66.5145 -1.57545 0.0417849 0
M  V30 720 C 67.4625 -2.12148 -0.953723 0
M  V30 721 C 68.4565 -1.05104 -1.32852 0
M  V30 722 O 69.6625 -1.23524 -1.30927 0
M  V30 723 H 66.0375 -0.677957 -0.325389 0
M  V30 724 H 68.0085 -2.94707 -0.467991 0
M  V30 725 C 66.7575 -2.6739 -2.22257 0
M  V30 726 H 66.0805 -3.49413 -1.94295 0
M  V30 727 H 67.5205 -3.09227 -2.90094 0
M  V30 728 C 65.9795 -1.60723 -2.96091 0
M  V30 729 O 66.5095 -1.01449 -3.88679 0
M  V30 730 N 64.7155 -1.32466 -2.58652 0
M  V30 731 H 64.2625 -1.80856 -1.83437 0
M  V30 732 H 64.2205 -0.61325 -3.08361 0
M  V30 733 N 67.9926 0.231505 -1.5589 0
M  V30 734 C 69.2176 0.978689 -1.82856 0
M  V30 735 C 69.6426 1.77559 -0.620846 0
M  V30 736 O 69.0006 1.76119 0.430305 0
M  V30 737 C 69.0486 1.87997 -3.07716 0
M  V30 738 O 68.1526 2.97393 -2.85712 0
M  V30 739 H 67.4936 0.277663 -0.603158 0
M  V30 740 H 70.0236 0.24783 -2.03093 0
M  V30 741 H 70.0336 2.2917 -3.37558 0
M  V30 742 H 68.7086 1.29417 -3.95252 0
M  V30 743 H 67.2856 2.60238 -2.67078 0
M  V30 744 N 69.4707 1.49531 0.497807 0
M  V30 745 C 70.8867 1.36365 0.829266 0
M  V30 746 C 71.0867 0.399184 1.97506 0
M  V30 747 O 70.1427 -0.167977 2.51941 0
M  V30 748 C 71.4557 2.77153 1.16647 0
M  V30 749 C 73.0037 2.85877 1.27449 0
M  V30 750 C 73.4787 4.2744 1.64497 0
M  V30 751 N 74.9697 4.30265 1.7154 0
M  V30 752 C 75.7047 5.3677 2.01656 0
M  V30 753 N 75.2007 6.53516 2.29976 0
M  V30 754 N 76.9937 5.24189 2.02934 0
M  V30 755 H 69.1447 2.10831 -0.257703 0
M  V30 756 H 71.4077 0.946534 -0.0527091 0
M  V30 757 H 71.1137 3.49442 0.397872 0
M  V30 758 H 70.9877 3.12722 2.10915 0
M  V30 759 H 73.3747 2.13824 2.0338 0
M  V30 760 H 73.4557 2.53887 0.312244 0
M  V30 761 H 73.0997 5.00021 0.891151 0
M  V30 762 H 73.0297 4.56896 2.61827 0
M  V30 763 H 75.5207 3.4607 1.51802 0
M  V30 764 H 75.8337 7.30506 2.52153 0
M  V30 765 H 74.1787 6.56737 2.27425 0
M  V30 766 H 77.3697 4.31988 1.80289 0
M  V30 767 H 77.5427 6.07286 2.26071 0
M  V30 768 N 70.9488 -0.749086 1.3866 0
M  V30 769 C 71.8958 -1.86291 1.36251 0
M  V30 770 C 72.8658 -1.64578 0.224347 0
M  V30 771 O 74.0508 -1.86181 0.417279 0
M  V30 772 C 71.1908 -3.23644 1.19786 0
M  V30 773 C 70.3038 -3.57158 2.43027 0
M  V30 774 C 69.4388 -4.83838 2.19258 0
M  V30 775 C 68.4778 -5.10152 3.38247 0
M  V30 776 N 67.6148 -6.28029 3.13884 0
M  V30 777 H 72.4548 -1.87685 2.3147 0
M  V30 778 H 69.9918 -0.917287 1.14997 0
M  V30 779 H 71.9498 -4.0291 1.08254 0
M  V30 780 H 70.5798 -3.21566 0.282031 0
M  V30 781 H 69.6318 -2.72701 2.65214 0
M  V30 782 H 70.9438 -3.7253 3.31697 0
M  V30 783 H 70.0978 -5.71057 2.04888 0
M  V30 784 H 68.8368 -4.70614 1.2796 0
M  V30 785 H 67.8418 -4.21401 3.53131 0
M  V30 786 H 69.0668 -5.25271 4.30427 0
M  V30 787 H 67.0128 -6.1612 2.25238 0
M  V30 788 H 66.9298 -6.43922 3.96106 0
M  V30 789 H 68.1978 -7.18124 3.03179 0
M  V30 790 N 72.4269 -1.23603 -0.977757 0
M  V30 791 C 73.3369 -1.03632 -2.1047 0
M  V30 792 C 74.3529 0.0199435 -1.73989 0
M  V30 793 O 75.5289 -0.176076 -2.00629 0
M  V30 794 C 72.5939 -0.63276 -3.40877 0
M  V30 795 C 71.6549 -1.76437 -3.91367 0
M  V30 796 C 70.8879 -1.37997 -5.15551 0
M  V30 797 O 71.1109 -0.265357 -5.69782 0
M  V30 798 O 70.0449 -2.20201 -5.60174 0
M  V30 799 H 73.8709 -1.98086 -2.30208 0
M  V30 800 H 71.4559 -1.02332 -1.08851 0
M  V30 801 H 73.3379 -0.418761 -4.19314 0
M  V30 802 H 72.0129 0.282754 -3.22463 0
M  V30 803 H 70.9199 -2.03304 -3.14036 0
M  V30 804 H 72.2529 -2.6583 -4.14241 0
M  V30 805 N 73.905 1.17692 -1.04816 0
M  V30 806 C 74.868 2.19787 -0.650117 0
M  V30 807 C 75.868 1.58044 0.296427 0
M  V30 808 O 77.058 1.74012 0.0808097 0
M  V30 809 C 74.19 3.40869 0.0456987 0
M  V30 810 H 75.383 2.56516 -1.5537 0
M  V30 811 H 72.936 1.31708 -0.841594 0
M  V30 812 H 73.671 3.09681 0.962726 0
M  V30 813 H 73.456 3.86928 -0.634727 0
M  V30 814 H 74.946 4.16445 0.310432 0
M  V30 815 N 75.3831 0.828654 1.34056 0
M  V30 816 C 76.6291 0.42008 1.98402 0
M  V30 817 C 76.9621 -1.01564 1.65525 0
M  V30 818 O 76.2371 -1.70834 0.929831 0
M  V30 819 C 76.5201 0.62927 3.54559 0
M  V30 820 C 76.3731 2.11152 3.97159 0
M  V30 821 C 77.6921 0.0688756 4.40046 0
M  V30 822 H 74.8111 0.154104 0.720709 0
M  V30 823 H 77.4531 1.04228 1.5886 0
M  V30 824 H 75.6031 0.0996418 3.88372 0
M  V30 825 H 77.2751 2.70522 3.73651 0
M  V30 826 H 75.5181 2.59985 3.47261 0
M  V30 827 H 76.1891 2.20868 5.05887 0
M  V30 828 H 78.6651 0.521458 4.1282 0
M  V30 829 H 77.5411 0.245006 5.48353 0
M  V30 830 H 77.8021 -1.0266 4.30015 0
M  V30 831 N 76.8612 -1.46375 0.584142 0
M  V30 832 C 77.7912 -2.33103 -0.136037 0
M  V30 833 C 78.7722 -1.45431 -0.882255 0
M  V30 834 O 79.9572 -1.74246 -0.857434 0
M  V30 835 C 77.0872 -3.27731 -1.14933 0
M  V30 836 C 76.0412 -4.24855 -0.517862 0
M  V30 837 C 75.3672 -5.09001 -1.63773 0
M  V30 838 C 76.6672 -5.19439 0.545886 0
M  V30 839 H 78.3612 -2.93568 0.588086 0
M  V30 840 H 75.9072 -1.41166 0.284259 0
M  V30 841 H 77.8602 -3.87261 -1.66153 0
M  V30 842 H 76.5842 -2.65377 -1.90375 0
M  V30 843 H 75.2432 -3.6659 -0.0267361 0
M  V30 844 H 74.8912 -4.43031 -2.38185 0
M  V30 845 H 74.5912 -5.74777 -1.22085 0
M  V30 846 H 76.1152 -5.71396 -2.15266 0
M  V30 847 H 77.5292 -5.73177 0.118704 0
M  V30 848 H 75.9262 -5.93566 0.88317 0
M  V30 849 H 76.9962 -4.63285 1.43162 0
M  V30 850 N 78.3393 -0.321999 -1.54275 0
M  V30 851 C 79.2693 0.537411 -2.27231 0
M  V30 852 C 80.2503 1.12064 -1.27968 0
M  V30 853 O 81.4353 1.14606 -1.56777 0
M  V30 854 C 78.5653 1.69919 -3.02894 0
M  V30 855 C 77.5193 1.24534 -4.09482 0
M  V30 856 C 76.8453 2.49394 -4.72977 0
M  V30 857 C 78.1453 0.361335 -5.21049 0
M  V30 858 H 79.8393 -0.0711406 -2.99315 0
M  V30 859 H 77.3853 -0.0356555 -1.43956 0
M  V30 860 H 79.3383 2.30668 -3.52662 0
M  V30 861 H 78.0623 2.33431 -2.28424 0
M  V30 862 H 76.7213 0.660782 -3.60596 0
M  V30 863 H 76.3693 3.11265 -3.95124 0
M  V30 864 H 76.0693 2.19718 -5.44975 0
M  V30 865 H 77.5933 3.10908 -5.25517 0
M  V30 866 H 79.0073 0.875072 -5.66582 0
M  V30 867 H 77.4043 0.157428 -5.99893 0
M  V30 868 H 78.4743 -0.60822 -4.8107 0
M  V30 869 N 79.8174 1.5752 -0.0501392 0
M  V30 870 C 80.7804 2.1037 0.909786 0
M  V30 871 C 81.7804 1.02308 1.24056 0
M  V30 872 O 82.9704 1.28385 1.17741 0
M  V30 873 C 80.1024 2.58708 2.21998 0
M  V30 874 H 81.2954 2.96479 0.451665 0
M  V30 875 H 78.8484 1.55038 0.198248 0
M  V30 876 H 79.5834 1.75989 2.72394 0
M  V30 877 H 79.3684 3.37675 1.99295 0
M  V30 878 H 80.8584 2.99747 2.9076 0
M  V30 879 N 81.2955 -0.223234 1.56011 0
M  V30 880 C 82.2425 -1.27664 1.92277 0
M  V30 881 C 83.2125 -1.46659 0.779763 0
M  V30 882 O 84.3975 -1.60256 1.03551 0
M  V30 883 C 81.5375 -2.62234 2.24338 0
M  V30 884 C 80.6505 -2.51051 3.51564 0
M  V30 885 C 79.7855 -3.78133 3.7308 0
M  V30 886 C 78.8245 -3.61665 4.93827 0
M  V30 887 N 77.9615 -4.80693 5.11741 0
M  V30 888 H 82.8015 -0.960358 2.82101 0
M  V30 889 H 80.3385 -0.462901 1.39627 0
M  V30 890 H 82.2965 -3.40596 2.40936 0
M  V30 891 H 80.9265 -2.91961 1.3769 0
M  V30 892 H 79.9785 -1.64132 3.43169 0
M  V30 893 H 81.2905 -2.34803 4.40079 0
M  V30 894 H 80.4445 -4.64938 3.89766 0
M  V30 895 H 79.1835 -3.97304 2.82844 0
M  V30 896 H 78.1885 -2.73244 4.77093 0
M  V30 897 H 79.4135 -3.43966 5.85546 0
M  V30 898 H 77.3595 -5.00181 4.24446 0
M  V30 899 H 77.2765 -4.67165 5.94384 0
M  V30 900 H 78.5445 -5.6893 5.3286 0
M  V30 901 N 82.7736 -1.49793 -0.48987 0
M  V30 902 C 83.7066 -1.61898 -1.60823 0
M  V30 903 C 84.6846 -0.467651 -1.5573 0
M  V30 904 O 85.8686 -0.684682 -1.75626 0
M  V30 905 C 82.9956 -1.58422 -2.99366 0
M  V30 906 C 82.0416 -2.78889 -3.22682 0
M  V30 907 S 82.8746 -4.40429 -3.04602 0
M  V30 908 C 84.0306 -4.39617 -4.4552 0
M  V30 909 H 84.2636 -2.56502 -1.50312 0
M  V30 910 H 81.7966 -1.38822 -0.675849 0
M  V30 911 H 83.7546 -1.57103 -3.79248 0
M  V30 912 H 82.4156 -0.650866 -3.07283 0
M  V30 913 H 81.6086 -2.72708 -4.23847 0
M  V30 914 H 81.2106 -2.77678 -2.50541 0
M  V30 915 H 83.5026 -4.12022 -5.37814 0
M  V30 916 H 84.4456 -5.41097 -4.56749 0
M  V30 917 H 84.8536 -3.69554 -4.2672 0
M  V30 918 N 84.2517 0.741722 -1.39055 0
M  V30 919 C 85.1987 1.85566 -1.37237 0
M  V30 920 C 86.1687 1.64457 -0.233072 0
M  V30 921 O 87.3537 1.85957 -0.427147 0
M  V30 922 C 84.4937 3.23004 -1.215 0
M  V30 923 C 83.6067 3.55864 -2.44918 0
M  V30 924 C 82.7417 4.82669 -2.21821 0
M  V30 925 C 81.7807 5.08351 -3.40948 0
M  V30 926 N 80.9177 6.26356 -3.17211 0
M  V30 927 H 85.7577 1.86455 -2.32462 0
M  V30 928 H 83.2947 0.911176 -1.15482 0
M  V30 929 H 85.2527 4.02331 -1.10389 0
M  V30 930 H 83.8827 3.21411 -0.29908 0
M  V30 931 H 82.9347 2.7129 -2.66657 0
M  V30 932 H 84.2467 3.70765 -3.33668 0
M  V30 933 H 83.4007 5.69962 -2.07914 0
M  V30 934 H 82.1397 4.69929 -1.30454 0
M  V30 935 H 81.1447 4.19522 -3.55361 0
M  V30 936 H 82.3697 5.22981 -4.33207 0
M  V30 937 H 80.3157 6.14917 -2.28502 0
M  V30 938 H 80.2327 6.41813 -3.99515 0
M  V30 939 H 81.5007 7.16506 -3.06984 0
M  V30 940 N 85.7298 1.2412 0.971189 0
M  V30 941 C 86.6798 0.997551 2.05019 0
M  V30 942 C 87.6638 -0.0597747 1.60789 0
M  V30 943 O 88.8558 0.153516 1.76333 0
M  V30 944 C 85.9848 0.600557 3.38006 0
M  V30 945 C 85.0708 1.69377 3.88809 0
M  V30 946 N 85.4618 2.92586 4.12586 0
M  V30 947 C 83.7598 1.57048 4.17435 0
M  V30 948 C 84.4608 3.63431 4.54195 0
M  V30 949 N 83.4368 2.90979 4.59165 0
M  V30 950 H 87.2388 1.93316 2.21374 0
M  V30 951 H 84.7528 1.14194 1.1547 0
M  V30 952 H 86.7498 0.40725 4.14906 0
M  V30 953 H 85.4098 -0.327903 3.2304 0
M  V30 954 H 86.4208 3.288 4.00139 0
M  V30 955 H 83.0978 0.709798 4.11422 0
M  V30 956 H 84.4878 4.69102 4.81033 0
M  V30 957 N 87.2079 -1.17134 1.05439 0
M  V30 958 C 88.6189 -1.69084 0.791676 0
M  V30 959 C 88.9699 -1.83822 -0.685839 0
M  V30 960 O 88.0949 -1.52757 -1.53278 0
M  V30 961 C 88.6899 -3.07119 1.4305 0
M  V30 962 C 87.2489 -3.56225 1.21577 0
M  V30 963 C 86.3959 -2.32421 1.51247 0
M  V30 964 H 89.3469 -1.01617 1.219 0
M  V30 965 H 89.3679 -3.71087 0.84112 0
M  V30 966 H 88.8799 -2.9636 2.50584 0
M  V30 967 H 86.9809 -3.72257 0.159787 0
M  V30 968 H 87.0939 -4.38837 1.92246 0
M  V30 969 H 85.4579 -2.3701 0.932653 0
M  V30 970 H 86.2409 -2.24268 2.5992 0
M  V30 971 N 88.686 -0.835752 -1.33615 0
M  V30 972 C 89.634 -0.255238 -2.31195 0
M  V30 973 C 90.628 0.61107 -1.57995 0
M  V30 974 O 91.834 0.500979 -1.72888 0
M  V30 975 H 88.209 -0.0638085 -0.749288 0
M  V30 976 H 90.18 -1.09283 -2.77669 0
M  V30 977 C 88.929 0.55754 -3.43201 0
M  V30 978 H 88.252 -0.0997553 -3.99676 0
M  V30 979 H 89.692 0.929622 -4.13683 0
M  V30 980 C 88.151 1.73515 -2.88781 0
M  V30 981 O 88.681 2.83376 -2.84712 0
M  V30 982 N 86.887 1.55603 -2.4543 0
M  V30 983 H 86.434 0.662354 -2.48939 0
M  V30 984 H 86.392 2.34545 -2.09371 0
M  V30 985 N 90.1641 1.46063 -0.591896 0
M  V30 986 C 91.4131 2.01547 -0.0786637 0
M  V30 987 C 91.7261 1.46796 1.29268 0
M  V30 988 O 92.9321 1.94157 1.89777 0
M  V30 989 C 91.3881 3.59787 -0.0900024 0
M  V30 990 C 90.9961 4.23534 -1.46023 0
M  V30 991 C 92.7401 4.22895 0.368806 0
M  V30 992 C 90.6471 5.73881 -1.4288 0
M  V30 993 H 89.5771 0.753564 -0.0256388 0
M  V30 994 H 92.2281 1.677 -0.744905 0
M  V30 995 H 90.6101 3.90752 0.642586 0
M  V30 996 H 91.7841 4.04167 -2.21328 0
M  V30 997 H 90.0991 3.72558 -1.85982 0
M  V30 998 H 92.6961 5.33116 0.411258 0
M  V30 999 H 93.0391 3.9247 1.38827 0
M  V30 1000 H 93.5721 3.9659 -0.31001 0
M  V30 1001 H 90.3111 6.0898 -2.42536 0
M  V30 1002 H 89.8311 5.95486 -0.718095 0
M  V30 1003 H 91.5101 6.36776 -1.14565 0
M  V30 1004 N 91.6422 0.330177 1.54103 0
M  V30 1005 C 92.8882 -0.270806 2.00984 0
M  V30 1006 C 93.2212 -1.51265 1.21789 0
M  V30 1007 O 92.4962 -1.92142 0.301927 0
M  V30 1008 C 92.7792 -0.598339 3.55094 0
M  V30 1009 C 92.6322 0.654674 4.4501 0
M  V30 1010 C 93.9512 -1.41334 4.16789 0
M  V30 1011 H 91.0702 -0.0969531 0.730595 0
M  V30 1012 H 93.7122 0.448066 1.84641 0
M  V30 1013 H 91.8622 -1.21078 3.69151 0
M  V30 1014 H 93.5342 1.29285 4.42813 0
M  V30 1015 H 91.7772 1.28224 4.14416 0
M  V30 1016 H 92.4482 0.380944 5.50684 0
M  V30 1017 H 94.9242 -0.895597 4.06347 0
M  V30 1018 H 93.8002 -1.61127 5.24718 0
M  V30 1019 H 94.0612 -2.41146 3.70541 0
M  V30 1020 N 93.1203 -1.57491 0.0584922 0
M  V30 1021 C 94.0833 -2.1085 -0.898617 0
M  V30 1022 C 95.0833 -1.02964 -1.23511 0
M  V30 1023 O 96.2733 -1.29007 -1.17059 0
M  V30 1024 C 93.4053 -2.59881 -2.20623 0
M  V30 1025 H 94.5983 -2.96715 -0.435936 0
M  V30 1026 H 92.1513 -1.55141 -0.190023 0
M  V30 1027 H 92.8863 -1.77431 -2.71457 0
M  V30 1028 H 92.6713 -3.38727 -1.97501 0
M  V30 1029 H 94.1613 -3.01285 -2.89166 0
M  V30 1030 N 94.5984 0.214957 -1.56127 0
M  V30 1031 C 95.8454 0.938372 -1.79446 0
M  V30 1032 C 96.1734 1.8407 -0.628378 0
M  V30 1033 O 95.4284 1.91837 0.386925 0
M  V30 1034 C 95.7274 1.80314 -3.0858 0
M  V30 1035 C 95.3934 1.05349 -4.3842 0
M  V30 1036 C 94.0554 0.846435 -4.73697 0
M  V30 1037 C 96.4074 0.524588 -5.18553 0
M  V30 1038 C 93.7354 0.098683 -5.86617 0
M  V30 1039 C 96.0874 -0.209853 -6.32252 0
M  V30 1040 C 94.7514 -0.428102 -6.66126 0
M  V30 1041 H 94.0214 0.343375 -0.656639 0
M  V30 1042 H 96.6684 0.206077 -1.90388 0
M  V30 1043 H 94.9734 2.6035 -2.92789 0
M  V30 1044 H 96.6704 2.36513 -3.23825 0
M  V30 1045 H 93.2604 1.22486 -4.10725 0
M  V30 1046 H 97.4444 0.672008 -4.91729 0
M  V30 1047 H 92.7004 -0.0805753 -6.11347 0
M  V30 1048 H 96.8744 -0.627157 -6.9357 0
M  V30 1049 H 94.5014 -1.00944 -7.53468 0
M  V30 1050 N 96.0765 1.50051 0.48192 0
M  V30 1051 C 97.0235 1.68122 1.58125 0
M  V30 1052 C 97.9935 0.522545 1.57666 0
M  V30 1053 O 99.1785 0.751844 1.75362 0
M  V30 1054 C 96.3185 1.77142 2.96167 0
M  V30 1055 C 95.4315 3.0444 3.06497 0
M  V30 1056 C 94.5665 3.04321 4.35387 0
M  V30 1057 C 93.6055 4.26118 4.3942 0
M  V30 1058 N 92.7425 4.238 5.59766 0
M  V30 1059 H 97.5825 2.6198 1.42022 0
M  V30 1060 H 95.1195 1.29877 0.690687 0
M  V30 1061 H 97.0775 1.80352 3.76203 0
M  V30 1062 H 95.7075 0.867329 3.1093 0
M  V30 1063 H 94.7595 3.10752 2.19402 0
M  V30 1064 H 96.0715 3.94426 3.05336 0
M  V30 1065 H 95.2255 3.062 5.23762 0
M  V30 1066 H 93.9645 2.12147 4.39141 0
M  V30 1067 H 92.9695 4.24463 3.49444 0
M  V30 1068 H 94.1945 5.19507 4.37366 0
M  V30 1069 H 92.1405 3.34474 5.64326 0
M  V30 1070 H 92.0575 5.07542 5.60301 0
M  V30 1071 H 93.3255 4.2981 6.50295 0
M  V30 1072 N 97.5546 -0.734337 1.39446 0
M  V30 1073 C 98.4646 -1.87879 1.40495 0
M  V30 1074 C 99.4806 -1.714 0.299672 0
M  V30 1075 O 100.657 -1.93991 0.541249 0
M  V30 1076 C 97.7216 -3.23477 1.24754 0
M  V30 1077 C 96.7826 -3.52344 2.45259 0
M  V30 1078 C 96.0156 -4.81473 2.30259 0
M  V30 1079 O 96.2386 -5.55237 1.30643 0
M  V30 1080 O 95.1726 -5.10254 3.19256 0
M  V30 1081 H 98.9986 -1.89949 2.36966 0
M  V30 1082 H 96.5836 -0.882243 1.20569 0
M  V30 1083 H 98.4656 -4.04509 1.18111 0
M  V30 1084 H 97.1406 -3.22176 0.313781 0
M  V30 1085 H 96.0476 -2.71396 2.57478 0
M  V30 1086 H 97.3806 -3.58426 3.37331 0
M  V30 1087 N 99.0327 -1.24633 -0.964593 0
M  V30 1088 C 100.258 -1.11596 -1.74818 0
M  V30 1089 C 100.683 0.32723 -1.85232 0
M  V30 1090 O 100.041 1.23695 -1.32549 0
M  V30 1091 C 100.089 -1.76397 -3.1451 0
M  V30 1092 O 99.1927 -1.03685 -3.99153 0
M  V30 1093 H 98.5337 -0.390196 -0.537255 0
M  V30 1094 H 101.064 -1.65002 -1.20977 0
M  V30 1095 H 101.074 -1.8228 -3.65018 0
M  V30 1096 H 99.7487 -2.81401 -3.06246 0
M  V30 1097 H 98.3257 -1.05611 -3.57632 0
M  V30 1098 N 100.511 1.16574 -1.06058 0
M  V30 1099 C 101.758 1.87047 -0.775873 0
M  V30 1100 C 102.086 1.81562 0.697534 0
M  V30 1101 O 101.341 1.22445 1.52662 0
M  V30 1102 C 101.64 3.36195 -1.21275 0
M  V30 1103 C 101.306 3.6188 -2.68986 0
M  V30 1104 C 99.9678 3.68599 -3.09335 0
M  V30 1105 C 102.32 3.72648 -3.64394 0
M  V30 1106 C 99.6478 3.83584 -4.43937 0
M  V30 1107 C 102 3.89154 -4.98741 0
M  V30 1108 C 100.664 3.94114 -5.3873 0
M  V30 1109 H 99.9338 0.684452 -0.283912 0
M  V30 1110 H 102.581 1.37853 -1.32925 0
M  V30 1111 H 100.886 3.87505 -0.578528 0
M  V30 1112 H 102.583 3.89103 -0.969542 0
M  V30 1113 H 99.1728 3.57281 -2.36744 0
M  V30 1114 H 103.357 3.66769 -3.34356 0
M  V30 1115 H 98.6128 3.85677 -4.74409 0
M  V30 1116 H 102.787 3.96427 -5.72554 0
M  V30 1117 H 100.414 4.05478 -6.43033 0
M  V30 1118 N 101.989 0.842826 1.3317 0
M  V30 1119 C 102.899 0.281444 2.32906 0
M  V30 1120 C 103.915 -0.594587 1.63526 0
M  V30 1121 O 105.091 -0.49777 1.95152 0
M  V30 1122 C 102.156 -0.530929 3.42611 0
M  V30 1123 C 101.217 0.369843 4.27704 0
M  V30 1124 C 100.45 -0.403853 5.3217 0
M  V30 1125 O 100.673 -1.63513 5.46461 0
M  V30 1126 O 99.6069 0.224199 6.01482 0
M  V30 1127 H 103.433 1.10744 2.82789 0
M  V30 1128 H 101.018 0.60545 1.36582 0
M  V30 1129 H 102.9 -0.992437 4.09547 0
M  V30 1130 H 101.575 -1.33392 2.94938 0
M  V30 1131 H 100.482 0.879275 3.6362 0
M  V30 1132 H 101.815 1.13771 4.78871 0
M  V30 1133 N 103.467 -1.45747 0.599634 0
M  V30 1134 C 104.43 -2.28917 -0.113835 0
M  V30 1135 C 105.43 -1.3933 -0.802729 0
M  V30 1136 O 106.62 -1.61534 -0.652103 0
M  V30 1137 C 103.752 -3.20152 -1.17114 0
M  V30 1138 H 104.945 -2.93478 0.617289 0
M  V30 1139 H 102.498 -1.52137 0.358327 0
M  V30 1140 H 103.233 -2.60374 -1.93329 0
M  V30 1141 H 103.018 -3.86133 -0.681468 0
M  V30 1142 H 104.508 -3.82708 -1.67105 0
M  V30 1143 N 104.945 -0.338344 -1.53925 0
M  V30 1144 C 105.855 0.529421 -2.28548 0
M  V30 1145 C 106.871 1.11645 -1.3346 0
M  V30 1146 O 108.047 1.13325 -1.66492 0
M  V30 1147 C 105.112 1.66713 -3.03987 0
M  V30 1148 C 104.173 1.11041 -4.14691 0
M  V30 1149 C 103.406 2.19389 -4.86522 0
M  V30 1150 O 103.629 3.40013 -4.57982 0
M  V30 1151 O 102.563 1.83976 -5.73094 0
M  V30 1152 H 106.389 -0.0770399 -3.03602 0
M  V30 1153 H 103.974 -0.103555 -1.49041 0
M  V30 1154 H 105.856 2.32918 -3.5118 0
M  V30 1155 H 104.531 2.25949 -2.31794 0
M  V30 1156 H 103.438 0.413024 -3.71813 0
M  V30 1157 H 104.771 0.562975 -4.8897 0
M  V30 1158 N 106.423 1.57458 -0.0668435 0
M  V30 1159 C 107.671 1.92919 0.602214 0
M  V30 1160 C 107.992 0.947215 1.70449 0
M  V30 1161 O 107.262 -0.00544117 1.95899 0
M  V30 1162 H 105.842 0.71217 0.22544 0
M  V30 1163 H 108.504 1.94508 -0.123535 0
M  V30 1164 H 107.6 2.94589 1.03073 0
M  V30 1165 N 107.901 -0.206675 1.56239 0
M  V30 1166 C 108.851 -1.26 1.90021 0
M  V30 1167 C 109.835 -1.41566 0.764721 0
M  V30 1168 O 111.027 -1.44131 1.02739 0
M  V30 1169 C 108.156 -2.6073 2.23326 0
M  V30 1170 C 107.242 -2.49005 3.43304 0
M  V30 1171 N 107.633 -2.06946 4.61527 0
M  V30 1172 C 105.931 -2.79927 3.47213 0
M  V30 1173 C 106.632 -2.06832 5.43687 0
M  V30 1174 N 105.608 -2.47892 4.83788 0
M  V30 1175 H 109.41 -0.925955 2.78932 0
M  V30 1176 H 106.924 -0.415172 1.57003 0
M  V30 1177 H 108.921 -3.36798 2.45708 0
M  V30 1178 H 107.581 -2.94968 1.35735 0
M  V30 1179 H 108.592 -1.77839 4.86409 0
M  V30 1180 H 105.269 -3.18438 2.70006 0
M  V30 1181 H 106.659 -1.76312 6.48354 0
M  V30 1182 N 109.379 -1.50304 -0.473955 0
M  V30 1183 C 110.309 -1.71886 -1.58042 0
M  V30 1184 C 111.29 -0.567799 -1.60344 0
M  V30 1185 O 112.475 -0.806623 -1.76656 0
M  V30 1186 C 109.605 -1.81036 -2.96384 0
M  V30 1187 C 108.559 -2.962 -3.08949 0
M  V30 1188 C 107.885 -2.9049 -4.48909 0
M  V30 1189 C 109.185 -4.36752 -2.86434 0
M  V30 1190 H 110.879 -2.64527 -1.40234 0
M  V30 1191 H 108.425 -1.27295 -0.673201 0
M  V30 1192 H 110.378 -1.94719 -3.73714 0
M  V30 1193 H 109.102 -0.850147 -3.15341 0
M  V30 1194 H 107.761 -2.82164 -2.3405 0
M  V30 1195 H 107.409 -1.92321 -4.64781 0
M  V30 1196 H 107.109 -3.67802 -4.58253 0
M  V30 1197 H 108.633 -3.06218 -5.28264 0
M  V30 1198 H 110.047 -4.5133 -3.53517 0
M  V30 1199 H 108.444 -5.15493 -3.07225 0
M  V30 1200 H 109.514 -4.49321 -1.82316 0
M  V30 1201 N 110.857 0.726932 -1.39834 0
M  V30 1202 C 112.087 1.51393 -1.40583 0
M  V30 1203 C 112.495 1.892 -0.000740625 0
M  V30 1204 O 111.838 1.55189 0.982951 0
M  V30 1205 C 111.9 2.82588 -2.22226 0
M  V30 1206 C 111.564 2.67169 -3.70769 0
M  V30 1207 C 112.561 2.3518 -4.63666 0
M  V30 1208 C 110.246 2.83788 -4.14451 0
M  V30 1209 C 112.24 2.20002 -5.98229 0
M  V30 1210 C 109.927 2.68229 -5.49087 0
M  V30 1211 C 110.925 2.36382 -6.4079 0
M  V30 1212 O 110.613 2.2093 -7.72946 0
M  V30 1213 H 110.345 0.474168 -0.48181 0
M  V30 1214 H 112.899 0.905247 -1.84376 0
M  V30 1215 H 111.129 3.45746 -1.73195 0
M  V30 1216 H 112.818 3.44247 -2.15055 0
M  V30 1217 H 113.584 2.21984 -4.31217 0
M  V30 1218 H 109.463 3.07566 -3.43401 0
M  V30 1219 H 113.007 1.95067 -6.69772 0
M  V30 1220 H 108.904 2.81006 -5.81125 0
M  V30 1221 H 109.672 2.35937 -7.83757 0
M  V30 1222 N 112.336 1.25143 0.95797 0
M  V30 1223 C 113.585 1.0909 1.69654 0
M  V30 1224 C 113.898 -0.368548 1.92097 0
M  V30 1225 O 115.104 -0.649455 2.63618 0
M  V30 1226 C 113.56 1.90395 3.05414 0
M  V30 1227 C 113.168 3.4081 2.90779 0
M  V30 1228 C 114.912 1.82901 3.83076 0
M  V30 1229 C 112.819 4.14423 4.21909 0
M  V30 1230 H 111.749 0.404625 0.636235 0
M  V30 1231 H 114.4 1.4931 1.06672 0
M  V30 1232 H 112.782 1.42996 3.69281 0
M  V30 1233 H 113.956 3.95859 2.35865 0
M  V30 1234 H 112.271 3.49361 2.26575 0
M  V30 1235 H 114.868 2.35196 4.80195 0
M  V30 1236 H 115.211 0.796224 4.08615 0
M  V30 1237 H 115.744 2.28033 3.25954 0
M  V30 1238 H 112.483 5.18102 4.01561 0
M  V30 1239 H 112.003 3.64159 4.76601 0
M  V30 1240 H 113.682 4.21956 4.90471 0
M  V30 1241 N 113.814 -1.1601 1.06675 0
M  V30 1242 C 115.06 -1.86909 0.786945 0
M  V30 1243 C 115.393 -1.81717 -0.685018 0
M  V30 1244 O 114.668 -1.23551 -1.50218 0
M  V30 1245 C 114.951 -3.36313 1.28707 0
M  V30 1246 C 114.804 -3.50175 2.82308 0
M  V30 1247 C 116.123 -4.3084 0.898071 0
M  V30 1248 H 113.242 -0.678677 0.287343 0
M  V30 1249 H 115.884 -1.36336 1.32334 0
M  V30 1250 H 114.034 -3.79513 0.830768 0
M  V30 1251 H 115.706 -3.15886 3.36175 0
M  V30 1252 H 113.949 -2.91959 3.20847 0
M  V30 1253 H 114.62 -4.55116 3.12368 0
M  V30 1254 H 117.096 -3.95561 1.29114 0
M  V30 1255 H 115.972 -5.33876 1.27543 0
M  V30 1256 H 116.233 -4.41662 -0.196651 0
M  V30 1257 N 115.292 -0.849877 -1.32721 0
M  V30 1258 C 116.225 -0.235903 -2.26977 0
M  V30 1259 C 117.203 0.623355 -1.50177 0
M  V30 1260 O 118.387 0.581207 -1.79316 0
M  V30 1261 C 115.514 0.667712 -3.32053 0
M  V30 1262 C 114.56 -0.11753 -4.26338 0
M  V30 1263 S 115.393 -1.48277 -5.14562 0
M  V30 1264 C 116.549 -0.584741 -6.23163 0
M  V30 1265 H 116.782 -1.03495 -2.78704 0
M  V30 1266 H 114.315 -0.64724 -1.40179 0
M  V30 1267 H 116.273 1.18343 -3.93072 0
M  V30 1268 H 114.934 1.44052 -2.7912 0
M  V30 1269 H 114.127 0.57051 -5.00761 0
M  V30 1270 H 113.729 -0.564668 -3.69713 0
M  V30 1271 H 116.021 0.212968 -6.77165 0
M  V30 1272 H 116.964 -1.29947 -6.96074 0
M  V30 1273 H 117.372 -0.161202 -5.6427 0
M  V30 1274 N 116.77 1.45427 -0.607355 0
M  V30 1275 C 117.68 2.34325 0.113463 0
M  V30 1276 C 118.696 1.51226 0.860617 0
M  V30 1277 O 119.872 1.84029 0.818255 0
M  V30 1278 C 116.937 3.28839 1.09844 0
M  V30 1279 C 115.998 4.27844 0.353271 0
M  V30 1280 C 115.231 5.17842 1.29133 0
M  V30 1281 O 115.454 5.11264 2.52913 0
M  V30 1282 O 114.388 5.96713 0.788523 0
M  V30 1283 H 118.214 2.97364 -0.617094 0
M  V30 1284 H 115.799 1.44807 -0.367619 0
M  V30 1285 H 117.681 3.8708 1.66575 0
M  V30 1286 H 116.356 2.68365 1.81003 0
M  V30 1287 H 115.263 3.7322 -0.256494 0
M  V30 1288 H 116.596 4.91173 -0.317822 0
M  V30 1289 N 118.248 0.346503 1.53744 0
M  V30 1290 C 119.478 -0.250047 2.05081 0
M  V30 1291 C 119.886 -1.44529 1.22098 0
M  V30 1292 O 119.229 -1.81992 0.249917 0
M  V30 1293 C 119.291 -0.725934 3.52094 0
M  V30 1294 C 118.955 0.350053 4.55657 0
M  V30 1295 C 119.952 1.19372 5.0601 0
M  V30 1296 C 117.637 0.504827 4.99757 0
M  V30 1297 C 119.631 2.17768 5.99046 0
M  V30 1298 C 117.318 1.49218 5.92602 0
M  V30 1299 C 118.316 2.32706 6.42135 0
M  V30 1300 O 118.004 3.2976 7.33153 0
M  V30 1301 H 117.736 -0.0515469 0.674032 0
M  V30 1302 H 120.29 0.497559 1.99282 0
M  V30 1303 H 118.52 -1.52483 3.55367 0
M  V30 1304 H 120.209 -1.24336 3.86388 0
M  V30 1305 H 120.975 1.08525 4.72702 0
M  V30 1306 H 116.854 -0.135178 4.60802 0
M  V30 1307 H 120.398 2.82971 6.37631 0
M  V30 1308 H 116.295 1.6012 6.25325 0
M  V30 1309 H 117.063 3.25265 7.51096 0
M  V30 1310 N 119.726 -1.57421 0.075193 0
M  V30 1311 C 120.966 -1.95495 -0.596757 0
M  V30 1312 C 121.33 -0.954886 -1.66571 0
M  V30 1313 O 122.531 -1.22341 -2.39345 0
M  V30 1314 C 120.802 -3.382 -1.15566 0
M  V30 1315 S 122.361 -3.98254 -1.84226 0
M  V30 1316 H 119.179 -0.683649 -0.195307 0
M  V30 1317 H 121.781 -1.94925 0.149859 0
M  V30 1318 H 120.485 -4.08766 -0.36588 0
M  V30 1319 H 120.016 -3.42321 -1.93856 0
M  V30 1320 H 122.031 -3.85435 -3.12497 0
M  V30 1321 N 121.204 0.198386 -1.56346 0
M  V30 1322 C 122.481 0.944982 -1.71258 0
M  V30 1323 C 122.861 2.0151 -0.629048 0
M  V30 1324 O 122.209 2.25639 0.360473 0
M  V30 1325 C 122.419 1.5344 -3.1346 0
M  V30 1326 C 123.767 2.01778 -3.73591 0
M  V30 1327 O 124.791 1.63288 -3.16568 0
M  V30 1328 O 123.65 2.72594 -4.73661 0
M  V30 1329 H 120.744 0.442939 -0.69838 0
M  V30 1330 H 123.29 0.188342 -1.68652 0
M  V30 1331 H 122.062 0.762869 -3.83792 0
M  V30 1332 H 121.685 2.35596 -3.20282 0
M  V30 1333 N 122.682 1.50554 0.465978 0
M  V30 1334 C 123.93 1.61479 1.21528 0
M  V30 1335 C 124.251 0.319596 1.92363 0
M  V30 1336 O 123.521 -0.663194 1.84333 0
M  V30 1337 H 122.101 0.595055 0.451573 0
M  V30 1338 H 124.763 1.87355 0.53704 0
M  V30 1339 H 123.859 2.42846 1.96042 0
M  V30 1340 N 124.16 -0.719506 1.40217 0
M  V30 1341 C 125.408 -1.47641 1.3801 0
M  V30 1342 C 125.729 -1.94992 -0.018145 0
M  V30 1343 O 124.999 -1.70073 -0.972207 0
M  V30 1344 H 123.579 -0.547744 0.507923 0
M  V30 1345 H 126.241 -0.853187 1.75233 0
M  V30 1346 H 125.337 -2.35112 2.05253 0
M  V30 1347 N 125.638 -1.25649 -0.95132 0
M  V30 1348 C 126.915 -1.01361 -1.67288 0
M  V30 1349 C 127.295 0.459135 -2.06046 0
M  V30 1350 O 126.643 1.43723 -1.7764 0
M  V30 1351 C 126.853 -1.95256 -2.89268 0
M  V30 1352 C 128.201 -2.23289 -3.61147 0
M  V30 1353 O 129.225 -1.93041 -2.99355 0
M  V30 1354 O 128.084 -2.74741 -4.72419 0
M  V30 1355 H 125.178 -0.38464 -0.732107 0
M  V30 1356 H 127.724 -1.36817 -1.00395 0
M  V30 1357 H 126.496 -2.94685 -2.57442 0
M  V30 1358 H 126.119 -1.60218 -3.6389 0
M  V30 1359 N 127.117 1.15442 -1.07289 0
M  V30 1360 C 128.047 2.22312 -0.714107 0
M  V30 1361 C 129.028 1.67467 0.298155 0
M  V30 1362 O 130.213 1.93445 0.171048 0
M  V30 1363 C 127.343 3.47124 -0.110448 0
M  V30 1364 C 126.297 4.14926 -1.04979 0
M  V30 1365 C 125.623 5.33807 -0.308924 0
M  V30 1366 C 126.923 4.64762 -2.38314 0
M  V30 1367 H 128.617 2.5258 -1.6076 0
M  V30 1368 H 126.163 1.21404 -0.77441 0
M  V30 1369 H 128.116 4.21124 0.152482 0
M  V30 1370 H 126.84 3.16187 0.81812 0
M  V30 1371 H 125.499 3.42866 -1.29764 0
M  V30 1372 H 125.147 4.99126 0.623084 0
M  V30 1373 H 124.847 5.80113 -0.935036 0
M  V30 1374 H 126.371 6.10576 -0.0537771 0
M  V30 1375 H 127.785 5.30292 -2.1786 0
M  V30 1376 H 126.182 5.21728 -2.96514 0
M  V30 1377 H 127.252 3.80434 -3.00663 0
M  V30 1378 N 128.595 0.856903 1.32268 0
M  V30 1379 C 129.528 0.247937 2.26849 0
M  V30 1380 C 130.506 -0.615382 1.50505 0
M  V30 1381 O 131.69 -0.571689 1.79622 0
M  V30 1382 C 128.817 -0.650093 3.32403 0
M  V30 1383 C 127.863 0.140138 4.2627 0
M  V30 1384 S 128.696 1.51004 5.13769 0
M  V30 1385 C 129.852 0.61778 6.22844 0
M  V30 1386 H 130.085 1.04971 2.78152 0
M  V30 1387 H 127.618 0.654665 1.39834 0
M  V30 1388 H 129.576 -1.16256 3.93694 0
M  V30 1389 H 128.237 -1.4257 2.7988 0
M  V30 1390 H 127.43 -0.543945 5.01056 0
M  V30 1391 H 127.032 0.584267 3.69408 0
M  V30 1392 H 129.324 -0.177053 6.77269 0
M  V30 1393 H 130.267 1.33636 6.95375 0
M  V30 1394 H 130.675 0.191124 5.64176 0
M  V30 1395 N 130.073 -1.45103 0.615059 0
M  V30 1396 C 131.005 -2.28786 -0.13762 0
M  V30 1397 C 132.018 -1.40376 -0.824525 0
M  V30 1398 O 133.207 -1.64681 -0.688662 0
M  V30 1399 C 130.307 -3.16322 -1.21628 0
M  V30 1400 C 129.48 -4.33054 -0.615039 0
M  V30 1401 C 128.539 -5.01743 -1.58556 0
M  V30 1402 O 127.565 -5.58293 -1.10895 0
M  V30 1403 N 128.767 -5.01714 -2.91998 0
M  V30 1404 H 131.532 -2.94025 0.580483 0
M  V30 1405 H 129.093 -1.55373 0.45507 0
M  V30 1406 H 131.085 -3.59139 -1.86552 0
M  V30 1407 H 129.655 -2.52943 -1.83681 0
M  V30 1408 H 128.875 -3.93627 0.21245 0
M  V30 1409 H 130.163 -5.08431 -0.193704 0
M  V30 1410 H 129.561 -4.57075 -3.33316 0
M  V30 1411 H 128.118 -5.48371 -3.52325 0
M  V30 1412 N 131.551 -0.354651 -1.53558 0
M  V30 1413 C 132.498 0.496968 -2.25386 0
M  V30 1414 C 133.468 1.0865 -1.25636 0
M  V30 1415 O 134.653 1.12104 -1.54394 0
M  V30 1416 C 131.793 1.63637 -3.03837 0
M  V30 1417 C 130.906 1.07307 -4.18461 0
M  V30 1418 C 130.041 2.18068 -4.84376 0
M  V30 1419 C 129.08 1.59147 -5.91049 0
M  V30 1420 N 128.217 2.63695 -6.50699 0
M  V30 1421 H 133.057 -0.122075 -2.9775 0
M  V30 1422 H 130.594 -0.0720154 -1.46924 0
M  V30 1423 H 132.552 2.30734 -3.47589 0
M  V30 1424 H 131.182 2.22623 -2.33749 0
M  V30 1425 H 130.234 0.292708 -3.79272 0
M  V30 1426 H 131.546 0.602193 -4.95152 0
M  V30 1427 H 130.7 2.93007 -5.31255 0
M  V30 1428 H 129.439 2.68504 -4.07133 0
M  V30 1429 H 128.444 0.827175 -5.43542 0
M  V30 1430 H 129.669 1.09549 -6.70206 0
M  V30 1431 H 127.615 3.13365 -5.76315 0
M  V30 1432 H 127.532 2.21263 -7.22896 0
M  V30 1433 H 128.8 3.3837 -7.02229 0
M  V30 1434 N 133.029 1.57378 -0.0835403 0
M  V30 1435 C 134.278 1.93106 0.582498 0
M  V30 1436 C 134.591 0.96651 1.70053 0
M  V30 1437 O 135.797 1.21705 2.42693 0
M  V30 1438 C 134.253 3.43076 1.08751 0
M  V30 1439 C 133.861 4.48 -0.000146404 0
M  V30 1440 C 135.605 3.87785 1.72694 0
M  V30 1441 C 133.512 5.89113 0.519568 0
M  V30 1442 H 132.442 0.720775 0.221358 0
M  V30 1443 H 135.093 1.82821 -0.157675 0
M  V30 1444 H 133.475 3.48474 1.88101 0
M  V30 1445 H 134.649 4.54233 -0.775199 0
M  V30 1446 H 132.964 4.1283 -0.54406 0
M  V30 1447 H 135.561 4.90604 2.1263 0
M  V30 1448 H 135.904 3.25796 2.59158 0
M  V30 1449 H 136.437 3.8504 0.999457 0
M  V30 1450 H 133.176 6.54775 -0.308186 0
M  V30 1451 H 132.696 5.86376 1.26188 0
M  V30 1452 H 134.375 6.39346 0.992237 0
M  V30 1453 N 134.507 -0.190092 1.56449 0
M  V30 1454 C 135.454 -1.23557 1.94942 0
M  V30 1455 C 136.424 -1.44972 0.810696 0
M  V30 1456 O 137.609 -1.58023 1.06927 0
M  V30 1457 C 134.749 -2.57416 2.2985 0
M  V30 1458 C 133.862 -2.43537 3.5681 0
M  V30 1459 C 132.997 -3.70134 3.81017 0
M  V30 1460 C 132.036 -3.51109 5.01387 0
M  V30 1461 N 131.173 -4.6973 5.21822 0
M  V30 1462 H 136.013 -0.900304 2.84075 0
M  V30 1463 H 133.55 -0.43318 1.40577 0
M  V30 1464 H 135.508 -3.35409 2.48106 0
M  V30 1465 H 134.138 -2.88975 1.43852 0
M  V30 1466 H 133.19 -1.56816 3.46573 0
M  V30 1467 H 134.502 -2.25415 4.4496 0
M  V30 1468 H 133.656 -4.56566 3.9954 0
M  V30 1469 H 132.395 -3.91215 2.91207 0
M  V30 1470 H 131.4 -2.63063 4.82782 0
M  V30 1471 H 132.625 -3.31468 5.9271 0
M  V30 1472 H 130.571 -4.91065 4.34961 0
M  V30 1473 H 130.488 -4.54452 6.0416 0
M  V30 1474 H 131.756 -5.57499 5.44808 0
M  V30 1475 N 135.985 -1.50799 -0.457987 0
M  V30 1476 C 136.917 -1.66786 -1.57211 0
M  V30 1477 C 137.93 -0.548962 -1.53265 0
M  V30 1478 O 139.119 -0.8226 -1.58416 0
M  V30 1479 C 136.219 -1.64834 -2.96113 0
M  V30 1480 C 135.392 -2.92971 -3.24787 0
M  V30 1481 C 134.451 -2.83485 -4.43309 0
M  V30 1482 O 133.477 -3.5744 -4.42973 0
M  V30 1483 N 134.679 -1.97929 -5.45714 0
M  V30 1484 H 137.444 -2.62889 -1.43909 0
M  V30 1485 H 135.005 -1.48427 -0.646617 0
M  V30 1486 H 136.997 -1.56084 -3.7339 0
M  V30 1487 H 135.567 -0.764118 -3.03117 0
M  V30 1488 H 134.787 -3.15749 -2.36 0
M  V30 1489 H 136.075 -3.77834 -3.40762 0
M  V30 1490 H 135.473 -1.37182 -5.48815 0
M  V30 1491 H 134.03 -1.95073 -6.21924 0
M  V30 1492 N 137.463 0.71206 -1.40597 0
M  V30 1493 C 138.395 1.83704 -1.37061 0
M  V30 1494 C 139.408 1.60453 -0.275426 0
M  V30 1495 O 140.597 1.70262 -0.53602 0
M  V30 1496 C 137.697 3.20172 -1.11099 0
M  V30 1497 C 136.87 3.7059 -2.3234 0
M  V30 1498 C 135.929 4.85681 -2.02485 0
M  V30 1499 O 134.955 4.9815 -2.75382 0
M  V30 1500 N 136.157 5.71735 -1.00497 0
M  V30 1501 H 138.922 1.87235 -2.34016 0
M  V30 1502 H 136.483 0.893739 -1.34996 0
M  V30 1503 H 138.475 3.94768 -0.891064 0
M  V30 1504 H 137.045 3.11767 -0.227989 0
M  V30 1505 H 136.265 2.87085 -2.7014 0
M  V30 1506 H 137.553 4.01011 -3.13157 0
M  V30 1507 H 136.951 5.64275 -0.401298 0
M  V30 1508 H 135.508 6.463 -0.844942 0
M  V30 1509 N 138.941 1.26152 0.944643 0
M  V30 1510 C 139.888 1.07408 2.04285 0
M  V30 1511 C 140.858 -0.0198413 1.66088 0
M  V30 1512 O 142.043 0.139264 1.90291 0
M  V30 1513 C 139.183 0.70945 3.37729 0
M  V30 1514 C 138.296 1.87926 3.88983 0
M  V30 1515 C 137.431 1.45807 5.10797 0
M  V30 1516 C 136.47 2.5964 5.54305 0
M  V30 1517 N 135.607 2.18226 6.67324 0
M  V30 1518 H 140.447 2.01389 2.1965 0
M  V30 1519 H 137.984 1.00275 1.07626 0
M  V30 1520 H 139.942 0.478948 4.14442 0
M  V30 1521 H 138.572 -0.193389 3.2222 0
M  V30 1522 H 137.624 2.22279 3.08701 0
M  V30 1523 H 138.936 2.73377 4.17213 0
M  V30 1524 H 138.09 1.18781 5.94959 0
M  V30 1525 H 136.829 0.574414 4.84305 0
M  V30 1526 H 135.834 2.87399 4.68702 0
M  V30 1527 H 137.059 3.48599 5.828 0
M  V30 1528 H 135.005 1.3229 6.42523 0
M  V30 1529 H 134.922 2.97221 6.95123 0
M  V30 1530 H 136.19 1.94403 7.54869 0
M  V30 1531 N 140.419 -1.14872 1.07899 0
M  V30 1532 C 141.667 -1.85422 0.803941 0
M  V30 1533 C 141.988 -1.83051 -0.67211 0
M  V30 1534 O 141.258 -1.27532 -1.48703 0
M  V30 1535 H 139.838 -0.686537 0.294408 0
M  V30 1536 H 142.5 -1.39226 1.3639 0
M  V30 1537 H 141.596 -2.90399 1.14346 0
M  V30 1538 N 141.898 -0.863906 -1.31812 0
M  V30 1539 C 142.845 -0.313303 -2.28664 0
M  V30 1540 C 143.815 0.584868 -1.55462 0
M  V30 1541 O 145 0.517805 -1.83639 0
M  V30 1542 C 142.14 0.48441 -3.41683 0
M  V30 1543 C 141.253 -0.440594 -4.29747 0
M  V30 1544 C 140.388 0.370652 -5.29905 0
M  V30 1545 C 139.427 -0.551164 -6.09613 0
M  V30 1546 N 138.564 0.223462 -7.01744 0
M  V30 1547 H 143.404 -1.14444 -2.75148 0
M  V30 1548 H 140.941 -0.575769 -1.35364 0
M  V30 1549 H 142.899 0.962627 -4.05943 0
M  V30 1550 H 141.529 1.28029 -2.96325 0
M  V30 1551 H 140.581 -1.03724 -3.65986 0
M  V30 1552 H 141.893 -1.14767 -4.85417 0
M  V30 1553 H 141.047 0.911638 -5.99812 0
M  V30 1554 H 139.786 1.11105 -4.74876 0
M  V30 1555 H 138.791 -1.10396 -5.38603 0
M  V30 1556 H 140.016 -1.29032 -6.66729 0
M  V30 1557 H 137.962 0.946787 -6.49132 0
M  V30 1558 H 137.879 -0.424399 -7.54808 0
M  V30 1559 H 139.147 0.745876 -7.75923 0
M  V30 1560 N 143.376 1.44774 -0.622745 0
M  V30 1561 C 144.306 2.33382 0.0741861 0
M  V30 1562 C 145.287 1.47719 0.843387 0
M  V30 1563 O 146.472 1.76458 0.810934 0
M  V30 1564 C 143.602 3.30663 1.06204 0
M  V30 1565 C 142.556 4.26079 0.405037 0
M  V30 1566 C 141.882 5.13165 1.5022 0
M  V30 1567 C 143.182 5.1781 -0.683414 0
M  V30 1568 H 144.876 2.91905 -0.665713 0
M  V30 1569 H 142.422 1.40363 -0.321587 0
M  V30 1570 H 144.375 3.9153 1.55827 0
M  V30 1571 H 143.099 2.70331 1.83272 0
M  V30 1572 H 141.758 3.66532 -0.0704683 0
M  V30 1573 H 141.406 4.49191 2.26355 0
M  V30 1574 H 141.106 5.77812 1.06803 0
M  V30 1575 H 142.63 5.76902 2.00041 0
M  V30 1576 H 144.044 5.72661 -0.270631 0
M  V30 1577 H 142.441 5.91015 -1.04023 0
M  V30 1578 H 143.511 4.59326 -1.55395 0
M  V30 1579 N 144.854 0.36279 1.53368 0
M  V30 1580 C 146.101 -0.227776 2.01215 0
M  V30 1581 C 146.429 -1.49003 1.25014 0
M  V30 1582 O 145.684 -1.92876 0.331236 0
M  V30 1583 C 145.983 -0.568417 3.52851 0
M  V30 1584 C 145.649 0.59918 4.46901 0
M  V30 1585 C 144.311 0.919559 4.72332 0
M  V30 1586 C 146.663 1.38156 5.02556 0
M  V30 1587 C 143.991 2.02434 5.5067 0
M  V30 1588 C 146.343 2.47674 5.821 0
M  V30 1589 C 145.007 2.8025 6.05819 0
M  V30 1590 H 144.277 -0.083349 0.736297 0
M  V30 1591 H 146.924 0.494677 1.85001 0
M  V30 1592 H 145.229 -1.37185 3.66998 0
M  V30 1593 H 146.926 -1.03756 3.87344 0
M  V30 1594 H 143.516 0.339437 4.27254 0
M  V30 1595 H 147.7 1.14729 4.82857 0
M  V30 1596 H 142.956 2.28075 5.67267 0
M  V30 1597 H 147.13 3.08716 6.24234 0
M  V30 1598 H 144.757 3.65979 6.66306 0
M  V30 1599 N 146.332 -1.57332 0.0918853 0
M  V30 1600 C 147.743 -1.81496 -0.437739 0
M  V30 1601 C 148.094 -1.00727 -1.6837 0
M  V30 1602 O 147.219 -0.235694 -2.15113 0
M  V30 1603 C 147.814 -3.29197 -0.800939 0
M  V30 1604 C 146.373 -3.54136 -1.27532 0
M  V30 1605 C 145.52 -2.75979 -0.270392 0
M  V30 1606 H 148.471 -1.55494 0.317366 0
M  V30 1607 H 148.492 -3.42344 -1.66074 0
M  V30 1608 H 148.004 -3.87955 0.106078 0
M  V30 1609 H 146.105 -3.00705 -2.20016 0
M  V30 1610 H 146.218 -4.62792 -1.23938 0
M  V30 1611 H 144.582 -2.43349 -0.751872 0
M  V30 1612 H 145.365 -3.37484 0.629248 0
M  V30 1613 N 147.81 0.181792 -1.56548 0
M  V30 1614 C 148.72 1.24538 -1.98815 0
M  V30 1615 C 149.736 1.49045 -0.897861 0
M  V30 1616 O 150.912 1.61399 -1.20467 0
M  V30 1617 C 147.977 2.56683 -2.33055 0
M  V30 1618 C 147.038 2.40131 -3.55859 0
M  V30 1619 C 146.271 3.65975 -3.88456 0
M  V30 1620 O 146.494 4.70711 -3.22161 0
M  V30 1621 O 145.428 3.6071 -4.81842 0
M  V30 1622 H 149.254 0.916647 -2.89536 0
M  V30 1623 H 146.839 0.387842 -1.44278 0
M  V30 1624 H 148.721 3.34655 -2.56094 0
M  V30 1625 H 147.396 2.89157 -1.45498 0
M  V30 1626 H 146.303 1.60226 -3.38051 0
M  V30 1627 H 147.636 2.12585 -4.43924 0
M  V30 1628 N 149.288 1.51039 0.449983 0
M  V30 1629 C 150.565 1.53612 1.21089 0
M  V30 1630 C 150.945 0.292997 2.09057 0
M  V30 1631 O 150.293 -0.72259 2.16774 0
M  V30 1632 C 150.503 2.84337 2.0237 0
M  V30 1633 C 151.851 3.35807 2.59843 0
M  V30 1634 O 152.875 2.85802 2.12593 0
M  V30 1635 O 151.734 4.23029 3.45989 0
M  V30 1636 H 148.828 0.617057 0.550608 0
M  V30 1637 H 151.374 1.63344 0.460082 0
M  V30 1638 H 150.146 3.66278 1.37681 0
M  V30 1639 H 149.769 2.77708 2.84542 0
M  V30 1640 N 150.766 -0.704594 1.40972 0
M  V30 1641 C 151.699 -1.82861 1.36518 0
M  V30 1642 C 152.677 -1.6091 0.23382 0
M  V30 1643 O 153.861 -1.83778 0.419271 0
M  V30 1644 C 150.988 -3.1939 1.12729 0
M  V30 1645 C 150.034 -3.60148 2.28463 0
M  V30 1646 S 150.867 -3.65994 3.90907 0
M  V30 1647 C 152.023 -5.05264 3.69403 0
M  V30 1648 H 152.256 -1.86361 2.3164 0
M  V30 1649 H 149.789 -0.872439 1.27389 0
M  V30 1650 H 151.747 -3.98211 0.996893 0
M  V30 1651 H 150.408 -3.1351 0.192427 0
M  V30 1652 H 149.601 -4.59309 2.07489 0
M  V30 1653 H 149.203 -2.88612 2.37863 0
M  V30 1654 H 151.495 -5.92504 3.28551 0
M  V30 1655 H 152.438 -5.31278 4.68134 0
M  V30 1656 H 152.846 -4.76377 3.02862 0
M  V30 1657 N 152.244 -1.26651 -0.937939 0
M  V30 1658 C 153.493 -1.11775 -1.67897 0
M  V30 1659 C 153.806 0.33794 -1.92659 0
M  V30 1660 O 155.012 0.607434 -2.64618 0
M  V30 1661 C 153.468 -1.9523 -3.02346 0
M  V30 1662 C 153.076 -3.45393 -2.8532 0
M  V30 1663 C 154.82 -1.88972 -3.80118 0
M  V30 1664 C 152.727 -4.21083 -4.15263 0
M  V30 1665 H 151.657 -0.414696 -0.629717 0
M  V30 1666 H 154.308 -1.50988 -1.04283 0
M  V30 1667 H 152.69 -1.48853 -3.66959 0
M  V30 1668 H 153.864 -3.99561 -2.29537 0
M  V30 1669 H 152.179 -3.52921 -2.20988 0
M  V30 1670 H 154.776 -2.42805 -4.76392 0
M  V30 1671 H 155.119 -0.86113 -4.07296 0
M  V30 1672 H 155.652 -2.33189 -3.22285 0
M  V30 1673 H 152.391 -5.24425 -3.93267 0
M  V30 1674 H 151.911 -3.71695 -4.70747 0
M  V30 1675 H 153.59 -4.29706 -4.83696 0
M  V30 1676 N 153.722 1.14298 -1.08507 0
M  V30 1677 C 154.652 2.21542 -0.737646 0
M  V30 1678 C 155.633 1.67773 0.280377 0
M  V30 1679 O 156.818 1.93616 0.150521 0
M  V30 1680 C 153.948 3.46988 -0.147259 0
M  V30 1681 C 152.902 4.13789 -1.09374 0
M  V30 1682 C 152.228 5.33449 -0.365524 0
M  V30 1683 C 153.528 4.62208 -2.4323 0
M  V30 1684 H 155.222 2.5086 -1.6343 0
M  V30 1685 H 152.768 1.20576 -0.787243 0
M  V30 1686 H 154.721 4.21262 0.107808 0
M  V30 1687 H 153.445 3.17037 0.784538 0
M  V30 1688 H 152.104 3.4147 -1.33393 0
M  V30 1689 H 151.752 4.99759 0.57011 0
M  V30 1690 H 151.452 5.79088 -0.996512 0
M  V30 1691 H 152.976 6.10485 -0.118534 0
M  V30 1692 H 154.39 5.27952 -2.23472 0
M  V30 1693 H 152.787 5.18553 -3.02031 0
M  V30 1694 H 153.857 3.77224 -3.04681 0
M  V30 1695 N 155.201 0.870884 1.31352 0
M  V30 1696 C 156.149 0.316445 2.30437 0
M  V30 1697 C 157.143 -0.568965 1.59559 0
M  V30 1698 O 158.349 -0.454964 1.74155 0
M  V30 1699 H 154.724 0.0836521 0.747333 0
M  V30 1700 H 156.695 1.16606 2.74673 0
M  V30 1701 C 155.444 -0.46635 3.44558 0
M  V30 1702 H 154.767 0.205687 3.99271 0
M  V30 1703 H 156.207 -0.819614 4.16003 0
M  V30 1704 C 154.666 -1.65797 2.9328 0
M  V30 1705 O 155.196 -2.75728 2.92125 0
M  V30 1706 N 153.402 -1.49041 2.4947 0
M  V30 1707 H 152.949 -0.59612 2.50608 0
M  V30 1708 H 152.907 -2.28911 2.15516 0
M  V30 1709 N 156.679 -1.44442 0.630414 0
M  V30 1710 C 157.925 -2.02894 0.143332 0
M  V30 1711 C 158.28 -1.48697 -1.22094 0
M  V30 1712 O 157.573 -0.661171 -1.79831 0
M  V30 1713 C 157.767 -3.57332 0.0697835 0
M  V30 1714 C 157.596 -4.26512 1.42539 0
M  V30 1715 C 156.366 -4.63516 2.01198 0
M  V30 1716 C 158.564 -4.57004 2.35907 0
M  V30 1717 N 156.546 -5.17661 3.30001 0
M  V30 1718 C 157.917 -5.12223 3.49324 0
M  V30 1719 C 159.972 -4.38955 2.34995 0
M  V30 1720 C 158.675 -5.51295 4.62024 0
M  V30 1721 C 160.701 -4.79075 3.46758 0
M  V30 1722 C 160.063 -5.34407 4.58899 0
M  V30 1723 H 156.162 -0.776041 0.0963523 0
M  V30 1724 H 158.746 -1.75945 0.833752 0
M  V30 1725 H 156.917 -3.83894 -0.589915 0
M  V30 1726 H 158.649 -4.02451 -0.42606 0
M  V30 1727 H 155.404 -4.47811 1.54151 0
M  V30 1728 H 155.828 -5.4921 3.95851 0
M  V30 1729 H 160.47 -3.95469 1.49545 0
M  V30 1730 H 158.188 -5.93736 5.48182 0
M  V30 1731 H 161.774 -4.66824 3.47227 0
M  V30 1732 H 160.654 -5.64878 5.4395 0
M  V30 1733 N 158.157 -0.370918 -1.53173 0
M  V30 1734 C 159.404 0.217102 -2.01333 0
M  V30 1735 C 159.732 1.48338 -1.25802 0
M  V30 1736 O 158.987 1.92698 -0.34146 0
M  V30 1737 C 159.286 0.549696 -3.53147 0
M  V30 1738 C 158.952 -0.622872 -4.46577 0
M  V30 1739 C 157.614 -0.944595 -4.71838 0
M  V30 1740 C 159.966 -1.40819 -5.01816 0
M  V30 1741 C 157.294 -2.05351 -5.49589 0
M  V30 1742 C 159.646 -2.50757 -5.80778 0
M  V30 1743 C 158.31 -2.83458 -6.04324 0
M  V30 1744 H 157.58 0.0794431 -0.736729 0
M  V30 1745 H 160.227 -0.504481 -1.84736 0
M  V30 1746 H 158.532 1.35237 -3.6772 0
M  V30 1747 H 160.229 1.017 -3.87889 0
M  V30 1748 H 156.819 -0.36209 -4.27068 0
M  V30 1749 H 161.003 -1.17289 -4.82242 0
M  V30 1750 H 156.259 -2.3108 -5.6605 0
M  V30 1751 H 160.433 -3.12022 -6.22588 0
M  V30 1752 H 158.06 -3.69508 -6.64355 0
M  V30 1753 N 159.635 1.57281 -0.100228 0
M  V30 1754 C 160.863 1.98879 0.570509 0
M  V30 1755 C 161.278 0.979476 1.61405 0
M  V30 1756 O 160.635 -0.0302288 1.82475 0
M  V30 1757 C 160.686 3.4052 1.2136 0
M  V30 1758 O 160.407 4.37588 0.211786 0
M  V30 1759 C 161.908 3.97149 1.96945 0
M  V30 1760 H 159.128 0.653428 0.152555 0
M  V30 1761 H 161.672 2.03697 -0.18103 0
M  V30 1762 H 159.827 3.367 1.91603 0
M  V30 1763 H 160.241 5.20118 0.676607 0
M  V30 1764 H 161.715 4.98393 2.37294 0
M  V30 1765 H 162.192 3.3525 2.83733 0
M  V30 1766 H 162.798 4.04458 1.31506 0
M  V30 1767 N 161.113 -0.173488 1.56642 0
M  V30 1768 C 162.045 -1.23935 1.92802 0
M  V30 1769 C 163.058 -1.40589 0.820889 0
M  V30 1770 O 164.247 -1.40631 1.09933 0
M  V30 1771 C 161.347 -2.60837 2.16373 0
M  V30 1772 C 160.52 -2.6551 3.47596 0
M  V30 1773 C 159.579 -3.8376 3.60021 0
M  V30 1774 O 158.605 -3.69859 4.32658 0
M  V30 1775 N 159.807 -5.00127 2.94709 0
M  V30 1776 H 162.572 -0.932236 2.84832 0
M  V30 1777 H 160.133 -0.363268 1.57772 0
M  V30 1778 H 162.125 -3.38407 2.21952 0
M  V30 1779 H 160.695 -2.83948 1.30738 0
M  V30 1780 H 159.915 -1.74052 3.53694 0
M  V30 1781 H 161.203 -2.65641 4.33949 0
M  V30 1782 H 160.601 -5.14322 2.35563 0
M  V30 1783 H 159.158 -5.75567 3.05886 0
M  V30 1784 N 162.591 -1.51276 -0.441967 0
M  V30 1785 C 163.524 -1.66933 -1.55591 0
M  V30 1786 C 164.502 -0.516958 -1.54163 0
M  V30 1787 O 165.686 -0.740209 -1.73358 0
M  V30 1788 C 162.813 -1.67866 -2.94174 0
M  V30 1789 C 161.859 -2.89013 -3.13646 0
M  V30 1790 S 162.692 -4.49897 -2.90436 0
M  V30 1791 C 163.848 -4.53568 -4.31308 0
M  V30 1792 H 164.081 -2.61155 -1.42076 0
M  V30 1793 H 161.614 -1.40902 -0.631341 0
M  V30 1794 H 163.572 -1.69089 -3.74058 0
M  V30 1795 H 162.233 -0.748296 -3.05056 0
M  V30 1796 H 161.426 -2.86054 -4.14957 0
M  V30 1797 H 161.028 -2.85509 -2.4158 0
M  V30 1798 H 163.32 -4.28924 -5.24434 0
M  V30 1799 H 164.263 -5.55355 -4.39303 0
M  V30 1800 H 164.671 -3.82943 -4.14747 0
M  V30 1801 N 164.069 0.697108 -1.41344 0
M  V30 1802 C 165.309 1.46939 -1.42085 0
M  V30 1803 C 165.673 1.9198 -0.0280397 0
M  V30 1804 O 166.874 2.6865 0.0897504 0
M  V30 1805 C 165.145 2.64985 -2.39828 0
M  V30 1806 S 166.704 3.54147 -2.59085 0
M  V30 1807 H 163.522 0.502146 -0.503359 0
M  V30 1808 H 166.124 0.813546 -1.77769 0
M  V30 1809 H 164.828 2.30098 -3.39828 0
M  V30 1810 H 164.359 3.35464 -2.05493 0
M  V30 1811 H 166.374 4.60137 -1.85711 0
M  V30 1812 N 165.547 1.27147 0.931209 0
M  V30 1813 C 166.477 1.12081 2.04842 0
M  V30 1814 C 167.458 0.0232364 1.70084 0
M  V30 1815 O 168.643 0.197085 1.93197 0
M  V30 1816 C 165.773 0.76354 3.38803 0
M  V30 1817 C 164.727 1.81396 3.87659 0
M  V30 1818 C 164.053 1.31075 5.18385 0
M  V30 1819 C 165.353 3.21739 4.11438 0
M  V30 1820 H 167.047 2.05537 2.17703 0
M  V30 1821 H 164.593 0.989603 1.04608 0
M  V30 1822 H 166.546 0.644982 4.16435 0
M  V30 1823 H 165.27 -0.206727 3.25945 0
M  V30 1824 H 163.929 1.92136 3.12217 0
M  V30 1825 H 163.577 0.330037 5.01916 0
M  V30 1826 H 163.277 2.013 5.52044 0
M  V30 1827 H 164.801 1.20506 5.98591 0
M  V30 1828 H 166.215 3.14019 4.79651 0
M  V30 1829 H 164.612 3.89644 4.56397 0
M  V30 1830 H 165.682 3.67054 3.16859 0
M  V30 1831 N 167.025 -1.13721 1.09112 0
M  V30 1832 C 168.273 -1.84559 0.823562 0
M  V30 1833 C 168.594 -1.83754 -0.652658 0
M  V30 1834 O 167.864 -1.29102 -1.47342 0
M  V30 1835 H 166.444 -0.683376 0.301673 0
M  V30 1836 H 169.106 -1.37771 1.37859 0
M  V30 1837 H 168.202 -2.8917 1.17419 0
M  V30 1838 N 168.503 -0.877838 -1.30888 0
M  V30 1839 C 169.749 -0.493426 -1.96706 0
M  V30 1840 C 170.082 0.953504 -1.6918 0
M  V30 1841 O 169.357 1.67266 -0.992594 0
M  V30 1842 C 169.64 -0.760429 -3.51979 0
M  V30 1843 C 169.493 -2.25747 -3.89048 0
M  V30 1844 C 170.812 -0.232148 -4.39487 0
M  V30 1845 H 167.931 -0.180746 -0.714493 0
M  V30 1846 H 170.573 -1.10052 -1.54882 0
M  V30 1847 H 168.723 -0.243715 -3.87735 0
M  V30 1848 H 170.395 -2.84204 -3.63354 0
M  V30 1849 H 168.638 -2.72694 -3.37373 0
M  V30 1850 H 169.309 -2.39491 -4.97341 0
M  V30 1851 H 171.785 -0.674314 -4.106 0
M  V30 1852 H 170.661 -0.448355 -5.47066 0
M  V30 1853 H 170.922 0.866297 -4.33529 0
M  V30 1854 N 169.982 1.44106 -0.638065 0
M  V30 1855 C 170.93 2.3248 0.0748149 0
M  V30 1856 C 171.924 1.47746 0.828702 0
M  V30 1857 O 173.13 1.64049 0.740816 0
M  V30 1858 H 169.505 0.750771 0.0429686 0
M  V30 1859 H 171.476 2.90348 -0.688504 0
M  V30 1860 C 170.225 3.31843 1.03805 0
M  V30 1861 H 169.548 3.97059 0.467375 0
M  V30 1862 H 170.988 3.96345 1.50622 0
M  V30 1863 C 169.447 2.61291 2.1267 0
M  V30 1864 O 169.977 2.41702 3.20847 0
M  V30 1865 N 168.183 2.20915 1.88798 0
M  V30 1866 H 167.73 2.37047 1.00829 0
M  V30 1867 H 167.688 1.74038 2.61836 0
M  V30 1868 N 171.46 0.379036 1.52974 0
M  V30 1869 C 172.41 -0.477772 2.22938 0
M  V30 1870 C 173.394 -1.03792 1.22948 0
M  V30 1871 O 174.586 -0.965725 1.48333 0
M  V30 1872 C 171.715 -1.60994 3.03209 0
M  V30 1873 C 170.801 -1.06203 4.10587 0
M  V30 1874 N 171.192 -0.238214 5.05239 0
M  V30 1875 C 169.49 -1.33554 4.25534 0
M  V30 1876 C 170.191 0.0633235 5.81666 0
M  V30 1877 N 169.167 -0.537901 5.40932 0
M  V30 1878 H 172.969 0.158295 2.93473 0
M  V30 1879 H 170.483 0.187778 1.61311 0
M  V30 1880 H 172.48 -2.23607 3.5186 0
M  V30 1881 H 171.14 -2.24893 2.34207 0
M  V30 1882 H 172.151 0.123695 5.17752 0
M  V30 1883 H 168.828 -1.97632 3.6776 0
M  V30 1884 H 170.218 0.730161 6.67921 0
M  V30 1885 N 172.938 -1.57226 0.108567 0
M  V30 1886 C 174.187 -1.94008 -0.551703 0
M  V30 1887 C 174.5 -0.993442 -1.68494 0
M  V30 1888 O 175.706 -1.25551 -2.40726 0
M  V30 1889 C 174.162 -3.44763 -1.03279 0
M  V30 1890 C 173.77 -4.47943 0.0714193 0
M  V30 1891 C 175.514 -3.90483 -1.66503 0
M  V30 1892 C 173.421 -5.89865 -0.425779 0
M  V30 1893 H 172.351 -0.724206 -0.209863 0
M  V30 1894 H 175.002 -1.82547 0.186741 0
M  V30 1895 H 173.384 -3.51422 -1.82533 0
M  V30 1896 H 174.558 -4.52942 0.847365 0
M  V30 1897 H 172.873 -4.11913 0.609669 0
M  V30 1898 H 175.47 -4.93925 -2.04798 0
M  V30 1899 H 175.813 -3.29877 -2.53942 0
M  V30 1900 H 176.346 -3.86581 -0.938074 0
M  V30 1901 H 173.085 -6.54202 0.412316 0
M  V30 1902 H 172.605 -5.88309 -1.16843 0
M  V30 1903 H 174.284 -6.40844 -0.890397 0
M  V30 1904 N 174.416 0.165178 -1.56732 0
M  V30 1905 C 175.366 1.20917 -1.93295 0
M  V30 1906 C 176.35 1.39488 -0.801985 0
M  V30 1907 O 177.542 1.41356 -1.06525 0
M  V30 1908 C 174.671 2.54718 -2.3016 0
M  V30 1909 C 173.757 2.39815 -3.49785 0
M  V30 1910 N 174.148 1.94637 -4.66851 0
M  V30 1911 C 172.446 2.70623 -3.54513 0
M  V30 1912 C 173.147 1.92344 -5.4898 0
M  V30 1913 N 172.123 2.34978 -4.9019 0
M  V30 1914 H 175.925 0.851675 -2.81289 0
M  V30 1915 H 173.439 0.373399 -1.58049 0
M  V30 1916 H 175.436 3.30165 -2.54552 0
M  V30 1917 H 174.096 2.91265 -1.43508 0
M  V30 1918 H 175.107 1.6488 -4.90953 0
M  V30 1919 H 171.784 3.11167 -2.78354 0
M  V30 1920 H 173.174 1.5906 -6.52801 0
M  V30 1921 N 175.894 1.51508 0.433938 0
M  V30 1922 C 176.841 1.73068 1.52696 0
M  V30 1923 C 177.811 0.572441 1.55924 0
M  V30 1924 O 178.996 0.807253 1.72882 0
M  V30 1925 C 176.136 1.86474 2.90381 0
M  V30 1926 C 175.249 3.14037 2.96656 0
M  V30 1927 C 174.384 3.18019 4.25485 0
M  V30 1928 C 173.423 4.39882 4.2564 0
M  V30 1929 N 172.56 4.41394 5.45999 0
M  V30 1930 H 177.4 2.66366 1.33615 0
M  V30 1931 H 174.937 1.32008 0.649018 0
M  V30 1932 H 176.895 1.92229 3.70275 0
M  V30 1933 H 175.525 0.965809 3.08013 0
M  V30 1934 H 174.577 3.17575 2.09404 0
M  V30 1935 H 175.889 4.0394 2.92633 0
M  V30 1936 H 175.043 3.22708 5.13755 0
M  V30 1937 H 173.782 2.2601 4.3217 0
M  V30 1938 H 172.787 4.35366 3.35763 0
M  V30 1939 H 174.012 5.33159 4.20617 0
M  V30 1940 H 171.958 3.52258 5.53399 0
M  V30 1941 H 171.875 5.25111 5.4387 0
M  V30 1942 H 173.143 4.50281 6.36292 0
M  V30 1943 N 177.372 -0.689602 1.41712 0
M  V30 1944 C 178.319 -1.80345 1.44029 0
M  V30 1945 C 179.289 -1.63478 0.293948 0
M  V30 1946 O 180.474 -1.84244 0.495869 0
M  V30 1947 C 177.614 -3.18272 1.33405 0
M  V30 1948 C 176.727 -3.46529 2.57956 0
M  V30 1949 C 175.862 -4.74103 2.39582 0
M  V30 1950 C 174.901 -4.95347 3.5958 0
M  V30 1951 N 174.038 -6.14151 3.40239 0
M  V30 1952 H 178.878 -1.77698 2.39222 0
M  V30 1953 H 176.415 -0.867688 1.18784 0
M  V30 1954 H 178.373 -3.97956 1.25246 0
M  V30 1955 H 177.003 -3.2008 0.418164 0
M  V30 1956 H 176.055 -2.61207 2.76542 0
M  V30 1957 H 177.367 -3.58126 3.47199 0
M  V30 1958 H 176.521 -5.61853 2.28924 0
M  V30 1959 H 175.26 -4.64763 1.47805 0
M  V30 1960 H 174.265 -4.06044 3.70686 0
M  V30 1961 H 175.49 -5.06542 4.52318 0
M  V30 1962 H 173.436 -6.06013 2.51167 0
M  V30 1963 H 173.353 -6.26543 4.23061 0
M  V30 1964 H 174.621 -7.04619 3.33365 0
M  V30 1965 N 178.85 -1.27639 -0.924453 0
M  V30 1966 C 180.266 -1.05113 -1.20097 0
M  V30 1967 C 180.466 0.213262 -2.00368 0
M  V30 1968 O 179.522 0.91787 -2.35226 0
M  V30 1969 C 180.835 -2.29244 -1.94596 0
M  V30 1970 C 182.383 -2.34315 -2.07522 0
M  V30 1971 C 182.858 -3.58183 -2.85427 0
M  V30 1972 N 184.349 -3.5876 -2.92994 0
M  V30 1973 C 185.084 -4.51277 -3.53746 0
M  V30 1974 N 184.58 -5.54102 -4.15863 0
M  V30 1975 N 186.373 -4.38894 -3.51181 0
M  V30 1976 H 178.524 -2.08821 -0.388264 0
M  V30 1977 H 180.787 -0.918568 -0.234385 0
M  V30 1978 H 180.493 -3.21301 -1.43034 0
M  V30 1979 H 180.367 -2.34816 -2.95197 0
M  V30 1980 H 182.754 -1.42762 -2.58269 0
M  V30 1981 H 182.835 -2.32744 -1.06131 0
M  V30 1982 H 182.479 -4.50074 -2.35363 0
M  V30 1983 H 182.409 -3.57006 -3.8711 0
M  V30 1984 H 184.9 -2.84398 -2.4885 0
M  V30 1985 H 185.213 -6.20859 -4.60168 0
M  V30 1986 H 183.558 -5.57941 -4.144 0
M  V30 1987 H 186.749 -3.57772 -3.01856 0
M  V30 1988 H 186.922 -5.11186 -3.98237 0
M  V30 1989 N 180.328 1.1314 -1.09713 0
M  V30 1990 C 181.574 1.84757 -0.836224 0
M  V30 1991 C 181.907 1.8347 0.636598 0
M  V30 1992 O 181.182 1.27491 1.46889 0
M  V30 1993 C 181.465 3.32782 -1.37578 0
M  V30 1994 C 181.318 3.42567 -2.91493 0
M  V30 1995 C 182.637 4.28307 -1.01198 0
M  V30 1996 H 179.756 0.67082 -0.305236 0
M  V30 1997 H 182.398 1.3278 -1.35903 0
M  V30 1998 H 180.548 3.77177 -0.931097 0
M  V30 1999 H 182.22 3.06862 -3.44432 0
M  V30 2000 H 180.463 2.83349 -3.28475 0
M  V30 2001 H 181.134 4.46674 -3.24324 0
M  V30 2002 H 183.61 3.91999 -1.39556 0
M  V30 2003 H 182.486 5.30307 -1.41653 0
M  V30 2004 H 182.747 4.42029 0.0794833 0
M  V30 2005 N 181.806 0.884767 1.30421 0
M  V30 2006 C 182.736 0.367574 2.30589 0
M  V30 2007 C 183.717 -0.549464 1.60981 0
M  V30 2008 O 184.902 -0.46336 1.88591 0
M  V30 2009 C 182.032 -0.418944 3.44764 0
M  V30 2010 C 180.986 0.406316 4.26067 0
M  V30 2011 C 180.312 -0.506793 5.32293 0
M  V30 2012 C 181.612 1.64832 4.95608 0
M  V30 2013 H 183.306 1.20462 2.74097 0
M  V30 2014 H 180.852 0.580695 1.31772 0
M  V30 2015 H 182.805 -0.791395 4.13902 0
M  V30 2016 H 181.529 -1.28964 3.0006 0
M  V30 2017 H 180.188 0.760903 3.58617 0
M  V30 2018 H 179.836 -1.37519 4.83836 0
M  V30 2019 H 179.536 0.0415828 5.87585 0
M  V30 2020 H 181.06 -0.875764 6.04287 0
M  V30 2021 H 182.474 1.34646 5.57264 0
M  V30 2022 H 180.871 2.13688 5.60765 0
M  V30 2023 H 181.941 2.39284 4.21748 0
M  V30 2024 N 183.284 -1.43765 0.645699 0
M  V30 2025 C 184.234 -2.27884 -0.0726442 0
M  V30 2026 C 185.218 -1.39483 -0.802086 0
M  V30 2027 O 186.41 -1.63174 -0.685791 0
M  V30 2028 C 183.539 -3.27055 -1.04356 0
M  V30 2029 C 182.625 -4.22944 -0.312985 0
M  V30 2030 N 183.016 -5.01391 0.666386 0
M  V30 2031 C 181.314 -4.42528 -0.55546 0
M  V30 2032 C 182.015 -5.71217 1.09935 0
M  V30 2033 N 180.991 -5.41856 0.435137 0
M  V30 2034 H 184.793 -2.85949 0.678988 0
M  V30 2035 H 182.307 -1.55378 0.472368 0
M  V30 2036 H 184.304 -3.86089 -1.57292 0
M  V30 2037 H 182.964 -2.70551 -1.79534 0
M  V30 2038 H 183.975 -5.07252 1.04481 0
M  V30 2039 H 180.652 -3.97104 -1.28899 0
M  V30 2040 H 182.042 -6.44202 1.90929 0
M  V30 2041 N 184.763 -0.387143 -1.52771 0
M  V30 2042 C 186.179 -0.037007 -1.59557 0
M  V30 2043 C 186.379 1.44801 -1.40124 0
M  V30 2044 O 185.435 2.21227 -1.21716 0
M  V30 2045 C 186.748 -0.512256 -2.96305 0
M  V30 2046 C 188.296 -0.468328 -3.09476 0
M  V30 2047 C 188.771 -0.919731 -4.4867 0
M  V30 2048 N 190.262 -0.875656 -4.54848 0
M  V30 2049 C 190.997 -1.19637 -5.6078 0
M  V30 2050 N 190.493 -1.58745 -6.74368 0
M  V30 2051 N 192.286 -1.11776 -5.50874 0
M  V30 2052 H 184.437 -1.35395 -1.63652 0
M  V30 2053 H 186.7 -0.554818 -0.768688 0
M  V30 2054 H 186.406 -1.54935 -3.15734 0
M  V30 2055 H 186.28 0.089805 -3.77093 0
M  V30 2056 H 188.667 0.559671 -2.89744 0
M  V30 2057 H 188.748 -1.10616 -2.30646 0
M  V30 2058 H 188.392 -1.94595 -4.69143 0
M  V30 2059 H 188.322 -0.258927 -5.25963 0
M  V30 2060 H 190.813 -0.587843 -3.733 0
M  V30 2061 H 191.126 -1.81586 -7.51163 0
M  V30 2062 H 189.471 -1.6263 -6.75705 0
M  V30 2063 H 192.662 -0.811264 -4.61016 0
M  V30 2064 H 192.835 -1.37103 -6.3333 0
M  V30 2065 N 186.241 1.57166 -0.116904 0
M  V30 2066 C 187.518 1.86645 0.585049 0
M  V30 2067 C 187.898 1.0177 1.84949 0
M  V30 2068 O 187.246 0.0960379 2.28298 0
M  V30 2069 C 187.456 3.37736 0.879507 0
M  V30 2070 C 188.804 4.06289 1.23348 0
M  V30 2071 O 189.828 3.42743 0.969836 0
M  V30 2072 O 188.687 5.18455 1.7282 0
M  V30 2073 H 185.781 0.772593 0.295007 0
M  V30 2074 H 188.327 1.69025 -0.151249 0
M  V30 2075 H 187.099 3.91296 -0.0166136 0
M  V30 2076 H 186.722 3.6078 1.67103 0
M  V30 2077 N 187.719 -0.156864 1.56817 0
M  V30 2078 C 188.968 -0.869504 1.81996 0
M  V30 2079 C 189.281 -1.82777 0.696545 0
M  V30 2080 O 190.487 -2.58384 0.833658 0
M  V30 2081 C 188.943 -1.59679 3.22538 0
M  V30 2082 C 188.551 -0.681431 4.42787 0
M  V30 2083 C 190.295 -2.2968 3.56997 0
M  V30 2084 C 188.202 -1.40978 5.74351 0
M  V30 2085 H 187.132 -0.328438 0.678708 0
M  V30 2086 H 189.783 -0.1223 1.83092 0
M  V30 2087 H 188.165 -2.38927 3.158 0
M  V30 2088 H 189.339 0.0751166 4.60739 0
M  V30 2089 H 187.654 -0.0903431 4.16302 0
M  V30 2090 H 190.251 -2.84794 4.52544 0
M  V30 2091 H 190.594 -3.05707 2.82576 0
M  V30 2092 H 191.127 -1.57361 3.65352 0
M  V30 2093 H 187.866 -0.691561 6.51842 0
M  V30 2094 H 187.386 -2.13929 5.60352 0
M  V30 2095 H 189.065 -1.95337 6.16808 0
M  V30 2096 N 189.197 -1.51736 -0.425897 0
M  V30 2097 C 190.144 -1.73875 -1.51776 0
M  V30 2098 C 191.114 -0.580702 -1.55618 0
M  V30 2099 O 192.299 -0.81641 -1.72451 0
M  V30 2100 C 189.439 -1.88012 -2.89388 0
M  V30 2101 C 188.552 -3.15606 -2.94986 0
M  V30 2102 C 187.687 -3.20271 -4.23793 0
M  V30 2103 C 186.726 -4.42134 -4.23302 0
M  V30 2104 N 185.863 -4.44284 -5.43651 0
M  V30 2105 H 190.703 -2.67071 -1.32201 0
M  V30 2106 H 188.24 -1.32351 -0.642008 0
M  V30 2107 H 190.198 -1.9419 -3.69251 0
M  V30 2108 H 188.828 -0.98213 -3.07496 0
M  V30 2109 H 187.88 -3.18681 -2.07717 0
M  V30 2110 H 189.192 -4.05486 -2.90486 0
M  V30 2111 H 188.346 -3.25428 -5.12036 0
M  V30 2112 H 187.085 -2.28299 -4.30965 0
M  V30 2113 H 186.09 -4.3714 -3.3345 0
M  V30 2114 H 187.315 -5.35382 -4.17783 0
M  V30 2115 H 185.261 -3.55188 -5.51523 0
M  V30 2116 H 185.178 -5.27988 -5.41078 0
M  V30 2117 H 186.446 -4.53649 -6.33895 0
M  V30 2118 N 190.675 0.682077 -1.42076 0
M  V30 2119 C 191.9 1.47558 -1.45744 0
M  V30 2120 C 192.325 1.87977 -0.0680981 0
M  V30 2121 O 191.683 1.55522 0.9318 0
M  V30 2122 C 191.731 2.70575 -2.38373 0
M  V30 2123 O 190.835 3.68573 -1.85007 0
M  V30 2124 H 190.176 0.443585 -0.494093 0
M  V30 2125 H 192.706 0.837238 -1.86686 0
M  V30 2126 H 192.716 3.18729 -2.54707 0
M  V30 2127 H 191.391 2.40495 -3.39315 0
M  V30 2128 H 189.968 3.2757 -1.78192 0
M  V30 2129 N 192.153 1.28127 0.917671 0
M  V30 2130 C 193.1 1.11717 2.0196 0
M  V30 2131 C 194.07 0.0153929 1.66093 0
M  V30 2132 O 195.255 0.179596 1.89953 0
M  V30 2133 C 192.395 0.780927 3.36148 0
M  V30 2134 C 191.508 1.96135 3.84909 0
M  V30 2135 C 190.643 1.56609 5.0759 0
M  V30 2136 C 189.682 2.71339 5.48673 0
M  V30 2137 N 188.819 2.32332 6.62545 0
M  V30 2138 H 193.659 2.06003 2.15329 0
M  V30 2139 H 191.196 1.02535 1.05475 0
M  V30 2140 H 193.154 0.56675 4.13333 0
M  V30 2141 H 191.784 -0.124998 3.22558 0
M  V30 2142 H 190.836 2.28777 3.03916 0
M  V30 2143 H 192.148 2.82165 4.1132 0
M  V30 2144 H 191.302 1.31374 5.92305 0
M  V30 2145 H 190.041 0.677014 4.82978 0
M  V30 2146 H 189.046 2.97276 4.62501 0
M  V30 2147 H 190.271 3.60882 5.75274 0
M  V30 2148 H 188.217 1.45889 6.39572 0
M  V30 2149 H 188.134 3.11899 6.88662 0
M  V30 2150 H 189.402 2.10371 7.50576 0
M  V30 2151 N 193.631 -1.12557 1.10312 0
M  V30 2152 C 194.579 -2.20325 0.745629 0
M  V30 2153 C 195.573 -1.67429 -0.25763 0
M  V30 2154 O 196.779 -1.79612 -0.118132 0
M  V30 2155 H 193.154 -0.718118 0.223182 0
M  V30 2156 H 195.125 -2.47733 1.66346 0
M  V30 2157 C 193.874 -3.47168 0.192262 0
M  V30 2158 H 193.197 -3.88215 0.955475 0
M  V30 2159 H 194.637 -4.23995 -0.0198274 0
M  V30 2160 C 193.096 -3.19298 -1.07472 0
M  V30 2161 O 193.626 -3.3891 -2.15645 0
M  V30 2162 N 191.832 -2.73113 -0.992847 0
M  V30 2163 H 191.379 -2.57354 -0.112474 0
M  V30 2164 H 191.337 -2.54842 -1.84127 0
M  V30 2165 N 195.109 -0.891671 -1.2995 0
M  V30 2166 C 196.358 -0.509521 -1.95158 0
M  V30 2167 C 196.671 0.947388 -1.71125 0
M  V30 2168 O 197.877 1.43669 -2.30372 0
M  V30 2169 C 196.333 -0.860315 -3.49466 0
M  V30 2170 C 195.941 -2.33545 -3.8231 0
M  V30 2171 C 197.685 -0.547687 -4.20952 0
M  V30 2172 C 195.592 -2.62752 -5.29826 0
M  V30 2173 H 194.522 -0.18682 -0.730489 0
M  V30 2174 H 197.173 -1.08756 -1.47798 0
M  V30 2175 H 195.555 -0.211285 -3.95436 0
M  V30 2176 H 196.729 -3.02936 -3.47227 0
M  V30 2177 H 195.044 -2.61629 -3.23944 0
M  V30 2178 H 197.641 -0.742854 -5.29515 0
M  V30 2179 H 197.984 0.51332 -4.13123 0
M  V30 2180 H 198.517 -1.1542 -3.80688 0
M  V30 2181 H 195.256 -3.6762 -5.42712 0
M  V30 2182 H 194.776 -1.97977 -5.66185 0
M  V30 2183 H 196.455 -2.48601 -5.97333 0
M  V30 2184 N 196.587 1.43421 -0.653314 0
M  V30 2185 C 197.834 2.01812 -0.166745 0
M  V30 2186 C 198.162 1.51535 1.21931 0
M  V30 2187 O 197.417 0.698975 1.82792 0
M  V30 2188 C 197.716 3.57176 -0.126623 0
M  V30 2189 C 197.382 4.26798 -1.45444 0
M  V30 2190 C 196.044 4.45534 -1.81805 0
M  V30 2191 C 198.396 4.66225 -2.32989 0
M  V30 2192 C 195.724 5.00961 -3.05377 0
M  V30 2193 C 198.076 5.23021 -3.55853 0
M  V30 2194 C 196.74 5.39973 -3.9241 0
M  V30 2195 H 196.01 0.738484 -0.0610162 0
M  V30 2196 H 198.657 1.71896 -0.84404 0
M  V30 2197 H 196.962 3.86634 0.634123 0
M  V30 2198 H 198.659 4.00112 0.266723 0
M  V30 2199 H 195.249 4.12561 -1.16153 0
M  V30 2200 H 199.433 4.51443 -2.06187 0
M  V30 2201 H 194.689 5.12271 -3.3375 0
M  V30 2202 H 198.863 5.52518 -4.23907 0
M  V30 2203 H 196.49 5.82687 -4.88242 0
M  V30 2204 N 198.065 0.39524 1.52563 0
M  V30 2205 C 198.995 -0.428384 2.29537 0
M  V30 2206 C 199.976 -1.05831 1.33169 0
M  V30 2207 O 201.161 -1.06995 1.62067 0
M  V30 2208 C 198.291 -1.55274 3.10656 0
M  V30 2209 C 197.245 -1.04855 4.14957 0
M  V30 2210 C 196.571 -2.26543 4.84337 0
M  V30 2211 C 197.871 -0.112324 5.22179 0
M  V30 2212 H 199.565 0.213867 2.98635 0
M  V30 2213 H 197.111 0.104298 1.43622 0
M  V30 2214 H 199.064 -2.1358 3.63265 0
M  V30 2215 H 197.788 -2.22266 2.39302 0
M  V30 2216 H 196.447 -0.487985 3.63338 0
M  V30 2217 H 196.095 -2.92059 4.09525 0
M  V30 2218 H 195.795 -1.93466 5.54837 0
M  V30 2219 H 197.319 -2.85481 5.39753 0
M  V30 2220 H 198.733 -0.603752 5.70112 0
M  V30 2221 H 197.13 0.128968 5.99961 0
M  V30 2222 H 198.2 0.837052 4.77621 0
M  V30 2223 N 199.544 -1.57102 0.125237 0
M  V30 2224 C 200.772 -1.99761 -0.538797 0
M  V30 2225 C 201.187 -1.00503 -1.59827 0
M  V30 2226 O 200.544 0.00119474 -1.825 0
M  V30 2227 C 200.595 -3.42408 -1.15927 0
M  V30 2228 O 200.316 -4.37869 -0.142143 0
M  V30 2229 C 201.817 -4.00232 -1.90602 0
M  V30 2230 H 199.037 -0.655772 -0.14214 0
M  V30 2231 H 201.581 -2.03383 0.213413 0
M  V30 2232 H 199.736 -3.39706 -1.86223 0
M  V30 2233 H 200.15 -5.21128 -0.593775 0
M  V30 2234 H 201.624 -5.02105 -2.29335 0
M  V30 2235 H 202.101 -3.39721 -2.78363 0
M  V30 2236 H 202.707 -4.06499 -1.25055 0
M  V30 2237 N 201.022 0.148545 -1.56898 0
M  V30 2238 C 201.954 1.20852 -1.9475 0
M  V30 2239 C 202.967 1.39265 -0.843152 0
M  V30 2240 O 204.156 1.38864 -1.12156 0
M  V30 2241 C 201.256 2.57362 -2.20495 0
M  V30 2242 C 200.429 2.59947 -3.51776 0
M  V30 2243 C 199.488 3.77984 -3.6608 0
M  V30 2244 O 198.514 3.62929 -4.38487 0
M  V30 2245 N 199.716 4.95375 -3.02629 0
M  V30 2246 H 202.481 0.886804 -2.86279 0
M  V30 2247 H 200.042 0.338121 -1.5833 0
M  V30 2248 H 202.034 3.34833 -2.27307 0
M  V30 2249 H 200.604 2.81832 -1.35238 0
M  V30 2250 H 199.824 1.68403 -3.56419 0
M  V30 2251 H 201.112 2.58704 -4.38121 0
M  V30 2252 H 200.51 5.10509 -2.43715 0
M  V30 2253 H 199.067 5.70627 -3.15004 0
M  V30 2254 N 202.5 1.5196 0.417844 0
M  V30 2255 C 203.448 1.75278 1.52907 0
M  V30 2256 C 204.442 0.619611 1.57662 0
M  V30 2257 O 205.648 0.801457 1.61173 0
M  V30 2258 H 202.023 0.554141 0.508362 0
M  V30 2259 H 203.994 2.68389 1.30422 0
M  V30 2260 C 202.743 1.91262 2.90369 0
M  V30 2261 H 202.066 2.77872 2.8745 0
M  V30 2262 H 203.506 2.11581 3.67436 0
M  V30 2263 C 201.965 0.677431 3.30019 0
M  V30 2264 O 202.495 -0.158799 4.01386 0
M  V30 2265 N 200.701 0.515851 2.85985 0
M  V30 2266 H 200.248 1.19744 2.28077 0
M  V30 2267 H 200.206 -0.309315 3.12875 0
M  V30 2268 N 203.978 -0.674533 1.42435 0
M  V30 2269 C 205.226 -1.43175 1.42637 0
M  V30 2270 C 205.547 -1.94951 0.0438992 0
M  V30 2271 O 204.817 -1.7308 -0.917607 0
M  V30 2272 H 203.397 -0.531307 0.525092 0
M  V30 2273 H 206.059 -0.797006 1.77859 0
M  V30 2274 H 205.155 -2.28463 2.12629 0
M  V30 2275 N 205.456 -1.28612 -0.910864 0
M  V30 2276 C 206.403 -1.12786 -2.01365 0
M  V30 2277 C 207.373 -0.024201 -1.66082 0
M  V30 2278 O 208.558 -0.189667 -1.89855 0
M  V30 2279 C 205.698 -0.798743 -3.35729 0
M  V30 2280 C 204.811 -1.98173 -3.83864 0
M  V30 2281 C 203.946 -1.59298 -5.06752 0
M  V30 2282 C 202.985 -2.74245 -5.47226 0
M  V30 2283 N 202.122 -2.35842 -6.61304 0
M  V30 2284 H 206.962 -2.07142 -2.14234 0
M  V30 2285 H 204.499 -1.03093 -1.0493 0
M  V30 2286 H 206.457 -0.588662 -4.13026 0
M  V30 2287 H 205.087 0.10789 -3.2262 0
M  V30 2288 H 204.139 -2.30386 -3.02699 0
M  V30 2289 H 205.451 -2.84343 -4.09818 0
M  V30 2290 H 204.605 -1.34513 -5.916 0
M  V30 2291 H 203.344 -0.702618 -4.82612 0
M  V30 2292 H 202.349 -2.99725 -4.60918 0
M  V30 2293 H 203.574 -3.63928 -5.73353 0
M  V30 2294 H 201.52 -1.49279 -6.38789 0
M  V30 2295 H 201.437 -3.15546 -6.86998 0
M  V30 2296 H 202.705 -2.14348 -7.4945 0
M  V30 2297 N 206.934 1.1197 -1.10907 0
M  V30 2298 C 208.18 1.8386 -0.855773 0
M  V30 2299 C 208.513 1.84134 0.617103 0
M  V30 2300 O 207.788 1.29041 1.45529 0
M  V30 2301 C 208.071 3.31305 -1.411 0
M  V30 2302 C 207.924 3.39456 -2.9511 0
M  V30 2303 C 209.243 4.2721 -1.05736 0
M  V30 2304 H 206.362 0.667545 -0.312334 0
M  V30 2305 H 209.004 1.31331 -1.37303 0
M  V30 2306 H 207.154 3.76169 -0.97105 0
M  V30 2307 H 208.826 3.03191 -3.47668 0
M  V30 2308 H 207.069 2.79849 -3.31462 0
M  V30 2309 H 207.74 4.43209 -3.29044 0
M  V30 2310 H 210.216 3.90497 -1.43706 0
M  V30 2311 H 209.092 5.28775 -1.47269 0
M  V30 2312 H 209.353 4.42088 0.0325958 0
M  V30 2313 N 208.412 0.89855 1.29475 0
M  V30 2314 C 209.359 0.373819 2.27753 0
M  V30 2315 C 210.329 -0.543444 1.56958 0
M  V30 2316 O 211.514 -0.468934 1.84948 0
M  V30 2317 C 208.654 -0.393648 3.42848 0
M  V30 2318 C 207.767 0.554379 4.28428 0
M  V30 2319 C 206.902 -0.230026 5.30702 0
M  V30 2320 C 205.941 0.712599 6.07938 0
M  V30 2321 N 205.078 -0.0373283 7.0209 0
M  V30 2322 H 209.918 1.21699 2.72017 0
M  V30 2323 H 207.455 0.611456 1.33789 0
M  V30 2324 H 209.413 -0.85466 4.08352 0
M  V30 2325 H 208.043 -1.20128 2.99615 0
M  V30 2326 H 207.095 1.13391 3.63107 0
M  V30 2327 H 208.407 1.27597 4.82204 0
M  V30 2328 H 207.561 -0.752288 6.02018 0
M  V30 2329 H 206.3 -0.984758 4.77654 0
M  V30 2330 H 205.305 1.24637 5.35486 0
M  V30 2331 H 206.53 1.46664 6.63074 0
M  V30 2332 H 204.476 -0.774348 6.51414 0
M  V30 2333 H 204.393 0.624374 7.53417 0
M  V30 2334 H 205.661 -0.539891 7.77628 0
M  V30 2335 N 209.89 -1.43072 0.660911 0
M  V30 2336 C 210.82 -2.33497 -0.0122829 0
M  V30 2337 C 211.801 -1.49903 -0.803925 0
M  V30 2338 O 212.986 -1.78546 -0.763864 0
M  V30 2339 C 210.116 -3.33363 -0.973994 0
M  V30 2340 C 209.07 -4.27003 -0.291928 0
M  V30 2341 C 208.396 -5.16967 -1.36562 0
M  V30 2342 C 209.696 -5.15816 0.820462 0
M  V30 2343 H 211.39 -2.90038 0.742873 0
M  V30 2344 H 208.936 -1.39461 0.358688 0
M  V30 2345 H 210.889 -3.95524 -1.45392 0
M  V30 2346 H 209.613 -2.75095 -1.7604 0
M  V30 2347 H 208.272 -3.66217 0.167623 0
M  V30 2348 H 207.92 -4.55034 -2.14366 0
M  V30 2349 H 207.62 -5.80441 -0.914454 0
M  V30 2350 H 209.144 -5.82003 -1.84675 0
M  V30 2351 H 210.558 -5.71742 0.422366 0
M  V30 2352 H 208.955 -5.8805 1.19656 0
M  V30 2353 H 210.025 -4.55045 1.67518 0
M  V30 2354 N 211.368 -0.403325 -1.52352 0
M  V30 2355 C 212.616 0.174003 -2.0135 0
M  V30 2356 C 212.937 1.46139 -1.29106 0
M  V30 2357 O 212.207 1.91448 -0.415253 0
M  V30 2358 H 210.787 0.0672911 -0.743963 0
M  V30 2359 H 213.449 -0.538235 -1.87321 0
M  V30 2360 H 212.545 0.374254 -3.09848 0
M  V30 2361 N 212.846 1.57033 -0.133567 0
M  V30 2362 C 214.123 1.87256 0.56522 0
M  V30 2363 C 214.503 1.03726 1.83859 0
M  V30 2364 O 213.851 0.120247 2.28183 0
M  V30 2365 C 214.061 3.3865 0.843636 0
M  V30 2366 C 215.409 4.07574 1.19032 0
M  V30 2367 O 216.433 3.43752 0.933429 0
M  V30 2368 O 215.292 5.20259 1.67312 0
M  V30 2369 H 212.386 0.775678 0.286796 0
M  V30 2370 H 214.932 1.68855 -0.169168 0
M  V30 2371 H 213.704 3.91257 -0.0581149 0
M  V30 2372 H 213.327 3.62532 1.63268 0
M  V30 2373 N 214.325 -0.140222 1.56975 0
M  V30 2374 C 215.572 -0.851687 1.83719 0
M  V30 2375 C 215.9 -1.80862 0.715485 0
M  V30 2376 O 215.155 -1.93464 -0.294956 0
M  V30 2377 C 215.454 -1.65386 3.16832 0
M  V30 2378 C 215.12 -0.843112 4.42947 0
M  V30 2379 C 213.782 -0.619464 4.77196 0
M  V30 2380 C 216.134 -0.276582 5.20466 0
M  V30 2381 C 213.462 0.181312 5.8642 0
M  V30 2382 C 215.814 0.51127 6.30531 0
M  V30 2383 C 214.478 0.745432 6.63325 0
M  V30 2384 H 213.748 -0.311654 0.672274 0
M  V30 2385 H 216.395 -0.115006 1.91154 0
M  V30 2386 H 214.7 -2.46084 3.04877 0
M  V30 2387 H 216.397 -2.20793 3.34741 0
M  V30 2388 H 212.987 -1.0275 4.16101 0
M  V30 2389 H 217.171 -0.436632 4.94376 0
M  V30 2390 H 212.427 0.372165 6.10266 0
M  V30 2391 H 216.601 0.957354 6.89788 0
M  V30 2392 H 214.228 1.36778 7.47794 0
M  V30 2393 N 215.803 -1.52179 -0.40978 0
M  V30 2394 C 217.051 -1.65878 -1.15451 0
M  V30 2395 C 217.372 -0.390771 -1.91044 0
M  V30 2396 O 216.642 0.594323 -1.86667 0
M  V30 2397 H 215.222 -0.611405 -0.429177 0
M  V30 2398 H 217.884 -1.89219 -0.467134 0
M  V30 2399 H 216.98 -2.49954 -1.86894 0
M  V30 2400 N 217.281 0.66697 -1.42791 0
M  V30 2401 C 218.506 1.46004 -1.47301 0
M  V30 2402 C 218.931 1.87894 -0.0880317 0
M  V30 2403 O 218.289 1.56502 0.915253 0
M  V30 2404 C 218.337 2.68031 -2.41229 0
M  V30 2405 O 217.441 3.6659 -1.88906 0
M  V30 2406 H 216.782 0.43832 -0.49877 0
M  V30 2407 H 219.312 0.817391 -1.87563 0
M  V30 2408 H 219.322 3.1601 -2.58073 0
M  V30 2409 H 217.997 2.36883 -3.41847 0
M  V30 2410 H 216.574 3.25661 -1.81656 0
M  V30 2411 N 218.759 1.29093 0.90403 0
M  V30 2412 C 219.722 1.1386 1.98919 0
M  V30 2413 C 220.722 0.0753457 1.60623 0
M  V30 2414 O 221.912 0.321931 1.71199 0
M  V30 2415 C 219.044 0.740198 3.32767 0
M  V30 2416 H 220.237 2.10246 2.13861 0
M  V30 2417 H 217.79 1.12218 1.08797 0
M  V30 2418 H 218.525 -0.223997 3.23525 0
M  V30 2419 H 218.31 1.50838 3.61926 0
M  V30 2420 H 219.8 0.656546 4.12407 0
M  V30 2421 N 220.237 -1.11381 1.11499 0
M  V30 2422 C 221.653 -1.35143 0.849031 0
M  V30 2423 C 221.853 -1.94515 -0.525938 0
M  V30 2424 O 220.909 -2.1785 -1.27662 0
M  V30 2425 C 222.222 -2.28249 1.95762 0
M  V30 2426 C 223.77 -2.41812 1.98736 0
M  V30 2427 C 224.245 -3.3824 3.088 0
M  V30 2428 N 225.736 -3.45803 3.08179 0
M  V30 2429 C 226.471 -4.20358 3.89982 0
M  V30 2430 N 225.967 -4.97884 4.8175 0
M  V30 2431 N 227.76 -4.15877 3.78157 0
M  V30 2432 H 219.911 -0.712062 2.00109 0
M  V30 2433 H 222.174 -0.376025 0.870235 0
M  V30 2434 H 221.88 -1.91817 2.94787 0
M  V30 2435 H 221.754 -3.28473 1.85433 0
M  V30 2436 H 224.141 -2.77518 1.00338 0
M  V30 2437 H 224.222 -1.41437 2.13141 0
M  V30 2438 H 223.866 -3.03261 4.07425 0
M  V30 2439 H 223.796 -4.38471 2.91635 0
M  V30 2440 H 226.287 -2.90506 2.41691 0
M  V30 2441 H 226.6 -5.52142 5.40702 0
M  V30 2442 H 224.945 -4.97043 4.85771 0
M  V30 2443 H 228.136 -3.544 3.05808 0
M  V30 2444 H 228.309 -4.73723 4.42143 0
M  V30 2445 N 221.715 -0.905404 -1.28997 0
M  V30 2446 C 222.645 -0.404212 -2.29975 0
M  V30 2447 C 223.626 0.523784 -1.61835 0
M  V30 2448 O 224.811 0.433298 -1.89304 0
M  V30 2449 C 221.941 0.364042 -3.45387 0
M  V30 2450 C 220.895 -0.474048 -4.25367 0
M  V30 2451 C 220.221 0.422045 -5.33032 0
M  V30 2452 C 221.521 -1.72696 -4.92923 0
M  V30 2453 H 223.215 -1.24807 -2.72146 0
M  V30 2454 H 220.761 -0.601585 -1.30832 0
M  V30 2455 H 222.714 0.725447 -4.15109 0
M  V30 2456 H 221.438 1.24174 -3.02074 0
M  V30 2457 H 220.097 -0.81786 -3.57361 0
M  V30 2458 H 219.745 1.29804 -4.85963 0
M  V30 2459 H 219.445 -0.135057 -5.87445 0
M  V30 2460 H 220.969 0.779517 -6.05604 0
M  V30 2461 H 222.383 -1.43495 -5.55051 0
M  V30 2462 H 220.78 -2.22582 -5.57295 0
M  V30 2463 H 221.85 -2.45964 -4.17887 0
M  V30 2464 N 223.193 1.4272 -0.668489 0
M  V30 2465 C 224.123 2.335 -0.000100175 0
M  V30 2466 C 225.104 1.50328 0.795964 0
M  V30 2467 O 226.289 1.78949 0.754385 0
M  V30 2468 C 223.419 3.33874 0.956302 0
M  V30 2469 C 222.373 4.27152 0.269278 0
M  V30 2470 C 221.699 5.17684 1.33818 0
M  V30 2471 C 222.999 5.15373 -0.847805 0
M  V30 2472 H 224.693 2.89639 -0.758244 0
M  V30 2473 H 222.239 1.39269 -0.366079 0
M  V30 2474 H 224.192 3.9629 1.43292 0
M  V30 2475 H 222.916 2.76025 1.74579 0
M  V30 2476 H 221.575 3.66123 -0.187042 0
M  V30 2477 H 221.223 4.56165 2.1195 0
M  V30 2478 H 220.923 5.80918 0.883659 0
M  V30 2479 H 222.447 5.82974 1.81586 0
M  V30 2480 H 223.861 5.7151 -0.452681 0
M  V30 2481 H 222.258 5.87407 -1.22773 0
M  V30 2482 H 223.328 4.5415 -1.69929 0
M  V30 2483 N 224.671 0.411399 1.52136 0
M  V30 2484 C 225.896 -0.165538 2.06738 0
M  V30 2485 C 226.321 -1.379 1.27926 0
M  V30 2486 O 225.679 -1.78628 0.310114 0
M  V30 2487 C 225.727 -0.492124 3.57226 0
M  V30 2488 O 224.831 -1.58276 3.80818 0
M  V30 2489 H 224.172 -0.0132132 0.663869 0
M  V30 2490 H 226.702 0.585253 1.96051 0
M  V30 2491 H 226.712 -0.750104 4.01045 0
M  V30 2492 H 225.387 0.394922 4.14021 0
M  V30 2493 H 223.964 -1.31677 3.48877 0
M  V30 2494 N 226.149 -1.5696 0.141893 0
M  V30 2495 C 227.097 -2.17784 -0.816874 0
M  V30 2496 C 228.091 -1.1334 -1.25899 0
M  V30 2497 O 229.297 -1.316 -1.22806 0
M  V30 2498 H 225.672 -0.697278 -0.281615 0
M  V30 2499 H 227.643 -2.97087 -0.279621 0
M  V30 2500 C 226.392 -2.80983 -2.04802 0
M  V30 2501 H 225.715 -3.61062 -1.7168 0
M  V30 2502 H 227.155 -3.2705 -2.69841 0
M  V30 2503 C 225.614 -1.79228 -2.8527 0
M  V30 2504 O 226.144 -1.25962 -3.8144 0
M  V30 2505 N 224.35 -1.48647 -2.49704 0
M  V30 2506 H 223.897 -1.92155 -1.71564 0
M  V30 2507 H 223.855 -0.808115 -3.03837 0
M  V30 2508 N 227.627 0.131896 -1.57047 0
M  V30 2509 C 229.038 0.690407 -1.73465 0
M  V30 2510 C 229.389 1.8094 -0.758629 0
M  V30 2511 O 228.514 2.16282 0.0713813 0
M  V30 2512 C 229.109 1.25916 -3.14532 0
M  V30 2513 C 227.668 1.76409 -3.32501 0
M  V30 2514 C 226.815 0.658579 -2.69366 0
M  V30 2515 H 229.766 -0.0939144 -1.58422 0
M  V30 2516 H 229.787 2.12892 -3.15369 0
M  V30 2517 H 229.299 0.444515 -3.85546 0
M  V30 2518 H 227.4 2.60391 -2.66509 0
M  V30 2519 H 227.513 1.88241 -4.4057 0
M  V30 2520 H 225.877 1.08899 -2.30246 0
M  V30 2521 H 226.66 -0.14487 -3.42994 0
M  V30 2522 N 229.106 1.52395 0.401703 0
M  V30 2523 C 230.039 1.70999 1.51111 0
M  V30 2524 C 231.017 0.55765 1.52738 0
M  V30 2525 O 232.201 0.785912 1.71335 0
M  V30 2526 C 229.328 1.75607 2.8962 0
M  V30 2527 C 228.374 2.97227 3.05873 0
M  V30 2528 S 229.207 4.57439 2.78405 0
M  V30 2529 C 230.363 4.64844 4.19131 0
M  V30 2530 H 230.596 2.6483 1.35102 0
M  V30 2531 H 228.129 1.42527 0.593762 0
M  V30 2532 H 230.087 1.78947 3.69443 0
M  V30 2533 H 228.748 0.828914 3.02965 0
M  V30 2534 H 227.941 2.96955 4.07227 0
M  V30 2535 H 227.543 2.91813 2.33925 0
M  V30 2536 H 229.835 4.42677 5.12877 0
M  V30 2537 H 230.778 5.66807 4.24424 0
M  V30 2538 H 231.186 3.93804 4.04448 0
M  V30 2539 N 230.584 -0.659388 1.43143 0
M  V30 2540 C 231.547 -1.75432 1.47501 0
M  V30 2541 C 232.547 -1.56707 0.360512 0
M  V30 2542 O 233.737 -1.62717 0.622002 0
M  V30 2543 C 230.869 -3.14239 1.32162 0
M  V30 2544 H 232.062 -1.7295 2.45006 0
M  V30 2545 H 229.615 -0.870469 1.29817 0
M  V30 2546 H 230.35 -3.22336 0.356401 0
M  V30 2547 H 230.135 -3.29235 2.12948 0
M  V30 2548 H 231.625 -3.94094 1.3813 0
M  V30 2549 N 232.062 -1.29571 -0.897171 0
M  V30 2550 C 233.309 -1.17689 -1.6479 0
M  V30 2551 C 233.637 0.27107 -1.92602 0
M  V30 2552 O 232.892 1.21193 -1.53658 0
M  V30 2553 C 233.191 -1.9382 -3.00281 0
M  V30 2554 C 232.857 -3.43522 -2.92068 0
M  V30 2555 C 231.519 -3.84348 -2.89535 0
M  V30 2556 C 233.871 -4.38906 -2.81089 0
M  V30 2557 C 231.199 -5.18869 -2.73846 0
M  V30 2558 C 233.551 -5.73521 -2.66939 0
M  V30 2559 C 232.215 -6.13601 -2.62774 0
M  V30 2560 H 231.485 -0.430654 -0.603008 0
M  V30 2561 H 234.132 -1.60536 -1.04404 0
M  V30 2562 H 232.437 -1.4357 -3.64547 0
M  V30 2563 H 234.134 -1.82028 -3.57305 0
M  V30 2564 H 230.724 -3.11072 -2.94842 0
M  V30 2565 H 234.908 -4.08315 -2.82121 0
M  V30 2566 H 230.164 -5.4903 -2.69027 0
M  V30 2567 H 234.338 -6.47078 -2.57416 0
M  V30 2568 H 231.965 -7.17786 -2.50375 0
M  V30 2569 N 233.54 1.10788 -1.12088 0
M  V30 2570 C 234.503 2.15207 -0.788577 0
M  V30 2571 C 235.503 1.59609 0.195317 0
M  V30 2572 O 236.693 1.74174 -0.0300193 0
M  V30 2573 C 233.825 3.4047 -0.171174 0
M  V30 2574 H 235.018 2.46116 -1.71368 0
M  V30 2575 H 232.571 1.26089 -0.923652 0
M  V30 2576 H 233.306 3.15176 0.763832 0
M  V30 2577 H 233.091 3.82109 -0.879514 0
M  V30 2578 H 234.581 4.17576 0.04496 0
M  V30 2579 N 235.018 0.912232 1.28515 0
M  V30 2580 C 236.258 0.551677 1.96814 0
M  V30 2581 C 236.622 -0.887825 1.7024 0
M  V30 2582 O 237.823 -1.35588 2.32098 0
M  V30 2583 C 236.094 0.850555 3.47132 0
M  V30 2584 S 237.653 0.59619 4.34731 0
M  V30 2585 H 234.471 0.204191 0.681049 0
M  V30 2586 H 237.073 1.17736 1.56072 0
M  V30 2587 H 235.777 1.8962 3.63968 0
M  V30 2588 H 235.308 0.213471 3.9282 0
M  V30 2589 H 237.323 -0.553154 4.93107 0
M  V30 2590 N 236.496 -1.42363 0.676048 0
M  V30 2591 C 237.724 -2.05859 0.207268 0
M  V30 2592 C 238.139 -1.50796 -1.13605 0
M  V30 2593 O 237.496 -0.648265 -1.70598 0
M  V30 2594 C 237.547 -3.61248 0.134975 0
M  V30 2595 O 237.268 -4.1427 1.42521 0
M  V30 2596 C 238.769 -4.41859 -0.357151 0
M  V30 2597 H 235.989 -0.663431 0.100503 0
M  V30 2598 H 238.533 -1.82479 0.923136 0
M  V30 2599 H 236.688 -3.83735 -0.531588 0
M  V30 2600 H 237.102 -5.0815 1.29939 0
M  V30 2601 H 238.576 -5.50847 -0.356641 0
M  V30 2602 H 239.053 -4.16536 -1.39264 0
M  V30 2603 H 239.659 -4.24392 0.27772 0
M  V30 2604 N 237.974 -0.419461 -1.51915 0
M  V30 2605 C 239.204 0.151915 -2.06041 0
M  V30 2606 C 239.612 1.38539 -1.28855 0
M  V30 2607 O 238.955 1.80592 -0.336463 0
M  V30 2608 C 239.017 0.557119 -3.55157 0
M  V30 2609 C 238.681 -0.567054 -4.53468 0
M  V30 2610 C 239.678 -1.43379 -4.99738 0
M  V30 2611 C 237.363 -0.742693 -4.96779 0
M  V30 2612 C 239.357 -2.46102 -5.87973 0
M  V30 2613 C 237.044 -1.77322 -5.84808 0
M  V30 2614 C 238.042 -2.63078 -6.30301 0
M  V30 2615 O 237.73 -3.64364 -7.16585 0
M  V30 2616 H 237.462 0.0193293 -0.675724 0
M  V30 2617 H 240.016 -0.592073 -1.96682 0
M  V30 2618 H 238.246 1.35355 -3.62238 0
M  V30 2619 H 239.935 1.05759 -3.9188 0
M  V30 2620 H 240.701 -1.30954 -4.66986 0
M  V30 2621 H 236.58 -0.0848307 -4.60922 0
M  V30 2622 H 240.124 -3.13071 -6.23404 0
M  V30 2623 H 236.021 -1.89773 -6.16974 0
M  V30 2624 H 236.789 -3.60731 -7.34721 0
M  V30 2625 N 239.452 1.56882 -0.150215 0
M  V30 2626 C 240.698 1.96518 0.500834 0
M  V30 2627 C 241.031 1.03527 1.64304 0
M  V30 2628 O 240.306 0.0782751 1.94342 0
M  V30 2629 C 240.589 3.45822 1.00395 0
M  V30 2630 C 240.442 4.49591 -0.136983 0
M  V30 2631 C 241.761 3.97704 1.88467 0
M  V30 2632 H 238.88 0.714535 0.18058 0
M  V30 2633 H 241.522 1.88577 -0.232091 0
M  V30 2634 H 239.672 3.5272 1.62851 0
M  V30 2635 H 241.344 4.5477 -0.77343 0
M  V30 2636 H 239.587 4.26441 -0.795652 0
M  V30 2637 H 240.258 5.51402 0.256815 0
M  V30 2638 H 242.734 3.93304 1.35834 0
M  V30 2639 H 241.61 5.0263 2.20578 0
M  V30 2640 H 241.871 3.40252 2.82279 0
M  V30 2641 N 240.93 -0.123565 1.57115 0
M  V30 2642 C 242.178 -0.83051 1.84247 0
M  V30 2643 C 242.499 -1.80629 0.73471 0
M  V30 2644 O 241.769 -1.94403 -0.241688 0
M  V30 2645 H 240.349 -0.309694 0.679778 0
M  V30 2646 H 243.011 -0.111976 1.94578 0
M  V30 2647 H 242.107 -1.37852 2.80006 0
M  V30 2648 N 242.408 -1.52605 -0.393616 0
M  V30 2649 C 243.636 -1.71294 -1.16043 0
M  V30 2650 C 244.051 -0.429259 -1.83855 0
M  V30 2651 O 243.408 0.595921 -1.72496 0
M  V30 2652 C 243.459 -2.8593 -2.21193 0
M  V30 2653 O 243.18 -4.09329 -1.56146 0
M  V30 2654 C 244.681 -3.16259 -3.10636 0
M  V30 2655 H 241.901 -0.573641 -0.348104 0
M  V30 2656 H 244.445 -1.99234 -0.461092 0
M  V30 2657 H 242.6 -2.60465 -2.86769 0
M  V30 2658 H 243.014 -4.73323 -2.25978 0
M  V30 2659 H 244.488 -3.99946 -3.80456 0
M  V30 2660 H 244.965 -2.3045 -3.73884 0
M  V30 2661 H 245.571 -3.43547 -2.50711 0
M  V30 2662 N 243.887 0.651787 -1.4349 0
M  V30 2663 C 245.298 1.233 -1.40193 0
M  V30 2664 C 245.649 1.9591 -0.106727 0
M  V30 2665 O 244.774 2.01316 0.793773 0
M  V30 2666 C 245.369 2.24257 -2.53957 0
M  V30 2667 C 243.928 2.77852 -2.5392 0
M  V30 2668 C 243.075 1.52517 -2.3159 0
M  V30 2669 H 246.026 0.443717 -1.52371 0
M  V30 2670 H 246.047 3.0646 -2.25528 0
M  V30 2671 H 245.559 1.71382 -3.4821 0
M  V30 2672 H 243.66 3.34786 -1.63551 0
M  V30 2673 H 243.773 3.25299 -3.51735 0
M  V30 2674 H 242.137 1.79915 -1.80285 0
M  V30 2675 H 242.92 1.01574 -3.27929 0
M  V30 2676 N 245.365 1.30045 0.890287 0
M  V30 2677 C 246.595 1.21296 1.67245 0
M  V30 2678 C 247.003 -0.227471 1.87828 0
M  V30 2679 O 246.346 -1.16296 1.422 0
M  V30 2680 C 246.408 1.86519 3.07329 0
M  V30 2681 C 246.072 3.35837 3.09939 0
M  V30 2682 C 247.069 4.31915 2.89389 0
M  V30 2683 C 244.754 3.77196 3.31706 0
M  V30 2684 C 246.748 5.67325 2.90552 0
M  V30 2685 C 244.435 5.12725 3.32499 0
M  V30 2686 C 245.433 6.076 3.11947 0
M  V30 2687 O 245.121 7.40655 3.12547 0
M  V30 2688 H 244.853 0.4211 0.528821 0
M  V30 2689 H 247.407 1.72111 1.12103 0
M  V30 2690 H 245.637 1.30228 3.64112 0
M  V30 2691 H 247.326 1.71963 3.67673 0
M  V30 2692 H 248.092 4.01294 2.72375 0
M  V30 2693 H 243.971 3.03796 3.4674 0
M  V30 2694 H 247.515 6.41354 2.74429 0
M  V30 2695 H 243.412 5.42988 3.49047 0
M  V30 2696 H 244.18 7.49577 3.28749 0
M  V30 2697 N 246.843 -1.10192 1.12674 0
M  V30 2698 C 248.073 -1.85713 0.905213 0
M  V30 2699 C 248.481 -1.81056 -0.549108 0
M  V30 2700 O 247.824 -1.19927 -1.39151 0
M  V30 2701 C 247.886 -3.34972 1.30516 0
M  V30 2702 C 247.55 -3.63385 2.77129 0
M  V30 2703 C 248.547 -3.59772 3.75313 0
M  V30 2704 C 246.232 -3.91981 3.14096 0
M  V30 2705 C 248.226 -3.84354 5.08479 0
M  V30 2706 C 245.913 -4.16218 4.47443 0
M  V30 2707 C 246.911 -4.12395 5.44444 0
M  V30 2708 O 246.599 -4.36014 6.75387 0
M  V30 2709 H 246.331 -0.593719 0.323223 0
M  V30 2710 H 248.885 -1.40198 1.50112 0
M  V30 2711 H 247.115 -3.81156 0.652463 0
M  V30 2712 H 248.804 -3.91886 1.05736 0
M  V30 2713 H 249.57 -3.37716 3.48099 0
M  V30 2714 H 245.449 -3.94085 2.39202 0
M  V30 2715 H 248.993 -3.81285 5.84181 0
M  V30 2716 H 244.89 -4.37754 4.74386 0
M  V30 2717 H 245.658 -4.53516 6.8137 0
M  V30 2718 N 248.321 -0.919034 -1.28029 0
M  V30 2719 C 249.567 -0.555757 -1.95036 0
M  V30 2720 C 249.9 0.899198 -1.72128 0
M  V30 2721 O 249.175 1.64023 -1.04531 0
M  V30 2722 C 249.458 -0.872024 -3.49382 0
M  V30 2723 C 249.311 -2.3801 -3.81669 0
M  V30 2724 C 250.63 -0.37185 -4.38526 0
M  V30 2725 H 247.749 -0.203386 -0.708381 0
M  V30 2726 H 250.391 -1.14924 -1.51303 0
M  V30 2727 H 248.541 -0.366946 -3.86763 0
M  V30 2728 H 250.213 -2.9562 -3.54128 0
M  V30 2729 H 248.456 -2.83289 -3.28526 0
M  V30 2730 H 249.127 -2.55192 -4.8947 0
M  V30 2731 H 251.603 -0.804602 -4.08247 0
M  V30 2732 H 250.479 -0.622173 -5.45362 0
M  V30 2733 H 250.74 0.727934 -4.36066 0
M  V30 2734 N 249.799 1.42003 -0.683588 0
M  V30 2735 C 251.21 1.84501 -0.285736 0
M  V30 2736 C 251.561 1.57213 1.17382 0
M  V30 2737 O 250.686 1.03642 1.89966 0
M  V30 2738 C 251.281 3.34912 -0.511821 0
M  V30 2739 C 249.84 3.76025 -0.168005 0
M  V30 2740 C 248.987 2.6551 -0.799983 0
M  V30 2741 H 251.938 1.31724 -0.885119 0
M  V30 2742 H 251.959 3.79784 0.233292 0
M  V30 2743 H 251.471 3.54741 -1.57418 0
M  V30 2744 H 249.572 3.61801 0.890567 0
M  V30 2745 H 249.685 4.75141 -0.614661 0
M  V30 2746 H 248.049 2.53654 -0.230568 0
M  V30 2747 H 248.832 2.8816 -1.86597 0
M  V30 2748 N 251.277 0.427512 1.51691 0
M  V30 2749 C 252.688 -0.0378867 1.86662 0
M  V30 2750 C 253.039 -1.42819 1.34525 0
M  V30 2751 O 252.164 -2.05037 0.692014 0
M  V30 2752 C 252.759 -0.0755266 3.38716 0
M  V30 2753 C 251.318 -0.485309 3.73258 0
M  V30 2754 C 250.465 0.328399 2.75349 0
M  V30 2755 H 253.416 0.64379 1.45055 0
M  V30 2756 H 253.437 -0.887056 3.70016 0
M  V30 2757 H 252.949 0.936487 3.76632 0
M  V30 2758 H 251.05 -1.50329 3.40928 0
M  V30 2759 H 251.163 -0.21693 4.78609 0
M  V30 2760 H 249.527 -0.211905 2.53817 0
M  V30 2761 H 250.31 1.3391 3.16106 0
M  V30 2762 N 252.755 -1.56801 0.158532 0
M  V30 2763 C 253.665 -2.20916 -0.789518 0
M  V30 2764 C 254.681 -1.1969 -1.26294 0
M  V30 2765 O 255.857 -1.52308 -1.31773 0
M  V30 2766 C 252.922 -2.82727 -2.00665 0
M  V30 2767 C 251.983 -3.99114 -1.58134 0
M  V30 2768 C 251.216 -4.57968 -2.74045 0
M  V30 2769 O 251.439 -4.15704 -3.90572 0
M  V30 2770 O 250.373 -5.48047 -2.48855 0
M  V30 2771 H 254.199 -3.02464 -0.273681 0
M  V30 2772 H 251.784 -1.4924 -0.0690548 0
M  V30 2773 H 253.666 -3.21968 -2.71872 0
M  V30 2774 H 252.341 -2.04184 -2.51179 0
M  V30 2775 H 251.248 -3.64567 -0.839155 0
M  V30 2776 H 252.581 -4.79212 -1.12325 0
M  V30 2777 N 254.233 0.115231 -1.57178 0
M  V30 2778 C 255.482 0.820945 -1.84237 0
M  V30 2779 C 255.795 1.80866 -0.744761 0
M  V30 2780 O 257.001 2.56083 -0.901871 0
M  V30 2781 C 255.457 1.51072 -3.26658 0
M  V30 2782 C 255.065 0.563795 -4.44438 0
M  V30 2783 C 256.809 2.20134 -3.62962 0
M  V30 2784 C 254.716 1.25701 -5.77887 0
M  V30 2785 H 253.646 0.310328 -0.687177 0
M  V30 2786 H 256.297 0.0737134 -1.83352 0
M  V30 2787 H 254.679 2.30471 -3.22024 0
M  V30 2788 H 255.853 -0.197247 -4.60378 0
M  V30 2789 H 254.168 -0.0200638 -4.16395 0
M  V30 2790 H 256.765 2.72696 -4.59936 0
M  V30 2791 H 257.108 2.98107 -2.90582 0
M  V30 2792 H 257.641 1.47619 -3.69396 0
M  V30 2793 H 254.38 0.518493 -6.53446 0
M  V30 2794 H 253.9 1.98997 -5.65827 0
M  V30 2795 H 255.579 1.78915 -6.2177 0
M  V30 2796 N 255.711 1.52812 0.385517 0
M  V30 2797 C 256.957 1.69225 1.12847 0
M  V30 2798 C 257.312 0.42864 1.87564 0
M  V30 2799 O 256.605 -0.57779 1.8268 0
M  V30 2800 C 256.799 2.86856 2.13187 0
M  V30 2801 C 256.628 4.24535 1.48325 0
M  V30 2802 C 255.398 4.89701 1.24585 0
M  V30 2803 C 257.596 5.05794 0.931501 0
M  V30 2804 N 255.578 6.11353 0.558644 0
M  V30 2805 C 256.949 6.1888 0.372552 0
M  V30 2806 C 259.004 4.90963 0.828248 0
M  V30 2807 C 257.707 7.18757 -0.279556 0
M  V30 2808 C 259.733 5.91095 0.189956 0
M  V30 2809 C 259.095 7.03489 -0.358207 0
M  V30 2810 H 255.194 0.67268 0.39878 0
M  V30 2811 H 257.778 1.9017 0.417528 0
M  V30 2812 H 255.949 2.67484 2.81614 0
M  V30 2813 H 257.681 2.92188 2.80014 0
M  V30 2814 H 254.436 4.48485 1.52178 0
M  V30 2815 H 254.86 6.76606 0.230983 0
M  V30 2816 H 259.502 4.04274 1.23784 0
M  V30 2817 H 257.22 8.05052 -0.701152 0
M  V30 2818 H 260.806 5.81694 0.111264 0
M  V30 2819 H 259.686 7.79642 -0.844314 0
M  V30 2820 N 257.189 -0.644168 1.43834 0
M  V30 2821 C 258.099 -1.78563 1.52159 0
M  V30 2822 C 259.115 -1.69147 0.408069 0
M  V30 2823 O 260.291 -1.90156 0.663524 0
M  V30 2824 C 257.356 -3.14888 1.45073 0
M  V30 2825 C 256.417 -3.36034 2.6717 0
M  V30 2826 C 255.65 -4.65855 2.60413 0
M  V30 2827 O 255.873 -5.45805 1.65689 0
M  V30 2828 O 254.807 -4.88918 3.5106 0
M  V30 2829 H 258.633 -1.74494 2.48567 0
M  V30 2830 H 256.218 -0.80378 1.25935 0
M  V30 2831 H 258.1 -3.96179 1.43597 0
M  V30 2832 H 256.775 -3.19528 0.518037 0
M  V30 2833 H 255.682 -2.54472 2.74217 0
M  V30 2834 H 257.015 -3.36247 3.59442 0
M  V30 2835 N 258.668 -1.30515 -0.883378 0
M  V30 2836 C 259.616 -1.16941 -2.01066 0
M  V30 2837 C 260.61 -0.0809148 -1.69207 0
M  V30 2838 O 261.816 -0.241877 -1.78367 0
M  V30 2839 H 258.191 -0.361705 -0.659298 0
M  V30 2840 H 260.162 -2.12344 -2.09649 0
M  V30 2841 C 258.911 -0.879694 -3.36388 0
M  V30 2842 H 258.234 -1.70936 -3.61415 0
M  V30 2843 H 259.674 -0.82483 -4.159 0
M  V30 2844 C 258.133 0.417409 -3.34304 0
M  V30 2845 O 258.663 1.43843 -3.75063 0
M  V30 2846 N 256.869 0.429141 -2.87414 0
M  V30 2847 H 256.416 -0.402222 -2.5444 0
M  V30 2848 H 256.374 1.29696 -2.86403 0
M  V30 2849 N 260.146 1.09593 -1.13257 0
M  V30 2850 C 261.076 2.18214 -0.830946 0
M  V30 2851 C 262.057 1.68812 0.208966 0
M  V30 2852 O 263.242 1.9408 0.0682666 0
M  V30 2853 C 260.372 3.46051 -0.294296 0
M  V30 2854 C 259.326 4.08778 -1.26826 0
M  V30 2855 C 258.652 5.31419 -0.591449 0
M  V30 2856 C 259.952 4.51476 -2.62615 0
M  V30 2857 H 261.646 2.43703 -1.73923 0
M  V30 2858 H 259.192 1.17128 -0.837675 0
M  V30 2859 H 261.145 4.2134 -0.0709606 0
M  V30 2860 H 259.869 3.20079 0.649366 0
M  V30 2861 H 258.528 3.35505 -1.47756 0
M  V30 2862 H 258.176 5.01727 0.357633 0
M  V30 2863 H 257.876 5.74341 -1.24123 0
M  V30 2864 H 259.4 6.09433 -0.377355 0
M  V30 2865 H 260.814 5.17999 -2.45663 0
M  V30 2866 H 259.211 5.05277 -3.23752 0
M  V30 2867 H 260.281 3.63962 -3.20406 0
M  V30 2868 N 261.624 0.925811 1.2754 0
M  V30 2869 C 263.035 0.610102 1.7645 0
M  V30 2870 C 263.386 -0.874723 1.75622 0
M  V30 2871 O 262.511 -1.68444 1.35851 0
M  V30 2872 C 263.106 1.10073 3.20421 0
M  V30 2873 C 261.665 0.835723 3.67005 0
M  V30 2874 C 260.812 1.26054 2.46993 0
M  V30 2875 H 263.763 1.10579 1.13833 0
M  V30 2876 H 263.784 0.447557 3.77859 0
M  V30 2877 H 263.296 2.18143 3.20991 0
M  V30 2878 H 261.397 -0.231249 3.71882 0
M  V30 2879 H 261.51 1.45193 4.56569 0
M  V30 2880 H 259.874 0.679111 2.45479 0
M  V30 2881 H 260.657 2.34984 2.50275 0
M  V30 2882 N 263.102 -1.41638 0.69111 0
M  V30 2883 C 264.332 -2.0533 0.228758 0
M  V30 2884 C 264.74 -1.52089 -1.12541 0
M  V30 2885 O 264.083 -0.662145 -1.71351 0
M  V30 2886 C 264.145 -3.59349 0.10407 0
M  V30 2887 C 263.809 -4.35362 1.38956 0
M  V30 2888 C 264.806 -4.64942 2.32648 0
M  V30 2889 C 262.491 -4.74714 1.64169 0
M  V30 2890 C 264.485 -5.32828 3.49818 0
M  V30 2891 C 262.172 -5.42338 2.81625 0
M  V30 2892 C 263.17 -5.71322 3.74273 0
M  V30 2893 O 262.858 -6.37554 4.89673 0
M  V30 2894 H 262.59 -0.667796 0.104997 0
M  V30 2895 H 265.144 -1.82477 0.942938 0
M  V30 2896 H 263.374 -3.80924 -0.665839 0
M  V30 2897 H 265.063 -4.04633 -0.320519 0
M  V30 2898 H 265.829 -4.35025 2.14425 0
M  V30 2899 H 261.708 -4.51538 0.929202 0
M  V30 2900 H 265.252 -5.55368 4.22152 0
M  V30 2901 H 261.149 -5.71673 2.99768 0
M  V30 2902 H 261.917 -6.56049 4.8943 0
M  V30 2903 N 264.58 -0.43555 -1.51462 0
M  V30 2904 C 265.528 0.391205 -2.29287 0
M  V30 2905 C 266.522 1.02247 -1.35062 0
M  V30 2906 O 267.728 0.957646 -1.52411 0
M  V30 2907 H 264.103 0.144968 -0.737895 0
M  V30 2908 H 266.074 -0.286051 -2.97026 0
M  V30 2909 C 264.823 1.48096 -3.14583 0
M  V30 2910 H 264.146 1.00457 -3.86973 0
M  V30 2911 H 265.586 2.03273 -3.72097 0
M  V30 2912 C 264.045 2.46321 -2.29843 0
M  V30 2913 O 264.575 3.50815 -1.95682 0
M  V30 2914 N 262.781 2.17166 -1.931 0
M  V30 2915 H 262.328 1.32218 -2.21079 0
M  V30 2916 H 262.286 2.83127 -1.36698 0
M  V30 2917 N 266.058 1.56714 -0.166846 0
M  V30 2918 C 267.006 2.19056 0.782123 0
M  V30 2919 C 268 1.15328 1.24079 0
M  V30 2920 O 269.206 1.33537 1.20697 0
M  V30 2921 H 265.581 0.70167 0.270486 0
M  V30 2922 H 267.552 2.97494 0.232322 0
M  V30 2923 C 266.301 2.84206 2.00306 0
M  V30 2924 H 265.624 3.63748 1.65914 0
M  V30 2925 H 267.064 3.31302 2.64604 0
M  V30 2926 C 265.523 1.83744 2.82382 0
M  V30 2927 O 266.053 1.32014 3.79388 0
M  V30 2928 N 264.259 1.52601 2.47308 0
M  V30 2929 H 263.806 1.9486 1.68485 0
M  V30 2930 H 263.764 0.856351 3.02513 0
M  V30 2931 N 267.536 -0.106894 1.57237 0
M  V30 2932 C 268.483 -1.13049 2.01217 0
M  V30 2933 C 269.453 -1.40471 0.886403 0
M  V30 2934 O 270.638 -1.52133 1.15153 0
M  V30 2935 C 267.778 -2.4487 2.43172 0
M  V30 2936 C 266.891 -2.24281 3.69218 0
M  V30 2937 C 266.026 -3.49417 4.00101 0
M  V30 2938 C 265.065 -3.24038 5.19294 0
M  V30 2939 N 264.202 -4.41409 5.45988 0
M  V30 2940 H 269.042 -0.748456 2.88448 0
M  V30 2941 H 266.579 -0.358054 1.42676 0
M  V30 2942 H 268.537 -3.21786 2.65537 0
M  V30 2943 H 267.167 -2.80944 1.58967 0
M  V30 2944 H 266.219 -1.38224 3.54398 0
M  V30 2945 H 267.531 -2.01512 4.56283 0
M  V30 2946 H 266.685 -4.34746 4.2318 0
M  V30 2947 H 265.424 -3.75229 3.11535 0
M  V30 2948 H 264.429 -2.37102 4.96047 0
M  V30 2949 H 265.654 -2.99584 6.09447 0
M  V30 2950 H 263.6 -4.67319 4.60379 0
M  V30 2951 H 263.517 -4.21788 6.274 0
M  V30 2952 H 264.785 -5.27836 5.73593 0
M  V30 2953 N 269.014 -1.53014 -0.377408 0
M  V30 2954 C 270.239 -1.72818 -1.14668 0
M  V30 2955 C 270.664 -0.450725 -1.8262 0
M  V30 2956 O 270.022 0.59439 -1.7128 0
M  V30 2957 C 270.07 -2.88627 -2.16164 0
M  V30 2958 O 269.174 -2.56409 -3.22998 0
M  V30 2959 H 268.515 -0.574301 -0.333278 0
M  V30 2960 H 271.045 -1.99853 -0.438152 0
M  V30 2961 H 271.055 -3.14455 -2.59966 0
M  V30 2962 H 269.73 -3.81294 -1.66095 0
M  V30 2963 H 268.307 -2.4136 -2.84253 0
M  V30 2964 N 270.492 0.636531 -1.44174 0
M  V30 2965 C 271.769 1.39463 -1.37148 0
M  V30 2966 C 272.149 2.11082 -0.027507 0
M  V30 2967 O 271.497 2.05954 0.989716 0
M  V30 2968 C 271.707 2.36552 -2.56601 0
M  V30 2969 C 273.055 3.00048 -3.00427 0
M  V30 2970 O 274.079 2.46878 -2.56767 0
M  V30 2971 O 272.938 3.96488 -3.76111 0
M  V30 2972 H 270.032 0.623903 -0.542839 0
M  V30 2973 H 272.578 0.662039 -1.56253 0
M  V30 2974 H 271.35 1.82692 -3.46034 0
M  V30 2975 H 270.973 3.17236 -2.39681 0
M  V30 2976 N 271.97 1.30982 0.876444 0
M  V30 2977 C 273.219 1.19658 1.62373 0
M  V30 2978 C 273.532 -0.245636 1.94052 0
M  V30 2979 O 274.738 -0.48049 2.67214 0
M  V30 2980 C 273.194 2.09433 2.92687 0
M  V30 2981 C 272.802 3.58613 2.68516 0
M  V30 2982 C 274.546 2.06893 3.70669 0
M  V30 2983 C 272.453 4.40416 3.94699 0
M  V30 2984 H 271.383 0.444268 0.609214 0
M  V30 2985 H 274.034 1.55791 0.969605 0
M  V30 2986 H 272.416 1.66191 3.59439 0
M  V30 2987 H 273.59 4.10058 2.10212 0
M  V30 2988 H 271.905 3.63063 2.03898 0
M  V30 2989 H 274.502 2.65258 4.64265 0
M  V30 2990 H 274.845 1.05448 4.02724 0
M  V30 2991 H 275.378 2.48301 3.10792 0
M  V30 2992 H 272.117 5.42591 3.67798 0
M  V30 2993 H 271.637 3.93731 4.52477 0
M  V30 2994 H 273.316 4.52294 4.62644 0
M  V30 2995 N 273.449 -1.08991 1.13837 0
M  V30 2996 C 274.695 -1.81699 0.91417 0
M  V30 2997 C 275.05 -1.84264 -0.553594 0
M  V30 2998 O 274.343 -1.30313 -1.4046 0
M  V30 2999 C 274.537 -3.27042 1.44147 0
M  V30 3000 C 274.366 -3.38637 2.95897 0
M  V30 3001 C 273.136 -3.50177 3.64286 0
M  V30 3002 C 275.334 -3.30791 3.93804 0
M  V30 3003 N 273.316 -3.50501 5.04006 0
M  V30 3004 C 274.687 -3.38037 5.19741 0
M  V30 3005 C 276.742 -3.14488 3.86007 0
M  V30 3006 C 275.445 -3.30659 6.38793 0
M  V30 3007 C 277.471 -3.08438 5.04599 0
M  V30 3008 C 276.833 -3.1628 6.29402 0
M  V30 3009 H 272.932 -0.678967 0.387979 0
M  V30 3010 H 275.516 -1.30224 1.4474 0
M  V30 3011 H 273.687 -3.76976 0.935091 0
M  V30 3012 H 275.419 -3.87785 1.1578 0
M  V30 3013 H 272.174 -3.53815 3.1482 0
M  V30 3014 H 272.598 -3.54236 5.76928 0
M  V30 3015 H 277.24 -3.07291 2.90399 0
M  V30 3016 H 274.958 -3.36618 7.34652 0
M  V30 3017 H 278.544 -2.96952 5.0031 0
M  V30 3018 H 277.424 -3.1162 7.19627 0
M  V30 3019 N 274.927 -0.932562 -1.27047 0
M  V30 3020 C 276.152 -0.591474 -1.98787 0
M  V30 3021 C 276.577 0.824601 -1.69062 0
M  V30 3022 O 275.935 1.5541 -0.933677 0
M  V30 3023 C 275.983 -0.829808 -3.50922 0
M  V30 3024 O 275.087 0.102266 -4.12273 0
M  V30 3025 H 274.428 -0.227185 -0.623926 0
M  V30 3026 H 276.958 -1.25314 -1.61733 0
M  V30 3027 H 276.968 -0.747292 -4.01098 0
M  V30 3028 H 275.643 -1.86201 -3.7189 0
M  V30 3029 H 274.22 -0.0305761 -3.72887 0
M  V30 3030 N 276.405 1.4127 -0.698611 0
M  V30 3031 C 277.335 2.33447 -0.049629 0
M  V30 3032 C 278.316 1.51982 0.763898 0
M  V30 3033 O 279.501 1.80509 0.716257 0
M  V30 3034 C 276.631 3.35828 0.885267 0
M  V30 3035 C 275.585 4.27627 0.178613 0
M  V30 3036 C 274.911 5.20406 1.22807 0
M  V30 3037 C 276.211 5.13459 -0.956933 0
M  V30 3038 H 277.905 2.87966 -0.81951 0
M  V30 3039 H 275.451 1.38461 -0.395538 0
M  V30 3040 H 277.404 3.9924 1.34854 0
M  V30 3041 H 276.128 2.79666 1.68685 0
M  V30 3042 H 274.787 3.65643 -0.26466 0
M  V30 3043 H 274.435 4.60558 2.02226 0
M  V30 3044 H 274.135 5.82661 0.760239 0
M  V30 3045 H 275.659 5.86695 1.69179 0
M  V30 3046 H 277.073 5.70421 -0.573805 0
M  V30 3047 H 275.47 5.8467 -1.35205 0
M  V30 3048 H 276.54 4.50443 -1.79524 0
M  V30 3049 N 277.883 0.443576 1.51229 0
M  V30 3050 C 279.131 -0.120557 2.0174 0
M  V30 3051 C 279.452 -1.42665 1.32935 0
M  V30 3052 O 278.722 -1.9028 0.465866 0
M  V30 3053 H 277.302 -0.0475426 0.745486 0
M  V30 3054 H 279.964 0.587711 1.85828 0
M  V30 3055 H 279.06 -0.291972 3.10731 0
M  V30 3056 N 279.361 -1.56624 0.175154 0
M  V30 3057 C 280.601 -1.98894 -0.471221 0
M  V30 3058 C 280.965 -1.05889 -1.60161 0
M  V30 3059 O 282.166 -1.37315 -2.3108 0
M  V30 3060 C 280.437 -3.44865 -0.938241 0
M  V30 3061 S 281.996 -4.09164 -1.58526 0
M  V30 3062 H 278.814 -0.694686 -0.151434 0
M  V30 3063 H 281.416 -1.93577 0.27352 0
M  V30 3064 H 280.12 -4.10265 -0.10518 0
M  V30 3065 H 279.651 -3.53956 -1.71693 0
M  V30 3066 H 281.666 -4.04528 -2.87352 0
M  V30 3067 N 280.839 0.0985539 -1.57292 0
M  V30 3068 C 282.088 0.801358 -1.85098 0
M  V30 3069 C 282.401 1.80066 -0.763902 0
M  V30 3070 O 283.607 2.55112 -0.928981 0
M  V30 3071 C 282.063 1.47599 -3.28242 0
M  V30 3072 C 281.671 0.516624 -4.45011 0
M  V30 3073 C 283.415 2.16272 -3.65276 0
M  V30 3074 C 281.322 1.19564 -5.79188 0
M  V30 3075 H 280.252 0.303022 -0.69043 0
M  V30 3076 H 282.903 0.0542623 -1.8342 0
M  V30 3077 H 281.285 2.27042 -3.2445 0
M  V30 3078 H 282.459 -0.246065 -4.60143 0
M  V30 3079 H 280.774 -0.064227 -4.1635 0
M  V30 3080 H 283.371 2.67802 -4.62803 0
M  V30 3081 H 283.714 2.95009 -2.93727 0
M  V30 3082 H 284.247 1.43693 -3.70941 0
M  V30 3083 H 280.986 0.449157 -6.53959 0
M  V30 3084 H 280.506 1.92984 -5.67906 0
M  V30 3085 H 282.185 1.7231 -6.23633 0
M  V30 3086 N 282.317 1.53212 0.369288 0
M  V30 3087 C 283.247 1.82365 1.45826 0
M  V30 3088 C 284.228 0.676907 1.56051 0
M  V30 3089 O 285.413 0.926401 1.70679 0
M  V30 3090 C 282.543 2.01023 2.83208 0
M  V30 3091 C 281.497 3.1678 2.8781 0
M  V30 3092 C 280.823 3.20724 4.27832 0
M  V30 3093 C 282.123 4.55447 2.55667 0
M  V30 3094 H 283.817 2.73559 1.21678 0
M  V30 3095 H 281.363 1.3163 0.583911 0
M  V30 3096 H 283.316 2.20001 3.59413 0
M  V30 3097 H 282.04 1.06536 3.08736 0
M  V30 3098 H 280.699 2.97616 2.14056 0
M  V30 3099 H 280.347 2.23882 4.50429 0
M  V30 3100 H 280.047 3.98496 4.31827 0
M  V30 3101 H 281.571 3.41881 5.05915 0
M  V30 3102 H 282.985 4.74611 3.21586 0
M  V30 3103 H 281.382 5.35432 2.70984 0
M  V30 3104 H 282.452 4.60812 1.5093 0
M  V30 3105 N 283.795 -0.628877 1.44509 0
M  V30 3106 C 285.025 -1.41349 1.50678 0
M  V30 3107 C 285.433 -1.88745 0.131075 0
M  V30 3108 O 284.776 -1.61592 -0.87371 0
M  V30 3109 C 284.838 -2.66608 2.41165 0
M  V30 3110 C 284.502 -2.40993 3.88293 0
M  V30 3111 C 285.499 -2.0268 4.78766 0
M  V30 3112 C 283.184 -2.54563 4.33016 0
M  V30 3113 C 285.178 -1.78269 6.11963 0
M  V30 3114 C 282.865 -2.29766 5.6626 0
M  V30 3115 C 283.863 -1.91678 6.55552 0
M  V30 3116 O 283.551 -1.67158 7.86329 0
M  V30 3117 H 283.283 -0.439851 0.51333 0
M  V30 3118 H 285.837 -0.776084 1.90174 0
M  V30 3119 H 284.067 -3.32994 1.96601 0
M  V30 3120 H 285.756 -3.28615 2.38259 0
M  V30 3121 H 286.522 -1.91751 4.45485 0
M  V30 3122 H 282.401 -2.83179 3.63773 0
M  V30 3123 H 285.945 -1.48465 6.81619 0
M  V30 3124 H 281.842 -2.40306 5.99102 0
M  V30 3125 H 282.61 -1.81386 7.98149 0
M  V30 3126 N 285.273 -1.31445 -0.869486 0
M  V30 3127 C 286.183 -1.21097 -2.0093 0
M  V30 3128 C 287.199 -0.127584 -1.73532 0
M  V30 3129 O 288.375 -0.345477 -1.98415 0
M  V30 3130 C 285.44 -0.919378 -3.34288 0
M  V30 3131 C 284.501 -2.08971 -3.75006 0
M  V30 3132 C 283.734 -1.81194 -5.02001 0
M  V30 3133 O 283.957 -0.747296 -5.65484 0
M  V30 3134 O 282.891 -2.66883 -5.39497 0
M  V30 3135 H 286.717 -2.16883 -2.12592 0
M  V30 3136 H 284.302 -1.11189 -0.997868 0
M  V30 3137 H 286.184 -0.772625 -4.14257 0
M  V30 3138 H 284.859 0.00844772 -3.23699 0
M  V30 3139 H 283.766 -2.29187 -2.95676 0
M  V30 3140 H 285.099 -2.9998 -3.90221 0
M  V30 3141 N 286.751 1.08385 -1.14413 0
M  V30 3142 C 287.681 2.17321 -0.854044 0
M  V30 3143 C 288.662 1.69024 0.191049 0
M  V30 3144 O 289.847 1.94141 0.0476779 0
M  V30 3145 C 286.977 3.45719 -0.330983 0
M  V30 3146 C 285.931 4.07409 -1.31155 0
M  V30 3147 C 285.257 5.30762 -0.64778 0
M  V30 3148 C 286.557 4.48665 -2.67388 0
M  V30 3149 H 288.251 2.41845 -1.76498 0
M  V30 3150 H 285.797 1.16233 -0.850051 0
M  V30 3151 H 287.75 4.21241 -0.115645 0
M  V30 3152 H 286.474 3.2075 0.615381 0
M  V30 3153 H 285.133 3.33919 -1.51306 0
M  V30 3154 H 284.781 5.02078 0.304398 0
M  V30 3155 H 284.481 5.72992 -1.30207 0
M  V30 3156 H 286.005 6.08998 -0.441972 0
M  V30 3157 H 287.419 5.15364 -2.51143 0
M  V30 3158 H 285.816 5.01814 -3.29093 0
M  V30 3159 H 286.886 3.60543 -3.24248 0
M  V30 3160 N 288.23 0.939286 1.26551 0
M  V30 3161 C 289.47 0.5933 1.956 0
M  V30 3162 C 289.834 -0.851515 1.72085 0
M  V30 3163 O 291.035 -1.30634 2.34921 0
M  V30 3164 C 289.306 0.923996 3.45249 0
M  V30 3165 S 290.865 0.688269 4.33369 0
M  V30 3166 H 287.683 0.218591 0.676564 0
M  V30 3167 H 290.285 1.2102 1.5354 0
M  V30 3168 H 288.989 1.97297 3.59864 0
M  V30 3169 H 288.52 0.296746 3.92279 0
M  V30 3170 H 290.535 -0.448434 4.9417 0
M  V30 3171 N 289.708 -1.40897 0.706093 0
M  V30 3172 C 290.936 -2.05373 0.250887 0
M  V30 3173 C 291.351 -1.53172 -1.10381 0
M  V30 3174 O 290.708 -0.684305 -1.69185 0
M  V30 3175 C 290.759 -3.6088 0.211571 0
M  V30 3176 O 290.48 -4.11153 1.51276 0
M  V30 3177 C 291.981 -4.42517 -0.263346 0
M  V30 3178 H 289.201 -0.66115 0.114552 0
M  V30 3179 H 291.745 -1.80479 0.961635 0
M  V30 3180 H 289.9 -3.84777 -0.450073 0
M  V30 3181 H 290.314 -5.05279 1.40689 0
M  V30 3182 H 291.788 -5.51479 -0.239718 0
M  V30 3183 H 292.265 -4.19396 -1.30397 0
M  V30 3184 H 292.871 -4.23708 0.367677 0
M  V30 3185 N 291.186 -0.45159 -1.50991 0
M  V30 3186 C 292.116 0.342898 -2.30969 0
M  V30 3187 C 293.097 1.00815 -1.37005 0
M  V30 3188 O 294.282 1.00907 -1.65926 0
M  V30 3189 C 291.412 1.43637 -3.16205 0
M  V30 3190 C 290.366 0.893818 -4.18563 0
M  V30 3191 C 289.692 2.08411 -4.92411 0
M  V30 3192 C 290.992 -0.0815568 -5.22236 0
M  V30 3193 H 292.686 -0.324556 -2.97636 0
M  V30 3194 H 290.232 -0.157531 -1.43136 0
M  V30 3195 H 292.185 1.9995 -3.70942 0
M  V30 3196 H 290.909 2.13232 -2.47386 0
M  V30 3197 H 289.568 0.352798 -3.64898 0
M  V30 3198 H 289.216 2.76658 -4.20082 0
M  V30 3199 H 288.916 1.72741 -5.61636 0
M  V30 3200 H 290.44 2.65251 -5.49976 0
M  V30 3201 H 291.854 0.391742 -5.7196 0
M  V30 3202 H 290.251 -0.351551 -5.99069 0
M  V30 3203 H 291.321 -1.01374 -4.74185 0
M  V30 3204 N 292.664 1.56529 -0.183458 0
M  V30 3205 C 293.611 2.18546 0.742055 0
M  V30 3206 C 294.581 1.12912 1.2182 0
M  V30 3207 O 295.766 1.41115 1.28418 0
M  V30 3208 C 292.906 2.83977 1.96089 0
M  V30 3209 C 292.019 4.04105 1.52719 0
M  V30 3210 C 291.154 4.57427 2.70063 0
M  V30 3211 C 290.193 5.69938 2.23243 0
M  V30 3212 N 289.33 6.17717 3.33722 0
M  V30 3213 H 294.17 2.97284 0.206432 0
M  V30 3214 H 291.707 1.46823 0.0901571 0
M  V30 3215 H 293.665 3.20077 2.67594 0
M  V30 3216 H 292.295 2.07822 2.47002 0
M  V30 3217 H 291.347 3.73745 0.708436 0
M  V30 3218 H 292.659 4.85513 1.1436 0
M  V30 3219 H 291.813 4.95772 3.49708 0
M  V30 3220 H 290.552 3.75101 3.11689 0
M  V30 3221 H 289.557 5.31133 1.42048 0
M  V30 3222 H 290.782 6.54073 1.82661 0
M  V30 3223 H 288.728 5.38317 3.74902 0
M  V30 3224 H 288.645 6.94146 2.99495 0
M  V30 3225 H 289.913 6.60713 4.13616 0
M  V30 3226 N 294.142 -0.090211 1.57342 0
M  V30 3227 C 295.092 -1.11557 1.98844 0
M  V30 3228 C 296.076 -1.35503 0.867624 0
M  V30 3229 O 297.268 -1.36113 1.13148 0
M  V30 3230 C 294.397 -2.43446 2.42051 0
M  V30 3231 C 293.483 -2.22853 3.60828 0
M  V30 3232 N 293.874 -1.72141 4.75606 0
M  V30 3233 C 292.172 -2.53401 3.67021 0
M  V30 3234 C 292.873 -1.65932 5.57531 0
M  V30 3235 N 291.849 -2.11323 5.00843 0
M  V30 3236 H 295.651 -0.716499 2.85032 0
M  V30 3237 H 293.165 -0.297567 1.59651 0
M  V30 3238 H 295.162 -3.17644 2.70014 0
M  V30 3239 H 293.822 -2.84087 1.57241 0
M  V30 3240 H 294.833 -1.41268 4.98261 0
M  V30 3241 H 291.51 -2.97532 2.92884 0
M  V30 3242 H 292.9 -1.27733 6.59647 0
M  V30 3243 N 295.62 -1.53406 -0.361157 0
M  V30 3244 C 297.031 -1.61442 -0.937728 0
M  V30 3245 C 297.382 -0.48461 -1.90121 0
M  V30 3246 O 296.507 0.388312 -2.12888 0
M  V30 3247 C 297.102 -2.92624 -1.70753 0
M  V30 3248 C 295.661 -3.02981 -2.23337 0
M  V30 3249 C 294.808 -2.5677 -1.04712 0
M  V30 3250 H 297.759 -1.58083 -0.139816 0
M  V30 3251 H 297.78 -2.80675 -2.56908 0
M  V30 3252 H 297.292 -3.74834 -1.00604 0
M  V30 3253 H 295.393 -2.25368 -2.96715 0
M  V30 3254 H 295.506 -4.0814 -2.50916 0
M  V30 3255 H 293.87 -2.11752 -1.41539 0
M  V30 3256 H 294.653 -3.41402 -0.360539 0
M  V30 3257 N 297.098 0.621204 -1.44841 0
M  V30 3258 C 298.345 1.38055 -1.48145 0
M  V30 3259 C 298.673 1.94143 -0.117867 0
M  V30 3260 O 297.928 1.74713 0.881694 0
M  V30 3261 C 298.227 2.55675 -2.4973 0
M  V30 3262 C 297.893 2.17817 -3.94799 0
M  V30 3263 C 296.555 2.07205 -4.34303 0
M  V30 3264 C 298.907 1.88065 -4.86087 0
M  V30 3265 C 296.235 1.65045 -5.63007 0
M  V30 3266 C 298.587 1.47394 -6.15189 0
M  V30 3267 C 297.251 1.35331 -6.53637 0
M  V30 3268 H 296.521 0.505181 -0.542101 0
M  V30 3269 H 299.168 0.703477 -1.78111 0
M  V30 3270 H 297.473 3.2866 -2.13284 0
M  V30 3271 H 299.17 3.13904 -2.4953 0
M  V30 3272 H 295.76 2.26998 -3.63552 0
M  V30 3273 H 299.944 1.95168 -4.56315 0
M  V30 3274 H 295.2 1.54317 -5.91605 0
M  V30 3275 H 299.374 1.23415 -6.85377 0
M  V30 3276 H 297.001 1.02435 -7.53267 0
M  V30 3277 N 298.576 1.31904 0.862503 0
M  V30 3278 C 299.508 1.16005 1.97675 0
M  V30 3279 C 300.521 0.0971234 1.6251 0
M  V30 3280 O 301.71 0.345337 1.75128 0
M  V30 3281 C 298.81 0.751791 3.30456 0
M  V30 3282 C 297.983 1.90133 3.93914 0
M  V30 3283 C 297.042 1.4779 5.05019 0
M  V30 3284 O 296.068 2.18872 5.25437 0
M  V30 3285 N 297.27 0.369491 5.79323 0
M  V30 3286 H 300.035 2.11982 2.11857 0
M  V30 3287 H 297.596 1.24337 1.03691 0
M  V30 3288 H 299.588 0.451084 4.02178 0
M  V30 3289 H 298.158 -0.116593 3.12382 0
M  V30 3290 H 297.378 2.36896 3.15078 0
M  V30 3291 H 298.666 2.67111 4.33047 0
M  V30 3292 H 298.064 -0.222299 5.65263 0
M  V30 3293 H 296.621 0.128354 6.51674 0
M  V30 3294 N 300.054 -1.07777 1.14986 0
M  V30 3295 C 301.017 -2.13041 0.845358 0
M  V30 3296 C 302.017 -1.60071 -0.152931 0
M  V30 3297 O 303.207 -1.74033 0.0761879 0
M  V30 3298 C 300.339 -3.39896 0.261383 0
M  V30 3299 H 301.532 -2.41485 1.77834 0
M  V30 3300 H 299.085 -1.23595 0.956757 0
M  V30 3301 H 299.82 -3.17091 -0.68 0
M  V30 3302 H 299.605 -3.79642 0.980514 0
M  V30 3303 H 301.095 -4.17548 0.0657687 0
M  V30 3304 N 301.532 -0.945985 -1.26051 0
M  V30 3305 C 302.48 -0.450259 -2.282 0
M  V30 3306 C 303.474 0.47497 -1.62605 0
M  V30 3307 O 304.68 0.352653 -1.76512 0
M  V30 3308 H 301.055 -0.127081 -0.741184 0
M  V30 3309 H 303.026 -1.32422 -2.67408 0
M  V30 3310 C 301.775 0.26467 -3.46691 0
M  V30 3311 H 301.098 -0.438123 -3.97392 0
M  V30 3312 H 302.538 0.575678 -4.20074 0
M  V30 3313 C 300.997 1.48416 -3.02447 0
M  V30 3314 O 301.527 2.58227 -3.07704 0
M  V30 3315 N 299.733 1.34243 -2.57735 0
M  V30 3316 H 299.28 0.448994 -2.53657 0
M  V30 3317 H 299.238 2.15957 -2.28495 0
M  V30 3318 N 303.011 1.40521 -0.713556 0
M  V30 3319 C 304.236 2.05759 -0.26035 0
M  V30 3320 C 304.661 1.53403 1.08854 0
M  V30 3321 O 304.019 0.668535 1.68524 0
M  V30 3322 C 304.067 3.59745 -0.248122 0
M  V30 3323 O 303.171 4.05123 0.77131 0
M  V30 3324 H 302.512 0.652564 -0.122703 0
M  V30 3325 H 305.042 1.79958 -0.973467 0
M  V30 3326 H 305.052 4.07911 -0.0851129 0
M  V30 3327 H 303.727 3.97218 -1.2325 0
M  V30 3328 H 302.304 3.68422 0.57619 0
M  V30 3329 N 304.489 0.459591 1.5075 0
M  V30 3330 C 305.735 -0.091664 2.03193 0
M  V30 3331 C 306.09 -1.38432 1.3362 0
M  V30 3332 O 305.383 -1.86257 0.449322 0
M  V30 3333 C 305.577 -0.342866 3.55752 0
M  V30 3334 C 305.406 0.923888 4.40107 0
M  V30 3335 C 304.176 1.46388 4.83631 0
M  V30 3336 C 306.374 1.81617 4.81165 0
M  V30 3337 N 304.356 2.68086 5.52271 0
M  V30 3338 C 305.727 2.87907 5.49099 0
M  V30 3339 C 307.782 1.82793 4.63132 0
M  V30 3340 C 306.485 3.95347 6.0091 0
M  V30 3341 C 308.511 2.89182 5.15876 0
M  V30 3342 C 307.873 3.94191 5.83774 0
M  V30 3343 H 303.972 0.00619247 0.781975 0
M  V30 3344 H 306.556 0.625233 1.84388 0
M  V30 3345 H 304.727 -1.0288 3.74527 0
M  V30 3346 H 306.459 -0.887445 3.9485 0
M  V30 3347 H 303.214 1.01466 4.62603 0
M  V30 3348 H 303.638 3.29857 5.91205 0
M  V30 3349 H 308.28 1.0293 4.1008 0
M  V30 3350 H 305.998 4.76035 6.53006 0
M  V30 3351 H 309.584 2.91061 5.0376 0
M  V30 3352 H 308.464 4.75161 6.23853 0
M  V30 3353 N 305.967 -1.56429 0.191757 0
M  V30 3354 C 306.914 -2.18936 -0.730454 0
M  V30 3355 C 307.884 -1.13557 -1.21219 0
M  V30 3356 O 309.069 -1.41794 -1.27668 0
M  V30 3357 C 306.209 -2.85013 -1.9458 0
M  V30 3358 C 305.322 -4.04909 -1.50574 0
M  V30 3359 C 304.457 -4.58853 -2.67634 0
M  V30 3360 C 303.496 -5.71114 -2.20217 0
M  V30 3361 N 302.633 -6.19478 -3.30442 0
M  V30 3362 H 307.473 -2.97389 -0.190664 0
M  V30 3363 H 305.01 -1.46869 -0.0823694 0
M  V30 3364 H 306.968 -3.21492 -2.65893 0
M  V30 3365 H 305.598 -2.09129 -2.45896 0
M  V30 3366 H 304.65 -3.74115 -0.688605 0
M  V30 3367 H 305.962 -4.86113 -1.11784 0
M  V30 3368 H 305.116 -4.97619 -3.47074 0
M  V30 3369 H 303.855 -3.76749 -3.09696 0
M  V30 3370 H 302.86 -5.31879 -1.3923 0
M  V30 3371 H 304.085 -6.55033 -1.79189 0
M  V30 3372 H 302.031 -5.40297 -3.72041 0
M  V30 3373 H 301.948 -6.95725 -2.9581 0
M  V30 3374 H 303.216 -6.62898 -4.10106 0
M  V30 3375 N 307.445 0.0818655 -1.57387 0
M  V30 3376 C 308.393 1.11712 -2.04018 0
M  V30 3377 C 309.387 1.40683 -0.94364 0
M  V30 3378 O 310.593 1.40209 -1.12878 0
M  V30 3379 H 306.968 0.377542 -0.650358 0
M  V30 3380 H 308.939 0.697614 -2.90131 0
M  V30 3381 C 307.688 2.42537 -2.49141 0
M  V30 3382 H 307.011 2.21092 -3.33104 0
M  V30 3383 H 308.451 3.13446 -2.85531 0
M  V30 3384 C 306.91 3.0778 -1.37014 0
M  V30 3385 O 307.44 3.95436 -0.706621 0
M  V30 3386 N 305.646 2.68242 -1.11779 0
M  V30 3387 H 305.193 1.97052 -1.65917 0
M  V30 3388 H 305.151 3.1222 -0.369594 0
M  V30 3389 N 308.923 1.53595 0.353017 0
M  V30 3390 C 309.853 1.83902 1.43883 0
M  V30 3391 C 310.834 0.693421 1.55324 0
M  V30 3392 O 312.019 0.944452 1.69687 0
M  V30 3393 C 309.149 2.04016 2.8106 0
M  V30 3394 C 308.103 3.19814 2.84434 0
M  V30 3395 C 307.429 3.25244 4.24406 0
M  V30 3396 C 308.729 4.58133 2.50822 0
M  V30 3397 H 310.423 2.74835 1.1877 0
M  V30 3398 H 307.969 1.32242 0.569917 0
M  V30 3399 H 309.922 2.238 3.57059 0
M  V30 3400 H 308.646 1.09804 3.07588 0
M  V30 3401 H 307.305 2.9987 2.10887 0
M  V30 3402 H 306.953 2.28646 4.48029 0
M  V30 3403 H 306.653 4.03054 4.27576 0
M  V30 3404 H 308.177 3.47228 5.0226 0
M  V30 3405 H 309.591 4.77995 3.16534 0
M  V30 3406 H 307.988 5.38276 2.6529 0
M  V30 3407 H 309.058 4.62387 1.46034 0
M  V30 3408 N 310.401 -0.613514 1.45168 0
M  V30 3409 C 311.65 -1.36874 1.4815 0
M  V30 3410 C 311.963 -1.952 0.124982 0
M  V30 3411 O 313.169 -2.71481 0.0324176 0
M  V30 3412 C 311.625 -2.47905 2.60904 0
M  V30 3413 C 311.233 -1.96016 4.02842 0
M  V30 3414 C 312.977 -3.24965 2.73126 0
M  V30 3415 C 310.884 -3.04494 5.06988 0
M  V30 3416 H 309.814 -0.514428 0.551253 0
M  V30 3417 H 312.465 -0.658182 1.7129 0
M  V30 3418 H 310.847 -3.21618 2.31037 0
M  V30 3419 H 312.021 -1.29051 4.4236 0
M  V30 3420 H 310.336 -1.31719 3.95018 0
M  V30 3421 H 312.933 -4.05865 3.48106 0
M  V30 3422 H 313.276 -3.75588 1.79553 0
M  V30 3423 H 313.809 -2.5835 3.0249 0
M  V30 3424 H 310.548 -2.58795 6.0225 0
M  V30 3425 H 310.068 -3.70044 4.72046 0
M  V30 3426 H 311.747 -3.68976 5.31475 0
M  V30 3427 N 311.879 -1.3236 -0.855495 0
M  V30 3428 C 312.809 -1.23833 -1.97958 0
M  V30 3429 C 313.79 -0.122361 -1.69659 0
M  V30 3430 O 314.975 -0.30939 -1.9172 0
M  V30 3431 C 312.105 -0.959772 -3.33775 0
M  V30 3432 C 311.059 -2.03689 -3.76424 0
M  V30 3433 C 310.385 -1.61075 -5.09862 0
M  V30 3434 C 311.685 -3.4518 -3.9198 0
M  V30 3435 H 313.379 -2.1788 -2.0535 0
M  V30 3436 H 310.925 -1.04891 -0.986605 0
M  V30 3437 H 312.878 -0.886678 -4.11966 0
M  V30 3438 H 311.602 0.0163404 -3.26596 0
M  V30 3439 H 310.261 -2.10012 -3.00484 0
M  V30 3440 H 309.909 -0.622107 -4.99138 0
M  V30 3441 H 309.609 -2.33143 -5.39368 0
M  V30 3442 H 311.133 -1.55201 -5.90546 0
M  V30 3443 H 312.547 -3.4145 -4.60526 0
M  V30 3444 H 310.944 -4.1559 -4.32903 0
M  V30 3445 H 312.014 -3.84903 -2.94919 0
M  V30 3446 N 313.357 1.07166 -1.15556 0
M  V30 3447 C 314.304 2.14417 -0.854055 0
M  V30 3448 C 315.274 1.64965 0.193806 0
M  V30 3449 O 316.459 1.90703 0.0609443 0
M  V30 3450 C 313.599 3.43304 -0.351574 0
M  V30 3451 C 312.712 4.06537 -1.46123 0
M  V30 3452 C 311.847 5.23266 -0.914677 0
M  V30 3453 C 310.886 5.78464 -2.00114 0
M  V30 3454 N 310.023 6.86521 -1.47083 0
M  V30 3455 H 314.863 2.39548 -1.77259 0
M  V30 3456 H 312.4 1.17543 -0.884425 0
M  V30 3457 H 314.358 4.17179 -0.0419409 0
M  V30 3458 H 312.988 3.18419 0.530037 0
M  V30 3459 H 312.04 3.30297 -1.88701 0
M  V30 3460 H 313.352 4.43567 -2.28144 0
M  V30 3461 H 312.506 6.04131 -0.557698 0
M  V30 3462 H 311.245 4.87658 -0.0636583 0
M  V30 3463 H 310.25 4.96243 -2.36692 0
M  V30 3464 H 311.475 6.16126 -2.85597 0
M  V30 3465 H 309.421 6.52849 -0.642198 0
M  V30 3466 H 309.338 7.22446 -2.22729 0
M  V30 3467 H 310.606 7.71087 -1.14215 0
M  V30 3468 N 314.835 0.952656 1.25548 0
M  V30 3469 C 316.081 0.607272 1.93494 0
M  V30 3470 C 316.414 -0.853245 1.74452 0
M  V30 3471 O 315.689 -1.61194 1.08843 0
M  V30 3472 C 315.972 0.96435 3.46947 0
M  V30 3473 C 315.825 2.48045 3.75225 0
M  V30 3474 C 317.144 0.487987 4.37386 0
M  V30 3475 H 314.263 0.222096 0.702739 0
M  V30 3476 H 316.905 1.18895 1.48203 0
M  V30 3477 H 315.055 0.469361 3.85654 0
M  V30 3478 H 316.727 3.04905 3.46166 0
M  V30 3479 H 314.97 2.919 3.209 0
M  V30 3480 H 315.641 2.6808 4.82532 0
M  V30 3481 H 318.117 0.912558 4.0597 0
M  V30 3482 H 316.993 0.766547 5.43521 0
M  V30 3483 H 317.254 -0.612063 4.37843 0
M  V30 3484 N 316.313 -1.40141 0.720998 0
M  V30 3485 C 317.553 -2.02644 0.267335 0
M  V30 3486 C 317.917 -1.55948 -1.12001 0
M  V30 3487 O 319.118 -2.10552 -1.67097 0
M  V30 3488 C 317.389 -3.55679 0.350281 0
M  V30 3489 S 318.948 -4.38793 -0.0256004 0
M  V30 3490 H 315.766 -0.703105 0.105664 0
M  V30 3491 H 318.368 -1.71175 0.944416 0
M  V30 3492 H 317.072 -3.87157 1.36153 0
M  V30 3493 H 316.603 -3.91883 -0.345096 0
M  V30 3494 H 318.618 -4.803 -1.24604 0
M  V30 3495 N 317.792 -0.46758 -1.50504 0
M  V30 3496 C 318.724 0.364655 -2.26281 0
M  V30 3497 C 319.737 0.960151 -1.31472 0
M  V30 3498 O 320.926 0.849153 -1.57008 0
M  V30 3499 C 318.026 1.52509 -3.02645 0
M  V30 3500 C 317.199 1.04302 -4.24782 0
M  V30 3501 C 316.258 2.07709 -4.8347 0
M  V30 3502 O 315.284 1.65913 -5.44483 0
M  V30 3503 N 316.486 3.40485 -4.70159 0
M  V30 3504 H 319.251 -0.28495 -2.98342 0
M  V30 3505 H 316.812 -0.298163 -1.59131 0
M  V30 3506 H 318.804 2.21371 -3.38787 0
M  V30 3507 H 317.374 2.07945 -2.33404 0
M  V30 3508 H 316.594 0.180393 -3.93787 0
M  V30 3509 H 317.882 0.698798 -5.03978 0
M  V30 3510 H 317.28 3.77155 -4.21629 0
M  V30 3511 H 315.837 4.05156 -5.1058 0
M  V30 3512 N 319.27 1.56325 -0.20005 0
M  V30 3513 C 320.518 1.97329 0.436547 0
M  V30 3514 C 320.839 1.08826 1.61808 0
M  V30 3515 O 320.109 0.160604 1.95241 0
M  V30 3516 H 318.689 0.728714 0.164272 0
M  V30 3517 H 321.351 1.92761 -0.287937 0
M  V30 3518 H 320.447 3.02264 0.777353 0
M  V30 3519 N 320.748 -0.0735177 1.57428 0
M  V30 3520 C 321.988 -0.778363 1.89 0
M  V30 3521 C 322.352 -1.7483 0.793634 0
M  V30 3522 O 323.553 -2.49811 0.992367 0
M  V30 3523 C 321.824 -1.46929 3.25802 0
M  V30 3524 S 323.383 -2.20943 3.79117 0
M  V30 3525 H 320.201 -0.258874 0.662197 0
M  V30 3526 H 322.803 -0.0345338 1.95469 0
M  V30 3527 H 321.507 -0.749532 4.03497 0
M  V30 3528 H 321.038 -2.25258 3.22525 0
M  V30 3529 H 323.053 -3.47435 3.54265 0
M  V30 3530 N 322.226 -1.5378 -0.344866 0
M  V30 3531 C 323.475 -1.7018 -1.08267 0
M  V30 3532 C 323.788 -0.471 -1.89845 0
M  V30 3533 O 324.994 -0.515917 -2.66553 0
M  V30 3534 C 323.45 -3.00923 -1.97417 0
M  V30 3535 C 323.058 -4.31335 -1.21053 0
M  V30 3536 C 324.802 -3.26688 -2.71063 0
M  V30 3537 C 322.709 -5.53153 -2.09225 0
M  V30 3538 H 321.639 -0.634138 -0.407903 0
M  V30 3539 H 324.29 -1.8028 -0.342246 0
M  V30 3540 H 322.672 -2.84676 -2.75274 0
M  V30 3541 H 323.846 -4.58281 -0.481159 0
M  V30 3542 H 322.161 -4.12173 -0.591813 0
M  V30 3543 H 324.758 -4.1489 -3.37299 0
M  V30 3544 H 325.101 -2.43639 -3.37558 0
M  V30 3545 H 325.634 -3.43705 -2.0028 0
M  V30 3546 H 322.373 -6.38741 -1.47274 0
M  V30 3547 H 321.893 -5.30458 -2.79955 0
M  V30 3548 H 323.572 -5.88744 -2.68308 0
M  V30 3549 N 323.704 0.605807 -1.45491 0
M  V30 3550 C 324.929 1.39625 -1.53361 0
M  V30 3551 C 325.354 1.87351 -0.167645 0
M  V30 3552 O 324.712 1.60243 0.848051 0
M  V30 3553 C 324.76 2.57559 -2.5238 0
M  V30 3554 O 323.864 3.58248 -2.04285 0
M  V30 3555 H 323.205 0.416771 -0.516912 0
M  V30 3556 H 325.735 0.737103 -1.90861 0
M  V30 3557 H 325.745 3.0478 -2.71244 0
M  V30 3558 H 324.42 2.22171 -3.51586 0
M  V30 3559 H 322.997 3.17664 -1.95305 0
M  V30 3560 N 325.182 1.32811 0.848464 0
M  V30 3561 C 326.593 1.21315 1.41914 0
M  V30 3562 C 326.944 -0.171847 1.95446 0
M  V30 3563 O 326.069 -1.07093 1.88043 0
M  V30 3564 C 326.664 2.19631 2.57968 0
M  V30 3565 C 325.223 2.12003 3.11017 0
M  V30 3566 C 324.37 2.07651 1.83783 0
M  V30 3567 H 327.321 1.44549 0.655071 0
M  V30 3568 H 327.342 1.79845 3.35315 0
M  V30 3569 H 326.854 3.20423 2.18976 0
M  V30 3570 H 324.955 1.14481 3.54577 0
M  V30 3571 H 325.068 3.02111 3.71841 0
M  V30 3572 H 323.432 1.52983 2.03638 0
M  V30 3573 H 324.215 3.10235 1.47 0
M  V30 3574 N 326.66 -1.06551 1.16123 0
M  V30 3575 C 327.59 -2.15935 0.88851 0
M  V30 3576 C 328.571 -1.69306 -0.164135 0
M  V30 3577 O 329.756 -1.94193 -0.0167857 0
M  V30 3578 C 326.886 -3.45149 0.385942 0
M  V30 3579 C 325.84 -4.05271 1.3762 0
M  V30 3580 C 325.166 -5.29664 0.732137 0
M  V30 3581 C 326.466 -4.44355 2.74493 0
M  V30 3582 H 328.16 -2.39006 1.80323 0
M  V30 3583 H 325.706 -1.14866 0.868435 0
M  V30 3584 H 327.659 -4.21004 0.182647 0
M  V30 3585 H 326.383 -3.21689 -0.564274 0
M  V30 3586 H 325.042 -3.3147 1.56599 0
M  V30 3587 H 324.69 -5.02499 -0.224483 0
M  V30 3588 H 324.39 -5.70848 1.39307 0
M  V30 3589 H 325.914 -6.08218 0.538802 0
M  V30 3590 H 327.328 -5.11303 2.59311 0
M  V30 3591 H 325.725 -4.96515 3.37035 0
M  V30 3592 H 326.795 -3.55339 3.29943 0
M  V30 3593 N 328.138 -0.959301 -1.25041 0
M  V30 3594 C 329.549 -0.65667 -1.74771 0
M  V30 3595 C 329.9 0.827852 -1.77879 0
M  V30 3596 O 329.025 1.64783 -1.40269 0
M  V30 3597 C 329.62 -1.1853 -3.1739 0
M  V30 3598 C 328.179 -0.932734 -3.6466 0
M  V30 3599 C 327.326 -1.32558 -2.43564 0
M  V30 3600 H 330.277 -1.13558 -1.10862 0
M  V30 3601 H 330.298 -0.547582 -3.76539 0
M  V30 3602 H 329.81 -2.26576 -3.15095 0
M  V30 3603 H 327.911 0.13257 -3.72364 0
M  V30 3604 H 328.024 -1.57248 -4.52559 0
M  V30 3605 H 326.388 -0.743956 -2.43593 0
M  V30 3606 H 327.171 -2.41537 -2.43957 0
M  V30 3607 N 329.616 1.39756 -0.72842 0
M  V30 3608 C 330.841 2.05472 -0.282159 0
M  V30 3609 C 331.266 1.54549 1.07221 0
M  V30 3610 O 330.624 0.686372 1.67805 0
M  V30 3611 C 330.672 3.59462 -0.286264 0
M  V30 3612 O 329.776 4.05918 0.728298 0
M  V30 3613 H 329.117 0.651226 -0.129618 0
M  V30 3614 H 331.647 1.78915 -0.992499 0
M  V30 3615 H 331.657 4.07798 -0.128373 0
M  V30 3616 H 330.332 3.95889 -1.27456 0
M  V30 3617 H 328.909 3.69012 0.537081 0
M  V30 3618 N 331.094 0.475555 1.50254 0
M  V30 3619 C 332.044 -0.335025 2.25525 0
M  V30 3620 C 333.028 -0.957625 1.29299 0
M  V30 3621 O 334.22 -0.869436 1.54175 0
M  V30 3622 C 331.349 -1.41385 3.12834 0
M  V30 3623 C 330.435 -0.798762 4.1651 0
M  V30 3624 N 330.826 0.0835815 5.05731 0
M  V30 3625 C 329.124 -1.06221 4.33166 0
M  V30 3626 C 329.825 0.433113 5.80085 0
M  V30 3627 N 328.801 -0.1928 5.43258 0
M  V30 3628 H 332.603 0.344612 2.91873 0
M  V30 3629 H 330.117 0.289986 1.5979 0
M  V30 3630 H 332.114 -2.00777 3.65368 0
M  V30 3631 H 330.774 -2.09543 2.48036 0
M  V30 3632 H 331.785 0.452715 5.15918 0
M  V30 3633 H 328.462 -1.73844 3.79585 0
M  V30 3634 H 329.852 1.15346 6.61925 0
M  V30 3635 N 332.573 -1.56217 0.208337 0
M  V30 3636 C 333.803 -2.02043 -0.431523 0
M  V30 3637 C 334.211 -1.08755 -1.54819 0
M  V30 3638 O 333.554 -0.0870009 -1.83494 0
M  V30 3639 C 333.616 -3.44239 -1.03633 0
M  V30 3640 C 333.28 -4.56965 -0.0567502 0
M  V30 3641 C 334.277 -5.14624 0.738773 0
M  V30 3642 C 331.962 -5.02266 0.0581736 0
M  V30 3643 C 333.956 -6.16045 1.63605 0
M  V30 3644 C 331.643 -6.03528 0.959001 0
M  V30 3645 C 332.641 -6.60293 1.7465 0
M  V30 3646 O 332.329 -7.59586 2.6322 0
M  V30 3647 H 332.061 -0.666772 -0.111313 0
M  V30 3648 H 334.615 -2.02919 0.318277 0
M  V30 3649 H 332.845 -3.40391 -1.83497 0
M  V30 3650 H 334.534 -3.73793 -1.58221 0
M  V30 3651 H 335.3 -4.80483 0.660364 0
M  V30 3652 H 331.179 -4.57771 -0.544633 0
M  V30 3653 H 334.723 -6.60279 2.25116 0
M  V30 3654 H 330.62 -6.37092 1.03848 0
M  V30 3655 H 331.388 -7.77057 2.57148 0
M  V30 3656 N 334.051 0.0651679 -1.57465 0
M  V30 3657 C 335.276 0.779605 -1.9219 0
M  V30 3658 C 335.701 1.69988 -0.805333 0
M  V30 3659 O 335.059 1.79685 0.241435 0
M  V30 3660 C 335.107 1.54364 -3.2589 0
M  V30 3661 O 334.211 2.65474 -3.1559 0
M  V30 3662 H 333.552 0.212249 -0.629163 0
M  V30 3663 H 336.082 0.0314294 -2.04576 0
M  V30 3664 H 336.092 1.92146 -3.59922 0
M  V30 3665 H 334.767 0.868457 -4.06732 0
M  V30 3666 H 333.344 2.30501 -2.93128 0
M  V30 3667 N 335.529 1.53961 0.336706 0
M  V30 3668 C 336.759 1.75229 1.09446 0
M  V30 3669 C 337.167 0.494602 1.82621 0
M  V30 3670 O 336.51 -0.543764 1.75468 0
M  V30 3671 C 336.572 2.88288 2.1478 0
M  V30 3672 C 336.236 4.27656 1.6112 0
M  V30 3673 C 337.233 5.08981 1.0599 0
M  V30 3674 C 334.918 4.74161 1.6576 0
M  V30 3675 C 336.912 6.34916 0.562129 0
M  V30 3676 C 334.599 6.00067 1.15595 0
M  V30 3677 C 335.597 6.80278 0.609147 0
M  V30 3678 O 335.285 8.03818 0.114999 0
M  V30 3679 H 335.017 0.588881 0.331956 0
M  V30 3680 H 337.571 2.01614 0.392566 0
M  V30 3681 H 335.801 2.57443 2.88548 0
M  V30 3682 H 337.49 2.97461 2.76174 0
M  V30 3683 H 338.256 4.74213 1.01722 0
M  V30 3684 H 334.135 4.11781 2.07261 0
M  V30 3685 H 337.679 6.9747 0.134668 0
M  V30 3686 H 333.576 6.3433 1.19566 0
M  V30 3687 H 334.344 8.18172 0.231651 0
M  V30 3688 N 337.007 -0.598083 1.45811 0
M  V30 3689 C 337.917 -1.73632 1.57763 0
M  V30 3690 C 338.933 -1.67763 0.461676 0
M  V30 3691 O 340.109 -1.87949 0.723685 0
M  V30 3692 C 337.174 -3.10114 1.55018 0
M  V30 3693 C 336.235 -3.27364 2.77726 0
M  V30 3694 C 335.468 -4.57334 2.75102 0
M  V30 3695 O 335.691 -5.40258 1.8297 0
M  V30 3696 O 334.625 -4.77502 3.66437 0
M  V30 3697 H 338.451 -1.66498 2.53992 0
M  V30 3698 H 336.036 -0.763308 1.28429 0
M  V30 3699 H 337.918 -3.9141 1.56129 0
M  V30 3700 H 336.593 -3.17718 0.619431 0
M  V30 3701 H 335.5 -2.45619 2.82174 0
M  V30 3702 H 336.833 -3.24641 3.69958 0
M  V30 3703 N 338.485 -1.33259 -0.841409 0
M  V30 3704 C 339.415 -1.25926 -1.96634 0
M  V30 3705 C 340.396 -0.140349 -1.6952 0
M  V30 3706 O 341.581 -0.329707 -1.91381 0
M  V30 3707 C 338.711 -0.99512 -3.32738 0
M  V30 3708 C 337.665 -2.0767 -3.74242 0
M  V30 3709 C 336.991 -1.66474 -5.08125 0
M  V30 3710 C 338.291 -3.49318 -3.88297 0
M  V30 3711 H 339.985 -2.20046 -2.03027 0
M  V30 3712 H 337.531 -1.05931 -0.975425 0
M  V30 3713 H 339.484 -0.930323 -4.11002 0
M  V30 3714 H 338.208 -0.0183004 -3.26595 0
M  V30 3715 H 336.867 -2.13187 -2.98239 0
M  V30 3716 H 336.515 -0.675012 -4.9845 0
M  V30 3717 H 336.215 -2.3885 -5.36865 0
M  V30 3718 H 337.739 -1.61455 -5.88867 0
M  V30 3719 H 339.153 -3.46316 -4.56879 0
M  V30 3720 H 337.55 -4.20158 -4.28471 0
M  V30 3721 H 338.62 -3.8801 -2.9082 0
M  V30 3722 N 339.963 1.05934 -1.16686 0
M  V30 3723 C 340.895 2.13468 -0.834503 0
M  V30 3724 C 341.908 1.62013 0.15984 0
M  V30 3725 O 343.097 1.7838 -0.0654228 0
M  V30 3726 C 340.197 3.3817 -0.222361 0
M  V30 3727 C 339.37 4.18928 -1.25771 0
M  V30 3728 C 338.429 5.21985 -0.664703 0
M  V30 3729 O 337.455 5.53334 -1.33453 0
M  V30 3730 N 338.657 5.77919 0.546834 0
M  V30 3731 H 341.422 2.42578 -1.75999 0
M  V30 3732 H 338.983 1.21967 -1.06469 0
M  V30 3733 H 340.975 4.04266 0.187472 0
M  V30 3734 H 339.545 3.06655 0.606758 0
M  V30 3735 H 338.765 3.48433 -1.84358 0
M  V30 3736 H 340.053 4.69687 -1.95631 0
M  V30 3737 H 339.451 5.54721 1.10912 0
M  V30 3738 H 338.008 6.45573 0.898829 0
M  V30 3739 N 341.441 0.965919 1.2453 0
M  V30 3740 C 342.688 0.626831 1.92554 0
M  V30 3741 C 343.016 -0.837739 1.75534 0
M  V30 3742 O 342.271 -1.61793 1.10098 0
M  V30 3743 C 342.57 0.945428 3.44669 0
M  V30 3744 C 342.236 2.39785 3.81856 0
M  V30 3745 C 340.898 2.79483 3.91718 0
M  V30 3746 C 343.25 3.34055 4.00071 0
M  V30 3747 C 340.578 4.12496 4.1721 0
M  V30 3748 C 342.93 4.66694 4.27059 0
M  V30 3749 C 341.594 5.06172 4.3514 0
M  V30 3750 H 340.864 0.229374 0.704605 0
M  V30 3751 H 343.511 1.21707 1.4785 0
M  V30 3752 H 341.816 0.272926 3.90848 0
M  V30 3753 H 343.513 0.661484 3.95507 0
M  V30 3754 H 340.103 2.08003 3.74743 0
M  V30 3755 H 344.287 3.04571 3.91855 0
M  V30 3756 H 339.543 4.42709 4.21685 0
M  V30 3757 H 343.717 5.3971 4.40097 0
M  V30 3758 H 341.344 6.09262 4.54646 0
M  V30 3759 N 342.919 -1.39368 0.735821 0
M  V30 3760 C 343.849 -2.33234 0.111506 0
M  V30 3761 C 344.83 -1.53954 -0.723334 0
M  V30 3762 O 346.015 -1.82344 -0.668147 0
M  V30 3763 C 343.145 -3.38057 -0.795917 0
M  V30 3764 C 342.099 -4.2795 -0.065172 0
M  V30 3765 C 341.425 -5.23479 -1.08967 0
M  V30 3766 C 342.725 -5.10741 1.09273 0
M  V30 3767 H 344.419 -2.85692 0.895571 0
M  V30 3768 H 341.965 -1.37364 0.432109 0
M  V30 3769 H 343.918 -4.02675 -1.24221 0
M  V30 3770 H 342.642 -2.8404 -1.61211 0
M  V30 3771 H 341.301 -3.64813 0.361511 0
M  V30 3772 H 340.949 -4.65758 -1.89944 0
M  V30 3773 H 340.649 -5.84472 -0.605489 0
M  V30 3774 H 342.173 -5.90974 -1.53565 0
M  V30 3775 H 343.587 -5.68699 0.724841 0
M  V30 3776 H 341.984 -5.8088 1.50659 0
M  V30 3777 H 343.054 -4.45525 1.91404 0
M  V30 3778 N 344.397 -0.483516 -1.5 0
M  V30 3779 C 345.643 0.0672592 -2.02688 0
M  V30 3780 C 345.976 1.38247 -1.36387 0
M  V30 3781 O 345.251 1.88131 -0.493675 0
M  V30 3782 C 345.534 0.238109 -3.59312 0
M  V30 3783 C 345.387 -1.099 -4.36168 0
M  V30 3784 C 346.706 0.986916 -4.28892 0
M  V30 3785 H 343.825 0.0229696 -0.736642 0
M  V30 3786 H 346.467 -0.631527 -1.79197 0
M  V30 3787 H 344.617 0.8333 -3.79458 0
M  V30 3788 H 346.289 -1.73172 -4.27562 0
M  V30 3789 H 344.532 -1.69261 -3.99416 0
M  V30 3790 H 345.203 -0.932954 -5.44059 0
M  V30 3791 H 347.679 0.482302 -4.13295 0
M  V30 3792 H 346.555 1.07527 -5.38265 0
M  V30 3793 H 346.816 2.0265 -3.92919 0
M  V30 3794 N 345.875 1.56104 -0.216619 0
M  V30 3795 C 346.822 2.2007 0.695531 0
M  V30 3796 C 347.792 1.15471 1.19397 0
M  V30 3797 O 348.977 1.43807 1.25396 0
M  V30 3798 C 346.117 2.88073 1.90021 0
M  V30 3799 C 345.23 4.07253 1.44113 0
M  V30 3800 C 344.365 4.63052 2.603 0
M  V30 3801 C 343.404 5.74545 2.11103 0
M  V30 3802 N 342.541 6.24656 3.20545 0
M  V30 3803 H 347.381 2.97655 0.143327 0
M  V30 3804 H 344.918 1.46982 0.0589934 0
M  V30 3805 H 346.876 3.25681 2.60745 0
M  V30 3806 H 345.506 2.13015 2.42538 0
M  V30 3807 H 344.558 3.75164 0.628999 0
M  V30 3808 H 345.87 4.8783 1.04036 0
M  V30 3809 H 345.024 5.03078 3.39113 0
M  V30 3810 H 343.763 3.81628 3.03663 0
M  V30 3811 H 342.768 5.34027 1.3075 0
M  V30 3812 H 343.993 6.57801 1.68746 0
M  V30 3813 H 341.939 5.46148 3.63399 0
M  V30 3814 H 341.856 7.00343 2.84704 0
M  V30 3815 H 343.124 6.69338 3.99508 0
M  V30 3816 N 347.353 -0.0568162 1.57498 0
M  V30 3817 C 348.285 -1.09292 2.01464 0
M  V30 3818 C 349.298 -1.34112 0.922913 0
M  V30 3819 O 350.487 -1.32089 1.20062 0
M  V30 3820 C 347.587 -2.44068 2.35125 0
M  V30 3821 C 346.76 -2.38995 3.66333 0
M  V30 3822 C 345.819 -3.55997 3.87495 0
M  V30 3823 O 344.845 -3.36746 4.58901 0
M  V30 3824 N 346.047 -4.76888 3.30996 0
M  V30 3825 H 348.812 -0.718386 2.90963 0
M  V30 3826 H 346.373 -0.245235 1.60032 0
M  V30 3827 H 348.365 -3.21011 2.46443 0
M  V30 3828 H 346.935 -2.73468 1.5144 0
M  V30 3829 H 346.155 -1.47336 3.65631 0
M  V30 3830 H 347.443 -2.3272 4.52458 0
M  V30 3831 H 346.841 -4.95431 2.73065 0
M  V30 3832 H 345.398 -5.51291 3.47738 0
M  V30 3833 N 348.832 -1.54138 -0.328536 0
M  V30 3834 C 349.765 -1.78014 -1.4278 0
M  V30 3835 C 350.743 -0.629889 -1.49904 0
M  V30 3836 O 351.927 -0.866763 -1.6739 0
M  V30 3837 C 349.054 -1.89225 -2.80912 0
M  V30 3838 C 348.1 -3.11483 -2.91343 0
M  V30 3839 S 348.933 -4.70201 -2.56263 0
M  V30 3840 C 350.089 -4.84312 -3.96476 0
M  V30 3841 H 350.322 -2.70974 -1.22313 0
M  V30 3842 H 347.855 -1.45197 -0.525084 0
M  V30 3843 H 349.813 -1.9637 -3.60485 0
M  V30 3844 H 348.474 -0.972518 -2.98665 0
M  V30 3845 H 347.667 -3.16046 -3.92595 0
M  V30 3846 H 347.269 -3.02642 -2.19736 0
M  V30 3847 H 349.561 -4.66643 -4.91173 0
M  V30 3848 H 350.504 -5.86411 -3.96898 0
M  V30 3849 H 350.912 -4.12652 -3.85199 0
M  V30 3850 N 350.31 0.590341 -1.46126 0
M  V30 3851 C 351.557 1.34882 -1.5104 0
M  V30 3852 C 351.885 1.93849 -0.159021 0
M  V30 3853 O 351.14 1.76544 0.844436 0
M  V30 3854 C 351.439 2.5032 -2.55097 0
M  V30 3855 C 351.105 2.09394 -3.99331 0
M  V30 3856 C 349.767 1.97947 -4.38601 0
M  V30 3857 C 352.119 1.77712 -4.89967 0
M  V30 3858 C 349.447 1.53065 -5.66381 0
M  V30 3859 C 351.799 1.34312 -6.18177 0
M  V30 3860 C 350.463 1.21436 -6.56361 0
M  V30 3861 H 349.733 0.493568 -0.552695 0
M  V30 3862 H 352.38 0.665539 -1.79563 0
M  V30 3863 H 350.685 3.24062 -2.20207 0
M  V30 3864 H 352.382 3.08541 -2.56132 0
M  V30 3865 H 348.972 2.19235 -3.68285 0
M  V30 3866 H 353.156 1.85445 -4.60352 0
M  V30 3867 H 348.412 1.41733 -5.94745 0
M  V30 3868 H 352.586 1.08849 -6.87841 0
M  V30 3869 H 350.213 0.864345 -7.5527 0
M  V30 3870 N 351.788 1.33704 0.83433 0
M  V30 3871 C 352.735 1.24335 1.94447 0
M  V30 3872 C 353.705 0.120991 1.65659 0
M  V30 3873 O 354.89 0.300035 1.88426 0
M  V30 3874 C 352.03 0.993124 3.30501 0
M  V30 3875 C 351.143 2.20217 3.71657 0
M  V30 3876 C 350.278 1.88572 4.96602 0
M  V30 3877 C 349.317 3.05683 5.30306 0
M  V30 3878 N 348.454 2.73997 6.46429 0
M  V30 3879 H 353.294 2.1928 2.01792 0
M  V30 3880 H 350.831 1.09035 0.987404 0
M  V30 3881 H 352.789 0.828467 4.08892 0
M  V30 3882 H 351.419 0.0803902 3.227 0
M  V30 3883 H 350.471 2.47642 2.88752 0
M  V30 3884 H 351.783 3.07752 3.92543 0
M  V30 3885 H 350.937 1.68776 5.82752 0
M  V30 3886 H 349.676 0.982799 4.77695 0
M  V30 3887 H 348.681 3.26088 4.42659 0
M  V30 3888 H 349.906 3.96737 5.51159 0
M  V30 3889 H 347.852 1.86268 6.28999 0
M  V30 3890 H 347.769 3.55064 6.67432 0
M  V30 3891 H 349.037 2.57679 7.35678 0
M  V30 3892 N 353.266 -1.05314 1.17247 0
M  V30 3893 C 354.682 -1.30452 0.919473 0
M  V30 3894 C 354.882 -1.9703 -0.42209 0
M  V30 3895 O 353.938 -2.24311 -1.15935 0
M  V30 3896 C 355.251 -2.17551 2.07586 0
M  V30 3897 C 356.799 -2.30937 2.11275 0
M  V30 3898 C 357.274 -3.21396 3.26296 0
M  V30 3899 N 358.765 -3.28981 3.26076 0
M  V30 3900 C 359.5 -3.99095 4.11716 0
M  V30 3901 N 358.996 -4.71648 5.07465 0
M  V30 3902 N 360.789 -3.95247 3.9967 0
M  V30 3903 H 352.94 -0.604988 2.03602 0
M  V30 3904 H 355.203 -0.329368 0.888944 0
M  V30 3905 H 354.909 -1.75921 3.0454 0
M  V30 3906 H 354.783 -3.18182 2.02584 0
M  V30 3907 H 357.17 -2.71809 1.14907 0
M  V30 3908 H 357.251 -1.2994 2.20339 0
M  V30 3909 H 356.895 -2.81238 4.22927 0
M  V30 3910 H 356.825 -4.22395 3.14467 0
M  V30 3911 H 359.316 -2.77286 2.5675 0
M  V30 3912 H 359.629 -5.22705 5.6921 0
M  V30 3913 H 357.974 -4.70594 5.11435 0
M  V30 3914 H 361.165 -3.37691 3.24164 0
M  V30 3915 H 361.338 -4.4962 4.66632 0
M  V30 3916 N 354.744 -0.972509 -1.24016 0
M  V30 3917 C 355.692 -0.498562 -2.27194 0
M  V30 3918 C 356.686 0.440372 -1.63576 0
M  V30 3919 O 357.892 0.315133 -1.7722 0
M  V30 3920 H 354.267 -0.142775 -0.738322 0
M  V30 3921 H 356.238 -1.38065 -2.64539 0
M  V30 3922 C 354.987 0.191072 -3.47175 0
M  V30 3923 H 354.31 -0.522318 -3.96373 0
M  V30 3924 H 355.75 0.486445 -4.212 0
M  V30 3925 C 354.209 1.41967 -3.05527 0
M  V30 3926 O 354.739 2.51642 -3.13112 0
M  V30 3927 N 352.945 1.28746 -2.60524 0
M  V30 3928 H 352.492 0.395089 -2.54552 0
M  V30 3929 H 352.45 2.11061 -2.33025 0
M  V30 3930 N 356.222 1.38976 -0.743202 0
M  V30 3931 C 357.633 1.83123 -0.363732 0
M  V30 3932 C 357.984 1.6205 1.10609 0
M  V30 3933 O 357.109 1.11606 1.854 0
M  V30 3934 C 357.704 3.32439 -0.653408 0
M  V30 3935 C 356.263 3.74974 -0.327338 0
M  V30 3936 C 355.41 2.61878 -0.911875 0
M  V30 3937 H 358.361 1.27852 -0.940191 0
M  V30 3938 H 358.382 3.80432 0.0720031 0
M  V30 3939 H 357.894 3.47745 -1.72323 0
M  V30 3940 H 355.995 3.65252 0.736314 0
M  V30 3941 H 356.108 4.72106 -0.815631 0
M  V30 3942 H 354.472 2.52448 -0.337944 0
M  V30 3943 H 355.255 2.79987 -1.98651 0
M  V30 3944 N 357.7 0.491464 1.49741 0
M  V30 3945 C 358.925 -0.0557177 2.07325 0
M  V30 3946 C 359.35 -1.30925 1.35056 0
M  V30 3947 O 358.708 -1.76733 0.404365 0
M  V30 3948 C 358.756 -0.302074 3.59333 0
M  V30 3949 O 357.86 -1.37868 3.88672 0
M  V30 3950 H 357.201 0.0219956 0.663636 0
M  V30 3951 H 359.731 0.688352 1.92673 0
M  V30 3952 H 359.741 -0.536464 4.04458 0
M  V30 3953 H 358.416 0.61383 4.11345 0
M  V30 3954 H 356.993 -1.12999 3.55367 0
M  V30 3955 N 359.178 -1.55987 0.224894 0
M  V30 3956 C 360.128 -2.17076 -0.697296 0
M  V30 3957 C 361.112 -1.12006 -1.15514 0
M  V30 3958 O 362.304 -1.37985 -1.10857 0
M  V30 3959 C 359.433 -2.85679 -1.90374 0
M  V30 3960 C 358.519 -3.97977 -1.46543 0
M  V30 3961 N 358.91 -5.00359 -0.739909 0
M  V30 3962 C 357.208 -4.10128 -1.75245 0
M  V30 3963 C 357.909 -5.79407 -0.515939 0
M  V30 3964 N 356.885 -5.32892 -1.07364 0
M  V30 3965 H 360.687 -2.93592 -0.134594 0
M  V30 3966 H 358.201 -1.62379 0.0262885 0
M  V30 3967 H 360.198 -3.27857 -2.57518 0
M  V30 3968 H 358.858 -2.1066 -2.47088 0
M  V30 3969 H 359.869 -5.16412 -0.392253 0
M  V30 3970 H 356.546 -3.46263 -2.33255 0
M  V30 3971 H 357.936 -6.71872 0.0617349 0
M  V30 3972 N 360.656 0.0484629 -1.57525 0
M  V30 3973 C 362.072 0.40375 -1.54409 0
M  V30 3974 C 362.272 1.77786 -0.948384 0
M  V30 3975 O 361.328 2.46189 -0.560983 0
M  V30 3976 C 362.641 0.323394 -2.98956 0
M  V30 3977 C 364.189 0.401892 -3.10409 0
M  V30 3978 C 364.664 0.351195 -4.56652 0
M  V30 3979 N 366.155 0.410576 -4.61377 0
M  V30 3980 C 366.89 0.393933 -5.72045 0
M  V30 3981 N 366.386 0.330724 -6.9201 0
M  V30 3982 N 368.179 0.442227 -5.60358 0
M  V30 3983 H 360.33 -0.851016 -1.94606 0
M  V30 3984 H 362.593 -0.321721 -0.89174 0
M  V30 3985 H 362.299 -0.62011 -3.4619 0
M  V30 3986 H 362.173 1.12463 -3.60044 0
M  V30 3987 H 364.56 1.33582 -2.63134 0
M  V30 3988 H 364.641 -0.428342 -2.52188 0
M  V30 3989 H 364.285 -0.578987 -5.04589 0
M  V30 3990 H 364.215 1.19928 -5.12762 0
M  V30 3991 H 366.706 0.462729 -3.75056 0
M  V30 3992 H 367.019 0.322592 -7.72126 0
M  V30 3993 H 365.364 0.29706 -6.94365 0
M  V30 3994 H 368.555 0.489464 -4.65534 0
M  V30 3995 H 368.728 0.425788 -6.466 0
M  V30 3996 N 362.134 1.5431 0.320358 0
M  V30 3997 C 363.545 1.63872 0.894594 0
M  V30 3998 C 363.896 0.534847 1.88769 0
M  V30 3999 O 363.021 -0.331732 2.13842 0
M  V30 4000 C 363.616 2.97049 1.62934 0
M  V30 4001 C 362.175 3.08796 2.15226 0
M  V30 4002 C 361.322 2.59456 0.978671 0
M  V30 4003 H 364.273 1.58398 0.0978544 0
M  V30 4004 H 364.294 2.87388 2.49376 0
M  V30 4005 H 363.806 3.7737 0.906302 0
M  V30 4006 H 361.907 2.33156 2.90636 0
M  V30 4007 H 362.02 4.14649 2.40006 0
M  V30 4008 H 360.384 2.1543 1.35875 0
M  V30 4009 H 361.167 3.42237 0.269895 0
M  V30 4010 N 363.613 -0.582584 1.46437 0
M  V30 4011 C 364.838 -1.37168 1.55563 0
M  V30 4012 C 365.263 -1.87061 0.19743 0
M  V30 4013 O 364.621 -1.61572 -0.822451 0
M  V30 4014 C 364.669 -2.53511 2.56446 0
M  V30 4015 O 363.773 -3.54953 2.09958 0
M  V30 4016 H 363.114 -0.408494 0.523477 0
M  V30 4017 H 365.644 -0.706646 1.9201 0
M  V30 4018 H 365.654 -3.00426 2.76058 0
M  V30 4019 H 364.329 -2.16549 3.55076 0
M  V30 4020 H 362.906 -3.14516 2.00334 0
M  V30 4021 N 365.091 -1.34144 -0.827227 0
M  V30 4022 C 366.054 -1.25264 -1.91942 0
M  V30 4023 C 367.054 -0.168866 -1.59911 0
M  V30 4024 O 368.244 -0.421198 -1.69031 0
M  V30 4025 C 365.376 -0.932952 -3.27885 0
M  V30 4026 H 366.569 -2.22357 -2.0124 0
M  V30 4027 H 364.122 -1.1837 -1.0207 0
M  V30 4028 H 364.857 0.0349917 -3.24281 0
M  V30 4029 H 364.642 -1.71682 -3.52516 0
M  V30 4030 H 366.132 -0.895874 -4.07877 0
M  V30 4031 N 366.569 1.04691 -1.17803 0
M  V30 4032 C 367.797 1.81446 -0.99423 0
M  V30 4033 C 368.212 1.83174 0.457459 0
M  V30 4034 O 367.569 1.26265 1.31771 0
M  V30 4035 C 367.62 3.27334 -1.5341 0
M  V30 4036 O 367.341 3.25798 -2.92895 0
M  V30 4037 C 368.842 4.20759 -1.39559 0
M  V30 4038 H 366.062 0.571599 -0.351447 0
M  V30 4039 H 368.606 1.31982 -1.56208 0
M  V30 4040 H 366.761 3.74052 -1.00815 0
M  V30 4041 H 367.175 4.17144 -3.17949 0
M  V30 4042 H 368.649 5.21084 -1.82141 0
M  V30 4043 H 369.126 4.37856 -0.343394 0
M  V30 4044 H 369.732 3.79901 -1.91195 0
M  V30 4045 N 368.047 0.979072 1.23499 0
M  V30 4046 C 369.275 0.665202 1.95915 0
M  V30 4047 C 369.69 -0.767571 1.72493 0
M  V30 4048 O 369.047 -1.51635 1.01554 0
M  V30 4049 C 369.098 0.944438 3.48945 0
M  V30 4050 O 368.819 2.3209 3.71572 0
M  V30 4051 C 370.32 0.646336 4.38563 0
M  V30 4052 H 367.54 0.247218 0.623798 0
M  V30 4053 H 370.084 1.31009 1.57025 0
M  V30 4054 H 368.239 0.345575 3.85856 0
M  V30 4055 H 368.653 2.40957 4.65876 0
M  V30 4056 H 370.127 0.892091 5.44744 0
M  V30 4057 H 370.604 -0.419575 4.37191 0
M  V30 4058 H 371.21 1.22562 4.07258 0
M  V30 4059 N 369.525 -1.3858 0.750561 0
M  V30 4060 C 370.455 -2.33102 0.136237 0
M  V30 4061 C 371.436 -1.54713 -0.706965 0
M  V30 4062 O 372.621 -1.83043 -0.648769 0
M  V30 4063 C 369.751 -3.38882 -0.760017 0
M  V30 4064 C 368.705 -4.27995 -0.0197785 0
M  V30 4065 C 368.031 -5.24605 -1.03408 0
M  V30 4066 C 369.331 -5.09554 1.14684 0
M  V30 4067 H 371.025 -2.84726 0.925822 0
M  V30 4068 H 368.571 -1.36898 0.446654 0
M  V30 4069 H 370.524 -4.0397 -1.19943 0
M  V30 4070 H 369.248 -2.85734 -1.58189 0
M  V30 4071 H 367.907 -3.64409 0.400184 0
M  V30 4072 H 367.555 -4.67746 -1.84994 0
M  V30 4073 H 367.255 -5.85081 -0.543464 0
M  V30 4074 H 368.779 -5.9257 -1.47288 0
M  V30 4075 H 370.193 -5.67899 0.785118 0
M  V30 4076 H 368.59 -5.7925 1.56812 0
M  V30 4077 H 369.66 -4.4347 1.96118 0
M  V30 4078 N 371.003 -0.499398 -1.49478 0
M  V30 4079 C 371.933 0.269244 -2.31943 0
M  V30 4080 C 372.914 0.964054 -1.40143 0
M  V30 4081 O 374.099 0.955767 -1.69052 0
M  V30 4082 C 371.229 1.33504 -3.20615 0
M  V30 4083 C 370.183 0.760202 -4.21195 0
M  V30 4084 C 369.509 1.9264 -4.98792 0
M  V30 4085 C 370.809 -0.247661 -5.21712 0
M  V30 4086 H 372.503 -0.419082 -2.96452 0
M  V30 4087 H 370.049 -0.202988 -1.42562 0
M  V30 4088 H 372.002 1.88048 -3.77115 0
M  V30 4089 H 370.726 2.05253 -2.54045 0
M  V30 4090 H 369.385 0.23653 -3.65836 0
M  V30 4091 H 369.033 2.63154 -4.28671 0
M  V30 4092 H 368.733 1.54785 -5.66847 0
M  V30 4093 H 370.257 2.4762 -5.58137 0
M  V30 4094 H 371.671 0.209579 -5.72917 0
M  V30 4095 H 370.068 -0.541962 -5.97648 0
M  V30 4096 H 371.138 -1.16409 -4.7072 0
M  V30 4097 N 372.481 1.55866 -0.233164 0
M  V30 4098 C 373.706 2.03449 0.402906 0
M  V30 4099 C 374.131 1.11166 1.51736 0
M  V30 4100 O 373.489 0.101996 1.81013 0
M  V30 4101 C 373.537 3.49165 0.9009 0
M  V30 4102 O 372.641 3.60019 2.01147 0
M  V30 4103 H 371.982 0.657913 0.0897025 0
M  V30 4104 H 374.512 2.01493 -0.355201 0
M  V30 4105 H 374.522 3.89716 1.2077 0
M  V30 4106 H 373.197 4.15813 0.0852889 0
M  V30 4107 H 371.774 3.3136 1.71042 0
M  V30 4108 N 373.959 -0.0401083 1.57549 0
M  V30 4109 C 375.375 -0.395556 1.54621 0
M  V30 4110 C 375.575 -1.77281 0.957799 0
M  V30 4111 O 374.631 -2.45888 0.574031 0
M  V30 4112 C 375.944 -0.307535 2.99123 0
M  V30 4113 C 377.492 -0.385425 3.10618 0
M  V30 4114 C 377.967 -0.326973 4.56831 0
M  V30 4115 N 379.458 -0.386102 4.61588 0
M  V30 4116 C 380.193 -0.363591 5.72246 0
M  V30 4117 N 379.689 -0.29402 6.92176 0
M  V30 4118 N 381.482 -0.412503 5.60584 0
M  V30 4119 H 373.633 0.861325 1.94152 0
M  V30 4120 H 375.896 0.326445 0.890021 0
M  V30 4121 H 375.602 0.638461 3.45856 0
M  V30 4122 H 375.476 -1.10552 3.60636 0
M  V30 4123 H 377.863 -1.32185 2.63839 0
M  V30 4124 H 377.944 0.44171 2.51957 0
M  V30 4125 H 377.588 0.605738 5.04275 0
M  V30 4126 H 377.518 -1.17207 5.13391 0
M  V30 4127 H 380.009 -0.442832 3.75296 0
M  V30 4128 H 380.322 -0.28164 7.72287 0
M  V30 4129 H 378.667 -0.260232 6.94513 0
M  V30 4130 H 381.858 -0.464769 4.65787 0
M  V30 4131 H 382.031 -0.391492 6.46816 0
M  V30 4132 N 375.437 -1.54477 -0.31217 0
M  V30 4133 C 376.685 -1.72884 -1.04668 0
M  V30 4134 C 377.006 -0.511477 -1.88173 0
M  V30 4135 O 376.276 0.474407 -1.90069 0
M  V30 4136 H 374.856 -0.637461 -0.389425 0
M  V30 4137 H 377.518 -1.91807 -0.345852 0
M  V30 4138 H 376.614 -2.61334 -1.70619 0
M  V30 4139 N 376.915 0.57481 -1.46744 0
M  V30 4140 C 378.164 1.32898 -1.51727 0
M  V30 4141 C 378.477 1.948 -0.176692 0
M  V30 4142 O 379.683 2.71299 -0.104385 0
M  V30 4143 C 378.139 2.40901 -2.67385 0
M  V30 4144 C 377.747 1.85266 -4.07898 0
M  V30 4145 C 379.491 3.17609 -2.81646 0
M  V30 4146 C 377.398 2.90945 -5.14883 0
M  V30 4147 H 376.328 0.499631 -0.564699 0
M  V30 4148 H 378.979 0.612536 -1.72975 0
M  V30 4149 H 377.361 3.15379 -2.39483 0
M  V30 4150 H 378.535 1.17278 -4.45626 0
M  V30 4151 H 376.85 1.21199 -3.98371 0
M  V30 4152 H 379.447 3.96493 -3.58744 0
M  V30 4153 H 379.79 3.70696 -1.89448 0
M  V30 4154 H 380.323 2.50239 -3.09233 0
M  V30 4155 H 377.062 2.42736 -6.089 0
M  V30 4156 H 376.582 3.57398 -4.81691 0
M  V30 4157 H 378.261 3.54755 -5.41071 0
M  V30 4158 N 378.394 1.34581 0.820102 0
M  V30 4159 C 379.64 1.27285 1.57881 0
M  V30 4160 C 379.973 -0.156137 1.93571 0
M  V30 4161 O 379.248 -1.10222 1.60254 0
M  V30 4162 C 379.531 2.16639 2.87645 0
M  V30 4163 C 379.384 3.68088 2.58517 0
M  V30 4164 C 380.703 2.05378 3.8924 0
M  V30 4165 H 377.822 0.463714 0.572833 0
M  V30 4166 H 380.464 1.64859 0.944539 0
M  V30 4167 H 378.614 1.84725 3.41773 0
M  V30 4168 H 380.286 4.10382 2.10676 0
M  V30 4169 H 378.529 3.89038 1.91917 0
M  V30 4170 H 379.2 4.2598 3.51063 0
M  V30 4171 H 381.676 2.33404 3.44473 0
M  V30 4172 H 380.552 2.7012 4.77835 0
M  V30 4173 H 380.813 1.0316 4.29896 0
M  V30 4174 N 379.872 -1.04064 1.18357 0
M  V30 4175 C 380.835 -2.10243 0.912707 0
M  V30 4176 C 381.835 -1.60477 -0.101928 0
M  V30 4177 O 383.025 -1.73703 0.131517 0
M  V30 4178 C 380.157 -3.38893 0.369387 0
M  V30 4179 H 381.35 -2.35706 1.85426 0
M  V30 4180 H 378.903 -1.20489 0.995594 0
M  V30 4181 H 379.638 -3.19094 -0.578776 0
M  V30 4182 H 379.423 -3.76331 1.1008 0
M  V30 4183 H 380.913 -4.17128 0.198575 0
M  V30 4184 N 381.35 -0.985608 -1.22978 0
M  V30 4185 C 382.766 -0.695104 -1.43668 0
M  V30 4186 C 382.966 0.736866 -1.87543 0
M  V30 4187 O 382.022 1.50868 -2.02473 0
M  V30 4188 C 383.335 -1.69447 -2.48412 0
M  V30 4189 C 384.883 -1.70909 -2.62219 0
M  V30 4190 C 385.358 -2.6969 -3.70178 0
M  V30 4191 N 386.849 -2.6824 -3.77626 0
M  V30 4192 C 387.584 -3.41339 -4.60733 0
M  V30 4193 N 387.08 -4.24015 -5.4789 0
M  V30 4194 N 388.873 -3.30079 -4.54977 0
M  V30 4195 H 381.024 -1.91054 -0.928016 0
M  V30 4196 H 383.287 -0.823553 -0.469536 0
M  V30 4197 H 382.993 -2.7188 -2.23102 0
M  V30 4198 H 382.867 -1.48147 -3.46889 0
M  V30 4199 H 385.254 -0.691785 -2.86877 0
M  V30 4200 H 385.335 -1.96276 -1.6404 0
M  V30 4201 H 384.979 -3.71566 -3.46268 0
M  V30 4202 H 384.909 -2.41595 -4.67909 0
M  V30 4203 H 387.4 -2.08243 -3.15346 0
M  V30 4204 H 387.713 -4.76636 -6.08308 0
M  V30 4205 H 386.058 -4.28104 -5.47496 0
M  V30 4206 H 389.249 -2.64937 -3.85909 0
M  V30 4207 H 389.422 -3.87308 -5.19516 0
M  V30 4208 N 382.828 1.3818 -0.7579 0
M  V30 4209 C 383.758 2.33027 -0.148597 0
M  V30 4210 C 384.739 1.55085 0.69875 0
M  V30 4211 O 385.924 1.83384 0.639053 0
M  V30 4212 C 383.054 3.3928 0.742034 0
M  V30 4213 C 382.008 4.28 -0.00291946 0
M  V30 4214 C 381.334 5.25146 1.00625 0
M  V30 4215 C 382.634 5.08938 -1.17385 0
M  V30 4216 H 384.328 2.84231 -0.940909 0
M  V30 4217 H 381.874 1.36659 -0.453908 0
M  V30 4218 H 383.827 4.046 1.17799 0
M  V30 4219 H 382.551 2.86569 1.56671 0
M  V30 4220 H 381.21 3.64192 -0.419504 0
M  V30 4221 H 380.858 4.68721 1.8251 0
M  V30 4222 H 380.558 5.85361 0.512428 0
M  V30 4223 H 382.082 5.93342 1.44143 0
M  V30 4224 H 383.496 5.67474 -0.815224 0
M  V30 4225 H 381.893 5.7841 -1.59882 0
M  V30 4226 H 382.963 4.42424 -1.98468 0
M  V30 4227 N 384.306 0.507319 1.49211 0
M  V30 4228 C 385.552 -0.0350047 2.0277 0
M  V30 4229 C 385.885 -1.3606 1.38569 0
M  V30 4230 O 385.16 -1.87321 0.523542 0
M  V30 4231 C 385.443 -0.180916 3.59645 0
M  V30 4232 C 385.296 1.16825 4.34364 0
M  V30 4233 C 386.615 -0.918558 4.30407 0
M  V30 4234 H 383.734 -0.0112473 0.736914 0
M  V30 4235 H 386.376 0.659956 1.7817 0
M  V30 4236 H 384.526 -0.772826 3.80736 0
M  V30 4237 H 386.198 1.79952 4.24753 0
M  V30 4238 H 384.441 1.75594 3.96673 0
M  V30 4239 H 385.112 1.01939 5.42506 0
M  V30 4240 H 387.588 -0.41649 4.1401 0
M  V30 4241 H 386.464 -0.989505 5.39907 0
M  V30 4242 H 386.725 -1.96373 3.96093 0
M  V30 4243 N 385.784 -1.5574 0.241426 0
M  V30 4244 C 386.716 -2.18469 -0.693091 0
M  V30 4245 C 387.729 -1.15942 -1.14286 0
M  V30 4246 O 388.918 -1.42832 -1.07058 0
M  V30 4247 C 386.018 -2.7696 -1.95311 0
M  V30 4248 C 385.191 -4.04853 -1.65568 0
M  V30 4249 C 384.25 -4.47715 -2.76474 0
M  V30 4250 O 383.276 -5.14205 -2.44094 0
M  V30 4251 N 384.478 -4.15044 -4.05855 0
M  V30 4252 H 387.243 -2.99292 -0.156388 0
M  V30 4253 H 384.804 -1.61784 0.0611752 0
M  V30 4254 H 386.796 -3.02594 -2.68736 0
M  V30 4255 H 385.366 -2.00326 -2.39975 0
M  V30 4256 H 384.586 -3.86865 -0.756886 0
M  V30 4257 H 385.874 -4.88246 -1.43153 0
M  V30 4258 H 385.272 -3.61654 -4.34998 0
M  V30 4259 H 383.829 -4.45526 -4.75762 0
M  V30 4260 N 387.262 0.0317525 -1.57568 0
M  V30 4261 C 388.209 1.0332 -2.06382 0
M  V30 4262 C 389.179 1.36082 -0.952414 0
M  V30 4263 O 390.364 1.46466 -1.2228 0
M  V30 4264 C 387.504 2.32989 -2.54578 0
M  V30 4265 C 386.617 2.0641 -3.79498 0
M  V30 4266 C 385.752 3.2993 -4.16317 0
M  V30 4267 C 384.791 2.98893 -5.34162 0
M  V30 4268 N 383.928 4.14857 -5.66426 0
M  V30 4269 H 388.768 0.609982 -2.9169 0
M  V30 4270 H 386.305 0.289573 -1.44222 0
M  V30 4271 H 388.263 3.0875 -2.80587 0
M  V30 4272 H 386.893 2.73039 -1.7219 0
M  V30 4273 H 385.945 1.21158 -3.6059 0
M  V30 4274 H 387.257 1.79513 -4.65378 0
M  V30 4275 H 386.411 4.1406 -4.4344 0
M  V30 4276 H 385.15 3.59938 -3.29083 0
M  V30 4277 H 384.155 2.13164 -5.06795 0
M  V30 4278 H 385.38 2.70165 -6.23047 0
M  V30 4279 H 383.326 4.44821 -4.82151 0
M  V30 4280 H 383.243 3.91374 -6.4681 0
M  V30 4281 H 384.511 4.99868 -5.98124 0
M  V30 4282 N 388.74 1.54641 0.303973 0
M  V30 4283 C 389.98 1.75516 1.04755 0
M  V30 4284 C 390.344 0.528211 1.84591 0
M  V30 4285 O 391.545 0.614645 2.61678 0
M  V30 4286 C 389.816 3.00685 1.93193 0
M  V30 4287 S 391.375 3.42549 2.74237 0
M  V30 4288 H 388.193 0.616987 0.353339 0
M  V30 4289 H 390.795 1.92842 0.321292 0
M  V30 4290 H 389.499 3.8811 1.33411 0
M  V30 4291 H 389.03 2.85937 2.70191 0
M  V30 4292 H 391.045 2.99386 3.95705 0
M  V30 4293 N 390.218 -0.567019 1.47046 0
M  V30 4294 C 391.148 -1.68482 1.61667 0
M  V30 4295 C 392.129 -1.6358 0.466418 0
M  V30 4296 O 393.314 -1.81354 0.694574 0
M  V30 4297 C 390.444 -3.07124 1.62148 0
M  V30 4298 C 389.398 -3.26867 2.76301 0
M  V30 4299 C 388.724 -4.66196 2.61849 0
M  V30 4300 C 390.024 -3.13186 4.17986 0
M  V30 4301 H 391.718 -1.56502 2.5524 0
M  V30 4302 H 389.264 -0.751486 1.22836 0
M  V30 4303 H 391.217 -3.8516 1.70968 0
M  V30 4304 H 389.941 -3.2004 0.651287 0
M  V30 4305 H 388.6 -2.51237 2.66975 0
M  V30 4306 H 388.248 -4.75898 1.62879 0
M  V30 4307 H 387.948 -4.80356 3.38425 0
M  V30 4308 H 389.472 -5.46379 2.72584 0
M  V30 4309 H 390.886 -3.81049 4.2834 0
M  V30 4310 H 389.283 -3.3886 4.95272 0
M  V30 4311 H 390.353 -2.10057 4.3704 0
M  V30 4312 N 391.696 -1.35014 -0.812953 0
M  V30 4313 C 393.107 -1.25035 -1.38648 0
M  V30 4314 C 393.458 0.119967 -1.95833 0
M  V30 4315 O 392.583 1.02069 -1.90816 0
M  V30 4316 C 393.178 -2.26394 -2.52054 0
M  V30 4317 C 391.737 -2.20175 -3.05287 0
M  V30 4318 C 390.884 -2.12451 -1.78213 0
M  V30 4319 H 393.835 -1.46235 -0.616516 0
M  V30 4320 H 393.856 -1.88672 -3.30429 0
M  V30 4321 H 393.368 -3.26116 -2.10404 0
M  V30 4322 H 391.469 -1.23841 -3.51417 0
M  V30 4323 H 391.582 -3.11863 -3.63701 0
M  V30 4324 H 389.946 -1.58328 -1.9951 0
M  V30 4325 H 390.729 -3.14024 -1.38723 0
M  V30 4326 N 393.175 1.03435 -1.18907 0
M  V30 4327 C 394.586 1.58195 -0.991523 0
M  V30 4328 C 394.937 1.90801 0.457081 0
M  V30 4329 O 394.062 1.70272 1.33553 0
M  V30 4330 C 394.657 2.87432 -1.79355 0
M  V30 4331 C 393.216 3.38785 -1.64017 0
M  V30 4332 C 392.363 2.12292 -1.78402 0
M  V30 4333 H 395.314 0.860299 -1.33359 0
M  V30 4334 H 395.335 3.58096 -1.28638 0
M  V30 4335 H 394.847 2.63669 -2.84781 0
M  V30 4336 H 392.948 3.67547 -0.611536 0
M  V30 4337 H 393.061 4.12186 -2.44212 0
M  V30 4338 H 391.425 2.23901 -1.2141 0
M  V30 4339 H 392.208 1.90977 -2.85277 0
M  V30 4340 N 394.653 0.992116 1.22453 0
M  V30 4341 C 395.563 0.55065 2.28046 0
M  V30 4342 C 396.579 -0.400189 1.69335 0
M  V30 4343 O 397.755 -0.267215 1.99619 0
M  V30 4344 C 394.82 -0.128496 3.46462 0
M  V30 4345 C 393.881 0.865208 4.20491 0
M  V30 4346 C 393.114 0.218377 5.33253 0
M  V30 4347 O 393.337 -0.987894 5.6178 0
M  V30 4348 O 392.271 0.922845 5.94783 0
M  V30 4349 H 396.097 1.4291 2.67975 0
M  V30 4350 H 393.682 0.760326 1.28606 0
M  V30 4351 H 395.564 -0.508947 4.18315 0
M  V30 4352 H 394.239 -0.981526 3.0846 0
M  V30 4353 H 393.146 1.29658 3.50913 0
M  V30 4354 H 394.479 1.68741 4.62371 0
M  V30 4355 N 396.131 -1.37776 0.765217 0
M  V30 4356 C 397.38 -1.99092 0.323307 0
M  V30 4357 C 397.693 -1.61434 -1.10446 0
M  V30 4358 O 398.899 -2.15805 -1.64743 0
M  V30 4359 C 397.355 -3.56019 0.527098 0
M  V30 4360 C 396.963 -4.0262 1.96471 0
M  V30 4361 C 398.707 -4.2424 0.148483 0
M  V30 4362 C 396.614 -5.52233 2.11644 0
M  V30 4363 H 395.544 -0.744846 0.117137 0
M  V30 4364 H 398.195 -1.57391 0.943417 0
M  V30 4365 H 396.577 -3.95667 -0.162372 0
M  V30 4366 H 397.751 -3.74234 2.68859 0
M  V30 4367 H 396.066 -3.47161 2.29931 0
M  V30 4368 H 398.663 -5.34159 0.240456 0
M  V30 4369 H 399.006 -4.06446 -0.900422 0
M  V30 4370 H 399.539 -3.89872 0.79025 0
M  V30 4371 H 396.278 -5.74945 3.1483 0
M  V30 4372 H 395.798 -5.82324 1.4373 0
M  V30 4373 H 397.477 -6.18106 1.91193 0
M  V30 4374 N 397.609 -0.515225 -1.4894 0
M  V30 4375 C 398.858 0.0261361 -2.01683 0
M  V30 4376 C 399.171 1.36719 -1.39883 0
M  V30 4377 O 400.377 1.99606 -1.84037 0
M  V30 4378 C 398.833 0.0970111 -3.59769 0
M  V30 4379 C 398.441 -1.23825 -4.30548 0
M  V30 4380 C 400.185 0.587981 -4.20408 0
M  V30 4381 C 398.092 -1.12877 -5.80528 0
M  V30 4382 H 397.022 0.0135398 -0.753878 0
M  V30 4383 H 399.673 -0.656787 -1.71343 0
M  V30 4384 H 398.055 0.844694 -3.86886 0
M  V30 4385 H 399.229 -2.00034 -4.15118 0
M  V30 4386 H 397.544 -1.66379 -3.81716 0
M  V30 4387 H 400.141 0.68763 -5.3026 0
M  V30 4388 H 400.484 1.59026 -3.84729 0
M  V30 4389 H 401.017 -0.103582 -3.97665 0
M  V30 4390 H 397.756 -2.10575 -6.20756 0
M  V30 4391 H 397.276 -0.407799 -5.98412 0
M  V30 4392 H 398.955 -0.813332 -6.41868 0
M  V30 4393 N 399.087 1.5561 -0.249682 0
M  V30 4394 C 400.02 2.17537 0.689408 0
M  V30 4395 C 400.998 1.12829 1.17083 0
M  V30 4396 O 402.182 1.41229 1.24846 0
M  V30 4397 C 399.309 2.77828 1.93725 0
M  V30 4398 C 398.355 3.95615 1.59346 0
M  V30 4399 S 399.188 5.30988 0.69367 0
M  V30 4400 C 400.344 5.94734 1.95046 0
M  V30 4401 H 400.577 2.96852 0.163142 0
M  V30 4402 H 398.11 1.54362 -0.0341166 0
M  V30 4403 H 400.068 3.13199 2.65361 0
M  V30 4404 H 398.729 1.98454 2.43465 0
M  V30 4405 H 397.922 4.364 2.52132 0
M  V30 4406 H 397.524 3.61535 0.957512 0
M  V30 4407 H 399.816 6.12419 2.89739 0
M  V30 4408 H 400.759 6.90109 1.58604 0
M  V30 4409 H 401.167 5.23832 2.10381 0
M  V30 4410 N 400.565 -0.0233959 1.57583 0
M  V30 4411 C 401.475 -1.03907 2.10334 0
M  V30 4412 C 402.491 -1.39257 1.04323 0
M  V30 4413 O 403.667 -1.48462 1.36091 0
M  V30 4414 C 400.732 -2.31938 2.57693 0
M  V30 4415 C 399.793 -2.03117 3.78209 0
M  V30 4416 C 399.026 -3.25043 4.233 0
M  V30 4417 O 399.249 -4.35916 3.67876 0
M  V30 4418 O 398.183 -3.10411 5.15683 0
M  V30 4419 H 402.009 -0.620748 2.97288 0
M  V30 4420 H 399.594 -0.240743 1.47448 0
M  V30 4421 H 401.476 -3.07196 2.88458 0
M  V30 4422 H 400.151 -2.73055 1.73847 0
M  V30 4423 H 399.058 -1.25408 3.52454 0
M  V30 4424 H 400.391 -1.66852 4.63056 0
M  V30 4425 N 402.043 -1.548 -0.295768 0
M  V30 4426 C 403.273 -1.78069 -1.04762 0
M  V30 4427 C 403.681 -0.542847 -1.81245 0
M  V30 4428 O 403.024 0.497051 -1.76848 0
M  V30 4429 C 403.086 -2.93881 -2.07061 0
M  V30 4430 C 402.75 -4.31777 -1.49725 0
M  V30 4431 C 403.747 -5.11613 -0.924581 0
M  V30 4432 C 401.432 -4.78389 -1.5313 0
M  V30 4433 C 403.426 -6.36184 -0.393594 0
M  V30 4434 C 401.113 -6.02921 -0.996447 0
M  V30 4435 C 402.111 -6.81654 -0.428569 0
M  V30 4436 O 401.799 -8.0384 0.0981593 0
M  V30 4437 H 401.531 -0.597475 -0.316226 0
M  V30 4438 H 404.085 -2.02584 -0.338973 0
M  V30 4439 H 402.315 -2.65003 -2.81621 0
M  V30 4440 H 404.004 -3.04679 -2.6819 0
M  V30 4441 H 404.77 -4.76743 -0.891136 0
M  V30 4442 H 400.649 -4.17132 -1.9627 0
M  V30 4443 H 404.193 -6.97582 0.0503014 0
M  V30 4444 H 400.09 -6.37277 -1.02706 0
M  V30 4445 H 400.858 -8.18499 -0.0146455 0
M  V30 4446 N 403.521 0.559213 -1.47345 0
M  V30 4447 C 404.769 1.31388 -1.53563 0
M  V30 4448 C 405.09 1.93985 -0.198678 0
M  V30 4449 O 404.36 1.79825 0.777167 0
M  V30 4450 H 402.94 0.487901 -0.565652 0
M  V30 4451 H 405.602 0.65315 -1.8363 0
M  V30 4452 H 404.698 2.10844 -2.30111 0
M  V30 4453 N 404.999 1.35443 0.805782 0
M  V30 4454 C 405.909 1.30546 1.94923 0
M  V30 4455 C 406.925 0.210233 1.72725 0
M  V30 4456 O 408.101 0.43975 1.9654 0
M  V30 4457 C 405.166 1.07782 3.29521 0
M  V30 4458 C 404.227 2.26625 3.64609 0
M  V30 4459 C 403.46 2.04938 4.92784 0
M  V30 4460 O 403.683 1.01624 5.61274 0
M  V30 4461 O 402.617 2.9232 5.26149 0
M  V30 4462 H 406.443 2.26779 2.02002 0
M  V30 4463 H 404.028 1.15823 0.943682 0
M  V30 4464 H 405.91 0.969392 4.10098 0
M  V30 4465 H 404.585 0.146003 3.23371 0
M  V30 4466 H 403.492 2.43033 2.84404 0
M  V30 4467 H 404.825 3.18257 3.75464 0
M  V30 4468 N 406.477 -1.02803 1.19454 0
M  V30 4469 C 407.387 -2.14575 0.948408 0
M  V30 4470 C 408.403 -1.73757 -0.091871 0
M  V30 4471 O 409.579 -2.01185 0.0929654 0
M  V30 4472 C 406.644 -3.43202 0.491265 0
M  V30 4473 C 405.705 -3.98328 1.60103 0
M  V30 4474 C 404.938 -5.20816 1.16561 0
M  V30 4475 O 405.161 -5.70392 0.0295238 0
M  V30 4476 O 404.095 -5.68801 1.96849 0
M  V30 4477 H 407.921 -2.38202 1.88397 0
M  V30 4478 H 405.506 -1.12989 0.977433 0
M  V30 4479 H 407.388 -4.20687 0.245015 0
M  V30 4480 H 406.063 -3.21018 -0.415851 0
M  V30 4481 H 404.97 -3.22174 1.90144 0
M  V30 4482 H 406.303 -4.24879 2.48473 0
M  V30 4483 N 407.956 -0.998596 -1.21925 0
M  V30 4484 C 409.202 -0.678667 -1.91107 0
M  V30 4485 C 409.535 0.78791 -1.77498 0
M  V30 4486 O 408.81 1.57043 -1.1475 0
M  V30 4487 C 409.093 -1.09245 -3.43129 0
M  V30 4488 C 408.946 -2.61801 -3.6576 0
M  V30 4489 C 410.265 -0.649984 -4.35274 0
M  V30 4490 H 407.384 -0.248025 -0.694012 0
M  V30 4491 H 410.026 -1.24314 -1.43688 0
M  V30 4492 H 408.176 -0.612171 -3.83647 0
M  V30 4493 H 409.848 -3.17543 -3.34611 0
M  V30 4494 H 408.091 -3.03609 -3.09845 0
M  V30 4495 H 408.762 -2.85804 -4.7225 0
M  V30 4496 H 411.238 -1.0626 -4.02303 0
M  V30 4497 H 410.114 -0.967743 -5.40302 0
M  V30 4498 H 410.375 0.449139 -4.39813 0
M  V30 4499 N 409.434 1.37368 -0.772513 0
M  V30 4500 C 410.364 2.32856 -0.173304 0
M  V30 4501 C 411.345 1.55818 0.682262 0
M  V30 4502 O 412.53 1.84052 0.619566 0
M  V30 4503 C 409.66 3.40048 0.706007 0
M  V30 4504 C 408.614 4.27973 -0.0483144 0
M  V30 4505 C 407.94 5.26184 0.950491 0
M  V30 4506 C 409.24 5.07665 -1.22776 0
M  V30 4507 H 410.934 2.83217 -0.971002 0
M  V30 4508 H 408.48 1.3617 -0.468377 0
M  V30 4509 H 410.433 4.05827 1.13501 0
M  V30 4510 H 409.157 2.88214 1.53623 0
M  V30 4511 H 407.816 3.63726 -0.458107 0
M  V30 4512 H 407.464 4.7063 1.77529 0
M  V30 4513 H 407.164 5.85872 0.450314 0
M  V30 4514 H 408.688 5.94838 1.37842 0
M  V30 4515 H 410.102 5.66578 -0.875366 0
M  V30 4516 H 408.499 5.76681 -1.66007 0
M  V30 4517 H 409.569 4.40294 -2.03149 0
M  V30 4518 N 410.912 0.523116 1.48665 0
M  V30 4519 C 411.822 -0.247406 2.33292 0
M  V30 4520 C 412.838 -0.945769 1.46052 0
M  V30 4521 O 414.014 -0.922253 1.79043 0
M  V30 4522 C 411.079 -1.28487 3.22012 0
M  V30 4523 C 410.14 -0.597592 4.2512 0
M  V30 4524 C 409.373 -1.58563 5.09601 0
M  V30 4525 O 409.596 -2.81763 4.95949 0
M  V30 4526 O 408.53 -1.12879 5.91221 0
M  V30 4527 H 412.356 0.445869 3.00409 0
M  V30 4528 H 409.941 0.284128 1.46673 0
M  V30 4529 H 411.823 -1.88459 3.7691 0
M  V30 4530 H 410.498 -1.96068 2.57564 0
M  V30 4531 H 409.405 0.0424407 3.74076 0
M  V30 4532 H 410.738 0.0361517 4.92187 0
M  V30 4533 N 412.39 -1.55475 0.257931 0
M  V30 4534 C 413.3 -2.2549 -0.647425 0
M  V30 4535 C 414.316 -1.2748 -1.18427 0
M  V30 4536 O 415.492 -1.6038 -1.2182 0
M  V30 4537 C 412.557 -2.94916 -1.82278 0
M  V30 4538 C 411.618 -4.08363 -1.32432 0
M  V30 4539 C 410.851 -4.74469 -2.44366 0
M  V30 4540 O 411.074 -4.39701 -3.63344 0
M  V30 4541 O 410.008 -5.62763 -2.13497 0
M  V30 4542 H 413.834 -3.03593 -0.0807707 0
M  V30 4543 H 411.419 -1.49377 0.0259962 0
M  V30 4544 H 413.301 -3.38606 -2.50846 0
M  V30 4545 H 411.976 -2.19744 -2.37685 0
M  V30 4546 H 410.883 -3.69166 -0.605605 0
M  V30 4547 H 412.216 -4.85385 -0.816211 0
M  V30 4548 N 413.868 0.0150385 -1.57593 0
M  V30 4549 C 415.117 0.702115 -1.89085 0
M  V30 4550 C 415.43 1.75764 -0.858277 0
M  V30 4551 O 416.636 2.49829 -1.0629 0
M  V30 4552 C 415.092 1.29992 -3.35604 0
M  V30 4553 C 414.7 0.280007 -4.47124 0
M  V30 4554 C 416.444 1.96606 -3.76227 0
M  V30 4555 C 414.351 0.886949 -5.84711 0
M  V30 4556 H 413.281 0.265997 -0.705522 0
M  V30 4557 H 415.932 -0.0430408 -1.8345 0
M  V30 4558 H 414.314 2.09525 -3.36029 0
M  V30 4559 H 415.488 -0.489631 -4.58191 0
M  V30 4560 H 413.803 -0.284835 -4.15425 0
M  V30 4561 H 416.4 2.42893 -4.76347 0
M  V30 4562 H 416.743 2.79024 -3.08952 0
M  V30 4563 H 417.276 1.23828 -3.78036 0
M  V30 4564 H 414.015 0.101876 -6.55421 0
M  V30 4565 H 413.535 1.6261 -5.77337 0
M  V30 4566 H 415.214 1.39011 -6.3189 0
M  V30 4567 N 415.346 1.54954 0.287554 0
M  V30 4568 C 416.293 1.86834 1.35505 0
M  V30 4569 C 417.263 0.718452 1.49758 0
M  V30 4570 O 418.448 0.968358 1.644 0
M  V30 4571 C 415.588 2.13303 2.71286 0
M  V30 4572 C 414.701 3.40883 2.65373 0
M  V30 4573 C 413.836 3.57125 3.93236 0
M  V30 4574 C 412.875 4.78449 3.81776 0
M  V30 4575 N 412.012 4.91426 5.01443 0
M  V30 4576 H 416.852 2.77889 1.07619 0
M  V30 4577 H 414.389 1.37593 0.520241 0
M  V30 4578 H 416.347 2.26646 3.50267 0
M  V30 4579 H 414.977 1.25499 2.97405 0
M  V30 4580 H 414.029 3.36088 1.78182 0
M  V30 4581 H 415.341 4.29993 2.52799 0
M  V30 4582 H 414.495 3.70207 4.80658 0
M  V30 4583 H 413.234 2.66173 4.0866 0
M  V30 4584 H 412.239 4.65386 2.92738 0
M  V30 4585 H 413.464 5.70822 3.67884 0
M  V30 4586 H 411.41 4.03401 5.17304 0
M  V30 4587 H 411.327 5.74559 4.91343 0
M  V30 4588 H 412.595 5.08879 5.90477 0
M  V30 4589 N 416.824 -0.551391 1.4764 0
M  V30 4590 C 417.772 -1.67896 1.60978 0
M  V30 4591 C 418.766 -1.62549 0.476877 0
M  V30 4592 O 419.972 -1.67664 0.654878 0
M  V30 4593 H 416.347 -0.555649 0.506713 0
M  V30 4594 H 418.318 -1.53784 2.55721 0
M  V30 4595 C 417.067 -3.06234 1.64669 0
M  V30 4596 H 416.39 -3.11033 2.51194 0
M  V30 4597 H 417.83 -3.84804 1.7805 0
M  V30 4598 C 416.289 -3.34737 0.381115 0
M  V30 4599 O 416.819 -3.98381 -0.515297 0
M  V30 4600 N 415.025 -2.8944 0.259354 0
M  V30 4601 H 414.572 -2.37827 0.98976 0
M  V30 4602 H 414.53 -3.08882 -0.586464 0
M  V30 4603 N 418.302 -1.35869 -0.798587 0
M  V30 4604 C 419.527 -1.32883 -1.59238 0
M  V30 4605 C 419.952 0.0894587 -1.87887 0
M  V30 4606 O 419.31 1.05869 -1.47178 0
M  V30 4607 C 419.358 -2.14892 -2.89575 0
M  V30 4608 O 418.462 -1.53512 -3.82763 0
M  V30 4609 H 417.803 -0.455236 -0.48338 0
M  V30 4610 H 420.333 -1.79024 -0.990539 0
M  V30 4611 H 420.343 -2.27139 -3.38928 0
M  V30 4612 H 419.018 -3.17998 -2.68049 0
M  V30 4613 H 417.595 -1.50153 -3.41334 0
M  V30 4614 N 419.78 1.02168 -1.19998 0
M  V30 4615 C 420.727 2.10601 -0.944228 0
M  V30 4616 C 421.697 1.65639 0.123664 0
M  V30 4617 O 422.882 1.9079 -0.0199941 0
M  V30 4618 C 420.022 3.41504 -0.496865 0
M  V30 4619 C 419.135 3.99973 -1.63234 0
M  V30 4620 C 418.27 5.18915 -1.13579 0
M  V30 4621 C 417.309 5.69456 -2.24468 0
M  V30 4622 N 416.446 6.79665 -1.76068 0
M  V30 4623 H 421.286 2.31814 -1.8726 0
M  V30 4624 H 418.823 1.13686 -0.933483 0
M  V30 4625 H 420.781 4.16626 -0.218843 0
M  V30 4626 H 419.411 3.2038 0.394508 0
M  V30 4627 H 418.463 3.21997 -2.0254 0
M  V30 4628 H 419.775 4.33492 -2.46752 0
M  V30 4629 H 418.929 6.01222 -0.813429 0
M  V30 4630 H 417.668 4.8695 -0.270434 0
M  V30 4631 H 416.673 4.85757 -2.57526 0
M  V30 4632 H 417.898 6.03459 -3.11472 0
M  V30 4633 H 415.844 6.49538 -0.918516 0
M  V30 4634 H 415.761 7.12349 -2.5317 0
M  V30 4635 H 417.029 7.65549 -1.46817 0
M  V30 4636 N 421.258 1.00505 1.21394 0
M  V30 4637 C 422.208 0.536503 2.21598 0
M  V30 4638 C 423.192 -0.401914 1.55799 0
M  V30 4639 O 424.384 -0.226757 1.75541 0
M  V30 4640 C 421.513 -0.135446 3.43033 0
M  V30 4641 C 420.599 0.823992 4.16018 0
M  V30 4642 N 420.99 1.97683 4.6557 0
M  V30 4643 C 419.288 0.642387 4.4135 0
M  V30 4644 C 419.989 2.58003 5.21354 0
M  V30 4645 N 418.965 1.86162 5.1073 0
M  V30 4646 H 422.767 1.41557 2.57563 0
M  V30 4647 H 420.281 0.868878 1.37202 0
M  V30 4648 H 422.278 -0.488584 4.14027 0
M  V30 4649 H 420.938 -1.01049 3.08576 0
M  V30 4650 H 421.949 2.3572 4.61147 0
M  V30 4651 H 418.626 -0.185578 4.17087 0
M  V30 4652 H 420.016 3.555 5.70149 0
M  V30 4653 N 422.737 -1.36956 0.779787 0
M  V30 4654 C 423.685 -2.32053 0.15942 0
M  V30 4655 C 424.679 -1.55333 -0.675878 0
M  V30 4656 O 425.885 -1.70668 -0.57204 0
M  V30 4657 H 422.26 -0.751286 0.0327707 0
M  V30 4658 H 424.231 -2.8195 0.977078 0
M  V30 4659 C 422.98 -3.40602 -0.698977 0
M  V30 4660 H 422.303 -3.99746 -0.0655966 0
M  V30 4661 H 423.743 -4.09486 -1.09989 0
M  V30 4662 C 422.202 -2.81359 -1.85307 0
M  V30 4663 O 422.732 -2.72751 -2.94906 0
M  V30 4664 N 420.938 -2.38786 -1.65619 0
M  V30 4665 H 420.485 -2.45987 -0.764725 0
M  V30 4666 H 420.443 -1.99493 -2.43002 0
M  V30 4667 N 424.215 -0.530993 -1.48385 0
M  V30 4668 C 425.443 -0.00134122 -2.069 0
M  V30 4669 C 425.858 1.2805 -1.3874 0
M  V30 4670 O 425.215 1.76204 -0.475244 0
M  V30 4671 C 425.266 0.225256 -3.60798 0
M  V30 4672 O 424.987 -1.0058 -4.26398 0
M  V30 4673 C 426.488 0.795172 -4.3611 0
M  V30 4674 H 423.708 -0.0339704 -0.67014 0
M  V30 4675 H 426.252 -0.736926 -1.90761 0
M  V30 4676 H 424.407 0.910891 -3.76539 0
M  V30 4677 H 424.821 -0.787165 -5.1856 0
M  V30 4678 H 426.295 0.903143 -5.44562 0
M  V30 4679 H 426.772 1.80031 -4.00606 0
M  V30 4680 H 427.378 0.146069 -4.25049 0
M  V30 4681 N 425.693 1.55336 -0.266172 0
M  V30 4682 C 427.104 1.85236 0.233315 0
M  V30 4683 C 427.455 1.18816 1.56132 0
M  V30 4684 O 426.58 0.473307 2.11161 0
M  V30 4685 C 427.175 3.36059 0.430113 0
M  V30 4686 C 425.734 3.66116 0.873842 0
M  V30 4687 C 424.881 2.77274 -0.0380016 0
M  V30 4688 H 427.832 1.51004 -0.488214 0
M  V30 4689 H 427.853 3.58681 1.26998 0
M  V30 4690 H 427.365 3.84373 -0.536588 0
M  V30 4691 H 425.466 3.23295 1.85233 0
M  V30 4692 H 425.579 4.73699 0.717358 0
M  V30 4693 H 423.943 2.50198 0.476759 0
M  V30 4694 H 424.726 3.284 -1.00042 0
M  V30 4695 N 427.171 -0.0066808 1.57599 0
M  V30 4696 C 428.587 -0.36267 1.55425 0
M  V30 4697 C 428.787 -1.75209 0.995187 0
M  V30 4698 O 427.843 -2.44616 0.626058 0
M  V30 4699 C 429.156 -0.244017 2.99708 0
M  V30 4700 C 430.704 -0.319451 3.11366 0
M  V30 4701 C 431.179 -0.229998 4.57422 0
M  V30 4702 N 432.67 -0.288105 4.62303 0
M  V30 4703 C 433.405 -0.242127 5.72889 0
M  V30 4704 N 432.901 -0.147133 6.92644 0
M  V30 4705 N 434.694 -0.293502 5.61333 0
M  V30 4706 H 426.845 0.902314 1.92281 0
M  V30 4707 H 429.108 0.34525 0.882896 0
M  V30 4708 H 428.814 0.711678 3.44424 0
M  V30 4709 H 428.688 -1.02877 3.629 0
M  V30 4710 H 431.075 -1.26559 2.66584 0
M  V30 4711 H 431.156 0.495055 2.50964 0
M  V30 4712 H 430.8 0.712566 5.02877 0
M  V30 4713 H 430.73 -1.0629 5.15761 0
M  V30 4714 H 433.221 -0.363126 3.76151 0
M  V30 4715 H 433.534 -0.117763 7.7271 0
M  V30 4716 H 431.879 -0.112857 6.94908 0
M  V30 4717 H 435.07 -0.365864 4.66668 0
M  V30 4718 H 435.243 -0.254204 6.47501 0
M  V30 4719 N 428.649 -1.55105 -0.279332 0
M  V30 4720 C 429.596 -1.8755 -1.34513 0
M  V30 4721 C 430.566 -0.726384 -1.49375 0
M  V30 4722 O 431.751 -0.977063 -1.63884 0
M  V30 4723 C 428.891 -2.14738 -2.70151 0
M  V30 4724 C 428.004 -3.42285 -2.63562 0
M  V30 4725 C 427.139 -3.59206 -3.91337 0
M  V30 4726 C 426.178 -4.80467 -3.79233 0
M  V30 4727 N 425.315 -4.94079 -4.98829 0
M  V30 4728 H 430.155 -2.78456 -1.06143 0
M  V30 4729 H 427.692 -1.37867 -0.512936 0
M  V30 4730 H 429.65 -2.28501 -3.49061 0
M  V30 4731 H 428.28 -1.27075 -2.96735 0
M  V30 4732 H 427.332 -3.37029 -1.76397 0
M  V30 4733 H 428.644 -4.31328 -2.50515 0
M  V30 4734 H 427.798 -3.72751 -4.78687 0
M  V30 4735 H 426.537 -2.68337 -4.07243 0
M  V30 4736 H 425.542 -4.66932 -2.90266 0
M  V30 4737 H 426.767 -5.72765 -3.64852 0
M  V30 4738 H 424.713 -4.06139 -5.15158 0
M  V30 4739 H 424.63 -5.77156 -4.8829 0
M  V30 4740 H 425.898 -5.12003 -5.8777 0
M  V30 4741 N 430.127 0.543554 -1.4793 0
M  V30 4742 C 431.074 1.64942 -1.6144 0
M  V30 4743 C 432.044 1.59692 -0.456903 0
M  V30 4744 O 433.229 1.78321 -0.678688 0
M  V30 4745 C 430.369 3.03238 -1.64744 0
M  V30 4746 C 429.482 3.18823 -2.91506 0
M  V30 4747 C 428.617 4.47599 -2.86057 0
M  V30 4748 C 427.656 4.56664 -4.07584 0
M  V30 4749 N 426.793 5.76811 -4.00292 0
M  V30 4750 H 431.633 1.52733 -2.55884 0
M  V30 4751 H 429.17 0.7438 -1.2691 0
M  V30 4752 H 431.128 3.83339 -1.64641 0
M  V30 4753 H 429.758 3.1425 -0.738017 0
M  V30 4754 H 428.81 2.32064 -3.01414 0
M  V30 4755 H 430.122 3.21384 -3.81463 0
M  V30 4756 H 429.276 5.35975 -2.84281 0
M  V30 4757 H 428.015 4.47538 -1.93807 0
M  V30 4758 H 427.02 3.66697 -4.09651 0
M  V30 4759 H 428.245 4.58474 -5.00978 0
M  V30 4760 H 426.191 5.77673 -3.10853 0
M  V30 4761 H 426.108 5.80808 -4.8394 0
M  V30 4762 H 427.376 6.67512 -4.02553 0
M  V30 4763 N 431.605 1.3629 0.791371 0
M  V30 4764 C 432.833 1.33562 1.58016 0
M  V30 4765 C 433.248 -0.0835616 1.88615 0
M  V30 4766 O 432.605 -1.0399 1.49974 0
M  V30 4767 C 432.656 2.15517 2.90232 0
M  V30 4768 O 432.377 3.51902 2.60953 0
M  V30 4769 C 433.878 2.20546 3.84544 0
M  V30 4770 H 431.098 0.458226 0.490173 0
M  V30 4771 H 433.642 1.79361 0.982345 0
M  V30 4772 H 431.797 1.73278 3.46487 0
M  V30 4773 H 432.211 3.94644 3.4548 0
M  V30 4774 H 433.685 2.82252 4.74382 0
M  V30 4775 H 434.162 1.20838 4.2225 0
M  V30 4776 H 434.768 2.63013 3.34222 0
M  V30 4777 N 433.083 -1.0153 1.20538 0
M  V30 4778 C 434.031 -2.12215 0.952235 0
M  V30 4779 C 435.025 -1.69123 -0.0968735 0
M  V30 4780 O 436.231 -1.7992 0.0536006 0
M  V30 4781 H 432.606 -0.693576 0.290613 0
M  V30 4782 H 434.577 -2.3075 1.89201 0
M  V30 4783 C 433.326 -3.43755 0.522287 0
M  V30 4784 H 432.649 -3.7734 1.32115 0
M  V30 4785 H 434.089 -4.22254 0.384389 0
M  V30 4786 C 432.548 -3.28088 -0.765489 0
M  V30 4787 O 433.078 -3.57921 -1.8236 0
M  V30 4788 N 431.284 -2.81333 -0.728011 0
M  V30 4789 H 430.831 -2.57255 0.133332 0
M  V30 4790 H 430.789 -2.71232 -1.58999 0
M  V30 4791 N 434.561 -1.01147 -1.20859 0
M  V30 4792 C 435.972 -0.730205 -1.71828 0
M  V30 4793 C 436.323 0.751662 -1.8123 0
M  V30 4794 O 435.448 1.58686 -1.47132 0
M  V30 4795 C 436.043 -1.31885 -3.12077 0
M  V30 4796 C 434.602 -1.08656 -3.60376 0
M  V30 4797 C 433.749 -1.42769 -2.37723 0
M  V30 4798 H 436.7 -1.18158 -1.05945 0
M  V30 4799 H 436.721 -0.706793 -3.73878 0
M  V30 4800 H 436.233 -2.39737 -3.05201 0
M  V30 4801 H 434.334 -0.0254814 -3.72591 0
M  V30 4802 H 434.447 -1.76301 -4.45483 0
M  V30 4803 H 432.811 -0.846603 -2.40218 0
M  V30 4804 H 433.594 -2.51666 -2.33493 0
M  V30 4805 N 436.039 1.36541 -0.78704 0
M  V30 4806 C 437.264 2.0409 -0.369053 0
M  V30 4807 C 437.689 1.58957 1.00569 0
M  V30 4808 O 437.047 0.756926 1.64743 0
M  V30 4809 C 437.095 3.57924 -0.438466 0
M  V30 4810 O 436.199 4.08642 0.555479 0
M  V30 4811 H 435.54 0.645142 -0.157122 0
M  V30 4812 H 438.07 1.74545 -1.06749 0
M  V30 4813 H 438.08 4.06887 -0.301218 0
M  V30 4814 H 436.755 3.90127 -1.44132 0
M  V30 4815 H 435.332 3.70958 0.380088 0
M  V30 4816 N 437.518 0.538854 1.48102 0
M  V30 4817 C 438.934 0.19732 1.58376 0
M  V30 4818 C 439.134 -1.29971 1.5398 0
M  V30 4819 O 438.19 -2.07861 1.43352 0
M  V30 4820 C 439.503 0.807716 2.89649 0
M  V30 4821 C 441.051 0.77726 3.03196 0
M  V30 4822 C 441.526 1.36639 4.37143 0
M  V30 4823 N 443.017 1.32875 4.43732 0
M  V30 4824 C 443.752 1.7544 5.45901 0
M  V30 4825 N 443.248 2.25776 6.54979 0
M  V30 4826 N 445.041 1.66623 5.36836 0
M  V30 4827 H 437.192 1.5117 1.49202 0
M  V30 4828 H 439.455 0.629327 0.708979 0
M  V30 4829 H 439.161 1.85909 2.98548 0
M  V30 4830 H 439.035 0.289975 3.76084 0
M  V30 4831 H 441.422 -0.265374 2.93904 0
M  V30 4832 H 441.503 1.33256 2.18349 0
M  V30 4833 H 441.147 2.408 4.47189 0
M  V30 4834 H 441.077 0.786689 5.20691 0
M  V30 4835 H 443.568 0.96037 3.65493 0
M  V30 4836 H 443.881 2.56226 7.29087 0
M  V30 4837 H 442.226 2.29775 6.55918 0
M  V30 4838 H 445.417 1.27089 4.50517 0
M  V30 4839 H 445.59 2.00115 6.16326 0
M  V30 4840 N 438.996 -1.55193 0.274407 0
M  V30 4841 C 440.245 -1.98758 -0.343213 0
M  V30 4842 C 440.558 -1.16624 -1.5703 0
M  V30 4843 O 441.764 -1.5033 -2.26082 0
M  V30 4844 C 440.22 -3.53759 -0.661996 0
M  V30 4845 C 439.828 -4.4467 0.54524 0
M  V30 4846 C 441.572 -4.05916 -1.24228 0
M  V30 4847 C 439.479 -5.91058 0.201084 0
M  V30 4848 H 438.409 -0.742353 -0.132014 0
M  V30 4849 H 441.06 -1.79545 0.378948 0
M  V30 4850 H 439.442 -3.68772 -1.44304 0
M  V30 4851 H 440.616 -4.41426 1.32212 0
M  V30 4852 H 438.931 -4.03143 1.04232 0
M  V30 4853 H 441.528 -5.12831 -1.51357 0
M  V30 4854 H 441.871 -3.54908 -2.17592 0
M  V30 4855 H 442.404 -3.9434 -0.523542 0
M  V30 4856 H 439.143 -6.46161 1.10258 0
M  V30 4857 H 438.663 -5.97373 -0.539045 0
M  V30 4858 H 440.342 -6.46669 -0.206954 0
M  V30 4859 N 440.474 -0.00167713 -1.576 0
M  V30 4860 C 441.89 0.354422 -1.55615 0
M  V30 4861 C 442.09 1.74679 -1.00447 0
M  V30 4862 O 441.146 2.4428 -0.639022 0
M  V30 4863 C 442.459 0.22812 -2.99833 0
M  V30 4864 C 444.007 0.302934 -3.11531 0
M  V30 4865 C 444.482 0.205737 -4.57538 0
M  V30 4866 N 445.973 0.263584 -4.62449 0
M  V30 4867 C 446.708 0.211742 -5.73009 0
M  V30 4868 N 446.204 0.110399 -6.92712 0
M  V30 4869 N 447.997 0.263729 -5.61481 0
M  V30 4870 H 440.148 -0.912498 -1.918 0
M  V30 4871 H 442.411 -0.349928 -0.881053 0
M  V30 4872 H 442.117 -0.729934 -3.44042 0
M  V30 4873 H 441.991 1.00951 -3.6344 0
M  V30 4874 H 444.378 1.25143 -2.67251 0
M  V30 4875 H 444.459 -0.508357 -2.50698 0
M  V30 4876 H 444.103 -0.739225 -5.02492 0
M  V30 4877 H 444.033 1.03554 -5.16318 0
M  V30 4878 H 446.524 0.343173 -3.76339 0
M  V30 4879 H 446.837 0.0767828 -7.72762 0
M  V30 4880 H 445.182 0.0760025 -6.94958 0
M  V30 4881 H 448.373 0.34111 -4.66855 0
M  V30 4882 H 448.546 0.219862 -6.47627 0
M  V30 4883 N 441.952 1.55251 0.271103 0
M  V30 4884 C 443.201 1.75151 1.00025 0
M  V30 4885 C 443.514 0.561041 1.87381 0
M  V30 4886 O 444.72 0.642506 2.63788 0
M  V30 4887 C 443.176 3.09999 1.82835 0
M  V30 4888 C 442.784 4.3662 1.00336 0
M  V30 4889 C 444.528 3.39249 2.55168 0
M  V30 4890 C 442.435 5.62506 1.82595 0
M  V30 4891 H 441.365 0.652877 0.377183 0
M  V30 4892 H 444.016 1.81708 0.255843 0
M  V30 4893 H 442.398 2.97485 2.61378 0
M  V30 4894 H 443.572 4.60055 0.261959 0
M  V30 4895 H 441.887 4.14527 0.394486 0
M  V30 4896 H 444.484 4.3051 3.1712 0
M  V30 4897 H 444.827 2.59467 3.2555 0
M  V30 4898 H 445.36 3.52869 1.83653 0
M  V30 4899 H 442.099 6.45041 1.16631 0
M  V30 4900 H 441.619 5.43211 2.54327 0
M  V30 4901 H 443.298 6.00875 2.39913 0
M  V30 4902 N 443.43 -0.535701 1.48216 0
M  V30 4903 C 444.393 -1.623 1.61838 0
M  V30 4904 C 445.393 -1.53087 0.492024 0
M  V30 4905 O 446.583 -1.5686 0.757668 0
M  V30 4906 C 443.715 -3.01907 1.58319 0
M  V30 4907 H 444.908 -1.51564 2.58783 0
M  V30 4908 H 442.461 -0.757317 1.36727 0
M  V30 4909 H 443.196 -3.18155 0.628299 0
M  V30 4910 H 442.981 -3.10003 2.40085 0
M  V30 4911 H 444.471 -3.80969 1.71033 0
M  V30 4912 N 444.908 -1.36708 -0.784132 0
M  V30 4913 C 445.838 -1.34153 -1.91116 0
M  V30 4914 C 446.819 -0.212121 -1.68772 0
M  V30 4915 O 448.004 -0.410581 -1.8981 0
M  V30 4916 C 445.134 -1.13535 -3.28218 0
M  V30 4917 C 444.088 -2.23356 -3.65097 0
M  V30 4918 C 443.414 -1.87875 -5.00607 0
M  V30 4919 C 444.714 -3.65473 -3.73131 0
M  V30 4920 H 446.408 -2.28459 -1.93512 0
M  V30 4921 H 443.954 -1.09973 -0.929618 0
M  V30 4922 H 445.907 -1.10381 -4.06687 0
M  V30 4923 H 444.631 -0.156804 -3.26223 0
M  V30 4924 H 443.29 -2.25645 -2.88929 0
M  V30 4925 H 442.938 -0.885814 -4.95139 0
M  V30 4926 H 442.638 -2.61406 -5.26252 0
M  V30 4927 H 444.162 -1.86286 -5.81489 0
M  V30 4928 H 445.576 -3.65382 -4.41779 0
M  V30 4929 H 443.973 -4.37953 -4.10265 0
M  V30 4930 H 445.043 -3.99995 -2.74102 0
M  V30 4931 N 446.386 1.0089 -1.21074 0
M  V30 4932 C 447.634 1.74262 -1.02358 0
M  V30 4933 C 447.955 1.89869 0.444393 0
M  V30 4934 O 447.225 1.44677 1.32081 0
M  V30 4935 H 445.805 0.645615 -0.375754 0
M  V30 4936 H 448.467 1.21596 -1.52317 0
M  V30 4937 H 447.563 2.74328 -1.4883 0
M  V30 4938 N 447.864 1.01787 1.20321 0
M  V30 4939 C 448.812 0.58254 2.25187 0
M  V30 4940 C 449.806 -0.379359 1.65098 0
M  V30 4941 O 451.012 -0.249142 1.78267 0
M  V30 4942 H 447.387 0.170078 0.732514 0
M  V30 4943 H 449.358 1.47788 2.59232 0
M  V30 4944 C 448.107 -0.0620885 3.47645 0
M  V30 4945 H 447.43 0.669069 3.94162 0
M  V30 4946 H 448.87 -0.329784 4.22716 0
M  V30 4947 C 447.329 -1.3053 3.10586 0
M  V30 4948 O 447.859 -2.39848 3.22236 0
M  V30 4949 N 446.065 -1.18988 2.65123 0
M  V30 4950 H 445.612 -0.300341 2.55843 0
M  V30 4951 H 445.57 -2.02267 2.40698 0
M  V30 4952 N 449.342 -1.36122 0.79427 0
M  V30 4953 C 450.252 -2.33769 0.197296 0
M  V30 4954 C 451.268 -1.61276 -0.653153 0
M  V30 4955 O 452.444 -1.9323 -0.5678 0
M  V30 4956 C 449.509 -3.40474 -0.654098 0
M  V30 4957 C 448.57 -4.28759 0.215411 0
M  V30 4958 C 447.803 -5.30368 -0.595443 0
M  V30 4959 O 448.026 -5.40211 -1.83107 0
M  V30 4960 O 446.96 -6.019 0.00721351 0
M  V30 4961 H 450.786 -2.86597 1.00478 0
M  V30 4962 H 448.371 -1.38676 0.555818 0
M  V30 4963 H 450.253 -4.05703 -1.13944 0
M  V30 4964 H 448.928 -2.89937 -1.43938 0
M  V30 4965 H 447.835 -3.66554 0.747615 0
M  V30 4966 H 449.168 -4.82661 0.964332 0
M  V30 4967 N 450.82 -0.546701 -1.47814 0
M  V30 4968 C 451.783 0.196287 -2.28358 0
M  V30 4969 C 452.783 0.852437 -1.36346 0
M  V30 4970 O 453.973 0.709913 -1.59078 0
M  V30 4971 C 451.105 1.28579 -3.15722 0
M  V30 4972 H 452.298 -0.511086 -2.95513 0
M  V30 4973 H 449.851 -0.303248 -1.5333 0
M  V30 4974 H 450.586 2.0259 -2.53235 0
M  V30 4975 H 450.371 0.820229 -3.83425 0
M  V30 4976 H 451.861 1.80793 -3.76435 0
M  V30 4977 N 452.299 1.55045 -0.282633 0
M  V30 4978 C 453.524 2.04628 0.337977 0
M  V30 4979 C 453.949 1.15937 1.48123 0
M  V30 4980 O 453.307 0.159532 1.80597 0
M  V30 4981 C 453.355 3.51854 0.78936 0
M  V30 4982 O 452.459 3.66236 1.89592 0
M  V30 4983 H 451.8 0.660434 0.0687261 0
M  V30 4984 H 454.33 2.00261 -0.419124 0
M  V30 4985 H 454.34 3.93361 1.08311 0
M  V30 4986 H 453.015 4.15873 -0.0470419 0
M  V30 4987 H 451.592 3.36633 1.60413 0
M  V30 4988 N 453.777 0.010035 1.57597 0
M  V30 4989 C 455.005 -0.683413 1.95287 0
M  V30 4990 C 455.42 -1.66747 0.885481 0
M  V30 4991 O 454.777 -1.82003 -0.134629 0
M  V30 4992 C 454.828 -1.40652 3.33015 0
M  V30 4993 O 454.549 -0.461916 4.35658 0
M  V30 4994 C 456.05 -2.19356 3.85225 0
M  V30 4995 H 453.27 -0.189708 0.643624 0
M  V30 4996 H 455.814 0.0641359 2.04399 0
M  V30 4997 H 453.969 -2.10562 3.2518 0
M  V30 4998 H 454.383 -0.973215 5.15392 0
M  V30 4999 H 455.857 -2.65433 4.83993 0
M  V30 5000 H 456.334 -3.02457 3.18459 0
M  V30 5001 H 456.94 -1.54442 3.96267 0
M  V30 5002 N 455.255 -1.55392 -0.262866 0
M  V30 5003 C 456.501 -1.76737 -0.99458 0
M  V30 5004 C 456.834 -0.572453 -1.85571 0
M  V30 5005 O 456.109 0.429732 -1.89693 0
M  V30 5006 C 456.392 -3.07824 -1.8686 0
M  V30 5007 C 456.245 -4.3769 -1.03672 0
M  V30 5008 C 457.564 -3.35021 -2.85393 0
M  V30 5009 H 454.683 -0.643005 -0.360157 0
M  V30 5010 H 457.325 -1.88126 -0.266216 0
M  V30 5011 H 455.475 -2.98245 -2.48962 0
M  V30 5012 H 457.147 -4.59238 -0.43563 0
M  V30 5013 H 455.39 -4.32461 -0.340513 0
M  V30 5014 H 456.061 -5.25759 -1.6817 0
M  V30 5015 H 458.537 -3.44458 -2.33426 0
M  V30 5016 H 457.413 -4.27989 -3.43681 0
M  V30 5017 H 457.674 -2.55153 -3.61039 0
M  V30 5018 N 456.733 0.527833 -1.48498 0
M  V30 5019 C 457.665 1.6482 -1.5927 0
M  V30 5020 C 458.678 1.55659 -0.476869 0
M  V30 5021 O 459.867 1.62081 -0.747806 0
M  V30 5022 C 456.967 3.0348 -1.50842 0
M  V30 5023 C 456.14 3.381 -2.77502 0
M  V30 5024 C 455.199 4.5605 -2.62497 0
M  V30 5025 O 454.225 4.59165 -3.36387 0
M  V30 5026 N 455.427 5.54353 -1.72257 0
M  V30 5027 H 458.192 1.56015 -2.55889 0
M  V30 5028 H 455.753 0.715152 -1.45249 0
M  V30 5029 H 457.745 3.80264 -1.38496 0
M  V30 5030 H 456.315 3.06352 -0.621887 0
M  V30 5031 H 455.535 2.50473 -3.04396 0
M  V30 5032 H 456.823 3.58017 -3.61527 0
M  V30 5033 H 456.221 5.54617 -1.11431 0
M  V30 5034 H 454.778 6.30347 -1.65849 0
M  V30 5035 N 458.211 1.37122 0.776871 0
M  V30 5036 C 459.121 1.34651 1.9211 0
M  V30 5037 C 460.137 0.246824 1.7224 0
M  V30 5038 O 461.313 0.48134 1.95563 0
M  V30 5039 C 458.378 1.14748 3.2716 0
M  V30 5040 C 457.439 2.34308 3.5972 0
M  V30 5041 C 456.672 2.15345 4.88326 0
M  V30 5042 O 456.895 1.13507 5.58992 0
M  V30 5043 O 455.829 3.03414 5.1983 0
M  V30 5044 H 459.655 2.31013 1.97146 0
M  V30 5045 H 457.24 1.17799 0.918901 0
M  V30 5046 H 459.122 1.05616 4.0795 0
M  V30 5047 H 457.797 0.214562 3.22988 0
M  V30 5048 H 456.704 2.49011 2.79185 0
M  V30 5049 H 458.037 3.26149 3.68629 0
M  V30 5050 N 459.689 -1.00246 1.21608 0
M  V30 5051 C 460.599 -2.12515 0.993709 0
M  V30 5052 C 461.615 -1.73913 -0.0549939 0
M  V30 5053 O 462.791 -2.00943 0.135619 0
M  V30 5054 C 459.856 -3.42083 0.563953 0
M  V30 5055 C 458.917 -3.94843 1.68516 0
M  V30 5056 C 458.15 -5.18226 1.27582 0
M  V30 5057 O 458.373 -5.70201 0.150506 0
M  V30 5058 O 457.307 -5.64497 2.0887 0
M  V30 5059 H 461.133 -2.34152 1.93407 0
M  V30 5060 H 458.718 -1.10891 1.00118 0
M  V30 5061 H 460.6 -4.20073 0.334194 0
M  V30 5062 H 459.275 -3.21828 -0.347665 0
M  V30 5063 H 458.182 -3.18068 1.96935 0
M  V30 5064 H 459.515 -4.19512 2.5743 0
M  V30 5065 N 461.167 -1.02423 -1.1978 0
M  V30 5066 C 462.077 -0.610919 -2.26506 0
M  V30 5067 C 463.093 0.355152 -1.70337 0
M  V30 5068 O 464.269 0.214195 -2.00258 0
M  V30 5069 C 461.334 0.0365921 -3.46681 0
M  V30 5070 C 460.395 -0.976389 -4.18049 0
M  V30 5071 C 459.628 -0.359683 -5.32487 0
M  V30 5072 O 459.851 0.838601 -5.64202 0
M  V30 5073 O 458.785 -1.08022 -5.92127 0
M  V30 5074 H 462.611 -1.49965 -2.64091 0
M  V30 5075 H 460.196 -0.794156 -1.26545 0
M  V30 5076 H 462.078 0.39786 -4.19518 0
M  V30 5077 H 460.753 0.899398 -3.10954 0
M  V30 5078 H 459.66 -1.38916 -3.47352 0
M  V30 5079 H 460.993 -1.80941 -4.57735 0
M  V30 5080 N 462.645 1.35699 -0.801477 0
M  V30 5081 C 463.577 2.28598 -0.166028 0
M  V30 5082 C 464.59 1.50044 0.631721 0
M  V30 5083 O 465.779 1.72339 0.464921 0
M  V30 5084 C 462.879 3.29625 0.787451 0
M  V30 5085 C 462.052 4.37384 0.037171 0
M  V30 5086 C 461.111 5.183 0.908375 0
M  V30 5087 O 460.137 5.68053 0.361189 0
M  V30 5088 N 461.339 5.35912 2.23112 0
M  V30 5089 H 464.104 2.83771 -0.964071 0
M  V30 5090 H 461.665 1.47994 -0.656469 0
M  V30 5091 H 463.657 3.80648 1.37439 0
M  V30 5092 H 462.227 2.75004 1.48632 0
M  V30 5093 H 461.447 3.87364 -0.730935 0
M  V30 5094 H 462.735 5.0653 -0.480109 0
M  V30 5095 H 462.133 4.97125 2.69968 0
M  V30 5096 H 460.69 5.90133 2.76741 0
M  V30 5097 N 464.123 0.554532 1.47522 0
M  V30 5098 C 465.4 -0.0360704 1.95567 0
M  V30 5099 C 465.78 -1.48828 1.49711 0
M  V30 5100 O 465.128 -2.16366 0.734717 0
M  V30 5101 C 465.338 0.106631 3.48837 0
M  V30 5102 C 466.686 -0.0400899 4.24581 0
M  V30 5103 O 467.71 0.0340453 3.56184 0
M  V30 5104 O 466.569 -0.199111 5.46137 0
M  V30 5105 H 463.663 -0.0656294 0.824392 0
M  V30 5106 H 466.209 0.620867 1.57935 0
M  V30 5107 H 464.981 1.11727 3.7501 0
M  V30 5108 H 464.604 -0.58804 3.93227 0
M  V30 5109 N 465.601 -1.54893 0.290851 0
M  V30 5110 C 467.017 -1.59476 -0.0628432 0
M  V30 5111 C 467.217 -1.30795 -1.5328 0
M  V30 5112 O 466.273 -1.07644 -2.28406 0
M  V30 5113 C 467.586 -2.98928 0.325962 0
M  V30 5114 C 469.134 -3.11799 0.273882 0
M  V30 5115 C 469.609 -4.53544 0.637359 0
M  V30 5116 N 471.1 -4.59433 0.589507 0
M  V30 5117 C 471.835 -5.67164 0.84335 0
M  V30 5118 N 471.331 -6.82975 1.16263 0
M  V30 5119 N 473.124 -5.56786 0.771091 0
M  V30 5120 H 465.275 -1.71798 1.24896 0
M  V30 5121 H 467.538 -0.801879 0.505663 0
M  V30 5122 H 467.244 -3.24805 1.34887 0
M  V30 5123 H 467.118 -3.75793 -0.325441 0
M  V30 5124 H 469.505 -2.85677 -0.739765 0
M  V30 5125 H 469.586 -2.37112 0.959766 0
M  V30 5126 H 469.23 -4.80394 1.64877 0
M  V30 5127 H 469.16 -5.26553 -0.0704866 0
M  V30 5128 H 471.651 -3.76245 0.353252 0
M  V30 5129 H 471.964 -7.61048 1.34257 0
M  V30 5130 H 470.309 -6.84552 1.20057 0
M  V30 5131 H 473.5 -4.65187 0.521383 0
M  V30 5132 H 473.673 -6.40664 0.972295 0
M  V30 5133 N 467.08 -0.0183926 -1.57589 0
M  V30 5134 C 468.027 0.967022 -2.09565 0
M  V30 5135 C 468.997 1.32983 -0.995225 0
M  V30 5136 O 470.182 1.42501 -1.26878 0
M  V30 5137 C 467.322 2.24772 -2.61861 0
M  V30 5138 C 466.435 1.94232 -3.85873 0
M  V30 5139 C 465.57 3.16518 -4.26603 0
M  V30 5140 C 464.609 2.81748 -5.43401 0
M  V30 5141 N 463.746 3.96626 -5.79338 0
M  V30 5142 H 468.586 0.516874 -2.93483 0
M  V30 5143 H 466.123 0.243544 -1.4507 0
M  V30 5144 H 468.081 2.99667 -2.90268 0
M  V30 5145 H 466.711 2.67423 -1.8079 0
M  V30 5146 H 465.763 1.09625 -3.64262 0
M  V30 5147 H 467.075 1.64616 -4.70853 0
M  V30 5148 H 466.229 3.99743 -4.56389 0
M  V30 5149 H 464.968 3.49286 -3.40368 0
M  V30 5150 H 463.973 1.96933 -5.1332 0
M  V30 5151 H 465.198 2.50207 -6.31327 0
M  V30 5152 H 463.144 4.29257 -4.96059 0
M  V30 5153 H 463.061 3.70598 -6.58933 0
M  V30 5154 H 464.329 4.80586 -6.13724 0
M  V30 5155 N 468.558 1.5553 0.254621 0
M  V30 5156 C 469.806 1.7665 0.981793 0
M  V30 5157 C 470.127 0.580963 1.86145 0
M  V30 5158 O 469.397 -0.403537 1.91699 0
M  V30 5159 H 467.977 0.651475 0.365498 0
M  V30 5160 H 470.639 1.92958 0.274426 0
M  V30 5161 H 469.735 2.67486 1.60802 0
M  V30 5162 N 470.036 -0.519951 1.48776 0
M  V30 5163 C 471.261 -1.30447 1.6124 0
M  V30 5164 C 471.686 -1.86055 0.276591 0
M  V30 5165 O 471.044 -1.64915 -0.753183 0
M  V30 5166 C 471.092 -2.42406 2.66967 0
M  V30 5167 O 470.196 -3.45728 2.24824 0
M  V30 5168 H 469.537 -0.385924 0.540332 0
M  V30 5169 H 472.067 -0.624572 1.94834 0
M  V30 5170 H 472.077 -2.88447 2.88552 0
M  V30 5171 H 470.752 -2.01294 3.63941 0
M  V30 5172 H 469.329 -3.05737 2.13494 0
M  V30 5173 N 471.514 -1.37532 -0.769588 0
M  V30 5174 C 472.464 -1.29984 -1.87318 0
M  V30 5175 C 473.448 -0.187242 -1.59807 0
M  V30 5176 O 474.64 -0.421827 -1.719 0
M  V30 5177 C 471.769 -1.11126 -3.24817 0
M  V30 5178 C 470.855 -2.26939 -3.58273 0
M  V30 5179 N 471.246 -3.52336 -3.62895 0
M  V30 5180 C 469.544 -2.19141 -3.8845 0
M  V30 5181 C 470.245 -4.28719 -3.9316 0
M  V30 5182 N 469.221 -3.57884 -4.0917 0
M  V30 5183 H 473.023 -2.24946 -1.89147 0
M  V30 5184 H 470.537 -1.30535 -0.966143 0
M  V30 5185 H 472.534 -1.03803 -4.0377 0
M  V30 5186 H 471.194 -0.17083 -3.2425 0
M  V30 5187 H 472.205 -3.86216 -3.45048 0
M  V30 5188 H 468.882 -1.33167 -3.95693 0
M  V30 5189 H 470.272 -5.37254 -4.03494 0
M  V30 5190 N 472.992 0.995999 -1.22138 0
M  V30 5191 C 474.22 1.77066 -1.07029 0
M  V30 5192 C 474.635 1.8495 0.379357 0
M  V30 5193 O 473.992 1.3174 1.26297 0
M  V30 5194 C 474.043 3.20533 -1.67155 0
M  V30 5195 O 473.764 3.13082 -3.06449 0
M  V30 5196 C 475.265 4.14461 -1.5728 0
M  V30 5197 H 472.485 0.556179 -0.375374 0
M  V30 5198 H 475.029 1.25238 -1.61666 0
M  V30 5199 H 473.184 3.6944 -1.16589 0
M  V30 5200 H 473.598 4.03283 -3.35355 0
M  V30 5201 H 475.072 5.1289 -2.04078 0
M  V30 5202 H 475.549 4.36005 -0.528795 0
M  V30 5203 H 476.155 3.71449 -2.07136 0
M  V30 5204 N 474.47 1.03057 1.19235 0
M  V30 5205 C 475.747 0.642608 1.84743 0
M  V30 5206 C 476.127 -0.878577 1.91948 0
M  V30 5207 O 475.475 -1.77597 1.43776 0
M  V30 5208 C 475.685 1.30665 3.23616 0
M  V30 5209 C 477.033 1.43098 3.9976 0
M  V30 5210 O 478.057 1.26396 3.3302 0
M  V30 5211 O 476.916 1.70223 5.19313 0
M  V30 5212 H 474.01 0.223573 0.796206 0
M  V30 5213 H 476.556 1.12883 1.26711 0
M  V30 5214 H 475.328 2.34544 3.13217 0
M  V30 5215 H 474.951 0.808405 3.89295 0
M  V30 5216 N 475.948 -1.35272 0.808662 0
M  V30 5217 C 476.878 -2.32315 0.234981 0
M  V30 5218 C 477.859 -1.57572 -0.64071 0
M  V30 5219 O 479.044 -1.8563 -0.570551 0
M  V30 5220 C 476.174 -3.41801 -0.615601 0
M  V30 5221 C 475.128 -4.27694 0.161767 0
M  V30 5222 C 474.454 -5.28519 -0.810649 0
M  V30 5223 C 475.754 -5.04231 1.36193 0
M  V30 5224 H 477.448 -2.80543 1.04575 0
M  V30 5225 H 474.994 -1.3488 0.504315 0
M  V30 5226 H 476.947 -4.08693 -1.02702 0
M  V30 5227 H 475.671 -2.92186 -1.45928 0
M  V30 5228 H 474.33 -3.62384 0.554382 0
M  V30 5229 H 473.978 -4.75171 -1.64988 0
M  V30 5230 H 473.678 -5.8686 -0.294822 0
M  V30 5231 H 475.202 -5.98283 -1.22023 0
M  V30 5232 H 476.616 -5.64058 1.02528 0
M  V30 5233 H 475.013 -5.72077 1.81239 0
M  V30 5234 H 476.083 -4.34753 2.14751 0
M  V30 5235 N 477.426 -0.562348 -1.47226 0
M  V30 5236 C 478.336 0.185466 -2.33866 0
M  V30 5237 C 479.352 0.906713 -1.48508 0
M  V30 5238 O 480.528 0.874458 -1.81425 0
M  V30 5239 C 477.593 1.19904 -3.25306 0
M  V30 5240 C 476.654 0.484669 -4.26555 0
M  V30 5241 C 475.887 1.44996 -5.13626 0
M  V30 5242 O 476.11 2.68515 -5.03245 0
M  V30 5243 O 475.044 0.971642 -5.94006 0
M  V30 5244 H 478.87 -0.525361 -2.99121 0
M  V30 5245 H 476.455 -0.322916 -1.45868 0
M  V30 5246 H 478.337 1.78399 -3.81774 0
M  V30 5247 H 477.012 1.8917 -2.62672 0
M  V30 5248 H 475.919 -0.141605 -3.73832 0
M  V30 5249 H 477.252 -0.166634 -4.91918 0
M  V30 5250 N 478.904 1.54736 -0.299062 0
M  V30 5251 C 480.129 2.04975 0.316254 0
M  V30 5252 C 480.554 1.17501 1.46885 0
M  V30 5253 O 479.912 0.178678 1.80417 0
M  V30 5254 C 479.96 3.52672 0.751997 0
M  V30 5255 O 479.064 3.68226 1.85697 0
M  V30 5256 H 478.405 0.661126 0.0617175 0
M  V30 5257 H 480.935 1.99805 -0.440341 0
M  V30 5258 H 480.945 3.94488 1.04133 0
M  V30 5259 H 479.62 4.158 -0.0911482 0
M  V30 5260 H 478.197 3.38316 1.56834 0
M  V30 5261 N 480.382 0.0267497 1.57577 0
M  V30 5262 C 481.631 -0.651736 1.9088 0
M  V30 5263 C 481.944 -1.73427 0.904576 0
M  V30 5264 O 483.15 -2.46923 1.12877 0
M  V30 5265 C 481.606 -1.21048 3.38933 0
M  V30 5266 C 481.214 -0.161362 4.47709 0
M  V30 5267 C 482.958 -1.86562 3.81307 0
M  V30 5268 C 480.865 -0.731611 5.86857 0
M  V30 5269 H 479.795 -0.247198 0.712326 0
M  V30 5270 H 482.446 0.0916641 1.83271 0
M  V30 5271 H 480.828 -2.00542 3.41466 0
M  V30 5272 H 482.002 0.61094 4.56732 0
M  V30 5273 H 480.317 0.394877 4.14523 0
M  V30 5274 H 482.914 -2.30178 4.8262 0
M  V30 5275 H 483.257 -2.70735 3.16241 0
M  V30 5276 H 483.79 -1.13762 3.81186 0
M  V30 5277 H 480.529 0.0719329 6.55461 0
M  V30 5278 H 480.049 -1.47245 5.81445 0
M  V30 5279 H 481.728 -1.22208 6.35354 0
M  V30 5280 N 481.861 -1.55662 -0.24637 0
M  V30 5281 C 482.809 -1.91186 -1.3248 0
M  V30 5282 C 483.803 -0.790996 -1.49799 0
M  V30 5283 O 485.009 -0.975617 -1.51267 0
M  V30 5284 H 481.384 -0.607207 -0.443626 0
M  V30 5285 H 483.355 -2.81221 -0.997853 0
M  V30 5286 C 482.104 -2.22349 -2.67313 0
M  V30 5287 H 481.427 -3.08097 -2.54786 0
M  V30 5288 H 482.867 -2.51107 -3.41645 0
M  V30 5289 C 481.326 -1.04001 -3.20446 0
M  V30 5290 O 481.856 -0.28828 -4.00664 0
M  V30 5291 N 480.062 -0.830494 -2.7848 0
M  V30 5292 H 479.609 -1.4435 -2.13356 0
M  V30 5293 H 479.567 -0.0403258 -3.14374 0
M  V30 5294 N 483.339 0.512053 -1.4905 0
M  V30 5295 C 484.249 1.64139 -1.67617 0
M  V30 5296 C 485.265 1.64786 -0.558701 0
M  V30 5297 O 486.441 1.8341 -0.832034 0
M  V30 5298 C 483.506 3.00548 -1.72835 0
M  V30 5299 C 482.567 3.10615 -2.96339 0
M  V30 5300 C 481.8 4.40517 -3.01298 0
M  V30 5301 O 482.023 5.28671 -2.14157 0
M  V30 5302 O 480.957 4.55325 -3.93653 0
M  V30 5303 H 484.783 1.51407 -2.63267 0
M  V30 5304 H 482.368 0.687131 -1.32661 0
M  V30 5305 H 484.25 3.81641 -1.78683 0
M  V30 5306 H 482.925 3.13566 -0.803616 0
M  V30 5307 H 481.832 2.2875 -2.96014 0
M  V30 5308 H 483.165 3.0252 -3.88256 0
M  V30 5309 N 484.817 1.37938 0.762283 0
M  V30 5310 C 485.765 1.34569 1.89721 0
M  V30 5311 C 486.759 0.232929 1.67791 0
M  V30 5312 O 487.965 0.401485 1.75465 0
M  V30 5313 H 484.34 0.419594 0.624055 0
M  V30 5314 H 486.311 2.30357 1.8968 0
M  V30 5315 C 485.06 1.17898 3.27101 0
M  V30 5316 H 484.383 2.02781 3.44558 0
M  V30 5317 H 485.823 1.19593 4.06784 0
M  V30 5318 C 484.282 -0.114728 3.36705 0
M  V30 5319 O 484.812 -1.0949 3.8649 0
M  V30 5320 N 483.018 -0.16863 2.9011 0
M  V30 5321 H 482.565 0.62967 2.49786 0
M  V30 5322 H 482.523 -1.03383 2.96916 0
M  V30 5323 N 486.295 -0.989507 1.22664 0
M  V30 5324 C 487.225 -2.09847 1.02404 0
M  V30 5325 C 488.206 -1.70007 -0.0561303 0
M  V30 5326 O 489.391 -1.93906 0.106748 0
M  V30 5327 C 486.521 -3.41996 0.604663 0
M  V30 5328 C 485.475 -3.95699 1.63115 0
M  V30 5329 C 484.801 -5.23936 1.0675 0
M  V30 5330 C 486.101 -4.25999 3.02196 0
M  V30 5331 H 487.795 -2.27054 1.95158 0
M  V30 5332 H 485.341 -1.09111 0.939727 0
M  V30 5333 H 487.294 -4.1899 0.45002 0
M  V30 5334 H 486.018 -3.24626 -0.35855 0
M  V30 5335 H 484.677 -3.2084 1.77362 0
M  V30 5336 H 484.325 -5.02909 0.0955422 0
M  V30 5337 H 484.025 -5.60833 1.75328 0
M  V30 5338 H 485.549 -6.0356 0.924516 0
M  V30 5339 H 486.963 -4.93777 2.91303 0
M  V30 5340 H 485.36 -4.74076 3.67929 0
M  V30 5341 H 486.43 -3.33636 3.51873 0
M  V30 5342 N 487.773 -1.03688 -1.18687 0
M  V30 5343 C 489.019 -0.739123 -1.88851 0
M  V30 5344 C 489.352 0.731042 -1.79915 0
M  V30 5345 O 488.627 1.53313 -1.19688 0
M  V30 5346 C 488.91 -1.20106 -3.3948 0
M  V30 5347 C 488.763 -2.73304 -3.57246 0
M  V30 5348 C 490.082 -0.788134 -4.32986 0
M  V30 5349 H 487.201 -0.269978 -0.68577 0
M  V30 5350 H 489.843 -1.28822 -1.3966 0
M  V30 5351 H 487.993 -0.733915 -3.81505 0
M  V30 5352 H 489.665 -3.28027 -3.24339 0
M  V30 5353 H 487.908 -3.13313 -3.00029 0
M  V30 5354 H 488.579 -3.00684 -4.62918 0
M  V30 5355 H 491.055 -1.19005 -3.98719 0
M  V30 5356 H 489.931 -1.13915 -5.36949 0
M  V30 5357 H 490.192 0.308988 -4.41019 0
M  V30 5358 N 489.251 1.34841 -0.815825 0
M  V30 5359 C 490.161 2.33425 -0.234462 0
M  V30 5360 C 491.177 1.62295 0.627413 0
M  V30 5361 O 492.353 1.94109 0.536987 0
M  V30 5362 C 489.418 3.41471 0.599849 0
M  V30 5363 C 488.479 4.28362 -0.283596 0
M  V30 5364 C 487.712 5.31248 0.51099 0
M  V30 5365 O 487.935 5.43056 1.7449 0
M  V30 5366 O 486.869 6.01812 -0.10297 0
M  V30 5367 H 490.695 2.84962 -1.05024 0
M  V30 5368 H 488.28 1.37774 -0.577809 0
M  V30 5369 H 490.162 4.07464 1.07475 0
M  V30 5370 H 488.837 2.9219 1.39308 0
M  V30 5371 H 487.744 3.65318 -0.805836 0
M  V30 5372 H 489.077 4.81066 -1.041 0
M  V30 5373 N 490.729 0.570148 1.46925 0
M  V30 5374 C 491.954 0.0542592 2.07329 0
M  V30 5375 C 492.379 -1.23582 1.41806 0
M  V30 5376 O 491.737 -1.74341 0.497479 0
M  V30 5377 C 491.785 -0.111175 3.60429 0
M  V30 5378 O 490.889 -1.17071 3.95434 0
M  V30 5379 H 490.23 0.0571425 0.661537 0
M  V30 5380 H 492.76 0.789516 1.88753 0
M  V30 5381 H 492.77 -0.321315 4.06733 0
M  V30 5382 H 491.445 0.831012 4.07513 0
M  V30 5383 H 490.022 -0.940029 3.60857 0
M  V30 5384 N 492.207 -1.54576 0.307264 0
M  V30 5385 C 493.17 -2.22423 -0.553224 0
M  V30 5386 C 494.17 -1.21231 -1.05639 0
M  V30 5387 O 495.36 -1.45923 -0.951419 0
M  V30 5388 C 492.492 -2.91552 -1.76664 0
M  V30 5389 H 493.685 -2.99874 0.0396484 0
M  V30 5390 H 491.238 -1.56192 0.0581629 0
M  V30 5391 H 491.973 -2.18196 -2.39918 0
M  V30 5392 H 491.758 -3.65738 -1.41343 0
M  V30 5393 H 493.248 -3.43292 -2.37783 0
M  V30 5394 N 493.685 -0.035106 -1.57561 0
M  V30 5395 C 494.615 0.942993 -2.13612 0
M  V30 5396 C 495.596 1.33531 -1.05373 0
M  V30 5397 O 496.781 1.41287 -1.33235 0
M  V30 5398 C 493.911 2.22332 -2.66807 0
M  V30 5399 C 492.865 1.97156 -3.79886 0
M  V30 5400 C 492.191 3.31506 -4.19533 0
M  V30 5401 C 493.491 1.30596 -5.05709 0
M  V30 5402 H 495.185 0.476179 -2.95589 0
M  V30 5403 H 492.731 0.227602 -1.4219 0
M  V30 5404 H 494.684 2.91142 -3.04654 0
M  V30 5405 H 493.408 2.7119 -1.81999 0
M  V30 5406 H 492.067 1.30763 -3.42486 0
M  V30 5407 H 491.715 3.78134 -3.31698 0
M  V30 5408 H 491.415 3.15465 -4.95738 0
M  V30 5409 H 492.939 4.01574 -4.59968 0
M  V30 5410 H 494.353 1.89416 -5.41105 0
M  V30 5411 H 492.75 1.24934 -5.86951 0
M  V30 5412 H 493.82 0.279742 -4.84092 0
M  V30 5413 N 495.163 1.55791 0.238111 0
M  V30 5414 C 496.579 1.48411 0.587045 0
M  V30 5415 C 496.779 0.72702 1.87927 0
M  V30 5416 O 495.835 0.259942 2.51158 0
M  V30 5417 C 497.148 2.92873 0.681623 0
M  V30 5418 C 498.696 3.03295 0.773363 0
M  V30 5419 C 499.171 4.49082 0.899428 0
M  V30 5420 N 500.662 4.53056 0.964075 0
M  V30 5421 C 501.397 5.63117 1.08104 0
M  V30 5422 N 500.893 6.82969 1.16299 0
M  V30 5423 N 502.686 5.50933 1.11488 0
M  V30 5424 H 494.837 2.0345 -0.610076 0
M  V30 5425 H 497.1 0.924034 -0.211813 0
M  V30 5426 H 496.806 3.51142 -0.19802 0
M  V30 5427 H 496.68 3.43851 1.55069 0
M  V30 5428 H 499.067 2.45101 1.64346 0
M  V30 5429 H 499.148 2.55513 -0.121034 0
M  V30 5430 H 498.792 5.07889 0.0338586 0
M  V30 5431 H 498.722 4.94553 1.809 0
M  V30 5432 H 501.213 3.66737 0.91173 0
M  V30 5433 H 501.526 7.62598 1.25155 0
M  V30 5434 H 499.871 6.85712 1.13241 0
M  V30 5435 H 503.062 4.56231 1.0474 0
M  V30 5436 H 503.235 6.36743 1.20259 0
M  V30 5437 N 496.642 -0.504142 1.49319 0
M  V30 5438 C 498.058 -0.835039 1.36012 0
M  V30 5439 C 498.258 -1.97674 0.390808 0
M  V30 5440 O 497.314 -2.51867 -0.178655 0
M  V30 5441 C 498.627 -1.17821 2.76656 0
M  V30 5442 C 500.175 -1.2866 2.85334 0
M  V30 5443 C 500.65 -1.66307 4.26739 0
M  V30 5444 N 502.141 -1.73362 4.29534 0
M  V30 5445 C 502.876 -2.0393 5.35911 0
M  V30 5446 N 502.372 -2.32744 6.52535 0
M  V30 5447 N 504.165 -2.05155 5.23324 0
M  V30 5448 H 496.316 0.248764 2.10938 0
M  V30 5449 H 498.579 0.0486962 0.946748 0
M  V30 5450 H 498.285 -0.412682 3.4927 0
M  V30 5451 H 498.159 -2.12239 3.11825 0
M  V30 5452 H 500.546 -2.04285 2.1296 0
M  V30 5453 H 500.627 -0.323004 2.53752 0
M  V30 5454 H 500.271 -0.91234 4.99639 0
M  V30 5455 H 500.201 -2.63761 4.55782 0
M  V30 5456 H 502.692 -1.53268 3.45424 0
M  V30 5457 H 503.005 -2.55248 7.2943 0
M  V30 5458 H 501.35 -2.30207 6.55767 0
M  V30 5459 H 504.541 -1.82119 4.3122 0
M  V30 5460 H 504.714 -2.28644 6.06322 0
M  V30 5461 N 498.12 -1.38341 -0.754957 0
M  V30 5462 C 499.366 -1.34672 -1.51628 0
M  V30 5463 C 499.699 0.0636036 -1.94096 0
M  V30 5464 O 498.974 1.0245 -1.6533 0
M  V30 5465 C 499.257 -2.30116 -2.76981 0
M  V30 5466 C 499.11 -3.80003 -2.4066 0
M  V30 5467 C 500.429 -2.23715 -3.78998 0
M  V30 5468 H 497.548 -0.490517 -0.550056 0
M  V30 5469 H 500.19 -1.69178 -0.864807 0
M  V30 5470 H 498.34 -2.00821 -3.3257 0
M  V30 5471 H 500.012 -4.19966 -1.90856 0
M  V30 5472 H 498.255 -3.97751 -1.73137 0
M  V30 5473 H 498.926 -4.42244 -3.30339 0
M  V30 5474 H 501.402 -2.49574 -3.32945 0
M  V30 5475 H 500.278 -2.9261 -4.64403 0
M  V30 5476 H 500.539 -1.23554 -4.24484 0
M  V30 5477 N 499.598 0.982988 -1.23187 0
M  V30 5478 C 500.546 2.09616 -1.00817 0
M  V30 5479 C 501.54 1.6932 0.0519995 0
M  V30 5480 O 502.746 1.79715 -0.101284 0
M  V30 5481 H 499.121 0.685628 -0.308899 0
M  V30 5482 H 501.092 2.25652 -1.95253 0
M  V30 5483 C 499.841 3.42249 -0.613243 0
M  V30 5484 H 499.164 3.73705 -1.42073 0
M  V30 5485 H 500.604 4.21086 -0.496208 0
M  V30 5486 C 499.063 3.30002 0.678233 0
M  V30 5487 O 499.593 3.6263 1.72807 0
M  V30 5488 N 497.799 2.83164 0.653165 0
M  V30 5489 H 497.346 2.56811 -0.201492 0
M  V30 5490 H 497.304 2.75352 1.51752 0
M  V30 5491 N 501.076 1.04316 1.18135 0
M  V30 5492 C 502.492 0.762858 1.40188 0
M  V30 5493 C 502.692 -0.646547 1.90846 0
M  V30 5494 O 501.748 -1.41036 2.0944 0
M  V30 5495 C 503.061 1.81106 2.40044 0
M  V30 5496 C 504.609 1.83226 2.53766 0
M  V30 5497 C 505.084 2.87044 3.56889 0
M  V30 5498 N 506.575 2.85951 3.64398 0
M  V30 5499 C 507.31 3.62932 4.43923 0
M  V30 5500 N 506.806 4.49672 5.27036 0
M  V30 5501 N 508.599 3.51411 4.38711 0
M  V30 5502 H 500.75 1.95264 0.835805 0
M  V30 5503 H 503.013 0.845017 0.429709 0
M  V30 5504 H 502.719 2.82214 2.09876 0
M  V30 5505 H 502.593 1.64529 3.39426 0
M  V30 5506 H 504.98 0.827869 2.8325 0
M  V30 5507 H 505.061 2.03879 1.54489 0
M  V30 5508 H 504.705 3.87663 3.28145 0
M  V30 5509 H 504.635 2.63645 4.5585 0
M  V30 5510 H 507.126 2.23051 3.05052 0
M  V30 5511 H 507.439 5.05116 5.84874 0
M  V30 5512 H 505.784 4.53738 5.26447 0
M  V30 5513 H 508.975 2.83047 3.72829 0
M  V30 5514 H 509.148 4.11654 5.00445 0
M  V30 5515 N 502.554 -1.34406 0.822964 0
M  V30 5516 C 503.464 -2.33298 0.246838 0
M  V30 5517 C 504.48 -1.62625 -0.618797 0
M  V30 5518 O 505.656 -1.94391 -0.526685 0
M  V30 5519 C 502.721 -3.41785 -0.581731 0
M  V30 5520 C 501.782 -4.28206 0.306309 0
M  V30 5521 C 501.015 -5.31512 -0.48281 0
M  V30 5522 O 501.238 -5.43973 -1.71607 0
M  V30 5523 O 500.172 -6.01749 0.134884 0
M  V30 5524 H 503.998 -2.84401 1.06534 0
M  V30 5525 H 501.583 -1.37466 0.585108 0
M  V30 5526 H 503.465 -4.08028 -1.05313 0
M  V30 5527 H 502.14 -2.92925 -1.37756 0
M  V30 5528 H 501.047 -3.64885 0.825199 0
M  V30 5529 H 502.38 -4.80507 1.06649 0
M  V30 5530 N 504.032 -0.577932 -1.46621 0
M  V30 5531 C 504.942 0.160651 -2.34049 0
M  V30 5532 C 505.958 0.890911 -1.49462 0
M  V30 5533 O 507.134 0.855166 -1.82343 0
M  V30 5534 C 504.199 1.16447 -3.26559 0
M  V30 5535 C 503.26 0.4394 -4.27045 0
M  V30 5536 C 502.493 1.3954 -5.15135 0
M  V30 5537 O 502.716 2.63162 -5.06065 0
M  V30 5538 O 501.65 0.908585 -5.95003 0
M  V30 5539 H 505.476 -0.557057 -2.98547 0
M  V30 5540 H 503.061 -0.338369 -1.45518 0
M  V30 5541 H 504.943 1.7434 -3.83645 0
M  V30 5542 H 503.618 1.86373 -2.64663 0
M  V30 5543 H 502.525 -0.181247 -3.73661 0
M  V30 5544 H 503.858 -0.218799 -4.91713 0
M  V30 5545 N 505.51 1.54411 -0.315457 0
M  V30 5546 C 506.457 2.24048 0.554166 0
M  V30 5547 C 507.427 1.2283 1.11812 0
M  V30 5548 O 508.612 1.51491 1.15997 0
M  V30 5549 C 505.752 2.99574 1.71316 0
M  V30 5550 C 504.865 4.15594 1.17922 0
M  V30 5551 C 504 4.78669 2.30324 0
M  V30 5552 C 503.039 5.86807 1.74137 0
M  V30 5553 N 502.176 6.43777 2.8017 0
M  V30 5554 H 507.016 2.97964 -0.0462602 0
M  V30 5555 H 504.553 1.47059 -0.0346009 0
M  V30 5556 H 506.511 3.41604 2.39505 0
M  V30 5557 H 505.141 2.28008 2.285 0
M  V30 5558 H 504.193 3.78404 0.389136 0
M  V30 5559 H 505.505 4.93459 0.728012 0
M  V30 5560 H 504.659 5.23626 3.06433 0
M  V30 5561 H 503.398 4.00168 2.78778 0
M  V30 5562 H 502.403 5.41261 0.965236 0
M  V30 5563 H 503.628 6.67201 1.2657 0
M  V30 5564 H 501.574 5.68153 3.2793 0
M  V30 5565 H 501.491 7.17031 2.39588 0
M  V30 5566 H 502.759 6.9339 3.56132 0
M  V30 5567 N 506.988 0.0434614 1.5754 0
M  V30 5568 C 508.236 -0.630786 1.92004 0
M  V30 5569 C 508.557 -1.71836 0.921807 0
M  V30 5570 O 507.827 -1.9587 -0.034522 0
M  V30 5571 H 506.407 -0.235988 0.708745 0
M  V30 5572 H 509.069 0.0946462 1.9467 0
M  V30 5573 H 508.165 -1.07434 2.93026 0
M  V30 5574 N 508.466 -1.55915 -0.229846 0
M  V30 5575 C 509.414 -1.9258 -1.30444 0
M  V30 5576 C 510.408 -0.806839 -1.48951 0
M  V30 5577 O 511.614 -0.991606 -1.50224 0
M  V30 5578 H 507.989 -0.611878 -0.437161 0
M  V30 5579 H 509.96 -2.82264 -0.96797 0
M  V30 5580 C 508.709 -2.25171 -2.6494 0
M  V30 5581 H 508.032 -3.10782 -2.51504 0
M  V30 5582 H 509.472 -2.54716 -3.38963 0
M  V30 5583 C 507.931 -1.07394 -3.19324 0
M  V30 5584 O 508.461 -0.330759 -4.00336 0
M  V30 5585 N 506.667 -0.859984 -2.77584 0
M  V30 5586 H 506.214 -1.46605 -2.11813 0
M  V30 5587 H 506.172 -0.0736671 -3.14314 0
M  V30 5588 N 509.944 0.496216 -1.49584 0
M  V30 5589 C 510.891 1.59722 -1.66606 0
M  V30 5590 C 511.861 1.58158 -0.507477 0
M  V30 5591 O 513.046 1.76072 -0.735076 0
M  V30 5592 C 510.186 2.97844 -1.74308 0
M  V30 5593 C 509.299 3.09388 -3.01502 0
M  V30 5594 C 508.434 4.38271 -3.00153 0
M  V30 5595 C 507.473 4.43466 -4.21906 0
M  V30 5596 N 506.61 5.63784 -4.1844 0
M  V30 5597 H 511.45 1.44515 -2.60613 0
M  V30 5598 H 508.987 0.703048 -1.29212 0
M  V30 5599 H 510.945 3.77907 -1.76754 0
M  V30 5600 H 509.575 3.11743 -0.837619 0
M  V30 5601 H 508.627 2.22357 -3.08645 0
M  V30 5602 H 509.939 3.09085 -3.91494 0
M  V30 5603 H 509.093 5.2666 -3.01188 0
M  V30 5604 H 507.832 4.41146 -2.07947 0
M  V30 5605 H 506.837 3.53478 -4.21109 0
M  V30 5606 H 508.062 4.42303 -5.1531 0
M  V30 5607 H 506.008 5.67491 -3.29074 0
M  V30 5608 H 505.925 5.65118 -5.02173 0
M  V30 5609 H 507.193 6.54367 -4.23585 0
M  V30 5610 N 511.423 1.38739 0.74761 0
M  V30 5611 C 512.648 1.38702 1.54197 0
M  V30 5612 C 513.073 -0.019664 1.8809 0
M  V30 5613 O 512.431 -1.00333 1.51006 0
M  V30 5614 C 512.479 2.25492 2.814 0
M  V30 5615 O 511.583 1.67613 3.76802 0
M  V30 5616 H 510.924 0.472863 0.466151 0
M  V30 5617 H 513.454 1.82577 0.923413 0
M  V30 5618 H 513.464 2.39561 3.30264 0
M  V30 5619 H 512.139 3.27727 2.56062 0
M  V30 5620 H 510.716 1.62718 3.35526 0
M  V30 5621 N 512.901 -0.976442 1.23707 0
M  V30 5622 C 514.147 -1.72081 1.07312 0
M  V30 5623 C 514.48 -1.90275 -0.388476 0
M  V30 5624 O 513.755 -1.4579 -1.28746 0
M  V30 5625 C 514.038 -3.11675 1.80363 0
M  V30 5626 C 513.891 -3.01027 3.3422 0
M  V30 5627 C 515.21 -4.1117 1.5693 0
M  V30 5628 H 512.329 -0.624583 0.391236 0
M  V30 5629 H 514.971 -1.13649 1.52263 0
M  V30 5630 H 513.121 -3.61559 1.42153 0
M  V30 5631 H 514.793 -2.58637 3.81975 0
M  V30 5632 H 513.036 -2.3744 3.63049 0
M  V30 5633 H 513.707 -3.9988 3.80525 0
M  V30 5634 H 516.183 -3.7011 1.90151 0
M  V30 5635 H 515.059 -5.06928 2.10513 0
M  V30 5636 H 515.32 -4.392 0.505548 0
M  V30 5637 N 514.379 -1.04941 -1.1758 0
M  V30 5638 C 515.329 -0.618378 -2.19454 0
M  V30 5639 C 516.313 0.343813 -1.57184 0
M  V30 5640 O 517.505 0.16145 -1.76262 0
M  V30 5641 C 514.634 0.00803847 -3.43299 0
M  V30 5642 C 513.72 -0.977827 -4.12673 0
M  V30 5643 N 514.111 -2.14826 -4.57912 0
M  V30 5644 C 512.409 -0.805748 -4.38661 0
M  V30 5645 C 513.11 -2.77174 -5.11419 0
M  V30 5646 N 512.086 -2.04989 -5.03468 0
M  V30 5647 H 515.888 -1.51018 -2.52132 0
M  V30 5648 H 513.402 -0.919201 -1.33882 0
M  V30 5649 H 515.399 0.334584 -4.15555 0
M  V30 5650 H 514.059 0.895272 -3.12114 0
M  V30 5651 H 515.07 -2.52673 -4.52081 0
M  V30 5652 H 511.747 0.0306506 -4.17489 0
M  V30 5653 H 513.137 -3.76416 -5.56562 0
M  V30 5654 N 515.857 1.33968 -0.830081 0
M  V30 5655 C 516.787 2.31911 -0.271911 0
M  V30 5656 C 517.768 1.58571 0.61556 0
M  V30 5657 O 518.953 1.86514 0.540946 0
M  V30 5658 C 516.083 3.42737 0.561146 0
M  V30 5659 C 515.037 4.27383 -0.229789 0
M  V30 5660 C 514.363 5.29742 0.726463 0
M  V30 5661 C 515.663 5.02 -1.44197 0
M  V30 5662 H 517.357 2.78844 -1.09025 0
M  V30 5663 H 514.903 1.34061 -0.52571 0
M  V30 5664 H 516.856 4.10276 0.961867 0
M  V30 5665 H 515.58 2.94471 1.41261 0
M  V30 5666 H 514.239 3.61456 -0.611964 0
M  V30 5667 H 513.887 4.77736 1.57408 0
M  V30 5668 H 513.587 5.87255 0.20142 0
M  V30 5669 H 515.111 6.00149 1.12489 0
M  V30 5670 H 516.525 5.62355 -1.11488 0
M  V30 5671 H 514.922 5.69122 -1.90317 0
M  V30 5672 H 515.992 4.31281 -2.2164 0
M  V30 5673 N 517.335 0.585699 1.46312 0
M  V30 5674 C 518.751 0.247607 1.57668 0
M  V30 5675 C 518.951 -1.25007 1.58037 0
M  V30 5676 O 518.007 -2.03196 1.49893 0
M  V30 5677 C 519.32 0.899456 2.86933 0
M  V30 5678 C 520.868 0.873326 3.00569 0
M  V30 5679 C 521.343 1.50477 4.32574 0
M  V30 5680 N 522.834 1.46925 4.3928 0
M  V30 5681 C 523.569 1.92719 5.40044 0
M  V30 5682 N 523.065 2.46499 6.47464 0
M  V30 5683 N 524.858 1.83617 5.31264 0
M  V30 5684 H 517.009 1.55841 1.44317 0
M  V30 5685 H 519.272 0.651564 0.688599 0
M  V30 5686 H 518.978 1.95313 2.92482 0
M  V30 5687 H 518.852 0.409476 3.74971 0
M  V30 5688 H 521.239 -0.171736 2.946 0
M  V30 5689 H 521.32 1.40136 2.13999 0
M  V30 5690 H 520.964 2.54905 4.39302 0
M  V30 5691 H 520.894 0.951944 5.17924 0
M  V30 5692 H 523.385 1.07616 3.62253 0
M  V30 5693 H 523.698 2.79291 7.20567 0
M  V30 5694 H 522.043 2.50526 6.48276 0
M  V30 5695 H 525.234 1.41358 4.46246 0
M  V30 5696 H 525.407 2.19622 6.09648 0
M  V30 5697 N 518.813 -1.54241 0.323641 0
M  V30 5698 C 519.76 -2.24339 -0.542277 0
M  V30 5699 C 520.73 -1.23421 -1.11159 0
M  V30 5700 O 521.915 -1.52104 -1.15192 0
M  V30 5701 C 519.055 -3.00479 -1.69725 0
M  V30 5702 C 518.168 -4.16214 -1.15716 0
M  V30 5703 C 517.303 -4.79884 -2.27783 0
M  V30 5704 C 516.342 -5.87722 -1.71023 0
M  V30 5705 N 515.479 -6.45254 -2.76752 0
M  V30 5706 H 520.319 -2.97935 0.0620613 0
M  V30 5707 H 517.856 -1.47039 0.0423993 0
M  V30 5708 H 519.814 -3.42869 -2.3769 0
M  V30 5709 H 518.444 -2.29217 -2.27288 0
M  V30 5710 H 517.496 -3.78605 -0.369063 0
M  V30 5711 H 518.808 -4.93838 -0.701832 0
M  V30 5712 H 517.962 -5.25243 -3.03651 0
M  V30 5713 H 516.701 -4.01641 -2.76652 0
M  V30 5714 H 515.706 -5.41765 -0.936518 0
M  V30 5715 H 516.931 -6.67863 -1.2303 0
M  V30 5716 H 514.877 -5.69884 -3.24912 0
M  V30 5717 H 514.794 -7.18292 -2.35782 0
M  V30 5718 H 516.062 -6.95269 -3.5245 0
M  V30 5719 N 520.291 -0.0518155 -1.57515 0
M  V30 5720 C 521.254 0.907547 -2.10467 0
M  V30 5721 C 522.254 1.23947 -1.02439 0
M  V30 5722 O 523.444 1.17604 -1.2851 0
M  V30 5723 C 520.576 2.21723 -2.58944 0
M  V30 5724 H 521.769 0.44851 -2.96527 0
M  V30 5725 H 519.322 0.196598 -1.55059 0
M  V30 5726 H 520.057 2.72206 -1.76279 0
M  V30 5727 H 519.842 1.98935 -3.37886 0
M  V30 5728 H 521.332 2.90441 -3.00056 0
M  V30 5729 N 521.769 1.56035 0.221574 0
M  V30 5730 C 522.994 1.83476 0.967026 0
M  V30 5731 C 523.419 0.632139 1.7716 0
M  V30 5732 O 522.777 -0.419082 1.7639 0
M  V30 5733 C 522.825 3.08907 1.86034 0
M  V30 5734 O 521.929 2.876 2.95567 0
M  V30 5735 H 521.27 0.604913 0.273817 0
M  V30 5736 H 523.8 2.03247 0.234893 0
M  V30 5737 H 523.81 3.3901 2.27016 0
M  V30 5738 H 522.485 3.96068 1.26898 0
M  V30 5739 H 521.062 2.6873 2.58532 0
M  V30 5740 N 523.247 -0.488276 1.49845 0
M  V30 5741 C 524.472 -1.26997 1.63971 0
M  V30 5742 C 524.897 -1.85427 0.315994 0
M  V30 5743 O 524.255 -1.66475 -0.718032 0
M  V30 5744 C 524.303 -2.36689 2.72049 0
M  V30 5745 O 523.407 -3.40882 2.32107 0
M  V30 5746 H 522.748 -0.374376 0.548396 0
M  V30 5747 H 525.278 -0.583104 1.96115 0
M  V30 5748 H 525.288 -2.82262 2.94605 0
M  V30 5749 H 523.963 -1.93529 3.68129 0
M  V30 5750 H 522.54 -3.01139 2.19931 0
M  V30 5751 N 524.725 -1.39134 -0.740242 0
M  V30 5752 C 526.136 -1.32208 -1.31825 0
M  V30 5753 C 526.487 0.0159919 -1.96193 0
M  V30 5754 O 525.612 0.918111 -1.95958 0
M  V30 5755 C 526.207 -2.39436 -2.39699 0
M  V30 5756 C 524.766 -2.36048 -2.93187 0
M  V30 5757 C 523.913 -2.21599 -1.66701 0
M  V30 5758 H 526.864 -1.49298 -0.538133 0
M  V30 5759 H 526.885 -2.05922 -3.19963 0
M  V30 5760 H 526.397 -3.36811 -1.92821 0
M  V30 5761 H 524.498 -1.42295 -3.44359 0
M  V30 5762 H 524.611 -3.30704 -3.46658 0
M  V30 5763 H 522.975 -1.68681 -1.90837 0
M  V30 5764 H 523.758 -3.20936 -1.21882 0
M  V30 5765 N 526.204 0.969867 -1.24223 0
M  V30 5766 C 527.152 2.08535 -1.03034 0
M  V30 5767 C 528.146 1.69366 0.0340379 0
M  V30 5768 O 529.352 1.79597 -0.12034 0
M  V30 5769 H 525.727 0.682313 -0.316154 0
M  V30 5770 H 527.698 2.23569 -1.97635 0
M  V30 5771 C 526.447 3.4158 -0.649509 0
M  V30 5772 H 525.77 3.72177 -1.46028 0
M  V30 5773 H 527.21 4.20536 -0.540841 0
M  V30 5774 C 525.669 3.30703 0.643194 0
M  V30 5775 O 526.199 3.64443 1.68951 0
M  V30 5776 N 524.405 2.83841 0.623095 0
M  V30 5777 H 523.952 2.56583 -0.228719 0
M  V30 5778 H 523.91 2.76946 1.48823 0
M  V30 5779 N 527.682 1.05563 1.17022 0
M  V30 5780 C 528.612 0.681026 2.23348 0
M  V30 5781 C 529.593 -0.322983 1.67005 0
M  V30 5782 O 530.778 -0.199746 1.9317 0
M  V30 5783 C 527.908 0.0589053 3.4725 0
M  V30 5784 C 526.862 0.988082 4.16438 0
M  V30 5785 C 526.188 0.229646 5.34207 0
M  V30 5786 C 527.488 2.31388 4.68249 0
M  V30 5787 H 529.182 1.56993 2.54938 0
M  V30 5788 H 526.728 0.756302 1.2254 0
M  V30 5789 H 528.681 -0.214982 4.20851 0
M  V30 5790 H 527.405 -0.864968 3.14938 0
M  V30 5791 H 526.064 1.24659 3.44754 0
M  V30 5792 H 525.712 -0.697111 4.98146 0
M  V30 5793 H 525.412 0.848815 5.81437 0
M  V30 5794 H 526.936 -0.0368694 6.10589 0
M  V30 5795 H 528.35 2.09964 5.33468 0
M  V30 5796 H 526.747 2.88736 5.26072 0
M  V30 5797 H 527.817 2.94982 3.84855 0
M  V30 5798 N 529.16 -1.33526 0.837174 0
M  V30 5799 C 530.11 -2.2672 0.241269 0
M  V30 5800 C 531.094 -1.49183 -0.602756 0
M  V30 5801 O 532.286 -1.71052 -0.455002 0
M  V30 5802 C 529.415 -3.38294 -0.584125 0
M  V30 5803 C 528.501 -4.23231 0.271315 0
M  V30 5804 N 528.892 -4.87473 1.34922 0
M  V30 5805 C 527.19 -4.45962 0.0580589 0
M  V30 5806 C 527.891 -5.50685 1.87405 0
M  V30 5807 N 526.867 -5.30732 1.17578 0
M  V30 5808 H 530.669 -2.73903 1.06558 0
M  V30 5809 H 528.183 -1.47411 0.68145 0
M  V30 5810 H 530.18 -4.04044 -1.02731 0
M  V30 5811 H 528.84 -2.9266 -1.40643 0
M  V30 5812 H 529.851 -4.88077 1.7321 0
M  V30 5813 H 526.528 -4.11052 -0.730938 0
M  V30 5814 H 527.918 -6.11845 2.77661 0
M  V30 5815 N 530.638 -0.59345 -1.46 0
M  V30 5816 C 532.054 -0.255965 -1.57534 0
M  V30 5817 C 532.254 1.24167 -1.58697 0
M  V30 5818 O 531.31 2.02398 -1.50968 0
M  V30 5819 C 532.623 -0.91466 -2.86451 0
M  V30 5820 C 534.171 -0.889253 -3.00102 0
M  V30 5821 C 534.646 -1.52769 -4.3177 0
M  V30 5822 N 536.137 -1.49253 -4.38495 0
M  V30 5823 C 536.872 -1.9558 -5.39014 0
M  V30 5824 N 536.368 -2.49929 -6.46148 0
M  V30 5825 N 538.161 -1.86432 -5.30282 0
M  V30 5826 H 530.312 -1.56604 -1.43489 0
M  V30 5827 H 532.575 -0.655207 -0.685133 0
M  V30 5828 H 532.281 -1.96861 -2.91442 0
M  V30 5829 H 532.155 -0.429356 -3.74748 0
M  V30 5830 H 534.542 0.156111 -2.94687 0
M  V30 5831 H 534.623 -1.41268 -2.13253 0
M  V30 5832 H 534.267 -2.57231 -4.37944 0
M  V30 5833 H 534.197 -0.979398 -5.17412 0
M  V30 5834 H 536.688 -1.09536 -3.61677 0
M  V30 5835 H 537.001 -2.83109 -7.19075 0
M  V30 5836 H 535.346 -2.53961 -6.46938 0
M  V30 5837 H 538.537 -1.43722 -4.4549 0
M  V30 5838 H 538.71 -2.22852 -6.08474 0
M  V30 5839 N 532.116 1.54067 -0.331816 0
M  V30 5840 C 533.532 1.59587 0.0205388 0
M  V30 5841 C 533.732 1.34813 1.49759 0
M  V30 5842 O 532.788 1.13661 2.25471 0
M  V30 5843 C 534.101 2.97959 -0.405103 0
M  V30 5844 C 535.649 3.10964 -0.356454 0
M  V30 5845 C 536.124 4.51694 -0.757384 0
M  V30 5846 N 537.615 4.57709 -0.71111 0
M  V30 5847 C 538.35 5.64729 -0.993427 0
M  V30 5848 N 537.846 6.79652 -1.3433 0
M  V30 5849 N 539.639 5.54546 -0.918442 0
M  V30 5850 H 531.79 1.68426 -1.29407 0
M  V30 5851 H 534.053 0.78819 -0.526745 0
M  V30 5852 H 533.759 3.21115 -1.43451 0
M  V30 5853 H 533.633 3.76524 0.225692 0
M  V30 5854 H 536.02 2.87538 0.663763 0
M  V30 5855 H 536.101 2.34484 -1.02229 0
M  V30 5856 H 535.745 4.75853 -1.77555 0
M  V30 5857 H 535.675 5.26555 -0.0691444 0
M  V30 5858 H 538.166 3.75176 -0.452883 0
M  V30 5859 H 538.479 7.57221 -1.54388 0
M  V30 5860 H 536.824 6.81128 -1.38164 0
M  V30 5861 H 540.015 4.63641 -0.644536 0
M  V30 5862 H 540.188 6.37861 -1.14181 0
M  V30 5863 N 533.594 0.0601682 1.57485 0
M  V30 5864 C 534.526 -0.94047 2.09016 0
M  V30 5865 C 535.539 -1.26897 1.01985 0
M  V30 5866 O 536.728 -1.22819 1.29529 0
M  V30 5867 C 533.828 -2.25955 2.52582 0
M  V30 5868 C 533.001 -2.11163 3.83052 0
M  V30 5869 C 532.06 -3.26273 4.12835 0
M  V30 5870 O 531.086 -3.01779 4.82616 0
M  V30 5871 N 532.288 -4.51022 3.65458 0
M  V30 5872 H 535.053 -0.500578 2.9549 0
M  V30 5873 H 532.614 -0.125852 1.6141 0
M  V30 5874 H 534.606 -3.01846 2.69575 0
M  V30 5875 H 533.176 -2.61481 1.71308 0
M  V30 5876 H 532.396 -1.19808 3.75552 0
M  V30 5877 H 533.684 -1.98517 4.68475 0
M  V30 5878 H 533.082 -4.73811 3.09062 0
M  V30 5879 H 531.639 -5.23978 3.87673 0
M  V30 5880 N 535.072 -1.5615 -0.213296 0
M  V30 5881 C 536.318 -1.80718 -0.933402 0
M  V30 5882 C 536.673 -0.634441 -1.81639 0
M  V30 5883 O 535.966 0.371182 -1.8797 0
M  V30 5884 C 536.16 -3.08772 -1.79985 0
M  V30 5885 C 535.989 -4.38389 -1.00224 0
M  V30 5886 C 534.759 -5.00513 -0.693885 0
M  V30 5887 C 536.957 -5.13013 -0.363598 0
M  V30 5888 N 534.939 -6.13774 0.124266 0
M  V30 5889 C 536.31 -6.19186 0.31757 0
M  V30 5890 C 538.365 -4.97126 -0.277468 0
M  V30 5891 C 537.068 -7.11197 1.07664 0
M  V30 5892 C 539.094 -5.89544 0.468155 0
M  V30 5893 C 538.456 -6.95149 1.13784 0
M  V30 5894 H 534.555 -0.712833 -0.321549 0
M  V30 5895 H 537.139 -1.93633 -0.203588 0
M  V30 5896 H 535.31 -2.97126 -2.50142 0
M  V30 5897 H 537.042 -3.21499 -2.45806 0
M  V30 5898 H 533.797 -4.62619 -1.01391 0
M  V30 5899 H 534.221 -6.74981 0.522418 0
M  V30 5900 H 538.863 -4.15526 -0.78087 0
M  V30 5901 H 536.581 -7.92273 1.59153 0
M  V30 5902 H 540.167 -5.79327 0.535911 0
M  V30 5903 H 539.047 -7.65428 1.70557 0
M  V30 5904 N 536.55 0.480323 -1.50102 0
M  V30 5905 C 537.46 1.60547 -1.71061 0
M  V30 5906 C 538.476 1.63564 -0.593529 0
M  V30 5907 O 539.652 1.81604 -0.870751 0
M  V30 5908 C 536.717 2.96814 -1.79171 0
M  V30 5909 C 535.778 3.04259 -3.02861 0
M  V30 5910 C 535.011 4.34027 -3.10574 0
M  V30 5911 O 535.234 5.24009 -2.25323 0
M  V30 5912 O 534.168 4.46873 -4.03223 0
M  V30 5913 H 537.994 1.45788 -2.6642 0
M  V30 5914 H 535.579 0.658838 -1.34088 0
M  V30 5915 H 537.461 3.77765 -1.86738 0
M  V30 5916 H 536.136 3.11791 -0.869947 0
M  V30 5917 H 535.043 2.22419 -3.008 0
M  V30 5918 H 536.376 2.94216 -3.94586 0
M  V30 5919 N 538.028 1.39524 0.732853 0
M  V30 5920 C 538.975 1.38416 1.84688 0
M  V30 5921 C 539.945 0.243539 1.64305 0
M  V30 5922 O 541.13 0.438979 1.85681 0
M  V30 5923 C 538.27 1.23555 3.22224 0
M  V30 5924 C 537.383 2.47179 3.54298 0
M  V30 5925 C 536.518 2.2489 4.81246 0
M  V30 5926 C 535.557 3.44178 5.0617 0
M  V30 5927 N 534.694 3.21192 6.24323 0
M  V30 5928 H 539.534 2.33645 1.84971 0
M  V30 5929 H 537.071 1.16059 0.903804 0
M  V30 5930 H 539.029 1.12949 4.0162 0
M  V30 5931 H 537.659 0.31954 3.21215 0
M  V30 5932 H 536.711 2.68379 2.69587 0
M  V30 5933 H 538.023 3.36022 3.68633 0
M  V30 5934 H 537.177 2.11538 5.68627 0
M  V30 5935 H 535.916 1.33443 4.69089 0
M  V30 5936 H 534.921 3.58025 4.17251 0
M  V30 5937 H 536.146 4.36528 5.20212 0
M  V30 5938 H 534.092 2.32413 6.1345 0
M  V30 5939 H 534.009 4.03594 6.39256 0
M  V30 5940 H 535.277 3.1154 7.14537 0
M  V30 5941 N 539.506 -0.963266 1.24736 0
M  V30 5942 C 540.454 -2.07985 1.04139 0
M  V30 5943 C 541.448 -1.69381 -0.0250556 0
M  V30 5944 O 542.654 -1.79531 0.129863 0
M  V30 5945 H 539.029 -0.680627 0.319768 0
M  V30 5946 H 541 -2.22517 1.98818 0
M  V30 5947 C 539.749 -3.4123 0.667615 0
M  V30 5948 H 539.072 -3.71397 1.48 0
M  V30 5949 H 540.512 -4.20244 0.563136 0
M  V30 5950 C 538.971 -3.3104 -0.625647 0
M  V30 5951 O 539.501 -3.65334 -1.67016 0
M  V30 5952 N 537.707 -2.84168 -0.608033 0
M  V30 5953 H 537.254 -2.56458 0.242323 0
M  V30 5954 H 537.212 -2.77732 -1.47352 0
M  V30 5955 N 540.985 -1.06182 -1.16461 0
M  V30 5956 C 542.231 -0.779015 -1.87241 0
M  V30 5957 C 542.564 0.692715 -1.81425 0
M  V30 5958 O 541.839 1.5074 -1.22913 0
M  V30 5959 C 542.122 -1.2728 -3.36856 0
M  V30 5960 C 541.975 -2.80821 -3.51368 0
M  V30 5961 C 543.294 -0.879799 -4.31216 0
M  V30 5962 H 540.413 -0.284464 -0.679889 0
M  V30 5963 H 543.055 -1.31755 -1.36896 0
M  V30 5964 H 541.205 -0.814673 -3.79862 0
M  V30 5965 H 542.877 -3.34833 -3.17308 0
M  V30 5966 H 541.12 -3.19606 -2.93316 0
M  V30 5967 H 541.791 -3.10435 -4.56436 0
M  V30 5968 H 544.267 -1.27436 -3.96105 0
M  V30 5969 H 543.143 -1.25278 -5.34412 0
M  V30 5970 H 543.404 0.215372 -4.41575 0
M  V30 5971 N 542.463 1.3308 -0.844243 0
M  V30 5972 C 543.874 1.7992 -0.498566 0
M  V30 5973 C 544.225 1.69808 0.982834 0
M  V30 5974 O 543.35 1.25051 1.7661 0
M  V30 5975 C 543.945 3.26677 -0.898204 0
M  V30 5976 C 542.504 3.71513 -0.604583 0
M  V30 5977 C 541.651 2.54393 -1.10362 0
M  V30 5978 H 544.602 1.20526 -1.03244 0
M  V30 5979 H 544.623 3.79918 -0.21039 0
M  V30 5980 H 544.135 3.34004 -1.97643 0
M  V30 5981 H 542.236 3.69708 0.46335 0
M  V30 5982 H 542.349 4.64755 -1.16358 0
M  V30 5983 H 540.713 2.49246 -0.524273 0
M  V30 5984 H 541.496 2.6448 -2.18873 0
M  V30 5985 N 543.941 0.601185 1.45683 0
M  V30 5986 C 544.889 -0.133955 2.32214 0
M  V30 5987 C 545.883 -0.866034 1.45589 0
M  V30 5988 O 547.089 -0.782326 1.6211 0
M  V30 5989 H 543.464 -0.0620613 0.749435 0
M  V30 5990 H 545.435 0.614389 2.92007 0
M  V30 5991 C 544.184 -1.12216 3.29094 0
M  V30 5992 H 543.507 -0.568273 3.95741 0
M  V30 5993 H 544.947 -1.60659 3.92383 0
M  V30 5994 C 543.406 -2.19251 2.55794 0
M  V30 5995 O 543.936 -3.26894 2.33459 0
M  V30 5996 N 542.142 -1.9436 2.16039 0
M  V30 5997 H 541.689 -1.06829 2.34404 0
M  V30 5998 H 541.647 -2.66181 1.67318 0
M  V30 5999 N 545.419 -1.53889 0.339982 0
M  V30 6000 C 546.647 -2.05271 -0.259114 0
M  V30 6001 C 547.062 -1.21517 -1.44496 0
M  V30 6002 O 546.419 -0.24966 -1.80784 0
M  V30 6003 C 546.47 -3.55092 -0.677634 0
M  V30 6004 O 546.191 -4.35667 0.461051 0
M  V30 6005 C 547.692 -4.22631 -1.33782 0
M  V30 6006 H 544.912 -0.669085 -0.0506566 0
M  V30 6007 H 547.456 -1.9852 0.490935 0
M  V30 6008 H 545.611 -3.62077 -1.37763 0
M  V30 6009 H 546.025 -5.24343 0.128144 0
M  V30 6010 H 547.499 -5.28861 -1.58145 0
M  V30 6011 H 547.976 -3.74758 -2.29027 0
M  V30 6012 H 548.582 -4.19829 -0.679957 0
M  V30 6013 N 546.897 -0.0685191 -1.57451 0
M  V30 6014 C 547.86 0.885173 -2.11417 0
M  V30 6015 C 548.86 1.22853 -1.03748 0
M  V30 6016 O 550.05 1.16235 -1.2975 0
M  V30 6017 C 547.182 2.18964 -2.61281 0
M  V30 6018 H 548.375 0.417034 -2.96986 0
M  V30 6019 H 545.928 0.18014 -1.55258 0
M  V30 6020 H 546.663 2.70321 -1.79156 0
M  V30 6021 H 546.448 1.9534 -3.39977 0
M  V30 6022 H 547.938 2.87242 -3.0312 0
M  V30 6023 N 548.375 1.56261 0.205012 0
M  V30 6024 C 549.305 1.96779 1.257 0
M  V30 6025 C 550.286 0.838309 1.48008 0
M  V30 6026 O 551.471 1.10189 1.59913 0
M  V30 6027 C 548.601 2.29876 2.60335 0
M  V30 6028 C 547.555 3.45469 2.52656 0
M  V30 6029 C 546.881 3.64215 3.91473 0
M  V30 6030 C 548.181 4.79954 2.06014 0
M  V30 6031 H 549.875 2.84904 0.920338 0
M  V30 6032 H 547.421 1.37072 0.441277 0
M  V30 6033 H 549.374 2.56814 3.34102 0
M  V30 6034 H 548.098 1.38622 2.95722 0
M  V30 6035 H 546.757 3.18605 1.81345 0
M  V30 6036 H 546.405 2.70309 4.24196 0
M  V30 6037 H 546.105 4.41973 3.87213 0
M  V30 6038 H 547.629 3.93519 4.66878 0
M  V30 6039 H 549.043 5.05989 2.69533 0
M  V30 6040 H 547.44 5.61111 2.12777 0
M  V30 6041 H 548.51 4.74201 1.01297 0
M  V30 6042 N 549.853 -0.472356 1.50355 0
M  V30 6043 C 551.081 -1.24784 1.65035 0
M  V30 6044 C 551.496 -1.85837 0.333176 0
M  V30 6045 O 550.853 -1.69168 -0.68472 0
M  V30 6046 C 550.904 -2.35747 2.74054 0
M  V30 6047 O 550.625 -1.77197 4.00665 0
M  V30 6048 C 552.126 -3.26645 2.99696 0
M  V30 6049 H 549.346 -0.377432 0.554785 0
M  V30 6050 H 551.89 -0.563962 1.9657 0
M  V30 6051 H 550.045 -2.99912 2.45217 0
M  V30 6052 H 550.459 -2.5026 4.60945 0
M  V30 6053 H 551.933 -4.00718 3.79644 0
M  V30 6054 H 552.41 -3.8535 2.10718 0
M  V30 6055 H 553.016 -2.68218 3.3006 0
M  V30 6056 N 551.331 -1.39911 -0.725443 0
M  V30 6057 C 552.294 -1.39156 -1.82121 0
M  V30 6058 C 553.294 -0.287018 -1.58218 0
M  V30 6059 O 554.484 -0.545421 -1.65441 0
M  V30 6060 C 551.616 -1.1736 -3.20062 0
M  V30 6061 H 552.809 -2.36672 -1.84191 0
M  V30 6062 H 550.362 -1.25615 -0.930079 0
M  V30 6063 H 551.097 -0.205648 -3.23647 0
M  V30 6064 H 550.882 -1.97358 -3.3881 0
M  V30 6065 H 552.372 -1.19596 -4.00108 0
M  V30 6066 N 552.809 0.956637 -1.25245 0
M  V30 6067 C 553.739 2.07058 -1.07931 0
M  V30 6068 C 554.72 1.70096 0.0110361 0
M  V30 6069 O 555.905 1.93555 -0.158121 0
M  V30 6070 C 553.035 3.40272 -0.695124 0
M  V30 6071 C 551.989 3.91235 -1.73549 0
M  V30 6072 C 551.315 5.20921 -1.20604 0
M  V30 6073 C 552.615 4.17837 -3.13385 0
M  V30 6074 H 554.309 2.218 -2.01109 0
M  V30 6075 H 551.855 1.06581 -0.968326 0
M  V30 6076 H 553.808 4.1765 -0.560949 0
M  V30 6077 H 552.532 3.25462 0.272355 0
M  V30 6078 H 551.191 3.16025 -1.85807 0
M  V30 6079 H 550.839 5.02479 -0.228846 0
M  V30 6080 H 550.539 5.55987 -1.90136 0
M  V30 6081 H 552.063 6.00897 -1.08421 0
M  V30 6082 H 553.477 4.8588 -3.04292 0
M  V30 6083 H 551.874 4.64154 -3.80369 0
M  V30 6084 H 552.944 3.2419 -3.60595 0
M  V30 6085 N 554.287 1.06798 1.15896 0
M  V30 6086 C 555.197 0.694564 2.24083 0
M  V30 6087 C 556.213 -0.291687 1.71538 0
M  V30 6088 O 557.389 -0.139723 2.00915 0
M  V30 6089 C 554.454 0.0921014 3.46578 0
M  V30 6090 C 553.515 1.13087 4.14137 0
M  V30 6091 C 552.748 0.557064 5.30785 0
M  V30 6092 O 552.971 -0.628623 5.66925 0
M  V30 6093 O 551.905 1.29924 5.8771 0
M  V30 6094 H 555.731 1.59663 2.58344 0
M  V30 6095 H 553.316 0.840575 1.2351 0
M  V30 6096 H 555.198 -0.241884 4.20705 0
M  V30 6097 H 553.873 -0.78337 3.14078 0
M  V30 6098 H 552.78 1.51712 3.41957 0
M  V30 6099 H 554.113 1.97805 4.50704 0
M  V30 6100 N 555.766 -1.3263 0.851289 0
M  V30 6101 C 556.714 -2.30882 0.282202 0
M  V30 6102 C 557.708 -1.58697 -0.592589 0
M  V30 6103 O 558.914 -1.73461 -0.480768 0
M  V30 6104 H 555.289 -0.748492 0.0725487 0
M  V30 6105 H 557.26 -2.76374 1.12516 0
M  V30 6106 C 556.009 -3.43828 -0.517449 0
M  V30 6107 H 555.332 -3.99532 0.146392 0
M  V30 6108 H 556.772 -4.1474 -0.88128 0
M  V30 6109 C 555.231 -2.90786 -1.70133 0
M  V30 6110 O 555.761 -2.88 -2.80034 0
M  V30 6111 N 553.967 -2.4723 -1.52728 0
M  V30 6112 H 553.514 -2.49695 -0.633257 0
M  V30 6113 H 553.472 -2.12094 -2.32085 0
M  V30 6114 N 557.244 -0.608902 -1.45362 0
M  V30 6115 C 558.207 0.0992563 -2.28985 0
M  V30 6116 C 559.207 0.793841 -1.39838 0
M  V30 6117 O 560.397 0.641804 -1.61946 0
M  V30 6118 C 557.529 1.15073 -3.20891 0
M  V30 6119 H 558.722 -0.635964 -2.93079 0
M  V30 6120 H 556.275 -0.368007 -1.51906 0
M  V30 6121 H 557.01 1.91667 -2.616 0
M  V30 6122 H 556.795 0.656867 -3.86559 0
M  V30 6123 H 558.285 1.64665 -3.83765 0
M  V30 6124 N 558.722 1.53707 -0.348139 0
M  V30 6125 C 559.947 2.05877 0.250883 0
M  V30 6126 C 560.372 1.22115 1.43072 0
M  V30 6127 O 559.73 0.235986 1.79758 0
M  V30 6128 C 559.778 3.54886 0.639416 0
M  V30 6129 O 558.882 3.73948 1.73888 0
M  V30 6130 H 558.223 0.662754 0.040653 0
M  V30 6131 H 560.753 1.98303 -0.503685 0
M  V30 6132 H 560.763 3.97601 0.915295 0
M  V30 6133 H 559.438 4.153 -0.223386 0
M  V30 6134 H 558.015 3.43134 1.45991 0
M  V30 6135 N 560.2 0.0768682 1.57412 0
M  V30 6136 C 561.449 -0.590679 1.92857 0
M  V30 6137 C 561.762 -1.70461 0.959293 0
M  V30 6138 O 562.968 -2.43207 1.20675 0
M  V30 6139 C 561.424 -1.10204 3.42612 0
M  V30 6140 C 561.032 -0.0188447 4.47996 0
M  V30 6141 C 562.776 -1.74336 3.87049 0
M  V30 6142 C 560.683 -0.544536 5.88888 0
M  V30 6143 H 559.613 -0.224411 0.71983 0
M  V30 6144 H 562.264 0.149924 1.82887 0
M  V30 6145 H 560.646 -1.89577 3.47673 0
M  V30 6146 H 561.82 0.755936 4.54557 0
M  V30 6147 H 560.135 0.526555 4.13057 0
M  V30 6148 H 562.732 -2.14708 4.89699 0
M  V30 6149 H 563.075 -2.60537 3.24694 0
M  V30 6150 H 563.608 -1.01577 3.84613 0
M  V30 6151 H 560.347 0.280426 6.549 0
M  V30 6152 H 559.867 -1.28673 5.85836 0
M  V30 6153 H 561.546 -1.01933 6.3892 0
M  V30 6154 N 561.678 -1.56367 -0.196722 0
M  V30 6155 C 562.608 -1.97442 -1.24655 0
M  V30 6156 C 563.589 -0.846147 -1.47561 0
M  V30 6157 O 564.774 -1.11035 -1.59326 0
M  V30 6158 C 561.904 -2.31253 -2.59112 0
M  V30 6159 C 560.858 -3.46804 -2.50821 0
M  V30 6160 C 560.184 -3.66286 -3.89536 0
M  V30 6161 C 561.484 -4.8104 -2.03465 0
M  V30 6162 H 563.178 -2.85388 -0.905216 0
M  V30 6163 H 560.724 -1.37304 -0.434002 0
M  V30 6164 H 562.677 -2.58583 -3.32736 0
M  V30 6165 H 561.401 -1.40188 -2.94983 0
M  V30 6166 H 560.06 -3.19563 -1.79653 0
M  V30 6167 H 559.708 -2.72555 -4.22756 0
M  V30 6168 H 559.408 -4.4402 -3.84864 0
M  V30 6169 H 560.932 -3.9599 -4.64784 0
M  V30 6170 H 562.346 -5.07411 -2.66846 0
M  V30 6171 H 560.743 -5.62232 -2.09798 0
M  V30 6172 H 561.813 -4.74732 -0.98781 0
M  V30 6173 N 563.156 0.464375 -1.50603 0
M  V30 6174 C 564.384 1.23907 -1.65695 0
M  V30 6175 C 564.799 1.85658 -0.343027 0
M  V30 6176 O 564.156 1.69529 0.675739 0
M  V30 6177 C 564.207 2.3429 -2.75301 0
M  V30 6178 O 563.928 1.7507 -4.01599 0
M  V30 6179 C 565.429 3.25051 -3.01424 0
M  V30 6180 H 562.649 0.374485 -0.556778 0
M  V30 6181 H 565.193 0.55353 -1.96866 0
M  V30 6182 H 563.348 2.98607 -2.46804 0
M  V30 6183 H 563.762 2.47812 -4.62266 0
M  V30 6184 H 565.236 3.98699 -3.81763 0
M  V30 6185 H 565.713 3.84227 -2.12758 0
M  V30 6186 H 566.319 2.66463 -3.31477 0
M  V30 6187 N 564.634 1.40294 0.718013 0
M  V30 6188 C 565.859 1.41941 1.5122 0
M  V30 6189 C 566.284 0.0202371 1.88089 0
M  V30 6190 O 565.642 -0.971078 1.53101 0
M  V30 6191 C 565.69 2.3141 2.76554 0
M  V30 6192 O 564.794 1.75567 3.73162 0
M  V30 6193 H 564.135 0.482644 0.456016 0
M  V30 6194 H 566.665 1.84494 0.884478 0
M  V30 6195 H 566.675 2.46513 3.25108 0
M  V30 6196 H 565.35 3.33085 2.49053 0
M  V30 6197 H 563.927 1.69798 3.31999 0
M  V30 6198 N 566.112 -0.949982 1.2575 0
M  V30 6199 C 567.337 -1.73503 1.13628 0
M  V30 6200 C 567.762 -1.85601 -0.30559 0
M  V30 6201 O 567.12 -1.33984 -1.22139 0
M  V30 6202 C 567.168 -3.1243 1.80055 0
M  V30 6203 O 566.272 -3.97916 1.08336 0
M  V30 6204 H 565.613 -0.532665 0.396439 0
M  V30 6205 H 568.143 -1.19043 1.66403 0
M  V30 6206 H 568.153 -3.62866 1.86527 0
M  V30 6207 H 566.828 -3.02941 2.84956 0
M  V30 6208 H 565.405 -3.56375 1.09777 0
M  V30 6209 N 567.59 -1.07411 -1.15328 0
M  V30 6210 C 568.52 -0.716472 -2.22236 0
M  V30 6211 C 569.501 0.296373 -1.67498 0
M  V30 6212 O 570.686 0.168989 -1.93463 0
M  V30 6213 C 567.816 -0.114142 -3.47112 0
M  V30 6214 C 566.77 -1.05421 -4.14814 0
M  V30 6215 C 566.096 -0.314604 -5.33774 0
M  V30 6216 C 567.396 -2.38808 -4.64508 0
M  V30 6217 H 569.09 -1.61029 -2.52408 0
M  V30 6218 H 566.636 -0.775702 -1.21321 0
M  V30 6219 H 568.589 0.148001 -4.2114 0
M  V30 6220 H 567.313 0.814755 -3.16274 0
M  V30 6221 H 565.972 -1.30128 -3.42728 0
M  V30 6222 H 565.62 0.617772 -4.99192 0
M  V30 6223 H 565.32 -0.941209 -5.80013 0
M  V30 6224 H 566.844 -0.0602747 -6.1057 0
M  V30 6225 H 568.258 -2.18424 -5.3006 0
M  V30 6226 H 566.655 -2.97069 -5.21412 0
M  V30 6227 H 567.725 -3.01067 -3.80114 0
M  V30 6228 N 569.068 1.32177 -0.85831 0
M  V30 6229 C 570.296 2.01313 -0.477582 0
M  V30 6230 C 570.711 1.6449 0.926736 0
M  V30 6231 O 570.068 0.868096 1.60531 0
M  V30 6232 C 570.119 3.56293 -0.611337 0
M  V30 6233 O 569.84 3.91794 -1.96034 0
M  V30 6234 C 571.341 4.42702 -0.230093 0
M  V30 6235 H 568.561 0.644323 -0.187322 0
M  V30 6236 H 571.105 1.68674 -1.15626 0
M  V30 6237 H 569.26 3.87395 0.0196494 0
M  V30 6238 H 569.674 4.86513 -1.95973 0
M  V30 6239 H 571.148 5.50727 -0.374674 0
M  V30 6240 H 571.625 4.3129 0.829779 0
M  V30 6241 H 572.231 4.16997 -0.836302 0
M  V30 6242 N 570.547 0.616602 1.45037 0
M  V30 6243 C 571.51 -0.0871112 2.29034 0
M  V30 6244 C 572.51 -0.786414 1.40258 0
M  V30 6245 O 573.7 -0.633207 1.62284 0
M  V30 6246 C 570.832 -1.13369 3.21497 0
M  V30 6247 H 572.025 0.651497 2.92738 0
M  V30 6248 H 569.578 0.376058 1.51709 0
M  V30 6249 H 570.313 -1.90277 2.62612 0
M  V30 6250 H 570.098 -0.636358 3.86902 0
M  V30 6251 H 571.588 -1.62627 3.84633 0
M  V30 6252 N 572.025 -1.5352 0.356285 0
M  V30 6253 C 572.935 -2.29151 -0.502712 0
M  V30 6254 C 573.951 -1.34753 -1.1008 0
M  V30 6255 O 575.127 -1.67803 -1.11374 0
M  V30 6256 C 572.192 -3.05911 -1.63154 0
M  V30 6257 C 571.253 -4.15958 -1.06194 0
M  V30 6258 C 570.486 -4.8905 -2.13696 0
M  V30 6259 O 570.709 -4.61919 -3.34645 0
M  V30 6260 O 569.643 -5.75202 -1.77275 0
M  V30 6261 H 573.469 -3.03492 0.112466 0
M  V30 6262 H 571.054 -1.4891 0.120942 0
M  V30 6263 H 572.936 -3.53874 -2.28804 0
M  V30 6264 H 571.611 -2.34415 -2.23229 0
M  V30 6265 H 570.518 -3.7227 -0.369603 0
M  V30 6266 H 571.851 -4.89593 -0.505872 0
M  V30 6267 N 573.503 -0.0852151 -1.57369 0
M  V30 6268 C 574.78 0.622534 -1.85429 0
M  V30 6269 C 575.16 1.86962 -0.980229 0
M  V30 6270 O 574.508 2.28445 -0.0500219 0
M  V30 6271 C 574.718 0.947374 -3.35896 0
M  V30 6272 C 576.066 1.31509 -4.03721 0
M  V30 6273 O 577.09 1.03869 -3.40719 0
M  V30 6274 O 575.949 1.83231 -5.14868 0
M  V30 6275 H 573.043 0.310513 -0.766492 0
M  V30 6276 H 575.589 -0.117164 -1.69295 0
M  V30 6277 H 574.361 0.0622264 -3.91251 0
M  V30 6278 H 573.984 1.74338 -3.5734 0
M  V30 6279 N 574.981 1.5647 0.188427 0
M  V30 6280 C 576.258 1.71857 0.934058 0
M  V30 6281 C 576.638 0.641867 2.01105 0
M  V30 6282 O 575.986 -0.346098 2.25864 0
M  V30 6283 C 576.196 3.14431 1.5144 0
M  V30 6284 C 577.544 3.74869 1.99396 0
M  V30 6285 O 578.568 3.17601 1.61269 0
M  V30 6286 O 577.427 4.75387 2.69573 0
M  V30 6287 H 574.521 0.701186 0.438483 0
M  V30 6288 H 577.067 1.68768 0.177599 0
M  V30 6289 H 575.839 3.8427 0.738416 0
M  V30 6290 H 575.462 3.21775 2.33552 0
M  V30 6291 N 576.459 -0.456382 1.50847 0
M  V30 6292 C 577.875 -0.791345 1.386 0
M  V30 6293 C 578.075 -1.9633 0.453498 0
M  V30 6294 O 577.131 -2.52308 -0.0984353 0
M  V30 6295 C 578.444 -1.08959 2.80265 0
M  V30 6296 C 579.992 -1.19517 2.89283 0
M  V30 6297 C 580.467 -1.52647 4.31814 0
M  V30 6298 N 581.958 -1.59609 4.34832 0
M  V30 6299 C 582.693 -1.86777 5.42127 0
M  V30 6300 N 582.189 -2.11866 6.59609 0
M  V30 6301 N 583.982 -1.88402 5.29586 0
M  V30 6302 H 576.133 0.315746 2.1004 0
M  V30 6303 H 578.396 0.0787916 0.94472 0
M  V30 6304 H 578.102 -0.301355 3.50407 0
M  V30 6305 H 577.976 -2.02211 3.18419 0
M  V30 6306 H 580.363 -1.97406 2.19351 0
M  V30 6307 H 580.444 -0.242111 2.54652 0
M  V30 6308 H 580.088 -0.752922 5.02288 0
M  V30 6309 H 580.018 -2.49127 4.63943 0
M  V30 6310 H 582.509 -1.42201 3.50125 0
M  V30 6311 H 582.822 -2.31912 7.37182 0
M  V30 6312 H 581.167 -2.09228 6.62758 0
M  V30 6313 H 584.358 -1.68307 4.36795 0
M  V30 6314 H 584.531 -2.09238 6.13289 0
M  V30 6315 N 577.937 -1.40673 -0.710563 0
M  V30 6316 C 579.185 -1.38947 -1.46759 0
M  V30 6317 C 579.506 0.00572879 -1.94999 0
M  V30 6318 O 578.776 0.961358 -1.70689 0
M  V30 6319 H 577.356 -0.5114 -0.544499 0
M  V30 6320 H 580.018 -1.75773 -0.842012 0
M  V30 6321 H 579.114 -2.06745 -2.33801 0
M  V30 6322 N 579.415 0.9433 -1.26252 0
M  V30 6323 C 580.663 1.68592 -1.11451 0
M  V30 6324 C 580.984 1.91957 0.343123 0
M  V30 6325 O 580.254 1.51475 1.24226 0
M  V30 6326 H 578.834 0.624789 -0.409448 0
M  V30 6327 H 581.496 1.13351 -1.58548 0
M  V30 6328 H 580.592 2.66054 -1.63162 0
M  V30 6329 N 580.893 1.08022 1.14757 0
M  V30 6330 C 582.118 0.82895 1.90114 0
M  V30 6331 C 582.543 -0.612772 1.77839 0
M  V30 6332 O 581.901 -1.42895 1.11583 0
M  V30 6333 C 581.949 1.25062 3.38219 0
M  V30 6334 O 581.053 0.400119 4.10454 0
M  V30 6335 H 580.394 0.301412 0.591648 0
M  V30 6336 H 582.924 1.44062 1.45284 0
M  V30 6337 H 582.934 1.22977 3.89025 0
M  V30 6338 H 581.609 2.30067 3.46471 0
M  V30 6339 H 580.186 0.484052 3.69745 0
M  V30 6340 N 582.371 -1.3172 0.865308 0
M  V30 6341 C 583.617 -1.97168 0.474633 0
M  V30 6342 C 583.95 -1.68263 -0.969604 0
M  V30 6343 O 583.225 -0.976588 -1.68205 0
M  V30 6344 C 583.508 -3.52689 0.726808 0
M  V30 6345 C 583.361 -3.91185 2.22024 0
M  V30 6346 C 584.68 -4.39689 0.190201 0
M  V30 6347 H 581.799 -0.716185 0.17392 0
M  V30 6348 H 584.441 -1.55925 1.08569 0
M  V30 6349 H 582.591 -3.8795 0.206705 0
M  V30 6350 H 584.263 -3.66049 2.80724 0
M  V30 6351 H 582.506 -3.3996 2.69462 0
M  V30 6352 H 583.177 -4.99604 2.34735 0
M  V30 6353 H 585.653 -4.11225 0.635103 0
M  V30 6354 H 584.529 -5.47469 0.396132 0
M  V30 6355 H 584.79 -4.32683 -0.907625 0
M  V30 6356 N 583.85 -0.624285 -1.44708 0
M  V30 6357 C 585.099 -0.123539 -2.01321 0
M  V30 6358 C 585.412 1.25966 -1.49639 0
M  V30 6359 O 586.618 1.85405 -1.98336 0
M  V30 6360 C 585.074 -0.170124 -3.59498 0
M  V30 6361 C 584.682 -1.55421 -4.20176 0
M  V30 6362 C 586.426 0.274513 -4.23611 0
M  V30 6363 C 584.332 -1.55628 -5.70556 0
M  V30 6364 H 583.263 -0.0424183 -0.752806 0
M  V30 6365 H 585.913 -0.782076 -1.65999 0
M  V30 6366 H 584.296 0.555385 -3.92086 0
M  V30 6367 H 585.47 -2.30276 -3.99136 0
M  V30 6368 H 583.784 -1.94235 -3.68323 0
M  V30 6369 H 586.382 0.292402 -5.339 0
M  V30 6370 H 586.725 1.3005 -3.95465 0
M  V30 6371 H 587.258 -0.398275 -3.95801 0
M  V30 6372 H 583.997 -2.56041 -6.03426 0
M  V30 6373 H 583.517 -0.850563 -5.93739 0
M  V30 6374 H 585.196 -1.28721 -6.34066 0
M  V30 6375 N 585.328 1.53329 -0.364422 0
M  V30 6376 C 586.275 2.25698 0.482607 0
M  V30 6377 C 587.245 1.26325 1.07848 0
M  V30 6378 O 588.43 1.55104 1.11119 0
M  V30 6379 C 585.57 3.04873 1.61699 0
M  V30 6380 C 584.683 4.19135 1.0464 0
M  V30 6381 C 583.818 4.85754 2.14979 0
M  V30 6382 C 582.857 5.9205 1.5538 0
M  V30 6383 N 581.994 6.52365 2.59547 0
M  V30 6384 H 586.834 2.97666 -0.141032 0
M  V30 6385 H 584.371 1.46875 -0.0813692 0
M  V30 6386 H 586.329 3.49051 2.28516 0
M  V30 6387 H 584.959 2.35162 2.2113 0
M  V30 6388 H 584.011 3.79451 0.268553 0
M  V30 6389 H 585.323 4.95525 0.570653 0
M  V30 6390 H 584.477 5.3311 2.89619 0
M  V30 6391 H 583.216 4.08834 2.65906 0
M  V30 6392 H 582.221 5.44058 0.792549 0
M  V30 6393 H 583.446 6.7089 1.0528 0
M  V30 6394 H 581.392 5.78298 3.09689 0
M  V30 6395 H 581.309 7.2429 2.16655 0
M  V30 6396 H 582.577 7.0437 3.33892 0
M  V30 6397 N 586.806 0.0935595 1.57322 0
M  V30 6398 C 588.036 -0.578095 1.98347 0
M  V30 6399 C 588.444 -1.62357 0.971441 0
M  V30 6400 O 587.787 -1.83639 -0.0473959 0
M  V30 6401 C 587.849 -1.28525 3.3574 0
M  V30 6402 C 587.513 -0.390714 4.55327 0
M  V30 6403 C 588.51 0.360522 5.18648 0
M  V30 6404 C 586.195 -0.309221 5.01347 0
M  V30 6405 C 588.189 1.18125 6.26359 0
M  V30 6406 C 585.876 0.515157 6.08925 0
M  V30 6407 C 586.874 1.25904 6.71295 0
M  V30 6408 O 586.562 2.06978 7.76798 0
M  V30 6409 H 586.294 -0.159767 0.656849 0
M  V30 6410 H 588.848 0.169058 2.04703 0
M  V30 6411 H 587.078 -2.07894 3.26063 0
M  V30 6412 H 588.767 -1.85128 3.61223 0
M  V30 6413 H 589.533 0.307285 4.84026 0
M  V30 6414 H 585.412 -0.877881 4.52564 0
M  V30 6415 H 588.956 1.76236 6.74971 0
M  V30 6416 H 584.853 0.56988 6.42979 0
M  V30 6417 H 585.621 1.99644 7.93779 0
M  V30 6418 N 588.284 -1.56567 -0.180126 0
M  V30 6419 C 589.509 -1.85975 -0.918041 0
M  V30 6420 C 589.934 -0.678888 -1.75422 0
M  V30 6421 O 589.292 0.372168 -1.77439 0
M  V30 6422 C 589.34 -3.13731 -1.77779 0
M  V30 6423 O 588.444 -2.95335 -2.87838 0
M  V30 6424 H 587.785 -0.61196 -0.257683 0
M  V30 6425 H 590.315 -2.03798 -0.180923 0
M  V30 6426 H 590.325 -3.4491 -2.17948 0
M  V30 6427 H 589 -3.99293 -1.16352 0
M  V30 6428 H 587.577 -2.7549 -2.51316 0
M  V30 6429 N 589.762 0.448376 -1.51087 0
M  V30 6430 C 590.709 1.54341 -1.71603 0
M  V30 6431 C 591.679 1.56463 -0.557536 0
M  V30 6432 O 592.864 1.73644 -0.79072 0
M  V30 6433 C 590.004 2.92148 -1.83695 0
M  V30 6434 C 589.117 2.99639 -3.11192 0
M  V30 6435 C 588.252 4.285 -3.13944 0
M  V30 6436 C 587.291 4.29819 -4.35801 0
M  V30 6437 N 586.428 5.50186 -4.36164 0
M  V30 6438 H 591.268 1.36151 -2.65079 0
M  V30 6439 H 588.805 0.661585 -1.31383 0
M  V30 6440 H 590.763 3.72093 -1.88687 0
M  V30 6441 H 589.393 3.0892 -0.936374 0
M  V30 6442 H 588.445 2.12425 -3.15562 0
M  V30 6443 H 589.757 2.96474 -4.01129 0
M  V30 6444 H 588.911 5.16811 -3.17791 0
M  V30 6445 H 587.65 4.34307 -2.21876 0
M  V30 6446 H 586.655 3.39902 -4.32142 0
M  V30 6447 H 587.88 4.25685 -5.29121 0
M  V30 6448 H 585.826 5.56735 -3.46961 0
M  V30 6449 H 585.743 5.48856 -5.19897 0
M  V30 6450 H 587.011 6.40559 -4.44189 0
M  V30 6451 N 591.24 1.41047 0.703093 0
M  V30 6452 C 592.188 1.42494 1.83843 0
M  V30 6453 C 593.182 0.303885 1.66652 0
M  V30 6454 O 594.388 0.475544 1.73605 0
M  V30 6455 H 590.763 0.445685 0.605697 0
M  V30 6456 H 592.734 2.38194 1.79739 0
M  V30 6457 C 591.483 1.31666 3.21807 0
M  V30 6458 H 590.806 2.17212 3.35647 0
M  V30 6459 H 592.246 1.36738 4.01346 0
M  V30 6460 C 590.705 0.0281828 3.36888 0
M  V30 6461 O 591.235 -0.929995 3.90786 0
M  V30 6462 N 589.441 -0.0454322 2.90564 0
M  V30 6463 H 588.988 0.735046 2.4689 0
M  V30 6464 H 588.946 -0.906968 3.01034 0
M  V30 6465 N 592.718 -0.936591 1.26751 0
M  V30 6466 C 593.946 -1.71758 1.15355 0
M  V30 6467 C 594.361 -1.86549 -0.290683 0
M  V30 6468 O 593.718 -1.37616 -1.19868 0
M  V30 6469 C 593.769 -3.12193 1.82258 0
M  V30 6470 O 593.49 -2.98105 3.21038 0
M  V30 6471 C 594.991 -4.06485 1.76875 0
M  V30 6472 H 592.211 -0.537636 0.401483 0
M  V30 6473 H 594.755 -1.17382 1.67457 0
M  V30 6474 H 592.91 -3.63456 1.34083 0
M  V30 6475 H 593.324 -3.86824 3.54214 0
M  V30 6476 H 594.798 -5.02569 2.28316 0
M  V30 6477 H 595.275 -4.32986 0.736216 0
M  V30 6478 H 595.881 -3.61144 2.24623 0
M  V30 6479 N 594.196 -1.08629 -1.14182 0
M  V30 6480 C 595.424 -0.838889 -1.8913 0
M  V30 6481 C 595.839 0.609153 -1.78703 0
M  V30 6482 O 595.196 1.41876 -1.14794 0
M  V30 6483 C 595.247 -1.25477 -3.39025 0
M  V30 6484 O 594.968 -2.64601 -3.49167 0
M  V30 6485 C 596.469 -1.03856 -4.30963 0
M  V30 6486 H 593.689 -0.302377 -0.599007 0
M  V30 6487 H 596.233 -1.44615 -1.44592 0
M  V30 6488 H 594.388 -0.691571 -3.81177 0
M  V30 6489 H 594.802 -2.81922 -4.42289 0
M  V30 6490 H 596.276 -1.37892 -5.345 0
M  V30 6491 H 596.753 0.0242522 -4.39193 0
M  V30 6492 H 597.359 -1.58731 -3.94569 0
M  V30 6493 N 595.674 1.31259 -0.872281 0
M  V30 6494 C 597.09 1.49283 -0.564521 0
M  V30 6495 C 597.29 1.80243 0.900807 0
M  V30 6496 O 596.346 1.88246 1.68284 0
M  V30 6497 C 597.659 2.62503 -1.46673 0
M  V30 6498 C 599.207 2.76386 -1.46901 0
M  V30 6499 C 599.682 3.92705 -2.35684 0
M  V30 6500 N 601.173 3.99995 -2.33577 0
M  V30 6501 C 601.908 4.89276 -2.98992 0
M  V30 6502 N 601.404 5.83443 -3.73585 0
M  V30 6503 N 603.197 4.82541 -2.88289 0
M  V30 6504 H 595.348 1.09432 -1.82039 0
M  V30 6505 H 597.611 0.540949 -0.77851 0
M  V30 6506 H 597.317 2.46407 -2.50951 0
M  V30 6507 H 597.191 3.58695 -1.16696 0
M  V30 6508 H 599.578 2.91894 -0.433796 0
M  V30 6509 H 599.659 1.80853 -1.80903 0
M  V30 6510 H 599.303 3.77954 -3.39283 0
M  V30 6511 H 599.233 4.87549 -1.99006 0
M  V30 6512 H 601.724 3.32624 -1.7936 0
M  V30 6513 H 602.037 6.48303 -4.20622 0
M  V30 6514 H 600.382 5.83415 -3.77694 0
M  V30 6515 H 603.573 4.07951 -2.2955 0
M  V30 6516 H 603.746 5.51916 -3.39549 0
M  V30 6517 N 597.152 0.631951 1.44375 0
M  V30 6518 C 598.099 -0.0724807 2.30686 0
M  V30 6519 C 599.069 -0.835975 1.43529 0
M  V30 6520 O 600.254 -0.816849 1.7243 0
M  V30 6521 C 597.394 -1.04753 3.28817 0
M  V30 6522 C 596.507 -0.282367 4.31076 0
M  V30 6523 C 595.642 -1.2493 5.163 0
M  V30 6524 C 594.681 -0.473349 6.10267 0
M  V30 6525 N 593.818 -1.39079 6.88187 0
M  V30 6526 H 598.658 0.669477 2.90383 0
M  V30 6527 H 596.195 0.341927 1.43071 0
M  V30 6528 H 598.153 -1.62623 3.842 0
M  V30 6529 H 596.783 -1.75661 2.70819 0
M  V30 6530 H 595.835 0.412268 3.78159 0
M  V30 6531 H 597.147 0.321955 4.9776 0
M  V30 6532 H 596.301 -1.89931 5.76204 0
M  V30 6533 H 595.04 -1.88755 4.49692 0
M  V30 6534 H 594.045 0.190142 5.49471 0
M  V30 6535 H 595.27 0.16019 6.78911 0
M  V30 6536 H 593.216 -2.01623 6.24247 0
M  V30 6537 H 593.133 -0.840513 7.51313 0
M  V30 6538 H 594.401 -2.02961 7.52613 0
M  V30 6539 N 598.631 -1.53133 0.372548 0
M  V30 6540 C 599.563 -2.23557 -0.505444 0
M  V30 6541 C 600.576 -1.25211 -1.04049 0
M  V30 6542 O 601.765 -1.51391 -0.945675 0
M  V30 6543 C 598.865 -2.92516 -1.71136 0
M  V30 6544 C 598.038 -4.17428 -1.30661 0
M  V30 6545 C 597.097 -4.69535 -2.37536 0
M  V30 6546 O 596.123 -5.33042 -1.99637 0
M  V30 6547 N 597.325 -4.47947 -3.6922 0
M  V30 6548 H 600.09 -2.9954 0.0978259 0
M  V30 6549 H 597.651 -1.60684 0.198068 0
M  V30 6550 H 599.643 -3.24281 -2.42124 0
M  V30 6551 H 598.213 -2.19944 -2.22134 0
M  V30 6552 H 597.433 -3.91888 -0.426292 0
M  V30 6553 H 598.721 -4.98622 -1.01259 0
M  V30 6554 H 598.119 -3.97219 -4.02783 0
M  V30 6555 H 596.676 -4.84245 -4.36292 0
M  V30 6556 N 600.109 -0.101901 -1.5727 0
M  V30 6557 C 601.355 0.554864 -1.95686 0
M  V30 6558 C 601.71 1.65368 -0.983415 0
M  V30 6559 O 601.003 1.91597 -0.0105374 0
M  V30 6560 C 601.197 1.14898 -3.38427 0
M  V30 6561 C 601.026 0.109251 -4.49567 0
M  V30 6562 C 599.796 -0.316633 -5.04307 0
M  V30 6563 C 601.994 -0.665196 -5.0998 0
M  V30 6564 N 599.976 -1.34393 -5.99009 0
M  V30 6565 C 601.347 -1.54413 -6.00464 0
M  V30 6566 C 603.402 -0.717966 -4.92696 0
M  V30 6567 C 602.105 -2.47122 -6.75517 0
M  V30 6568 C 604.131 -1.63268 -5.68417 0
M  V30 6569 C 603.493 -2.49923 -6.58572 0
M  V30 6570 H 599.592 0.17317 -0.762585 0
M  V30 6571 H 602.176 -0.18605 -1.93809 0
M  V30 6572 H 600.347 1.85969 -3.40984 0
M  V30 6573 H 602.079 1.76867 -3.64006 0
M  V30 6574 H 598.834 0.0724419 -4.73545 0
M  V30 6575 H 599.258 -1.85598 -6.51062 0
M  V30 6576 H 603.9 -0.0621637 -4.22754 0
M  V30 6577 H 601.618 -3.13724 -7.44717 0
M  V30 6578 H 605.204 -1.67874 -5.57054 0
M  V30 6579 H 604.084 -3.19553 -7.16139 0
M  V30 6580 N 601.587 1.56661 0.17182 0
M  V30 6581 C 602.517 1.99401 1.21498 0
M  V30 6582 C 603.498 0.869516 1.46197 0
M  V30 6583 O 604.683 1.13556 1.57539 0
M  V30 6584 C 601.813 2.35346 2.55401 0
M  V30 6585 C 600.767 3.5075 2.45272 0
M  V30 6586 C 600.093 3.72437 3.8366 0
M  V30 6587 C 601.393 4.84216 1.95787 0
M  V30 6588 H 603.087 2.86792 0.859699 0
M  V30 6589 H 600.633 1.37977 0.412103 0
M  V30 6590 H 602.586 2.63843 3.2858 0
M  V30 6591 H 601.31 1.44864 2.92715 0
M  V30 6592 H 599.969 3.2238 1.74547 0
M  V30 6593 H 599.617 2.79246 4.18367 0
M  V30 6594 H 599.317 4.50087 3.77751 0
M  V30 6595 H 600.841 4.03334 4.58426 0
M  V30 6596 H 602.255 5.11592 2.5874 0
M  V30 6597 H 600.652 5.65498 2.00827 0
M  V30 6598 H 601.722 4.76243 0.912159 0
M  V30 6599 N 603.065 -0.440357 1.51323 0
M  V30 6600 C 604.012 -1.53429 1.72419 0
M  V30 6601 C 604.982 -1.56165 0.565826 0
M  V30 6602 O 606.167 -1.73222 0.799917 0
M  V30 6603 C 603.307 -2.91169 1.85242 0
M  V30 6604 C 602.42 -2.97985 3.12777 0
M  V30 6605 C 601.555 -4.26829 3.16212 0
M  V30 6606 C 600.594 -4.27501 4.38074 0
M  V30 6607 N 599.731 -5.47866 4.39076 0
M  V30 6608 H 604.571 -1.34743 2.65797 0
M  V30 6609 H 602.108 -0.654608 1.31732 0
M  V30 6610 H 604.066 -3.71087 1.90658 0
M  V30 6611 H 602.696 -3.0842 0.952744 0
M  V30 6612 H 601.748 -2.10749 3.16685 0
M  V30 6613 H 603.06 -2.94342 4.02696 0
M  V30 6614 H 602.214 -5.15118 3.20527 0
M  V30 6615 H 600.953 -4.33124 2.24176 0
M  V30 6616 H 599.958 -3.37606 4.33938 0
M  V30 6617 H 601.183 -4.22873 5.31371 0
M  V30 6618 H 599.129 -5.54887 3.49909 0
M  V30 6619 H 599.046 -5.46091 5.22801 0
M  V30 6620 H 600.314 -6.38195 4.4758 0
M  V30 6621 N 604.543 -1.41418 -0.695603 0
M  V30 6622 C 605.453 -1.45622 -1.83933 0
M  V30 6623 C 606.469 -0.346825 -1.70508 0
M  V30 6624 O 607.645 -0.59454 -1.92424 0
M  V30 6625 C 604.71 -1.33627 -3.19914 0
M  V30 6626 C 603.771 -2.54882 -3.45447 0
M  V30 6627 C 603.004 -2.43449 -4.7494 0
M  V30 6628 O 603.227 -1.45905 -5.51424 0
M  V30 6629 O 602.161 -3.33206 -5.01256 0
M  V30 6630 H 605.987 -2.42114 -1.83342 0
M  V30 6631 H 603.572 -1.22956 -0.848658 0
M  V30 6632 H 605.454 -1.29221 -4.01098 0
M  V30 6633 H 604.129 -0.402508 -3.21188 0
M  V30 6634 H 603.036 -2.64865 -2.64192 0
M  V30 6635 H 604.369 -3.47087 -3.48987 0
M  V30 6636 N 606.021 0.929856 -1.27246 0
M  V30 6637 C 607.249 1.71144 -1.16265 0
M  V30 6638 C 607.664 1.867 0.280786 0
M  V30 6639 O 607.021 1.38249 1.19136 0
M  V30 6640 C 607.072 3.11222 -1.83911 0
M  V30 6641 O 606.793 2.96398 -3.22614 0
M  V30 6642 C 608.294 4.05541 -1.79028 0
M  V30 6643 H 605.514 0.535499 -0.404328 0
M  V30 6644 H 608.058 1.16492 -1.68077 0
M  V30 6645 H 606.213 3.6274 -1.36009 0
M  V30 6646 H 606.627 3.8494 -3.56261 0
M  V30 6647 H 608.101 5.01351 -2.30978 0
M  V30 6648 H 608.578 4.32589 -0.759168 0
M  V30 6649 H 609.184 3.59947 -2.26535 0
M  V30 6650 N 607.499 1.09233 1.13605 0
M  V30 6651 C 608.91 0.846839 1.6639 0
M  V30 6652 C 609.261 -0.625031 1.85978 0
M  V30 6653 O 608.386 -1.48173 1.57714 0
M  V30 6654 C 608.981 1.5307 3.0225 0
M  V30 6655 C 607.54 1.33223 3.52035 0
M  V30 6656 C 606.687 1.58806 2.27323 0
M  V30 6657 H 609.638 1.25175 0.975541 0
M  V30 6658 H 609.659 0.96267 3.68121 0
M  V30 6659 H 609.171 2.60192 2.87961 0
M  V30 6660 H 607.272 0.282091 3.71531 0
M  V30 6661 H 607.385 2.0657 4.32279 0
M  V30 6662 H 605.749 1.01007 2.33815 0
M  V30 6663 H 606.532 2.67153 2.15602 0
M  V30 6664 N 608.977 -1.30795 0.87923 0
M  V30 6665 C 610.254 -1.91145 0.415086 0
M  V30 6666 C 610.634 -1.7995 -1.10368 0
M  V30 6667 O 609.982 -1.21305 -1.93642 0
M  V30 6668 C 610.192 -3.37014 0.906778 0
M  V30 6669 C 611.54 -4.14101 0.938358 0
M  V30 6670 O 612.564 -3.45834 0.853053 0
M  V30 6671 O 611.423 -5.36054 1.06342 0
M  V30 6672 H 608.517 -0.81736 0.125905 0
M  V30 6673 H 611.063 -1.39401 0.967753 0
M  V30 6674 H 609.835 -3.3922 1.95053 0
M  V30 6675 H 609.458 -3.96204 0.332948 0
M  V30 6676 N 610.455 -0.639598 -1.44038 0
M  V30 6677 C 611.683 -0.154811 -2.0632 0
M  V30 6678 C 612.098 1.17406 -1.47856 0
M  V30 6679 O 611.455 1.72193 -0.604638 0
M  V30 6680 C 611.506 -0.0429958 -3.61474 0
M  V30 6681 O 611.227 -1.31932 -4.17763 0
M  V30 6682 C 612.728 0.469486 -4.40807 0
M  V30 6683 H 609.948 -0.0835862 -0.665773 0
M  V30 6684 H 612.492 -0.876397 -1.84769 0
M  V30 6685 H 610.647 0.629075 -3.82258 0
M  V30 6686 H 611.061 -1.16965 -5.11292 0
M  V30 6687 H 612.535 0.496712 -5.49761 0
M  V30 6688 H 613.012 1.49819 -4.12857 0
M  V30 6689 H 613.618 -0.169624 -4.24962 0
M  V30 6690 N 611.933 1.52934 -0.380664 0
M  V30 6691 C 612.863 2.29118 0.450268 0
M  V30 6692 C 613.844 1.32153 1.07096 0
M  V30 6693 O 615.029 1.61038 1.08537 0
M  V30 6694 C 612.159 3.09161 1.58231 0
M  V30 6695 C 611.113 4.13938 1.0881 0
M  V30 6696 C 610.439 4.82153 2.31155 0
M  V30 6697 C 611.739 5.22048 0.162146 0
M  V30 6698 H 613.433 2.98826 -0.185361 0
M  V30 6699 H 610.979 1.43715 -0.0905886 0
M  V30 6700 H 612.932 3.61211 2.17036 0
M  V30 6701 H 611.656 2.3717 2.2454 0
M  V30 6702 H 610.315 3.62855 0.522633 0
M  V30 6703 H 609.963 4.06719 2.95953 0
M  V30 6704 H 609.663 5.52966 1.98752 0
M  V30 6705 H 611.187 5.37004 2.90618 0
M  V30 6706 H 612.601 5.6951 0.658126 0
M  V30 6707 H 610.998 6.00057 -0.0717122 0
M  V30 6708 H 612.068 4.78398 -0.791438 0
M  V30 6709 N 613.412 0.11024 1.57214 0
M  V30 6710 C 614.342 -0.840002 2.17867 0
M  V30 6711 C 615.323 -1.28352 1.11624 0
M  V30 6712 O 616.508 -1.3477 1.39824 0
M  V30 6713 C 613.638 -2.09349 2.77111 0
M  V30 6714 C 612.592 -1.78807 3.8886 0
M  V30 6715 C 611.918 -3.11112 4.34872 0
M  V30 6716 C 613.218 -1.0632 5.11364 0
M  V30 6717 H 614.912 -0.334608 2.97524 0
M  V30 6718 H 612.458 -0.159502 1.43114 0
M  V30 6719 H 614.411 -2.76275 3.18198 0
M  V30 6720 H 613.135 -2.62198 1.9473 0
M  V30 6721 H 611.794 -1.14273 3.48335 0
M  V30 6722 H 611.442 -3.61877 3.49362 0
M  V30 6723 H 611.142 -2.91453 5.10224 0
M  V30 6724 H 612.666 -3.79171 4.78604 0
M  V30 6725 H 614.08 -1.63383 5.49526 0
M  V30 6726 H 612.477 -0.967876 5.92243 0
M  V30 6727 H 613.547 -0.0484569 4.84876 0
M  V30 6728 N 614.89 -1.56749 -0.16351 0
M  V30 6729 C 615.838 -1.97939 -1.22159 0
M  V30 6730 C 616.832 -0.869288 -1.45395 0
M  V30 6731 O 618.038 -1.05443 -1.45883 0
M  V30 6732 H 614.413 -0.629869 -0.410815 0
M  V30 6733 H 616.384 -2.86115 -0.847381 0
M  V30 6734 C 615.133 -2.36206 -2.55151 0
M  V30 6735 H 614.456 -3.2117 -2.38097 0
M  V30 6736 H 615.896 -2.68863 -3.27854 0
M  V30 6737 C 614.355 -1.20841 -3.14482 0
M  V30 6738 O 614.885 -0.500258 -3.98573 0
M  V30 6739 N 613.091 -0.976943 -2.73686 0
M  V30 6740 H 612.638 -1.55457 -2.05404 0
M  V30 6741 H 612.596 -0.206912 -3.13718 0
M  V30 6742 N 616.368 0.432326 -1.51554 0
M  V30 6743 C 617.617 1.17831 -1.63703 0
M  V30 6744 C 617.93 1.92229 -0.36156 0
M  V30 6745 O 619.136 2.69069 -0.362495 0
M  V30 6746 C 617.592 2.14318 -2.89129 0
M  V30 6747 C 617.2 1.45544 -4.23699 0
M  V30 6748 C 618.944 2.89319 -3.10636 0
M  V30 6749 C 616.851 2.40545 -5.4027 0
M  V30 6750 H 615.781 0.443533 -0.60975 0
M  V30 6751 H 618.432 0.444878 -1.78026 0
M  V30 6752 H 616.814 2.91117 -2.68452 0
M  V30 6753 H 617.988 0.742693 -4.54775 0
M  V30 6754 H 616.303 0.826772 -4.0811 0
M  V30 6755 H 618.9 3.60495 -3.94902 0
M  V30 6756 H 619.243 3.50951 -2.23918 0
M  V30 6757 H 619.776 2.19625 -3.31677 0
M  V30 6758 H 616.515 1.83594 -6.29264 0
M  V30 6759 H 616.035 3.09859 -5.13563 0
M  V30 6760 H 617.714 3.01569 -5.72421 0
M  V30 6761 N 617.846 1.41785 0.688094 0
M  V30 6762 C 618.776 1.47 1.8142 0
M  V30 6763 C 619.757 0.327881 1.6691 0
M  V30 6764 O 620.942 0.540362 1.86531 0
M  V30 6765 C 618.072 1.35876 3.19617 0
M  V30 6766 C 617.026 2.47976 3.48844 0
M  V30 6767 C 616.352 2.21915 4.86475 0
M  V30 6768 C 617.652 3.90309 3.47068 0
M  V30 6769 H 619.346 2.41247 1.77314 0
M  V30 6770 H 616.892 1.16116 0.851651 0
M  V30 6771 H 618.845 1.38134 3.98117 0
M  V30 6772 H 617.569 0.38116 3.24368 0
M  V30 6773 H 616.228 2.45013 2.72698 0
M  V30 6774 H 615.876 1.2248 4.8786 0
M  V30 6775 H 615.576 2.97037 5.06994 0
M  V30 6776 H 617.1 2.25901 5.67275 0
M  V30 6777 H 618.514 3.94947 4.1556 0
M  V30 6778 H 616.911 4.65175 3.7912 0
M  V30 6779 H 617.981 4.17927 2.45896 0
M  V30 6780 N 619.324 -0.923095 1.27737 0
M  V30 6781 C 620.271 -2.02432 1.1086 0
M  V30 6782 C 621.241 -1.66098 0.00835195 0
M  V30 6783 O 622.426 -1.90027 0.171542 0
M  V30 6784 C 619.566 -3.36476 0.766671 0
M  V30 6785 C 618.679 -3.85737 1.94501 0
M  V30 6786 C 617.814 -5.08249 1.54455 0
M  V30 6787 C 616.853 -5.49818 2.6901 0
M  V30 6788 N 615.99 -6.63524 2.29521 0
M  V30 6789 H 620.83 -2.16201 2.05089 0
M  V30 6790 H 618.367 -1.05909 1.02087 0
M  V30 6791 H 620.325 -4.13569 0.549223 0
M  V30 6792 H 618.955 -3.22502 -0.13867 0
M  V30 6793 H 618.007 -3.04883 2.27487 0
M  V30 6794 H 619.319 -4.12513 2.80419 0
M  V30 6795 H 618.473 -5.92857 1.28862 0
M  V30 6796 H 617.212 -4.83261 0.656534 0
M  V30 6797 H 616.217 -4.63757 2.95313 0
M  V30 6798 H 617.442 -5.76799 3.5844 0
M  V30 6799 H 615.388 -6.40185 1.43177 0
M  V30 6800 H 615.305 -6.89978 3.08977 0
M  V30 6801 H 616.573 -7.51461 2.07187 0
M  V30 6802 N 620.802 -1.09834 -1.13024 0
M  V30 6803 C 621.75 -0.736283 -2.20639 0
M  V30 6804 C 622.744 0.264725 -1.67319 0
M  V30 6805 O 623.95 0.125745 -1.7956 0
M  V30 6806 H 620.325 -0.220136 -0.719058 0
M  V30 6807 H 622.296 -1.65295 -2.48436 0
M  V30 6808 C 621.045 -0.177544 -3.47246 0
M  V30 6809 H 620.368 -0.939009 -3.88616 0
M  V30 6810 H 621.808 0.0378007 -4.23983 0
M  V30 6811 C 620.267 1.08824 -3.1884 0
M  V30 6812 O 620.797 2.1708 -3.37993 0
M  V30 6813 N 619.003 1.00442 -2.7269 0
M  V30 6814 H 618.55 0.123383 -2.57304 0
M  V30 6815 H 618.508 1.85206 -2.5406 0
M  V30 6816 N 622.28 1.30327 -0.886154 0
M  V30 6817 C 623.243 2.26376 -0.358687 0
M  V30 6818 C 624.243 1.52845 0.499498 0
M  V30 6819 O 625.433 1.71483 0.306485 0
M  V30 6820 C 622.565 3.37379 0.488726 0
M  V30 6821 H 623.758 2.74547 -1.20681 0
M  V30 6822 H 621.311 1.41536 -0.663113 0
M  V30 6823 H 622.046 2.94526 1.35739 0
M  V30 6824 H 621.831 3.91897 -0.126003 0
M  V30 6825 H 623.321 4.08868 0.84952 0
M  V30 6826 N 623.758 0.647228 1.43697 0
M  V30 6827 C 625.035 0.0883758 1.954 0
M  V30 6828 C 625.415 -1.39006 1.58873 0
M  V30 6829 O 624.763 -2.11255 0.87083 0
M  V30 6830 C 624.973 0.328263 3.47453 0
M  V30 6831 C 626.321 0.230009 4.23977 0
M  V30 6832 O 627.345 0.260496 3.55246 0
M  V30 6833 O 626.204 0.148615 5.46298 0
M  V30 6834 H 623.298 -0.0130683 0.826897 0
M  V30 6835 H 625.844 0.72005 1.53666 0
M  V30 6836 H 624.616 1.3535 3.67146 0
M  V30 6837 H 624.239 -0.336772 3.96171 0
M  V30 6838 N 625.236 -1.5273 0.388769 0
M  V30 6839 C 626.166 -2.29353 -0.438111 0
M  V30 6840 C 627.147 -1.32719 -1.06394 0
M  V30 6841 O 628.332 -1.61612 -1.07681 0
M  V30 6842 C 625.462 -3.09995 -1.56589 0
M  V30 6843 C 624.416 -4.14509 -1.06613 0
M  V30 6844 C 623.742 -4.83372 -2.28594 0
M  V30 6845 C 625.042 -5.22127 -0.134459 0
M  V30 6846 H 626.736 -2.98723 0.201206 0
M  V30 6847 H 624.282 -1.43665 0.0982089 0
M  V30 6848 H 626.235 -3.62357 -2.15118 0
M  V30 6849 H 624.959 -2.38357 -2.23279 0
M  V30 6850 H 623.618 -3.63128 -0.503383 0
M  V30 6851 H 623.266 -4.08283 -2.93792 0
M  V30 6852 H 622.966 -5.54012 -1.95817 0
M  V30 6853 H 624.49 -5.38538 -2.87766 0
M  V30 6854 H 625.904 -5.69851 -0.627914 0
M  V30 6855 H 624.301 -6.00011 0.103534 0
M  V30 6856 H 625.371 -4.77971 0.816798 0
M  V30 6857 N 626.714 -0.118576 -1.57153 0
M  V30 6858 C 627.939 0.550582 -1.99958 0
M  V30 6859 C 628.364 1.59458 -0.997736 0
M  V30 6860 O 627.722 1.81274 0.0306269 0
M  V30 6861 C 627.77 1.15379 -3.41643 0
M  V30 6862 O 626.874 2.26932 -3.44348 0
M  V30 6863 H 626.215 0.137567 -0.649593 0
M  V30 6864 H 628.745 -0.206926 -2.03551 0
M  V30 6865 H 628.755 1.48942 -3.79843 0
M  V30 6866 H 627.43 0.389087 -4.14076 0
M  V30 6867 H 626.007 1.94812 -3.17967 0
M  V30 6868 N 628.193 1.56834 0.155195 0
M  V30 6869 C 629.123 2.00678 1.19376 0
M  V30 6870 C 630.104 0.884973 1.45266 0
M  V30 6871 O 631.289 1.1522 1.56326 0
M  V30 6872 C 628.419 2.38042 2.5289 0
M  V30 6873 C 627.373 3.53332 2.41538 0
M  V30 6874 C 626.699 3.76485 3.79688 0
M  V30 6875 C 627.999 4.86265 1.9064 0
M  V30 6876 H 629.693 2.87688 0.829232 0
M  V30 6877 H 627.239 1.38407 0.397445 0
M  V30 6878 H 629.192 2.67314 3.25763 0
M  V30 6879 H 627.916 1.4796 2.91162 0
M  V30 6880 H 626.575 3.24213 1.71117 0
M  V30 6881 H 626.223 2.83667 4.15382 0
M  V30 6882 H 625.923 4.54068 3.72956 0
M  V30 6883 H 627.447 4.08174 4.54122 0
M  V30 6884 H 628.861 5.14308 2.53299 0
M  V30 6885 H 627.258 5.67597 1.94818 0
M  V30 6886 H 628.328 4.77184 0.861596 0
M  V30 6887 N 629.671 -0.424282 1.51781 0
M  V30 6888 C 630.634 -1.49848 1.73431 0
M  V30 6889 C 631.634 -1.49016 0.604225 0
M  V30 6890 O 632.824 -1.50808 0.871935 0
M  V30 6891 C 629.956 -2.89332 1.80277 0
M  V30 6892 H 631.149 -1.3195 2.69312 0
M  V30 6893 H 628.702 -0.653809 1.41968 0
M  V30 6894 H 629.437 -3.12618 0.862568 0
M  V30 6895 H 629.222 -2.9134 2.62419 0
M  V30 6896 H 630.712 -3.67233 1.98821 0
M  V30 6897 N 631.149 -1.42148 -0.680565 0
M  V30 6898 C 632.396 -1.4231 -1.44063 0
M  V30 6899 C 632.724 -0.037488 -1.94464 0
M  V30 6900 O 631.979 0.953184 -1.70918 0
M  V30 6901 C 632.278 -2.38945 -2.65782 0
M  V30 6902 C 631.944 -3.85455 -2.33956 0
M  V30 6903 C 630.606 -4.25364 -2.24987 0
M  V30 6904 C 632.958 -4.77895 -2.08004 0
M  V30 6905 C 630.286 -5.55701 -1.88184 0
M  V30 6906 C 632.638 -6.08568 -1.72706 0
M  V30 6907 C 631.302 -6.47482 -1.62244 0
M  V30 6908 H 630.572 -0.520748 -0.527164 0
M  V30 6909 H 633.219 -1.7505 -0.776524 0
M  V30 6910 H 631.524 -1.99511 -3.37198 0
M  V30 6911 H 633.221 -2.36336 -3.23954 0
M  V30 6912 H 629.811 -3.53855 -2.41836 0
M  V30 6913 H 633.995 -4.47854 -2.1387 0
M  V30 6914 H 629.251 -5.84718 -1.78648 0
M  V30 6915 H 633.425 -6.79688 -1.5165 0
M  V30 6916 H 631.052 -7.48387 -1.33496 0
M  V30 6917 N 632.627 0.916307 -1.28225 0
M  V30 6918 C 633.559 2.02303 -1.07732 0
M  V30 6919 C 634.572 1.62773 -0.0298421 0
M  V30 6920 O 635.761 1.76406 -0.272626 0
M  V30 6921 C 632.861 3.33282 -0.614504 0
M  V30 6922 C 632.034 4.01439 -1.73682 0
M  V30 6923 C 631.093 5.10698 -1.26781 0
M  V30 6924 O 630.119 5.34038 -1.96958 0
M  V30 6925 N 631.321 5.80355 -0.129624 0
M  V30 6926 H 634.086 2.20442 -2.03041 0
M  V30 6927 H 631.647 1.08744 -1.19943 0
M  V30 6928 H 633.639 4.03699 -0.284397 0
M  V30 6929 H 632.209 3.11633 0.245664 0
M  V30 6930 H 631.429 3.24604 -2.23665 0
M  V30 6931 H 632.717 4.43721 -2.48976 0
M  V30 6932 H 632.115 5.6386 0.455847 0
M  V30 6933 H 630.672 6.51647 0.141224 0
M  V30 6934 N 634.105 1.10431 1.1244 0
M  V30 6935 C 635.333 0.868872 1.87772 0
M  V30 6936 C 635.748 -0.580645 1.7965 0
M  V30 6937 O 635.105 -1.40031 1.17036 0
M  V30 6938 C 635.156 1.30855 3.36986 0
M  V30 6939 O 634.877 2.70123 3.44914 0
M  V30 6940 C 636.378 1.107 4.29256 0
M  V30 6941 H 633.598 0.311868 0.59412 0
M  V30 6942 H 636.142 1.46897 1.42273 0
M  V30 6943 H 634.297 0.752126 3.80029 0
M  V30 6944 H 634.711 2.88923 4.37748 0
M  V30 6945 H 636.185 1.46378 5.32238 0
M  V30 6946 H 636.662 0.0456228 4.39176 0
M  V30 6947 H 637.268 1.64988 3.91994 0
M  V30 6948 N 635.583 -1.29855 0.893053 0
M  V30 6949 C 636.813 -1.99686 0.530019 0
M  V30 6950 C 637.221 -1.67066 -0.888012 0
M  V30 6951 O 636.564 -0.908366 -1.5967 0
M  V30 6952 C 636.626 -3.53855 0.63457 0
M  V30 6953 C 636.29 -4.10013 2.01837 0
M  V30 6954 C 637.287 -4.25406 2.98874 0
M  V30 6955 C 634.972 -4.45202 2.32595 0
M  V30 6956 C 636.966 -4.7521 4.24799 0
M  V30 6957 C 634.653 -4.94704 3.58763 0
M  V30 6958 C 635.651 -5.09662 4.5468 0
M  V30 6959 O 635.339 -5.58093 5.78608 0
M  V30 6960 H 635.071 -0.644913 0.20264 0
M  V30 6961 H 637.625 -1.66518 1.20253 0
M  V30 6962 H 635.855 -3.86583 -0.0949477 0
M  V30 6963 H 637.544 -4.04922 0.281648 0
M  V30 6964 H 638.31 -3.98515 2.76425 0
M  V30 6965 H 634.189 -4.32822 1.58701 0
M  V30 6966 H 637.733 -4.86801 4.99671 0
M  V30 6967 H 633.63 -5.21032 3.81046 0
M  V30 6968 H 634.398 -5.7642 5.81104 0
M  V30 6969 N 637.061 -0.65484 -1.43351 0
M  V30 6970 C 638.289 -0.176685 -2.06144 0
M  V30 6971 C 638.704 1.15831 -1.49093 0
M  V30 6972 O 638.061 1.71542 -0.622868 0
M  V30 6973 C 638.112 -0.0813326 -3.61408 0
M  V30 6974 O 637.833 -1.36355 -4.1634 0
M  V30 6975 C 639.334 0.422706 -4.4128 0
M  V30 6976 H 636.554 -0.0906429 -0.66485 0
M  V30 6977 H 639.098 -0.895945 -1.83829 0
M  V30 6978 H 637.253 0.588496 -3.82904 0
M  V30 6979 H 637.667 -1.22381 -5.10023 0
M  V30 6980 H 639.141 0.438375 -5.50257 0
M  V30 6981 H 639.618 1.45432 -4.14423 0
M  V30 6982 H 640.224 -0.214687 -4.24758 0
M  V30 6983 N 638.539 1.52521 -0.396863 0
M  V30 6984 C 639.788 2.00857 0.184184 0
M  V30 6985 C 640.101 1.28733 1.47265 0
M  V30 6986 O 641.307 1.67821 2.13421 0
M  V30 6987 C 639.763 3.57901 0.378787 0
M  V30 6988 C 639.371 4.38931 -0.896873 0
M  V30 6989 C 641.115 4.14504 0.915789 0
M  V30 6990 C 639.022 5.87591 -0.670133 0
M  V30 6991 H 637.952 0.750496 0.0726055 0
M  V30 6992 H 640.603 1.75965 -0.520425 0
M  V30 6993 H 638.985 3.79072 1.14543 0
M  V30 6994 H 640.159 4.29524 -1.66872 0
M  V30 6995 H 638.474 3.93586 -1.35938 0
M  V30 6996 H 641.071 5.23236 1.10126 0
M  V30 6997 H 641.414 3.71076 1.88701 0
M  V30 6998 H 641.947 3.97253 0.208523 0
M  V30 6999 H 638.686 6.35355 -1.61257 0
M  V30 7000 H 638.206 5.99767 0.0626368 0
M  V30 7001 H 639.885 6.46268 -0.307577 0
M  V30 7002 N 640.017 0.126909 1.57088 0
M  V30 7003 C 641.247 -0.535892 1.99529 0
M  V30 7004 C 641.655 -1.60259 1.00566 0
M  V30 7005 O 640.998 -1.83698 -0.00843269 0
M  V30 7006 C 641.06 -1.21374 3.38391 0
M  V30 7007 C 640.724 -0.294044 4.56053 0
M  V30 7008 C 641.721 0.470454 5.17767 0
M  V30 7009 C 639.406 -0.202808 5.0189 0
M  V30 7010 C 641.4 1.31384 6.23712 0
M  V30 7011 C 639.087 0.644203 6.07695 0
M  V30 7012 C 640.085 1.40115 6.68473 0
M  V30 7013 O 639.773 2.23408 7.72233 0
M  V30 7014 H 639.505 -0.145799 0.66009 0
M  V30 7015 H 642.059 0.212441 2.04298 0
M  V30 7016 H 640.289 -2.00931 3.30399 0
M  V30 7017 H 641.978 -1.77424 3.65069 0
M  V30 7018 H 642.744 0.409884 4.83265 0
M  V30 7019 H 638.623 -0.781688 4.54324 0
M  V30 7020 H 642.167 1.90514 6.71081 0
M  V30 7021 H 638.064 0.706137 6.41626 0
M  V30 7022 H 638.832 2.16436 7.89365 0
M  V30 7023 N 641.495 -1.56914 -0.146875 0
M  V30 7024 C 642.911 -1.51582 -0.499518 0
M  V30 7025 C 643.111 -0.83535 -1.83369 0
M  V30 7026 O 642.167 -0.405932 -2.49216 0
M  V30 7027 C 643.48 -2.96349 -0.509711 0
M  V30 7028 C 645.028 -3.07288 -0.595217 0
M  V30 7029 C 645.503 -4.53562 -0.636071 0
M  V30 7030 N 646.994 -4.57906 -0.69829 0
M  V30 7031 C 647.729 -5.68462 -0.750886 0
M  V30 7032 N 647.225 -6.88588 -0.76282 0
M  V30 7033 N 649.018 -5.56496 -0.791777 0
M  V30 7034 H 641.169 -1.99547 0.727656 0
M  V30 7035 H 643.432 -0.910113 0.265327 0
M  V30 7036 H 643.138 -3.4939 0.402409 0
M  V30 7037 H 643.012 -3.52307 -1.34758 0
M  V30 7038 H 645.399 -2.54266 -1.49776 0
M  V30 7039 H 645.48 -2.54373 0.2698 0
M  V30 7040 H 645.124 -5.07222 0.262313 0
M  V30 7041 H 645.054 -5.04259 -1.51758 0
M  V30 7042 H 647.545 -3.71429 -0.696362 0
M  V30 7043 H 647.858 -7.68598 -0.804804 0
M  V30 7044 H 646.203 -6.91148 -0.730694 0
M  V30 7045 H 649.394 -4.61562 -0.779624 0
M  V30 7046 H 649.567 -6.42671 -0.829301 0
M  V30 7047 N 642.974 0.416227 -1.52004 0
M  V30 7048 C 644.385 0.995319 -1.57957 0
M  V30 7049 C 644.736 1.91744 -0.415754 0
M  V30 7050 O 643.861 2.11349 0.464808 0
M  V30 7051 C 644.456 1.81191 -2.86278 0
M  V30 7052 C 643.015 2.34115 -2.94732 0
M  V30 7053 C 642.162 1.139 -2.52828 0
M  V30 7054 H 645.113 0.196716 -1.57476 0
M  V30 7055 H 645.134 2.66859 -2.71231 0
M  V30 7056 H 644.646 1.14051 -3.70963 0
M  V30 7057 H 642.747 3.04647 -2.14525 0
M  V30 7058 H 642.86 2.65466 -3.98829 0
M  V30 7059 H 641.224 1.49081 -2.06511 0
M  V30 7060 H 642.007 0.483383 -3.3988 0
M  V30 7061 N 644.452 1.42507 0.673017 0
M  V30 7062 C 645.7 1.42789 1.43023 0
M  V30 7063 C 646.021 0.0459738 1.94946 0
M  V30 7064 O 645.291 -0.915765 1.73178 0
M  V30 7065 H 643.871 0.525657 0.530748 0
M  V30 7066 H 646.533 1.77944 0.795113 0
M  V30 7067 H 645.629 2.12872 2.28237 0
M  V30 7068 N 645.93 -0.909495 1.28709 0
M  V30 7069 C 647.155 -1.69801 1.1909 0
M  V30 7070 C 647.58 -1.86479 -0.246388 0
M  V30 7071 O 646.938 -1.37802 -1.17815 0
M  V30 7072 C 646.986 -3.06543 1.89904 0
M  V30 7073 O 646.09 -3.94268 1.2094 0
M  V30 7074 H 645.431 -0.519783 0.413185 0
M  V30 7075 H 647.961 -1.13689 1.70106 0
M  V30 7076 H 647.971 -3.56748 1.97977 0
M  V30 7077 H 646.646 -2.93722 2.94449 0
M  V30 7078 H 645.223 -3.52702 1.2106 0
M  V30 7079 N 647.408 -1.11026 -1.11852 0
M  V30 7080 C 648.318 -0.777252 -2.2135 0
M  V30 7081 C 649.334 0.227821 -1.72502 0
M  V30 7082 O 650.51 0.0650587 -2.01295 0
M  V30 7083 C 647.575 -0.220668 -3.45997 0
M  V30 7084 C 646.636 -1.2838 -4.09655 0
M  V30 7085 C 645.869 -0.753678 -5.28352 0
M  V30 7086 O 646.092 0.417779 -5.68868 0
M  V30 7087 O 645.026 -1.51647 -5.82483 0
M  V30 7088 H 648.852 -1.69141 -2.5224 0
M  V30 7089 H 646.437 -0.885836 -1.20305 0
M  V30 7090 H 648.319 0.0855756 -4.21313 0
M  V30 7091 H 646.994 0.666262 -3.16769 0
M  V30 7092 H 645.901 -1.64299 -3.3609 0
M  V30 7093 H 647.234 -2.14396 -4.43052 0
M  V30 7094 N 648.886 1.2938 -0.899927 0
M  V30 7095 C 650.134 1.95164 -0.524924 0
M  V30 7096 C 650.455 1.71292 0.931888 0
M  V30 7097 O 649.725 1.04481 1.65712 0
M  V30 7098 H 648.305 0.722133 -0.191135 0
M  V30 7099 H 650.967 1.57628 -1.14627 0
M  V30 7100 H 650.063 3.0397 -0.707711 0
M  V30 7101 N 650.364 0.662433 1.43002 0
M  V30 7102 C 651.611 0.179591 2.01702 0
M  V30 7103 C 651.939 -1.20964 1.52309 0
M  V30 7104 O 651.194 -1.82343 0.7106 0
M  V30 7105 C 651.493 0.149363 3.57088 0
M  V30 7106 C 651.159 1.48158 4.25864 0
M  V30 7107 C 649.821 1.84638 4.44367 0
M  V30 7108 C 652.173 2.35953 4.64732 0
M  V30 7109 C 649.501 3.08561 4.99006 0
M  V30 7110 C 651.853 3.59176 5.20745 0
M  V30 7111 C 650.517 3.95841 5.37463 0
M  V30 7112 H 649.787 0.0657172 0.73808 0
M  V30 7113 H 652.434 0.854968 1.71355 0
M  V30 7114 H 650.739 -0.609491 3.8703 0
M  V30 7115 H 652.436 -0.241241 4.00274 0
M  V30 7116 H 649.026 1.18777 4.11813 0
M  V30 7117 H 653.21 2.09058 4.50121 0
M  V30 7118 H 648.466 3.37005 5.10135 0
M  V30 7119 H 652.64 4.27417 5.49807 0
M  V30 7120 H 650.267 4.91942 5.79566 0
M  V30 7121 N 651.842 -1.52309 0.404946 0
M  V30 7122 C 652.772 -2.29805 -0.41376 0
M  V30 7123 C 653.753 -1.3384 -1.0498 0
M  V30 7124 O 654.938 -1.62745 -1.05961 0
M  V30 7125 C 652.068 -3.11639 -1.53292 0
M  V30 7126 C 651.022 -4.15616 -1.02211 0
M  V30 7127 C 650.348 -4.8577 -2.23455 0
M  V30 7128 C 651.648 -5.2224 -0.0790725 0
M  V30 7129 H 653.342 -2.98493 0.232878 0
M  V30 7130 H 650.888 -1.43552 0.113441 0
M  V30 7131 H 652.841 -3.64618 -2.11262 0
M  V30 7132 H 651.565 -2.40712 -2.20738 0
M  V30 7133 H 650.224 -3.63641 -0.46484 0
M  V30 7134 H 649.872 -4.11376 -2.89445 0
M  V30 7135 H 649.572 -5.56058 -1.89929 0
M  V30 7136 H 651.096 -5.4156 -2.82038 0
M  V30 7137 H 652.51 -5.70485 -0.567438 0
M  V30 7138 H 650.907 -5.99867 0.167167 0
M  V30 7139 H 651.977 -4.77078 0.867447 0
M  V30 7140 N 653.32 -0.135238 -1.57019 0
M  V30 7141 C 654.267 0.808908 -2.1616 0
M  V30 7142 C 655.237 1.25234 -1.09113 0
M  V30 7143 O 656.422 1.32697 -1.37099 0
M  V30 7144 C 653.562 2.04729 -2.77813 0
M  V30 7145 C 652.675 1.65074 -3.99218 0
M  V30 7146 C 651.81 2.84002 -4.48906 0
M  V30 7147 C 650.849 2.40663 -5.62803 0
M  V30 7148 N 649.986 3.5256 -6.07162 0
M  V30 7149 H 654.826 0.297751 -2.96509 0
M  V30 7150 H 652.363 0.135264 -1.46477 0
M  V30 7151 H 654.321 2.7731 -3.11697 0
M  V30 7152 H 652.951 2.53275 -2.00128 0
M  V30 7153 H 652.003 0.823029 -3.7139 0
M  V30 7154 H 653.315 1.29236 -4.81767 0
M  V30 7155 H 652.469 3.64788 -4.84783 0
M  V30 7156 H 651.208 3.23076 -3.65339 0
M  V30 7157 H 650.213 1.58314 -5.26514 0
M  V30 7158 H 651.438 2.02687 -6.48147 0
M  V30 7159 H 649.384 3.91278 -5.26534 0
M  V30 7160 H 649.301 3.20699 -6.84608 0
M  V30 7161 H 650.569 4.33738 -6.47682 0
M  V30 7162 N 654.798 1.5699 0.138552 0
M  V30 7163 C 656.046 1.83446 0.848053 0
M  V30 7164 C 656.367 0.71744 1.81322 0
M  V30 7165 O 655.637 -0.260228 1.94164 0
M  V30 7166 H 654.217 0.676792 0.316166 0
M  V30 7167 H 656.879 1.94462 0.130538 0
M  V30 7168 H 655.975 2.78677 1.40518 0
M  V30 7169 N 656.276 -0.40816 1.52223 0
M  V30 7170 C 657.687 -0.986929 1.58482 0
M  V30 7171 C 658.038 -1.91521 0.425917 0
M  V30 7172 O 657.163 -2.11593 -0.453593 0
M  V30 7173 C 657.758 -1.7967 2.87235 0
M  V30 7174 C 656.317 -2.32549 2.9597 0
M  V30 7175 C 655.464 -1.12558 2.53428 0
M  V30 7176 H 658.415 -0.188362 1.57578 0
M  V30 7177 H 658.436 -2.65417 2.72642 0
M  V30 7178 H 657.948 -1.12082 3.71563 0
M  V30 7179 H 656.049 -3.03505 2.16137 0
M  V30 7180 H 656.162 -2.63348 4.00231 0
M  V30 7181 H 654.526 -1.47984 2.07299 0
M  V30 7182 H 655.309 -0.465351 3.40131 0
M  V30 7183 N 657.755 -1.42862 -0.66545 0
M  V30 7184 C 658.685 -1.49867 -1.79059 0
M  V30 7185 C 659.666 -0.354394 -1.66367 0
M  V30 7186 O 660.851 -0.569969 -1.85647 0
M  V30 7187 C 657.981 -1.40943 -3.17415 0
M  V30 7188 C 656.935 -2.53495 -3.44854 0
M  V30 7189 C 656.261 -2.29626 -4.82883 0
M  V30 7190 C 657.561 -3.95781 -3.40815 0
M  V30 7191 H 659.255 -2.44037 -1.73453 0
M  V30 7192 H 656.801 -1.17456 -0.833071 0
M  V30 7193 H 658.754 -1.4445 -3.95869 0
M  V30 7194 H 657.478 -0.432716 -3.23721 0
M  V30 7195 H 656.137 -2.4932 -2.68766 0
M  V30 7196 H 655.785 -1.30226 -4.8585 0
M  V30 7197 H 655.485 -3.05065 -5.02204 0
M  V30 7198 H 657.009 -2.34897 -5.63609 0
M  V30 7199 H 658.423 -4.01508 -4.09224 0
M  V30 7200 H 656.82 -4.71148 -3.71672 0
M  V30 7201 H 657.89 -4.21786 -2.39216 0
M  V30 7202 N 659.233 0.902656 -1.29189 0
M  V30 7203 C 660.458 1.69167 -1.19989 0
M  V30 7204 C 660.883 1.86607 0.236495 0
M  V30 7205 O 660.241 1.38425 1.17082 0
M  V30 7206 C 660.289 3.05532 -1.91527 0
M  V30 7207 O 659.393 3.93621 -1.2303 0
M  V30 7208 H 658.734 0.517584 -0.415936 0
M  V30 7209 H 661.264 1.12785 -1.70706 0
M  V30 7210 H 661.274 3.55693 -1.99866 0
M  V30 7211 H 659.949 2.92156 -2.96003 0
M  V30 7212 H 658.526 3.52055 -1.22928 0
M  V30 7213 N 660.711 1.11618 1.11262 0
M  V30 7214 C 661.621 0.78898 2.20935 0
M  V30 7215 C 662.637 -0.21867 1.7262 0
M  V30 7216 O 663.813 -0.0543826 2.01327 0
M  V30 7217 C 660.878 0.239014 3.45875 0
M  V30 7218 C 659.939 1.3055 4.08968 0
M  V30 7219 C 659.172 0.781687 5.27944 0
M  V30 7220 O 659.395 -0.387605 5.69082 0
M  V30 7221 O 658.329 1.54734 5.81671 0
M  V30 7222 H 662.155 1.70477 2.51339 0
M  V30 7223 H 659.74 0.892203 1.19834 0
M  V30 7224 H 661.622 -0.0632312 4.21353 0
M  V30 7225 H 660.297 -0.649454 3.17118 0
M  V30 7226 H 659.204 1.66079 3.35214 0
M  V30 7227 H 660.537 2.16743 4.41909 0
M  V30 7228 N 662.189 -1.289 0.906776 0
M  V30 7229 C 663.099 -2.31256 0.394707 0
M  V30 7230 C 664.115 -1.66231 -0.514121 0
M  V30 7231 O 665.291 -1.97347 -0.401994 0
M  V30 7232 C 662.356 -3.44792 -0.363191 0
M  V30 7233 C 661.417 -4.25391 0.578012 0
M  V30 7234 C 660.65 -5.33506 -0.143811 0
M  V30 7235 O 660.873 -5.53786 -1.36665 0
M  V30 7236 O 659.807 -5.99673 0.5173 0
M  V30 7237 H 663.633 -2.77051 1.24405 0
M  V30 7238 H 661.218 -1.33466 0.671346 0
M  V30 7239 H 663.1 -4.139 -0.791503 0
M  V30 7240 H 661.775 -3.01093 -1.18848 0
M  V30 7241 H 660.682 -3.58899 1.05558 0
M  V30 7242 H 662.015 -4.72752 1.36992 0
M  V30 7243 N 663.667 -0.670007 -1.42649 0
M  V30 7244 C 664.895 -0.19854 -2.05945 0
M  V30 7245 C 665.31 1.14243 -1.50313 0
M  V30 7246 O 664.667 1.70872 -0.641027 0
M  V30 7247 C 664.718 -0.11966 -3.61302 0
M  V30 7248 O 664.439 -1.40764 -4.1487 0
M  V30 7249 C 665.94 0.375878 -4.41704 0
M  V30 7250 H 663.16 -0.0976894 -0.663851 0
M  V30 7251 H 665.704 -0.915392 -1.82868 0
M  V30 7252 H 663.859 0.547851 -3.83507 0
M  V30 7253 H 664.273 -1.27784 -5.08696 0
M  V30 7254 H 665.747 0.379988 -5.50691 0
M  V30 7255 H 666.224 1.41028 -4.15942 0
M  V30 7256 H 666.83 -0.259727 -4.24506 0
M  V30 7257 N 665.145 1.52092 -0.413018 0
M  V30 7258 C 666.055 2.30858 0.417318 0
M  V30 7259 C 667.071 1.38746 1.05003 0
M  V30 7260 O 668.247 1.71821 1.05069 0
M  V30 7261 C 665.312 3.11756 1.51687 0
M  V30 7262 C 664.373 4.19613 0.906825 0
M  V30 7263 C 663.606 4.96644 1.95399 0
M  V30 7264 O 663.829 4.7402 3.17271 0
M  V30 7265 O 662.763 5.81385 1.55805 0
M  V30 7266 H 666.589 3.02865 -0.225028 0
M  V30 7267 H 664.174 1.48358 -0.176126 0
M  V30 7268 H 666.056 3.62122 2.15512 0
M  V30 7269 H 664.731 2.42539 2.14375 0
M  V30 7270 H 663.638 3.73385 0.231183 0
M  V30 7271 H 664.971 4.91134 0.323814 0
M  V30 7272 N 666.623 0.143563 1.56945 0
M  V30 7273 C 667.586 -0.783295 2.154 0
M  V30 7274 C 668.586 -1.17763 1.09492 0
M  V30 7275 O 669.776 -1.09912 1.35148 0
M  V30 7276 C 666.908 -2.06248 2.7143 0
M  V30 7277 H 668.101 -0.274863 2.98638 0
M  V30 7278 H 665.654 -0.105859 1.55941 0
M  V30 7279 H 666.389 -2.61466 1.91849 0
M  V30 7280 H 666.174 -1.78897 3.4891 0
M  V30 7281 H 667.664 -2.72453 3.16479 0
M  V30 7282 N 668.101 -1.57061 -0.130224 0
M  V30 7283 C 669.326 -1.88802 -0.858409 0
M  V30 7284 C 669.751 -0.734353 -1.73173 0
M  V30 7285 O 669.109 0.315529 -1.78533 0
M  V30 7286 C 669.157 -3.19228 -1.67708 0
M  V30 7287 O 668.261 -3.04343 -2.78297 0
M  V30 7288 H 667.602 -0.619849 -0.238083 0
M  V30 7289 H 670.132 -2.04271 -0.115995 0
M  V30 7290 H 670.142 -3.51669 -2.06864 0
M  V30 7291 H 668.817 -4.02793 -1.0359 0
M  V30 7292 H 667.394 -2.83346 -2.42425 0
M  V30 7293 N 669.579 0.400081 -1.52437 0
M  V30 7294 C 670.856 1.15973 -1.57511 0
M  V30 7295 C 671.236 2.0798 -0.361572 0
M  V30 7296 O 670.584 2.19032 0.650929 0
M  V30 7297 C 670.794 1.92912 -2.90837 0
M  V30 7298 C 672.142 2.48662 -3.44169 0
M  V30 7299 O 673.166 2.03081 -2.92637 0
M  V30 7300 O 672.025 3.31894 -4.34176 0
M  V30 7301 H 669.119 0.530023 -0.634827 0
M  V30 7302 H 671.665 0.40613 -1.64769 0
M  V30 7303 H 670.437 1.25564 -3.70607 0
M  V30 7304 H 670.06 2.75257 -2.86913 0
M  V30 7305 N 671.057 1.43213 0.657864 0
M  V30 7306 C 672.282 1.48227 1.45064 0
M  V30 7307 C 672.707 0.0999939 1.87834 0
M  V30 7308 O 672.065 -0.905269 1.57081 0
M  V30 7309 C 672.113 2.42931 2.6649 0
M  V30 7310 O 671.217 1.91237 3.6538 0
M  V30 7311 H 670.558 0.501551 0.435135 0
M  V30 7312 H 673.088 1.8808 0.805431 0
M  V30 7313 H 673.098 2.6008 3.1436 0
M  V30 7314 H 671.773 3.43348 2.34701 0
M  V30 7315 H 670.35 1.83726 3.24498 0
M  V30 7316 N 672.536 -0.895792 1.29666 0
M  V30 7317 C 673.782 -1.64908 1.18039 0
M  V30 7318 C 674.115 -1.9236 -0.266682 0
M  V30 7319 O 673.39 -1.53682 -1.19214 0
M  V30 7320 C 673.673 -2.99574 1.99819 0
M  V30 7321 C 673.526 -2.79163 3.52687 0
M  V30 7322 C 674.845 -4.00358 1.82761 0
M  V30 7323 H 671.964 -0.598437 0.430165 0
M  V30 7324 H 674.606 -1.03736 1.59182 0
M  V30 7325 H 672.756 -3.51786 1.64859 0
M  V30 7326 H 674.428 -2.33821 3.9765 0
M  V30 7327 H 672.671 -2.13871 3.77414 0
M  V30 7328 H 673.342 -3.74871 4.05186 0
M  V30 7329 H 675.818 -3.57268 2.13304 0
M  V30 7330 H 674.694 -4.92514 2.42325 0
M  V30 7331 H 674.955 -4.35096 0.783839 0
M  V30 7332 N 674.014 -1.12206 -1.10668 0
M  V30 7333 C 675.291 -0.787382 -1.79052 0
M  V30 7334 C 675.671 0.723267 -1.98323 0
M  V30 7335 O 675.019 1.6561 -1.57434 0
M  V30 7336 C 675.229 -1.55968 -3.1221 0
M  V30 7337 C 676.577 -1.74413 -3.87125 0
M  V30 7338 O 677.601 -1.5246 -3.21923 0
M  V30 7339 O 676.46 -2.10952 -5.04144 0
M  V30 7340 H 673.554 -0.286137 -0.775922 0
M  V30 7341 H 676.1 -1.22595 -1.1734 0
M  V30 7342 H 674.872 -2.58692 -2.93588 0
M  V30 7343 H 674.495 -1.1152 -3.8164 0
M  V30 7344 N 675.492 1.28418 -0.913599 0
M  V30 7345 C 676.74 1.94596 -0.545594 0
M  V30 7346 C 677.061 1.7227 0.913668 0
M  V30 7347 O 676.331 1.06233 1.64595 0
M  V30 7348 H 674.911 0.720065 -0.198783 0
M  V30 7349 H 677.573 1.56404 -1.16292 0
M  V30 7350 H 676.669 3.03202 -0.739911 0
M  V30 7351 N 676.97 0.677563 1.42291 0
M  V30 7352 C 678.218 0.200578 2.01102 0
M  V30 7353 C 678.539 -1.19803 1.53858 0
M  V30 7354 O 677.809 -1.80496 0.761439 0
M  V30 7355 H 676.389 0.0711634 0.743603 0
M  V30 7356 H 679.051 0.874691 1.7417 0
M  V30 7357 H 678.147 0.204 3.11433 0
M  V30 7358 N 678.448 -1.51871 0.421078 0
M  V30 7359 C 679.398 -2.24171 -0.416111 0
M  V30 7360 C 680.382 -1.25763 -1.00362 0
M  V30 7361 O 681.574 -1.5094 -0.924452 0
M  V30 7362 C 678.703 -3.07533 -1.52571 0
M  V30 7363 C 677.789 -4.1336 -0.948399 0
M  V30 7364 N 678.18 -5.05704 -0.0987933 0
M  V30 7365 C 676.478 -4.29055 -1.21768 0
M  V30 7366 C 677.179 -5.8127 0.223705 0
M  V30 7367 N 676.155 -5.4221 -0.388524 0
M  V30 7368 H 679.957 -2.92925 0.239166 0
M  V30 7369 H 677.471 -1.60732 0.232191 0
M  V30 7370 H 679.468 -3.57893 -2.13819 0
M  V30 7371 H 678.128 -2.4032 -2.18349 0
M  V30 7372 H 679.139 -5.17214 0.266428 0
M  V30 7373 H 675.816 -3.73071 -1.87416 0
M  V30 7374 H 677.206 -6.65653 0.914076 0
M  V30 7375 N 679.926 -0.151884 -1.56866 0
M  V30 7376 C 681.203 0.543328 -1.87902 0
M  V30 7377 C 681.583 1.82636 -1.05864 0
M  V30 7378 O 680.931 2.28028 -0.146868 0
M  V30 7379 C 681.141 0.804056 -3.39611 0
M  V30 7380 C 682.489 1.14267 -4.08935 0
M  V30 7381 O 683.513 0.893248 -3.44818 0
M  V30 7382 O 682.372 1.61229 -5.22176 0
M  V30 7383 H 679.466 0.277724 -0.778973 0
M  V30 7384 H 682.012 -0.188862 -1.68646 0
M  V30 7385 H 680.784 -0.103772 -3.91162 0
M  V30 7386 H 680.407 1.59025 -3.64413 0
M  V30 7387 N 681.404 1.57128 0.121893 0
M  V30 7388 C 682.629 1.89254 0.848385 0
M  V30 7389 C 683.054 0.743527 1.72781 0
M  V30 7390 O 682.412 -0.306056 1.78698 0
M  V30 7391 C 682.46 3.20113 1.66012 0
M  V30 7392 O 681.564 3.05815 2.76679 0
M  V30 7393 H 680.905 0.621103 0.234793 0
M  V30 7394 H 683.435 2.0433 0.10516 0
M  V30 7395 H 683.445 3.52761 2.04996 0
M  V30 7396 H 682.12 4.03336 1.01452 0
M  V30 7397 H 680.697 2.84627 2.40918 0
M  V30 7398 N 682.882 -0.391992 1.52647 0
M  V30 7399 C 684.128 -1.139 1.67793 0
M  V30 7400 C 684.461 -1.89711 0.41514 0
M  V30 7401 O 683.736 -1.85431 -0.586979 0
M  V30 7402 C 684.019 -2.11966 2.91105 0
M  V30 7403 C 683.872 -1.39939 4.27478 0
M  V30 7404 C 685.191 -3.1243 3.09961 0
M  V30 7405 H 682.31 -0.412707 0.610608 0
M  V30 7406 H 684.952 -0.422725 1.85238 0
M  V30 7407 H 683.102 -2.73048 2.76364 0
M  V30 7408 H 684.774 -0.818439 4.53982 0
M  V30 7409 H 683.017 -0.701246 4.28095 0
M  V30 7410 H 683.688 -2.1158 5.09841 0
M  V30 7411 H 686.164 -2.61435 3.23714 0
M  V30 7412 H 685.04 -3.78294 3.97725 0
M  V30 7413 H 685.301 -3.81127 2.24042 0
M  V30 7414 N 684.36 -1.4356 -0.65026 0
M  V30 7415 C 685.609 -1.44619 -1.406 0
M  V30 7416 C 685.922 -0.0752645 -1.95455 0
M  V30 7417 O 687.128 0.0366832 -2.71475 0
M  V30 7418 C 685.584 -2.54511 -2.54465 0
M  V30 7419 C 685.192 -3.97723 -2.06204 0
M  V30 7420 C 686.936 -2.64768 -3.31811 0
M  V30 7421 C 684.843 -4.99075 -3.17298 0
M  V30 7422 H 683.773 -0.537983 -0.52829 0
M  V30 7423 H 686.424 -1.69559 -0.701561 0
M  V30 7424 H 684.806 -2.22777 -3.27393 0
M  V30 7425 H 685.98 -4.38932 -1.40267 0
M  V30 7426 H 684.295 -3.91538 -1.41729 0
M  V30 7427 H 686.892 -3.37664 -4.14593 0
M  V30 7428 H 687.235 -1.69936 -3.80036 0
M  V30 7429 H 687.768 -2.95817 -2.65964 0
M  V30 7430 H 684.507 -5.95469 -2.74038 0
M  V30 7431 H 684.027 -4.62476 -3.81937 0
M  V30 7432 H 685.706 -5.21913 -3.82382 0
M  V30 7433 N 685.838 0.888903 -1.30139 0
M  V30 7434 C 686.768 2.01046 -1.18755 0
M  V30 7435 C 687.749 1.69916 -0.0791438 0
M  V30 7436 O 688.934 1.92445 -0.260498 0
M  V30 7437 C 686.064 3.36109 -0.874518 0
M  V30 7438 C 685.018 3.81486 -1.94043 0
M  V30 7439 C 684.344 5.13796 -1.48047 0
M  V30 7440 C 685.644 4.00637 -3.35093 0
M  V30 7441 H 687.338 2.10828 -2.12584 0
M  V30 7442 H 684.884 1.01298 -1.02346 0
M  V30 7443 H 686.837 4.14089 -0.781548 0
M  V30 7444 H 685.561 3.26449 0.0994519 0
M  V30 7445 H 684.22 3.05731 -2.02297 0
M  V30 7446 H 683.868 5.0056 -0.494878 0
M  V30 7447 H 683.568 5.45127 -2.19341 0
M  V30 7448 H 685.092 5.94305 -1.40121 0
M  V30 7449 H 686.506 4.69067 -3.2962 0
M  V30 7450 H 684.903 4.43339 -4.04438 0
M  V30 7451 H 685.973 3.0462 -3.77273 0
M  V30 7452 N 687.317 1.12792 1.10072 0
M  V30 7453 C 688.594 0.796867 1.78632 0
M  V30 7454 C 688.974 -0.712739 1.98704 0
M  V30 7455 O 688.322 -1.64773 1.5831 0
M  V30 7456 C 688.532 1.57622 3.11378 0
M  V30 7457 C 689.88 1.76463 3.86194 0
M  V30 7458 O 690.904 1.54165 3.2111 0
M  V30 7459 O 689.763 2.13623 5.03018 0
M  V30 7460 H 686.857 0.290248 0.774394 0
M  V30 7461 H 689.403 1.23215 1.16688 0
M  V30 7462 H 688.175 2.60246 2.92212 0
M  V30 7463 H 687.798 1.13543 3.81043 0
M  V30 7464 N 688.795 -1.27931 0.920396 0
M  V30 7465 C 690.206 -1.76707 0.602616 0
M  V30 7466 C 690.557 -1.75249 -0.882159 0
M  V30 7467 O 689.682 -1.35135 -1.69019 0
M  V30 7468 C 690.277 -3.20884 1.08714 0
M  V30 7469 C 688.836 -3.67356 0.820157 0
M  V30 7470 C 687.983 -2.47525 1.25006 0
M  V30 7471 H 690.934 -1.14301 1.10095 0
M  V30 7472 H 690.955 -3.78045 0.431535 0
M  V30 7473 H 690.467 -3.21913 2.1678 0
M  V30 7474 H 688.568 -3.7178 -0.247012 0
M  V30 7475 H 688.681 -4.57181 1.43257 0
M  V30 7476 H 687.045 -2.45765 0.668698 0
M  V30 7477 H 687.828 -2.51269 2.3392 0
M  V30 7478 N 690.273 -0.685099 -1.4193 0
M  V30 7479 C 691.183 -0.013404 -2.34596 0
M  V30 7480 C 692.199 0.777589 -1.55658 0
M  V30 7481 O 693.375 0.717553 -1.88184 0
M  V30 7482 C 690.44 0.919031 -3.34297 0
M  V30 7483 C 689.501 0.121417 -4.29128 0
M  V30 7484 C 688.734 1.00944 -5.24067 0
M  V30 7485 O 688.957 2.24898 -5.24192 0
M  V30 7486 O 687.891 0.464724 -6.00103 0
M  V30 7487 H 691.717 -0.776978 -2.93593 0
M  V30 7488 H 689.302 -0.445379 -1.42607 0
M  V30 7489 H 691.184 1.45402 -3.9552 0
M  V30 7490 H 689.859 1.66228 -2.77759 0
M  V30 7491 H 688.766 -0.45792 -3.71287 0
M  V30 7492 H 690.099 -0.582937 -4.88736 0
M  V30 7493 N 691.751 1.51645 -0.429126 0
M  V30 7494 C 693.167 1.59394 -0.080994 0
M  V30 7495 C 693.367 1.44064 1.40882 0
M  V30 7496 O 692.423 1.27771 2.17786 0
M  V30 7497 C 693.736 2.94779 -0.593773 0
M  V30 7498 C 695.284 3.08067 -0.553494 0
M  V30 7499 C 695.759 4.45963 -1.04311 0
M  V30 7500 N 697.25 4.5226 -1.00076 0
M  V30 7501 C 697.985 5.57268 -1.35056 0
M  V30 7502 N 697.481 6.69734 -1.77282 0
M  V30 7503 N 699.274 5.47582 -1.26925 0
M  V30 7504 H 691.425 1.59856 -1.39857 0
M  V30 7505 H 693.688 0.753095 -0.575805 0
M  V30 7506 H 693.394 3.11342 -1.63583 0
M  V30 7507 H 693.268 3.77197 -0.0142202 0
M  V30 7508 H 695.655 2.91177 0.479556 0
M  V30 7509 H 695.736 2.27508 -1.16935 0
M  V30 7510 H 695.38 4.63598 -2.07459 0
M  V30 7511 H 695.31 5.25049 -0.403873 0
M  V30 7512 H 697.801 3.71537 -0.690564 0
M  V30 7513 H 698.114 7.4587 -2.02232 0
M  V30 7514 H 696.459 6.70963 -1.81202 0
M  V30 7515 H 699.65 4.58604 -0.93809 0
M  V30 7516 H 699.823 6.29308 -1.54516 0
M  V30 7517 N 693.229 0.160201 1.56784 0
M  V30 7518 C 694.159 -0.770264 2.2043 0
M  V30 7519 C 695.14 -1.24736 1.15651 0
M  V30 7520 O 696.325 -1.30253 1.44041 0
M  V30 7521 C 693.455 -2.00427 2.83631 0
M  V30 7522 C 692.409 -1.66345 3.94352 0
M  V30 7523 C 691.735 -2.97119 4.4455 0
M  V30 7524 C 693.035 -0.899972 5.14488 0
M  V30 7525 H 694.729 -0.239783 2.98438 0
M  V30 7526 H 692.275 -0.113891 1.43549 0
M  V30 7527 H 694.228 -2.66012 3.26827 0
M  V30 7528 H 692.952 -2.5587 2.02973 0
M  V30 7529 H 691.611 -1.03133 3.51794 0
M  V30 7530 H 691.259 -3.5058 3.60698 0
M  V30 7531 H 690.959 -2.75073 5.19238 0
M  V30 7532 H 692.483 -3.63753 4.90425 0
M  V30 7533 H 693.897 -1.45818 5.54446 0
M  V30 7534 H 692.294 -0.778968 5.95023 0
M  V30 7535 H 693.364 0.105827 4.84785 0
M  V30 7536 N 694.707 -1.5719 -0.113559 0
M  V30 7537 C 695.617 -2.04041 -1.15777 0
M  V30 7538 C 696.633 -0.961812 -1.45001 0
M  V30 7539 O 697.809 -1.2737 -1.56009 0
M  V30 7540 C 694.874 -2.43994 -2.46308 0
M  V30 7541 C 693.935 -3.65962 -2.24433 0
M  V30 7542 C 693.168 -4.04 -3.4874 0
M  V30 7543 O 693.391 -3.42321 -4.56259 0
M  V30 7544 O 692.325 -4.97069 -3.3942 0
M  V30 7545 H 696.151 -2.93248 -0.789899 0
M  V30 7546 H 693.736 -1.45828 -0.324748 0
M  V30 7547 H 695.618 -2.70401 -3.23204 0
M  V30 7548 H 694.293 -1.57932 -2.82558 0
M  V30 7549 H 693.2 -3.44697 -1.45377 0
M  V30 7550 H 694.533 -4.52746 -1.93084 0
M  V30 7551 N 696.185 0.383891 -1.52853 0
M  V30 7552 C 697.596 0.961591 -1.60032 0
M  V30 7553 C 697.947 1.90819 -0.456333 0
M  V30 7554 O 697.072 2.12288 0.419873 0
M  V30 7555 C 697.667 1.75078 -2.90057 0
M  V30 7556 C 696.226 2.2781 -2.99632 0
M  V30 7557 C 695.373 1.08512 -2.55187 0
M  V30 7558 H 698.324 0.163269 -1.57858 0
M  V30 7559 H 698.345 2.61046 -2.7683 0
M  V30 7560 H 697.857 1.06157 -3.73299 0
M  V30 7561 H 695.958 3.00028 -2.20939 0
M  V30 7562 H 696.071 2.56947 -4.0437 0
M  V30 7563 H 694.435 1.44667 -2.09627 0
M  V30 7564 H 695.218 0.41118 -3.40829 0
M  V30 7565 N 697.663 1.43903 0.642637 0
M  V30 7566 C 698.911 1.45791 1.39962 0
M  V30 7567 C 699.232 0.0873144 1.94804 0
M  V30 7568 O 698.502 -0.878825 1.75081 0
M  V30 7569 H 697.082 0.536797 0.519479 0
M  V30 7570 H 699.744 1.7959 0.757189 0
M  V30 7571 H 698.84 2.17665 2.2367 0
M  V30 7572 N 699.141 -0.881989 1.30609 0
M  V30 7573 C 700.071 -2.00413 1.1982 0
M  V30 7574 C 701.052 -1.69871 0.0881538 0
M  V30 7575 O 702.237 -1.92304 0.2707 0
M  V30 7576 C 699.367 -3.35641 0.89233 0
M  V30 7577 C 698.321 -3.80451 1.96064 0
M  V30 7578 C 697.647 -5.13003 1.5077 0
M  V30 7579 C 698.947 -3.98855 3.37213 0
M  V30 7580 H 700.641 -2.09698 2.13699 0
M  V30 7581 H 698.187 -1.00754 1.02882 0
M  V30 7582 H 700.14 -4.13669 0.803497 0
M  V30 7583 H 698.864 -3.26497 -0.0821381 0
M  V30 7584 H 697.523 -3.04654 2.03916 0
M  V30 7585 H 697.171 -5.0029 0.521417 0
M  V30 7586 H 696.871 -5.43956 2.22229 0
M  V30 7587 H 698.395 -5.93554 1.43271 0
M  V30 7588 H 699.809 -4.67312 3.32103 0
M  V30 7589 H 698.206 -4.41188 4.06784 0
M  V30 7590 H 699.276 -3.02614 3.78883 0
M  V30 7591 N 700.619 -1.13374 -1.09472 0
M  V30 7592 C 701.896 -0.806329 -1.78207 0
M  V30 7593 C 702.276 0.702191 -1.99079 0
M  V30 7594 O 701.624 1.63931 -1.59182 0
M  V30 7595 C 701.834 -1.59271 -3.10538 0
M  V30 7596 C 703.182 -1.78509 -3.85253 0
M  V30 7597 O 704.206 -1.55866 -3.20288 0
M  V30 7598 O 703.065 -2.16287 -5.01879 0
M  V30 7599 H 700.159 -0.29435 -0.772843 0
M  V30 7600 H 702.705 -1.23833 -1.16033 0
M  V30 7601 H 701.477 -2.61792 -2.90828 0
M  V30 7602 H 701.1 -1.15562 -3.80436 0
M  V30 7603 N 702.098 1.27442 -0.927168 0
M  V30 7604 C 703.008 2.30599 -0.431448 0
M  V30 7605 C 704.024 1.67028 0.48761 0
M  V30 7606 O 705.2 1.97962 0.370546 0
M  V30 7607 C 702.265 3.45327 0.308292 0
M  V30 7608 C 701.326 4.24418 -0.645615 0
M  V30 7609 C 700.559 5.33667 0.0589164 0
M  V30 7610 O 700.782 5.5589 1.27838 0
M  V30 7611 O 699.716 5.98774 -0.612638 0
M  V30 7612 H 703.542 2.75036 -1.28797 0
M  V30 7613 H 701.127 1.32382 -0.692495 0
M  V30 7614 H 703.009 4.15107 0.725555 0
M  V30 7615 H 701.684 3.02945 1.14043 0
M  V30 7616 H 700.591 3.57174 -1.11255 0
M  V30 7617 H 701.924 4.70512 -1.44496 0
M  V30 7618 N 703.576 0.692616 1.41565 0
M  V30 7619 C 704.486 0.0258451 2.34586 0
M  V30 7620 C 705.502 -0.769324 1.56069 0
M  V30 7621 O 706.678 -0.707563 1.88562 0
M  V30 7622 C 703.743 -0.901289 3.3478 0
M  V30 7623 C 702.804 -0.0986579 4.29187 0
M  V30 7624 C 702.037 -0.981634 5.24595 0
M  V30 7625 O 702.26 -2.22115 5.25377 0
M  V30 7626 O 701.194 -0.432892 6.00341 0
M  V30 7627 H 705.02 0.792537 2.93177 0
M  V30 7628 H 702.605 0.452935 1.42369 0
M  V30 7629 H 704.487 -1.43302 3.96286 0
M  V30 7630 H 703.162 -1.64752 2.78637 0
M  V30 7631 H 702.069 0.477604 3.71039 0
M  V30 7632 H 703.402 0.608848 4.8842 0
M  V30 7633 N 705.054 -1.51416 0.437162 0
M  V30 7634 C 706.331 -1.94682 -0.189292 0
M  V30 7635 C 706.711 -1.37581 -1.60108 0
M  V30 7636 O 706.059 -0.562815 -2.2146 0
M  V30 7637 C 706.269 -3.48599 -0.167201 0
M  V30 7638 C 707.617 -4.2296 -0.372856 0
M  V30 7639 O 708.641 -3.55354 -0.245323 0
M  V30 7640 O 707.5 -5.42895 -0.626693 0
M  V30 7641 H 704.594 -0.816708 -0.130063 0
M  V30 7642 H 707.14 -1.62316 0.495128 0
M  V30 7643 H 705.912 -3.82616 0.81981 0
M  V30 7644 H 705.535 -3.87406 -0.894537 0
M  V30 7645 N 706.532 -0.168513 -1.56696 0
M  V30 7646 C 707.76 0.483503 -2.01171 0
M  V30 7647 C 708.175 1.56994 -1.04872 0
M  V30 7648 O 707.532 1.82434 -0.0491337 0
M  V30 7649 C 707.583 1.0644 -3.45475 0
M  V30 7650 O 707.304 0.0213375 -4.38095 0
M  V30 7651 C 708.805 1.79493 -4.05336 0
M  V30 7652 H 706.025 0.124002 -0.659443 0
M  V30 7653 H 708.569 -0.269419 -2.02717 0
M  V30 7654 H 706.724 1.76784 -3.44712 0
M  V30 7655 H 707.138 0.449837 -5.22567 0
M  V30 7656 H 708.612 2.15401 -5.08238 0
M  V30 7657 H 709.089 2.68889 -3.47269 0
M  V30 7658 H 709.695 1.13798 -4.09793 0
M  V30 7659 N 708.01 1.57248 0.105221 0
M  V30 7660 C 709.287 1.76566 0.841647 0
M  V30 7661 C 709.667 0.747566 1.9742 0
M  V30 7662 O 709.015 -0.225886 2.27381 0
M  V30 7663 C 709.225 3.22016 1.3456 0
M  V30 7664 C 710.573 3.84911 1.79244 0
M  V30 7665 O 711.597 3.25703 1.44207 0
M  V30 7666 O 710.456 4.89008 2.43995 0
M  V30 7667 H 707.55 0.723443 0.400698 0
M  V30 7668 H 710.096 1.69472 0.0878893 0
M  V30 7669 H 708.868 3.87644 0.533685 0
M  V30 7670 H 708.491 3.33703 2.16167 0
M  V30 7671 N 709.488 -0.375779 1.53054 0
M  V30 7672 C 710.735 -1.11948 1.68742 0
M  V30 7673 C 711.063 -1.89596 0.434015 0
M  V30 7674 O 710.318 -1.86787 -0.583867 0
M  V30 7675 C 710.617 -2.11356 2.88207 0
M  V30 7676 C 710.283 -1.50266 4.25124 0
M  V30 7677 C 708.945 -1.33333 4.62359 0
M  V30 7678 C 711.297 -1.05976 5.10312 0
M  V30 7679 C 708.625 -0.706765 5.82427 0
M  V30 7680 C 710.977 -0.447241 6.31017 0
M  V30 7681 C 709.641 -0.265314 6.66973 0
M  V30 7682 H 708.911 -0.409648 0.61747 0
M  V30 7683 H 711.558 -0.402492 1.87222 0
M  V30 7684 H 709.863 -2.89322 2.64197 0
M  V30 7685 H 711.56 -2.68833 2.97539 0
M  V30 7686 H 708.15 -1.64437 3.95801 0
M  V30 7687 H 712.334 -1.17855 4.82104 0
M  V30 7688 H 707.59 -0.554132 6.08884 0
M  V30 7689 H 711.764 -0.0958064 6.96334 0
M  V30 7690 H 709.391 0.222267 7.59875 0
M  V30 7691 N 710.966 -1.44241 -0.634997 0
M  V30 7692 C 711.876 -1.53293 -1.77591 0
M  V30 7693 C 712.892 -0.418831 -1.68884 0
M  V30 7694 O 714.068 -0.675619 -1.8973 0
M  V30 7695 C 711.133 -1.47075 -3.13958 0
M  V30 7696 C 710.194 -2.69304 -3.34326 0
M  V30 7697 C 709.427 -2.63374 -4.64187 0
M  V30 7698 O 709.65 -1.69161 -5.44739 0
M  V30 7699 O 708.584 -3.54166 -4.86673 0
M  V30 7700 H 712.41 -2.49673 -1.72908 0
M  V30 7701 H 709.995 -1.26445 -0.795745 0
M  V30 7702 H 711.877 -1.46117 -3.95257 0
M  V30 7703 H 710.552 -0.538373 -3.19192 0
M  V30 7704 H 709.459 -2.75831 -2.52721 0
M  V30 7705 H 710.792 -3.61576 -3.33951 0
M  V30 7706 N 712.444 0.87505 -1.31075 0
M  V30 7707 C 713.354 2.01441 -1.20244 0
M  V30 7708 C 714.37 1.73584 -0.120227 0
M  V30 7709 O 715.546 1.98559 -0.337063 0
M  V30 7710 C 712.611 3.34675 -0.905199 0
M  V30 7711 C 711.672 3.75889 -2.0738 0
M  V30 7712 C 710.905 5.02764 -1.79064 0
M  V30 7713 O 711.128 5.65795 -0.723318 0
M  V30 7714 O 710.062 5.40623 -2.64594 0
M  V30 7715 H 713.888 2.13509 -2.1598 0
M  V30 7716 H 711.473 1.00257 -1.10765 0
M  V30 7717 H 713.355 4.1458 -0.755057 0
M  V30 7718 H 712.03 3.23692 0.0221695 0
M  V30 7719 H 710.937 2.96645 -2.27931 0
M  V30 7720 H 712.27 3.91489 -2.98324 0
M  V30 7721 N 713.922 1.13953 1.08869 0
M  V30 7722 C 714.832 0.835666 2.19212 0
M  V30 7723 C 715.848 -0.182005 1.73045 0
M  V30 7724 O 717.024 -0.0116661 2.01397 0
M  V30 7725 C 714.089 0.312325 3.4529 0
M  V30 7726 C 713.15 1.39196 4.06107 0
M  V30 7727 C 712.383 0.893496 5.26168 0
M  V30 7728 O 712.606 -0.266807 5.69776 0
M  V30 7729 O 711.54 1.67037 5.78258 0
M  V30 7730 H 715.366 1.75769 2.47667 0
M  V30 7731 H 712.951 0.917421 1.17914 0
M  V30 7732 H 714.833 0.0261582 4.21392 0
M  V30 7733 H 713.508 -0.582042 3.18424 0
M  V30 7734 H 712.415 1.73152 3.31616 0
M  V30 7735 H 713.748 2.26068 4.37212 0
M  V30 7736 N 715.4 -1.26948 0.933913 0
M  V30 7737 C 716.677 -1.89212 0.495784 0
M  V30 7738 C 717.057 -1.84469 -1.02637 0
M  V30 7739 O 716.405 -1.29409 -1.88323 0
M  V30 7740 C 716.615 -3.32865 1.0489 0
M  V30 7741 C 717.963 -4.09749 1.11315 0
M  V30 7742 O 718.987 -3.41905 0.998966 0
M  V30 7743 O 717.846 -5.31061 1.28983 0
M  V30 7744 H 714.94 -0.811284 0.160459 0
M  V30 7745 H 717.486 -1.35171 1.02601 0
M  V30 7746 H 716.258 -3.30642 2.09265 0
M  V30 7747 H 715.881 -3.94435 0.500692 0
M  V30 7748 N 716.879 -0.700114 -1.41195 0
M  V30 7749 C 718.156 -0.160836 -1.94938 0
M  V30 7750 C 718.536 1.33014 -1.63922 0
M  V30 7751 O 717.884 2.07878 -0.948636 0
M  V30 7752 C 718.094 -0.456991 -3.45995 0
M  V30 7753 C 719.442 -0.387207 -4.22831 0
M  V30 7754 O 720.466 -0.392164 -3.54035 0
M  V30 7755 O 719.325 -0.351267 -5.4537 0
M  V30 7756 H 716.419 -0.0176304 -0.826812 0
M  V30 7757 H 718.965 -0.776586 -1.50888 0
M  V30 7758 H 717.737 -1.48884 -3.61869 0
M  V30 7759 H 717.36 0.189503 -3.97148 0
M  V30 7760 N 718.357 1.51182 -0.445186 0
M  V30 7761 C 719.305 2.29531 0.376597 0
M  V30 7762 C 720.299 1.35711 1.01385 0
M  V30 7763 O 721.505 1.53018 0.947922 0
M  V30 7764 H 717.88 0.738803 0.140267 0
M  V30 7765 H 719.851 2.96838 -0.304958 0
M  V30 7766 C 718.6 3.1552 1.4609 0
M  V30 7767 H 717.923 3.87605 0.979912 0
M  V30 7768 H 719.363 3.73384 2.009 0
M  V30 7769 C 717.822 2.31406 2.44852 0
M  V30 7770 O 718.352 1.97912 3.49562 0
M  V30 7771 N 716.558 1.94478 2.15932 0
M  V30 7772 H 716.105 2.21917 1.30808 0
M  V30 7773 H 716.063 1.38498 2.82251 0
M  V30 7774 N 719.835 0.176821 1.56605 0
M  V30 7775 C 721.246 -0.338963 1.83597 0
M  V30 7776 C 721.597 -1.62677 1.09684 0
M  V30 7777 O 720.722 -2.13524 0.351661 0
M  V30 7778 C 721.317 -0.62177 3.33046 0
M  V30 7779 C 719.876 -1.08198 3.60514 0
M  V30 7780 C 719.023 -0.120774 2.77037 0
M  V30 7781 H 721.974 0.400978 1.53551 0
M  V30 7782 H 721.995 -1.47321 3.50823 0
M  V30 7783 H 721.507 0.315692 3.86814 0
M  V30 7784 H 719.608 -2.03435 3.12162 0
M  V30 7785 H 719.721 -0.987329 4.68816 0
M  V30 7786 H 718.085 -0.619192 2.47059 0
M  V30 7787 H 718.868 0.810806 3.33588 0
M  V30 7788 N 721.313 -1.57302 -0.09688 0
M  V30 7789 C 722.59 -1.7701 -0.832272 0
M  V30 7790 C 722.97 -0.758025 -1.97021 0
M  V30 7791 O 722.318 0.213824 -2.27497 0
M  V30 7792 C 722.528 -3.22725 -1.32851 0
M  V30 7793 C 723.876 -3.85856 -1.772 0
M  V30 7794 O 724.9 -3.26464 -1.42478 0
M  V30 7795 O 723.759 -4.90295 -2.41398 0
M  V30 7796 H 720.853 -0.725558 -0.396856 0
M  V30 7797 H 723.399 -1.69516 -0.0789005 0
M  V30 7798 H 722.171 -3.87921 -0.51312 0
M  V30 7799 H 721.794 -3.34845 -2.14394 0
M  V30 7800 N 722.791 0.367657 -1.53252 0
M  V30 7801 C 724.037 1.10864 -1.70531 0
M  V30 7802 C 724.392 1.87051 -0.4505 0
M  V30 7803 O 723.685 1.83342 0.556431 0
M  V30 7804 C 723.879 2.09825 -2.89324 0
M  V30 7805 C 723.708 1.43361 -4.26237 0
M  V30 7806 C 722.478 1.18861 -4.91121 0
M  V30 7807 C 724.676 0.872409 -5.06847 0
M  V30 7808 N 722.658 0.487258 -6.11963 0
M  V30 7809 C 724.029 0.300301 -6.19272 0
M  V30 7810 C 726.084 0.770895 -4.91896 0
M  V30 7811 C 724.787 -0.363419 -7.18381 0
M  V30 7812 C 726.813 0.12096 -5.91276 0
M  V30 7813 C 726.175 -0.440283 -7.03023 0
M  V30 7814 H 722.274 0.390902 -0.677288 0
M  V30 7815 H 724.858 0.395305 -1.90645 0
M  V30 7816 H 723.029 2.78473 -2.70753 0
M  V30 7817 H 724.761 2.76585 -2.95436 0
M  V30 7818 H 721.516 1.46934 -4.5023 0
M  V30 7819 H 721.94 0.152005 -6.76829 0
M  V30 7820 H 726.582 1.19058 -4.05691 0
M  V30 7821 H 724.3 -0.795057 -8.04179 0
M  V30 7822 H 727.886 0.0433702 -5.81784 0
M  V30 7823 H 726.766 -0.935244 -7.78603 0
M  V30 7824 N 724.269 1.44576 0.627338 0
M  V30 7825 C 725.515 1.47777 1.38888 0
M  V30 7826 C 725.848 0.111406 1.9388 0
M  V30 7827 O 725.123 -0.87149 1.73883 0
M  V30 7828 C 725.406 2.54119 2.55138 0
M  V30 7829 C 725.259 4.00128 2.0547 0
M  V30 7830 C 726.578 2.56929 3.57317 0
M  V30 7831 H 723.697 0.538048 0.50366 0
M  V30 7832 H 726.339 1.76277 0.708978 0
M  V30 7833 H 724.489 2.29948 3.13139 0
M  V30 7834 H 726.161 4.35444 1.5227 0
M  V30 7835 H 724.404 4.11724 1.36623 0
M  V30 7836 H 725.075 4.7019 2.89181 0
M  V30 7837 H 727.551 2.78536 3.09122 0
M  V30 7838 H 726.427 3.33234 4.36173 0
M  V30 7839 H 726.688 1.6127 4.11636 0
M  V30 7840 N 725.747 -0.868086 1.31537 0
M  V30 7841 C 726.972 -1.65926 1.24432 0
M  V30 7842 C 727.397 -1.87169 -0.186936 0
M  V30 7843 O 726.755 -1.4148 -1.13371 0
M  V30 7844 C 726.803 -3.00347 1.9956 0
M  V30 7845 O 725.907 -3.90221 1.33422 0
M  V30 7846 H 725.248 -0.506375 0.429512 0
M  V30 7847 H 727.778 -1.0822 1.73637 0
M  V30 7848 H 727.788 -3.50269 2.09226 0
M  V30 7849 H 726.463 -2.84205 3.03645 0
M  V30 7850 H 725.04 -3.48672 1.32219 0
M  V30 7851 N 727.225 -1.14528 -1.08264 0
M  V30 7852 C 728.135 -0.84728 -2.18765 0
M  V30 7853 C 729.151 0.172826 -1.7314 0
M  V30 7854 O 730.327 0.000985336 -2.014 0
M  V30 7855 C 727.392 -0.330633 -3.4512 0
M  V30 7856 C 726.453 -1.41348 -4.05363 0
M  V30 7857 C 725.686 -0.921387 -5.25686 0
M  V30 7858 O 725.909 0.236587 -5.69909 0
M  V30 7859 O 724.843 -1.70101 -5.77364 0
M  V30 7860 H 728.669 -1.7708 -2.46731 0
M  V30 7861 H 726.254 -0.923661 -1.17426 0
M  V30 7862 H 728.136 -0.0485053 -4.21372 0
M  V30 7863 H 726.811 0.565147 -3.18728 0
M  V30 7864 H 725.718 -1.74908 -3.30693 0
M  V30 7865 H 727.051 -2.28383 -4.36007 0
M  V30 7866 N 728.703 1.26451 -0.940633 0
M  V30 7867 C 729.633 2.28773 -0.467479 0
M  V30 7868 C 730.614 1.63218 0.478955 0
M  V30 7869 O 731.799 1.90427 0.380929 0
M  V30 7870 C 728.929 3.46259 0.268656 0
M  V30 7871 C 727.883 4.23898 -0.591171 0
M  V30 7872 C 727.209 5.33993 0.274891 0
M  V30 7873 C 728.509 4.87974 -1.86223 0
M  V30 7874 H 730.203 2.68601 -1.32265 0
M  V30 7875 H 727.749 1.29123 -0.637436 0
M  V30 7876 H 729.702 4.16951 0.610696 0
M  V30 7877 H 728.426 3.05383 1.15796 0
M  V30 7878 H 727.085 3.54969 -0.916098 0
M  V30 7879 H 726.733 4.89358 1.16353 0
M  V30 7880 H 726.433 5.86849 -0.297006 0
M  V30 7881 H 727.957 6.07523 0.612213 0
M  V30 7882 H 729.371 5.50883 -1.58747 0
M  V30 7883 H 727.768 5.50945 -2.37866 0
M  V30 7884 H 728.838 4.10945 -2.57394 0
M  V30 7885 N 730.181 0.707592 1.40822 0
M  V30 7886 C 731.128 0.0499029 2.30746 0
M  V30 7887 C 732.098 -0.758718 1.47759 0
M  V30 7888 O 733.283 -0.724299 1.76518 0
M  V30 7889 C 730.423 -0.871756 3.33908 0
M  V30 7890 C 729.536 -0.0534655 4.31967 0
M  V30 7891 C 728.671 -0.973869 5.22197 0
M  V30 7892 C 727.71 -0.149194 6.11918 0
M  V30 7893 N 726.847 -1.02404 6.94592 0
M  V30 7894 H 731.687 0.822461 2.86426 0
M  V30 7895 H 729.224 0.417285 1.41057 0
M  V30 7896 H 731.182 -1.42028 3.9228 0
M  V30 7897 H 729.812 -1.61058 2.7975 0
M  V30 7898 H 728.864 0.612142 3.75442 0
M  V30 7899 H 730.176 0.585354 4.95353 0
M  V30 7900 H 729.33 -1.59121 5.85462 0
M  V30 7901 H 728.069 -1.64652 4.59065 0
M  V30 7902 H 727.074 0.481137 5.47691 0
M  V30 7903 H 728.299 0.519841 6.77107 0
M  V30 7904 H 726.245 -1.6825 6.34057 0
M  V30 7905 H 726.162 -0.441076 7.54712 0
M  V30 7906 H 727.43 -1.62782 7.62314 0
M  V30 7907 N 731.66 -1.50943 0.453197 0
M  V30 7908 C 732.607 -2.28128 -0.350197 0
M  V30 7909 C 733.577 -1.32398 -1.00299 0
M  V30 7910 O 734.762 -1.61319 -1.01887 0
M  V30 7911 C 731.902 -3.13782 -1.43649 0
M  V30 7912 C 731.015 -4.24523 -0.800255 0
M  V30 7913 C 730.15 -4.97462 -1.86293 0
M  V30 7914 C 729.189 -6.00102 -1.20598 0
M  V30 7915 N 728.326 -6.66387 -2.21071 0
M  V30 7916 H 733.166 -2.96337 0.31434 0
M  V30 7917 H 730.703 -1.46151 0.166863 0
M  V30 7918 H 732.661 -3.6178 -2.07776 0
M  V30 7919 H 731.291 -2.47655 -2.07044 0
M  V30 7920 H 730.343 -3.80371 -0.0468651 0
M  V30 7921 H 731.655 -4.98009 -0.280777 0
M  V30 7922 H 730.809 -5.49088 -2.58044 0
M  V30 7923 H 729.548 -4.23642 -2.41617 0
M  V30 7924 H 728.553 -5.47753 -0.474 0
M  V30 7925 H 729.778 -6.75887 -0.659859 0
M  V30 7926 H 727.724 -5.9537 -2.75446 0
M  V30 7927 H 727.641 -7.3569 -1.74058 0
M  V30 7928 H 728.909 -7.22638 -2.92257 0
M  V30 7929 N 733.138 -0.185124 -1.56509 0
M  V30 7930 C 734.554 0.170865 -1.58683 0
M  V30 7931 C 734.754 1.61799 -1.20098 0
M  V30 7932 O 733.81 2.35181 -0.919038 0
M  V30 7933 C 735.123 -0.122459 -3.00451 0
M  V30 7934 C 736.671 -0.0617699 -3.12939 0
M  V30 7935 C 737.146 -0.328269 -4.56822 0
M  V30 7936 N 738.637 -0.276533 -4.62374 0
M  V30 7937 C 739.372 -0.456722 -5.71578 0
M  V30 7938 N 738.868 -0.69672 -6.89288 0
M  V30 7939 N 740.661 -0.391669 -5.60734 0
M  V30 7940 H 732.812 -1.12956 -1.79874 0
M  V30 7941 H 735.075 -0.45011 -0.834329 0
M  V30 7942 H 734.781 -1.12546 -3.33206 0
M  V30 7943 H 734.655 0.579578 -3.72721 0
M  V30 7944 H 737.042 0.931826 -2.80002 0
M  V30 7945 H 737.123 -0.796732 -2.43076 0
M  V30 7946 H 736.767 -1.31914 -4.9047 0
M  V30 7947 H 736.697 0.427465 -5.24862 0
M  V30 7948 H 739.188 -0.0972458 -3.77775 0
M  V30 7949 H 739.501 -0.823291 -7.68402 0
M  V30 7950 H 737.846 -0.733497 -6.91119 0
M  V30 7951 H 741.037 -0.204663 -4.67652 0
M  V30 7952 H 741.21 -0.535518 -6.45783 0
M  V30 7953 N 734.616 1.57351 0.0885366 0
M  V30 7954 C 735.579 2.01557 1.09121 0
M  V30 7955 C 736.579 0.910052 1.3257 0
M  V30 7956 O 737.769 1.17537 1.28572 0
M  V30 7957 C 734.901 2.38189 2.43883 0
M  V30 7958 H 736.094 2.91361 0.710562 0
M  V30 7959 H 733.647 1.52694 0.333779 0
M  V30 7960 H 734.382 1.5136 2.86811 0
M  V30 7961 H 734.167 3.18846 2.28209 0
M  V30 7962 H 735.657 2.73025 3.15986 0
M  V30 7963 N 736.094 -0.359525 1.53444 0
M  V30 7964 C 737.342 -1.09935 1.69584 0
M  V30 7965 C 737.663 -1.89656 0.453371 0
M  V30 7966 O 736.933 -1.8852 -0.53263 0
M  V30 7967 H 735.513 -0.408843 0.625185 0
M  V30 7968 H 738.175 -0.40467 1.90653 0
M  V30 7969 H 737.271 -1.78575 2.55964 0
M  V30 7970 N 737.572 -1.44907 -0.619662 0
M  V30 7971 C 738.818 -1.49504 -1.37914 0
M  V30 7972 C 739.173 -0.130158 -1.91959 0
M  V30 7973 O 738.466 0.856263 -1.71402 0
M  V30 7974 C 738.66 -2.50002 -2.55409 0
M  V30 7975 C 738.489 -3.96128 -2.12867 0
M  V30 7976 C 737.259 -4.64204 -1.99606 0
M  V30 7977 C 739.457 -4.85014 -1.71074 0
M  V30 7978 N 737.439 -5.95104 -1.50748 0
M  V30 7979 C 738.81 -6.05447 -1.33544 0
M  V30 7980 C 740.865 -4.71979 -1.58557 0
M  V30 7981 C 739.568 -7.1429 -0.847484 0
M  V30 7982 C 741.594 -5.80858 -1.11165 0
M  V30 7983 C 740.956 -7.00439 -0.745932 0
M  V30 7984 H 737.055 -0.60207 -0.499034 0
M  V30 7985 H 739.639 -1.81305 -0.70968 0
M  V30 7986 H 737.81 -2.20172 -3.19967 0
M  V30 7987 H 739.542 -2.44823 -3.22248 0
M  V30 7988 H 736.297 -4.19182 -2.20417 0
M  V30 7989 H 736.721 -6.64676 -1.28585 0
M  V30 7990 H 741.363 -3.79953 -1.85461 0
M  V30 7991 H 739.081 -8.06116 -0.565974 0
M  V30 7992 H 742.667 -5.72803 -1.01923 0
M  V30 7993 H 741.547 -7.83255 -0.384848 0
M  V30 7994 N 739.05 0.861098 -1.31996 0
M  V30 7995 C 739.982 1.97551 -1.16216 0
M  V30 7996 C 740.995 1.625 -0.0988527 0
M  V30 7997 O 742.184 1.75091 -0.3472 0
M  V30 7998 C 739.284 3.30376 -0.755307 0
M  V30 7999 C 738.457 3.93711 -1.90552 0
M  V30 8000 C 737.516 5.04862 -1.48328 0
M  V30 8001 O 736.542 5.25204 -2.19431 0
M  V30 8002 N 737.744 5.79283 -0.375656 0
M  V30 8003 H 740.509 2.11632 -2.12208 0
M  V30 8004 H 738.07 1.03559 -1.24448 0
M  V30 8005 H 740.062 4.0213 -0.455364 0
M  V30 8006 H 738.632 3.12395 0.113269 0
M  V30 8007 H 737.852 3.14825 -2.37231 0
M  V30 8008 H 739.14 4.32762 -2.67571 0
M  V30 8009 H 738.538 5.65286 0.216284 0
M  V30 8010 H 737.095 6.5166 -0.135289 0
M  V30 8011 N 740.528 1.15101 1.07655 0
M  V30 8012 C 741.776 0.922149 1.79836 0
M  V30 8013 C 742.097 -0.552346 1.87014 0
M  V30 8014 O 741.367 -1.40145 1.3688 0
M  V30 8015 H 739.947 0.338182 0.666064 0
M  V30 8016 H 742.609 1.45107 1.30115 0
M  V30 8017 H 741.705 1.32883 2.82398 0
M  V30 8018 N 742.006 -1.2595 0.947325 0
M  V30 8019 C 742.936 -2.28521 0.479604 0
M  V30 8020 C 743.917 -1.63469 -0.470293 0
M  V30 8021 O 745.102 -1.90627 -0.370824 0
M  V30 8022 C 742.232 -3.46397 -0.250289 0
M  V30 8023 C 741.186 -4.23578 0.613643 0
M  V30 8024 C 740.512 -5.34131 -0.246568 0
M  V30 8025 C 741.812 -4.86979 1.88809 0
M  V30 8026 H 743.506 -2.67895 1.33688 0
M  V30 8027 H 741.052 -1.28783 0.644274 0
M  V30 8028 H 743.005 -4.17269 -0.588576 0
M  V30 8029 H 741.729 -3.05993 -1.14175 0
M  V30 8030 H 740.388 -3.54478 0.93491 0
M  V30 8031 H 740.036 -4.89968 -1.13756 0
M  V30 8032 H 739.736 -5.86683 0.328123 0
M  V30 8033 H 741.26 -6.07839 -0.579986 0
M  V30 8034 H 742.674 -5.50034 1.61666 0
M  V30 8035 H 741.071 -5.49675 2.40784 0
M  V30 8036 H 742.141 -4.09575 2.5957 0
M  V30 8037 N 743.484 -0.715051 -1.40445 0
M  V30 8038 C 744.724 -0.258742 -2.02756 0
M  V30 8039 C 745.088 1.12661 -1.55472 0
M  V30 8040 O 746.289 1.67988 -2.09842 0
M  V30 8041 C 744.56 -0.335201 -3.55825 0
M  V30 8042 S 746.119 0.044201 -4.38778 0
M  V30 8043 H 742.937 -0.102683 -0.703546 0
M  V30 8044 H 745.539 -0.937151 -1.71574 0
M  V30 8045 H 744.243 -1.34511 -3.87731 0
M  V30 8046 H 743.774 0.361705 -3.91734 0
M  V30 8047 H 745.789 1.26639 -4.79768 0
M  V30 8048 N 744.962 1.50701 -0.461195 0
M  V30 8049 C 746.239 1.94958 0.158296 0
M  V30 8050 C 746.619 1.40111 1.57899 0
M  V30 8051 O 745.967 0.597976 2.20537 0
M  V30 8052 C 746.177 3.48821 0.11172 0
M  V30 8053 C 747.525 4.23499 0.30552 0
M  V30 8054 O 748.549 3.557 0.188758 0
M  V30 8055 O 747.408 5.43823 0.540244 0
M  V30 8056 H 744.502 0.818674 0.117054 0
M  V30 8057 H 747.048 1.61508 -0.520888 0
M  V30 8058 H 745.82 3.81263 -0.880577 0
M  V30 8059 H 745.443 3.88781 0.832791 0
M  V30 8060 N 746.441 0.193421 1.56409 0
M  V30 8061 C 747.857 -0.162447 1.58771 0
M  V30 8062 C 748.057 -1.6116 1.20954 0
M  V30 8063 O 747.113 -2.3469 0.931497 0
M  V30 8064 C 748.426 0.138391 3.00381 0
M  V30 8065 C 749.974 0.0783649 3.12902 0
M  V30 8066 C 750.449 0.352491 4.56642 0
M  V30 8067 N 751.94 0.30105 4.62221 0
M  V30 8068 C 752.675 0.487028 5.71328 0
M  V30 8069 N 752.171 0.733265 6.88909 0
M  V30 8070 N 753.964 0.4214 5.60518 0
M  V30 8071 H 746.115 1.13909 1.79272 0
M  V30 8072 H 748.378 0.454528 0.83193 0
M  V30 8073 H 748.084 1.14312 3.32604 0
M  V30 8074 H 747.958 -0.559804 3.73023 0
M  V30 8075 H 750.345 -0.916963 2.80492 0
M  V30 8076 H 750.426 0.809611 2.4265 0
M  V30 8077 H 750.07 1.34513 4.89764 0
M  V30 8078 H 750 -0.399624 5.25081 0
M  V30 8079 H 752.491 0.117279 3.77718 0
M  V30 8080 H 752.804 0.86403 7.67955 0
M  V30 8081 H 751.149 0.770138 6.9072 0
M  V30 8082 H 754.34 0.229461 4.67537 0
M  V30 8083 H 754.513 0.569758 6.4549 0
M  V30 8084 O 747.958 -1.61402 0.0562482 0
M  V30 8085 H 748.649 -1.85658 -0.552338 0
M  V30 END ATOM
M  V30 BEGIN BOND
M  V30 END BOND
M  V30 END CTAB
M  END
$$$$
