drugbank_target|P27815 cAMP-specific 3',5'-cyclic phosphodiesterase 4A (DB00277; DB00651; DB00824; DB00975; DB01088; DB01303; DB01656; DB01791; DB05219; DB05266; DB06479; DB06751; DB06842; DB08299; DB08811)
 OpenBabel12092119483D

  0  0  0     0  0            999 V3000
M  V30 BEGIN CTAB
M  V30 COUNTS 13579 13734 0 0 0
M  V30 BEGIN ATOM
M  V30 1 H -0.908 1.98254 -0.117106 0
M  V30 2 N 0 1.576 0 0
M  V30 3 C 0.933 2.03868 1.02534 0
M  V30 4 C 1.911 0.928543 1.3348 0
M  V30 5 O 3.095 1.19667 1.45644 0
M  V30 6 C 0.222 2.43627 2.35294 0
M  V30 7 C -0.732 3.65373 2.2001 0
M  V30 8 S 0.101 5.13292 1.52614 0
M  V30 9 C 1.257 5.56322 2.86805 0
M  V30 10 H 1.49 2.90518 0.631377 0
M  V30 11 H -0.977 1.52953 0.210867 0
M  V30 12 H 0.981 2.67203 3.11629 0
M  V30 13 H -0.358 1.57376 2.7183 0
M  V30 14 H -1.165 3.90944 3.18086 0
M  V30 15 H -1.563 3.418 1.51819 0
M  V30 16 H 0.729 5.58782 3.83104 0
M  V30 17 H 1.672 6.56266 2.65933 0
M  V30 18 H 2.08 4.83886 2.90714 0
M  V30 19 N 1.4781 -0.272755 1.55222 0
M  V30 20 C 2.3881 -1.35918 1.91216 0
M  V30 21 C 3.4041 -1.54026 0.809436 0
M  V30 22 O 4.5801 -1.68148 1.10852 0
M  V30 23 C 1.6451 -2.69834 2.17693 0
M  V30 24 C 0.7061 -2.6047 3.41253 0
M  V30 25 C -0.0609 -3.88 3.66458 0
M  V30 26 O 0.1621 -4.88693 2.94169 0
M  V30 27 O -0.9039 -3.88189 4.59992 0
M  V30 28 H 2.9221 -1.0839 2.83699 0
M  V30 29 H 0.5071 -0.471301 1.41771 0
M  V30 30 H 2.3891 -3.49017 2.36147 0
M  V30 31 H 1.0641 -2.97148 1.28392 0
M  V30 32 H -0.0289 -1.79663 3.28134 0
M  V30 33 H 1.3041 -2.38106 4.30774 0
M  V30 34 N 2.9562 -1.48159 -0.537278 0
M  V30 35 C 4.3672 -1.49429 -1.11928 0
M  V30 36 C 4.7182 -0.26 -1.9447 0
M  V30 37 O 3.8432 0.633489 -2.0692 0
M  V30 38 C 4.4382 -2.70758 -2.03656 0
M  V30 39 C 2.9972 -2.74923 -2.57088 0
M  V30 40 C 2.1442 -2.42835 -1.3389 0
M  V30 41 H 5.0952 -1.55381 -0.322886 0
M  V30 42 H 5.1162 -2.48861 -2.87834 0
M  V30 43 H 4.6282 -3.60575 -1.43553 0
M  V30 44 H 2.7292 -1.89296 -3.20933 0
M  V30 45 H 2.8422 -3.76157 -2.9672 0
M  V30 46 H 1.2062 -1.93836 -1.65226 0
M  V30 47 H 1.9892 -3.34884 -0.755504 0
M  V30 48 N 4.4343 0.785586 -1.36625 0
M  V30 49 C 5.8453 1.36101 -1.27803 0
M  V30 50 C 6.1963 1.96035 0.0804875 0
M  V30 51 O 5.3213 1.92834 0.982042 0
M  V30 52 C 5.9163 2.47442 -2.31426 0
M  V30 53 C 4.4753 3.00789 -2.26281 0
M  V30 54 C 3.6223 1.73896 -2.15999 0
M  V30 55 H 6.5733 0.586928 -1.47448 0
M  V30 56 H 6.5943 3.2656 -1.95291 0
M  V30 57 H 6.1063 2.03791 -3.30289 0
M  V30 58 H 4.2073 3.48851 -1.30896 0
M  V30 59 H 4.3203 3.57343 -3.19128 0
M  V30 60 H 2.6843 1.9628 -1.62316 0
M  V30 61 H 3.4673 1.32368 -3.16755 0
M  V30 62 N 5.9124 1.20967 1.01018 0
M  V30 63 C 7.1404 1.04956 1.78303 0
M  V30 64 C 7.5554 -0.400915 1.84494 0
M  V30 65 O 6.9124 -1.27826 1.30257 0
M  V30 66 C 6.9634 1.63403 3.22462 0
M  V30 67 O 6.6844 3.02775 3.16637 0
M  V30 68 C 8.1854 1.52432 4.16268 0
M  V30 69 H 5.4054 0.368858 0.560522 0
M  V30 70 H 7.9494 1.60193 1.27116 0
M  V30 71 H 6.1044 1.1227 3.70775 0
M  V30 72 H 6.5184 3.30626 4.07169 0
M  V30 73 H 7.9924 1.98078 5.15237 0
M  V30 74 H 8.4694 0.477875 4.36592 0
M  V30 75 H 9.0754 2.02787 3.73841 0
M  V30 76 N 7.3905 -1.2043 1.01659 0
M  V30 77 C 8.6365 -1.90079 0.706963 0
M  V30 78 C 8.9695 -1.78648 -0.761474 0
M  V30 79 O 8.2445 -1.17069 -1.55323 0
M  V30 80 C 8.5275 -3.41469 1.14327 0
M  V30 81 C 8.3805 -3.61833 2.67201 0
M  V30 82 C 9.6995 -4.34261 0.714529 0
M  V30 83 H 6.8185 -0.690254 0.2583 0
M  V30 84 H 9.4605 -1.41826 1.26433 0
M  V30 85 H 7.6105 -3.82696 0.669056 0
M  V30 86 H 9.2825 -3.2986 3.22475 0
M  V30 87 H 7.5255 -3.05304 3.08175 0
M  V30 88 H 8.1965 -4.67955 2.92783 0
M  V30 89 H 10.6725 -4.00682 1.12221 0
M  V30 90 H 9.5485 -5.38806 1.04784 0
M  V30 91 H 9.8095 -4.40431 -0.383799 0
M  V30 92 N 8.8686 -0.792821 -1.36206 0
M  V30 93 C 10.2796 -0.429513 -1.81692 0
M  V30 94 C 10.6306 1.04695 -1.65932 0
M  V30 95 O 9.7556 1.81256 -1.18218 0
M  V30 96 C 10.3506 -0.772831 -3.29868 0
M  V30 97 C 8.9096 -0.462307 -3.7355 0
M  V30 98 C 8.0566 -1.00569 -2.5842 0
M  V30 99 H 11.0076 -0.985672 -1.24379 0
M  V30 100 H 11.0286 -0.0651928 -3.80444 0
M  V30 101 H 10.5406 -1.84747 -3.41307 0
M  V30 102 H 8.6416 0.604158 -3.67669 0
M  V30 103 H 8.7546 -0.985299 -4.68859 0
M  V30 104 H 7.1186 -0.428734 -2.51066 0
M  V30 105 H 7.9016 -2.08616 -2.72643 0
M  V30 106 N 10.3467 1.47872 -0.545128 0
M  V30 107 C 11.5717 2.07391 -0.0190611 0
M  V30 108 C 11.9967 1.39688 1.25971 0
M  V30 109 O 11.3547 0.467816 1.7516 0
M  V30 110 C 11.4027 3.60188 0.172335 0
M  V30 111 O 10.5067 3.9339 1.23766 0
M  V30 112 H 9.8477 0.662411 -0.0459059 0
M  V30 113 H 12.3777 1.90066 -0.757365 0
M  V30 114 H 12.3877 4.06129 0.390305 0
M  V30 115 H 11.0627 4.08865 -0.761725 0
M  V30 116 H 9.6397 3.5921 1.00114 0
M  V30 117 N 11.8248 0.280983 1.55075 0
M  V30 118 C 12.7348 -0.61388 2.26426 0
M  V30 119 C 13.7508 -1.16521 1.29224 0
M  V30 120 O 14.9268 -1.19426 1.62171 0
M  V30 121 C 11.9918 -1.7788 2.9759 0
M  V30 122 C 11.0528 -1.26355 4.10284 0
M  V30 123 C 10.2858 -2.37295 4.78045 0
M  V30 124 O 10.5088 -3.56777 4.45047 0
M  V30 125 O 9.4428 -2.05119 5.65871 0
M  V30 126 H 13.2688 -0.0356932 3.03679 0
M  V30 127 H 10.8538 0.0481686 1.49322 0
M  V30 128 H 12.7358 -2.45791 3.42293 0
M  V30 129 H 11.4108 -2.34397 2.23249 0
M  V30 130 H 10.3178 -0.550735 3.70024 0
M  V30 131 H 11.6508 -0.744065 4.86543 0
M  V30 132 N 13.3029 -1.57598 0.00835791 0
M  V30 133 C 14.7189 -1.55764 -0.347822 0
M  V30 134 C 14.9189 -1.01186 -1.74252 0
M  V30 135 O 13.9749 -0.649371 -2.44007 0
M  V30 136 C 15.2879 -2.99927 -0.215407 0
M  V30 137 C 16.8359 -3.11656 -0.289725 0
M  V30 138 C 17.3109 -4.57621 -0.18634 0
M  V30 139 N 18.8019 -4.62557 -0.243978 0
M  V30 140 C 19.5369 -5.73094 -0.18745 0
M  V30 141 N 19.0329 -6.92753 -0.0810331 0
M  V30 142 N 20.8259 -5.61588 -0.239925 0
M  V30 143 H 12.9769 -1.91411 0.92062 0
M  V30 144 H 15.2399 -0.879562 0.353659 0
M  V30 145 H 14.9459 -3.43729 0.744512 0
M  V30 146 H 14.8199 -3.63865 -0.994097 0
M  V30 147 H 17.2069 -2.67779 -1.24009 0
M  V30 148 H 17.2879 -2.5048 0.51898 0
M  V30 149 H 16.9319 -5.02174 0.760519 0
M  V30 150 H 16.8619 -5.16752 -1.01364 0
M  V30 151 H 19.3529 -3.76481 -0.327217 0
M  V30 152 H 19.6659 -7.72787 -0.0440241 0
M  V30 153 H 18.0109 -6.94984 -0.0465419 0
M  V30 154 H 21.2019 -4.66996 -0.321317 0
M  V30 155 H 21.3749 -6.47714 -0.192407 0
M  V30 156 N 14.781 0.264519 -1.55364 0
M  V30 157 C 16.006 1.01726 -1.80739 0
M  V30 158 C 16.431 1.78836 -0.583044 0
M  V30 159 O 15.789 1.75167 0.467566 0
M  V30 160 C 15.837 1.94482 -3.03659 0
M  V30 161 O 14.941 3.03386 -2.7934 0
M  V30 162 H 14.282 0.290395 -0.597132 0
M  V30 163 H 16.812 0.290854 -2.02522 0
M  V30 164 H 16.822 2.36278 -3.32621 0
M  V30 165 H 15.497 1.37772 -3.92418 0
M  V30 166 H 14.074 2.65844 -2.61498 0
M  V30 167 N 16.2591 1.48442 0.529413 0
M  V30 168 C 17.1891 1.65902 1.64313 0
M  V30 169 C 18.1701 0.507897 1.6234 0
M  V30 170 O 19.3551 0.740503 1.79528 0
M  V30 171 C 16.4851 1.69911 3.02898 0
M  V30 172 C 15.4391 2.8453 3.19729 0
M  V30 173 C 14.7651 2.73629 4.59381 0
M  V30 174 C 16.0651 4.25821 3.02447 0
M  V30 175 H 17.7591 2.5914 1.49955 0
M  V30 176 H 15.3051 1.24709 0.719982 0
M  V30 177 H 17.2581 1.80715 3.80684 0
M  V30 178 H 15.9821 0.732524 3.18279 0
M  V30 179 H 14.6411 2.73283 2.44361 0
M  V30 180 H 14.2891 1.74938 4.71599 0
M  V30 181 H 13.9891 3.50541 4.71588 0
M  V30 182 H 15.5131 2.86401 5.39265 0
M  V30 183 H 16.9271 4.37898 3.70024 0
M  V30 184 H 15.3241 5.03735 3.26146 0
M  V30 185 H 16.3941 4.42244 1.98867 0
M  V30 186 N 17.7372 -0.778329 1.37039 0
M  V30 187 C 18.9622 -1.57248 1.35233 0
M  V30 188 C 19.3872 -1.87999 -0.0615568 0
M  V30 189 O 18.7452 -1.48734 -1.03672 0
M  V30 190 C 18.7932 -2.86353 2.19167 0
M  V30 191 O 17.8972 -3.80442 1.59178 0
M  V30 192 H 17.2382 -0.476569 0.462362 0
M  V30 193 H 19.7682 -0.963853 1.80474 0
M  V30 194 H 19.7782 -3.35519 2.32145 0
M  V30 195 H 18.4532 -2.63299 3.21942 0
M  V30 196 H 17.0302 -3.39067 1.55203 0
M  V30 197 N 19.2153 -1.21501 -1.00376 0
M  V30 198 C 20.1453 -0.999478 -2.11028 0
M  V30 199 C 21.1263 0.0759671 -1.6993 0
M  V30 200 O 22.3113 -0.0841106 -1.94018 0
M  V30 201 C 19.4413 -0.564709 -3.42678 0
M  V30 202 C 18.3953 -1.58486 -3.97576 0
M  V30 203 C 17.7213 -1.00628 -5.25146 0
M  V30 204 C 19.0213 -2.97204 -4.29496 0
M  V30 205 H 20.7153 -1.92495 -2.29317 0
M  V30 206 H 18.2613 -0.92693 -1.102 0
M  V30 207 H 20.2143 -0.401091 -4.19487 0
M  V30 208 H 18.9383 0.396411 -3.24185 0
M  V30 209 H 17.5973 -1.73606 -3.22888 0
M  V30 210 H 17.2453 -0.0368439 -5.02987 0
M  V30 211 H 16.9453 -1.68771 -5.62841 0
M  V30 212 H 18.4693 -0.854015 -6.04598 0
M  V30 213 H 19.8833 -2.8552 -4.97143 0
M  V30 214 H 18.2803 -3.62372 -4.78338 0
M  V30 215 H 19.3503 -3.47956 -3.3772 0
M  V30 216 N 20.6934 1.19889 -1.02296 0
M  V30 217 C 21.9184 1.9393 -0.735237 0
M  V30 218 C 22.3434 1.74639 0.698782 0
M  V30 219 O 21.7014 1.04481 1.48167 0
M  V30 220 C 21.7494 3.43916 -1.08417 0
M  V30 221 O 20.8534 4.11917 -0.199446 0
M  V30 222 H 20.1944 0.605645 -0.272196 0
M  V30 223 H 22.7244 1.52137 -1.36804 0
M  V30 224 H 22.7344 3.9456 -1.03856 0
M  V30 225 H 21.4094 3.5728 -2.12894 0
M  V30 226 H 19.9864 3.71666 -0.303136 0
M  V30 227 N 22.1715 0.800033 1.35784 0
M  V30 228 C 23.1015 0.220184 2.3246 0
M  V30 229 C 24.0825 -0.65073 1.57161 0
M  V30 230 O 25.2675 -0.582359 1.85263 0
M  V30 231 C 22.3975 -0.637353 3.41402 0
M  V30 232 C 21.3515 0.134531 4.27789 0
M  V30 233 C 20.6775 -0.844285 5.27992 0
M  V30 234 C 21.9775 1.32979 5.05088 0
M  V30 235 H 23.6715 1.02787 2.81203 0
M  V30 236 H 21.2175 0.495717 1.35199 0
M  V30 237 H 23.1705 -1.05302 4.08031 0
M  V30 238 H 21.8945 -1.47785 2.91251 0
M  V30 239 H 20.5535 0.531296 3.6273 0
M  V30 240 H 20.2015 -1.68011 4.74111 0
M  V30 241 H 19.9015 -0.332184 5.8666 0
M  V30 242 H 21.4255 -1.2583 5.97494 0
M  V30 243 H 22.8395 0.98934 5.64699 0
M  V30 244 H 21.2365 1.77593 5.7322 0
M  V30 245 H 22.3065 2.11978 4.36111 0
M  V30 246 N 23.6496 -1.47581 0.552962 0
M  V30 247 C 25.0606 -1.86324 0.118463 0
M  V30 248 C 25.4116 -1.46006 -1.3106 0
M  V30 249 O 24.5366 -0.861182 -1.98526 0
M  V30 250 C 25.1316 -3.3816 0.20821 0
M  V30 251 C 23.6906 -3.7601 -0.171226 0
M  V30 252 C 22.8376 -2.71634 0.557686 0
M  V30 253 H 25.7886 -1.39159 0.762928 0
M  V30 254 H 25.8096 -3.76141 -0.574278 0
M  V30 255 H 25.3216 -3.67473 1.24841 0
M  V30 256 H 23.4226 -3.52313 -1.21269 0
M  V30 257 H 23.5356 -4.78745 0.184379 0
M  V30 258 H 21.8996 -2.547 0.00125792 0
M  V30 259 H 22.6826 -3.0379 1.59896 0
M  V30 260 N 25.1277 -0.289203 -1.54924 0
M  V30 261 C 26.3757 0.322879 -1.99504 0
M  V30 262 C 26.6967 1.55313 -1.1791 0
M  V30 263 O 25.9667 1.94001 -0.272097 0
M  V30 264 H 24.5467 0.122291 -0.736922 0
M  V30 265 H 27.2087 -0.397802 -1.90797 0
M  V30 266 H 26.3047 0.603061 -3.06218 0
M  V30 267 N 26.6058 1.57591 -0.0167156 0
M  V30 268 C 28.0168 1.79201 0.523834 0
M  V30 269 C 28.3678 0.925796 1.72984 0
M  V30 270 O 27.4928 0.132792 2.15992 0
M  V30 271 C 28.0878 3.25 0.957091 0
M  V30 272 C 26.6468 3.47648 1.44283 0
M  V30 273 C 25.7938 2.74374 0.401757 0
M  V30 274 H 28.7448 1.56831 -0.242816 0
M  V30 275 H 28.7658 3.34031 1.82219 0
M  V30 276 H 28.2778 3.88019 0.0791415 0
M  V30 277 H 26.3788 2.89866 2.34113 0
M  V30 278 H 26.4918 4.56352 1.45877 0
M  V30 279 H 24.8558 2.39485 0.867121 0
M  V30 280 H 25.6388 3.40102 -0.467513 0
M  V30 281 N 28.0839 -0.256276 1.55502 0
M  V30 282 C 29.4999 -0.604325 1.47716 0
M  V30 283 C 29.6999 -1.88763 0.705039 0
M  V30 284 O 28.7559 -2.51445 0.230613 0
M  V30 285 C 30.0689 -0.715756 2.92057 0
M  V30 286 C 31.6169 -0.808706 3.02372 0
M  V30 287 C 32.0919 -0.951777 4.48001 0
M  V30 288 N 33.5829 -1.01688 4.519 0
M  V30 289 C 34.3179 -1.14668 5.61817 0
M  V30 290 N 33.8139 -1.24261 6.81565 0
M  V30 291 N 35.6069 -1.1791 5.49594 0
M  V30 292 H 27.7579 0.586291 2.04148 0
M  V30 293 H 30.0209 0.201015 0.926443 0
M  V30 294 H 29.7269 0.157027 3.51349 0
M  V30 295 H 29.6009 -1.59071 3.42018 0
M  V30 296 H 31.9879 -1.67195 2.43166 0
M  V30 297 H 32.0689 0.0912063 2.55637 0
M  V30 298 H 31.7129 -0.0931291 5.07815 0
M  V30 299 H 31.6429 -1.86659 4.92408 0
M  V30 300 H 34.1339 -0.954468 3.65648 0
M  V30 301 H 34.4469 -1.34046 7.61086 0
M  V30 302 H 32.7919 -1.21236 6.84344 0
M  V30 303 H 35.9829 -1.10057 4.54978 0
M  V30 304 H 36.1559 -1.27681 6.35296 0
M  V30 305 N 29.562 -1.4872 -0.521534 0
M  V30 306 C 30.472 -1.66569 -1.65203 0
M  V30 307 C 31.488 -0.548197 -1.65139 0
M  V30 308 O 32.664 -0.820339 -1.83936 0
M  V30 309 C 29.729 -1.70917 -3.01642 0
M  V30 310 C 28.79 -2.94356 -3.12495 0
M  V30 311 C 28.023 -2.98487 -4.42426 0
M  V30 312 O 28.246 -2.10786 -5.30024 0
M  V30 313 O 27.18 -3.90746 -4.57822 0
M  V30 314 H 31.006 -2.62298 -1.5308 0
M  V30 315 H 28.591 -1.3222 -0.695565 0
M  V30 316 H 30.473 -1.7625 -3.82771 0
M  V30 317 H 29.148 -0.783633 -3.14071 0
M  V30 318 H 28.055 -2.94552 -2.3063 0
M  V30 319 H 29.388 -3.86322 -3.04986 0
M  V30 320 N 31.0401 0.771051 -1.3745 0
M  V30 321 C 32.2881 1.52661 -1.32435 0
M  V30 322 C 32.6091 1.9479 0.0905024 0
M  V30 323 O 31.8791 1.66348 1.03466 0
M  V30 324 H 30.4591 0.566218 -0.487244 0
M  V30 325 H 33.1211 0.917636 -1.71946 0
M  V30 326 H 32.2171 2.42568 -1.96385 0
M  V30 327 N 32.5182 1.22032 0.997298 0
M  V30 328 C 33.4502 0.944263 2.08845 0
M  V30 329 C 34.4632 -0.0754663 1.62625 0
M  V30 330 O 35.6522 0.157994 1.77799 0
M  V30 331 C 32.7522 0.397723 3.36558 0
M  V30 332 C 31.9252 1.47362 4.11829 0
M  V30 333 C 30.9842 0.934951 5.17827 0
M  V30 334 O 30.0102 1.62016 5.45655 0
M  V30 335 N 31.2122 -0.245895 5.79979 0
M  V30 336 H 33.9772 1.88363 2.33109 0
M  V30 337 H 31.5382 1.12661 1.16272 0
M  V30 338 H 33.5302 0.0227771 4.04694 0
M  V30 339 H 32.1002 -0.446646 3.09393 0
M  V30 340 H 31.3202 2.02208 3.38386 0
M  V30 341 H 32.6082 2.19764 4.58891 0
M  V30 342 H 32.0062 -0.819475 5.59733 0
M  V30 343 H 30.5632 -0.562272 6.4937 0
M  V30 344 N 33.9963 -1.19345 1.0293 0
M  V30 345 C 34.9593 -2.20793 0.615069 0
M  V30 346 C 35.9593 -1.57553 -0.321533 0
M  V30 347 O 37.1493 -1.73862 -0.108483 0
M  V30 348 C 34.2813 -3.40754 -0.0999222 0
M  V30 349 H 35.4743 -2.58955 1.51269 0
M  V30 350 H 33.0273 -1.3303 0.820534 0
M  V30 351 H 33.7623 -3.0811 -1.01187 0
M  V30 352 H 33.5473 -3.87889 0.57309 0
M  V30 353 H 35.0373 -4.15898 -0.376645 0
M  V30 354 N 35.4744 -0.807222 -1.35358 0
M  V30 355 C 36.7024 -0.400377 -2.02989 0
M  V30 356 C 37.1174 0.988859 -1.60832 0
M  V30 357 O 36.4744 1.63729 -0.806175 0
M  V30 358 C 36.5254 -0.474867 -3.58368 0
M  V30 359 O 36.2464 -1.80933 -3.98992 0
M  V30 360 C 37.7474 -0.0609112 -4.43258 0
M  V30 361 H 34.9674 -0.162587 -0.651004 0
M  V30 362 H 37.5114 -1.09102 -1.72965 0
M  V30 363 H 35.6664 0.167534 -3.87038 0
M  V30 364 H 36.0804 -1.77256 -4.9364 0
M  V30 365 H 37.5544 -0.164145 -5.51756 0
M  V30 366 H 38.0314 0.993831 -4.27808 0
M  V30 367 H 38.6374 -0.676492 -4.19885 0
M  V30 368 N 36.9525 1.47285 -0.560781 0
M  V30 369 C 37.8825 2.32857 0.173105 0
M  V30 370 C 38.8635 1.44009 0.905281 0
M  V30 371 O 40.0485 1.7286 0.885046 0
M  V30 372 C 37.1785 3.25861 1.20133 0
M  V30 373 C 36.1325 4.23978 0.585388 0
M  V30 374 C 35.4585 5.06332 1.7185 0
M  V30 375 C 36.7585 5.20242 -0.463178 0
M  V30 376 H 38.4525 2.94466 -0.541307 0
M  V30 377 H 35.9985 1.41601 -0.261764 0
M  V30 378 H 37.9515 3.84569 1.72293 0
M  V30 379 H 36.6755 2.62315 1.94573 0
M  V30 380 H 35.3345 3.66501 0.085054 0
M  V30 381 H 34.9825 4.39186 2.45203 0
M  V30 382 H 34.6825 5.72762 1.31213 0
M  V30 383 H 36.2065 5.67899 2.24329 0
M  V30 384 H 37.6205 5.73293 -0.027502 0
M  V30 385 H 36.0175 5.94896 -0.788627 0
M  V30 386 H 37.0875 4.65504 -1.35773 0
M  V30 387 N 38.4306 0.297415 1.54768 0
M  V30 388 C 39.3776 -0.580276 2.23386 0
M  V30 389 C 40.3476 -1.13238 1.21517 0
M  V30 390 O 41.5326 -1.17757 1.50126 0
M  V30 391 C 38.6726 -1.74801 2.97555 0
M  V30 392 C 37.7856 -1.22764 4.1419 0
M  V30 393 C 36.9206 -2.35895 4.75949 0
M  V30 394 C 35.9596 -1.80974 5.84735 0
M  V30 395 N 35.0966 -2.87664 6.40464 0
M  V30 396 H 39.9366 0.0114833 2.97998 0
M  V30 397 H 37.4736 0.0174361 1.4709 0
M  V30 398 H 39.4316 -2.43475 3.38786 0
M  V30 399 H 38.0616 -2.31145 2.25326 0
M  V30 400 H 37.1136 -0.433271 3.77924 0
M  V30 401 H 38.4256 -0.785551 4.92575 0
M  V30 402 H 37.5796 -3.12523 5.20014 0
M  V30 403 H 36.3186 -2.83429 3.96887 0
M  V30 404 H 35.3236 -1.02834 5.40097 0
M  V30 405 H 36.5486 -1.34348 6.65678 0
M  V30 406 H 34.4946 -3.34538 5.64287 0
M  V30 407 H 34.4116 -2.4794 7.14186 0
M  V30 408 H 35.6796 -3.642 6.89187 0
M  V30 409 N 39.9087 -1.5758 0.0250728 0
M  V30 410 C 41.3197 -1.79476 -0.514323 0
M  V30 411 C 41.6707 -0.934956 -1.72491 0
M  V30 412 O 40.7957 -0.144245 -2.15919 0
M  V30 413 C 41.3907 -3.25503 -0.939842 0
M  V30 414 C 39.9497 -3.48408 -1.42438 0
M  V30 415 C 39.0967 -2.74583 -0.387201 0
M  V30 416 H 42.0477 -1.567 0.25113 0
M  V30 417 H 42.0687 -3.34992 -1.80445 0
M  V30 418 H 41.5807 -3.88056 -0.0585628 0
M  V30 419 H 39.6817 -2.91103 -2.32572 0
M  V30 420 H 39.7947 -4.57119 -1.43455 0
M  V30 421 H 38.1587 -2.39942 -0.854409 0
M  V30 422 H 38.9417 -3.39849 0.485543 0
M  V30 423 N 41.3868 0.248026 -1.55636 0
M  V30 424 C 42.7978 0.817177 -1.67866 0
M  V30 425 C 43.1488 1.86069 -0.622322 0
M  V30 426 O 42.2738 2.15157 0.231618 0
M  V30 427 C 42.8688 1.489 -3.04326 0
M  V30 428 C 41.4278 2.00587 -3.185 0
M  V30 429 C 40.5748 0.856573 -2.63739 0
M  V30 430 H 43.5258 0.0238579 -1.58682 0
M  V30 431 H 43.5468 2.35698 -2.98708 0
M  V30 432 H 43.0588 0.729279 -3.81186 0
M  V30 433 H 41.1598 2.79443 -2.4646 0
M  V30 434 H 41.2728 2.20402 -4.25393 0
M  V30 435 H 39.6368 1.25678 -2.21534 0
M  V30 436 H 40.4198 0.109953 -3.43124 0
M  V30 437 N 42.8649 1.48995 0.513639 0
M  V30 438 C 44.2759 1.5119 1.09537 0
M  V30 439 C 44.6269 0.290906 1.94031 0
M  V30 440 O 43.7519 -0.60049 2.07902 0
M  V30 441 C 44.3469 2.73964 1.99322 0
M  V30 442 C 42.9059 2.78978 2.52682 0
M  V30 443 C 42.0529 2.44934 1.30009 0
M  V30 444 H 45.0039 1.55875 0.298125 0
M  V30 445 H 45.0249 2.53409 2.83838 0
M  V30 446 H 44.5369 3.62813 1.37799 0
M  V30 447 H 42.6379 1.94378 3.1788 0
M  V30 448 H 42.7509 3.8083 2.90698 0
M  V30 449 H 41.1149 1.9644 1.62122 0
M  V30 450 H 41.8979 3.36043 0.702131 0
M  V30 451 N 44.343 -0.763751 1.37857 0
M  V30 452 C 45.275 -1.88664 1.30148 0
M  V30 453 C 46.288 -1.61365 0.215685 0
M  V30 454 O 47.477 -1.72134 0.472459 0
M  V30 455 C 44.577 -3.24075 0.991396 0
M  V30 456 C 43.75 -3.78958 2.18426 0
M  V30 457 C 42.809 -4.92862 1.8432 0
M  V30 458 O 41.835 -5.08027 2.56704 0
M  V30 459 N 43.037 -5.75071 0.792081 0
M  V30 460 H 45.802 -1.95791 2.26905 0
M  V30 461 H 43.363 -0.943226 1.31586 0
M  V30 462 H 45.355 -3.97804 0.743935 0
M  V30 463 H 43.925 -3.12399 0.112122 0
M  V30 464 H 43.145 -2.96913 2.59299 0
M  V30 465 H 44.433 -4.12357 2.98058 0
M  V30 466 H 43.831 -5.65375 0.191595 0
M  V30 467 H 42.388 -6.48991 0.60449 0
M  V30 468 N 45.8211 -1.22559 -0.990812 0
M  V30 469 C 46.7711 -0.964807 -2.0658 0
M  V30 470 C 47.7551 0.0853472 -1.60673 0
M  V30 471 O 48.9471 -0.125443 -1.76555 0
M  V30 472 C 46.0761 -0.546707 -3.38919 0
M  V30 473 C 45.1621 -1.6317 -3.91454 0
M  V30 474 N 45.5531 -2.85985 -4.17189 0
M  V30 475 C 43.8511 -1.50387 -4.19881 0
M  V30 476 C 44.5521 -3.56159 -4.59919 0
M  V30 477 N 43.5281 -2.83637 -4.63736 0
M  V30 478 H 47.3301 -1.89769 -2.24421 0
M  V30 479 H 44.8441 -1.12343 -1.17273 0
M  V30 480 H 46.8411 -0.34119 -4.15502 0
M  V30 481 H 45.5011 0.379254 -3.22478 0
M  V30 482 H 46.5121 -3.22392 -4.05319 0
M  V30 483 H 43.1891 -0.644254 -4.12499 0
M  V30 484 H 44.5791 -4.6139 -4.88435 0
M  V30 485 N 47.2992 1.18797 -1.03562 0
M  V30 486 C 48.2292 2.24472 -0.643019 0
M  V30 487 C 49.2102 1.66433 0.351283 0
M  V30 488 O 50.3952 1.92803 0.232505 0
M  V30 489 C 47.5252 3.473 4.24935e-05 0
M  V30 490 C 46.4792 4.18055 -0.917257 0
M  V30 491 C 45.8052 5.34519 -0.138941 0
M  V30 492 C 47.1052 4.72109 -2.23407 0
M  V30 493 H 48.7992 2.57566 -1.52643 0
M  V30 494 H 46.3452 1.23806 -0.735394 0
M  V30 495 H 48.2982 4.20426 0.286383 0
M  V30 496 H 47.0222 3.13424 0.918299 0
M  V30 497 H 45.6812 3.46821 -1.1879 0
M  V30 498 H 45.3292 4.96891 0.781562 0
M  V30 499 H 45.0292 5.82794 -0.750005 0
M  V30 500 H 46.5532 6.10438 0.1405 0
M  V30 501 H 47.9672 5.36955 -2.00879 0
M  V30 502 H 46.3642 5.30897 -2.79765 0
M  V30 503 H 47.4342 3.89807 -2.88407 0
M  V30 504 N 48.7773 0.814389 1.34928 0
M  V30 505 C 50.0233 0.408167 1.99263 0
M  V30 506 C 50.3783 -1.0154 1.63424 0
M  V30 507 O 49.6713 -1.69607 0.891289 0
M  V30 508 C 49.8653 0.537781 3.53331 0
M  V30 509 C 49.6943 1.9724 4.04137 0
M  V30 510 C 48.4643 2.60245 4.33129 0
M  V30 511 C 50.6623 2.93801 4.2212 0
M  V30 512 N 48.6443 3.95036 4.69914 0
M  V30 513 C 50.0153 4.1348 4.6199 0
M  V30 514 C 52.0703 2.9053 4.04348 0
M  V30 515 C 50.7733 5.3033 4.85945 0
M  V30 516 C 52.7993 4.06589 4.29464 0
M  V30 517 C 52.1613 5.25017 4.69613 0
M  V30 518 H 48.2603 0.197289 0.756704 0
M  V30 519 H 50.8443 1.05728 1.63492 0
M  V30 520 H 49.0153 -0.0813868 3.88315 0
M  V30 521 H 50.7473 0.105389 4.04563 0
M  V30 522 H 47.5023 2.11545 4.23728 0
M  V30 523 H 47.9263 4.64455 4.92555 0
M  V30 524 H 52.5683 2.00115 3.72443 0
M  V30 525 H 50.2863 6.21309 5.16721 0
M  V30 526 H 53.8723 4.05447 4.17257 0
M  V30 527 H 52.7523 6.1333 4.88667 0
M  V30 528 N 50.2554 -1.46986 0.568584 0
M  V30 529 C 51.6714 -1.57946 0.229189 0
M  V30 530 C 51.8714 -1.56567 -1.26843 0
M  V30 531 O 50.9274 -1.47511 -2.04931 0
M  V30 532 C 52.2404 -2.87963 0.865909 0
M  V30 533 C 53.7884 -3.01568 0.838188 0
M  V30 534 C 54.2634 -4.34301 1.45419 0
M  V30 535 N 55.7544 -4.40965 1.41788 0
M  V30 536 C 56.4894 -5.42256 1.86403 0
M  V30 537 N 55.9854 -6.50297 2.38926 0
M  V30 538 N 57.7784 -5.3337 1.77405 0
M  V30 539 H 49.9294 -1.46126 1.54146 0
M  V30 540 H 52.1924 -0.696156 0.643484 0
M  V30 541 H 51.8984 -2.94742 1.91886 0
M  V30 542 H 51.7724 -3.75423 0.365687 0
M  V30 543 H 54.1594 -2.94379 -0.206106 0
M  V30 544 H 54.2404 -2.1562 1.37629 0
M  V30 545 H 53.8844 -4.42247 2.49761 0
M  V30 546 H 53.8144 -5.19 0.891435 0
M  V30 547 H 56.3054 -3.63484 1.03381 0
M  V30 548 H 56.6184 -7.23777 2.70863 0
M  V30 549 H 54.9634 -6.51155 2.42944 0
M  V30 550 H 58.1544 -4.47865 1.3614 0
M  V30 551 H 58.3274 -6.12169 2.12492 0
M  V30 552 N 51.7335 -0.305618 -1.54608 0
M  V30 553 C 52.6655 0.602161 -2.21149 0
M  V30 554 C 53.6785 1.09394 -1.20569 0
M  V30 555 O 54.8675 1.0106 -1.47136 0
M  V30 556 C 51.9675 1.83692 -2.84799 0
M  V30 557 C 51.1405 1.48686 -4.11353 0
M  V30 558 C 50.1995 2.57725 -4.58764 0
M  V30 559 O 49.2255 2.22623 -5.23858 0
M  V30 560 N 50.4275 3.88346 -4.31471 0
M  V30 561 H 53.1925 0.0324966 -2.99682 0
M  V30 562 H 50.7535 -0.128021 -1.61393 0
M  V30 563 H 52.7455 2.55994 -3.13448 0
M  V30 564 H 51.3155 2.31486 -2.10078 0
M  V30 565 H 50.5355 0.596269 -3.89664 0
M  V30 566 H 51.8235 1.22842 -4.93748 0
M  V30 567 H 51.2215 4.19671 -3.79331 0
M  V30 568 H 49.7785 4.56932 -4.64818 0
M  V30 569 N 53.2116 1.57565 -0.0334293 0
M  V30 570 C 54.6226 1.79746 0.504798 0
M  V30 571 C 54.9736 0.944091 1.71992 0
M  V30 572 O 54.0986 0.155694 2.15839 0
M  V30 573 C 54.6936 3.25997 0.922567 0
M  V30 574 C 53.2526 3.49159 1.40588 0
M  V30 575 C 52.3996 2.74785 0.372633 0
M  V30 576 H 55.3506 1.56565 -0.259436 0
M  V30 577 H 55.3716 3.35945 1.78666 0
M  V30 578 H 54.8836 3.88081 0.0379825 0
M  V30 579 H 52.9846 2.92332 2.31025 0
M  V30 580 H 53.0976 4.57873 1.41028 0
M  V30 581 H 51.4616 2.40391 0.841672 0
M  V30 582 H 52.2446 3.39587 -0.503559 0
M  V30 583 N 54.6897 -0.239769 1.55765 0
M  V30 584 C 56.1057 -0.588624 1.48349 0
M  V30 585 C 56.3057 -1.88005 0.72502 0
M  V30 586 O 55.3617 -2.51186 0.257269 0
M  V30 587 C 56.6747 -0.68474 2.928 0
M  V30 588 C 58.2227 -0.77659 3.03213 0
M  V30 589 C 58.6977 -0.904207 4.48986 0
M  V30 590 N 60.1887 -0.968896 4.52953 0
M  V30 591 C 60.9237 -1.08703 5.63002 0
M  V30 592 N 60.4197 -1.17026 6.82845 0
M  V30 593 N 62.2127 -1.12074 5.50814 0
M  V30 594 H 54.3637 0.607911 2.03515 0
M  V30 595 H 56.6267 0.21083 0.924259 0
M  V30 596 H 56.3327 0.194284 3.51163 0
M  V30 597 H 56.2067 -1.55435 3.43686 0
M  V30 598 H 58.5937 -1.64606 2.44926 0
M  V30 599 H 58.6747 0.118315 2.55526 0
M  V30 600 H 58.3187 -0.0392633 5.07885 0
M  V30 601 H 58.2487 -1.81426 4.9436 0
M  V30 602 H 60.7397 -0.915633 3.6664 0
M  V30 603 H 61.0527 -1.25966 7.62465 0
M  V30 604 H 59.3977 -1.13971 6.85591 0
M  V30 605 H 62.5887 -1.05226 4.5612 0
M  V30 606 H 62.7617 -1.20936 6.36615 0
M  V30 607 N 56.1678 -1.49265 -0.50573 0
M  V30 608 C 57.3958 -1.62215 -1.28429 0
M  V30 609 C 57.8108 -0.291697 -1.86533 0
M  V30 610 O 57.1678 0.722233 -1.67601 0
M  V30 611 C 57.2188 -2.68735 -2.41793 0
M  V30 612 O 56.9398 -3.96619 -1.86078 0
M  V30 613 C 58.4408 -2.92346 -3.3324 0
M  V30 614 H 55.6608 -0.546239 -0.389697 0
M  V30 615 H 58.2048 -1.95265 -0.607609 0
M  V30 616 H 56.3598 -2.38476 -3.053 0
M  V30 617 H 56.7738 -4.55256 -2.60465 0
M  V30 618 H 58.2478 -3.70623 -4.09075 0
M  V30 619 H 58.7248 -2.02081 -3.89948 0
M  V30 620 H 59.3308 -3.24003 -2.75503 0
M  V30 621 N 57.6459 0.756429 -1.3826 0
M  V30 622 C 59.0569 1.33359 -1.30661 0
M  V30 623 C 59.4079 1.96161 0.0388875 0
M  V30 624 O 58.5329 1.94874 0.940918 0
M  V30 625 C 59.1279 2.42477 -2.36622 0
M  V30 626 C 57.6869 2.95922 -2.3261 0
M  V30 627 C 56.8339 1.69275 -2.19639 0
M  V30 628 H 59.7849 0.55552 -1.4866 0
M  V30 629 H 59.8059 3.22345 -2.02174 0
M  V30 630 H 59.3179 1.96739 -3.34538 0
M  V30 631 H 57.4189 3.45996 -1.38267 0
M  V30 632 H 57.5319 3.50494 -3.26636 0
M  V30 633 H 55.8959 1.92793 -1.66442 0
M  V30 634 H 56.6789 1.25619 -3.19491 0
M  V30 635 N 59.124 1.23083 0.984299 0
M  V30 636 C 60.373 1.05466 1.71929 0
M  V30 637 C 60.686 -0.409211 1.91272 0
M  V30 638 O 61.892 -0.705226 2.62181 0
M  V30 639 C 60.348 1.83874 3.09384 0
M  V30 640 C 59.956 3.34566 2.97943 0
M  V30 641 C 61.7 1.74734 3.8687 0
M  V30 642 C 59.607 4.05381 4.30605 0
M  V30 643 H 58.537 0.391039 0.644674 0
M  V30 644 H 61.188 1.47013 1.09815 0
M  V30 645 H 59.57 1.35131 3.72231 0
M  V30 646 H 60.744 3.90767 2.44209 0
M  V30 647 H 59.059 3.44476 2.33934 0
M  V30 648 H 61.656 2.24957 4.85076 0
M  V30 649 H 61.999 0.709372 4.10212 0
M  V30 650 H 62.532 2.21067 3.30717 0
M  V30 651 H 59.271 5.09467 4.1246 0
M  V30 652 H 58.791 3.53967 4.84218 0
M  V30 653 H 60.47 4.11458 4.99311 0
M  V30 654 N 60.6021 -1.18246 1.0419 0
M  V30 655 C 62.0181 -1.40269 0.761366 0
M  V30 656 C 62.2181 -1.90777 -0.648578 0
M  V30 657 O 61.2741 -2.0929 -1.41258 0
M  V30 658 C 62.5871 -2.40237 1.8085 0
M  V30 659 C 64.1351 -2.53961 1.82955 0
M  V30 660 C 64.6101 -3.57194 2.86664 0
M  V30 661 N 66.1011 -3.64702 2.85563 0
M  V30 662 C 66.8361 -4.44309 3.6246 0
M  V30 663 N 66.3321 -5.27514 4.49111 0
M  V30 664 N 68.1251 -4.39084 3.50944 0
M  V30 665 H 60.2761 -0.837882 1.95175 0
M  V30 666 H 62.5391 -0.430608 0.84456 0
M  V30 667 H 62.2451 -2.10176 2.81991 0
M  V30 668 H 62.1191 -3.39601 1.64168 0
M  V30 669 H 64.5061 -2.83338 0.824855 0
M  V30 670 H 64.5871 -1.54706 2.03715 0
M  V30 671 H 64.2311 -3.28558 3.87314 0
M  V30 672 H 64.1611 -4.5613 2.6316 0
M  V30 673 H 66.6521 -3.05289 2.22727 0
M  V30 674 H 66.9651 -5.85411 5.04493 0
M  V30 675 H 65.3101 -5.2693 4.53178 0
M  V30 676 H 68.5011 -3.7313 2.82651 0
M  V30 677 H 68.6741 -5.00883 4.11121 0
M  V30 678 N 62.0802 -0.821533 -1.34494 0
M  V30 679 C 63.3292 -0.405355 -1.97585 0
M  V30 680 C 63.6422 1.03677 -1.65863 0
M  V30 681 O 64.8482 1.55679 -2.22433 0
M  V30 682 C 63.3042 -0.673861 -3.53535 0
M  V30 683 C 62.9122 -2.12951 -3.94152 0
M  V30 684 C 64.6562 -0.32378 -4.23263 0
M  V30 685 C 62.5632 -2.34298 -5.43009 0
M  V30 686 H 61.4932 -0.147836 -0.739365 0
M  V30 687 H 64.1442 -1.00769 -1.53355 0
M  V30 688 H 62.5262 -0.00137554 -3.96 0
M  V30 689 H 63.7002 -2.84104 -3.62797 0
M  V30 690 H 62.0152 -2.44089 -3.37356 0
M  V30 691 H 64.6122 -0.461126 -5.32708 0
M  V30 692 H 64.9552 0.731586 -4.09821 0
M  V30 693 H 65.4882 -0.950786 -3.8627 0
M  V30 694 H 62.2272 -3.38335 -5.61435 0
M  V30 695 H 61.7472 -1.67687 -5.75883 0
M  V30 696 H 63.4262 -2.16588 -6.09671 0
M  V30 697 N 63.5583 1.46682 -0.576371 0
M  V30 698 C 64.4903 2.28341 0.198231 0
M  V30 699 C 65.5033 1.38141 0.861453 0
M  V30 700 O 66.6923 1.62797 0.732082 0
M  V30 701 C 63.7923 3.12986 1.29972 0
M  V30 702 C 62.9653 4.31271 0.729639 0
M  V30 703 C 62.0243 4.97363 1.71803 0
M  V30 704 O 61.0503 5.55156 1.25658 0
M  V30 705 N 62.2523 4.93796 3.05198 0
M  V30 706 H 65.0173 2.9546 -0.502324 0
M  V30 707 H 62.5783 1.56525 -0.413715 0
M  V30 708 H 64.5703 3.54066 1.96008 0
M  V30 709 H 63.1403 2.47984 1.90323 0
M  V30 710 H 62.3603 3.94052 -0.108012 0
M  V30 711 H 63.6483 5.07739 0.328438 0
M  V30 712 H 63.0463 4.48077 3.45317 0
M  V30 713 H 61.6033 5.38837 3.6674 0
M  V30 714 N 65.0364 0.313813 1.54444 0
M  V30 715 C 65.9684 -0.590425 2.21465 0
M  V30 716 C 66.9814 -1.08753 1.21147 0
M  V30 717 O 68.1704 -1.00278 1.4767 0
M  V30 718 C 65.2704 -1.82179 2.85769 0
M  V30 719 C 64.4434 -1.46502 4.12136 0
M  V30 720 C 63.5024 -2.55288 4.60124 0
M  V30 721 O 62.5284 -2.19842 5.25032 0
M  V30 722 N 63.7304 -3.86053 4.33525 0
M  V30 723 H 66.4954 -0.0166033 2.99695 0
M  V30 724 H 64.0564 0.136578 1.61323 0
M  V30 725 H 66.0484 -2.54328 3.14801 0
M  V30 726 H 64.6184 -2.30369 2.11303 0
M  V30 727 H 63.8384 -0.575595 3.89975 0
M  V30 728 H 65.1264 -1.20221 4.94393 0
M  V30 729 H 64.5244 -4.17654 3.81552 0
M  V30 730 H 63.0814 -4.54461 4.67235 0
M  V30 731 N 66.5145 -1.57545 0.0417849 0
M  V30 732 C 67.9305 -1.56467 -0.314704 0
M  V30 733 C 68.1305 -1.04859 -1.72066 0
M  V30 734 O 67.1865 -0.700983 -2.42575 0
M  V30 735 C 68.4995 -3.00317 -0.15174 0
M  V30 736 C 70.0475 -3.12201 -0.223553 0
M  V30 737 C 70.5225 -4.57913 -0.0892295 0
M  V30 738 N 72.0135 -4.6297 -0.145808 0
M  V30 739 C 72.7485 -5.73362 -0.0658459 0
M  V30 740 N 72.2445 -6.92769 0.0659282 0
M  V30 741 N 74.0375 -5.6197 -0.12075 0
M  V30 742 H 66.1885 -1.89416 0.961014 0
M  V30 743 H 68.4515 -0.871862 0.372237 0
M  V30 744 H 68.1575 -3.42073 0.817254 0
M  V30 745 H 68.0315 -3.65892 -0.916692 0
M  V30 746 H 70.4185 -2.70349 -1.18301 0
M  V30 747 H 70.4995 -2.49323 0.571994 0
M  V30 748 H 70.1435 -5.00448 0.866867 0
M  V30 749 H 70.0735 -5.18786 -0.903802 0
M  V30 750 H 72.5645 -3.7709 -0.247286 0
M  V30 751 H 72.8775 -7.72707 0.119905 0
M  V30 752 H 71.2225 -6.94927 0.100885 0
M  V30 753 H 74.4135 -4.67572 -0.222187 0
M  V30 754 H 74.5865 -6.47977 -0.0549735 0
M  V30 755 N 67.9926 0.231505 -1.5589 0
M  V30 756 C 69.2406 0.955461 -1.78088 0
M  V30 757 C 69.5616 1.85262 -0.608533 0
M  V30 758 O 68.8316 1.92277 0.375035 0
M  V30 759 H 67.4116 0.355787 -0.656829 0
M  V30 760 H 70.0736 0.245751 -1.93344 0
M  V30 761 H 69.1696 1.56814 -2.69844 0
M  V30 762 N 69.4707 1.49531 0.497807 0
M  V30 763 C 70.7007 1.62657 1.27382 0
M  V30 764 C 71.1087 0.298488 1.86831 0
M  V30 765 O 70.4517 -0.72647 1.68725 0
M  V30 766 C 70.5137 2.6393 2.44093 0
M  V30 767 C 70.1777 4.08195 2.05489 0
M  V30 768 C 71.1747 4.949 1.59279 0
M  V30 769 C 68.8597 4.53948 2.15026 0
M  V30 770 C 70.8537 6.25397 1.23113 0
M  V30 771 C 68.5407 5.84458 1.78473 0
M  V30 772 C 69.5387 6.70006 1.32591 0
M  V30 773 O 69.2267 7.98083 0.965327 0
M  V30 774 H 68.9587 0.550429 0.392434 0
M  V30 775 H 71.5127 1.96325 0.603801 0
M  V30 776 H 69.7427 2.25449 3.14181 0
M  V30 777 H 71.4317 2.66552 3.06113 0
M  V30 778 H 72.1977 4.60779 1.51354 0
M  V30 779 H 68.0767 3.87525 2.4969 0
M  V30 780 H 71.6207 6.92125 0.872299 0
M  V30 781 H 67.5177 6.18107 1.86048 0
M  V30 782 H 68.2857 8.11122 1.09652 0
M  V30 783 N 70.9488 -0.749086 1.3866 0
M  V30 784 C 72.1738 -1.54344 1.38538 0
M  V30 785 C 72.5988 -1.88088 -0.0216655 0
M  V30 786 O 71.9568 -1.50899 -1.00494 0
M  V30 787 C 72.0048 -2.8164 2.25192 0
M  V30 788 O 71.1088 -3.7698 1.67212 0
M  V30 789 H 70.4498 -0.466654 0.472367 0
M  V30 790 H 72.9798 -0.925355 1.82478 0
M  V30 791 H 72.9898 -3.30519 2.3921 0
M  V30 792 H 71.6648 -2.56411 3.27454 0
M  V30 793 H 70.2418 -3.35699 1.6236 0
M  V30 794 N 72.4269 -1.23603 -0.977757 0
M  V30 795 C 73.7039 -0.977897 -1.69401 0
M  V30 796 C 74.0839 0.502738 -2.05026 0
M  V30 797 O 73.4319 1.47459 -1.74551 0
M  V30 798 C 73.6419 -1.89077 -2.93345 0
M  V30 799 C 74.9899 -2.15579 -3.65802 0
M  V30 800 O 76.0139 -1.86648 -3.03383 0
M  V30 801 O 74.8729 -2.64658 -4.78141 0
M  V30 802 H 71.9669 -0.369025 -0.740101 0
M  V30 803 H 74.5129 -1.34657 -1.03274 0
M  V30 804 H 73.2849 -2.89158 -2.63634 0
M  V30 805 H 72.9079 -1.52463 -3.67207 0
M  V30 806 N 73.905 1.17692 -1.04816 0
M  V30 807 C 75.13 1.92327 -0.776207 0
M  V30 808 C 75.555 1.76082 0.661581 0
M  V30 809 O 74.913 1.076 1.45917 0
M  V30 810 C 74.961 3.41539 -1.15687 0
M  V30 811 O 74.065 4.11402 -0.286775 0
M  V30 812 H 73.406 0.599735 -0.284981 0
M  V30 813 H 75.936 1.49201 -1.4 0
M  V30 814 H 75.946 3.92269 -1.12202 0
M  V30 815 H 74.621 3.52684 -2.20425 0
M  V30 816 H 73.198 3.70939 -0.381903 0
M  V30 817 N 75.3831 0.828654 1.34056 0
M  V30 818 C 76.3461 0.259927 2.27721 0
M  V30 819 C 77.3461 -0.565478 1.50529 0
M  V30 820 O 78.5361 -0.38075 1.69988 0
M  V30 821 C 75.6681 -0.634944 3.34935 0
M  V30 822 H 76.8611 1.0863 2.79534 0
M  V30 823 H 74.4141 0.600951 1.44285 0
M  V30 824 H 75.1491 -1.48416 2.88346 0
M  V30 825 H 74.9341 -0.0444999 3.92075 0
M  V30 826 H 76.4241 -1.02648 4.04788 0
M  V30 827 N 76.8612 -1.46375 0.584142 0
M  V30 828 C 77.7712 -2.34115 -0.150728 0
M  V30 829 C 78.7872 -1.49838 -0.884567 0
M  V30 830 O 79.9632 -1.82704 -0.847429 0
M  V30 831 C 77.0282 -3.2705 -1.15062 0
M  V30 832 C 76.0892 -4.27228 -0.421293 0
M  V30 833 C 75.3222 -5.15722 -1.37355 0
M  V30 834 O 75.5452 -5.07176 -2.61014 0
M  V30 835 O 74.4792 -5.95383 -0.883355 0
M  V30 836 H 78.3052 -2.98309 0.569708 0
M  V30 837 H 75.8902 -1.45373 0.344535 0
M  V30 838 H 77.7722 -3.84381 -1.72712 0
M  V30 839 H 76.4472 -2.65451 -1.8525 0
M  V30 840 H 75.3542 -3.7358 0.197085 0
M  V30 841 H 76.6872 -4.91616 0.239641 0
M  V30 842 N 78.3393 -0.321999 -1.54275 0
M  V30 843 C 79.7553 0.0306999 -1.5957 0
M  V30 844 C 79.9553 1.50614 -1.33857 0
M  V30 845 O 79.0113 2.2619 -1.12223 0
M  V30 846 C 80.3243 -0.386122 -2.98211 0
M  V30 847 C 81.8723 -0.336647 -3.11184 0
M  V30 848 C 82.3473 -0.728607 -4.52167 0
M  V30 849 N 83.8383 -0.681952 -4.58152 0
M  V30 850 C 84.5733 -0.957449 -5.6535 0
M  V30 851 N 84.0693 -1.3 -6.80494 0
M  V30 852 N 85.8623 -0.883113 -5.55119 0
M  V30 853 H 78.0133 -1.28332 -1.69247 0
M  V30 854 H 80.2763 -0.521716 -0.791528 0
M  V30 855 H 79.9823 -1.41404 -3.22022 0
M  V30 856 H 79.8563 0.249662 -3.76373 0
M  V30 857 H 82.2433 0.682058 -2.8711 0
M  V30 858 H 82.3243 -1.00734 -2.3513 0
M  V30 859 H 81.9683 -1.74522 -4.76974 0
M  V30 860 H 81.8983 -0.0356152 -5.26588 0
M  V30 861 H 84.3893 -0.428985 -3.75457 0
M  V30 862 H 84.7023 -1.49563 -7.58189 0
M  V30 863 H 83.0473 -1.33824 -6.81994 0
M  V30 864 H 86.2383 -0.615001 -4.64042 0
M  V30 865 H 86.4113 -1.10118 -6.38575 0
M  V30 866 N 79.8174 1.5752 -0.0501392 0
M  V30 867 C 80.7804 2.1037 0.909786 0
M  V30 868 C 81.7804 1.02308 1.24056 0
M  V30 869 O 82.9704 1.28385 1.17741 0
M  V30 870 C 80.1024 2.58708 2.21998 0
M  V30 871 H 81.2954 2.96479 0.451665 0
M  V30 872 H 78.8484 1.55038 0.198248 0
M  V30 873 H 79.5834 1.75989 2.72394 0
M  V30 874 H 79.3684 3.37675 1.99295 0
M  V30 875 H 80.8584 2.99747 2.9076 0
M  V30 876 N 81.2955 -0.223234 1.56011 0
M  V30 877 C 82.2055 -1.29766 1.95443 0
M  V30 878 C 83.2215 -1.51373 0.858028 0
M  V30 879 O 84.3975 -1.64536 1.16146 0
M  V30 880 C 81.4625 -2.62772 2.26167 0
M  V30 881 C 80.5235 -2.49482 3.49367 0
M  V30 882 C 79.7565 -3.76145 3.78616 0
M  V30 883 O 79.9795 -4.79087 3.09568 0
M  V30 884 O 78.9135 -3.73358 4.72109 0
M  V30 885 H 82.7395 -0.99309 2.87004 0
M  V30 886 H 80.3245 -0.425958 1.43199 0
M  V30 887 H 82.2065 -3.41327 2.47131 0
M  V30 888 H 80.8815 -2.92913 1.37781 0
M  V30 889 H 79.7885 -1.69133 3.33684 0
M  V30 890 H 81.1215 -2.2428 4.38131 0
M  V30 891 N 82.7736 -1.49793 -0.48987 0
M  V30 892 C 84.1896 -1.36803 -0.822022 0
M  V30 893 C 84.3896 -0.409652 -1.97292 0
M  V30 894 O 83.4456 0.154614 -2.52026 0
M  V30 895 C 84.7586 -2.77768 -1.15175 0
M  V30 896 C 86.3066 -2.86549 -1.25931 0
M  V30 897 C 86.7816 -4.28306 -1.62228 0
M  V30 898 N 88.2726 -4.31169 -1.69256 0
M  V30 899 C 89.0076 -5.37832 -1.98807 0
M  V30 900 N 88.5036 -6.54726 -2.26507 0
M  V30 901 N 90.2966 -5.25258 -2.00152 0
M  V30 902 H 82.4476 -2.10691 0.268881 0
M  V30 903 H 84.7106 -0.946241 0.057728 0
M  V30 904 H 84.4166 -3.49648 -0.379335 0
M  V30 905 H 84.2906 -3.13836 -2.09253 0
M  V30 906 H 86.6776 -2.14899 -2.02243 0
M  V30 907 H 86.7586 -2.54049 -0.298776 0
M  V30 908 H 86.4026 -5.00486 -0.864622 0
M  V30 909 H 86.3326 -4.58279 -2.594 0
M  V30 910 H 88.8236 -3.4687 -1.49965 0
M  V30 911 H 89.1366 -7.31833 -2.48276 0
M  V30 912 H 87.4816 -6.57933 -2.23939 0
M  V30 913 H 90.6726 -4.32938 -1.77996 0
M  V30 914 H 90.8456 -6.08476 -2.22848 0
M  V30 915 N 84.2517 0.741722 -1.39055 0
M  V30 916 C 85.1617 1.88621 -1.39496 0
M  V30 917 C 86.1777 1.71557 -0.290578 0
M  V30 918 O 87.3537 1.94275 -0.530954 0
M  V30 919 C 84.4187 3.24134 -1.23037 0
M  V30 920 C 83.4797 3.5364 -2.43387 0
M  V30 921 C 82.7127 4.82687 -2.27703 0
M  V30 922 O 82.9357 5.55922 -1.27696 0
M  V30 923 O 81.8697 5.1194 -3.16545 0
M  V30 924 H 85.6957 1.91203 -2.35956 0
M  V30 925 H 83.2807 0.888625 -1.20099 0
M  V30 926 H 85.1627 4.0513 -1.15964 0
M  V30 927 H 83.8377 3.22337 -0.296691 0
M  V30 928 H 82.7447 2.72758 -2.56035 0
M  V30 929 H 84.0777 3.60209 -3.35425 0
M  V30 930 N 85.7298 1.2412 0.971189 0
M  V30 931 C 87.1458 1.00584 1.23916 0
M  V30 932 C 87.3458 -0.287481 1.99439 0
M  V30 933 O 86.4018 -1.00454 2.31658 0
M  V30 934 C 87.7148 2.21864 2.0297 0
M  V30 935 C 89.2628 2.26452 2.16076 0
M  V30 936 C 89.7378 3.47343 2.98524 0
M  V30 937 N 91.2288 3.47639 3.06107 0
M  V30 938 C 91.9638 4.37837 3.70251 0
M  V30 939 N 91.4598 5.38286 4.36142 0
M  V30 940 N 93.2528 4.25558 3.67228 0
M  V30 941 H 85.4038 2.07236 0.465499 0
M  V30 942 H 87.6668 0.909236 0.268315 0
M  V30 943 H 87.3728 3.15771 1.54861 0
M  V30 944 H 87.2468 2.23698 3.03709 0
M  V30 945 H 89.6338 1.33078 2.6339 0
M  V30 946 H 89.7148 2.28645 1.14696 0
M  V30 947 H 89.3588 4.41029 2.51905 0
M  V30 948 H 89.2888 3.42393 4.00093 0
M  V30 949 H 91.7798 2.74966 2.59233 0
M  V30 950 H 92.0928 6.03352 4.82894 0
M  V30 951 H 90.4378 5.42176 4.34822 0
M  V30 952 H 93.6288 3.46322 3.14927 0
M  V30 953 H 93.8018 4.96054 4.16935 0
M  V30 954 N 87.2079 -1.17134 1.05439 0
M  V30 955 C 88.1399 -2.2078 0.615539 0
M  V30 956 C 89.1529 -1.59584 -0.322001 0
M  V30 957 O 90.3419 -1.78133 -0.114344 0
M  V30 958 C 87.4419 -3.38691 -0.118938 0
M  V30 959 C 86.6149 -4.29454 0.829924 0
M  V30 960 C 85.6739 -5.26024 0.136258 0
M  V30 961 O 84.6999 -5.63952 0.77115 0
M  V30 962 N 85.9019 -5.69487 -1.1254 0
M  V30 963 H 88.6669 -2.59052 1.50705 0
M  V30 964 H 86.2279 -1.32058 0.936603 0
M  V30 965 H 88.2199 -4.00329 -0.593179 0
M  V30 966 H 86.7899 -2.98996 -0.91215 0
M  V30 967 H 86.0099 -3.65211 1.48373 0
M  V30 968 H 87.2979 -4.86984 1.47392 0
M  V30 969 H 86.6959 -5.4075 -1.6615 0
M  V30 970 H 85.2529 -6.33257 -1.54366 0
M  V30 971 N 88.686 -0.835752 -1.33615 0
M  V30 972 C 90.097 -0.487099 -1.80234 0
M  V30 973 C 90.448 0.993627 -1.69179 0
M  V30 974 O 89.573 1.77403 -1.23924 0
M  V30 975 C 90.168 -0.877385 -3.27242 0
M  V30 976 C 88.727 -0.580915 -3.7189 0
M  V30 977 C 87.874 -1.0874 -2.5509 0
M  V30 978 H 90.825 -1.02474 -1.2118 0
M  V30 979 H 90.846 -0.186195 -3.80044 0
M  V30 980 H 90.358 -1.95512 -3.35256 0
M  V30 981 H 88.459 0.486881 -3.69405 0
M  V30 982 H 88.572 -1.13396 -4.65487 0
M  V30 983 H 86.936 -0.508392 -2.49575 0
M  V30 984 H 87.719 -2.17184 -2.65868 0
M  V30 985 N 90.1641 1.46063 -0.591896 0
M  V30 986 C 91.1141 2.27458 0.157172 0
M  V30 987 C 92.0981 1.3641 0.853301 0
M  V30 988 O 93.2901 1.60517 0.74588 0
M  V30 989 C 90.4191 3.22956 1.16423 0
M  V30 990 C 89.5051 4.2149 0.469742 0
M  V30 991 N 89.8961 5.03519 -0.479839 0
M  V30 992 C 88.1941 4.40161 0.719319 0
M  V30 993 C 88.8951 5.74904 -0.886591 0
M  V30 994 N 87.8711 5.43097 -0.233731 0
M  V30 995 H 91.6731 2.88272 -0.572392 0
M  V30 996 H 89.1871 1.57024 -0.414375 0
M  V30 997 H 91.1841 3.79986 1.71513 0
M  V30 998 H 89.8441 2.63701 1.89451 0
M  V30 999 H 90.8551 5.1078 -0.855823 0
M  V30 1000 H 87.5321 3.92046 1.43548 0
M  V30 1001 H 88.9221 6.50844 -1.66888 0
M  V30 1002 N 91.6422 0.330177 1.54103 0
M  V30 1003 C 93.0582 -0.0222371 1.59585 0
M  V30 1004 C 93.2582 -1.49902 1.34654 0
M  V30 1005 O 92.3142 -2.25592 1.13421 0
M  V30 1006 C 93.6272 0.401932 2.98002 0
M  V30 1007 C 95.1752 0.353145 3.11001 0
M  V30 1008 C 95.6502 0.752576 4.51775 0
M  V30 1009 N 97.1412 0.706239 4.57784 0
M  V30 1010 C 97.8762 0.987417 5.64834 0
M  V30 1011 N 97.3722 1.33607 6.79795 0
M  V30 1012 N 99.1652 0.91254 5.54643 0
M  V30 1013 H 91.3162 1.29228 1.68564 0
M  V30 1014 H 93.5792 0.525906 0.78875 0
M  V30 1015 H 93.2852 1.4311 3.21267 0
M  V30 1016 H 93.1592 -0.229699 3.765 0
M  V30 1017 H 95.5462 -0.666822 2.87467 0
M  V30 1018 H 95.6272 1.0198 2.34593 0
M  V30 1019 H 95.2712 1.77049 4.76042 0
M  V30 1020 H 95.2012 0.0635409 5.26562 0
M  V30 1021 H 97.6922 0.44889 3.75224 0
M  V30 1022 H 98.0052 1.53582 7.57385 0
M  V30 1023 H 96.3502 1.37439 6.81275 0
M  V30 1024 H 99.5412 0.639601 4.6371 0
M  V30 1025 H 99.7142 1.13503 6.37982 0
M  V30 1026 N 93.1203 -1.57491 0.0584922 0
M  V30 1027 C 94.5313 -1.80526 -0.476138 0
M  V30 1028 C 94.8823 -0.971334 -1.70469 0
M  V30 1029 O 94.0073 -0.190012 -2.15564 0
M  V30 1030 C 94.6023 -3.27424 -0.870587 0
M  V30 1031 C 93.1613 -3.51351 -1.35015 0
M  V30 1032 C 92.3083 -2.75343 -0.32887 0
M  V30 1033 H 95.2593 -1.56133 0.284312 0
M  V30 1034 H 95.2803 -3.38745 -1.73299 0
M  V30 1035 H 94.7923 -3.88093 0.0237627 0
M  V30 1036 H 92.8933 -2.95971 -2.26345 0
M  V30 1037 H 93.0063 -4.60059 -1.33726 0
M  V30 1038 H 91.3703 -2.417 -0.803321 0
M  V30 1039 H 92.1533 -3.38743 0.557521 0
M  V30 1040 N 94.5984 0.214957 -1.56127 0
M  V30 1041 C 95.8474 0.936451 -1.78643 0
M  V30 1042 C 96.1604 1.85237 -0.628229 0
M  V30 1043 O 97.3664 2.613 -0.737186 0
M  V30 1044 C 95.8224 1.7154 -3.16389 0
M  V30 1045 C 95.4304 0.845299 -4.39953 0
M  V30 1046 C 97.1744 2.42772 -3.48227 0
M  V30 1047 C 95.0814 1.62198 -5.68723 0
M  V30 1048 H 94.0114 0.353401 -0.666051 0
M  V30 1049 H 96.6624 0.190169 -1.82512 0
M  V30 1050 H 95.0444 2.50484 -3.06715 0
M  V30 1051 H 96.2184 0.0959353 -4.607 0
M  V30 1052 H 94.5334 0.244789 -4.1568 0
M  V30 1053 H 97.1304 3.01394 -4.41663 0
M  V30 1054 H 97.4734 3.15984 -2.71035 0
M  V30 1055 H 98.0064 1.70813 -3.5926 0
M  V30 1056 H 94.7454 0.933011 -6.48826 0
M  V30 1057 H 94.2654 2.34579 -5.52026 0
M  V30 1058 H 95.9444 2.18095 -6.09133 0
M  V30 1059 N 96.0765 1.50051 0.48192 0
M  V30 1060 C 96.9865 1.7089 1.60728 0
M  V30 1061 C 98.0025 0.591788 1.63627 0
M  V30 1062 O 99.1785 0.868817 1.81696 0
M  V30 1063 C 96.2435 1.78855 2.97005 0
M  V30 1064 C 95.3045 3.02537 3.04581 0
M  V30 1065 C 94.5375 3.10112 4.34357 0
M  V30 1066 O 94.7605 2.24765 5.24249 0
M  V30 1067 O 93.6945 4.02747 4.47301 0
M  V30 1068 H 97.5205 2.66264 1.46072 0
M  V30 1069 H 95.1055 1.34018 0.660264 0
M  V30 1070 H 96.9875 1.86336 3.77964 0
M  V30 1071 H 95.6625 0.866628 3.11883 0
M  V30 1072 H 94.5695 3.00563 2.22739 0
M  V30 1073 H 95.9025 3.94272 2.94636 0
M  V30 1074 N 97.5546 -0.734337 1.39446 0
M  V30 1075 C 98.9706 -1.03997 1.21065 0
M  V30 1076 C 99.1706 -2.01369 0.0727019 0
M  V30 1077 O 98.2266 -2.45856 -0.575426 0
M  V30 1078 C 99.5396 -1.60163 2.54496 0
M  V30 1079 C 101.088 -1.7224 2.61347 0
M  V30 1080 C 101.563 -2.31814 3.95002 0
M  V30 1081 N 103.054 -2.39223 3.96644 0
M  V30 1082 C 103.789 -2.86258 4.96834 0
M  V30 1083 N 103.285 -3.33184 6.07421 0
M  V30 1084 N 105.078 -2.85473 4.84213 0
M  V30 1085 H 97.2286 -0.0885624 2.12215 0
M  V30 1086 H 99.4916 -0.10191 0.942506 0
M  V30 1087 H 99.1976 -0.960811 3.38321 0
M  V30 1088 H 99.0716 -2.5896 2.74262 0
M  V30 1089 H 101.459 -2.35443 1.77906 0
M  V30 1090 H 101.54 -0.720939 2.4543 0
M  V30 1091 H 101.184 -1.69238 4.78875 0
M  V30 1092 H 101.114 -3.32638 4.08239 0
M  V30 1093 H 103.605 -2.06057 3.16779 0
M  V30 1094 H 103.918 -3.67586 6.7978 0
M  V30 1095 H 102.263 -3.31191 6.11013 0
M  V30 1096 H 105.454 -2.48136 3.96921 0
M  V30 1097 H 105.627 -3.21814 5.62441 0
M  V30 1098 N 99.0327 -1.24633 -0.964593 0
M  V30 1099 C 99.9957 -1.0424 -2.04124 0
M  V30 1100 C 100.996 0.00137563 -1.608 0
M  V30 1101 O 102.186 -0.239883 -1.7254 0
M  V30 1102 C 99.3177 -0.580588 -3.3592 0
M  V30 1103 H 100.511 -1.99803 -2.23649 0
M  V30 1104 H 98.0637 -1.06899 -1.14027 0
M  V30 1105 H 98.7987 0.3781 -3.22088 0
M  V30 1106 H 98.5837 -1.33398 -3.6871 0
M  V30 1107 H 100.074 -0.459034 -4.15069 0
M  V30 1108 N 100.511 1.16574 -1.06058 0
M  V30 1109 C 101.788 1.83048 -0.689416 0
M  V30 1110 C 102.168 1.94122 0.829443 0
M  V30 1111 O 101.516 1.48249 1.7388 0
M  V30 1112 C 101.726 3.20186 -1.38859 0
M  V30 1113 C 103.074 3.95989 -1.53226 0
M  V30 1114 O 104.098 3.29696 -1.3483 0
M  V30 1115 O 102.957 5.14813 -1.83384 0
M  V30 1116 H 100.051 0.790258 -0.243764 0
M  V30 1117 H 102.597 1.23797 -1.16071 0
M  V30 1118 H 101.369 3.07146 -2.4244 0
M  V30 1119 H 100.992 3.87112 -0.907216 0
M  V30 1120 N 101.989 0.842826 1.3317 0
M  V30 1121 C 102.952 0.284065 2.27433 0
M  V30 1122 C 103.952 -0.54948 1.5112 0
M  V30 1123 O 105.142 -0.362699 1.70382 0
M  V30 1124 C 102.274 -0.599384 3.35589 0
M  V30 1125 H 103.467 1.11589 2.78366 0
M  V30 1126 H 101.02 0.616221 1.4364 0
M  V30 1127 H 101.755 -1.45349 2.89904 0
M  V30 1128 H 101.54 -0.00291266 3.921 0
M  V30 1129 H 103.03 -0.983488 4.05854 0
M  V30 1130 N 103.467 -1.45747 0.599634 0
M  V30 1131 C 104.4 -2.27547 -0.172552 0
M  V30 1132 C 105.378 -1.36657 -0.881116 0
M  V30 1133 O 106.562 -1.66081 -0.891595 0
M  V30 1134 C 103.689 -3.14829 -1.24903 0
M  V30 1135 C 102.735 -4.21603 -0.644465 0
M  V30 1136 S 103.568 -5.32754 0.541606 0
M  V30 1137 C 104.724 -6.23604 -0.535656 0
M  V30 1138 H 104.957 -2.92691 0.521468 0
M  V30 1139 H 102.49 -1.49473 0.386947 0
M  V30 1140 H 104.448 -3.65675 -1.86527 0
M  V30 1141 H 103.109 -2.48965 -1.91508 0
M  V30 1142 H 102.302 -4.82566 -1.45417 0
M  V30 1143 H 101.904 -3.73857 -0.103534 0
M  V30 1144 H 104.196 -6.62519 -1.41686 0
M  V30 1145 H 105.139 -7.0809 0.0376246 0
M  V30 1146 H 105.547 -5.58103 -0.84741 0
M  V30 1147 N 104.945 -0.338344 -1.53925 0
M  V30 1148 C 106.222 0.314774 -1.93051 0
M  V30 1149 C 106.602 1.68669 -1.26941 0
M  V30 1150 O 105.95 2.24636 -0.418445 0
M  V30 1151 C 106.16 0.392249 -3.46789 0
M  V30 1152 C 107.508 0.645554 -4.19664 0
M  V30 1153 O 108.532 0.474575 -3.53024 0
M  V30 1154 O 107.391 0.976408 -5.37707 0
M  V30 1155 H 104.485 0.182598 -0.80659 0
M  V30 1156 H 107.031 -0.389141 -1.65178 0
M  V30 1157 H 105.803 -0.570702 -3.87116 0
M  V30 1158 H 105.426 1.14316 -3.80812 0
M  V30 1159 N 106.423 1.57458 -0.0668435 0
M  V30 1160 C 107.651 1.97624 0.612565 0
M  V30 1161 C 108.066 0.94502 1.63447 0
M  V30 1162 O 107.423 -0.0689276 1.8237 0
M  V30 1163 C 107.474 3.37869 1.28555 0
M  V30 1164 O 107.195 4.3704 0.304557 0
M  V30 1165 C 108.696 3.92882 2.05325 0
M  V30 1166 H 105.916 0.650045 0.166381 0
M  V30 1167 H 108.46 2.04035 -0.137782 0
M  V30 1168 H 106.615 3.3256 1.98702 0
M  V30 1169 H 107.029 5.18565 0.786779 0
M  V30 1170 H 108.503 4.93247 2.47812 0
M  V30 1171 H 108.98 3.29156 2.9078 0
M  V30 1172 H 109.586 4.01577 1.40056 0
M  V30 1173 N 107.901 -0.206675 1.56239 0
M  V30 1174 C 109.126 -0.949474 1.8439 0
M  V30 1175 C 109.551 -1.76549 0.649016 0
M  V30 1176 O 108.909 -1.76782 -0.402231 0
M  V30 1177 C 108.957 -1.83078 3.10668 0
M  V30 1178 O 108.061 -2.9281 2.90407 0
M  V30 1179 H 107.402 -0.268033 0.607499 0
M  V30 1180 H 109.932 -0.215488 2.03462 0
M  V30 1181 H 109.942 -2.2377 3.41161 0
M  V30 1182 H 108.617 -1.23112 3.97261 0
M  V30 1183 H 107.194 -2.55956 2.71184 0
M  V30 1184 N 109.379 -1.50304 -0.473955 0
M  V30 1185 C 110.656 -1.51667 -1.23518 0
M  V30 1186 C 111.036 -0.259701 -2.09496 0
M  V30 1187 O 110.384 0.756986 -2.15597 0
M  V30 1188 C 110.594 -2.81082 -2.06868 0
M  V30 1189 C 111.942 -3.31631 -2.65153 0
M  V30 1190 O 112.966 -2.82384 -2.17113 0
M  V30 1191 O 111.825 -4.17471 -3.52675 0
M  V30 1192 H 108.919 -0.60822 -0.560355 0
M  V30 1193 H 111.465 -1.62592 -0.486011 0
M  V30 1194 H 110.237 -3.64041 -1.4349 0
M  V30 1195 H 109.86 -2.73146 -2.88924 0
M  V30 1196 N 110.857 0.726932 -1.39834 0
M  V30 1197 C 112.273 1.03354 -1.21615 0
M  V30 1198 C 112.473 2.01327 -0.08338 0
M  V30 1199 O 111.529 2.46158 0.56238 0
M  V30 1200 C 112.842 1.58811 -2.55342 0
M  V30 1201 C 114.39 1.70851 -2.62257 0
M  V30 1202 C 114.865 2.29716 -3.96225 0
M  V30 1203 N 116.356 2.37116 -3.97907 0
M  V30 1204 C 117.091 2.83619 -4.98345 0
M  V30 1205 N 116.587 3.29958 -6.09179 0
M  V30 1206 N 118.38 2.82901 -4.8572 0
M  V30 1207 H 110.531 0.0773069 -2.12259 0
M  V30 1208 H 112.794 0.0969102 -0.943034 0
M  V30 1209 H 112.5 0.942855 -3.38826 0
M  V30 1210 H 112.374 2.57502 -2.75632 0
M  V30 1211 H 114.761 2.34497 -1.79152 0
M  V30 1212 H 114.842 0.707913 -2.45809 0
M  V30 1213 H 114.486 1.66696 -4.79765 0
M  V30 1214 H 114.416 3.30469 -4.09997 0
M  V30 1215 H 116.907 2.04374 -3.17868 0
M  V30 1216 H 117.22 3.63976 -6.8172 0
M  V30 1217 H 115.565 3.27946 -6.12761 0
M  V30 1218 H 118.756 2.46027 -3.98231 0
M  V30 1219 H 118.929 3.18827 -5.6414 0
M  V30 1220 N 112.336 1.25143 0.95797 0
M  V30 1221 C 113.747 1.08851 1.51685 0
M  V30 1222 C 114.098 -0.33687 1.93286 0
M  V30 1223 O 113.223 -1.22644 1.7829 0
M  V30 1224 C 113.818 1.96978 2.75654 0
M  V30 1225 C 112.377 1.84881 3.27866 0
M  V30 1226 C 111.524 1.91329 2.0072 0
M  V30 1227 H 114.475 1.38478 0.77522 0
M  V30 1228 H 114.496 1.5078 3.4935 0
M  V30 1229 H 114.008 3.00712 2.45345 0
M  V30 1230 H 112.109 0.840182 3.63004 0
M  V30 1231 H 112.222 2.6951 3.96107 0
M  V30 1232 H 110.586 1.35174 2.15871 0
M  V30 1233 H 111.369 2.96661 1.72764 0
M  V30 1234 N 113.814 -1.1601 1.06675 0
M  V30 1235 C 115.062 -1.86264 0.784229 0
M  V30 1236 C 115.383 -1.82328 -0.691488 0
M  V30 1237 O 114.653 -1.25947 -1.50047 0
M  V30 1238 H 113.233 -0.689621 0.28711 0
M  V30 1239 H 115.895 -1.40664 1.34906 0
M  V30 1240 H 114.991 -2.91595 1.11259 0
M  V30 1241 N 115.292 -0.849877 -1.32721 0
M  V30 1242 C 116.222 -0.306308 -2.31482 0
M  V30 1243 C 117.203 0.591952 -1.59468 0
M  V30 1244 O 118.388 0.513199 -1.87296 0
M  V30 1245 C 115.518 0.510204 -3.43532 0
M  V30 1246 C 114.472 -0.293209 -4.26994 0
M  V30 1247 C 113.798 0.647743 -5.30762 0
M  V30 1248 C 115.098 -1.51634 -4.99804 0
M  V30 1249 H 116.792 -1.13153 -2.77195 0
M  V30 1250 H 114.338 -0.545553 -1.33266 0
M  V30 1251 H 116.291 0.900856 -4.11658 0
M  V30 1252 H 115.015 1.36874 -2.96535 0
M  V30 1253 H 113.674 -0.665555 -3.60508 0
M  V30 1254 H 113.322 1.50299 -4.8002 0
M  V30 1255 H 113.022 0.11422 -5.87489 0
M  V30 1256 H 114.546 1.03567 -6.01753 0
M  V30 1257 H 115.96 -1.19824 -5.60638 0
M  V30 1258 H 114.357 -1.98745 -5.66234 0
M  V30 1259 H 115.427 -2.28018 -4.27943 0
M  V30 1260 N 116.77 1.45427 -0.607355 0
M  V30 1261 C 118.186 1.57283 -0.270985 0
M  V30 1262 C 118.386 1.59875 1.22647 0
M  V30 1263 O 117.442 1.52893 2.00948 0
M  V30 1264 C 118.755 2.85566 -0.941952 0
M  V30 1265 C 120.303 2.9924 -0.917849 0
M  V30 1266 C 120.778 4.30293 -1.56882 0
M  V30 1267 N 122.269 4.37051 -1.5343 0
M  V30 1268 C 123.004 5.37123 -2.00715 0
M  V30 1269 N 122.5 6.43734 -2.56084 0
M  V30 1270 N 124.293 5.28479 -1.91484 0
M  V30 1271 H 116.444 1.41988 -1.57966 0
M  V30 1272 H 118.707 0.67885 -0.661715 0
M  V30 1273 H 118.413 2.8955 -1.99633 0
M  V30 1274 H 118.287 3.74322 -0.465096 0
M  V30 1275 H 120.674 2.94822 0.127984 0
M  V30 1276 H 120.755 2.11895 -1.43297 0
M  V30 1277 H 120.399 4.35469 -2.61398 0
M  V30 1278 H 120.329 5.16454 -1.02873 0
M  V30 1279 H 122.82 3.60615 -1.12982 0
M  V30 1280 H 123.133 7.16341 -2.89958 0
M  V30 1281 H 121.478 6.44485 -2.60122 0
M  V30 1282 H 124.669 4.44098 -1.47967 0
M  V30 1283 H 124.842 6.0632 -2.28648 0
M  V30 1284 N 118.248 0.346503 1.53744 0
M  V30 1285 C 119.476 -0.25041 2.05379 0
M  V30 1286 C 119.891 -1.43979 1.22129 0
M  V30 1287 O 119.248 -1.80677 0.257321 0
M  V30 1288 C 119.299 -0.662575 3.55376 0
M  V30 1289 O 119.02 0.479515 4.35468 0
M  V30 1290 C 120.521 -1.31989 4.23195 0
M  V30 1291 H 117.741 -0.0478198 0.669294 0
M  V30 1292 H 120.285 0.499346 1.9831 0
M  V30 1293 H 118.44 -1.36227 3.62658 0
M  V30 1294 H 118.854 0.15037 5.24284 0
M  V30 1295 H 120.328 -1.55902 5.29527 0
M  V30 1296 H 120.805 -2.27436 3.75725 0
M  V30 1297 H 121.411 -0.662154 4.20114 0
M  V30 1298 N 119.726 -1.57421 0.075193 0
M  V30 1299 C 120.954 -1.97946 -0.602076 0
M  V30 1300 C 121.369 -0.953674 -1.62943 0
M  V30 1301 O 120.726 0.0592551 -1.82404 0
M  V30 1302 C 120.777 -3.38546 -1.26762 0
M  V30 1303 O 120.498 -4.37195 -0.281376 0
M  V30 1304 C 121.999 -3.93966 -2.03239 0
M  V30 1305 H 119.219 -0.650918 -0.162931 0
M  V30 1306 H 121.763 -2.03959 0.148601 0
M  V30 1307 H 119.918 -3.33609 -1.96936 0
M  V30 1308 H 120.332 -5.18975 -0.759267 0
M  V30 1309 H 121.806 -4.94555 -2.45193 0
M  V30 1310 H 122.283 -3.30693 -2.8903 0
M  V30 1311 H 122.889 -4.02315 -1.37924 0
M  V30 1312 N 121.204 0.198386 -1.56346 0
M  V30 1313 C 122.62 0.549085 -1.49857 0
M  V30 1314 C 122.82 1.86016 -0.774611 0
M  V30 1315 O 121.876 2.50416 -0.323776 0
M  V30 1316 C 123.189 0.606868 -2.94512 0
M  V30 1317 C 124.737 0.695925 -3.05165 0
M  V30 1318 C 125.212 0.784848 -4.51225 0
M  V30 1319 N 126.703 0.848463 -4.55363 0
M  V30 1320 C 127.438 0.937378 -5.65686 0
M  V30 1321 N 126.934 0.9888 -6.85707 0
M  V30 1322 N 128.727 0.974312 -5.53592 0
M  V30 1323 H 120.878 -0.661655 -2.01831 0
M  V30 1324 H 123.141 -0.235261 -0.918344 0
M  V30 1325 H 122.847 -0.28732 -3.50524 0
M  V30 1326 H 122.721 1.46268 -3.47686 0
M  V30 1327 H 125.108 1.58055 -2.49204 0
M  V30 1328 H 125.189 -0.186022 -2.55123 0
M  V30 1329 H 124.833 -0.0954072 -5.0781 0
M  V30 1330 H 124.763 1.68255 -4.98997 0
M  V30 1331 H 127.254 0.818103 -3.68938 0
M  V30 1332 H 127.567 1.05707 -7.65536 0
M  V30 1333 H 125.912 0.957534 -6.88372 0
M  V30 1334 H 129.103 0.930954 -4.58749 0
M  V30 1335 H 129.276 1.04015 -6.39597 0
M  V30 1336 N 122.682 1.50554 0.465978 0
M  V30 1337 C 123.615 1.64436 1.58227 0
M  V30 1338 C 124.593 0.492367 1.54966 0
M  V30 1339 O 125.777 0.712536 1.74514 0
M  V30 1340 C 122.904 1.63165 2.96808 0
M  V30 1341 C 121.95 2.83987 3.18204 0
M  V30 1342 S 122.783 4.45219 2.97557 0
M  V30 1343 C 123.939 4.46649 4.3847 0
M  V30 1344 H 124.172 2.58861 1.46213 0
M  V30 1345 H 121.705 1.3988 0.653678 0
M  V30 1346 H 123.663 1.63116 3.76701 0
M  V30 1347 H 122.324 0.69967 3.06208 0
M  V30 1348 H 121.517 2.79416 4.19455 0
M  V30 1349 H 121.119 2.81629 2.46092 0
M  V30 1350 H 123.411 4.20526 5.31191 0
M  V30 1351 H 124.354 5.48295 4.48082 0
M  V30 1352 H 124.762 3.76296 4.20787 0
M  V30 1353 N 124.16 -0.719506 1.40217 0
M  V30 1354 C 125.385 -1.51371 1.4178 0
M  V30 1355 C 125.81 -1.88091 0.0182355 0
M  V30 1356 O 125.168 -1.52997 -0.972707 0
M  V30 1357 C 125.216 -2.768 2.31115 0
M  V30 1358 O 124.32 -3.73349 1.7517 0
M  V30 1359 H 123.661 -0.456529 0.482159 0
M  V30 1360 H 126.191 -0.88644 1.844 0
M  V30 1361 H 126.201 -3.25371 2.46167 0
M  V30 1362 H 124.876 -2.49407 3.3282 0
M  V30 1363 H 123.453 -3.32179 1.69444 0
M  V30 1364 N 125.638 -1.25649 -0.95132 0
M  V30 1365 C 126.884 -1.11766 -1.69941 0
M  V30 1366 C 127.239 0.33735 -1.89419 0
M  V30 1367 O 126.532 1.24491 -1.45645 0
M  V30 1368 C 126.726 -1.80909 -3.08231 0
M  V30 1369 C 126.555 -3.32984 -3.02245 0
M  V30 1370 C 125.325 -4.02247 -3.05819 0
M  V30 1371 C 127.523 -4.29332 -2.83157 0
M  V30 1372 N 125.505 -5.41072 -2.90024 0
M  V30 1373 C 126.876 -5.55265 -2.75828 0
M  V30 1374 C 128.931 -4.19707 -2.67863 0
M  V30 1375 C 127.634 -6.72671 -2.54767 0
M  V30 1376 C 129.66 -5.36809 -2.48173 0
M  V30 1377 C 129.022 -6.61683 -2.41567 0
M  V30 1378 H 125.121 -0.463708 -0.629682 0
M  V30 1379 H 127.705 -1.58796 -1.12659 0
M  V30 1380 H 125.876 -1.36369 -3.63673 0
M  V30 1381 H 127.608 -1.59739 -3.71841 0
M  V30 1382 H 124.363 -3.53531 -3.15139 0
M  V30 1383 H 124.787 -6.13938 -2.85323 0
M  V30 1384 H 129.429 -3.23907 -2.71743 0
M  V30 1385 H 127.147 -7.68577 -2.49629 0
M  V30 1386 H 130.733 -5.31224 -2.37259 0
M  V30 1387 H 129.613 -7.50768 -2.26531 0
M  V30 1388 N 127.117 1.15442 -1.07289 0
M  V30 1389 C 128.528 1.67803 -0.818475 0
M  V30 1390 C 128.879 1.8489 0.656507 0
M  V30 1391 O 128.004 1.55176 1.50829 0
M  V30 1392 C 128.599 3.04805 -1.47917 0
M  V30 1393 C 127.158 3.54245 -1.27229 0
M  V30 1394 C 126.305 2.29986 -1.54925 0
M  V30 1395 H 129.256 0.996646 -1.23502 0
M  V30 1396 H 129.277 3.69702 -0.90005 0
M  V30 1397 H 128.789 2.92336 -2.55267 0
M  V30 1398 H 126.89 3.71956 -0.21899 0
M  V30 1399 H 127.003 4.35723 -1.99203 0
M  V30 1400 H 125.367 2.35496 -0.970242 0
M  V30 1401 H 126.15 2.20105 -2.63455 0
M  V30 1402 N 128.595 0.856903 1.32268 0
M  V30 1403 C 129.82 0.474569 2.01897 0
M  V30 1404 C 130.245 -0.921766 1.63967 0
M  V30 1405 O 129.603 -1.60589 0.84148 0
M  V30 1406 C 129.651 0.623799 3.55164 0
M  V30 1407 O 128.755 -0.342459 4.10976 0
M  V30 1408 H 128.096 0.190422 0.63611 0
M  V30 1409 H 130.626 1.15672 1.68764 0
M  V30 1410 H 130.636 0.512169 4.04773 0
M  V30 1411 H 129.311 1.64202 3.82113 0
M  V30 1412 H 127.888 -0.18688 3.72431 0
M  V30 1413 N 130.073 -1.45103 0.615059 0
M  V30 1414 C 131.298 -2.07064 0.117988 0
M  V30 1415 C 131.723 -1.4554 -1.19163 0
M  V30 1416 O 131.081 -0.550855 -1.72729 0
M  V30 1417 C 131.129 -3.606 -0.000288387 0
M  V30 1418 O 130.233 -3.98847 -1.04856 0
M  V30 1419 H 129.574 -0.659467 0.0774581 0
M  V30 1420 H 132.104 -1.86236 0.847186 0
M  V30 1421 H 132.114 -4.07529 -0.196091 0
M  V30 1422 H 130.789 -4.04765 0.955932 0
M  V30 1423 H 129.366 -3.63577 -0.828619 0
M  V30 1424 N 131.551 -0.354651 -1.53558 0
M  V30 1425 C 132.798 0.238443 -2.01091 0
M  V30 1426 C 133.126 1.49663 -1.24222 0
M  V30 1427 O 132.381 1.93049 -0.321003 0
M  V30 1428 C 132.68 0.587121 -3.52545 0
M  V30 1429 C 132.346 -0.575472 -4.47213 0
M  V30 1430 C 131.008 -0.894497 -4.72813 0
M  V30 1431 C 133.36 -1.35489 -5.03281 0
M  V30 1432 C 130.688 -1.99511 -5.51736 0
M  V30 1433 C 133.04 -2.44583 -5.83405 0
M  V30 1434 C 131.704 -2.77033 -6.07296 0
M  V30 1435 H 130.974 0.0872526 -0.735845 0
M  V30 1436 H 133.621 -0.484859 -1.8526 0
M  V30 1437 H 131.926 1.39129 -3.66265 0
M  V30 1438 H 133.623 1.05809 -3.86789 0
M  V30 1439 H 130.213 -0.316774 -4.27428 0
M  V30 1440 H 134.397 -1.12167 -4.83459 0
M  V30 1441 H 129.653 -2.25063 -5.68469 0
M  V30 1442 H 133.827 -3.05401 -6.25862 0
M  V30 1443 H 131.454 -3.6244 -6.68237 0
M  V30 1444 N 133.029 1.57378 -0.0835403 0
M  V30 1445 C 133.979 2.09916 0.889905 0
M  V30 1446 C 134.963 1.01151 1.25129 0
M  V30 1447 O 136.155 1.27443 1.2283 0
M  V30 1448 C 133.284 2.67379 2.15322 0
M  V30 1449 C 132.37 3.83167 1.81779 0
M  V30 1450 N 132.761 4.91665 1.18739 0
M  V30 1451 C 131.059 3.92685 2.11459 0
M  V30 1452 C 131.76 5.72409 1.0355 0
M  V30 1453 N 130.736 5.21062 1.54906 0
M  V30 1454 H 134.538 2.91188 0.398378 0
M  V30 1455 H 132.052 1.61956 0.120013 0
M  V30 1456 H 134.049 3.0334 2.8599 0
M  V30 1457 H 132.709 1.87558 2.65051 0
M  V30 1458 H 133.72 5.10784 0.855604 0
M  V30 1459 H 130.397 3.23856 2.63483 0
M  V30 1460 H 131.787 6.69699 0.543425 0
M  V30 1461 N 134.507 -0.190092 1.56449 0
M  V30 1462 C 135.755 -0.907908 1.80559 0
M  V30 1463 C 136.076 -1.83583 0.657438 0
M  V30 1464 O 135.346 -1.93203 -0.323924 0
M  V30 1465 H 133.926 -0.338247 0.666032 0
M  V30 1466 H 136.588 -0.194403 1.93928 0
M  V30 1467 H 135.684 -1.49604 2.73907 0
M  V30 1468 N 135.985 -1.50799 -0.457987 0
M  V30 1469 C 137.213 -1.66218 -1.23203 0
M  V30 1470 C 137.628 -0.350894 -1.85511 0
M  V30 1471 O 136.985 0.668546 -1.69814 0
M  V30 1472 C 137.036 -2.76291 -2.33121 0
M  V30 1473 O 136.757 -4.02338 -1.73366 0
M  V30 1474 C 138.258 -3.028 -3.2377 0
M  V30 1475 H 135.478 -0.558361 -0.372121 0
M  V30 1476 H 138.022 -1.97099 -0.545179 0
M  V30 1477 H 136.177 -2.48068 -2.97558 0
M  V30 1478 H 136.591 -4.63312 -2.4585 0
M  V30 1479 H 138.065 -3.8345 -3.97077 0
M  V30 1480 H 138.542 -2.14385 -3.83322 0
M  V30 1481 H 139.148 -3.32604 -2.65056 0
M  V30 1482 N 137.463 0.71206 -1.40597 0
M  V30 1483 C 138.711 1.46907 -1.38791 0
M  V30 1484 C 139.032 1.94998 0.00780391 0
M  V30 1485 O 138.302 1.70587 0.963174 0
M  V30 1486 H 136.882 0.545043 -0.51082 0
M  V30 1487 H 139.544 0.843882 -1.75683 0
M  V30 1488 H 138.64 2.34021 -2.06496 0
M  V30 1489 N 138.941 1.26152 0.944643 0
M  V30 1490 C 140.169 1.14259 1.72489 0
M  V30 1491 C 140.584 -0.302555 1.8636 0
M  V30 1492 O 139.941 -1.20741 1.36849 0
M  V30 1493 C 139.992 1.80266 3.13347 0
M  V30 1494 O 139.713 3.19133 3.00143 0
M  V30 1495 C 141.214 1.74283 4.07603 0
M  V30 1496 H 138.434 0.398051 0.540181 0
M  V30 1497 H 140.978 1.66706 1.18446 0
M  V30 1498 H 139.133 1.31766 3.64303 0
M  V30 1499 H 139.547 3.51744 3.89071 0
M  V30 1500 H 141.021 2.25111 5.04013 0
M  V30 1501 H 141.498 0.708631 4.33446 0
M  V30 1502 H 142.104 2.22319 3.62567 0
M  V30 1503 N 140.419 -1.14872 1.07899 0
M  V30 1504 C 141.667 -1.85422 0.803941 0
M  V30 1505 C 141.988 -1.83051 -0.67211 0
M  V30 1506 O 141.258 -1.27532 -1.48703 0
M  V30 1507 H 139.838 -0.686537 0.294408 0
M  V30 1508 H 142.5 -1.39226 1.3639 0
M  V30 1509 H 141.596 -2.90399 1.14346 0
M  V30 1510 N 141.898 -0.863906 -1.31812 0
M  V30 1511 C 143.123 -0.48527 -2.01643 0
M  V30 1512 C 143.548 0.913058 -1.64453 0
M  V30 1513 O 142.906 1.6014 -0.849985 0
M  V30 1514 C 142.954 -0.642625 -3.54828 0
M  V30 1515 O 142.058 0.320659 -4.11151 0
M  V30 1516 H 141.399 -0.193793 -0.635091 0
M  V30 1517 H 143.929 -1.16565 -1.68148 0
M  V30 1518 H 143.939 -0.533628 -4.04495 0
M  V30 1519 H 142.614 -1.66227 -3.81237 0
M  V30 1520 H 141.191 0.167126 -3.72525 0
M  V30 1521 N 143.376 1.44774 -0.622745 0
M  V30 1522 C 144.624 2.01721 -0.123655 0
M  V30 1523 C 144.945 1.49172 1.25589 0
M  V30 1524 O 144.215 0.691974 1.83272 0
M  V30 1525 H 142.795 0.745777 -0.0427225 0
M  V30 1526 H 145.457 1.77382 -0.807559 0
M  V30 1527 H 144.553 3.11984 -0.0849534 0
M  V30 1528 N 144.854 0.36279 1.53368 0
M  V30 1529 C 146.102 -0.227326 2.00817 0
M  V30 1530 C 146.423 -1.49511 1.25186 0
M  V30 1531 O 145.693 -1.92482 0.364348 0
M  V30 1532 H 144.273 -0.0869923 0.741917 0
M  V30 1533 H 146.935 0.488381 1.88682 0
M  V30 1534 H 146.031 -0.456273 3.08747 0
M  V30 1535 N 146.332 -1.57332 0.0918853 0
M  V30 1536 C 147.295 -2.12708 -0.85369 0
M  V30 1537 C 148.295 -1.05561 -1.213 0
M  V30 1538 O 149.485 -1.31461 -1.14296 0
M  V30 1539 C 146.617 -2.64503 -2.15061 0
M  V30 1540 H 147.81 -2.97573 -0.3729 0
M  V30 1541 H 145.363 -1.55509 -0.157072 0
M  V30 1542 H 146.098 -1.83149 -2.67632 0
M  V30 1543 H 145.883 -3.4284 -1.90272 0
M  V30 1544 H 147.373 -3.07351 -2.82711 0
M  V30 1545 N 147.81 0.181792 -1.56548 0
M  V30 1546 C 149.058 0.89832 -1.81038 0
M  V30 1547 C 149.379 1.83232 -0.667164 0
M  V30 1548 O 148.649 1.93372 0.313673 0
M  V30 1549 H 147.229 0.33471 -0.667816 0
M  V30 1550 H 149.891 0.184116 -1.94028 0
M  V30 1551 H 148.987 1.4815 -2.74696 0
M  V30 1552 N 149.288 1.51039 0.449983 0
M  V30 1553 C 150.536 1.62759 1.19808 0
M  V30 1554 C 150.857 0.339981 1.92013 0
M  V30 1555 O 150.127 -0.643606 1.85026 0
M  V30 1556 H 148.707 0.599811 0.445237 0
M  V30 1557 H 151.369 1.87914 0.517138 0
M  V30 1558 H 150.465 2.44911 1.93455 0
M  V30 1559 N 150.766 -0.704594 1.40972 0
M  V30 1560 C 152.014 -1.46169 1.39568 0
M  V30 1561 C 152.335 -1.95 0.00253745 0
M  V30 1562 O 151.605 -1.71095 -0.954114 0
M  V30 1563 H 150.185 -0.542326 0.513704 0
M  V30 1564 H 152.847 -0.834553 1.76128 0
M  V30 1565 H 151.943 -2.32922 2.07735 0
M  V30 1566 N 152.244 -1.26651 -0.937939 0
M  V30 1567 C 153.469 -1.15279 -1.72411 0
M  V30 1568 C 153.894 0.287866 -1.85884 0
M  V30 1569 O 153.252 1.20855 -1.35143 0
M  V30 1570 C 153.3 -1.83028 -3.10698 0
M  V30 1571 O 152.404 -1.12128 -3.96864 0
M  V30 1572 H 151.745 -0.401504 -0.528858 0
M  V30 1573 H 154.275 -1.67531 -1.1745 0
M  V30 1574 H 154.285 -1.89981 -3.6107 0
M  V30 1575 H 152.96 -2.87833 -3.00208 0
M  V30 1576 H 151.537 -1.13173 -3.55312 0
M  V30 1577 N 153.722 1.14298 -1.08507 0
M  V30 1578 C 154.947 1.8976 -0.837001 0
M  V30 1579 C 155.372 1.78097 0.605228 0
M  V30 1580 O 154.73 1.12188 1.4242 0
M  V30 1581 C 154.778 3.37685 -1.26495 0
M  V30 1582 O 153.882 4.10281 -0.417514 0
M  V30 1583 H 153.223 0.590365 -0.303917 0
M  V30 1584 H 155.753 1.44672 -1.44676 0
M  V30 1585 H 155.763 3.88501 -1.24625 0
M  V30 1586 H 154.438 3.45492 -2.31534 0
M  V30 1587 H 153.015 3.69536 -0.499722 0
M  V30 1588 N 155.201 0.870884 1.31352 0
M  V30 1589 C 156.617 0.562932 1.49343 0
M  V30 1590 C 156.817 -0.902725 1.80148 0
M  V30 1591 O 155.873 -1.68484 1.88067 0
M  V30 1592 C 157.186 1.46393 2.62659 0
M  V30 1593 C 158.734 1.46607 2.76542 0
M  V30 1594 C 159.209 2.35266 3.92955 0
M  V30 1595 N 160.7 2.33151 4.00243 0
M  V30 1596 C 161.435 2.98471 4.89594 0
M  V30 1597 N 160.931 3.72964 5.8384 0
M  V30 1598 N 162.724 2.87775 4.82848 0
M  V30 1599 H 154.875 1.81923 1.09626 0
M  V30 1600 H 157.138 0.777934 0.541777 0
M  V30 1601 H 156.844 2.50689 2.46674 0
M  V30 1602 H 156.718 1.16314 3.58819 0
M  V30 1603 H 159.105 0.43069 2.9194 0
M  V30 1604 H 159.186 1.8071 1.81046 0
M  V30 1605 H 158.83 3.38881 3.78315 0
M  V30 1606 H 158.76 1.98487 4.87761 0
M  V30 1607 H 161.251 1.79006 3.32814 0
M  V30 1608 H 161.564 4.19932 6.4875 0
M  V30 1609 H 159.909 3.77073 5.83816 0
M  V30 1610 H 163.1 2.29116 4.08195 0
M  V30 1611 H 163.273 3.38961 5.52277 0
M  V30 1612 N 156.679 -1.44442 0.630414 0
M  V30 1613 C 158.095 -1.56832 0.295973 0
M  V30 1614 C 158.295 -1.61806 -1.20088 0
M  V30 1615 O 157.351 -1.5607 -1.9849 0
M  V30 1616 C 158.664 -2.84031 0.987264 0
M  V30 1617 C 160.212 -2.97742 0.96534 0
M  V30 1618 C 160.687 -4.27743 1.63708 0
M  V30 1619 N 162.178 -4.34555 1.60364 0
M  V30 1620 C 162.913 -5.33862 2.09234 0
M  V30 1621 N 162.409 -6.39578 2.66292 0
M  V30 1622 N 164.202 -5.25366 1.99867 0
M  V30 1623 H 156.353 -1.39457 1.60205 0
M  V30 1624 H 158.616 -0.668237 0.672431 0
M  V30 1625 H 158.322 -2.86338 2.04215 0
M  V30 1626 H 158.196 -3.73534 0.524588 0
M  V30 1627 H 160.583 -2.94989 -0.0810639 0
M  V30 1628 H 160.664 -2.09589 1.4665 0
M  V30 1629 H 160.308 -4.31255 2.68293 0
M  V30 1630 H 160.238 -5.14752 1.11076 0
M  V30 1631 H 162.729 -3.58772 1.18705 0
M  V30 1632 H 163.042 -7.11637 3.01317 0
M  V30 1633 H 161.387 -6.40265 2.70343 0
M  V30 1634 H 164.578 -4.41688 1.55013 0
M  V30 1635 H 164.751 -6.02606 2.38265 0
M  V30 1636 N 158.157 -0.370918 -1.53173 0
M  V30 1637 C 159.404 0.217102 -2.01333 0
M  V30 1638 C 159.732 1.48338 -1.25802 0
M  V30 1639 O 158.987 1.92698 -0.34146 0
M  V30 1640 C 159.286 0.549696 -3.53147 0
M  V30 1641 C 158.952 -0.622872 -4.46577 0
M  V30 1642 C 157.614 -0.944595 -4.71838 0
M  V30 1643 C 159.966 -1.40819 -5.01816 0
M  V30 1644 C 157.294 -2.05351 -5.49589 0
M  V30 1645 C 159.646 -2.50757 -5.80778 0
M  V30 1646 C 158.31 -2.83458 -6.04324 0
M  V30 1647 H 157.58 0.0794431 -0.736729 0
M  V30 1648 H 160.227 -0.504481 -1.84736 0
M  V30 1649 H 158.532 1.35237 -3.6772 0
M  V30 1650 H 160.229 1.017 -3.87889 0
M  V30 1651 H 156.819 -0.36209 -4.27068 0
M  V30 1652 H 161.003 -1.17289 -4.82242 0
M  V30 1653 H 156.259 -2.3108 -5.6605 0
M  V30 1654 H 160.433 -3.12022 -6.22588 0
M  V30 1655 H 158.06 -3.69508 -6.64355 0
M  V30 1656 N 159.635 1.57281 -0.100228 0
M  V30 1657 C 160.545 2.17833 0.870965 0
M  V30 1658 C 161.561 1.14921 1.30649 0
M  V30 1659 O 162.737 1.47313 1.37335 0
M  V30 1660 C 159.802 2.75085 2.1102 0
M  V30 1661 C 158.863 3.9297 1.72838 0
M  V30 1662 C 158.096 4.47482 2.90854 0
M  V30 1663 O 158.319 4.00922 4.05731 0
M  V30 1664 O 157.253 5.38433 2.69023 0
M  V30 1665 H 161.079 3.0124 0.38575 0
M  V30 1666 H 158.664 1.48881 0.124397 0
M  V30 1667 H 160.546 3.11656 2.83634 0
M  V30 1668 H 159.221 1.94721 2.58584 0
M  V30 1669 H 158.128 3.61201 0.973883 0
M  V30 1670 H 159.461 4.74713 1.30033 0
M  V30 1671 N 161.113 -0.173488 1.56642 0
M  V30 1672 C 162.076 -1.19859 1.95362 0
M  V30 1673 C 163.076 -1.37296 0.83704 0
M  V30 1674 O 164.266 -1.34739 1.10413 0
M  V30 1675 C 161.398 -2.56405 2.24654 0
M  V30 1676 H 162.591 -0.867062 2.87092 0
M  V30 1677 H 160.144 -0.415853 1.50666 0
M  V30 1678 H 160.879 -2.94576 1.35631 0
M  V30 1679 H 160.664 -2.45115 3.06041 0
M  V30 1680 H 162.154 -3.30287 2.5554 0
M  V30 1681 N 162.591 -1.51276 -0.441967 0
M  V30 1682 C 163.501 -1.75092 -1.56141 0
M  V30 1683 C 164.517 -0.634963 -1.62001 0
M  V30 1684 O 165.693 -0.916686 -1.79329 0
M  V30 1685 C 162.758 -1.86666 -2.92158 0
M  V30 1686 C 161.819 -3.10506 -2.96453 0
M  V30 1687 C 161.052 -3.21519 -4.25982 0
M  V30 1688 O 161.275 -2.38586 -5.18105 0
M  V30 1689 O 160.209 -4.14465 -4.36466 0
M  V30 1690 H 164.035 -2.70044 -1.38961 0
M  V30 1691 H 161.62 -1.35722 -0.624499 0
M  V30 1692 H 163.502 -1.96292 -3.72891 0
M  V30 1693 H 162.177 -0.949014 -3.09476 0
M  V30 1694 H 161.084 -3.06363 -2.14692 0
M  V30 1695 H 162.417 -4.01945 -2.84079 0
M  V30 1696 N 164.069 0.697108 -1.41344 0
M  V30 1697 C 165.017 1.83237 -1.43272 0
M  V30 1698 C 166.011 1.66522 -0.310947 0
M  V30 1699 O 167.217 1.73402 -0.482899 0
M  V30 1700 H 163.592 0.603802 -0.448249 0
M  V30 1701 H 165.563 1.78727 -2.38954 0
M  V30 1702 C 164.312 3.21245 -1.33029 0
M  V30 1703 H 163.635 3.34723 -2.18633 0
M  V30 1704 H 165.075 4.00763 -1.38439 0
M  V30 1705 C 163.534 3.36873 -0.0424635 0
M  V30 1706 O 164.064 3.91177 0.913421 0
M  V30 1707 N 162.27 2.90581 0.0331145 0
M  V30 1708 H 161.817 2.46577 -0.745506 0
M  V30 1709 H 161.775 3.01416 0.894199 0
M  V30 1710 N 165.547 1.27147 0.931209 0
M  V30 1711 C 166.795 1.13055 1.6752 0
M  V30 1712 C 167.116 -0.324791 1.92276 0
M  V30 1713 O 166.386 -1.22775 1.52654 0
M  V30 1714 H 164.966 0.415391 0.620854 0
M  V30 1715 H 167.628 1.59623 1.11833 0
M  V30 1716 H 166.724 1.65694 2.64485 0
M  V30 1717 N 167.025 -1.13721 1.09112 0
M  V30 1718 C 168.436 -1.6648 0.845068 0
M  V30 1719 C 168.787 -1.85911 -0.62701 0
M  V30 1720 O 167.912 -1.57556 -1.48341 0
M  V30 1721 C 168.507 -3.02413 1.52748 0
M  V30 1722 C 167.066 -3.52176 1.32849 0
M  V30 1723 C 166.213 -2.27492 1.58564 0
M  V30 1724 H 169.164 -0.976872 1.25072 0
M  V30 1725 H 169.185 -3.68223 0.958752 0
M  V30 1726 H 168.697 -2.88238 2.59885 0
M  V30 1727 H 166.798 -3.7156 0.278137 0
M  V30 1728 H 166.911 -4.32499 2.0611 0
M  V30 1729 H 165.275 -2.33923 1.00758 0
M  V30 1730 H 166.058 -2.15886 2.66924 0
M  V30 1731 N 168.503 -0.877838 -1.30888 0
M  V30 1732 C 169.731 -0.507414 -2.00581 0
M  V30 1733 C 170.146 0.902216 -1.65848 0
M  V30 1734 O 169.503 1.59225 -0.891831 0
M  V30 1735 C 169.554 -0.664162 -3.55347 0
M  V30 1736 O 169.275 -2.01829 -3.8884 0
M  V30 1737 C 170.776 -0.295787 -4.42312 0
M  V30 1738 H 167.996 -0.196866 -0.641471 0
M  V30 1739 H 170.54 -1.18117 -1.66939 0
M  V30 1740 H 168.695 -0.0378619 -3.87381 0
M  V30 1741 H 169.109 -2.03174 -4.8355 0
M  V30 1742 H 170.583 -0.456388 -5.5011 0
M  V30 1743 H 171.06 0.765663 -4.32475 0
M  V30 1744 H 171.666 -0.898113 -4.15709 0
M  V30 1745 N 169.982 1.44106 -0.638065 0
M  V30 1746 C 171.393 1.85316 -0.226894 0
M  V30 1747 C 171.744 1.53399 1.22324 0
M  V30 1748 O 170.869 0.975463 1.93167 0
M  V30 1749 C 171.464 3.3637 -0.405013 0
M  V30 1750 C 170.023 3.76369 -0.0482902 0
M  V30 1751 C 169.17 2.67921 -0.715108 0
M  V30 1752 H 172.121 1.34474 -0.842764 0
M  V30 1753 H 172.142 3.7885 0.354 0
M  V30 1754 H 171.654 3.59569 -1.46053 0
M  V30 1755 H 169.755 3.58784 1.00522 0
M  V30 1756 H 169.868 4.76856 -0.463187 0
M  V30 1757 H 168.232 2.54259 -0.149753 0
M  V30 1758 H 169.015 2.93951 -1.77335 0
M  V30 1759 N 171.46 0.379036 1.52974 0
M  V30 1760 C 172.685 -0.209353 2.06341 0
M  V30 1761 C 173.11 -1.40583 1.24972 0
M  V30 1762 O 172.468 -1.79246 0.272155 0
M  V30 1763 C 172.516 -0.567786 3.56102 0
M  V30 1764 O 171.62 -1.66318 3.77375 0
M  V30 1765 H 170.961 -0.0272919 0.663439 0
M  V30 1766 H 173.491 0.543536 1.97248 0
M  V30 1767 H 173.501 -0.835003 3.99364 0
M  V30 1768 H 172.176 0.307013 4.14765 0
M  V30 1769 H 170.753 -1.39048 3.46006 0
M  V30 1770 N 172.938 -1.57226 0.108567 0
M  V30 1771 C 174.349 -1.8195 -0.418464 0
M  V30 1772 C 174.7 -1.02508 -1.67292 0
M  V30 1773 O 173.825 -0.258496 -2.14851 0
M  V30 1774 C 174.42 -3.30028 -0.765979 0
M  V30 1775 C 172.979 -3.55469 -1.23769 0
M  V30 1776 C 172.126 -2.7625 -0.241106 0
M  V30 1777 H 175.077 -1.55149 0.33384 0
M  V30 1778 H 175.098 -3.44086 -1.62434 0
M  V30 1779 H 174.61 -3.87821 0.147219 0
M  V30 1780 H 172.711 -3.03022 -2.16814 0
M  V30 1781 H 172.824 -4.6408 -1.19022 0
M  V30 1782 H 171.188 -2.44133 -0.72602 0
M  V30 1783 H 171.971 -3.36797 0.665007 0
M  V30 1784 N 174.416 0.165178 -1.56732 0
M  V30 1785 C 175.664 0.879068 -1.8198 0
M  V30 1786 C 175.985 1.82514 -0.686561 0
M  V30 1787 O 175.255 1.93694 0.293146 0
M  V30 1788 H 173.835 0.327608 -0.671329 0
M  V30 1789 H 176.497 0.163526 -1.94213 0
M  V30 1790 H 175.593 1.45228 -2.76252 0
M  V30 1791 N 175.894 1.51508 0.433938 0
M  V30 1792 C 177.31 1.39759 0.770682 0
M  V30 1793 C 177.51 0.482594 1.95636 0
M  V30 1794 O 176.566 -0.0609691 2.52426 0
M  V30 1795 C 177.879 2.81851 1.04787 0
M  V30 1796 C 179.427 2.91025 1.1521 0
M  V30 1797 C 179.902 4.34032 1.46219 0
M  V30 1798 N 181.393 4.37154 1.53136 0
M  V30 1799 C 182.128 5.4484 1.78709 0
M  V30 1800 N 181.624 6.62682 2.02051 0
M  V30 1801 N 183.417 5.32324 1.80519 0
M  V30 1802 H 175.568 2.09548 -0.346892 0
M  V30 1803 H 177.831 0.943446 -0.0928074 0
M  V30 1804 H 177.537 3.50815 0.249304 0
M  V30 1805 H 177.411 3.21386 1.97461 0
M  V30 1806 H 179.798 2.22257 1.94128 0
M  V30 1807 H 179.879 2.54983 0.204281 0
M  V30 1808 H 179.523 5.03351 0.678274 0
M  V30 1809 H 179.453 4.6759 2.42212 0
M  V30 1810 H 181.944 3.52197 1.36987 0
M  V30 1811 H 182.257 7.40543 2.20943 0
M  V30 1812 H 180.602 6.65791 1.99366 0
M  V30 1813 H 183.793 4.39246 1.61805 0
M  V30 1814 H 183.966 6.16328 2.00111 0
M  V30 1815 N 177.372 -0.689602 1.41712 0
M  V30 1816 C 178.597 -1.48329 1.44959 0
M  V30 1817 C 179.022 -1.8801 0.0581283 0
M  V30 1818 O 178.38 -1.55026 -0.940035 0
M  V30 1819 C 178.428 -2.71835 2.36935 0
M  V30 1820 O 177.532 -3.69549 1.8305 0
M  V30 1821 H 176.873 -0.446199 0.491734 0
M  V30 1822 H 179.403 -0.847127 1.86239 0
M  V30 1823 H 179.413 -3.20076 2.53013 0
M  V30 1824 H 178.088 -2.42291 3.38035 0
M  V30 1825 H 176.665 -3.2851 1.76452 0
M  V30 1826 N 178.85 -1.27639 -0.924453 0
M  V30 1827 C 180.261 -1.12834 -1.48746 0
M  V30 1828 C 180.612 0.285505 -1.94112 0
M  V30 1829 O 179.737 1.17874 -1.81479 0
M  V30 1830 C 180.332 -2.04217 -2.70334 0
M  V30 1831 C 178.891 -1.93509 -3.22848 0
M  V30 1832 C 178.038 -1.96583 -1.95577 0
M  V30 1833 H 180.989 -1.40484 -0.738233 0
M  V30 1834 H 181.01 -1.59989 -3.4523 0
M  V30 1835 H 180.522 -3.07111 -2.37285 0
M  V30 1836 H 178.623 -0.936131 -3.60649 0
M  V30 1837 H 178.736 -2.79917 -3.88823 0
M  V30 1838 H 177.1 -1.4085 -2.12211 0
M  V30 1839 H 177.883 -3.01137 -1.64837 0
M  V30 1840 N 180.328 1.1314 -1.09713 0
M  V30 1841 C 181.258 2.20748 -0.761102 0
M  V30 1842 C 182.239 1.68061 0.262566 0
M  V30 1843 O 183.424 1.93765 0.129977 0
M  V30 1844 C 180.554 3.46812 -0.184054 0
M  V30 1845 C 179.508 4.12606 -1.13757 0
M  V30 1846 C 178.834 5.33031 -0.422083 0
M  V30 1847 C 180.134 4.59603 -2.48118 0
M  V30 1848 H 181.828 2.49113 -1.66082 0
M  V30 1849 H 179.374 1.19734 -0.799987 0
M  V30 1850 H 181.327 4.21353 0.0631215 0
M  V30 1851 H 180.051 3.17851 0.750868 0
M  V30 1852 H 178.71 3.40036 -1.37007 0
M  V30 1853 H 178.358 5.00335 0.517072 0
M  V30 1854 H 178.058 5.77999 -1.05788 0
M  V30 1855 H 179.582 6.10325 -0.183277 0
M  V30 1856 H 180.996 5.25552 -2.29059 0
M  V30 1857 H 179.393 5.15321 -3.07514 0
M  V30 1858 H 180.463 3.73971 -3.08665 0
M  V30 1859 N 181.806 0.884767 1.30421 0
M  V30 1860 C 183.083 0.423185 1.90967 0
M  V30 1861 C 183.463 -1.09605 1.80416 0
M  V30 1862 O 182.811 -1.93126 1.22125 0
M  V30 1863 C 183.021 0.921056 3.36627 0
M  V30 1864 C 184.369 0.955903 4.137 0
M  V30 1865 O 185.393 0.867706 3.4547 0
M  V30 1866 O 184.252 1.08614 5.35598 0
M  V30 1867 H 181.346 0.129369 0.816819 0
M  V30 1868 H 183.892 0.973653 1.3899 0
M  V30 1869 H 182.664 1.96489 3.3839 0
M  V30 1870 H 182.287 0.349741 3.96059 0
M  V30 1871 N 183.284 -1.43765 0.645699 0
M  V30 1872 C 184.509 -2.06767 0.161883 0
M  V30 1873 C 184.934 -1.48034 -1.16049 0
M  V30 1874 O 184.292 -0.587369 -1.71522 0
M  V30 1875 C 184.34 -3.60519 0.0762003 0
M  V30 1876 O 183.444 -4.00982 -0.963721 0
M  V30 1877 H 182.785 -0.657675 0.091429 0
M  V30 1878 H 185.315 -1.84397 0.886499 0
M  V30 1879 H 185.325 -4.07853 -0.109604 0
M  V30 1880 H 184 -4.02646 1.04157 0
M  V30 1881 H 182.577 -3.65253 -0.751312 0
M  V30 1882 N 184.763 -0.387143 -1.52771 0
M  V30 1883 C 185.695 0.484089 -2.2403 0
M  V30 1884 C 186.708 1.02849 -1.26198 0
M  V30 1885 O 187.897 0.931186 -1.52286 0
M  V30 1886 C 184.997 1.68337 -2.94136 0
M  V30 1887 C 184.17 1.26672 -4.18656 0
M  V30 1888 C 183.229 2.33045 -4.7178 0
M  V30 1889 O 182.255 1.94541 -5.34923 0
M  V30 1890 N 183.457 3.64929 -4.5145 0
M  V30 1891 H 186.222 -0.126404 -2.99433 0
M  V30 1892 H 183.783 -0.213392 -1.60488 0
M  V30 1893 H 185.775 2.39019 -3.26577 0
M  V30 1894 H 184.345 2.20025 -2.22053 0
M  V30 1895 H 183.565 0.388878 -3.92277 0
M  V30 1896 H 184.853 0.964964 -4.99566 0
M  V30 1897 H 184.251 3.98974 -4.01044 0
M  V30 1898 H 182.808 4.31651 -4.88386 0
M  V30 1899 N 186.241 1.57166 -0.116904 0
M  V30 1900 C 187.204 2.14039 0.819742 0
M  V30 1901 C 188.204 1.07477 1.19605 0
M  V30 1902 O 189.394 1.33263 1.1219 0
M  V30 1903 C 186.526 2.67891 2.10826 0
M  V30 1904 H 187.719 2.98128 0.325511 0
M  V30 1905 H 185.272 1.55739 0.132312 0
M  V30 1906 H 186.007 1.87384 2.64685 0
M  V30 1907 H 185.792 3.45823 1.84793 0
M  V30 1908 H 187.282 3.11809 2.77785 0
M  V30 1909 N 187.719 -0.156864 1.56817 0
M  V30 1910 C 188.944 -0.890331 1.87318 0
M  V30 1911 C 189.369 -1.74394 0.704855 0
M  V30 1912 O 188.727 -1.77972 -0.345786 0
M  V30 1913 C 188.775 -1.73102 3.16336 0
M  V30 1914 O 187.879 -2.83422 2.99576 0
M  V30 1915 H 187.22 -0.24857 0.615718 0
M  V30 1916 H 189.75 -0.150649 2.04045 0
M  V30 1917 H 189.76 -2.12803 3.48107 0
M  V30 1918 H 188.435 -1.10412 4.00976 0
M  V30 1919 H 187.012 -2.47199 2.7919 0
M  V30 1920 N 189.197 -1.51736 -0.425897 0
M  V30 1921 C 190.608 -1.5732 -1.00536 0
M  V30 1922 C 190.959 -0.403537 -1.92005 0
M  V30 1923 O 190.084 0.478256 -2.11049 0
M  V30 1924 C 190.679 -2.85119 -1.8301 0
M  V30 1925 C 189.238 -2.93236 -2.35987 0
M  V30 1926 C 188.385 -2.52098 -1.15508 0
M  V30 1927 H 191.336 -1.57348 -0.206739 0
M  V30 1928 H 191.357 -2.69526 -2.68581 0
M  V30 1929 H 190.869 -3.7023 -1.16411 0
M  V30 1930 H 188.97 -2.12581 -3.06007 0
M  V30 1931 H 189.083 -3.9713 -2.68001 0
M  V30 1932 H 187.447 -2.05558 -1.50393 0
M  V30 1933 H 188.23 -3.39565 -0.505014 0
M  V30 1934 N 190.675 0.682077 -1.42076 0
M  V30 1935 C 191.923 1.4393 -1.41876 0
M  V30 1936 C 192.244 1.94971 -0.0335599 0
M  V30 1937 O 191.514 1.72591 0.926773 0
M  V30 1938 H 190.094 0.534085 -0.522267 0
M  V30 1939 H 192.756 0.806427 -1.77434 0
M  V30 1940 H 191.852 2.29588 -2.11414 0
M  V30 1941 N 192.153 1.28127 0.917671 0
M  V30 1942 C 193.083 1.14248 2.03641 0
M  V30 1943 C 194.064 0.0412748 1.7005 0
M  V30 1944 O 195.249 0.217566 1.92977 0
M  V30 1945 C 192.379 0.799431 3.37974 0
M  V30 1946 C 191.333 1.85497 3.85713 0
M  V30 1947 C 190.659 1.36565 5.16966 0
M  V30 1948 C 191.959 3.26085 4.08002 0
M  V30 1949 H 193.653 2.07835 2.15511 0
M  V30 1950 H 191.199 1.00064 1.03553 0
M  V30 1951 H 193.152 0.689114 4.15727 0
M  V30 1952 H 191.876 -0.172145 3.26146 0
M  V30 1953 H 190.535 1.95437 3.10161 0
M  V30 1954 H 190.183 0.383253 5.01538 0
M  V30 1955 H 189.883 2.07143 5.49878 0
M  V30 1956 H 191.407 1.26848 5.97279 0
M  V30 1957 H 192.821 3.19089 4.76293 0
M  V30 1958 H 191.218 3.94462 4.52238 0
M  V30 1959 H 192.288 3.70394 3.12948 0
M  V30 1960 N 193.631 -1.12557 1.10312 0
M  V30 1961 C 194.877 -1.84311 0.846011 0
M  V30 1962 C 195.21 -1.83805 -0.626859 0
M  V30 1963 O 194.485 -1.28268 -1.46211 0
M  V30 1964 C 194.768 -3.32048 1.39341 0
M  V30 1965 C 194.621 -3.41016 2.93305 0
M  V30 1966 C 195.94 -4.27764 1.03468 0
M  V30 1967 H 193.059 -0.669192 0.30879 0
M  V30 1968 H 195.701 -1.32057 1.36605 0
M  V30 1969 H 193.851 -3.76678 0.951087 0
M  V30 1970 H 195.523 -3.05031 3.46055 0
M  V30 1971 H 193.766 -2.81603 3.29973 0
M  V30 1972 H 194.437 -4.44948 3.26689 0
M  V30 1973 H 196.913 -3.91253 1.41633 0
M  V30 1974 H 195.789 -5.29549 1.44463 0
M  V30 1975 H 196.05 -4.42064 -0.0560404 0
M  V30 1976 N 195.109 -0.891671 -1.2995 0
M  V30 1977 C 196.039 -0.379797 -2.30391 0
M  V30 1978 C 197.02 0.540919 -1.6127 0
M  V30 1979 O 198.205 0.453352 -1.88834 0
M  V30 1980 C 195.335 0.400654 -3.44981 0
M  V30 1981 C 194.289 -0.428905 -4.25846 0
M  V30 1982 C 193.615 0.478557 -5.32554 0
M  V30 1983 C 194.915 -1.67458 -4.94727 0
M  V30 1984 H 196.609 -1.21914 -2.73454 0
M  V30 1985 H 194.155 -0.587675 -1.31462 0
M  V30 1986 H 196.108 0.769434 -4.14316 0
M  V30 1987 H 194.832 1.27371 -3.0074 0
M  V30 1988 H 193.491 -0.779911 -3.58208 0
M  V30 1989 H 193.139 1.34951 -4.84559 0
M  V30 1990 H 192.839 -0.0727433 -5.87555 0
M  V30 1991 H 194.363 0.843705 -6.04743 0
M  V30 1992 H 195.777 -1.376 -5.56542 0
M  V30 1993 H 194.174 -2.16659 -5.59624 0
M  V30 1994 H 195.244 -2.41518 -4.20473 0
M  V30 1995 N 196.587 1.43421 -0.653314 0
M  V30 1996 C 197.537 2.2792 0.060558 0
M  V30 1997 C 198.521 1.39906 0.794677 0
M  V30 1998 O 199.713 1.63536 0.677128 0
M  V30 1999 C 196.842 3.27603 1.0262 0
M  V30 2000 C 195.928 4.23104 0.290551 0
M  V30 2001 N 196.319 5.01031 -0.692967 0
M  V30 2002 C 194.617 4.42816 0.531984 0
M  V30 2003 C 195.318 5.70626 -1.12963 0
M  V30 2004 N 194.294 5.41617 -0.463867 0
M  V30 2005 H 198.096 2.85585 -0.694143 0
M  V30 2006 H 195.61 1.55126 -0.480602 0
M  V30 2007 H 197.607 3.86918 1.55242 0
M  V30 2008 H 196.267 2.71499 1.78096 0
M  V30 2009 H 197.278 5.0669 -1.07169 0
M  V30 2010 H 193.955 3.97782 1.26791 0
M  V30 2011 H 195.345 6.4318 -1.94343 0
M  V30 2012 N 198.065 0.39524 1.52563 0
M  V30 2013 C 199.028 -0.425001 2.25225 0
M  V30 2014 C 200.028 -0.985266 1.27079 0
M  V30 2015 O 201.218 -0.866332 1.5113 0
M  V30 2016 C 198.35 -1.59686 3.01186 0
M  V30 2017 H 199.543 0.211233 2.99155 0
M  V30 2018 H 197.096 0.147472 1.55603 0
M  V30 2019 H 197.831 -2.27035 2.31572 0
M  V30 2020 H 197.616 -1.20176 3.73229 0
M  V30 2021 H 199.106 -2.17743 3.5634 0
M  V30 2022 N 199.544 -1.57102 0.125237 0
M  V30 2023 C 200.792 -1.95021 -0.530198 0
M  V30 2024 C 201.113 -1.00982 -1.66816 0
M  V30 2025 O 200.383 -0.0672693 -1.95784 0
M  V30 2026 H 198.963 -0.720046 -0.198853 0
M  V30 2027 H 201.625 -1.93916 0.19564 0
M  V30 2028 H 200.721 -2.98211 -0.920681 0
M  V30 2029 N 201.022 0.148545 -1.56898 0
M  V30 2030 C 201.985 1.16736 -1.97244 0
M  V30 2031 C 202.985 1.35947 -0.858777 0
M  V30 2032 O 204.175 1.32966 -1.12542 0
M  V30 2033 C 201.307 2.52798 -2.28705 0
M  V30 2034 H 202.5 0.821279 -2.88435 0
M  V30 2035 H 200.053 0.391831 -1.51309 0
M  V30 2036 H 200.788 2.92381 -1.403 0
M  V30 2037 H 200.573 2.40216 -3.09901 0
M  V30 2038 H 202.063 3.26179 -2.60762 0
M  V30 2039 N 202.5 1.5196 0.417844 0
M  V30 2040 C 203.463 1.74065 1.49111 0
M  V30 2041 C 204.463 0.610537 1.48758 0
M  V30 2042 O 205.653 0.87832 1.50437 0
M  V30 2043 C 202.785 1.81502 2.88565 0
M  V30 2044 H 203.978 2.69869 1.30807 0
M  V30 2045 H 201.531 1.42244 0.647785 0
M  V30 2046 H 202.266 0.875813 3.1225 0
M  V30 2047 H 202.051 2.63651 2.90225 0
M  V30 2048 H 203.541 2.00376 3.66387 0
M  V30 2049 N 203.978 -0.674533 1.42435 0
M  V30 2050 C 205.206 -1.46283 1.46317 0
M  V30 2051 C 205.621 -1.88653 0.0745836 0
M  V30 2052 O 204.978 -1.58151 -0.91074 0
M  V30 2053 C 205.029 -2.71178 2.3905 0
M  V30 2054 O 204.75 -2.30586 3.72507 0
M  V30 2055 C 206.251 -3.64738 2.51955 0
M  V30 2056 H 203.471 -0.450104 0.497642 0
M  V30 2057 H 206.015 -0.828792 1.86953 0
M  V30 2058 H 204.17 -3.3077 2.01667 0
M  V30 2059 H 204.584 -3.11241 4.22172 0
M  V30 2060 H 206.058 -4.49096 3.20962 0
M  V30 2061 H 206.535 -4.10656 1.55752 0
M  V30 2062 H 207.141 -3.11038 2.90061 0
M  V30 2063 N 205.456 -1.28612 -0.910864 0
M  V30 2064 C 206.681 -1.1891 -1.69927 0
M  V30 2065 C 207.106 0.248372 -1.86453 0
M  V30 2066 O 206.464 1.17961 -1.37676 0
M  V30 2067 C 206.512 -1.89578 -3.06745 0
M  V30 2068 O 205.616 -1.20521 -3.94396 0
M  V30 2069 H 204.957 -0.412632 -0.520222 0
M  V30 2070 H 207.487 -1.69985 -1.1387 0
M  V30 2071 H 207.497 -1.97597 -3.56958 0
M  V30 2072 H 206.172 -2.94136 -2.94035 0
M  V30 2073 H 204.749 -1.20684 -3.52831 0
M  V30 2074 N 206.934 1.1197 -1.10907 0
M  V30 2075 C 207.866 2.17592 -0.720175 0
M  V30 2076 C 208.879 1.60938 0.245495 0
M  V30 2077 O 210.068 1.78476 0.0292245 0
M  V30 2078 C 207.168 3.38873 -0.0427917 0
M  V30 2079 C 206.341 4.25006 -1.03388 0
M  V30 2080 C 205.4 5.24774 -0.387075 0
M  V30 2081 O 204.426 5.59631 -1.03934 0
M  V30 2082 N 205.628 5.74208 0.852407 0
M  V30 2083 H 208.393 2.51567 -1.62893 0
M  V30 2084 H 205.954 1.27439 -0.998543 0
M  V30 2085 H 207.946 4.02703 0.401501 0
M  V30 2086 H 206.516 3.03007 0.768456 0
M  V30 2087 H 205.736 3.57716 -1.65629 0
M  V30 2088 H 207.024 4.79397 -1.70458 0
M  V30 2089 H 206.422 5.48062 1.40161 0
M  V30 2090 H 204.979 6.39901 1.23977 0
M  V30 2091 N 208.412 0.89855 1.29475 0
M  V30 2092 C 209.828 0.594483 1.48115 0
M  V30 2093 C 210.028 -0.86431 1.82022 0
M  V30 2094 O 209.084 -1.64457 1.91599 0
M  V30 2095 C 210.397 1.51932 2.59494 0
M  V30 2096 C 211.945 1.5244 2.7337 0
M  V30 2097 C 212.42 2.43548 3.87877 0
M  V30 2098 N 213.911 2.41589 3.95208 0
M  V30 2099 C 214.646 3.08789 4.83153 0
M  V30 2100 N 214.142 3.85265 5.75798 0
M  V30 2101 N 215.935 2.97952 4.76635 0
M  V30 2102 H 208.086 1.84207 1.05742 0
M  V30 2103 H 210.349 0.789251 0.525154 0
M  V30 2104 H 210.055 2.55865 2.41301 0
M  V30 2105 H 209.929 1.23899 3.56271 0
M  V30 2106 H 212.316 0.492518 2.90961 0
M  V30 2107 H 212.397 1.8451 1.77172 0
M  V30 2108 H 212.041 3.46829 3.71041 0
M  V30 2109 H 211.971 2.08788 4.83441 0
M  V30 2110 H 214.462 1.86025 3.28943 0
M  V30 2111 H 214.775 4.33598 6.39697 0
M  V30 2112 H 213.12 3.89371 5.75687 0
M  V30 2113 H 216.311 2.37723 4.03244 0
M  V30 2114 H 216.484 3.50599 5.44962 0
M  V30 2115 N 209.89 -1.43072 0.660911 0
M  V30 2116 C 211.306 -1.56169 0.329173 0
M  V30 2117 C 211.506 -1.64317 -1.16629 0
M  V30 2118 O 210.562 -1.60245 -1.95135 0
M  V30 2119 C 211.875 -2.81873 1.04729 0
M  V30 2120 C 213.423 -2.95627 1.02828 0
M  V30 2121 C 213.898 -4.24174 1.72744 0
M  V30 2122 N 215.389 -4.31055 1.69545 0
M  V30 2123 C 216.124 -5.29304 2.20511 0
M  V30 2124 N 215.62 -6.33786 2.79799 0
M  V30 2125 N 217.413 -5.21008 2.10966 0
M  V30 2126 H 209.564 -1.36027 1.63127 0
M  V30 2127 H 211.827 -0.653823 0.686454 0
M  V30 2128 H 211.533 -2.81942 2.10242 0
M  V30 2129 H 211.407 -3.72338 0.603702 0
M  V30 2130 H 213.794 -2.95094 -0.0184742 0
M  V30 2131 H 213.875 -2.06431 1.51063 0
M  V30 2132 H 213.519 -4.25467 2.7738 0
M  V30 2133 H 213.449 -5.1228 1.2197 0
M  V30 2134 H 215.94 -3.56174 1.26288 0
M  V30 2135 H 216.253 -7.05086 3.16344 0
M  V30 2136 H 214.598 -6.34387 2.83863 0
M  V30 2137 H 217.789 -4.38301 1.64347 0
M  V30 2138 H 217.962 -5.97416 2.50993 0
M  V30 2139 N 211.368 -0.403325 -1.52352 0
M  V30 2140 C 212.278 0.432009 -2.30588 0
M  V30 2141 C 213.294 1.05884 -1.38075 0
M  V30 2142 O 214.47 1.06161 -1.71148 0
M  V30 2143 C 211.535 1.53669 -3.10784 0
M  V30 2144 C 210.596 0.933525 -4.19027 0
M  V30 2145 C 209.829 1.98557 -4.9539 0
M  V30 2146 O 210.052 3.20283 -4.71991 0
M  V30 2147 O 208.986 1.59504 -5.80381 0
M  V30 2148 H 212.812 -0.205739 -3.03002 0
M  V30 2149 H 210.397 -0.166675 -1.48467 0
M  V30 2150 H 212.279 2.17814 -3.60742 0
M  V30 2151 H 210.954 2.15915 -2.41169 0
M  V30 2152 H 209.861 0.254954 -3.7323 0
M  V30 2153 H 211.194 0.35508 -4.90918 0
M  V30 2154 N 212.846 1.57033 -0.133567 0
M  V30 2155 C 214.071 2.00475 0.531477 0
M  V30 2156 C 214.496 1.01291 1.58499 0
M  V30 2157 O 213.854 -0.0133279 1.81295 0
M  V30 2158 C 213.902 3.42729 1.12113 0
M  V30 2159 O 213.006 3.46498 2.23636 0
M  V30 2160 H 212.347 0.650876 0.131362 0
M  V30 2161 H 214.877 2.03344 -0.22634 0
M  V30 2162 H 214.887 3.81246 1.4531 0
M  V30 2163 H 213.562 4.14428 0.349557 0
M  V30 2164 H 212.139 3.19811 1.91769 0
M  V30 2165 N 214.325 -0.140222 1.56975 0
M  V30 2166 C 215.572 -0.851687 1.83719 0
M  V30 2167 C 215.9 -1.80862 0.715485 0
M  V30 2168 O 215.155 -1.93464 -0.294956 0
M  V30 2169 C 215.454 -1.65386 3.16832 0
M  V30 2170 C 215.12 -0.843112 4.42947 0
M  V30 2171 C 213.782 -0.619464 4.77196 0
M  V30 2172 C 216.134 -0.276582 5.20466 0
M  V30 2173 C 213.462 0.181312 5.8642 0
M  V30 2174 C 215.814 0.51127 6.30531 0
M  V30 2175 C 214.478 0.745432 6.63325 0
M  V30 2176 H 213.748 -0.311654 0.672274 0
M  V30 2177 H 216.395 -0.115006 1.91154 0
M  V30 2178 H 214.7 -2.46084 3.04877 0
M  V30 2179 H 216.397 -2.20793 3.34741 0
M  V30 2180 H 212.987 -1.0275 4.16101 0
M  V30 2181 H 217.171 -0.436632 4.94376 0
M  V30 2182 H 212.427 0.372165 6.10266 0
M  V30 2183 H 216.601 0.957354 6.89788 0
M  V30 2184 H 214.228 1.36778 7.47794 0
M  V30 2185 N 215.803 -1.52179 -0.40978 0
M  V30 2186 C 216.733 -1.78435 -1.5061 0
M  V30 2187 C 217.714 -0.635295 -1.57791 0
M  V30 2188 O 218.899 -0.880823 -1.73076 0
M  V30 2189 C 216.029 -1.93444 -2.88439 0
M  V30 2190 C 214.983 -3.09038 -2.96108 0
M  V30 2191 C 214.309 -3.09268 -4.36185 0
M  V30 2192 C 215.609 -4.48508 -2.67652 0
M  V30 2193 H 217.303 -2.70237 -1.28889 0
M  V30 2194 H 214.849 -1.30036 -0.618605 0
M  V30 2195 H 216.802 -2.10394 -3.65119 0
M  V30 2196 H 215.526 -0.983129 -3.11452 0
M  V30 2197 H 214.185 -2.91837 -2.21872 0
M  V30 2198 H 213.833 -2.11861 -4.56206 0
M  V30 2199 H 213.533 -3.86907 -4.42241 0
M  V30 2200 H 215.057 -3.28348 -5.14801 0
M  V30 2201 H 216.471 -4.65918 -3.34056 0
M  V30 2202 H 214.868 -5.28059 -2.85085 0
M  V30 2203 H 215.938 -4.56649 -1.63095 0
M  V30 2204 N 217.281 0.66697 -1.42791 0
M  V30 2205 C 218.511 1.45294 -1.46878 0
M  V30 2206 C 218.919 1.89027 -0.0809861 0
M  V30 2207 O 218.262 1.59219 0.916246 0
M  V30 2208 C 218.324 2.72908 -2.34012 0
M  V30 2209 C 217.988 2.51203 -3.81767 0
M  V30 2210 C 218.985 2.15302 -4.73224 0
M  V30 2211 C 216.67 2.65954 -4.26115 0
M  V30 2212 C 218.664 1.94431 -6.07022 0
M  V30 2213 C 216.351 2.44699 -5.59969 0
M  V30 2214 C 217.349 2.08992 -6.5024 0
M  V30 2215 O 217.037 1.87948 -7.81621 0
M  V30 2216 H 216.769 0.453306 -0.501487 0
M  V30 2217 H 219.323 0.826232 -1.88049 0
M  V30 2218 H 217.553 3.38089 -1.87703 0
M  V30 2219 H 219.242 3.34816 -2.29462 0
M  V30 2220 H 220.008 2.03495 -4.40244 0
M  V30 2221 H 215.887 2.92724 -3.56137 0
M  V30 2222 H 219.431 1.66484 -6.77443 0
M  V30 2223 H 215.328 2.56105 -5.9252 0
M  V30 2224 H 216.096 2.02483 -7.93059 0
M  V30 2225 N 218.759 1.29093 0.90403 0
M  V30 2226 C 220.175 1.07011 1.1841 0
M  V30 2227 C 220.375 -0.181358 2.00682 0
M  V30 2228 O 219.431 -0.880331 2.36657 0
M  V30 2229 C 220.744 2.32311 1.90924 0
M  V30 2230 C 222.292 2.37587 2.03768 0
M  V30 2231 C 222.767 3.62679 2.79693 0
M  V30 2232 N 224.258 3.63376 2.87249 0
M  V30 2233 C 224.993 4.56848 3.46522 0
M  V30 2234 N 224.489 5.60648 4.06996 0
M  V30 2235 N 226.282 4.44426 3.44154 0
M  V30 2236 H 218.433 2.09412 0.354993 0
M  V30 2237 H 220.696 0.922181 0.219742 0
M  V30 2238 H 220.402 3.23536 1.37905 0
M  V30 2239 H 220.276 2.39483 2.91424 0
M  V30 2240 H 222.663 1.46853 2.55965 0
M  V30 2241 H 222.744 2.34403 1.02415 0
M  V30 2242 H 222.388 4.53762 2.28173 0
M  V30 2243 H 222.318 3.63119 3.81381 0
M  V30 2244 H 224.809 2.88321 2.44293 0
M  V30 2245 H 225.122 6.28101 4.50232 0
M  V30 2246 H 223.467 5.64463 4.05471 0
M  V30 2247 H 226.658 3.62529 2.96126 0
M  V30 2248 H 226.831 5.17457 3.90054 0
M  V30 2249 N 220.237 -1.11381 1.11499 0
M  V30 2250 C 221.462 -1.87475 0.887019 0
M  V30 2251 C 221.887 -1.79639 -0.557796 0
M  V30 2252 O 221.245 -1.15924 -1.39396 0
M  V30 2253 C 221.293 -3.34213 1.35403 0
M  V30 2254 O 220.397 -4.0903 0.526146 0
M  V30 2255 H 219.738 -0.582099 0.319463 0
M  V30 2256 H 222.268 -1.40785 1.48461 0
M  V30 2257 H 222.278 -3.8506 1.34881 0
M  V30 2258 H 220.953 -3.39232 2.40612 0
M  V30 2259 H 219.53 -3.68082 0.597522 0
M  V30 2260 N 221.715 -0.905404 -1.28997 0
M  V30 2261 C 222.992 -0.453513 -1.9027 0
M  V30 2262 C 223.372 1.06721 -1.82137 0
M  V30 2263 O 222.72 1.91159 -1.25182 0
M  V30 2264 C 222.93 -0.974494 -3.35119 0
M  V30 2265 C 224.278 -1.0216 -4.12127 0
M  V30 2266 O 225.302 -0.922557 -3.44046 0
M  V30 2267 O 224.161 -1.17121 -5.33802 0
M  V30 2268 H 221.255 -0.142347 -0.814657 0
M  V30 2269 H 223.801 -0.995642 -1.37423 0
M  V30 2270 H 222.573 -2.01848 -3.35221 0
M  V30 2271 H 222.196 -0.412706 -3.95452 0
M  V30 2272 N 223.193 1.4272 -0.668489 0
M  V30 2273 C 224.418 2.06484 -0.194758 0
M  V30 2274 C 224.843 1.49862 1.13679 0
M  V30 2275 O 224.201 0.614582 1.70565 0
M  V30 2276 C 224.249 3.60353 -0.133546 0
M  V30 2277 O 223.353 4.02464 0.899806 0
M  V30 2278 H 222.694 0.656137 -0.10188 0
M  V30 2279 H 225.224 1.82964 -0.915722 0
M  V30 2280 H 225.234 4.07976 0.0447041 0
M  V30 2281 H 223.909 4.00938 -1.1055 0
M  V30 2282 H 222.486 3.66402 0.693109 0
M  V30 2283 N 224.671 0.411399 1.52136 0
M  V30 2284 C 225.948 -0.222308 1.94333 0
M  V30 2285 C 226.328 -1.6242 1.34844 0
M  V30 2286 O 225.676 -2.22384 0.525145 0
M  V30 2287 C 225.886 -0.226345 3.48265 0
M  V30 2288 C 227.234 -0.444592 4.22266 0
M  V30 2289 O 228.258 -0.305602 3.54887 0
M  V30 2290 O 227.117 -0.718749 5.41753 0
M  V30 2291 H 224.211 -0.143907 0.814383 0
M  V30 2292 H 226.757 0.467506 1.63133 0
M  V30 2293 H 225.529 0.75475 3.83952 0
M  V30 2294 H 225.152 -0.960163 3.85832 0
M  V30 2295 N 226.149 -1.5696 0.141893 0
M  V30 2296 C 227.379 -2.00031 -0.516828 0
M  V30 2297 C 227.787 -1.02091 -1.59293 0
M  V30 2298 O 227.13 -0.00909657 -1.83698 0
M  V30 2299 C 227.192 -3.39534 -1.1814 0
M  V30 2300 C 226.856 -4.56313 -0.250513 0
M  V30 2301 C 227.853 -5.17295 0.519839 0
M  V30 2302 C 225.538 -5.02061 -0.154907 0
M  V30 2303 C 227.532 -6.2243 1.3733 0
M  V30 2304 C 225.219 -6.07053 0.702161 0
M  V30 2305 C 226.217 -6.67106 1.46487 0
M  V30 2306 O 225.905 -7.70066 2.30767 0
M  V30 2307 H 225.637 -0.661451 -0.139493 0
M  V30 2308 H 228.191 -2.04086 0.231926 0
M  V30 2309 H 226.421 -3.32302 -1.97769 0
M  V30 2310 H 228.11 -3.66745 -1.73933 0
M  V30 2311 H 228.876 -4.82852 0.45598 0
M  V30 2312 H 224.755 -4.5505 -0.7383 0
M  V30 2313 H 228.299 -6.69233 1.96909 0
M  V30 2314 H 224.196 -6.40923 0.76733 0
M  V30 2315 H 224.964 -7.87264 2.23959 0
M  V30 2316 N 227.627 0.131896 -1.57047 0
M  V30 2317 C 228.904 0.871495 -1.75112 0
M  V30 2318 C 229.284 1.9866 -0.713949 0
M  V30 2319 O 228.632 2.26965 0.264447 0
M  V30 2320 C 228.842 1.40007 -3.19686 0
M  V30 2321 C 230.19 1.85752 -3.81813 0
M  V30 2322 O 231.214 1.49715 -3.23209 0
M  V30 2323 O 230.073 2.5226 -4.84796 0
M  V30 2324 H 227.167 0.412919 -0.716538 0
M  V30 2325 H 229.713 0.116641 -1.69299 0
M  V30 2326 H 228.485 0.599404 -3.86682 0
M  V30 2327 H 228.108 2.218 -3.29986 0
M  V30 2328 N 229.106 1.52395 0.401703 0
M  V30 2329 C 230.039 1.70999 1.51111 0
M  V30 2330 C 231.017 0.55765 1.52738 0
M  V30 2331 O 232.201 0.785912 1.71335 0
M  V30 2332 C 229.328 1.75607 2.8962 0
M  V30 2333 C 228.374 2.97227 3.05873 0
M  V30 2334 S 229.207 4.57439 2.78405 0
M  V30 2335 C 230.363 4.64844 4.19131 0
M  V30 2336 H 230.596 2.6483 1.35102 0
M  V30 2337 H 228.129 1.42527 0.593762 0
M  V30 2338 H 230.087 1.78947 3.69443 0
M  V30 2339 H 228.748 0.828914 3.02965 0
M  V30 2340 H 227.941 2.96955 4.07227 0
M  V30 2341 H 227.543 2.91813 2.33925 0
M  V30 2342 H 229.835 4.42677 5.12877 0
M  V30 2343 H 230.778 5.66807 4.24424 0
M  V30 2344 H 231.186 3.93804 4.04448 0
M  V30 2345 N 230.584 -0.659388 1.43143 0
M  V30 2346 C 231.809 -1.45221 1.48073 0
M  V30 2347 C 232.234 -1.87845 0.097995 0
M  V30 2348 O 231.592 -1.56985 -0.90694 0
M  V30 2349 C 231.64 -2.66748 2.42647 0
M  V30 2350 O 230.744 -3.65583 1.90848 0
M  V30 2351 H 230.085 -0.435669 0.501088 0
M  V30 2352 H 232.615 -0.807432 1.87994 0
M  V30 2353 H 232.625 -3.14637 2.59745 0
M  V30 2354 H 231.3 -2.35067 3.43098 0
M  V30 2355 H 229.877 -3.24693 1.83381 0
M  V30 2356 N 232.062 -1.29571 -0.897171 0
M  V30 2357 C 233.473 -1.15964 -1.46319 0
M  V30 2358 C 233.824 0.244267 -1.94674 0
M  V30 2359 O 232.949 1.13998 -1.83939 0
M  V30 2360 C 233.544 -2.09906 -2.65942 0
M  V30 2361 C 232.103 -2.00314 -3.18671 0
M  V30 2362 C 231.25 -2.00687 -1.91363 0
M  V30 2363 H 234.201 -1.42019 -0.708268 0
M  V30 2364 H 234.222 -1.67276 -3.41759 0
M  V30 2365 H 233.734 -3.12075 -2.30718 0
M  V30 2366 H 231.835 -1.01242 -3.58582 0
M  V30 2367 H 231.948 -2.88102 -3.82798 0
M  V30 2368 H 230.312 -1.45319 -2.09175 0
M  V30 2369 H 231.095 -3.04566 -1.58413 0
M  V30 2370 N 233.54 1.10788 -1.12088 0
M  V30 2371 C 234.487 2.17025 -0.785407 0
M  V30 2372 C 235.457 1.64265 0.246191 0
M  V30 2373 O 236.642 1.90412 0.121584 0
M  V30 2374 C 233.782 3.44249 -0.242177 0
M  V30 2375 C 232.895 4.1098 -1.33115 0
M  V30 2376 C 232.03 5.25911 -0.747741 0
M  V30 2377 C 231.069 5.84538 -1.81609 0
M  V30 2378 N 230.206 6.90853 -1.25167 0
M  V30 2379 H 235.046 2.45066 -1.69548 0
M  V30 2380 H 232.583 1.20297 -0.846582 0
M  V30 2381 H 234.541 4.17101 0.0908026 0
M  V30 2382 H 233.171 3.16571 0.631072 0
M  V30 2383 H 232.223 3.36133 -1.78097 0
M  V30 2384 H 233.535 4.50601 -2.13917 0
M  V30 2385 H 232.689 6.056 -0.365216 0
M  V30 2386 H 231.428 4.87614 0.0915188 0
M  V30 2387 H 230.433 5.03522 -2.20785 0
M  V30 2388 H 231.658 6.249 -2.6585 0
M  V30 2389 H 229.604 6.54562 -0.434174 0
M  V30 2390 H 229.521 7.29166 -1.99633 0
M  V30 2391 H 230.789 7.7433 -0.896259 0
M  V30 2392 N 235.018 0.912232 1.28515 0
M  V30 2393 C 236.246 0.560416 1.99166 0
M  V30 2394 C 236.661 -0.857927 1.68182 0
M  V30 2395 O 236.018 -1.56805 0.933733 0
M  V30 2396 C 236.069 0.758142 3.53461 0
M  V30 2397 O 235.79 2.12067 3.83352 0
M  V30 2398 C 237.291 0.412954 4.41372 0
M  V30 2399 H 234.511 0.213805 0.636026 0
M  V30 2400 H 237.055 1.22502 1.63749 0
M  V30 2401 H 235.21 0.140556 3.87145 0
M  V30 2402 H 235.624 2.15923 4.77993 0
M  V30 2403 H 237.098 0.60208 5.48707 0
M  V30 2404 H 237.575 -0.65073 4.34353 0
M  V30 2405 H 238.181 1.00802 4.13182 0
M  V30 2406 N 236.496 -1.42363 0.676048 0
M  V30 2407 C 237.429 -2.28141 -0.0516916 0
M  V30 2408 C 238.407 -1.41135 -0.807439 0
M  V30 2409 O 239.591 -1.70573 -0.802305 0
M  V30 2410 C 236.718 -3.21007 -1.08039 0
M  V30 2411 C 235.764 -4.24426 -0.420076 0
M  V30 2412 S 236.597 -5.29134 0.823246 0
M  V30 2413 C 237.753 -6.25566 -0.204344 0
M  V30 2414 H 237.986 -2.89515 0.675884 0
M  V30 2415 H 235.519 -1.47211 0.465635 0
M  V30 2416 H 237.477 -3.75048 -1.66881 0
M  V30 2417 H 236.138 -2.58766 -1.78042 0
M  V30 2418 H 235.331 -4.89596 -1.19633 0
M  V30 2419 H 234.933 -3.7388 0.0947845 0
M  V30 2420 H 237.225 -6.69098 -1.06369 0
M  V30 2421 H 238.168 -7.06895 0.412915 0
M  V30 2422 H 238.576 -5.61811 -0.55038 0
M  V30 2423 N 237.974 -0.419461 -1.51915 0
M  V30 2424 C 239.199 0.154572 -2.06823 0
M  V30 2425 C 239.624 1.3722 -1.28656 0
M  V30 2426 O 238.982 1.78461 -0.319583 0
M  V30 2427 C 239.03 0.473172 -3.57482 0
M  V30 2428 O 238.134 1.56255 -3.81652 0
M  V30 2429 H 237.475 0.0096924 -0.663929 0
M  V30 2430 H 240.005 -0.595642 -1.95738 0
M  V30 2431 H 240.015 0.728825 -4.01438 0
M  V30 2432 H 238.69 -0.416873 -4.13805 0
M  V30 2433 H 237.267 1.29825 -3.49571 0
M  V30 2434 N 239.452 1.56882 -0.150215 0
M  V30 2435 C 240.868 1.58263 0.20617 0
M  V30 2436 C 241.068 1.16464 1.64434 0
M  V30 2437 O 240.124 0.866422 2.3717 0
M  V30 2438 C 241.437 3.00649 -0.0555025 0
M  V30 2439 C 242.985 3.12999 0.00795388 0
M  V30 2440 C 243.46 4.5744 -0.226429 0
M  V30 2441 N 244.951 4.62875 -0.173469 0
M  V30 2442 C 245.686 5.72454 -0.329288 0
M  V30 2443 N 245.182 6.90669 -0.543005 0
M  V30 2444 N 246.975 5.61467 -0.266666 0
M  V30 2445 H 239.126 1.82345 -1.08922 0
M  V30 2446 H 241.389 0.844149 -0.431413 0
M  V30 2447 H 241.095 3.3563 -1.05096 0
M  V30 2448 H 240.969 3.71337 0.66246 0
M  V30 2449 H 243.356 2.77857 0.993966 0
M  V30 2450 H 243.437 2.4479 -0.742388 0
M  V30 2451 H 243.081 4.93287 -1.20956 0
M  V30 2452 H 243.011 5.2378 0.544274 0
M  V30 2453 H 245.502 3.77898 -0.0130709 0
M  V30 2454 H 245.815 7.70045 -0.651922 0
M  V30 2455 H 244.16 6.92581 -0.579366 0
M  V30 2456 H 247.351 4.67992 -0.100441 0
M  V30 2457 H 247.524 6.46816 -0.391535 0
M  V30 2458 N 240.93 -0.123565 1.57115 0
M  V30 2459 C 241.878 -1.17082 2.00984 0
M  V30 2460 C 242.872 -1.43136 0.906009 0
M  V30 2461 O 244.078 -1.43152 1.09121 0
M  V30 2462 H 240.453 -0.394653 0.64012 0
M  V30 2463 H 242.424 -0.774292 2.88179 0
M  V30 2464 C 241.173 -2.49057 2.42623 0
M  V30 2465 H 240.496 -2.29846 3.27125 0
M  V30 2466 H 241.936 -3.20906 2.7712 0
M  V30 2467 C 240.395 -3.11305 1.28805 0
M  V30 2468 O 240.925 -3.97171 0.60153 0
M  V30 2469 N 239.131 -2.71111 1.04628 0
M  V30 2470 H 238.678 -2.01382 1.60634 0
M  V30 2471 H 238.636 -3.1309 0.286685 0
M  V30 2472 N 242.408 -1.52605 -0.393616 0
M  V30 2473 C 243.633 -1.71592 -1.16495 0
M  V30 2474 C 244.058 -0.43133 -1.83088 0
M  V30 2475 O 243.416 0.612523 -1.7064 0
M  V30 2476 C 243.464 -2.86318 -2.19213 0
M  V30 2477 O 242.568 -2.52969 -3.257 0
M  V30 2478 H 241.909 -0.570734 -0.33935 0
M  V30 2479 H 244.439 -1.99377 -0.459324 0
M  V30 2480 H 244.449 -3.1168 -2.63286 0
M  V30 2481 H 243.124 -3.79511 -1.7013 0
M  V30 2482 H 241.701 -2.38332 -2.86797 0
M  V30 2483 N 243.887 0.651787 -1.4349 0
M  V30 2484 C 245.112 1.44434 -1.48841 0
M  V30 2485 C 245.537 1.8779 -0.107955 0
M  V30 2486 O 244.895 1.57464 0.898602 0
M  V30 2487 C 244.943 2.65458 -2.44059 0
M  V30 2488 O 244.047 3.64566 -1.92784 0
M  V30 2489 H 243.388 0.433005 -0.503391 0
M  V30 2490 H 245.918 0.797451 -1.88419 0
M  V30 2491 H 245.928 3.13255 -2.6141 0
M  V30 2492 H 244.603 2.33244 -3.4434 0
M  V30 2493 H 243.18 3.23716 -1.851 0
M  V30 2494 N 245.365 1.30045 0.890287 0
M  V30 2495 C 246.611 1.18737 1.64406 0
M  V30 2496 C 246.944 -0.258525 1.92472 0
M  V30 2497 O 246.219 -1.18562 1.54186 0
M  V30 2498 C 246.502 2.01087 2.98724 0
M  V30 2499 C 246.355 3.53867 2.77665 0
M  V30 2500 C 247.674 1.84457 3.9958 0
M  V30 2501 H 244.793 0.432698 0.596608 0
M  V30 2502 H 247.435 1.5962 1.0306 0
M  V30 2503 H 245.585 1.66349 3.51084 0
M  V30 2504 H 247.257 3.98637 2.32133 0
M  V30 2505 H 245.5 3.78318 2.12269 0
M  V30 2506 H 246.171 4.06772 3.7315 0
M  V30 2507 H 248.647 2.14817 3.56361 0
M  V30 2508 H 247.523 2.44411 4.91482 0
M  V30 2509 H 247.784 0.802276 4.3476 0
M  V30 2510 N 246.843 -1.10192 1.12674 0
M  V30 2511 C 248.071 -1.85983 0.906527 0
M  V30 2512 C 248.486 -1.80783 -0.544333 0
M  V30 2513 O 247.843 -1.19834 -1.37645 0
M  V30 2514 C 247.894 -3.34281 1.37618 0
M  V30 2515 O 247.615 -3.39401 2.77017 0
M  V30 2516 C 249.116 -4.26938 1.19325 0
M  V30 2517 H 246.336 -0.587716 0.323775 0
M  V30 2518 H 248.88 -1.39284 1.49734 0
M  V30 2519 H 247.035 -3.78436 0.828539 0
M  V30 2520 H 247.449 -4.31838 2.97684 0
M  V30 2521 H 248.923 -5.29181 1.57071 0
M  V30 2522 H 249.4 -4.38995 0.134097 0
M  V30 2523 H 250.006 -3.8859 1.72852 0
M  V30 2524 N 248.321 -0.919034 -1.28029 0
M  V30 2525 C 249.546 -0.570357 -1.99403 0
M  V30 2526 C 249.971 0.842486 -1.68178 0
M  V30 2527 O 249.329 1.56391 -0.917141 0
M  V30 2528 C 249.377 -0.792541 -3.51783 0
M  V30 2529 O 248.481 0.145988 -4.12142 0
M  V30 2530 H 247.822 -0.220555 -0.6263 0
M  V30 2531 H 250.352 -1.23592 -1.63053 0
M  V30 2532 H 250.362 -0.704708 -4.01868 0
M  V30 2533 H 249.037 -1.82247 -3.73844 0
M  V30 2534 H 247.614 0.00897528 -3.72899 0
M  V30 2535 N 249.799 1.42003 -0.683588 0
M  V30 2536 C 250.709 2.34597 -0.0109075 0
M  V30 2537 C 251.725 1.55576 0.779245 0
M  V30 2538 O 252.901 1.88107 0.719555 0
M  V30 2539 C 249.966 3.34199 0.922588 0
M  V30 2540 C 249.027 4.29115 0.125984 0
M  V30 2541 C 248.26 5.23959 1.01502 0
M  V30 2542 O 248.483 5.23952 2.25456 0
M  V30 2543 O 247.417 6.00053 0.47111 0
M  V30 2544 H 251.243 2.93675 -0.773853 0
M  V30 2545 H 248.828 1.42654 -0.443861 0
M  V30 2546 H 250.71 3.95365 1.45823 0
M  V30 2547 H 249.385 2.77582 1.66523 0
M  V30 2548 H 248.292 3.71335 -0.453969 0
M  V30 2549 H 249.625 4.88798 -0.577736 0
M  V30 2550 N 251.277 0.427512 1.51691 0
M  V30 2551 C 252.24 -0.377132 2.26076 0
M  V30 2552 C 253.24 -0.958089 1.29141 0
M  V30 2553 O 254.43 -0.83408 1.52934 0
M  V30 2554 C 251.562 -1.53262 3.04506 0
M  V30 2555 H 252.755 0.27464 2.9864 0
M  V30 2556 H 250.308 0.180445 1.55255 0
M  V30 2557 H 251.043 -2.22072 2.36335 0
M  V30 2558 H 250.828 -1.12232 3.75694 0
M  V30 2559 H 252.318 -2.10135 3.60878 0
M  V30 2560 N 252.755 -1.56801 0.158532 0
M  V30 2561 C 253.705 -2.13923 -0.788738 0
M  V30 2562 C 254.689 -1.07006 -1.2016 0
M  V30 2563 O 255.881 -1.33159 -1.1661 0
M  V30 2564 C 253.01 -2.77348 -2.02319 0
M  V30 2565 C 252.096 -3.91404 -1.6329 0
M  V30 2566 N 252.487 -4.9677 -0.951463 0
M  V30 2567 C 250.785 -4.02326 -1.92482 0
M  V30 2568 C 251.486 -5.76698 -0.761221 0
M  V30 2569 N 250.462 -5.27859 -1.29869 0
M  V30 2570 H 254.264 -2.92757 -0.258995 0
M  V30 2571 H 251.778 -1.62344 -0.0426055 0
M  V30 2572 H 253.775 -3.16639 -2.71192 0
M  V30 2573 H 252.435 -1.99991 -2.558 0
M  V30 2574 H 253.446 -5.14284 -0.610928 0
M  V30 2575 H 250.123 -3.36059 -2.47732 0
M  V30 2576 H 251.513 -6.71529 -0.223284 0
M  V30 2577 N 254.233 0.115231 -1.57178 0
M  V30 2578 C 255.196 1.12526 -1.99676 0
M  V30 2579 C 256.196 1.34095 -0.88742 0
M  V30 2580 O 257.386 1.30548 -1.15337 0
M  V30 2581 C 254.518 2.4789 -2.34015 0
M  V30 2582 H 255.711 0.759912 -2.90113 0
M  V30 2583 H 253.264 0.359648 -1.52106 0
M  V30 2584 H 253.999 2.89339 -1.4647 0
M  V30 2585 H 253.784 2.33588 -3.14927 0
M  V30 2586 H 255.274 3.20575 -2.67622 0
M  V30 2587 N 255.711 1.52812 0.385517 0
M  V30 2588 C 256.621 1.80766 1.49535 0
M  V30 2589 C 257.637 0.694651 1.59532 0
M  V30 2590 O 258.813 0.982611 1.75803 0
M  V30 2591 C 255.878 1.97381 2.85029 0
M  V30 2592 C 254.939 3.21295 2.84724 0
M  V30 2593 C 254.172 3.37108 4.13756 0
M  V30 2594 O 254.395 2.5765 5.08893 0
M  V30 2595 O 253.329 4.30378 4.20783 0
M  V30 2596 H 257.155 2.75015 1.28842 0
M  V30 2597 H 254.74 1.37946 0.573697 0
M  V30 2598 H 256.622 2.09996 3.65349 0
M  V30 2599 H 255.297 1.06322 3.05741 0
M  V30 2600 H 254.204 3.1412 2.03174 0
M  V30 2601 H 255.537 4.12212 2.68965 0
M  V30 2602 N 257.189 -0.644168 1.43834 0
M  V30 2603 C 258.466 -1.40188 1.36406 0
M  V30 2604 C 258.846 -2.11094 0.0163124 0
M  V30 2605 O 258.194 -2.05426 -1.00062 0
M  V30 2606 C 258.404 -2.3791 2.55343 0
M  V30 2607 C 259.752 -3.01637 2.98832 0
M  V30 2608 O 260.776 -2.48237 2.55455 0
M  V30 2609 O 259.635 -3.98477 3.74003 0
M  V30 2610 H 256.729 -0.626773 0.539523 0
M  V30 2611 H 259.275 -0.670317 1.559 0
M  V30 2612 H 258.047 -1.84525 3.4506 0
M  V30 2613 H 257.67 -3.18503 2.37995 0
M  V30 2614 N 258.668 -1.30515 -0.883378 0
M  V30 2615 C 259.598 -1.19607 -2.00541 0
M  V30 2616 C 260.579 -0.086346 -1.69881 0
M  V30 2617 O 261.764 -0.268654 -1.92333 0
M  V30 2618 C 258.894 -0.888758 -3.35736 0
M  V30 2619 C 257.848 -1.95659 -3.8066 0
M  V30 2620 C 257.174 -1.50224 -5.13164 0
M  V30 2621 C 258.474 -3.36788 -3.99213 0
M  V30 2622 H 260.168 -2.13476 -2.09925 0
M  V30 2623 H 257.714 -1.02775 -1.00863 0
M  V30 2624 H 259.667 -0.799094 -4.13754 0
M  V30 2625 H 258.391 0.0856125 -3.26488 0
M  V30 2626 H 257.05 -2.03591 -3.04871 0
M  V30 2627 H 256.698 -0.516092 -5.00345 0
M  V30 2628 H 256.398 -2.2165 -5.44192 0
M  V30 2629 H 257.922 -1.42639 -5.93706 0
M  V30 2630 H 259.336 -3.31605 -4.67665 0
M  V30 2631 H 257.733 -4.06314 -4.41621 0
M  V30 2632 H 258.803 -3.78561 -3.03017 0
M  V30 2633 N 260.146 1.09593 -1.13257 0
M  V30 2634 C 261.395 1.81105 -0.887917 0
M  V30 2635 C 261.708 1.86563 0.587672 0
M  V30 2636 O 262.914 2.54367 0.949204 0
M  V30 2637 C 261.37 3.25338 -1.53895 0
M  V30 2638 C 260.978 3.28151 -3.04994 0
M  V30 2639 C 262.722 4.01617 -1.37492 0
M  V30 2640 C 260.629 4.66897 -3.6299 0
M  V30 2641 H 259.559 0.678661 -0.328534 0
M  V30 2642 H 262.21 1.23183 -1.36008 0
M  V30 2643 H 260.592 3.8331 -0.994446 0
M  V30 2644 H 261.766 2.79953 -3.66009 0
M  V30 2645 H 260.081 2.65361 -3.20893 0
M  V30 2646 H 262.678 5.04119 -1.78235 0
M  V30 2647 H 263.021 4.15072 -0.31957 0
M  V30 2648 H 263.554 3.50082 -1.88912 0
M  V30 2649 H 260.293 4.58643 -4.68323 0
M  V30 2650 H 259.813 5.15426 -3.06752 0
M  V30 2651 H 261.492 5.3587 -3.62563 0
M  V30 2652 N 261.624 0.925811 1.2754 0
M  V30 2653 C 262.87 0.566092 1.94739 0
M  V30 2654 C 263.203 -0.890057 1.72603 0
M  V30 2655 O 262.478 -1.63467 1.05399 0
M  V30 2656 C 262.761 0.89054 3.48915 0
M  V30 2657 C 262.614 2.4003 3.80402 0
M  V30 2658 C 263.933 0.395101 4.38323 0
M  V30 2659 H 261.052 0.20714 0.707292 0
M  V30 2660 H 263.694 1.15725 1.50691 0
M  V30 2661 H 261.844 0.387452 3.86563 0
M  V30 2662 H 263.516 2.97494 3.52555 0
M  V30 2663 H 261.759 2.85028 3.2702 0
M  V30 2664 H 262.43 2.57785 4.8811 0
M  V30 2665 H 264.906 0.826241 4.07814 0
M  V30 2666 H 263.782 0.651086 5.45025 0
M  V30 2667 H 264.043 -0.704798 4.36446 0
M  V30 2668 N 263.102 -1.41638 0.69111 0
M  V30 2669 C 264.33 -2.05628 0.22909 0
M  V30 2670 C 264.745 -1.51992 -1.11999 0
M  V30 2671 O 264.102 -0.666322 -1.69901 0
M  V30 2672 C 264.153 -3.61084 0.173283 0
M  V30 2673 O 263.874 -4.12735 1.46907 0
M  V30 2674 C 265.375 -4.42213 -0.310266 0
M  V30 2675 H 262.595 -0.662327 0.107534 0
M  V30 2676 H 265.139 -1.81489 0.942438 0
M  V30 2677 H 263.294 -3.84278 -0.490858 0
M  V30 2678 H 263.708 -5.06743 1.35322 0
M  V30 2679 H 265.182 -5.51194 -0.298196 0
M  V30 2680 H 265.659 -4.1799 -1.34838 0
M  V30 2681 H 266.265 -4.24074 0.322716 0
M  V30 2682 N 264.58 -0.43555 -1.51462 0
M  V30 2683 C 265.991 0.0279871 -1.86679 0
M  V30 2684 C 266.342 1.42104 -1.35281 0
M  V30 2685 O 265.467 2.04667 -0.702878 0
M  V30 2686 C 266.062 0.0575626 -3.38751 0
M  V30 2687 C 264.621 0.465507 -3.7351 0
M  V30 2688 C 263.768 -0.342996 -2.75171 0
M  V30 2689 H 266.719 -0.651473 -1.44712 0
M  V30 2690 H 266.74 0.867421 -3.70481 0
M  V30 2691 H 266.252 -0.956448 -3.7613 0
M  V30 2692 H 264.353 1.48519 -3.41721 0
M  V30 2693 H 264.466 0.191546 -4.78717 0
M  V30 2694 H 262.83 0.198442 -2.53926 0
M  V30 2695 H 263.613 -1.35585 -3.15391 0
M  V30 2696 N 266.058 1.56714 -0.166846 0
M  V30 2697 C 267.305 1.96747 0.479252 0
M  V30 2698 C 267.633 1.05263 1.63554 0
M  V30 2699 O 266.888 0.0858098 1.95512 0
M  V30 2700 C 267.187 3.42889 1.00806 0
M  V30 2701 C 266.853 4.50889 -0.0318574 0
M  V30 2702 C 265.515 4.8015 -0.317675 0
M  V30 2703 C 267.867 5.15949 -0.737956 0
M  V30 2704 C 265.195 5.71772 -1.31506 0
M  V30 2705 C 267.547 6.08647 -1.72429 0
M  V30 2706 C 266.211 6.36277 -2.0176 0
M  V30 2707 H 265.481 0.719949 0.175371 0
M  V30 2708 H 268.128 1.89756 -0.257864 0
M  V30 2709 H 266.433 3.4681 1.82291 0
M  V30 2710 H 268.13 3.71203 1.51689 0
M  V30 2711 H 264.72 4.28128 0.201088 0
M  V30 2712 H 268.904 4.93458 -0.530351 0
M  V30 2713 H 264.16 5.91465 -1.54853 0
M  V30 2714 H 268.334 6.58129 -2.27682 0
M  V30 2715 H 265.961 7.07075 -2.79194 0
M  V30 2716 N 267.536 -0.106894 1.57237 0
M  V30 2717 C 268.499 -1.11466 2.0027 0
M  V30 2718 C 269.499 -1.33623 0.894519 0
M  V30 2719 O 270.689 -1.29935 1.16028 0
M  V30 2720 C 267.821 -2.46646 2.35327 0
M  V30 2721 H 269.014 -0.744516 2.90512 0
M  V30 2722 H 266.567 -0.351576 1.52295 0
M  V30 2723 H 267.302 -2.88558 1.48003 0
M  V30 2724 H 267.087 -2.31915 3.16161 0
M  V30 2725 H 268.577 -3.19151 2.69318 0
M  V30 2726 N 269.014 -1.53014 -0.377408 0
M  V30 2727 C 269.946 -1.74884 -1.48149 0
M  V30 2728 C 270.959 -0.629433 -1.5014 0
M  V30 2729 O 272.148 -0.905416 -1.53833 0
M  V30 2730 C 269.248 -1.80299 -2.86959 0
M  V30 2731 C 268.421 -3.09776 -3.08801 0
M  V30 2732 C 267.48 -3.06586 -4.27658 0
M  V30 2733 O 266.506 -3.80419 -4.23403 0
M  V30 2734 N 267.708 -2.26578 -5.34455 0
M  V30 2735 H 270.473 -2.70147 -1.29771 0
M  V30 2736 H 268.034 -1.51646 -0.56703 0
M  V30 2737 H 270.026 -1.75657 -3.64591 0
M  V30 2738 H 268.596 -0.92372 -2.98641 0
M  V30 2739 H 267.816 -3.27815 -2.18931 0
M  V30 2740 H 269.104 -3.95366 -3.20255 0
M  V30 2741 H 268.502 -1.66081 -5.40771 0
M  V30 2742 H 267.059 -2.27766 -6.10709 0
M  V30 2743 N 270.492 0.636531 -1.44174 0
M  V30 2744 C 271.738 1.39826 -1.4689 0
M  V30 2745 C 272.071 1.93947 -0.0990585 0
M  V30 2746 O 271.346 1.73325 0.882544 0
M  V30 2747 C 271.629 2.56751 -2.5249 0
M  V30 2748 C 271.482 2.08014 -3.98811 0
M  V30 2749 C 272.801 3.58946 -2.54649 0
M  V30 2750 H 269.92 0.507075 -0.53483 0
M  V30 2751 H 272.562 0.720188 -1.75822 0
M  V30 2752 H 270.712 3.14597 -2.2795 0
M  V30 2753 H 272.384 1.5504 -4.34466 0
M  V30 2754 H 270.627 1.39242 -4.10846 0
M  V30 2755 H 271.298 2.92169 -4.68339 0
M  V30 2756 H 273.774 3.1089 -2.76563 0
M  V30 2757 H 272.65 4.38286 -3.3045 0
M  V30 2758 H 272.911 4.12655 -1.58646 0
M  V30 2759 N 271.97 1.30982 0.876444 0
M  V30 2760 C 272.9 1.20668 1.99903 0
M  V30 2761 C 273.881 0.095354 1.69833 0
M  V30 2762 O 275.066 0.27885 1.92188 0
M  V30 2763 C 272.196 0.90655 3.3526 0
M  V30 2764 C 271.15 1.97675 3.79617 0
M  V30 2765 C 270.476 1.52943 5.1236 0
M  V30 2766 C 271.776 3.389 3.97422 0
M  V30 2767 H 273.47 2.14586 2.0879 0
M  V30 2768 H 271.016 1.03308 1.00317 0
M  V30 2769 H 272.969 0.821025 4.13324 0
M  V30 2770 H 271.693 -0.0682969 3.26529 0
M  V30 2771 H 270.352 2.05205 3.03787 0
M  V30 2772 H 270 0.54262 5.00065 0
M  V30 2773 H 269.7 2.24532 5.43009 0
M  V30 2774 H 271.224 1.45786 5.92941 0
M  V30 2775 H 272.638 3.34081 4.659 0
M  V30 2776 H 271.035 4.0865 4.3946 0
M  V30 2777 H 272.105 3.80163 3.01006 0
M  V30 2778 N 273.449 -1.08991 1.13837 0
M  V30 2779 C 274.412 -2.13925 0.822715 0
M  V30 2780 C 275.412 -1.599 -0.1699 0
M  V30 2781 O 276.602 -1.74104 0.0577251 0
M  V30 2782 C 273.734 -3.40155 0.225318 0
M  V30 2783 H 274.927 -2.43358 1.75262 0
M  V30 2784 H 272.48 -1.24603 0.943594 0
M  V30 2785 H 273.215 -3.16352 -0.713594 0
M  V30 2786 H 273 -3.80661 0.940193 0
M  V30 2787 H 274.49 -4.17594 0.0214784 0
M  V30 2788 N 274.927 -0.932562 -1.27047 0
M  V30 2789 C 276.152 -0.591474 -1.98787 0
M  V30 2790 C 276.577 0.824601 -1.69062 0
M  V30 2791 O 275.935 1.5541 -0.933677 0
M  V30 2792 C 275.983 -0.829808 -3.50922 0
M  V30 2793 O 275.087 0.102266 -4.12273 0
M  V30 2794 H 274.428 -0.227185 -0.623926 0
M  V30 2795 H 276.958 -1.25314 -1.61733 0
M  V30 2796 H 276.968 -0.747292 -4.01098 0
M  V30 2797 H 275.643 -1.86201 -3.7189 0
M  V30 2798 H 274.22 -0.0305761 -3.72887 0
M  V30 2799 N 276.405 1.4127 -0.698611 0
M  V30 2800 C 277.335 2.33447 -0.049629 0
M  V30 2801 C 278.316 1.51982 0.763898 0
M  V30 2802 O 279.501 1.80509 0.716257 0
M  V30 2803 C 276.631 3.35828 0.885267 0
M  V30 2804 C 275.585 4.27627 0.178613 0
M  V30 2805 C 274.911 5.20406 1.22807 0
M  V30 2806 C 276.211 5.13459 -0.956933 0
M  V30 2807 H 277.905 2.87966 -0.81951 0
M  V30 2808 H 275.451 1.38461 -0.395538 0
M  V30 2809 H 277.404 3.9924 1.34854 0
M  V30 2810 H 276.128 2.79666 1.68685 0
M  V30 2811 H 274.787 3.65643 -0.26466 0
M  V30 2812 H 274.435 4.60558 2.02226 0
M  V30 2813 H 274.135 5.82661 0.760239 0
M  V30 2814 H 275.659 5.86695 1.69179 0
M  V30 2815 H 277.073 5.70421 -0.573805 0
M  V30 2816 H 275.47 5.8467 -1.35205 0
M  V30 2817 H 276.54 4.50443 -1.79524 0
M  V30 2818 N 277.883 0.443576 1.51229 0
M  V30 2819 C 279.299 0.0962001 1.5931 0
M  V30 2820 C 279.499 -1.39501 1.45402 0
M  V30 2821 O 278.555 -2.16557 1.29843 0
M  V30 2822 C 279.868 0.621875 2.94199 0
M  V30 2823 C 281.416 0.582865 3.07525 0
M  V30 2824 C 281.891 1.08562 4.44948 0
M  V30 2825 N 283.382 1.04387 4.51284 0
M  V30 2826 C 284.117 1.40368 5.55954 0
M  V30 2827 N 283.613 1.83664 6.68011 0
M  V30 2828 N 285.406 1.32145 5.46346 0
M  V30 2829 H 277.557 1.41376 1.58514 0
M  V30 2830 H 279.82 0.582965 0.747567 0
M  V30 2831 H 279.526 1.66546 3.09767 0
M  V30 2832 H 279.4 0.0502125 3.77167 0
M  V30 2833 H 281.787 -0.451749 2.91622 0
M  V30 2834 H 281.868 1.191 2.26382 0
M  V30 2835 H 281.512 2.11873 4.61598 0
M  V30 2836 H 281.442 0.453956 5.2464 0
M  V30 2837 H 283.933 0.725986 3.70861 0
M  V30 2838 H 284.246 2.0934 7.43906 0
M  V30 2839 H 282.591 1.87596 6.69203 0
M  V30 2840 H 285.782 0.981808 4.57688 0
M  V30 2841 H 285.955 1.60514 6.27805 0
M  V30 2842 N 279.361 -1.56624 0.175154 0
M  V30 2843 C 280.586 -2.01813 -0.478137 0
M  V30 2844 C 281.011 -1.05457 -1.55757 0
M  V30 2845 O 280.369 -0.0347439 -1.81267 0
M  V30 2846 C 280.417 -3.45581 -1.02987 0
M  V30 2847 O 279.521 -3.52305 -2.14371 0
M  V30 2848 H 278.862 -0.65413 -0.114059 0
M  V30 2849 H 281.392 -2.02673 0.280173 0
M  V30 2850 H 281.402 -3.84965 -1.35151 0
M  V30 2851 H 280.077 -4.1521 -0.239556 0
M  V30 2852 H 278.654 -3.24783 -1.83222 0
M  V30 2853 N 280.839 0.0985539 -1.57292 0
M  V30 2854 C 282.085 0.803867 -1.86188 0
M  V30 2855 C 282.418 1.78549 -0.763794 0
M  V30 2856 O 281.693 1.93153 0.22855 0
M  V30 2857 C 281.976 1.53568 -3.25713 0
M  V30 2858 C 281.829 0.572277 -4.46145 0
M  V30 2859 C 283.148 2.48708 -3.63087 0
M  V30 2860 H 280.267 0.290781 -0.677211 0
M  V30 2861 H 282.909 0.0675783 -1.8988 0
M  V30 2862 H 281.059 2.16332 -3.22696 0
M  V30 2863 H 282.731 -0.0480894 -4.61275 0
M  V30 2864 H 280.974 -0.114618 -4.33649 0
M  V30 2865 H 281.645 1.12139 -5.40489 0
M  V30 2866 H 284.121 1.96039 -3.67026 0
M  V30 2867 H 282.997 2.96932 -4.61652 0
M  V30 2868 H 283.258 3.32309 -2.91588 0
M  V30 2869 N 282.317 1.53212 0.369288 0
M  V30 2870 C 283.733 1.42902 0.710712 0
M  V30 2871 C 283.933 0.565135 1.93413 0
M  V30 2872 O 282.989 0.0461484 2.52458 0
M  V30 2873 C 284.302 2.86042 0.927382 0
M  V30 2874 C 285.85 2.9565 1.02762 0
M  V30 2875 C 286.325 4.39843 1.27679 0
M  V30 2876 N 287.816 4.43256 1.34457 0
M  V30 2877 C 288.551 5.51929 1.55439 0
M  V30 2878 N 288.047 6.70655 1.73762 0
M  V30 2879 N 289.84 5.39502 1.57779 0
M  V30 2880 H 281.991 2.07888 -0.435457 0
M  V30 2881 H 284.254 0.938661 -0.132739 0
M  V30 2882 H 283.96 3.51557 0.100287 0
M  V30 2883 H 283.834 3.29472 1.83653 0
M  V30 2884 H 286.221 2.30291 1.84527 0
M  V30 2885 H 286.302 2.5562 0.0959504 0
M  V30 2886 H 285.946 5.05774 0.464175 0
M  V30 2887 H 285.876 4.77443 2.22162 0
M  V30 2888 H 288.367 3.5769 1.21926 0
M  V30 2889 H 288.68 7.49248 1.89335 0
M  V30 2890 H 287.025 6.73648 1.70948 0
M  V30 2891 H 290.216 4.45713 1.43029 0
M  V30 2892 H 290.389 6.2426 1.7379 0
M  V30 2893 N 283.795 -0.628877 1.44509 0
M  V30 2894 C 285.02 -1.42048 1.5112 0
M  V30 2895 C 285.445 -1.87594 0.137818 0
M  V30 2896 O 284.803 -1.58873 -0.873437 0
M  V30 2897 C 284.851 -2.61541 2.48251 0
M  V30 2898 O 283.955 -3.61453 1.98559 0
M  V30 2899 H 283.296 -0.424942 0.510216 0
M  V30 2900 H 285.826 -0.767374 1.89664 0
M  V30 2901 H 285.836 -3.09057 2.66361 0
M  V30 2902 H 284.511 -2.27736 3.48007 0
M  V30 2903 H 283.088 -3.20731 1.90227 0
M  V30 2904 N 285.273 -1.31445 -0.869486 0
M  V30 2905 C 286.221 -1.19067 -1.99814 0
M  V30 2906 C 287.215 -0.0988569 -1.69111 0
M  V30 2907 O 288.421 -0.260781 -1.78101 0
M  V30 2908 H 284.796 -0.368677 -0.655425 0
M  V30 2909 H 286.767 -2.14555 -2.07385 0
M  V30 2910 C 285.516 -0.915323 -3.35436 0
M  V30 2911 H 284.839 -1.74759 -3.59582 0
M  V30 2912 H 286.279 -0.868895 -4.15001 0
M  V30 2913 C 284.738 0.381928 -3.34728 0
M  V30 2914 O 285.268 1.39857 -3.76567 0
M  V30 2915 N 283.474 0.398633 -2.87853 0
M  V30 2916 H 283.021 -0.429186 -2.54 0
M  V30 2917 H 282.979 1.26651 -2.87762 0
M  V30 2918 N 286.751 1.08385 -1.14413 0
M  V30 2919 C 287.998 1.80776 -0.912482 0
M  V30 2920 C 288.326 1.86236 0.560934 0
M  V30 2921 O 287.581 1.33431 1.43159 0
M  V30 2922 C 287.88 3.26273 -1.45879 0
M  V30 2923 C 287.546 3.4093 -2.95089 0
M  V30 2924 C 286.208 3.44638 -3.35824 0
M  V30 2925 C 288.56 3.44591 -3.91033 0
M  V30 2926 C 285.888 3.49597 -4.71167 0
M  V30 2927 C 288.24 3.51086 -5.26233 0
M  V30 2928 C 286.904 3.53067 -5.6648 0
M  V30 2929 H 286.174 0.661507 -0.333901 0
M  V30 2930 H 288.821 1.27613 -1.42784 0
M  V30 2931 H 287.126 3.82146 -0.864376 0
M  V30 2932 H 288.823 3.80839 -1.2555 0
M  V30 2933 H 285.413 3.38736 -2.62594 0
M  V30 2934 H 289.597 3.40957 -3.60641 0
M  V30 2935 H 284.853 3.49424 -5.0171 0
M  V30 2936 H 289.027 3.52864 -6.00383 0
M  V30 2937 H 286.654 3.56662 -6.71339 0
M  V30 2938 N 288.23 0.939286 1.26551 0
M  V30 2939 C 289.455 0.602008 1.98471 0
M  V30 2940 C 289.88 -0.815624 1.69497 0
M  V30 2941 O 289.238 -1.54912 0.941905 0
M  V30 2942 C 289.286 0.848407 3.50477 0
M  V30 2943 O 288.39 -0.0804009 4.12322 0
M  V30 2944 H 287.731 0.23049 0.622712 0
M  V30 2945 H 290.261 1.2617 1.61066 0
M  V30 2946 H 290.271 0.768553 4.00696 0
M  V30 2947 H 288.946 1.88171 3.70897 0
M  V30 2948 H 287.523 0.0503508 3.72866 0
M  V30 2949 N 289.708 -1.40897 0.706093 0
M  V30 2950 C 290.638 -2.33418 0.0620085 0
M  V30 2951 C 291.619 -1.52385 -0.755827 0
M  V30 2952 O 292.804 -1.80886 -0.706674 0
M  V30 2953 C 289.934 -3.36293 -0.867445 0
M  V30 2954 C 288.888 -4.27716 -0.155932 0
M  V30 2955 C 288.214 -5.2105 -1.20046 0
M  V30 2956 C 289.514 -5.12944 0.984149 0
M  V30 2957 H 291.208 -2.87527 0.83477 0
M  V30 2958 H 288.754 -1.38249 0.402875 0
M  V30 2959 H 290.707 -3.99949 -1.32735 0
M  V30 2960 H 289.431 -2.80556 -1.67199 0
M  V30 2961 H 288.09 -3.65498 0.284047 0
M  V30 2962 H 287.738 -4.61624 -1.99781 0
M  V30 2963 H 287.438 -5.83056 -0.729328 0
M  V30 2964 H 288.962 -5.87584 -1.66066 0
M  V30 2965 H 290.376 -5.70109 0.604048 0
M  V30 2966 H 288.773 -5.83945 1.38304 0
M  V30 2967 H 289.843 -4.49485 1.81911 0
M  V30 2968 N 291.186 -0.45159 -1.50991 0
M  V30 2969 C 292.116 0.342898 -2.30969 0
M  V30 2970 C 293.097 1.00815 -1.37005 0
M  V30 2971 O 294.282 1.00907 -1.65926 0
M  V30 2972 C 291.412 1.43637 -3.16205 0
M  V30 2973 C 290.366 0.893818 -4.18563 0
M  V30 2974 C 289.692 2.08411 -4.92411 0
M  V30 2975 C 290.992 -0.0815568 -5.22236 0
M  V30 2976 H 292.686 -0.324556 -2.97636 0
M  V30 2977 H 290.232 -0.157531 -1.43136 0
M  V30 2978 H 292.185 1.9995 -3.70942 0
M  V30 2979 H 290.909 2.13232 -2.47386 0
M  V30 2980 H 289.568 0.352798 -3.64898 0
M  V30 2981 H 289.216 2.76658 -4.20082 0
M  V30 2982 H 288.916 1.72741 -5.61636 0
M  V30 2983 H 290.44 2.65251 -5.49976 0
M  V30 2984 H 291.854 0.391742 -5.7196 0
M  V30 2985 H 290.251 -0.351551 -5.99069 0
M  V30 2986 H 291.321 -1.01374 -4.74185 0
M  V30 2987 N 292.664 1.56529 -0.183458 0
M  V30 2988 C 293.892 2.01623 0.464285 0
M  V30 2989 C 294.307 1.06366 1.55986 0
M  V30 2990 O 293.664 0.0665398 1.82379 0
M  V30 2991 C 293.715 3.46475 1.03139 0
M  V30 2992 O 293.436 4.38095 -0.0204675 0
M  V30 2993 C 294.937 4.0703 1.75617 0
M  V30 2994 H 292.157 0.660596 0.117704 0
M  V30 2995 H 294.701 2.02451 -0.288751 0
M  V30 2996 H 292.856 3.46383 1.73486 0
M  V30 2997 H 293.27 5.22973 0.399952 0
M  V30 2998 H 294.744 5.10271 2.10542 0
M  V30 2999 H 295.221 3.49819 2.65563 0
M  V30 3000 H 295.827 4.1086 1.09882 0
M  V30 3001 N 294.142 -0.090211 1.57342 0
M  V30 3002 C 295.09 -1.12792 2.03422 0
M  V30 3003 C 296.084 -1.41182 0.936166 0
M  V30 3004 O 297.29 -1.40805 1.12133 0
M  V30 3005 H 293.665 -0.380986 0.648347 0
M  V30 3006 H 295.636 -0.71299 2.89757 0
M  V30 3007 C 294.385 -2.43855 2.47851 0
M  V30 3008 H 293.708 -2.22855 3.31927 0
M  V30 3009 H 295.148 -3.14955 2.83865 0
M  V30 3010 C 293.607 -3.08503 1.3538 0
M  V30 3011 O 294.137 -3.95805 0.685641 0
M  V30 3012 N 292.343 -2.68831 1.10355 0
M  V30 3013 H 291.89 -1.97929 1.64869 0
M  V30 3014 H 291.848 -3.12412 0.353031 0
M  V30 3015 N 295.62 -1.53406 -0.361157 0
M  V30 3016 C 296.866 -1.70054 -1.10496 0
M  V30 3017 C 297.199 -0.453278 -1.88836 0
M  V30 3018 O 296.474 0.5495 -1.86576 0
M  V30 3019 C 296.757 -2.95317 -2.06058 0
M  V30 3020 C 296.61 -4.3021 -1.31298 0
M  V30 3021 C 297.929 -3.16193 -3.06121 0
M  V30 3022 H 295.048 -0.618799 -0.400321 0
M  V30 3023 H 297.69 -1.86052 -0.385318 0
M  V30 3024 H 295.84 -2.81809 -2.67425 0
M  V30 3025 H 297.512 -4.55538 -0.726807 0
M  V30 3026 H 295.755 -4.29421 -0.614853 0
M  V30 3027 H 296.426 -5.14 -2.01265 0
M  V30 3028 H 298.902 -3.28916 -2.5486 0
M  V30 3029 H 297.778 -4.05266 -3.70204 0
M  V30 3030 H 298.039 -2.31676 -3.76535 0
M  V30 3031 N 297.098 0.621204 -1.44841 0
M  V30 3032 C 298.509 1.20298 -1.42777 0
M  V30 3033 C 298.86 1.95639 -0.148259 0
M  V30 3034 O 297.985 2.02955 0.750892 0
M  V30 3035 C 298.58 2.1882 -2.58657 0
M  V30 3036 C 297.139 2.72403 -2.59756 0
M  V30 3037 C 296.286 1.4757 -2.34773 0
M  V30 3038 H 299.237 0.411297 -1.53278 0
M  V30 3039 H 299.258 3.01607 -2.31977 0
M  V30 3040 H 298.77 1.63957 -3.51766 0
M  V30 3041 H 296.871 3.31242 -1.70615 0
M  V30 3042 H 296.984 3.17765 -3.58556 0
M  V30 3043 H 295.348 1.76051 -1.8406 0
M  V30 3044 H 296.131 0.945954 -3.3001 0
M  V30 3045 N 298.576 1.31904 0.862503 0
M  V30 3046 C 299.822 1.22197 1.61851 0
M  V30 3047 C 300.155 -0.217641 1.92977 0
M  V30 3048 O 299.43 -1.15264 1.56666 0
M  V30 3049 C 299.713 2.07378 2.94391 0
M  V30 3050 C 299.566 3.59678 2.70096 0
M  V30 3051 C 300.885 1.92891 3.95577 0
M  V30 3052 H 298.004 0.445255 0.587296 0
M  V30 3053 H 300.646 1.6177 0.99651 0
M  V30 3054 H 298.796 1.73758 3.47477 0
M  V30 3055 H 300.468 4.03472 2.23625 0
M  V30 3056 H 298.711 3.82735 2.04197 0
M  V30 3057 H 299.382 4.14595 3.64438 0
M  V30 3058 H 301.858 2.22327 3.51724 0
M  V30 3059 H 300.734 2.54781 4.86187 0
M  V30 3060 H 300.995 0.894315 4.3296 0
M  V30 3061 N 300.054 -1.07777 1.14986 0
M  V30 3062 C 301.465 -1.61766 0.932127 0
M  V30 3063 C 301.816 -1.88974 -0.527581 0
M  V30 3064 O 300.941 -1.65198 -1.39781 0
M  V30 3065 C 301.536 -2.93891 1.68563 0
M  V30 3066 C 300.095 -3.44639 1.5133 0
M  V30 3067 C 299.242 -2.18767 1.704 0
M  V30 3068 H 302.193 -0.909201 1.30074 0
M  V30 3069 H 302.214 -3.62623 1.15259 0
M  V30 3070 H 301.726 -2.74057 2.74799 0
M  V30 3071 H 299.827 -3.69564 0.474702 0
M  V30 3072 H 299.94 -4.20966 2.28746 0
M  V30 3073 H 298.304 -2.28253 1.13016 0
M  V30 3074 H 299.087 -2.01433 2.77992 0
M  V30 3075 N 301.532 -0.945985 -1.26051 0
M  V30 3076 C 302.757 -0.612525 -1.98149 0
M  V30 3077 C 303.182 0.806623 -1.69927 0
M  V30 3078 O 302.54 1.54411 -0.950108 0
M  V30 3079 C 302.588 -0.866981 -3.50023 0
M  V30 3080 O 301.692 0.0585333 -4.12358 0
M  V30 3081 H 301.033 -0.23379 -0.621481 0
M  V30 3082 H 303.563 -1.27023 -1.60395 0
M  V30 3083 H 303.573 -0.789792 -4.00283 0
M  V30 3084 H 302.248 -1.90135 -3.69894 0
M  V30 3085 H 300.825 -0.0701241 -3.72834 0
M  V30 3086 N 303.011 1.40521 -0.713556 0
M  V30 3087 C 303.959 2.32549 -0.0485227 0
M  V30 3088 C 304.953 1.51931 0.74922 0
M  V30 3089 O 306.159 1.67745 0.652816 0
M  V30 3090 H 302.534 0.751994 0.00311138 0
M  V30 3091 H 304.505 2.86291 -0.841443 0
M  V30 3092 C 303.254 3.36879 0.860687 0
M  V30 3093 H 302.577 3.98978 0.256246 0
M  V30 3094 H 304.017 4.03772 1.294 0
M  V30 3095 C 302.476 2.72197 1.9852 0
M  V30 3096 O 303.006 2.5837 3.07584 0
M  V30 3097 N 301.212 2.30612 1.76823 0
M  V30 3098 H 300.759 2.42059 0.881217 0
M  V30 3099 H 300.717 1.87672 2.52243 0
M  V30 3100 N 304.489 0.459591 1.5075 0
M  V30 3101 C 305.436 -0.340524 2.28274 0
M  V30 3102 C 306.406 -0.997371 1.32822 0
M  V30 3103 O 307.591 -1.01202 1.61749 0
M  V30 3104 C 304.731 -1.42317 3.14388 0
M  V30 3105 C 303.844 -0.782251 4.24859 0
M  V30 3106 C 302.979 -1.84182 4.98247 0
M  V30 3107 C 302.018 -1.18053 6.00608 0
M  V30 3108 N 301.155 -2.18244 6.67319 0
M  V30 3109 H 305.995 0.326899 2.96202 0
M  V30 3110 H 303.532 0.173057 1.46078 0
M  V30 3111 H 305.49 -2.06241 3.62658 0
M  V30 3112 H 304.12 -2.05992 2.4853 0
M  V30 3113 H 303.172 -0.0307404 3.80388 0
M  V30 3114 H 304.484 -0.259663 4.98124 0
M  V30 3115 H 303.638 -2.55714 5.50177 0
M  V30 3116 H 302.377 -2.39819 4.24662 0
M  V30 3117 H 301.382 -0.450776 5.47949 0
M  V30 3118 H 302.607 -0.631202 6.7616 0
M  V30 3119 H 300.553 -2.72919 5.96533 0
M  V30 3120 H 300.47 -1.70938 7.36421 0
M  V30 3121 H 301.738 -2.89191 7.23871 0
M  V30 3122 N 305.967 -1.56429 0.191757 0
M  V30 3123 C 307.383 -1.58754 -0.164137 0
M  V30 3124 C 307.583 -1.20782 -1.61288 0
M  V30 3125 O 306.639 -0.928999 -2.34789 0
M  V30 3126 C 307.952 -3.00396 0.135195 0
M  V30 3127 C 309.5 -3.1291 0.0750351 0
M  V30 3128 C 309.975 -4.56679 0.347632 0
M  V30 3129 N 311.466 -4.62252 0.296131 0
M  V30 3130 C 312.201 -5.71379 0.480948 0
M  V30 3131 N 311.697 -6.88986 0.725933 0
M  V30 3132 N 313.49 -5.60563 0.415435 0
M  V30 3133 H 305.641 -1.79393 1.13718 0
M  V30 3134 H 307.904 -0.832414 0.453643 0
M  V30 3135 H 307.61 -3.32726 1.13958 0
M  V30 3136 H 307.484 -3.72963 -0.563773 0
M  V30 3137 H 309.871 -2.80394 -0.919948 0
M  V30 3138 H 309.952 -2.42736 0.807029 0
M  V30 3139 H 309.596 -4.89907 1.33992 0
M  V30 3140 H 309.526 -5.25039 -0.405212 0
M  V30 3141 H 312.017 -3.7773 0.113259 0
M  V30 3142 H 312.33 -7.68046 0.855857 0
M  V30 3143 H 310.675 -6.90801 0.762788 0
M  V30 3144 H 313.866 -4.67561 0.224486 0
M  V30 3145 H 314.039 -6.45551 0.562889 0
M  V30 3146 N 307.445 0.0818655 -1.57387 0
M  V30 3147 C 308.67 0.799946 -1.91352 0
M  V30 3148 C 309.095 1.70833 -0.787258 0
M  V30 3149 O 308.453 1.79419 0.26048 0
M  V30 3150 C 308.501 1.57812 -3.24234 0
M  V30 3151 O 307.605 2.68806 -3.12757 0
M  V30 3152 H 306.946 0.21891 -0.626877 0
M  V30 3153 H 309.476 0.0531256 -2.04531 0
M  V30 3154 H 309.486 1.95952 -3.57864 0
M  V30 3155 H 308.161 0.911548 -4.05788 0
M  V30 3156 H 306.738 2.33597 -2.90666 0
M  V30 3157 N 308.923 1.53595 0.353017 0
M  V30 3158 C 310.334 1.61937 0.929153 0
M  V30 3159 C 310.685 0.494686 1.89861 0
M  V30 3160 O 309.81 -0.377017 2.1309 0
M  V30 3161 C 310.405 2.93526 1.69199 0
M  V30 3162 C 308.964 3.04161 2.21727 0
M  V30 3163 C 308.111 2.57322 1.03348 0
M  V30 3164 H 311.062 1.58155 0.131431 0
M  V30 3165 H 311.083 2.82034 2.55416 0
M  V30 3166 H 310.595 3.75362 0.986144 0
M  V30 3167 H 308.696 2.26938 2.95516 0
M  V30 3168 H 308.809 4.09465 2.48748 0
M  V30 3169 H 307.173 2.12499 1.40414 0
M  V30 3170 H 307.956 3.41588 0.342428 0
M  V30 3171 N 310.401 -0.613514 1.45168 0
M  V30 3172 C 311.331 -1.7354 1.56225 0
M  V30 3173 C 312.312 -1.64981 0.41414 0
M  V30 3174 O 313.497 -1.83472 0.636526 0
M  V30 3175 C 310.627 -3.12128 1.52295 0
M  V30 3176 C 309.581 -3.35491 2.65762 0
M  V30 3177 C 308.907 -4.74291 2.46885 0
M  V30 3178 C 310.207 -3.26325 4.0781 0
M  V30 3179 H 311.901 -1.64543 2.50132 0
M  V30 3180 H 309.447 -0.790185 1.20383 0
M  V30 3181 H 311.4 -3.90404 1.58628 0
M  V30 3182 H 310.124 -3.2195 0.549139 0
M  V30 3183 H 308.783 -2.59603 2.58847 0
M  V30 3184 H 308.431 -4.80839 1.47657 0
M  V30 3185 H 308.131 -4.9088 3.22972 0
M  V30 3186 H 309.655 -5.54775 2.55063 0
M  V30 3187 H 311.069 -3.94483 4.16 0
M  V30 3188 H 309.466 -3.54445 4.8424 0
M  V30 3189 H 310.536 -2.23855 4.30136 0
M  V30 3190 N 311.879 -1.3236 -0.855495 0
M  V30 3191 C 313.127 -1.22629 -1.60644 0
M  V30 3192 C 313.448 0.212136 -1.93843 0
M  V30 3193 O 312.718 1.13666 -1.59552 0
M  V30 3194 H 311.298 -0.450882 -0.595579 0
M  V30 3195 H 313.96 -1.65871 -1.02337 0
M  V30 3196 H 313.056 -1.80832 -2.54374 0
M  V30 3197 N 313.357 1.07166 -1.15556 0
M  V30 3198 C 314.605 1.79443 -0.929764 0
M  V30 3199 C 314.926 1.87246 0.544414 0
M  V30 3200 O 314.196 1.37473 1.39564 0
M  V30 3201 H 312.776 0.664625 -0.341003 0
M  V30 3202 H 315.438 1.29499 -1.45657 0
M  V30 3203 H 314.534 2.81832 -1.34079 0
M  V30 3204 N 314.835 0.952656 1.25548 0
M  V30 3205 C 316.246 0.647392 1.75116 0
M  V30 3206 C 316.597 -0.837274 1.77438 0
M  V30 3207 O 315.722 -1.65525 1.39393 0
M  V30 3208 C 316.317 1.16845 3.18014 0
M  V30 3209 C 314.876 0.913382 3.6515 0
M  V30 3210 C 314.023 1.31265 2.44264 0
M  V30 3211 H 316.974 1.12968 1.11462 0
M  V30 3212 H 316.995 0.527606 3.76824 0
M  V30 3213 H 316.507 2.24902 3.16292 0
M  V30 3214 H 314.608 -0.152316 3.72289 0
M  V30 3215 H 314.721 1.54845 4.53387 0
M  V30 3216 H 313.085 0.731028 2.43984 0
M  V30 3217 H 313.868 2.40239 2.45234 0
M  V30 3218 N 316.313 -1.40141 0.720998 0
M  V30 3219 C 317.541 -2.05096 0.272656 0
M  V30 3220 C 317.956 -1.54334 -1.0875 0
M  V30 3221 O 317.313 -0.702211 -1.6845 0
M  V30 3222 C 317.364 -3.60636 0.249835 0
M  V30 3223 O 317.085 -4.09526 1.55629 0
M  V30 3224 C 318.586 -4.42772 -0.216396 0
M  V30 3225 H 315.806 -0.659897 0.121558 0
M  V30 3226 H 318.35 -1.79449 0.980723 0
M  V30 3227 H 316.505 -3.85232 -0.409237 0
M  V30 3228 H 316.919 -5.03758 1.4604 0
M  V30 3229 H 318.393 -5.51702 -0.181212 0
M  V30 3230 H 318.87 -4.20756 -1.25941 0
M  V30 3231 H 319.476 -4.23294 0.412596 0
M  V30 3232 N 317.792 -0.46758 -1.50504 0
M  V30 3233 C 319.203 -0.0116166 -1.86696 0
M  V30 3234 C 319.554 1.39202 -1.38265 0
M  V30 3235 O 318.679 2.0313 -0.746132 0
M  V30 3236 C 319.274 -0.0143044 -3.38797 0
M  V30 3237 C 317.833 0.386175 -3.74414 0
M  V30 3238 C 316.98 -0.401287 -2.74381 0
M  V30 3239 H 319.931 -0.682022 -1.43297 0
M  V30 3240 H 319.952 0.788641 -3.72237 0
M  V30 3241 H 319.464 -1.03602 -3.74016 0
M  V30 3242 H 317.565 1.41237 -3.44794 0
M  V30 3243 H 317.678 0.0899596 -4.79016 0
M  V30 3244 H 316.042 0.144536 -2.5429 0
M  V30 3245 H 316.825 -1.42244 -3.12444 0
M  V30 3246 N 319.27 1.56325 -0.20005 0
M  V30 3247 C 320.516 1.98012 0.438059 0
M  V30 3248 C 320.849 1.08702 1.60927 0
M  V30 3249 O 320.124 0.140064 1.93995 0
M  V30 3250 C 320.407 3.48841 0.893419 0
M  V30 3251 C 320.26 4.48928 -0.279947 0
M  V30 3252 C 321.579 4.03498 1.75719 0
M  V30 3253 H 318.698 0.719918 0.157757 0
M  V30 3254 H 321.34 1.87743 -0.291968 0
M  V30 3255 H 319.49 3.57723 1.51547 0
M  V30 3256 H 321.162 4.52079 -0.91772 0
M  V30 3257 H 319.405 4.23694 -0.930919 0
M  V30 3258 H 320.076 5.5194 0.0812601 0
M  V30 3259 H 322.552 3.97427 1.23253 0
M  V30 3260 H 321.428 5.09393 2.04476 0
M  V30 3261 H 321.689 3.4906 2.71311 0
M  V30 3262 N 320.748 -0.0735177 1.57428 0
M  V30 3263 C 321.988 -0.778363 1.89 0
M  V30 3264 C 322.352 -1.7483 0.793634 0
M  V30 3265 O 323.553 -2.49811 0.992367 0
M  V30 3266 C 321.824 -1.46929 3.25802 0
M  V30 3267 S 323.383 -2.20943 3.79117 0
M  V30 3268 H 320.201 -0.258874 0.662197 0
M  V30 3269 H 322.803 -0.0345338 1.95469 0
M  V30 3270 H 321.507 -0.749532 4.03497 0
M  V30 3271 H 321.038 -2.25258 3.22525 0
M  V30 3272 H 323.053 -3.47435 3.54265 0
M  V30 3273 N 322.226 -1.5378 -0.344866 0
M  V30 3274 C 323.173 -1.81676 -1.42346 0
M  V30 3275 C 324.143 -0.662376 -1.52321 0
M  V30 3276 O 325.328 -0.906675 -1.67881 0
M  V30 3277 C 322.468 -2.03087 -2.79015 0
M  V30 3278 C 321.581 -3.30799 -2.77842 0
M  V30 3279 C 320.716 -3.42285 -4.0622 0
M  V30 3280 C 319.755 -4.6395 -3.9927 0
M  V30 3281 N 318.892 -4.72477 -5.19336 0
M  V30 3282 H 323.732 -2.73703 -1.17858 0
M  V30 3283 H 321.269 -1.35568 -0.570949 0
M  V30 3284 H 323.227 -2.1349 -3.58438 0
M  V30 3285 H 321.857 -1.14375 -3.01858 0
M  V30 3286 H 320.909 -3.29244 -1.90533 0
M  V30 3287 H 322.221 -4.20314 -2.68584 0
M  V30 3288 H 321.375 -3.52113 -4.94066 0
M  V30 3289 H 320.114 -2.50823 -4.18258 0
M  V30 3290 H 319.119 -4.54201 -3.09809 0
M  V30 3291 H 320.344 -5.56775 -3.88817 0
M  V30 3292 H 318.29 -3.83924 -5.3192 0
M  V30 3293 H 318.207 -5.55927 -5.12329 0
M  V30 3294 H 319.475 -4.86613 -6.08957 0
M  V30 3295 N 323.704 0.605807 -1.45491 0
M  V30 3296 C 324.667 1.69836 -1.5391 0
M  V30 3297 C 325.667 1.55261 -0.418424 0
M  V30 3298 O 326.857 1.60296 -0.681965 0
M  V30 3299 C 323.989 3.09117 -1.43734 0
M  V30 3300 H 325.182 1.63738 -2.51257 0
M  V30 3301 H 322.735 0.821689 -1.32959 0
M  V30 3302 H 323.47 3.20791 -0.475788 0
M  V30 3303 H 323.255 3.21104 -2.25021 0
M  V30 3304 H 324.745 3.88696 -1.52661 0
M  V30 3305 N 325.182 1.32811 0.848464 0
M  V30 3306 C 326.41 1.26739 1.63538 0
M  V30 3307 C 326.825 -0.163484 1.88091 0
M  V30 3308 O 326.182 -1.10258 1.45429 0
M  V30 3309 C 326.233 2.03013 2.99112 0
M  V30 3310 O 325.954 3.40518 2.75643 0
M  V30 3311 C 327.455 2.04038 3.93552 0
M  V30 3312 H 324.675 0.437024 0.509167 0
M  V30 3313 H 327.219 1.75033 1.05753 0
M  V30 3314 H 325.374 1.58426 3.53525 0
M  V30 3315 H 325.788 3.79635 3.61908 0
M  V30 3316 H 327.262 2.61877 4.85926 0
M  V30 3317 H 327.739 1.0282 4.26995 0
M  V30 3318 H 328.345 2.486 3.45077 0
M  V30 3319 N 326.66 -1.06551 1.16123 0
M  V30 3320 C 327.59 -2.15935 0.88851 0
M  V30 3321 C 328.571 -1.69306 -0.164135 0
M  V30 3322 O 329.756 -1.94193 -0.0167857 0
M  V30 3323 C 326.886 -3.45149 0.385942 0
M  V30 3324 C 325.84 -4.05271 1.3762 0
M  V30 3325 C 325.166 -5.29664 0.732137 0
M  V30 3326 C 326.466 -4.44355 2.74493 0
M  V30 3327 H 328.16 -2.39006 1.80323 0
M  V30 3328 H 325.706 -1.14866 0.868435 0
M  V30 3329 H 327.659 -4.21004 0.182647 0
M  V30 3330 H 326.383 -3.21689 -0.564274 0
M  V30 3331 H 325.042 -3.3147 1.56599 0
M  V30 3332 H 324.69 -5.02499 -0.224483 0
M  V30 3333 H 324.39 -5.70848 1.39307 0
M  V30 3334 H 325.914 -6.08218 0.538802 0
M  V30 3335 H 327.328 -5.11303 2.59311 0
M  V30 3336 H 325.725 -4.96515 3.37035 0
M  V30 3337 H 326.795 -3.55339 3.29943 0
M  V30 3338 N 328.138 -0.959301 -1.25041 0
M  V30 3339 C 329.363 -0.633507 -1.97488 0
M  V30 3340 C 329.788 0.788555 -1.70773 0
M  V30 3341 O 329.146 1.53394 -0.966431 0
M  V30 3342 C 329.194 -0.904057 -3.49083 0
M  V30 3343 O 328.298 0.0147939 -4.12397 0
M  V30 3344 H 327.639 -0.240368 -0.618966 0
M  V30 3345 H 330.169 -1.28717 -1.59038 0
M  V30 3346 H 330.179 -0.832203 -3.99423 0
M  V30 3347 H 328.854 -1.94048 -3.67856 0
M  V30 3348 H 327.431 -0.109664 -3.72739 0
M  V30 3349 N 329.616 1.39756 -0.72842 0
M  V30 3350 C 330.526 2.34444 -0.0855374 0
M  V30 3351 C 331.542 1.57976 0.729356 0
M  V30 3352 O 332.718 1.90301 0.659346 0
M  V30 3353 C 329.783 3.36965 0.815798 0
M  V30 3354 C 328.844 4.29299 -0.0105996 0
M  V30 3355 C 328.077 5.26923 0.84781 0
M  V30 3356 O 328.3 5.30859 2.08673 0
M  V30 3357 O 327.234 6.01249 0.279969 0
M  V30 3358 H 331.06 2.91065 -0.866892 0
M  V30 3359 H 328.645 1.4117 -0.48902 0
M  V30 3360 H 330.527 3.99804 1.33171 0
M  V30 3361 H 329.202 2.82739 1.57608 0
M  V30 3362 H 328.109 3.69703 -0.571877 0
M  V30 3363 H 329.442 4.86712 -0.73295 0
M  V30 3364 N 331.094 0.475555 1.50254 0
M  V30 3365 C 332.004 -0.321501 2.32387 0
M  V30 3366 C 333.02 -0.991755 1.42969 0
M  V30 3367 O 334.196 -0.978747 1.76018 0
M  V30 3368 C 331.261 -1.38667 3.17762 0
M  V30 3369 C 330.322 -0.732538 4.23004 0
M  V30 3370 C 329.555 -1.74695 5.04299 0
M  V30 3371 O 329.778 -2.97399 4.86734 0
M  V30 3372 O 328.712 -1.31631 5.8733 0
M  V30 3373 H 332.538 0.350071 3.01676 0
M  V30 3374 H 330.123 0.237321 1.47503 0
M  V30 3375 H 332.005 -2.00354 3.70724 0
M  V30 3376 H 330.68 -2.04163 2.51196 0
M  V30 3377 H 329.587 -0.0765902 3.74022 0
M  V30 3378 H 330.92 -0.120452 4.92053 0
M  V30 3379 N 332.573 -1.56217 0.208337 0
M  V30 3380 C 333.801 -2.02337 -0.43215 0
M  V30 3381 C 334.216 -1.08834 -1.54275 0
M  V30 3382 O 333.573 -0.0955462 -1.8225 0
M  V30 3383 C 333.624 -3.48072 -0.976138 0
M  V30 3384 O 333.345 -4.38007 0.0901621 0
M  V30 3385 C 334.846 -4.09773 -1.69119 0
M  V30 3386 H 332.066 -0.662385 -0.10718 0
M  V30 3387 H 334.61 -2.01966 0.320923 0
M  V30 3388 H 332.765 -3.49099 -1.67954 0
M  V30 3389 H 333.179 -5.23543 -0.316701 0
M  V30 3390 H 334.653 -5.13556 -2.02397 0
M  V30 3391 H 335.13 -3.53999 -2.59964 0
M  V30 3392 H 335.736 -4.12556 -1.03332 0
M  V30 3393 N 334.051 0.0651679 -1.57465 0
M  V30 3394 C 335.291 0.768329 -1.8941 0
M  V30 3395 C 335.655 1.74406 -0.802894 0
M  V30 3396 O 336.856 2.49281 -1.0056 0
M  V30 3397 C 335.127 1.45199 -3.26576 0
M  V30 3398 S 336.686 2.1893 -3.80283 0
M  V30 3399 H 333.504 0.255359 -0.663561 0
M  V30 3400 H 336.106 0.024167 -1.95485 0
M  V30 3401 H 334.81 0.728123 -4.03889 0
M  V30 3402 H 334.341 2.23545 -3.23715 0
M  V30 3403 H 336.356 3.45551 -3.56102 0
M  V30 3404 N 335.529 1.53961 0.336706 0
M  V30 3405 C 336.461 1.78751 1.4346 0
M  V30 3406 C 337.474 0.669019 1.48418 0
M  V30 3407 O 338.663 0.945884 1.51378 0
M  V30 3408 C 335.763 1.87844 2.82078 0
M  V30 3409 C 334.936 3.17854 3.00479 0
M  V30 3410 C 333.995 3.17816 4.19379 0
M  V30 3411 O 333.021 3.91511 4.13168 0
M  V30 3412 N 334.223 2.40669 5.2826 0
M  V30 3413 H 336.988 2.73493 1.22563 0
M  V30 3414 H 334.549 1.53096 0.526625 0
M  V30 3415 H 336.541 1.85261 3.59806 0
M  V30 3416 H 335.111 1.00257 2.96086 0
M  V30 3417 H 334.331 3.33504 2.10163 0
M  V30 3418 H 335.619 4.03718 3.0966 0
M  V30 3419 H 335.017 1.8036 5.36178 0
M  V30 3420 H 333.574 2.43877 6.04456 0
M  V30 3421 N 337.007 -0.598083 1.45811 0
M  V30 3422 C 337.939 -1.72231 1.51225 0
M  V30 3423 C 338.952 -1.57757 0.402059 0
M  V30 3424 O 340.141 -1.65464 0.669624 0
M  V30 3425 C 337.241 -3.10331 1.3619 0
M  V30 3426 C 336.414 -3.50955 2.61054 0
M  V30 3427 C 335.473 -4.68055 2.40439 0
M  V30 3428 O 334.499 -4.74691 3.14097 0
M  V30 3429 N 335.701 -5.61941 1.45612 0
M  V30 3430 H 338.466 -1.68046 2.48154 0
M  V30 3431 H 336.027 -0.783637 1.41671 0
M  V30 3432 H 338.019 -3.86439 1.20195 0
M  V30 3433 H 336.589 -3.0897 0.475015 0
M  V30 3434 H 335.809 -2.64711 2.92099 0
M  V30 3435 H 337.097 -3.74858 3.44034 0
M  V30 3436 H 336.495 -5.59301 0.848431 0
M  V30 3437 H 335.052 -6.37542 1.35585 0
M  V30 3438 N 338.485 -1.33259 -0.841409 0
M  V30 3439 C 339.415 -1.25926 -1.96634 0
M  V30 3440 C 340.396 -0.140349 -1.6952 0
M  V30 3441 O 341.581 -0.329707 -1.91381 0
M  V30 3442 C 338.711 -0.99512 -3.32738 0
M  V30 3443 C 337.665 -2.0767 -3.74242 0
M  V30 3444 C 336.991 -1.66474 -5.08125 0
M  V30 3445 C 338.291 -3.49318 -3.88297 0
M  V30 3446 H 339.985 -2.20046 -2.03027 0
M  V30 3447 H 337.531 -1.05931 -0.975425 0
M  V30 3448 H 339.484 -0.930323 -4.11002 0
M  V30 3449 H 338.208 -0.0183004 -3.26595 0
M  V30 3450 H 336.867 -2.13187 -2.98239 0
M  V30 3451 H 336.515 -0.675012 -4.9845 0
M  V30 3452 H 336.215 -2.3885 -5.36865 0
M  V30 3453 H 337.739 -1.61455 -5.88867 0
M  V30 3454 H 339.153 -3.46316 -4.56879 0
M  V30 3455 H 337.55 -4.20158 -4.28471 0
M  V30 3456 H 338.62 -3.8801 -2.9082 0
M  V30 3457 N 339.963 1.05934 -1.16686 0
M  V30 3458 C 340.926 2.11669 -0.879144 0
M  V30 3459 C 341.926 1.60294 0.127445 0
M  V30 3460 O 343.116 1.7389 -0.103865 0
M  V30 3461 C 340.248 3.39438 -0.315425 0
M  V30 3462 H 341.441 2.38626 -1.81653 0
M  V30 3463 H 338.994 1.22058 -0.976299 0
M  V30 3464 H 339.729 3.18132 0.629468 0
M  V30 3465 H 339.514 3.78034 -1.04079 0
M  V30 3466 H 341.004 4.17391 -0.132189 0
M  V30 3467 N 341.441 0.965919 1.2453 0
M  V30 3468 C 342.857 0.67216 1.44756 0
M  V30 3469 C 343.057 -0.766609 1.86347 0
M  V30 3470 O 342.113 -1.5407 2.00047 0
M  V30 3471 C 343.426 1.65473 2.51076 0
M  V30 3472 C 344.974 1.66716 2.64905 0
M  V30 3473 C 345.449 2.63766 3.74421 0
M  V30 3474 N 346.94 2.62198 3.81846 0
M  V30 3475 C 347.675 3.33966 4.66106 0
M  V30 3476 N 347.171 4.15245 5.54566 0
M  V30 3477 N 348.964 3.22799 4.60171 0
M  V30 3478 H 341.115 1.89553 0.958293 0
M  V30 3479 H 343.378 0.815979 0.482579 0
M  V30 3480 H 343.084 2.68296 2.27399 0
M  V30 3481 H 342.958 1.4261 3.49202 0
M  V30 3482 H 345.345 0.646057 2.87941 0
M  V30 3483 H 345.426 1.93642 1.67142 0
M  V30 3484 H 345.07 3.6601 3.52135 0
M  V30 3485 H 345 2.34121 4.71694 0
M  V30 3486 H 347.491 2.032 3.18619 0
M  V30 3487 H 347.804 4.66898 6.15814 0
M  V30 3488 H 346.149 4.1934 5.54237 0
M  V30 3489 H 349.34 2.58764 3.90075 0
M  V30 3490 H 349.513 3.78994 5.25612 0
M  V30 3491 N 342.919 -1.39368 0.735821 0
M  V30 3492 C 343.829 -2.34395 0.0979693 0
M  V30 3493 C 344.845 -1.58361 -0.720968 0
M  V30 3494 O 346.021 -1.90648 -0.649245 0
M  V30 3495 C 343.086 -3.37393 -0.797916 0
M  V30 3496 C 342.147 -4.29287 0.0333662 0
M  V30 3497 C 341.38 -5.27365 -0.819854 0
M  V30 3498 O 341.603 -5.31959 -2.05855 0
M  V30 3499 O 340.537 -6.01389 -0.248079 0
M  V30 3500 H 344.363 -2.90601 0.882315 0
M  V30 3501 H 341.948 -1.40909 0.4965 0
M  V30 3502 H 343.83 -4.00505 -1.31048 0
M  V30 3503 H 342.505 -2.83571 -1.56106 0
M  V30 3504 H 341.412 -3.69395 0.591475 0
M  V30 3505 H 342.745 -4.86317 0.758752 0
M  V30 3506 N 344.397 -0.483516 -1.5 0
M  V30 3507 C 345.625 0.0644831 -2.06799 0
M  V30 3508 C 346.04 1.32399 -1.34596 0
M  V30 3509 O 345.397 1.77626 -0.418946 0
M  V30 3510 C 345.448 0.339927 -3.59898 0
M  V30 3511 O 345.169 -0.869635 -4.29382 0
M  V30 3512 C 346.67 0.933515 -4.33359 0
M  V30 3513 H 343.89 -0.0126333 -0.670881 0
M  V30 3514 H 346.434 -0.675864 -1.93009 0
M  V30 3515 H 344.589 1.03022 -3.7345 0
M  V30 3516 H 345.003 -0.62179 -5.20801 0
M  V30 3517 H 346.477 1.07593 -5.41413 0
M  V30 3518 H 346.954 1.92685 -3.94676 0
M  V30 3519 H 347.56 0.281221 -4.24369 0
M  V30 3520 N 345.875 1.56104 -0.216619 0
M  V30 3521 C 346.805 2.23063 0.690296 0
M  V30 3522 C 347.786 1.20072 1.20485 0
M  V30 3523 O 348.971 1.48643 1.24976 0
M  V30 3524 C 346.101 2.90672 1.90072 0
M  V30 3525 C 345.055 4.00092 1.5202 0
M  V30 3526 C 344.381 4.54972 2.80899 0
M  V30 3527 C 345.681 5.17398 0.71391 0
M  V30 3528 H 347.375 2.99109 0.132038 0
M  V30 3529 H 344.921 1.43866 0.0620664 0
M  V30 3530 H 346.874 3.36204 2.54057 0
M  V30 3531 H 345.598 2.12066 2.48386 0
M  V30 3532 H 344.257 3.55283 0.903839 0
M  V30 3533 H 343.905 3.73102 3.37348 0
M  V30 3534 H 343.605 5.28817 2.56176 0
M  V30 3535 H 345.129 5.0322 3.45836 0
M  V30 3536 H 346.543 5.59342 1.25735 0
M  V30 3537 H 344.94 5.97444 0.563951 0
M  V30 3538 H 346.01 4.84088 -0.280527 0
M  V30 3539 N 347.353 -0.0568162 1.57498 0
M  V30 3540 C 348.263 -1.08346 2.08083 0
M  V30 3541 C 349.279 -1.41439 1.01346 0
M  V30 3542 O 350.455 -1.51316 1.32912 0
M  V30 3543 C 347.52 -2.37352 2.52715 0
M  V30 3544 C 346.581 -2.11093 3.73816 0
M  V30 3545 C 345.814 -3.33949 4.1631 0
M  V30 3546 O 346.037 -4.43622 3.58547 0
M  V30 3547 O 344.971 -3.21279 5.08983 0
M  V30 3548 H 348.797 -0.683667 2.95905 0
M  V30 3549 H 346.382 -0.271965 1.46904 0
M  V30 3550 H 348.264 -3.13246 2.81877 0
M  V30 3551 H 346.939 -2.76681 1.68016 0
M  V30 3552 H 345.846 -1.32856 3.49714 0
M  V30 3553 H 347.179 -1.76637 4.59413 0
M  V30 3554 N 348.832 -1.54138 -0.328536 0
M  V30 3555 C 349.742 -1.86192 -1.42723 0
M  V30 3556 C 350.758 -0.753382 -1.56844 0
M  V30 3557 O 351.934 -1.04718 -1.72035 0
M  V30 3558 C 348.999 -2.07824 -2.77507 0
M  V30 3559 C 348.06 -3.31641 -2.72603 0
M  V30 3560 C 347.293 -3.52232 -4.00959 0
M  V30 3561 O 347.516 -2.7636 -4.9898 0
M  V30 3562 O 346.45 -4.45699 -4.0452 0
M  V30 3563 H 350.276 -2.79608 -1.18547 0
M  V30 3564 H 347.861 -1.3998 -0.522104 0
M  V30 3565 H 349.743 -2.23411 -3.57303 0
M  V30 3566 H 348.418 -1.17596 -3.01584 0
M  V30 3567 H 347.325 -3.21444 -1.91376 0
M  V30 3568 H 348.658 -4.2191 -2.53481 0
M  V30 3569 N 350.31 0.590341 -1.46126 0
M  V30 3570 C 351.24 1.71032 -1.58966 0
M  V30 3571 C 352.221 1.64302 -0.440335 0
M  V30 3572 O 353.406 1.82436 -0.665634 0
M  V30 3573 C 350.536 3.09665 -1.57241 0
M  V30 3574 C 349.49 3.31221 -2.71066 0
M  V30 3575 C 348.816 4.70303 -2.54399 0
M  V30 3576 C 350.116 3.19796 -4.1295 0
M  V30 3577 H 351.81 1.60543 -2.52718 0
M  V30 3578 H 349.356 0.770933 -1.21625 0
M  V30 3579 H 351.309 3.87831 -1.64819 0
M  V30 3580 H 350.033 3.21036 -0.600289 0
M  V30 3581 H 348.692 2.55452 -2.62944 0
M  V30 3582 H 348.34 4.78429 -1.55288 0
M  V30 3583 H 348.04 4.85679 -3.30741 0
M  V30 3584 H 349.564 5.50647 -2.63857 0
M  V30 3585 H 350.978 3.87815 -4.22223 0
M  V30 3586 H 349.375 3.46696 -4.89818 0
M  V30 3587 H 350.445 2.16983 -4.33643 0
M  V30 3588 N 351.788 1.33704 0.83433 0
M  V30 3589 C 353.065 1.16011 1.57483 0
M  V30 3590 C 353.445 -0.27176 2.09343 0
M  V30 3591 O 352.793 -1.27146 1.89858 0
M  V30 3592 C 353.003 2.20507 2.70514 0
M  V30 3593 C 354.351 2.54898 3.39577 0
M  V30 3594 O 355.375 2.19209 2.80759 0
M  V30 3595 O 354.234 3.16158 4.45765 0
M  V30 3596 H 351.328 0.448992 0.694503 0
M  V30 3597 H 353.874 1.453 0.876691 0
M  V30 3598 H 352.646 3.16667 2.29865 0
M  V30 3599 H 352.269 1.92329 3.47987 0
M  V30 3600 N 353.266 -1.05314 1.17247 0
M  V30 3601 C 354.512 -1.78699 0.971513 0
M  V30 3602 C 354.867 -1.85932 -0.494692 0
M  V30 3603 O 354.16 -1.34716 -1.36243 0
M  V30 3604 C 354.354 -3.2229 1.54479 0
M  V30 3605 C 354.183 -3.29052 3.06521 0
M  V30 3606 C 352.953 -3.3841 3.75242 0
M  V30 3607 C 355.151 -3.18095 4.04129 0
M  V30 3608 N 353.133 -3.34289 5.14902 0
M  V30 3609 C 354.504 -3.21331 5.30232 0
M  V30 3610 C 356.559 -3.02049 3.95817 0
M  V30 3611 C 355.262 -3.10169 6.4899 0
M  V30 3612 C 357.288 -2.92228 5.14156 0
M  V30 3613 C 356.65 -2.96096 6.39145 0
M  V30 3614 H 352.749 -0.66628 0.409383 0
M  V30 3615 H 355.333 -1.25553 1.4881 0
M  V30 3616 H 353.504 -3.7381 1.05455 0
M  V30 3617 H 355.236 -3.83905 1.28059 0
M  V30 3618 H 351.991 -3.43621 3.25917 0
M  V30 3619 H 352.415 -3.35702 5.87906 0
M  V30 3620 H 357.057 -2.97897 3.00029 0
M  V30 3621 H 354.775 -3.13076 7.44989 0
M  V30 3622 H 358.361 -2.80885 5.09505 0
M  V30 3623 H 357.241 -2.88568 7.29176 0
M  V30 3624 N 354.744 -0.972509 -1.24016 0
M  V30 3625 C 355.984 -0.644951 -1.93958 0
M  V30 3626 C 356.348 0.80559 -1.74282 0
M  V30 3627 O 357.549 1.2436 -2.38302 0
M  V30 3628 C 355.82 -1.01521 -3.42678 0
M  V30 3629 S 357.379 -0.802927 -4.31391 0
M  V30 3630 H 354.197 -0.236452 -0.670531 0
M  V30 3631 H 356.799 -1.25048 -1.50277 0
M  V30 3632 H 355.503 -2.06769 -3.54506 0
M  V30 3633 H 355.034 -0.400648 -3.91355 0
M  V30 3634 H 357.049 0.317256 -4.95185 0
M  V30 3635 N 356.222 1.38976 -0.743202 0
M  V30 3636 C 357.152 2.33171 -0.123873 0
M  V30 3637 C 358.133 1.54336 0.71516 0
M  V30 3638 O 359.318 1.82696 0.658467 0
M  V30 3639 C 356.448 3.38474 0.777978 0
M  V30 3640 C 355.402 4.27979 0.0424758 0
M  V30 3641 C 354.728 5.2405 1.06189 0
M  V30 3642 C 356.028 5.10155 -1.1198 0
M  V30 3643 H 357.722 2.85213 -0.910709 0
M  V30 3644 H 355.268 1.37133 -0.439388 0
M  V30 3645 H 357.221 4.03328 1.22084 0
M  V30 3646 H 355.945 2.84891 1.59702 0
M  V30 3647 H 354.604 3.64616 -0.380853 0
M  V30 3648 H 354.252 4.66758 1.87472 0
M  V30 3649 H 353.952 5.84785 0.574485 0
M  V30 3650 H 355.476 5.9178 1.50428 0
M  V30 3651 H 356.89 5.68307 -0.75499 0
M  V30 3652 H 355.287 5.80073 -1.53738 0
M  V30 3653 H 356.357 4.44504 -1.93764 0
M  V30 3654 N 357.7 0.491464 1.49741 0
M  V30 3655 C 358.61 -0.296835 2.32715 0
M  V30 3656 C 359.626 -0.976536 1.44013 0
M  V30 3657 O 360.802 -0.960023 1.77047 0
M  V30 3658 C 357.867 -1.35288 3.19215 0
M  V30 3659 C 356.928 -0.687632 4.23757 0
M  V30 3660 C 356.161 -1.69336 5.06123 0
M  V30 3661 O 356.384 -2.92219 4.89861 0
M  V30 3662 O 355.318 -1.25394 5.88693 0
M  V30 3663 H 359.144 0.382048 3.01287 0
M  V30 3664 H 356.729 0.252953 1.47243 0
M  V30 3665 H 358.611 -1.96411 3.72828 0
M  V30 3666 H 357.286 -2.01487 2.53347 0
M  V30 3667 H 356.193 -0.0369159 3.74082 0
M  V30 3668 H 357.526 -0.0682566 4.92153 0
M  V30 3669 N 359.178 -1.55987 0.224894 0
M  V30 3670 C 360.11 -2.17722 -0.716224 0
M  V30 3671 C 361.123 -1.14723 -1.15509 0
M  V30 3672 O 362.312 -1.41688 -1.08567 0
M  V30 3673 C 359.412 -2.74873 -1.98238 0
M  V30 3674 C 358.585 -4.03074 -1.69853 0
M  V30 3675 C 357.644 -4.44757 -2.81208 0
M  V30 3676 O 356.67 -5.11587 -2.49534 0
M  V30 3677 N 357.872 -4.10716 -4.10235 0
M  V30 3678 H 360.637 -2.99109 -0.188123 0
M  V30 3679 H 358.198 -1.6184 0.0440123 0
M  V30 3680 H 360.19 -2.99727 -2.7193 0
M  V30 3681 H 358.76 -1.9777 -2.42086 0
M  V30 3682 H 357.98 -3.86041 -0.797875 0
M  V30 3683 H 359.268 -4.86701 -1.48324 0
M  V30 3684 H 358.666 -3.57019 -4.38809 0
M  V30 3685 H 357.223 -4.40455 -4.80461 0
M  V30 3686 N 360.656 0.0484629 -1.57525 0
M  V30 3687 C 361.586 1.0549 -2.08313 0
M  V30 3688 C 362.567 1.38929 -0.981463 0
M  V30 3689 O 363.752 1.48151 -1.25558 0
M  V30 3690 C 360.882 2.36162 -2.54646 0
M  V30 3691 C 359.836 2.17016 -3.68901 0
M  V30 3692 C 359.162 3.53278 -4.01371 0
M  V30 3693 C 360.462 1.57219 -4.98076 0
M  V30 3694 H 362.156 0.632195 -2.92649 0
M  V30 3695 H 359.702 0.302654 -1.40784 0
M  V30 3696 H 361.655 3.06882 -2.88793 0
M  V30 3697 H 360.379 2.80456 -1.67368 0
M  V30 3698 H 359.038 1.48733 -3.35073 0
M  V30 3699 H 358.686 3.95185 -3.11188 0
M  V30 3700 H 358.386 3.41299 -4.78318 0
M  V30 3701 H 359.91 4.25391 -4.38035 0
M  V30 3702 H 361.324 2.17832 -5.30304 0
M  V30 3703 H 359.721 1.55871 -5.79503 0
M  V30 3704 H 360.791 0.535956 -4.81929 0
M  V30 3705 N 362.134 1.5431 0.320358 0
M  V30 3706 C 363.044 1.86946 1.41734 0
M  V30 3707 C 364.06 0.761689 1.56443 0
M  V30 3708 O 365.236 1.05629 1.71477 0
M  V30 3709 C 362.301 2.09293 2.76401 0
M  V30 3710 C 361.362 3.33082 2.70841 0
M  V30 3711 C 360.595 3.54353 3.99086 0
M  V30 3712 O 360.818 2.79002 4.97508 0
M  V30 3713 O 359.752 4.47838 4.0215 0
M  V30 3714 H 363.578 2.80232 1.17062 0
M  V30 3715 H 361.163 1.40255 0.514673 0
M  V30 3716 H 363.045 2.25303 3.56113 0
M  V30 3717 H 361.72 1.19194 3.00956 0
M  V30 3718 H 360.627 3.22454 1.89668 0
M  V30 3719 H 361.96 4.23249 2.5124 0
M  V30 3720 N 363.613 -0.582584 1.46437 0
M  V30 3721 C 364.841 -1.36682 1.55324 0
M  V30 3722 C 365.256 -1.87796 0.194409 0
M  V30 3723 O 364.613 -1.63623 -0.808318 0
M  V30 3724 C 364.664 -2.55426 2.55812 0
M  V30 3725 O 364.385 -2.0643 3.86417 0
M  V30 3726 C 365.886 -3.47976 2.74641 0
M  V30 3727 H 363.106 -0.417545 0.525259 0
M  V30 3728 H 365.65 -0.708219 1.91845 0
M  V30 3729 H 363.805 -3.17275 2.22295 0
M  V30 3730 H 364.219 -2.83762 4.41111 0
M  V30 3731 H 365.693 -4.27775 3.48874 0
M  V30 3732 H 366.17 -3.99919 1.81553 0
M  V30 3733 H 366.776 -2.91962 3.09255 0
M  V30 3734 N 365.091 -1.34144 -0.827227 0
M  V30 3735 C 366.024 -1.19707 -1.94282 0
M  V30 3736 C 367.002 -0.0897256 -1.62352 0
M  V30 3737 O 368.186 -0.254095 -1.8678 0
M  V30 3738 C 365.313 -0.838646 -3.28153 0
M  V30 3739 C 364.359 -1.95514 -3.79047 0
M  V30 3740 S 365.192 -3.56793 -3.99323 0
M  V30 3741 C 366.348 -3.22983 -5.36127 0
M  V30 3742 H 366.581 -2.1414 -2.06231 0
M  V30 3743 H 364.114 -1.19121 -0.982321 0
M  V30 3744 H 366.072 -0.638637 -4.05502 0
M  V30 3745 H 364.733 0.0872776 -3.13979 0
M  V30 3746 H 363.926 -1.658 -4.75948 0
M  V30 3747 H 363.528 -2.11241 -3.08631 0
M  V30 3748 H 365.82 -2.74531 -6.19386 0
M  V30 3749 H 366.763 -4.19008 -5.70822 0
M  V30 3750 H 367.171 -2.59276 -5.01434 0
M  V30 3751 N 366.569 1.04691 -1.17803 0
M  V30 3752 C 367.501 2.12571 -0.857097 0
M  V30 3753 C 368.514 1.62174 0.142647 0
M  V30 3754 O 369.703 1.78301 -0.0843387 0
M  V30 3755 C 366.803 3.37915 -0.258216 0
M  V30 3756 C 365.976 4.1757 -1.30207 0
M  V30 3757 C 365.035 5.2125 -0.720029 0
M  V30 3758 O 364.061 5.51888 -1.39314 0
M  V30 3759 N 365.263 5.78466 0.485507 0
M  V30 3760 H 368.028 2.40698 -1.78562 0
M  V30 3761 H 365.589 1.20831 -1.07757 0
M  V30 3762 H 367.581 4.04442 0.144584 0
M  V30 3763 H 366.151 3.07281 0.574199 0
M  V30 3764 H 365.371 3.46458 -1.88043 0
M  V30 3765 H 366.659 4.67586 -2.00601 0
M  V30 3766 H 366.057 5.55866 1.05022 0
M  V30 3767 H 364.614 6.4649 0.830307 0
M  V30 3768 N 368.047 0.979072 1.23499 0
M  V30 3769 C 369.275 0.665202 1.95915 0
M  V30 3770 C 369.69 -0.767571 1.72493 0
M  V30 3771 O 369.047 -1.51635 1.01554 0
M  V30 3772 C 369.098 0.944438 3.48945 0
M  V30 3773 O 368.819 2.3209 3.71572 0
M  V30 3774 C 370.32 0.646336 4.38563 0
M  V30 3775 H 367.54 0.247218 0.623798 0
M  V30 3776 H 370.084 1.31009 1.57025 0
M  V30 3777 H 368.239 0.345575 3.85856 0
M  V30 3778 H 368.653 2.40957 4.65876 0
M  V30 3779 H 370.127 0.892091 5.44744 0
M  V30 3780 H 370.604 -0.419575 4.37191 0
M  V30 3781 H 371.21 1.22562 4.07258 0
M  V30 3782 N 369.525 -1.3858 0.750561 0
M  V30 3783 C 370.755 -2.04175 0.31564 0
M  V30 3784 C 371.163 -1.56726 -1.05989 0
M  V30 3785 O 370.506 -0.734225 -1.68389 0
M  V30 3786 C 370.568 -3.58585 0.256389 0
M  V30 3787 C 370.232 -4.29077 1.57296 0
M  V30 3788 C 371.229 -4.54656 2.52159 0
M  V30 3789 C 368.914 -4.67324 1.84156 0
M  V30 3790 C 370.908 -5.17512 3.72103 0
M  V30 3791 C 368.595 -5.29905 3.04374 0
M  V30 3792 C 369.593 -5.54933 3.98168 0
M  V30 3793 O 369.281 -6.16212 5.16273 0
M  V30 3794 H 369.013 -0.662742 0.133226 0
M  V30 3795 H 371.567 -1.78313 1.01948 0
M  V30 3796 H 369.797 -3.83406 -0.503677 0
M  V30 3797 H 371.486 -4.05628 -0.148612 0
M  V30 3798 H 372.252 -4.25539 2.32683 0
M  V30 3799 H 368.131 -4.47191 1.11988 0
M  V30 3800 H 371.675 -5.36963 4.45327 0
M  V30 3801 H 367.572 -5.58444 3.23745 0
M  V30 3802 H 368.34 -6.34701 5.16815 0
M  V30 3803 N 371.003 -0.499398 -1.49478 0
M  V30 3804 C 372.419 -0.155261 -1.58843 0
M  V30 3805 C 372.619 1.34008 -1.50479 0
M  V30 3806 O 371.675 2.11589 -1.37791 0
M  V30 3807 C 372.988 -0.730636 -2.91689 0
M  V30 3808 C 374.536 -0.696599 -3.0515 0
M  V30 3809 C 375.011 -1.25001 -4.40612 0
M  V30 3810 N 376.502 -1.21064 -4.47099 0
M  V30 3811 C 377.237 -1.60905 -5.50361 0
M  V30 3812 N 376.733 -2.08331 -6.60735 0
M  V30 3813 N 378.526 -1.52331 -5.41065 0
M  V30 3814 H 370.677 -1.47162 -1.53158 0
M  V30 3815 H 372.94 -0.610309 -0.725415 0
M  V30 3816 H 372.646 -1.77928 -3.03372 0
M  V30 3817 H 372.52 -0.190161 -3.7672 0
M  V30 3818 H 374.907 0.343204 -2.93097 0
M  V30 3819 H 374.988 -1.2742 -2.21806 0
M  V30 3820 H 374.632 -2.28859 -4.53416 0
M  V30 3821 H 374.562 -0.64836 -5.22593 0
M  V30 3822 H 377.053 -0.863128 -3.67911 0
M  V30 3823 H 377.366 -2.36805 -7.35624 0
M  V30 3824 H 375.711 -2.12304 -6.6178 0
M  V30 3825 H 378.902 -1.151 -4.53729 0
M  V30 3826 H 379.075 -1.83704 -6.21415 0
M  V30 3827 N 372.481 1.55866 -0.233164 0
M  V30 3828 C 373.706 2.03449 0.402906 0
M  V30 3829 C 374.131 1.11166 1.51736 0
M  V30 3830 O 373.489 0.101996 1.81013 0
M  V30 3831 C 373.537 3.49165 0.9009 0
M  V30 3832 O 372.641 3.60019 2.01147 0
M  V30 3833 H 371.982 0.657913 0.0897025 0
M  V30 3834 H 374.512 2.01493 -0.355201 0
M  V30 3835 H 374.522 3.89716 1.2077 0
M  V30 3836 H 373.197 4.15813 0.0852889 0
M  V30 3837 H 371.774 3.3136 1.71042 0
M  V30 3838 N 373.959 -0.0401083 1.57549 0
M  V30 3839 C 375.205 -0.734211 1.89043 0
M  V30 3840 C 375.538 -1.75591 0.829535 0
M  V30 3841 O 374.813 -1.93868 -0.156706 0
M  V30 3842 C 375.096 -1.41374 3.31188 0
M  V30 3843 C 374.949 -0.406299 4.47961 0
M  V30 3844 C 376.268 -2.35061 3.72068 0
M  V30 3845 H 373.387 -0.265447 0.687537 0
M  V30 3846 H 376.029 0.00294087 1.9 0
M  V30 3847 H 374.179 -2.04206 3.30503 0
M  V30 3848 H 375.851 0.219255 4.60779 0
M  V30 3849 H 374.094 0.275485 4.32924 0
M  V30 3850 H 374.765 -0.920022 5.44279 0
M  V30 3851 H 377.241 -1.82282 3.74049 0
M  V30 3852 H 376.117 -2.79593 4.72355 0
M  V30 3853 H 376.378 -3.21258 3.0372 0
M  V30 3854 N 375.437 -1.54477 -0.31217 0
M  V30 3855 C 376.662 -1.77526 -1.07235 0
M  V30 3856 C 377.087 -0.527775 -1.80544 0
M  V30 3857 O 376.445 0.52121 -1.73646 0
M  V30 3858 C 376.493 -2.97535 -2.03728 0
M  V30 3859 O 375.597 -2.69878 -3.11833 0
M  V30 3860 H 374.938 -0.58792 -0.30862 0
M  V30 3861 H 377.468 -2.01532 -0.352993 0
M  V30 3862 H 377.478 -3.25198 -2.46395 0
M  V30 3863 H 376.153 -3.87996 -1.49774 0
M  V30 3864 H 374.73 -2.53199 -2.7376 0
M  V30 3865 N 376.915 0.57481 -1.46744 0
M  V30 3866 C 377.825 1.711 -1.60505 0
M  V30 3867 C 378.841 1.67008 -0.488307 0
M  V30 3868 O 380.017 1.86774 -0.753495 0
M  V30 3869 C 377.082 3.07608 -1.59932 0
M  V30 3870 C 376.143 3.22904 -2.82898 0
M  V30 3871 C 375.376 4.529 -2.82343 0
M  V30 3872 O 375.599 5.37278 -1.91542 0
M  V30 3873 O 374.533 4.71611 -3.73987 0
M  V30 3874 H 378.359 1.62436 -2.56609 0
M  V30 3875 H 375.944 0.742779 -1.29627 0
M  V30 3876 H 377.826 3.88877 -1.62336 0
M  V30 3877 H 376.501 3.16692 -0.669898 0
M  V30 3878 H 375.408 2.41099 -2.86046 0
M  V30 3879 H 376.741 3.18715 -3.75076 0
M  V30 3880 N 378.394 1.34581 0.820102 0
M  V30 3881 C 379.327 1.20735 1.93644 0
M  V30 3882 C 380.305 0.0983343 1.62302 0
M  V30 3883 O 381.489 0.263997 1.86642 0
M  V30 3884 C 378.616 0.856037 3.27704 0
M  V30 3885 C 377.662 1.97521 3.78005 0
M  V30 3886 S 378.495 3.58906 3.97425 0
M  V30 3887 C 379.651 3.25822 5.34407 0
M  V30 3888 H 379.884 2.15231 2.05093 0
M  V30 3889 H 377.417 1.1964 0.97599 0
M  V30 3890 H 379.375 0.660133 4.05157 0
M  V30 3891 H 378.036 -0.0706253 3.14021 0
M  V30 3892 H 377.229 1.68321 4.75062 0
M  V30 3893 H 376.831 2.12875 3.07507 0
M  V30 3894 H 379.123 2.77812 6.17922 0
M  V30 3895 H 380.066 4.22029 5.68592 0
M  V30 3896 H 380.474 2.61932 5.00052 0
M  V30 3897 N 379.872 -1.04064 1.18357 0
M  V30 3898 C 380.835 -2.10243 0.912707 0
M  V30 3899 C 381.835 -1.60477 -0.101928 0
M  V30 3900 O 383.025 -1.73703 0.131517 0
M  V30 3901 C 380.157 -3.38893 0.369387 0
M  V30 3902 H 381.35 -2.35706 1.85426 0
M  V30 3903 H 378.903 -1.20489 0.995594 0
M  V30 3904 H 379.638 -3.19094 -0.578776 0
M  V30 3905 H 379.423 -3.76331 1.1008 0
M  V30 3906 H 380.913 -4.17128 0.198575 0
M  V30 3907 N 381.35 -0.985608 -1.22978 0
M  V30 3908 C 382.575 -0.675254 -1.961 0
M  V30 3909 C 383 0.752154 -1.72407 0
M  V30 3910 O 382.358 1.5131 -0.998751 0
M  V30 3911 C 382.406 -0.977899 -3.47087 0
M  V30 3912 O 381.51 -0.072685 -4.12336 0
M  V30 3913 H 380.851 -0.253443 -0.613728 0
M  V30 3914 H 383.381 -1.32061 -1.56272 0
M  V30 3915 H 383.391 -0.916739 -3.97567 0
M  V30 3916 H 382.066 -2.01807 -3.63657 0
M  V30 3917 H 380.643 -0.188703 -3.72422 0
M  V30 3918 N 382.828 1.3818 -0.7579 0
M  V30 3919 C 383.778 2.27741 -0.108674 0
M  V30 3920 C 384.762 1.45415 0.688709 0
M  V30 3921 O 385.954 1.68108 0.553956 0
M  V30 3922 C 383.083 3.34313 0.780367 0
M  V30 3923 C 382.169 4.24093 -0.0240977 0
M  V30 3924 N 382.56 4.9451 -1.06271 0
M  V30 3925 C 380.858 4.45542 0.202049 0
M  V30 3926 C 381.559 5.60675 -1.54979 0
M  V30 3927 N 380.535 5.36684 -0.864348 0
M  V30 3928 H 384.337 2.79649 -0.904071 0
M  V30 3929 H 381.851 1.51133 -0.594346 0
M  V30 3930 H 383.848 3.97368 1.26114 0
M  V30 3931 H 382.508 2.83962 1.57467 0
M  V30 3932 H 383.519 4.97345 -1.44459 0
M  V30 3933 H 380.196 4.06091 0.96935 0
M  V30 3934 H 381.586 6.26992 -2.41517 0
M  V30 3935 N 384.306 0.507319 1.49211 0
M  V30 3936 C 385.253 -0.267728 2.29242 0
M  V30 3937 C 386.223 -0.954609 1.35928 0
M  V30 3938 O 387.408 -0.960046 1.64887 0
M  V30 3939 C 384.548 -1.32243 3.18756 0
M  V30 3940 C 383.661 -0.64669 4.27132 0
M  V30 3941 C 382.796 -1.68238 5.03855 0
M  V30 3942 C 381.835 -0.98885 6.0406 0
M  V30 3943 N 380.972 -1.96903 6.73924 0
M  V30 3944 H 385.812 0.420968 2.95012 0
M  V30 3945 H 383.349 0.219443 1.45454 0
M  V30 3946 H 385.307 -1.94599 3.69036 0
M  V30 3947 H 383.937 -1.97981 2.54958 0
M  V30 3948 H 382.989 0.0902926 3.80293 0
M  V30 3949 H 384.301 -0.101058 4.98698 0
M  V30 3950 H 383.455 -2.38081 5.58034 0
M  V30 3951 H 382.194 -2.26187 4.32077 0
M  V30 3952 H 381.199 -0.276222 5.49106 0
M  V30 3953 H 382.424 -0.415767 6.77826 0
M  V30 3954 H 380.37 -2.53803 6.04913 0
M  V30 3955 H 380.287 -1.47423 7.41487 0
M  V30 3956 H 381.555 -2.66015 7.32705 0
M  V30 3957 N 385.784 -1.5574 0.241426 0
M  V30 3958 C 387.031 -1.9881 -0.384836 0
M  V30 3959 C 387.359 -1.12947 -1.58346 0
M  V30 3960 O 386.614 -0.178993 -1.9488 0
M  V30 3961 C 386.913 -3.47308 -0.843317 0
M  V30 3962 C 386.579 -4.50223 0.246946 0
M  V30 3963 C 385.241 -4.78088 0.546399 0
M  V30 3964 C 387.593 -5.11841 0.983282 0
M  V30 3965 C 384.921 -5.64846 1.58636 0
M  V30 3966 C 387.273 -5.99727 2.01272 0
M  V30 3967 C 385.937 -6.25927 2.31888 0
M  V30 3968 H 385.207 -0.727496 -0.140821 0
M  V30 3969 H 387.854 -1.8831 0.348106 0
M  V30 3970 H 386.159 -3.55112 -1.65537 0
M  V30 3971 H 387.856 -3.78017 -1.33806 0
M  V30 3972 H 384.446 -4.286 0.00340639 0
M  V30 3973 H 388.63 -4.90366 0.765182 0
M  V30 3974 H 383.886 -5.83403 1.82896 0
M  V30 3975 H 388.06 -6.46517 2.58823 0
M  V30 3976 H 385.687 -6.92949 3.12611 0
M  V30 3977 N 387.262 0.0317525 -1.57568 0
M  V30 3978 C 388.209 1.0332 -2.06382 0
M  V30 3979 C 389.179 1.36082 -0.952414 0
M  V30 3980 O 390.364 1.46466 -1.2228 0
M  V30 3981 C 387.504 2.32989 -2.54578 0
M  V30 3982 C 386.617 2.0641 -3.79498 0
M  V30 3983 C 385.752 3.2993 -4.16317 0
M  V30 3984 C 384.791 2.98893 -5.34162 0
M  V30 3985 N 383.928 4.14857 -5.66426 0
M  V30 3986 H 388.768 0.609982 -2.9169 0
M  V30 3987 H 386.305 0.289573 -1.44222 0
M  V30 3988 H 388.263 3.0875 -2.80587 0
M  V30 3989 H 386.893 2.73039 -1.7219 0
M  V30 3990 H 385.945 1.21158 -3.6059 0
M  V30 3991 H 387.257 1.79513 -4.65378 0
M  V30 3992 H 386.411 4.1406 -4.4344 0
M  V30 3993 H 385.15 3.59938 -3.29083 0
M  V30 3994 H 384.155 2.13164 -5.06795 0
M  V30 3995 H 385.38 2.70165 -6.23047 0
M  V30 3996 H 383.326 4.44821 -4.82151 0
M  V30 3997 H 383.243 3.91374 -6.4681 0
M  V30 3998 H 384.511 4.99868 -5.98124 0
M  V30 3999 N 388.74 1.54641 0.303973 0
M  V30 4000 C 390.156 1.45788 0.649463 0
M  V30 4001 C 390.356 0.64666 1.90842 0
M  V30 4002 O 389.412 0.153183 2.52035 0
M  V30 4003 C 390.725 2.89718 0.805227 0
M  V30 4004 C 392.273 2.99742 0.901305 0
M  V30 4005 C 392.748 4.44863 1.08909 0
M  V30 4006 N 394.239 4.48559 1.15536 0
M  V30 4007 C 394.974 5.58026 1.3189 0
M  V30 4008 N 394.47 6.77422 1.45161 0
M  V30 4009 N 396.263 5.45708 1.34755 0
M  V30 4010 H 388.414 2.05854 -0.523237 0
M  V30 4011 H 390.677 0.932186 -0.172431 0
M  V30 4012 H 390.383 3.51666 -0.0489108 0
M  V30 4013 H 390.257 3.36964 1.69513 0
M  V30 4014 H 392.644 2.3791 1.74593 0
M  V30 4015 H 392.725 2.55797 -0.0125531 0
M  V30 4016 H 392.369 5.07288 0.249241 0
M  V30 4017 H 392.299 4.86436 2.01713 0
M  V30 4018 H 394.79 3.6254 1.06646 0
M  V30 4019 H 395.103 7.56604 1.57387 0
M  V30 4020 H 393.448 6.80292 1.42223 0
M  V30 4021 H 396.639 4.51378 1.23996 0
M  V30 4022 H 396.812 6.3107 1.47157 0
M  V30 4023 N 390.218 -0.567019 1.47046 0
M  V30 4024 C 391.151 -1.69016 1.53326 0
M  V30 4025 C 392.129 -1.57949 0.386126 0
M  V30 4026 O 393.313 -1.78945 0.592529 0
M  V30 4027 C 390.44 -3.07191 1.42658 0
M  V30 4028 C 389.486 -3.36733 2.6175 0
M  V30 4029 S 390.319 -3.27069 4.24012 0
M  V30 4030 C 391.475 -4.67755 4.1588 0
M  V30 4031 H 391.708 -1.63434 2.48348 0
M  V30 4032 H 389.241 -0.747048 1.35124 0
M  V30 4033 H 391.199 -3.86897 1.37191 0
M  V30 4034 H 389.86 -3.10249 0.490369 0
M  V30 4035 H 389.053 -4.37441 2.50323 0
M  V30 4036 H 388.655 -2.64627 2.64289 0
M  V30 4037 H 390.947 -5.58491 3.83529 0
M  V30 4038 H 391.89 -4.84239 5.16641 0
M  V30 4039 H 392.298 -4.45341 3.46889 0
M  V30 4040 N 391.696 -1.35014 -0.812953 0
M  V30 4041 C 392.626 -1.30069 -1.93919 0
M  V30 4042 C 393.607 -0.176275 -1.69184 0
M  V30 4043 O 394.792 -0.370227 -1.90638 0
M  V30 4044 C 391.922 -1.06547 -3.30552 0
M  V30 4045 C 390.876 -2.15561 -3.69753 0
M  V30 4046 C 390.202 -1.77214 -5.04479 0
M  V30 4047 C 391.502 -3.57476 -3.808 0
M  V30 4048 H 393.196 -2.24303 -1.98314 0
M  V30 4049 H 390.742 -1.07977 -0.952736 0
M  V30 4050 H 392.695 -1.01729 -4.08937 0
M  V30 4051 H 391.419 -0.0875719 -3.26483 0
M  V30 4052 H 390.078 -2.19466 -2.9365 0
M  V30 4053 H 389.726 -0.780589 -4.96906 0
M  V30 4054 H 389.426 -2.50184 -5.31678 0
M  V30 4055 H 390.95 -1.7391 -5.8531 0
M  V30 4056 H 392.364 -3.55929 -4.4943 0
M  V30 4057 H 390.761 -4.29152 -4.19462 0
M  V30 4058 H 391.831 -3.94091 -2.82525 0
M  V30 4059 N 393.175 1.03435 -1.18907 0
M  V30 4060 C 394.123 2.13703 -0.918353 0
M  V30 4061 C 395.117 1.68947 0.123767 0
M  V30 4062 O 396.323 1.79983 -0.0249701 0
M  V30 4063 H 392.698 0.698112 -0.279542 0
M  V30 4064 H 394.669 2.33731 -1.85506 0
M  V30 4065 C 393.418 3.44542 -0.467532 0
M  V30 4066 H 392.741 3.79394 -1.26095 0
M  V30 4067 H 394.181 4.22812 -0.317164 0
M  V30 4068 C 392.64 3.26829 0.817588 0
M  V30 4069 O 393.17 3.54975 1.88031 0
M  V30 4070 N 391.376 2.80139 0.772677 0
M  V30 4071 H 390.923 2.57434 -0.0923883 0
M  V30 4072 H 390.881 2.68668 1.63294 0
M  V30 4073 N 394.653 0.992116 1.22453 0
M  V30 4074 C 396.069 0.702713 1.43297 0
M  V30 4075 C 396.269 -0.726909 1.87932 0
M  V30 4076 O 395.325 -1.49792 2.0327 0
M  V30 4077 C 396.638 1.70762 2.47509 0
M  V30 4078 C 398.186 1.72298 2.61309 0
M  V30 4079 C 398.661 2.71649 3.68742 0
M  V30 4080 N 400.152 2.70239 3.76199 0
M  V30 4081 C 400.887 3.43778 4.58917 0
M  V30 4082 N 400.383 4.26914 5.45633 0
M  V30 4083 N 402.176 3.32487 4.5322 0
M  V30 4084 H 394.327 1.91543 0.917871 0
M  V30 4085 H 396.59 0.826031 0.465162 0
M  V30 4086 H 396.296 2.73059 2.21657 0
M  V30 4087 H 396.17 1.49985 3.46099 0
M  V30 4088 H 398.557 0.706989 2.86506 0
M  V30 4089 H 398.638 1.97143 1.62997 0
M  V30 4090 H 398.282 3.73397 3.44292 0
M  V30 4091 H 398.212 2.44074 4.66622 0
M  V30 4092 H 400.703 2.09912 3.14237 0
M  V30 4093 H 401.016 4.79855 6.05771 0
M  V30 4094 H 399.361 4.31002 5.45218 0
M  V30 4095 H 402.552 2.6698 3.84499 0
M  V30 4096 H 402.725 3.90058 5.17454 0
M  V30 4097 N 396.131 -1.37776 0.765217 0
M  V30 4098 C 397.041 -2.34135 0.147666 0
M  V30 4099 C 398.057 -1.59854 -0.687215 0
M  V30 4100 O 399.233 -1.91983 -0.608659 0
M  V30 4101 C 396.298 -3.3901 -0.72617 0
M  V30 4102 C 395.359 -4.2912 0.124417 0
M  V30 4103 C 394.592 -5.28986 -0.707807 0
M  V30 4104 O 394.815 -5.36205 -1.94525 0
M  V30 4105 O 393.749 -6.01779 -0.12046 0
M  V30 4106 H 397.575 -2.88664 0.943758 0
M  V30 4107 H 395.16 -1.39824 0.526277 0
M  V30 4108 H 397.042 -4.03195 -1.22524 0
M  V30 4109 H 395.717 -2.86819 -1.50056 0
M  V30 4110 H 394.624 -3.68057 0.669696 0
M  V30 4111 H 395.957 -4.84598 0.861736 0
M  V30 4112 N 397.609 -0.515225 -1.4894 0
M  V30 4113 C 398.539 0.244628 -2.32215 0
M  V30 4114 C 399.52 0.949136 -1.41157 0
M  V30 4115 O 400.705 0.937783 -1.70057 0
M  V30 4116 C 397.835 1.30096 -3.22013 0
M  V30 4117 C 396.789 0.715486 -4.21977 0
M  V30 4118 C 396.115 1.87339 -5.00808 0
M  V30 4119 C 397.415 -0.302982 -5.2142 0
M  V30 4120 H 399.109 -0.450501 -2.95991 0
M  V30 4121 H 396.655 -0.218098 -1.42339 0
M  V30 4122 H 398.608 1.84037 -3.79089 0
M  V30 4123 H 397.332 2.02547 -2.56207 0
M  V30 4124 H 395.991 0.197715 -3.66066 0
M  V30 4125 H 395.639 2.58592 -4.31438 0
M  V30 4126 H 395.339 1.48764 -5.68457 0
M  V30 4127 H 396.863 2.41686 -5.60732 0
M  V30 4128 H 398.277 0.148802 -5.73107 0
M  V30 4129 H 396.674 -0.60532 -5.97039 0
M  V30 4130 H 397.744 -1.21395 -4.69459 0
M  V30 4131 N 399.087 1.5561 -0.249682 0
M  V30 4132 C 400.315 2.03411 0.378352 0
M  V30 4133 C 400.73 1.12886 1.51335 0
M  V30 4134 O 400.087 0.143833 1.81932 0
M  V30 4135 C 400.138 3.50537 0.88351 0
M  V30 4136 O 399.859 4.37614 -0.20626 0
M  V30 4137 C 401.36 4.14113 1.58195 0
M  V30 4138 H 398.58 0.664994 0.08958 0
M  V30 4139 H 401.124 2.01044 -0.374357 0
M  V30 4140 H 399.279 3.5343 1.58639 0
M  V30 4141 H 399.693 5.24199 0.177782 0
M  V30 4142 H 401.167 5.18741 1.8871 0
M  V30 4143 H 401.644 3.60767 2.50487 0
M  V30 4144 H 402.25 4.15151 0.923573 0
M  V30 4145 N 400.565 -0.0233959 1.57583 0
M  V30 4146 C 401.515 -1.03023 2.03397 0
M  V30 4147 C 402.499 -1.31701 0.924315 0
M  V30 4148 O 403.691 -1.31191 1.18819 0
M  V30 4149 C 400.82 -2.32961 2.52159 0
M  V30 4150 C 399.906 -2.07349 3.69956 0
M  V30 4151 N 400.297 -1.51814 4.82479 0
M  V30 4152 C 398.595 -2.37606 3.77438 0
M  V30 4153 C 399.296 -1.42136 5.64068 0
M  V30 4154 N 398.272 -1.89891 5.09355 0
M  V30 4155 H 402.074 -0.594962 2.87815 0
M  V30 4156 H 399.588 -0.229586 1.60769 0
M  V30 4157 H 401.585 -3.05906 2.83244 0
M  V30 4158 H 400.245 -2.77162 1.69149 0
M  V30 4159 H 401.256 -1.20008 5.03804 0
M  V30 4160 H 397.933 -2.84842 3.05239 0
M  V30 4161 H 399.323 -0.996405 6.64471 0
M  V30 4162 N 402.043 -1.548 -0.295768 0
M  V30 4163 C 402.973 -1.89115 -1.36959 0
M  V30 4164 C 403.954 -0.75059 -1.52644 0
M  V30 4165 O 405.139 -1.00678 -1.66065 0
M  V30 4166 C 402.269 -2.14307 -2.73295 0
M  V30 4167 C 401.223 -3.30151 -2.72368 0
M  V30 4168 C 400.549 -3.40772 -4.12042 0
M  V30 4169 C 401.849 -4.67126 -2.33646 0
M  V30 4170 H 403.543 -2.79053 -1.08488 0
M  V30 4171 H 401.089 -1.34266 -0.520443 0
M  V30 4172 H 403.042 -2.36898 -3.48507 0
M  V30 4173 H 401.766 -1.21145 -3.03301 0
M  V30 4174 H 400.425 -3.0749 -1.99613 0
M  V30 4175 H 400.073 -2.45117 -4.39234 0
M  V30 4176 H 399.773 -4.18645 -4.12322 0
M  V30 4177 H 401.297 -3.6563 -4.89027 0
M  V30 4178 H 402.711 -4.89414 -2.98575 0
M  V30 4179 H 401.108 -5.47751 -2.45129 0
M  V30 4180 H 402.178 -4.67489 -1.28772 0
M  V30 4181 N 403.521 0.559213 -1.47345 0
M  V30 4182 C 404.746 1.34676 -1.57725 0
M  V30 4183 C 405.171 1.86723 -0.227164 0
M  V30 4184 O 404.529 1.6286 0.796642 0
M  V30 4185 C 404.577 2.49399 -2.60447 0
M  V30 4186 O 403.681 3.51567 -2.15578 0
M  V30 4187 H 403.022 0.400115 -0.52991 0
M  V30 4188 H 405.552 0.676009 -1.93109 0
M  V30 4189 H 405.562 2.95996 -2.80803 0
M  V30 4190 H 404.237 2.10873 -3.58477 0
M  V30 4191 H 402.814 3.11289 -2.05313 0
M  V30 4192 N 404.999 1.35443 0.805782 0
M  V30 4193 C 405.909 1.30546 1.94923 0
M  V30 4194 C 406.925 0.210233 1.72725 0
M  V30 4195 O 408.101 0.43975 1.9654 0
M  V30 4196 C 405.166 1.07782 3.29521 0
M  V30 4197 C 404.227 2.26625 3.64609 0
M  V30 4198 C 403.46 2.04938 4.92784 0
M  V30 4199 O 403.683 1.01624 5.61274 0
M  V30 4200 O 402.617 2.9232 5.26149 0
M  V30 4201 H 406.443 2.26779 2.02002 0
M  V30 4202 H 404.028 1.15823 0.943682 0
M  V30 4203 H 405.91 0.969392 4.10098 0
M  V30 4204 H 404.585 0.146003 3.23371 0
M  V30 4205 H 403.492 2.43033 2.84404 0
M  V30 4206 H 404.825 3.18257 3.75464 0
M  V30 4207 N 406.477 -1.02803 1.19454 0
M  V30 4208 C 407.41 -2.107 0.876396 0
M  V30 4209 C 408.388 -1.61741 -0.166897 0
M  V30 4210 O 409.572 -1.88451 -0.0430195 0
M  V30 4211 C 406.699 -3.37262 0.311758 0
M  V30 4212 C 405.745 -4.05093 1.33424 0
M  V30 4213 S 406.578 -4.50498 2.89503 0
M  V30 4214 C 407.734 -5.80277 2.34584 0
M  V30 4215 H 407.967 -2.37362 1.79016 0
M  V30 4216 H 405.5 -1.15755 1.02177 0
M  V30 4217 H 407.458 -4.10499 -0.00748752 0
M  V30 4218 H 406.119 -3.08693 -0.58032 0
M  V30 4219 H 405.312 -4.9611 0.888302 0
M  V30 4220 H 404.914 -3.3803 1.60037 0
M  V30 4221 H 407.206 -6.54873 1.73633 0
M  V30 4222 H 408.149 -6.29651 3.23952 0
M  V30 4223 H 408.557 -5.3599 1.77131 0
M  V30 4224 N 407.956 -0.998596 -1.21925 0
M  V30 4225 C 409.181 -0.696015 -1.95372 0
M  V30 4226 C 409.606 0.733826 -1.73195 0
M  V30 4227 O 408.964 1.50242 -1.01474 0
M  V30 4228 C 409.012 -1.01466 -3.4603 0
M  V30 4229 O 408.116 -0.116415 -4.12236 0
M  V30 4230 H 407.457 -0.259938 -0.611006 0
M  V30 4231 H 409.987 -1.33711 -1.54863 0
M  V30 4232 H 409.997 -0.958855 -3.96573 0
M  V30 4233 H 408.672 -2.05653 -3.61497 0
M  V30 4234 H 407.249 -0.228193 -3.72201 0
M  V30 4235 N 409.434 1.37368 -0.772513 0
M  V30 4236 C 410.85 1.53059 -0.452231 0
M  V30 4237 C 411.05 1.73065 1.03203 0
M  V30 4238 O 410.106 1.75245 1.81784 0
M  V30 4239 C 411.419 2.72659 -1.26797 0
M  V30 4240 C 412.967 2.86521 -1.25995 0
M  V30 4241 C 413.442 4.09105 -2.05905 0
M  V30 4242 N 414.933 4.16219 -2.03263 0
M  V30 4243 C 415.668 5.10107 -2.61875 0
M  V30 4244 N 415.164 6.09547 -3.29278 0
M  V30 4245 N 416.957 5.02596 -2.51701 0
M  V30 4246 H 409.108 1.22634 -1.7342 0
M  V30 4247 H 411.371 0.597206 -0.736239 0
M  V30 4248 H 411.077 2.64343 -2.31982 0
M  V30 4249 H 410.951 3.66363 -0.897672 0
M  V30 4250 H 413.338 2.94308 -0.216081 0
M  V30 4251 H 413.419 1.93774 -1.66989 0
M  V30 4252 H 413.063 4.0208 -3.10313 0
M  V30 4253 H 412.993 5.00968 -1.62292 0
M  V30 4254 H 415.484 3.45012 -1.54192 0
M  V30 4255 H 415.797 6.77718 -3.71374 0
M  V30 4256 H 414.142 6.09824 -3.33377 0
M  V30 4257 H 417.333 4.23855 -1.98657 0
M  V30 4258 H 417.506 5.75582 -2.97673 0
M  V30 4259 N 410.912 0.523116 1.48665 0
M  V30 4260 C 412.137 -0.0117284 2.07397 0
M  V30 4261 C 412.562 -1.28031 1.37803 0
M  V30 4262 O 411.92 -1.75836 0.441762 0
M  V30 4263 C 411.968 -0.225786 3.59892 0
M  V30 4264 O 411.072 -1.29592 3.91509 0
M  V30 4265 H 410.413 0.0360673 0.66302 0
M  V30 4266 H 412.943 0.729066 1.9117 0
M  V30 4267 H 412.953 -0.450552 4.05505 0
M  V30 4268 H 411.628 0.700944 4.09951 0
M  V30 4269 H 410.205 -1.05436 3.57684 0
M  V30 4270 N 412.39 -1.55475 0.257931 0
M  V30 4271 C 413.638 -1.98813 -0.363009 0
M  V30 4272 C 413.959 -1.14757 -1.57657 0
M  V30 4273 O 413.229 -0.232956 -1.9451 0
M  V30 4274 H 411.809 -0.734308 -0.137113 0
M  V30 4275 H 414.471 -1.9156 0.359281 0
M  V30 4276 H 413.567 -3.04941 -0.664634 0
M  V30 4277 N 413.868 0.0150385 -1.57593 0
M  V30 4278 C 414.816 1.02958 -2.08572 0
M  V30 4279 C 415.81 1.36554 -1.00246 0
M  V30 4280 O 417.016 1.35295 -1.18724 0
M  V30 4281 H 413.391 0.349619 -0.665786 0
M  V30 4282 H 415.362 0.573932 -2.92829 0
M  V30 4283 C 414.111 2.31752 -2.59203 0
M  V30 4284 H 413.434 2.06765 -3.42182 0
M  V30 4285 H 414.874 3.01053 -2.98568 0
M  V30 4286 C 413.333 3.01692 -1.49945 0
M  V30 4287 O 413.863 3.92083 -0.873704 0
M  V30 4288 N 412.069 2.6326 -1.23056 0
M  V30 4289 H 411.616 1.89838 -1.74125 0
M  V30 4290 H 411.574 3.10372 -0.501685 0
M  V30 4291 N 415.346 1.54954 0.287554 0
M  V30 4292 C 416.278 1.83224 1.37701 0
M  V30 4293 C 417.291 0.715898 1.46215 0
M  V30 4294 O 418.48 0.993565 1.48292 0
M  V30 4295 C 415.58 1.96723 2.75959 0
M  V30 4296 C 414.753 3.27253 2.90215 0
M  V30 4297 C 413.812 3.30998 4.09056 0
M  V30 4298 O 412.838 4.04457 4.00503 0
M  V30 4299 N 414.04 2.57353 5.20336 0
M  V30 4300 H 416.805 2.77254 1.138 0
M  V30 4301 H 414.366 1.54694 0.477652 0
M  V30 4302 H 416.358 1.96615 3.5373 0
M  V30 4303 H 414.928 1.09626 2.92747 0
M  V30 4304 H 414.148 3.40022 1.99447 0
M  V30 4305 H 415.436 4.13365 2.96659 0
M  V30 4306 H 414.834 1.97327 5.30169 0
M  V30 4307 H 413.391 2.62984 5.96391 0
M  V30 4308 N 416.824 -0.551391 1.4764 0
M  V30 4309 C 418.07 -1.31024 1.54792 0
M  V30 4310 C 418.403 -1.9304 0.211967 0
M  V30 4311 O 417.678 -1.78175 -0.77999 0
M  V30 4312 C 417.961 -2.41593 2.67029 0
M  V30 4313 C 417.814 -1.84408 4.10261 0
M  V30 4314 C 419.133 -3.43488 2.75143 0
M  V30 4315 H 416.252 -0.475031 0.563485 0
M  V30 4316 H 418.894 -0.616454 1.79722 0
M  V30 4317 H 417.044 -3.00772 2.45904 0
M  V30 4318 H 418.716 -1.29445 4.42766 0
M  V30 4319 H 416.959 -1.15051 4.18265 0
M  V30 4320 H 417.63 -2.64367 4.84576 0
M  V30 4321 H 420.106 -2.94236 2.94218 0
M  V30 4322 H 418.982 -4.18274 3.55441 0
M  V30 4323 H 419.243 -4.02703 1.82435 0
M  V30 4324 N 418.302 -1.35869 -0.798587 0
M  V30 4325 C 419.527 -1.32883 -1.59238 0
M  V30 4326 C 419.952 0.0894587 -1.87887 0
M  V30 4327 O 419.31 1.05869 -1.47178 0
M  V30 4328 C 419.358 -2.14892 -2.89575 0
M  V30 4329 O 418.462 -1.53512 -3.82763 0
M  V30 4330 H 417.803 -0.455236 -0.48338 0
M  V30 4331 H 420.333 -1.79024 -0.990539 0
M  V30 4332 H 420.343 -2.27139 -3.38928 0
M  V30 4333 H 419.018 -3.17998 -2.68049 0
M  V30 4334 H 417.595 -1.50153 -3.41334 0
M  V30 4335 N 419.78 1.02168 -1.19998 0
M  V30 4336 C 420.69 2.14069 -0.959774 0
M  V30 4337 C 421.706 1.73804 0.082655 0
M  V30 4338 O 422.882 2.01133 -0.103633 0
M  V30 4339 C 419.947 3.42936 -0.509459 0
M  V30 4340 C 419.008 3.97474 -1.62213 0
M  V30 4341 C 418.241 5.2019 -1.19321 0
M  V30 4342 O 418.464 5.70369 -0.0597726 0
M  V30 4343 O 417.398 5.67749 -1.99863 0
M  V30 4344 H 421.224 2.37199 -1.89658 0
M  V30 4345 H 418.809 1.12469 -0.983411 0
M  V30 4346 H 420.691 4.20551 -0.267322 0
M  V30 4347 H 419.366 3.21234 0.398821 0
M  V30 4348 H 418.273 3.21161 -1.9185 0
M  V30 4349 H 419.606 4.23555 -2.50723 0
M  V30 4350 N 421.258 1.00505 1.21394 0
M  V30 4351 C 422.488 0.705584 1.94178 0
M  V30 4352 C 422.896 -0.735846 1.74304 0
M  V30 4353 O 422.239 -1.50954 1.04683 0
M  V30 4354 C 422.301 0.94689 3.46806 0
M  V30 4355 C 421.965 2.37517 3.90429 0
M  V30 4356 C 422.962 3.35539 3.97127 0
M  V30 4357 C 420.647 2.71284 4.22742 0
M  V30 4358 C 422.641 4.65395 4.3553 0
M  V30 4359 C 420.328 4.01356 4.60822 0
M  V30 4360 C 421.326 4.98223 4.67186 0
M  V30 4361 O 421.014 6.25969 5.04399 0
M  V30 4362 H 420.746 0.259216 0.624326 0
M  V30 4363 H 423.3 1.34592 1.55159 0
M  V30 4364 H 421.53 0.249386 3.85895 0
M  V30 4365 H 423.219 0.640804 4.0081 0
M  V30 4366 H 423.985 3.10786 3.7234 0
M  V30 4367 H 419.864 1.96581 4.16985 0
M  V30 4368 H 423.408 5.41002 4.40412 0
M  V30 4369 H 419.305 4.25893 4.85063 0
M  V30 4370 H 420.073 6.30085 5.22431 0
M  V30 4371 N 422.737 -1.36956 0.779787 0
M  V30 4372 C 423.986 -1.98738 0.344405 0
M  V30 4373 C 424.299 -1.62596 -1.08728 0
M  V30 4374 O 425.505 -2.1754 -1.62445 0
M  V30 4375 C 423.961 -3.5544 0.564829 0
M  V30 4376 C 423.569 -4.00514 2.0073 0
M  V30 4377 C 425.313 -4.24059 0.193471 0
M  V30 4378 C 423.22 -5.49957 2.17489 0
M  V30 4379 H 422.15 -0.743561 0.12503 0
M  V30 4380 H 424.801 -1.56381 0.960057 0
M  V30 4381 H 423.183 -3.95817 -0.120397 0
M  V30 4382 H 424.357 -3.71362 2.72814 0
M  V30 4383 H 422.672 -3.44703 2.336 0
M  V30 4384 H 425.269 -5.33874 0.297097 0
M  V30 4385 H 425.612 -4.07378 -0.857263 0
M  V30 4386 H 426.145 -3.89012 0.831556 0
M  V30 4387 H 422.884 -5.71574 3.2091 0
M  V30 4388 H 422.404 -5.80767 1.49899 0
M  V30 4389 H 424.083 -6.16043 1.97738 0
M  V30 4390 N 424.215 -0.530993 -1.48385 0
M  V30 4391 C 425.44 0.000729535 -2.074 0
M  V30 4392 C 425.865 1.27298 -1.3848 0
M  V30 4393 O 425.223 1.75599 -0.451081 0
M  V30 4394 C 425.271 0.206697 -3.60007 0
M  V30 4395 O 424.375 1.27514 -3.92191 0
M  V30 4396 H 423.716 -0.039583 -0.662819 0
M  V30 4397 H 426.246 -0.739194 -1.9078 0
M  V30 4398 H 426.256 0.42904 -4.05738 0
M  V30 4399 H 424.931 -0.722675 -4.09573 0
M  V30 4400 H 423.508 1.03537 -3.58238 0
M  V30 4401 N 425.693 1.55336 -0.266172 0
M  V30 4402 C 426.921 2.03801 0.356756 0
M  V30 4403 C 427.336 1.14485 1.50129 0
M  V30 4404 O 426.693 0.163121 1.8177 0
M  V30 4405 C 426.744 3.51455 0.846281 0
M  V30 4406 O 426.465 4.37371 -0.252663 0
M  V30 4407 C 427.966 4.15767 1.53794 0
M  V30 4408 H 425.186 0.665906 0.0825218 0
M  V30 4409 H 427.73 2.00636 -0.39566 0
M  V30 4410 H 425.885 3.55092 1.54881 0
M  V30 4411 H 426.299 5.24358 0.122173 0
M  V30 4412 H 427.773 5.20714 1.83198 0
M  V30 4413 H 428.25 3.63404 2.46646 0
M  V30 4414 H 428.856 4.16107 0.879488 0
M  V30 4415 N 427.171 -0.0066808 1.57599 0
M  V30 4416 C 428.399 -0.704087 1.94551 0
M  V30 4417 C 428.814 -1.67677 0.867746 0
M  V30 4418 O 428.171 -1.8185 -0.153925 0
M  V30 4419 C 428.222 -1.44177 3.31505 0
M  V30 4420 O 427.943 -0.508097 4.35144 0
M  V30 4421 C 429.444 -2.23429 3.82876 0
M  V30 4422 H 426.664 -0.196523 0.641576 0
M  V30 4423 H 429.208 0.042453 2.04456 0
M  V30 4424 H 427.363 -2.13999 3.22929 0
M  V30 4425 H 427.777 -1.02782 5.14331 0
M  V30 4426 H 429.251 -2.70552 4.8115 0
M  V30 4427 H 429.728 -3.05818 3.15233 0
M  V30 4428 H 430.334 -1.58636 3.94607 0
M  V30 4429 N 428.649 -1.55105 -0.279332 0
M  V30 4430 C 429.896 -1.75412 -1.01177 0
M  V30 4431 C 430.224 -0.551728 -1.86511 0
M  V30 4432 O 429.479 0.465919 -1.90073 0
M  V30 4433 C 429.778 -3.0086 -1.92919 0
M  V30 4434 C 429.444 -4.33689 -1.23387 0
M  V30 4435 C 428.106 -4.69792 -1.04159 0
M  V30 4436 C 430.458 -5.15941 -0.738562 0
M  V30 4437 C 427.786 -5.85707 -0.341166 0
M  V30 4438 C 430.138 -6.32579 -0.0517636 0
M  V30 4439 C 428.802 -6.67326 0.152292 0
M  V30 4440 H 428.072 -0.641879 -0.370233 0
M  V30 4441 H 430.719 -1.89373 -0.284627 0
M  V30 4442 H 429.024 -2.81773 -2.72234 0
M  V30 4443 H 430.721 -3.13768 -2.49701 0
M  V30 4444 H 427.311 -4.05309 -1.39364 0
M  V30 4445 H 431.495 -4.8853 -0.874764 0
M  V30 4446 H 426.751 -6.11157 -0.172287 0
M  V30 4447 H 430.925 -6.9557 0.339828 0
M  V30 4448 H 428.552 -7.56998 0.697014 0
M  V30 4449 N 430.127 0.543554 -1.4793 0
M  V30 4450 C 431.057 1.65888 -1.64327 0
M  V30 4451 C 432.038 1.62818 -0.492383 0
M  V30 4452 O 433.223 1.80226 -0.723338 0
M  V30 4453 C 430.353 3.04506 -1.67013 0
M  V30 4454 C 429.307 3.2243 -2.81466 0
M  V30 4455 C 428.633 4.61972 -2.69233 0
M  V30 4456 C 429.933 3.06496 -4.22915 0
M  V30 4457 H 431.627 1.52421 -2.57698 0
M  V30 4458 H 429.173 0.731849 -1.24016 0
M  V30 4459 H 431.126 3.82391 -1.77074 0
M  V30 4460 H 429.85 3.18964 -0.70212 0
M  V30 4461 H 428.509 2.46957 -2.70938 0
M  V30 4462 H 428.157 4.73247 -1.7043 0
M  V30 4463 H 427.857 4.74911 -3.46025 0
M  V30 4464 H 429.381 5.41974 -2.81242 0
M  V30 4465 H 430.795 3.74186 -4.34348 0
M  V30 4466 H 429.192 3.30938 -5.006 0
M  V30 4467 H 430.262 2.03077 -4.40327 0
M  V30 4468 N 431.605 1.3629 0.791371 0
M  V30 4469 C 432.882 1.20962 1.53712 0
M  V30 4470 C 433.262 -0.205021 2.10102 0
M  V30 4471 O 432.61 -1.21042 1.93807 0
M  V30 4472 C 432.82 2.29002 2.63361 0
M  V30 4473 C 434.168 2.65572 3.31295 0
M  V30 4474 O 435.192 2.2803 2.73643 0
M  V30 4475 O 434.051 3.3018 4.35481 0
M  V30 4476 H 431.145 0.47086 0.679867 0
M  V30 4477 H 433.691 1.48016 0.830021 0
M  V30 4478 H 432.463 3.2382 2.19674 0
M  V30 4479 H 432.086 2.03303 3.41692 0
M  V30 4480 N 433.083 -1.0153 1.20538 0
M  V30 4481 C 434.03 -2.10098 0.955383 0
M  V30 4482 C 435 -1.65702 -0.114878 0
M  V30 4483 O 436.185 -1.90776 0.0301118 0
M  V30 4484 C 433.325 -3.41236 0.514969 0
M  V30 4485 C 432.438 -3.99102 1.65353 0
M  V30 4486 C 431.573 -5.18306 1.16329 0
M  V30 4487 C 430.612 -5.68258 2.27485 0
M  V30 4488 N 429.749 -6.78722 1.7967 0
M  V30 4489 H 434.589 -2.30818 1.88486 0
M  V30 4490 H 432.126 -1.13189 0.939499 0
M  V30 4491 H 434.084 -4.16504 0.240935 0
M  V30 4492 H 432.714 -3.20585 -0.377512 0
M  V30 4493 H 431.766 -3.20918 2.04245 0
M  V30 4494 H 433.078 -4.32177 2.49047 0
M  V30 4495 H 432.232 -6.00782 0.845302 0
M  V30 4496 H 430.971 -4.86799 0.296254 0
M  V30 4497 H 429.976 -4.84385 2.60099 0
M  V30 4498 H 431.201 -6.01798 3.14667 0
M  V30 4499 H 429.147 -6.49042 0.95295 0
M  V30 4500 H 429.064 -7.10996 2.56944 0
M  V30 4501 H 430.332 -7.64759 1.50875 0
M  V30 4502 N 434.561 -1.01147 -1.20859 0
M  V30 4503 C 435.493 -0.535546 -2.22855 0
M  V30 4504 C 436.506 0.379323 -1.58319 0
M  V30 4505 O 437.695 0.178489 -1.77605 0
M  V30 4506 C 434.795 0.240962 -3.38042 0
M  V30 4507 C 433.968 -0.674562 -4.32167 0
M  V30 4508 C 433.027 0.053467 -5.26173 0
M  V30 4509 O 432.053 -0.567339 -5.66366 0
M  V30 4510 N 433.255 1.32997 -5.65059 0
M  V30 4511 H 436.02 -1.41268 -2.64317 0
M  V30 4512 H 433.581 -0.888386 -1.35349 0
M  V30 4513 H 435.573 0.737115 -3.97931 0
M  V30 4514 H 434.143 1.01935 -2.95513 0
M  V30 4515 H 433.363 -1.35111 -3.70322 0
M  V30 4516 H 434.651 -1.2974 -4.91981 0
M  V30 4517 H 434.049 1.85536 -5.34409 0
M  V30 4518 H 432.606 1.77095 -6.2728 0
M  V30 4519 N 436.039 1.36541 -0.78704 0
M  V30 4520 C 436.987 2.31965 -0.171724 0
M  V30 4521 C 437.981 1.55689 0.667631 0
M  V30 4522 O 439.187 1.70969 0.562981 0
M  V30 4523 H 435.562 0.751101 -0.0367545 0
M  V30 4524 H 437.533 2.81428 -0.992017 0
M  V30 4525 C 436.282 3.40968 0.680904 0
M  V30 4526 H 435.605 3.99775 0.0443961 0
M  V30 4527 H 437.045 4.10063 1.07815 0
M  V30 4528 C 435.504 2.82338 1.83813 0
M  V30 4529 O 436.034 2.74311 2.93456 0
M  V30 4530 N 434.24 2.39661 1.6435 0
M  V30 4531 H 433.787 2.46389 0.751668 0
M  V30 4532 H 433.745 2.00779 2.4194 0
M  V30 4533 N 437.518 0.538854 1.48102 0
M  V30 4534 C 438.428 -0.222648 2.33541 0
M  V30 4535 C 439.444 -0.930225 1.47047 0
M  V30 4536 O 440.62 -0.903211 1.80011 0
M  V30 4537 C 437.685 -1.25064 3.23357 0
M  V30 4538 C 436.746 -0.552469 4.2573 0
M  V30 4539 C 435.979 -1.53149 5.11254 0
M  V30 4540 O 436.202 -2.76487 4.9891 0
M  V30 4541 O 435.136 -1.06602 5.92385 0
M  V30 4542 H 438.962 0.477707 2.99919 0
M  V30 4543 H 436.547 0.299669 1.46364 0
M  V30 4544 H 438.429 -1.8445 3.78888 0
M  V30 4545 H 437.104 -1.93325 2.59629 0
M  V30 4546 H 436.011 0.082114 3.7401 0
M  V30 4547 H 437.344 0.0883526 4.92121 0
M  V30 4548 N 438.996 -1.55193 0.274407 0
M  V30 4549 C 440.242 -1.99877 -0.343086 0
M  V30 4550 C 440.575 -1.16256 -1.55558 0
M  V30 4551 O 439.85 -0.232462 -1.93106 0
M  V30 4552 C 440.133 -3.52706 -0.725965 0
M  V30 4553 C 439.986 -4.47081 0.493818 0
M  V30 4554 C 441.305 -4.11422 -1.56268 0
M  V30 4555 H 438.424 -0.726625 -0.123229 0
M  V30 4556 H 441.066 -1.86136 0.38121 0
M  V30 4557 H 439.216 -3.64546 -1.34307 0
M  V30 4558 H 440.888 -4.47186 1.13237 0
M  V30 4559 H 439.131 -4.1877 1.13201 0
M  V30 4560 H 439.802 -5.51699 0.18217 0
M  V30 4561 H 442.278 -4.02855 -1.04151 0
M  V30 4562 H 441.154 -5.18568 -1.79939 0
M  V30 4563 H 441.415 -3.61607 -2.54348 0
M  V30 4564 N 440.474 -0.00167713 -1.576 0
M  V30 4565 C 441.384 1.00548 -2.1196 0
M  V30 4566 C 442.4 1.3758 -1.06526 0
M  V30 4567 O 443.576 1.46278 -1.38436 0
M  V30 4568 C 440.641 2.27809 -2.6135 0
M  V30 4569 C 439.702 1.97074 -3.81393 0
M  V30 4570 C 438.935 3.18267 -4.28417 0
M  V30 4571 O 439.158 4.30009 -3.74765 0
M  V30 4572 O 438.092 3.02167 -5.20556 0
M  V30 4573 H 441.918 0.573373 -2.98238 0
M  V30 4574 H 439.503 0.217255 -1.47812 0
M  V30 4575 H 441.385 3.02568 -2.93309 0
M  V30 4576 H 440.06 2.70254 -1.78169 0
M  V30 4577 H 438.967 1.19785 -3.54404 0
M  V30 4578 H 440.3 1.59464 -4.65652 0
M  V30 4579 N 441.952 1.55251 0.271103 0
M  V30 4580 C 443.201 1.75151 1.00025 0
M  V30 4581 C 443.514 0.561041 1.87381 0
M  V30 4582 O 444.72 0.642506 2.63788 0
M  V30 4583 C 443.176 3.09999 1.82835 0
M  V30 4584 C 442.784 4.3662 1.00336 0
M  V30 4585 C 444.528 3.39249 2.55168 0
M  V30 4586 C 442.435 5.62506 1.82595 0
M  V30 4587 H 441.365 0.652877 0.377183 0
M  V30 4588 H 444.016 1.81708 0.255843 0
M  V30 4589 H 442.398 2.97485 2.61378 0
M  V30 4590 H 443.572 4.60055 0.261959 0
M  V30 4591 H 441.887 4.14527 0.394486 0
M  V30 4592 H 444.484 4.3051 3.1712 0
M  V30 4593 H 444.827 2.59467 3.2555 0
M  V30 4594 H 445.36 3.52869 1.83653 0
M  V30 4595 H 442.099 6.45041 1.16631 0
M  V30 4596 H 441.619 5.43211 2.54327 0
M  V30 4597 H 443.298 6.00875 2.39913 0
M  V30 4598 N 443.43 -0.535701 1.48216 0
M  V30 4599 C 444.841 -1.11769 1.49548 0
M  V30 4600 C 445.192 -1.94442 0.26207 0
M  V30 4601 O 444.317 -2.06987 -0.631287 0
M  V30 4602 C 444.912 -2.03367 2.70975 0
M  V30 4603 C 443.471 -2.56795 2.75196 0
M  V30 4604 C 442.618 -1.33631 2.42977 0
M  V30 4605 H 445.569 -0.321232 1.55415 0
M  V30 4606 H 445.59 -2.87569 2.49167 0
M  V30 4607 H 445.102 -1.43169 3.60727 0
M  V30 4608 H 443.203 -3.20731 1.89638 0
M  V30 4609 H 443.316 -2.9632 3.76472 0
M  V30 4610 H 441.68 -1.6502 1.94012 0
M  V30 4611 H 442.463 -0.75194 3.34964 0
M  V30 4612 N 444.908 -1.36708 -0.784132 0
M  V30 4613 C 446.133 -1.34565 -1.5782 0
M  V30 4614 C 446.558 0.0695257 -1.87971 0
M  V30 4615 O 445.916 1.04302 -1.48293 0
M  V30 4616 C 445.964 -2.17952 -2.87279 0
M  V30 4617 O 445.068 -1.57563 -3.81114 0
M  V30 4618 H 444.409 -0.460337 -0.478524 0
M  V30 4619 H 446.939 -1.80064 -0.971495 0
M  V30 4620 H 446.949 -2.30721 -3.365 0
M  V30 4621 H 445.624 -3.20823 -2.64661 0
M  V30 4622 H 444.201 -1.53764 -3.39722 0
M  V30 4623 N 446.386 1.0089 -1.21074 0
M  V30 4624 C 447.797 1.56056 -1.02486 0
M  V30 4625 C 448.148 1.91728 0.416506 0
M  V30 4626 O 447.273 1.73066 1.29912 0
M  V30 4627 C 447.868 2.83563 -1.85411 0
M  V30 4628 C 446.427 3.3523 -1.71166 0
M  V30 4629 C 445.574 2.0846 -1.82865 0
M  V30 4630 H 448.525 0.831818 -1.35154 0
M  V30 4631 H 448.546 3.55286 -1.36205 0
M  V30 4632 H 448.058 2.57569 -2.9031 0
M  V30 4633 H 446.159 3.66167 -0.689361 0
M  V30 4634 H 446.272 4.06913 -2.52901 0
M  V30 4635 H 444.636 2.21275 -1.26132 0
M  V30 4636 H 445.419 1.84883 -2.89263 0
M  V30 4637 N 447.864 1.01787 1.20321 0
M  V30 4638 C 449.092 0.727194 1.937 0
M  V30 4639 C 449.507 -0.712305 1.74848 0
M  V30 4640 O 448.864 -1.48327 1.06327 0
M  V30 4641 C 448.915 1.05497 3.45764 0
M  V30 4642 O 448.636 2.43794 3.64 0
M  V30 4643 C 450.137 0.785534 4.36285 0
M  V30 4644 H 447.357 0.266939 0.615617 0
M  V30 4645 H 449.901 1.35939 1.52777 0
M  V30 4646 H 448.056 0.468158 3.84561 0
M  V30 4647 H 448.47 2.55656 4.57974 0
M  V30 4648 H 449.944 1.06495 5.4163 0
M  V30 4649 H 450.421 -0.280273 4.38305 0
M  V30 4650 H 451.027 1.35456 4.03152 0
M  V30 4651 N 449.342 -1.36122 0.79427 0
M  V30 4652 C 450.275 -2.27759 0.141845 0
M  V30 4653 C 451.253 -1.47471 -0.684921 0
M  V30 4654 O 452.437 -1.76759 -0.654857 0
M  V30 4655 C 449.564 -3.29008 -0.804446 0
M  V30 4656 C 448.61 -4.26459 -0.0588617 0
M  V30 4657 S 449.443 -5.20253 1.26873 0
M  V30 4658 C 450.599 -6.25048 0.326562 0
M  V30 4659 H 450.832 -2.82746 0.918818 0
M  V30 4660 H 448.365 -1.42736 0.588722 0
M  V30 4661 H 450.323 -3.87842 -1.34495 0
M  V30 4662 H 448.984 -2.72924 -1.5547 0
M  V30 4663 H 448.177 -4.97973 -0.777087 0
M  V30 4664 H 447.779 -3.71731 0.411309 0
M  V30 4665 H 450.071 -6.75705 -0.492795 0
M  V30 4666 H 451.014 -7.00852 1.01053 0
M  V30 4667 H 451.422 -5.64454 -0.0722627 0
M  V30 4668 N 450.82 -0.546701 -1.47814 0
M  V30 4669 C 451.767 0.206854 -2.29871 0
M  V30 4670 C 452.737 0.918235 -1.38411 0
M  V30 4671 O 453.922 0.915991 -1.67375 0
M  V30 4672 C 451.062 1.23746 -3.22151 0
M  V30 4673 C 450.175 0.533216 -4.28697 0
M  V30 4674 C 449.31 1.5482 -5.08138 0
M  V30 4675 C 448.349 0.828347 -6.06469 0
M  V30 4676 N 447.486 1.78966 -6.78908 0
M  V30 4677 H 452.326 -0.499037 -2.93792 0
M  V30 4678 H 449.863 -0.25793 -1.44821 0
M  V30 4679 H 451.821 1.84746 -3.74065 0
M  V30 4680 H 450.451 1.91151 -2.60117 0
M  V30 4681 H 449.503 -0.191089 -3.7992 0
M  V30 4682 H 450.815 -0.0311987 -4.9879 0
M  V30 4683 H 449.969 2.23202 -5.6415 0
M  V30 4684 H 448.708 2.14652 -4.37922 0
M  V30 4685 H 447.713 0.130539 -5.49645 0
M  V30 4686 H 448.938 0.235907 -6.7869 0
M  V30 4687 H 446.884 2.37675 -6.1143 0
M  V30 4688 H 446.801 1.27712 -7.45135 0
M  V30 4689 H 448.069 2.46496 -7.395 0
M  V30 4690 N 452.299 1.55045 -0.282633 0
M  V30 4691 C 453.209 2.26491 0.61147 0
M  V30 4692 C 454.225 1.29348 1.16384 0
M  V30 4693 O 455.401 1.62298 1.19253 0
M  V30 4694 C 452.466 2.97779 1.77563 0
M  V30 4695 C 451.527 4.10418 1.25919 0
M  V30 4696 C 450.76 4.78297 2.36786 0
M  V30 4697 O 450.983 4.45426 3.56303 0
M  V30 4698 O 449.917 5.66089 2.04517 0
M  V30 4699 H 453.743 3.03683 0.0324615 0
M  V30 4700 H 451.328 1.49317 -0.0497576 0
M  V30 4701 H 453.21 3.42554 2.45427 0
M  V30 4702 H 451.885 2.23498 2.34159 0
M  V30 4703 H 450.792 3.70082 0.546797 0
M  V30 4704 H 452.125 4.86622 0.738887 0
M  V30 4705 N 453.777 0.010035 1.57597 0
M  V30 4706 C 455.193 -0.346164 1.55801 0
M  V30 4707 C 455.393 -1.74144 1.01371 0
M  V30 4708 O 454.449 -2.43938 0.651968 0
M  V30 4709 C 455.762 -0.212216 2.9995 0
M  V30 4710 C 457.31 -0.286409 3.11687 0
M  V30 4711 C 457.785 -0.18147 4.5764 0
M  V30 4712 N 459.276 -0.239056 4.62583 0
M  V30 4713 C 460.011 -0.181351 5.73113 0
M  V30 4714 N 459.507 -0.073661 6.92761 0
M  V30 4715 N 461.3 -0.233949 5.61613 0
M  V30 4716 H 453.451 0.922657 1.91313 0
M  V30 4717 H 455.714 0.354595 0.879185 0
M  V30 4718 H 455.42 0.748169 3.4365 0
M  V30 4719 H 455.294 -0.990224 3.6397 0
M  V30 4720 H 457.681 -1.23724 2.67911 0
M  V30 4721 H 457.762 0.521645 2.50425 0
M  V30 4722 H 457.406 0.765863 5.02093 0
M  V30 4723 H 457.336 -1.00814 5.1686 0
M  V30 4724 H 459.827 -0.32321 3.76515 0
M  V30 4725 H 460.14 -0.0358003 7.72792 0
M  V30 4726 H 458.485 -0.0391461 6.94989 0
M  V30 4727 H 461.676 -0.316347 4.6703 0
M  V30 4728 H 461.849 -0.185514 6.47734 0
M  V30 4729 N 455.255 -1.55392 -0.262866 0
M  V30 4730 C 456.165 -1.92077 -1.34698 0
M  V30 4731 C 457.181 -0.819227 -1.53508 0
M  V30 4732 O 458.357 -1.11921 -1.67439 0
M  V30 4733 C 455.422 -2.19407 -2.68443 0
M  V30 4734 C 454.483 -3.42905 -2.58292 0
M  V30 4735 C 453.716 -3.68921 -3.85659 0
M  V30 4736 O 453.939 -2.97275 -4.8681 0
M  V30 4737 O 452.873 -4.62455 -3.85252 0
M  V30 4738 H 456.699 -2.84384 -1.06581 0
M  V30 4739 H 454.284 -1.42069 -0.462264 0
M  V30 4740 H 456.166 -2.38365 -3.47506 0
M  V30 4741 H 454.841 -1.30282 -2.96325 0
M  V30 4742 H 453.748 -3.29272 -1.7757 0
M  V30 4743 H 455.081 -4.32282 -2.35358 0
M  V30 4744 N 456.733 0.527833 -1.48498 0
M  V30 4745 C 457.68 1.6322 -1.6318 0
M  V30 4746 C 458.65 1.59199 -0.473815 0
M  V30 4747 O 459.835 1.77591 -0.697563 0
M  V30 4748 C 456.975 3.01474 -1.67951 0
M  V30 4749 C 456.088 3.15713 -2.94871 0
M  V30 4750 C 455.223 4.44539 -2.90789 0
M  V30 4751 C 454.262 4.52315 -4.12404 0
M  V30 4752 N 453.399 5.72533 -4.06387 0
M  V30 4753 H 458.239 1.50011 -2.57489 0
M  V30 4754 H 455.776 0.730298 -1.27691 0
M  V30 4755 H 457.734 3.81572 -1.68698 0
M  V30 4756 H 456.364 3.1345 -0.771306 0
M  V30 4757 H 455.416 2.28854 -3.03859 0
M  V30 4758 H 456.728 3.1732 -3.8485 0
M  V30 4759 H 455.882 5.3293 -2.89949 0
M  V30 4760 H 454.621 4.45457 -1.98542 0
M  V30 4761 H 453.626 3.62331 -4.13517 0
M  V30 4762 H 454.851 4.53134 -5.05812 0
M  V30 4763 H 452.797 5.74344 -3.16962 0
M  V30 4764 H 452.714 5.75643 -4.90073 0
M  V30 4765 H 453.982 6.63204 -4.0961 0
M  V30 4766 N 458.211 1.37122 0.776871 0
M  V30 4767 C 459.143 1.28342 1.89897 0
M  V30 4768 C 460.156 0.200277 1.61563 0
M  V30 4769 O 461.345 0.456012 1.72577 0
M  V30 4770 C 458.445 0.960427 3.25006 0
M  V30 4771 C 457.618 2.148 3.81025 0
M  V30 4772 C 456.677 1.79608 4.94598 0
M  V30 4773 O 455.703 2.51845 5.10454 0
M  V30 4774 N 456.905 0.737171 5.758 0
M  V30 4775 H 459.67 2.25027 1.97947 0
M  V30 4776 H 457.231 1.3068 0.955739 0
M  V30 4777 H 459.223 0.705942 3.98495 0
M  V30 4778 H 457.793 0.0823066 3.12492 0
M  V30 4779 H 457.013 2.56454 2.99374 0
M  V30 4780 H 458.301 2.9411 4.15183 0
M  V30 4781 H 457.699 0.137637 5.65533 0
M  V30 4782 H 456.256 0.542534 6.49538 0
M  V30 4783 N 459.689 -1.00246 1.21608 0
M  V30 4784 C 460.621 -2.09244 0.935401 0
M  V30 4785 C 461.634 -1.62592 -0.0823594 0
M  V30 4786 O 462.823 -1.77865 0.150456 0
M  V30 4787 C 459.923 -3.36724 0.383453 0
M  V30 4788 C 459.096 -4.1245 1.45615 0
M  V30 4789 C 458.155 -5.18219 0.912991 0
M  V30 4790 O 457.181 -5.46337 1.59701 0
M  V30 4791 N 458.383 -5.7987 -0.270478 0
M  V30 4792 H 461.148 -2.33905 1.87373 0
M  V30 4793 H 458.709 -1.16748 1.12167 0
M  V30 4794 H 460.701 -4.047 0.00562157 0
M  V30 4795 H 459.271 -3.09201 -0.459758 0
M  V30 4796 H 458.491 -3.39241 2.00772 0
M  V30 4797 H 459.779 -4.59819 2.17817 0
M  V30 4798 H 459.177 -5.59381 -0.843195 0
M  V30 4799 H 457.734 -6.49126 -0.589794 0
M  V30 4800 N 461.167 -1.02423 -1.1978 0
M  V30 4801 C 462.13 -0.605703 -2.21052 0
M  V30 4802 C 463.13 0.328209 -1.57415 0
M  V30 4803 O 464.32 0.115853 -1.73814 0
M  V30 4804 C 461.452 0.114366 -3.40708 0
M  V30 4805 H 462.645 -1.5017 -2.59594 0
M  V30 4806 H 460.198 -0.814888 -1.33376 0
M  V30 4807 H 460.933 1.02492 -3.07678 0
M  V30 4808 H 460.718 -0.556641 -3.88129 0
M  V30 4809 H 462.208 0.394272 -4.15735 0
M  V30 4810 N 462.645 1.35699 -0.801477 0
M  V30 4811 C 464.056 1.81415 -0.441073 0
M  V30 4812 C 464.407 1.66595 1.03636 0
M  V30 4813 O 463.532 1.19369 1.80499 0
M  V30 4814 C 464.127 3.29369 -0.793819 0
M  V30 4815 C 462.686 3.73248 -0.486083 0
M  V30 4816 C 461.833 2.57775 -1.02213 0
M  V30 4817 H 464.784 1.23749 -0.993572 0
M  V30 4818 H 464.805 3.80395 -0.0894158 0
M  V30 4819 H 464.317 3.40123 -1.86917 0
M  V30 4820 H 462.418 3.68046 0.580735 0
M  V30 4821 H 462.531 4.68222 -1.01513 0
M  V30 4822 H 460.895 2.50788 -0.444712 0
M  V30 4823 H 461.678 2.71309 -2.10348 0
M  V30 4824 N 464.123 0.554532 1.47522 0
M  V30 4825 C 465.539 0.214107 1.58157 0
M  V30 4826 C 465.739 -1.28331 1.55349 0
M  V30 4827 O 464.795 -2.06329 1.45549 0
M  V30 4828 C 466.108 0.838391 2.88776 0
M  V30 4829 C 467.656 0.809374 3.02354 0
M  V30 4830 C 468.131 1.41268 4.35669 0
M  V30 4831 N 469.622 1.37574 4.42298 0
M  V30 4832 C 470.357 1.8122 5.4401 0
M  V30 4833 N 469.853 2.3271 6.52547 0
M  V30 4834 N 471.646 1.72307 5.35039 0
M  V30 4835 H 463.797 1.52744 1.4759 0
M  V30 4836 H 466.06 0.636812 0.702264 0
M  V30 4837 H 465.766 1.89065 2.96559 0
M  V30 4838 H 465.64 0.329847 3.75755 0
M  V30 4839 H 468.027 -0.234187 2.94169 0
M  V30 4840 H 468.108 1.35565 2.16924 0
M  V30 4841 H 467.752 2.45529 4.4461 0
M  V30 4842 H 467.682 0.841871 5.19827 0
M  V30 4843 H 470.173 0.999081 3.64454 0
M  V30 4844 H 470.486 2.63944 7.26329 0
M  V30 4845 H 468.831 2.36719 6.53444 0
M  V30 4846 H 472.022 1.3186 4.49144 0
M  V30 4847 H 472.195 2.06641 6.14169 0
M  V30 4848 N 465.601 -1.54893 0.290851 0
M  V30 4849 C 467.012 -1.85584 -0.203816 0
M  V30 4850 C 467.363 -1.21285 -1.54222 0
M  V30 4851 O 466.488 -0.506841 -2.10381 0
M  V30 4852 C 467.083 -3.367 -0.376595 0
M  V30 4853 C 465.642 -3.6746 -0.815485 0
M  V30 4854 C 464.789 -2.77178 0.0821087 0
M  V30 4855 H 467.74 -1.50208 0.512175 0
M  V30 4856 H 467.761 -3.60656 -1.21275 0
M  V30 4857 H 467.273 -3.8347 0.59767 0
M  V30 4858 H 465.374 -3.26201 -1.80066 0
M  V30 4859 H 465.487 -4.7478 -0.641905 0
M  V30 4860 H 463.851 -2.50925 -0.436895 0
M  V30 4861 H 464.634 -3.26767 1.05254 0
M  V30 4862 N 467.08 -0.0183926 -1.57589 0
M  V30 4863 C 468.496 0.337897 -1.55982 0
M  V30 4864 C 468.696 1.73604 -1.02294 0
M  V30 4865 O 467.752 2.43589 -0.664895 0
M  V30 4866 C 469.065 0.196305 -3.00059 0
M  V30 4867 C 470.613 0.269875 -3.11834 0
M  V30 4868 C 471.088 0.157197 -4.5773 0
M  V30 4869 N 472.579 0.214521 -4.62703 0
M  V30 4870 C 473.314 0.150955 -5.73201 0
M  V30 4871 N 472.81 0.0369212 -6.9279 0
M  V30 4872 N 474.603 0.204162 -5.61729 0
M  V30 4873 H 466.754 -0.93279 -1.90821 0
M  V30 4874 H 469.017 -0.359253 -0.877292 0
M  V30 4875 H 468.723 -0.766383 -3.43248 0
M  V30 4876 H 468.597 0.970908 -3.6449 0
M  V30 4877 H 470.984 1.22302 -2.68563 0
M  V30 4878 H 471.065 -0.534918 -2.50144 0
M  V30 4879 H 470.709 -0.792479 -5.01679 0
M  V30 4880 H 470.639 0.980717 -5.17387 0
M  V30 4881 H 473.13 0.303238 -3.76681 0
M  V30 4882 H 473.443 -0.00518321 -7.728 0
M  V30 4883 H 471.788 0.0022886 -6.95 0
M  V30 4884 H 474.979 0.291575 -4.67191 0
M  V30 4885 H 475.152 0.15116 -6.47824 0
M  V30 4886 N 468.558 1.5553 0.254621 0
M  V30 4887 C 469.969 1.67518 0.824286 0
M  V30 4888 C 470.32 0.614429 1.86331 0
M  V30 4889 O 469.445 -0.240736 2.15057 0
M  V30 4890 C 470.04 3.03692 1.50189 0
M  V30 4891 C 468.599 3.17646 2.01935 0
M  V30 4892 C 467.746 2.63373 0.867746 0
M  V30 4893 H 470.697 1.58671 0.0305843 0
M  V30 4894 H 470.718 2.97706 2.36962 0
M  V30 4895 H 470.23 3.80874 0.745431 0
M  V30 4896 H 468.331 2.45273 2.80485 0
M  V30 4897 H 468.444 4.24455 2.22204 0
M  V30 4898 H 466.808 2.20999 1.26616 0
M  V30 4899 H 467.591 3.43074 0.124498 0
M  V30 4900 N 470.036 -0.519951 1.48776 0
M  V30 4901 C 471.261 -1.30447 1.6124 0
M  V30 4902 C 471.686 -1.86055 0.276591 0
M  V30 4903 O 471.044 -1.64915 -0.753183 0
M  V30 4904 C 471.092 -2.42406 2.66967 0
M  V30 4905 O 470.196 -3.45728 2.24824 0
M  V30 4906 H 469.537 -0.385924 0.540332 0
M  V30 4907 H 472.067 -0.624572 1.94834 0
M  V30 4908 H 472.077 -2.88447 2.88552 0
M  V30 4909 H 470.752 -2.01294 3.63941 0
M  V30 4910 H 469.329 -3.05737 2.13494 0
M  V30 4911 N 471.514 -1.37532 -0.769588 0
M  V30 4912 C 472.446 -1.29347 -1.89214 0
M  V30 4913 C 473.459 -0.208842 -1.61455 0
M  V30 4914 O 474.648 -0.465158 -1.72333 0
M  V30 4915 C 471.748 -0.977649 -3.24492 0
M  V30 4916 C 470.921 -2.16817 -3.7988 0
M  V30 4917 C 469.98 -1.82229 -4.93639 0
M  V30 4918 O 469.006 -2.54548 -5.09111 0
M  V30 4919 N 470.208 -0.767696 -5.75401 0
M  V30 4920 H 472.973 -2.26073 -1.96751 0
M  V30 4921 H 470.534 -1.31185 -0.948795 0
M  V30 4922 H 472.526 -0.727065 -3.98115 0
M  V30 4923 H 471.096 -0.0988777 -3.12444 0
M  V30 4924 H 470.316 -2.58038 -2.9801 0
M  V30 4925 H 471.604 -2.96308 -4.13617 0
M  V30 4926 H 471.002 -0.167626 -5.65452 0
M  V30 4927 H 469.559 -0.576973 -6.49241 0
M  V30 4928 N 472.992 0.995999 -1.22138 0
M  V30 4929 C 474.403 1.54961 -1.04135 0
M  V30 4930 C 474.754 1.92159 0.396147 0
M  V30 4931 O 473.879 1.74435 1.28069 0
M  V30 4932 C 474.474 2.81581 -1.88408 0
M  V30 4933 C 473.033 3.33396 -1.74712 0
M  V30 4934 C 472.18 2.06509 -1.85066 0
M  V30 4935 H 475.131 0.817436 -1.36028 0
M  V30 4936 H 475.152 3.53822 -1.39966 0
M  V30 4937 H 474.664 2.54476 -2.93025 0
M  V30 4938 H 472.765 3.65416 -0.728159 0
M  V30 4939 H 472.878 4.04208 -2.57202 0
M  V30 4940 H 471.242 2.19925 -1.28472 0
M  V30 4941 H 472.025 1.81804 -2.91208 0
M  V30 4942 N 474.47 1.03057 1.19235 0
M  V30 4943 C 475.881 0.757449 1.70645 0
M  V30 4944 C 476.232 -0.722735 1.82403 0
M  V30 4945 O 475.357 -1.56325 1.49638 0
M  V30 4946 C 475.952 1.36833 3.09939 0
M  V30 4947 C 474.511 1.14375 3.58602 0
M  V30 4948 C 473.658 1.46533 2.35422 0
M  V30 4949 H 476.609 1.19828 1.04052 0
M  V30 4950 H 476.63 0.766184 3.72706 0
M  V30 4951 H 476.142 2.44562 3.01349 0
M  V30 4952 H 474.243 0.0847542 3.72504 0
M  V30 4953 H 474.356 1.83366 4.42622 0
M  V30 4954 H 472.72 0.884712 2.38841 0
M  V30 4955 H 473.503 2.55349 2.2946 0
M  V30 4956 N 475.948 -1.35272 0.808662 0
M  V30 4957 C 477.359 -1.81179 0.450688 0
M  V30 4958 C 477.71 -1.67143 -1.02751 0
M  V30 4959 O 476.835 -1.20325 -1.79864 0
M  V30 4960 C 477.43 -3.28943 0.811275 0
M  V30 4961 C 475.989 -3.72985 0.505871 0
M  V30 4962 C 475.136 -2.57229 1.03578 0
M  V30 4963 H 478.087 -1.2322 1.00012 0
M  V30 4964 H 478.108 -3.80342 0.109588 0
M  V30 4965 H 477.62 -3.39127 1.88718 0
M  V30 4966 H 475.721 -3.68349 -0.561209 0
M  V30 4967 H 475.834 -4.67677 1.03995 0
M  V30 4968 H 474.198 -2.50548 0.458005 0
M  V30 4969 H 474.981 -2.7019 2.11784 0
M  V30 4970 N 477.426 -0.562348 -1.47226 0
M  V30 4971 C 478.837 -0.130325 -1.86245 0
M  V30 4972 C 479.188 1.30128 -1.46838 0
M  V30 4973 O 478.313 1.97974 -0.873805 0
M  V30 4974 C 478.908 -0.229738 -3.3802 0
M  V30 4975 C 477.467 0.14728 -3.76112 0
M  V30 4976 C 476.614 -0.574971 -2.71274 0
M  V30 4977 H 479.565 -0.771773 -1.3867 0
M  V30 4978 H 479.586 0.550316 -3.76499 0
M  V30 4979 H 479.098 -1.27178 -3.66671 0
M  V30 4980 H 477.199 1.19023 -3.53078 0
M  V30 4981 H 477.312 -0.214858 -4.78618 0
M  V30 4982 H 475.676 -0.0174756 -2.54694 0
M  V30 4983 H 476.459 -1.61827 -3.02766 0
M  V30 4984 N 478.904 1.54736 -0.299062 0
M  V30 4985 C 480.315 1.8569 0.193971 0
M  V30 4986 C 480.666 1.22101 1.53577 0
M  V30 4987 O 479.791 0.51799 2.10109 0
M  V30 4988 C 480.386 3.36895 0.358733 0
M  V30 4989 C 478.945 3.67887 0.795986 0
M  V30 4990 C 478.092 2.77131 -0.096807 0
M  V30 4991 H 481.043 1.49934 -0.520134 0
M  V30 4992 H 481.064 3.61294 1.19361 0
M  V30 4993 H 480.576 3.83148 -0.617998 0
M  V30 4994 H 478.677 3.27151 1.78334 0
M  V30 4995 H 478.79 4.75114 0.616718 0
M  V30 4996 H 477.154 2.51153 0.423581 0
M  V30 4997 H 477.937 3.26204 -1.06986 0
M  V30 4998 N 480.382 0.0267497 1.57577 0
M  V30 4999 C 481.628 -0.653371 1.91987 0
M  V30 5000 C 481.961 -1.71915 0.903263 0
M  V30 5001 O 481.236 -1.94358 -0.0743387 0
M  V30 5002 C 481.519 -1.272 3.36886 0
M  V30 5003 C 481.372 -0.215938 4.49281 0
M  V30 5004 C 482.691 -2.19069 3.81703 0
M  V30 5005 H 479.81 -0.236047 0.698177 0
M  V30 5006 H 482.452 0.0835236 1.89816 0
M  V30 5007 H 480.602 -1.90005 3.38866 0
M  V30 5008 H 482.274 0.41449 4.59434 0
M  V30 5009 H 480.517 0.458855 4.31366 0
M  V30 5010 H 481.188 -0.688347 5.47691 0
M  V30 5011 H 483.664 -1.66253 3.81444 0
M  V30 5012 H 482.54 -2.59307 4.83788 0
M  V30 5013 H 482.801 -3.08087 3.17072 0
M  V30 5014 N 481.861 -1.55662 -0.24637 0
M  V30 5015 C 483.272 -1.67953 -0.81539 0
M  V30 5016 C 483.623 -0.624302 -1.86002 0
M  V30 5017 O 482.748 0.229328 -2.15181 0
M  V30 5018 C 483.343 -3.04484 -1.48576 0
M  V30 5019 C 481.902 -3.18713 -2.00248 0
M  V30 5020 C 481.049 -2.6383 -0.853766 0
M  V30 5021 H 484 -1.58685 -0.0221692 0
M  V30 5022 H 484.021 -2.98959 -2.3538 0
M  V30 5023 H 483.533 -3.81264 -0.725222 0
M  V30 5024 H 481.634 -2.46757 -2.79181 0
M  V30 5025 H 481.747 -4.25628 -2.1995 0
M  V30 5026 H 480.111 -2.21667 -1.25442 0
M  V30 5027 H 480.894 -3.43135 -0.106302 0
M  V30 5028 N 483.339 0.512053 -1.4905 0
M  V30 5029 C 484.289 1.61142 -1.61298 0
M  V30 5030 C 485.273 1.53908 -0.46916 0
M  V30 5031 O 486.465 1.61625 -0.721547 0
M  V30 5032 C 483.594 2.998 -1.67256 0
M  V30 5033 C 482.68 3.12072 -2.87179 0
M  V30 5034 N 483.071 2.94263 -4.11391 0
M  V30 5035 C 481.369 3.43156 -2.84886 0
M  V30 5036 C 482.07 3.10426 -4.91946 0
M  V30 5037 N 481.046 3.38808 -4.251 0
M  V30 5038 H 484.848 1.46011 -2.55065 0
M  V30 5039 H 482.362 0.717934 -1.45669 0
M  V30 5040 H 484.359 3.78794 -1.74128 0
M  V30 5041 H 483.019 3.1601 -0.746195 0
M  V30 5042 H 484.03 2.70661 -4.41546 0
M  V30 5043 H 480.707 3.65611 -2.01581 0
M  V30 5044 H 482.097 3.01243 -6.00585 0
M  V30 5045 N 484.817 1.37938 0.762283 0
M  V30 5046 C 485.747 1.37176 1.88958 0
M  V30 5047 C 486.728 0.238945 1.68413 0
M  V30 5048 O 487.913 0.440726 1.89133 0
M  V30 5049 C 485.043 1.18742 3.2637 0
M  V30 5050 C 483.997 2.29136 3.61498 0
M  V30 5051 C 483.323 1.95816 4.97554 0
M  V30 5052 C 484.623 3.71363 3.6727 0
M  V30 5053 H 486.317 2.31509 1.89853 0
M  V30 5054 H 483.863 1.11438 0.912005 0
M  V30 5055 H 485.816 1.16837 4.04879 0
M  V30 5056 H 484.54 0.208683 3.25933 0
M  V30 5057 H 483.199 2.30213 2.85303 0
M  V30 5058 H 482.847 0.964475 4.93667 0
M  V30 5059 H 482.547 2.69745 5.22026 0
M  V30 5060 H 484.071 1.95513 5.78452 0
M  V30 5061 H 485.485 3.72364 4.35911 0
M  V30 5062 H 483.882 4.44425 4.03245 0
M  V30 5063 H 484.952 4.04305 2.67704 0
M  V30 5064 N 486.295 -0.989507 1.22664 0
M  V30 5065 C 487.227 -2.0824 0.957542 0
M  V30 5066 C 488.24 -1.6267 -0.0651098 0
M  V30 5067 O 489.429 -1.77695 0.169312 0
M  V30 5068 C 486.529 -3.36298 0.419145 0
M  V30 5069 C 485.702 -4.10882 1.49982 0
M  V30 5070 C 484.761 -5.17221 0.967904 0
M  V30 5071 O 483.787 -5.44613 1.65487 0
M  V30 5072 N 484.989 -5.80124 -0.20896 0
M  V30 5073 H 487.754 -2.31904 1.89843 0
M  V30 5074 H 485.315 -1.15552 1.13399 0
M  V30 5075 H 487.307 -4.04671 0.0485451 0
M  V30 5076 H 485.877 -3.09671 -0.426937 0
M  V30 5077 H 485.097 -3.37092 2.04359 0
M  V30 5078 H 486.385 -4.57482 2.22682 0
M  V30 5079 H 485.783 -5.60244 -0.783818 0
M  V30 5080 H 484.34 -6.49715 -0.520913 0
M  V30 5081 N 487.773 -1.03688 -1.18687 0
M  V30 5082 C 489.184 -0.766488 -1.70241 0
M  V30 5083 C 489.535 0.713052 -1.82784 0
M  V30 5084 O 488.66 1.55529 -1.50465 0
M  V30 5085 C 489.255 -1.38475 -3.09209 0
M  V30 5086 C 487.814 -1.16276 -3.5799 0
M  V30 5087 C 486.961 -1.4778 -2.34641 0
M  V30 5088 H 489.912 -1.20378 -1.03415 0
M  V30 5089 H 489.933 -0.785939 -3.72295 0
M  V30 5090 H 489.445 -2.46157 -3.00048 0
M  V30 5091 H 487.546 -0.104508 -3.72453 0
M  V30 5092 H 487.659 -1.8571 -4.41643 0
M  V30 5093 H 486.023 -0.897366 -2.38368 0
M  V30 5094 H 486.806 -2.56562 -2.28102 0
M  V30 5095 N 489.251 1.34841 -0.815825 0
M  V30 5096 C 490.184 2.27504 -0.178062 0
M  V30 5097 C 491.162 1.48542 0.661373 0
M  V30 5098 O 492.346 1.77779 0.626653 0
M  V30 5099 C 489.473 3.30246 0.752002 0
M  V30 5100 C 488.519 4.26499 -0.00899172 0
M  V30 5101 S 489.352 5.18169 -1.35134 0
M  V30 5102 C 490.508 6.24449 -0.42596 0
M  V30 5103 H 490.741 2.81248 -0.963684 0
M  V30 5104 H 488.274 1.41781 -0.611355 0
M  V30 5105 H 490.232 3.89933 1.28308 0
M  V30 5106 H 488.893 2.75363 1.51109 0
M  V30 5107 H 488.086 4.99146 0.697766 0
M  V30 5108 H 487.688 3.7103 -0.470396 0
M  V30 5109 H 489.98 6.76404 0.385234 0
M  V30 5110 H 490.923 6.99156 -1.1219 0
M  V30 5111 H 491.331 5.64497 -0.0175461 0
M  V30 5112 N 490.729 0.570148 1.46925 0
M  V30 5113 C 491.954 0.0542592 2.07329 0
M  V30 5114 C 492.379 -1.23582 1.41806 0
M  V30 5115 O 491.737 -1.74341 0.497479 0
M  V30 5116 C 491.785 -0.111175 3.60429 0
M  V30 5117 O 490.889 -1.17071 3.95434 0
M  V30 5118 H 490.23 0.0571425 0.661537 0
M  V30 5119 H 492.76 0.789516 1.88753 0
M  V30 5120 H 492.77 -0.321315 4.06733 0
M  V30 5121 H 491.445 0.831012 4.07513 0
M  V30 5122 H 490.022 -0.940029 3.60857 0
M  V30 5123 N 492.207 -1.54576 0.307264 0
M  V30 5124 C 493.139 -2.21212 -0.599807 0
M  V30 5125 C 494.152 -1.20685 -1.09266 0
M  V30 5126 O 495.341 -1.47244 -1.00903 0
M  V30 5127 C 492.441 -2.84994 -1.83389 0
M  V30 5128 C 491.614 -4.11511 -1.48248 0
M  V30 5129 C 490.673 -4.59038 -2.57237 0
M  V30 5130 O 489.699 -5.24095 -2.22065 0
M  V30 5131 N 490.901 -4.31884 -3.87887 0
M  V30 5132 H 493.666 -2.99686 -0.0293075 0
M  V30 5133 H 491.227 -1.61379 0.129738 0
M  V30 5134 H 493.219 -3.1372 -2.5566 0
M  V30 5135 H 491.789 -2.10324 -2.31263 0
M  V30 5136 H 491.009 -3.89728 -0.592122 0
M  V30 5137 H 492.297 -4.93879 -1.22316 0
M  V30 5138 H 491.695 -3.79778 -4.19268 0
M  V30 5139 H 490.252 -4.65304 -4.56438 0
M  V30 5140 N 493.685 -0.035106 -1.57561 0
M  V30 5141 C 494.934 0.641604 -1.91223 0
M  V30 5142 C 495.247 1.72944 -0.913761 0
M  V30 5143 O 496.453 2.46321 -1.14185 0
M  V30 5144 C 494.909 1.19249 -3.3957 0
M  V30 5145 C 494.517 0.137616 -4.47789 0
M  V30 5146 C 496.261 1.84537 -3.82291 0
M  V30 5147 C 494.168 0.700478 -5.87237 0
M  V30 5148 H 493.098 0.243417 -0.713627 0
M  V30 5149 H 495.749 -0.101382 -1.8322 0
M  V30 5150 H 494.131 1.98728 -3.42525 0
M  V30 5151 H 495.305 -0.635153 -4.56402 0
M  V30 5152 H 493.62 -0.416855 -4.14308 0
M  V30 5153 H 496.217 2.27616 -4.83834 0
M  V30 5154 H 496.56 2.69054 -3.17672 0
M  V30 5155 H 497.093 1.11739 -3.81784 0
M  V30 5156 H 493.832 -0.106693 -6.55413 0
M  V30 5157 H 493.352 1.4416 -5.82218 0
M  V30 5158 H 495.031 1.18837 -6.35993 0
M  V30 5159 N 495.163 1.55791 0.238111 0
M  V30 5160 C 496.391 1.82098 0.982233 0
M  V30 5161 C 496.806 0.612025 1.78605 0
M  V30 5162 O 496.163 -0.419381 1.77616 0
M  V30 5163 C 496.214 3.0673 1.91309 0
M  V30 5164 O 495.935 4.2296 1.14179 0
M  V30 5165 C 497.436 3.45903 2.77248 0
M  V30 5166 H 494.656 0.605748 0.288635 0
M  V30 5167 H 497.2 2.02862 0.258341 0
M  V30 5168 H 495.355 2.87991 2.59114 0
M  V30 5169 H 495.769 4.93653 1.7722 0
M  V30 5170 H 497.243 4.36189 3.38295 0
M  V30 5171 H 497.72 2.66891 3.48806 0
M  V30 5172 H 498.326 3.67024 2.14881 0
M  V30 5173 N 496.642 -0.504142 1.49319 0
M  V30 5174 C 497.89 -1.25598 1.58334 0
M  V30 5175 C 498.211 -1.93114 0.270538 0
M  V30 5176 O 497.481 -1.82585 -0.709891 0
M  V30 5177 H 496.061 -0.466571 0.58337 0
M  V30 5178 H 498.723 -0.584547 1.85928 0
M  V30 5179 H 497.819 -2.02159 2.37778 0
M  V30 5180 N 498.12 -1.38341 -0.754957 0
M  V30 5181 C 499.05 -1.38176 -1.88227 0
M  V30 5182 C 500.031 -0.247873 -1.68284 0
M  V30 5183 O 501.216 -0.45075 -1.88896 0
M  V30 5184 C 498.346 -1.20471 -3.25736 0
M  V30 5185 C 497.3 -2.3105 -3.60278 0
M  V30 5186 C 496.626 -1.98452 -4.96509 0
M  V30 5187 C 497.926 -3.73305 -3.65295 0
M  V30 5188 H 499.62 -2.32512 -1.88622 0
M  V30 5189 H 497.166 -1.1192 -0.906082 0
M  V30 5190 H 499.119 -1.18982 -4.04254 0
M  V30 5191 H 497.843 -0.225965 -3.25817 0
M  V30 5192 H 496.502 -2.31723 -2.84078 0
M  V30 5193 H 496.15 -0.990641 -4.93148 0
M  V30 5194 H 495.85 -2.7251 -5.20588 0
M  V30 5195 H 497.374 -1.98578 -5.77407 0
M  V30 5196 H 498.788 -3.7467 -4.3393 0
M  V30 5197 H 497.185 -4.46557 -4.00883 0
M  V30 5198 H 498.255 -4.05719 -2.65556 0
M  V30 5199 N 499.598 0.982988 -1.23187 0
M  V30 5200 C 500.545 2.07491 -1.01075 0
M  V30 5201 C 501.515 1.65949 0.070905 0
M  V30 5202 O 502.7 1.90629 -0.0806822 0
M  V30 5203 C 499.84 3.39751 -0.605261 0
M  V30 5204 C 498.953 3.94578 -1.75876 0
M  V30 5205 C 498.088 5.15039 -1.3003 0
M  V30 5206 C 497.127 5.62027 -2.42472 0
M  V30 5207 N 496.264 6.73719 -1.97602 0
M  V30 5208 H 501.104 2.25739 -1.9454 0
M  V30 5209 H 498.641 1.10659 -0.969179 0
M  V30 5210 H 500.599 4.15719 -0.351279 0
M  V30 5211 H 499.229 3.21473 0.292382 0
M  V30 5212 H 498.281 3.1539 -2.12681 0
M  V30 5213 H 499.593 4.25422 -2.60418 0
M  V30 5214 H 498.747 5.9833 -1.00429 0
M  V30 5215 H 497.486 4.85843 -0.425216 0
M  V30 5216 H 496.491 4.77318 -2.7285 0
M  V30 5217 H 497.716 5.93244 -3.30512 0
M  V30 5218 H 495.662 6.46287 -1.1247 0
M  V30 5219 H 495.579 7.03934 -2.75705 0
M  V30 5220 H 496.847 7.6049 -1.71098 0
M  V30 5221 N 501.076 1.04316 1.18135 0
M  V30 5222 C 502.023 0.636398 2.21853 0
M  V30 5223 C 502.993 -0.357039 1.62217 0
M  V30 5224 O 504.178 -0.250453 1.89149 0
M  V30 5225 C 501.318 0.00812779 3.45099 0
M  V30 5226 C 500.431 1.04933 4.19062 0
M  V30 5227 C 499.566 0.389313 5.29771 0
M  V30 5228 C 498.605 1.41544 5.9551 0
M  V30 5229 N 497.742 0.78021 6.97751 0
M  V30 5230 H 502.582 1.52536 2.56002 0
M  V30 5231 H 500.119 0.76304 1.25762 0
M  V30 5232 H 502.077 -0.373497 4.15525 0
M  V30 5233 H 500.707 -0.844336 3.11562 0
M  V30 5234 H 499.759 1.54888 3.47439 0
M  V30 5235 H 501.071 1.82862 4.64072 0
M  V30 5236 H 500.225 -0.0463805 6.06682 0
M  V30 5237 H 498.964 -0.422038 4.8587 0
M  V30 5238 H 497.969 1.86124 5.17337 0
M  V30 5239 H 499.194 2.22854 6.41493 0
M  V30 5240 H 497.14 -0.0107899 6.55999 0
M  V30 5241 H 497.057 1.49716 7.41027 0
M  V30 5242 H 498.325 0.368996 7.78626 0
M  V30 5243 N 502.554 -1.34406 0.822964 0
M  V30 5244 C 503.484 -2.32052 0.259608 0
M  V30 5245 C 504.465 -1.58243 -0.623961 0
M  V30 5246 O 505.65 -1.86224 -0.55083 0
M  V30 5247 C 502.78 -3.42434 -0.579314 0
M  V30 5248 C 501.734 -4.27499 0.20712 0
M  V30 5249 C 501.06 -5.29349 -0.754547 0
M  V30 5250 C 502.36 -5.02758 1.41533 0
M  V30 5251 H 504.054 -2.79418 1.07545 0
M  V30 5252 H 501.6 -1.34338 0.518593 0
M  V30 5253 H 503.553 -4.0976 -0.983612 0
M  V30 5254 H 502.277 -2.93717 -1.4282 0
M  V30 5255 H 500.936 -3.61776 0.592787 0
M  V30 5256 H 500.584 -4.76895 -1.59939 0
M  V30 5257 H 500.284 -5.8714 -0.232561 0
M  V30 5258 H 501.808 -5.99544 -1.1567 0
M  V30 5259 H 503.222 -5.62938 1.08504 0
M  V30 5260 H 501.619 -5.70123 1.87296 0
M  V30 5261 H 502.689 -4.32451 2.1935 0
M  V30 5262 N 504.032 -0.577932 -1.46621 0
M  V30 5263 C 504.965 0.206312 -2.27265 0
M  V30 5264 C 505.943 0.901306 -1.35334 0
M  V30 5265 O 507.127 0.916151 -1.64739 0
M  V30 5266 C 504.254 1.29563 -3.1294 0
M  V30 5267 C 503.3 0.706981 -4.206 0
M  V30 5268 S 504.133 -0.462459 -5.33499 0
M  V30 5269 C 505.289 0.628171 -6.2274 0
M  V30 5270 H 505.522 -0.477961 -2.93433 0
M  V30 5271 H 503.055 -0.364715 -1.50031 0
M  V30 5272 H 505.013 1.91935 -3.62865 0
M  V30 5273 H 503.674 1.95183 -2.46095 0
M  V30 5274 H 502.867 1.52565 -4.80354 0
M  V30 5275 H 502.469 0.159022 -3.73662 0
M  V30 5276 H 504.761 1.51506 -6.60342 0
M  V30 5277 H 505.704 0.0674961 -7.08068 0
M  V30 5278 H 506.112 0.930167 -5.56784 0
M  V30 5279 N 505.51 1.54411 -0.315457 0
M  V30 5280 C 506.46 2.20772 0.569549 0
M  V30 5281 C 507.444 1.18551 1.08787 0
M  V30 5282 O 508.636 1.44213 1.02624 0
M  V30 5283 C 505.765 2.96293 1.73394 0
M  V30 5284 C 504.851 4.05844 1.2309 0
M  V30 5285 N 505.242 5.03822 0.446927 0
M  V30 5286 C 503.54 4.19648 1.51035 0
M  V30 5287 C 504.241 5.8143 0.17725 0
M  V30 5288 N 503.217 5.38245 0.761118 0
M  V30 5289 H 507.019 2.93877 -0.0368076 0
M  V30 5290 H 504.533 1.61949 -0.120915 0
M  V30 5291 H 506.53 3.42313 2.37965 0
M  V30 5292 H 505.19 2.24708 2.34386 0
M  V30 5293 H 506.201 5.17821 0.0905027 0
M  V30 5294 H 502.878 3.59274 2.1267 0
M  V30 5295 H 504.268 6.70369 -0.45335 0
M  V30 5296 N 506.988 0.0434614 1.5754 0
M  V30 5297 C 508.213 -0.645358 1.97104 0
M  V30 5298 C 508.638 -1.64037 0.920521 0
M  V30 5299 O 507.996 -1.80922 -0.11708 0
M  V30 5300 C 508.044 -1.31547 3.35749 0
M  V30 5301 O 507.148 -2.43103 3.33129 0
M  V30 5302 H 506.489 -0.168403 0.64229 0
M  V30 5303 H 509.019 0.109573 2.04306 0
M  V30 5304 H 509.029 -1.66895 3.72304 0
M  V30 5305 H 507.704 -0.586205 4.11748 0
M  V30 5306 H 506.281 -2.0976 3.0831 0
M  V30 5307 N 508.466 -1.55915 -0.229846 0
M  V30 5308 C 509.414 -1.9258 -1.30444 0
M  V30 5309 C 510.408 -0.806839 -1.48951 0
M  V30 5310 O 511.614 -0.991606 -1.50224 0
M  V30 5311 H 507.989 -0.611878 -0.437161 0
M  V30 5312 H 509.96 -2.82264 -0.96797 0
M  V30 5313 C 508.709 -2.25171 -2.6494 0
M  V30 5314 H 508.032 -3.10782 -2.51504 0
M  V30 5315 H 509.472 -2.54716 -3.38963 0
M  V30 5316 C 507.931 -1.07394 -3.19324 0
M  V30 5317 O 508.461 -0.330759 -4.00336 0
M  V30 5318 N 506.667 -0.859984 -2.77584 0
M  V30 5319 H 506.214 -1.46605 -2.11813 0
M  V30 5320 H 506.172 -0.0736671 -3.14314 0
M  V30 5321 N 509.944 0.496216 -1.49584 0
M  V30 5322 C 511.169 1.27865 -1.63295 0
M  V30 5323 C 511.594 1.85592 -0.306156 0
M  V30 5324 O 510.952 1.66092 0.726851 0
M  V30 5325 C 511 2.38128 -2.7079 0
M  V30 5326 O 510.104 3.42108 -2.30296 0
M  V30 5327 H 509.445 0.377279 -0.546403 0
M  V30 5328 H 511.975 0.593497 -1.95803 0
M  V30 5329 H 511.985 2.8382 -2.93104 0
M  V30 5330 H 510.66 1.95479 -3.67098 0
M  V30 5331 H 509.237 3.02301 -2.18331 0
M  V30 5332 N 511.423 1.38739 0.74761 0
M  V30 5333 C 512.353 1.39173 1.87492 0
M  V30 5334 C 513.334 0.256794 1.6815 0
M  V30 5335 O 514.519 0.460762 1.88655 0
M  V30 5336 C 511.649 1.22197 3.25093 0
M  V30 5337 C 510.603 2.32957 3.59047 0
M  V30 5338 C 509.929 2.01082 4.95449 0
M  V30 5339 C 511.229 3.75237 3.6331 0
M  V30 5340 H 512.923 2.3351 1.87386 0
M  V30 5341 H 510.469 1.12399 0.900134 0
M  V30 5342 H 512.422 1.21124 4.03617 0
M  V30 5343 H 511.146 0.243241 3.25693 0
M  V30 5344 H 509.805 2.33226 2.82845 0
M  V30 5345 H 509.453 1.01678 4.92616 0
M  V30 5346 H 509.153 2.75267 5.19136 0
M  V30 5347 H 510.677 2.01638 5.76346 0
M  V30 5348 H 512.091 3.76966 4.31937 0
M  V30 5349 H 510.488 4.48677 3.98509 0
M  V30 5350 H 511.558 4.07122 2.634 0
M  V30 5351 N 512.901 -0.976442 1.23707 0
M  V30 5352 C 513.849 -2.09078 1.01927 0
M  V30 5353 C 514.843 -1.69345 -0.0430193 0
M  V30 5354 O 516.049 -1.79659 0.110814 0
M  V30 5355 H 512.424 -0.68398 0.312531 0
M  V30 5356 H 514.395 -2.24614 1.96447 0
M  V30 5357 C 513.144 -3.41919 0.631385 0
M  V30 5358 H 512.467 -3.72946 1.44053 0
M  V30 5359 H 513.907 -4.20817 0.518532 0
M  V30 5360 C 512.366 -3.30357 -0.660723 0
M  V30 5361 O 512.896 -3.63542 -1.70881 0
M  V30 5362 N 511.102 -2.83507 -0.638139 0
M  V30 5363 H 510.649 -2.567 0.215108 0
M  V30 5364 H 510.607 -2.76153 -1.50289 0
M  V30 5365 N 514.379 -1.04941 -1.1758 0
M  V30 5366 C 515.327 -0.64204 -2.23563 0
M  V30 5367 C 516.321 0.335453 -1.66045 0
M  V30 5368 O 517.527 0.20179 -1.78865 0
M  V30 5369 H 513.902 -0.18944 -0.727748 0
M  V30 5370 H 515.873 -1.54609 -2.55223 0
M  V30 5371 C 514.622 -0.0301051 -3.47687 0
M  V30 5372 H 513.945 -0.773339 -3.92249 0
M  V30 5373 H 515.385 0.217592 -4.23441 0
M  V30 5374 C 513.844 1.2225 -3.13937 0
M  V30 5375 O 514.374 2.3122 -3.28482 0
M  V30 5376 N 512.58 1.11917 -2.68185 0
M  V30 5377 H 512.127 0.232403 -2.5655 0
M  V30 5378 H 512.085 1.95814 -2.45976 0
M  V30 5379 N 515.857 1.33968 -0.830081 0
M  V30 5380 C 517.082 2.02813 -0.433796 0
M  V30 5381 C 517.507 1.62076 0.954614 0
M  V30 5382 O 516.865 0.808955 1.62252 0
M  V30 5383 C 516.913 3.56348 -0.552115 0
M  V30 5384 O 516.017 4.10202 0.425191 0
M  V30 5385 H 515.358 0.639817 -0.177567 0
M  V30 5386 H 517.888 1.7106 -1.12248 0
M  V30 5387 H 517.898 4.05722 -0.430513 0
M  V30 5388 H 516.573 3.85344 -1.56471 0
M  V30 5389 H 515.15 3.71979 0.261878 0
M  V30 5390 N 517.335 0.585699 1.46312 0
M  V30 5391 C 518.283 -0.158577 2.32059 0
M  V30 5392 C 519.277 -0.881427 1.44662 0
M  V30 5393 O 520.483 -0.799476 1.61271 0
M  V30 5394 H 516.858 -0.0700066 0.748734 0
M  V30 5395 H 518.829 0.583383 2.92642 0
M  V30 5396 C 517.578 -1.15701 3.27885 0
M  V30 5397 H 516.901 -0.610215 3.95116 0
M  V30 5398 H 518.341 -1.64812 3.90657 0
M  V30 5399 C 516.8 -2.21951 2.53455 0
M  V30 5400 O 517.33 -3.29352 2.29978 0
M  V30 5401 N 515.536 -1.9664 2.13965 0
M  V30 5402 H 515.083 -1.09309 2.33258 0
M  V30 5403 H 515.041 -2.6794 1.64485 0
M  V30 5404 N 518.813 -1.54241 0.323641 0
M  V30 5405 C 520.062 -1.9975 -0.279806 0
M  V30 5406 C 520.375 -1.2156 -1.5324 0
M  V30 5407 O 521.581 -1.57447 -2.21185 0
M  V30 5408 C 520.037 -3.55686 -0.549115 0
M  V30 5409 C 519.645 -4.4271 0.686432 0
M  V30 5410 C 521.389 -4.09663 -1.11251 0
M  V30 5411 C 519.296 -5.90119 0.389022 0
M  V30 5412 H 518.226 -0.746177 -0.10833 0
M  V30 5413 H 520.877 -1.78248 0.435877 0
M  V30 5414 H 519.259 -3.73176 -1.32499 0
M  V30 5415 H 520.433 -4.36996 1.46188 0
M  V30 5416 H 518.748 -3.99623 1.17005 0
M  V30 5417 H 521.345 -5.17386 -1.34965 0
M  V30 5418 H 521.688 -3.61651 -2.06191 0
M  V30 5419 H 522.221 -3.95806 -0.39782 0
M  V30 5420 H 518.96 -6.42326 1.30759 0
M  V30 5421 H 518.48 -5.98785 -0.348722 0
M  V30 5422 H 520.159 -6.47 -0.0011164 0
M  V30 5423 N 520.291 -0.0518155 -1.57515 0
M  V30 5424 C 521.702 0.483787 -1.80323 0
M  V30 5425 C 522.053 1.70879 -0.964099 0
M  V30 5426 O 521.178 2.15643 -0.180872 0
M  V30 5427 C 521.773 0.884459 -3.27052 0
M  V30 5428 C 520.332 1.36504 -3.50776 0
M  V30 5429 C 519.479 0.340539 -2.75201 0
M  V30 5430 H 522.43 -0.277691 -1.56252 0
M  V30 5431 H 522.451 1.74733 -3.38007 0
M  V30 5432 H 521.963 -0.00731093 -3.88099 0
M  V30 5433 H 520.064 2.27598 -2.95009 0
M  V30 5434 H 520.177 1.35675 -4.59488 0
M  V30 5435 H 518.541 0.81356 -2.41357 0
M  V30 5436 H 519.324 -0.543156 -3.38976 0
M  V30 5437 N 521.769 1.56035 0.221574 0
M  V30 5438 C 523.185 1.49026 0.571271 0
M  V30 5439 C 523.385 0.746912 1.87146 0
M  V30 5440 O 522.441 0.286566 2.50869 0
M  V30 5441 C 523.754 2.93579 0.650522 0
M  V30 5442 C 525.302 3.04099 0.741151 0
M  V30 5443 C 525.777 4.5001 0.851747 0
M  V30 5444 N 527.268 4.54053 0.915968 0
M  V30 5445 C 528.003 5.64232 1.02125 0
M  V30 5446 N 527.499 6.84164 1.09049 0
M  V30 5447 N 529.292 5.52084 1.05639 0
M  V30 5448 H 521.443 2.02791 -0.63162 0
M  V30 5449 H 523.706 0.921736 -0.221602 0
M  V30 5450 H 523.412 3.50912 -0.235253 0
M  V30 5451 H 523.286 3.45476 1.51413 0
M  V30 5452 H 525.673 2.4683 1.61737 0
M  V30 5453 H 525.754 2.55371 -0.148128 0
M  V30 5454 H 525.398 5.07896 -0.0200117 0
M  V30 5455 H 525.328 4.96444 1.75644 0
M  V30 5456 H 527.819 3.67683 0.872782 0
M  V30 5457 H 528.132 7.63883 1.1706 0
M  V30 5458 H 526.477 6.86875 1.05962 0
M  V30 5459 H 529.668 4.57317 0.998953 0
M  V30 5460 H 529.841 6.37983 1.13498 0
M  V30 5461 N 523.247 -0.488276 1.49845 0
M  V30 5462 C 524.494 -1.24157 1.59973 0
M  V30 5463 C 524.822 -1.92293 0.292182 0
M  V30 5464 O 524.077 -1.81942 -0.720813 0
M  V30 5465 C 524.376 -2.32152 2.71735 0
M  V30 5466 C 524.042 -1.81387 4.12807 0
M  V30 5467 C 522.704 -1.67262 4.51195 0
M  V30 5468 C 525.056 -1.43537 5.01045 0
M  V30 5469 C 522.384 -1.13685 5.7558 0
M  V30 5470 C 524.736 -0.914081 6.25961 0
M  V30 5471 C 523.4 -0.759327 6.63167 0
M  V30 5472 H 522.67 -0.454322 0.585383 0
M  V30 5473 H 525.317 -0.540261 1.83721 0
M  V30 5474 H 523.622 -3.08122 2.42008 0
M  V30 5475 H 525.319 -2.90164 2.76778 0
M  V30 5476 H 521.909 -1.93344 3.82513 0
M  V30 5477 H 526.093 -1.53292 4.72033 0
M  V30 5478 H 521.349 -1.00426 6.03096 0
M  V30 5479 H 525.523 -0.612066 6.93705 0
M  V30 5480 H 523.15 -0.342002 7.5943 0
M  V30 5481 N 524.725 -1.39134 -0.740242 0
M  V30 5482 C 525.973 -1.35803 -1.49673 0
M  V30 5483 C 526.294 0.0470897 -1.94943 0
M  V30 5484 O 525.564 0.997347 -1.68611 0
M  V30 5485 H 524.144 -0.499736 -0.555224 0
M  V30 5486 H 526.806 -1.73947 -0.879107 0
M  V30 5487 H 525.902 -2.0174 -2.38133 0
M  V30 5488 N 526.204 0.969867 -1.24223 0
M  V30 5489 C 527.45 1.7151 -1.08223 0
M  V30 5490 C 527.783 1.90478 0.37838 0
M  V30 5491 O 527.058 1.4647 1.27971 0
M  V30 5492 C 527.341 3.10714 -1.82013 0
M  V30 5493 C 527.194 2.9925 -3.35811 0
M  V30 5494 C 528.513 4.10332 -1.59108 0
M  V30 5495 H 525.632 0.622499 -0.394543 0
M  V30 5496 H 528.274 1.1284 -1.52863 0
M  V30 5497 H 526.424 3.608 -1.44068 0
M  V30 5498 H 528.096 2.56608 -3.83341 0
M  V30 5499 H 526.339 2.35512 -3.64303 0
M  V30 5500 H 527.01 3.97857 -3.82641 0
M  V30 5501 H 529.486 3.69097 -1.92111 0
M  V30 5502 H 528.362 5.05804 -2.13198 0
M  V30 5503 H 528.623 4.38926 -0.528832 0
M  V30 5504 N 527.682 1.05563 1.17022 0
M  V30 5505 C 528.629 0.659893 2.21165 0
M  V30 5506 C 529.599 -0.339813 1.62587 0
M  V30 5507 O 530.784 -0.230378 1.89404 0
M  V30 5508 C 527.924 0.0447297 3.45071 0
M  V30 5509 C 527.037 1.09372 4.17926 0
M  V30 5510 C 526.172 0.445481 5.29329 0
M  V30 5511 C 525.211 1.47852 5.93975 0
M  V30 5512 N 524.348 0.854172 6.96885 0
M  V30 5513 H 529.188 1.55243 2.54369 0
M  V30 5514 H 526.725 0.776336 1.24946 0
M  V30 5515 H 528.683 -0.329404 4.15898 0
M  V30 5516 H 527.313 -0.811244 3.1244 0
M  V30 5517 H 526.365 1.58564 3.45777 0
M  V30 5518 H 527.677 1.87773 4.62107 0
M  V30 5519 H 526.831 0.0179688 6.06697 0
M  V30 5520 H 525.57 -0.370481 4.86291 0
M  V30 5521 H 524.575 1.91601 5.15334 0
M  V30 5522 H 525.8 2.29645 6.39093 0
M  V30 5523 H 523.746 0.0587882 6.55974 0
M  V30 5524 H 523.663 1.57567 7.39397 0
M  V30 5525 H 524.931 0.451559 7.78191 0
M  V30 5526 N 529.16 -1.33526 0.837174 0
M  V30 5527 C 530.388 -2.02047 0.445494 0
M  V30 5528 C 530.803 -1.62995 -0.952788 0
M  V30 5529 O 530.16 -0.842447 -1.61892 0
M  V30 5530 C 530.211 -3.57221 0.554577 0
M  V30 5531 O 529.932 -3.94863 1.89776 0
M  V30 5532 C 531.433 -4.43012 0.159634 0
M  V30 5533 H 528.653 -0.647221 0.177048 0
M  V30 5534 H 531.197 -1.70492 1.12928 0
M  V30 5535 H 529.352 -3.87315 -0.0812781 0
M  V30 5536 H 529.766 -4.89569 1.88208 0
M  V30 5537 H 531.24 -5.51253 0.28701 0
M  V30 5538 H 531.717 -4.29916 -0.898289 0
M  V30 5539 H 532.323 -4.18274 0.769855 0
M  V30 5540 N 530.638 -0.59345 -1.46 0
M  V30 5541 C 531.915 -0.0157933 -1.95594 0
M  V30 5542 C 532.295 1.44807 -1.53604 0
M  V30 5543 O 531.643 2.14342 -0.791824 0
M  V30 5544 C 531.853 -0.199081 -3.48432 0
M  V30 5545 C 533.201 -0.0724943 -4.24538 0
M  V30 5546 O 534.225 -0.128469 -3.55968 0
M  V30 5547 O 533.084 0.0542426 -5.46473 0
M  V30 5548 H 530.178 0.043749 -0.825842 0
M  V30 5549 H 532.724 -0.662522 -1.56233 0
M  V30 5550 H 531.496 -1.21631 -3.71916 0
M  V30 5551 H 531.119 0.483576 -3.94648 0
M  V30 5552 N 532.116 1.54067 -0.331816 0
M  V30 5553 C 533.048 2.22139 0.564538 0
M  V30 5554 C 534.061 1.22408 1.07332 0
M  V30 5555 O 535.25 1.4883 0.985481 0
M  V30 5556 C 532.35 2.87876 1.78831 0
M  V30 5557 C 531.523 4.13817 1.41682 0
M  V30 5558 C 530.582 4.63072 2.49901 0
M  V30 5559 O 529.608 5.27562 2.13699 0
M  V30 5560 N 530.81 4.38001 3.80967 0
M  V30 5561 H 533.575 2.99694 -0.0183736 0
M  V30 5562 H 531.136 1.61153 -0.155396 0
M  V30 5563 H 533.128 3.17747 2.50637 0
M  V30 5564 H 531.698 2.13977 2.27887 0
M  V30 5565 H 530.918 3.9062 0.530044 0
M  V30 5566 H 532.206 4.95762 1.14443 0
M  V30 5567 H 531.604 3.864 4.13173 0
M  V30 5568 H 530.161 4.72507 4.48977 0
M  V30 5569 N 533.594 0.0601682 1.57485 0
M  V30 5570 C 534.504 -0.926121 2.15546 0
M  V30 5571 C 535.52 -1.33532 1.11558 0
M  V30 5572 O 536.696 -1.4104 1.4377 0
M  V30 5573 C 533.761 -2.17952 2.69625 0
M  V30 5574 C 532.822 -1.82783 3.88444 0
M  V30 5575 C 532.055 -3.02148 4.39935 0
M  V30 5576 O 532.278 -4.15803 3.90466 0
M  V30 5577 O 531.212 -2.82639 5.31412 0
M  V30 5578 H 535.038 -0.462289 3.00161 0
M  V30 5579 H 532.623 -0.162246 1.48516 0
M  V30 5580 H 534.505 -2.91474 3.04337 0
M  V30 5581 H 533.18 -2.63456 1.88077 0
M  V30 5582 H 532.087 -1.06549 3.58606 0
M  V30 5583 H 533.42 -1.42072 4.7125 0
M  V30 5584 N 535.072 -1.5615 -0.213296 0
M  V30 5585 C 535.982 -1.96265 -1.28519 0
M  V30 5586 C 536.998 -0.86765 -1.50824 0
M  V30 5587 O 538.174 -1.17191 -1.63793 0
M  V30 5588 C 535.239 -2.27836 -2.61327 0
M  V30 5589 C 534.3 -3.50949 -2.47252 0
M  V30 5590 C 533.533 -3.81004 -3.73727 0
M  V30 5591 O 533.756 -3.12612 -4.77106 0
M  V30 5592 O 532.69 -4.74477 -3.70344 0
M  V30 5593 H 536.516 -2.87631 -0.974795 0
M  V30 5594 H 534.101 -1.43467 -0.416832 0
M  V30 5595 H 535.983 -2.49299 -3.39747 0
M  V30 5596 H 534.658 -1.39643 -2.9203 0
M  V30 5597 H 533.565 -3.34754 -1.67004 0
M  V30 5598 H 534.898 -4.39551 -2.21486 0
M  V30 5599 N 536.55 0.480323 -1.50102 0
M  V30 5600 C 537.48 1.58769 -1.71215 0
M  V30 5601 C 538.461 1.60583 -0.560997 0
M  V30 5602 O 539.646 1.76996 -0.799127 0
M  V30 5603 C 536.776 2.97148 -1.79778 0
M  V30 5604 C 535.73 3.10201 -2.94888 0
M  V30 5605 C 535.056 4.50137 -2.88584 0
M  V30 5606 C 536.356 2.88283 -4.35534 0
M  V30 5607 H 538.05 1.41354 -2.6393 0
M  V30 5608 H 535.596 0.678591 -1.27008 0
M  V30 5609 H 537.549 3.74536 -1.93133 0
M  V30 5610 H 536.273 3.15699 -0.836772 0
M  V30 5611 H 534.932 2.35244 -2.81169 0
M  V30 5612 H 534.58 4.65593 -1.90349 0
M  V30 5613 H 534.28 4.59808 -3.65856 0
M  V30 5614 H 535.804 5.29558 -3.03976 0
M  V30 5615 H 537.218 3.55427 -4.49827 0
M  V30 5616 H 535.615 3.09408 -5.14186 0
M  V30 5617 H 536.685 1.84219 -4.48544 0
M  V30 5618 N 538.028 1.39524 0.732853 0
M  V30 5619 C 538.958 1.41153 1.86005 0
M  V30 5620 C 539.939 0.274614 1.67869 0
M  V30 5621 O 541.124 0.480745 1.88155 0
M  V30 5622 C 538.254 1.25638 3.23778 0
M  V30 5623 C 537.208 2.36752 3.56556 0
M  V30 5624 C 536.534 2.06326 4.93289 0
M  V30 5625 C 537.834 3.79069 3.5931 0
M  V30 5626 H 539.528 2.35484 1.84899 0
M  V30 5627 H 537.074 1.13348 0.888162 0
M  V30 5628 H 539.027 1.25398 4.0231 0
M  V30 5629 H 537.751 0.277772 3.25417 0
M  V30 5630 H 536.41 2.36213 2.80355 0
M  V30 5631 H 536.058 1.06897 4.9151 0
M  V30 5632 H 535.758 2.80757 5.16187 0
M  V30 5633 H 537.282 2.07739 5.74175 0
M  V30 5634 H 538.696 3.81526 4.27914 0
M  V30 5635 H 537.093 4.52878 3.93728 0
M  V30 5636 H 538.163 4.09893 2.59068 0
M  V30 5637 N 539.506 -0.963266 1.24736 0
M  V30 5638 C 540.469 -2.04013 1.04457 0
M  V30 5639 C 541.469 -1.608 0.000335555 0
M  V30 5640 O 542.659 -1.72515 0.241719 0
M  V30 5641 C 539.791 -3.35858 0.584162 0
M  V30 5642 H 540.984 -2.23436 2.00041 0
M  V30 5643 H 538.537 -1.13914 1.07021 0
M  V30 5644 H 539.272 -3.22128 -0.374673 0
M  V30 5645 H 539.057 -3.68568 1.3379 0
M  V30 5646 H 540.547 -4.1502 0.463451 0
M  V30 5647 N 540.985 -1.06182 -1.16461 0
M  V30 5648 C 541.917 -0.629584 -2.20383 0
M  V30 5649 C 542.93 0.311834 -1.59786 0
M  V30 5650 O 544.119 0.103 -1.78203 0
M  V30 5651 C 541.219 0.0973695 -3.3876 0
M  V30 5652 C 540.392 -0.857252 -4.28917 0
M  V30 5653 C 539.451 -0.169749 -5.25926 0
M  V30 5654 O 538.477 -0.807044 -5.6345 0
M  V30 5655 N 539.679 1.08911 -5.70192 0
M  V30 5656 H 542.444 -1.52352 -2.58087 0
M  V30 5657 H 540.005 -0.944993 -1.31459 0
M  V30 5658 H 541.997 0.567676 -4.00699 0
M  V30 5659 H 540.567 0.893093 -2.99571 0
M  V30 5660 H 539.787 -1.50696 -3.64259 0
M  V30 5661 H 541.075 -1.50489 -4.86035 0
M  V30 5662 H 540.473 1.62703 -5.41797 0
M  V30 5663 H 539.03 1.50331 -6.34227 0
M  V30 5664 N 542.463 1.3308 -0.844243 0
M  V30 5665 C 543.373 2.32876 -0.283922 0
M  V30 5666 C 544.389 1.63589 0.592846 0
M  V30 5667 O 545.565 1.95205 0.495693 0
M  V30 5668 C 542.63 3.42667 0.527283 0
M  V30 5669 C 541.691 4.27664 -0.374394 0
M  V30 5670 C 540.924 5.32212 0.39819 0
M  V30 5671 O 541.147 5.46635 1.62932 0
M  V30 5672 O 540.081 6.01458 -0.2306 0
M  V30 5673 H 543.907 2.82671 -1.11045 0
M  V30 5674 H 541.492 1.36518 -0.606903 0
M  V30 5675 H 543.374 4.09652 0.988078 0
M  V30 5676 H 542.049 2.95079 1.33078 0
M  V30 5677 H 540.956 3.63526 -0.883144 0
M  V30 5678 H 542.289 4.78749 -1.1428 0
M  V30 5679 N 543.941 0.601185 1.45683 0
M  V30 5680 C 544.871 -0.108824 2.33246 0
M  V30 5681 C 545.852 -0.865223 1.46451 0
M  V30 5682 O 547.037 -0.83704 1.75235 0
M  V30 5683 C 544.167 -1.11101 3.2905 0
M  V30 5684 C 543.121 -0.468244 4.25431 0
M  V30 5685 C 542.447 -1.57822 5.10878 0
M  V30 5686 C 543.747 0.606469 5.18767 0
M  V30 5687 H 545.441 0.622306 2.92861 0
M  V30 5688 H 542.987 0.300714 1.40825 0
M  V30 5689 H 544.94 -1.61622 3.89174 0
M  V30 5690 H 543.664 -1.87265 2.67581 0
M  V30 5691 H 542.323 0.0160484 3.66596 0
M  V30 5692 H 541.971 -2.32998 4.45781 0
M  V30 5693 H 541.671 -1.15369 5.76163 0
M  V30 5694 H 543.195 -2.08583 5.73869 0
M  V30 5695 H 544.609 0.185589 5.73 0
M  V30 5696 H 543.006 0.952381 5.92494 0
M  V30 5697 H 544.076 1.48559 4.61582 0
M  V30 5698 N 545.419 -1.53889 0.339982 0
M  V30 5699 C 546.329 -2.28604 -0.526988 0
M  V30 5700 C 547.345 -1.33578 -1.11503 0
M  V30 5701 O 548.521 -1.66612 -1.13148 0
M  V30 5702 C 545.586 -3.04164 -1.66389 0
M  V30 5703 C 544.647 -4.14809 -1.10599 0
M  V30 5704 C 543.88 -4.86756 -2.18871 0
M  V30 5705 O 544.103 -4.58343 -3.39526 0
M  V30 5706 O 543.037 -5.73289 -1.83366 0
M  V30 5707 H 546.863 -3.03594 0.0802707 0
M  V30 5708 H 544.448 -1.4903 0.105141 0
M  V30 5709 H 546.33 -3.51427 -2.32544 0
M  V30 5710 H 545.005 -2.32035 -2.25703 0
M  V30 5711 H 543.912 -3.71857 -0.409067 0
M  V30 5712 H 545.245 -4.89029 -0.557771 0
M  V30 5713 N 546.897 -0.0685191 -1.57451 0
M  V30 5714 C 547.845 0.917577 -2.13736 0
M  V30 5715 C 548.839 1.31049 -1.07344 0
M  V30 5716 O 550.045 1.28811 -1.25728 0
M  V30 5717 H 546.42 0.313835 -0.683382 0
M  V30 5718 H 548.391 0.417903 -2.95459 0
M  V30 5719 C 547.14 2.17686 -2.71123 0
M  V30 5720 H 546.463 1.88336 -3.52661 0
M  V30 5721 H 547.903 2.84803 -3.14107 0
M  V30 5722 C 546.362 2.9332 -1.65726 0
M  V30 5723 O 546.892 3.86901 -1.08031 0
M  V30 5724 N 545.098 2.56367 -1.36837 0
M  V30 5725 H 544.645 1.80341 -1.83943 0
M  V30 5726 H 544.603 3.07276 -0.665501 0
M  V30 5727 N 548.375 1.56261 0.205012 0
M  V30 5728 C 549.305 1.96779 1.257 0
M  V30 5729 C 550.286 0.838309 1.48008 0
M  V30 5730 O 551.471 1.10189 1.59913 0
M  V30 5731 C 548.601 2.29876 2.60335 0
M  V30 5732 C 547.555 3.45469 2.52656 0
M  V30 5733 C 546.881 3.64215 3.91473 0
M  V30 5734 C 548.181 4.79954 2.06014 0
M  V30 5735 H 549.875 2.84904 0.920338 0
M  V30 5736 H 547.421 1.37072 0.441277 0
M  V30 5737 H 549.374 2.56814 3.34102 0
M  V30 5738 H 548.098 1.38622 2.95722 0
M  V30 5739 H 546.757 3.18605 1.81345 0
M  V30 5740 H 546.405 2.70309 4.24196 0
M  V30 5741 H 546.105 4.41973 3.87213 0
M  V30 5742 H 547.629 3.93519 4.66878 0
M  V30 5743 H 549.043 5.05989 2.69533 0
M  V30 5744 H 547.44 5.61111 2.12777 0
M  V30 5745 H 548.51 4.74201 1.01297 0
M  V30 5746 N 549.853 -0.472356 1.50355 0
M  V30 5747 C 550.801 -1.59126 1.69651 0
M  V30 5748 C 551.795 -1.59793 0.56237 0
M  V30 5749 O 553.001 -1.63957 0.742832 0
M  V30 5750 H 549.376 -0.528008 0.535454 0
M  V30 5751 H 551.347 -1.40013 2.63513 0
M  V30 5752 C 550.096 -2.97075 1.8067 0
M  V30 5753 H 549.419 -2.9728 2.67329 0
M  V30 5754 H 550.859 -3.74825 1.98197 0
M  V30 5755 C 549.318 -3.32247 0.558016 0
M  V30 5756 O 549.848 -4.00553 -0.303399 0
M  V30 5757 N 548.054 -2.87659 0.412415 0
M  V30 5758 H 547.601 -2.32246 1.11443 0
M  V30 5759 H 547.559 -3.11556 -0.421908 0
M  V30 5760 N 551.331 -1.39911 -0.725443 0
M  V30 5761 C 552.278 -1.39393 -1.83952 0
M  V30 5762 C 553.248 -0.252249 -1.64173 0
M  V30 5763 O 554.433 -0.44882 -1.85446 0
M  V30 5764 C 551.573 -1.25262 -3.21564 0
M  V30 5765 C 550.686 -2.49054 -3.52982 0
M  V30 5766 C 549.821 -2.27439 -4.80047 0
M  V30 5767 C 548.86 -3.46857 -5.04338 0
M  V30 5768 N 547.997 -3.24499 -6.22611 0
M  V30 5769 H 552.837 -2.34622 -1.83729 0
M  V30 5770 H 550.374 -1.16537 -0.897636 0
M  V30 5771 H 552.332 -1.15077 -4.01015 0
M  V30 5772 H 550.962 -0.33657 -3.21041 0
M  V30 5773 H 550.014 -2.69805 -2.6816 0
M  V30 5774 H 551.326 -3.37973 -3.66846 0
M  V30 5775 H 550.48 -2.14551 -5.67497 0
M  V30 5776 H 549.219 -1.35929 -4.68374 0
M  V30 5777 H 548.224 -3.60232 -4.15346 0
M  V30 5778 H 549.449 -4.3928 -5.17889 0
M  V30 5779 H 547.395 -2.35663 -6.12208 0
M  V30 5780 H 547.312 -4.06978 -6.37106 0
M  V30 5781 H 548.58 -3.15325 -7.12875 0
M  V30 5782 N 552.809 0.956637 -1.25245 0
M  V30 5783 C 554.055 1.70413 -1.11044 0
M  V30 5784 C 554.41 1.89275 0.345377 0
M  V30 5785 O 553.703 1.45116 1.25107 0
M  V30 5786 C 553.897 3.08996 -1.79601 0
M  V30 5787 C 553.726 3.03654 -3.317 0
M  V30 5788 C 552.496 3.07521 -4.00947 0
M  V30 5789 C 554.694 2.84975 -4.28128 0
M  V30 5790 N 552.676 2.92316 -5.39838 0
M  V30 5791 C 554.047 2.7818 -5.5409 0
M  V30 5792 C 556.102 2.6964 -4.18568 0
M  V30 5793 C 554.805 2.57616 -6.71585 0
M  V30 5794 C 556.831 2.50447 -5.35752 0
M  V30 5795 C 556.193 2.4437 -6.60653 0
M  V30 5796 H 552.292 0.631642 -0.461035 0
M  V30 5797 H 554.876 1.13331 -1.58317 0
M  V30 5798 H 553.047 3.64248 -1.34826 0
M  V30 5799 H 554.779 3.72515 -1.58161 0
M  V30 5800 H 551.534 3.16635 -3.52192 0
M  V30 5801 H 551.958 2.87923 -6.12723 0
M  V30 5802 H 556.6 2.73113 -3.22752 0
M  V30 5803 H 554.318 2.52885 -7.67512 0
M  V30 5804 H 557.904 2.39509 -5.30214 0
M  V30 5805 H 556.784 2.29712 -7.49801 0
M  V30 5806 N 554.287 1.06798 1.15896 0
M  V30 5807 C 555.535 0.786211 1.8618 0
M  V30 5808 C 555.856 -0.689547 1.82401 0
M  V30 5809 O 555.126 -1.49913 1.26107 0
M  V30 5810 H 553.706 0.287843 0.689315 0
M  V30 5811 H 556.368 1.35055 1.40521 0
M  V30 5812 H 555.464 1.1157 2.91477 0
M  V30 5813 N 555.766 -1.3263 0.851289 0
M  V30 5814 C 556.696 -2.31449 0.308771 0
M  V30 5815 C 557.677 -1.59531 -0.590255 0
M  V30 5816 O 558.862 -1.87351 -0.511205 0
M  V30 5817 C 555.992 -3.43586 -0.506548 0
M  V30 5818 C 554.946 -4.26963 0.297753 0
M  V30 5819 C 554.272 -5.30831 -0.642094 0
M  V30 5820 C 555.572 -4.99643 1.52166 0
M  V30 5821 H 557.266 -2.77074 1.13447 0
M  V30 5822 H 554.812 -1.33207 0.546971 0
M  V30 5823 H 556.765 -4.11754 -0.896474 0
M  V30 5824 H 555.489 -2.96681 -1.36558 0
M  V30 5825 H 554.148 -3.60437 0.669391 0
M  V30 5826 H 553.796 -4.8018 -1.49788 0
M  V30 5827 H 553.496 -5.87501 -0.107968 0
M  V30 5828 H 555.02 -6.01862 -1.02927 0
M  V30 5829 H 556.434 -5.6051 1.20421 0
M  V30 5830 H 554.831 -5.66022 1.99347 0
M  V30 5831 H 555.901 -4.27701 2.28474 0
M  V30 5832 N 557.244 -0.608902 -1.45362 0
M  V30 5833 C 558.192 0.121639 -2.32282 0
M  V30 5834 C 559.186 0.858301 -1.46046 0
M  V30 5835 O 560.392 0.773718 -1.62523 0
M  V30 5836 H 556.767 0.058086 -0.749753 0
M  V30 5837 H 558.738 -0.629866 -2.91677 0
M  V30 5838 C 557.487 1.1047 -3.29684 0
M  V30 5839 H 556.81 0.547278 -3.96036 0
M  V30 5840 H 558.25 1.58576 -3.9323 0
M  V30 5841 C 556.709 2.17891 -2.56954 0
M  V30 5842 O 557.239 3.25652 -2.35189 0
M  V30 5843 N 555.445 1.93211 -2.17066 0
M  V30 5844 H 554.992 1.05584 -2.34967 0
M  V30 5845 H 554.95 2.6529 -1.68727 0
M  V30 5846 N 558.722 1.53707 -0.348139 0
M  V30 5847 C 559.971 2.0017 0.247992 0
M  V30 5848 C 560.284 1.23983 1.51286 0
M  V30 5849 O 561.49 1.60946 2.18652 0
M  V30 5850 C 559.946 3.56515 0.492459 0
M  V30 5851 C 559.554 4.41562 -0.756777 0
M  V30 5852 C 561.298 4.11381 1.0472 0
M  V30 5853 C 559.205 5.89426 -0.482856 0
M  V30 5854 H 558.135 0.747806 0.0964452 0
M  V30 5855 H 560.786 1.77532 -0.464179 0
M  V30 5856 H 559.168 3.75236 1.26545 0
M  V30 5857 H 560.342 4.34615 -1.53122 0
M  V30 5858 H 558.657 3.97711 -1.23348 0
M  V30 5859 H 561.254 5.19468 1.26717 0
M  V30 5860 H 561.597 3.64885 2.00411 0
M  V30 5861 H 562.13 3.96389 0.334801 0
M  V30 5862 H 558.869 6.40164 -1.40962 0
M  V30 5863 H 558.389 5.99264 0.253416 0
M  V30 5864 H 560.068 6.4692 -0.101816 0
M  V30 5865 N 560.2 0.0768682 1.57412 0
M  V30 5866 C 561.447 -0.591085 1.93681 0
M  V30 5867 C 561.775 -1.69311 0.957286 0
M  V30 5868 O 561.03 -1.95682 -0.0262428 0
M  V30 5869 C 561.329 -1.20268 3.36557 0
M  V30 5870 C 560.995 -0.226286 4.50332 0
M  V30 5871 C 559.657 0.0423142 4.81181 0
M  V30 5872 C 562.009 0.441415 5.19327 0
M  V30 5873 C 559.337 0.985616 5.78362 0
M  V30 5874 C 561.689 1.37307 6.17519 0
M  V30 5875 C 560.353 1.65009 6.46783 0
M  V30 5876 H 559.623 -0.216293 0.70873 0
M  V30 5877 H 562.27 0.148824 1.90921 0
M  V30 5878 H 560.575 -2.01844 3.35807 0
M  V30 5879 H 562.272 -1.72688 3.61911 0
M  V30 5880 H 558.862 -0.445821 4.26275 0
M  V30 5881 H 563.046 0.247023 4.95685 0
M  V30 5882 H 558.302 1.20743 5.99359 0
M  V30 5883 H 562.476 1.89637 6.70083 0
M  V30 5884 H 560.103 2.38263 7.21897 0
M  V30 5885 N 561.678 -1.56367 -0.196722 0
M  V30 5886 C 562.918 -1.82315 -0.92415 0
M  V30 5887 C 563.282 -0.654117 -1.80514 0
M  V30 5888 O 564.483 -0.79345 -2.56823 0
M  V30 5889 C 562.754 -3.13279 -1.72021 0
M  V30 5890 S 564.313 -3.60627 -2.49988 0
M  V30 5891 H 561.131 -0.639862 -0.309997 0
M  V30 5892 H 563.733 -1.94597 -0.187684 0
M  V30 5893 H 562.437 -3.96379 -1.06358 0
M  V30 5894 H 561.968 -3.03871 -2.49852 0
M  V30 5895 H 563.983 -3.25934 -3.74141 0
M  V30 5896 N 563.156 0.464375 -1.50603 0
M  V30 5897 C 564.402 1.21776 -1.62168 0
M  V30 5898 C 564.735 1.91476 -0.324154 0
M  V30 5899 O 564.01 1.8242 0.674782 0
M  V30 5900 C 564.293 2.25614 -2.80661 0
M  V30 5901 C 564.146 1.60175 -4.20314 0
M  V30 5902 C 565.465 3.26862 -2.94702 0
M  V30 5903 H 562.584 0.44137 -0.590222 0
M  V30 5904 H 565.226 0.510623 -1.8301 0
M  V30 5905 H 563.376 2.85923 -2.63021 0
M  V30 5906 H 565.048 1.03411 -4.4956 0
M  V30 5907 H 563.291 0.904697 -4.24261 0
M  V30 5908 H 563.962 2.35665 -4.99165 0
M  V30 5909 H 566.438 2.76582 -3.10872 0
M  V30 5910 H 565.314 3.96839 -3.79223 0
M  V30 5911 H 565.575 3.91382 -2.05603 0
M  V30 5912 N 564.634 1.40294 0.718013 0
M  V30 5913 C 565.859 1.41941 1.5122 0
M  V30 5914 C 566.284 0.0202371 1.88089 0
M  V30 5915 O 565.642 -0.971078 1.53101 0
M  V30 5916 C 565.69 2.3141 2.76554 0
M  V30 5917 O 564.794 1.75567 3.73162 0
M  V30 5918 H 564.135 0.482644 0.456016 0
M  V30 5919 H 566.665 1.84494 0.884478 0
M  V30 5920 H 566.675 2.46513 3.25108 0
M  V30 5921 H 565.35 3.33085 2.49053 0
M  V30 5922 H 563.927 1.69798 3.31999 0
M  V30 5923 N 566.112 -0.949982 1.2575 0
M  V30 5924 C 567.389 -1.6718 1.01539 0
M  V30 5925 C 567.769 -2.06095 -0.456942 0
M  V30 5926 O 567.117 -1.77792 -1.43534 0
M  V30 5927 C 567.327 -2.8906 1.95564 0
M  V30 5928 C 568.675 -3.60909 2.23673 0
M  V30 5929 O 569.699 -2.9915 1.9336 0
M  V30 5930 O 568.558 -4.72127 2.75243 0
M  V30 5931 H 565.652 -0.731697 0.385419 0
M  V30 5932 H 568.198 -1.00249 1.36924 0
M  V30 5933 H 566.97 -2.57128 2.94959 0
M  V30 5934 H 566.593 -3.63719 1.60605 0
M  V30 5935 N 567.59 -1.07411 -1.15328 0
M  V30 5936 C 568.82 -0.817595 -1.89734 0
M  V30 5937 C 569.228 0.63297 -1.78298 0
M  V30 5938 O 568.571 1.44594 -1.13306 0
M  V30 5939 C 568.633 -1.14748 -3.40695 0
M  V30 5940 C 568.297 -2.59876 -3.75917 0
M  V30 5941 C 569.294 -3.58122 -3.76888 0
M  V30 5942 C 566.979 -2.95469 -4.06206 0
M  V30 5943 C 568.973 -4.89996 -4.07655 0
M  V30 5944 C 566.66 -4.2754 -4.36638 0
M  V30 5945 C 567.658 -5.24614 -4.37344 0
M  V30 5946 O 567.346 -6.54312 -4.67045 0
M  V30 5947 H 567.078 -0.295175 -0.608151 0
M  V30 5948 H 569.632 -1.43409 -1.47048 0
M  V30 5949 H 567.862 -0.47395 -3.83785 0
M  V30 5950 H 569.551 -0.873397 -3.96392 0
M  V30 5951 H 570.317 -3.31966 -3.53587 0
M  V30 5952 H 566.196 -2.20558 -4.04815 0
M  V30 5953 H 569.74 -5.65759 -4.08121 0
M  V30 5954 H 565.637 -4.53449 -4.59407 0
M  V30 5955 H 566.405 -6.59473 -4.84807 0
M  V30 5956 N 569.068 1.32177 -0.85831 0
M  V30 5957 C 570.031 2.27086 -0.310588 0
M  V30 5958 C 571.031 1.51751 0.531806 0
M  V30 5959 O 572.221 1.70794 0.34279 0
M  V30 5960 C 569.353 3.36266 0.560179 0
M  V30 5961 H 570.546 2.77045 -1.1483 0
M  V30 5962 H 568.099 1.42911 -0.632942 0
M  V30 5963 H 568.834 2.9158 1.41956 0
M  V30 5964 H 568.619 3.92077 -0.0428473 0
M  V30 5965 H 570.109 4.06974 0.936056 0
M  V30 5966 N 570.547 0.616602 1.45037 0
M  V30 5967 C 571.795 0.115103 2.01772 0
M  V30 5968 C 572.116 -1.2622 1.48639 0
M  V30 5969 O 571.386 -1.83563 0.684199 0
M  V30 5970 H 569.966 0.0395607 0.745952 0
M  V30 5971 H 572.628 0.800032 1.77723 0
M  V30 5972 H 571.724 0.0717274 3.12018 0
M  V30 5973 N 572.025 -1.5352 0.356285 0
M  V30 5974 C 573.273 -2.00719 -0.235837 0
M  V30 5975 C 573.594 -1.24551 -1.5004 0
M  V30 5976 O 572.864 -0.356185 -1.92635 0
M  V30 5977 H 571.444 -0.741542 -0.0901366 0
M  V30 5978 H 574.106 -1.88887 0.480378 0
M  V30 5979 H 573.202 -3.08551 -0.469357 0
M  V30 5980 N 573.503 -0.0852151 -1.57369 0
M  V30 5981 C 574.919 0.271436 -1.57275 0
M  V30 5982 C 575.119 1.69109 -1.09565 0
M  V30 5983 O 574.175 2.40549 -0.767611 0
M  V30 5984 C 575.488 0.0688638 -3.00621 0
M  V30 5985 C 577.036 0.137373 -3.12698 0
M  V30 5986 C 577.511 -0.0370832 -4.57985 0
M  V30 5987 N 579.002 0.0180794 -4.63196 0
M  V30 5988 C 579.737 -0.0922953 -5.73326 0
M  V30 5989 N 579.233 -0.256948 -6.92323 0
M  V30 5990 N 581.026 -0.0342702 -5.6209 0
M  V30 5991 H 573.177 -1.01288 -1.86693 0
M  V30 5992 H 575.44 -0.396138 -0.861266 0
M  V30 5993 H 575.146 -0.911277 -3.39689 0
M  V30 5994 H 575.02 0.815442 -3.6828 0
M  V30 5995 H 577.407 1.10801 -2.73509 0
M  V30 5996 H 577.488 -0.640532 -2.47651 0
M  V30 5997 H 577.132 -1.00455 -4.97867 0
M  V30 5998 H 577.062 0.760392 -5.21081 0
M  V30 5999 H 579.553 0.143202 -3.77629 0
M  V30 6000 H 579.866 -0.332949 -7.72082 0
M  V30 6001 H 578.211 -0.292487 -6.94384 0
M  V30 6002 H 581.402 0.0931605 -4.68007 0
M  V30 6003 H 581.575 -0.12374 -6.47882 0
M  V30 6004 N 574.981 1.5647 0.188427 0
M  V30 6005 C 576.206 1.85486 0.927891 0
M  V30 6006 C 576.631 0.669575 1.75779 0
M  V30 6007 O 575.989 -0.381573 1.77239 0
M  V30 6008 C 576.037 3.12784 1.7944 0
M  V30 6009 O 575.141 2.93805 2.894 0
M  V30 6010 H 574.482 0.610585 0.260925 0
M  V30 6011 H 577.012 2.037 0.191729 0
M  V30 6012 H 577.022 3.43749 2.19774 0
M  V30 6013 H 575.697 3.98671 1.18468 0
M  V30 6014 H 574.274 2.74153 2.52774 0
M  V30 6015 N 576.459 -0.456382 1.50847 0
M  V30 6016 C 577.389 -1.56025 1.73719 0
M  V30 6017 C 578.37 -1.5967 0.586473 0
M  V30 6018 O 579.555 -1.75702 0.827185 0
M  V30 6019 C 576.685 -2.94251 1.84483 0
M  V30 6020 C 575.639 -3.05471 2.99786 0
M  V30 6021 C 574.965 -4.45489 2.95709 0
M  V30 6022 C 576.265 -2.81318 4.40065 0
M  V30 6023 H 577.959 -1.37138 2.66146 0
M  V30 6024 H 575.505 -0.658299 1.28072 0
M  V30 6025 H 577.458 -3.71417 1.99067 0
M  V30 6026 H 576.182 -3.14328 0.886891 0
M  V30 6027 H 574.841 -2.30741 2.84876 0
M  V30 6028 H 574.489 -4.62505 1.97732 0
M  V30 6029 H 574.189 -4.53929 3.73125 0
M  V30 6030 H 575.713 -5.24655 3.12362 0
M  V30 6031 H 577.127 -3.48226 4.55425 0
M  V30 6032 H 575.524 -3.01188 5.19043 0
M  V30 6033 H 576.594 -1.7706 4.51418 0
M  V30 6034 N 577.937 -1.40673 -0.710563 0
M  V30 6035 C 579.165 -1.42547 -1.4996 0
M  V30 6036 C 579.58 -0.0265485 -1.88781 0
M  V30 6037 O 578.937 0.950694 -1.55782 0
M  V30 6038 C 578.988 -2.32071 -2.77173 0
M  V30 6039 O 578.709 -3.66518 -2.39992 0
M  V30 6040 C 580.21 -2.42591 -3.71032 0
M  V30 6041 H 577.43 -0.486025 -0.462623 0
M  V30 6042 H 579.974 -1.84783 -0.876102 0
M  V30 6043 H 578.129 -1.93184 -3.35795 0
M  V30 6044 H 578.543 -4.14115 -3.21884 0
M  V30 6045 H 580.017 -3.09429 -4.57119 0
M  V30 6046 H 580.494 -1.4525 -4.14486 0
M  V30 6047 H 581.1 -2.82051 -3.18319 0
M  V30 6048 N 579.415 0.9433 -1.26252 0
M  V30 6049 C 580.655 1.70397 -1.1289 0
M  V30 6050 C 581.019 1.89268 0.322713 0
M  V30 6051 O 582.22 2.62503 0.578418 0
M  V30 6052 C 580.491 3.04296 -1.87453 0
M  V30 6053 S 582.05 3.95475 -1.90119 0
M  V30 6054 H 578.868 0.585559 -0.403289 0
M  V30 6055 H 581.47 1.12424 -1.59941 0
M  V30 6056 H 580.174 2.8824 -2.9214 0
M  V30 6057 H 579.705 3.67327 -1.40835 0
M  V30 6058 H 581.72 4.86297 -0.986373 0
M  V30 6059 N 580.893 1.08022 1.14757 0
M  V30 6060 C 582.142 0.802468 1.8505 0
M  V30 6061 C 582.455 -0.674061 1.83619 0
M  V30 6062 O 583.661 -1.06683 2.49662 0
M  V30 6063 C 582.117 1.38551 3.32162 0
M  V30 6064 C 581.725 2.89354 3.42021 0
M  V30 6065 C 583.469 1.18608 4.07594 0
M  V30 6066 C 581.376 3.40815 4.83321 0
M  V30 6067 H 580.306 0.296518 0.693248 0
M  V30 6068 H 582.957 1.30114 1.29393 0
M  V30 6069 H 581.339 0.814556 3.87532 0
M  V30 6070 H 582.513 3.52552 2.96722 0
M  V30 6071 H 580.828 3.08165 2.80041 0
M  V30 6072 H 583.425 1.54525 5.11885 0
M  V30 6073 H 583.768 0.125599 4.1611 0
M  V30 6074 H 584.301 1.72375 3.58513 0
M  V30 6075 H 581.04 4.46418 4.79991 0
M  V30 6076 H 580.56 2.82374 5.29174 0
M  V30 6077 H 582.239 3.37171 5.522 0
M  V30 6078 N 582.371 -1.3172 0.865308 0
M  V30 6079 C 583.304 -2.26687 0.262376 0
M  V30 6080 C 584.282 -1.50894 -0.605787 0
M  V30 6081 O 585.466 -1.79982 -0.56024 0
M  V30 6082 C 582.593 -3.3281 -0.628915 0
M  V30 6083 C 581.639 -4.26172 0.167278 0
M  V30 6084 S 582.472 -5.12797 1.54272 0
M  V30 6085 C 583.628 -6.22438 0.657427 0
M  V30 6086 H 583.861 -2.77478 1.0674 0
M  V30 6087 H 581.394 -1.39414 0.663555 0
M  V30 6088 H 583.352 -3.94426 -1.13747 0
M  V30 6089 H 582.013 -2.80782 -1.40785 0
M  V30 6090 H 581.206 -5.01392 -0.51203 0
M  V30 6091 H 580.808 -3.69029 0.607777 0
M  V30 6092 H 583.1 -6.77368 -0.133925 0
M  V30 6093 H 584.043 -6.9451 1.38061 0
M  V30 6094 H 584.451 -5.64043 0.227044 0
M  V30 6095 N 583.85 -0.624285 -1.44708 0
M  V30 6096 C 585.08 -0.132726 -2.06173 0
M  V30 6097 C 585.488 1.19513 -1.46674 0
M  V30 6098 O 584.831 1.74254 -0.581491 0
M  V30 6099 C 584.893 0.0636732 -3.59444 0
M  V30 6100 C 584.557 -1.18496 -4.4137 0
M  V30 6101 C 585.553 -2.10706 -4.75288 0
M  V30 6102 C 583.239 -1.41846 -4.81856 0
M  V30 6103 C 585.233 -3.24582 -5.48567 0
M  V30 6104 C 582.92 -2.5602 -5.54885 0
M  V30 6105 C 583.918 -3.47215 -5.88159 0
M  V30 6106 O 583.606 -4.59399 -6.59703 0
M  V30 6107 H 583.338 -0.0737313 -0.671967 0
M  V30 6108 H 585.892 -0.856789 -1.86677 0
M  V30 6109 H 584.122 0.842809 -3.77404 0
M  V30 6110 H 585.811 0.508924 -4.02697 0
M  V30 6111 H 586.577 -1.93898 -4.44554 0
M  V30 6112 H 582.456 -0.717556 -4.55381 0
M  V30 6113 H 586 -3.95785 -5.74456 0
M  V30 6114 H 581.897 -2.72774 -5.85034 0
M  V30 6115 H 582.665 -4.58293 -6.78166 0
M  V30 6116 N 585.328 1.53329 -0.364422 0
M  V30 6117 C 586.261 2.22052 0.526145 0
M  V30 6118 C 587.239 1.21203 1.08391 0
M  V30 6119 O 588.423 1.50101 1.14026 0
M  V30 6120 C 585.55 2.91432 1.72583 0
M  V30 6121 C 584.596 4.06345 1.29562 0
M  V30 6122 S 585.429 5.34671 0.297885 0
M  V30 6123 C 586.585 6.07563 1.50392 0
M  V30 6124 H 586.818 2.97244 -0.0575055 0
M  V30 6125 H 584.351 1.53684 -0.148525 0
M  V30 6126 H 586.309 3.3202 2.41398 0
M  V30 6127 H 584.97 2.15966 2.28073 0
M  V30 6128 H 584.163 4.53901 2.19067 0
M  V30 6129 H 583.765 3.67642 0.686696 0
M  V30 6130 H 586.057 6.32224 2.43513 0
M  V30 6131 H 587 6.99973 1.06977 0
M  V30 6132 H 587.408 5.37994 1.70945 0
M  V30 6133 N 586.806 0.0935595 1.57322 0
M  V30 6134 C 588.055 -0.570191 1.93473 0
M  V30 6135 C 588.368 -1.69434 0.977318 0
M  V30 6136 O 589.574 -2.41914 1.23248 0
M  V30 6137 C 588.03 -1.06564 3.43762 0
M  V30 6138 C 587.638 0.0286723 4.47991 0
M  V30 6139 C 589.382 -1.70221 3.88877 0
M  V30 6140 C 587.289 -0.482046 5.89432 0
M  V30 6141 H 586.219 -0.216764 0.72217 0
M  V30 6142 H 588.87 0.169313 1.82717 0
M  V30 6143 H 587.252 -1.85878 3.49664 0
M  V30 6144 H 588.426 0.804106 4.5373 0
M  V30 6145 H 586.741 0.570336 4.12476 0
M  V30 6146 H 589.338 -2.09502 4.91948 0
M  V30 6147 H 589.681 -2.57078 3.27439 0
M  V30 6148 H 590.214 -0.974919 3.85668 0
M  V30 6149 H 586.953 0.349871 6.54566 0
M  V30 6150 H 586.473 -1.22452 5.87167 0
M  V30 6151 H 588.152 -0.951508 6.39965 0
M  V30 6152 N 588.284 -1.56567 -0.180126 0
M  V30 6153 C 589.531 -1.81492 -0.898167 0
M  V30 6154 C 589.859 -0.669225 -1.82624 0
M  V30 6155 O 589.114 0.344096 -1.92651 0
M  V30 6156 C 589.413 -3.1252 -1.73395 0
M  V30 6157 C 589.079 -4.40658 -0.955567 0
M  V30 6158 C 587.741 -4.75465 -0.740707 0
M  V30 6159 C 590.093 -5.19593 -0.408948 0
M  V30 6160 C 587.421 -5.86691 0.0320128 0
M  V30 6161 C 589.773 -6.31627 0.350638 0
M  V30 6162 C 588.437 -6.65007 0.576378 0
M  V30 6163 H 587.707 -0.664125 -0.328662 0
M  V30 6164 H 590.354 -1.908 -0.163616 0
M  V30 6165 H 588.659 -2.98515 -2.53763 0
M  V30 6166 H 590.356 -3.29013 -2.29241 0
M  V30 6167 H 586.946 -4.13352 -1.13306 0
M  V30 6168 H 591.13 -4.93104 -0.562307 0
M  V30 6169 H 586.386 -6.11016 0.216735 0
M  V30 6170 H 590.56 -6.92001 0.781497 0
M  V30 6171 H 588.187 -7.51033 1.17703 0
M  V30 6172 N 589.762 0.448376 -1.51087 0
M  V30 6173 C 590.694 1.56146 -1.67783 0
M  V30 6174 C 591.707 1.52913 -0.55871 0
M  V30 6175 O 592.896 1.57889 -0.83267 0
M  V30 6176 C 589.996 2.95057 -1.66716 0
M  V30 6177 C 589.169 3.22915 -2.95033 0
M  V30 6178 C 588.228 4.41495 -2.86302 0
M  V30 6179 O 587.254 4.40688 -3.60254 0
M  V30 6180 N 588.456 5.44443 -2.014 0
M  V30 6181 H 591.221 1.42232 -2.638 0
M  V30 6182 H 588.782 0.637153 -1.48835 0
M  V30 6183 H 590.774 3.72388 -1.58458 0
M  V30 6184 H 589.344 3.02624 -0.783403 0
M  V30 6185 H 588.564 2.33985 -3.17245 0
M  V30 6186 H 589.852 3.38349 -3.79996 0
M  V30 6187 H 589.25 5.4793 -1.40674 0
M  V30 6188 H 587.807 6.2067 -1.99029 0
M  V30 6189 N 591.24 1.41047 0.703093 0
M  V30 6190 C 592.15 1.44645 1.84703 0
M  V30 6191 C 593.166 0.337778 1.7069 0
M  V30 6192 O 594.342 0.584327 1.92737 0
M  V30 6193 C 591.407 1.31928 3.20618 0
M  V30 6194 C 590.468 2.53047 3.46794 0
M  V30 6195 C 589.701 2.40927 4.76224 0
M  V30 6196 O 589.924 1.42978 5.5219 0
M  V30 6197 O 588.858 3.30543 5.03016 0
M  V30 6198 H 592.684 2.41139 1.84624 0
M  V30 6199 H 590.269 1.22504 0.855167 0
M  V30 6200 H 592.151 1.27092 4.01778 0
M  V30 6201 H 590.826 0.385469 3.21397 0
M  V30 6202 H 589.733 2.6346 2.65593 0
M  V30 6203 H 591.066 3.45231 3.50822 0
M  V30 6204 N 592.718 -0.936591 1.26751 0
M  V30 6205 C 594.134 -1.21095 1.03963 0
M  V30 6206 C 594.334 -2.00156 -0.232372 0
M  V30 6207 O 593.39 -2.3434 -0.940274 0
M  V30 6208 C 594.703 -1.96775 2.27377 0
M  V30 6209 C 596.251 -2.09749 2.32324 0
M  V30 6210 C 596.726 -2.88832 3.55443 0
M  V30 6211 N 598.217 -2.96404 3.55948 0
M  V30 6212 C 598.952 -3.58036 4.47881 0
M  V30 6213 N 598.448 -4.21132 5.50109 0
M  V30 6214 N 600.241 -3.55353 4.35523 0
M  V30 6215 H 592.392 -0.408173 2.08441 0
M  V30 6216 H 594.655 -0.243139 0.91629 0
M  V30 6217 H 594.361 -1.46094 3.19921 0
M  V30 6218 H 594.235 -2.97424 2.31989 0
M  V30 6219 H 596.622 -2.5962 1.40291 0
M  V30 6220 H 596.703 -1.08347 2.31721 0
M  V30 6221 H 596.347 -2.39647 4.47808 0
M  V30 6222 H 596.277 -3.90499 3.53296 0
M  V30 6223 H 598.768 -2.51552 2.82011 0
M  V30 6224 H 599.081 -4.66071 6.16439 0
M  V30 6225 H 597.426 -4.19705 5.53961 0
M  V30 6226 H 600.617 -3.05256 3.54875 0
M  V30 6227 H 600.79 -4.03097 5.07363 0
M  V30 6228 N 594.196 -1.08629 -1.14182 0
M  V30 6229 C 595.473 -0.73002 -1.81466 0
M  V30 6230 C 595.853 0.785996 -1.95922 0
M  V30 6231 O 595.201 1.70535 -1.52086 0
M  V30 6232 C 595.411 -1.45957 -3.17014 0
M  V30 6233 C 596.759 -1.62008 -3.92477 0
M  V30 6234 O 597.783 -1.42141 -3.26611 0
M  V30 6235 O 596.642 -1.94806 -5.106 0
M  V30 6236 H 593.736 -0.261307 -0.784632 0
M  V30 6237 H 596.282 -1.188 -1.2118 0
M  V30 6238 H 595.054 -2.49221 -3.01669 0
M  V30 6239 H 594.677 -0.993222 -3.84995 0
M  V30 6240 N 595.674 1.31259 -0.872281 0
M  V30 6241 C 596.604 2.30929 -0.345554 0
M  V30 6242 C 597.585 1.60449 0.5648 0
M  V30 6243 O 598.77 1.8814 0.481335 0
M  V30 6244 C 595.9 3.44348 0.451823 0
M  V30 6245 C 594.854 4.26435 -0.365641 0
M  V30 6246 C 594.18 5.31785 0.557562 0
M  V30 6247 C 595.48 4.97159 -1.60095 0
M  V30 6248 H 597.174 2.75234 -1.17841 0
M  V30 6249 H 594.72 1.3232 -0.568094 0
M  V30 6250 H 596.673 4.13128 0.830854 0
M  V30 6251 H 595.397 2.98816 1.31821 0
M  V30 6252 H 594.056 3.59326 -0.726649 0
M  V30 6253 H 593.704 4.82502 1.4213 0
M  V30 6254 H 593.404 5.87598 0.0144878 0
M  V30 6255 H 594.928 6.03424 0.933387 0
M  V30 6256 H 596.342 5.58523 -1.29323 0
M  V30 6257 H 594.739 5.62779 -2.08327 0
M  V30 6258 H 595.809 4.24012 -2.35249 0
M  V30 6259 N 597.152 0.631951 1.44375 0
M  V30 6260 C 598.082 -0.0593243 2.33425 0
M  V30 6261 C 599.063 -0.833964 1.48253 0
M  V30 6262 O 600.248 -0.799682 1.76971 0
M  V30 6263 C 597.378 -1.04096 3.31333 0
M  V30 6264 C 596.332 -0.377899 4.26328 0
M  V30 6265 C 595.658 -1.4695 5.14111 0
M  V30 6266 C 596.958 0.716371 5.17364 0
M  V30 6267 H 598.652 0.684287 2.91475 0
M  V30 6268 H 596.198 0.330518 1.40156 0
M  V30 6269 H 598.151 -1.53331 3.92514 0
M  V30 6270 H 596.875 -1.81547 2.71493 0
M  V30 6271 H 595.534 0.0938054 3.6648 0
M  V30 6272 H 595.182 -2.2349 4.50623 0
M  V30 6273 H 594.882 -1.03121 5.78481 0
M  V30 6274 H 596.406 -1.96363 5.78164 0
M  V30 6275 H 597.82 0.307089 5.72477 0
M  V30 6276 H 596.217 1.07784 5.90341 0
M  V30 6277 H 597.287 1.58316 4.58327 0
M  V30 6278 N 598.631 -1.53133 0.372548 0
M  V30 6279 C 599.578 -2.25951 -0.470631 0
M  V30 6280 C 600.548 -1.26895 -1.07176 0
M  V30 6281 O 601.733 -1.55691 -1.10294 0
M  V30 6282 C 598.873 -3.05726 -1.6008 0
M  V30 6283 C 597.986 -4.19684 -1.02416 0
M  V30 6284 C 597.121 -4.86888 -2.124 0
M  V30 6285 C 596.16 -5.92866 -1.52238 0
M  V30 6286 N 595.297 -6.53732 -2.56084 0
M  V30 6287 H 600.137 -2.97587 0.156816 0
M  V30 6288 H 597.674 -1.4683 0.0891571 0
M  V30 6289 H 599.632 -3.50258 -2.26661 0
M  V30 6290 H 598.262 -2.36331 -2.1988 0
M  V30 6291 H 597.314 -3.79588 -0.248426 0
M  V30 6292 H 598.626 -4.95821 -0.544366 0
M  V30 6293 H 597.78 -5.34638 -2.86787 0
M  V30 6294 H 596.519 -4.10239 -2.63734 0
M  V30 6295 H 595.524 -5.4447 -0.763685 0
M  V30 6296 H 596.749 -6.71439 -1.0172 0
M  V30 6297 H 594.695 -5.79932 -3.06618 0
M  V30 6298 H 594.612 -7.25429 -2.12811 0
M  V30 6299 H 595.88 -7.0613 -3.30152 0
M  V30 6300 N 600.109 -0.101901 -1.5727 0
M  V30 6301 C 601.056 0.854577 -2.14396 0
M  V30 6302 C 602.026 1.27521 -1.06432 0
M  V30 6303 O 603.211 1.35575 -1.34253 0
M  V30 6304 C 600.351 2.10576 -2.73408 0
M  V30 6305 C 599.464 1.73504 -3.95626 0
M  V30 6306 C 598.599 2.9346 -4.42781 0
M  V30 6307 C 597.638 2.52547 -5.57572 0
M  V30 6308 N 596.775 3.65359 -5.99547 0
M  V30 6309 H 601.615 0.360578 -2.9581 0
M  V30 6310 H 599.152 0.166303 -1.46157 0
M  V30 6311 H 601.11 2.83859 -3.05745 0
M  V30 6312 H 599.74 2.57463 -1.94711 0
M  V30 6313 H 598.792 0.901622 -3.6956 0
M  V30 6314 H 600.104 1.39426 -4.78917 0
M  V30 6315 H 599.258 3.74988 -4.76937 0
M  V30 6316 H 597.997 3.30753 -3.58404 0
M  V30 6317 H 597.002 1.69446 -5.23037 0
M  V30 6318 H 598.227 2.1639 -6.43702 0
M  V30 6319 H 596.173 4.02358 -5.18116 0
M  V30 6320 H 596.09 3.35148 -6.77652 0
M  V30 6321 H 597.358 4.47378 -6.38336 0
M  V30 6322 N 601.587 1.56661 0.17182 0
M  V30 6323 C 602.834 1.81965 0.888529 0
M  V30 6324 C 603.162 0.6789 1.82267 0
M  V30 6325 O 602.417 -0.333875 1.92831 0
M  V30 6326 C 602.716 3.13435 1.71736 0
M  V30 6327 C 602.382 4.41159 0.932184 0
M  V30 6328 C 601.044 4.75851 0.715481 0
M  V30 6329 C 603.396 5.19803 0.381387 0
M  V30 6330 C 600.724 5.86666 -0.063126 0
M  V30 6331 C 603.076 6.31433 -0.384129 0
M  V30 6332 C 601.74 6.64692 -0.611637 0
M  V30 6333 H 601.01 0.665859 0.325136 0
M  V30 6334 H 603.657 1.90884 0.153495 0
M  V30 6335 H 601.962 2.99857 2.52177 0
M  V30 6336 H 603.659 3.30224 2.27493 0
M  V30 6337 H 600.249 4.13947 1.11112 0
M  V30 6338 H 604.433 4.93396 0.536148 0
M  V30 6339 H 599.689 6.10892 -0.249136 0
M  V30 6340 H 603.863 6.91577 -0.818185 0
M  V30 6341 H 601.49 7.50398 -1.21684 0
M  V30 6342 N 603.065 -0.440357 1.51323 0
M  V30 6343 C 604.481 -0.7766 1.39431 0
M  V30 6344 C 604.681 -1.95838 0.474296 0
M  V30 6345 O 603.737 -2.52398 -0.0716692 0
M  V30 6346 C 605.05 -1.05981 2.81405 0
M  V30 6347 C 606.598 -1.16442 2.90534 0
M  V30 6348 C 607.073 -1.48058 4.33408 0
M  V30 6349 N 608.564 -1.54988 4.36501 0
M  V30 6350 C 609.299 -1.81017 5.44078 0
M  V30 6351 N 608.795 -2.04858 6.61819 0
M  V30 6352 N 610.588 -1.82774 5.31554 0
M  V30 6353 H 602.739 0.338006 2.09693 0
M  V30 6354 H 605.002 0.0888072 0.943831 0
M  V30 6355 H 604.708 -0.264173 3.50706 0
M  V30 6356 H 604.582 -1.98822 3.20546 0
M  V30 6357 H 606.969 -1.95068 2.21432 0
M  V30 6358 H 607.05 -0.215088 2.54894 0
M  V30 6359 H 606.694 -0.699605 5.03059 0
M  V30 6360 H 606.624 -2.44192 4.66559 0
M  V30 6361 H 609.115 -1.38479 3.51613 0
M  V30 6362 H 609.428 -2.2408 7.396 0
M  V30 6363 H 607.773 -2.02187 6.6494 0
M  V30 6364 H 610.964 -1.63665 4.38556 0
M  V30 6365 H 611.137 -2.02722 6.15474 0
M  V30 6366 N 604.543 -1.41418 -0.695603 0
M  V30 6367 C 605.792 -1.40073 -1.4513 0
M  V30 6368 C 606.105 -0.0130439 -1.95596 0
M  V30 6369 O 607.311 0.123032 -2.71221 0
M  V30 6370 C 605.767 -2.46286 -2.62433 0
M  V30 6371 C 605.375 -3.90962 -2.18753 0
M  V30 6372 C 607.119 -2.54077 -3.40066 0
M  V30 6373 C 605.026 -4.88728 -3.33015 0
M  V30 6374 H 603.956 -0.520903 -0.545138 0
M  V30 6375 H 606.607 -1.67242 -0.75515 0
M  V30 6376 H 604.989 -2.12248 -3.34315 0
M  V30 6377 H 606.163 -4.34248 -1.54161 0
M  V30 6378 H 604.478 -3.86831 -1.54114 0
M  V30 6379 H 607.075 -3.24303 -4.25125 0
M  V30 6380 H 607.418 -1.5776 -3.8525 0
M  V30 6381 H 607.951 -2.87206 -2.75241 0
M  V30 6382 H 604.69 -5.86449 -2.92844 0
M  V30 6383 H 604.21 -4.50091 -3.96457 0
M  V30 6384 H 605.889 -5.09483 -3.98793 0
M  V30 6385 N 606.021 0.929856 -1.27246 0
M  V30 6386 C 607.432 1.49223 -1.12203 0
M  V30 6387 C 607.783 1.93989 0.293731 0
M  V30 6388 O 606.908 1.80978 1.18642 0
M  V30 6389 C 607.503 2.71198 -2.0307 0
M  V30 6390 C 606.062 3.23666 -1.92139 0
M  V30 6391 C 605.209 1.96409 -1.95752 0
M  V30 6392 H 608.16 0.744181 -1.4017 0
M  V30 6393 H 608.181 3.45905 -1.58524 0
M  V30 6394 H 607.693 2.38585 -3.06102 0
M  V30 6395 H 605.794 3.61042 -0.920834 0
M  V30 6396 H 605.907 3.90006 -2.78267 0
M  V30 6397 H 604.271 2.12806 -1.39949 0
M  V30 6398 H 605.054 1.66113 -3.00436 0
M  V30 6399 N 607.499 1.09233 1.13605 0
M  V30 6400 C 608.745 0.828385 1.8511 0
M  V30 6401 C 609.078 -0.64437 1.83198 0
M  V30 6402 O 608.353 -1.47428 1.26867 0
M  V30 6403 C 608.636 1.36167 3.33363 0
M  V30 6404 C 608.489 2.90038 3.438 0
M  V30 6405 C 609.808 0.993819 4.28732 0
M  V30 6406 H 606.927 0.30239 0.672108 0
M  V30 6407 H 609.569 1.35339 1.33355 0
M  V30 6408 H 607.719 0.9151 3.77569 0
M  V30 6409 H 609.391 3.43128 3.08319 0
M  V30 6410 H 607.634 3.27271 2.84739 0
M  V30 6411 H 608.305 3.22428 4.48045 0
M  V30 6412 H 610.781 1.37893 3.92587 0
M  V30 6413 H 609.657 1.39403 5.30903 0
M  V30 6414 H 609.918 -0.0982206 4.41991 0
M  V30 6415 N 608.977 -1.30795 0.87923 0
M  V30 6416 C 610.254 -1.91145 0.415086 0
M  V30 6417 C 610.634 -1.7995 -1.10368 0
M  V30 6418 O 609.982 -1.21305 -1.93642 0
M  V30 6419 C 610.192 -3.37014 0.906778 0
M  V30 6420 C 611.54 -4.14101 0.938358 0
M  V30 6421 O 612.564 -3.45834 0.853053 0
M  V30 6422 O 611.423 -5.36054 1.06342 0
M  V30 6423 H 608.517 -0.81736 0.125905 0
M  V30 6424 H 611.063 -1.39401 0.967753 0
M  V30 6425 H 609.835 -3.3922 1.95053 0
M  V30 6426 H 609.458 -3.96204 0.332948 0
M  V30 6427 N 610.455 -0.639598 -1.44038 0
M  V30 6428 C 611.683 -0.154811 -2.0632 0
M  V30 6429 C 612.098 1.17406 -1.47856 0
M  V30 6430 O 611.455 1.72193 -0.604638 0
M  V30 6431 C 611.506 -0.0429958 -3.61474 0
M  V30 6432 O 611.227 -1.31932 -4.17763 0
M  V30 6433 C 612.728 0.469486 -4.40807 0
M  V30 6434 H 609.948 -0.0835862 -0.665773 0
M  V30 6435 H 612.492 -0.876397 -1.84769 0
M  V30 6436 H 610.647 0.629075 -3.82258 0
M  V30 6437 H 611.061 -1.16965 -5.11292 0
M  V30 6438 H 612.535 0.496712 -5.49761 0
M  V30 6439 H 613.012 1.49819 -4.12857 0
M  V30 6440 H 613.618 -0.169624 -4.24962 0
M  V30 6441 N 611.933 1.52934 -0.380664 0
M  V30 6442 C 612.866 2.22597 0.502564 0
M  V30 6443 C 613.844 1.22345 1.071 0
M  V30 6444 O 615.028 1.51302 1.12428 0
M  V30 6445 C 612.155 2.93246 1.69482 0
M  V30 6446 C 611.201 4.07696 1.25244 0
M  V30 6447 S 612.034 5.34957 0.241159 0
M  V30 6448 C 613.19 6.09124 1.4394 0
M  V30 6449 H 613.423 2.97167 -0.089029 0
M  V30 6450 H 610.956 1.53518 -0.164817 0
M  V30 6451 H 612.914 3.34562 2.37863 0
M  V30 6452 H 611.575 2.18373 2.2577 0
M  V30 6453 H 610.768 4.56199 2.1424 0
M  V30 6454 H 610.37 3.68349 0.647664 0
M  V30 6455 H 612.662 6.34771 2.36794 0
M  V30 6456 H 613.605 7.01068 0.995464 0
M  V30 6457 H 614.013 5.39777 1.65229 0
M  V30 6458 N 613.412 0.11024 1.57214 0
M  V30 6459 C 614.658 -0.550684 1.9518 0
M  V30 6460 C 614.991 -1.66885 0.993122 0
M  V30 6461 O 614.266 -1.94479 0.0287907 0
M  V30 6462 C 614.549 -1.09163 3.43155 0
M  V30 6463 C 614.402 0.0225198 4.49794 0
M  V30 6464 C 615.721 -1.98527 3.92778 0
M  V30 6465 H 612.84 -0.198706 0.709708 0
M  V30 6466 H 615.482 0.184024 1.89107 0
M  V30 6467 H 613.632 -1.71775 3.48462 0
M  V30 6468 H 615.304 0.657443 4.56591 0
M  V30 6469 H 613.547 0.686868 4.28328 0
M  V30 6470 H 614.218 -0.39706 5.5057 0
M  V30 6471 H 616.694 -1.458 3.8972 0
M  V30 6472 H 615.57 -2.33298 4.96853 0
M  V30 6473 H 615.831 -2.90846 3.32958 0
M  V30 6474 N 614.89 -1.56749 -0.16351 0
M  V30 6475 C 616.118 -1.86577 -0.894233 0
M  V30 6476 C 616.533 -0.696543 -1.75481 0
M  V30 6477 O 615.89 0.334161 -1.79415 0
M  V30 6478 C 615.941 -3.15508 -1.76456 0
M  V30 6479 O 615.662 -4.27926 -0.938685 0
M  V30 6480 C 617.163 -3.58737 -2.60428 0
M  V30 6481 H 614.383 -0.618829 -0.259405 0
M  V30 6482 H 616.927 -2.03863 -0.161259 0
M  V30 6483 H 615.082 -3.00025 -2.45079 0
M  V30 6484 H 615.496 -5.01546 -1.53465 0
M  V30 6485 H 616.97 -4.51832 -3.17099 0
M  V30 6486 H 617.447 -2.83229 -3.35675 0
M  V30 6487 H 618.053 -3.76858 -1.97125 0
M  V30 6488 N 616.368 0.432326 -1.51554 0
M  V30 6489 C 617.598 1.2019 -1.68042 0
M  V30 6490 C 618.006 1.85356 -0.379434 0
M  V30 6491 O 617.349 1.71724 0.652427 0
M  V30 6492 C 617.411 2.32387 -2.74292 0
M  V30 6493 C 617.075 1.87548 -4.16743 0
M  V30 6494 C 618.072 1.37611 -5.01357 0
M  V30 6495 C 615.757 1.95087 -4.62868 0
M  V30 6496 C 617.751 0.958069 -6.30159 0
M  V30 6497 C 615.438 1.52894 -5.91664 0
M  V30 6498 C 616.436 1.03336 -6.75137 0
M  V30 6499 O 616.124 0.617435 -8.01525 0
M  V30 6500 H 615.856 0.368132 -0.56697 0
M  V30 6501 H 618.41 0.517875 -1.98764 0
M  V30 6502 H 616.64 3.04082 -2.38895 0
M  V30 6503 H 618.329 2.94235 -2.79608 0
M  V30 6504 H 619.095 1.31178 -4.66923 0
M  V30 6505 H 614.974 2.32606 -3.98015 0
M  V30 6506 H 618.518 0.570562 -6.95263 0
M  V30 6507 H 614.415 1.58999 -6.25611 0
M  V30 6508 H 615.183 0.742835 -8.15122 0
M  V30 6509 N 617.846 1.41785 0.688094 0
M  V30 6510 C 618.779 1.38643 1.81255 0
M  V30 6511 C 619.757 0.252583 1.60626 0
M  V30 6512 O 620.941 0.440691 1.83276 0
M  V30 6513 C 618.068 1.16449 3.18053 0
M  V30 6514 C 617.114 2.32651 3.57457 0
M  V30 6515 S 617.947 3.95152 3.61407 0
M  V30 6516 C 619.103 3.75275 5.00919 0
M  V30 6517 H 619.336 2.33799 1.83644 0
M  V30 6518 H 616.869 1.28398 0.857513 0
M  V30 6519 H 618.827 1.0433 3.97021 0
M  V30 6520 H 617.488 0.229002 3.13264 0
M  V30 6521 H 616.681 2.12835 4.56856 0
M  V30 6522 H 616.283 2.41215 2.85817 0
M  V30 6523 H 618.575 3.35443 5.88629 0
M  V30 6524 H 619.518 4.74302 5.25778 0
M  V30 6525 H 619.926 3.08401 4.7281 0
M  V30 6526 N 619.324 -0.923095 1.27737 0
M  V30 6527 C 620.254 -2.04124 1.13383 0
M  V30 6528 C 621.235 -1.70066 0.0340658 0
M  V30 6529 O 622.42 -1.93068 0.209383 0
M  V30 6530 C 619.55 -3.3831 0.785097 0
M  V30 6531 C 618.504 -3.86496 1.8386 0
M  V30 6532 C 617.83 -5.1754 1.34373 0
M  V30 6533 C 619.13 -4.09381 3.24353 0
M  V30 6534 H 620.824 -2.1639 2.06919 0
M  V30 6535 H 618.37 -1.03976 0.996243 0
M  V30 6536 H 620.323 -4.16016 0.671485 0
M  V30 6537 H 619.047 -3.2607 -0.185969 0
M  V30 6538 H 617.706 -3.10987 1.9412 0
M  V30 6539 H 617.354 -5.01696 0.361989 0
M  V30 6540 H 617.054 -5.50751 2.04811 0
M  V30 6541 H 618.578 -5.97811 1.24315 0
M  V30 6542 H 619.992 -4.77641 3.17067 0
M  V30 6543 H 618.389 -4.53906 3.92542 0
M  V30 6544 H 619.459 -3.14515 3.69064 0
M  V30 6545 N 620.802 -1.09834 -1.13024 0
M  V30 6546 C 622.03 -0.858902 -1.8823 0
M  V30 6547 C 622.445 0.590164 -1.79339 0
M  V30 6548 O 621.802 1.4065 -1.16292 0
M  V30 6549 C 621.853 -1.29066 -3.37675 0
M  V30 6550 O 621.574 -2.6829 -3.46341 0
M  V30 6551 C 623.075 -1.08421 -4.29837 0
M  V30 6552 H 620.295 -0.308713 -0.595766 0
M  V30 6553 H 622.839 -1.4614 -1.4305 0
M  V30 6554 H 620.994 -0.731961 -3.80422 0
M  V30 6555 H 621.408 -2.86598 -4.39274 0
M  V30 6556 H 622.882 -1.43553 -5.33007 0
M  V30 6557 H 623.359 -0.0223315 -4.39194 0
M  V30 6558 H 623.965 -1.62907 -3.92863 0
M  V30 6559 N 622.28 1.30327 -0.886154 0
M  V30 6560 C 623.21 2.30549 -0.370028 0
M  V30 6561 C 624.191 1.61039 0.547751 0
M  V30 6562 O 625.376 1.8864 0.461353 0
M  V30 6563 C 622.506 3.44808 0.415275 0
M  V30 6564 C 621.46 4.26024 -0.41085 0
M  V30 6565 C 620.786 5.32347 0.501128 0
M  V30 6566 C 622.086 4.95433 -1.65359 0
M  V30 6567 H 623.78 2.73969 -1.20754 0
M  V30 6568 H 621.326 1.3171 -0.582097 0
M  V30 6569 H 623.279 4.13986 0.78699 0
M  V30 6570 H 622.003 3.00197 1.28644 0
M  V30 6571 H 620.662 3.58535 -0.764719 0
M  V30 6572 H 620.31 4.83982 1.37004 0
M  V30 6573 H 620.01 5.87581 -0.0478356 0
M  V30 6574 H 621.534 6.0438 0.869333 0
M  V30 6575 H 622.948 5.5712 -1.35239 0
M  V30 6576 H 621.345 5.60537 -2.14284 0
M  V30 6577 H 622.415 4.21493 -2.39733 0
M  V30 6578 N 623.758 0.647228 1.43697 0
M  V30 6579 C 624.668 -0.0487997 2.34549 0
M  V30 6580 C 625.684 -0.818586 1.53542 0
M  V30 6581 O 626.86 -0.767195 1.86215 0
M  V30 6582 C 623.925 -1.00734 3.31743 0
M  V30 6583 C 622.986 -0.23515 4.28655 0
M  V30 6584 C 622.219 -1.14803 5.21206 0
M  V30 6585 O 622.442 -2.38717 5.18045 0
M  V30 6586 O 621.376 -0.623667 5.9866 0
M  V30 6587 H 625.202 0.698863 2.9555 0
M  V30 6588 H 622.787 0.407412 1.43738 0
M  V30 6589 H 624.669 -1.55837 3.91526 0
M  V30 6590 H 623.344 -1.73534 2.73254 0
M  V30 6591 H 622.251 0.359319 3.7237 0
M  V30 6592 H 623.584 0.453152 4.9011 0
M  V30 6593 N 625.236 -1.5273 0.388769 0
M  V30 6594 C 626.513 -1.93981 -0.251133 0
M  V30 6595 C 626.893 -1.32418 -1.64404 0
M  V30 6596 O 626.241 -0.492074 -2.23139 0
M  V30 6597 C 626.451 -3.47891 -0.27802 0
M  V30 6598 C 627.799 -4.21559 -0.507229 0
M  V30 6599 O 628.823 -3.54394 -0.358252 0
M  V30 6600 O 627.682 -5.40626 -0.799094 0
M  V30 6601 H 624.776 -0.812157 -0.15598 0
M  V30 6602 H 627.322 -1.63809 0.443237 0
M  V30 6603 H 626.094 -3.8503 0.697669 0
M  V30 6604 H 625.717 -3.84364 -1.01733 0
M  V30 6605 N 626.714 -0.118576 -1.57153 0
M  V30 6606 C 627.664 0.842924 -2.11846 0
M  V30 6607 C 628.648 1.22845 -1.03914 0
M  V30 6608 O 629.84 1.19961 -1.30148 0
M  V30 6609 C 626.969 2.09312 -2.72109 0
M  V30 6610 C 626.055 1.73198 -3.87122 0
M  V30 6611 N 626.446 1.07758 -4.94188 0
M  V30 6612 C 624.744 2.02659 -3.97298 0
M  V30 6613 C 625.445 0.907741 -5.74574 0
M  V30 6614 N 624.421 1.4326 -5.24383 0
M  V30 6615 H 628.223 0.333416 -2.92003 0
M  V30 6616 H 625.737 0.0839073 -1.62183 0
M  V30 6617 H 627.734 2.79162 -3.09635 0
M  V30 6618 H 626.394 2.60807 -1.93416 0
M  V30 6619 H 627.405 0.741613 -5.12563 0
M  V30 6620 H 624.082 2.56204 -3.29645 0
M  V30 6621 H 625.472 0.394112 -6.70743 0
M  V30 6622 N 628.193 1.56834 0.155195 0
M  V30 6623 C 629.423 1.86778 0.883044 0
M  V30 6624 C 629.831 0.703824 1.75622 0
M  V30 6625 O 629.174 -0.33581 1.80605 0
M  V30 6626 C 629.236 3.1133 1.79761 0
M  V30 6627 C 628.9 4.43504 1.10242 0
M  V30 6628 C 629.897 5.17859 0.460204 0
M  V30 6629 C 627.582 4.90233 1.09437 0
M  V30 6630 C 629.576 6.37144 -0.180782 0
M  V30 6631 C 627.263 6.09444 0.449569 0
M  V30 6632 C 628.261 6.82744 -0.186888 0
M  V30 6633 O 627.949 7.99692 -0.821486 0
M  V30 6634 H 627.681 0.62352 0.261149 0
M  V30 6635 H 630.235 2.04813 0.155204 0
M  V30 6636 H 628.465 2.89282 2.56618 0
M  V30 6637 H 630.154 3.27587 2.39669 0
M  V30 6638 H 630.92 4.8283 0.458289 0
M  V30 6639 H 626.799 4.33109 1.57917 0
M  V30 6640 H 630.343 6.94296 -0.678154 0
M  V30 6641 H 626.24 6.43936 0.449123 0
M  V30 6642 H 627.008 8.15306 -0.722337 0
M  V30 6643 N 629.671 -0.424282 1.51781 0
M  V30 6644 C 630.621 -1.51464 1.70419 0
M  V30 6645 C 631.605 -1.50911 0.558094 0
M  V30 6646 O 632.797 -1.57143 0.814552 0
M  V30 6647 C 629.926 -2.89539 1.84451 0
M  V30 6648 C 629.012 -2.94798 3.04886 0
M  V30 6649 N 629.403 -2.69778 4.27848 0
M  V30 6650 C 627.701 -3.25962 3.04408 0
M  V30 6651 C 628.402 -2.81216 5.09208 0
M  V30 6652 N 627.378 -3.13447 4.44131 0
M  V30 6653 H 631.18 -1.30892 2.63144 0
M  V30 6654 H 628.694 -0.631783 1.49607 0
M  V30 6655 H 630.691 -3.67998 1.95917 0
M  V30 6656 H 629.351 -3.11121 0.929168 0
M  V30 6657 H 630.362 -2.44458 4.56575 0
M  V30 6658 H 627.039 -3.53236 2.22555 0
M  V30 6659 H 628.429 -2.65715 6.17127 0
M  V30 6660 N 631.149 -1.42148 -0.680565 0
M  V30 6661 C 632.112 -1.4488 -1.77602 0
M  V30 6662 C 633.112 -0.337209 -1.57224 0
M  V30 6663 O 634.302 -0.597778 -1.63622 0
M  V30 6664 C 631.434 -1.27483 -3.16166 0
M  V30 6665 H 632.627 -2.42412 -1.76568 0
M  V30 6666 H 630.18 -1.28511 -0.889645 0
M  V30 6667 H 630.915 -0.30851 -3.22829 0
M  V30 6668 H 630.7 -2.08037 -3.3236 0
M  V30 6669 H 632.19 -1.32265 -3.96101 0
M  V30 6670 N 632.627 0.916307 -1.28225 0
M  V30 6671 C 633.904 1.64429 -1.05936 0
M  V30 6672 C 634.284 2.07234 0.402139 0
M  V30 6673 O 633.632 1.81535 1.3877 0
M  V30 6674 C 633.842 2.83773 -2.03159 0
M  V30 6675 C 635.19 3.54852 -2.33164 0
M  V30 6676 O 636.214 2.93918 -2.01223 0
M  V30 6677 O 635.073 4.64663 -2.87664 0
M  V30 6678 H 632.167 0.721221 -0.404683 0
M  V30 6679 H 634.713 0.965838 -1.39534 0
M  V30 6680 H 633.485 2.49217 -3.01673 0
M  V30 6681 H 633.108 3.59333 -1.70192 0
M  V30 6682 N 634.105 1.10431 1.1244 0
M  V30 6683 C 635.351 0.847972 1.84221 0
M  V30 6684 C 635.684 -0.624903 1.83871 0
M  V30 6685 O 634.959 -1.46074 1.28423 0
M  V30 6686 C 635.242 1.39695 3.319 0
M  V30 6687 C 635.095 2.93668 3.40704 0
M  V30 6688 C 636.414 1.03924 4.27654 0
M  V30 6689 H 633.533 0.309502 0.668863 0
M  V30 6690 H 636.175 1.36745 1.31912 0
M  V30 6691 H 634.325 0.955095 3.76577 0
M  V30 6692 H 635.997 3.46379 3.04662 0
M  V30 6693 H 634.24 3.30272 2.81252 0
M  V30 6694 H 634.911 3.27162 4.446 0
M  V30 6695 H 637.387 1.42049 3.91102 0
M  V30 6696 H 636.263 1.45027 5.29394 0
M  V30 6697 H 636.524 -0.051336 4.4207 0
M  V30 6698 N 635.583 -1.29855 0.893053 0
M  V30 6699 C 636.546 -2.26183 0.370687 0
M  V30 6700 C 637.546 -1.53108 -0.491385 0
M  V30 6701 O 638.736 -1.71643 -0.297386 0
M  V30 6702 C 635.868 -3.37633 -0.470827 0
M  V30 6703 H 637.061 -2.73903 1.22135 0
M  V30 6704 H 634.614 -1.41183 0.67061 0
M  V30 6705 H 635.349 -2.95241 -1.34175 0
M  V30 6706 H 635.134 -3.91825 0.146784 0
M  V30 6707 H 636.624 -4.09313 -0.827825 0
M  V30 6708 N 637.061 -0.65484 -1.43351 0
M  V30 6709 C 638.291 -0.176429 -2.05845 0
M  V30 6710 C 638.699 1.16375 -1.49176 0
M  V30 6711 O 638.042 1.72981 -0.618322 0
M  V30 6712 C 638.104 -0.0125844 -3.59498 0
M  V30 6713 C 637.768 -1.27831 -4.38758 0
M  V30 6714 C 638.765 -2.2074 -4.70712 0
M  V30 6715 C 636.45 -1.52035 -4.78739 0
M  V30 6716 C 638.444 -3.36145 -5.41558 0
M  V30 6717 C 636.131 -2.67732 -5.49329 0
M  V30 6718 C 637.129 -3.59612 -5.80662 0
M  V30 6719 O 636.817 -4.73289 -6.4981 0
M  V30 6720 H 636.549 -0.0879682 -0.670252 0
M  V30 6721 H 639.103 -0.896193 -1.84818 0
M  V30 6722 H 637.333 0.762567 -3.79107 0
M  V30 6723 H 639.022 0.423392 -4.03686 0
M  V30 6724 H 639.788 -2.03284 -4.40341 0
M  V30 6725 H 635.667 -0.813987 -4.53757 0
M  V30 6726 H 639.211 -4.07881 -5.65932 0
M  V30 6727 H 635.108 -2.85122 -5.79116 0
M  V30 6728 H 635.876 -4.72575 -6.68293 0
M  V30 6729 N 638.539 1.52521 -0.396863 0
M  V30 6730 C 639.489 2.2348 0.451722 0
M  V30 6731 C 640.473 1.2415 1.0235 0
M  V30 6732 O 641.665 1.4945 0.948348 0
M  V30 6733 C 638.794 3.05067 1.57445 0
M  V30 6734 C 637.88 4.11799 1.01404 0
M  V30 6735 N 638.271 5.05482 0.179234 0
M  V30 6736 C 636.569 4.27064 1.28578 0
M  V30 6737 C 637.27 5.81552 -0.131202 0
M  V30 6738 N 636.246 5.41523 0.474735 0
M  V30 6739 H 640.048 2.93269 -0.192534 0
M  V30 6740 H 637.562 1.61081 -0.206591 0
M  V30 6741 H 639.559 3.54446 2.19485 0
M  V30 6742 H 638.219 2.36816 2.22145 0
M  V30 6743 H 639.23 5.17573 -0.18411 0
M  V30 6744 H 635.907 3.70042 1.93327 0
M  V30 6745 H 637.297 6.67023 -0.808061 0
M  V30 6746 N 640.017 0.126909 1.57088 0
M  V30 6747 C 640.965 -0.837618 2.16995 0
M  V30 6748 C 641.959 -1.26974 1.12133 0
M  V30 6749 O 643.165 -1.24056 1.30423 0
M  V30 6750 H 639.54 -0.288256 0.694559 0
M  V30 6751 H 641.511 -0.307957 2.96807 0
M  V30 6752 C 640.26 -2.07474 2.79016 0
M  V30 6753 H 639.583 -1.75117 3.59408 0
M  V30 6754 H 641.023 -2.72949 3.24461 0
M  V30 6755 C 639.482 -2.86967 1.76498 0
M  V30 6756 O 640.012 -3.82625 1.22316 0
M  V30 6757 N 638.218 -2.51111 1.46258 0
M  V30 6758 H 637.765 -1.73389 1.90509 0
M  V30 6759 H 637.723 -3.04594 0.779085 0
M  V30 6760 N 641.495 -1.56914 -0.146875 0
M  V30 6761 C 642.72 -1.87881 -0.878386 0
M  V30 6762 C 643.145 -0.715945 -1.73942 0
M  V30 6763 O 642.503 0.334447 -1.78189 0
M  V30 6764 C 642.551 -3.17431 -1.71084 0
M  V30 6765 O 641.655 -3.01374 -2.81509 0
M  V30 6766 H 640.996 -0.617289 -0.244644 0
M  V30 6767 H 643.526 -2.04136 -0.137654 0
M  V30 6768 H 643.536 -3.49455 -2.10582 0
M  V30 6769 H 642.211 -4.01671 -1.07856 0
M  V30 6770 H 640.788 -2.80758 -2.45416 0
M  V30 6771 N 642.974 0.416227 -1.52004 0
M  V30 6772 C 643.904 1.51365 -1.77795 0
M  V30 6773 C 644.885 1.58059 -0.628601 0
M  V30 6774 O 646.07 1.73447 -0.873478 0
M  V30 6775 C 643.2 2.89256 -1.92219 0
M  V30 6776 C 642.154 2.97415 -3.0778 0
M  V30 6777 C 641.48 4.37492 -3.07417 0
M  V30 6778 C 642.78 2.69551 -4.47369 0
M  V30 6779 H 644.474 1.30033 -2.69688 0
M  V30 6780 H 642.02 0.624112 -1.29772 0
M  V30 6781 H 643.973 3.66008 -2.08845 0
M  V30 6782 H 642.697 3.11866 -0.969917 0
M  V30 6783 H 641.356 2.23107 -2.90893 0
M  V30 6784 H 641.004 4.571 -2.09925 0
M  V30 6785 H 640.704 4.43877 -3.85029 0
M  V30 6786 H 642.228 5.16188 -3.26162 0
M  V30 6787 H 643.642 3.36028 -4.64497 0
M  V30 6788 H 642.039 2.87321 -5.26846 0
M  V30 6789 H 643.109 1.65029 -4.55953 0
M  V30 6790 N 644.452 1.42507 0.673017 0
M  V30 6791 C 645.402 1.4258 1.77919 0
M  V30 6792 C 646.386 0.296885 1.58137 0
M  V30 6793 O 647.578 0.539243 1.68586 0
M  V30 6794 C 644.707 1.33238 3.1639 0
M  V30 6795 C 643.793 2.51081 3.41788 0
M  V30 6796 N 644.184 3.76498 3.37761 0
M  V30 6797 C 642.482 2.4538 3.72431 0
M  V30 6798 C 643.183 4.54784 3.62693 0
M  V30 6799 N 642.159 3.8522 3.83544 0
M  V30 6800 H 645.961 2.37442 1.73201 0
M  V30 6801 H 643.475 1.36881 0.873924 0
M  V30 6802 H 645.472 1.31372 3.9566 0
M  V30 6803 H 644.132 0.393794 3.22303 0
M  V30 6804 H 645.143 4.09068 3.17622 0
M  V30 6805 H 641.82 1.60109 3.85579 0
M  V30 6806 H 643.21 5.63774 3.65525 0
M  V30 6807 N 645.93 -0.909495 1.28709 0
M  V30 6808 C 646.893 -1.99399 1.13016 0
M  V30 6809 C 647.893 -1.60654 0.068536 0
M  V30 6810 O 649.083 -1.71334 0.314671 0
M  V30 6811 C 646.215 -3.33078 0.726085 0
M  V30 6812 H 647.408 -2.14751 2.09338 0
M  V30 6813 H 644.961 -1.09272 1.11756 0
M  V30 6814 H 645.696 -3.23428 -0.23771 0
M  V30 6815 H 645.481 -3.62562 1.49302 0
M  V30 6816 H 646.971 -4.12681 0.639058 0
M  V30 6817 N 647.408 -1.11026 -1.11852 0
M  V30 6818 C 648.371 -0.768006 -2.1595 0
M  V30 6819 C 649.371 0.210538 -1.59416 0
M  V30 6820 O 650.561 -0.0133978 -1.74195 0
M  V30 6821 C 647.693 -0.138678 -3.40618 0
M  V30 6822 H 648.886 -1.69012 -2.4774 0
M  V30 6823 H 646.439 -0.911578 -1.26964 0
M  V30 6824 H 647.174 0.793872 -3.14433 0
M  V30 6825 H 646.959 -0.843012 -3.8293 0
M  V30 6826 H 648.449 0.0848039 -4.17514 0
M  V30 6827 N 648.886 1.2938 -0.899927 0
M  V30 6828 C 650.163 1.9046 -0.445443 0
M  V30 6829 C 650.543 1.81683 1.07492 0
M  V30 6830 O 649.891 1.24371 1.91688 0
M  V30 6831 C 650.101 3.35529 -0.960279 0
M  V30 6832 C 651.449 4.12556 -1.00412 0
M  V30 6833 O 652.473 3.44434 -0.907965 0
M  V30 6834 O 651.332 5.34294 -1.14857 0
M  V30 6835 H 648.426 0.815253 -0.138893 0
M  V30 6836 H 650.972 1.37844 -0.989808 0
M  V30 6837 H 649.744 3.36074 -2.00425 0
M  V30 6838 H 649.367 3.95624 -0.395939 0
M  V30 6839 N 650.364 0.662433 1.43002 0
M  V30 6840 C 651.61 0.179857 2.02001 0
M  V30 6841 C 651.943 -1.20625 1.52195 0
M  V30 6842 O 651.218 -1.80726 0.718911 0
M  V30 6843 C 651.501 0.200845 3.59539 0
M  V30 6844 C 651.354 1.62153 4.19555 0
M  V30 6845 C 652.673 -0.457738 4.37713 0
M  V30 6846 H 649.792 0.0668305 0.733964 0
M  V30 6847 H 652.434 0.84487 1.70182 0
M  V30 6848 H 650.584 -0.365411 3.86778 0
M  V30 6849 H 652.256 2.23908 4.03315 0
M  V30 6850 H 650.499 2.16601 3.75854 0
M  V30 6851 H 651.17 1.58799 5.28665 0
M  V30 6852 H 653.646 0.0241495 4.16093 0
M  V30 6853 H 652.522 -0.412363 5.47349 0
M  V30 6854 H 652.783 -1.53336 4.14657 0
M  V30 6855 N 651.842 -1.52309 0.404946 0
M  V30 6856 C 652.772 -2.29805 -0.41376 0
M  V30 6857 C 653.753 -1.3384 -1.0498 0
M  V30 6858 O 654.938 -1.62745 -1.05961 0
M  V30 6859 C 652.068 -3.11639 -1.53292 0
M  V30 6860 C 651.022 -4.15616 -1.02211 0
M  V30 6861 C 650.348 -4.8577 -2.23455 0
M  V30 6862 C 651.648 -5.2224 -0.0790725 0
M  V30 6863 H 653.342 -2.98493 0.232878 0
M  V30 6864 H 650.888 -1.43552 0.113441 0
M  V30 6865 H 652.841 -3.64618 -2.11262 0
M  V30 6866 H 651.565 -2.40712 -2.20738 0
M  V30 6867 H 650.224 -3.63641 -0.46484 0
M  V30 6868 H 649.872 -4.11376 -2.89445 0
M  V30 6869 H 649.572 -5.56058 -1.89929 0
M  V30 6870 H 651.096 -5.4156 -2.82038 0
M  V30 6871 H 652.51 -5.70485 -0.567438 0
M  V30 6872 H 650.907 -5.99867 0.167167 0
M  V30 6873 H 651.977 -4.77078 0.867447 0
M  V30 6874 N 653.32 -0.135238 -1.57019 0
M  V30 6875 C 654.252 0.839675 -2.13265 0
M  V30 6876 C 655.265 1.21887 -1.07923 0
M  V30 6877 O 656.454 1.16499 -1.35241 0
M  V30 6878 C 653.554 2.13647 -2.63075 0
M  V30 6879 C 652.727 1.92646 -3.92691 0
M  V30 6880 C 651.786 3.06205 -4.27931 0
M  V30 6881 O 650.812 2.78409 -4.96465 0
M  V30 6882 N 652.014 4.33072 -3.86561 0
M  V30 6883 H 654.779 0.359026 -2.97542 0
M  V30 6884 H 652.34 0.0486979 -1.61827 0
M  V30 6885 H 654.332 2.88641 -2.8367 0
M  V30 6886 H 652.902 2.5301 -1.83588 0
M  V30 6887 H 652.122 1.01754 -3.80841 0
M  V30 6888 H 653.41 1.75939 -4.77413 0
M  V30 6889 H 652.808 4.58526 -3.31316 0
M  V30 6890 H 651.365 5.04885 -4.12231 0
M  V30 6891 N 654.798 1.5699 0.138552 0
M  V30 6892 C 656.023 1.88344 0.86841 0
M  V30 6893 C 656.448 0.725159 1.7356 0
M  V30 6894 O 655.806 -0.324992 1.78363 0
M  V30 6895 C 655.854 3.18334 1.69398 0
M  V30 6896 O 654.958 3.02863 2.79907 0
M  V30 6897 H 654.299 0.618577 0.241367 0
M  V30 6898 H 656.829 2.04207 0.126826 0
M  V30 6899 H 656.839 3.50567 2.08726 0
M  V30 6900 H 655.514 4.02238 1.05725 0
M  V30 6901 H 654.091 2.82056 2.43924 0
M  V30 6902 N 656.276 -0.40816 1.52223 0
M  V30 6903 C 657.504 -1.17672 1.70179 0
M  V30 6904 C 657.919 -1.84257 0.411696 0
M  V30 6905 O 657.276 -1.7192 -0.612354 0
M  V30 6906 C 657.327 -2.23911 2.83806 0
M  V30 6907 O 657.048 -1.60044 4.0782 0
M  V30 6908 C 658.549 -3.1364 3.13281 0
M  V30 6909 H 655.769 -0.353562 0.570293 0
M  V30 6910 H 658.313 -0.480083 1.98785 0
M  V30 6911 H 656.468 -2.89242 2.57717 0
M  V30 6912 H 656.882 -2.30484 4.71145 0
M  V30 6913 H 658.356 -3.84255 3.96298 0
M  V30 6914 H 658.833 -3.76066 2.26872 0
M  V30 6915 H 659.439 -2.53977 3.41139 0
M  V30 6916 N 657.755 -1.42862 -0.66545 0
M  V30 6917 C 658.705 -1.43521 -1.7716 0
M  V30 6918 C 659.689 -0.305267 -1.57978 0
M  V30 6919 O 660.881 -0.548176 -1.68297 0
M  V30 6920 C 658.01 -1.34914 -3.15679 0
M  V30 6921 C 657.096 -2.5289 -3.40452 0
M  V30 6922 N 657.487 -3.78284 -3.3576 0
M  V30 6923 C 655.785 -2.47351 -3.71124 0
M  V30 6924 C 656.486 -4.56701 -3.60276 0
M  V30 6925 N 655.462 -3.87249 -3.81496 0
M  V30 6926 H 659.264 -2.38357 -1.7194 0
M  V30 6927 H 656.778 -1.37342 -0.866653 0
M  V30 6928 H 658.775 -1.33468 -3.94958 0
M  V30 6929 H 657.435 -0.410881 -3.2209 0
M  V30 6930 H 658.446 -4.10746 -3.15448 0
M  V30 6931 H 655.123 -1.62152 -3.84725 0
M  V30 6932 H 656.513 -5.65704 -3.6253 0
M  V30 6933 N 659.233 0.902656 -1.29189 0
M  V30 6934 C 660.479 1.65532 -1.17163 0
M  V30 6935 C 660.812 1.92216 0.276879 0
M  V30 6936 O 660.087 1.53048 1.20027 0
M  V30 6937 C 660.37 3.00629 -1.98228 0
M  V30 6938 C 660.223 2.81029 -3.51202 0
M  V30 6939 C 661.542 4.01321 -1.80635 0
M  V30 6940 H 658.661 0.60071 -0.426985 0
M  V30 6941 H 661.303 1.04578 -1.5863 0
M  V30 6942 H 659.453 3.52656 -1.62991 0
M  V30 6943 H 661.125 2.35927 -3.96404 0
M  V30 6944 H 659.368 2.1587 -3.76275 0
M  V30 6945 H 660.039 3.77014 -4.03192 0
M  V30 6946 H 662.515 3.58394 -2.11406 0
M  V30 6947 H 661.391 4.93792 -2.3971 0
M  V30 6948 H 661.652 4.35505 -0.760754 0
M  V30 6949 N 660.711 1.11618 1.11262 0
M  V30 6950 C 661.641 0.79846 2.19424 0
M  V30 6951 C 662.622 -0.234003 1.68483 0
M  V30 6952 O 663.807 -0.0970704 1.93957 0
M  V30 6953 C 660.937 0.242892 3.4645 0
M  V30 6954 C 659.891 1.20744 4.10615 0
M  V30 6955 C 659.217 0.512494 5.32238 0
M  V30 6956 C 660.517 2.55884 4.55325 0
M  V30 6957 H 662.211 1.70286 2.46258 0
M  V30 6958 H 659.757 0.820195 1.18359 0
M  V30 6959 H 661.71 0.00840447 4.21399 0
M  V30 6960 H 660.434 -0.696811 3.1908 0
M  V30 6961 H 659.093 1.42759 3.37662 0
M  V30 6962 H 658.741 -0.432075 5.01141 0
M  V30 6963 H 658.441 1.15583 5.7612 0
M  V30 6964 H 659.965 0.286842 6.09926 0
M  V30 6965 H 661.379 2.37946 5.21588 0
M  V30 6966 H 659.776 3.16216 5.10027 0
M  V30 6967 H 660.846 3.14968 3.68678 0
M  V30 6968 N 662.189 -1.289 0.906776 0
M  V30 6969 C 663.119 -2.29932 0.406659 0
M  V30 6970 C 664.1 -1.6189 -0.522061 0
M  V30 6971 O 665.285 -1.8935 -0.431283 0
M  V30 6972 C 662.415 -3.45425 -0.360366 0
M  V30 6973 C 661.369 -4.25316 0.478574 0
M  V30 6974 C 660.695 -5.33076 -0.416373 0
M  V30 6975 C 661.995 -4.92739 1.7322 0
M  V30 6976 H 663.689 -2.72013 1.25097 0
M  V30 6977 H 661.235 -1.30768 0.602977 0
M  V30 6978 H 663.188 -4.15186 -0.721029 0
M  V30 6979 H 661.912 -3.02206 -1.23852 0
M  V30 6980 H 660.571 -3.57273 0.821662 0
M  V30 6981 H 660.219 -4.86101 -1.29287 0
M  V30 6982 H 659.919 -5.8743 0.141309 0
M  V30 6983 H 661.443 -6.05686 -0.773072 0
M  V30 6984 H 662.857 -5.54898 1.44086 0
M  V30 6985 H 661.254 -5.57057 2.23175 0
M  V30 6986 H 662.324 -4.17625 2.46408 0
M  V30 6987 N 663.667 -0.670007 -1.42649 0
M  V30 6988 C 664.63 0.00204659 -2.292 0
M  V30 6989 C 665.63 0.733817 -1.4308 0
M  V30 6990 O 666.82 0.57254 -1.64522 0
M  V30 6991 C 663.952 1.01359 -3.25483 0
M  V30 6992 H 665.145 -0.759696 -2.90118 0
M  V30 6993 H 662.698 -0.432105 -1.50208 0
M  V30 6994 H 663.433 1.80399 -2.69493 0
M  V30 6995 H 663.218 0.492323 -3.88997 0
M  V30 6996 H 664.708 1.4824 -3.90403 0
M  V30 6997 N 665.145 1.52092 -0.413018 0
M  V30 6998 C 666.373 2.06274 0.160881 0
M  V30 6999 C 666.788 1.28273 1.38533 0
M  V30 7000 O 666.145 0.33563 1.79387 0
M  V30 7001 C 666.196 3.57921 0.507443 0
M  V30 7002 O 665.917 4.32971 -0.668388 0
M  V30 7003 C 667.418 4.28533 1.13465 0
M  V30 7004 H 664.638 0.67074 0.0186759 0
M  V30 7005 H 667.182 1.95951 -0.585092 0
M  V30 7006 H 665.337 3.68238 1.20331 0
M  V30 7007 H 665.751 5.23135 -0.378169 0
M  V30 7008 H 667.225 5.35804 1.32732 0
M  V30 7009 H 667.702 3.85258 2.10886 0
M  V30 7010 H 668.308 4.22595 0.478876 0
M  V30 7011 N 666.623 0.143563 1.56945 0
M  V30 7012 C 668.034 -0.37783 1.82837 0
M  V30 7013 C 668.385 -1.64967 1.06209 0
M  V30 7014 O 667.51 -2.14221 0.306291 0
M  V30 7015 C 668.105 -0.692274 3.31652 0
M  V30 7016 C 666.664 -1.1582 3.58138 0
M  V30 7017 C 665.811 -0.17951 2.76718 0
M  V30 7018 H 668.762 0.368317 1.54367 0
M  V30 7019 H 668.783 -1.54729 3.47619 0
M  V30 7020 H 668.295 0.233572 3.87397 0
M  V30 7021 H 666.396 -2.10011 3.07776 0
M  V30 7022 H 666.509 -1.08655 4.66616 0
M  V30 7023 H 664.873 -0.671458 2.4569 0
M  V30 7024 H 665.656 0.739865 3.35233 0
M  V30 7025 N 668.101 -1.57061 -0.130224 0
M  V30 7026 C 669.064 -1.98593 -1.14426 0
M  V30 7027 C 670.064 -0.874584 -1.34936 0
M  V30 7028 O 671.254 -1.14086 -1.31643 0
M  V30 7029 C 668.386 -2.31639 -2.50112 0
M  V30 7030 H 669.579 -2.89374 -0.787561 0
M  V30 7031 H 667.132 -1.51756 -0.374146 0
M  V30 7032 H 667.867 -1.43703 -2.90723 0
M  V30 7033 H 667.652 -3.12684 -2.36583 0
M  V30 7034 H 669.142 -2.64551 -3.23114 0
M  V30 7035 N 669.579 0.400081 -1.52437 0
M  V30 7036 C 670.509 1.4947 -1.7939 0
M  V30 7037 C 671.49 1.57383 -0.645329 0
M  V30 7038 O 672.675 1.72511 -0.891826 0
M  V30 7039 C 669.805 2.87201 -1.95276 0
M  V30 7040 C 668.759 2.94134 -3.10917 0
M  V30 7041 C 668.085 4.34207 -3.1204 0
M  V30 7042 C 669.385 2.64791 -4.50203 0
M  V30 7043 H 671.079 1.27165 -2.71052 0
M  V30 7044 H 668.625 0.610312 -1.30427 0
M  V30 7045 H 670.578 3.63772 -2.12715 0
M  V30 7046 H 669.302 3.10819 -1.00294 0
M  V30 7047 H 667.961 2.20009 -2.93243 0
M  V30 7048 H 667.609 4.54848 -2.14761 0
M  V30 7049 H 667.309 4.39768 -3.89715 0
M  V30 7050 H 668.833 5.127 -3.31619 0
M  V30 7051 H 670.247 3.31083 -4.68035 0
M  V30 7052 H 668.644 2.81717 -5.29864 0
M  V30 7053 H 669.714 1.60184 -4.57678 0
M  V30 7054 N 671.057 1.43213 0.657864 0
M  V30 7055 C 672.334 1.35063 1.41483 0
M  V30 7056 C 672.714 -0.0038314 2.111 0
M  V30 7057 O 672.062 -1.02018 2.04462 0
M  V30 7058 C 672.272 2.53061 2.40335 0
M  V30 7059 C 673.62 2.9594 3.04474 0
M  V30 7060 O 674.644 2.53074 2.50663 0
M  V30 7061 O 673.503 3.70184 4.02027 0
M  V30 7062 H 670.597 0.533517 0.631893 0
M  V30 7063 H 673.143 1.55253 0.685162 0
M  V30 7064 H 671.915 3.43283 1.87809 0
M  V30 7065 H 671.538 2.34945 3.20759 0
M  V30 7066 N 672.536 -0.895792 1.29666 0
M  V30 7067 C 673.499 -1.98189 1.15124 0
M  V30 7068 C 674.499 -1.60572 0.0855717 0
M  V30 7069 O 675.689 -1.70991 0.332826 0
M  V30 7070 C 672.821 -3.32289 0.761372 0
M  V30 7071 H 674.014 -2.12518 2.11603 0
M  V30 7072 H 671.567 -1.0808 1.12908 0
M  V30 7073 H 672.302 -3.23662 -0.203393 0
M  V30 7074 H 672.087 -3.60958 1.53139 0
M  V30 7075 H 673.577 -4.1198 0.682792 0
M  V30 7076 N 674.014 -1.12206 -1.10668 0
M  V30 7077 C 675.26 -0.877172 -1.82848 0
M  V30 7078 C 675.593 0.595571 -1.84842 0
M  V30 7079 O 674.868 1.44013 -1.30731 0
M  V30 7080 C 675.151 -1.44957 -3.29635 0
M  V30 7081 C 675.004 -2.99051 -3.35989 0
M  V30 7082 C 676.323 -1.10714 -4.25946 0
M  V30 7083 H 673.442 -0.320103 -0.663854 0
M  V30 7084 H 676.084 -1.38827 -1.2972 0
M  V30 7085 H 674.234 -1.01488 -3.7501 0
M  V30 7086 H 675.906 -3.51182 -2.99113 0
M  V30 7087 H 674.149 -3.34705 -2.75962 0
M  V30 7088 H 674.82 -3.34194 -4.39339 0
M  V30 7089 H 677.296 -1.48254 -3.88793 0
M  V30 7090 H 676.172 -1.5343 -5.2702 0
M  V30 7091 H 676.433 -0.019 -4.42096 0
M  V30 7092 N 675.492 1.28418 -0.913599 0
M  V30 7093 C 676.739 1.94981 -0.546674 0
M  V30 7094 C 677.067 1.7192 0.909606 0
M  V30 7095 O 676.322 1.03314 1.66207 0
M  V30 7096 C 676.621 3.48283 -0.802099 0
M  V30 7097 C 676.287 3.91444 -2.2379 0
M  V30 7098 C 674.949 4.02939 -2.63046 0
M  V30 7099 C 677.301 4.13542 -3.17227 0
M  V30 7100 C 674.629 4.3391 -3.94891 0
M  V30 7101 C 676.981 4.45992 -4.48636 0
M  V30 7102 C 675.645 4.55698 -4.87746 0
M  V30 7103 H 674.915 0.713487 -0.200042 0
M  V30 7104 H 677.562 1.52756 -1.15489 0
M  V30 7105 H 675.867 3.91643 -0.111076 0
M  V30 7106 H 677.564 3.97903 -0.497375 0
M  V30 7107 H 674.154 3.83024 -1.9233 0
M  V30 7108 H 678.338 4.04114 -2.88107 0
M  V30 7109 H 673.594 4.39631 -4.24894 0
M  V30 7110 H 677.768 4.62038 -5.21051 0
M  V30 7111 H 675.395 4.79451 -5.89942 0
M  V30 7112 N 676.97 0.677563 1.42291 0
M  V30 7113 C 678.198 0.209459 2.05837 0
M  V30 7114 C 678.613 -1.13444 1.50917 0
M  V30 7115 O 677.97 -1.70529 0.65008 0
M  V30 7116 C 678.021 0.138819 3.61233 0
M  V30 7117 O 677.742 1.42962 4.14118 0
M  V30 7118 C 679.243 -0.352449 4.41897 0
M  V30 7119 H 676.463 0.101209 0.663323 0
M  V30 7120 H 679.007 0.925077 1.8238 0
M  V30 7121 H 677.162 -0.527505 3.83792 0
M  V30 7122 H 677.576 1.3048 5.08011 0
M  V30 7123 H 679.05 -0.350778 5.50884 0
M  V30 7124 H 679.527 -1.3882 4.16684 0
M  V30 7125 H 680.133 0.282236 4.24362 0
M  V30 7126 N 678.448 -1.51871 0.421078 0
M  V30 7127 C 679.725 -1.9447 -0.20993 0
M  V30 7128 C 680.105 -1.35875 -1.61558 0
M  V30 7129 O 679.453 -0.539294 -2.22045 0
M  V30 7130 C 679.663 -3.48402 -0.204165 0
M  V30 7131 C 681.011 -4.2254 -0.417696 0
M  V30 7132 O 682.035 -3.55074 -0.282999 0
M  V30 7133 O 680.894 -5.422 -0.684239 0
M  V30 7134 H 677.988 -0.815283 -0.138718 0
M  V30 7135 H 680.534 -1.62832 0.477884 0
M  V30 7136 H 679.306 -3.83464 0.779183 0
M  V30 7137 H 678.929 -3.86436 -0.935576 0
M  V30 7138 N 679.926 -0.151884 -1.56866 0
M  V30 7139 C 680.856 0.781943 -2.20018 0
M  V30 7140 C 681.837 1.25347 -1.14987 0
M  V30 7141 O 683.022 1.31015 -1.43348 0
M  V30 7142 C 680.152 2.01928 -2.82564 0
M  V30 7143 C 679.106 1.68434 -3.93464 0
M  V30 7144 C 678.432 2.99472 -4.42968 0
M  V30 7145 C 679.732 0.927244 -5.14003 0
M  V30 7146 H 681.426 0.255607 -2.98307 0
M  V30 7147 H 678.972 0.121502 -1.43486 0
M  V30 7148 H 680.925 2.67741 -3.25411 0
M  V30 7149 H 679.649 2.56943 -2.01614 0
M  V30 7150 H 678.308 1.04998 -3.51242 0
M  V30 7151 H 677.956 3.52488 -3.58834 0
M  V30 7152 H 677.656 2.77823 -5.17772 0
M  V30 7153 H 679.18 3.66348 -4.88489 0
M  V30 7154 H 680.594 1.48756 -5.53665 0
M  V30 7155 H 678.991 0.810513 -5.94601 0
M  V30 7156 H 680.061 -0.0801163 -4.84834 0
M  V30 7157 N 681.404 1.57128 0.121893 0
M  V30 7158 C 682.314 2.03425 1.16857 0
M  V30 7159 C 683.33 0.954108 1.45509 0
M  V30 7160 O 684.506 1.26541 1.56682 0
M  V30 7161 C 681.571 2.42685 2.47599 0
M  V30 7162 C 680.632 3.64767 2.2637 0
M  V30 7163 C 679.865 4.02145 3.50878 0
M  V30 7164 O 680.088 3.39897 4.58068 0
M  V30 7165 O 679.022 4.95262 3.42051 0
M  V30 7166 H 682.848 2.92825 0.80544 0
M  V30 7167 H 680.433 1.45654 0.332477 0
M  V30 7168 H 682.315 2.68684 3.24634 0
M  V30 7169 H 680.99 1.56432 2.83392 0
M  V30 7170 H 679.897 3.43922 1.47203 0
M  V30 7171 H 681.23 4.51716 1.95482 0
M  V30 7172 N 682.882 -0.391992 1.52647 0
M  V30 7173 C 684.131 -1.13449 1.6677 0
M  V30 7174 C 684.444 -1.91203 0.412399 0
M  V30 7175 O 685.65 -2.68013 0.433707 0
M  V30 7176 C 684.106 -2.06577 2.9471 0
M  V30 7177 C 683.714 -1.3426 4.27409 0
M  V30 7178 C 685.458 -2.80981 3.18198 0
M  V30 7179 C 683.365 -2.26136 5.46458 0
M  V30 7180 H 682.295 -0.427211 0.621295 0
M  V30 7181 H 684.946 -0.397522 1.79142 0
M  V30 7182 H 683.328 -2.83898 2.76076 0
M  V30 7183 H 684.502 -0.621856 4.56585 0
M  V30 7184 H 682.817 -0.718279 4.10158 0
M  V30 7185 H 685.414 -3.49898 4.04321 0
M  V30 7186 H 685.757 -3.44891 2.33144 0
M  V30 7187 H 686.29 -2.10754 3.37383 0
M  V30 7188 H 683.029 -1.66846 6.33911 0
M  V30 7189 H 682.549 -2.96134 5.21598 0
M  V30 7190 H 684.228 -2.86286 5.80215 0
M  V30 7191 N 684.36 -1.4356 -0.65026 0
M  V30 7192 C 685.29 -1.51758 -1.77459 0
M  V30 7193 C 686.271 -0.372019 -1.65982 0
M  V30 7194 O 687.456 -0.589627 -1.85033 0
M  V30 7195 C 684.586 -1.44302 -3.15902 0
M  V30 7196 C 683.54 -2.57138 -3.42146 0
M  V30 7197 C 682.866 -2.34735 -4.8042 0
M  V30 7198 C 684.166 -3.99373 -3.36598 0
M  V30 7199 H 685.86 -2.45863 -1.70855 0
M  V30 7200 H 683.406 -1.18333 -0.820566 0
M  V30 7201 H 685.359 -1.48641 -3.94314 0
M  V30 7202 H 684.083 -0.467026 -3.23244 0
M  V30 7203 H 682.742 -2.52157 -2.66106 0
M  V30 7204 H 682.39 -1.35372 -4.84441 0
M  V30 7205 H 682.09 -3.10375 -4.9894 0
M  V30 7206 H 683.614 -2.40862 -5.61086 0
M  V30 7207 H 685.028 -4.05826 -4.04942 0
M  V30 7208 H 683.425 -4.75063 -3.66654 0
M  V30 7209 H 684.495 -4.243 -2.34729 0
M  V30 7210 N 685.838 0.888903 -1.30139 0
M  V30 7211 C 686.801 1.97576 -1.16174 0
M  V30 7212 C 687.801 1.60525 -0.094086 0
M  V30 7213 O 688.991 1.70812 -0.341889 0
M  V30 7214 C 686.123 3.3188 -0.778983 0
M  V30 7215 H 687.316 2.11393 -2.12728 0
M  V30 7216 H 684.869 1.0748 -1.1348 0
M  V30 7217 H 685.604 3.23765 0.186225 0
M  V30 7218 H 685.389 3.60141 -1.55051 0
M  V30 7219 H 686.879 4.11612 -0.704631 0
M  V30 7220 N 687.317 1.12792 1.10072 0
M  V30 7221 C 688.28 0.802264 2.14701 0
M  V30 7222 C 689.28 -0.18515 1.59731 0
M  V30 7223 O 690.47 0.041109 1.74151 0
M  V30 7224 C 687.602 0.19285 3.40354 0
M  V30 7225 H 688.795 1.72932 2.45019 0
M  V30 7226 H 686.348 0.931662 1.25498 0
M  V30 7227 H 687.083 -0.743748 3.15656 0
M  V30 7228 H 686.868 0.903827 3.81541 0
M  V30 7229 H 688.358 -0.0183704 4.17596 0
M  V30 7230 N 688.795 -1.27931 0.920396 0
M  V30 7231 C 689.725 -2.29487 0.431024 0
M  V30 7232 C 690.706 -1.62435 -0.504861 0
M  V30 7233 O 691.891 -1.89797 -0.411176 0
M  V30 7234 C 689.021 -3.45788 -0.323709 0
M  V30 7235 C 687.975 -4.24784 0.523658 0
M  V30 7236 C 687.301 -5.33488 -0.359809 0
M  V30 7237 C 688.601 -4.90874 1.78437 0
M  V30 7238 H 690.295 -2.70671 1.27975 0
M  V30 7239 H 687.841 -1.30121 0.616813 0
M  V30 7240 H 689.794 -4.15927 -0.676952 0
M  V30 7241 H 688.518 -3.03502 -1.2064 0
M  V30 7242 H 687.177 -3.56382 0.85951 0
M  V30 7243 H 686.825 -4.87445 -1.24124 0
M  V30 7244 H 686.525 -5.87247 0.203605 0
M  V30 7245 H 688.049 -6.06472 -0.708787 0
M  V30 7246 H 689.463 -5.53339 1.49963 0
M  V30 7247 H 687.86 -5.54659 2.29071 0
M  V30 7248 H 688.93 -4.14988 2.50824 0
M  V30 7249 N 690.273 -0.685099 -1.4193 0
M  V30 7250 C 691.52 -0.211658 -2.01391 0
M  V30 7251 C 691.848 1.18526 -1.54214 0
M  V30 7252 O 691.103 1.81189 -0.739519 0
M  V30 7253 C 691.402 -0.206154 -3.56805 0
M  V30 7254 C 691.068 -1.54915 -4.23453 0
M  V30 7255 C 689.73 -1.91684 -4.41373 0
M  V30 7256 C 692.082 -2.43317 -4.60919 0
M  V30 7257 C 689.41 -3.16461 -4.94034 0
M  V30 7258 C 691.762 -3.67415 -5.14965 0
M  V30 7259 C 690.426 -4.04341 -5.31098 0
M  V30 7260 H 689.696 -0.0774511 -0.736941 0
M  V30 7261 H 692.343 -0.882121 -1.69973 0
M  V30 7262 H 690.648 0.547841 -3.87951 0
M  V30 7263 H 692.345 0.17753 -4.00607 0
M  V30 7264 H 688.935 -1.25314 -4.09871 0
M  V30 7265 H 693.119 -2.16192 -4.46738 0
M  V30 7266 H 688.375 -3.45078 -5.04709 0
M  V30 7267 H 692.549 -4.3611 -5.42938 0
M  V30 7268 H 690.176 -5.01101 -5.71666 0
M  V30 7269 N 691.751 1.51645 -0.429126 0
M  V30 7270 C 692.714 2.26116 0.374726 0
M  V30 7271 C 693.714 1.29242 0.956714 0
M  V30 7272 O 694.904 1.53022 0.832452 0
M  V30 7273 C 692.036 3.04669 1.52937 0
M  V30 7274 H 693.229 2.9861 -0.277818 0
M  V30 7275 H 690.782 1.55236 -0.182097 0
M  V30 7276 H 691.517 2.36571 2.21821 0
M  V30 7277 H 691.302 3.75814 1.11833 0
M  V30 7278 H 692.792 3.61102 2.09751 0
M  V30 7279 N 693.229 0.160201 1.56784 0
M  V30 7280 C 694.192 -0.760405 2.16219 0
M  V30 7281 C 695.192 -1.16595 1.10735 0
M  V30 7282 O 696.382 -1.08472 1.36306 0
M  V30 7283 C 693.514 -2.03358 2.73603 0
M  V30 7284 H 694.707 -0.243173 2.98912 0
M  V30 7285 H 692.26 -0.0893139 1.56045 0
M  V30 7286 H 692.995 -2.59416 1.94612 0
M  V30 7287 H 692.78 -1.75186 3.50788 0
M  V30 7288 H 694.27 -2.69081 3.19351 0
M  V30 7289 N 694.707 -1.5719 -0.113559 0
M  V30 7290 C 695.67 -1.99796 -1.12314 0
M  V30 7291 C 696.67 -0.888847 -1.34001 0
M  V30 7292 O 697.86 -1.15476 -1.30426 0
M  V30 7293 C 694.992 -2.34279 -2.47641 0
M  V30 7294 H 696.185 -2.90193 -0.756825 0
M  V30 7295 H 693.738 -1.52144 -0.358029 0
M  V30 7296 H 694.473 -1.46778 -2.89183 0
M  V30 7297 H 694.258 -3.15175 -2.33253 0
M  V30 7298 H 695.748 -2.67963 -3.2029 0
M  V30 7299 N 696.185 0.383891 -1.52853 0
M  V30 7300 C 697.434 1.12563 -1.67369 0
M  V30 7301 C 697.747 1.90982 -0.422533 0
M  V30 7302 O 698.953 2.6778 -0.447914 0
M  V30 7303 C 697.409 2.05011 -2.95801 0
M  V30 7304 C 697.017 1.31991 -4.28115 0
M  V30 7305 C 698.761 2.79289 -3.19684 0
M  V30 7306 C 696.668 2.23235 -5.4765 0
M  V30 7307 H 695.598 0.42391 -0.623552 0
M  V30 7308 H 698.249 0.388016 -1.79351 0
M  V30 7309 H 696.631 2.82429 -2.77578 0
M  V30 7310 H 697.805 0.597633 -4.56908 0
M  V30 7311 H 696.12 0.696517 -4.10533 0
M  V30 7312 H 698.717 3.47749 -4.06171 0
M  V30 7313 H 699.06 3.43649 -2.3497 0
M  V30 7314 H 699.593 2.08962 -3.38496 0
M  V30 7315 H 696.332 1.63482 -6.34786 0
M  V30 7316 H 695.852 2.93364 -5.23161 0
M  V30 7317 H 697.531 2.83205 -5.81725 0
M  V30 7318 N 697.663 1.43903 0.642637 0
M  V30 7319 C 698.613 1.46321 1.74854 0
M  V30 7320 C 699.597 0.330361 1.57472 0
M  V30 7321 O 700.789 0.574881 1.67404 0
M  V30 7322 C 697.918 1.39919 3.13493 0
M  V30 7323 C 697.004 2.58274 3.36385 0
M  V30 7324 N 697.395 3.83578 3.29699 0
M  V30 7325 C 695.693 2.53224 3.67142 0
M  V30 7326 C 696.394 4.62375 3.52965 0
M  V30 7327 N 695.37 3.93269 3.75287 0
M  V30 7328 H 699.172 2.41062 1.68126 0
M  V30 7329 H 696.686 1.38704 0.844693 0
M  V30 7330 H 698.683 1.39735 3.92785 0
M  V30 7331 H 697.343 0.46207 3.21395 0
M  V30 7332 H 698.354 4.15713 3.08874 0
M  V30 7333 H 695.031 1.68252 3.82096 0
M  V30 7334 H 696.421 5.714 3.53485 0
M  V30 7335 N 699.141 -0.881989 1.30609 0
M  V30 7336 C 700.418 -1.61563 1.10258 0
M  V30 7337 C 700.798 -2.08228 -0.347053 0
M  V30 7338 O 700.146 -1.85151 -1.33908 0
M  V30 7339 C 700.356 -2.78287 2.10612 0
M  V30 7340 C 701.704 -3.48545 2.4249 0
M  V30 7341 O 702.728 -2.88479 2.08945 0
M  V30 7342 O 701.587 -4.56873 2.99883 0
M  V30 7343 H 698.681 -0.710238 0.423663 0
M  V30 7344 H 701.227 -0.928503 1.42045 0
M  V30 7345 H 699.999 -2.41131 3.08174 0
M  V30 7346 H 699.622 -3.54695 1.79659 0
M  V30 7347 N 700.619 -1.13374 -1.09472 0
M  V30 7348 C 701.865 -0.896516 -1.81908 0
M  V30 7349 C 702.198 0.575933 -1.85463 0
M  V30 7350 O 701.473 1.42618 -1.32251 0
M  V30 7351 C 701.756 -1.48445 -3.28079 0
M  V30 7352 C 701.609 -3.02598 -3.32798 0
M  V30 7353 C 702.928 -1.15226 -4.24748 0
M  V30 7354 H 700.047 -0.327127 -0.660422 0
M  V30 7355 H 702.689 -1.40195 -1.2824 0
M  V30 7356 H 700.839 -1.0546 -3.73912 0
M  V30 7357 H 702.511 -3.54335 -2.95372 0
M  V30 7358 H 700.754 -3.37613 -2.72397 0
M  V30 7359 H 701.425 -3.38835 -4.3577 0
M  V30 7360 H 703.901 -1.52369 -3.87199 0
M  V30 7361 H 702.777 -1.59012 -5.25363 0
M  V30 7362 H 703.038 -0.0658891 -4.42051 0
M  V30 7363 N 702.098 1.27442 -0.927168 0
M  V30 7364 C 703.375 1.89473 -0.485742 0
M  V30 7365 C 703.755 1.83922 1.03614 0
M  V30 7366 O 703.103 1.28409 1.89007 0
M  V30 7367 C 703.313 3.33417 -1.03123 0
M  V30 7368 C 704.661 4.10333 -1.0914 0
M  V30 7369 O 705.685 3.4243 -0.98082 0
M  V30 7370 O 704.544 5.31737 -1.26165 0
M  V30 7371 H 701.638 0.812124 -0.156154 0
M  V30 7372 H 704.184 1.35713 -1.01882 0
M  V30 7373 H 702.956 3.31747 -2.07508 0
M  V30 7374 H 702.579 3.94695 -0.479767 0
M  V30 7375 N 703.576 0.692616 1.41565 0
M  V30 7376 C 704.526 0.00231847 2.28 0
M  V30 7377 C 705.51 -0.755793 1.42044 0
M  V30 7378 O 706.702 -0.631772 1.65341 0
M  V30 7379 C 703.831 -0.935468 3.30309 0
M  V30 7380 C 702.917 -0.173761 4.23744 0
M  V30 7381 N 703.308 0.830872 4.98929 0
M  V30 7382 C 701.606 -0.409666 4.44115 0
M  V30 7383 C 702.307 1.28656 5.67294 0
M  V30 7384 N 701.283 0.613053 5.40132 0
M  V30 7385 H 705.085 0.772635 2.83562 0
M  V30 7386 H 702.599 0.523198 1.53741 0
M  V30 7387 H 704.596 -1.44513 3.91052 0
M  V30 7388 H 703.256 -1.70542 2.76307 0
M  V30 7389 H 704.267 1.21101 5.03542 0
M  V30 7390 H 700.944 -1.15773 4.01127 0
M  V30 7391 H 702.334 2.12006 6.37576 0
M  V30 7392 N 705.054 -1.51416 0.437162 0
M  V30 7393 C 706.465 -1.86682 -0.0260005 0
M  V30 7394 C 706.816 -1.35432 -1.4196 0
M  V30 7395 O 705.941 -0.705055 -2.04592 0
M  V30 7396 C 706.536 -3.38757 -0.0539577 0
M  V30 7397 C 705.095 -3.7356 -0.461532 0
M  V30 7398 C 704.242 -2.75134 0.345924 0
M  V30 7399 H 707.193 -1.44642 0.653013 0
M  V30 7400 H 707.214 -3.70573 -0.863478 0
M  V30 7401 H 706.726 -3.76028 0.96045 0
M  V30 7402 H 704.827 -3.41878 -1.48155 0
M  V30 7403 H 704.94 -4.78737 -0.186451 0
M  V30 7404 H 703.304 -2.53947 -0.195739 0
M  V30 7405 H 704.087 -3.15247 1.35921 0
M  V30 7406 N 706.532 -0.168513 -1.56696 0
M  V30 7407 C 707.78 0.476216 -1.96409 0
M  V30 7408 C 708.101 1.63968 -1.05544 0
M  V30 7409 O 707.371 1.95525 -0.121235 0
M  V30 7410 H 705.951 0.178921 -0.725256 0
M  V30 7411 H 708.613 -0.249042 -1.93302 0
M  V30 7412 H 707.709 0.838094 -3.00637 0
M  V30 7413 N 708.01 1.57248 0.105221 0
M  V30 7414 C 709.256 1.85845 0.811753 0
M  V30 7415 C 709.589 0.756219 1.78871 0
M  V30 7416 O 708.864 -0.236736 1.93054 0
M  V30 7417 C 709.147 3.25059 1.54947 0
M  V30 7418 C 709 4.45898 0.591185 0
M  V30 7419 C 710.319 3.6203 2.50245 0
M  V30 7420 H 707.438 0.675973 0.293649 0
M  V30 7421 H 710.08 1.89849 0.0756269 0
M  V30 7422 H 708.23 3.21776 2.17698 0
M  V30 7423 H 709.902 4.61291 -0.0285352 0
M  V30 7424 H 708.145 4.33693 -0.0962343 0
M  V30 7425 H 708.816 5.40009 1.1443 0
M  V30 7426 H 711.292 3.66192 1.97593 0
M  V30 7427 H 710.168 4.60389 2.98886 0
M  V30 7428 H 710.429 2.90176 3.33542 0
M  V30 7429 N 709.488 -0.375779 1.53054 0
M  V30 7430 C 710.713 -1.14484 1.7294 0
M  V30 7431 C 711.138 -1.82572 0.452668 0
M  V30 7432 O 710.496 -1.71343 -0.592567 0
M  V30 7433 C 710.544 -2.15857 2.88857 0
M  V30 7434 O 709.648 -3.22725 2.56753 0
M  V30 7435 H 708.989 -0.332666 0.574656 0
M  V30 7436 H 711.519 -0.436025 1.999 0
M  V30 7437 H 711.529 -2.59631 3.14731 0
M  V30 7438 H 710.204 -1.65689 3.81471 0
M  V30 7439 H 708.781 -2.83996 2.41663 0
M  V30 7440 N 710.966 -1.44241 -0.634997 0
M  V30 7441 C 711.914 -1.51103 -1.76835 0
M  V30 7442 C 712.908 -0.383051 -1.65012 0
M  V30 7443 O 714.114 -0.557832 -1.71138 0
M  V30 7444 H 710.489 -0.474076 -0.583743 0
M  V30 7445 H 712.46 -2.46499 -1.68169 0
M  V30 7446 C 711.209 -1.4687 -3.15158 0
M  V30 7447 H 710.532 -2.32979 -3.24901 0
M  V30 7448 H 711.972 -1.55731 -3.94365 0
M  V30 7449 C 710.431 -0.188884 -3.3637 0
M  V30 7450 O 710.961 0.742487 -3.94778 0
M  V30 7451 N 709.167 -0.0932516 -2.9045 0
M  V30 7452 H 708.714 -0.852004 -2.43102 0
M  V30 7453 H 708.672 0.762308 -3.05018 0
M  V30 7454 N 712.444 0.87505 -1.31075 0
M  V30 7455 C 713.376 1.98773 -1.14114 0
M  V30 7456 C 714.389 1.62595 -0.0816119 0
M  V30 7457 O 715.578 1.75449 -0.32861 0
M  V30 7458 C 712.678 3.31159 -0.720224 0
M  V30 7459 C 711.851 3.9571 -1.86366 0
M  V30 7460 C 710.91 5.06407 -1.42965 0
M  V30 7461 O 709.936 5.27501 -2.13848 0
M  V30 7462 N 711.138 5.79649 -0.314194 0
M  V30 7463 H 713.903 2.1387 -2.09951 0
M  V30 7464 H 711.464 1.04873 -1.23342 0
M  V30 7465 H 713.456 4.0259 -0.412687 0
M  V30 7466 H 712.026 3.12257 0.146396 0
M  V30 7467 H 711.246 3.17324 -2.33879 0
M  V30 7468 H 712.534 4.35576 -2.62966 0
M  V30 7469 H 711.932 5.65025 0.276228 0
M  V30 7470 H 710.489 6.51766 -0.0661641 0
M  V30 7471 N 713.922 1.13953 1.08869 0
M  V30 7472 C 715.169 0.90481 1.81161 0
M  V30 7473 C 715.497 -0.568824 1.85996 0
M  V30 7474 O 714.752 -1.43723 1.32823 0
M  V30 7475 C 715.051 1.44495 3.26888 0
M  V30 7476 C 714.717 2.93641 3.42178 0
M  V30 7477 C 713.379 3.34361 3.46059 0
M  V30 7478 C 715.731 3.89568 3.46246 0
M  V30 7479 C 713.059 4.69681 3.51592 0
M  V30 7480 C 715.411 5.2474 3.53314 0
M  V30 7481 C 714.075 5.64979 3.55465 0
M  V30 7482 H 713.345 0.331094 0.662916 0
M  V30 7483 H 715.992 1.42242 1.28217 0
M  V30 7484 H 714.297 0.848169 3.82509 0
M  V30 7485 H 715.994 1.23934 3.81368 0
M  V30 7486 H 712.584 2.61156 3.39846 0
M  V30 7487 H 716.768 3.59192 3.42483 0
M  V30 7488 H 712.024 5.00224 3.51547 0
M  V30 7489 H 716.198 5.98882 3.55406 0
M  V30 7490 H 713.825 6.69821 3.59505 0
M  V30 7491 N 715.4 -1.26948 0.933913 0
M  V30 7492 C 716.33 -2.29017 0.45534 0
M  V30 7493 C 717.311 -1.62961 -0.487605 0
M  V30 7494 O 718.496 -1.90223 -0.391022 0
M  V30 7495 C 715.626 -3.46112 -0.287015 0
M  V30 7496 C 714.58 -4.24205 0.568682 0
M  V30 7497 C 713.906 -5.3384 -0.303206 0
M  V30 7498 C 715.206 -4.88954 1.83633 0
M  V30 7499 H 716.9 -2.69298 1.30839 0
M  V30 7500 H 714.446 -1.29459 0.630579 0
M  V30 7501 H 716.399 -4.16622 -0.6328 0
M  V30 7502 H 715.123 -3.04765 -1.17414 0
M  V30 7503 H 713.782 -3.5545 0.897261 0
M  V30 7504 H 713.43 -4.88734 -1.18947 0
M  V30 7505 H 713.13 -5.86998 0.265879 0
M  V30 7506 H 714.654 -6.0719 -0.644423 0
M  V30 7507 H 716.068 -5.51717 1.55823 0
M  V30 7508 H 714.465 -5.52198 2.34941 0
M  V30 7509 H 715.535 -4.12305 2.55211 0
M  V30 7510 N 716.879 -0.700114 -1.41195 0
M  V30 7511 C 718.128 -0.230082 -2.00383 0
M  V30 7512 C 718.441 1.17857 -1.56106 0
M  V30 7513 O 719.647 1.74631 -2.07885 0
M  V30 7514 C 718.103 -0.360447 -3.5809 0
M  V30 7515 C 717.711 -1.77475 -4.11347 0
M  V30 7516 C 719.455 0.0495799 -4.24471 0
M  V30 7517 C 717.362 -1.85653 -5.61504 0
M  V30 7518 H 716.292 -0.0822633 -0.749499 0
M  V30 7519 H 718.943 -0.868969 -1.6162 0
M  V30 7520 H 717.325 0.346768 -3.94479 0
M  V30 7521 H 718.499 -2.51109 -3.86369 0
M  V30 7522 H 716.814 -2.13486 -3.57509 0
M  V30 7523 H 719.411 0.00898219 -5.34699 0
M  V30 7524 H 719.754 1.08904 -4.01803 0
M  V30 7525 H 720.287 -0.607521 -3.93134 0
M  V30 7526 H 717.026 -2.87667 -5.89006 0
M  V30 7527 H 716.546 -1.1641 -5.88395 0
M  V30 7528 H 718.225 -1.62151 -6.26351 0
M  V30 7529 N 718.357 1.51182 -0.445186 0
M  V30 7530 C 719.305 2.29531 0.376597 0
M  V30 7531 C 720.299 1.35711 1.01385 0
M  V30 7532 O 721.505 1.53018 0.947922 0
M  V30 7533 H 717.88 0.738803 0.140267 0
M  V30 7534 H 719.851 2.96838 -0.304958 0
M  V30 7535 C 718.6 3.1552 1.4609 0
M  V30 7536 H 717.923 3.87605 0.979912 0
M  V30 7537 H 719.363 3.73384 2.009 0
M  V30 7538 C 717.822 2.31406 2.44852 0
M  V30 7539 O 718.352 1.97912 3.49562 0
M  V30 7540 N 716.558 1.94478 2.15932 0
M  V30 7541 H 716.105 2.21917 1.30808 0
M  V30 7542 H 716.063 1.38498 2.82251 0
M  V30 7543 N 719.835 0.176821 1.56605 0
M  V30 7544 C 721.063 -0.472828 2.01425 0
M  V30 7545 C 721.478 -1.56436 1.05703 0
M  V30 7546 O 720.835 -1.82405 0.058808 0
M  V30 7547 C 720.886 -1.04607 3.46034 0
M  V30 7548 O 720.607 0.00189608 4.381 0
M  V30 7549 C 722.108 -1.7734 4.06282 0
M  V30 7550 H 719.328 -0.120503 0.660091 0
M  V30 7551 H 721.872 0.280166 2.02572 0
M  V30 7552 H 720.027 -1.74953 3.45645 0
M  V30 7553 H 720.441 -0.422118 5.22799 0
M  V30 7554 H 721.915 -2.12703 5.09374 0
M  V30 7555 H 722.392 -2.67043 3.4869 0
M  V30 7556 H 722.998 -1.11623 4.10391 0
M  V30 7557 N 721.313 -1.57302 -0.09688 0
M  V30 7558 C 722.261 -2.02942 -1.13654 0
M  V30 7559 C 723.255 -0.930173 -1.41577 0
M  V30 7560 O 724.461 -1.11535 -1.41279 0
M  V30 7561 H 720.836 -0.646726 -0.383731 0
M  V30 7562 H 722.807 -2.89452 -0.725267 0
M  V30 7563 C 721.556 -2.46815 -2.44903 0
M  V30 7564 H 720.879 -3.30979 -2.24261 0
M  V30 7565 H 722.319 -2.82527 -3.16156 0
M  V30 7566 C 720.778 -1.34071 -3.09074 0
M  V30 7567 O 721.308 -0.668856 -3.96092 0
M  V30 7568 N 719.514 -1.09214 -2.69296 0
M  V30 7569 H 719.061 -1.64029 -1.98626 0
M  V30 7570 H 719.019 -0.339785 -3.12559 0
M  V30 7571 N 722.791 0.367657 -1.53252 0
M  V30 7572 C 724.016 1.13566 -1.73544 0
M  V30 7573 C 724.441 1.82329 -0.462344 0
M  V30 7574 O 723.799 1.71655 0.583472 0
M  V30 7575 C 723.847 2.14322 -2.89997 0
M  V30 7576 O 722.951 3.21359 -2.58461 0
M  V30 7577 H 722.292 0.329614 -0.576412 0
M  V30 7578 H 724.822 0.425417 -2.00128 0
M  V30 7579 H 724.832 2.57958 -3.16104 0
M  V30 7580 H 723.507 1.63664 -3.82344 0
M  V30 7581 H 722.084 2.8271 -2.43165 0
M  V30 7582 N 724.269 1.44576 0.627338 0
M  V30 7583 C 725.179 1.54232 1.76776 0
M  V30 7584 C 726.195 0.427782 1.6866 0
M  V30 7585 O 727.371 0.685671 1.89369 0
M  V30 7586 C 724.436 1.48738 3.13174 0
M  V30 7587 C 723.497 2.71074 3.32893 0
M  V30 7588 C 722.73 2.65832 4.62784 0
M  V30 7589 O 722.953 1.72048 5.43834 0
M  V30 7590 O 721.887 3.56742 4.84787 0
M  V30 7591 H 725.713 2.50586 1.71582 0
M  V30 7592 H 723.298 1.26865 0.789028 0
M  V30 7593 H 725.18 1.48211 3.94476 0
M  V30 7594 H 723.855 0.555292 3.18902 0
M  V30 7595 H 722.762 2.77168 2.51254 0
M  V30 7596 H 724.095 3.63342 3.32029 0
M  V30 7597 N 725.747 -0.868086 1.31537 0
M  V30 7598 C 726.677 -1.99131 1.21939 0
M  V30 7599 C 727.658 -1.69768 0.106166 0
M  V30 7600 O 728.843 -1.92006 0.291081 0
M  V30 7601 C 725.973 -3.34676 0.927879 0
M  V30 7602 C 724.927 -3.7835 2.00088 0
M  V30 7603 C 724.253 -5.11375 1.56203 0
M  V30 7604 C 725.553 -3.95256 3.41424 0
M  V30 7605 H 727.247 -2.07419 2.15911 0
M  V30 7606 H 724.793 -0.996569 1.03945 0
M  V30 7607 H 726.746 -4.12793 0.847327 0
M  V30 7608 H 725.47 -3.26565 -0.0475042 0
M  V30 7609 H 724.129 -3.02474 2.07135 0
M  V30 7610 H 723.777 -4.99709 0.57445 0
M  V30 7611 H 723.477 -5.41568 2.27985 0
M  V30 7612 H 725.001 -5.92001 1.49558 0
M  V30 7613 H 726.415 -4.63764 3.3704 0
M  V30 7614 H 724.812 -4.36849 4.1144 0
M  V30 7615 H 725.882 -2.98579 3.82072 0
M  V30 7616 N 727.225 -1.14528 -1.08264 0
M  V30 7617 C 728.188 -0.83632 -2.13397 0
M  V30 7618 C 729.188 0.159715 -1.60005 0
M  V30 7619 O 730.378 -0.0688098 -1.74064 0
M  V30 7620 C 727.51 -0.246973 -3.40004 0
M  V30 7621 H 728.703 -1.76808 -2.42237 0
M  V30 7622 H 726.256 -0.951509 -1.24 0
M  V30 7623 H 726.991 0.693436 -3.168 0
M  V30 7624 H 726.776 -0.964412 -3.80055 0
M  V30 7625 H 728.266 -0.0480679 -4.17572 0
M  V30 7626 N 728.703 1.26451 -0.940633 0
M  V30 7627 C 729.633 2.28773 -0.467479 0
M  V30 7628 C 730.614 1.63218 0.478955 0
M  V30 7629 O 731.799 1.90427 0.380929 0
M  V30 7630 C 728.929 3.46259 0.268656 0
M  V30 7631 C 727.883 4.23898 -0.591171 0
M  V30 7632 C 727.209 5.33993 0.274891 0
M  V30 7633 C 728.509 4.87974 -1.86223 0
M  V30 7634 H 730.203 2.68601 -1.32265 0
M  V30 7635 H 727.749 1.29123 -0.637436 0
M  V30 7636 H 729.702 4.16951 0.610696 0
M  V30 7637 H 728.426 3.05383 1.15796 0
M  V30 7638 H 727.085 3.54969 -0.916098 0
M  V30 7639 H 726.733 4.89358 1.16353 0
M  V30 7640 H 726.433 5.86849 -0.297006 0
M  V30 7641 H 727.957 6.07523 0.612213 0
M  V30 7642 H 729.371 5.50883 -1.58747 0
M  V30 7643 H 727.768 5.50945 -2.37866 0
M  V30 7644 H 728.838 4.10945 -2.57394 0
M  V30 7645 N 730.181 0.707592 1.40822 0
M  V30 7646 C 731.114 -0.000859377 2.282 0
M  V30 7647 C 732.092 -0.7758 1.42899 0
M  V30 7648 O 733.276 -0.76411 1.72318 0
M  V30 7649 C 730.403 -1.00861 3.23334 0
M  V30 7650 C 729.449 -0.32543 4.25257 0
M  V30 7651 S 730.282 0.940908 5.27169 0
M  V30 7652 C 731.438 -0.0649459 6.25866 0
M  V30 7653 H 731.671 0.740207 2.87938 0
M  V30 7654 H 729.204 0.498311 1.46138 0
M  V30 7655 H 731.162 -1.58485 3.78672 0
M  V30 7656 H 729.823 -1.72233 2.62668 0
M  V30 7657 H 729.016 -1.08697 4.92139 0
M  V30 7658 H 728.618 0.178044 3.73576 0
M  V30 7659 H 730.91 -0.914377 6.71301 0
M  V30 7660 H 731.853 0.570276 7.058 0
M  V30 7661 H 732.261 -0.425098 5.62897 0
M  V30 7662 N 731.66 -1.50943 0.453197 0
M  V30 7663 C 732.89 -2.06328 -0.105981 0
M  V30 7664 C 733.298 -1.31909 -1.35634 0
M  V30 7665 O 732.641 -0.376607 -1.79798 0
M  V30 7666 C 732.703 -3.5631 -0.477868 0
M  V30 7667 C 732.367 -4.52093 0.667925 0
M  V30 7668 C 733.364 -4.96421 1.54475 0
M  V30 7669 C 731.049 -4.95001 0.853168 0
M  V30 7670 C 733.043 -5.82346 2.59138 0
M  V30 7671 C 730.73 -5.80713 1.90305 0
M  V30 7672 C 731.728 -6.24284 2.77053 0
M  V30 7673 O 731.416 -7.08291 3.80236 0
M  V30 7674 H 731.148 -0.675986 -0.00427247 0
M  V30 7675 H 733.702 -1.95314 0.635738 0
M  V30 7676 H 731.932 -3.65163 -1.27252 0
M  V30 7677 H 733.621 -3.94138 -0.970039 0
M  V30 7678 H 734.387 -4.63953 1.41324 0
M  V30 7679 H 730.266 -4.60619 0.187482 0
M  V30 7680 H 733.81 -6.16276 3.2688 0
M  V30 7681 H 729.707 -6.12593 2.03469 0
M  V30 7682 H 730.475 -7.26504 3.77007 0
M  V30 7683 N 733.138 -0.185124 -1.56509 0
M  V30 7684 C 734.086 0.756505 -2.19954 0
M  V30 7685 C 735.08 1.22725 -1.16769 0
M  V30 7686 O 736.286 1.1913 -1.34937 0
M  V30 7687 H 732.661 0.262279 -0.704779 0
M  V30 7688 H 734.632 0.197587 -2.97745 0
M  V30 7689 C 733.381 1.96975 -2.86524 0
M  V30 7690 H 732.704 1.61658 -3.65659 0
M  V30 7691 H 734.144 2.60719 -3.34367 0
M  V30 7692 C 732.603 2.80219 -1.87027 0
M  V30 7693 O 733.133 3.77821 -1.36433 0
M  V30 7694 N 731.339 2.4551 -1.55477 0
M  V30 7695 H 730.886 1.66199 -1.96813 0
M  V30 7696 H 730.844 3.01493 -0.891597 0
M  V30 7697 N 734.616 1.57351 0.0885366 0
M  V30 7698 C 735.893 1.77449 0.822873 0
M  V30 7699 C 736.273 0.768463 1.96616 0
M  V30 7700 O 735.621 -0.201757 2.27608 0
M  V30 7701 C 735.831 3.23425 1.31137 0
M  V30 7702 C 737.179 3.86791 1.75152 0
M  V30 7703 O 738.203 3.27215 1.40745 0
M  V30 7704 O 737.062 4.91568 2.38794 0
M  V30 7705 H 734.156 0.727653 0.393002 0
M  V30 7706 H 736.702 1.69556 0.0699095 0
M  V30 7707 H 735.474 3.88188 0.49254 0
M  V30 7708 H 735.097 3.35977 2.12615 0
M  V30 7709 N 736.094 -0.359525 1.53444 0
M  V30 7710 C 737.004 -1.46445 1.83278 0
M  V30 7711 C 738.02 -1.5833 0.721629 0
M  V30 7712 O 739.196 -1.7411 1.01231 0
M  V30 7713 C 736.261 -2.81638 2.02191 0
M  V30 7714 C 735.322 -2.7923 3.26082 0
M  V30 7715 C 734.555 -4.07974 3.44082 0
M  V30 7716 O 734.778 -5.04447 2.66251 0
M  V30 7717 O 733.712 -4.13417 4.37458 0
M  V30 7718 H 737.538 -1.24156 2.77162 0
M  V30 7719 H 735.123 -0.550201 1.389 0
M  V30 7720 H 737.005 -3.61732 2.16167 0
M  V30 7721 H 735.68 -3.03892 1.11496 0
M  V30 7722 H 734.587 -1.97813 3.17523 0
M  V30 7723 H 735.92 -2.6193 4.16718 0
M  V30 7724 N 737.572 -1.44907 -0.619662 0
M  V30 7725 C 738.797 -1.52021 -1.41083 0
M  V30 7726 C 739.222 -0.14976 -1.87503 0
M  V30 7727 O 738.58 0.863303 -1.59426 0
M  V30 7728 C 738.628 -2.49911 -2.59955 0
M  V30 7729 O 737.732 -2.00857 -3.60181 0
M  V30 7730 H 737.073 -0.512912 -0.421684 0
M  V30 7731 H 739.603 -1.90149 -0.755282 0
M  V30 7732 H 739.613 -2.68323 -3.07354 0
M  V30 7733 H 738.288 -3.4945 -2.25516 0
M  V30 7734 H 736.865 -1.92265 -3.19513 0
M  V30 7735 N 739.05 0.861098 -1.31996 0
M  V30 7736 C 740.296 1.61721 -1.22369 0
M  V30 7737 C 740.629 1.93 0.215587 0
M  V30 7738 O 739.904 1.56789 1.15098 0
M  V30 7739 C 740.187 2.9417 -2.07691 0
M  V30 7740 C 740.04 2.69714 -3.59965 0
M  V30 7741 C 741.359 3.95372 -1.93312 0
M  V30 7742 H 738.478 0.586822 -0.44588 0
M  V30 7743 H 741.12 0.994788 -1.61876 0
M  V30 7744 H 739.27 3.47292 -1.74128 0
M  V30 7745 H 740.942 2.23196 -4.03709 0
M  V30 7746 H 739.185 2.03789 -3.82952 0
M  V30 7747 H 739.856 3.63996 -4.14983 0
M  V30 7748 H 742.332 3.51487 -2.22701 0
M  V30 7749 H 741.208 4.85916 -2.55298 0
M  V30 7750 H 741.469 4.32865 -0.898922 0
M  V30 7751 N 740.528 1.15101 1.07655 0
M  V30 7752 C 741.458 0.867864 2.16773 0
M  V30 7753 C 742.439 -0.180283 1.69142 0
M  V30 7754 O 743.624 -0.0353152 1.94168 0
M  V30 7755 C 740.754 0.35299 3.45501 0
M  V30 7756 C 739.708 1.33746 4.06566 0
M  V30 7757 C 739.034 0.681562 5.30338 0
M  V30 7758 C 740.334 2.7024 4.46954 0
M  V30 7759 H 742.028 1.78034 2.40716 0
M  V30 7760 H 739.574 0.857435 1.15689 0
M  V30 7761 H 741.527 0.142465 4.21159 0
M  V30 7762 H 740.251 -0.594945 3.21135 0
M  V30 7763 H 738.91 1.53429 3.32949 0
M  V30 7764 H 738.558 -0.272422 5.02262 0
M  V30 7765 H 738.258 1.33853 5.72151 0
M  V30 7766 H 739.782 0.48074 6.08705 0
M  V30 7767 H 741.196 2.5442 5.13754 0
M  V30 7768 H 739.593 3.32282 4.99709 0
M  V30 7769 H 740.663 3.26537 3.58471 0
M  V30 7770 N 742.006 -1.2595 0.947325 0
M  V30 7771 C 742.916 -2.29883 0.468079 0
M  V30 7772 C 743.932 -1.67783 -0.460975 0
M  V30 7773 O 745.108 -1.98526 -0.339006 0
M  V30 7774 C 742.173 -3.45773 -0.253315 0
M  V30 7775 C 741.234 -4.23337 0.713054 0
M  V30 7776 C 740.467 -5.33694 0.025993 0
M  V30 7777 O 740.69 -5.57853 -1.18978 0
M  V30 7778 O 739.624 -5.97724 0.70782 0
M  V30 7779 H 743.45 -2.72952 1.33156 0
M  V30 7780 H 741.035 -1.31263 0.713468 0
M  V30 7781 H 742.917 -4.16209 -0.659423 0
M  V30 7782 H 741.592 -3.04721 -1.09209 0
M  V30 7783 H 740.499 -3.55359 1.16923 0
M  V30 7784 H 741.832 -4.68154 1.51963 0
M  V30 7785 N 743.484 -0.715051 -1.40445 0
M  V30 7786 C 744.432 -0.0509974 -2.32544 0
M  V30 7787 C 745.426 0.747602 -1.52011 0
M  V30 7788 O 746.632 0.651031 -1.67814 0
M  V30 7789 H 743.007 0.00231113 -0.751996 0
M  V30 7790 H 744.978 -0.84449 -2.86201 0
M  V30 7791 C 743.727 0.857101 -3.3697 0
M  V30 7792 H 743.05 0.252 -3.99005 0
M  V30 7793 H 744.49 1.28971 -4.03909 0
M  V30 7794 C 742.949 1.98231 -2.72408 0
M  V30 7795 O 743.479 3.07309 -2.58697 0
M  V30 7796 N 741.685 1.76577 -2.308 0
M  V30 7797 H 741.232 0.878641 -2.42152 0
M  V30 7798 H 741.19 2.52043 -1.87941 0
M  V30 7799 N 744.962 1.50701 -0.461195 0
M  V30 7800 C 745.912 2.25195 0.35653 0
M  V30 7801 C 746.896 1.2838 0.96992 0
M  V30 7802 O 748.088 1.53338 0.884108 0
M  V30 7803 C 745.217 3.11471 1.44364 0
M  V30 7804 C 744.303 4.15729 0.83847 0
M  V30 7805 N 744.694 5.05788 -0.0353198 0
M  V30 7806 C 742.992 4.32133 1.1035 0
M  V30 7807 C 743.693 5.80472 -0.37774 0
M  V30 7808 N 742.669 5.43049 0.24463 0
M  V30 7809 H 746.471 2.92188 -0.316746 0
M  V30 7810 H 743.985 1.60059 -0.274725 0
M  V30 7811 H 745.982 3.63436 2.04255 0
M  V30 7812 H 744.642 2.46025 2.11901 0
M  V30 7813 H 745.653 5.16326 -0.403465 0
M  V30 7814 H 742.33 3.77908 1.77458 0
M  V30 7815 H 743.72 6.62996 -1.09024 0
M  V30 7816 N 746.441 0.193421 1.56409 0
M  V30 7817 C 747.391 -0.74089 2.15627 0
M  V30 7818 C 748.375 -1.17747 1.09656 0
M  V30 7819 O 749.567 -1.13615 1.35723 0
M  V30 7820 C 746.696 -1.96091 2.81786 0
M  V30 7821 C 745.782 -1.54531 3.94944 0
M  V30 7822 N 746.173 -0.840569 4.98767 0
M  V30 7823 C 744.471 -1.83473 4.06514 0
M  V30 7824 C 745.172 -0.632571 5.7825 0
M  V30 7825 N 744.148 -1.18078 5.30621 0
M  V30 7826 H 747.95 -0.193718 2.93261 0
M  V30 7827 H 745.464 -0.00643211 1.62399 0
M  V30 7828 H 747.461 -2.64071 3.22602 0
M  V30 7829 H 746.121 -2.51282 2.05639 0
M  V30 7830 H 747.132 -0.496218 5.15517 0
M  V30 7831 H 743.809 -2.40184 3.41493 0
M  V30 7832 H 745.199 -0.0736433 6.7186 0
M  V30 7833 N 747.919 -1.57396 -0.0801906 0
M  V30 7834 C 748.849 -2.06145 -1.09665 0
M  V30 7835 C 749.83 -0.953273 -1.40878 0
M  V30 7836 O 751.015 -1.22548 -1.50651 0
M  V30 7837 C 748.145 -2.49836 -2.41245 0
M  V30 7838 C 747.099 -3.64454 -2.24405 0
M  V30 7839 C 746.425 -3.94172 -3.61293 0
M  V30 7840 C 747.725 -4.94807 -1.67223 0
M  V30 7841 H 749.419 -2.91316 -0.691028 0
M  V30 7842 H 746.965 -1.40145 -0.330957 0
M  V30 7843 H 748.918 -2.82552 -3.12638 0
M  V30 7844 H 747.642 -1.61683 -2.83771 0
M  V30 7845 H 746.301 -3.32008 -1.55454 0
M  V30 7846 H 745.949 -3.03163 -4.01374 0
M  V30 7847 H 745.649 -4.71345 -3.50867 0
M  V30 7848 H 747.173 -4.29376 -4.3413 0
M  V30 7849 H 748.587 -5.25807 -2.28472 0
M  V30 7850 H 746.984 -5.76245 -1.67515 0
M  V30 7851 H 748.054 -4.80751 -0.632944 0
M  V30 7852 N 749.397 0.351382 -1.53633 0
M  V30 7853 C 750.36 1.41403 -1.80383 0
M  V30 7854 C 751.36 1.45963 -0.674635 0
M  V30 7855 O 752.55 1.46476 -0.942895 0
M  V30 7856 C 749.682 2.80401 -1.93876 0
M  V30 7857 H 750.875 1.18951 -2.75301 0
M  V30 7858 H 748.428 0.58533 -1.44926 0
M  V30 7859 H 749.163 3.08147 -1.01074 0
M  V30 7860 H 748.948 2.78488 -2.7602 0
M  V30 7861 H 750.438 3.57329 -2.16116 0
M  V30 7862 N 750.875 1.45233 0.611969 0
M  V30 7863 C 752.121 1.49242 1.37312 0
M  V30 7864 C 752.454 0.131963 1.93751 0
M  V30 7865 O 751.729 -0.852999 1.74798 0
M  V30 7866 C 752.012 2.56811 2.52428 0
M  V30 7867 C 751.865 4.02284 2.01215 0
M  V30 7868 C 753.184 2.60705 3.54572 0
M  V30 7869 H 750.303 0.54336 0.497925 0
M  V30 7870 H 752.945 1.77019 0.690242 0
M  V30 7871 H 751.095 2.33256 3.10683 0
M  V30 7872 H 752.767 4.37035 1.47643 0
M  V30 7873 H 751.01 4.1315 1.32248 0
M  V30 7874 H 751.681 4.7323 2.84178 0
M  V30 7875 H 754.157 2.81799 3.06151 0
M  V30 7876 H 753.033 3.37841 4.32614 0
M  V30 7877 H 753.294 1.65627 4.09903 0
M  V30 7878 N 752.353 -0.854086 1.3245 0
M  V30 7879 C 753.601 -1.60513 1.228 0
M  V30 7880 C 753.922 -1.93865 -0.210073 0
M  V30 7881 O 753.192 -1.59673 -1.13496 0
M  V30 7882 H 751.772 -0.595099 0.451516 0
M  V30 7883 H 754.434 -1.0216 1.6598 0
M  V30 7884 H 753.53 -2.54182 1.81102 0
M  V30 7885 N 753.831 -1.1567 -1.07043 0
M  V30 7886 C 755.078 -0.933517 -1.79699 0
M  V30 7887 C 755.406 0.539162 -1.86878 0
M  V30 7888 O 754.661 1.41592 -1.35093 0
M  V30 7889 C 754.96 -1.49677 -3.24548 0
M  V30 7890 C 754.626 -2.99047 -3.37463 0
M  V30 7891 C 753.288 -3.39824 -3.40695 0
M  V30 7892 C 755.64 -3.95027 -3.40004 0
M  V30 7893 C 752.968 -4.75215 -3.44075 0
M  V30 7894 C 755.32 -5.30295 -3.44921 0
M  V30 7895 C 753.984 -5.70562 -3.46432 0
M  V30 7896 H 753.254 -0.341598 -0.657565 0
M  V30 7897 H 755.901 -1.44263 -1.25938 0
M  V30 7898 H 754.206 -0.908915 -3.81111 0
M  V30 7899 H 755.903 -1.29986 -3.79348 0
M  V30 7900 H 752.493 -2.6653 -3.35648 0
M  V30 7901 H 756.677 -3.64596 -3.36725 0
M  V30 7902 H 751.933 -5.05754 -3.43545 0
M  V30 7903 H 756.107 -6.0446 -3.45833 0
M  V30 7904 H 753.734 -6.75456 -3.48803 0
M  V30 7905 N 755.309 1.25446 -0.953992 0
M  V30 7906 C 756.256 2.25912 -0.472485 0
M  V30 7907 C 757.226 1.59173 0.47469 0
M  V30 7908 O 758.411 1.86812 0.388082 0
M  V30 7909 C 755.551 3.44235 0.244218 0
M  V30 7910 C 754.664 4.25613 -0.740121 0
M  V30 7911 C 753.799 5.312 -0.000922267 0
M  V30 7912 C 752.838 6.04265 -0.976236 0
M  V30 7913 N 751.975 7.01589 -0.267952 0
M  V30 7914 H 756.815 2.66469 -1.3341 0
M  V30 7915 H 754.352 1.31005 -0.669045 0
M  V30 7916 H 756.31 4.11682 0.676314 0
M  V30 7917 H 754.94 3.04554 1.06988 0
M  V30 7918 H 753.992 3.57834 -1.2907 0
M  V30 7919 H 755.304 4.762 -1.48441 0
M  V30 7920 H 754.458 6.04719 0.48984 0
M  V30 7921 H 753.197 4.81484 0.776159 0
M  V30 7922 H 752.202 5.29561 -1.478 0
M  V30 7923 H 753.427 6.5607 -1.75354 0
M  V30 7924 H 751.373 6.54164 0.490403 0
M  V30 7925 H 751.29 7.4999 -0.951344 0
M  V30 7926 H 752.558 7.7924 0.201294 0
M  V30 7927 N 756.787 0.722489 1.40064 0
M  V30 7928 C 757.717 0.0892452 2.33329 0
M  V30 7929 C 758.698 -0.737992 1.53257 0
M  V30 7930 O 759.883 -0.685516 1.81698 0
M  V30 7931 C 757.013 -0.828139 3.37282 0
M  V30 7932 C 755.967 -0.106005 4.27869 0
M  V30 7933 C 755.293 -1.13957 5.22415 0
M  V30 7934 C 756.593 1.04395 5.11761 0
M  V30 7935 H 758.287 0.868269 2.86534 0
M  V30 7936 H 755.833 0.418982 1.3777 0
M  V30 7937 H 757.786 -1.28058 4.01471 0
M  V30 7938 H 756.51 -1.63914 2.82489 0
M  V30 7939 H 755.169 0.326683 3.65142 0
M  V30 7940 H 754.817 -1.9438 4.63924 0
M  V30 7941 H 754.517 -0.661233 5.83868 0
M  V30 7942 H 756.041 -1.59197 5.89482 0
M  V30 7943 H 757.455 0.670541 5.69365 0
M  V30 7944 H 755.852 1.4511 5.82291 0
M  V30 7945 H 756.922 1.87144 4.47331 0
M  V30 7946 N 758.265 -1.50454 0.469181 0
M  V30 7947 C 759.195 -2.31353 -0.31592 0
M  V30 7948 C 760.176 -1.38172 -0.992094 0
M  V30 7949 O 761.361 -1.67093 -0.989633 0
M  V30 7950 C 758.491 -3.1786 -1.39937 0
M  V30 7951 C 757.445 -4.19578 -0.844909 0
M  V30 7952 C 756.771 -4.9481 -2.0265 0
M  V30 7953 C 758.071 -5.22106 0.142499 0
M  V30 7954 H 759.765 -2.97237 0.359269 0
M  V30 7955 H 757.311 -1.42942 0.174224 0
M  V30 7956 H 759.264 -3.7325 -1.95607 0
M  V30 7957 H 757.988 -2.49858 -2.1033 0
M  V30 7958 H 756.647 -3.65285 -0.310189 0
M  V30 7959 H 756.295 -4.23282 -2.71737 0
M  V30 7960 H 755.995 -5.63613 -1.66174 0
M  V30 7961 H 757.519 -5.53035 -2.58815 0
M  V30 7962 H 758.933 -5.72378 -0.324966 0
M  V30 7963 H 757.33 -5.98618 0.421441 0
M  V30 7964 H 758.4 -4.7297 1.06901 0
M  V30 7965 N 759.743 -0.201713 -1.56304 0
M  V30 7966 C 760.675 0.748466 -2.16635 0
M  V30 7967 C 761.688 1.172 -1.12996 0
M  V30 7968 O 762.877 1.10658 -1.40061 0
M  V30 7969 C 759.977 2.02296 -2.719 0
M  V30 7970 C 759.15 1.75818 -4.00508 0
M  V30 7971 C 758.209 2.87779 -4.40533 0
M  V30 7972 O 757.235 2.57101 -5.07826 0
M  V30 7973 N 758.437 4.16287 -4.04581 0
M  V30 7974 H 761.202 0.232505 -2.98797 0
M  V30 7975 H 758.763 -0.0199822 -1.61888 0
M  V30 7976 H 760.755 2.7635 -2.95657 0
M  V30 7977 H 759.325 2.44996 -1.94154 0
M  V30 7978 H 758.545 0.855095 -3.84814 0
M  V30 7979 H 759.833 1.55532 -4.84445 0
M  V30 7980 H 759.231 4.44061 -3.50466 0
M  V30 7981 H 757.788 4.86946 -4.33274 0
M  V30 7982 N 761.222 1.57436 0.0718424 0
M  V30 7983 C 762.132 2.07039 1.10326 0
M  V30 7984 C 763.148 0.999918 1.424 0
M  V30 7985 O 764.324 1.31462 1.52577 0
M  V30 7986 C 761.389 2.50439 2.39752 0
M  V30 7987 C 760.45 3.71784 2.14651 0
M  V30 7988 C 759.683 4.13104 3.37906 0
M  V30 7989 O 759.906 3.54298 4.47023 0
M  V30 7990 O 758.84 5.05894 3.26121 0
M  V30 7991 H 762.666 2.95239 0.711872 0
M  V30 7992 H 760.251 1.46638 0.28597 0
M  V30 7993 H 762.133 2.78876 3.15921 0
M  V30 7994 H 760.808 1.65368 2.78271 0
M  V30 7995 H 759.715 3.48431 1.36187 0
M  V30 7996 H 761.048 4.57707 1.81012 0
M  V30 7997 N 762.7 -0.34323 1.53817 0
M  V30 7998 C 763.977 -1.10047 1.61706 0
M  V30 7999 C 764.357 -2.06495 0.438514 0
M  V30 8000 O 763.705 -2.21297 -0.569188 0
M  V30 8001 C 763.915 -1.81985 2.97796 0
M  V30 8002 C 765.263 -2.35717 3.53161 0
M  V30 8003 O 766.287 -1.9208 2.99973 0
M  V30 8004 O 765.146 -3.15551 4.46195 0
M  V30 8005 H 762.24 -0.506096 0.654061 0
M  V30 8006 H 764.786 -0.344697 1.66162 0
M  V30 8007 H 763.558 -1.11722 3.75012 0
M  V30 8008 H 763.181 -2.64419 2.96931 0
M  V30 8009 N 764.178 -1.45556 -0.604258 0
M  V30 8010 C 765.126 -1.5482 -1.7359 0
M  V30 8011 C 766.12 -0.417966 -1.64163 0
M  V30 8012 O 767.326 -0.594007 -1.69916 0
M  V30 8013 H 763.701 -0.486352 -0.573556 0
M  V30 8014 H 765.672 -2.5001 -1.62903 0
M  V30 8015 C 764.421 -1.53521 -3.11972 0
M  V30 8016 H 763.744 -2.39818 -3.19886 0
M  V30 8017 H 765.184 -1.64061 -3.90973 0
M  V30 8018 C 763.643 -0.260191 -3.35894 0
M  V30 8019 O 764.173 0.658582 -3.96265 0
M  V30 8020 N 762.379 -0.154839 -2.90187 0
M  V30 8021 H 761.926 -0.903378 -2.4124 0
M  V30 8022 H 761.884 0.697437 -3.06567 0
M  V30 8023 N 765.656 0.84705 -1.32902 0
M  V30 8024 C 766.896 1.61554 -1.25218 0
M  V30 8025 C 767.26 1.91141 0.18143 0
M  V30 8026 O 768.461 2.6607 0.382106 0
M  V30 8027 C 766.732 2.89553 -2.09509 0
M  V30 8028 S 768.291 3.80283 -2.18931 0
M  V30 8029 H 765.109 0.554031 -0.445613 0
M  V30 8030 H 767.711 1.00251 -1.67839 0
M  V30 8031 H 766.415 2.65776 -3.12716 0
M  V30 8032 H 765.946 3.55868 -1.67694 0
M  V30 8033 H 767.961 4.77641 -1.34438 0
M  V30 8034 N 767.134 1.16236 1.06428 0
M  V30 8035 C 768.411 0.853294 1.76006 0
M  V30 8036 C 768.791 -0.649162 2.00871 0
M  V30 8037 O 768.139 -1.59653 1.63472 0
M  V30 8038 C 768.349 1.67448 3.06206 0
M  V30 8039 C 769.697 1.8866 3.80385 0
M  V30 8040 O 770.721 1.64303 3.16043 0
M  V30 8041 O 769.58 2.29518 4.95968 0
M  V30 8042 H 766.674 0.314737 0.764767 0
M  V30 8043 H 769.22 1.26865 1.12709 0
M  V30 8044 H 767.992 2.69411 2.83784 0
M  V30 8045 H 767.615 1.25608 3.77238 0
M  V30 8046 N 768.612 -1.24939 0.960631 0
M  V30 8047 C 769.861 -1.92118 0.614298 0
M  V30 8048 C 770.174 -1.75998 -0.853474 0
M  V30 8049 O 771.38 -2.37804 -1.31003 0
M  V30 8050 C 769.836 -3.44303 1.04801 0
M  V30 8051 C 769.444 -3.69123 2.53875 0
M  V30 8052 C 771.188 -4.17375 0.774497 0
M  V30 8053 C 769.095 -5.14843 2.91016 0
M  V30 8054 H 768.025 -0.719319 0.226045 0
M  V30 8055 H 770.676 -1.41701 1.16589 0
M  V30 8056 H 769.058 -3.93715 0.42479 0
M  V30 8057 H 770.232 -3.30339 3.21267 0
M  V30 8058 H 768.547 -3.09323 2.78762 0
M  V30 8059 H 771.144 -5.24723 1.02808 0
M  V30 8060 H 771.487 -4.15294 -0.289192 0
M  V30 8061 H 772.02 -3.7389 1.35835 0
M  V30 8062 H 768.759 -5.2204 3.96427 0
M  V30 8063 H 768.279 -5.54652 2.28302 0
M  V30 8064 H 769.958 -5.83017 2.80535 0
M  V30 8065 N 770.09 -0.729906 -1.39679 0
M  V30 8066 C 771.337 -0.275622 -2.00615 0
M  V30 8067 C 771.665 1.13559 -1.57907 0
M  V30 8068 O 770.92 1.78745 -0.796789 0
M  V30 8069 C 771.219 -0.319564 -3.55968 0
M  V30 8070 C 770.885 -1.68308 -4.1831 0
M  V30 8071 C 769.547 -2.05629 -4.35052 0
M  V30 8072 C 771.899 -2.57857 -4.52945 0
M  V30 8073 C 769.227 -3.32018 -4.83716 0
M  V30 8074 C 771.579 -3.83613 -5.03015 0
M  V30 8075 C 770.243 -4.21033 -5.17965 0
M  V30 8076 H 769.513 -0.100857 -0.734104 0
M  V30 8077 H 772.16 -0.93575 -1.67081 0
M  V30 8078 H 770.465 0.42414 -3.89497 0
M  V30 8079 H 772.162 0.0499905 -4.00969 0
M  V30 8080 H 768.752 -1.3829 -4.05677 0
M  V30 8081 H 772.936 -2.30295 -4.39634 0
M  V30 8082 H 768.192 -3.6096 -4.93475 0
M  V30 8083 H 772.366 -4.53162 -5.28788 0
M  V30 8084 H 769.993 -5.19034 -5.55435 0
M  V30 8085 N 771.568 1.50203 -0.477153 0
M  V30 8086 C 772.5 2.26508 0.350239 0
M  V30 8087 C 773.513 1.32081 0.95176 0
M  V30 8088 O 774.702 1.57546 0.839139 0
M  V30 8089 C 771.802 3.0361 1.50579 0
M  V30 8090 C 770.975 4.25438 1.01595 0
M  V30 8091 C 770.034 4.84783 2.04626 0
M  V30 8092 O 769.06 5.45528 1.62442 0
M  V30 8093 N 770.262 4.72318 3.37485 0
M  V30 8094 H 773.027 2.98155 -0.30394 0
M  V30 8095 H 770.588 1.58938 -0.308289 0
M  V30 8096 H 772.58 3.4019 2.1921 0
M  V30 8097 H 771.15 2.34724 2.06455 0
M  V30 8098 H 770.37 3.93894 0.155316 0
M  V30 8099 H 771.658 5.04413 0.666694 0
M  V30 8100 H 771.056 4.24022 3.74462 0
M  V30 8101 H 769.613 5.13149 4.01897 0
M  V30 8102 N 773.046 0.209999 1.56195 0
M  V30 8103 C 773.994 -0.721416 2.2113 0
M  V30 8104 C 774.988 -1.20852 1.18706 0
M  V30 8105 O 776.194 -1.16968 1.36815 0
M  V30 8106 H 772.569 -0.251033 0.708863 0
M  V30 8107 H 774.54 -0.150193 2.98022 0
M  V30 8108 C 773.289 -1.92392 2.89621 0
M  V30 8109 H 772.612 -1.5582 3.68185 0
M  V30 8110 H 774.052 -2.55367 3.38473 0
M  V30 8111 C 772.511 -2.77208 1.91461 0
M  V30 8112 O 773.041 -3.75603 1.42426 0
M  V30 8113 N 771.247 -2.43006 1.59363 0
M  V30 8114 H 770.794 -1.63047 1.99433 0
M  V30 8115 H 770.752 -3.00036 0.939449 0
M  V30 8116 N 774.524 -1.57472 -0.0634922 0
M  V30 8117 C 775.454 -2.07297 -1.07473 0
M  V30 8118 C 776.435 -0.968162 -1.39859 0
M  V30 8119 O 777.62 -1.24139 -1.49343 0
M  V30 8120 C 774.75 -2.52381 -2.38581 0
M  V30 8121 C 773.704 -3.66813 -2.20526 0
M  V30 8122 C 773.03 -3.97982 -3.57092 0
M  V30 8123 C 774.33 -4.96553 -1.61965 0
M  V30 8124 H 776.024 -2.92033 -0.660092 0
M  V30 8125 H 773.57 -1.40488 -0.316074 0
M  V30 8126 H 775.523 -2.85852 -3.09624 0
M  V30 8127 H 774.247 -1.64684 -2.8204 0
M  V30 8128 H 772.906 -3.33639 -1.51924 0
M  V30 8129 H 772.554 -3.07403 -3.98136 0
M  V30 8130 H 772.254 -4.7504 -3.45848 0
M  V30 8131 H 773.778 -4.33956 -4.29552 0
M  V30 8132 H 775.192 -5.28201 -2.22883 0
M  V30 8133 H 773.589 -5.7799 -1.61394 0
M  V30 8134 H 774.659 -4.81396 -0.581918 0
M  V30 8135 N 776.003 0.335068 -1.53997 0
M  V30 8136 C 777.228 1.09859 -1.75914 0
M  V30 8137 C 777.653 1.81308 -0.500915 0
M  V30 8138 O 777.011 1.72854 0.54693 0
M  V30 8139 C 777.059 2.08122 -2.94478 0
M  V30 8140 O 776.163 3.15805 -2.65219 0
M  V30 8141 H 775.504 0.317313 -0.583274 0
M  V30 8142 H 778.034 0.382872 -2.00986 0
M  V30 8143 H 778.044 2.51195 -3.21504 0
M  V30 8144 H 776.719 1.55517 -3.8573 0
M  V30 8145 H 775.296 2.77489 -2.49107 0
M  V30 8146 N 777.481 1.45874 0.596531 0
M  V30 8147 C 778.428 1.55389 1.70655 0
M  V30 8148 C 779.398 0.399036 1.61236 0
M  V30 8149 O 780.583 0.61396 1.80652 0
M  V30 8150 C 777.723 1.53705 3.0898 0
M  V30 8151 C 776.836 2.79823 3.29125 0
M  V30 8152 C 775.971 2.69735 4.5762 0
M  V30 8153 C 775.01 3.90856 4.71061 0
M  V30 8154 N 774.147 3.79237 5.90867 0
M  V30 8155 H 778.987 2.50211 1.61859 0
M  V30 8156 H 776.524 1.24146 0.789069 0
M  V30 8157 H 778.482 1.50715 3.89026 0
M  V30 8158 H 777.112 0.624247 3.16706 0
M  V30 8159 H 776.164 2.92852 2.42779 0
M  V30 8160 H 777.476 3.69628 3.34927 0
M  V30 8161 H 776.63 2.64773 5.45875 0
M  V30 8162 H 775.369 1.77547 4.54234 0
M  V30 8163 H 774.374 3.96164 3.81227 0
M  V30 8164 H 775.599 4.84124 4.76236 0
M  V30 8165 H 773.545 2.89825 5.88504 0
M  V30 8166 H 773.462 4.62686 5.97877 0
M  V30 8167 H 774.73 3.78227 6.8159 0
M  V30 8168 N 778.959 -0.83999 1.33349 0
M  V30 8169 C 780.375 -1.13049 1.12659 0
M  V30 8170 C 780.575 -2.01328 -0.0832613 0
M  V30 8171 O 779.631 -2.40669 -0.763856 0
M  V30 8172 C 780.944 -1.79366 2.41347 0
M  V30 8173 C 782.492 -1.91937 2.47243 0
M  V30 8174 C 782.967 -2.6167 3.75889 0
M  V30 8175 N 784.458 -2.69184 3.76954 0
M  V30 8176 C 785.193 -3.23827 4.73206 0
M  V30 8177 N 784.689 -3.79166 5.79832 0
M  V30 8178 N 786.482 -3.22068 4.60683 0
M  V30 8179 H 778.633 -0.252432 2.10895 0
M  V30 8180 H 780.896 -0.174501 0.931801 0
M  V30 8181 H 780.602 -1.2196 3.29877 0
M  V30 8182 H 780.476 -2.79396 2.53412 0
M  V30 8183 H 782.863 -2.48498 1.59163 0
M  V30 8184 H 782.944 -0.908604 2.39119 0
M  V30 8185 H 782.588 -2.05769 4.64351 0
M  V30 8186 H 782.518 -3.63217 3.81289 0
M  V30 8187 H 785.009 -2.2994 2.99893 0
M  V30 8188 H 785.322 -4.19061 6.49313 0
M  V30 8189 H 783.667 -3.77457 5.83568 0
M  V30 8190 H 786.858 -2.78092 3.7654 0
M  V30 8191 H 787.031 -3.64351 5.35866 0
M  V30 8192 N 780.437 -1.16799 -1.0581 0
M  V30 8193 C 781.369 -0.836774 -2.13379 0
M  V30 8194 C 782.382 0.158116 -1.6203 0
M  V30 8195 O 783.571 -0.0673211 -1.78373 0
M  V30 8196 C 780.671 -0.225959 -3.38146 0
M  V30 8197 C 779.844 -1.26217 -4.18794 0
M  V30 8198 C 778.903 -0.670257 -5.21914 0
M  V30 8199 O 777.929 -1.34042 -5.53192 0
M  V30 8200 N 779.131 0.540683 -5.77977 0
M  V30 8201 H 781.896 -1.76257 -2.42391 0
M  V30 8202 H 779.457 -1.06599 -1.21853 0
M  V30 8203 H 781.449 0.18317 -4.04285 0
M  V30 8204 H 780.019 0.603494 -3.06719 0
M  V30 8205 H 779.239 -1.84729 -3.48237 0
M  V30 8206 H 780.527 -1.9613 -4.69479 0
M  V30 8207 H 779.925 1.10322 -5.54838 0
M  V30 8208 H 778.482 0.891958 -6.45668 0
M  V30 8209 N 781.915 1.24427 -0.967243 0
M  V30 8210 C 783.331 1.44684 -0.6737 0
M  V30 8211 C 783.531 1.86429 0.764625 0
M  V30 8212 O 782.587 2.00211 1.53857 0
M  V30 8213 C 783.9 2.509 -1.6574 0
M  V30 8214 C 785.448 2.64728 -1.66998 0
M  V30 8215 C 785.923 3.7414 -2.64165 0
M  V30 8216 N 787.414 3.81567 -2.62604 0
M  V30 8217 C 788.149 4.6575 -3.34462 0
M  V30 8218 N 787.645 5.54124 -4.15835 0
M  V30 8219 N 789.438 4.59827 -3.23288 0
M  V30 8220 H 781.589 0.956276 -1.89655 0
M  V30 8221 H 783.852 0.48171 -0.816492 0
M  V30 8222 H 783.558 2.27113 -2.68538 0
M  V30 8223 H 783.432 3.4905 -1.42981 0
M  V30 8224 H 785.819 2.87872 -0.649121 0
M  V30 8225 H 785.9 1.66936 -1.93819 0
M  V30 8226 H 785.544 3.51745 -3.66384 0
M  V30 8227 H 785.474 4.71444 -2.34623 0
M  V30 8228 H 787.965 3.18403 -2.03539 0
M  V30 8229 H 788.278 6.15316 -4.67553 0
M  V30 8230 H 786.623 5.53791 -4.19929 0
M  V30 8231 H 789.814 3.898 -2.59179 0
M  V30 8232 H 789.987 5.25208 -3.79553 0
M  V30 8233 N 783.393 0.737304 1.3929 0
M  V30 8234 C 784.325 0.0592106 2.29124 0
M  V30 8235 C 785.338 -0.701026 1.46934 0
M  V30 8236 O 786.527 -0.544808 1.69983 0
M  V30 8237 C 783.627 -0.940358 3.25592 0
M  V30 8238 C 782.8 -0.241163 4.36735 0
M  V30 8239 C 781.859 -1.14916 5.13498 0
M  V30 8240 O 780.885 -0.625783 5.6575 0
M  V30 8241 N 782.087 -2.47869 5.2492 0
M  V30 8242 H 784.852 0.830647 2.87959 0
M  V30 8243 H 782.413 0.586718 1.50895 0
M  V30 8244 H 784.405 -1.55046 3.73822 0
M  V30 8245 H 782.975 -1.61299 2.67771 0
M  V30 8246 H 782.195 0.549441 3.90352 0
M  V30 8247 H 783.483 0.243299 5.08218 0
M  V30 8248 H 782.881 -2.92864 4.83991 0
M  V30 8249 H 781.438 -3.03969 5.76581 0
M  V30 8250 N 784.871 -1.49948 0.485112 0
M  V30 8251 C 786.096 -2.073 -0.0645059 0
M  V30 8252 C 786.521 -1.345 -1.31497 0
M  V30 8253 O 785.879 -0.39687 -1.76903 0
M  V30 8254 C 785.927 -3.59201 -0.317304 0
M  V30 8255 O 785.031 -3.88085 -1.39514 0
M  V30 8256 H 784.372 -0.663723 0.0191822 0
M  V30 8257 H 786.902 -1.92963 0.680179 0
M  V30 8258 H 786.912 -4.04227 -0.553604 0
M  V30 8259 H 785.587 -4.11602 0.596387 0
M  V30 8260 H 784.164 -3.54885 -1.14504 0
M  V30 8261 N 786.349 -0.21828 -1.56081 0
M  V30 8262 C 787.279 0.687922 -2.23136 0
M  V30 8263 C 788.26 1.20357 -1.202 0
M  V30 8264 O 789.445 1.24817 -1.48776 0
M  V30 8265 C 786.575 1.89762 -2.90874 0
M  V30 8266 C 785.529 1.51595 -4.00254 0
M  V30 8267 C 784.855 2.80415 -4.55271 0
M  V30 8268 C 786.155 0.708404 -5.17474 0
M  V30 8269 H 787.849 0.128854 -2.99123 0
M  V30 8270 H 785.395 0.0605354 -1.43873 0
M  V30 8271 H 787.348 2.53699 -3.36474 0
M  V30 8272 H 786.072 2.4816 -2.1233 0
M  V30 8273 H 784.731 0.900058 -3.55379 0
M  V30 8274 H 784.379 3.36951 -3.73461 0
M  V30 8275 H 784.079 2.55613 -5.2909 0
M  V30 8276 H 785.603 3.453 -5.03587 0
M  V30 8277 H 787.017 1.2514 -5.59476 0
M  V30 8278 H 785.414 0.557593 -5.97504 0
M  V30 8279 H 786.484 -0.285679 -4.84058 0
M  V30 8280 N 787.827 1.57504 0.0551401 0
M  V30 8281 C 789.243 1.54236 0.410292 0
M  V30 8282 C 789.443 0.940839 1.78187 0
M  V30 8283 O 788.499 0.550541 2.46425 0
M  V30 8284 C 789.812 2.98816 0.336064 0
M  V30 8285 C 791.36 3.10236 0.415047 0
M  V30 8286 C 791.835 4.56499 0.37055 0
M  V30 8287 N 793.326 4.61199 0.43013 0
M  V30 8288 C 794.061 5.71873 0.418179 0
M  V30 8289 N 793.557 6.91864 0.360056 0
M  V30 8290 N 795.35 5.60165 0.465977 0
M  V30 8291 H 787.501 1.94965 -0.842759 0
M  V30 8292 H 789.764 0.893096 -0.317937 0
M  V30 8293 H 789.47 3.4645 -0.605429 0
M  V30 8294 H 789.344 3.59564 1.13988 0
M  V30 8295 H 791.731 2.62566 1.34697 0
M  V30 8296 H 791.812 2.52367 -0.417648 0
M  V30 8297 H 791.456 5.0483 -0.557592 0
M  V30 8298 H 791.386 5.12249 1.221 0
M  V30 8299 H 793.877 3.74857 0.478623 0
M  V30 8300 H 794.19 7.71983 0.35532 0
M  V30 8301 H 792.535 6.94233 0.326492 0
M  V30 8302 H 795.726 4.65322 0.509194 0
M  V30 8303 H 795.899 6.46413 0.453194 0
M  V30 8304 N 789.305 -0.326896 1.54172 0
M  V30 8305 C 790.252 -1.40216 1.83325 0
M  V30 8306 C 791.222 -1.51538 0.680107 0
M  V30 8307 O 792.407 -1.66811 0.926206 0
M  V30 8308 C 789.547 -2.76626 2.0633 0
M  V30 8309 C 788.66 -2.73963 3.34019 0
M  V30 8310 C 787.795 -4.02198 3.47002 0
M  V30 8311 C 786.834 -3.93828 4.68578 0
M  V30 8312 N 785.971 -5.13787 4.78506 0
M  V30 8313 H 790.811 -1.14656 2.7506 0
M  V30 8314 H 788.348 -0.555089 1.36225 0
M  V30 8315 H 790.306 -3.55922 2.17659 0
M  V30 8316 H 788.936 -3.00503 1.1789 0
M  V30 8317 H 787.988 -1.86677 3.31445 0
M  V30 8318 H 789.3 -2.6366 4.2342 0
M  V30 8319 H 788.454 -4.89923 3.57855 0
M  V30 8320 H 787.193 -4.15302 2.55687 0
M  V30 8321 H 786.198 -3.04487 4.57786 0
M  V30 8322 H 787.423 -3.82292 5.61275 0
M  V30 8323 H 785.369 -5.27403 3.90105 0
M  V30 8324 H 785.286 -5.05807 5.61868 0
M  V30 8325 H 786.554 -6.03236 4.93686 0
M  V30 8326 N 790.784 -1.46188 -0.588786 0
M  V30 8327 C 791.717 -1.508 -1.71274 0
M  V30 8328 C 792.695 -0.362635 -1.58505 0
M  V30 8329 O 793.879 -0.565899 -1.79805 0
M  V30 8330 C 791.006 -1.38082 -3.09275 0
M  V30 8331 C 790.052 -2.56723 -3.40581 0
M  V30 8332 S 790.885 -4.1911 -3.33327 0
M  V30 8333 C 792.041 -4.08891 -4.73877 0
M  V30 8334 H 792.274 -2.45895 -1.67102 0
M  V30 8335 H 789.807 -1.34 -0.767025 0
M  V30 8336 H 791.765 -1.31432 -3.88891 0
M  V30 8337 H 790.426 -0.444259 -3.10942 0
M  V30 8338 H 789.619 -2.43801 -4.41109 0
M  V30 8339 H 789.221 -2.60332 -2.68521 0
M  V30 8340 H 791.513 -3.75196 -5.64123 0
M  V30 8341 H 792.456 -5.09395 -4.91856 0
M  V30 8342 H 792.864 -3.40239 -4.50441 0
M  V30 8343 N 792.262 0.832906 -1.33792 0
M  V30 8344 C 793.508 1.59089 -1.25772 0
M  V30 8345 C 793.841 1.93414 0.174601 0
M  V30 8346 O 793.116 1.59195 1.11746 0
M  V30 8347 C 793.399 2.89699 -2.13885 0
M  V30 8348 C 793.252 2.62017 -3.65605 0
M  V30 8349 C 794.571 3.91182 -2.01654 0
M  V30 8350 H 791.69 0.577232 -0.458227 0
M  V30 8351 H 794.332 0.960227 -1.6395 0
M  V30 8352 H 792.482 3.4352 -1.81456 0
M  V30 8353 H 794.154 2.14582 -4.08353 0
M  V30 8354 H 792.397 1.95621 -3.87189 0
M  V30 8355 H 793.068 3.55112 -4.2261 0
M  V30 8356 H 795.544 3.46684 -2.30107 0
M  V30 8357 H 794.42 4.80391 -2.65548 0
M  V30 8358 H 794.681 4.30861 -0.990536 0
M  V30 8359 N 793.74 1.17359 1.05189 0
M  V30 8360 C 794.989 0.956412 1.77583 0
M  V30 8361 C 795.302 -0.516018 1.88671 0
M  V30 8362 O 796.508 -0.851401 2.57805 0
M  V30 8363 C 794.964 1.66203 3.19225 0
M  V30 8364 C 794.572 3.17299 3.16267 0
M  V30 8365 C 796.316 1.52725 3.96075 0
M  V30 8366 C 794.223 3.8055 4.52698 0
M  V30 8367 H 793.153 0.354204 0.665624 0
M  V30 8368 H 795.804 1.40612 1.17901 0
M  V30 8369 H 794.186 1.14006 3.79234 0
M  V30 8370 H 795.36 3.76431 2.65776 0
M  V30 8371 H 793.675 3.3079 2.52917 0
M  V30 8372 H 796.272 1.97351 4.96947 0
M  V30 8373 H 796.615 0.477803 4.13549 0
M  V30 8374 H 797.148 2.02139 3.42614 0
M  V30 8375 H 793.887 4.85492 4.4043 0
M  V30 8376 H 793.407 3.26206 5.03339 0
M  V30 8377 H 795.086 3.82757 5.21638 0
M  V30 8378 N 795.218 -1.23913 0.973828 0
M  V30 8379 C 796.495 -1.87539 0.555729 0
M  V30 8380 C 796.875 -1.87641 -0.967162 0
M  V30 8381 O 796.223 -1.35335 -1.84111 0
M  V30 8382 C 796.433 -3.29359 1.15427 0
M  V30 8383 C 797.781 -4.06 1.24294 0
M  V30 8384 O 798.805 -3.38554 1.10723 0
M  V30 8385 O 797.664 -5.26689 1.45813 0
M  V30 8386 H 794.758 -0.805769 0.186188 0
M  V30 8387 H 797.304 -1.31838 1.06849 0
M  V30 8388 H 796.076 -3.23817 2.19678 0
M  V30 8389 H 795.699 -3.92642 0.625925 0
M  V30 8390 N 796.696 -0.74468 -1.38897 0
M  V30 8391 C 797.629 -0.0596441 -2.28122 0
M  V30 8392 C 798.607 0.73764 -1.44906 0
M  V30 8393 O 799.791 0.718155 -1.74284 0
M  V30 8394 C 796.918 0.922533 -3.25894 0
M  V30 8395 C 795.964 0.212566 -4.2597 0
M  V30 8396 S 796.797 -1.08035 -5.24489 0
M  V30 8397 C 797.953 -0.101014 -6.25818 0
M  V30 8398 H 798.186 -0.816289 -2.85874 0
M  V30 8399 H 795.719 -0.536882 -1.44765 0
M  V30 8400 H 797.677 1.4839 -3.82741 0
M  V30 8401 H 796.338 1.65209 -2.67142 0
M  V30 8402 H 795.531 0.956106 -4.94848 0
M  V30 8403 H 795.133 -0.277029 -3.72973 0
M  V30 8404 H 797.425 0.736072 -6.7349 0
M  V30 8405 H 798.368 -0.757206 -7.0404 0
M  V30 8406 H 798.776 0.275706 -5.63826 0
M  V30 8407 N 798.174 1.49689 -0.493057 0
M  V30 8408 C 799.42 2.02727 0.0543518 0
M  V30 8409 C 799.753 1.37264 1.37376 0
M  V30 8410 O 799.028 0.505644 1.87812 0
M  V30 8411 C 799.311 3.59456 0.215226 0
M  V30 8412 C 799.164 4.35459 -1.12675 0
M  V30 8413 C 800.483 4.29511 0.959586 0
M  V30 8414 H 797.602 0.736773 0.0182786 0
M  V30 8415 H 800.244 1.78792 -0.642924 0
M  V30 8416 H 798.394 3.79981 0.809122 0
M  V30 8417 H 800.066 4.2645 -1.75891 0
M  V30 8418 H 798.309 3.9833 -1.71801 0
M  V30 8419 H 798.98 5.43454 -0.967578 0
M  V30 8420 H 801.456 4.13594 0.455977 0
M  V30 8421 H 800.332 5.38939 1.04098 0
M  V30 8422 H 800.593 3.94202 2.00144 0
M  V30 8423 N 799.652 0.226554 1.55963 0
M  V30 8424 C 800.582 -0.676079 2.23498 0
M  V30 8425 C 801.563 -1.19718 1.20837 0
M  V30 8426 O 802.748 -1.24027 1.49436 0
M  V30 8427 C 799.878 -1.88217 2.91876 0
M  V30 8428 C 798.832 -1.4947 4.01052 0
M  V30 8429 C 798.158 -2.77997 4.56751 0
M  V30 8430 C 799.458 -0.680951 5.17842 0
M  V30 8431 H 801.152 -0.112989 2.99187 0
M  V30 8432 H 798.698 -0.0529046 1.43903 0
M  V30 8433 H 800.651 -2.51911 3.37815 0
M  V30 8434 H 799.375 -2.47031 2.13643 0
M  V30 8435 H 798.034 -0.881199 3.55852 0
M  V30 8436 H 797.682 -3.34966 3.75243 0
M  V30 8437 H 797.382 -2.52803 5.30438 0
M  V30 8438 H 798.906 -3.42625 5.05411 0
M  V30 8439 H 800.32 -1.22171 5.60131 0
M  V30 8440 H 798.717 -0.525898 5.97791 0
M  V30 8441 H 799.787 0.311346 4.83899 0
M  V30 8442 N 801.13 -1.57531 -0.0467866 0
M  V30 8443 C 802.093 -2.04379 -1.03738 0
M  V30 8444 C 803.093 -0.944881 -1.3011 0
M  V30 8445 O 804.283 -1.20904 -1.25411 0
M  V30 8446 C 801.415 -2.44572 -2.37482 0
M  V30 8447 H 802.608 -2.93142 -0.633063 0
M  V30 8448 H 800.161 -1.53526 -0.293177 0
M  V30 8449 H 800.896 -1.58911 -2.82697 0
M  V30 8450 H 800.681 -3.24785 -2.19675 0
M  V30 8451 H 802.171 -2.81307 -3.08636 0
M  V30 8452 N 802.608 0.318715 -1.54344 0
M  V30 8453 C 803.836 1.0755 -1.7675 0
M  V30 8454 C 804.251 1.81543 -0.518422 0
M  V30 8455 O 803.608 1.75198 0.511078 0
M  V30 8456 C 803.659 2.06983 -2.96378 0
M  V30 8457 O 803.38 1.35995 -4.16458 0
M  V30 8458 C 804.881 2.94841 -3.31034 0
M  V30 8459 H 802.101 0.319711 -0.589937 0
M  V30 8460 H 804.645 0.363369 -2.01246 0
M  V30 8461 H 802.8 2.73724 -2.74142 0
M  V30 8462 H 803.214 2.02623 -4.83781 0
M  V30 8463 H 804.688 3.60496 -4.18027 0
M  V30 8464 H 805.165 3.62199 -2.48412 0
M  V30 8465 H 805.771 2.33656 -3.55366 0
M  V30 8466 N 804.086 1.46499 0.581025 0
M  V30 8467 C 805.363 1.42372 1.34125 0
M  V30 8468 C 805.743 0.108073 2.10823 0
M  V30 8469 O 805.091 -0.910366 2.09582 0
M  V30 8470 C 805.301 2.65445 2.26583 0
M  V30 8471 C 806.649 3.11664 2.88359 0
M  V30 8472 O 807.673 2.66006 2.36896 0
M  V30 8473 O 806.532 3.90974 3.81839 0
M  V30 8474 H 803.626 0.566262 0.602724 0
M  V30 8475 H 806.172 1.58667 0.601903 0
M  V30 8476 H 804.944 3.52756 1.69348 0
M  V30 8477 H 804.567 2.51618 3.07854 0
M  V30 8478 N 805.565 -0.825799 1.34232 0
M  V30 8479 C 806.498 -1.94155 1.19914 0
M  V30 8480 C 807.476 -1.62343 0.0914533 0
M  V30 8481 O 808.66 -1.86752 0.256082 0
M  V30 8482 C 805.787 -3.28064 0.842138 0
M  V30 8483 C 804.833 -3.78839 1.95917 0
M  V30 8484 S 805.666 -3.98943 3.57218 0
M  V30 8485 C 806.822 -5.35783 3.23554 0
M  V30 8486 H 807.055 -2.06003 2.14359 0
M  V30 8487 H 804.588 -0.981053 1.19225 0
M  V30 8488 H 806.546 -4.05434 0.642952 0
M  V30 8489 H 805.207 -3.13988 -0.0839363 0
M  V30 8490 H 804.4 -4.75771 1.66306 0
M  V30 8491 H 804.002 -3.08406 2.11569 0
M  V30 8492 H 806.294 -6.19094 2.7519 0
M  V30 8493 H 807.237 -5.70376 4.19615 0
M  V30 8494 H 807.645 -5.01158 2.5981 0
M  V30 8495 N 807.043 -1.17915 -1.04565 0
M  V30 8496 C 808.268 -0.996749 -1.81878 0
M  V30 8497 C 808.693 0.450169 -1.82634 0
M  V30 8498 O 808.051 1.32268 -1.23995 0
M  V30 8499 C 808.099 -1.55005 -3.25585 0
M  V30 8500 O 807.203 -0.76804 -4.05185 0
M  V30 8501 H 806.544 -0.353456 -0.562108 0
M  V30 8502 H 809.074 -1.56557 -1.31723 0
M  V30 8503 H 809.084 -1.57503 -3.76373 0
M  V30 8504 H 807.759 -2.60327 -3.2435 0
M  V30 8505 H 806.336 -0.81498 -3.63885 0
M  V30 8506 N 808.521 1.23394 -0.980386 0
M  V30 8507 C 809.468 2.24859 -0.520298 0
M  V30 8508 C 810.438 1.60144 0.440821 0
M  V30 8509 O 811.623 1.87593 0.348369 0
M  V30 8510 C 808.763 3.44675 0.171145 0
M  V30 8511 C 807.876 4.23947 -0.830233 0
M  V30 8512 C 807.011 5.31079 -0.113597 0
M  V30 8513 C 806.05 6.02058 -1.10419 0
M  V30 8514 N 805.187 7.00862 -0.416709 0
M  V30 8515 H 810.027 2.63579 -1.39032 0
M  V30 8516 H 807.564 1.29556 -0.696682 0
M  V30 8517 H 809.522 4.13024 0.588838 0
M  V30 8518 H 808.152 3.06755 1.00504 0
M  V30 8519 H 807.204 3.55016 -1.36631 0
M  V30 8520 H 808.516 4.72945 -1.58508 0
M  V30 8521 H 807.67 6.05622 0.36146 0
M  V30 8522 H 806.409 4.83022 0.673854 0
M  V30 8523 H 805.414 5.26307 -1.59 0
M  V30 8524 H 806.639 6.52203 -1.8923 0
M  V30 8525 H 804.585 6.55057 0.351535 0
M  V30 8526 H 804.502 7.47804 -1.11021 0
M  V30 8527 H 805.77 7.79492 0.0359606 0
M  V30 8528 N 809.999 0.752036 1.385 0
M  V30 8529 C 810.949 0.0990189 2.27785 0
M  V30 8530 C 811.933 -0.694867 1.45122 0
M  V30 8531 O 813.125 -0.561077 1.67872 0
M  V30 8532 C 810.254 -0.794531 3.33979 0
M  V30 8533 C 809.34 0.00611984 4.241 0
M  V30 8534 N 809.731 1.04174 4.94956 0
M  V30 8535 C 808.029 -0.220934 4.45452 0
M  V30 8536 C 808.73 1.52601 5.61327 0
M  V30 8537 N 807.706 0.84159 5.37046 0
M  V30 8538 H 811.508 0.892208 2.8003 0
M  V30 8539 H 809.022 0.587934 1.51384 0
M  V30 8540 H 811.019 -1.27797 3.96829 0
M  V30 8541 H 809.679 -1.58669 2.83292 0
M  V30 8542 H 810.69 1.42349 4.97953 0
M  V30 8543 H 807.367 -0.986556 4.05676 0
M  V30 8544 H 808.757 2.38857 6.2801 0
M  V30 8545 N 811.477 -1.49425 0.500989 0
M  V30 8546 C 812.41 -2.25887 -0.324087 0
M  V30 8547 C 813.388 -1.30469 -0.970388 0
M  V30 8548 O 814.572 -1.59758 -1.00049 0
M  V30 8549 C 811.699 -3.05787 -1.45643 0
M  V30 8550 C 810.745 -4.16359 -0.924508 0
M  V30 8551 S 811.578 -5.35181 0.184707 0
M  V30 8552 C 812.734 -6.18636 -0.950806 0
M  V30 8553 H 812.967 -2.95519 0.324891 0
M  V30 8554 H 810.5 -1.51723 0.286289 0
M  V30 8555 H 812.458 -3.52405 -2.10525 0
M  V30 8556 H 811.119 -2.35624 -2.07703 0
M  V30 8557 H 810.312 -4.71781 -1.77311 0
M  V30 8558 H 809.914 -3.72331 -0.352907 0
M  V30 8559 H 812.206 -6.51581 -1.85603 0
M  V30 8560 H 813.149 -7.06761 -0.435212 0
M  V30 8561 H 813.557 -5.512 -1.21813 0
M  V30 8562 N 812.955 -0.234822 -1.55841 0
M  V30 8563 C 814.183 0.397745 -2.03041 0
M  V30 8564 C 814.598 1.52405 -1.11437 0
M  V30 8565 O 813.955 1.82061 -0.126466 0
M  V30 8566 C 814.006 0.916919 -3.49678 0
M  V30 8567 O 813.727 -0.164493 -4.37791 0
M  V30 8568 C 815.228 1.62139 -4.12584 0
M  V30 8569 H 812.448 0.0959214 -0.664108 0
M  V30 8570 H 814.992 -0.355156 -2.01392 0
M  V30 8571 H 813.147 1.62004 -3.519 0
M  V30 8572 H 813.561 0.227794 -5.24005 0
M  V30 8573 H 815.035 1.93651 -5.16917 0
M  V30 8574 H 815.512 2.53918 -3.58361 0
M  V30 8575 H 816.118 0.963145 -4.14251 0
M  V30 8576 N 814.433 1.57553 0.0384317 0
M  V30 8577 C 815.363 2.0898 1.04161 0
M  V30 8578 C 816.344 0.99029 1.38301 0
M  V30 8579 O 817.529 1.26499 1.47349 0
M  V30 8580 C 814.659 2.56145 2.34536 0
M  V30 8581 C 813.613 3.70275 2.14663 0
M  V30 8582 C 812.939 4.03612 3.50715 0
M  V30 8583 C 814.239 4.99067 1.54045 0
M  V30 8584 H 815.933 2.93046 0.613548 0
M  V30 8585 H 813.479 1.40973 0.293684 0
M  V30 8586 H 815.432 2.90741 3.05037 0
M  V30 8587 H 814.156 1.6915 2.79385 0
M  V30 8588 H 812.815 3.36013 1.46597 0
M  V30 8589 H 812.463 3.13698 3.93195 0
M  V30 8590 H 812.163 4.80482 3.38247 0
M  V30 8591 H 813.687 4.40735 4.22593 0
M  V30 8592 H 815.101 5.3168 2.14451 0
M  V30 8593 H 813.498 5.80484 1.52178 0
M  V30 8594 H 814.568 4.8226 0.505259 0
M  V30 8595 N 815.911 -0.310526 1.54511 0
M  V30 8596 C 816.841 -1.38757 1.878 0
M  V30 8597 C 817.822 -1.53353 0.735991 0
M  V30 8598 O 819.007 -1.67018 0.990887 0
M  V30 8599 C 816.137 -2.75327 2.11689 0
M  V30 8600 C 815.091 -2.75506 3.27537 0
M  V30 8601 C 814.417 -4.15275 3.36824 0
M  V30 8602 C 815.717 -2.38093 4.64875 0
M  V30 8603 H 817.411 -1.11146 2.78005 0
M  V30 8604 H 814.957 -0.533232 1.33763 0
M  V30 8605 H 816.91 -3.50752 2.33562 0
M  V30 8606 H 815.634 -3.04443 1.18245 0
M  V30 8607 H 814.293 -2.02538 3.05572 0
M  V30 8608 H 813.941 -4.41553 2.40915 0
M  V30 8609 H 813.641 -4.16299 4.14692 0
M  V30 8610 H 815.165 -4.92493 3.60947 0
M  V30 8611 H 816.579 -3.03232 4.86542 0
M  V30 8612 H 814.976 -2.50345 5.45387 0
M  V30 8613 H 816.046 -1.33227 4.66239 0
M  V30 8614 N 817.389 -1.46805 -0.573248 0
M  V30 8615 C 818.352 -1.57655 -1.66366 0
M  V30 8616 C 819.352 -0.452905 -1.5429 0
M  V30 8617 O 820.542 -0.717502 -1.58737 0
M  V30 8618 C 817.674 -1.50584 -3.05839 0
M  V30 8619 H 818.867 -2.54842 -1.581 0
M  V30 8620 H 816.42 -1.34756 -0.791868 0
M  V30 8621 H 817.155 -0.547127 -3.19651 0
M  V30 8622 H 816.94 -2.32118 -3.16012 0
M  V30 8623 H 818.43 -1.61282 -3.85199 0
M  V30 8624 N 818.867 0.818669 -1.34668 0
M  V30 8625 C 820.144 1.56118 -1.17841 0
M  V30 8626 C 820.524 2.09646 0.24731 0
M  V30 8627 O 819.872 1.91329 1.24922 0
M  V30 8628 C 820.082 2.67922 -2.23649 0
M  V30 8629 C 821.43 3.36579 -2.58843 0
M  V30 8630 O 822.454 2.78182 -2.22471 0
M  V30 8631 O 821.313 4.42045 -3.21339 0
M  V30 8632 H 818.407 0.689216 -0.457067 0
M  V30 8633 H 820.953 0.859674 -1.46314 0
M  V30 8634 H 819.725 2.26153 -3.19328 0
M  V30 8635 H 819.348 3.45719 -1.96377 0
M  V30 8636 N 820.346 1.18468 1.03938 0
M  V30 8637 C 821.276 0.936389 2.13902 0
M  V30 8638 C 822.257 -0.126381 1.6963 0
M  V30 8639 O 823.442 0.0264757 1.94182 0
M  V30 8640 C 820.572 0.462729 3.44204 0
M  V30 8641 C 819.526 1.46613 4.02105 0
M  V30 8642 C 818.852 0.84994 5.27902 0
M  V30 8643 C 820.152 2.84323 4.3813 0
M  V30 8644 H 821.846 1.85602 2.3493 0
M  V30 8645 H 819.392 0.893806 1.12903 0
M  V30 8646 H 821.345 0.276382 4.20493 0
M  V30 8647 H 820.069 -0.492477 3.22866 0
M  V30 8648 H 818.728 1.63944 3.27899 0
M  V30 8649 H 818.376 -0.112493 5.02874 0
M  V30 8650 H 818.076 1.51988 5.67603 0
M  V30 8651 H 819.6 0.674152 6.06867 0
M  V30 8652 H 821.014 2.70636 5.054 0
M  V30 8653 H 819.411 3.48012 4.88884 0
M  V30 8654 H 820.481 3.37776 3.47901 0
M  V30 8655 N 821.824 -1.22873 0.986916 0
M  V30 8656 C 822.771 -2.2458 0.532215 0
M  V30 8657 C 823.741 -1.60375 -0.432322 0
M  V30 8658 O 824.926 -1.87775 -0.338416 0
M  V30 8659 C 822.066 -3.44761 -0.152864 0
M  V30 8660 C 821.179 -4.23501 0.852704 0
M  V30 8661 C 820.314 -5.31011 0.14176 0
M  V30 8662 C 819.353 -6.01464 1.1361 0
M  V30 8663 N 818.49 -7.00631 0.453871 0
M  V30 8664 H 823.33 -2.62838 1.40428 0
M  V30 8665 H 820.867 -1.29185 0.703543 0
M  V30 8666 H 822.825 -4.1333 -0.566926 0
M  V30 8667 H 821.455 -3.07284 -0.988756 0
M  V30 8668 H 820.507 -3.54286 1.38512 0
M  V30 8669 H 821.819 -4.72097 1.61014 0
M  V30 8670 H 820.973 -6.05805 -0.329337 0
M  V30 8671 H 819.712 -4.83373 -0.648229 0
M  V30 8672 H 818.717 -5.25456 1.61789 0
M  V30 8673 H 819.942 -6.5119 1.92686 0
M  V30 8674 H 817.888 -6.55235 -0.316791 0
M  V30 8675 H 817.805 -7.47204 1.14986 0
M  V30 8676 H 819.073 -7.795 0.00537823 0
M  V30 8677 N 823.302 -0.75937 -1.38099 0
M  V30 8678 C 824.53 -0.329111 -2.04266 0
M  V30 8679 C 824.945 1.04453 -1.57274 0
M  V30 8680 O 824.302 1.66449 -0.748397 0
M  V30 8681 C 824.353 -0.349192 -3.5981 0
M  V30 8682 O 824.074 -1.66863 -4.05078 0
M  V30 8683 C 825.575 0.0942106 -4.432 0
M  V30 8684 H 822.795 -0.13971 -0.656294 0
M  V30 8685 H 825.339 -1.02984 -1.76677 0
M  V30 8686 H 823.494 0.302846 -3.86214 0
M  V30 8687 H 823.908 -1.59877 -4.9954 0
M  V30 8688 H 825.382 0.0290004 -5.51992 0
M  V30 8689 H 825.859 1.1429 -4.24069 0
M  V30 8690 H 826.465 -0.529171 -4.21995 0
M  V30 8691 N 824.78 1.49157 -0.508906 0
M  V30 8692 C 825.713 2.26056 0.312103 0
M  V30 8693 C 826.691 1.30982 0.963456 0
M  V30 8694 O 827.875 1.60286 0.992002 0
M  V30 8695 C 825.002 3.06555 1.4402 0
M  V30 8696 C 824.048 4.16844 0.902414 0
M  V30 8697 S 824.881 5.35076 -0.213087 0
M  V30 8698 C 826.037 6.19132 0.917985 0
M  V30 8699 H 826.27 2.95343 -0.340559 0
M  V30 8700 H 823.803 1.51569 -0.294331 0
M  V30 8701 H 825.761 3.53517 2.08653 0
M  V30 8702 H 824.422 2.36722 2.0645 0
M  V30 8703 H 823.615 4.72714 1.74806 0
M  V30 8704 H 823.217 3.72513 0.333156 0
M  V30 8705 H 825.509 6.52556 1.82145 0
M  V30 8706 H 826.452 7.06982 0.397724 0
M  V30 8707 H 826.86 5.51839 1.18889 0
M  V30 8708 N 826.258 0.243083 1.55714 0
M  V30 8709 C 827.504 -0.383287 1.99145 0
M  V30 8710 C 827.837 -1.57868 1.13098 0
M  V30 8711 O 827.112 -1.93535 0.193509 0
M  V30 8712 C 827.395 -0.796879 3.51172 0
M  V30 8713 C 827.248 0.403642 4.47985 0
M  V30 8714 C 828.567 -1.64525 4.08191 0
M  V30 8715 H 825.686 -0.137843 0.723995 0
M  V30 8716 H 828.328 0.343631 1.86867 0
M  V30 8717 H 826.478 -1.41625 3.61766 0
M  V30 8718 H 828.15 1.04204 4.49376 0
M  V30 8719 H 826.393 1.04741 4.20965 0
M  V30 8720 H 827.064 0.0709794 5.51954 0
M  V30 8721 H 829.54 -1.12246 4.00674 0
M  V30 8722 H 828.416 -1.9035 5.14838 0
M  V30 8723 H 828.677 -2.61582 3.56409 0
M  V30 8724 N 827.736 -1.57571 -0.0300757 0
M  V30 8725 C 828.646 -2.09892 -1.04798 0
M  V30 8726 C 829.662 -1.03732 -1.39698 0
M  V30 8727 O 830.838 -1.35461 -1.49038 0
M  V30 8728 C 827.903 -2.56707 -2.33028 0
M  V30 8729 C 826.964 -3.77345 -2.04718 0
M  V30 8730 C 826.197 -4.21918 -3.26834 0
M  V30 8731 O 826.42 -3.66025 -4.37472 0
M  V30 8732 O 825.354 -5.14362 -3.12594 0
M  V30 8733 H 829.18 -2.97023 -0.633344 0
M  V30 8734 H 826.765 -1.47344 -0.246991 0
M  V30 8735 H 828.647 -2.87154 -3.08417 0
M  V30 8736 H 827.322 -1.72688 -2.73789 0
M  V30 8737 H 826.229 -3.51919 -1.26901 0
M  V30 8738 H 827.562 -4.62345 -1.68813 0
M  V30 8739 N 829.214 0.302327 -1.54673 0
M  V30 8740 C 830.442 1.05669 -1.77881 0
M  V30 8741 C 830.857 1.80983 -0.537648 0
M  V30 8742 O 830.214 1.7573 0.492467 0
M  V30 8743 C 830.265 2.03828 -2.98557 0
M  V30 8744 O 829.986 1.3157 -4.17877 0
M  V30 8745 C 831.487 2.91314 -3.34143 0
M  V30 8746 H 828.707 0.313436 -0.593295 0
M  V30 8747 H 831.251 0.342003 -2.0162 0
M  V30 8748 H 829.406 2.70801 -2.7703 0
M  V30 8749 H 829.82 1.97481 -4.85903 0
M  V30 8750 H 831.294 3.56042 -4.21827 0
M  V30 8751 H 831.771 3.59544 -2.52239 0
M  V30 8752 H 832.377 2.29874 -3.57824 0
M  V30 8753 N 830.692 1.47107 0.565454 0
M  V30 8754 C 831.639 1.58974 1.6732 0
M  V30 8755 C 832.609 0.433146 1.60353 0
M  V30 8756 O 833.794 0.652141 1.79309 0
M  V30 8757 C 830.934 1.60224 3.05651 0
M  V30 8758 C 830.047 2.86741 3.23116 0
M  V30 8759 C 829.182 2.79381 4.51796 0
M  V30 8760 C 828.221 4.0076 4.62664 0
M  V30 8761 N 827.358 3.91685 5.8269 0
M  V30 8762 H 832.198 2.53588 1.56515 0
M  V30 8763 H 829.735 1.25791 0.762558 0
M  V30 8764 H 831.693 1.58933 3.85741 0
M  V30 8765 H 830.323 0.691285 3.15311 0
M  V30 8766 H 829.375 2.97936 2.36513 0
M  V30 8767 H 830.687 3.7665 3.27011 0
M  V30 8768 H 829.841 2.76293 5.40136 0
M  V30 8769 H 828.58 1.87142 4.50366 0
M  V30 8770 H 827.585 4.04162 3.72738 0
M  V30 8771 H 828.81 4.94117 4.6586 0
M  V30 8772 H 826.756 3.02243 5.82224 0
M  V30 8773 H 826.673 4.75264 5.87929 0
M  V30 8774 H 827.941 3.92599 6.73414 0
M  V30 8775 N 832.17 -0.811516 1.35101 0
M  V30 8776 C 833.117 -1.92308 1.27617 0
M  V30 8777 C 834.087 -1.6543 0.149091 0
M  V30 8778 O 835.272 -1.8789 0.331974 0
M  V30 8779 C 832.412 -3.28768 1.04908 0
M  V30 8780 C 831.525 -3.67865 2.26493 0
M  V30 8781 C 830.66 -4.9333 1.96974 0
M  V30 8782 C 829.699 -5.25041 3.1464 0
M  V30 8783 N 828.836 -6.41685 2.84929 0
M  V30 8784 H 833.676 -1.98041 2.22674 0
M  V30 8785 H 831.213 -0.968755 1.10696 0
M  V30 8786 H 833.171 -4.07426 0.897749 0
M  V30 8787 H 831.801 -3.22517 0.135151 0
M  V30 8788 H 830.853 -2.84507 2.52507 0
M  V30 8789 H 832.165 -3.87263 3.14371 0
M  V30 8790 H 831.319 -5.79803 1.78643 0
M  V30 8791 H 830.058 -4.75958 1.06374 0
M  V30 8792 H 829.063 -4.3706 3.33554 0
M  V30 8793 H 830.288 -5.44346 4.06035 0
M  V30 8794 H 828.234 -6.25747 1.96918 0
M  V30 8795 H 828.151 -6.6131 3.66341 0
M  V30 8796 H 829.419 -7.31198 2.70128 0
M  V30 8797 N 833.648 -1.19017 -1.03309 0
M  V30 8798 C 834.894 -0.991681 -1.769 0
M  V30 8799 C 835.227 0.476813 -1.88255 0
M  V30 8800 O 834.502 1.35407 -1.39625 0
M  V30 8801 C 834.785 -1.65627 -3.19749 0
M  V30 8802 C 834.638 -3.19813 -3.1629 0
M  V30 8803 C 835.957 -1.37579 -4.18043 0
M  V30 8804 H 833.076 -0.361674 -0.642153 0
M  V30 8805 H 835.718 -1.46795 -1.20628 0
M  V30 8806 H 833.868 -1.25132 -3.67796 0
M  V30 8807 H 835.54 -3.69494 -2.76174 0
M  V30 8808 H 833.783 -3.51578 -2.54117 0
M  V30 8809 H 834.454 -3.61457 -4.17196 0
M  V30 8810 H 836.93 -1.72679 -3.78578 0
M  V30 8811 H 835.806 -1.86636 -5.16196 0
M  V30 8812 H 836.067 -0.300118 -4.4108 0
M  V30 8813 N 835.127 1.22348 -0.993418 0
M  V30 8814 C 836.355 1.95125 -0.688021 0
M  V30 8815 C 836.77 1.73377 0.747388 0
M  V30 8816 O 836.127 1.03317 1.50439 0
M  V30 8817 C 836.178 3.47819 -0.985097 0
M  V30 8818 O 835.899 3.68838 -2.3641 0
M  V30 8819 C 837.4 4.37779 -0.697474 0
M  V30 8820 H 834.62 0.62087 -0.254481 0
M  V30 8821 H 837.164 1.55485 -1.32833 0
M  V30 8822 H 835.319 3.85426 -0.390583 0
M  V30 8823 H 835.733 4.63032 -2.46377 0
M  V30 8824 H 837.207 5.43666 -0.955604 0
M  V30 8825 H 837.684 4.37651 0.368524 0
M  V30 8826 H 838.29 4.05799 -1.27306 0
M  V30 8827 N 836.605 0.766683 1.37694 0
M  V30 8828 C 837.83 0.338715 2.04615 0
M  V30 8829 C 838.255 -1.02918 1.57447 0
M  V30 8830 O 837.613 -1.65849 0.732386 0
M  V30 8831 C 837.661 0.385284 3.58536 0
M  V30 8832 O 836.765 -0.616081 4.07772 0
M  V30 8833 H 836.106 0.147527 0.647404 0
M  V30 8834 H 838.636 1.04146 1.7611 0
M  V30 8835 H 838.646 0.240782 4.07289 0
M  V30 8836 H 837.321 1.38325 3.92223 0
M  V30 8837 H 835.898 -0.435115 3.70353 0
M  V30 8838 N 838.083 -1.48885 0.516809 0
M  V30 8839 C 839.308 -2.0739 -0.0205201 0
M  V30 8840 C 839.733 -1.37259 -1.28614 0
M  V30 8841 O 839.091 -0.434304 -1.76021 0
M  V30 8842 C 839.139 -3.59793 -0.24104 0
M  V30 8843 O 838.243 -3.90957 -1.31251 0
M  V30 8844 H 837.584 -0.663167 0.0332564 0
M  V30 8845 H 840.114 -1.91477 0.720956 0
M  V30 8846 H 840.124 -4.0531 -0.467737 0
M  V30 8847 H 838.799 -4.10244 0.68356 0
M  V30 8848 H 837.376 -3.57234 -1.06951 0
M  V30 8849 N 839.561 -0.251338 -1.55583 0
M  V30 8850 C 840.809 0.371434 -1.98657 0
M  V30 8851 C 841.13 1.58143 -1.14087 0
M  V30 8852 O 840.4 1.94607 -0.224708 0
M  V30 8853 H 838.98 0.140225 -0.733721 0
M  V30 8854 H 841.642 -0.351157 -1.9171 0
M  V30 8855 H 840.738 0.677554 -3.04657 0
M  V30 8856 N 841.039 1.57585 0.0217189 0
M  V30 8857 C 842.285 1.89887 0.712099 0
M  V30 8858 C 842.618 0.849971 1.74611 0
M  V30 8859 O 841.893 -0.13407 1.94037 0
M  V30 8860 C 842.176 3.32815 1.37499 0
M  V30 8861 C 842.029 4.48405 0.353993 0
M  V30 8862 C 843.348 3.74786 2.30703 0
M  V30 8863 H 840.467 0.690588 0.257405 0
M  V30 8864 H 843.109 1.89983 -0.0251145 0
M  V30 8865 H 841.259 3.32863 2.00335 0
M  V30 8866 H 842.931 4.60491 -0.273015 0
M  V30 8867 H 841.174 4.32573 -0.32599 0
M  V30 8868 H 841.845 5.45316 0.85644 0
M  V30 8869 H 844.321 3.76151 1.77904 0
M  V30 8870 H 843.197 4.75585 2.74061 0
M  V30 8871 H 843.458 3.07449 3.17691 0
M  V30 8872 N 842.517 -0.29412 1.54831 0
M  V30 8873 C 843.447 -1.36757 1.89261 0
M  V30 8874 C 844.428 -1.52564 0.752214 0
M  V30 8875 O 845.613 -1.65958 1.00855 0
M  V30 8876 C 842.743 -2.73066 2.14597 0
M  V30 8877 C 841.697 -2.72017 3.3044 0
M  V30 8878 C 841.023 -4.11679 3.4121 0
M  V30 8879 C 842.323 -2.33149 4.67375 0
M  V30 8880 H 844.017 -1.08191 2.79169 0
M  V30 8881 H 841.563 -0.519014 1.34321 0
M  V30 8882 H 843.516 -3.48255 2.37269 0
M  V30 8883 H 842.24 -3.03172 1.21467 0
M  V30 8884 H 840.899 -1.99285 3.07703 0
M  V30 8885 H 840.547 -4.38973 2.45584 0
M  V30 8886 H 840.247 -4.11877 4.19084 0
M  V30 8887 H 841.771 -4.88637 3.6615 0
M  V30 8888 H 843.185 -2.98054 4.89731 0
M  V30 8889 H 841.582 -2.44546 5.48012 0
M  V30 8890 H 842.652 -1.28275 4.67626 0
M  V30 8891 N 843.995 -1.47404 -0.557645 0
M  V30 8892 C 844.925 -1.62736 -1.67449 0
M  V30 8893 C 845.906 -0.476824 -1.6328 0
M  V30 8894 O 847.091 -0.706108 -1.80908 0
M  V30 8895 C 844.221 -1.641 -3.06086 0
M  V30 8896 C 843.175 -2.78377 -3.25101 0
M  V30 8897 C 842.501 -2.64812 -4.6452 0
M  V30 8898 C 843.801 -4.19971 -3.10518 0
M  V30 8899 H 845.495 -2.56232 -1.54873 0
M  V30 8900 H 843.041 -1.23312 -0.743649 0
M  V30 8901 H 844.994 -1.73417 -3.84063 0
M  V30 8902 H 843.718 -0.671652 -3.19619 0
M  V30 8903 H 842.377 -2.6857 -2.49531 0
M  V30 8904 H 842.025 -1.65906 -4.74852 0
M  V30 8905 H 841.725 -3.41477 -4.78191 0
M  V30 8906 H 843.249 -2.76057 -5.44633 0
M  V30 8907 H 844.663 -4.30757 -3.78313 0
M  V30 8908 H 843.06 -4.97419 -3.35699 0
M  V30 8909 H 844.13 -4.38369 -2.0727 0
M  V30 8910 N 845.473 0.80434 -1.35529 0
M  V30 8911 C 846.403 1.93086 -1.31301 0
M  V30 8912 C 847.384 1.69068 -0.187044 0
M  V30 8913 O 848.569 1.90399 -0.382359 0
M  V30 8914 C 845.699 3.29867 -1.0865 0
M  V30 8915 C 844.653 3.68373 -2.17911 0
M  V30 8916 C 843.979 5.0334 -1.80423 0
M  V30 8917 C 845.279 3.78516 -3.59893 0
M  V30 8918 H 846.973 1.96882 -2.25561 0
M  V30 8919 H 844.519 0.945841 -1.08581 0
M  V30 8920 H 846.472 4.08281 -1.04331 0
M  V30 8921 H 845.196 3.2642 -0.108359 0
M  V30 8922 H 843.855 2.92247 -2.21331 0
M  V30 8923 H 843.503 4.96399 -0.812213 0
M  V30 8924 H 843.203 5.30074 -2.53565 0
M  V30 8925 H 844.727 5.84191 -1.77633 0
M  V30 8926 H 846.141 4.47155 -3.58783 0
M  V30 8927 H 844.538 4.16721 -4.31814 0
M  V30 8928 H 845.608 2.8001 -3.95882 0
M  V30 8929 N 846.951 1.19563 1.02676 0
M  V30 8930 C 848.228 0.908857 1.73203 0
M  V30 8931 C 848.608 -0.584928 2.02834 0
M  V30 8932 O 847.956 -1.54372 1.68469 0
M  V30 8933 C 848.166 1.77105 3.00724 0
M  V30 8934 C 849.514 2.00667 3.7419 0
M  V30 8935 O 850.538 1.74274 3.10656 0
M  V30 8936 O 849.397 2.4518 4.88415 0
M  V30 8937 H 846.491 0.338909 0.754367 0
M  V30 8938 H 849.037 1.30387 1.08616 0
M  V30 8939 H 847.809 2.78303 2.7507 0
M  V30 8940 H 847.432 1.37546 3.73051 0
M  V30 8941 N 848.429 -1.21819 0.999893 0
M  V30 8942 C 849.377 -2.26027 0.549047 0
M  V30 8943 C 850.371 -1.64516 -0.403826 0
M  V30 8944 O 851.577 -1.77878 -0.275578 0
M  V30 8945 H 847.952 -0.734958 0.159185 0
M  V30 8946 H 849.923 -2.61398 1.43923 0
M  V30 8947 C 848.672 -3.47514 -0.11369 0
M  V30 8948 H 847.995 -3.95112 0.610482 0
M  V30 8949 H 849.435 -4.22179 -0.3925 0
M  V30 8950 C 847.894 -3.08614 -1.35126 0
M  V30 8951 O 848.424 -3.1864 -2.44605 0
M  V30 8952 N 846.63 -2.63327 -1.22911 0
M  V30 8953 H 846.177 -2.55369 -0.338288 0
M  V30 8954 H 846.135 -2.37668 -2.05818 0
M  V30 8955 N 849.908 -0.773975 -1.37286 0
M  V30 8956 C 851.138 -0.350249 -2.03609 0
M  V30 8957 C 851.546 1.03313 -1.58502 0
M  V30 8958 O 850.889 1.67118 -0.7627 0
M  V30 8959 C 850.951 -0.317215 -3.58098 0
M  V30 8960 C 850.615 -1.64556 -4.26345 0
M  V30 8961 C 851.612 -2.59839 -4.50311 0
M  V30 8962 C 849.297 -1.92061 -4.64131 0
M  V30 8963 C 851.291 -3.80833 -5.11122 0
M  V30 8964 C 848.978 -3.13325 -5.24663 0
M  V30 8965 C 849.976 -4.0753 -5.48095 0
M  V30 8966 O 849.664 -5.26658 -6.0736 0
M  V30 8967 H 849.396 -0.144456 -0.660385 0
M  V30 8968 H 851.95 -1.0496 -1.76557 0
M  V30 8969 H 850.18 0.438528 -3.84205 0
M  V30 8970 H 851.869 0.0797428 -4.05822 0
M  V30 8971 H 852.635 -2.39872 -4.21529 0
M  V30 8972 H 848.514 -1.19562 -4.45226 0
M  V30 8973 H 852.058 -4.54377 -5.29327 0
M  V30 8974 H 847.955 -3.33177 -5.52869 0
M  V30 8975 H 848.723 -5.27513 -6.25837 0
M  V30 8976 N 851.386 1.48609 -0.524698 0
M  V30 8977 C 852.611 2.07398 0.00952139 0
M  V30 8978 C 853.036 1.37939 1.27884 0
M  V30 8979 O 852.394 0.443633 1.75788 0
M  V30 8980 C 852.442 3.59916 0.221956 0
M  V30 8981 O 851.546 3.91647 1.29175 0
M  V30 8982 H 850.887 0.662981 -0.0367729 0
M  V30 8983 H 853.417 1.91092 -0.7311 0
M  V30 8984 H 853.427 4.05552 0.446236 0
M  V30 8985 H 852.102 4.09876 -0.705306 0
M  V30 8986 H 850.679 3.57796 1.05055 0
M  V30 8987 N 852.864 0.259585 1.55447 0
M  V30 8988 C 854.141 -0.412595 1.91199 0
M  V30 8989 C 854.521 -1.74909 1.18194 0
M  V30 8990 O 853.869 -2.26474 0.303603 0
M  V30 8991 C 854.079 -0.568195 3.44344 0
M  V30 8992 C 855.427 -0.858253 4.15836 0
M  V30 8993 O 856.451 -0.653588 3.50152 0
M  V30 8994 O 855.31 -1.24874 5.32042 0
M  V30 8995 H 852.404 -0.223403 0.796254 0
M  V30 8996 H 854.95 0.30459 1.66944 0
M  V30 8997 H 853.722 0.372989 3.89518 0
M  V30 8998 H 853.345 -1.33544 3.74502 0
M  V30 8999 N 854.342 -1.57594 -0.0133615 0
M  V30 9000 C 855.758 -1.5527 -0.369255 0
M  V30 9001 C 855.958 -0.987751 -1.7563 0
M  V30 9002 O 855.014 -0.615683 -2.44879 0
M  V30 9003 C 856.327 -2.99602 -0.25672 0
M  V30 9004 C 857.875 -3.11227 -0.332647 0
M  V30 9005 C 858.35 -4.57321 -0.249387 0
M  V30 9006 N 859.841 -4.62177 -0.3077 0
M  V30 9007 C 860.576 -5.72781 -0.26641 0
M  V30 9008 N 860.072 -6.92575 -0.176494 0
M  V30 9009 N 861.865 -5.61204 -0.317295 0
M  V30 9010 H 854.016 -1.92662 0.894154 0
M  V30 9011 H 856.279 -0.884352 0.341505 0
M  V30 9012 H 855.985 -3.44723 0.697072 0
M  V30 9013 H 855.859 -3.6246 -1.04415 0
M  V30 9014 H 858.246 -2.66045 -1.27688 0
M  V30 9015 H 858.327 -2.51171 0.484412 0
M  V30 9016 H 857.971 -5.03174 0.691242 0
M  V30 9017 H 857.901 -5.15306 -1.08476 0
M  V30 9018 H 860.392 -3.75994 -0.379069 0
M  V30 9019 H 860.705 -7.72653 -0.150518 0
M  V30 9020 H 859.05 -6.94854 -0.142314 0
M  V30 9021 H 862.241 -4.66509 -0.385643 0
M  V30 9022 H 862.414 -6.47388 -0.28165 0
M  V30 9023 N 855.82 0.285905 -1.54985 0
M  V30 9024 C 857.069 1.01691 -1.74189 0
M  V30 9025 C 857.382 1.87908 -0.543135 0
M  V30 9026 O 858.588 2.64389 -0.617305 0
M  V30 9027 C 857.044 1.85785 -3.0824 0
M  V30 9028 C 856.652 1.04497 -4.35642 0
M  V30 9029 C 858.396 2.58393 -3.36798 0
M  V30 9030 C 856.303 1.87955 -5.60738 0
M  V30 9031 H 855.233 0.383396 -0.649248 0
M  V30 9032 H 857.884 0.27317 -1.81455 0
M  V30 9033 H 856.266 2.64205 -2.94978 0
M  V30 9034 H 857.44 0.305847 -4.59784 0
M  V30 9035 H 855.755 0.434023 -4.14132 0
M  V30 9036 H 858.352 3.21214 -4.27464 0
M  V30 9037 H 858.695 3.28011 -2.56349 0
M  V30 9038 H 859.228 1.87012 -3.511 0
M  V30 9039 H 855.967 1.22781 -6.43898 0
M  V30 9040 H 855.487 2.59499 -5.40759 0
M  V30 9041 H 857.166 2.45636 -5.98558 0
M  V30 9042 N 857.298 1.47698 0.54982 0
M  V30 9043 C 858.23 1.56806 1.67166 0
M  V30 9044 C 859.243 0.453709 1.5635 0
M  V30 9045 O 860.432 0.723663 1.63173 0
M  V30 9046 C 857.532 1.4632 3.05686 0
M  V30 9047 C 856.705 2.72452 3.42182 0
M  V30 9048 C 855.764 2.55698 4.59897 0
M  V30 9049 O 854.79 3.29534 4.64108 0
M  V30 9050 N 855.992 1.64009 5.56849 0
M  V30 9051 H 858.757 2.53545 1.59797 0
M  V30 9052 H 856.318 1.44171 0.736635 0
M  V30 9053 H 858.31 1.32835 3.82279 0
M  V30 9054 H 856.88 0.57634 3.07241 0
M  V30 9055 H 856.1 3.00644 2.54964 0
M  V30 9056 H 857.388 3.56172 3.63344 0
M  V30 9057 H 856.786 1.03186 5.5621 0
M  V30 9058 H 855.343 1.56473 6.3274 0
M  V30 9059 N 858.776 -0.797141 1.35954 0
M  V30 9060 C 860.022 -1.55698 1.29946 0
M  V30 9061 C 860.355 -1.93808 -0.123259 0
M  V30 9062 O 859.63 -1.62102 -1.07486 0
M  V30 9063 C 859.913 -2.83926 2.2149 0
M  V30 9064 C 859.766 -2.52232 3.72423 0
M  V30 9065 C 861.085 -3.85698 2.11955 0
M  V30 9066 H 858.204 -0.56488 0.47337 0
M  V30 9067 H 860.846 -0.916421 1.66438 0
M  V30 9068 H 858.996 -3.38588 1.905 0
M  V30 9069 H 860.668 -2.0368 4.13899 0
M  V30 9070 H 858.911 -1.85286 3.92239 0
M  V30 9071 H 859.582 -3.43782 4.31877 0
M  V30 9072 H 862.058 -3.40462 2.39218 0
M  V30 9073 H 860.934 -4.73182 2.78191 0
M  V30 9074 H 861.195 -4.28083 1.10442 0
M  V30 9075 N 860.254 -1.20106 -1.0204 0
M  V30 9076 C 861.184 -0.970301 -2.12385 0
M  V30 9077 C 862.165 0.099378 -1.69809 0
M  V30 9078 O 863.35 -0.057365 -1.94115 0
M  V30 9079 C 860.48 -0.517431 -3.43424 0
M  V30 9080 C 859.434 -1.52992 -3.99722 0
M  V30 9081 C 858.76 -0.933817 -5.26483 0
M  V30 9082 C 860.06 -2.91257 -4.33551 0
M  V30 9083 H 861.754 -1.89316 -2.31948 0
M  V30 9084 H 859.3 -0.911655 -1.11467 0
M  V30 9085 H 861.253 -0.343243 -4.2 0
M  V30 9086 H 859.977 0.441049 -3.23608 0
M  V30 9087 H 858.636 -1.6914 -3.2525 0
M  V30 9088 H 858.284 0.0324763 -5.0299 0
M  V30 9089 H 857.984 -1.60999 -5.65113 0
M  V30 9090 H 859.508 -0.770614 -6.05718 0
M  V30 9091 H 860.922 -2.78642 -5.0103 0
M  V30 9092 H 859.319 -3.55745 -4.83286 0
M  V30 9093 H 860.389 -3.43269 -3.42483 0
M  V30 9094 N 861.732 1.21287 -1.00634 0
M  V30 9095 C 863.148 1.42467 -0.719389 0
M  V30 9096 C 863.348 1.88767 0.704927 0
M  V30 9097 O 862.404 2.05004 1.47409 0
M  V30 9098 C 863.717 2.455 -1.73639 0
M  V30 9099 C 865.265 2.59281 -1.75335 0
M  V30 9100 C 865.74 3.65547 -2.75934 0
M  V30 9101 N 867.231 3.73019 -2.74611 0
M  V30 9102 C 867.966 4.54873 -3.4911 0
M  V30 9103 N 867.462 5.40614 -4.33253 0
M  V30 9104 N 869.255 4.49309 -3.37754 0
M  V30 9105 H 861.406 0.895454 -1.92602 0
M  V30 9106 H 863.669 0.455491 -0.831404 0
M  V30 9107 H 863.375 2.18455 -2.75627 0
M  V30 9108 H 863.249 3.44325 -1.54014 0
M  V30 9109 H 865.636 2.85661 -0.740377 0
M  V30 9110 H 865.717 1.60685 -1.99032 0
M  V30 9111 H 865.361 3.39911 -3.77389 0
M  V30 9112 H 865.291 4.63741 -2.49503 0
M  V30 9113 H 867.782 3.11766 -2.13565 0
M  V30 9114 H 868.095 6.0013 -4.86892 0
M  V30 9115 H 866.44 5.40151 -4.37335 0
M  V30 9116 H 869.631 3.81357 -2.71449 0
M  V30 9117 H 869.804 5.12867 -3.9607 0
M  V30 9118 N 863.21 0.781244 1.36873 0
M  V30 9119 C 864.158 0.161889 2.32036 0
M  V30 9120 C 865.152 -0.674225 1.55405 0
M  V30 9121 O 866.358 -0.570223 1.70729 0
M  V30 9122 H 862.733 0.0335702 0.75125 0
M  V30 9123 H 864.704 0.980078 2.81846 0
M  V30 9124 C 863.453 -0.695352 3.40676 0
M  V30 9125 H 862.776 -0.0613425 3.99753 0
M  V30 9126 H 864.216 -1.09553 4.09602 0
M  V30 9127 C 862.675 -1.85008 2.81556 0
M  V30 9128 O 863.205 -2.94616 2.73065 0
M  V30 9129 N 861.411 -1.65364 2.38962 0
M  V30 9130 H 860.958 -0.762106 2.46068 0
M  V30 9131 H 860.916 -2.42789 1.99752 0
M  V30 9132 N 864.689 -1.48329 0.532571 0
M  V30 9133 C 865.622 -2.26524 -0.2761 0
M  V30 9134 C 866.6 -1.32498 -0.942496 0
M  V30 9135 O 867.784 -1.61844 -0.966376 0
M  V30 9136 C 864.911 -3.08808 -1.39124 0
M  V30 9137 C 863.957 -4.18227 -0.835984 0
M  V30 9138 S 864.79 -5.34669 0.298186 0
M  V30 9139 C 865.946 -6.20514 -0.81937 0
M  V30 9140 H 866.179 -2.94764 0.387502 0
M  V30 9141 H 863.712 -1.51081 0.318407 0
M  V30 9142 H 865.67 -3.56792 -2.03002 0
M  V30 9143 H 864.331 -2.39976 -2.02658 0
M  V30 9144 H 863.524 -4.75435 -1.67264 0
M  V30 9145 H 863.126 -3.72996 -0.27385 0
M  V30 9146 H 865.418 -6.55371 -1.7174 0
M  V30 9147 H 866.361 -7.07525 -0.285199 0
M  V30 9148 H 866.769 -5.5366 -1.10094 0
M  V30 9149 N 866.167 -0.267825 -1.55308 0
M  V30 9150 C 867.413 0.351556 -1.9973 0
M  V30 9151 C 867.746 1.56049 -1.15596 0
M  V30 9152 O 867.021 1.93203 -0.224274 0
M  V30 9153 C 867.304 0.74091 -3.52395 0
M  V30 9154 C 867.157 -0.474861 -4.47286 0
M  V30 9155 C 868.476 1.5801 -4.10756 0
M  V30 9156 H 865.595 0.126308 -0.726096 0
M  V30 9157 H 868.237 -0.373316 -1.86296 0
M  V30 9158 H 866.387 1.35851 -3.63973 0
M  V30 9159 H 868.059 -1.1134 -4.47662 0
M  V30 9160 H 866.302 -1.11425 -4.19246 0
M  V30 9161 H 866.973 -0.158782 -5.51772 0
M  V30 9162 H 869.449 1.05857 -4.0241 0
M  V30 9163 H 868.325 1.82135 -5.17801 0
M  V30 9164 H 868.586 2.55878 -3.60526 0
M  V30 9165 N 867.645 1.57599 0.00500368 0
M  V30 9166 C 868.595 2.04585 1.00643 0
M  V30 9167 C 869.579 0.939622 1.30614 0
M  V30 9168 O 870.771 1.20342 1.29796 0
M  V30 9169 C 867.9 2.5486 2.30002 0
M  V30 9170 C 866.986 3.7235 2.03017 0
M  V30 9171 N 867.377 4.84218 1.46173 0
M  V30 9172 C 865.675 3.80185 2.33185 0
M  V30 9173 C 866.376 5.65688 1.35544 0
M  V30 9174 N 865.352 5.11536 1.83933 0
M  V30 9175 H 869.154 2.8849 0.561332 0
M  V30 9176 H 866.668 1.61026 0.210808 0
M  V30 9177 H 868.665 2.86794 3.0258 0
M  V30 9178 H 867.325 1.72372 2.75169 0
M  V30 9179 H 868.336 5.0517 1.1412 0
M  V30 9180 H 865.013 3.08543 2.81261 0
M  V30 9181 H 866.403 6.65588 0.918791 0
M  V30 9182 N 869.123 -0.277682 1.55134 0
M  V30 9183 C 870.363 -1.01761 1.77269 0
M  V30 9184 C 870.727 -1.83668 0.559465 0
M  V30 9185 O 871.928 -2.60597 0.658972 0
M  V30 9186 C 870.199 -1.88062 3.0392 0
M  V30 9187 S 871.758 -2.68383 3.47154 0
M  V30 9188 H 868.576 -0.342816 0.622895 0
M  V30 9189 H 871.178 -0.288514 1.93359 0
M  V30 9190 H 869.882 -1.26805 3.90319 0
M  V30 9191 H 869.413 -2.65299 2.90482 0
M  V30 9192 H 871.428 -3.90567 3.06059 0
M  V30 9193 N 870.601 -1.47988 -0.541979 0
M  V30 9194 C 871.564 -1.61148 -1.62984 0
M  V30 9195 C 872.564 -0.48553 -1.53295 0
M  V30 9196 O 873.754 -0.751012 -1.5718 0
M  V30 9197 C 870.886 -1.57038 -3.02576 0
M  V30 9198 H 872.079 -2.58138 -1.52659 0
M  V30 9199 H 869.632 -1.36405 -0.763106 0
M  V30 9200 H 870.367 -0.614807 -3.18419 0
M  V30 9201 H 870.152 -2.38769 -3.11018 0
M  V30 9202 H 871.642 -1.69416 -3.81691 0
M  V30 9203 N 872.079 0.78992 -1.36375 0
M  V30 9204 C 873.356 1.53584 -1.21126 0
M  V30 9205 C 873.736 2.10124 0.202785 0
M  V30 9206 O 873.084 1.93936 1.20835 0
M  V30 9207 C 873.294 2.63117 -2.29282 0
M  V30 9208 C 874.642 3.31013 -2.65924 0
M  V30 9209 O 875.666 2.734 -2.28321 0
M  V30 9210 O 874.525 4.35129 -3.30643 0
M  V30 9211 H 871.619 0.679366 -0.471583 0
M  V30 9212 H 874.165 0.828446 -1.48104 0
M  V30 9213 H 872.937 2.19329 -3.24053 0
M  V30 9214 H 872.56 3.41476 -2.03666 0
M  V30 9215 N 873.557 1.20646 1.01402 0
M  V30 9216 C 874.487 0.98155 2.11867 0
M  V30 9217 C 875.468 -0.0903712 1.6986 0
M  V30 9218 O 876.653 0.0676586 1.94082 0
M  V30 9219 C 873.783 0.535636 3.43145 0
M  V30 9220 C 872.737 1.55109 3.98905 0
M  V30 9221 C 872.063 0.961725 5.2598 0
M  V30 9222 C 873.363 2.93552 4.32001 0
M  V30 9223 H 875.057 1.90544 2.3094 0
M  V30 9224 H 872.603 0.917554 1.10982 0
M  V30 9225 H 874.556 0.365512 4.19812 0
M  V30 9226 H 873.28 -0.423882 3.23838 0
M  V30 9227 H 871.939 1.70862 3.24348 0
M  V30 9228 H 871.587 -0.00580108 5.03 0
M  V30 9229 H 871.287 1.63993 5.64252 0
M  V30 9230 H 872.811 0.802726 6.053 0
M  V30 9231 H 874.225 2.81295 4.99546 0
M  V30 9232 H 872.622 3.58303 4.81393 0
M  V30 9233 H 873.692 3.4508 3.40658 0
M  V30 9234 N 875.035 -1.20752 1.01276 0
M  V30 9235 C 876.26 -1.94547 0.718769 0
M  V30 9236 C 876.685 -1.7404 -0.713563 0
M  V30 9237 O 876.043 -1.03221 -1.49047 0
M  V30 9238 C 876.091 -3.44823 1.05497 0
M  V30 9239 O 875.195 -4.12072 0.164516 0
M  V30 9240 H 874.536 -0.607931 0.267051 0
M  V30 9241 H 877.066 -1.53292 1.35509 0
M  V30 9242 H 877.076 -3.95427 1.00507 0
M  V30 9243 H 875.751 -3.59072 2.09858 0
M  V30 9244 H 874.328 -3.71909 0.271615 0
M  V30 9245 N 876.513 -0.788492 -1.36457 0
M  V30 9246 C 877.461 -0.174192 -2.31947 0
M  V30 9247 C 878.455 0.665974 -1.5576 0
M  V30 9248 O 879.661 0.561161 -1.71029 0
M  V30 9249 H 876.036 -0.0375538 -0.751062 0
M  V30 9250 H 878.007 -0.995011 -2.81322 0
M  V30 9251 C 876.756 0.677276 -3.4104 0
M  V30 9252 H 876.079 0.0401418 -3.9978 0
M  V30 9253 H 877.519 1.07379 -4.10178 0
M  V30 9254 C 875.978 1.83512 -2.82533 0
M  V30 9255 O 876.508 2.93164 -2.74623 0
M  V30 9256 N 874.714 1.64095 -2.39836 0
M  V30 9257 H 874.261 0.749046 -2.46469 0
M  V30 9258 H 874.219 2.41726 -2.01037 0
M  V30 9259 N 877.991 1.48044 -0.54043 0
M  V30 9260 C 879.402 1.86418 -0.102662 0
M  V30 9261 C 879.753 1.4489 1.32293 0
M  V30 9262 O 878.878 0.844319 1.99249 0
M  V30 9263 C 879.473 3.38324 -0.179533 0
M  V30 9264 C 878.032 3.75852 0.203098 0
M  V30 9265 C 877.179 2.72097 -0.534637 0
M  V30 9266 H 880.13 1.398 -0.751103 0
M  V30 9267 H 880.151 3.75641 0.606147 0
M  V30 9268 H 879.663 3.68518 -1.21721 0
M  V30 9269 H 877.764 3.51272 1.24252 0
M  V30 9270 H 877.877 4.78884 -0.143784 0
M  V30 9271 H 876.241 2.54692 0.0203358 0
M  V30 9272 H 877.024 3.05135 -1.57314 0
M  V30 9273 N 879.47 0.276058 1.55163 0
M  V30 9274 C 880.698 -0.343772 2.04024 0
M  V30 9275 C 881.113 -1.49397 1.15438 0
M  V30 9276 O 880.47 -1.81662 0.174692 0
M  V30 9277 C 880.521 -0.823885 3.51986 0
M  V30 9278 O 880.242 0.280507 4.37201 0
M  V30 9279 C 881.743 -1.51143 4.16738 0
M  V30 9280 H 878.963 -0.07828 0.666418 0
M  V30 9281 H 881.507 0.408427 2.0038 0
M  V30 9282 H 879.662 -1.52617 3.56071 0
M  V30 9283 H 880.076 -0.0887831 5.24425 0
M  V30 9284 H 881.55 -1.79878 5.2187 0
M  V30 9285 H 882.027 -2.44327 3.64967 0
M  V30 9286 H 882.633 -0.852975 4.16659 0
M  V30 9287 N 880.948 -1.576 0.00335426 0
M  V30 9288 C 881.895 -2.08632 -0.986975 0
M  V30 9289 C 882.865 -0.982491 -1.33927 0
M  V30 9290 O 884.05 -1.25513 -1.43705 0
M  V30 9291 C 881.19 -2.59705 -2.27261 0
M  V30 9292 C 880.303 -3.84002 -1.97905 0
M  V30 9293 C 879.438 -4.23563 -3.20574 0
M  V30 9294 C 878.477 -5.40688 -2.8692 0
M  V30 9295 N 877.614 -5.75526 -4.02136 0
M  V30 9296 H 882.454 -2.92977 -0.544855 0
M  V30 9297 H 879.991 -1.44831 -0.257376 0
M  V30 9298 H 881.949 -2.87395 -3.02423 0
M  V30 9299 H 880.579 -1.7823 -2.69136 0
M  V30 9300 H 879.631 -3.63199 -1.13096 0
M  V30 9301 H 880.943 -4.69261 -1.69102 0
M  V30 9302 H 880.097 -4.52554 -4.04079 0
M  V30 9303 H 878.836 -3.37019 -3.52518 0
M  V30 9304 H 877.841 -5.11417 -2.01822 0
M  V30 9305 H 879.066 -6.2891 -2.5622 0
M  V30 9306 H 877.012 -4.9194 -4.33971 0
M  V30 9307 H 876.929 -6.55367 -3.76869 0
M  V30 9308 H 878.197 -6.0911 -4.8642 0
M  V30 9309 N 882.426 0.269451 -1.5528 0
M  V30 9310 C 883.837 0.840233 -1.66724 0
M  V30 9311 C 884.188 1.86909 -0.596621 0
M  V30 9312 O 883.313 2.14817 0.261246 0
M  V30 9313 C 883.908 1.5308 -3.02245 0
M  V30 9314 C 882.467 2.04957 -3.15705 0
M  V30 9315 C 881.614 0.892838 -2.62533 0
M  V30 9316 H 884.565 0.0457236 -1.58634 0
M  V30 9317 H 884.586 2.39792 -2.95432 0
M  V30 9318 H 884.098 0.781741 -3.80145 0
M  V30 9319 H 882.199 2.82813 -2.42585 0
M  V30 9320 H 882.312 2.26244 -4.22316 0
M  V30 9321 H 880.676 1.28719 -2.19781 0
M  V30 9322 H 881.459 0.157229 -3.4294 0
M  V30 9323 N 883.904 1.48273 0.534124 0
M  V30 9324 C 884.834 1.6538 1.64839 0
M  V30 9325 C 885.815 0.502741 1.62501 0
M  V30 9326 O 887 0.734799 1.79762 0
M  V30 9327 C 884.13 1.68949 3.03436 0
M  V30 9328 C 883.084 2.83513 3.20631 0
M  V30 9329 C 882.41 2.72169 4.60248 0
M  V30 9330 C 883.71 4.24858 3.03797 0
M  V30 9331 H 885.404 2.58663 1.50777 0
M  V30 9332 H 882.95 1.24479 0.723937 0
M  V30 9333 H 884.903 1.79505 3.81256 0
M  V30 9334 H 883.627 0.722415 3.1851 0
M  V30 9335 H 882.286 2.72505 2.45227 0
M  V30 9336 H 881.934 1.7344 4.72152 0
M  V30 9337 H 881.634 3.49042 4.72698 0
M  V30 9338 H 883.158 2.84687 5.40172 0
M  V30 9339 H 884.572 4.36721 3.71413 0
M  V30 9340 H 882.969 5.02697 3.27743 0
M  V30 9341 H 884.039 4.41611 2.0027 0
M  V30 9342 N 885.382 -0.782676 1.36792 0
M  V30 9343 C 886.292 -1.92679 1.33835 0
M  V30 9344 C 887.308 -1.72344 0.23952 0
M  V30 9345 O 888.484 -1.95766 0.473045 0
M  V30 9346 C 885.549 -3.27644 1.1336 0
M  V30 9347 C 884.61 -3.6071 2.32781 0
M  V30 9348 C 883.843 -4.89234 2.13273 0
M  V30 9349 O 884.066 -5.59468 1.11136 0
M  V30 9350 O 883 -5.21112 3.01208 0
M  V30 9351 H 886.826 -1.98124 2.30175 0
M  V30 9352 H 884.411 -0.923887 1.17408 0
M  V30 9353 H 886.293 -4.08394 1.03886 0
M  V30 9354 H 884.968 -3.23076 0.200868 0
M  V30 9355 H 883.875 -2.80238 2.47825 0
M  V30 9356 H 885.208 -3.70008 3.24584 0
M  V30 9357 N 886.86 -1.21182 -1.00761 0
M  V30 9358 C 887.79 -0.992773 -2.11344 0
M  V30 9359 C 888.771 0.0813618 -1.69905 0
M  V30 9360 O 889.956 -0.0779503 -1.94043 0
M  V30 9361 C 887.086 -0.553826 -3.42856 0
M  V30 9362 C 886.04 -1.57223 -3.98077 0
M  V30 9363 C 885.366 -0.989605 -5.25463 0
M  V30 9364 C 886.666 -2.95839 -4.30438 0
M  V30 9365 H 888.36 -1.91766 -2.29927 0
M  V30 9366 H 885.906 -0.923426 -1.10494 0
M  V30 9367 H 887.859 -0.387771 -4.19612 0
M  V30 9368 H 886.583 0.406702 -3.24058 0
M  V30 9369 H 885.242 -1.7258 -3.23437 0
M  V30 9370 H 884.89 -0.0208743 -5.02996 0
M  V30 9371 H 884.59 -1.66984 -5.63374 0
M  V30 9372 H 886.114 -0.834815 -6.04866 0
M  V30 9373 H 887.528 -2.8394 -4.98047 0
M  V30 9374 H 885.925 -3.60851 -4.79486 0
M  V30 9375 H 886.995 -3.46882 -3.38823 0
M  V30 9376 N 888.338 1.20213 -1.01915 0
M  V30 9377 C 889.568 1.93341 -0.728197 0
M  V30 9378 C 889.976 1.75151 0.715454 0
M  V30 9379 O 889.319 1.06437 1.49722 0
M  V30 9380 C 889.381 3.45677 -0.9873 0
M  V30 9381 C 889.045 3.8763 -2.42057 0
M  V30 9382 C 890.042 3.93184 -3.40151 0
M  V30 9383 C 887.727 4.19547 -2.76199 0
M  V30 9384 C 889.721 4.30069 -4.70446 0
M  V30 9385 C 887.408 4.56106 -4.06707 0
M  V30 9386 C 888.406 4.6134 -5.03641 0
M  V30 9387 O 888.094 4.97059 -6.31813 0
M  V30 9388 H 887.826 0.621258 -0.266485 0
M  V30 9389 H 890.38 1.53577 -1.36393 0
M  V30 9390 H 888.61 3.85578 -0.294405 0
M  V30 9391 H 890.299 4.00035 -0.687536 0
M  V30 9392 H 891.065 3.68687 -3.15111 0
M  V30 9393 H 886.944 4.14663 -2.01434 0
M  V30 9394 H 890.488 4.34069 -5.46105 0
M  V30 9395 H 886.385 4.80059 -4.31525 0
M  V30 9396 H 887.153 5.15043 -6.36139 0
M  V30 9397 N 889.816 0.795718 1.36037 0
M  V30 9398 C 891.232 0.478145 1.52269 0
M  V30 9399 C 891.432 -1.0025 1.74792 0
M  V30 9400 O 890.488 -1.78783 1.78305 0
M  V30 9401 C 891.801 1.31406 2.70468 0
M  V30 9402 C 893.349 1.3084 2.84341 0
M  V30 9403 C 893.824 2.12819 4.05551 0
M  V30 9404 N 895.315 2.10298 4.12709 0
M  V30 9405 C 896.05 2.70495 5.05589 0
M  V30 9406 N 895.546 3.39576 6.03871 0
M  V30 9407 N 897.339 2.60195 4.98252 0
M  V30 9408 H 889.49 1.75477 1.19673 0
M  V30 9409 H 891.753 0.74627 0.584624 0
M  V30 9410 H 891.459 2.36435 2.60368 0
M  V30 9411 H 891.333 0.959726 3.64786 0
M  V30 9412 H 893.72 0.266003 2.93899 0
M  V30 9413 H 893.801 1.70254 1.90912 0
M  V30 9414 H 893.445 3.17093 3.96755 0
M  V30 9415 H 893.375 1.70772 4.98141 0
M  V30 9416 H 895.866 1.60026 3.42345 0
M  V30 9417 H 896.179 3.82823 6.71317 0
M  V30 9418 H 894.524 3.43679 6.04077 0
M  V30 9419 H 897.715 2.05823 4.20422 0
M  V30 9420 H 897.888 3.074 5.70447 0
M  V30 9421 N 891.294 -1.47756 0.548274 0
M  V30 9422 C 892.226 -2.27921 -0.24177 0
M  V30 9423 C 893.239 -1.36471 -0.887658 0
M  V30 9424 O 894.428 -1.6137 -0.763016 0
M  V30 9425 C 891.528 -3.10449 -1.35922 0
M  V30 9426 C 890.701 -4.298 -0.811808 0
M  V30 9427 C 889.76 -4.93994 -1.81264 0
M  V30 9428 O 888.786 -5.52657 -1.3623 0
M  V30 9429 N 889.988 -4.87882 -3.14566 0
M  V30 9430 H 892.753 -2.96365 0.445848 0
M  V30 9431 H 890.314 -1.57286 0.383769 0
M  V30 9432 H 892.306 -3.50261 -2.02729 0
M  V30 9433 H 890.876 -2.44306 -1.95021 0
M  V30 9434 H 890.096 -3.94186 0.0327929 0
M  V30 9435 H 891.384 -5.0702 -0.425272 0
M  V30 9436 H 890.782 -4.41405 -3.53805 0
M  V30 9437 H 889.339 -5.3174 -3.76956 0
M  V30 9438 N 892.772 -0.284283 -1.55015 0
M  V30 9439 C 894.018 0.3233 -2.00814 0
M  V30 9440 C 894.373 1.52796 -1.16923 0
M  V30 9441 O 893.666 1.90172 -0.233499 0
M  V30 9442 C 893.86 0.747219 -3.49502 0
M  V30 9443 C 893.689 -0.414821 -4.47783 0
M  V30 9444 C 892.459 -0.901531 -4.97193 0
M  V30 9445 C 894.657 -1.25433 -4.9877 0
M  V30 9446 N 892.639 -2.03208 -5.79292 0
M  V30 9447 C 894.01 -2.23262 -5.78406 0
M  V30 9448 C 896.065 -1.28662 -4.80989 0
M  V30 9449 C 894.768 -3.24077 -6.42158 0
M  V30 9450 C 896.794 -2.28326 -5.45547 0
M  V30 9451 C 896.156 -3.24887 -6.25002 0
M  V30 9452 H 892.255 0.0832226 -0.777559 0
M  V30 9453 H 894.839 -0.410393 -1.90326 0
M  V30 9454 H 893.01 1.45012 -3.60314 0
M  V30 9455 H 894.742 1.33292 -3.8212 0
M  V30 9456 H 891.497 -0.479291 -4.71169 0
M  V30 9457 H 891.921 -2.60125 -6.25031 0
M  V30 9458 H 896.563 -0.553858 -4.19157 0
M  V30 9459 H 894.281 -3.98281 -7.03134 0
M  V30 9460 H 897.867 -2.31578 -5.33726 0
M  V30 9461 H 896.747 -4.00745 -6.74072 0
M  V30 9462 N 894.251 1.57596 -0.0117121 0
M  V30 9463 C 895.479 1.9536 0.681334 0
M  V30 9464 C 895.894 0.887255 1.66653 0
M  V30 9465 O 895.251 -0.132692 1.82017 0
M  V30 9466 C 895.302 3.33165 1.40298 0
M  V30 9467 O 895.023 4.35707 0.45728 0
M  V30 9468 C 896.524 3.85458 2.18946 0
M  V30 9469 H 893.744 0.643826 0.189023 0
M  V30 9470 H 896.288 2.04392 -0.066311 0
M  V30 9471 H 894.443 3.25404 2.10216 0
M  V30 9472 H 894.857 5.15495 0.96773 0
M  V30 9473 H 896.331 4.84275 2.64918 0
M  V30 9474 H 896.808 3.18781 3.02118 0
M  V30 9475 H 897.414 3.96431 1.5402 0
M  V30 9476 N 895.729 -0.261212 1.5542 0
M  V30 9477 C 897.006 -1.01321 1.67312 0
M  V30 9478 C 897.386 -2.0388 0.547356 0
M  V30 9479 O 896.734 -2.24003 -0.451083 0
M  V30 9480 C 896.944 -1.65943 3.07024 0
M  V30 9481 C 898.292 -2.16666 3.65159 0
M  V30 9482 O 899.316 -1.75909 3.09733 0
M  V30 9483 O 898.175 -2.91455 4.62294 0
M  V30 9484 H 895.269 -0.470714 0.679968 0
M  V30 9485 H 897.815 -0.256133 1.67756 0
M  V30 9486 H 896.587 -0.916868 3.80407 0
M  V30 9487 H 896.21 -2.48308 3.1053 0
M  V30 9488 N 897.207 -1.48554 -0.526253 0
M  V30 9489 C 898.623 -1.34757 -0.855138 0
M  V30 9490 C 898.823 -0.36142 -1.98232 0
M  V30 9491 O 897.879 0.216026 -2.51574 0
M  V30 9492 C 899.192 -2.74877 -1.21915 0
M  V30 9493 C 900.74 -2.83393 -1.32882 0
M  V30 9494 C 901.215 -4.24223 -1.72624 0
M  V30 9495 N 902.706 -4.26913 -1.7972 0
M  V30 9496 C 903.441 -5.32824 -2.11863 0
M  V30 9497 N 902.937 -6.49008 -2.42405 0
M  V30 9498 N 904.73 -5.20221 -2.12901 0
M  V30 9499 H 896.881 -2.11284 0.217422 0
M  V30 9500 H 899.144 -0.947367 0.0346362 0
M  V30 9501 H 898.85 -3.48619 -0.464486 0
M  V30 9502 H 898.724 -3.0864 -2.16844 0
M  V30 9503 H 901.111 -2.09904 -2.07424 0
M  V30 9504 H 901.192 -2.53245 -0.360638 0
M  V30 9505 H 900.836 -4.98229 -0.986411 0
M  V30 9506 H 900.766 -4.51817 -2.70498 0
M  V30 9507 H 903.257 -3.4311 -1.58379 0
M  V30 9508 H 903.57 -7.25561 -2.66048 0
M  V30 9509 H 901.915 -6.52277 -2.39917 0
M  V30 9510 H 905.106 -4.28469 -1.885 0
M  V30 9511 H 905.279 -6.02861 -2.37619 0
M  V30 9512 N 898.685 0.775411 -1.37205 0
M  V30 9513 C 899.934 1.52909 -1.31536 0
M  V30 9514 C 900.247 1.9535 0.0989374 0
M  V30 9515 O 901.453 2.70072 0.278079 0
M  V30 9516 C 899.909 2.761 -2.30861 0
M  V30 9517 C 899.517 2.40773 -3.77799 0
M  V30 9518 C 901.261 3.54052 -2.34195 0
M  V30 9519 C 899.168 3.60444 -4.68865 0
M  V30 9520 H 898.098 0.574061 -0.488845 0
M  V30 9521 H 900.749 0.849642 -1.62645 0
M  V30 9522 H 899.131 3.45916 -1.92764 0
M  V30 9523 H 900.305 1.78764 -4.24712 0
M  V30 9524 H 898.62 1.76004 -3.77375 0
M  V30 9525 H 901.217 4.42992 -2.99437 0
M  V30 9526 H 901.56 3.93649 -1.35449 0
M  V30 9527 H 902.093 2.91229 -2.7098 0
M  V30 9528 H 898.832 3.25932 -5.68725 0
M  V30 9529 H 898.352 4.21571 -4.26659 0
M  V30 9530 H 900.031 4.27302 -4.85821 0
M  V30 9531 N 900.163 1.21714 1.00117 0
M  V30 9532 C 901.096 0.923113 2.08696 0
M  V30 9533 C 902.074 -0.130827 1.62073 0
M  V30 9534 O 903.258 -0.00103064 1.885 0
M  V30 9535 C 900.385 0.386807 3.36484 0
M  V30 9536 C 899.431 1.42414 4.0202 0
M  V30 9537 S 900.264 2.99466 4.43937 0
M  V30 9538 C 901.42 2.47452 5.74907 0
M  V30 9539 H 901.653 1.84258 2.33315 0
M  V30 9540 H 899.186 1.0473 1.1345 0
M  V30 9541 H 901.144 0.0839547 4.10414 0
M  V30 9542 H 899.805 -0.511413 3.09909 0
M  V30 9543 H 898.998 0.998593 4.94008 0
M  V30 9544 H 898.6 1.67527 3.34381 0
M  V30 9545 H 900.892 1.88177 6.50842 0
M  V30 9546 H 901.835 3.37898 6.22279 0
M  V30 9547 H 902.243 1.89027 5.31911 0
M  V30 9548 N 901.641 -1.19671 1.02551 0
M  V30 9549 C 902.604 -2.20987 0.608055 0
M  V30 9550 C 903.604 -1.5745 -0.326534 0
M  V30 9551 O 904.794 -1.73827 -0.114003 0
M  V30 9552 C 901.926 -3.4072 -0.11074 0
M  V30 9553 H 903.119 -2.59434 1.50446 0
M  V30 9554 H 900.672 -1.3329 0.816307 0
M  V30 9555 H 901.407 -3.07787 -1.02165 0
M  V30 9556 H 901.192 -3.88069 0.560772 0
M  V30 9557 H 902.682 -4.15776 -0.389848 0
M  V30 9558 N 903.119 -0.802921 -1.35613 0
M  V30 9559 C 904.029 -0.212177 -2.33639 0
M  V30 9560 C 905.045 0.642871 -1.61689 0
M  V30 9561 O 906.221 0.555485 -1.93588 0
M  V30 9562 C 903.286 0.632406 -3.40883 0
M  V30 9563 C 902.347 -0.242708 -4.28613 0
M  V30 9564 C 901.58 0.56166 -5.30736 0
M  V30 9565 O 901.803 1.79664 -5.41366 0
M  V30 9566 O 900.737 -0.0455387 -6.01883 0
M  V30 9567 H 904.563 -1.023 -2.85952 0
M  V30 9568 H 902.148 -0.564636 -1.38319 0
M  V30 9569 H 904.03 1.11358 -4.0642 0
M  V30 9570 H 902.705 1.42089 -2.90848 0
M  V30 9571 H 901.612 -0.77094 -3.6607 0
M  V30 9572 H 902.945 -0.995046 -4.82037 0
M  V30 9573 N 904.597 1.47463 -0.556102 0
M  V30 9574 C 905.844 2.02475 -0.0316337 0
M  V30 9575 C 906.172 1.43057 1.31777 0
M  V30 9576 O 905.427 0.575376 1.87051 0
M  V30 9577 C 905.726 3.57224 0.112126 0
M  V30 9578 C 905.392 4.35557 -1.16624 0
M  V30 9579 C 904.054 4.56678 -1.51654 0
M  V30 9580 C 906.406 4.8074 -2.01342 0
M  V30 9581 C 903.734 5.20231 -2.7125 0
M  V30 9582 C 906.086 5.45613 -3.2014 0
M  V30 9583 C 904.75 5.64967 -3.55484 0
M  V30 9584 H 904.02 0.74091 -0.0115756 0
M  V30 9585 H 906.667 1.77148 -0.727392 0
M  V30 9586 H 904.972 3.81538 0.890842 0
M  V30 9587 H 906.669 3.97438 0.533261 0
M  V30 9588 H 903.259 4.19395 -0.883489 0
M  V30 9589 H 907.443 4.64201 -1.75587 0
M  V30 9590 H 902.699 5.3341 -2.98804 0
M  V30 9591 H 906.873 5.79587 -3.86073 0
M  V30 9592 H 904.5 6.13984 -4.4825 0
M  V30 9593 N 906.075 0.2925 1.54862 0
M  V30 9594 C 907.322 -0.319263 1.99967 0
M  V30 9595 C 907.65 -1.54547 1.18092 0
M  V30 9596 O 906.905 -1.94186 0.242969 0
M  V30 9597 C 907.204 -0.728674 3.49893 0
M  V30 9598 C 906.87 0.394836 4.49168 0
M  V30 9599 C 905.532 0.703289 4.76033 0
M  V30 9600 C 907.884 1.15103 5.08331 0
M  V30 9601 C 905.212 1.77121 5.59325 0
M  V30 9602 C 907.564 2.20881 5.92785 0
M  V30 9603 C 906.228 2.52342 6.17964 0
M  V30 9604 H 905.498 -0.116827 0.731733 0
M  V30 9605 H 908.145 0.40983 1.87063 0
M  V30 9606 H 906.45 -1.53772 3.60363 0
M  V30 9607 H 908.147 -1.21305 3.82212 0
M  V30 9608 H 904.737 0.144319 4.28357 0
M  V30 9609 H 908.921 0.92599 4.87585 0
M  V30 9610 H 904.177 2.01978 5.77074 0
M  V30 9611 H 908.351 2.79939 6.37657 0
M  V30 9612 H 905.978 3.35225 6.82296 0
M  V30 9613 N 907.553 -1.57587 0.0200696 0
M  V30 9614 C 908.485 -2.06555 -0.993359 0
M  V30 9615 C 909.498 -0.987227 -1.29451 0
M  V30 9616 O 910.687 -1.26361 -1.26075 0
M  V30 9617 C 907.787 -2.4675 -2.3231 0
M  V30 9618 C 906.96 -3.77554 -2.20843 0
M  V30 9619 C 906.019 -4.04397 -3.36674 0
M  V30 9620 O 905.045 -4.7478 -3.13963 0
M  V30 9621 N 906.247 -3.53861 -4.60176 0
M  V30 9622 H 909.012 -2.9412 -0.575617 0
M  V30 9623 H 906.573 -1.61038 -0.166889 0
M  V30 9624 H 908.565 -2.61806 -3.08609 0
M  V30 9625 H 907.135 -1.64598 -2.65756 0
M  V30 9626 H 906.355 -3.72382 -1.29327 0
M  V30 9627 H 907.643 -4.63271 -2.10375 0
M  V30 9628 H 907.041 -2.96904 -4.81523 0
M  V30 9629 H 905.598 -3.74213 -5.33674 0
M  V30 9630 N 909.032 0.252966 -1.55557 0
M  V30 9631 C 909.964 1.33585 -1.86246 0
M  V30 9632 C 910.977 1.44584 -0.748291 0
M  V30 9633 O 912.166 1.46042 -1.02635 0
M  V30 9634 C 909.266 2.71509 -2.02821 0
M  V30 9635 C 908.439 2.82853 -3.33636 0
M  V30 9636 C 907.498 4.01581 -3.40028 0
M  V30 9637 O 906.524 3.91394 -4.13278 0
M  V30 9638 N 907.726 5.14474 -2.6888 0
M  V30 9639 H 910.491 1.07596 -2.7972 0
M  V30 9640 H 908.052 0.443075 -1.55719 0
M  V30 9641 H 910.044 3.49262 -2.04445 0
M  V30 9642 H 908.614 2.90232 -1.1612 0
M  V30 9643 H 907.834 1.91823 -3.4438 0
M  V30 9644 H 909.122 2.87378 -4.19871 0
M  V30 9645 H 908.52 5.25641 -2.09087 0
M  V30 9646 H 907.077 5.90385 -2.76204 0
M  V30 9647 N 910.51 1.48831 0.518367 0
M  V30 9648 C 911.758 1.57128 1.27103 0
M  V30 9649 C 912.079 0.252098 1.93364 0
M  V30 9650 O 911.349 -0.727281 1.819 0
M  V30 9651 H 909.929 0.578891 0.472116 0
M  V30 9652 H 912.591 1.85361 0.602262 0
M  V30 9653 H 911.687 2.35838 2.04418 0
M  V30 9654 N 911.988 -0.768124 1.37614 0
M  V30 9655 C 913.265 -1.51637 1.23554 0
M  V30 9656 C 913.645 -2.1042 -0.169331 0
M  V30 9657 O 912.993 -1.95834 -1.17735 0
M  V30 9658 C 913.203 -2.59436 2.33439 0
M  V30 9659 C 914.551 -3.2674 2.71157 0
M  V30 9660 O 915.575 -2.69733 2.32642 0
M  V30 9661 O 914.434 -4.29814 3.37524 0
M  V30 9662 H 911.528 -0.671778 0.482332 0
M  V30 9663 H 914.074 -0.804779 1.49403 0
M  V30 9664 H 912.846 -2.14146 3.27502 0
M  V30 9665 H 912.469 -3.38192 2.09073 0
M  V30 9666 N 913.466 -1.22244 -0.994698 0
M  V30 9667 C 914.882 -0.982006 -1.25813 0
M  V30 9668 C 915.082 0.325488 -1.98854 0
M  V30 9669 O 914.138 1.04857 -2.29698 0
M  V30 9670 C 915.451 -2.1795 -2.07167 0
M  V30 9671 C 916.999 -2.22287 -2.20358 0
M  V30 9672 C 917.474 -3.41583 -3.05098 0
M  V30 9673 N 918.965 -3.41734 -3.12686 0
M  V30 9674 C 919.7 -4.30692 -3.78539 0
M  V30 9675 N 919.196 -5.29865 -4.46335 0
M  V30 9676 N 920.989 -4.18473 -3.75283 0
M  V30 9677 H 913.14 -2.0631 -0.504963 0
M  V30 9678 H 915.403 -0.90395 -0.285618 0
M  V30 9679 H 915.109 -3.12758 -1.60858 0
M  V30 9680 H 914.983 -2.17862 -3.07922 0
M  V30 9681 H 917.37 -1.28028 -2.65881 0
M  V30 9682 H 917.451 -2.26414 -1.19039 0
M  V30 9683 H 917.095 -4.36141 -2.60275 0
M  V30 9684 H 917.025 -3.34695 -4.06555 0
M  V30 9685 H 919.516 -2.69969 -2.64433 0
M  V30 9686 H 919.829 -5.94027 -4.9432 0
M  V30 9687 H 918.174 -5.3378 -4.45089 0
M  V30 9688 H 921.365 -3.40249 -3.21478 0
M  V30 9689 H 921.538 -4.88007 -4.26326 0
M  V30 9690 N 914.944 1.19125 -1.03184 0
M  V30 9691 C 915.854 2.26112 -0.625329 0
M  V30 9692 C 916.87 1.7056 0.344298 0
M  V30 9693 O 918.046 2.0039 0.20144 0
M  V30 9694 C 915.111 3.46697 0.0145169 0
M  V30 9695 C 914.172 4.17419 -1.00299 0
M  V30 9696 C 913.405 5.32247 -0.393581 0
M  V30 9697 O 913.628 5.64724 0.802659 0
M  V30 9698 O 912.562 5.91428 -1.1179 0
M  V30 9699 H 916.388 2.63131 -1.51643 0
M  V30 9700 H 913.973 1.26036 -0.802197 0
M  V30 9701 H 915.855 4.19762 0.371139 0
M  V30 9702 H 914.53 3.11521 0.879581 0
M  V30 9703 H 913.437 3.4646 -1.41125 0
M  V30 9704 H 914.77 4.56573 -1.83852 0
M  V30 9705 N 916.422 0.810101 1.35185 0
M  V30 9706 C 917.838 0.494269 1.51754 0
M  V30 9707 C 918.038 -0.983907 1.75845 0
M  V30 9708 O 917.094 -1.76882 1.80191 0
M  V30 9709 C 918.407 1.34268 2.69059 0
M  V30 9710 C 919.955 1.33848 2.82938 0
M  V30 9711 C 920.43 2.17109 4.03271 0
M  V30 9712 N 921.921 2.14664 4.10456 0
M  V30 9713 C 922.656 2.75843 5.02691 0
M  V30 9714 N 922.152 3.45962 6.00235 0
M  V30 9715 N 923.945 2.65465 4.95464 0
M  V30 9716 H 916.096 1.76736 1.17805 0
M  V30 9717 H 918.359 0.752429 0.576676 0
M  V30 9718 H 918.065 2.39183 2.57845 0
M  V30 9719 H 917.939 0.998362 3.63748 0
M  V30 9720 H 920.326 0.29716 2.936 0
M  V30 9721 H 920.407 1.72269 1.89095 0
M  V30 9722 H 920.051 3.21283 3.93369 0
M  V30 9723 H 919.981 1.76046 4.96302 0
M  V30 9724 H 922.472 1.63648 3.40628 0
M  V30 9725 H 922.785 3.89922 6.67219 0
M  V30 9726 H 921.13 3.50067 6.00398 0
M  V30 9727 H 924.321 2.1027 4.18215 0
M  V30 9728 H 924.494 3.13433 5.67154 0
M  V30 9729 N 917.9 -1.47166 0.563914 0
M  V30 9730 C 918.81 -2.33885 -0.182977 0
M  V30 9731 C 919.826 -1.48605 -0.905132 0
M  V30 9732 O 921.002 -1.81518 -0.872527 0
M  V30 9733 C 918.067 -3.25433 -1.19558 0
M  V30 9734 C 917.128 -4.26607 -0.480129 0
M  V30 9735 C 916.361 -5.1378 -1.44449 0
M  V30 9736 O 916.584 -5.03531 -2.67979 0
M  V30 9737 O 915.518 -5.94109 -0.965321 0
M  V30 9738 H 919.344 -2.99065 0.528544 0
M  V30 9739 H 916.929 -1.45834 0.324468 0
M  V30 9740 H 918.811 -3.81964 -1.77993 0
M  V30 9741 H 917.486 -2.62873 -1.8889 0
M  V30 9742 H 916.393 -3.73817 0.145583 0
M  V30 9743 H 917.726 -4.919 0.171868 0
M  V30 9744 N 919.378 -0.300708 -1.54705 0
M  V30 9745 C 920.794 0.0526874 -1.59513 0
M  V30 9746 C 920.994 1.52444 -1.31769 0
M  V30 9747 O 920.05 2.27716 -1.09096 0
M  V30 9748 C 921.363 -0.344989 -2.98714 0
M  V30 9749 C 922.911 -0.29373 -3.11619 0
M  V30 9750 C 923.386 -0.666225 -4.53129 0
M  V30 9751 N 924.877 -0.618749 -4.59049 0
M  V30 9752 C 925.612 -0.879447 -5.66616 0
M  V30 9753 N 925.108 -1.2061 -6.82221 0
M  V30 9754 N 926.901 -0.806528 -5.56284 0
M  V30 9755 H 919.052 -1.25988 -1.71 0
M  V30 9756 H 921.315 -0.510758 -0.798643 0
M  V30 9757 H 921.021 -1.36953 -3.2394 0
M  V30 9758 H 920.895 0.301507 -3.75993 0
M  V30 9759 H 923.282 0.72156 -2.86142 0
M  V30 9760 H 923.363 -0.974844 -2.36496 0
M  V30 9761 H 923.007 -1.67932 -4.79334 0
M  V30 9762 H 922.937 0.0369575 -5.26587 0
M  V30 9763 H 925.428 -0.377202 -3.76013 0
M  V30 9764 H 925.741 -1.391 -7.60178 0
M  V30 9765 H 924.086 -1.24413 -6.83774 0
M  V30 9766 H 927.277 -0.550993 -4.64846 0
M  V30 9767 H 927.45 -1.01307 -6.40032 0
M  V30 9768 N 920.856 1.57574 -0.0284266 0
M  V30 9769 C 922.104 1.91393 0.649079 0
M  V30 9770 C 922.425 0.905368 1.72708 0
M  V30 9771 O 921.695 -0.0532107 1.95828 0
M  V30 9772 H 920.275 0.70646 0.24274 0
M  V30 9773 H 922.937 1.94752 -0.076066 0
M  V30 9774 H 922.033 2.91988 1.10226 0
M  V30 9775 N 922.334 -0.244713 1.55689 0
M  V30 9776 C 923.267 -1.32946 1.85474 0
M  V30 9777 C 924.245 -1.46279 0.710021 0
M  V30 9778 O 925.429 -1.62459 0.956004 0
M  V30 9779 C 922.556 -2.7027 2.04137 0
M  V30 9780 C 921.602 -2.74075 3.2678 0
M  V30 9781 S 922.435 -2.30465 4.8337 0
M  V30 9782 C 923.591 -3.69709 5.05041 0
M  V30 9783 H 923.824 -1.07482 2.77191 0
M  V30 9784 H 921.357 -0.445807 1.47824 0
M  V30 9785 H 923.315 -3.4934 2.15574 0
M  V30 9786 H 921.976 -2.9297 1.13259 0
M  V30 9787 H 921.169 -3.74932 3.36812 0
M  V30 9788 H 920.771 -2.03051 3.1408 0
M  V30 9789 H 923.063 -4.65222 4.92518 0
M  V30 9790 H 924.006 -3.6461 6.07014 0
M  V30 9791 H 924.414 -3.62323 4.32877 0
M  V30 9792 N 923.813 -1.49104 -0.510467 0
M  V30 9793 C 924.723 -1.67792 -1.6396 0
M  V30 9794 C 925.739 -0.560454 -1.64727 0
M  V30 9795 O 926.915 -0.833985 -1.83321 0
M  V30 9796 C 923.98 -1.73154 -3.00364 0
M  V30 9797 C 923.041 -2.9667 -3.10299 0
M  V30 9798 C 922.274 -3.01767 -4.40196 0
M  V30 9799 O 922.497 -2.1472 -5.28443 0
M  V30 9800 O 921.431 -3.94137 -4.54906 0
M  V30 9801 H 925.257 -2.63428 -1.51126 0
M  V30 9802 H 922.842 -1.32734 -0.685719 0
M  V30 9803 H 924.724 -1.79089 -3.81451 0
M  V30 9804 H 923.399 -0.806952 -3.1348 0
M  V30 9805 H 922.306 -2.96257 -2.28435 0
M  V30 9806 H 923.639 -3.88578 -3.02106 0
M  V30 9807 N 925.291 0.760815 -1.38019 0
M  V30 9808 C 926.54 1.51506 -1.3315 0
M  V30 9809 C 926.853 1.95444 0.0782124 0
M  V30 9810 O 928.059 2.70352 0.249418 0
M  V30 9811 C 926.515 2.73636 -2.33776 0
M  V30 9812 C 926.123 2.36753 -3.80332 0
M  V30 9813 C 927.867 3.51548 -2.37937 0
M  V30 9814 C 925.774 3.55451 -4.72661 0
M  V30 9815 H 924.704 0.568844 -0.494907 0
M  V30 9816 H 927.355 0.832343 -1.63537 0
M  V30 9817 H 925.737 3.43852 -1.96422 0
M  V30 9818 H 926.911 1.7425 -4.26584 0
M  V30 9819 H 925.226 1.71991 -3.7922 0
M  V30 9820 H 927.823 4.39791 -3.04119 0
M  V30 9821 H 928.166 3.9219 -1.39617 0
M  V30 9822 H 928.699 2.88339 -2.74054 0
M  V30 9823 H 925.438 3.19882 -5.7215 0
M  V30 9824 H 924.958 4.17022 -4.31107 0
M  V30 9825 H 926.637 4.22125 -4.90326 0
M  V30 9826 N 926.769 1.22769 0.988202 0
M  V30 9827 C 927.994 1.08239 1.76915 0
M  V30 9828 C 928.419 -0.362519 1.84574 0
M  V30 9829 O 927.777 -1.26202 1.30165 0
M  V30 9830 C 927.825 1.70363 3.17819 0
M  V30 9831 O 926.929 0.960484 4.01059 0
M  V30 9832 H 926.27 0.379872 0.544604 0
M  V30 9833 H 928.8 1.62663 1.24104 0
M  V30 9834 H 928.81 1.7528 3.6843 0
M  V30 9835 H 927.485 2.75505 3.1156 0
M  V30 9836 H 926.062 0.987667 3.59582 0
M  V30 9837 N 928.247 -1.18576 1.03814 0
M  V30 9838 C 929.658 -1.70159 0.768299 0
M  V30 9839 C 930.009 -1.8286 -0.711106 0
M  V30 9840 O 929.134 -1.5063 -1.55369 0
M  V30 9841 C 929.729 -3.09062 1.38804 0
M  V30 9842 C 928.288 -3.57866 1.16656 0
M  V30 9843 C 927.435 -2.34484 1.48029 0
M  V30 9844 H 930.386 -1.03287 1.20488 0
M  V30 9845 H 930.407 -3.72211 0.7899 0
M  V30 9846 H 929.919 -2.99785 2.46476 0
M  V30 9847 H 928.02 -3.72442 0.108471 0
M  V30 9848 H 928.133 -4.41445 1.8618 0
M  V30 9849 H 926.497 -2.38273 0.899902 0
M  V30 9850 H 927.28 -2.27829 2.56805 0
M  V30 9851 N 929.725 -0.817259 -1.34754 0
M  V30 9852 C 930.658 -0.180483 -2.27485 0
M  V30 9853 C 931.636 0.659792 -1.48612 0
M  V30 9854 O 932.82 0.624761 -1.77845 0
M  V30 9855 C 929.947 0.748487 -3.30326 0
M  V30 9856 C 928.993 -0.0135304 -4.26498 0
M  V30 9857 S 929.826 -1.35685 -5.18025 0
M  V30 9858 C 930.982 -0.432605 -6.24403 0
M  V30 9859 H 931.215 -0.966677 -2.81145 0
M  V30 9860 H 928.748 -0.612864 -1.41716 0
M  V30 9861 H 930.706 1.27893 -3.90069 0
M  V30 9862 H 929.367 1.50816 -2.75524 0
M  V30 9863 H 928.56 0.692454 -4.9922 0
M  V30 9864 H 928.162 -0.474344 -3.7098 0
M  V30 9865 H 930.454 0.378035 -6.76444 0
M  V30 9866 H 931.397 -1.12934 -6.99036 0
M  V30 9867 H 931.805 -0.0235533 -5.64495 0
M  V30 9868 N 931.203 1.46865 -0.571711 0
M  V30 9869 C 932.443 2.04324 -0.0556487 0
M  V30 9870 C 932.807 1.43486 1.27576 0
M  V30 9871 O 934.008 1.92079 1.8804 0
M  V30 9872 C 932.279 3.57394 0.0206263 0
M  V30 9873 S 933.838 4.36159 0.480709 0
M  V30 9874 H 930.656 0.710273 -0.0321467 0
M  V30 9875 H 933.258 1.8005 -0.761725 0
M  V30 9876 H 931.962 3.99193 -0.952509 0
M  V30 9877 H 931.493 3.86188 0.749812 0
M  V30 9878 H 933.508 4.6478 1.73763 0
M  V30 9879 N 932.681 0.308908 1.54543 0
M  V30 9880 C 933.958 -0.351558 1.92415 0
M  V30 9881 C 934.338 -1.71061 1.23699 0
M  V30 9882 O 933.686 -2.25394 0.3755 0
M  V30 9883 C 933.896 -0.458357 3.45977 0
M  V30 9884 C 935.244 -0.725524 4.18355 0
M  V30 9885 O 936.268 -0.541859 3.52054 0
M  V30 9886 O 935.127 -1.07884 5.35745 0
M  V30 9887 H 932.221 -0.197957 0.802958 0
M  V30 9888 H 934.767 0.357548 1.65891 0
M  V30 9889 H 933.539 0.496723 3.88134 0
M  V30 9890 H 933.162 -1.21562 3.78561 0
M  V30 9891 N 934.159 -1.57557 0.0367827 0
M  V30 9892 C 935.106 -2.10679 -0.942499 0
M  V30 9893 C 936.076 -1.01068 -1.31812 0
M  V30 9894 O 937.261 -1.28533 -1.41011 0
M  V30 9895 C 934.401 -2.64467 -2.21701 0
M  V30 9896 C 933.514 -3.88114 -1.89715 0
M  V30 9897 C 932.649 -4.30268 -3.11518 0
M  V30 9898 C 931.688 -5.46652 -2.75387 0
M  V30 9899 N 930.825 -5.83927 -3.89838 0
M  V30 9900 H 935.665 -2.94066 -0.482588 0
M  V30 9901 H 933.202 -1.45344 -0.226597 0
M  V30 9902 H 935.16 -2.93745 -2.96259 0
M  V30 9903 H 933.79 -1.83898 -2.65295 0
M  V30 9904 H 932.842 -3.65516 -1.05366 0
M  V30 9905 H 934.154 -4.72743 -1.5911 0
M  V30 9906 H 933.308 -4.61023 -3.94389 0
M  V30 9907 H 932.047 -3.44421 -3.4529 0
M  V30 9908 H 931.052 -5.15583 -1.90929 0
M  V30 9909 H 932.277 -6.34204 -2.42822 0
M  V30 9910 H 930.223 -5.01035 -4.23438 0
M  V30 9911 H 930.14 -6.63214 -3.62883 0
M  V30 9912 H 931.408 -6.19291 -4.73391 0
M  V30 9913 N 935.637 0.236453 -1.55816 0
M  V30 9914 C 936.587 1.29603 -1.87582 0
M  V30 9915 C 937.571 1.42999 -0.737566 0
M  V30 9916 O 938.763 1.46065 -0.999701 0
M  V30 9917 C 935.892 2.64945 -2.1831 0
M  V30 9918 C 934.978 2.55511 -3.38489 0
M  V30 9919 N 935.369 2.15716 -4.57494 0
M  V30 9920 C 933.667 2.86502 -3.41808 0
M  V30 9921 C 934.368 2.17169 -5.39641 0
M  V30 9922 N 933.344 2.5708 -4.78969 0
M  V30 9923 H 937.146 0.979016 -2.77115 0
M  V30 9924 H 934.66 0.445058 -1.56183 0
M  V30 9925 H 936.657 3.41426 -2.39236 0
M  V30 9926 H 935.317 2.97504 -1.30082 0
M  V30 9927 H 936.328 1.87089 -4.82927 0
M  V30 9928 H 933.005 3.23533 -2.6388 0
M  V30 9929 H 934.395 1.88653 -6.44872 0
M  V30 9930 N 937.115 1.49373 0.502552 0
M  V30 9931 C 938.343 1.62488 1.28084 0
M  V30 9932 C 938.758 0.295667 1.86471 0
M  V30 9933 O 938.115 -0.718664 1.67754 0
M  V30 9934 C 938.166 2.69249 2.4122 0
M  V30 9935 O 937.887 3.97014 1.85234 0
M  V30 9936 C 939.388 2.93054 3.32617 0
M  V30 9937 H 936.608 0.547068 0.388533 0
M  V30 9938 H 939.152 1.95394 0.603452 0
M  V30 9939 H 937.307 2.39125 3.04792 0
M  V30 9940 H 937.721 4.55809 2.59496 0
M  V30 9941 H 939.195 3.71493 4.08285 0
M  V30 9942 H 939.672 2.02911 3.89517 0
M  V30 9943 H 940.278 3.24589 2.74813 0
M  V30 9944 N 938.594 -0.753485 1.38421 0
M  V30 9945 C 939.557 -1.84888 1.35459 0
M  V30 9946 C 940.557 -1.58764 0.255083 0
M  V30 9947 O 941.747 -1.66507 0.511978 0
M  V30 9948 C 938.879 -3.22361 1.10888 0
M  V30 9949 H 940.072 -1.88922 2.32913 0
M  V30 9950 H 937.625 -0.955199 1.23716 0
M  V30 9951 H 938.36 -3.23996 0.1404 0
M  V30 9952 H 938.145 -3.42717 1.90492 0
M  V30 9953 H 939.635 -4.02437 1.1151 0
M  V30 9954 N 940.072 -1.23292 -0.981677 0
M  V30 9955 C 941.297 -1.09176 -1.76339 0
M  V30 9956 C 941.722 0.352726 -1.84763 0
M  V30 9957 O 941.08 1.25509 -1.30832 0
M  V30 9958 C 941.128 -1.72046 -3.16911 0
M  V30 9959 O 940.232 -0.98174 -4.00544 0
M  V30 9960 H 939.573 -0.382755 -0.542581 0
M  V30 9961 H 942.103 -1.63319 -1.23239 0
M  V30 9962 H 942.113 -1.77232 -3.67495 0
M  V30 9963 H 940.788 -2.77154 -3.10095 0
M  V30 9964 H 939.365 -1.00672 -3.59054 0
M  V30 9965 N 941.55 1.18024 -1.04442 0
M  V30 9966 C 942.796 1.88377 -0.751133 0
M  V30 9967 C 943.129 1.80377 0.719571 0
M  V30 9968 O 942.404 1.20662 1.52548 0
M  V30 9969 C 942.687 3.38708 -1.22265 0
M  V30 9970 C 942.54 3.55499 -2.75574 0
M  V30 9971 C 943.859 4.32475 -0.815688 0
M  V30 9972 H 940.978 0.684037 -0.27434 0
M  V30 9973 H 943.62 1.38837 -1.29709 0
M  V30 9974 H 941.77 3.8103 -0.758192 0
M  V30 9975 H 943.442 3.22244 -3.30086 0
M  V30 9976 H 941.685 2.98028 -3.15217 0
M  V30 9977 H 942.356 4.60994 -3.03625 0
M  V30 9978 H 944.832 3.97953 -1.21542 0
M  V30 9979 H 943.708 5.36213 -1.17331 0
M  V30 9980 H 943.969 4.41207 0.280901 0
M  V30 9981 N 943.028 0.824394 1.34319 0
M  V30 9982 C 943.938 0.24932 2.33271 0
M  V30 9983 C 944.954 -0.617066 1.62691 0
M  V30 9984 O 946.13 -0.524616 1.94447 0
M  V30 9985 C 943.195 -0.578094 3.41846 0
M  V30 9986 C 942.256 0.310866 4.28173 0
M  V30 9987 C 941.489 -0.477153 5.31563 0
M  V30 9988 O 941.712 -1.71028 5.44156 0
M  V30 9989 O 940.646 0.141287 6.01734 0
M  V30 9990 H 944.472 1.06837 2.84288 0
M  V30 9991 H 942.057 0.58657 1.37403 0
M  V30 9992 H 943.939 -1.04878 4.0814 0
M  V30 9993 H 942.614 -1.37444 2.93071 0
M  V30 9994 H 941.521 0.829081 3.64797 0
M  V30 9995 H 942.854 1.07161 4.80393 0
M  V30 9996 N 944.506 -1.46559 0.579492 0
M  V30 9997 C 945.453 -2.30275 -0.155598 0
M  V30 9998 C 946.423 -1.40422 -0.887175 0
M  V30 9999 O 947.608 -1.69373 -0.878481 0
M  V30 10000 C 944.748 -3.24827 -1.16539 0
M  V30 10001 C 943.861 -4.29778 -0.43759 0
M  V30 10002 C 942.996 -5.11461 -1.43462 0
M  V30 10003 C 942.035 -6.08164 -0.693048 0
M  V30 10004 N 941.172 -6.82726 -1.63799 0
M  V30 10005 H 946.012 -2.92607 0.564356 0
M  V30 10006 H 943.549 -1.44211 0.290126 0
M  V30 10007 H 945.507 -3.78088 -1.76368 0
M  V30 10008 H 944.137 -2.64311 -1.8531 0
M  V30 10009 H 943.189 -3.794 0.27567 0
M  V30 10010 H 944.501 -4.98597 0.142298 0
M  V30 10011 H 943.655 -5.68982 -2.1058 0
M  V30 10012 H 942.394 -4.42595 -2.04844 0
M  V30 10013 H 941.399 -5.49799 -0.00807093 0
M  V30 10014 H 942.624 -6.79047 -0.0846678 0
M  V30 10015 H 940.57 -6.16572 -2.23997 0
M  V30 10016 H 940.487 -7.47795 -1.11082 0
M  V30 10017 H 941.755 -7.44807 -2.29962 0
M  V30 10018 N 945.984 -0.3171 -1.54377 0
M  V30 10019 C 947.209 0.292311 -2.0533 0
M  V30 10020 C 947.634 1.45503 -1.19207 0
M  V30 10021 O 946.992 1.80197 -0.199721 0
M  V30 10022 C 947.04 0.710787 -3.53525 0
M  V30 10023 O 946.144 1.81387 -3.70368 0
M  V30 10024 H 945.485 0.0539976 -0.661801 0
M  V30 10025 H 948.015 -0.463629 -1.99278 0
M  V30 10026 H 948.025 0.995216 -3.95676 0
M  V30 10027 H 946.7 -0.139668 -4.15665 0
M  V30 10028 H 945.277 1.52875 -3.40123 0
M  V30 10029 N 947.462 1.57535 -0.0451378 0
M  V30 10030 C 948.394 2.08109 0.960372 0
M  V30 10031 C 949.407 1.0077 1.27864 0
M  V30 10032 O 950.596 1.28351 1.24049 0
M  V30 10033 C 947.696 2.50414 2.28355 0
M  V30 10034 C 946.869 3.8102 2.14808 0
M  V30 10035 C 945.928 4.09702 3.30198 0
M  V30 10036 O 944.954 4.79715 3.0637 0
M  V30 10037 N 946.156 3.61138 4.54489 0
M  V30 10038 H 948.921 2.94999 0.528752 0
M  V30 10039 H 946.482 1.61283 0.141248 0
M  V30 10040 H 948.474 2.66683 3.04405 0
M  V30 10041 H 947.044 1.68805 2.63104 0
M  V30 10042 H 946.264 3.74392 1.23387 0
M  V30 10043 H 947.552 4.66559 2.02978 0
M  V30 10044 H 946.95 3.04527 4.76739 0
M  V30 10045 H 945.507 3.82656 5.27653 0
M  V30 10046 N 948.94 -0.228186 1.55939 0
M  V30 10047 C 950.186 -0.954964 1.78909 0
M  V30 10048 C 950.519 -1.8425 0.613648 0
M  V30 10049 O 949.794 -1.90604 -0.38737 0
M  V30 10050 C 950.077 -1.79957 3.1191 0
M  V30 10051 C 949.93 -0.938968 4.3989 0
M  V30 10052 C 951.249 -2.77859 3.41295 0
M  V30 10053 H 948.368 -0.345745 0.650868 0
M  V30 10054 H 951.01 -0.224244 1.88672 0
M  V30 10055 H 949.16 -2.42256 3.03717 0
M  V30 10056 H 950.832 -0.333225 4.60095 0
M  V30 10057 H 949.075 -0.244096 4.33113 0
M  V30 10058 H 949.746 -1.56416 5.29375 0
M  V30 10059 H 952.222 -2.25695 3.49572 0
M  V30 10060 H 951.098 -3.34062 4.35538 0
M  V30 10061 H 951.359 -3.55266 2.63132 0
M  V30 10062 N 950.418 -1.49637 -0.494624 0
M  V30 10063 C 951.666 -1.5913 -1.24587 0
M  V30 10064 C 951.987 -0.282828 -1.92938 0
M  V30 10065 O 951.257 0.69825 -1.83034 0
M  V30 10066 H 949.837 -0.586329 -0.462847 0
M  V30 10067 H 952.499 -1.86296 -0.572696 0
M  V30 10068 H 951.595 -2.3906 -2.00641 0
M  V30 10069 N 951.896 0.746133 -1.38819 0
M  V30 10070 C 953.143 1.50545 -1.35434 0
M  V30 10071 C 953.471 1.94427 0.0532669 0
M  V30 10072 O 952.726 1.66285 1.03188 0
M  V30 10073 C 953.025 2.76639 -2.26286 0
M  V30 10074 C 952.691 2.51682 -3.74122 0
M  V30 10075 C 951.353 2.44584 -4.14406 0
M  V30 10076 C 953.705 2.30071 -4.67672 0
M  V30 10077 C 951.033 2.13902 -5.46318 0
M  V30 10078 C 953.385 2.00907 -5.99849 0
M  V30 10079 C 952.049 1.92271 -6.39209 0
M  V30 10080 H 951.319 0.550883 -0.49559 0
M  V30 10081 H 953.966 0.857337 -1.71237 0
M  V30 10082 H 952.271 3.46138 -1.83564 0
M  V30 10083 H 953.968 3.34626 -2.20967 0
M  V30 10084 H 950.558 2.5808 -3.42188 0
M  V30 10085 H 954.742 2.34528 -4.3739 0
M  V30 10086 H 949.998 2.0573 -5.75748 0
M  V30 10087 H 954.172 1.83191 -6.71874 0
M  V30 10088 H 951.799 1.68261 -7.41345 0
M  V30 10089 N 953.375 1.23811 0.975125 0
M  V30 10090 C 954.624 1.06741 1.71141 0
M  V30 10091 C 954.937 -0.394986 1.9157 0
M  V30 10092 O 956.143 -0.685723 2.62698 0
M  V30 10093 C 954.599 1.86168 3.08009 0
M  V30 10094 C 954.207 3.36771 2.95448 0
M  V30 10095 C 955.951 1.77604 3.85561 0
M  V30 10096 C 953.858 4.0857 4.2758 0
M  V30 10097 H 952.788 0.395819 0.64175 0
M  V30 10098 H 955.439 1.47825 1.0872 0
M  V30 10099 H 953.821 1.37893 3.71216 0
M  V30 10100 H 954.995 3.92571 2.41298 0
M  V30 10101 H 953.31 3.46205 2.31368 0
M  V30 10102 H 955.907 2.28556 4.83391 0
M  V30 10103 H 956.25 0.739837 4.09673 0
M  V30 10104 H 956.783 2.23519 3.29065 0
M  V30 10105 H 953.522 5.12518 4.08663 0
M  V30 10106 H 953.042 3.57556 4.81574 0
M  V30 10107 H 954.721 4.15157 4.9624 0
M  V30 10108 N 954.853 -1.17469 1.05066 0
M  V30 10109 C 956.13 -1.83625 0.673872 0
M  V30 10110 C 956.51 -1.93412 -0.845871 0
M  V30 10111 O 955.858 -1.4677 -1.75131 0
M  V30 10112 C 956.068 -3.21352 1.36139 0
M  V30 10113 C 957.416 -3.97274 1.49863 0
M  V30 10114 O 958.44 -3.30827 1.3203 0
M  V30 10115 O 957.299 -5.16349 1.79013 0
M  V30 10116 H 954.393 -0.792297 0.237055 0
M  V30 10117 H 956.939 -1.24776 1.15017 0
M  V30 10118 H 955.711 -3.0919 2.39827 0
M  V30 10119 H 955.334 -3.87867 0.874364 0
M  V30 10120 N 956.331 -0.831506 -1.3388 0
M  V30 10121 C 957.561 -0.436292 -2.01941 0
M  V30 10122 C 957.969 0.964979 -1.62741 0
M  V30 10123 O 957.312 1.63733 -0.832894 0
M  V30 10124 C 957.374 -0.468811 -3.5643 0
M  V30 10125 C 957.038 -1.82491 -4.18982 0
M  V30 10126 C 958.035 -2.78705 -4.38885 0
M  V30 10127 C 955.72 -2.11574 -4.55568 0
M  V30 10128 C 957.714 -4.02168 -4.94509 0
M  V30 10129 C 955.401 -3.35296 -5.10901 0
M  V30 10130 C 956.399 -4.3041 -5.30317 0
M  V30 10131 O 956.087 -5.51944 -5.84477 0
M  V30 10132 H 955.819 -0.172335 -0.653664 0
M  V30 10133 H 958.373 -1.12354 -1.71947 0
M  V30 10134 H 956.603 0.275179 -3.8572 0
M  V30 10135 H 958.292 -0.0924518 -4.05795 0
M  V30 10136 H 959.058 -2.57534 -4.10976 0
M  V30 10137 H 954.937 -1.38338 -4.39754 0
M  V30 10138 H 958.481 -4.76418 -5.09579 0
M  V30 10139 H 954.378 -3.56326 -5.3824 0
M  V30 10140 H 955.146 -5.53582 -6.029 0
M  V30 10141 N 957.809 1.4625 -0.587256 0
M  V30 10142 C 959.058 2.01571 -0.0722643 0
M  V30 10143 C 959.371 1.46385 1.29733 0
M  V30 10144 O 960.577 1.93554 1.90392 0
M  V30 10145 C 959.033 3.59814 -0.078579 0
M  V30 10146 C 958.641 4.23996 -1.44678 0
M  V30 10147 C 960.385 4.22776 0.382231 0
M  V30 10148 C 958.292 5.74332 -1.41057 0
M  V30 10149 H 957.222 0.753642 -0.0232461 0
M  V30 10150 H 959.873 1.67936 -0.739577 0
M  V30 10151 H 958.255 3.90546 0.654988 0
M  V30 10152 H 959.429 4.04867 -2.20043 0
M  V30 10153 H 957.744 3.73147 -1.84799 0
M  V30 10154 H 960.341 5.32983 0.428182 0
M  V30 10155 H 960.684 3.92027 1.40072 0
M  V30 10156 H 961.217 3.96687 -0.297417 0
M  V30 10157 H 957.956 6.09747 -2.40601 0
M  V30 10158 H 957.476 5.95711 -0.699185 0
M  V30 10159 H 959.155 6.37137 -1.12543 0
M  V30 10160 N 959.287 0.325282 1.54207 0
M  V30 10161 C 960.533 -0.277185 2.00897 0
M  V30 10162 C 960.866 -1.51651 1.21308 0
M  V30 10163 O 960.141 -1.92237 0.295825 0
M  V30 10164 C 960.424 -0.60961 3.54902 0
M  V30 10165 C 960.277 0.640542 4.45216 0
M  V30 10166 C 961.596 -1.42656 4.16338 0
M  V30 10167 H 958.715 -0.0992722 0.730284 0
M  V30 10168 H 961.357 0.442201 1.84783 0
M  V30 10169 H 959.507 -1.22249 3.68765 0
M  V30 10170 H 961.179 1.27878 4.43221 0
M  V30 10171 H 959.422 1.26908 4.14821 0
M  V30 10172 H 960.093 0.363459 5.50802 0
M  V30 10173 H 962.569 -0.908494 4.06061 0
M  V30 10174 H 961.445 -1.62792 5.24204 0
M  V30 10175 H 961.706 -2.42321 3.69774 0
M  V30 10176 N 960.765 -1.57509 0.0534917 0
M  V30 10177 C 961.715 -2.08179 -0.929802 0
M  V30 10178 C 962.699 -0.987451 -1.27036 0
M  V30 10179 O 963.891 -1.25076 -1.2524 0
M  V30 10180 C 961.02 -2.63221 -2.20385 0
M  V30 10181 C 960.106 -3.79629 -1.89058 0
M  V30 10182 N 960.497 -4.8931 -1.28101 0
M  V30 10183 C 958.795 -3.88578 -2.18914 0
M  V30 10184 C 959.496 -5.70329 -1.14455 0
M  V30 10185 N 958.472 -5.18011 -1.64821 0
M  V30 10186 H 962.274 -2.90374 -0.453874 0
M  V30 10187 H 959.788 -1.61697 -0.150899 0
M  V30 10188 H 961.785 -2.97827 -2.91727 0
M  V30 10189 H 960.445 -1.82466 -2.68582 0
M  V30 10190 H 961.456 -5.09058 -0.952924 0
M  V30 10191 H 958.133 -3.18769 -2.69616 0
M  V30 10192 H 959.523 -6.6854 -0.671129 0
M  V30 10193 N 962.243 0.219913 -1.56058 0
M  V30 10194 C 963.654 0.786766 -1.69313 0
M  V30 10195 C 964.005 1.84916 -0.655782 0
M  V30 10196 O 963.13 2.1554 0.192772 0
M  V30 10197 C 963.725 1.43387 -3.06962 0
M  V30 10198 C 962.284 1.94809 -3.22066 0
M  V30 10199 C 961.431 0.808863 -2.65241 0
M  V30 10200 H 964.382 -0.00476777 -1.58699 0
M  V30 10201 H 964.403 2.30272 -3.02911 0
M  V30 10202 H 963.915 0.660405 -3.8244 0
M  V30 10203 H 962.016 2.74952 -2.5146 0
M  V30 10204 H 962.129 2.12694 -4.293 0
M  V30 10205 H 960.493 1.21661 -2.23765 0
M  V30 10206 H 961.276 0.0480458 -3.43266 0
M  V30 10207 N 963.721 1.49897 0.486681 0
M  V30 10208 C 964.651 1.7054 1.59494 0
M  V30 10209 C 965.632 0.554184 1.60819 0
M  V30 10210 O 966.817 0.791617 1.77333 0
M  V30 10211 C 963.947 1.78517 2.97908 0
M  V30 10212 C 962.901 2.93571 3.11449 0
M  V30 10213 C 962.227 2.86674 4.51356 0
M  V30 10214 C 963.527 4.34308 2.90127 0
M  V30 10215 H 965.221 2.63329 1.42472 0
M  V30 10216 H 962.767 1.2672 0.683969 0
M  V30 10217 H 964.72 1.91544 3.75352 0
M  V30 10218 H 963.444 0.823381 3.16051 0
M  V30 10219 H 962.103 2.80169 2.36433 0
M  V30 10220 H 961.751 1.88373 4.66395 0
M  V30 10221 H 961.451 3.63903 4.61355 0
M  V30 10222 H 962.975 3.01728 5.30841 0
M  V30 10223 H 964.389 4.48317 3.57331 0
M  V30 10224 H 962.786 5.12869 3.11585 0
M  V30 10225 H 963.856 4.47759 1.86119 0
M  V30 10226 N 965.199 -0.738761 1.39212 0
M  V30 10227 C 966.445 -1.49942 1.37437 0
M  V30 10228 C 966.8 -1.92375 -0.0309496 0
M  V30 10229 O 966.093 -1.63635 -0.996706 0
M  V30 10230 C 966.287 -2.75435 2.2775 0
M  V30 10231 C 966.116 -2.45273 3.76924 0
M  V30 10232 C 964.886 -2.37755 4.45871 0
M  V30 10233 C 967.084 -2.11064 4.68995 0
M  V30 10234 N 965.066 -2.00023 5.804 0
M  V30 10235 C 966.437 -1.83746 5.92147 0
M  V30 10236 C 968.492 -1.975 4.57054 0
M  V30 10237 C 967.195 -1.4423 7.04692 0
M  V30 10238 C 969.221 -1.59388 5.69517 0
M  V30 10239 C 968.583 -1.32951 6.91739 0
M  V30 10240 H 964.682 -0.547671 0.558194 0
M  V30 10241 H 967.266 -0.858925 1.7473 0
M  V30 10242 H 965.437 -3.3727 1.92622 0
M  V30 10243 H 967.169 -3.41607 2.16995 0
M  V30 10244 H 963.924 -2.54725 3.99264 0
M  V30 10245 H 964.348 -1.83761 6.51583 0
M  V30 10246 H 968.99 -2.16609 3.63099 0
M  V30 10247 H 966.708 -1.23863 7.98551 0
M  V30 10248 H 970.294 -1.49504 5.62263 0
M  V30 10249 H 969.174 -1.039 7.77287 0
M  V30 10250 N 966.677 -1.24326 -0.968545 0
M  V30 10251 C 967.587 -1.05194 -2.09694 0
M  V30 10252 C 968.603 0.00701291 -1.73999 0
M  V30 10253 O 969.779 -0.190981 -2.00492 0
M  V30 10254 C 966.844 -0.658075 -3.40397 0
M  V30 10255 C 965.905 -1.79341 -3.90045 0
M  V30 10256 C 965.138 -1.41824 -5.14511 0
M  V30 10257 O 965.361 -0.307693 -5.69569 0
M  V30 10258 O 964.295 -2.24358 -5.58522 0
M  V30 10259 H 968.121 -1.99791 -2.2873 0
M  V30 10260 H 965.706 -1.03138 -1.08088 0
M  V30 10261 H 967.588 -0.449911 -4.18991 0
M  V30 10262 H 966.263 0.258782 -3.22664 0
M  V30 10263 H 965.17 -2.05632 -3.12516 0
M  V30 10264 H 966.503 -2.68901 -4.12254 0
M  V30 10265 N 968.156 1.1691 -1.05688 0
M  V30 10266 C 969.384 1.91204 -0.790485 0
M  V30 10267 C 969.799 1.77095 0.654434 0
M  V30 10268 O 969.156 1.11146 1.44751 0
M  V30 10269 C 969.207 3.42108 -1.16808 0
M  V30 10270 O 968.928 3.55788 -2.55629 0
M  V30 10271 C 970.429 4.33466 -0.92855 0
M  V30 10272 H 967.649 0.606508 -0.287035 0
M  V30 10273 H 970.193 1.48225 -1.40888 0
M  V30 10274 H 968.348 3.82814 -0.59434 0
M  V30 10275 H 968.762 4.49321 -2.70575 0
M  V30 10276 H 970.236 5.37836 -1.24245 0
M  V30 10277 H 970.713 4.38989 0.136016 0
M  V30 10278 H 971.319 3.98481 -1.48638 0
M  V30 10279 N 969.634 0.838594 1.33437 0
M  V30 10280 C 970.88 0.444042 1.98494 0
M  V30 10281 C 971.235 -0.985759 1.65229 0
M  V30 10282 O 970.528 -1.67972 0.921736 0
M  V30 10283 C 970.722 0.601425 3.52303 0
M  V30 10284 C 970.551 2.04497 4.00513 0
M  V30 10285 C 969.321 2.68015 4.28364 0
M  V30 10286 C 971.519 3.01367 4.16752 0
M  V30 10287 N 969.501 4.03448 4.62713 0
M  V30 10288 C 970.872 4.21745 4.54457 0
M  V30 10289 C 972.927 2.97776 3.99041 0
M  V30 10290 C 971.63 5.39009 4.76301 0
M  V30 10291 C 973.656 4.14269 4.22061 0
M  V30 10292 C 973.018 5.33402 4.60067 0
M  V30 10293 H 969.117 0.210906 0.753022 0
M  V30 10294 H 971.701 1.0866 1.61558 0
M  V30 10295 H 969.872 -0.0113326 3.88398 0
M  V30 10296 H 971.604 0.178343 4.04307 0
M  V30 10297 H 968.359 2.19153 4.19844 0
M  V30 10298 H 968.783 4.73264 4.84098 0
M  V30 10299 H 973.425 2.06801 3.68773 0
M  V30 10300 H 971.143 6.30529 5.0543 0
M  V30 10301 H 974.729 4.12908 4.09876 0
M  V30 10302 H 973.609 6.22045 4.77525 0
M  V30 10303 N 971.112 -1.45937 0.595003 0
M  V30 10304 C 972.075 -2.2888 -0.121102 0
M  V30 10305 C 973.075 -1.39075 -0.807149 0
M  V30 10306 O 974.265 -1.61326 -0.657228 0
M  V30 10307 C 971.397 -3.19778 -1.1813 0
M  V30 10308 H 972.59 -2.93673 0.607968 0
M  V30 10309 H 970.143 -1.5225 0.353495 0
M  V30 10310 H 970.878 -2.59759 -1.94154 0
M  V30 10311 H 970.663 -3.85914 -0.693724 0
M  V30 10312 H 972.153 -3.82176 -1.68319 0
M  V30 10313 N 972.59 -0.333456 -1.54032 0
M  V30 10314 C 973.867 0.320902 -1.9295 0
M  V30 10315 C 974.247 1.69071 -1.26405 0
M  V30 10316 O 973.595 2.24768 -0.411311 0
M  V30 10317 C 973.805 0.403257 -3.46662 0
M  V30 10318 C 975.153 0.658875 -4.19457 0
M  V30 10319 O 976.177 0.485781 -3.52872 0
M  V30 10320 O 975.036 0.993475 -5.37394 0
M  V30 10321 H 972.13 0.185158 -0.806006 0
M  V30 10322 H 974.676 -0.383895 -1.65301 0
M  V30 10323 H 973.448 -0.558409 -3.87295 0
M  V30 10324 H 973.071 1.15524 -3.80447 0
M  V30 10325 N 974.068 1.57479 -0.061844 0
M  V30 10326 C 974.998 2.15181 0.9066 0
M  V30 10327 C 975.979 1.07624 1.31724 0
M  V30 10328 O 977.164 1.35614 1.39006 0
M  V30 10329 C 974.294 2.70542 2.17771 0
M  V30 10330 C 973.248 3.83178 1.9068 0
M  V30 10331 C 972.574 4.25099 3.24337 0
M  V30 10332 C 973.874 5.07853 1.21994 0
M  V30 10333 H 975.568 2.96355 0.42594 0
M  V30 10334 H 973.114 1.42556 0.203435 0
M  V30 10335 H 975.067 3.09552 2.85929 0
M  V30 10336 H 973.791 1.86575 2.68062 0
M  V30 10337 H 972.45 3.44656 1.24931 0
M  V30 10338 H 972.098 3.38069 3.72449 0
M  V30 10339 H 971.798 5.01021 3.07005 0
M  V30 10340 H 973.322 4.66718 3.93709 0
M  V30 10341 H 974.736 5.44242 1.80204 0
M  V30 10342 H 973.133 5.88987 1.14954 0
M  V30 10343 H 974.203 4.84497 0.197536 0
M  V30 10344 N 975.546 -0.211634 1.56173 0
M  V30 10345 C 976.792 -0.935935 1.79911 0
M  V30 10346 C 977.125 -1.83589 0.633155 0
M  V30 10347 O 976.4 -1.91004 -0.367132 0
M  V30 10348 C 976.683 -1.76638 3.13801 0
M  V30 10349 C 976.536 -0.892259 4.40861 0
M  V30 10350 C 977.855 -2.74224 3.44223 0
M  V30 10351 H 974.974 -0.338822 0.654499 0
M  V30 10352 H 977.616 -0.20422 1.88899 0
M  V30 10353 H 975.766 -2.39021 3.0627 0
M  V30 10354 H 977.438 -0.284407 4.60422 0
M  V30 10355 H 975.681 -0.198145 4.33347 0
M  V30 10356 H 976.352 -1.50793 5.31004 0
M  V30 10357 H 978.828 -2.21975 3.51946 0
M  V30 10358 H 977.704 -3.29424 4.39057 0
M  V30 10359 H 977.965 -3.52455 2.66885 0
M  V30 10360 N 977.024 -1.50153 -0.478725 0
M  V30 10361 C 977.974 -1.64848 -1.57509 0
M  V30 10362 C 978.958 -0.503327 -1.52825 0
M  V30 10363 O 980.15 -0.75737 -1.59978 0
M  V30 10364 C 977.279 -1.73893 -2.96 0
M  V30 10365 C 976.365 -2.9406 -3.05597 0
M  V30 10366 N 976.756 -4.17844 -2.85027 0
M  V30 10367 C 975.054 -2.92459 -3.36725 0
M  V30 10368 C 975.755 -4.98739 -2.9939 0
M  V30 10369 N 974.731 -4.32542 -3.29255 0
M  V30 10370 H 978.533 -2.58254 -1.40293 0
M  V30 10371 H 976.047 -1.47232 -0.685307 0
M  V30 10372 H 978.044 -1.82523 -3.74821 0
M  V30 10373 H 976.704 -0.816402 -3.14269 0
M  V30 10374 H 977.715 -4.47465 -2.60759 0
M  V30 10375 H 974.392 -2.09675 -3.6103 0
M  V30 10376 H 975.782 -6.07146 -2.8779 0
M  V30 10377 N 978.502 0.731368 -1.39602 0
M  V30 10378 C 979.913 1.30981 -1.33045 0
M  V30 10379 C 980.264 1.962 0.00349918 0
M  V30 10380 O 979.389 1.96539 0.905615 0
M  V30 10381 C 979.984 2.3817 -2.40958 0
M  V30 10382 C 978.543 2.91678 -2.3791 0
M  V30 10383 C 977.69 1.65286 -2.22656 0
M  V30 10384 H 980.641 0.528615 -1.49637 0
M  V30 10385 H 980.662 3.18645 -2.07955 0
M  V30 10386 H 980.174 1.90673 -3.38032 0
M  V30 10387 H 978.275 3.43446 -1.44485 0
M  V30 10388 H 978.388 3.44545 -3.32904 0
M  V30 10389 H 976.752 1.89759 -1.69893 0
M  V30 10390 H 977.535 1.19836 -3.21705 0
M  V30 10391 N 979.98 1.24838 0.961938 0
M  V30 10392 C 981.257 0.99939 1.68141 0
M  V30 10393 C 981.637 -0.476588 2.0565 0
M  V30 10394 O 980.985 -1.45224 1.76415 0
M  V30 10395 C 981.195 1.92797 2.90913 0
M  V30 10396 C 982.543 2.20219 3.63027 0
M  V30 10397 O 983.567 1.90496 3.00981 0
M  V30 10398 O 982.426 2.70725 4.74731 0
M  V30 10399 H 979.52 0.37842 0.735342 0
M  V30 10400 H 982.066 1.35961 1.01551 0
M  V30 10401 H 980.838 2.92492 2.59931 0
M  V30 10402 H 980.461 1.57127 3.65235 0
M  V30 10403 N 981.458 -1.16348 1.06306 0
M  V30 10404 C 982.421 -2.18941 0.678053 0
M  V30 10405 C 983.421 -1.58409 -0.276277 0
M  V30 10406 O 984.611 -1.74101 -0.0586435 0
M  V30 10407 C 981.743 -3.409 -0.00228684 0
M  V30 10408 H 982.936 -2.54516 1.58624 0
M  V30 10409 H 980.489 -1.30625 0.858298 0
M  V30 10410 H 981.224 -3.10881 -0.923212 0
M  V30 10411 H 981.009 -3.86089 0.683949 0
M  V30 10412 H 982.499 -4.16806 -0.257374 0
M  V30 10413 N 982.937 -0.845659 -1.3299 0
M  V30 10414 C 983.869 -0.241097 -2.27928 0
M  V30 10415 C 984.882 0.582048 -1.5204 0
M  V30 10416 O 986.071 0.408008 -1.73774 0
M  V30 10417 C 983.171 0.678652 -3.32035 0
M  V30 10418 C 982.344 -0.106652 -4.3727 0
M  V30 10419 C 981.403 0.737478 -5.21006 0
M  V30 10420 O 980.429 0.174231 -5.68933 0
M  V30 10421 N 981.631 2.05372 -5.42957 0
M  V30 10422 H 984.396 -1.05685 -2.80448 0
M  V30 10423 H 981.957 -0.704771 -1.45755 0
M  V30 10424 H 983.949 1.24849 -3.84961 0
M  V30 10425 H 982.519 1.3951 -2.79742 0
M  V30 10426 H 981.739 -0.857897 -3.84752 0
M  V30 10427 H 983.027 -0.646386 -5.04677 0
M  V30 10428 H 982.425 2.53478 -5.05733 0
M  V30 10429 H 980.982 2.5719 -5.98913 0
M  V30 10430 N 984.415 1.45619 -0.602734 0
M  V30 10431 C 985.325 2.34288 0.120902 0
M  V30 10432 C 986.341 1.50952 0.865414 0
M  V30 10433 O 987.517 1.83768 0.824094 0
M  V30 10434 C 984.582 3.28489 1.10888 0
M  V30 10435 C 983.643 4.2773 0.366853 0
M  V30 10436 C 982.876 5.17429 1.30776 0
M  V30 10437 O 983.099 5.10459 2.54535 0
M  V30 10438 O 982.033 5.96459 0.807464 0
M  V30 10439 H 985.859 2.97559 -0.60765 0
M  V30 10440 H 983.444 1.44922 -0.363019 0
M  V30 10441 H 985.326 3.86549 1.67803 0
M  V30 10442 H 984.001 2.67789 1.81854 0
M  V30 10443 H 982.908 3.73299 -0.244643 0
M  V30 10444 H 984.241 4.91271 -0.302226 0
M  V30 10445 N 985.893 0.34162 1.53853 0
M  V30 10446 C 987.142 -0.256475 2.00063 0
M  V30 10447 C 987.455 -1.51811 1.23341 0
M  V30 10448 O 988.661 -2.19332 1.60017 0
M  V30 10449 C 987.117 -0.507567 3.56303 0
M  V30 10450 C 986.725 0.738052 4.41879 0
M  V30 10451 C 988.469 -1.06463 4.10933 0
M  V30 10452 C 986.376 0.457865 5.89625 0
M  V30 10453 H 985.306 -0.0996143 0.747391 0
M  V30 10454 H 987.957 0.456649 1.77727 0
M  V30 10455 H 986.339 -1.28134 3.74697 0
M  V30 10456 H 987.513 1.51278 4.3526 0
M  V30 10457 H 985.828 1.21661 3.98231 0
M  V30 10458 H 988.425 -1.28918 5.18926 0
M  V30 10459 H 988.768 -2.01956 3.64032 0
M  V30 10460 H 989.301 -0.351601 3.96243 0
M  V30 10461 H 986.04 1.38247 6.40756 0
M  V30 10462 H 985.56 -0.278818 5.99152 0
M  V30 10463 H 987.239 0.0743914 6.46957 0
M  V30 10464 N 987.371 -1.57444 0.0701946 0
M  V30 10465 C 988.301 -2.15659 -0.895176 0
M  V30 10466 C 989.282 -1.08321 -1.31151 0
M  V30 10467 O 990.467 -1.36349 -1.38284 0
M  V30 10468 C 987.597 -2.71693 -2.16334 0
M  V30 10469 C 986.551 -3.84183 -1.88645 0
M  V30 10470 C 985.877 -4.26814 -3.22078 0
M  V30 10471 C 987.177 -5.08493 -1.19299 0
M  V30 10472 H 988.871 -2.96576 -0.410217 0
M  V30 10473 H 986.417 -1.42662 -0.195872 0
M  V30 10474 H 988.37 -3.11064 -2.84284 0
M  V30 10475 H 987.094 -1.87994 -2.67069 0
M  V30 10476 H 985.753 -3.45314 -1.23101 0
M  V30 10477 H 985.401 -3.40039 -3.70651 0
M  V30 10478 H 985.101 -5.02642 -3.04344 0
M  V30 10479 H 986.625 -4.68799 -3.91228 0
M  V30 10480 H 988.039 -5.4519 -1.77316 0
M  V30 10481 H 986.436 -5.89588 -1.11828 0
M  V30 10482 H 987.506 -4.84595 -0.171839 0
M  V30 10483 N 988.849 0.203349 -1.56283 0
M  V30 10484 C 990.126 0.950415 -1.70958 0
M  V30 10485 C 990.506 2.01708 -0.622647 0
M  V30 10486 O 989.854 2.25523 0.367635 0
M  V30 10487 C 990.064 1.54434 -3.12971 0
M  V30 10488 C 991.412 2.02964 -3.72949 0
M  V30 10489 O 992.436 1.64293 -3.16048 0
M  V30 10490 O 991.295 2.74097 -4.72793 0
M  V30 10491 H 988.389 0.445154 -0.69697 0
M  V30 10492 H 990.935 0.193695 -1.68591 0
M  V30 10493 H 989.707 0.77505 -3.83547 0
M  V30 10494 H 989.33 2.36611 -3.19532 0
M  V30 10495 N 990.327 1.50405 0.470755 0
M  V30 10496 C 991.555 1.65168 1.24608 0
M  V30 10497 C 991.97 0.335153 1.85801 0
M  V30 10498 O 991.327 -0.682919 1.69241 0
M  V30 10499 C 991.378 2.74305 2.35455 0
M  V30 10500 O 991.099 4.00854 1.76771 0
M  V30 10501 C 992.6 3.00044 3.26326 0
M  V30 10502 H 989.82 0.555186 0.376842 0
M  V30 10503 H 992.364 1.9663 0.56187 0
M  V30 10504 H 990.519 2.45536 2.99651 0
M  V30 10505 H 990.933 4.61211 2.49769 0
M  V30 10506 H 992.407 3.8007 4.00313 0
M  V30 10507 H 992.884 2.11128 3.85126 0
M  V30 10508 H 993.49 3.30345 2.67866 0
M  V30 10509 N 991.805 -0.723954 1.39988 0
M  V30 10510 C 992.735 -1.85103 1.42335 0
M  V30 10511 C 993.716 -1.6769 0.285297 0
M  V30 10512 O 994.901 -1.87846 0.492716 0
M  V30 10513 C 992.031 -3.22972 1.27697 0
M  V30 10514 C 990.985 -3.55041 2.39018 0
M  V30 10515 C 990.311 -4.91965 2.09462 0
M  V30 10516 C 991.611 -3.56889 3.8135 0
M  V30 10517 H 993.305 -1.83396 2.36656 0
M  V30 10518 H 990.851 -0.880926 1.13911 0
M  V30 10519 H 992.804 -4.01503 1.27958 0
M  V30 10520 H 991.528 -3.25233 0.298487 0
M  V30 10521 H 990.187 -2.78845 2.37993 0
M  V30 10522 H 989.835 -4.90819 1.10025 0
M  V30 10523 H 989.535 -5.14389 2.84038 0
M  V30 10524 H 991.059 -5.7284 2.11391 0
M  V30 10525 H 992.473 -4.25476 3.84243 0
M  V30 10526 H 990.87 -3.90836 4.55376 0
M  V30 10527 H 991.94 -2.56452 4.11534 0
M  V30 10528 N 993.283 -1.25346 -0.955304 0
M  V30 10529 C 994.193 -1.07412 -2.08566 0
M  V30 10530 C 995.209 -0.0114424 -1.73996 0
M  V30 10531 O 996.385 -0.212236 -2.00279 0
M  V30 10532 C 993.45 -0.694141 -3.3968 0
M  V30 10533 C 992.511 -1.83468 -3.88121 0
M  V30 10534 C 991.744 -1.47274 -5.12978 0
M  V30 10535 O 991.967 -0.368086 -5.69211 0
M  V30 10536 O 990.901 -2.30269 -5.56111 0
M  V30 10537 H 994.727 -2.02206 -2.26598 0
M  V30 10538 H 992.312 -1.04279 -1.06988 0
M  V30 10539 H 994.194 -0.494325 -4.18491 0
M  V30 10540 H 992.869 0.224545 -3.2292 0
M  V30 10541 H 991.776 -2.08935 -3.10318 0
M  V30 10542 H 993.109 -2.73258 -4.09379 0
M  V30 10543 N 994.761 1.15782 -1.06922 0
M  V30 10544 C 996.038 1.8253 -0.703 0
M  V30 10545 C 996.418 1.94733 0.814994 0
M  V30 10546 O 995.766 1.49537 1.72774 0
M  V30 10547 C 995.976 3.19145 -1.41234 0
M  V30 10548 C 997.324 3.94839 -1.56164 0
M  V30 10549 O 998.348 3.28685 -1.37277 0
M  V30 10550 O 997.207 5.13436 -1.87205 0
M  V30 10551 H 994.301 0.788425 -0.24963 0
M  V30 10552 H 996.847 1.22931 -1.16988 0
M  V30 10553 H 995.619 3.05336 -2.44715 0
M  V30 10554 H 995.242 3.86427 -0.935959 0
M  V30 10555 N 996.239 0.8527 1.3254 0
M  V30 10556 C 997.187 0.284659 2.30852 0
M  V30 10557 C 998.181 -0.5909 1.5876 0
M  V30 10558 O 999.387 -0.478922 1.73512 0
M  V30 10559 H 995.762 0.0733452 0.748415 0
M  V30 10560 H 997.733 1.1281 2.76254 0
M  V30 10561 C 996.482 -0.51379 3.43883 0
M  V30 10562 H 995.805 0.150644 3.99516 0
M  V30 10563 H 997.245 -0.876866 4.14834 0
M  V30 10564 C 995.704 -1.69823 2.90967 0
M  V30 10565 O 996.234 -2.79727 2.88298 0
M  V30 10566 N 994.44 -1.52465 2.47392 0
M  V30 10567 H 993.987 -0.630599 2.49762 0
M  V30 10568 H 993.945 -2.31859 2.12341 0
M  V30 10569 N 997.718 -1.45297 0.610449 0
M  V30 10570 C 999.134 -1.57225 0.274332 0
M  V30 10571 C 999.334 -1.60136 -1.22306 0
M  V30 10572 O 998.39 -1.5332 -2.00622 0
M  V30 10573 C 999.703 -2.85365 0.948028 0
M  V30 10574 C 1001.25 -2.99044 0.924216 0
M  V30 10575 C 1001.73 -4.29958 1.57798 0
M  V30 10576 N 1003.22 -4.36723 1.5436 0
M  V30 10577 C 1003.95 -5.36695 2.01857 0
M  V30 10578 N 1003.45 -6.43187 2.57453 0
M  V30 10579 N 1005.24 -5.28071 1.92608 0
M  V30 10580 H 997.392 -1.41651 1.58268 0
M  V30 10581 H 999.655 -0.67744 0.663158 0
M  V30 10582 H 999.361 -2.89125 2.00249 0
M  V30 10583 H 999.235 -3.74222 0.473062 0
M  V30 10584 H 1001.62 -2.94849 -0.121709 0
M  V30 10585 H 1001.7 -2.1159 1.43748 0
M  V30 10586 H 1001.35 -4.34912 2.62325 0
M  V30 10587 H 1001.28 -5.16234 1.03972 0
M  V30 10588 H 1003.77 -3.60374 1.13749 0
M  V30 10589 H 1004.08 -7.15722 2.91482 0
M  V30 10590 H 1002.43 -6.4393 2.61493 0
M  V30 10591 H 1005.62 -4.43783 1.48912 0
M  V30 10592 H 1005.79 -6.05832 2.29938 0
M  V30 10593 N 999.196 -0.349774 -1.5367 0
M  V30 10594 C 1000.47 0.300419 -1.93279 0
M  V30 10595 C 1000.85 1.67721 -1.28191 0
M  V30 10596 O 1000.2 2.24319 -0.435127 0
M  V30 10597 C 1000.41 0.366466 -3.47071 0
M  V30 10598 C 1001.76 0.614349 -4.20132 0
M  V30 10599 O 1002.78 0.448327 -3.53367 0
M  V30 10600 O 1001.64 0.936421 -5.38417 0
M  V30 10601 H 998.736 0.176599 -0.807924 0
M  V30 10602 H 1001.28 -0.401405 -1.64884 0
M  V30 10603 H 1000.05 -0.599455 -3.86681 0
M  V30 10604 H 999.677 1.11482 -3.81651 0
M  V30 10605 N 1000.67 1.57404 -0.0785433 0
M  V30 10606 C 1001.92 1.9484 0.583853 0
M  V30 10607 C 1002.27 0.958758 1.6681 0
M  V30 10608 O 1001.57 -0.0179065 1.91592 0
M  V30 10609 C 1001.76 3.36684 1.1991 0
M  V30 10610 C 1001.59 4.49356 0.175978 0
M  V30 10611 C 1000.36 5.04721 -0.241733 0
M  V30 10612 C 1002.56 5.10911 -0.589415 0
M  V30 10613 N 1000.54 6.00938 -1.25485 0
M  V30 10614 C 1001.91 6.0269 -1.45483 0
M  V30 10615 C 1003.97 4.93708 -0.644746 0
M  V30 10616 C 1002.67 6.79111 -2.37066 0
M  V30 10617 C 1004.7 5.70778 -1.54812 0
M  V30 10618 C 1004.06 6.6221 -2.40119 0
M  V30 10619 H 1000.16 0.75993 0.184472 0
M  V30 10620 H 1002.74 1.94064 -0.157259 0
M  V30 10621 H 1000.91 3.38186 1.91011 0
M  V30 10622 H 1002.64 3.6134 1.82251 0
M  V30 10623 H 999.399 4.73385 0.142732 0
M  V30 10624 H 999.823 6.53746 -1.75912 0
M  V30 10625 H 1004.46 4.228 0.000601434 0
M  V30 10626 H 1002.18 7.49292 -3.02634 0
M  V30 10627 H 1005.77 5.59485 -1.59586 0
M  V30 10628 H 1004.65 7.20804 -3.08887 0
M  V30 10629 N 1002.15 -0.195058 1.56388 0
M  V30 10630 C 1003.38 -0.930291 1.8447 0
M  V30 10631 C 1003.79 -1.77356 0.658901 0
M  V30 10632 O 1003.13 -1.79691 -0.381664 0
M  V30 10633 C 1003.19 -1.87626 3.06654 0
M  V30 10634 C 1002.86 -1.21494 4.40555 0
M  V30 10635 C 1003.86 -0.591847 5.1652 0
M  V30 10636 C 1001.54 -1.21878 4.8729 0
M  V30 10637 C 1003.53 0.0185743 6.37397 0
M  V30 10638 C 1001.22 -0.604524 6.08103 0
M  V30 10639 C 1002.22 0.0130731 6.82999 0
M  V30 10640 O 1001.91 0.617703 8.01523 0
M  V30 10641 H 1001.64 -0.276933 0.616672 0
M  V30 10642 H 1004.19 -0.207277 2.04351 0
M  V30 10643 H 1002.42 -2.63897 2.82658 0
M  V30 10644 H 1004.11 -2.47929 3.21382 0
M  V30 10645 H 1004.88 -0.581018 4.81507 0
M  V30 10646 H 1000.76 -1.68888 4.2895 0
M  V30 10647 H 1004.3 0.50124 6.95797 0
M  V30 10648 H 1000.2 -0.612855 6.42584 0
M  V30 10649 H 1000.97 0.514612 8.16881 0
M  V30 10650 N 1003.63 -1.50653 -0.462772 0
M  V30 10651 C 1004.86 -1.65586 -1.23551 0
M  V30 10652 C 1005.27 -0.342012 -1.86083 0
M  V30 10653 O 1004.61 0.686893 -1.70374 0
M  V30 10654 C 1004.67 -2.69555 -2.37867 0
M  V30 10655 C 1004.34 -4.1288 -1.95906 0
M  V30 10656 C 1005.33 -4.98483 -1.47685 0
M  V30 10657 C 1003.02 -4.58843 -2.04373 0
M  V30 10658 C 1005.01 -6.281 -1.08484 0
M  V30 10659 C 1002.7 -5.88464 -1.64783 0
M  V30 10660 C 1003.7 -6.72918 -1.16918 0
M  V30 10661 O 1003.39 -8.00119 -0.778798 0
M  V30 10662 H 1003.12 -0.559438 -0.37948 0
M  V30 10663 H 1005.67 -1.9768 -0.557816 0
M  V30 10664 H 1003.9 -2.3272 -3.08834 0
M  V30 10665 H 1005.59 -2.73624 -2.99808 0
M  V30 10666 H 1006.36 -4.64186 -1.40558 0
M  V30 10667 H 1002.24 -3.93247 -2.40577 0
M  V30 10668 H 1005.78 -6.93972 -0.710524 0
M  V30 10669 H 1001.68 -6.22281 -1.71571 0
M  V30 10670 H 1002.44 -8.1346 -0.906911 0
M  V30 10671 N 1005.11 0.71652 -1.4037 0
M  V30 10672 C 1006.33 1.51069 -1.42102 0
M  V30 10673 C 1006.76 1.88087 -0.0222387 0
M  V30 10674 O 1006.12 1.53204 0.969448 0
M  V30 10675 C 1006.16 2.76307 -2.31704 0
M  V30 10676 O 1005.27 3.72975 -1.75964 0
M  V30 10677 H 1004.61 0.455502 -0.483129 0
M  V30 10678 H 1007.14 0.882514 -1.84588 0
M  V30 10679 H 1007.15 3.24846 -2.46859 0
M  V30 10680 H 1005.82 2.48698 -3.3335 0
M  V30 10681 H 1004.4 3.31818 -1.70151 0
M  V30 10682 N 1006.59 1.25851 0.948643 0
M  V30 10683 C 1007.55 1.0683 2.0278 0
M  V30 10684 C 1008.55 0.0191016 1.60789 0
M  V30 10685 O 1009.74 0.261836 1.72221 0
M  V30 10686 C 1006.87 0.623318 3.35153 0
M  V30 10687 H 1008.06 2.02635 2.21086 0
M  V30 10688 H 1005.62 1.08343 1.12657 0
M  V30 10689 H 1006.35 -0.337053 3.22544 0
M  V30 10690 H 1006.14 1.38082 3.66982 0
M  V30 10691 H 1007.63 0.511854 4.14451 0
M  V30 10692 N 1008.06 -1.15214 1.07534 0
M  V30 10693 C 1009.31 -1.85388 0.794617 0
M  V30 10694 C 1009.63 -1.83331 -0.681838 0
M  V30 10695 O 1010.83 -2.49207 -1.0774 0
M  V30 10696 C 1009.29 -3.32747 1.37141 0
M  V30 10697 C 1008.9 -3.43244 2.87902 0
M  V30 10698 C 1010.64 -4.08093 1.16879 0
M  V30 10699 C 1008.55 -4.84762 3.38763 0
M  V30 10700 H 1007.48 -0.694499 0.293577 0
M  V30 10701 H 1010.13 -1.29944 1.29564 0
M  V30 10702 H 1008.51 -3.87874 0.798121 0
M  V30 10703 H 1009.68 -2.98214 3.51291 0
M  V30 10704 H 1008 -2.81345 3.06975 0
M  V30 10705 H 1010.6 -5.12535 1.52353 0
M  V30 10706 H 1010.94 -4.1616 0.107958 0
M  V30 10707 H 1011.47 -3.59241 1.70854 0
M  V30 10708 H 1008.21 -4.81879 4.4438 0
M  V30 10709 H 1007.73 -5.30366 2.80128 0
M  V30 10710 H 1009.41 -5.53624 3.34827 0
M  V30 10711 N 1009.54 -0.859717 -1.32086 0
M  V30 10712 C 1010.96 -0.55025 -1.49815 0
M  V30 10713 C 1011.16 0.917966 -1.79376 0
M  V30 10714 O 1010.21 1.70073 -1.86632 0
M  V30 10715 C 1011.53 -1.44161 -2.6389 0
M  V30 10716 C 1013.08 -1.44257 -2.77775 0
M  V30 10717 C 1013.55 -2.31926 -3.94936 0
M  V30 10718 N 1015.04 -2.2975 -4.02206 0
M  V30 10719 C 1015.78 -2.9431 -4.92107 0
M  V30 10720 N 1015.27 -3.68001 -5.86981 0
M  V30 10721 N 1017.07 -2.83671 -4.8527 0
M  V30 10722 H 1009.22 -1.80987 -1.11164 0
M  V30 10723 H 1011.48 -0.773313 -0.548353 0
M  V30 10724 H 1011.19 -2.48588 -2.4879 0
M  V30 10725 H 1011.06 -1.13268 -3.59792 0
M  V30 10726 H 1013.45 -0.405923 -2.92295 0
M  V30 10727 H 1013.53 -1.79169 -1.82571 0
M  V30 10728 H 1013.17 -3.35661 -3.81174 0
M  V30 10729 H 1013.1 -1.94344 -4.89426 0
M  V30 10730 H 1015.59 -1.76177 -3.3432 0
M  V30 10731 H 1015.91 -4.14417 -6.52287 0
M  V30 10732 H 1014.25 -3.72109 -5.86992 0
M  V30 10733 H 1017.44 -2.25647 -4.10123 0
M  V30 10734 H 1017.61 -3.34267 -5.5513 0
M  V30 10735 N 1011.02 1.44971 -0.618145 0
M  V30 10736 C 1011.95 2.28815 0.132751 0
M  V30 10737 C 1012.97 1.40551 0.821535 0
M  V30 10738 O 1014.15 1.64827 0.685155 0
M  V30 10739 C 1011.25 3.1658 1.20955 0
M  V30 10740 C 1010.43 4.33184 0.605821 0
M  V30 10741 C 1009.49 5.0208 1.57488 0
M  V30 10742 O 1008.51 5.58528 1.09706 0
M  V30 10743 N 1009.71 5.02335 2.9093 0
M  V30 10744 H 1012.48 2.939 -0.58674 0
M  V30 10745 H 1010.04 1.55276 -0.458375 0
M  V30 10746 H 1012.03 3.59535 1.85787 0
M  V30 10747 H 1010.6 2.53333 1.83143 0
M  V30 10748 H 1009.82 3.93581 -0.220827 0
M  V30 10749 H 1011.11 5.08471 0.182883 0
M  V30 10750 H 1010.51 4.57783 3.32342 0
M  V30 10751 H 1009.07 5.49119 3.51157 0
M  V30 10752 N 1012.5 0.357919 1.53482 0
M  V30 10753 C 1013.72 -0.237769 2.06033 0
M  V30 10754 C 1014.15 -1.42292 1.23023 0
M  V30 10755 O 1013.51 -1.79604 0.247427 0
M  V30 10756 C 1013.55 -0.616806 3.55286 0
M  V30 10757 O 1012.66 -1.71503 3.75047 0
M  V30 10758 H 1012 -0.0364322 0.663 0
M  V30 10759 H 1014.53 0.516301 1.97979 0
M  V30 10760 H 1014.54 -0.88996 3.98175 0
M  V30 10761 H 1013.21 0.249825 4.15149 0
M  V30 10762 H 1011.79 -1.43803 3.44057 0
M  V30 10763 N 1013.98 -1.5736 0.0868897 0
M  V30 10764 C 1015.39 -1.81356 -0.443499 0
M  V30 10765 C 1015.74 -1.00192 -1.68689 0
M  V30 10766 O 1014.86 -0.228863 -2.15186 0
M  V30 10767 C 1015.46 -3.28941 -0.811387 0
M  V30 10768 C 1014.02 -3.53729 -1.28656 0
M  V30 10769 C 1013.16 -2.75891 -0.279153 0
M  V30 10770 H 1016.12 -1.55594 0.312427 0
M  V30 10771 H 1016.14 -3.41815 -1.6716 0
M  V30 10772 H 1015.65 -3.87987 0.0937598 0
M  V30 10773 H 1013.75 -3.00005 -2.2097 0
M  V30 10774 H 1013.86 -4.62396 -1.25406 0
M  V30 10775 H 1012.23 -2.4311 -0.759595 0
M  V30 10776 H 1013.01 -3.37682 0.618529 0
M  V30 10777 N 1015.45 0.186762 -1.56489 0
M  V30 10778 C 1016.68 0.925916 -1.85584 0
M  V30 10779 C 1017.1 1.75708 -0.671446 0
M  V30 10780 O 1016.46 1.7728 0.379687 0
M  V30 10781 C 1016.51 1.79107 -3.12975 0
M  V30 10782 O 1015.61 2.89088 -2.94112 0
M  V30 10783 H 1014.96 0.260275 -0.610863 0
M  V30 10784 H 1017.49 0.189561 -2.0372 0
M  V30 10785 H 1017.5 2.19408 -3.43983 0
M  V30 10786 H 1016.17 1.18044 -3.98796 0
M  V30 10787 H 1014.75 2.52482 -2.74422 0
M  V30 10788 N 1016.93 1.50896 0.454776 0
M  V30 10789 C 1018.34 1.55372 1.0352 0
M  V30 10790 C 1018.69 0.366822 1.9274 0
M  V30 10791 O 1017.82 -0.518444 2.10098 0
M  V30 10792 C 1018.41 2.81574 1.88418 0
M  V30 10793 C 1016.97 2.88679 2.4154 0
M  V30 10794 C 1016.12 2.49847 1.20298 0
M  V30 10795 H 1019.07 1.56924 0.236729 0
M  V30 10796 H 1019.09 2.64352 2.73676 0
M  V30 10797 H 1018.6 3.67941 1.23455 0
M  V30 10798 H 1016.71 2.06702 3.10008 0
M  V30 10799 H 1016.82 3.91944 2.7553 0
M  V30 10800 H 1015.18 2.02651 1.54288 0
M  V30 10801 H 1015.97 3.3854 0.569723 0
M  V30 10802 N 1018.41 -0.709066 1.40748 0
M  V30 10803 C 1019.82 -1.28847 1.35112 0
M  V30 10804 C 1020.17 -1.9618 0.0277149 0
M  V30 10805 O 1019.3 -1.97955 -0.874233 0
M  V30 10806 C 1019.89 -2.34306 2.44716 0
M  V30 10807 C 1018.45 -2.87856 2.4252 0
M  V30 10808 C 1017.6 -1.61723 2.25257 0
M  V30 10809 H 1020.55 -0.504742 1.50459 0
M  V30 10810 H 1020.57 -3.15297 2.12998 0
M  V30 10811 H 1020.08 -1.85271 3.41022 0
M  V30 10812 H 1018.18 -3.41103 1.49931 0
M  V30 10813 H 1018.3 -3.39205 3.38344 0
M  V30 10814 H 1016.66 -1.87032 1.7289 0
M  V30 10815 H 1017.44 -1.14703 3.23571 0
M  V30 10816 N 1019.89 -1.26353 -0.941956 0
M  V30 10817 C 1021.3 -1.10774 -1.50287 0
M  V30 10818 C 1021.65 0.312229 -1.937 0
M  V30 10819 O 1020.78 1.20364 -1.79838 0
M  V30 10820 C 1021.37 -2.00473 -2.73123 0
M  V30 10821 C 1019.93 -1.89042 -3.25485 0
M  V30 10822 C 1019.08 -1.93869 -1.98267 0
M  V30 10823 H 1022.03 -1.39454 -0.757523 0
M  V30 10824 H 1022.05 -1.55216 -3.47402 0
M  V30 10825 H 1021.56 -3.03812 -2.41495 0
M  V30 10826 H 1019.66 -0.886341 -3.61904 0
M  V30 10827 H 1019.78 -2.74533 -3.92643 0
M  V30 10828 H 1018.14 -1.37912 -2.14132 0
M  V30 10829 H 1018.92 -2.98837 -1.68972 0
M  V30 10830 N 1021.37 1.14642 -1.08144 0
M  V30 10831 C 1022.28 2.23257 -0.720668 0
M  V30 10832 C 1023.29 1.71866 0.271648 0
M  V30 10833 O 1024.47 2.01064 0.116266 0
M  V30 10834 C 1021.53 3.46447 -0.132542 0
M  V30 10835 C 1020.6 4.12789 -1.17913 0
M  V30 10836 C 1019.83 5.30099 -0.618971 0
M  V30 10837 O 1020.05 5.6762 0.562418 0
M  V30 10838 O 1018.99 5.86154 -1.36774 0
M  V30 10839 H 1022.81 2.56463 -1.62667 0
M  V30 10840 H 1020.4 1.22521 -0.854932 0
M  V30 10841 H 1022.28 4.20959 0.19277 0
M  V30 10842 H 1020.95 3.14971 0.746662 0
M  V30 10843 H 1019.86 3.40163 -1.55693 0
M  V30 10844 H 1021.19 4.48365 -2.03051 0
M  V30 10845 N 1022.85 0.866709 1.31628 0
M  V30 10846 C 1023.76 0.323408 2.3236 0
M  V30 10847 C 1024.77 -0.564995 1.64572 0
M  V30 10848 O 1025.95 -0.462489 1.96018 0
M  V30 10849 C 1023.01 -0.469045 3.43513 0
M  V30 10850 C 1022.07 0.446928 4.26967 0
M  V30 10851 C 1021.31 -0.307799 5.32812 0
M  V30 10852 O 1021.53 -1.5363 5.49321 0
M  V30 10853 O 1020.46 0.332653 6.0098 0
M  V30 10854 H 1024.29 1.15827 2.80745 0
M  V30 10855 H 1021.87 0.629987 1.35468 0
M  V30 10856 H 1023.76 -0.918405 4.1127 0
M  V30 10857 H 1022.43 -1.28051 2.97296 0
M  V30 10858 H 1021.34 0.944719 3.61975 0
M  V30 10859 H 1022.67 1.2239 4.76741 0
M  V30 10860 N 1024.32 -1.44642 0.625825 0
M  V30 10861 C 1025.23 -2.34451 -0.0836134 0
M  V30 10862 C 1026.25 -1.5231 -0.841289 0
M  V30 10863 O 1027.43 -1.85056 -0.794754 0
M  V30 10864 C 1024.49 -3.30211 -1.05648 0
M  V30 10865 C 1023.55 -4.28259 -0.298759 0
M  V30 10866 C 1022.78 -5.19444 -1.22528 0
M  V30 10867 O 1023.01 -5.14444 -2.46382 0
M  V30 10868 O 1021.94 -5.97668 -0.71247 0
M  V30 10869 H 1025.77 -2.96555 0.654912 0
M  V30 10870 H 1023.35 -1.44327 0.386029 0
M  V30 10871 H 1025.23 -3.8917 -1.61632 0
M  V30 10872 H 1023.91 -2.70648 -1.77571 0
M  V30 10873 H 1022.82 -3.72863 0.304001 0
M  V30 10874 H 1024.15 -4.90728 0.380345 0
M  V30 10875 N 1025.8 -0.366053 -1.5329 0
M  V30 10876 C 1027.03 0.226839 -2.06156 0
M  V30 10877 C 1027.45 1.41637 -1.23776 0
M  V30 10878 O 1026.81 1.7947 -0.256948 0
M  V30 10879 C 1026.86 0.597956 -3.55608 0
M  V30 10880 O 1025.96 1.69512 -3.75951 0
M  V30 10881 H 1025.3 0.0329156 -0.663184 0
M  V30 10882 H 1027.83 -0.526793 -1.97702 0
M  V30 10883 H 1027.84 0.868831 -3.98642 0
M  V30 10884 H 1026.52 -0.271838 -4.15011 0
M  V30 10885 H 1025.09 1.41976 -3.44815 0
M  V30 10886 N 1027.28 1.57312 -0.0952337 0
M  V30 10887 C 1028.7 1.57445 0.261416 0
M  V30 10888 C 1028.9 1.10639 1.68408 0
M  V30 10889 O 1027.95 0.782912 2.40056 0
M  V30 10890 C 1029.26 3.00659 0.0497206 0
M  V30 10891 C 1030.81 3.1278 0.117459 0
M  V30 10892 C 1031.29 4.57952 -0.0662441 0
M  V30 10893 N 1032.78 4.63199 -0.0114146 0
M  V30 10894 C 1033.51 5.73255 -0.128799 0
M  V30 10895 N 1033.01 6.92146 -0.301026 0
M  V30 10896 N 1034.8 5.62056 -0.0700599 0
M  V30 10897 H 1026.95 1.86045 -1.02475 0
M  V30 10898 H 1029.22 0.858726 -0.401614 0
M  V30 10899 H 1028.92 3.39102 -0.932888 0
M  V30 10900 H 1028.8 3.68792 0.791975 0
M  V30 10901 H 1031.18 2.74209 1.09057 0
M  V30 10902 H 1031.26 2.47238 -0.656288 0
M  V30 10903 H 1030.91 4.97217 -1.03623 0
M  V30 10904 H 1030.84 5.21555 0.727198 0
M  V30 10905 H 1033.33 3.77712 0.119154 0
M  V30 10906 H 1033.64 7.71855 -0.382104 0
M  V30 10907 H 1031.99 6.94184 -0.336695 0
M  V30 10908 H 1035.18 4.68057 0.0633587 0
M  V30 10909 H 1035.35 6.4779 -0.164991 0
M  V30 10910 N 1028.76 -0.17846 1.56586 0
M  V30 10911 C 1030.01 -0.894464 1.81228 0
M  V30 10912 C 1030.33 -1.83089 0.671062 0
M  V30 10913 O 1029.6 -1.93439 -0.309557 0
M  V30 10914 H 1028.18 -0.333288 0.668527 0
M  V30 10915 H 1030.84 -0.179986 1.94067 0
M  V30 10916 H 1029.93 -1.47565 2.75011 0
M  V30 10917 N 1030.24 -1.51135 -0.446768 0
M  V30 10918 C 1031.65 -1.55919 -1.02694 0
M  V30 10919 C 1032 -0.377038 -1.92543 0
M  V30 10920 O 1031.12 0.507295 -2.1037 0
M  V30 10921 C 1031.72 -2.8257 -1.86922 0
M  V30 10922 C 1030.28 -2.89956 -2.40005 0
M  V30 10923 C 1029.42 -2.50482 -1.18971 0
M  V30 10924 H 1032.37 -1.57048 -0.228403 0
M  V30 10925 H 1032.4 -2.65799 -2.7227 0
M  V30 10926 H 1031.91 -3.6859 -1.21502 0
M  V30 10927 H 1030.01 -2.08343 -3.08907 0
M  V30 10928 H 1030.12 -3.93399 -2.73448 0
M  V30 10929 H 1028.49 -2.03466 -1.53211 0
M  V30 10930 H 1029.27 -3.38837 -0.551762 0
M  V30 10931 N 1031.71 0.701592 -1.41122 0
M  V30 10932 C 1032.96 1.45871 -1.39879 0
M  V30 10933 C 1033.28 1.94999 -0.00668769 0
M  V30 10934 O 1032.55 1.71298 0.95047 0
M  V30 10935 H 1031.13 0.541231 -0.514857 0
M  V30 10936 H 1033.79 0.830803 -1.76306 0
M  V30 10937 H 1032.89 2.32479 -2.0823 0
M  V30 10938 N 1033.19 1.2685 0.935242 0
M  V30 10939 C 1034.14 1.05586 2.02078 0
M  V30 10940 C 1035.13 -0.013699 1.60894 0
M  V30 10941 O 1036.32 0.203956 1.75821 0
M  V30 10942 C 1033.45 0.697118 3.36148 0
M  V30 10943 C 1032.53 1.80444 3.83798 0
M  V30 10944 N 1032.92 3.04283 4.04037 0
M  V30 10945 C 1031.22 1.68939 4.12766 0
M  V30 10946 C 1031.92 3.7629 4.436 0
M  V30 10947 N 1030.9 3.04011 4.50642 0
M  V30 10948 H 1034.7 1.99577 2.15746 0
M  V30 10949 H 1032.21 1.17455 1.12153 0
M  V30 10950 H 1034.21 0.525915 4.1357 0
M  V30 10951 H 1032.87 -0.235247 3.23847 0
M  V30 10952 H 1033.88 3.40125 3.90558 0
M  V30 10953 H 1030.56 0.827341 4.0922 0
M  V30 10954 H 1031.95 4.82687 4.67401 0
M  V30 10955 N 1034.67 -1.14067 1.0875 0
M  V30 10956 C 1036.08 -1.66747 0.839778 0
M  V30 10957 C 1036.43 -1.85711 -0.632909 0
M  V30 10958 O 1035.56 -1.57084 -1.48841 0
M  V30 10959 C 1036.15 -3.02896 1.51787 0
M  V30 10960 C 1034.71 -3.52596 1.3173 0
M  V30 10961 C 1033.86 -2.27994 1.57841 0
M  V30 10962 H 1036.81 -0.980838 1.24761 0
M  V30 10963 H 1036.83 -3.68526 0.947057 0
M  V30 10964 H 1036.34 -2.89062 2.58969 0
M  V30 10965 H 1034.44 -3.71647 0.266339 0
M  V30 10966 H 1034.56 -4.33151 2.04736 0
M  V30 10967 H 1032.92 -2.34241 1.00015 0
M  V30 10968 H 1033.7 -2.16732 2.66237 0
M  V30 10969 N 1036.15 -0.873678 -1.31166 0
M  V30 10970 C 1037.56 -0.53852 -1.78765 0
M  V30 10971 C 1037.91 0.944765 -1.71955 0
M  V30 10972 O 1037.04 1.73781 -1.28954 0
M  V30 10973 C 1037.63 -0.970749 -3.24595 0
M  V30 10974 C 1036.19 -0.687189 -3.70074 0
M  V30 10975 C 1035.34 -1.16001 -2.51871 0
M  V30 10976 H 1038.29 -1.05903 -1.18196 0
M  V30 10977 H 1038.31 -0.294966 -3.79355 0
M  V30 10978 H 1037.82 -2.05034 -3.29519 0
M  V30 10979 H 1035.92 0.380881 -3.70648 0
M  V30 10980 H 1036.03 -1.26682 -4.62048 0
M  V30 10981 H 1034.4 -0.579663 -2.48016 0
M  V30 10982 H 1035.18 -2.2471 -2.59539 0
M  V30 10983 N 1037.63 1.44308 -0.633487 0
M  V30 10984 C 1038.56 2.33431 0.0568402 0
M  V30 10985 C 1039.54 1.48342 0.832386 0
M  V30 10986 O 1040.72 1.77056 0.797798 0
M  V30 10987 C 1037.85 3.31443 1.03743 0
M  V30 10988 C 1036.81 4.26368 0.373362 0
M  V30 10989 C 1036.13 5.14267 1.46403 0
M  V30 10990 C 1037.43 5.17287 -0.721876 0
M  V30 10991 H 1039.13 2.91402 -0.687388 0
M  V30 10992 H 1036.67 1.4012 -0.332009 0
M  V30 10993 H 1038.63 3.92677 1.52913 0
M  V30 10994 H 1037.35 2.71686 1.81258 0
M  V30 10995 H 1036.01 3.6647 -0.0977053 0
M  V30 10996 H 1035.66 4.50861 2.23011 0
M  V30 10997 H 1035.36 5.7859 1.02506 0
M  V30 10998 H 1036.88 5.78373 1.95748 0
M  V30 10999 H 1038.29 5.72444 -0.313181 0
M  V30 11000 H 1036.69 5.90226 -1.08413 0
M  V30 11001 H 1037.76 4.58159 -1.58804 0
M  V30 11002 N 1039.1 0.374177 1.53094 0
M  V30 11003 C 1040.52 -0.103172 1.86415 0
M  V30 11004 C 1040.87 -1.47439 1.29446 0
M  V30 11005 O 1039.99 -2.07333 0.619853 0
M  V30 11006 C 1040.59 -0.193988 3.38244 0
M  V30 11007 C 1039.15 -0.615605 3.71332 0
M  V30 11008 C 1038.29 0.23186 2.76329 0
M  V30 11009 H 1041.24 0.592644 1.47219 0
M  V30 11010 H 1041.26 -1.01597 3.66686 0
M  V30 11011 H 1040.78 0.80414 3.79678 0
M  V30 11012 H 1038.88 -1.62165 3.3546 0
M  V30 11013 H 1038.99 -0.38425 4.77557 0
M  V30 11014 H 1037.35 -0.300579 2.5292 0
M  V30 11015 H 1038.14 1.22769 3.20597 0
M  V30 11016 N 1040.58 -1.57259 0.103575 0
M  V30 11017 C 1041.86 -1.86143 -0.600852 0
M  V30 11018 C 1042.24 -1.00198 -1.85805 0
M  V30 11019 O 1041.59 -0.0766791 -2.28371 0
M  V30 11020 C 1041.8 -3.36978 -0.908108 0
M  V30 11021 C 1043.15 -4.05228 -1.26788 0
M  V30 11022 O 1044.17 -3.41908 -0.998859 0
M  V30 11023 O 1043.03 -5.16971 -1.7721 0
M  V30 11024 H 1040.12 -0.770064 -0.301547 0
M  V30 11025 H 1042.67 -1.69147 0.136914 0
M  V30 11026 H 1041.44 -3.91296 -0.0165615 0
M  V30 11027 H 1041.06 -3.5935 -1.70156 0
M  V30 11028 N 1042.06 0.170153 -1.56679 0
M  V30 11029 C 1043.01 1.21064 -1.965 0
M  V30 11030 C 1043.98 1.43928 -0.829092 0
M  V30 11031 O 1045.16 1.56649 -1.08931 0
M  V30 11032 C 1042.3 2.54468 -2.33109 0
M  V30 11033 C 1041.42 2.38974 -3.59883 0
M  V30 11034 C 1040.55 3.65252 -3.857 0
M  V30 11035 C 1039.59 3.44696 -5.05817 0
M  V30 11036 N 1038.73 4.63047 -5.27761 0
M  V30 11037 H 1043.57 0.864055 -2.85198 0
M  V30 11038 H 1041.1 0.415243 -1.41117 0
M  V30 11039 H 1043.06 3.32222 -2.52358 0
M  V30 11040 H 1041.69 2.8712 -1.4752 0
M  V30 11041 H 1040.74 1.5239 -3.48542 0
M  V30 11042 H 1042.06 2.19731 -4.47794 0
M  V30 11043 H 1041.21 4.51441 -4.05322 0
M  V30 11044 H 1039.95 3.87475 -2.96166 0
M  V30 11045 H 1038.95 2.56893 -4.86092 0
M  V30 11046 H 1040.18 3.23894 -5.96883 0
M  V30 11047 H 1038.12 4.85487 -4.41179 0
M  V30 11048 H 1038.04 4.46722 -6.09898 0
M  V30 11049 H 1039.31 5.50516 -5.51863 0
M  V30 11050 N 1043.54 1.5137 0.438746 0
M  V30 11051 C 1044.79 1.63969 1.1883 0
M  V30 11052 C 1045.11 0.355245 1.91228 0
M  V30 11053 O 1044.37 -0.660605 1.84213 0
M  V30 11054 C 1044.67 2.79221 2.23093 0
M  V30 11055 C 1044.33 4.18547 1.67717 0
M  V30 11056 C 1043 4.5645 1.52337 0
M  V30 11057 C 1045.35 5.05494 1.26986 0
M  V30 11058 C 1042.68 5.79007 0.946996 0
M  V30 11059 C 1045.03 6.28628 0.707785 0
M  V30 11060 C 1043.69 6.65305 0.540881 0
M  V30 11061 H 1042.96 0.600003 0.43483 0
M  V30 11062 H 1045.61 1.85398 0.479565 0
M  V30 11063 H 1043.91 2.52008 2.99999 0
M  V30 11064 H 1045.61 2.86168 2.80907 0
M  V30 11065 H 1042.2 3.88663 1.80663 0
M  V30 11066 H 1046.38 4.76818 1.37689 0
M  V30 11067 H 1041.64 6.06072 0.805432 0
M  V30 11068 H 1045.81 6.95342 0.38366 0
M  V30 11069 H 1043.44 7.60144 0.0921324 0
M  V30 11070 N 1045.02 -0.694098 1.41492 0
M  V30 11071 C 1045.95 -1.81943 1.39389 0
M  V30 11072 C 1046.96 -1.6009 0.295836 0
M  V30 11073 O 1048.15 -1.69565 0.557658 0
M  V30 11074 C 1045.25 -3.18731 1.15167 0
M  V30 11075 C 1044.42 -3.67601 2.37041 0
M  V30 11076 C 1043.48 -4.83063 2.08654 0
M  V30 11077 O 1042.51 -4.94603 2.81704 0
M  V30 11078 N 1043.71 -5.70409 1.0777 0
M  V30 11079 H 1046.48 -1.84239 2.36381 0
M  V30 11080 H 1044.04 -0.876475 1.36123 0
M  V30 11081 H 1046.03 -3.93602 0.941264 0
M  V30 11082 H 1044.6 -3.11452 0.267673 0
M  V30 11083 H 1043.82 -2.83622 2.73774 0
M  V30 11084 H 1045.11 -3.96991 3.18239 0
M  V30 11085 H 1044.5 -5.63718 0.473123 0
M  V30 11086 H 1043.06 -6.45172 0.927177 0
M  V30 11087 N 1046.49 -1.27344 -0.928501 0
M  V30 11088 C 1047.74 -1.13635 -1.6761 0
M  V30 11089 C 1048.07 0.317957 -1.91884 0
M  V30 11090 O 1047.32 1.24904 -1.50657 0
M  V30 11091 C 1047.62 -1.86439 -3.04918 0
M  V30 11092 C 1047.29 -3.36298 -3.00358 0
M  V30 11093 C 1045.95 -3.77173 -2.98821 0
M  V30 11094 C 1048.3 -4.31921 -2.91708 0
M  V30 11095 C 1045.63 -5.12037 -2.86417 0
M  V30 11096 C 1047.98 -5.66841 -2.80846 0
M  V30 11097 C 1046.65 -6.07011 -2.77659 0
M  V30 11098 H 1045.92 -0.415821 -0.61333 0
M  V30 11099 H 1048.56 -1.57943 -1.08288 0
M  V30 11100 H 1046.87 -1.34638 -3.6794 0
M  V30 11101 H 1048.57 -1.73261 -3.61637 0
M  V30 11102 H 1045.16 -3.0379 -3.0234 0
M  V30 11103 H 1049.34 -4.01314 -2.91994 0
M  V30 11104 H 1044.6 -5.42307 -2.82336 0
M  V30 11105 H 1048.77 -6.40608 -2.73119 0
M  V30 11106 H 1046.4 -7.11467 -2.67804 0
M  V30 11107 N 1047.97 1.13488 -1.09353 0
M  V30 11108 C 1048.88 2.2248 -0.744307 0
M  V30 11109 C 1049.9 1.72145 0.253404 0
M  V30 11110 O 1051.07 2.01176 0.0949339 0
M  V30 11111 C 1048.14 3.46286 -0.16928 0
M  V30 11112 C 1047.2 4.11516 -1.22284 0
M  V30 11113 C 1046.43 5.29412 -0.675161 0
M  V30 11114 O 1046.66 5.68185 0.502182 0
M  V30 11115 O 1045.59 5.8467 -1.42983 0
M  V30 11116 H 1049.42 2.54723 -1.65378 0
M  V30 11117 H 1047 1.21607 -0.867879 0
M  V30 11118 H 1048.88 4.2114 0.14811 0
M  V30 11119 H 1047.56 3.15745 0.713214 0
M  V30 11120 H 1046.47 3.38492 -1.59292 0
M  V30 11121 H 1047.8 4.46186 -2.07796 0
M  V30 11122 N 1049.45 0.880621 1.30701 0
M  V30 11123 C 1050.38 0.360251 2.30704 0
M  V30 11124 C 1051.36 -0.554572 1.60806 0
M  V30 11125 O 1052.55 -0.469345 1.88443 0
M  V30 11126 C 1049.68 -0.429888 3.44629 0
M  V30 11127 C 1048.63 0.392786 4.26194 0
M  V30 11128 C 1047.96 -0.52369 5.32129 0
M  V30 11129 C 1049.26 1.63258 4.96129 0
M  V30 11130 H 1050.95 1.19591 2.74478 0
M  V30 11131 H 1048.5 0.576508 1.31956 0
M  V30 11132 H 1050.45 -0.804532 4.13649 0
M  V30 11133 H 1049.17 -1.29916 2.99649 0
M  V30 11134 H 1047.83 0.749514 3.58856 0
M  V30 11135 H 1047.48 -1.39054 4.83397 0
M  V30 11136 H 1047.18 0.0229272 5.87596 0
M  V30 11137 H 1048.71 -0.894946 6.04006 0
M  V30 11138 H 1050.12 1.32877 5.57689 0
M  V30 11139 H 1048.52 2.11906 5.61441 0
M  V30 11140 H 1049.59 2.37944 4.22505 0
M  V30 11141 N 1050.93 -1.4397 0.641131 0
M  V30 11142 C 1052.16 -2.06303 0.157006 0
M  V30 11143 C 1052.57 -1.47981 -1.17248 0
M  V30 11144 O 1051.93 -0.606471 -1.72128 0
M  V30 11145 C 1051.98 -3.6147 0.0468425 0
M  V30 11146 O 1051.7 -4.17622 1.32376 0
M  V30 11147 C 1053.2 -4.40857 -0.464795 0
M  V30 11148 H 1050.42 -0.665684 0.0842946 0
M  V30 11149 H 1052.97 -1.84675 0.878363 0
M  V30 11150 H 1051.12 -3.82325 -0.625006 0
M  V30 11151 H 1051.54 -5.11167 1.17509 0
M  V30 11152 H 1053.01 -5.49813 -0.490862 0
M  V30 11153 H 1053.49 -4.13016 -1.4938 0
M  V30 11154 H 1054.09 -4.24943 0.174146 0
M  V30 11155 N 1052.41 -0.382291 -1.52893 0
M  V30 11156 C 1053.34 0.447829 -2.29165 0
M  V30 11157 C 1054.32 1.06956 -1.32267 0
M  V30 11158 O 1055.5 1.08365 -1.61154 0
M  V30 11159 C 1052.63 1.57902 -3.09329 0
M  V30 11160 C 1051.59 1.08369 -4.14053 0
M  V30 11161 C 1050.91 2.30641 -4.82399 0
M  V30 11162 C 1052.21 0.156591 -5.22065 0
M  V30 11163 H 1053.91 -0.188541 -2.98806 0
M  V30 11164 H 1051.45 -0.0921179 -1.43705 0
M  V30 11165 H 1053.41 2.16652 -3.61442 0
M  V30 11166 H 1052.13 2.24287 -2.37409 0
M  V30 11167 H 1050.79 0.518772 -3.62911 0
M  V30 11168 H 1050.44 2.9552 -4.07034 0
M  V30 11169 H 1050.14 1.98163 -5.53177 0
M  V30 11170 H 1051.66 2.90047 -5.37313 0
M  V30 11171 H 1053.08 0.652065 -5.6958 0
M  V30 11172 H 1051.47 -0.0780978 -6.00049 0
M  V30 11173 H 1052.54 -0.796529 -4.78313 0
M  V30 11174 N 1053.89 1.57202 -0.111913 0
M  V30 11175 C 1054.8 2.18475 0.854753 0
M  V30 11176 C 1055.81 1.15888 1.29792 0
M  V30 11177 O 1056.99 1.48329 1.36237 0
M  V30 11178 C 1054.05 2.76645 2.0897 0
M  V30 11179 C 1053.11 3.94244 1.69913 0
M  V30 11180 C 1052.35 4.49631 2.8752 0
M  V30 11181 O 1052.57 4.03926 4.02741 0
M  V30 11182 O 1051.5 5.40417 2.65015 0
M  V30 11183 H 1055.33 3.01519 0.363352 0
M  V30 11184 H 1052.91 1.4897 0.113329 0
M  V30 11185 H 1054.8 3.13755 2.81311 0
M  V30 11186 H 1053.47 1.96637 2.5713 0
M  V30 11187 H 1052.38 3.61915 0.947013 0
M  V30 11188 H 1053.71 4.75666 1.26501 0
M  V30 11189 N 1055.36 -0.161842 1.56767 0
M  V30 11190 C 1056.27 -1.21996 2.00385 0
M  V30 11191 C 1057.29 -1.4789 0.916768 0
M  V30 11192 O 1058.47 -1.59852 1.22513 0
M  V30 11193 C 1055.53 -2.53695 2.36305 0
M  V30 11194 C 1054.59 -2.3558 3.58888 0
M  V30 11195 C 1053.82 -3.60998 3.93085 0
M  V30 11196 O 1054.05 -4.6657 3.28129 0
M  V30 11197 O 1052.98 -3.54544 4.86397 0
M  V30 11198 H 1056.81 -0.879701 2.9068 0
M  V30 11199 H 1054.39 -0.369437 1.4476 0
M  V30 11200 H 1056.27 -3.31366 2.60335 0
M  V30 11201 H 1054.95 -2.87281 1.49169 0
M  V30 11202 H 1053.86 -1.55908 3.40064 0
M  V30 11203 H 1055.19 -2.06915 4.46595 0
M  V30 11204 N 1056.84 -1.516 -0.430713 0
M  V30 11205 C 1057.75 -1.76247 -1.54836 0
M  V30 11206 C 1058.77 -0.646985 -1.61524 0
M  V30 11207 O 1059.94 -0.929987 -1.78643 0
M  V30 11208 C 1057.01 -1.88833 -2.90763 0
M  V30 11209 C 1056.07 -3.12701 -2.94137 0
M  V30 11210 C 1055.3 -3.24676 -4.23581 0
M  V30 11211 O 1055.53 -2.42429 -5.16318 0
M  V30 11212 O 1054.46 -4.17697 -4.33374 0
M  V30 11213 H 1058.29 -2.71069 -1.3695 0
M  V30 11214 H 1055.87 -1.36182 -0.614396 0
M  V30 11215 H 1057.75 -1.99057 -3.71422 0
M  V30 11216 H 1056.43 -0.971987 -3.08762 0
M  V30 11217 H 1055.33 -3.0795 -2.1241 0
M  V30 11218 H 1056.67 -4.04045 -2.81084 0
M  V30 11219 N 1058.32 0.686584 -1.41858 0
M  V30 11220 C 1059.23 1.83002 -1.46791 0
M  V30 11221 C 1060.25 1.70284 -0.357675 0
M  V30 11222 O 1061.42 1.92042 -0.606781 0
M  V30 11223 C 1058.49 3.19056 -1.35661 0
M  V30 11224 C 1057.55 3.43817 -2.57077 0
M  V30 11225 C 1056.78 4.7338 -2.46469 0
M  V30 11226 O 1057 5.50483 -1.49413 0
M  V30 11227 O 1055.94 4.99124 -3.36391 0
M  V30 11228 H 1059.76 1.81797 -2.43277 0
M  V30 11229 H 1057.35 0.840812 -1.23494 0
M  V30 11230 H 1059.23 4.00267 -1.31773 0
M  V30 11231 H 1057.91 3.20925 -0.422951 0
M  V30 11232 H 1056.81 2.625 -2.66541 0
M  V30 11233 H 1058.15 3.4677 -3.49302 0
M  V30 11234 N 1059.8 1.27835 0.921735 0
M  V30 11235 C 1060.71 1.12904 2.05645 0
M  V30 11236 C 1061.72 0.0575704 1.73905 0
M  V30 11237 O 1062.9 0.265261 1.99645 0
M  V30 11238 C 1059.96 0.783957 3.3772 0
M  V30 11239 C 1059.03 1.93694 3.8312 0
M  V30 11240 C 1058.26 1.60823 5.08893 0
M  V30 11241 O 1058.48 0.518873 5.68035 0
M  V30 11242 O 1057.42 2.44932 5.49811 0
M  V30 11243 H 1061.24 2.08143 2.21157 0
M  V30 11244 H 1058.83 1.07078 1.04185 0
M  V30 11245 H 1060.71 0.605107 4.17033 0
M  V30 11246 H 1059.38 -0.138849 3.23402 0
M  V30 11247 H 1058.29 2.17089 3.04669 0
M  V30 11248 H 1059.62 2.84016 4.0199 0
M  V30 11249 N 1061.28 -1.12907 1.09954 0
M  V30 11250 C 1062.19 -2.22082 0.756095 0
M  V30 11251 C 1063.2 -1.72277 -0.244272 0
M  V30 11252 O 1064.38 -2.01224 -0.0842637 0
M  V30 11253 C 1061.44 -3.46192 0.187642 0
M  V30 11254 C 1060.5 -4.10861 1.24465 0
M  V30 11255 C 1059.74 -5.29047 0.703227 0
M  V30 11256 O 1059.96 -5.68443 -0.472043 0
M  V30 11257 O 1058.89 -5.83904 1.46082 0
M  V30 11258 H 1062.72 -2.53842 1.66727 0
M  V30 11259 H 1060.3 -1.21145 0.874316 0
M  V30 11260 H 1062.19 -4.21212 -0.125774 0
M  V30 11261 H 1060.86 -3.16119 -0.696459 0
M  V30 11262 H 1059.77 -3.37643 1.61085 0
M  V30 11263 H 1061.1 -4.45078 2.10159 0
M  V30 11264 N 1062.75 -0.88754 -1.30232 0
M  V30 11265 C 1063.66 -0.360333 -2.31816 0
M  V30 11266 C 1064.68 0.538741 -1.6545 0
M  V30 11267 O 1065.86 0.431246 -1.96729 0
M  V30 11268 C 1062.92 0.414336 -3.44215 0
M  V30 11269 C 1061.98 -0.514799 -4.26202 0
M  V30 11270 C 1061.21 0.222994 -5.33234 0
M  V30 11271 O 1061.44 1.44871 -5.51696 0
M  V30 11272 O 1060.37 -0.428221 -6.00375 0
M  V30 11273 H 1064.2 -1.20279 -2.78867 0
M  V30 11274 H 1061.78 -0.651459 -1.34448 0
M  V30 11275 H 1063.66 0.852859 -4.12679 0
M  V30 11276 H 1062.34 1.23305 -2.99295 0
M  V30 11277 H 1061.25 -1.00219 -3.60426 0
M  V30 11278 H 1062.58 -1.29959 -4.74733 0
M  V30 11279 N 1064.23 1.43628 -0.648757 0
M  V30 11280 C 1065.48 2.01083 -0.157692 0
M  V30 11281 C 1065.79 1.51756 1.23408 0
M  V30 11282 O 1067 2.01455 1.82012 0
M  V30 11283 C 1065.46 3.59157 -0.231118 0
M  V30 11284 C 1065.06 4.17478 -1.6253 0
M  V30 11285 C 1066.81 4.24016 0.202573 0
M  V30 11286 C 1064.72 5.67832 -1.6529 0
M  V30 11287 H 1063.65 0.751977 -0.0551897 0
M  V30 11288 H 1066.3 1.64648 -0.810139 0
M  V30 11289 H 1064.68 3.92972 0.488755 0
M  V30 11290 H 1065.85 3.9517 -2.37017 0
M  V30 11291 H 1064.17 3.64973 -2.00459 0
M  V30 11292 H 1066.76 5.34319 0.20174 0
M  V30 11293 H 1067.11 3.97616 1.23319 0
M  V30 11294 H 1067.64 3.95068 -0.465398 0
M  V30 11295 H 1064.38 5.98994 -2.66246 0
M  V30 11296 H 1063.9 5.92209 -0.951217 0
M  V30 11297 H 1065.58 6.3179 -1.39465 0
M  V30 11298 N 1065.71 0.390394 1.52688 0
M  V30 11299 C 1066.94 -0.194013 2.06491 0
M  V30 11300 C 1067.36 -1.3965 1.26014 0
M  V30 11301 O 1066.72 -1.79038 0.285468 0
M  V30 11302 C 1066.77 -0.541306 3.56514 0
M  V30 11303 O 1065.87 -1.63509 3.78601 0
M  V30 11304 H 1065.21 -0.0223608 0.663623 0
M  V30 11305 H 1067.74 0.558179 1.96839 0
M  V30 11306 H 1067.75 -0.805301 3.99974 0
M  V30 11307 H 1066.43 0.337828 4.14526 0
M  V30 11308 H 1065 -1.36473 3.4703 0
M  V30 11309 N 1067.19 -1.57141 0.120249 0
M  V30 11310 C 1068.12 -2.11097 -0.8668 0
M  V30 11311 C 1069.1 -1.02768 -1.26006 0
M  V30 11312 O 1070.28 -1.3043 -1.36089 0
M  V30 11313 C 1067.41 -2.6087 -2.1602 0
M  V30 11314 C 1066.46 -3.81095 -1.91491 0
M  V30 11315 S 1067.29 -5.23441 -1.13005 0
M  V30 11316 C 1068.45 -5.76583 -2.43521 0
M  V30 11317 H 1068.68 -2.94489 -0.407871 0
M  V30 11318 H 1066.21 -1.54116 -0.0935491 0
M  V30 11319 H 1068.17 -2.90201 -2.90333 0
M  V30 11320 H 1066.83 -1.77657 -2.5903 0
M  V30 11321 H 1066.02 -4.14074 -2.8733 0
M  V30 11322 H 1065.63 -3.52387 -1.25297 0
M  V30 11323 H 1067.92 -5.86384 -3.39352 0
M  V30 11324 H 1068.86 -6.74644 -2.15085 0
M  V30 11325 H 1069.27 -5.04657 -2.52946 0
M  V30 11326 N 1068.67 0.153526 -1.5685 0
M  V30 11327 C 1069.63 1.17362 -1.96873 0
M  V30 11328 C 1070.63 1.36219 -0.854456 0
M  V30 11329 O 1071.82 1.33322 -1.1212 0
M  V30 11330 C 1068.95 2.53523 -2.27901 0
M  V30 11331 H 1070.14 0.830432 -2.88173 0
M  V30 11332 H 1067.7 0.396633 -1.51184 0
M  V30 11333 H 1068.43 2.92824 -1.39371 0
M  V30 11334 H 1068.22 2.41198 -3.09137 0
M  V30 11335 H 1069.71 3.27006 -2.59725 0
M  V30 11336 N 1070.14 1.51827 0.422667 0
M  V30 11337 C 1071.08 1.70409 1.53275 0
M  V30 11338 C 1072.09 0.584584 1.51942 0
M  V30 11339 O 1073.28 0.859349 1.56453 0
M  V30 11340 C 1070.38 1.717 2.92185 0
M  V30 11341 C 1069.55 3.00472 3.17861 0
M  V30 11342 C 1068.61 2.93755 4.36571 0
M  V30 11343 O 1067.64 3.67682 4.3451 0
M  V30 11344 N 1068.84 2.10612 5.40946 0
M  V30 11345 H 1071.6 2.66176 1.37734 0
M  V30 11346 H 1069.16 1.49895 0.611799 0
M  V30 11347 H 1071.16 1.64756 3.69645 0
M  V30 11348 H 1069.73 0.834655 3.01251 0
M  V30 11349 H 1068.95 3.21171 2.28567 0
M  V30 11350 H 1070.23 3.85684 3.31851 0
M  V30 11351 H 1069.63 1.49954 5.45463 0
M  V30 11352 H 1068.19 2.09535 6.17202 0
M  V30 11353 N 1071.62 -0.679052 1.4222 0
M  V30 11354 C 1072.87 -1.43485 1.41757 0
M  V30 11355 C 1073.18 -1.95567 0.0358698 0
M  V30 11356 O 1074.39 -2.71346 -0.0913713 0
M  V30 11357 C 1072.85 -2.59541 2.49332 0
M  V30 11358 C 1072.45 -2.14176 3.93488 0
M  V30 11359 C 1074.2 -3.37078 2.58029 0
M  V30 11360 C 1072.11 -3.27289 4.92581 0
M  V30 11361 H 1071.04 -0.539022 0.52723 0
M  V30 11362 H 1073.69 -0.735581 1.68111 0
M  V30 11363 H 1072.07 -3.31815 2.16135 0
M  V30 11364 H 1073.24 -1.49082 4.36017 0
M  V30 11365 H 1071.56 -1.49589 3.88603 0
M  V30 11366 H 1074.15 -4.21312 3.29242 0
M  V30 11367 H 1074.5 -3.83383 1.62245 0
M  V30 11368 H 1075.03 -2.7187 2.90399 0
M  V30 11369 H 1071.77 -2.8598 5.89827 0
M  V30 11370 H 1071.29 -3.91178 4.54687 0
M  V30 11371 H 1072.97 -3.9282 5.14103 0
M  V30 11372 N 1073.1 -1.28322 -0.914942 0
M  V30 11373 C 1074.51 -1.13937 -1.47903 0
M  V30 11374 C 1074.86 0.271072 -1.94318 0
M  V30 11375 O 1073.99 1.16522 -1.8235 0
M  V30 11376 C 1074.58 -2.06221 -2.68809 0
M  V30 11377 C 1073.14 -1.95903 -3.21402 0
M  V30 11378 C 1072.29 -1.98031 -1.94111 0
M  V30 11379 H 1075.24 -1.41029 -0.727772 0
M  V30 11380 H 1075.26 -1.6255 -3.44031 0
M  V30 11381 H 1074.77 -3.08866 -2.34997 0
M  V30 11382 H 1072.87 -0.962907 -3.59943 0
M  V30 11383 H 1072.99 -2.82799 -3.86732 0
M  V30 11384 H 1071.35 -1.42423 -2.11158 0
M  V30 11385 H 1072.13 -3.02354 -1.62595 0
M  V30 11386 N 1074.58 1.12322 -1.10551 0
M  V30 11387 C 1075.82 1.85497 -0.858492 0
M  V30 11388 C 1076.18 1.8222 0.604966 0
M  V30 11389 O 1077.38 2.5075 0.968382 0
M  V30 11390 C 1075.65 3.29124 -1.39327 0
M  V30 11391 S 1077.21 4.19659 -1.28186 0
M  V30 11392 H 1074.03 0.639768 -0.31019 0
M  V30 11393 H 1076.63 1.35298 -1.41119 0
M  V30 11394 H 1075.34 3.29069 -2.45238 0
M  V30 11395 H 1074.87 3.84388 -0.837203 0
M  V30 11396 H 1076.88 4.95618 -0.240325 0
M  V30 11397 N 1076.06 0.894434 1.2976 0
M  V30 11398 C 1077.28 0.532916 1.99919 0
M  V30 11399 C 1077.7 -0.881022 1.66983 0
M  V30 11400 O 1077.06 -1.58076 0.912035 0
M  V30 11401 C 1077.11 0.70936 3.54472 0
M  V30 11402 O 1076.83 2.06764 3.86239 0
M  V30 11403 C 1078.33 0.352089 4.419 0
M  V30 11404 H 1075.55 0.205019 0.638912 0
M  V30 11405 H 1078.09 1.20233 1.65421 0
M  V30 11406 H 1076.25 0.0871901 3.87302 0
M  V30 11407 H 1076.66 2.09315 4.80924 0
M  V30 11408 H 1078.14 0.526405 5.49484 0
M  V30 11409 H 1078.61 -0.710527 4.33415 0
M  V30 11410 H 1079.22 0.950979 4.14532 0
M  V30 11411 N 1077.53 -1.43282 0.656365 0
M  V30 11412 C 1078.5 -2.29188 -0.0239173 0
M  V30 11413 C 1079.5 -1.42373 -0.747436 0
M  V30 11414 O 1080.69 -1.63969 -0.588213 0
M  V30 11415 C 1077.82 -3.24501 -1.0446 0
M  V30 11416 H 1079.01 -2.9083 0.731978 0
M  V30 11417 H 1076.57 -1.50614 0.417752 0
M  V30 11418 H 1077.3 -2.6776 -1.82962 0
M  V30 11419 H 1077.09 -3.88509 -0.52942 0
M  V30 11420 H 1078.58 -3.88971 -1.51958 0
M  V30 11421 N 1079.01 -0.398486 -1.52479 0
M  V30 11422 C 1079.95 0.467426 -2.24383 0
M  V30 11423 C 1080.96 1.01908 -1.26959 0
M  V30 11424 O 1082.15 0.919843 -1.52974 0
M  V30 11425 C 1079.25 1.66146 -2.95379 0
M  V30 11426 C 1078.42 1.23557 -4.19586 0
M  V30 11427 C 1077.48 2.29532 -4.73499 0
M  V30 11428 O 1076.51 1.90561 -5.36354 0
M  V30 11429 N 1077.71 3.61564 -4.5415 0
M  V30 11430 H 1080.47 -0.148653 -2.99331 0
M  V30 11431 H 1078.03 -0.225313 -1.60325 0
M  V30 11432 H 1080.03 2.36585 -3.28344 0
M  V30 11433 H 1078.6 2.18369 -2.23682 0
M  V30 11434 H 1077.82 0.359715 -3.92555 0
M  V30 11435 H 1079.1 0.927812 -5.00269 0
M  V30 11436 H 1078.5 3.95983 -4.03998 0
M  V30 11437 H 1077.06 4.2801 -4.9158 0
M  V30 11438 N 1080.49 1.57075 -0.12858 0
M  V30 11439 C 1081.4 2.19369 0.831533 0
M  V30 11440 C 1082.42 1.17258 1.28555 0
M  V30 11441 O 1083.59 1.49766 1.34656 0
M  V30 11442 C 1080.66 2.78846 2.06024 0
M  V30 11443 C 1079.72 3.96024 1.65722 0
M  V30 11444 C 1078.95 4.52655 2.82735 0
M  V30 11445 O 1079.18 4.08175 3.98434 0
M  V30 11446 O 1078.11 5.43198 2.59268 0
M  V30 11447 H 1081.94 3.01887 0.331352 0
M  V30 11448 H 1079.52 1.49081 0.0975226 0
M  V30 11449 H 1081.4 3.16721 2.77967 0
M  V30 11450 H 1080.08 1.99353 2.5503 0
M  V30 11451 H 1078.98 3.62899 0.908574 0
M  V30 11452 H 1080.32 4.76981 1.21449 0
M  V30 11453 N 1081.97 -0.145205 1.5693 0
M  V30 11454 C 1082.93 -1.16316 1.97492 0
M  V30 11455 C 1083.93 -1.35764 0.861668 0
M  V30 11456 O 1085.12 -1.32726 1.12825 0
M  V30 11457 C 1082.25 -2.52311 2.29242 0
M  V30 11458 H 1083.45 -0.815138 2.8861 0
M  V30 11459 H 1081 -0.38861 1.51392 0
M  V30 11460 H 1081.74 -2.92081 1.40922 0
M  V30 11461 H 1081.52 -2.39555 3.10412 0
M  V30 11462 H 1083.01 -3.25624 2.61456 0
M  V30 11463 N 1083.45 -1.52049 -0.414609 0
M  V30 11464 C 1084.38 -1.77956 -1.51175 0
M  V30 11465 C 1085.36 -0.630282 -1.57992 0
M  V30 11466 O 1086.54 -0.875324 -1.73354 0
M  V30 11467 C 1083.67 -1.92527 -2.89051 0
M  V30 11468 C 1082.63 -3.08096 -2.97087 0
M  V30 11469 C 1081.95 -3.07882 -4.37164 0
M  V30 11470 C 1083.25 -4.47656 -2.69075 0
M  V30 11471 H 1084.95 -2.69827 -1.29746 0
M  V30 11472 H 1082.49 -1.29839 -0.62273 0
M  V30 11473 H 1084.45 -2.09234 -3.65786 0
M  V30 11474 H 1083.17 -0.973235 -3.11762 0
M  V30 11475 H 1081.83 -2.91131 -2.22797 0
M  V30 11476 H 1081.48 -2.10411 -4.56877 0
M  V30 11477 H 1081.18 -3.85501 -4.43467 0
M  V30 11478 H 1082.7 -3.26712 -5.15841 0
M  V30 11479 H 1084.12 -4.64855 -3.35534 0
M  V30 11480 H 1082.51 -5.27151 -2.8676 0
M  V30 11481 H 1083.58 -4.56129 -1.64544 0
M  V30 11482 N 1084.93 0.6715 -1.42579 0
M  V30 11483 C 1086.15 1.45972 -1.46628 0
M  V30 11484 C 1086.57 1.88636 -0.0785986 0
M  V30 11485 O 1085.93 1.58345 0.907372 0
M  V30 11486 C 1085.98 2.70668 -2.39627 0
M  V30 11487 O 1085.7 2.29793 -3.72997 0
M  V30 11488 C 1087.2 3.64201 -2.52731 0
M  V30 11489 H 1084.42 0.449044 -0.498598 0
M  V30 11490 H 1086.96 0.824811 -1.87129 0
M  V30 11491 H 1085.12 3.3034 -2.02371 0
M  V30 11492 H 1085.53 3.10341 -4.22834 0
M  V30 11493 H 1087.01 4.48412 -3.21918 0
M  V30 11494 H 1087.48 4.10323 -1.56626 0
M  V30 11495 H 1088.09 3.1042 -2.90722 0
M  V30 11496 N 1086.4 1.28806 0.908124 0
M  V30 11497 C 1087.37 1.13228 1.99279 0
M  V30 11498 C 1088.37 0.0702456 1.60646 0
M  V30 11499 O 1089.56 0.316494 1.71301 0
M  V30 11500 C 1086.69 0.729629 3.33 0
M  V30 11501 H 1087.88 2.09566 2.14528 0
M  V30 11502 H 1085.43 1.11872 1.09153 0
M  V30 11503 H 1086.17 -0.234268 3.23453 0
M  V30 11504 H 1085.95 1.49688 3.62403 0
M  V30 11505 H 1087.44 0.643449 4.12613 0
M  V30 11506 N 1087.88 -1.11734 1.11145 0
M  V30 11507 C 1088.81 -2.17438 0.724804 0
M  V30 11508 C 1089.83 -1.6099 -0.242069 0
M  V30 11509 O 1091.02 -1.78482 -0.0254259 0
M  V30 11510 C 1088.12 -3.38863 0.050004 0
M  V30 11511 C 1087.29 -4.24785 1.04292 0
M  V30 11512 C 1086.35 -5.24691 0.398243 0
M  V30 11513 O 1085.37 -5.59408 1.05125 0
M  V30 11514 N 1086.58 -5.74388 -0.840184 0
M  V30 11515 H 1089.34 -2.51219 1.63429 0
M  V30 11516 H 1086.9 -1.27226 1.00125 0
M  V30 11517 H 1088.89 -4.02788 -0.392929 0
M  V30 11518 H 1087.46 -3.0317 -0.762005 0
M  V30 11519 H 1086.68 -3.57363 1.6639 0
M  V30 11520 H 1087.97 -4.79033 1.71478 0
M  V30 11521 H 1087.37 -5.48359 -1.38994 0
M  V30 11522 H 1085.93 -6.40163 -1.22615 0
M  V30 11523 N 1089.36 -0.901303 -1.29284 0
M  V30 11524 C 1090.61 -0.527 -1.95108 0
M  V30 11525 C 1090.93 0.930065 -1.71391 0
M  V30 11526 O 1090.2 1.65601 -1.04658 0
M  V30 11527 H 1088.78 -0.191903 -0.721929 0
M  V30 11528 H 1091.44 -1.14795 -1.57506 0
M  V30 11529 H 1090.54 -0.710945 -3.03895 0
M  V30 11530 N 1090.84 1.42931 -0.663954 0
M  V30 11531 C 1091.77 2.33499 0.00731327 0
M  V30 11532 C 1092.75 1.50074 0.800733 0
M  V30 11533 O 1093.93 1.78708 0.760062 0
M  V30 11534 C 1091.06 3.33569 0.966897 0
M  V30 11535 C 1090.02 4.27064 0.282839 0
M  V30 11536 C 1089.34 5.17257 1.35461 0
M  V30 11537 C 1090.64 5.1564 -0.831438 0
M  V30 11538 H 1092.34 2.89879 -0.749044 0
M  V30 11539 H 1089.88 1.39385 -0.361656 0
M  V30 11540 H 1091.84 3.95833 1.44549 0
M  V30 11541 H 1090.56 2.75469 1.75455 0
M  V30 11542 H 1089.22 3.6618 -0.175417 0
M  V30 11543 H 1088.87 4.5549 2.13397 0
M  V30 11544 H 1088.57 5.80634 0.902098 0
M  V30 11545 H 1090.09 5.82395 1.83436 0
M  V30 11546 H 1091.51 5.71651 -0.434534 0
M  V30 11547 H 1089.9 5.87794 -1.20908 0
M  V30 11548 H 1090.97 4.54687 -1.68487 0
M  V30 11549 N 1092.32 0.406567 1.52266 0
M  V30 11550 C 1093.54 -0.172101 2.06685 0
M  V30 11551 C 1093.97 -1.38306 1.27488 0
M  V30 11552 O 1093.32 -1.78726 0.304441 0
M  V30 11553 C 1093.37 -0.503463 3.57068 0
M  V30 11554 O 1092.48 -1.59485 3.80314 0
M  V30 11555 H 1091.82 -0.0153209 0.663823 0
M  V30 11556 H 1094.35 0.579025 1.96236 0
M  V30 11557 H 1094.36 -0.762833 4.00805 0
M  V30 11558 H 1093.03 0.381775 4.14144 0
M  V30 11559 H 1091.61 -1.32784 3.48458 0
M  V30 11560 N 1093.79 -1.57004 0.136909 0
M  V30 11561 C 1095.04 -1.9541 -0.51569 0
M  V30 11562 C 1095.36 -1.02219 -1.66061 0
M  V30 11563 O 1094.63 -0.0818172 -1.95729 0
M  V30 11564 H 1093.21 -0.721504 -0.193497 0
M  V30 11565 H 1095.88 -1.93765 0.210046 0
M  V30 11566 H 1094.97 -2.98887 -0.898494 0
M  V30 11567 N 1095.27 0.136881 -1.57004 0
M  V30 11568 C 1096.52 0.849031 -1.84172 0
M  V30 11569 C 1096.85 1.80359 -0.720027 0
M  V30 11570 O 1096.13 1.92538 0.275584 0
M  V30 11571 C 1096.41 1.61465 -3.21871 0
M  V30 11572 C 1096.26 0.680902 -4.44616 0
M  V30 11573 C 1097.58 2.57488 -3.56914 0
M  V30 11574 H 1094.7 0.307209 -0.669919 0
M  V30 11575 H 1097.34 0.113862 -1.89659 0
M  V30 11576 H 1095.49 2.24137 -3.17325 0
M  V30 11577 H 1097.16 0.0644094 -4.61255 0
M  V30 11578 H 1095.41 -0.00883629 -4.33799 0
M  V30 11579 H 1096.08 1.25286 -5.37594 0
M  V30 11580 H 1098.55 2.0493 -3.62136 0
M  V30 11581 H 1097.43 3.08101 -4.54274 0
M  V30 11582 H 1097.69 3.39321 -2.83397 0
M  V30 11583 N 1096.75 1.52266 0.40654 0
M  V30 11584 C 1097.66 1.78688 1.52012 0
M  V30 11585 C 1098.68 0.6726 1.60475 0
M  V30 11586 O 1099.85 0.95829 1.77141 0
M  V30 11587 C 1096.92 1.93434 2.87722 0
M  V30 11588 C 1095.98 3.17341 2.89125 0
M  V30 11589 C 1095.21 3.31374 4.18362 0
M  V30 11590 O 1095.43 2.50613 5.12396 0
M  V30 11591 O 1094.37 4.24539 4.26674 0
M  V30 11592 H 1098.19 2.73213 1.3262 0
M  V30 11593 H 1095.78 1.37142 0.592653 0
M  V30 11594 H 1097.66 2.04941 3.68208 0
M  V30 11595 H 1096.34 1.02099 3.07177 0
M  V30 11596 H 1095.24 3.1129 2.07483 0
M  V30 11597 H 1096.58 4.08466 2.7462 0
M  V30 11598 N 1098.23 -0.663929 1.42933 0
M  V30 11599 C 1099.14 -1.80643 1.49683 0
M  V30 11600 C 1100.15 -1.69694 0.38472 0
M  V30 11601 O 1101.33 -1.91052 0.637256 0
M  V30 11602 C 1098.4 -3.16858 1.4072 0
M  V30 11603 C 1097.46 -3.39684 2.62514 0
M  V30 11604 C 1096.69 -4.69399 2.53969 0
M  V30 11605 O 1096.91 -5.48037 1.58152 0
M  V30 11606 O 1095.85 -4.93709 3.44289 0
M  V30 11607 H 1099.67 -1.77903 2.46138 0
M  V30 11608 H 1097.26 -0.821059 1.24816 0
M  V30 11609 H 1099.14 -3.9812 1.38124 0
M  V30 11610 H 1097.81 -3.20211 0.473954 0
M  V30 11611 H 1096.72 -2.58227 2.70684 0
M  V30 11612 H 1098.05 -3.41169 3.54774 0
M  V30 11613 N 1099.71 -1.29285 -0.901281 0
M  V30 11614 C 1100.67 -1.14283 -1.98676 0
M  V30 11615 C 1101.67 -0.0787641 -1.60607 0
M  V30 11616 O 1102.86 -0.325574 -1.71131 0
M  V30 11617 C 1099.99 -0.747279 -3.32609 0
M  V30 11618 H 1101.18 -2.10701 -2.13413 0
M  V30 11619 H 1098.74 -1.12449 -1.08558 0
M  V30 11620 H 1099.47 0.217111 -3.23572 0
M  V30 11621 H 1099.26 -1.51608 -3.61604 0
M  V30 11622 H 1100.75 -0.665322 -4.12266 0
M  V30 11623 N 1101.18 1.11143 -1.11736 0
M  V30 11624 C 1102.11 2.19339 -0.800795 0
M  V30 11625 C 1103.1 1.68508 0.23221 0
M  V30 11626 O 1104.28 1.93967 0.0950063 0
M  V30 11627 C 1101.41 3.46424 -0.246579 0
M  V30 11628 C 1100.36 4.10487 -1.21181 0
M  V30 11629 C 1099.69 5.32183 -0.518158 0
M  V30 11630 C 1100.99 4.55052 -2.56368 0
M  V30 11631 H 1102.68 2.46077 -1.70548 0
M  V30 11632 H 1100.23 1.18271 -0.821454 0
M  V30 11633 H 1102.18 4.21398 -0.0128889 0
M  V30 11634 H 1100.91 3.19154 0.693415 0
M  V30 11635 H 1099.57 3.3751 -1.43118 0
M  V30 11636 H 1099.21 5.01187 0.426742 0
M  V30 11637 H 1098.91 5.75997 -1.16196 0
M  V30 11638 H 1100.44 6.09895 -0.293333 0
M  V30 11639 H 1101.85 5.21335 -2.38501 0
M  V30 11640 H 1100.25 5.0969 -3.16758 0
M  V30 11641 H 1101.32 3.68343 -3.1536 0
M  V30 11642 N 1102.66 0.908147 1.28804 0
M  V30 11643 C 1103.94 0.457561 1.90173 0
M  V30 11644 C 1104.32 -1.06333 1.82364 0
M  V30 11645 O 1103.67 -1.90892 1.25589 0
M  V30 11646 C 1103.88 0.981624 3.34911 0
M  V30 11647 C 1105.23 1.03037 4.11908 0
M  V30 11648 O 1106.25 0.929878 3.43848 0
M  V30 11649 O 1105.11 1.18257 5.33552 0
M  V30 11650 H 1102.2 0.144081 0.814352 0
M  V30 11651 H 1104.75 0.998565 1.37211 0
M  V30 11652 H 1103.52 2.02561 3.34791 0
M  V30 11653 H 1103.14 0.421122 3.95364 0
M  V30 11654 N 1104.14 -1.42577 0.671525 0
M  V30 11655 C 1105.1 -2.292 0.000392482 0
M  V30 11656 C 1106.1 -1.43158 -0.732294 0
M  V30 11657 O 1107.29 -1.64583 -0.570789 0
M  V30 11658 C 1104.43 -3.25591 -1.01013 0
M  V30 11659 H 1105.62 -2.90037 0.762783 0
M  V30 11660 H 1103.17 -1.50162 0.433703 0
M  V30 11661 H 1103.91 -2.69685 -1.80112 0
M  V30 11662 H 1103.69 -3.89049 -0.488183 0
M  V30 11663 H 1105.18 -3.90561 -1.47824 0
M  V30 11664 N 1105.62 -0.414636 -1.52048 0
M  V30 11665 C 1106.85 0.158686 -2.06291 0
M  V30 11666 C 1107.26 1.38397 -1.2842 0
M  V30 11667 O 1106.62 1.79351 -0.337539 0
M  V30 11668 C 1106.67 0.503634 -3.57975 0
M  V30 11669 O 1106.39 -0.672996 -4.329 0
M  V30 11670 C 1107.89 1.13009 -4.28653 0
M  V30 11671 H 1105.11 0.0179622 -0.67076 0
M  V30 11672 H 1107.66 -0.587177 -1.95889 0
M  V30 11673 H 1105.81 1.19939 -3.68366 0
M  V30 11674 H 1106.22 -0.383735 -5.23094 0
M  V30 11675 H 1107.7 1.32162 -5.35945 0
M  V30 11676 H 1108.18 2.10476 -3.85482 0
M  V30 11677 H 1108.78 0.474379 -4.22646 0
M  V30 11678 N 1107.1 1.56929 -0.145233 0
M  V30 11679 C 1108.35 1.95243 0.506273 0
M  V30 11680 C 1108.66 1.0325 1.66129 0
M  V30 11681 O 1109.86 1.31135 2.37731 0
M  V30 11682 C 1108.32 3.47079 0.952042 0
M  V30 11683 C 1107.93 4.47654 -0.175947 0
M  V30 11684 C 1109.67 3.94263 1.57344 0
M  V30 11685 C 1107.58 5.90698 0.287993 0
M  V30 11686 H 1106.51 0.728906 0.192903 0
M  V30 11687 H 1109.16 1.82062 -0.229295 0
M  V30 11688 H 1107.54 3.55587 1.74282 0
M  V30 11689 H 1108.72 4.50841 -0.952848 0
M  V30 11690 H 1107.03 4.10377 -0.70564 0
M  V30 11691 H 1109.63 4.9857 1.93214 0
M  V30 11692 H 1109.97 3.35714 2.46174 0
M  V30 11693 H 1110.5 3.88665 0.847593 0
M  V30 11694 H 1107.24 6.53061 -0.564889 0
M  V30 11695 H 1106.76 5.90876 1.03081 0
M  V30 11696 H 1108.44 6.42747 0.740586 0
M  V30 11697 N 1108.58 -0.128553 1.57075 0
M  V30 11698 C 1109.54 -1.14215 1.98715 0
M  V30 11699 C 1110.54 -1.34843 0.876019 0
M  V30 11700 O 1111.73 -1.31522 1.14227 0
M  V30 11701 C 1108.86 -2.49865 2.31905 0
M  V30 11702 H 1110.05 -0.784481 2.89458 0
M  V30 11703 H 1107.61 -0.372531 1.51796 0
M  V30 11704 H 1108.34 -2.9057 1.44012 0
M  V30 11705 H 1108.13 -2.3625 3.12935 0
M  V30 11706 H 1109.62 -3.22832 2.64895 0
M  V30 11707 N 1110.05 -1.5248 -0.398459 0
M  V30 11708 C 1111.3 -1.68262 -1.14277 0
M  V30 11709 C 1111.65 -0.412722 -1.87921 0
M  V30 11710 O 1110.95 0.593257 -1.82184 0
M  V30 11711 C 1111.14 -2.85038 -2.15611 0
M  V30 11712 C 1110.97 -4.23262 -1.51919 0
M  V30 11713 C 1109.74 -4.88627 -1.28732 0
M  V30 11714 C 1111.94 -5.04986 -0.974349 0
M  V30 11715 N 1109.92 -6.10857 -0.610455 0
M  V30 11716 C 1111.29 -6.18542 -0.425008 0
M  V30 11717 C 1113.35 -4.90243 -0.869843 0
M  V30 11718 C 1112.05 -7.18968 0.218609 0
M  V30 11719 C 1114.08 -5.90913 -0.240063 0
M  V30 11720 C 1113.44 -7.03767 0.298552 0
M  V30 11721 H 1109.54 -0.669275 -0.404469 0
M  V30 11722 H 1112.12 -1.8981 -0.433635 0
M  V30 11723 H 1110.29 -2.65087 -2.83872 0
M  V30 11724 H 1112.02 -2.89804 -2.82481 0
M  V30 11725 H 1108.78 -4.47179 -1.55975 0
M  V30 11726 H 1109.2 -6.76386 -0.288338 0
M  V30 11727 H 1113.84 -4.0321 -1.27207 0
M  V30 11728 H 1111.56 -8.05618 0.632874 0
M  V30 11729 H 1115.15 -5.81578 -0.160576 0
M  V30 11730 H 1114.03 -7.80329 0.778185 0
M  V30 11731 N 1111.53 0.65634 -1.43283 0
M  V30 11732 C 1112.44 1.79847 -1.50639 0
M  V30 11733 C 1113.46 1.69487 -0.393714 0
M  V30 11734 O 1114.63 1.90712 -0.647379 0
M  V30 11735 C 1111.7 3.16107 -1.42398 0
M  V30 11736 C 1110.76 3.38287 -2.64312 0
M  V30 11737 C 1109.99 4.68046 -2.56454 0
M  V30 11738 O 1110.22 5.4719 -1.61056 0
M  V30 11739 O 1109.15 4.91877 -3.46902 0
M  V30 11740 H 1112.98 1.76596 -2.47078 0
M  V30 11741 H 1110.56 0.814428 -1.25249 0
M  V30 11742 H 1112.44 3.97382 -1.40233 0
M  V30 11743 H 1111.12 3.19956 -0.490929 0
M  V30 11744 H 1110.02 2.56788 -2.72049 0
M  V30 11745 H 1111.36 3.39282 -3.56579 0
M  V30 11746 N 1113.01 1.29761 0.894412 0
M  V30 11747 C 1113.97 1.15335 1.98067 0
M  V30 11748 C 1114.97 0.0872804 1.60563 0
M  V30 11749 O 1116.16 0.334645 1.70955 0
M  V30 11750 C 1113.29 0.764907 3.32208 0
M  V30 11751 H 1114.49 2.11829 2.12293 0
M  V30 11752 H 1112.04 1.13023 1.0796 0
M  V30 11753 H 1112.78 -0.199948 3.23683 0
M  V30 11754 H 1112.56 1.53523 3.60795 0
M  V30 11755 H 1114.05 0.687176 4.11907 0
M  V30 11756 N 1114.49 -1.10549 1.12324 0
M  V30 11757 C 1115.71 -1.8681 0.900927 0
M  V30 11758 C 1116.14 -1.80049 -0.54443 0
M  V30 11759 O 1115.5 -1.16957 -1.38531 0
M  V30 11760 C 1115.54 -3.33197 1.37883 0
M  V30 11761 O 1114.65 -4.08628 0.556529 0
M  V30 11762 H 1113.99 -0.579709 0.32378 0
M  V30 11763 H 1116.52 -1.39678 1.49503 0
M  V30 11764 H 1116.53 -3.84047 1.37739 0
M  V30 11765 H 1115.2 -3.37435 2.43127 0
M  V30 11766 H 1113.78 -3.67627 0.62486 0
M  V30 11767 N 1115.97 -0.914965 -1.28321 0
M  V30 11768 C 1117.38 -0.59512 -1.76961 0
M  V30 11769 C 1117.73 0.88958 -1.74874 0
M  V30 11770 O 1116.85 1.6959 -1.34418 0
M  V30 11771 C 1117.45 -1.07353 -3.21342 0
M  V30 11772 C 1116.01 -0.804577 -3.677 0
M  V30 11773 C 1115.15 -1.23955 -2.48053 0
M  V30 11774 H 1118.1 -1.0961 -1.14767 0
M  V30 11775 H 1118.13 -0.415506 -3.78225 0
M  V30 11776 H 1117.64 -2.15413 -3.22829 0
M  V30 11777 H 1115.74 0.26277 -3.71672 0
M  V30 11778 H 1115.85 -1.41317 -4.57784 0
M  V30 11779 H 1114.22 -0.658274 -2.46046 0
M  V30 11780 H 1115 -2.32853 -2.52258 0
M  V30 11781 N 1117.44 1.42219 -0.679077 0
M  V30 11782 C 1118.41 2.29197 -0.0125475 0
M  V30 11783 C 1119.41 1.43544 0.724691 0
M  V30 11784 O 1120.6 1.64884 0.562052 0
M  V30 11785 C 1117.73 3.26122 0.992846 0
M  V30 11786 H 1118.92 2.89629 -0.778154 0
M  V30 11787 H 1116.47 1.4993 -0.44166 0
M  V30 11788 H 1117.21 2.70637 1.78679 0
M  V30 11789 H 1116.99 3.89302 0.467544 0
M  V30 11790 H 1118.48 3.91339 1.45751 0
M  V30 11791 N 1118.92 0.422693 1.51826 0
M  V30 11792 C 1119.85 -0.43167 2.25098 0
M  V30 11793 C 1120.87 -0.998758 1.28564 0
M  V30 11794 O 1122.06 -0.89539 1.54418 0
M  V30 11795 C 1119.16 -1.61426 2.97985 0
M  V30 11796 C 1118.33 -1.16866 4.21499 0
M  V30 11797 C 1117.39 -2.2197 4.77091 0
M  V30 11798 O 1116.41 -1.82004 5.39317 0
M  V30 11799 N 1117.62 -3.54293 4.59844 0
M  V30 11800 H 1120.38 0.196255 2.99057 0
M  V30 11801 H 1117.94 0.25079 1.59946 0
M  V30 11802 H 1119.93 -2.31331 3.32066 0
M  V30 11803 H 1118.5 -2.14783 2.27128 0
M  V30 11804 H 1117.72 -0.297217 3.93078 0
M  V30 11805 H 1119.01 -0.848106 5.01682 0
M  V30 11806 H 1118.41 -3.89505 4.10247 0
M  V30 11807 H 1116.97 -4.20135 4.98327 0
M  V30 11808 N 1120.4 -1.5685 0.153553 0
M  V30 11809 C 1121.31 -2.20664 -0.796528 0
M  V30 11810 C 1122.33 -1.19289 -1.26674 0
M  V30 11811 O 1123.5 -1.51889 -1.32256 0
M  V30 11812 C 1120.57 -2.82088 -2.01561 0
M  V30 11813 C 1119.63 -3.9861 -1.59401 0
M  V30 11814 C 1118.86 -4.57096 -2.75498 0
M  V30 11815 O 1119.08 -4.14462 -3.9189 0
M  V30 11816 O 1118.02 -5.47254 -2.50593 0
M  V30 11817 H 1121.84 -3.02376 -0.283282 0
M  V30 11818 H 1119.43 -1.49218 -0.0737927 0
M  V30 11819 H 1121.31 -3.21103 -2.72893 0
M  V30 11820 H 1119.99 -2.03385 -2.51826 0
M  V30 11821 H 1118.89 -3.64299 -0.850725 0
M  V30 11822 H 1120.23 -4.78853 -1.13845 0
M  V30 11823 N 1121.88 0.120221 -1.57141 0
M  V30 11824 C 1123.1 0.84637 -1.89344 0
M  V30 11825 C 1123.53 1.72702 -0.745365 0
M  V30 11826 O 1122.89 1.7873 0.304155 0
M  V30 11827 C 1122.93 1.65671 -3.20289 0
M  V30 11828 O 1122.04 2.76353 -3.06109 0
M  V30 11829 H 1121.38 0.234132 -0.621352 0
M  V30 11830 H 1123.91 0.102986 -2.04341 0
M  V30 11831 H 1123.92 2.04621 -3.52979 0
M  V30 11832 H 1122.59 1.01023 -4.03444 0
M  V30 11833 H 1121.17 2.40615 -2.84884 0
M  V30 11834 N 1123.36 1.52689 0.390367 0
M  V30 11835 C 1124.29 1.80338 1.48325 0
M  V30 11836 C 1125.27 0.655338 1.56969 0
M  V30 11837 O 1126.45 0.902792 1.7194 0
M  V30 11838 C 1123.58 1.97101 2.85952 0
M  V30 11839 C 1122.54 3.12783 2.92148 0
M  V30 11840 C 1121.86 3.14798 4.32211 0
M  V30 11841 C 1123.16 4.5188 2.61919 0
M  V30 11842 H 1124.86 2.71857 1.25437 0
M  V30 11843 H 1122.4 1.30813 0.601995 0
M  V30 11844 H 1124.36 2.15027 3.62411 0
M  V30 11845 H 1123.08 1.02271 3.10174 0
M  V30 11846 H 1121.74 2.94638 2.18137 0
M  V30 11847 H 1121.39 2.17653 4.53471 0
M  V30 11848 H 1121.09 3.92507 4.37278 0
M  V30 11849 H 1122.61 3.34877 5.10578 0
M  V30 11850 H 1124.02 4.70134 3.28096 0
M  V30 11851 H 1122.42 5.31647 2.78337 0
M  V30 11852 H 1123.49 4.58689 1.57266 0
M  V30 11853 N 1124.83 -0.648732 1.43629 0
M  V30 11854 C 1125.74 -1.79046 1.51591 0
M  V30 11855 C 1126.76 -1.69276 0.402697 0
M  V30 11856 O 1127.94 -1.90366 0.657484 0
M  V30 11857 C 1125 -3.15347 1.44073 0
M  V30 11858 C 1124.06 -3.3688 2.66102 0
M  V30 11859 C 1123.3 -4.66679 2.58933 0
M  V30 11860 O 1123.52 -5.46328 1.63956 0
M  V30 11861 O 1122.45 -4.9003 3.49506 0
M  V30 11862 H 1126.28 -1.75283 2.48011 0
M  V30 11863 H 1123.86 -0.807774 1.2568 0
M  V30 11864 H 1125.75 -3.96633 1.42339 0
M  V30 11865 H 1124.42 -3.19691 0.50789 0
M  V30 11866 H 1123.33 -2.55341 2.73407 0
M  V30 11867 H 1124.66 -3.37386 3.58373 0
M  V30 11868 N 1126.31 -1.30234 -0.887518 0
M  V30 11869 C 1127.56 -1.19086 -1.64153 0
M  V30 11870 C 1127.89 0.254428 -1.92526 0
M  V30 11871 O 1127.17 1.18233 -1.54438 0
M  V30 11872 C 1127.45 -2.01723 -2.98295 0
M  V30 11873 C 1127.3 -3.54458 -2.76911 0
M  V30 11874 C 1128.62 -1.85307 -3.99186 0
M  V30 11875 H 1125.74 -0.433967 -0.595686 0
M  V30 11876 H 1128.38 -1.59839 -1.0272 0
M  V30 11877 H 1126.53 -1.67096 -3.5073 0
M  V30 11878 H 1128.2 -3.99131 -2.31284 0
M  V30 11879 H 1126.45 -3.78768 -2.11464 0
M  V30 11880 H 1127.12 -4.07565 -3.72283 0
M  V30 11881 H 1129.59 -2.15575 -3.55903 0
M  V30 11882 H 1128.47 -2.45456 -4.90961 0
M  V30 11883 H 1128.73 -0.811528 -4.34588 0
M  V30 11884 N 1127.79 1.09952 -1.12909 0
M  V30 11885 C 1128.72 2.15689 -0.745217 0
M  V30 11886 C 1129.7 1.60409 0.266007 0
M  V30 11887 O 1130.89 1.8783 0.158783 0
M  V30 11888 C 1128.01 3.38541 -0.103846 0
M  V30 11889 C 1127.06 4.12529 -1.0827 0
M  V30 11890 S 1127.89 4.67442 -2.61262 0
M  V30 11891 C 1129.05 5.936 -1.9847 0
M  V30 11892 H 1129.28 2.47918 -1.64086 0
M  V30 11893 H 1126.81 1.21817 -0.948682 0
M  V30 11894 H 1128.77 4.09677 0.259816 0
M  V30 11895 H 1127.43 3.04541 0.768982 0
M  V30 11896 H 1126.63 5.00632 -0.581653 0
M  V30 11897 H 1126.23 3.47228 -1.38955 0
M  V30 11898 H 1128.52 6.64308 -1.33048 0
M  V30 11899 H 1129.46 6.48374 -2.84634 0
M  V30 11900 H 1129.87 5.45864 -1.43848 0
M  V30 11901 N 1129.27 0.921757 1.27833 0
M  V30 11902 C 1130.23 0.420978 2.25301 0
M  V30 11903 C 1131.23 -0.457158 1.54165 0
M  V30 11904 O 1132.42 -0.259079 1.72263 0
M  V30 11905 C 1129.55 -0.395501 3.38598 0
M  V30 11906 H 1130.75 1.28206 2.71115 0
M  V30 11907 H 1128.3 0.701893 1.39654 0
M  V30 11908 H 1129.03 -1.27565 2.98157 0
M  V30 11909 H 1128.82 0.234029 3.91401 0
M  V30 11910 H 1130.31 -0.736444 4.11055 0
M  V30 11911 N 1130.75 -1.41857 0.686609 0
M  V30 11912 C 1131.68 -2.29188 -0.0234289 0
M  V30 11913 C 1132.69 -1.44311 -0.753541 0
M  V30 11914 O 1133.88 -1.67908 -0.605734 0
M  V30 11915 C 1130.98 -3.21991 -1.05713 0
M  V30 11916 C 1130.15 -4.35581 -0.398453 0
M  V30 11917 C 1129.21 -5.09022 -1.33354 0
M  V30 11918 O 1128.24 -5.63126 -0.829334 0
M  V30 11919 N 1129.44 -5.15643 -2.66632 0
M  V30 11920 H 1132.21 -2.90766 0.726295 0
M  V30 11921 H 1129.77 -1.52912 0.531937 0
M  V30 11922 H 1131.76 -3.6799 -1.68421 0
M  V30 11923 H 1130.33 -2.61782 -1.70847 0
M  V30 11924 H 1129.55 -3.92079 0.408358 0
M  V30 11925 H 1130.84 -5.08765 0.0599239 0
M  V30 11926 H 1130.23 -4.73118 -3.10122 0
M  V30 11927 H 1128.79 -5.65248 -3.24558 0
M  V30 11928 N 1132.22 -0.430739 -1.51599 0
M  V30 11929 C 1133.13 0.390347 -2.3133 0
M  V30 11930 C 1134.15 1.03376 -1.39962 0
M  V30 11931 O 1135.33 1.03057 -1.73035 0
M  V30 11932 C 1132.39 1.48039 -3.13505 0
M  V30 11933 C 1131.45 0.857792 -4.20643 0
M  V30 11934 C 1130.69 1.89589 -4.9889 0
M  V30 11935 O 1130.91 3.11717 -4.77691 0
M  V30 11936 O 1129.84 1.49009 -5.83164 0
M  V30 11937 H 1133.67 -0.260358 -3.02582 0
M  V30 11938 H 1131.25 -0.193428 -1.48143 0
M  V30 11939 H 1133.14 2.11272 -3.64612 0
M  V30 11940 H 1131.81 2.1153 -2.45024 0
M  V30 11941 H 1130.72 0.187592 -3.73629 0
M  V30 11942 H 1132.05 0.266474 -4.91478 0
M  V30 11943 N 1133.7 1.56767 -0.161869 0
M  V30 11944 C 1134.67 2.16299 0.758104 0
M  V30 11945 C 1135.67 1.10859 1.16478 0
M  V30 11946 O 1136.86 1.36422 1.08327 0
M  V30 11947 C 1133.99 2.73819 2.03067 0
M  V30 11948 H 1135.18 2.98938 0.239992 0
M  V30 11949 H 1132.73 1.56054 0.0876532 0
M  V30 11950 H 1133.47 1.94887 2.59209 0
M  V30 11951 H 1133.25 3.50974 1.74813 0
M  V30 11952 H 1134.74 3.19638 2.68741 0
M  V30 11953 N 1135.18 -0.111886 1.57202 0
M  V30 11954 C 1136.41 -0.836317 1.89791 0
M  V30 11955 C 1136.83 -1.72304 0.754513 0
M  V30 11956 O 1136.19 -1.78889 -0.294672 0
M  V30 11957 C 1136.24 -1.63971 3.21164 0
M  V30 11958 O 1135.34 -2.74726 3.0757 0
M  V30 11959 H 1134.68 -0.230833 0.622585 0
M  V30 11960 H 1137.21 -0.0921478 2.04392 0
M  V30 11961 H 1137.22 -2.02746 3.54059 0
M  V30 11962 H 1135.9 -0.98882 4.03974 0
M  V30 11963 H 1134.47 -2.39101 2.86156 0
M  V30 11964 N 1136.66 -1.52894 -0.382264 0
M  V30 11965 C 1137.59 -1.81122 -1.47367 0
M  V30 11966 C 1138.57 -0.663653 -1.56619 0
M  V30 11967 O 1139.75 -0.911898 -1.71459 0
M  V30 11968 C 1136.88 -1.98615 -2.84902 0
M  V30 11969 C 1135.84 -3.14328 -2.90485 0
M  V30 11970 C 1135.16 -3.17086 -4.30535 0
M  V30 11971 C 1136.46 -4.53263 -2.59519 0
M  V30 11972 H 1138.16 -2.72518 -1.23993 0
M  V30 11973 H 1135.7 -1.3113 -0.595049 0
M  V30 11974 H 1137.66 -2.16946 -3.61265 0
M  V30 11975 H 1136.38 -1.03915 -3.09628 0
M  V30 11976 H 1135.04 -2.95791 -2.16572 0
M  V30 11977 H 1134.69 -2.20055 -4.52311 0
M  V30 11978 H 1134.39 -3.94821 -4.3519 0
M  V30 11979 H 1135.91 -3.3758 -5.08795 0
M  V30 11980 H 1137.33 -4.71867 -3.25598 0
M  V30 11981 H 1135.72 -5.33115 -2.75514 0
M  V30 11982 H 1136.79 -4.59516 -1.54831 0
M  V30 11983 N 1138.14 0.641106 -1.43971 0
M  V30 11984 C 1139.05 1.78239 -1.52538 0
M  V30 11985 C 1140.06 1.6906 -0.411668 0
M  V30 11986 O 1141.24 1.90014 -0.66757 0
M  V30 11987 C 1138.3 3.14579 -1.45743 0
M  V30 11988 C 1137.37 3.35464 -2.67885 0
M  V30 11989 C 1136.6 4.65299 -2.61404 0
M  V30 11990 O 1136.82 5.45451 -1.66851 0
M  V30 11991 O 1135.76 4.8817 -3.521 0
M  V30 11992 H 1139.58 1.73965 -2.48937 0
M  V30 11993 H 1137.17 0.801098 -1.26106 0
M  V30 11994 H 1139.05 3.95873 -1.4444 0
M  V30 11995 H 1137.72 3.19417 -0.524837 0
M  V30 11996 H 1136.63 2.53888 -2.74758 0
M  V30 11997 H 1137.96 3.35481 -3.60157 0
M  V30 11998 N 1139.62 1.30703 0.880598 0
M  V30 11999 C 1140.58 1.17429 1.96832 0
M  V30 12000 C 1141.58 0.104305 1.60461 0
M  V30 12001 O 1142.77 0.352758 1.70591 0
M  V30 12002 C 1139.9 0.800099 3.31378 0
M  V30 12003 H 1141.09 2.14069 2.10034 0
M  V30 12004 H 1138.65 1.14162 1.06755 0
M  V30 12005 H 1139.38 -0.165606 3.23877 0
M  V30 12006 H 1139.17 1.57341 3.59146 0
M  V30 12007 H 1140.66 0.730826 4.11155 0
M  V30 12008 N 1141.09 -1.09351 1.1349 0
M  V30 12009 C 1142 -2.19564 0.826366 0
M  V30 12010 C 1143.02 -1.72967 -0.189339 0
M  V30 12011 O 1144.2 -2.0139 -0.0202033 0
M  V30 12012 C 1141.26 -3.4542 0.297685 0
M  V30 12013 C 1140.32 -4.06694 1.37473 0
M  V30 12014 C 1139.55 -5.26542 0.871183 0
M  V30 12015 O 1139.78 -5.69657 -0.290958 0
M  V30 12016 O 1138.71 -5.78961 1.64584 0
M  V30 12017 H 1142.54 -2.4841 1.74718 0
M  V30 12018 H 1140.12 -1.18302 0.912414 0
M  V30 12019 H 1142 -4.21399 0.00829479 0
M  V30 12020 H 1140.68 -3.18175 -0.595536 0
M  V30 12021 H 1139.59 -3.32347 1.71745 0
M  V30 12022 H 1140.92 -4.38166 2.24212 0
M  V30 12023 N 1142.57 -0.928524 -1.27343 0
M  V30 12024 C 1143.5 -0.445627 -2.29208 0
M  V30 12025 C 1144.48 0.494508 -1.62753 0
M  V30 12026 O 1145.67 0.399082 -1.90055 0
M  V30 12027 C 1142.8 0.301684 -3.45987 0
M  V30 12028 C 1141.75 -0.550695 -4.24442 0
M  V30 12029 C 1141.08 0.325833 -5.33706 0
M  V30 12030 C 1142.38 -1.81559 -4.89728 0
M  V30 12031 H 1144.07 -1.29696 -2.69851 0
M  V30 12032 H 1141.62 -0.625085 -1.29725 0
M  V30 12033 H 1143.57 0.650455 -4.1635 0
M  V30 12034 H 1142.29 1.18705 -3.04264 0
M  V30 12035 H 1140.95 -0.882185 -3.55827 0
M  V30 12036 H 1140.6 1.21018 -4.88225 0
M  V30 12037 H 1140.3 -0.240994 -5.87106 0
M  V30 12038 H 1141.83 0.670156 -6.06911 0
M  V30 12039 H 1143.24 -1.53483 -5.52373 0
M  V30 12040 H 1141.64 -2.32598 -5.53189 0
M  V30 12041 H 1142.71 -2.53461 -4.13383 0
M  V30 12042 N 1144.05 1.41491 -0.694123 0
M  V30 12043 C 1144.96 2.34583 -0.0283414 0
M  V30 12044 C 1145.98 1.5615 0.767662 0
M  V30 12045 O 1147.15 1.88637 0.705556 0
M  V30 12046 C 1144.22 3.34876 0.897726 0
M  V30 12047 C 1143.28 4.29197 0.0940905 0
M  V30 12048 C 1142.51 5.24699 0.976051 0
M  V30 12049 O 1142.73 5.25613 2.21556 0
M  V30 12050 O 1141.67 6.00387 0.426503 0
M  V30 12051 H 1145.49 2.93092 -0.795656 0
M  V30 12052 H 1143.08 1.4232 -0.45445 0
M  V30 12053 H 1144.96 3.96438 1.4288 0
M  V30 12054 H 1143.64 2.78812 1.64456 0
M  V30 12055 H 1142.54 3.70988 -0.481552 0
M  V30 12056 H 1143.88 4.88355 -0.614045 0
M  V30 12057 N 1145.53 0.438773 1.51369 0
M  V30 12058 C 1146.49 -0.36032 2.2635 0
M  V30 12059 C 1147.49 -0.948465 1.29849 0
M  V30 12060 O 1148.68 -0.822692 1.53549 0
M  V30 12061 C 1145.81 -1.50994 3.05636 0
M  V30 12062 H 1147.01 0.296826 2.98427 0
M  V30 12063 H 1144.56 0.191978 1.55117 0
M  V30 12064 H 1145.29 -2.2031 2.37979 0
M  V30 12065 H 1145.08 -1.09437 3.76518 0
M  V30 12066 H 1146.57 -2.07447 3.6243 0
M  V30 12067 N 1147.01 -1.56678 0.170181 0
M  V30 12068 C 1148.25 -1.9714 -0.475767 0
M  V30 12069 C 1148.58 -1.05611 -1.62972 0
M  V30 12070 O 1147.86 -0.103017 -1.94227 0
M  V30 12071 C 1148.14 -3.47072 -0.959828 0
M  V30 12072 C 1148 -4.4938 0.194225 0
M  V30 12073 C 1149.31 -4.00071 -1.83387 0
M  V30 12074 H 1146.43 -0.716776 -0.171466 0
M  V30 12075 H 1149.08 -1.88266 0.256086 0
M  V30 12076 H 1147.23 -3.54766 -1.58346 0
M  V30 12077 H 1148.9 -4.53748 0.83128 0
M  V30 12078 H 1147.14 -4.25393 0.849893 0
M  V30 12079 H 1147.81 -5.51685 -0.186575 0
M  V30 12080 H 1150.29 -3.95002 -1.30815 0
M  V30 12081 H 1149.16 -5.05398 -2.14159 0
M  V30 12082 H 1149.42 -3.43819 -2.77923 0
M  V30 12083 N 1148.48 0.103547 -1.57259 0
M  V30 12084 C 1149.71 0.821158 -1.8958 0
M  V30 12085 C 1150.12 1.73213 -0.761184 0
M  V30 12086 O 1149.46 1.81611 0.27625 0
M  V30 12087 C 1149.53 1.69428 -3.17072 0
M  V30 12088 C 1149.19 0.956014 -4.46889 0
M  V30 12089 C 1150.19 0.289694 -5.19092 0
M  V30 12090 C 1147.87 0.932602 -4.93566 0
M  V30 12091 C 1149.87 -0.390164 -6.36205 0
M  V30 12092 C 1147.55 0.248954 -6.10593 0
M  V30 12093 C 1148.55 -0.411259 -6.81761 0
M  V30 12094 O 1148.24 -1.08396 -7.96559 0
M  V30 12095 H 1147.97 0.240508 -0.631769 0
M  V30 12096 H 1150.53 0.0877817 -2.05212 0
M  V30 12097 H 1148.76 2.46968 -2.97563 0
M  V30 12098 H 1150.44 2.28769 -3.3529 0
M  V30 12099 H 1151.21 0.299297 -4.84076 0
M  V30 12100 H 1147.09 1.43592 -4.38067 0
M  V30 12101 H 1150.63 -0.906057 -6.91691 0
M  V30 12102 H 1146.53 0.237168 -6.45064 0
M  V30 12103 H 1147.3 -0.990002 -8.12491 0
M  V30 12104 N 1149.96 1.53094 0.37415 0
M  V30 12105 C 1150.89 1.81901 1.46404 0
M  V30 12106 C 1151.87 0.671949 1.56265 0
M  V30 12107 O 1153.06 0.920978 1.70973 0
M  V30 12108 C 1150.19 2.00123 2.83845 0
M  V30 12109 C 1149.14 3.15864 2.88814 0
M  V30 12110 C 1148.47 3.19364 4.28848 0
M  V30 12111 C 1149.77 4.54633 2.57112 0
M  V30 12112 H 1151.46 2.73172 1.22546 0
M  V30 12113 H 1149.01 1.31444 0.588087 0
M  V30 12114 H 1150.96 2.18859 3.6011 0
M  V30 12115 H 1149.68 1.05555 3.09072 0
M  V30 12116 H 1148.34 2.96935 2.15 0
M  V30 12117 H 1147.99 2.2245 4.51137 0
M  V30 12118 H 1147.69 3.97123 4.3309 0
M  V30 12119 H 1149.22 3.40273 5.06997 0
M  V30 12120 H 1150.63 4.73587 3.23091 0
M  V30 12121 H 1149.03 5.34569 2.72683 0
M  V30 12122 H 1150.1 4.60331 1.52392 0
M  V30 12123 N 1151.44 -0.633461 1.44309 0
M  V30 12124 C 1152.67 -1.42033 1.50447 0
M  V30 12125 C 1153.08 -1.88362 0.128585 0
M  V30 12126 O 1152.44 -1.60695 -0.865071 0
M  V30 12127 C 1152.49 -2.6422 2.46719 0
M  V30 12128 O 1152.21 -2.19823 3.78958 0
M  V30 12129 C 1153.71 -3.57372 2.62298 0
M  V30 12130 H 1150.93 -0.435667 0.510329 0
M  V30 12131 H 1153.48 -0.774907 1.8925 0
M  V30 12132 H 1151.63 -3.24859 2.11058 0
M  V30 12133 H 1152.05 -2.99022 4.30913 0
M  V30 12134 H 1153.52 -4.39719 3.33693 0
M  V30 12135 H 1154 -4.06026 1.67449 0
M  V30 12136 H 1154.6 -3.02603 2.9885 0
M  V30 12137 N 1152.92 -1.31168 -0.873655 0
M  V30 12138 C 1153.85 -1.14325 -1.98651 0
M  V30 12139 C 1154.86 -0.0833421 -1.62587 0
M  V30 12140 O 1156.05 -0.330477 -1.75414 0
M  V30 12141 C 1153.15 -0.723747 -3.31082 0
M  V30 12142 C 1152.33 -1.86787 -3.95512 0
M  V30 12143 C 1151.38 -1.43503 -5.06254 0
M  V30 12144 O 1150.41 -2.14409 -5.27273 0
M  V30 12145 N 1151.61 -0.320362 -5.79615 0
M  V30 12146 H 1154.38 -2.10179 -2.13647 0
M  V30 12147 H 1151.94 -1.23454 -1.04742 0
M  V30 12148 H 1153.93 -0.416971 -4.02546 0
M  V30 12149 H 1152.5 0.143073 -3.12272 0
M  V30 12150 H 1151.72 -2.34216 -3.17075 0
M  V30 12151 H 1153.01 -2.6343 -4.35296 0
M  V30 12152 H 1152.41 0.270215 -5.65054 0
M  V30 12153 H 1150.96 -0.0731 -6.51759 0
M  V30 12154 N 1154.4 1.08748 -1.14068 0
M  V30 12155 C 1155.33 2.1544 -0.782199 0
M  V30 12156 C 1156.34 1.61575 0.199301 0
M  V30 12157 O 1157.53 1.78487 -0.0219044 0
M  V30 12158 C 1154.63 3.38611 -0.13983 0
M  V30 12159 C 1153.8 4.2187 -1.15518 0
M  V30 12160 C 1152.86 5.23451 -0.537216 0
M  V30 12161 O 1151.89 5.56424 -1.1992 0
M  V30 12162 N 1153.09 5.76413 0.6876 0
M  V30 12163 H 1155.86 2.46798 -1.70032 0
M  V30 12164 H 1153.42 1.24527 -1.03463 0
M  V30 12165 H 1155.41 4.03688 0.285999 0
M  V30 12166 H 1153.98 3.05084 0.681357 0
M  V30 12167 H 1153.2 3.52825 -1.75806 0
M  V30 12168 H 1154.49 4.74318 -1.84119 0
M  V30 12169 H 1153.88 5.51851 1.24406 0
M  V30 12170 H 1152.44 6.43189 1.05599 0
M  V30 12171 N 1155.87 0.935264 1.26849 0
M  V30 12172 C 1156.84 0.44485 2.24842 0
M  V30 12173 C 1157.84 -0.440781 1.54641 0
M  V30 12174 O 1159.03 -0.240793 1.72528 0
M  V30 12175 C 1156.16 -0.359566 3.38998 0
M  V30 12176 H 1157.35 1.31074 2.6974 0
M  V30 12177 H 1154.91 0.716665 1.38901 0
M  V30 12178 H 1155.64 -1.24396 2.99493 0
M  V30 12179 H 1155.43 0.275529 3.91131 0
M  V30 12180 H 1156.92 -0.692804 4.11813 0
M  V30 12181 N 1157.35 -1.41121 0.701616 0
M  V30 12182 C 1158.28 -2.292 0.000880842 0
M  V30 12183 C 1159.3 -1.45102 -0.738192 0
M  V30 12184 O 1160.49 -1.68541 -0.587891 0
M  V30 12185 C 1157.59 -3.23094 -1.02292 0
M  V30 12186 C 1156.76 -4.35979 -0.352231 0
M  V30 12187 C 1155.82 -5.10408 -1.27947 0
M  V30 12188 O 1154.84 -5.63974 -0.769561 0
M  V30 12189 N 1156.05 -5.18442 -2.61147 0
M  V30 12190 H 1158.81 -2.8998 0.757094 0
M  V30 12191 H 1156.37 -1.52339 0.548126 0
M  V30 12192 H 1158.36 -3.69755 -1.64509 0
M  V30 12193 H 1156.93 -2.6358 -1.68061 0
M  V30 12194 H 1156.15 -3.91624 0.44992 0
M  V30 12195 H 1157.44 -5.08673 0.113882 0
M  V30 12196 H 1156.84 -4.76381 -3.05087 0
M  V30 12197 H 1155.4 -5.68659 -3.18544 0
M  V30 12198 N 1158.83 -0.446794 -1.51134 0
M  V30 12199 C 1160.06 0.117242 -2.07068 0
M  V30 12200 C 1160.48 1.34877 -1.3111 0
M  V30 12201 O 1159.84 1.77856 -0.35172 0
M  V30 12202 C 1159.89 0.408616 -3.58277 0
M  V30 12203 O 1158.99 1.49345 -3.84408 0
M  V30 12204 H 1158.33 -0.00228458 -0.663996 0
M  V30 12205 H 1160.86 -0.63085 -1.94632 0
M  V30 12206 H 1160.87 0.656298 -4.02687 0
M  V30 12207 H 1159.55 -0.491444 -4.12986 0
M  V30 12208 H 1158.12 1.23499 -3.51856 0
M  V30 12209 N 1160.31 1.56586 -0.178487 0
M  V30 12210 C 1161.54 2.01475 0.470684 0
M  V30 12211 C 1161.95 1.0587 1.56323 0
M  V30 12212 O 1161.31 0.060749 1.82399 0
M  V30 12213 C 1161.36 3.46145 1.04238 0
M  V30 12214 O 1161.08 4.381 -0.0065582 0
M  V30 12215 C 1162.58 4.06471 1.76908 0
M  V30 12216 H 1159.8 0.660219 0.119801 0
M  V30 12217 H 1162.35 2.02542 -0.282322 0
M  V30 12218 H 1160.5 3.45831 1.74585 0
M  V30 12219 H 1160.91 5.22843 0.416554 0
M  V30 12220 H 1162.39 5.096 2.12161 0
M  V30 12221 H 1162.87 3.48974 2.66672 0
M  V30 12222 H 1163.47 4.10509 1.11186 0
M  V30 12223 N 1161.79 -0.095206 1.57312 0
M  V30 12224 C 1163.03 -0.797142 1.85715 0
M  V30 12225 C 1163.36 -1.79275 0.767171 0
M  V30 12226 O 1162.63 -1.94808 -0.206584 0
M  V30 12227 H 1161.21 -0.297382 0.685254 0
M  V30 12228 H 1163.87 -0.0768617 1.94748 0
M  V30 12229 H 1162.96 -1.32779 2.82447 0
M  V30 12230 N 1163.26 -1.53291 -0.366026 0
M  V30 12231 C 1164.49 -1.73665 -1.13381 0
M  V30 12232 C 1164.91 -0.464284 -1.8228 0
M  V30 12233 O 1164.27 0.581645 -1.71717 0
M  V30 12234 C 1164.32 -2.90225 -2.14013 0
M  V30 12235 O 1163.42 -2.58803 -3.21084 0
M  V30 12236 H 1162.77 -0.576762 -0.329 0
M  V30 12237 H 1165.3 -2.00174 -0.423287 0
M  V30 12238 H 1165.31 -3.16378 -2.57622 0
M  V30 12239 H 1163.98 -3.82518 -1.63257 0
M  V30 12240 H 1162.56 -2.43466 -2.82451 0
M  V30 12241 N 1164.74 0.6258 -1.44643 0
M  V30 12242 C 1165.71 1.71941 -1.51555 0
M  V30 12243 C 1166.71 1.55822 -0.396988 0
M  V30 12244 O 1167.9 1.61221 -0.65981 0
M  V30 12245 C 1165.03 3.11068 -1.39461 0
M  V30 12246 H 1166.22 1.67185 -2.48976 0
M  V30 12247 H 1163.77 0.839934 -1.31814 0
M  V30 12248 H 1164.51 3.21416 -0.431534 0
M  V30 12249 H 1164.29 3.24175 -2.20574 0
M  V30 12250 H 1165.78 3.90762 -1.4729 0
M  V30 12251 N 1166.22 1.31629 0.866686 0
M  V30 12252 C 1167.63 1.19347 1.43573 0
M  V30 12253 C 1167.98 -0.198765 1.95191 0
M  V30 12254 O 1167.11 -1.09674 1.86549 0
M  V30 12255 C 1167.7 2.16055 2.6097 0
M  V30 12256 C 1166.26 2.07697 3.13909 0
M  V30 12257 C 1165.41 2.05099 1.86627 0
M  V30 12258 H 1168.36 1.43633 0.674929 0
M  V30 12259 H 1168.38 1.75207 3.37761 0
M  V30 12260 H 1167.89 3.17375 2.23371 0
M  V30 12261 H 1165.99 1.09583 3.56121 0
M  V30 12262 H 1166.11 2.96958 3.75969 0
M  V30 12263 H 1164.47 1.50162 2.05727 0
M  V30 12264 H 1165.25 3.0818 1.51261 0
M  V30 12265 N 1167.7 -1.08142 1.14644 0
M  V30 12266 C 1168.95 -1.80849 0.917685 0
M  V30 12267 C 1169.28 -1.86123 -0.554249 0
M  V30 12268 O 1168.55 -1.33907 -1.41065 0
M  V30 12269 C 1168.84 -3.26325 1.52264 0
M  V30 12270 C 1168.69 -3.29244 3.06461 0
M  V30 12271 C 1170.01 -4.23375 1.20175 0
M  V30 12272 H 1167.13 -0.656559 0.334812 0
M  V30 12273 H 1169.77 -1.26595 1.41682 0
M  V30 12274 H 1167.92 -3.72656 1.09817 0
M  V30 12275 H 1169.59 -2.91216 3.57758 0
M  V30 12276 H 1167.83 -2.68438 3.40769 0
M  V30 12277 H 1168.51 -4.31785 3.43897 0
M  V30 12278 H 1170.98 -3.85394 1.56877 0
M  V30 12279 H 1169.86 -5.23472 1.65132 0
M  V30 12280 H 1170.12 -4.41944 0.117474 0
M  V30 12281 N 1169.18 -0.941978 -1.26351 0
M  V30 12282 C 1170.14 -0.456768 -2.24602 0
M  V30 12283 C 1171.14 0.432574 -1.54872 0
M  V30 12284 O 1172.33 0.23164 -1.72653 0
M  V30 12285 C 1169.46 0.341583 -3.39184 0
M  V30 12286 H 1170.66 -1.32503 -2.69041 0
M  V30 12287 H 1168.21 -0.724021 -1.38519 0
M  V30 12288 H 1168.94 1.22806 -3.00149 0
M  V30 12289 H 1168.73 -0.296268 -3.90979 0
M  V30 12290 H 1170.22 0.670955 -4.12175 0
M  V30 12291 N 1170.66 1.40747 -0.709091 0
M  V30 12292 C 1172.07 1.83955 -0.318968 0
M  V30 12293 C 1172.42 1.59304 1.14527 0
M  V30 12294 O 1171.54 1.07052 1.88066 0
M  V30 12295 C 1172.14 3.33934 -0.572147 0
M  V30 12296 C 1170.7 3.75661 -0.235802 0
M  V30 12297 C 1169.84 2.64024 -0.847743 0
M  V30 12298 H 1172.79 1.30107 -0.908734 0
M  V30 12299 H 1172.82 3.80143 0.164752 0
M  V30 12300 H 1172.33 3.51844 -1.63791 0
M  V30 12301 H 1170.43 3.63348 0.825164 0
M  V30 12302 H 1170.54 4.73955 -0.700263 0
M  V30 12303 H 1168.91 2.53197 -0.276283 0
M  V30 12304 H 1169.69 2.84748 -1.91765 0
M  V30 12305 N 1172.13 0.454803 1.50895 0
M  V30 12306 C 1173.41 -0.166559 1.9489 0
M  V30 12307 C 1173.79 -1.58492 1.3944 0
M  V30 12308 O 1173.14 -2.20788 0.588622 0
M  V30 12309 C 1173.35 -0.126506 3.48771 0
M  V30 12310 C 1174.7 -0.32347 4.23366 0
M  V30 12311 O 1175.72 -0.203835 3.55616 0
M  V30 12312 O 1174.58 -0.563292 5.43589 0
M  V30 12313 H 1171.67 -0.120523 0.818171 0
M  V30 12314 H 1174.22 0.514037 1.61727 0
M  V30 12315 H 1172.99 0.864407 3.81633 0
M  V30 12316 H 1172.61 -0.849264 3.88424 0
M  V30 12317 N 1173.61 -1.56489 0.186789 0
M  V30 12318 C 1174.52 -2.22304 -0.749543 0
M  V30 12319 C 1175.54 -1.21949 -1.24115 0
M  V30 12320 O 1176.71 -1.5466 -1.29005 0
M  V30 12321 C 1173.78 -2.863 -1.95533 0
M  V30 12322 C 1172.84 -4.01901 -1.5091 0
M  V30 12323 C 1172.07 -4.62837 -2.6574 0
M  V30 12324 O 1172.3 -4.22681 -3.8301 0
M  V30 12325 O 1171.23 -5.52446 -2.38929 0
M  V30 12326 H 1175.06 -3.02909 -0.21908 0
M  V30 12327 H 1172.64 -1.49341 -0.0421249 0
M  V30 12328 H 1174.52 -3.2682 -2.6602 0
M  V30 12329 H 1173.2 -2.08681 -2.47455 0
M  V30 12330 H 1172.1 -3.66021 -0.773261 0
M  V30 12331 H 1173.44 -4.8116 -1.03663 0
M  V30 12332 N 1175.09 0.086862 -1.5736 0
M  V30 12333 C 1176.34 0.78884 -1.86504 0
M  V30 12334 C 1176.66 1.78329 -0.77646 0
M  V30 12335 O 1175.92 1.94354 0.229122 0
M  V30 12336 C 1176.22 1.54537 -3.22263 0
M  V30 12337 C 1175.88 0.692284 -4.45554 0
M  V30 12338 C 1174.55 0.45714 -4.79024 0
M  V30 12339 C 1176.9 0.0997695 -5.21105 0
M  V30 12340 C 1174.23 -0.380247 -5.85466 0
M  V30 12341 C 1176.58 -0.724986 -6.28432 0
M  V30 12342 C 1175.24 -0.970144 -6.60412 0
M  V30 12343 H 1174.51 0.288657 -0.682465 0
M  V30 12344 H 1177.16 0.050059 -1.91435 0
M  V30 12345 H 1175.46 2.35594 -3.13053 0
M  V30 12346 H 1177.16 2.09305 -3.42042 0
M  V30 12347 H 1173.75 0.885675 -4.19349 0
M  V30 12348 H 1177.94 0.268583 -4.95573 0
M  V30 12349 H 1173.19 -0.579084 -6.08651 0
M  V30 12350 H 1177.37 -1.19093 -6.86141 0
M  V30 12351 H 1174.99 -1.6208 -7.42721 0
M  V30 12352 N 1176.57 1.53483 0.357892 0
M  V30 12353 C 1177.79 1.74264 1.12458 0
M  V30 12354 C 1178.22 0.473944 1.82031 0
M  V30 12355 O 1177.58 -0.57253 1.72023 0
M  V30 12356 C 1177.62 2.91356 2.12471 0
M  V30 12357 O 1176.73 2.60502 3.19707 0
M  V30 12358 H 1176.07 0.578499 0.325937 0
M  V30 12359 H 1178.6 2.00395 0.412666 0
M  V30 12360 H 1178.61 3.1774 2.5594 0
M  V30 12361 H 1177.28 3.83378 1.61226 0
M  V30 12362 H 1175.86 2.44961 2.81156 0
M  V30 12363 N 1178.05 -0.61812 1.44973 0
M  V30 12364 C 1179.27 -1.40921 1.52171 0
M  V30 12365 C 1179.7 -1.87487 0.151755 0
M  V30 12366 O 1179.05 -1.59518 -0.861606 0
M  V30 12367 C 1179.1 -2.59689 2.50188 0
M  V30 12368 O 1178.21 -3.59967 2.0124 0
M  V30 12369 H 1177.55 -0.421138 0.51336 0
M  V30 12370 H 1180.08 -0.753258 1.90229 0
M  V30 12371 H 1180.09 -3.07069 2.6865 0
M  V30 12372 H 1178.76 -2.25144 3.4969 0
M  V30 12373 H 1177.34 -3.19308 1.92605 0
M  V30 12374 N 1179.52 -1.32087 -0.859693 0
M  V30 12375 C 1180.94 -1.10968 -1.14709 0
M  V30 12376 C 1181.14 0.113139 -2.01182 0
M  V30 12377 O 1180.2 0.799499 -2.39508 0
M  V30 12378 C 1181.51 -2.38657 -1.8293 0
M  V30 12379 C 1183.06 -2.44366 -1.95587 0
M  V30 12380 C 1183.53 -3.71963 -2.67222 0
M  V30 12381 N 1185.02 -3.72916 -2.7475 0
M  V30 12382 C 1185.76 -4.68346 -3.30816 0
M  V30 12383 N 1185.25 -5.74139 -3.87732 0
M  V30 12384 N 1187.05 -4.55851 -3.28872 0
M  V30 12385 H 1179.2 -2.10497 -0.283711 0
M  V30 12386 H 1181.46 -0.929108 -0.188315 0
M  V30 12387 H 1181.17 -3.2803 -1.26844 0
M  V30 12388 H 1181.04 -2.49236 -2.83128 0
M  V30 12389 H 1183.43 -1.55456 -2.50833 0
M  V30 12390 H 1183.51 -2.37744 -0.944001 0
M  V30 12391 H 1183.15 -4.61245 -2.1264 0
M  V30 12392 H 1183.08 -3.75855 -3.68837 0
M  V30 12393 H 1185.57 -2.96447 -2.34367 0
M  V30 12394 H 1185.89 -6.43021 -4.28654 0
M  V30 12395 H 1184.23 -5.779 -3.86078 0
M  V30 12396 H 1187.42 -3.72371 -2.83651 0
M  V30 12397 H 1187.6 -5.30398 -3.72266 0
M  V30 12398 N 1181 1.07532 -1.15215 0
M  V30 12399 C 1181.91 2.18222 -0.861192 0
M  V30 12400 C 1182.93 1.73246 0.161798 0
M  V30 12401 O 1184.1 2.01397 -0.0118386 0
M  V30 12402 C 1181.17 3.44902 -0.352601 0
M  V30 12403 C 1180.23 4.04455 -1.43926 0
M  V30 12404 C 1179.46 5.25089 -0.954841 0
M  V30 12405 O 1179.69 5.70048 0.200294 0
M  V30 12406 O 1178.62 5.76269 -1.73774 0
M  V30 12407 H 1182.45 2.45599 -1.78648 0
M  V30 12408 H 1180.03 1.16835 -0.93112 0
M  V30 12409 H 1181.91 4.21333 -0.0753347 0
M  V30 12410 H 1180.59 3.19082 0.544841 0
M  V30 12411 H 1179.49 3.29573 -1.7701 0
M  V30 12412 H 1180.83 4.34544 -2.31155 0
M  V30 12413 N 1182.48 0.948665 1.2585 0
M  V30 12414 C 1183.39 0.470525 2.29833 0
M  V30 12415 C 1184.41 -0.45919 1.67832 0
M  V30 12416 O 1185.58 -0.336893 1.98562 0
M  V30 12417 C 1182.65 -0.249635 3.458 0
M  V30 12418 C 1181.71 0.717559 4.23261 0
M  V30 12419 C 1180.94 0.0316724 5.33691 0
M  V30 12420 O 1181.16 -1.18384 5.5798 0
M  V30 12421 O 1180.1 0.71418 5.97648 0
M  V30 12422 H 1183.92 1.33447 2.72811 0
M  V30 12423 H 1181.51 0.714864 1.31187 0
M  V30 12424 H 1183.39 -0.654993 4.16279 0
M  V30 12425 H 1182.07 -1.08885 3.04837 0
M  V30 12426 H 1180.97 1.17301 3.55234 0
M  V30 12427 H 1182.31 1.52461 4.67992 0
M  V30 12428 N 1183.96 -1.40369 0.716545 0
M  V30 12429 C 1185.21 -2.00869 0.256466 0
M  V30 12430 C 1185.53 -1.56816 -1.15061 0
M  V30 12431 O 1184.79 -0.779696 -1.79497 0
M  V30 12432 C 1185.09 -3.56257 0.285583 0
M  V30 12433 C 1184.75 -4.19897 1.64309 0
M  V30 12434 C 1183.42 -4.36994 2.01469 0
M  V30 12435 C 1185.77 -4.55385 2.53524 0
M  V30 12436 C 1183.1 -4.86862 3.27387 0
M  V30 12437 C 1185.45 -5.06653 3.78795 0
M  V30 12438 C 1184.11 -5.21959 4.16071 0
M  V30 12439 H 1183.38 -0.735033 0.0938475 0
M  V30 12440 H 1186.03 -1.67966 0.919765 0
M  V30 12441 H 1184.33 -3.89075 -0.461287 0
M  V30 12442 H 1186.03 -4.00903 -0.0882496 0
M  V30 12443 H 1182.62 -4.06978 1.34413 0
M  V30 12444 H 1186.8 -4.41811 2.2609 0
M  V30 12445 H 1182.06 -4.96897 3.56235 0
M  V30 12446 H 1186.23 -5.33089 4.48095 0
M  V30 12447 H 1183.86 -5.60362 5.1371 0
M  V30 12448 N 1185.44 -0.462799 -1.50652 0
M  V30 12449 C 1186.68 0.0951853 -2.02576 0
M  V30 12450 C 1187.02 1.40113 -1.34469 0
M  V30 12451 O 1186.29 1.88793 -0.467702 0
M  V30 12452 C 1186.57 0.287603 -3.5895 0
M  V30 12453 C 1186.43 -1.03878 -4.37641 0
M  V30 12454 C 1187.75 1.04593 -4.27491 0
M  V30 12455 H 1184.86 0.0331191 -0.736255 0
M  V30 12456 H 1187.51 -0.606772 -1.80051 0
M  V30 12457 H 1185.66 0.885514 -3.78274 0
M  V30 12458 H 1187.33 -1.67263 -4.29908 0
M  V30 12459 H 1185.57 -1.6374 -4.01711 0
M  V30 12460 H 1186.24 -0.857889 -5.45293 0
M  V30 12461 H 1188.72 0.539213 -4.12591 0
M  V30 12462 H 1187.59 1.14935 -5.36732 0
M  V30 12463 H 1187.86 2.08045 -3.90089 0
M  V30 12464 N 1186.91 1.56388 -0.195085 0
M  V30 12465 C 1188.16 1.97872 0.444344 0
M  V30 12466 C 1188.49 1.0819 1.61271 0
M  V30 12467 O 1187.77 0.133904 1.94039 0
M  V30 12468 C 1188.05 3.48556 0.90449 0
M  V30 12469 C 1187.9 4.49015 -0.265693 0
M  V30 12470 C 1189.22 4.02938 1.76999 0
M  V30 12471 H 1186.34 0.719413 0.160041 0
M  V30 12472 H 1188.98 1.87835 -0.286005 0
M  V30 12473 H 1187.13 3.5724 1.52682 0
M  V30 12474 H 1188.81 4.52368 -0.903363 0
M  V30 12475 H 1187.05 4.23987 -0.917462 0
M  V30 12476 H 1187.72 5.51912 0.0987834 0
M  V30 12477 H 1190.2 3.97033 1.24514 0
M  V30 12478 H 1189.07 5.08741 2.06092 0
M  V30 12479 H 1189.33 3.48197 2.72418 0
M  V30 12480 N 1188.39 -0.0785156 1.57404 0
M  V30 12481 C 1189.36 -1.07835 2.02248 0
M  V30 12482 C 1190.36 -1.31987 0.918475 0
M  V30 12483 O 1191.55 -1.27821 1.18353 0
M  V30 12484 C 1188.68 -2.42361 2.39737 0
M  V30 12485 H 1189.87 -0.691995 2.91807 0
M  V30 12486 H 1187.42 -0.32405 1.52904 0
M  V30 12487 H 1188.16 -2.85841 1.53183 0
M  V30 12488 H 1187.94 -2.26174 3.20293 0
M  V30 12489 H 1189.43 -3.14241 2.75031 0
M  V30 12490 N 1189.87 -1.5367 -0.349747 0
M  V30 12491 C 1191.12 -1.7087 -1.0923 0
M  V30 12492 C 1191.45 -0.467299 -1.88494 0
M  V30 12493 O 1190.72 0.535619 -1.8698 0
M  V30 12494 C 1191.01 -2.9684 -2.03858 0
M  V30 12495 C 1190.86 -4.31174 -1.28097 0
M  V30 12496 C 1192.18 -3.18459 -3.03763 0
M  V30 12497 H 1189.3 -0.621757 -0.395711 0
M  V30 12498 H 1191.94 -1.86333 -0.371481 0
M  V30 12499 H 1190.09 -2.83788 -2.65323 0
M  V30 12500 H 1191.76 -4.56066 -0.692933 0
M  V30 12501 H 1190.01 -4.29866 -0.582924 0
M  V30 12502 H 1190.68 -5.15482 -1.9744 0
M  V30 12503 H 1193.15 -3.30801 -2.52409 0
M  V30 12504 H 1192.03 -4.08006 -3.67182 0
M  V30 12505 H 1192.29 -2.34467 -3.74803 0
M  V30 12506 N 1191.35 0.610423 -1.45298 0
M  V30 12507 C 1192.57 1.40112 -1.52917 0
M  V30 12508 C 1193 1.87404 -0.161696 0
M  V30 12509 O 1192.36 1.59973 0.853135 0
M  V30 12510 C 1192.4 2.58359 -2.51561 0
M  V30 12511 O 1191.51 3.58895 -2.03146 0
M  V30 12512 H 1190.85 0.41841 -0.515586 0
M  V30 12513 H 1193.38 0.743159 -1.90626 0
M  V30 12514 H 1193.39 3.0564 -2.70275 0
M  V30 12515 H 1192.06 2.23286 -3.50879 0
M  V30 12516 H 1190.64 3.18282 -1.94296 0
M  V30 12517 N 1192.83 1.32541 0.852676 0
M  V30 12518 C 1193.78 1.18224 1.94954 0
M  V30 12519 C 1194.76 0.0886514 1.60656 0
M  V30 12520 O 1195.95 0.315359 1.74168 0
M  V30 12521 C 1193.08 0.909484 3.31034 0
M  V30 12522 C 1192.17 2.04486 3.71546 0
M  V30 12523 N 1192.56 3.29362 3.83868 0
M  V30 12524 C 1190.86 1.94848 4.01186 0
M  V30 12525 C 1191.56 4.0374 4.18771 0
M  V30 12526 N 1190.53 3.32054 4.30396 0
M  V30 12527 H 1194.34 2.12893 2.02617 0
M  V30 12528 H 1191.85 1.24349 1.04456 0
M  V30 12529 H 1193.85 0.787865 4.09388 0
M  V30 12530 H 1192.51 -0.0288163 3.24687 0
M  V30 12531 H 1193.52 3.64274 3.68137 0
M  V30 12532 H 1190.19 1.08591 4.0313 0
M  V30 12533 H 1191.58 5.11434 4.35757 0
M  V30 12534 N 1194.3 -1.0692 1.15784 0
M  V30 12535 C 1195.53 -1.83849 0.959903 0
M  V30 12536 C 1195.95 -1.8169 -0.486873 0
M  V30 12537 O 1195.31 -1.21305 -1.34739 0
M  V30 12538 C 1195.36 -3.28642 1.48414 0
M  V30 12539 O 1194.46 -4.0665 0.686249 0
M  V30 12540 H 1193.81 -0.569115 0.342059 0
M  V30 12541 H 1196.34 -1.34851 1.53871 0
M  V30 12542 H 1196.35 -3.7947 1.49888 0
M  V30 12543 H 1195.02 -3.29529 2.53739 0
M  V30 12544 H 1193.6 -3.65453 0.741501 0
M  V30 12545 N 1195.78 -0.955326 -1.25345 0
M  V30 12546 C 1197.01 -0.627233 -1.97688 0
M  V30 12547 C 1197.43 0.793973 -1.70522 0
M  V30 12548 O 1196.79 1.537 -0.961556 0
M  V30 12549 C 1196.84 -0.892969 -3.49369 0
M  V30 12550 O 1195.94 0.0278871 -4.12391 0
M  V30 12551 H 1195.28 -0.238402 -0.619726 0
M  V30 12552 H 1197.81 -1.28211 -1.59446 0
M  V30 12553 H 1197.82 -0.819517 -3.99685 0
M  V30 12554 H 1196.5 -1.92879 -3.6847 0
M  V30 12555 H 1195.08 -0.0978295 -3.72772 0
M  V30 12556 N 1197.26 1.39987 -0.723979 0
M  V30 12557 C 1198.67 1.83606 -0.338461 0
M  V30 12558 C 1199.02 1.6051 1.12831 0
M  V30 12559 O 1198.15 1.09041 1.8692 0
M  V30 12560 C 1198.74 3.33308 -0.607533 0
M  V30 12561 C 1197.3 3.75389 -0.275632 0
M  V30 12562 C 1196.45 2.6311 -0.875699 0
M  V30 12563 H 1199.4 1.29135 -0.922483 0
M  V30 12564 H 1199.42 3.80297 0.124424 0
M  V30 12565 H 1198.93 3.50087 -1.67514 0
M  V30 12566 H 1197.03 3.64203 0.786579 0
M  V30 12567 H 1197.15 4.73185 -0.750492 0
M  V30 12568 H 1195.51 2.5289 -0.303122 0
M  V30 12569 H 1196.29 2.82698 -1.94774 0
M  V30 12570 N 1198.74 0.470782 1.50404 0
M  V30 12571 C 1199.96 -0.084284 2.07229 0
M  V30 12572 C 1200.39 -1.32774 1.33239 0
M  V30 12573 O 1199.75 -1.77274 0.379971 0
M  V30 12574 C 1199.8 -0.351565 3.58882 0
M  V30 12575 O 1198.9 -1.43211 3.86736 0
M  V30 12576 H 1198.24 0.0128479 0.663876 0
M  V30 12577 H 1200.77 0.661735 1.93603 0
M  V30 12578 H 1200.78 -0.592151 4.0368 0
M  V30 12579 H 1199.46 0.557084 4.12152 0
M  V30 12580 H 1198.03 -1.17886 3.53776 0
M  V30 12581 N 1200.22 -1.56282 0.203376 0
M  V30 12582 C 1201.18 -2.18233 -0.700489 0
M  V30 12583 C 1202.18 -1.13908 -1.13497 0
M  V30 12584 O 1203.37 -1.39246 -1.04672 0
M  V30 12585 C 1200.5 -2.79107 -1.95735 0
M  V30 12586 H 1201.7 -2.99469 -0.160649 0
M  V30 12587 H 1199.25 -1.56232 -0.0462475 0
M  V30 12588 H 1199.98 -2.01691 -2.53951 0
M  V30 12589 H 1199.77 -3.55486 -1.65446 0
M  V30 12590 H 1201.26 -3.2665 -2.60172 0
M  V30 12591 N 1201.7 0.070167 -1.57444 0
M  V30 12592 C 1202.63 1.08351 -2.06839 0
M  V30 12593 C 1203.61 1.40269 -0.962224 0
M  V30 12594 O 1204.79 1.49867 -1.23505 0
M  V30 12595 C 1201.92 2.39649 -2.51368 0
M  V30 12596 C 1200.88 2.22079 -3.65875 0
M  V30 12597 C 1200.2 3.58776 -3.96464 0
M  V30 12598 C 1201.5 1.64069 -4.95862 0
M  V30 12599 H 1203.2 0.672465 -2.9175 0
M  V30 12600 H 1200.74 0.322027 -1.40353 0
M  V30 12601 H 1202.69 3.10833 -2.84537 0
M  V30 12602 H 1201.42 2.82736 -1.63487 0
M  V30 12603 H 1200.08 1.53337 -3.32992 0
M  V30 12604 H 1199.73 3.99436 -3.05712 0
M  V30 12605 H 1199.43 3.47859 -4.7357 0
M  V30 12606 H 1200.95 4.31387 -4.32131 0
M  V30 12607 H 1202.36 2.2512 -5.27251 0
M  V30 12608 H 1200.76 1.63843 -5.773 0
M  V30 12609 H 1201.83 0.60232 -4.81145 0
M  V30 12610 N 1203.17 1.53854 0.341593 0
M  V30 12611 C 1204.14 1.8128 1.40251 0
M  V30 12612 C 1205.14 0.683915 1.45531 0
M  V30 12613 O 1206.33 0.952202 1.45872 0
M  V30 12614 C 1203.46 1.95658 2.79161 0
M  V30 12615 H 1204.65 2.76053 1.17195 0
M  V30 12616 H 1202.2 1.45296 0.57609 0
M  V30 12617 H 1202.94 1.03034 3.07497 0
M  V30 12618 H 1202.72 2.77788 2.76724 0
M  V30 12619 H 1204.21 2.18387 3.55945 0
M  V30 12620 N 1204.65 -0.602709 1.4562 0
M  V30 12621 C 1205.58 -1.72374 1.5751 0
M  V30 12622 C 1206.56 -1.64669 0.426389 0
M  V30 12623 O 1207.75 -1.82994 0.650143 0
M  V30 12624 C 1204.88 -3.10987 1.5461 0
M  V30 12625 C 1203.83 -3.33507 2.68248 0
M  V30 12626 C 1203.16 -4.72443 2.50403 0
M  V30 12627 C 1204.46 -3.23285 4.10224 0
M  V30 12628 H 1206.15 -1.62679 2.51348 0
M  V30 12629 H 1203.7 -0.781217 1.20967 0
M  V30 12630 H 1205.65 -3.89214 1.61525 0
M  V30 12631 H 1204.37 -3.21533 0.573049 0
M  V30 12632 H 1203.03 -2.57672 2.60769 0
M  V30 12633 H 1202.68 -4.79729 1.51226 0
M  V30 12634 H 1202.38 -4.88466 3.26611 0
M  V30 12635 H 1203.91 -5.52864 2.59179 0
M  V30 12636 H 1205.32 -3.91381 4.1892 0
M  V30 12637 H 1203.72 -3.50837 4.86861 0
M  V30 12638 H 1204.79 -2.20652 4.31788 0
M  V30 12639 N 1206.13 -1.32992 -0.845635 0
M  V30 12640 C 1207.06 -1.18513 -1.96182 0
M  V30 12641 C 1208.07 -0.11781 -1.62373 0
M  V30 12642 O 1209.26 -0.36761 -1.74674 0
M  V30 12643 C 1206.36 -0.793812 -3.29472 0
M  V30 12644 C 1205.54 -1.95134 -3.91461 0
M  V30 12645 C 1204.6 -1.54209 -5.03096 0
M  V30 12646 O 1203.62 -2.25545 -5.22607 0
M  V30 12647 N 1204.82 -0.443235 -5.78805 0
M  V30 12648 H 1207.59 -2.14663 -2.09141 0
M  V30 12649 H 1205.15 -1.25648 -1.02099 0
M  V30 12650 H 1207.14 -0.502263 -4.01571 0
M  V30 12651 H 1205.71 0.0768031 -3.12506 0
M  V30 12652 H 1204.93 -2.40889 -3.12035 0
M  V30 12653 H 1206.22 -2.72604 -4.2961 0
M  V30 12654 H 1205.62 0.150298 -5.655 0
M  V30 12655 H 1204.17 -0.211331 -6.51457 0
M  V30 12656 N 1207.61 1.06304 -1.1635 0
M  V30 12657 C 1208.83 1.83338 -0.969639 0
M  V30 12658 C 1209.26 1.81945 0.477231 0
M  V30 12659 O 1208.62 1.22018 1.34094 0
M  V30 12660 C 1208.66 3.2785 -1.50155 0
M  V30 12661 O 1207.77 4.06281 -0.707805 0
M  V30 12662 H 1207.11 0.567293 -0.345072 0
M  V30 12663 H 1209.64 1.34033 -1.54584 0
M  V30 12664 H 1209.65 3.7867 -1.51898 0
M  V30 12665 H 1208.32 3.28179 -2.55483 0
M  V30 12666 H 1206.9 3.65055 -0.760872 0
M  V30 12667 N 1209.09 0.96196 1.24836 0
M  V30 12668 C 1210.5 0.660388 1.7463 0
M  V30 12669 C 1210.85 -0.824064 1.78055 0
M  V30 12670 O 1209.97 -1.64485 1.40619 0
M  V30 12671 C 1210.57 1.19205 3.17137 0
M  V30 12672 C 1209.13 0.940493 3.64461 0
M  V30 12673 C 1208.27 1.33076 2.43282 0
M  V30 12674 H 1211.22 1.13794 1.1062 0
M  V30 12675 H 1211.25 0.555595 3.76422 0
M  V30 12676 H 1210.76 2.27247 3.14612 0
M  V30 12677 H 1208.86 -0.124645 3.72391 0
M  V30 12678 H 1208.97 1.5821 4.52224 0
M  V30 12679 H 1207.34 0.749139 2.43434 0
M  V30 12680 H 1208.12 2.42055 2.43442 0
M  V30 12681 N 1210.56 -1.39601 0.731392 0
M  V30 12682 C 1211.49 -2.33268 0.1041 0
M  V30 12683 C 1212.47 -1.53724 -0.728219 0
M  V30 12684 O 1213.66 -1.82131 -0.673933 0
M  V30 12685 C 1210.79 -3.37802 -0.806646 0
M  V30 12686 C 1209.74 -4.27928 -0.0787588 0
M  V30 12687 C 1209.07 -5.23131 -1.10628 0
M  V30 12688 C 1210.37 -5.11086 1.07651 0
M  V30 12689 H 1212.06 -2.85975 0.886496 0
M  V30 12690 H 1209.61 -1.375 0.427746 0
M  V30 12691 H 1211.56 -4.02278 -1.25499 0
M  V30 12692 H 1210.29 -2.83527 -1.62112 0
M  V30 12693 H 1208.95 -3.64926 0.349926 0
M  V30 12694 H 1208.59 -4.65152 -1.91422 0
M  V30 12695 H 1208.29 -5.84277 -0.624043 0
M  V30 12696 H 1209.82 -5.90483 -1.5544 0
M  V30 12697 H 1211.23 -5.68927 0.706781 0
M  V30 12698 H 1209.63 -5.81356 1.48814 0
M  V30 12699 H 1210.7 -4.46131 1.89988 0
M  V30 12700 N 1212.04 -0.478751 -1.50152 0
M  V30 12701 C 1212.97 0.301182 -2.31549 0
M  V30 12702 C 1213.95 0.983276 -1.38801 0
M  V30 12703 O 1215.14 0.978973 -1.67719 0
M  V30 12704 C 1212.27 1.3791 -3.18745 0
M  V30 12705 C 1211.22 0.818175 -4.20107 0
M  V30 12706 C 1210.55 1.99496 -4.9609 0
M  V30 12707 C 1211.85 -0.17574 -5.22004 0
M  V30 12708 H 1213.54 -0.378188 -2.97002 0
M  V30 12709 H 1211.09 -0.183323 -1.42828 0
M  V30 12710 H 1213.04 1.93227 -3.74488 0
M  V30 12711 H 1211.77 2.08735 -2.51192 0
M  V30 12712 H 1210.42 0.286924 -3.65475 0
M  V30 12713 H 1210.07 2.69036 -4.25004 0
M  V30 12714 H 1209.77 1.62582 -5.6466 0
M  V30 12715 H 1211.3 2.55288 -5.54671 0
M  V30 12716 H 1212.71 0.288513 -5.72574 0
M  V30 12717 H 1211.11 -0.459549 -5.98338 0
M  V30 12718 H 1212.18 -1.09911 -4.72279 0
M  V30 12719 N 1213.52 1.56172 -0.211661 0
M  V30 12720 C 1214.93 1.84307 0.297982 0
M  V30 12721 C 1215.28 1.1328 1.60194 0
M  V30 12722 O 1214.41 0.399137 2.12687 0
M  V30 12723 C 1215 3.34348 0.547428 0
M  V30 12724 C 1213.56 3.62835 1.0014 0
M  V30 12725 C 1212.71 2.77237 0.0590326 0
M  V30 12726 H 1215.66 1.5262 -0.435083 0
M  V30 12727 H 1215.68 3.54018 1.39469 0
M  V30 12728 H 1215.19 3.86015 -0.401778 0
M  V30 12729 H 1213.29 3.16616 1.96431 0
M  V30 12730 H 1213.41 4.70899 0.882653 0
M  V30 12731 H 1211.77 2.48377 0.564005 0
M  V30 12732 H 1212.55 3.31699 -0.884913 0
M  V30 12733 N 1215 -0.0618163 1.57479 0
M  V30 12734 C 1215.96 -1.05684 2.0338 0
M  V30 12735 C 1216.96 -1.31006 0.932423 0
M  V30 12736 O 1218.15 -1.26559 1.19702 0
M  V30 12737 C 1215.28 -2.39805 2.42294 0
M  V30 12738 H 1216.48 -0.661006 2.92525 0
M  V30 12739 H 1214.03 -0.307814 1.53239 0
M  V30 12740 H 1214.76 -2.84201 1.56207 0
M  V30 12741 H 1214.55 -2.22764 3.22674 0
M  V30 12742 H 1216.04 -3.11307 2.78349 0
M  V30 12743 N 1216.48 -1.54033 -0.333429 0
M  V30 12744 C 1217.72 -1.72958 -1.07038 0
M  V30 12745 C 1218.08 -0.492055 -1.86002 0
M  V30 12746 O 1217.37 0.515453 -1.84536 0
M  V30 12747 C 1217.56 -2.93926 -2.03328 0
M  V30 12748 C 1217.39 -4.29324 -1.33831 0
M  V30 12749 C 1216.16 -4.93647 -1.07892 0
M  V30 12750 C 1218.36 -5.08664 -0.75929 0
M  V30 12751 N 1216.34 -6.12897 -0.35082 0
M  V30 12752 C 1217.71 -6.19788 -0.162281 0
M  V30 12753 C 1219.77 -4.93491 -0.661131 0
M  V30 12754 C 1218.47 -7.17394 0.523351 0
M  V30 12755 C 1220.5 -5.91399 0.0107794 0
M  V30 12756 C 1219.86 -7.01867 0.596775 0
M  V30 12757 H 1215.96 -0.685828 -0.375718 0
M  V30 12758 H 1218.54 -1.91478 -0.35274 0
M  V30 12759 H 1216.71 -2.76889 -2.72373 0
M  V30 12760 H 1218.45 -3.01524 -2.69936 0
M  V30 12761 H 1215.2 -4.53392 -1.36868 0
M  V30 12762 H 1215.63 -6.77 -0.00120039 0
M  V30 12763 H 1220.27 -4.08242 -1.09991 0
M  V30 12764 H 1217.99 -8.02209 0.973994 0
M  V30 12765 H 1221.57 -5.81736 0.0862353 0
M  V30 12766 H 1220.45 -7.76327 1.10845 0
M  V30 12767 N 1217.95 0.594978 -1.45938 0
M  V30 12768 C 1219.37 0.917069 -1.30622 0
M  V30 12769 C 1219.57 1.99702 -0.268554 0
M  V30 12770 O 1218.63 2.50293 0.333146 0
M  V30 12771 C 1219.94 1.34604 -2.68891 0
M  V30 12772 C 1221.49 1.45957 -2.76886 0
M  V30 12773 C 1221.96 1.92225 -4.15708 0
M  V30 12774 N 1223.45 1.99439 -4.18065 0
M  V30 12775 C 1224.19 2.36488 -5.22361 0
M  V30 12776 N 1223.68 2.72416 -6.36994 0
M  V30 12777 N 1225.48 2.36936 -5.09723 0
M  V30 12778 H 1217.63 -0.118625 -2.12068 0
M  V30 12779 H 1219.89 0.00959453 -0.947951 0
M  V30 12780 H 1219.6 0.626605 -3.46073 0
M  V30 12781 H 1219.47 2.31006 -2.98188 0
M  V30 12782 H 1221.86 2.16989 -1.99999 0
M  V30 12783 H 1221.94 0.47838 -2.51287 0
M  V30 12784 H 1221.58 1.21775 -4.93085 0
M  V30 12785 H 1221.51 2.9128 -4.38707 0
M  V30 12786 H 1224 1.74212 -3.35349 0
M  V30 12787 H 1224.32 2.99604 -7.1236 0
M  V30 12788 H 1222.66 2.70083 -6.40375 0
M  V30 12789 H 1225.85 2.08282 -4.19209 0
M  V30 12790 H 1226.03 2.65483 -5.9112 0
M  V30 12791 N 1219.43 1.33438 0.838571 0
M  V30 12792 C 1220.66 1.27951 1.62592 0
M  V30 12793 C 1221.08 -0.149502 1.88207 0
M  V30 12794 O 1220.43 -1.09174 1.46244 0
M  V30 12795 C 1220.48 2.0523 2.97595 0
M  V30 12796 O 1220.2 3.42557 2.73105 0
M  V30 12797 C 1221.71 2.06957 3.92025 0
M  V30 12798 H 1218.93 0.440796 0.505905 0
M  V30 12799 H 1221.47 1.75814 1.0445 0
M  V30 12800 H 1219.62 1.61049 3.52338 0
M  V30 12801 H 1220.04 3.82314 3.59076 0
M  V30 12802 H 1221.51 2.65481 4.83967 0
M  V30 12803 H 1221.99 1.0599 4.26219 0
M  V30 12804 H 1222.6 2.51158 3.4322 0
M  V30 12805 N 1220.91 -1.05686 1.16912 0
M  V30 12806 C 1221.84 -2.15268 0.904532 0
M  V30 12807 C 1222.82 -1.69424 -0.151548 0
M  V30 12808 O 1224.01 -1.942 -0.00235371 0
M  V30 12809 C 1221.14 -3.44853 0.411581 0
M  V30 12810 C 1220.09 -4.04237 1.40628 0
M  V30 12811 C 1219.42 -5.29105 0.771479 0
M  V30 12812 C 1220.72 -4.42303 2.77787 0
M  V30 12813 H 1222.41 -2.37659 1.82094 0
M  V30 12814 H 1219.96 -1.14217 0.876947 0
M  V30 12815 H 1221.91 -4.20857 0.213929 0
M  V30 12816 H 1220.63 -3.22099 -0.540352 0
M  V30 12817 H 1219.29 -3.30297 1.59058 0
M  V30 12818 H 1218.94 -5.02652 -0.187133 0
M  V30 12819 H 1218.64 -5.69797 1.43545 0
M  V30 12820 H 1220.16 -6.07801 0.583988 0
M  V30 12821 H 1221.58 -5.09362 2.63103 0
M  V30 12822 H 1219.98 -4.93997 3.40716 0
M  V30 12823 H 1221.05 -3.52877 3.32575 0
M  V30 12824 N 1222.39 -0.968567 -1.24324 0
M  V30 12825 C 1223.61 -0.648166 -1.97012 0
M  V30 12826 C 1224.04 0.775842 -1.71354 0
M  V30 12827 O 1223.4 1.52672 -0.977804 0
M  V30 12828 C 1223.44 -0.929974 -3.48402 0
M  V30 12829 O 1222.55 -0.015854 -4.12397 0
M  V30 12830 H 1221.89 -0.244961 -0.617163 0
M  V30 12831 H 1224.42 -1.29895 -1.58077 0
M  V30 12832 H 1224.43 -0.861863 -3.98793 0
M  V30 12833 H 1223.1 -1.96776 -3.66404 0
M  V30 12834 H 1221.68 -0.137361 -3.72647 0
M  V30 12835 N 1223.87 1.39211 -0.738786 0
M  V30 12836 C 1225.11 2.00733 -0.288817 0
M  V30 12837 C 1225.45 1.58494 1.1222 0
M  V30 12838 O 1224.72 0.815579 1.76575 0
M  V30 12839 C 1225 3.57928 -0.394956 0
M  V30 12840 C 1224.86 4.10174 -1.84601 0
M  V30 12841 C 1226.18 4.39548 0.220395 0
M  V30 12842 H 1223.29 0.729276 -0.106418 0
M  V30 12843 H 1225.94 1.65365 -0.935652 0
M  V30 12844 H 1224.09 3.88188 0.155744 0
M  V30 12845 H 1225.76 3.90618 -2.45388 0
M  V30 12846 H 1224 3.63593 -2.36607 0
M  V30 12847 H 1224.67 5.19305 -1.87152 0
M  V30 12848 H 1227.15 4.15354 -0.249098 0
M  V30 12849 H 1226.02 5.48778 0.115806 0
M  V30 12850 H 1226.29 4.22341 1.30691 0
M  V30 12851 N 1225.34 0.486708 1.49896 0
M  V30 12852 C 1226.57 -0.0622999 2.07306 0
M  V30 12853 C 1226.99 -1.31353 1.3464 0
M  V30 12854 O 1226.35 -1.76861 0.398752 0
M  V30 12855 C 1226.4 -0.313481 3.59235 0
M  V30 12856 O 1225.5 -1.39101 3.88233 0
M  V30 12857 H 1224.85 0.0198885 0.663702 0
M  V30 12858 H 1227.38 0.682232 1.92891 0
M  V30 12859 H 1227.39 -0.549302 4.04285 0
M  V30 12860 H 1226.06 0.600767 4.11538 0
M  V30 12861 H 1224.64 -1.14127 3.55006 0
M  V30 12862 N 1226.82 -1.56058 0.219941 0
M  V30 12863 C 1227.73 -2.23844 -0.70222 0
M  V30 12864 C 1228.75 -1.24554 -1.215 0
M  V30 12865 O 1229.93 -1.57362 -1.25695 0
M  V30 12866 C 1226.99 -2.90384 -1.89416 0
M  V30 12867 C 1226.05 -4.05012 -1.42351 0
M  V30 12868 C 1225.28 -4.68369 -2.55863 0
M  V30 12869 O 1225.51 -4.3071 -3.73958 0
M  V30 12870 O 1224.44 -5.5739 -2.27157 0
M  V30 12871 H 1228.27 -3.03305 -0.15478 0
M  V30 12872 H 1225.85 -1.49396 -0.010438 0
M  V30 12873 H 1227.73 -3.32389 -2.59028 0
M  V30 12874 H 1226.41 -2.13883 -2.42973 0
M  V30 12875 H 1225.32 -3.67579 -0.695448 0
M  V30 12876 H 1226.65 -4.83251 -0.934332 0
M  V30 12877 N 1228.3 0.053464 -1.57509 0
M  V30 12878 C 1229.25 1.06886 -2.01394 0
M  V30 12879 C 1230.24 1.33441 -0.899013 0
M  V30 12880 O 1231.43 1.33435 -1.16293 0
M  V30 12881 C 1228.56 2.37731 -2.47667 0
M  V30 12882 C 1227.64 2.14371 -3.65931 0
M  V30 12883 N 1228.03 1.60994 -4.79494 0
M  V30 12884 C 1226.33 2.44766 -3.72835 0
M  V30 12885 C 1227.03 1.52875 -5.61252 0
M  V30 12886 N 1226.01 1.99576 -5.05638 0
M  V30 12887 H 1229.81 0.649779 -2.86627 0
M  V30 12888 H 1227.32 0.260224 -1.60302 0
M  V30 12889 H 1229.32 3.11256 -2.77354 0
M  V30 12890 H 1227.98 2.80339 -1.63829 0
M  V30 12891 H 1228.99 1.296 -5.01422 0
M  V30 12892 H 1225.67 2.90616 -2.99748 0
M  V30 12893 H 1227.06 1.12303 -6.62448 0
M  V30 12894 N 1229.78 1.54207 0.325255 0
M  V30 12895 C 1230.74 1.82757 1.38321 0
M  V30 12896 C 1231.74 0.699312 1.44797 0
M  V30 12897 O 1232.93 0.96762 1.44854 0
M  V30 12898 C 1230.06 1.98608 2.7707 0
M  V30 12899 H 1231.26 2.7728 1.14261 0
M  V30 12900 H 1228.81 1.45899 0.560647 0
M  V30 12901 H 1229.55 1.0629 3.06387 0
M  V30 12902 H 1229.33 2.80707 2.73763 0
M  V30 12903 H 1230.82 2.2215 3.53609 0
M  V30 12904 N 1231.26 -0.58723 1.46251 0
M  V30 12905 C 1232.67 -1.16933 1.45546 0
M  V30 12906 C 1233.02 -1.9524 0.193879 0
M  V30 12907 O 1232.14 -2.04652 -0.70332 0
M  V30 12908 C 1232.74 -2.12723 2.63693 0
M  V30 12909 C 1231.3 -2.66267 2.66043 0
M  V30 12910 C 1230.45 -1.42051 2.38153 0
M  V30 12911 H 1233.4 -0.375411 1.54196 0
M  V30 12912 H 1233.42 -2.96111 2.38953 0
M  V30 12913 H 1232.93 -1.55703 3.55497 0
M  V30 12914 H 1231.03 -3.2717 1.783 0
M  V30 12915 H 1231.14 -3.0931 3.65874 0
M  V30 12916 H 1229.51 -1.71707 1.88119 0
M  V30 12917 H 1230.29 -0.868675 3.32128 0
M  V30 12918 N 1232.74 -1.33881 -0.831482 0
M  V30 12919 C 1233.98 -1.25507 -1.58406 0
M  V30 12920 C 1234.3 0.177137 -1.94194 0
M  V30 12921 O 1233.57 1.10769 -1.61576 0
M  V30 12922 H 1232.15 -0.461551 -0.587349 0
M  V30 12923 H 1234.82 -1.6769 -0.99328 0
M  V30 12924 H 1233.91 -1.85391 -2.51071 0
M  V30 12925 N 1234.21 1.05064 -1.1747 0
M  V30 12926 C 1235.14 2.14786 -0.915936 0
M  V30 12927 C 1236.12 1.69502 0.142561 0
M  V30 12928 O 1237.31 1.94198 -0.00794522 0
M  V30 12929 C 1234.44 3.44629 -0.429864 0
M  V30 12930 C 1233.39 4.03486 -1.42769 0
M  V30 12931 C 1232.72 5.28689 -0.799528 0
M  V30 12932 C 1234.02 4.40823 -2.80129 0
M  V30 12933 H 1235.71 2.3669 -1.83352 0
M  V30 12934 H 1233.26 1.13751 -0.882992 0
M  V30 12935 H 1235.21 4.20737 -0.236245 0
M  V30 12936 H 1233.94 3.22381 0.523263 0
M  V30 12937 H 1232.6 3.29449 -1.60808 0
M  V30 12938 H 1232.24 5.02744 0.160474 0
M  V30 12939 H 1231.94 5.69028 -1.46565 0
M  V30 12940 H 1233.47 6.07483 -0.616212 0
M  V30 12941 H 1234.88 5.07959 -2.65801 0
M  V30 12942 H 1233.28 4.92183 -3.43331 0
M  V30 12943 H 1234.35 3.51108 -3.34441 0
M  V30 12944 N 1235.69 0.975146 1.23809 0
M  V30 12945 C 1237.1 0.678873 1.7392 0
M  V30 12946 C 1237.45 -0.805133 1.78919 0
M  V30 12947 O 1236.58 -1.62984 1.42356 0
M  V30 12948 C 1237.17 1.22562 3.15854 0
M  V30 12949 C 1235.73 0.979096 3.63443 0
M  V30 12950 C 1234.88 1.35649 2.41857 0
M  V30 12951 H 1237.83 1.14961 1.09406 0
M  V30 12952 H 1237.85 0.595489 3.75811 0
M  V30 12953 H 1237.36 2.30571 3.12184 0
M  V30 12954 H 1235.46 -0.0851407 3.72503 0
M  V30 12955 H 1235.58 1.62998 4.5052 0
M  V30 12956 H 1233.94 0.774916 2.42626 0
M  V30 12957 H 1234.72 2.44624 2.40861 0
M  V30 12958 N 1237.17 -1.38817 0.746158 0
M  V30 12959 C 1238.42 -1.99885 0.298425 0
M  V30 12960 C 1238.74 -1.59518 -1.12156 0
M  V30 12961 O 1238.01 -0.848568 -1.76568 0
M  V30 12962 H 1236.59 -0.739247 0.107347 0
M  V30 12963 H 1239.25 -1.69696 0.9586 0
M  V30 12964 H 1238.35 -3.10067 0.355656 0
M  V30 12965 N 1238.65 -0.49465 -1.49636 0
M  V30 12966 C 1239.58 0.276606 -2.31856 0
M  V30 12967 C 1240.56 0.968499 -1.39836 0
M  V30 12968 O 1241.74 0.96113 -1.68748 0
M  V30 12969 C 1238.87 1.34522 -3.20189 0
M  V30 12970 C 1237.83 0.773571 -4.20951 0
M  V30 12971 C 1237.15 1.94223 -4.98178 0
M  V30 12972 C 1238.45 -0.231096 -5.21788 0
M  V30 12973 H 1240.15 -0.409668 -2.96584 0
M  V30 12974 H 1237.69 -0.198461 -1.42626 0
M  V30 12975 H 1239.65 1.89244 -3.76517 0
M  V30 12976 H 1238.37 2.06059 -2.53392 0
M  V30 12977 H 1237.03 0.248144 -3.65759 0
M  V30 12978 H 1236.68 2.64514 -4.27834 0
M  V30 12979 H 1236.38 1.56584 -5.66353 0
M  V30 12980 H 1237.9 2.49391 -5.57348 0
M  V30 12981 H 1239.32 0.227768 -5.72847 0
M  V30 12982 H 1237.71 -0.522984 -5.97817 0
M  V30 12983 H 1238.78 -1.14914 -4.71087 0
M  V30 12984 N 1240.13 1.55939 -0.228214 0
M  V30 12985 C 1241.54 1.84612 0.278417 0
M  V30 12986 C 1241.89 1.14973 1.58983 0
M  V30 12987 O 1241.01 0.421673 2.12252 0
M  V30 12988 C 1241.61 3.3491 0.511935 0
M  V30 12989 C 1240.17 3.63876 0.962861 0
M  V30 12990 C 1239.31 2.77284 0.0296246 0
M  V30 12991 H 1242.26 1.52149 -0.451245 0
M  V30 12992 H 1242.29 3.55477 1.35707 0
M  V30 12993 H 1241.8 3.85567 -0.442697 0
M  V30 12994 H 1239.9 3.18682 1.93062 0
M  V30 12995 H 1240.01 4.71809 0.832659 0
M  V30 12996 H 1238.38 2.48961 0.53763 0
M  V30 12997 H 1239.16 3.30742 -0.920044 0
M  V30 12998 N 1241.6 -0.0451101 1.57535 0
M  V30 12999 C 1242.83 -0.755068 1.93167 0
M  V30 13000 C 1243.25 -1.68949 0.826915 0
M  V30 13001 O 1242.61 -1.79978 -0.218534 0
M  V30 13002 C 1242.66 -1.50201 3.27829 0
M  V30 13003 O 1241.76 -2.61434 3.18945 0
M  V30 13004 H 1241.11 -0.204219 0.631815 0
M  V30 13005 H 1243.64 -0.00537504 2.04599 0
M  V30 13006 H 1243.65 -1.87547 3.6234 0
M  V30 13007 H 1242.32 -0.816591 4.07805 0
M  V30 13008 H 1240.9 -2.26749 2.96039 0
M  V30 13009 N 1243.08 -1.54377 -0.317073 0
M  V30 13010 C 1244.31 -1.76865 -1.07362 0
M  V30 13011 C 1244.73 -0.520354 -1.81488 0
M  V30 13012 O 1244.08 0.509213 -1.75252 0
M  V30 13013 C 1244.13 -2.96598 -2.06668 0
M  V30 13014 O 1243.85 -4.16602 -1.35552 0
M  V30 13015 C 1245.36 -3.31348 -2.94489 0
M  V30 13016 H 1242.58 -0.590277 -0.319083 0
M  V30 13017 H 1245.12 -2.01284 -0.361227 0
M  V30 13018 H 1243.27 -2.74433 -2.73432 0
M  V30 13019 H 1243.69 -4.83996 -2.02108 0
M  V30 13020 H 1245.16 -4.1841 -3.60051 0
M  V30 13021 H 1245.64 -2.48797 -3.61935 0
M  V30 13022 H 1246.25 -3.55614 -2.33278 0
M  V30 13023 N 1244.56 0.579466 -1.4656 0
M  V30 13024 C 1245.52 1.67033 -1.56948 0
M  V30 13025 C 1246.52 1.54481 -0.446361 0
M  V30 13026 O 1247.71 1.5904 -0.710767 0
M  V30 13027 C 1244.85 3.06474 -1.49286 0
M  V30 13028 H 1246.04 1.59179 -2.54169 0
M  V30 13029 H 1243.59 0.797573 -1.34419 0
M  V30 13030 H 1244.33 3.1988 -0.533572 0
M  V30 13031 H 1244.11 3.16993 -2.30776 0
M  V30 13032 H 1245.6 3.85879 -1.59648 0
M  V30 13033 N 1246.04 1.3432 0.824371 0
M  V30 13034 C 1247 1.25672 1.91675 0
M  V30 13035 C 1248 0.172269 1.59875 0
M  V30 13036 O 1249.19 0.424794 1.68941 0
M  V30 13037 C 1246.32 0.939928 3.27686 0
M  V30 13038 H 1247.52 2.22785 2.00766 0
M  V30 13039 H 1245.07 1.18587 1.01817 0
M  V30 13040 H 1245.8 -0.0280898 3.24288 0
M  V30 13041 H 1245.59 1.72432 3.5215 0
M  V30 13042 H 1247.08 0.904553 4.07686 0
M  V30 13043 N 1247.52 -1.0444 1.18026 0
M  V30 13044 C 1248.43 -2.15862 0.918747 0
M  V30 13045 C 1249.44 -1.73614 -0.115808 0
M  V30 13046 O 1250.62 -2.01294 0.0652312 0
M  V30 13047 C 1247.68 -3.43846 0.443922 0
M  V30 13048 C 1246.74 -4.00497 1.54599 0
M  V30 13049 C 1245.98 -5.22373 1.09372 0
M  V30 13050 O 1246.2 -5.70379 -0.049085 0
M  V30 13051 O 1245.13 -5.71459 1.88992 0
M  V30 13052 H 1248.96 -2.40776 1.85097 0
M  V30 13053 H 1246.55 -1.14326 0.961769 0
M  V30 13054 H 1248.43 -4.20985 0.187017 0
M  V30 13055 H 1247.1 -3.20414 -0.460051 0
M  V30 13056 H 1246.01 -3.24764 1.85686 0
M  V30 13057 H 1247.34 -4.28262 2.42595 0
M  V30 13058 N 1248.99 -0.981699 -1.2329 0
M  V30 13059 C 1250.24 -0.652266 -1.92024 0
M  V30 13060 C 1250.57 0.812297 -1.76396 0
M  V30 13061 O 1249.85 1.5861 -1.12575 0
M  V30 13062 C 1250.13 -1.04506 -3.44602 0
M  V30 13063 C 1249.98 -2.56735 -3.69333 0
M  V30 13064 C 1251.3 -0.589937 -4.36128 0
M  V30 13065 H 1248.42 -0.238437 -0.697364 0
M  V30 13066 H 1251.06 -1.22322 -1.45387 0
M  V30 13067 H 1249.21 -0.559242 -3.84454 0
M  V30 13068 H 1250.89 -3.12901 -3.38955 0
M  V30 13069 H 1249.13 -2.9931 -3.14 0
M  V30 13070 H 1249.8 -2.79269 -4.76144 0
M  V30 13071 H 1252.28 -1.00706 -4.0373 0
M  V30 13072 H 1251.15 -0.893192 -5.41584 0
M  V30 13073 H 1251.41 0.509707 -4.39152 0
M  V30 13074 N 1250.47 1.3842 -0.753509 0
M  V30 13075 C 1251.38 2.34252 -0.127811 0
M  V30 13076 C 1252.4 1.59266 0.700743 0
M  V30 13077 O 1253.57 1.9146 0.624914 0
M  V30 13078 C 1250.64 3.38382 0.754886 0
M  V30 13079 C 1249.7 4.2921 -0.0880312 0
M  V30 13080 C 1248.93 5.28367 0.75263 0
M  V30 13081 O 1249.16 5.34537 1.99064 0
M  V30 13082 O 1248.09 6.01656 0.171475 0
M  V30 13083 H 1251.92 2.89454 -0.91925 0
M  V30 13084 H 1249.5 1.40265 -0.514404 0
M  V30 13085 H 1251.38 4.02141 1.25938 0
M  V30 13086 H 1250.06 2.85536 1.52482 0
M  V30 13087 H 1248.97 3.68611 -0.638468 0
M  V30 13088 H 1250.3 4.85311 -0.82062 0
M  V30 13089 N 1251.95 0.502579 1.49372 0
M  V30 13090 C 1252.91 -0.263993 2.27675 0
M  V30 13091 C 1253.91 -0.892538 1.33755 0
M  V30 13092 O 1255.1 -0.756826 1.56901 0
M  V30 13093 C 1252.24 -1.37895 3.11765 0
M  V30 13094 H 1253.43 0.423132 2.969 0
M  V30 13095 H 1250.98 0.257595 1.54163 0
M  V30 13096 H 1251.72 -2.10018 2.47109 0
M  V30 13097 H 1251.5 -0.933694 3.80821 0
M  V30 13098 H 1252.99 -1.91889 3.70902 0
M  V30 13099 N 1253.43 -1.55816 0.23648 0
M  V30 13100 C 1254.36 -2.18248 -0.700024 0
M  V30 13101 C 1255.37 -1.15579 -1.14654 0
M  V30 13102 O 1256.56 -1.42491 -1.07511 0
M  V30 13103 C 1253.66 -2.76338 -1.9619 0
M  V30 13104 C 1252.84 -4.04325 -1.66853 0
M  V30 13105 C 1251.89 -4.46834 -2.77895 0
M  V30 13106 O 1250.92 -5.13427 -2.45725 0
M  V30 13107 N 1252.12 -4.13753 -4.07171 0
M  V30 13108 H 1254.89 -2.99241 -0.16589 0
M  V30 13109 H 1252.45 -1.61803 0.0560383 0
M  V30 13110 H 1254.44 -3.01739 -2.69695 0
M  V30 13111 H 1253.01 -1.99563 -2.4061 0
M  V30 13112 H 1252.23 -3.86623 -0.769164 0
M  V30 13113 H 1253.52 -4.8779 -1.44703 0
M  V30 13114 H 1252.92 -3.60271 -4.36144 0
M  V30 13115 H 1251.47 -4.44014 -4.77174 0
M  V30 13116 N 1254.91 0.036755 -1.57557 0
M  V30 13117 C 1256.32 0.392264 -1.54704 0
M  V30 13118 C 1256.52 1.77076 -0.96157 0
M  V30 13119 O 1255.58 2.45766 -0.579263 0
M  V30 13120 C 1256.89 0.301168 -2.99188 0
M  V30 13121 C 1258.44 0.378813 -3.10699 0
M  V30 13122 C 1258.91 0.317249 -4.569 0
M  V30 13123 N 1260.41 0.376277 -4.61669 0
M  V30 13124 C 1261.14 0.351411 -5.72322 0
M  V30 13125 N 1260.64 0.279288 -6.92237 0
M  V30 13126 N 1262.43 0.400571 -5.60671 0
M  V30 13127 H 1254.58 -0.865455 -1.93968 0
M  V30 13128 H 1256.84 -0.328339 -0.889324 0
M  V30 13129 H 1256.55 -0.64582 -3.4572 0
M  V30 13130 H 1256.42 1.09784 -3.6087 0
M  V30 13131 H 1258.81 1.31623 -2.6412 0
M  V30 13132 H 1258.89 -0.447072 -2.51863 0
M  V30 13133 H 1258.54 -0.616469 -5.04145 0
M  V30 13134 H 1258.47 1.16114 -5.13639 0
M  V30 13135 H 1260.96 0.434843 -3.7539 0
M  V30 13136 H 1261.27 0.265202 -7.72345 0
M  V30 13137 H 1259.61 0.24545 -6.94566 0
M  V30 13138 H 1262.81 0.454854 -4.65885 0
M  V30 13139 H 1262.98 0.377724 -6.46898 0
M  V30 13140 N 1256.39 1.54543 0.308881 0
M  V30 13141 C 1257.3 1.87994 1.4034 0
M  V30 13142 C 1258.31 0.773294 1.55872 0
M  V30 13143 O 1259.49 1.069 1.70688 0
M  V30 13144 C 1256.55 2.11341 2.74838 0
M  V30 13145 C 1255.61 3.35086 2.68358 0
M  V30 13146 C 1254.85 3.5731 3.96441 0
M  V30 13147 O 1255.07 2.82692 4.9542 0
M  V30 13148 O 1254 4.50814 3.98811 0
M  V30 13149 H 1257.83 2.81094 1.14976 0
M  V30 13150 H 1255.41 1.40634 0.504236 0
M  V30 13151 H 1257.3 2.27943 3.54429 0
M  V30 13152 H 1255.97 1.21427 3.00062 0
M  V30 13153 H 1254.88 3.23855 1.87267 0
M  V30 13154 H 1256.21 4.25104 2.48087 0
M  V30 13155 N 1257.86 -0.571685 1.46866 0
M  V30 13156 C 1258.81 -1.6751 1.54676 0
M  V30 13157 C 1259.8 -1.55673 0.406774 0
M  V30 13158 O 1260.99 -1.64401 0.655847 0
M  V30 13159 C 1258.12 -3.06295 1.55043 0
M  V30 13160 C 1257.2 -3.23388 2.74374 0
M  V30 13161 N 1257.6 -3.10598 3.99202 0
M  V30 13162 C 1255.89 -3.54354 2.7083 0
M  V30 13163 C 1256.59 -3.29993 4.79041 0
M  V30 13164 N 1255.57 -3.55659 4.11106 0
M  V30 13165 H 1259.37 -1.56168 2.48975 0
M  V30 13166 H 1256.89 -0.776036 1.42658 0
M  V30 13167 H 1258.88 -3.85502 1.58726 0
M  V30 13168 H 1257.54 -3.18759 0.618278 0
M  V30 13169 H 1258.55 -2.8823 4.30283 0
M  V30 13170 H 1255.23 -3.73435 1.86688 0
M  V30 13171 H 1256.62 -3.25194 5.87961 0
M  V30 13172 N 1259.34 -1.34755 -0.817236 0
M  V30 13173 C 1260.27 -1.22648 -1.93624 0
M  V30 13174 C 1261.29 -0.152226 -1.62087 0
M  V30 13175 O 1262.48 -0.404578 -1.73855 0
M  V30 13176 C 1259.58 -0.863519 -3.27714 0
M  V30 13177 C 1258.75 -2.03394 -3.87233 0
M  V30 13178 C 1257.81 -1.64846 -4.99712 0
M  V30 13179 O 1256.83 -2.3658 -5.17705 0
M  V30 13180 N 1258.04 -0.565909 -5.77735 0
M  V30 13181 H 1260.8 -2.19051 -2.0454 0
M  V30 13182 H 1258.36 -1.27785 -0.994113 0
M  V30 13183 H 1260.35 -0.58733 -4.00415 0
M  V30 13184 H 1258.92 0.0104987 -3.12598 0
M  V30 13185 H 1258.14 -2.47454 -3.06856 0
M  V30 13186 H 1259.43 -2.81655 -4.23731 0
M  V30 13187 H 1258.83 0.030313 -5.65692 0
M  V30 13188 H 1257.39 -0.349467 -6.50862 0
M  V30 13189 N 1260.82 1.03812 -1.18578 0
M  V30 13190 C 1261.78 2.10049 -0.91718 0
M  V30 13191 C 1262.78 1.60498 0.0985122 0
M  V30 13192 O 1263.97 1.73674 -0.135213 0
M  V30 13193 C 1261.1 3.38813 -0.376599 0
M  V30 13194 H 1262.3 2.3531 -1.85927 0
M  V30 13195 H 1259.85 1.20277 -0.998156 0
M  V30 13196 H 1260.59 3.19216 0.571983 0
M  V30 13197 H 1260.37 3.76096 -1.10881 0
M  V30 13198 H 1261.86 4.17084 -0.207453 0
M  V30 13199 N 1262.3 0.988223 1.22768 0
M  V30 13200 C 1263.26 0.539813 2.22752 0
M  V30 13201 C 1264.26 -0.374796 1.56371 0
M  V30 13202 O 1265.45 -0.167402 1.73394 0
M  V30 13203 C 1262.58 -0.215461 3.40218 0
M  V30 13204 H 1263.78 1.42397 2.63938 0
M  V30 13205 H 1261.33 0.774933 1.35737 0
M  V30 13206 H 1262.06 -1.11581 3.045 0
M  V30 13207 H 1261.85 0.441173 3.8961 0
M  V30 13208 H 1263.34 -0.517517 4.14381 0
M  V30 13209 N 1263.78 -1.38018 0.760839 0
M  V30 13210 C 1264.72 -2.30387 0.13796 0
M  V30 13211 C 1265.69 -1.50548 -0.701754 0
M  V30 13212 O 1266.88 -1.79154 -0.656381 0
M  V30 13213 C 1264.02 -3.36993 -0.743642 0
M  V30 13214 C 1263.13 -4.31856 0.111489 0
M  V30 13215 C 1262.27 -5.25534 -0.773796 0
M  V30 13216 C 1261.3 -6.12042 0.0845311 0
M  V30 13217 N 1260.44 -6.97995 -0.758118 0
M  V30 13218 H 1265.28 -2.83077 0.931212 0
M  V30 13219 H 1262.82 -1.39361 0.470833 0
M  V30 13220 H 1264.78 -3.97417 -1.26948 0
M  V30 13221 H 1263.41 -2.85695 -1.50261 0
M  V30 13222 H 1262.46 -3.72832 0.755031 0
M  V30 13223 H 1263.77 -4.92758 0.774042 0
M  V30 13224 H 1262.92 -5.9111 -1.36653 0
M  V30 13225 H 1261.66 -4.65017 -1.47006 0
M  V30 13226 H 1260.67 -5.45455 0.689883 0
M  V30 13227 H 1261.89 -6.74629 0.777966 0
M  V30 13228 H 1259.84 -6.40018 -1.4392 0
M  V30 13229 H 1259.76 -7.55846 -0.152623 0
M  V30 13230 H 1261.02 -7.67973 -1.33559 0
M  V30 13231 N 1265.25 -0.510493 -1.49103 0
M  V30 13232 C 1266.67 -0.167061 -1.58723 0
M  V30 13233 C 1266.87 1.32886 -1.51471 0
M  V30 13234 O 1265.93 2.10559 -1.39359 0
M  V30 13235 C 1267.24 -0.752293 -2.91137 0
M  V30 13236 C 1268.79 -0.719258 -3.04624 0
M  V30 13237 C 1269.26 -1.28272 -4.39671 0
M  V30 13238 N 1270.75 -1.24383 -4.46187 0
M  V30 13239 C 1271.49 -1.6499 -5.4915 0
M  V30 13240 N 1270.98 -2.13235 -6.59168 0
M  V30 13241 N 1272.78 -1.56348 -5.39918 0
M  V30 13242 H 1264.93 -1.48296 -1.5206 0
M  V30 13243 H 1267.19 -0.615683 -0.72086 0
M  V30 13244 H 1266.9 -1.80178 -3.02041 0
M  V30 13245 H 1266.77 -0.218152 -3.76569 0
M  V30 13246 H 1269.16 0.321413 -2.93344 0
M  V30 13247 H 1269.24 -1.29065 -2.20852 0
M  V30 13248 H 1268.88 -2.32222 -4.51703 0
M  V30 13249 H 1268.81 -0.687179 -5.22097 0
M  V30 13250 H 1271.3 -0.890446 -3.67259 0
M  V30 13251 H 1271.62 -2.42266 -7.33844 0
M  V30 13252 H 1269.96 -2.17216 -6.60183 0
M  V30 13253 H 1273.15 -1.18469 -4.52861 0
M  V30 13254 H 1273.33 -1.88317 -6.20033 0
M  V30 13255 N 1266.73 1.55688 -0.24474 0
M  V30 13256 C 1267.69 2.20014 0.642382 0
M  V30 13257 C 1268.69 1.16877 1.10437 0
M  V30 13258 O 1269.88 1.41972 1.00943 0
M  V30 13259 C 1267.02 2.84198 1.88267 0
M  V30 13260 H 1268.21 2.9979 0.0811937 0
M  V30 13261 H 1265.76 1.56299 0.00480917 0
M  V30 13262 H 1266.5 2.08354 2.48514 0
M  V30 13263 H 1266.28 3.59747 1.55963 0
M  V30 13264 H 1267.77 3.33434 2.5142 0
M  V30 13265 N 1268.21 -0.0283989 1.57574 0
M  V30 13266 C 1269.45 -0.723912 1.91151 0
M  V30 13267 C 1269.81 -1.72485 0.843381 0
M  V30 13268 O 1271.01 -2.46866 1.06351 0
M  V30 13269 C 1269.29 -1.37537 3.29876 0
M  V30 13270 S 1270.84 -2.09995 3.85289 0
M  V30 13271 H 1267.66 -0.239802 0.66934 0
M  V30 13272 H 1270.26 0.0214644 1.95488 0
M  V30 13273 H 1268.97 -0.633659 4.05479 0
M  V30 13274 H 1268.5 -2.15928 3.28844 0
M  V30 13275 H 1270.51 -3.37146 3.6407 0
M  V30 13276 N 1269.69 -1.54705 -0.300681 0
M  V30 13277 C 1270.91 -1.78318 -1.05913 0
M  V30 13278 C 1271.34 -0.541177 -1.80147 0
M  V30 13279 O 1270.7 0.508291 -1.74029 0
M  V30 13280 C 1270.74 -2.99041 -2.01511 0
M  V30 13281 O 1269.85 -2.72188 -3.09818 0
M  V30 13282 H 1269.19 -0.590197 -0.304242 0
M  V30 13283 H 1271.72 -2.01789 -0.338006 0
M  V30 13284 H 1271.73 -3.2702 -2.43971 0
M  V30 13285 H 1270.4 -3.89098 -1.46886 0
M  V30 13286 H 1268.98 -2.55227 -2.71871 0
M  V30 13287 N 1271.17 0.563888 -1.47167 0
M  V30 13288 C 1272.13 1.65359 -1.58711 0
M  V30 13289 C 1273.13 1.53999 -0.46272 0
M  V30 13290 O 1274.32 1.58277 -0.727595 0
M  V30 13291 C 1271.45 3.04874 -1.52529 0
M  V30 13292 H 1272.64 1.56475 -2.55843 0
M  V30 13293 H 1270.2 0.783271 -1.35257 0
M  V30 13294 H 1270.93 3.19297 -0.56747 0
M  V30 13295 H 1270.72 3.14528 -2.34125 0
M  V30 13296 H 1272.21 3.84164 -1.63731 0
M  V30 13297 N 1272.64 1.35187 0.810078 0
M  V30 13298 C 1273.88 1.29626 1.58039 0
M  V30 13299 C 1274.25 -0.12865 1.91569 0
M  V30 13300 O 1275.45 -0.308587 2.67023 0
M  V30 13301 C 1273.72 2.17414 2.83665 0
M  V30 13302 S 1275.28 2.29334 3.741 0
M  V30 13303 H 1272.1 0.460722 0.541531 0
M  V30 13304 H 1274.7 1.7054 0.955839 0
M  V30 13305 H 1273.4 3.19927 2.57051 0
M  V30 13306 H 1272.93 1.77444 3.51108 0
M  V30 13307 H 1274.95 1.47559 4.73752 0
M  V30 13308 N 1274.12 -1.03182 1.19127 0
M  V30 13309 C 1275.09 -2.09559 0.928307 0
M  V30 13310 C 1276.09 -1.60548 -0.0899992 0
M  V30 13311 O 1277.28 -1.736 0.144422 0
M  V30 13312 C 1274.41 -3.38609 0.394561 0
M  V30 13313 H 1275.6 -2.34321 1.87173 0
M  V30 13314 H 1273.15 -1.19746 1.00452 0
M  V30 13315 H 1273.89 -3.19515 -0.555046 0
M  V30 13316 H 1273.67 -3.75502 1.12873 0
M  V30 13317 H 1275.16 -4.16969 0.229569 0
M  V30 13318 N 1275.6 -0.99472 -1.22242 0
M  V30 13319 C 1276.85 -0.670275 -1.90661 0
M  V30 13320 C 1277.17 0.800369 -1.77818 0
M  V30 13321 O 1276.44 1.57381 -1.16653 0
M  V30 13322 H 1275.02 -0.244925 -0.705706 0
M  V30 13323 H 1277.68 -1.26162 -1.48557 0
M  V30 13324 H 1276.78 -0.934408 -2.97784 0
M  V30 13325 N 1277.08 1.37613 -0.768148 0
M  V30 13326 C 1278.31 2.04052 -0.342111 0
M  V30 13327 C 1278.72 1.57936 1.03449 0
M  V30 13328 O 1278.08 0.758981 1.65969 0
M  V30 13329 C 1278.13 3.5958 -0.372096 0
M  V30 13330 O 1277.85 4.04008 -1.69439 0
M  V30 13331 C 1279.35 4.43251 0.0659884 0
M  V30 13332 H 1276.57 0.655391 -0.143886 0
M  V30 13333 H 1279.12 1.76017 -1.04107 0
M  V30 13334 H 1277.27 3.86399 0.278248 0
M  V30 13335 H 1277.68 4.98511 -1.63054 0
M  V30 13336 H 1279.16 5.52 -0.00614775 0
M  V30 13337 H 1279.64 4.24788 1.11588 0
M  V30 13338 H 1280.24 4.2165 -0.55603 0
M  V30 13339 N 1278.56 0.518393 1.4883 0
M  V30 13340 C 1279.8 -0.0199053 2.0249 0
M  V30 13341 C 1280.13 -1.35375 1.39657 0
M  V30 13342 O 1279.39 -1.88454 0.527586 0
M  V30 13343 C 1279.69 -0.203001 3.56823 0
M  V30 13344 C 1279.35 1.05502 4.38384 0
M  V30 13345 C 1278.01 1.39982 4.60389 0
M  V30 13346 C 1280.37 1.89042 4.85708 0
M  V30 13347 C 1277.69 2.57922 5.26966 0
M  V30 13348 C 1280.05 3.06151 5.53583 0
M  V30 13349 C 1278.71 3.40991 5.73831 0
M  V30 13350 H 1277.98 -0.00728388 0.740964 0
M  V30 13351 H 1280.63 0.682073 1.78941 0
M  V30 13352 H 1278.93 -0.987653 3.79147 0
M  V30 13353 H 1280.63 -0.634234 3.95953 0
M  V30 13354 H 1277.22 0.77647 4.21508 0
M  V30 13355 H 1281.4 1.63716 4.6852 0
M  V30 13356 H 1276.66 2.85132 5.40842 0
M  V30 13357 H 1280.83 3.71198 5.89224 0
M  V30 13358 H 1278.46 4.32479 6.25193 0
M  V30 13359 N 1280.03 -1.55556 0.252993 0
M  V30 13360 C 1281.28 -1.98697 -0.369319 0
M  V30 13361 C 1281.6 -1.14256 -1.58021 0
M  V30 13362 O 1280.87 -0.226779 -1.94583 0
M  V30 13363 H 1279.45 -0.733869 -0.139444 0
M  V30 13364 H 1282.12 -1.91673 0.353197 0
M  V30 13365 H 1281.21 -3.04728 -0.674312 0
M  V30 13366 N 1281.51 0.0200419 -1.57587 0
M  V30 13367 C 1282.42 1.0346 -2.10555 0
M  V30 13368 C 1283.44 1.39035 -1.0462 0
M  V30 13369 O 1284.61 1.48172 -1.36407 0
M  V30 13370 C 1281.68 2.31389 -2.58186 0
M  V30 13371 C 1280.74 2.02311 -3.7864 0
M  V30 13372 C 1279.97 3.24141 -4.23991 0
M  V30 13373 O 1280.2 4.35132 -3.68803 0
M  V30 13374 O 1279.13 3.09312 -5.16342 0
M  V30 13375 H 1282.96 0.614419 -2.9742 0
M  V30 13376 H 1280.54 0.237604 -1.47498 0
M  V30 13377 H 1282.42 3.06582 -2.89112 0
M  V30 13378 H 1281.1 2.72684 -1.74428 0
M  V30 13379 H 1280.01 1.24658 -3.5272 0
M  V30 13380 H 1281.34 1.65866 -4.6341 0
M  V30 13381 N 1282.99 1.54862 0.292472 0
M  V30 13382 C 1284.27 1.65237 1.04671 0
M  V30 13383 C 1284.65 0.506168 2.04942 0
M  V30 13384 O 1284 -0.496123 2.23049 0
M  V30 13385 C 1284.21 3.03618 1.72095 0
M  V30 13386 C 1285.55 3.6072 2.23979 0
M  V30 13387 O 1286.58 3.06126 1.82114 0
M  V30 13388 O 1285.44 4.56328 3.0071 0
M  V30 13389 H 1282.53 0.670347 0.484319 0
M  V30 13390 H 1285.08 1.67206 0.28988 0
M  V30 13391 H 1283.85 3.78482 0.993324 0
M  V30 13392 H 1283.47 3.05464 2.54514 0
M  V30 13393 N 1284.47 -0.556076 1.47464 0
M  V30 13394 C 1285.7 -1.33858 1.57764 0
M  V30 13395 C 1286.11 -1.87415 0.22825 0
M  V30 13396 O 1285.47 -1.65054 -0.778674 0
M  V30 13397 C 1285.52 -2.5077 2.60378 0
M  V30 13398 O 1285.24 -1.99426 3.90078 0
M  V30 13399 C 1286.74 -3.42965 2.80873 0
M  V30 13400 H 1283.96 -0.408003 0.532705 0
M  V30 13401 H 1286.51 -0.673501 1.93091 0
M  V30 13402 H 1284.66 -3.13214 2.27982 0
M  V30 13403 H 1285.07 -2.75759 4.46158 0
M  V30 13404 H 1286.55 -4.21412 3.56533 0
M  V30 13405 H 1287.03 -3.96579 1.88737 0
M  V30 13406 H 1287.63 -2.86336 3.14471 0
M  V30 13407 N 1285.95 -1.35615 -0.802897 0
M  V30 13408 C 1287.17 -1.32377 -1.59659 0
M  V30 13409 C 1287.6 0.0954235 -1.87858 0
M  V30 13410 O 1286.96 1.06336 -1.46842 0
M  V30 13411 C 1287 -2.13972 -2.90256 0
M  V30 13412 O 1286.11 -1.52296 -3.83249 0
M  V30 13413 H 1285.45 -0.453699 -0.484823 0
M  V30 13414 H 1287.98 -1.78708 -0.996217 0
M  V30 13415 H 1287.99 -2.26061 -3.39647 0
M  V30 13416 H 1286.66 -3.17145 -2.69057 0
M  V30 13417 H 1285.24 -1.49068 -3.41809 0
M  V30 13418 N 1287.43 1.02549 -1.19673 0
M  V30 13419 C 1288.39 2.09064 -0.939407 0
M  V30 13420 C 1289.39 1.60593 0.0814837 0
M  V30 13421 O 1290.58 1.73521 -0.153626 0
M  V30 13422 C 1287.71 3.38395 -0.412513 0
M  V30 13423 H 1288.9 2.33325 -1.88413 0
M  V30 13424 H 1286.46 1.19211 -1.01086 0
M  V30 13425 H 1287.19 3.19805 0.538094 0
M  V30 13426 H 1286.98 3.74898 -1.14863 0
M  V30 13427 H 1288.47 4.16841 -0.251678 0
M  V30 13428 N 1288.9 1.00119 1.21713 0
M  V30 13429 C 1289.83 0.578504 2.2622 0
M  V30 13430 C 1290.81 -0.398777 1.6536 0
M  V30 13431 O 1292 -0.287596 1.92059 0
M  V30 13432 C 1289.13 -0.0994508 3.47158 0
M  V30 13433 C 1288.08 0.79722 4.2051 0
M  V30 13434 C 1287.41 -0.0141125 5.34698 0
M  V30 13435 C 1288.71 2.09802 4.7831 0
M  V30 13436 H 1290.4 1.45208 2.6183 0
M  V30 13437 H 1287.95 0.699656 1.2586 0
M  V30 13438 H 1289.9 -0.406605 4.19434 0
M  V30 13439 H 1288.63 -1.00763 3.10667 0
M  V30 13440 H 1287.29 1.08814 3.50079 0
M  V30 13441 H 1286.93 -0.923468 4.9445 0
M  V30 13442 H 1286.63 0.582883 5.84702 0
M  V30 13443 H 1288.16 -0.31517 6.09786 0
M  V30 13444 H 1289.57 1.85427 5.42485 0
M  V30 13445 H 1287.97 2.64455 5.38687 0
M  V30 13446 H 1289.04 2.77132 3.97902 0
M  V30 13447 N 1290.38 -1.37203 0.775435 0
M  V30 13448 C 1291.79 -1.82224 0.406372 0
M  V30 13449 C 1292.14 -1.64587 -1.06796 0
M  V30 13450 O 1291.27 -1.15903 -1.82744 0
M  V30 13451 C 1291.86 -3.30824 0.730819 0
M  V30 13452 C 1290.42 -3.74108 0.414766 0
M  V30 13453 C 1289.57 -2.59679 0.972747 0
M  V30 13454 H 1292.52 -1.25623 0.969775 0
M  V30 13455 H 1292.54 -3.80496 0.0168066 0
M  V30 13456 H 1292.05 -3.43628 1.80392 0
M  V30 13457 H 1290.15 -3.66871 -0.650866 0
M  V30 13458 H 1290.27 -4.70074 0.925595 0
M  V30 13459 H 1288.63 -2.51591 0.396772 0
M  V30 13460 H 1289.41 -2.75274 2.05132 0
M  V30 13461 N 1291.86 -0.526279 -1.48553 0
M  V30 13462 C 1292.82 0.227739 -2.28066 0
M  V30 13463 C 1293.82 0.871146 -1.35158 0
M  V30 13464 O 1295.01 0.731769 -1.58085 0
M  V30 13465 C 1292.14 1.32918 -3.1392 0
M  V30 13466 H 1293.34 -0.470313 -2.96189 0
M  V30 13467 H 1290.89 -0.282089 -1.53733 0
M  V30 13468 H 1291.63 2.0606 -2.50419 0
M  V30 13469 H 1291.41 0.872991 -3.82258 0
M  V30 13470 H 1292.9 1.85964 -3.73908 0
M  V30 13471 N 1293.34 1.5542 -0.261239 0
M  V30 13472 C 1294.75 1.85161 0.239195 0
M  V30 13473 C 1295.1 1.18319 1.56509 0
M  V30 13474 O 1294.22 0.4666 2.1131 0
M  V30 13475 C 1294.82 3.3592 0.440781 0
M  V30 13476 C 1293.38 3.65837 0.885461 0
M  V30 13477 C 1292.53 2.77285 -0.0291982 0
M  V30 13478 H 1295.48 1.51158 -0.483417 0
M  V30 13479 H 1295.5 3.58276 1.28136 0
M  V30 13480 H 1295.01 3.84541 -0.524382 0
M  V30 13481 H 1293.11 3.22705 1.86259 0
M  V30 13482 H 1293.22 4.73469 0.732394 0
M  V30 13483 H 1291.59 2.50045 0.484701 0
M  V30 13484 H 1292.37 3.28716 -0.989992 0
M  V30 13485 N 1294.82 -0.0116844 1.57596 0
M  V30 13486 C 1296.06 -0.697577 1.89679 0
M  V30 13487 C 1296.38 -1.74956 0.861122 0
M  V30 13488 O 1295.65 -1.95629 -0.103031 0
M  V30 13489 H 1294.23 -0.26064 0.700054 0
M  V30 13490 H 1296.9 0.0264782 1.94882 0
M  V30 13491 H 1295.99 -1.17621 2.89088 0
M  V30 13492 N 1296.29 -1.55015 -0.284256 0
M  V30 13493 C 1297.54 -1.74744 -1.01532 0
M  V30 13494 C 1297.86 -0.545334 -1.87219 0
M  V30 13495 O 1297.13 0.440046 -1.90894 0
M  V30 13496 H 1295.71 -0.644382 -0.377864 0
M  V30 13497 H 1298.37 -1.92399 -0.311199 0
M  V30 13498 H 1297.47 -2.64369 -1.65878 0
M  V30 13499 N 1297.77 0.548248 -1.47757 0
M  V30 13500 C 1299.02 1.30243 -1.54535 0
M  V30 13501 C 1299.34 1.93832 -0.213089 0
M  V30 13502 O 1298.61 1.80397 0.763782 0
M  V30 13503 H 1297.19 0.483684 -0.569262 0
M  V30 13504 H 1299.85 0.639485 -1.8411 0
M  V30 13505 H 1298.95 2.09128 -2.31672 0
M  V30 13506 N 1299.25 1.36039 0.795694 0
M  V30 13507 C 1300.5 1.29663 1.55023 0
M  V30 13508 C 1300.82 -0.125588 1.94595 0
M  V30 13509 O 1300.09 -1.06447 1.64456 0
M  V30 13510 H 1298.67 0.476962 0.574906 0
M  V30 13511 H 1301.33 1.70265 0.948471 0
M  V30 13512 H 1300.43 1.91982 2.46068 0
M  V30 13513 N 1300.73 -1.01913 1.20215 0
M  V30 13514 C 1301.95 -1.79613 1.03702 0
M  V30 13515 C 1302.38 -1.83591 -0.409374 0
M  V30 13516 O 1301.74 -1.26911 -1.29473 0
M  V30 13517 C 1301.78 -3.22052 1.62219 0
M  V30 13518 O 1300.89 -4.03374 0.858106 0
M  V30 13519 H 1300.23 -0.554095 0.365889 0
M  V30 13520 H 1302.76 -1.28203 1.59452 0
M  V30 13521 H 1302.77 -3.72772 1.65847 0
M  V30 13522 H 1301.44 -3.18471 2.67487 0
M  V30 13523 H 1300.02 -3.6198 0.895835 0
M  V30 13524 N 1302.21 -1.00763 -1.2118 0
M  V30 13525 C 1303.45 -0.690459 -1.8994 0
M  V30 13526 C 1303.78 0.781464 -1.78656 0
M  V30 13527 O 1303.05 1.56135 -1.18316 0
M  V30 13528 H 1301.63 -0.252397 -0.703068 0
M  V30 13529 H 1304.29 -1.2773 -1.47211 0
M  V30 13530 H 1303.38 -0.96594 -2.96776 0
M  V30 13531 N 1303.68 1.3679 -0.7827 0
M  V30 13532 C 1304.93 1.99023 -0.351316 0
M  V30 13533 C 1305.25 1.62436 1.07887 0
M  V30 13534 O 1304.52 0.895084 1.74256 0
M  V30 13535 H 1303.1 0.736141 -0.126909 0
M  V30 13536 H 1305.77 1.67095 -1.00325 0
M  V30 13537 H 1304.86 3.09015 -0.43774 0
M  V30 13538 N 1305.16 0.53415 1.48272 0
M  V30 13539 C 1306.44 -0.0630181 1.95498 0
M  V30 13540 C 1306.82 -1.50877 1.47646 0
M  V30 13541 O 1306.17 -2.17358 0.704829 0
M  V30 13542 C 1306.38 0.0585475 3.48951 0
M  V30 13543 C 1307.73 -0.0985978 4.24486 0
M  V30 13544 O 1308.75 -0.0150438 3.56197 0
M  V30 13545 O 1307.61 -0.274356 5.45811 0
M  V30 13546 H 1304.7 -0.0769841 0.823409 0
M  V30 13547 H 1307.25 0.599043 1.58775 0
M  V30 13548 H 1306.02 1.06549 3.76514 0
M  V30 13549 H 1305.64 -0.642175 3.9238 0
M  V30 13550 N 1306.64 -1.55279 0.269478 0
M  V30 13551 C 1308.05 -1.85286 -0.229372 0
M  V30 13552 C 1308.4 -1.19148 -1.55879 0
M  V30 13553 O 1307.53 -0.4778 -2.11059 0
M  V30 13554 C 1308.12 -3.3615 -0.42296 0
M  V30 13555 C 1306.68 -3.66301 -0.866047 0
M  V30 13556 C 1305.83 -2.77265 0.0439028 0
M  V30 13557 H 1308.78 -1.509 0.491427 0
M  V30 13558 H 1308.8 -3.5895 -1.26234 0
M  V30 13559 H 1308.31 -3.84258 0.544768 0
M  V30 13560 H 1306.41 -3.23688 -1.84545 0
M  V30 13561 H 1306.53 -4.73851 -0.707274 0
M  V30 13562 H 1304.89 -2.50299 -0.471433 0
M  V30 13563 H 1305.67 -3.28186 1.00741 0
M  V30 13564 N 1308.12 0.00332656 -1.576 0
M  V30 13565 C 1309.35 0.699945 -1.94701 0
M  V30 13566 C 1309.76 1.67492 -0.871312 0
M  V30 13567 O 1309.12 1.81882 0.150054 0
M  V30 13568 C 1309.17 1.43471 -3.31811 0
M  V30 13569 O 1308.89 0.498835 -4.35251 0
M  V30 13570 C 1310.39 2.22614 -3.83351 0
M  V30 13571 H 1307.61 0.195158 -0.641993 0
M  V30 13572 H 1310.16 -0.0468044 -2.04446 0
M  V30 13573 H 1308.31 2.13311 -3.23384 0
M  V30 13574 H 1308.72 1.01688 -5.14548 0
M  V30 13575 H 1310.2 2.69527 -4.81725 0
M  V30 13576 H 1310.68 3.05146 -3.15883 0
M  V30 13577 H 1311.28 1.57796 -3.94944 0
M  V30 13578 O 1309.64 1.60842 0.14566 0
M  V30 13579 H 1310.33 1.77312 0.779763 0
M  V30 END ATOM
M  V30 BEGIN BOND
M  V30 END BOND
M  V30 END CTAB
M  END
$$$$
