drugbank_target|P0C0X2 Inactive dihydropteroate synthase 2 (DB00250)
 OpenBabel12092120043D

  0  0  0     0  0            999 V3000
M  V30 BEGIN CTAB
M  V30 COUNTS 4343 4379 0 0 0
M  V30 BEGIN ATOM
M  V30 1 H -0.908 1.98254 -0.117106 0
M  V30 2 N 0 1.576 0 0
M  V30 3 C 0.933 2.03868 1.02534 0
M  V30 4 C 1.911 0.928543 1.3348 0
M  V30 5 O 3.095 1.19667 1.45644 0
M  V30 6 C 0.222 2.43627 2.35294 0
M  V30 7 C -0.732 3.65373 2.2001 0
M  V30 8 S 0.101 5.13292 1.52614 0
M  V30 9 C 1.257 5.56322 2.86805 0
M  V30 10 H 1.49 2.90518 0.631377 0
M  V30 11 H -0.977 1.52953 0.210867 0
M  V30 12 H 0.981 2.67203 3.11629 0
M  V30 13 H -0.358 1.57376 2.7183 0
M  V30 14 H -1.165 3.90944 3.18086 0
M  V30 15 H -1.563 3.418 1.51819 0
M  V30 16 H 0.729 5.58782 3.83104 0
M  V30 17 H 1.672 6.56266 2.65933 0
M  V30 18 H 2.08 4.83886 2.90714 0
M  V30 19 N 1.4781 -0.272755 1.55222 0
M  V30 20 C 2.4101 -1.35946 1.8453 0
M  V30 21 C 3.4231 -1.45525 0.729818 0
M  V30 22 O 4.6121 -1.47337 1.00767 0
M  V30 23 C 1.7121 -2.74069 1.99347 0
M  V30 24 C 0.8851 -2.87079 3.30007 0
M  V30 25 C -0.0559 -4.05879 3.34886 0
M  V30 26 O -1.0299 -3.96626 4.08261 0
M  V30 27 N 0.1721 -5.17857 2.62307 0
M  V30 28 H 2.9371 -1.11149 2.78327 0
M  V30 29 H 0.4981 -0.462869 1.55142 0
M  V30 30 H 2.4901 -3.51838 1.99981 0
M  V30 31 H 1.0601 -2.91688 1.12415 0
M  V30 32 H 0.2801 -1.96193 3.41909 0
M  V30 33 H 1.5681 -2.92701 4.16177 0
M  V30 34 H 0.9661 -5.28261 2.02377 0
M  V30 35 H -0.4769 -5.93855 2.68663 0
M  V30 36 N 2.9562 -1.48159 -0.537278 0
M  V30 37 C 4.1812 -1.59707 -1.32319 0
M  V30 38 C 4.6062 -0.254859 -1.86365 0
M  V30 39 O 3.9642 0.772378 -1.64024 0
M  V30 40 C 4.0122 -2.6412 -2.45505 0
M  V30 41 O 3.1162 -2.20774 -3.48328 0
M  V30 42 H 2.4572 -0.535791 -0.392204 0
M  V30 43 H 4.9872 -1.94092 -0.647268 0
M  V30 44 H 4.9972 -2.85166 -2.91795 0
M  V30 45 H 3.6722 -3.61567 -2.05528 0
M  V30 46 H 2.2492 -2.09911 -3.08207 0
M  V30 47 N 4.4343 0.785586 -1.36625 0
M  V30 48 C 5.3673 1.90509 -1.25625 0
M  V30 49 C 6.3453 1.62 -0.139607 0
M  V30 50 O 7.5293 1.8591 -0.31141 0
M  V30 51 C 4.6563 3.25419 -0.939158 0
M  V30 52 C 3.7023 3.72856 -2.07077 0
M  V30 53 S 4.5353 3.88162 -3.68904 0
M  V30 54 C 5.6913 5.25942 -3.39317 0
M  V30 55 H 5.9243 1.99549 -2.20381 0
M  V30 56 H 3.4573 0.945226 -1.22085 0
M  V30 57 H 5.4153 4.03346 -0.763029 0
M  V30 58 H 4.0763 3.14099 -0.00931402 0
M  V30 59 H 3.2693 4.70624 -1.80357 0
M  V30 60 H 2.8713 3.01989 -2.20632 0
M  V30 61 H 5.1633 6.10651 -2.93447 0
M  V30 62 H 6.1063 5.57668 -4.36363 0
M  V30 63 H 6.5143 4.93224 -2.74573 0
M  V30 64 N 5.9124 1.20967 1.01018 0
M  V30 65 C 6.8424 0.988272 2.11555 0
M  V30 66 C 7.8234 -0.0849778 1.69888 0
M  V30 67 O 9.0084 0.0738202 1.9406 0
M  V30 68 C 6.1384 0.546528 3.42973 0
M  V30 69 C 5.0924 1.56375 3.9841 0
M  V30 70 C 4.4184 0.97842 5.25672 0
M  V30 71 C 5.7184 2.94922 4.31066 0
M  V30 72 H 7.4124 1.91276 2.30334 0
M  V30 73 H 4.9584 0.921073 1.1069 0
M  V30 74 H 6.9114 0.378839 4.19694 0
M  V30 75 H 5.6354 -0.413598 3.23971 0
M  V30 76 H 4.2944 1.71891 3.23804 0
M  V30 77 H 3.9424 0.0101688 5.02999 0
M  V30 78 H 3.6424 1.65784 5.63728 0
M  V30 79 H 5.1664 0.821939 6.05043 0
M  V30 80 H 6.5804 2.8288 4.9865 0
M  V30 81 H 4.9774 3.5983 4.80253 0
M  V30 82 H 6.0474 3.4616 3.39561 0
M  V30 83 N 7.3905 -1.2043 1.01659 0
M  V30 84 C 8.6305 -1.91507 0.714456 0
M  V30 85 C 8.9945 -1.77073 -0.742237 0
M  V30 86 O 10.1955 -2.42631 -1.15688 0
M  V30 87 C 8.4665 -3.38795 1.13809 0
M  V30 88 S 10.0255 -4.28216 0.957925 0
M  V30 89 H 6.8435 -0.661571 0.260471 0
M  V30 90 H 9.4455 -1.45671 1.30384 0
M  V30 91 H 8.1495 -3.46822 2.19415 0
M  V30 92 H 7.6805 -3.89656 0.541474 0
M  V30 93 H 9.6955 -4.96007 -0.138531 0
M  V30 94 N 8.8686 -0.792821 -1.36206 0
M  V30 95 C 10.1166 -0.366062 -1.98757 0
M  V30 96 C 10.4376 1.0668 -1.63231 0
M  V30 97 O 9.7076 1.73587 -0.907978 0
M  V30 98 H 8.2876 -0.132364 -0.735179 0
M  V30 99 H 10.9496 -1.01562 -1.66347 0
M  V30 100 H 10.0456 -0.460638 -3.08682 0
M  V30 101 N 10.3467 1.47872 -0.545128 0
M  V30 102 C 11.7627 1.5829 -0.204032 0
M  V30 103 C 11.9627 1.54529 1.29317 0
M  V30 104 O 11.0187 1.44232 2.07252 0
M  V30 105 C 12.3317 2.89304 -0.819987 0
M  V30 106 C 13.8797 3.02864 -0.790105 0
M  V30 107 C 14.3547 4.3656 -1.38491 0
M  V30 108 N 15.8457 4.43165 -1.34755 0
M  V30 109 C 16.5807 5.45153 -1.77753 0
M  V30 110 N 16.0767 6.54016 -2.2855 0
M  V30 111 N 17.8697 5.36125 -1.68897 0
M  V30 112 H 10.0207 1.4856 -1.51802 0
M  V30 113 H 12.2837 0.706305 -0.632327 0
M  V30 114 H 11.9897 2.97757 -1.87173 0
M  V30 115 H 11.8637 3.75957 -0.305915 0
M  V30 116 H 14.2507 2.94014 0.252913 0
M  V30 117 H 14.3317 2.17782 -1.34181 0
M  V30 118 H 13.9757 4.46164 -2.42693 0
M  V30 119 H 13.9057 5.20353 -0.808754 0
M  V30 120 H 16.3967 3.65083 -0.975855 0
M  V30 121 H 16.7097 7.27994 -2.59314 0
M  V30 122 H 15.0547 6.54938 -2.32553 0
M  V30 123 H 18.2457 4.49975 -1.28998 0
M  V30 124 H 18.4187 6.15472 -2.02726 0
M  V30 125 N 11.8248 0.280983 1.55075 0
M  V30 126 C 13.2358 -0.215629 1.85451 0
M  V30 127 C 13.5868 -1.54991 1.203 0
M  V30 128 O 12.7118 -2.10699 0.493435 0
M  V30 129 C 13.3068 -0.398026 3.36454 0
M  V30 130 C 11.8658 -0.838866 3.66933 0
M  V30 131 C 11.0128 0.064458 2.77225 0
M  V30 132 H 13.9638 0.502601 1.50531 0
M  V30 133 H 13.9848 -1.23569 3.59876 0
M  V30 134 H 13.4968 0.573241 3.83843 0
M  V30 135 H 11.5978 -1.8214 3.25048 0
M  V30 136 H 11.7108 -0.672123 4.74362 0
M  V30 137 H 10.0748 -0.452863 2.50642 0
M  V30 138 H 10.8578 1.03172 3.2743 0
M  V30 139 N 13.3029 -1.57598 0.00835791 0
M  V30 140 C 14.5489 -1.91211 -0.675732 0
M  V30 141 C 14.8819 -0.883139 -1.72958 0
M  V30 142 O 14.1569 0.097016 -1.94258 0
M  V30 143 C 14.4399 -3.35379 -1.31123 0
M  V30 144 C 14.2929 -4.48999 -0.268356 0
M  V30 145 C 15.6119 -3.7912 -2.23508 0
M  V30 146 H 12.7309 -0.695374 -0.244179 0
M  V30 147 H 15.3729 -1.89901 0.0613655 0
M  V30 148 H 13.5229 -3.36626 -1.93946 0
M  V30 149 H 15.1949 -4.59887 0.360844 0
M  V30 150 H 13.4379 -4.31873 0.408482 0
M  V30 151 H 14.1089 -5.46851 -0.752218 0
M  V30 152 H 16.5849 -3.79477 -1.70693 0
M  V30 153 H 15.4609 -4.80729 -2.64936 0
M  V30 154 H 15.7219 -3.13455 -3.11766 0
M  V30 155 N 14.781 0.264519 -1.55364 0
M  V30 156 C 15.744 1.31046 -1.88042 0
M  V30 157 C 16.744 1.41943 -0.755569 0
M  V30 158 O 17.934 1.40947 -1.02369 0
M  V30 159 C 15.066 2.69067 -2.09323 0
M  V30 160 H 16.259 1.03297 -2.81549 0
M  V30 161 H 13.812 0.502989 -1.47986 0
M  V30 162 H 14.547 3.01982 -1.18226 0
M  V30 163 H 14.332 2.62542 -2.91229 0
M  V30 164 H 15.822 3.44623 -2.35848 0
M  V30 165 N 16.2591 1.48442 0.529413 0
M  V30 166 C 17.2221 1.62524 1.61612 0
M  V30 167 C 18.2221 0.498509 1.52877 0
M  V30 168 O 19.4121 0.76431 1.56537 0
M  V30 169 C 16.5441 1.59597 3.01233 0
M  V30 170 H 17.7371 2.59423 1.50465 0
M  V30 171 H 15.2901 1.37047 0.751514 0
M  V30 172 H 16.0251 0.641781 3.17886 0
M  V30 173 H 15.8101 2.41397 3.08982 0
M  V30 174 H 17.3001 1.72646 3.80241 0
M  V30 175 N 17.7372 -0.778329 1.37039 0
M  V30 176 C 19.0142 -1.52551 1.22424 0
M  V30 177 C 19.3942 -2.10288 -0.184964 0
M  V30 178 O 18.7422 -1.94953 -1.19187 0
M  V30 179 C 18.9522 -2.61164 2.31504 0
M  V30 180 C 20.3002 -3.28746 2.68721 0
M  V30 181 O 21.3242 -2.71455 2.30631 0
M  V30 182 O 20.1832 -4.3231 3.3432 0
M  V30 183 H 17.2772 -0.675343 0.477326 0
M  V30 184 H 19.8232 -0.815859 1.48801 0
M  V30 185 H 18.5952 -2.16574 3.25901 0
M  V30 186 H 18.2182 -3.39737 2.06554 0
M  V30 187 N 19.2153 -1.21501 -1.00376 0
M  V30 188 C 20.6313 -0.972629 -1.26539 0
M  V30 189 C 20.8313 0.340257 -1.98606 0
M  V30 190 O 19.8873 1.06561 -2.28913 0
M  V30 191 C 21.2003 -2.16404 -2.08781 0
M  V30 192 C 22.7483 -2.20643 -2.22004 0
M  V30 193 C 23.2233 -3.39306 -3.07629 0
M  V30 194 N 24.7143 -3.39401 -3.15217 0
M  V30 195 C 25.4493 -4.27867 -3.81729 0
M  V30 196 N 24.9453 -5.26533 -4.5026 0
M  V30 197 N 26.7383 -4.15672 -3.78382 0
M  V30 198 H 18.8893 -2.05929 -0.520281 0
M  V30 199 H 21.1523 -0.901803 -0.292328 0
M  V30 200 H 20.8583 -3.11554 -1.63178 0
M  V30 201 H 20.7323 -2.15567 -3.09533 0
M  V30 202 H 23.1193 -1.26048 -2.66825 0
M  V30 203 H 23.2003 -2.25523 -1.20718 0
M  V30 204 H 22.8443 -4.34195 -2.63509 0
M  V30 205 H 22.7743 -3.31665 -4.09031 0
M  V30 206 H 25.2653 -2.67997 -2.66432 0
M  V30 207 H 25.5783 -5.90337 -4.98721 0
M  V30 208 H 23.9233 -5.30457 -4.49044 0
M  V30 209 H 27.1143 -3.3785 -3.23998 0
M  V30 210 H 27.2873 -4.84825 -4.2994 0
M  V30 211 N 20.6934 1.19889 -1.02296 0
M  V30 212 C 21.6254 2.22334 -0.556787 0
M  V30 213 C 22.6384 1.58674 0.364199 0
M  V30 214 O 23.8274 1.77768 0.161533 0
M  V30 215 C 20.9274 3.38257 0.208694 0
M  V30 216 C 20.1004 4.31504 -0.71577 0
M  V30 217 C 19.1594 5.262 0.00325597 0
M  V30 218 O 18.1854 5.65798 -0.621357 0
M  V30 219 N 19.3874 5.66303 1.27599 0
M  V30 220 H 22.1524 2.62957 -1.43784 0
M  V30 221 H 19.7134 1.34495 -0.901261 0
M  V30 222 H 21.7054 3.98616 0.699111 0
M  V30 223 H 20.2754 2.96472 0.991102 0
M  V30 224 H 19.4954 3.69016 -1.38638 0
M  V30 225 H 20.7834 4.9072 -1.34428 0
M  V30 226 H 20.1814 5.36155 1.80429 0
M  V30 227 H 18.7384 6.28942 1.71102 0
M  V30 228 N 22.1715 0.800033 1.35784 0
M  V30 229 C 23.1015 0.220184 2.3246 0
M  V30 230 C 24.0825 -0.65073 1.57161 0
M  V30 231 O 25.2675 -0.582359 1.85263 0
M  V30 232 C 22.3975 -0.637353 3.41402 0
M  V30 233 C 21.3515 0.134531 4.27789 0
M  V30 234 C 20.6775 -0.844285 5.27992 0
M  V30 235 C 21.9775 1.32979 5.05088 0
M  V30 236 H 23.6715 1.02787 2.81203 0
M  V30 237 H 21.2175 0.495717 1.35199 0
M  V30 238 H 23.1705 -1.05302 4.08031 0
M  V30 239 H 21.8945 -1.47785 2.91251 0
M  V30 240 H 20.5535 0.531296 3.6273 0
M  V30 241 H 20.2015 -1.68011 4.74111 0
M  V30 242 H 19.9015 -0.332184 5.8666 0
M  V30 243 H 21.4255 -1.2583 5.97494 0
M  V30 244 H 22.8395 0.98934 5.64699 0
M  V30 245 H 21.2365 1.77593 5.7322 0
M  V30 246 H 22.3065 2.11978 4.36111 0
M  V30 247 N 23.6496 -1.47581 0.552962 0
M  V30 248 C 24.8986 -2.01684 0.0251995 0
M  V30 249 C 25.2116 -1.43317 -1.33115 0
M  V30 250 O 26.4176 -1.89057 -1.94858 0
M  V30 251 C 24.8736 -3.599 -0.00542052 0
M  V30 252 C 24.4816 -4.27257 1.34742 0
M  V30 253 C 26.2256 -4.21768 -0.4808 0
M  V30 254 C 24.1326 -5.77467 1.27614 0
M  V30 255 H 23.0626 -0.753979 0.00565033 0
M  V30 256 H 25.7136 -1.69616 0.70018 0
M  V30 257 H 24.0956 -3.88911 -0.745961 0
M  V30 258 H 25.2696 -4.09893 2.10534 0
M  V30 259 H 23.5846 -3.77358 1.76039 0
M  V30 260 H 26.1816 -5.31838 -0.55246 0
M  V30 261 H 26.5246 -3.88651 -1.49184 0
M  V30 262 H 27.0576 -3.97273 0.204752 0
M  V30 263 H 23.7966 -6.15196 2.26304 0
M  V30 264 H 23.3166 -5.9718 0.55996 0
M  V30 265 H 24.9956 -6.3959 0.976421 0
M  V30 266 N 25.1277 -0.289203 -1.54924 0
M  V30 267 C 26.0607 0.633823 -2.19221 0
M  V30 268 C 27.0387 1.14174 -1.15772 0
M  V30 269 O 28.2227 1.21211 -1.44361 0
M  V30 270 C 25.3497 1.86592 -2.82668 0
M  V30 271 C 24.3957 1.49227 -3.99542 0
M  V30 272 S 25.2287 0.558312 -5.32582 0
M  V30 273 C 26.3847 1.79847 -5.99505 0
M  V30 274 H 26.6177 0.0875416 -2.97171 0
M  V30 275 H 24.1507 -0.0733899 -1.54225 0
M  V30 276 H 26.1087 2.57305 -3.19851 0
M  V30 277 H 24.7697 2.38335 -2.04585 0
M  V30 278 H 23.9627 2.40945 -4.42676 0
M  V30 279 H 23.5647 0.865193 -3.63855 0
M  V30 280 H 25.8567 2.7406 -6.19595 0
M  V30 281 H 26.7997 1.4099 -6.93922 0
M  V30 282 H 27.2077 1.96982 -5.29016 0
M  V30 283 N 26.6058 1.57591 -0.0167156 0
M  V30 284 C 27.5688 2.08393 0.954204 0
M  V30 285 C 28.5688 0.996531 1.26198 0
M  V30 286 O 29.7588 1.25858 1.20438 0
M  V30 287 C 26.8908 2.5394 2.27436 0
M  V30 288 H 28.0838 2.95455 0.514451 0
M  V30 289 H 25.6368 1.54582 0.231089 0
M  V30 290 H 26.3718 1.70171 2.76066 0
M  V30 291 H 26.1568 3.33371 2.06412 0
M  V30 292 H 27.6468 2.93512 2.97053 0
M  V30 293 N 28.0839 -0.256276 1.55502 0
M  V30 294 C 29.3329 -0.983486 1.76098 0
M  V30 295 C 29.6459 -1.86837 0.578896 0
M  V30 296 O 30.8519 -2.63163 0.667648 0
M  V30 297 C 29.3079 -1.79868 3.1173 0
M  V30 298 C 28.9159 -0.961648 4.37557 0
M  V30 299 C 30.6599 -2.51919 3.41668 0
M  V30 300 C 28.5669 -1.77219 5.64223 0
M  V30 301 H 27.4969 -0.370936 0.656447 0
M  V30 302 H 30.1479 -0.238492 1.81944 0
M  V30 303 H 28.5299 -2.58527 2.99966 0
M  V30 304 H 29.7039 -0.218048 4.60284 0
M  V30 305 H 28.0189 -0.354913 4.14885 0
M  V30 306 H 30.6159 -3.12998 4.33516 0
M  V30 307 H 30.9589 -3.23059 2.62562 0
M  V30 308 H 31.4919 -1.80278 3.54605 0
M  V30 309 H 28.2309 -1.10471 6.46124 0
M  V30 310 H 27.7509 -2.49132 5.45613 0
M  V30 311 H 29.4299 -2.34169 6.03137 0
M  V30 312 N 29.562 -1.4872 -0.521534 0
M  V30 313 C 30.808 -1.574 -1.27879 0
M  V30 314 C 31.141 -0.250817 -1.92573 0
M  V30 315 O 30.416 0.743934 -1.79711 0
M  V30 316 C 30.699 -2.71843 -2.36164 0
M  V30 317 C 30.552 -4.13893 -1.76105 0
M  V30 318 C 31.871 -2.82008 -3.37875 0
M  V30 319 H 28.99 -0.572941 -0.463581 0
M  V30 320 H 31.632 -1.80927 -0.580119 0
M  V30 321 H 29.782 -2.51914 -2.95756 0
M  V30 322 H 31.454 -4.45284 -1.20499 0
M  V30 323 H 29.697 -4.20498 -1.06601 0
M  V30 324 H 30.368 -4.89804 -2.5455 0
M  V30 325 H 32.844 -3.00086 -2.88249 0
M  V30 326 H 31.72 -3.63796 -4.11028 0
M  V30 327 H 31.981 -1.90511 -3.98946 0
M  V30 328 N 31.0401 0.771051 -1.3745 0
M  V30 329 C 31.9881 1.90574 -1.33358 0
M  V30 330 C 32.9821 1.67936 -0.22224 0
M  V30 331 O 34.1881 1.75717 -0.390304 0
M  V30 332 H 30.5631 0.626714 -0.415612 0
M  V30 333 H 32.5341 1.91142 -2.29144 0
M  V30 334 C 31.2831 3.27845 -1.15813 0
M  V30 335 H 30.6061 3.45842 -2.00583 0
M  V30 336 H 32.0461 4.07538 -1.17 0
M  V30 337 C 30.5051 3.36625 0.136165 0
M  V30 338 O 31.0351 3.85785 1.11949 0
M  V30 339 N 29.2411 2.89997 0.187099 0
M  V30 340 H 28.7881 2.50182 -0.613753 0
M  V30 341 H 28.7461 2.96252 1.05272 0
M  V30 342 N 32.5182 1.22032 0.997298 0
M  V30 343 C 33.9342 0.979326 1.26021 0
M  V30 344 C 34.1342 -0.32972 1.98784 0
M  V30 345 O 33.1902 -1.05345 2.29475 0
M  V30 346 C 34.5032 2.17509 2.07631 0
M  V30 347 C 36.0512 2.21817 2.2083 0
M  V30 348 C 36.5262 3.40933 3.05825 0
M  V30 349 N 38.0172 3.41067 3.13412 0
M  V30 350 C 38.7522 4.29885 3.79455 0
M  V30 351 N 38.2482 5.28914 4.47462 0
M  V30 352 N 40.0412 4.17673 3.76173 0
M  V30 353 H 32.1922 2.06202 0.509352 0
M  V30 354 H 34.4552 0.90334 0.287541 0
M  V30 355 H 34.1612 3.12415 1.61524 0
M  V30 356 H 34.0352 2.17206 3.08385 0
M  V30 357 H 36.4222 1.27462 2.66153 0
M  V30 358 H 36.5032 2.2616 1.1952 0
M  V30 359 H 36.1472 4.35586 2.61203 0
M  V30 360 H 36.0772 3.33829 4.07266 0
M  V30 361 H 38.5682 2.69406 2.65007 0
M  V30 362 H 38.8812 5.92973 4.95583 0
M  V30 363 H 37.2262 5.32831 4.46224 0
M  V30 364 H 40.4172 3.39564 3.22202 0
M  V30 365 H 40.5902 4.87098 4.27363 0
M  V30 366 N 33.9963 -1.19345 1.0293 0
M  V30 367 C 35.2243 -1.92997 0.745644 0
M  V30 368 C 35.6393 -1.75519 -0.695589 0
M  V30 369 O 34.9963 -1.07737 -1.47306 0
M  V30 370 C 35.0473 -3.44741 1.08792 0
M  V30 371 O 34.7683 -3.61658 2.47256 0
M  V30 372 C 36.2693 -4.35515 0.827129 0
M  V30 373 H 33.4893 -0.613042 0.272801 0
M  V30 374 H 36.0333 -1.51473 1.3739 0
M  V30 375 H 34.1883 -3.84097 0.504832 0
M  V30 376 H 34.6023 -4.55514 2.60015 0
M  V30 377 H 36.0763 -5.40589 1.11658 0
M  V30 378 H 36.5533 -4.38552 -0.238436 0
M  V30 379 H 37.1593 -4.01841 1.39297 0
M  V30 380 N 35.4744 -0.807222 -1.35358 0
M  V30 381 C 36.8854 -0.44876 -1.81226 0
M  V30 382 C 37.2364 1.02929 -1.67033 0
M  V30 383 O 36.3614 1.79991 -1.20133 0
M  V30 384 C 36.9564 -0.807774 -3.2903 0
M  V30 385 C 35.5154 -0.501901 -3.73039 0
M  V30 386 C 34.6624 -1.03304 -2.57339 0
M  V30 387 H 37.6134 -0.998808 -1.23327 0
M  V30 388 H 37.6344 -0.10554 -3.80354 0
M  V30 389 H 37.1464 -1.88357 -3.39328 0
M  V30 390 H 35.2474 0.565128 -3.68289 0
M  V30 391 H 35.3604 -1.03497 -4.67787 0
M  V30 392 H 33.7244 -0.455339 -2.50597 0
M  V30 393 H 34.5074 -2.11496 -2.70415 0
M  V30 394 N 36.9525 1.47285 -0.560781 0
M  V30 395 C 38.2295 1.9558 0.0277798 0
M  V30 396 C 38.6095 1.5034 1.48192 0
M  V30 397 O 37.9575 0.743882 2.16052 0
M  V30 398 C 38.1675 3.48789 -0.121418 0
M  V30 399 C 39.5155 4.24594 0.0220912 0
M  V30 400 O 40.5395 3.56166 -0.0491439 0
M  V30 401 O 39.3985 5.46217 0.175958 0
M  V30 402 H 36.4925 0.824663 0.0621342 0
M  V30 403 H 39.0385 1.5767 -0.627556 0
M  V30 404 H 37.8105 3.74533 -1.13316 0
M  V30 405 H 37.4335 3.93473 0.571366 0
M  V30 406 N 38.4306 0.297415 1.54768 0
M  V30 407 C 39.6556 -0.318435 2.04941 0
M  V30 408 C 40.0806 -1.4701 1.17345 0
M  V30 409 O 39.4386 -1.80436 0.176758 0
M  V30 410 C 39.4866 -0.755749 3.52592 0
M  V30 411 O 38.5906 -1.86088 3.68028 0
M  V30 412 H 37.9316 -0.062421 0.661059 0
M  V30 413 H 40.4616 0.438215 1.99852 0
M  V30 414 H 40.4716 -1.04552 3.94376 0
M  V30 415 H 39.1466 0.0867233 4.1581 0
M  V30 416 H 37.7236 -1.57193 3.38149 0
M  V30 417 N 39.9087 -1.5758 0.0250728 0
M  V30 418 C 41.1557 -1.91633 -0.654444 0
M  V30 419 C 41.4837 -0.901103 -1.72367 0
M  V30 420 O 40.7387 0.0905647 -1.9549 0
M  V30 421 C 41.0377 -3.32421 -1.31268 0
M  V30 422 C 40.7037 -4.49344 -0.374223 0
M  V30 423 C 39.3657 -4.8106 -0.115911 0
M  V30 424 C 41.7177 -5.20498 0.270432 0
M  V30 425 C 39.0457 -5.8129 0.79493 0
M  V30 426 C 41.3977 -6.21699 1.1693 0
M  V30 427 C 40.0617 -6.51859 1.43655 0
M  V30 428 H 39.3317 -0.701236 -0.239478 0
M  V30 429 H 41.9787 -1.91307 0.0859734 0
M  V30 430 H 40.2837 -3.28989 -2.12775 0
M  V30 431 H 41.9807 -3.56038 -1.84494 0
M  V30 432 H 38.5707 -4.24579 -0.58573 0
M  V30 433 H 42.7547 -4.96229 0.0839194 0
M  V30 434 H 38.0107 -6.03005 1.00973 0
M  V30 435 H 42.1847 -6.75955 1.67504 0
M  V30 436 H 39.8117 -7.2934 2.144 0
M  V30 437 N 41.3868 0.248026 -1.55636 0
M  V30 438 C 42.6168 0.992367 -1.81206 0
M  V30 439 C 43.0248 1.7949 -0.598324 0
M  V30 440 O 42.3678 1.78292 0.442434 0
M  V30 441 C 42.4298 1.97926 -3.00109 0
M  V30 442 C 42.0938 1.36377 -4.36177 0
M  V30 443 C 43.0908 0.76682 -5.14214 0
M  V30 444 C 40.7758 1.38347 -4.82872 0
M  V30 445 C 42.7698 0.197778 -6.37093 0
M  V30 446 C 40.4568 0.810574 -6.057 0
M  V30 447 C 41.4548 0.218754 -6.8265 0
M  V30 448 O 41.1428 -0.345298 -8.03158 0
M  V30 449 H 40.8748 0.297704 -0.606917 0
M  V30 450 H 43.4288 0.276517 -2.0353 0
M  V30 451 H 41.6588 2.73339 -2.73538 0
M  V30 452 H 43.3478 2.58694 -3.12781 0
M  V30 453 H 44.1138 0.744114 -4.79258 0
M  V30 454 H 39.9928 1.8335 -4.2297 0
M  V30 455 H 43.5368 -0.264788 -6.97097 0
M  V30 456 H 39.4338 0.830604 -6.40134 0
M  V30 457 H 40.2018 -0.237055 -8.18157 0
M  V30 458 N 42.8649 1.48995 0.513639 0
M  V30 459 C 44.1419 1.48338 1.27495 0
M  V30 460 C 44.5219 0.204065 2.10111 0
M  V30 461 O 43.8699 -0.813881 2.13514 0
M  V30 462 C 44.0799 2.75498 2.14247 0
M  V30 463 C 45.4279 3.24484 2.73852 0
M  V30 464 O 46.4519 2.76528 2.24523 0
M  V30 465 O 45.3109 4.07974 3.6362 0
M  V30 466 H 42.4049 0.593149 0.576284 0
M  V30 467 H 44.9509 1.61246 0.528948 0
M  V30 468 H 43.7229 3.60109 1.53092 0
M  V30 469 H 43.3459 2.6539 2.96064 0
M  V30 470 N 44.343 -0.763751 1.37857 0
M  V30 471 C 45.759 -1.06542 1.18832 0
M  V30 472 C 45.959 -2.01478 0.0299722 0
M  V30 473 O 45.015 -2.4458 -0.627447 0
M  V30 474 C 46.328 -1.65525 2.51042 0
M  V30 475 C 47.876 -1.77745 2.57635 0
M  V30 476 C 48.351 -2.4014 3.89996 0
M  V30 477 N 49.842 -2.47582 3.91481 0
M  V30 478 C 50.577 -2.96732 4.9065 0
M  V30 479 N 50.073 -3.45993 6.00217 0
M  V30 480 N 51.866 -2.95679 4.78048 0
M  V30 481 H 44.017 -0.133556 2.1198 0
M  V30 482 H 46.28 -0.121879 0.940133 0
M  V30 483 H 45.986 -1.03236 3.36207 0
M  V30 484 H 45.86 -2.64719 2.68707 0
M  V30 485 H 48.247 -2.39164 1.72872 0
M  V30 486 H 48.328 -0.772836 2.43846 0
M  V30 487 H 47.972 -1.79358 4.75177 0
M  V30 488 H 47.902 -3.41223 4.01092 0
M  V30 489 H 50.393 -2.1273 3.12337 0
M  V30 490 H 50.706 -3.81922 6.7183 0
M  V30 491 H 49.051 -3.44077 6.03851 0
M  V30 492 H 52.242 -2.56499 3.91568 0
M  V30 493 H 52.415 -3.33672 5.55488 0
M  V30 494 N 45.8211 -1.22559 -0.990812 0
M  V30 495 C 47.0691 -1.04933 -1.72724 0
M  V30 496 C 47.3901 0.416158 -1.90508 0
M  V30 497 O 46.6601 1.29918 -1.46622 0
M  V30 498 H 45.2401 -0.385296 -0.639965 0
M  V30 499 H 47.9021 -1.54105 -1.19322 0
M  V30 500 H 46.9981 -1.52886 -2.72089 0
M  V30 501 N 47.2992 1.18797 -1.03562 0
M  V30 502 C 48.2622 2.20464 -0.626769 0
M  V30 503 C 49.2622 1.57721 0.313173 0
M  V30 504 O 50.4522 1.73917 0.0992615 0
M  V30 505 C 47.5842 3.40802 0.0818498 0
M  V30 506 H 48.7772 2.58149 -1.5264 0
M  V30 507 H 46.3302 1.32593 -0.827578 0
M  V30 508 H 47.0652 3.08642 0.995518 0
M  V30 509 H 46.8502 3.8758 -0.593652 0
M  V30 510 H 48.3402 4.16092 0.354584 0
M  V30 511 N 48.7773 0.814389 1.34928 0
M  V30 512 C 50.0053 0.411136 2.02774 0
M  V30 513 C 50.4203 -0.980316 1.61354 0
M  V30 514 O 49.7773 -1.63299 0.814847 0
M  V30 515 C 49.8283 0.493865 3.58111 0
M  V30 516 O 49.5493 1.83047 3.98027 0
M  V30 517 C 51.0503 0.0844174 4.4322 0
M  V30 518 H 48.2703 0.166037 0.650133 0
M  V30 519 H 50.8143 1.10018 1.72384 0
M  V30 520 H 48.9693 -0.147006 3.87121 0
M  V30 521 H 49.3833 1.79872 4.92693 0
M  V30 522 H 50.8573 0.193404 5.51661 0
M  V30 523 H 51.3343 -0.97113 4.28329 0
M  V30 524 H 51.9403 0.69875 4.19521 0
M  V30 525 N 50.2554 -1.46986 0.568584 0
M  V30 526 C 51.5024 -2.02441 0.0487986 0
M  V30 527 C 51.8304 -1.44169 -1.30559 0
M  V30 528 O 51.0854 -0.591213 -1.86556 0
M  V30 529 C 51.3844 -3.57306 -0.081836 0
M  V30 530 C 51.0504 -4.34552 1.20313 0
M  V30 531 C 49.7124 -4.55376 1.5552 0
M  V30 532 C 52.0644 -4.79016 2.05411 0
M  V30 533 C 49.3924 -5.17913 2.7565 0
M  V30 534 C 51.7444 -5.42879 3.24754 0
M  V30 535 C 50.4084 -5.61933 3.60261 0
M  V30 536 H 49.6784 -0.740785 0.0178567 0
M  V30 537 H 52.3254 -1.76525 0.742384 0
M  V30 538 H 50.6304 -3.8228 -0.858463 0
M  V30 539 H 52.3274 -3.97876 -0.499546 0
M  V30 540 H 48.9174 -4.18631 0.919014 0
M  V30 541 H 53.1014 -4.62696 1.79516 0
M  V30 542 H 48.3574 -5.30858 3.03315 0
M  V30 543 H 52.5314 -5.76293 3.90973 0
M  V30 544 H 50.1584 -6.10161 4.53439 0
M  V30 545 N 51.7335 -0.305618 -1.54608 0
M  V30 546 C 52.9585 0.307562 -2.05107 0
M  V30 547 C 53.3835 1.46385 -1.18123 0
M  V30 548 O 52.7415 1.8034 -0.186324 0
M  V30 549 C 52.7895 0.73704 -3.52987 0
M  V30 550 O 51.8935 1.84134 -3.6901 0
M  V30 551 H 51.2345 0.0589143 -0.661381 0
M  V30 552 H 53.7645 -0.448807 -1.99617 0
M  V30 553 H 53.7745 1.02459 -3.94925 0
M  V30 554 H 52.4495 -0.108773 -4.15758 0
M  V30 555 H 51.0265 1.55398 -3.38978 0
M  V30 556 N 53.2116 1.57565 -0.0334293 0
M  V30 557 C 54.4886 1.83282 0.683163 0
M  V30 558 C 54.8686 0.91823 1.90084 0
M  V30 559 O 54.2166 -0.025113 2.28486 0
M  V30 560 C 54.4266 3.32599 1.0573 0
M  V30 561 C 55.7746 3.99179 1.44711 0
M  V30 562 O 56.7986 3.3712 1.15015 0
M  V30 563 O 55.6576 5.08565 2.0006 0
M  V30 564 H 52.7516 0.755869 0.335546 0
M  V30 565 H 55.2976 1.69589 -0.0614402 0
M  V30 566 H 54.0696 3.90834 0.190828 0
M  V30 567 H 53.6926 3.51415 1.85993 0
M  V30 568 N 54.6897 -0.239769 1.55765 0
M  V30 569 C 55.5997 -1.31831 1.94056 0
M  V30 570 C 56.6157 -1.52275 0.841925 0
M  V30 571 O 57.7917 -1.65759 1.14394 0
M  V30 572 C 54.8567 -2.65156 2.23368 0
M  V30 573 C 53.9177 -2.53173 3.46701 0
M  V30 574 C 53.1507 -3.8014 3.74606 0
M  V30 575 O 53.3737 -4.82343 3.04469 0
M  V30 576 O 52.3077 -3.78344 4.68123 0
M  V30 577 H 56.1337 -1.02347 2.85935 0
M  V30 578 H 53.7187 -0.441123 1.42739 0
M  V30 579 H 55.6007 -3.43929 2.43497 0
M  V30 580 H 54.2757 -2.94358 1.34666 0
M  V30 581 H 53.1827 -1.72662 3.31871 0
M  V30 582 H 54.5157 -2.28915 4.35728 0
M  V30 583 N 56.1678 -1.49265 -0.50573 0
M  V30 584 C 57.1308 -1.65075 -1.59006 0
M  V30 585 C 58.1308 -0.522768 -1.52065 0
M  V30 586 O 59.3208 -0.789117 -1.55302 0
M  V30 587 C 56.4528 -1.64369 -2.98656 0
M  V30 588 H 57.6458 -2.61784 -1.46319 0
M  V30 589 H 55.1988 -1.38226 -0.729616 0
M  V30 590 H 55.9338 -0.692272 -3.16825 0
M  V30 591 H 55.7188 -2.46282 -3.05103 0
M  V30 592 H 57.2088 -1.78674 -3.77446 0
M  V30 593 N 57.6459 0.756429 -1.3826 0
M  V30 594 C 58.6089 1.85176 -1.35065 0
M  V30 595 C 59.6089 1.58818 -0.251703 0
M  V30 596 O 60.7989 1.66615 -0.508433 0
M  V30 597 C 57.9309 3.22596 -1.10201 0
M  V30 598 H 59.1239 1.89417 -2.3251 0
M  V30 599 H 56.6769 0.95783 -1.23512 0
M  V30 600 H 57.4119 3.24025 -0.133504 0
M  V30 601 H 57.1969 3.43122 -1.89762 0
M  V30 602 H 58.6869 4.02673 -1.10654 0
M  V30 603 N 59.124 1.23083 0.984299 0
M  V30 604 C 60.54 0.992637 1.24975 0
M  V30 605 C 60.74 -0.308618 1.99123 0
M  V30 606 O 59.796 -1.02905 2.30579 0
M  V30 607 C 61.109 2.19698 2.05312 0
M  V30 608 C 62.657 2.24147 2.18465 0
M  V30 609 C 63.132 3.44157 3.02192 0
M  V30 610 N 64.623 3.44372 3.09777 0
M  V30 611 C 65.358 4.33886 3.74874 0
M  V30 612 N 64.854 5.3363 4.41827 0
M  V30 613 N 66.647 4.21639 3.71721 0
M  V30 614 H 58.798 2.06731 0.487453 0
M  V30 615 H 61.061 0.906339 0.277944 0
M  V30 616 H 60.767 3.1411 1.58201 0
M  V30 617 H 60.641 2.20465 3.06064 0
M  V30 618 H 63.028 1.30277 2.64786 0
M  V30 619 H 63.109 2.27415 1.17115 0
M  V30 620 H 62.753 4.38332 2.56568 0
M  V30 621 H 62.683 3.3813 4.03702 0
M  V30 622 H 65.174 2.72201 2.62135 0
M  V30 623 H 65.487 5.98196 4.89266 0
M  V30 624 H 63.832 5.37534 4.40548 0
M  V30 625 H 67.023 3.42962 3.18582 0
M  V30 626 H 67.196 4.91604 4.22173 0
M  V30 627 N 60.6021 -1.18246 1.0419 0
M  V30 628 C 61.5651 -2.20128 0.638452 0
M  V30 629 C 62.5651 -1.57885 -0.304805 0
M  V30 630 O 63.7551 -1.73967 -0.0900369 0
M  V30 631 C 60.8871 -3.4084 -0.0637751 0
M  V30 632 H 62.0801 -2.57336 1.54007 0
M  V30 633 H 59.6331 -1.32152 0.834598 0
M  V30 634 H 60.3681 -3.09166 -0.979136 0
M  V30 635 H 60.1531 -3.8726 0.614198 0
M  V30 636 H 61.6431 -4.16274 -0.332512 0
M  V30 637 N 62.0802 -0.821533 -1.34494 0
M  V30 638 C 63.0432 -0.247847 -2.27856 0
M  V30 639 C 64.0432 0.573453 -1.50227 0
M  V30 640 O 65.2332 0.389759 -1.69784 0
M  V30 641 C 62.3652 0.652698 -3.34593 0
M  V30 642 H 63.5582 -1.07146 -2.80107 0
M  V30 643 H 61.1112 -0.593291 -1.44602 0
M  V30 644 H 61.8462 1.49943 -2.87555 0
M  V30 645 H 61.6312 0.065292 -3.92046 0
M  V30 646 H 63.1212 1.04793 -4.04238 0
M  V30 647 N 63.5583 1.46682 -0.576371 0
M  V30 648 C 64.5213 2.28707 0.150239 0
M  V30 649 C 65.5213 1.38035 0.824794 0
M  V30 650 O 66.7113 1.60476 0.677719 0
M  V30 651 C 63.8433 3.18248 1.22192 0
M  V30 652 H 65.0363 2.94423 -0.570521 0
M  V30 653 H 62.5893 1.52688 -0.334078 0
M  V30 654 H 63.3243 2.57265 1.97447 0
M  V30 655 H 63.1093 3.85 0.742812 0
M  V30 656 H 64.5993 3.80001 1.73172 0
M  V30 657 N 65.0364 0.313813 1.54444 0
M  V30 658 C 65.9864 -0.571898 2.20711 0
M  V30 659 C 66.9704 -1.08913 1.18435 0
M  V30 660 O 68.1624 -1.02777 1.44104 0
M  V30 661 C 65.2914 -1.7371 2.96108 0
M  V30 662 C 64.3774 -1.23522 4.05713 0
M  V30 663 N 64.7684 -0.452288 5.03774 0
M  V30 664 C 63.0664 -1.51482 4.19487 0
M  V30 665 C 63.7674 -0.183438 5.81411 0
M  V30 666 N 62.7434 -0.766845 5.38164 0
M  V30 667 H 66.5454 0.0336802 2.93881 0
M  V30 668 H 64.0594 0.119192 1.61962 0
M  V30 669 H 66.0564 -2.38329 3.4206 0
M  V30 670 H 64.7164 -2.34625 2.24458 0
M  V30 671 H 65.7274 -0.0960131 5.17811 0
M  V30 672 H 62.4044 -2.13053 3.59047 0
M  V30 673 H 63.7944 0.446216 6.70417 0
M  V30 674 N 66.5145 -1.57545 0.0417849 0
M  V30 675 C 67.9305 -1.56467 -0.314704 0
M  V30 676 C 68.1305 -1.04859 -1.72066 0
M  V30 677 O 67.1865 -0.700983 -2.42575 0
M  V30 678 C 68.4995 -3.00317 -0.15174 0
M  V30 679 C 70.0475 -3.12201 -0.223553 0
M  V30 680 C 70.5225 -4.57913 -0.0892295 0
M  V30 681 N 72.0135 -4.6297 -0.145808 0
M  V30 682 C 72.7485 -5.73362 -0.0658459 0
M  V30 683 N 72.2445 -6.92769 0.0659282 0
M  V30 684 N 74.0375 -5.6197 -0.12075 0
M  V30 685 H 66.1885 -1.89416 0.961014 0
M  V30 686 H 68.4515 -0.871862 0.372237 0
M  V30 687 H 68.1575 -3.42073 0.817254 0
M  V30 688 H 68.0315 -3.65892 -0.916692 0
M  V30 689 H 70.4185 -2.70349 -1.18301 0
M  V30 690 H 70.4995 -2.49323 0.571994 0
M  V30 691 H 70.1435 -5.00448 0.866867 0
M  V30 692 H 70.0735 -5.18786 -0.903802 0
M  V30 693 H 72.5645 -3.7709 -0.247286 0
M  V30 694 H 72.8775 -7.72707 0.119905 0
M  V30 695 H 71.2225 -6.94927 0.100885 0
M  V30 696 H 74.4135 -4.67572 -0.222187 0
M  V30 697 H 74.5865 -6.47977 -0.0549735 0
M  V30 698 N 67.9926 0.231505 -1.5589 0
M  V30 699 C 68.9556 1.27028 -1.90779 0
M  V30 700 C 69.9556 1.40308 -0.785507 0
M  V30 701 O 71.1456 1.38744 -1.05336 0
M  V30 702 C 68.2776 2.64566 -2.14983 0
M  V30 703 H 69.4706 0.973017 -2.83677 0
M  V30 704 H 67.0236 0.471486 -1.49019 0
M  V30 705 H 67.7586 2.99406 -1.24604 0
M  V30 706 H 67.5436 2.56305 -2.96732 0
M  V30 707 H 69.0336 3.39543 -2.43105 0
M  V30 708 N 69.4707 1.49531 0.497807 0
M  V30 709 C 70.7167 1.59415 1.25358 0
M  V30 710 C 71.0497 0.281422 1.9215 0
M  V30 711 O 70.3247 -0.715249 1.80871 0
M  V30 712 C 70.6077 2.75566 2.3181 0
M  V30 713 C 70.4607 4.16642 1.69498 0
M  V30 714 C 71.7797 2.87347 3.33346 0
M  V30 715 H 68.8987 0.580244 0.454408 0
M  V30 716 H 71.5407 1.81827 0.551262 0
M  V30 717 H 69.6907 2.56587 2.91711 0
M  V30 718 H 71.3627 4.47145 1.13399 0
M  V30 719 H 69.6057 4.22141 0.998978 0
M  V30 720 H 70.2767 4.93792 2.46725 0
M  V30 721 H 72.7527 3.04634 2.83438 0
M  V30 722 H 71.6287 3.70289 4.05188 0
M  V30 723 H 71.8897 1.96834 3.95865 0
M  V30 724 N 70.9488 -0.749086 1.3866 0
M  V30 725 C 71.9118 -1.84457 1.36045 0
M  V30 726 C 72.9118 -1.58682 0.260122 0
M  V30 727 O 74.1018 -1.66343 0.517261 0
M  V30 728 C 71.2338 -3.22008 1.11911 0
M  V30 729 H 72.4268 -1.88182 2.33512 0
M  V30 730 H 69.9798 -0.951266 1.24019 0
M  V30 731 H 70.7148 -3.2395 0.150686 0
M  V30 732 H 70.4998 -3.42111 1.91579 0
M  V30 733 H 71.9898 -4.0208 1.12788 0
M  V30 734 N 72.4269 -1.23603 -0.977757 0
M  V30 735 C 73.3369 -1.03632 -2.1047 0
M  V30 736 C 74.3529 0.0199435 -1.73989 0
M  V30 737 O 75.5289 -0.176076 -2.00629 0
M  V30 738 C 72.5939 -0.63276 -3.40877 0
M  V30 739 C 71.6549 -1.76437 -3.91367 0
M  V30 740 C 70.8879 -1.37997 -5.15551 0
M  V30 741 O 71.1109 -0.265357 -5.69782 0
M  V30 742 O 70.0449 -2.20201 -5.60174 0
M  V30 743 H 73.8709 -1.98086 -2.30208 0
M  V30 744 H 71.4559 -1.02332 -1.08851 0
M  V30 745 H 73.3379 -0.418761 -4.19314 0
M  V30 746 H 72.0129 0.282754 -3.22463 0
M  V30 747 H 70.9199 -2.03304 -3.14036 0
M  V30 748 H 72.2529 -2.6583 -4.14241 0
M  V30 749 N 73.905 1.17692 -1.04816 0
M  V30 750 C 75.153 1.87488 -0.754497 0
M  V30 751 C 75.474 1.81205 0.720407 0
M  V30 752 O 74.744 1.23544 1.52032 0
M  V30 753 H 73.324 0.694101 -0.276102 0
M  V30 754 H 75.986 1.42793 -1.32651 0
M  V30 755 H 75.082 2.93328 -1.06606 0
M  V30 756 N 75.3831 0.828654 1.34056 0
M  V30 757 C 76.3461 0.259927 2.27721 0
M  V30 758 C 77.3461 -0.565478 1.50529 0
M  V30 759 O 78.5361 -0.38075 1.69988 0
M  V30 760 C 75.6681 -0.634944 3.34935 0
M  V30 761 H 76.8611 1.0863 2.79534 0
M  V30 762 H 74.4141 0.600951 1.44285 0
M  V30 763 H 75.1491 -1.48416 2.88346 0
M  V30 764 H 74.9341 -0.0444999 3.92075 0
M  V30 765 H 76.4241 -1.02648 4.04788 0
M  V30 766 N 76.8612 -1.46375 0.584142 0
M  V30 767 C 78.1382 -1.956 0.0033388 0
M  V30 768 C 78.5182 -1.52679 -1.45782 0
M  V30 769 O 77.8662 -0.77816 -2.14842 0
M  V30 770 C 78.0762 -3.48551 0.176891 0
M  V30 771 C 79.4242 -4.24576 0.0454609 0
M  V30 772 O 80.4482 -3.56043 0.105801 0
M  V30 773 O 79.3072 -5.46427 -0.0890376 0
M  V30 774 H 76.4012 -0.825547 -0.0490066 0
M  V30 775 H 78.9472 -1.56652 0.65256 0
M  V30 776 H 77.7192 -3.72683 1.1926 0
M  V30 777 H 77.3422 -3.94332 -0.508695 0
M  V30 778 N 78.3393 -0.321999 -1.54275 0
M  V30 779 C 79.5853 0.281461 -2.00837 0
M  V30 780 C 79.9183 1.51909 -1.20985 0
M  V30 781 O 79.1933 1.923 -0.291733 0
M  V30 782 C 79.4763 0.617162 -3.54772 0
M  V30 783 C 79.3293 -0.631064 -4.45351 0
M  V30 784 C 80.6483 1.43542 -4.16033 0
M  V30 785 H 77.7673 0.100826 -0.730071 0
M  V30 786 H 80.4093 -0.438268 -1.84876 0
M  V30 787 H 78.5593 1.23034 -3.68504 0
M  V30 788 H 80.2313 -1.26934 -4.43492 0
M  V30 789 H 78.4743 -1.26025 -4.15091 0
M  V30 790 H 79.1453 -0.351735 -5.50878 0
M  V30 791 H 81.6213 0.917134 -4.05867 0
M  V30 792 H 80.4973 1.63907 -5.23856 0
M  V30 793 H 80.7583 2.43108 -3.69257 0
M  V30 794 N 79.8174 1.5752 -0.0501392 0
M  V30 795 C 81.0664 1.91827 0.623328 0
M  V30 796 C 81.3794 0.930222 1.72065 0
M  V30 797 O 82.5854 1.1653 2.4522 0
M  V30 798 C 81.0414 3.40692 1.16003 0
M  V30 799 C 80.6494 4.479 0.0948811 0
M  V30 800 C 82.3934 3.84034 1.80881 0
M  V30 801 C 80.3004 5.87879 0.644411 0
M  V30 802 H 79.2304 0.715918 0.236596 0
M  V30 803 H 81.8814 1.83115 -0.118861 0
M  V30 804 H 80.2634 3.44405 1.9545 0
M  V30 805 H 81.4374 4.55775 -0.678675 0
M  V30 806 H 79.7524 4.13892 -0.45637 0
M  V30 807 H 82.3494 4.85984 2.22988 0
M  V30 808 H 82.6924 3.20225 2.6601 0
M  V30 809 H 83.2254 3.82833 1.0809 0
M  V30 810 H 79.9644 6.55282 -0.169229 0
M  V30 811 H 79.4844 5.83567 1.38598 0
M  V30 812 H 81.1634 6.37098 1.12763 0
M  V30 813 N 81.2955 -0.223234 1.56011 0
M  V30 814 C 82.5725 -0.972108 1.69733 0
M  V30 815 C 82.9525 -2.02485 0.59691 0
M  V30 816 O 82.3005 -2.25037 -0.396324 0
M  V30 817 C 82.5105 -1.58407 3.10979 0
M  V30 818 C 83.8585 -2.07696 3.70334 0
M  V30 819 O 84.8825 -1.68304 3.1393 0
M  V30 820 O 83.7415 -2.80096 4.69264 0
M  V30 821 H 80.8355 -0.453993 0.691245 0
M  V30 822 H 83.3815 -0.215149 1.68331 0
M  V30 823 H 82.1535 -0.823831 3.82529 0
M  V30 824 H 81.7765 -2.40661 3.16493 0
M  V30 825 N 82.7736 -1.49793 -0.48987 0
M  V30 826 C 84.0196 -1.60078 -1.24511 0
M  V30 827 C 84.3526 -0.291608 -1.91998 0
M  V30 828 O 83.6276 0.705647 -1.81248 0
M  V30 829 C 83.9106 -2.76791 -2.30345 0
M  V30 830 C 83.7636 -4.17535 -1.67286 0
M  V30 831 C 85.0826 -2.89111 -3.31817 0
M  V30 832 H 82.2016 -0.582645 -0.451324 0
M  V30 833 H 84.8436 -1.82117 -0.541612 0
M  V30 834 H 82.9936 -2.5813 -2.90346 0
M  V30 835 H 84.6656 -4.4774 -1.11026 0
M  V30 836 H 82.9086 -4.22665 -0.976577 0
M  V30 837 H 83.5796 -4.95094 -2.44103 0
M  V30 838 H 86.0556 -3.06133 -2.81819 0
M  V30 839 H 84.9316 -3.72433 -4.03219 0
M  V30 840 H 85.1926 -1.9893 -3.94815 0
M  V30 841 N 84.2517 0.741722 -1.39055 0
M  V30 842 C 85.4997 1.49818 -1.35643 0
M  V30 843 C 85.8207 1.94938 0.0491642 0
M  V30 844 O 85.0907 1.68505 0.999141 0
M  V30 845 H 83.6707 0.555755 -0.499144 0
M  V30 846 H 86.3327 0.880957 -1.73854 0
M  V30 847 H 85.4287 2.38348 -2.01486 0
M  V30 848 N 85.7298 1.2412 0.971189 0
M  V30 849 C 86.9778 1.07668 1.71032 0
M  V30 850 C 87.2988 -0.385797 1.91146 0
M  V30 851 O 86.5688 -1.27569 1.4867 0
M  V30 852 H 85.1488 0.395429 0.633755 0
M  V30 853 H 87.8108 1.55984 1.16855 0
M  V30 854 H 86.9068 1.57195 2.69622 0
M  V30 855 N 87.2079 -1.17134 1.05439 0
M  V30 856 C 88.4539 -1.87733 0.767077 0
M  V30 857 C 88.7869 -1.8098 -0.704253 0
M  V30 858 O 88.0619 -1.21951 -1.5152 0
M  V30 859 C 88.3449 -3.37659 1.25133 0
M  V30 860 C 88.1979 -3.53149 2.78578 0
M  V30 861 C 89.5169 -4.31768 0.852324 0
M  V30 862 H 86.6359 -0.681687 0.280129 0
M  V30 863 H 89.2779 -1.37732 1.30881 0
M  V30 864 H 87.4279 -3.80373 0.790469 0
M  V30 865 H 89.0999 -3.19434 3.32806 0
M  V30 866 H 87.3429 -2.95345 3.17732 0
M  V30 867 H 88.0139 -4.58403 3.07523 0
M  V30 868 H 90.4899 -3.96909 1.24911 0
M  V30 869 H 89.3659 -5.35199 1.21873 0
M  V30 870 H 89.6269 -4.41429 -0.243485 0
M  V30 871 N 88.686 -0.835752 -1.33615 0
M  V30 872 C 89.633 -0.26473 -2.29277 0
M  V30 873 C 90.603 0.617712 -1.54187 0
M  V30 874 O 91.788 0.556641 -1.825 0
M  V30 875 C 88.928 0.556777 -3.40579 0
M  V30 876 C 88.041 -0.349339 -4.30585 0
M  V30 877 C 87.176 0.482969 -5.29 0
M  V30 878 C 86.215 -0.421732 -6.10645 0
M  V30 879 N 85.352 0.372262 -7.01112 0
M  V30 880 H 90.192 -1.08582 -2.77514 0
M  V30 881 H 87.729 -0.546927 -1.36554 0
M  V30 882 H 89.687 1.04852 -4.03809 0
M  V30 883 H 88.317 1.34286 -2.93542 0
M  V30 884 H 87.369 -0.959372 -3.68104 0
M  V30 885 H 88.681 -1.04445 -4.87742 0
M  V30 886 H 87.835 1.03866 -5.97743 0
M  V30 887 H 86.574 1.21153 -4.72412 0
M  V30 888 H 85.579 -0.989464 -5.40823 0
M  V30 889 H 86.804 -1.14861 -6.69316 0
M  V30 890 H 84.75 1.08426 -6.46977 0
M  V30 891 H 84.667 -0.264198 -7.55538 0
M  V30 892 H 85.935 0.910293 -7.74167 0
M  V30 893 N 90.1641 1.46063 -0.591896 0
M  V30 894 C 91.1271 2.28854 0.125973 0
M  V30 895 C 92.1271 1.38903 0.810107 0
M  V30 896 O 93.3171 1.61186 0.66066 0
M  V30 897 C 90.4491 3.19526 1.1881 0
M  V30 898 H 91.6421 2.93802 -0.601717 0
M  V30 899 H 89.1951 1.52325 -0.350254 0
M  V30 900 H 89.9301 2.59345 1.94707 0
M  V30 901 H 89.7151 3.85766 0.701936 0
M  V30 902 H 91.2051 3.81817 1.69132 0
M  V30 903 N 91.6422 0.330177 1.54103 0
M  V30 904 C 92.8902 -0.269871 2.0029 0
M  V30 905 C 93.2112 -1.52133 1.21986 0
M  V30 906 O 92.4812 -1.93212 0.323438 0
M  V30 907 H 91.0612 -0.10271 0.739905 0
M  V30 908 H 93.7232 0.448249 1.89675 0
M  V30 909 H 92.8192 -0.52166 3.07709 0
M  V30 910 N 93.1203 -1.57491 0.0584922 0
M  V30 911 C 94.5313 -1.80526 -0.476138 0
M  V30 912 C 94.8823 -0.971334 -1.70469 0
M  V30 913 O 94.0073 -0.190012 -2.15564 0
M  V30 914 C 94.6023 -3.27424 -0.870587 0
M  V30 915 C 93.1613 -3.51351 -1.35015 0
M  V30 916 C 92.3083 -2.75343 -0.32887 0
M  V30 917 H 95.2593 -1.56133 0.284312 0
M  V30 918 H 95.2803 -3.38745 -1.73299 0
M  V30 919 H 94.7923 -3.88093 0.0237627 0
M  V30 920 H 92.8933 -2.95971 -2.26345 0
M  V30 921 H 93.0063 -4.60059 -1.33726 0
M  V30 922 H 91.3703 -2.417 -0.803321 0
M  V30 923 H 92.1533 -3.38743 0.557521 0
M  V30 924 N 94.5984 0.214957 -1.56127 0
M  V30 925 C 95.8464 0.936518 -1.79091 0
M  V30 926 C 96.1674 1.84606 -0.628148 0
M  V30 927 O 95.4374 1.92664 0.35462 0
M  V30 928 H 94.0174 0.3488 -0.660566 0
M  V30 929 H 96.6794 0.22523 -1.93594 0
M  V30 930 H 95.7754 1.53943 -2.71492 0
M  V30 931 N 96.0765 1.50051 0.48192 0
M  V30 932 C 97.0085 1.64263 1.59844 0
M  V30 933 C 98.0215 0.52451 1.54119 0
M  V30 934 O 99.2105 0.797293 1.59704 0
M  V30 935 C 96.3105 1.60102 2.98698 0
M  V30 936 C 95.4835 2.87767 3.29407 0
M  V30 937 C 94.5425 2.76397 4.47762 0
M  V30 938 O 93.5685 3.50348 4.48603 0
M  V30 939 N 94.7705 1.89222 5.48794 0
M  V30 940 H 97.5355 2.60566 1.48073 0
M  V30 941 H 95.0965 1.47379 0.670149 0
M  V30 942 H 97.0885 1.50123 3.75826 0
M  V30 943 H 95.6585 0.715798 3.04294 0
M  V30 944 H 94.8785 3.11954 2.40994 0
M  V30 945 H 96.1665 3.72365 3.4673 0
M  V30 946 H 95.5645 1.28434 5.50928 0
M  V30 947 H 94.1215 1.85154 6.24949 0
M  V30 948 N 97.5546 -0.734337 1.39446 0
M  V30 949 C 98.8026 -1.49096 1.36436 0
M  V30 950 C 99.1236 -1.94961 -0.0388255 0
M  V30 951 O 98.3936 -1.69033 -0.990191 0
M  V30 952 H 96.9736 -0.5531 0.502085 0
M  V30 953 H 99.6356 -0.871725 1.74319 0
M  V30 954 H 98.7316 -2.37276 2.02747 0
M  V30 955 N 99.0327 -1.24633 -0.964593 0
M  V30 956 C 100.279 -1.08949 -1.71049 0
M  V30 957 C 100.612 0.370302 -1.90637 0
M  V30 958 O 99.8867 1.27349 -1.47011 0
M  V30 959 C 100.17 -1.83329 -3.0994 0
M  V30 960 C 100.023 -3.37077 -2.97824 0
M  V30 961 C 101.342 -1.60846 -4.09654 0
M  V30 962 H 98.4607 -0.397178 -0.620821 0
M  V30 963 H 101.103 -1.5334 -1.12191 0
M  V30 964 H 99.2527 -1.45597 -3.60186 0
M  V30 965 H 100.925 -3.84425 -2.5498 0
M  V30 966 H 99.1677 -3.65298 -2.33965 0
M  V30 967 H 99.8387 -3.84324 -3.96231 0
M  V30 968 H 102.315 -1.93674 -3.68279 0
M  V30 969 H 101.191 -2.1534 -5.04896 0
M  V30 970 H 101.452 -0.547434 -4.38698 0
M  V30 971 N 100.511 1.16574 -1.06058 0
M  V30 972 C 101.788 1.83048 -0.689416 0
M  V30 973 C 102.168 1.94122 0.829443 0
M  V30 974 O 101.516 1.48249 1.7388 0
M  V30 975 C 101.726 3.20186 -1.38859 0
M  V30 976 C 103.074 3.95989 -1.53226 0
M  V30 977 O 104.098 3.29696 -1.3483 0
M  V30 978 O 102.957 5.14813 -1.83384 0
M  V30 979 H 100.051 0.790258 -0.243764 0
M  V30 980 H 102.597 1.23797 -1.16071 0
M  V30 981 H 101.369 3.07146 -2.4244 0
M  V30 982 H 100.992 3.87112 -0.907216 0
M  V30 983 N 101.989 0.842826 1.3317 0
M  V30 984 C 103.235 0.441099 1.97945 0
M  V30 985 C 103.568 -0.998024 1.66593 0
M  V30 986 O 102.843 -1.69839 0.947898 0
M  V30 987 C 103.126 0.666841 3.53872 0
M  V30 988 C 102.979 2.15352 3.94897 0
M  V30 989 C 104.298 0.115544 4.39948 0
M  V30 990 H 101.417 0.161739 0.719034 0
M  V30 991 H 104.059 1.05907 1.57746 0
M  V30 992 H 102.209 0.140828 3.88245 0
M  V30 993 H 103.881 2.7447 3.70761 0
M  V30 994 H 102.124 2.63653 3.44484 0
M  V30 995 H 102.795 2.26221 5.03516 0
M  V30 996 H 105.271 0.565213 4.12243 0
M  V30 997 H 104.147 0.303152 5.48062 0
M  V30 998 H 104.408 -0.980935 4.3108 0
M  V30 999 N 103.467 -1.45747 0.599634 0
M  V30 1000 C 104.744 -1.95585 0.0240846 0
M  V30 1001 C 105.124 -1.54217 -1.44154 0
M  V30 1002 O 104.472 -0.800903 -2.14004 0
M  V30 1003 C 104.682 -3.48344 0.21385 0
M  V30 1004 C 106.03 -4.24504 0.0904902 0
M  V30 1005 O 107.054 -3.55911 0.143558 0
M  V30 1006 O 105.913 -5.46491 -0.0310766 0
M  V30 1007 H 103.007 -0.82602 -0.0402478 0
M  V30 1008 H 105.553 -1.55951 0.669139 0
M  V30 1009 H 104.325 -3.71397 1.23206 0
M  V30 1010 H 103.948 -3.9485 -0.466842 0
M  V30 1011 N 104.945 -0.338344 -1.53925 0
M  V30 1012 C 106.173 0.261298 -2.05243 0
M  V30 1013 C 106.588 1.44625 -1.21363 0
M  V30 1014 O 105.945 1.80811 -0.247736 0
M  V30 1015 C 105.996 0.681412 -3.5502 0
M  V30 1016 O 105.717 -0.456414 -4.35716 0
M  V30 1017 C 107.218 1.34232 -4.22489 0
M  V30 1018 H 104.438 0.0513685 -0.669031 0
M  V30 1019 H 106.982 -0.488822 -1.98572 0
M  V30 1020 H 105.137 1.38148 -3.61931 0
M  V30 1021 H 105.551 -0.122564 -5.24357 0
M  V30 1022 H 107.025 1.58708 -5.28693 0
M  V30 1023 H 107.502 2.29426 -3.74514 0
M  V30 1024 H 108.108 0.684424 -4.19757 0
M  V30 1025 N 106.423 1.57458 -0.0668435 0
M  V30 1026 C 107.333 2.15937 0.916975 0
M  V30 1027 C 108.349 1.12123 1.33058 0
M  V30 1028 O 109.525 1.44366 1.40429 0
M  V30 1029 C 106.59 2.70547 2.16807 0
M  V30 1030 C 105.651 3.89215 1.81135 0
M  V30 1031 C 104.884 4.41211 3.0028 0
M  V30 1032 O 105.107 3.92225 4.14144 0
M  V30 1033 O 104.041 5.32605 2.80384 0
M  V30 1034 H 107.867 3.00354 0.449561 0
M  V30 1035 H 105.452 1.48584 0.155949 0
M  V30 1036 H 107.334 3.0557 2.90181 0
M  V30 1037 H 106.009 1.89192 2.62656 0
M  V30 1038 H 104.916 3.59054 1.05028 0
M  V30 1039 H 106.249 4.71848 1.40073 0
M  V30 1040 N 107.901 -0.206675 1.56239 0
M  V30 1041 C 109.15 -0.926964 1.79138 0
M  V30 1042 C 109.463 -1.84901 0.638043 0
M  V30 1043 O 110.669 -2.60906 0.751033 0
M  V30 1044 C 109.125 -1.6986 3.17294 0
M  V30 1045 C 108.733 -0.821956 4.40395 0
M  V30 1046 C 110.477 -2.40922 3.4951 0
M  V30 1047 C 108.384 -1.59179 5.69575 0
M  V30 1048 H 107.314 -0.349864 0.667915 0
M  V30 1049 H 109.965 -0.180487 1.8261 0
M  V30 1050 H 108.347 -2.48853 3.08039 0
M  V30 1051 H 109.521 -0.0715019 4.60745 0
M  V30 1052 H 107.836 -0.222741 4.15804 0
M  V30 1053 H 110.433 -2.99047 4.43255 0
M  V30 1054 H 110.776 -3.14542 2.72707 0
M  V30 1055 H 111.309 -1.68905 3.60161 0
M  V30 1056 H 108.048 -0.898589 6.49312 0
M  V30 1057 H 107.568 -2.31648 5.53262 0
M  V30 1058 H 109.247 -2.14862 6.10281 0
M  V30 1059 N 109.379 -1.50304 -0.473955 0
M  V30 1060 C 110.342 -1.6841 -1.55469 0
M  V30 1061 C 111.342 -0.554905 -1.50922 0
M  V30 1062 O 112.532 -0.821882 -1.53593 0
M  V30 1063 C 109.664 -1.70667 -2.95102 0
M  V30 1064 H 110.857 -2.64828 -1.40733 0
M  V30 1065 H 108.41 -1.39742 -0.700132 0
M  V30 1066 H 109.145 -0.75932 -3.15285 0
M  V30 1067 H 108.93 -2.52698 -2.9981 0
M  V30 1068 H 110.42 -1.8664 -3.73571 0
M  V30 1069 N 110.857 0.726932 -1.39834 0
M  V30 1070 C 112.273 1.03354 -1.21615 0
M  V30 1071 C 112.473 2.01327 -0.08338 0
M  V30 1072 O 111.529 2.46158 0.56238 0
M  V30 1073 C 112.842 1.58811 -2.55342 0
M  V30 1074 C 114.39 1.70851 -2.62257 0
M  V30 1075 C 114.865 2.29716 -3.96225 0
M  V30 1076 N 116.356 2.37116 -3.97907 0
M  V30 1077 C 117.091 2.83619 -4.98345 0
M  V30 1078 N 116.587 3.29958 -6.09179 0
M  V30 1079 N 118.38 2.82901 -4.8572 0
M  V30 1080 H 110.531 0.0773069 -2.12259 0
M  V30 1081 H 112.794 0.0969102 -0.943034 0
M  V30 1082 H 112.5 0.942855 -3.38826 0
M  V30 1083 H 112.374 2.57502 -2.75632 0
M  V30 1084 H 114.761 2.34497 -1.79152 0
M  V30 1085 H 114.842 0.707913 -2.45809 0
M  V30 1086 H 114.486 1.66696 -4.79765 0
M  V30 1087 H 114.416 3.30469 -4.09997 0
M  V30 1088 H 116.907 2.04374 -3.17868 0
M  V30 1089 H 117.22 3.63976 -6.8172 0
M  V30 1090 H 115.565 3.27946 -6.12761 0
M  V30 1091 H 118.756 2.46027 -3.98231 0
M  V30 1092 H 118.929 3.18827 -5.6414 0
M  V30 1093 N 112.336 1.25143 0.95797 0
M  V30 1094 C 113.266 1.07711 2.07173 0
M  V30 1095 C 114.247 -0.0128462 1.70095 0
M  V30 1096 O 115.432 0.156061 1.93572 0
M  V30 1097 C 112.562 0.691503 3.40346 0
M  V30 1098 C 111.516 1.73132 3.9142 0
M  V30 1099 C 110.842 1.20049 5.21049 0
M  V30 1100 C 112.142 3.1294 4.1817 0
M  V30 1101 H 113.836 2.00873 2.22014 0
M  V30 1102 H 111.382 0.967191 1.06684 0
M  V30 1103 H 113.335 0.556505 4.17709 0
M  V30 1104 H 112.059 -0.275819 3.25433 0
M  V30 1105 H 110.718 1.8547 3.16222 0
M  V30 1106 H 110.366 0.223499 5.02503 0
M  V30 1107 H 110.066 1.89545 5.56189 0
M  V30 1108 H 111.59 1.07782 6.01012 0
M  V30 1109 H 113.004 3.03775 4.86203 0
M  V30 1110 H 111.401 3.79875 4.64559 0
M  V30 1111 H 112.471 3.6025 3.24573 0
M  V30 1112 N 113.814 -1.1601 1.06675 0
M  V30 1113 C 115.06 -1.86909 0.786945 0
M  V30 1114 C 115.393 -1.81717 -0.685018 0
M  V30 1115 O 114.668 -1.23551 -1.50218 0
M  V30 1116 C 114.951 -3.36313 1.28707 0
M  V30 1117 C 114.804 -3.50175 2.82308 0
M  V30 1118 C 116.123 -4.3084 0.898071 0
M  V30 1119 H 113.242 -0.678677 0.287343 0
M  V30 1120 H 115.884 -1.36336 1.32334 0
M  V30 1121 H 114.034 -3.79513 0.830768 0
M  V30 1122 H 115.706 -3.15886 3.36175 0
M  V30 1123 H 113.949 -2.91959 3.20847 0
M  V30 1124 H 114.62 -4.55116 3.12368 0
M  V30 1125 H 117.096 -3.95561 1.29114 0
M  V30 1126 H 115.972 -5.33876 1.27543 0
M  V30 1127 H 116.233 -4.41662 -0.196651 0
M  V30 1128 N 115.292 -0.849877 -1.32721 0
M  V30 1129 C 116.703 -0.506188 -1.79707 0
M  V30 1130 C 117.054 0.975627 -1.70223 0
M  V30 1131 O 116.179 1.76078 -1.25799 0
M  V30 1132 C 116.774 -0.912044 -3.26293 0
M  V30 1133 C 115.333 -0.620326 -3.71253 0
M  V30 1134 C 114.48 -1.11439 -2.53922 0
M  V30 1135 H 117.431 -1.03754 -1.20087 0
M  V30 1136 H 117.452 -0.226493 -3.79825 0
M  V30 1137 H 116.964 -1.99057 -3.33164 0
M  V30 1138 H 115.065 0.447674 -3.69901 0
M  V30 1139 H 115.178 -1.18327 -4.64258 0
M  V30 1140 H 113.542 -0.534834 -2.49021 0
M  V30 1141 H 114.325 -2.19992 -2.6355 0
M  V30 1142 N 116.77 1.45427 -0.607355 0
M  V30 1143 C 118.017 2.02241 -0.102455 0
M  V30 1144 C 118.345 1.4758 1.26691 0
M  V30 1145 O 117.6 0.640468 1.84923 0
M  V30 1146 C 117.899 3.57398 -0.0129263 0
M  V30 1147 C 117.565 4.3121 -1.31792 0
M  V30 1148 C 116.227 4.51092 -1.67539 0
M  V30 1149 C 118.579 4.73401 -2.18039 0
M  V30 1150 C 115.907 5.10422 -2.89285 0
M  V30 1151 C 118.259 5.34078 -3.39034 0
M  V30 1152 C 116.923 5.52184 -3.75033 0
M  V30 1153 H 116.193 0.740051 -0.037491 0
M  V30 1154 H 118.84 1.74494 -0.788926 0
M  V30 1155 H 117.145 3.84421 0.756806 0
M  V30 1156 H 118.842 3.99061 0.393881 0
M  V30 1157 H 115.432 4.16047 -1.02968 0
M  V30 1158 H 119.616 4.57774 -1.91721 0
M  V30 1159 H 114.872 5.22629 -3.17283 0
M  V30 1160 H 119.046 5.65724 -4.06115 0
M  V30 1161 H 116.673 5.97925 -4.69457 0
M  V30 1162 N 118.248 0.346503 1.53744 0
M  V30 1163 C 119.497 -0.250122 2.00143 0
M  V30 1164 C 119.81 -1.51418 1.23822 0
M  V30 1165 O 121.016 -2.18823 1.60713 0
M  V30 1166 C 119.472 -0.496252 3.56462 0
M  V30 1167 C 119.08 0.752077 4.41642 0
M  V30 1168 C 120.824 -1.05157 4.11269 0
M  V30 1169 C 118.731 0.476583 5.89477 0
M  V30 1170 H 117.661 -0.0972409 0.747703 0
M  V30 1171 H 120.312 0.46229 1.77581 0
M  V30 1172 H 118.694 -1.26944 3.75102 0
M  V30 1173 H 119.868 1.5266 4.34778 0
M  V30 1174 H 118.183 1.22925 3.97842 0
M  V30 1175 H 120.78 -1.27269 5.19333 0
M  V30 1176 H 121.123 -2.00799 3.64672 0
M  V30 1177 H 121.656 -0.339019 3.96353 0
M  V30 1178 H 118.395 1.4028 6.40314 0
M  V30 1179 H 117.915 -0.259794 5.99237 0
M  V30 1180 H 119.594 0.0949315 6.4693 0
M  V30 1181 N 119.726 -1.57421 0.075193 0
M  V30 1182 C 120.636 -2.1642 -0.905511 0
M  V30 1183 C 121.652 -1.12828 -1.32461 0
M  V30 1184 O 122.828 -1.45109 -1.39661 0
M  V30 1185 C 119.893 -2.71693 -2.15369 0
M  V30 1186 C 118.954 -3.90171 -1.79068 0
M  V30 1187 C 118.187 -4.42798 -2.97936 0
M  V30 1188 O 118.41 -3.94416 -4.12058 0
M  V30 1189 O 117.344 -5.34085 -2.77555 0
M  V30 1190 H 121.17 -3.00588 -0.433626 0
M  V30 1191 H 118.755 -1.48664 -0.148067 0
M  V30 1192 H 120.637 -3.07104 -2.88557 0
M  V30 1193 H 119.312 -1.90582 -2.61649 0
M  V30 1194 H 118.219 -3.59606 -1.03122 0
M  V30 1195 H 119.552 -4.72584 -1.37569 0
M  V30 1196 N 121.204 0.198386 -1.56346 0
M  V30 1197 C 122.45 0.916115 -1.81601 0
M  V30 1198 C 122.805 1.81025 -0.651744 0
M  V30 1199 O 122.098 1.88316 0.353229 0
M  V30 1200 C 122.292 1.77031 -3.10475 0
M  V30 1201 C 122.121 0.960365 -4.39326 0
M  V30 1202 C 120.891 0.646093 -5.01152 0
M  V30 1203 C 123.089 0.314628 -5.13337 0
M  V30 1204 N 121.071 -0.182828 -6.13628 0
M  V30 1205 C 122.442 -0.37664 -6.18855 0
M  V30 1206 C 124.497 0.230019 -4.97368 0
M  V30 1207 C 123.2 -1.14445 -7.10137 0
M  V30 1208 C 125.226 -0.524389 -5.89071 0
M  V30 1209 C 124.588 -1.20412 -6.94032 0
M  V30 1210 H 120.687 0.314732 -0.715868 0
M  V30 1211 H 123.271 0.185102 -1.93818 0
M  V30 1212 H 121.442 2.47295 -2.99499 0
M  V30 1213 H 123.174 2.42727 -3.2383 0
M  V30 1214 H 119.929 0.969724 -4.63566 0
M  V30 1215 H 120.353 -0.586802 -6.74452 0
M  V30 1216 H 124.995 0.741184 -4.16253 0
M  V30 1217 H 122.713 -1.66706 -7.90718 0
M  V30 1218 H 126.299 -0.591167 -5.78789 0
M  V30 1219 H 125.179 -1.77853 -7.63766 0
M  V30 1220 N 122.682 1.50554 0.465978 0
M  V30 1221 C 123.612 1.72722 1.57128 0
M  V30 1222 C 124.593 0.576294 1.6004 0
M  V30 1223 O 125.778 0.81598 1.76225 0
M  V30 1224 C 122.908 1.82605 2.95419 0
M  V30 1225 C 121.862 2.97835 3.07373 0
M  V30 1226 C 121.188 2.92867 4.47363 0
M  V30 1227 C 122.488 4.38265 2.84114 0
M  V30 1228 H 124.182 2.65267 1.38829 0
M  V30 1229 H 121.728 1.2765 0.666441 0
M  V30 1230 H 123.681 1.96698 3.72677 0
M  V30 1231 H 122.405 0.866858 3.14886 0
M  V30 1232 H 121.064 2.83401 2.3255 0
M  V30 1233 H 120.712 1.94783 4.63755 0
M  V30 1234 H 120.412 3.70227 4.56296 0
M  V30 1235 H 121.936 3.09015 5.26633 0
M  V30 1236 H 123.35 4.53198 3.51118 0
M  V30 1237 H 121.747 5.17115 3.04487 0
M  V30 1238 H 122.817 4.50281 1.7993 0
M  V30 1239 N 124.16 -0.719506 1.40217 0
M  V30 1240 C 125.576 -1.02707 1.22161 0
M  V30 1241 C 125.776 -2.0128 0.0940557 0
M  V30 1242 O 124.832 -2.46452 -0.549318 0
M  V30 1243 C 126.145 -1.57454 2.56181 0
M  V30 1244 C 127.693 -1.69458 2.63159 0
M  V30 1245 C 128.168 -2.27611 3.97438 0
M  V30 1246 N 129.659 -2.35002 3.99159 0
M  V30 1247 C 130.394 -2.80972 4.99842 0
M  V30 1248 N 129.89 -3.26723 6.10921 0
M  V30 1249 N 131.683 -2.80321 4.87213 0
M  V30 1250 H 123.834 -0.0660492 2.12297 0
M  V30 1251 H 126.097 -0.0919077 0.943534 0
M  V30 1252 H 125.803 -0.924873 3.39321 0
M  V30 1253 H 125.677 -2.56036 2.76993 0
M  V30 1254 H 128.064 -2.33543 1.80393 0
M  V30 1255 H 128.145 -0.694867 2.46181 0
M  V30 1256 H 127.789 -1.6415 4.80643 0
M  V30 1257 H 127.719 -3.2829 4.11744 0
M  V30 1258 H 130.21 -2.02685 3.18947 0
M  V30 1259 H 130.523 -3.60355 6.8364 0
M  V30 1260 H 128.868 -3.24692 6.14492 0
M  V30 1261 H 132.059 -2.43912 3.9953 0
M  V30 1262 H 132.232 -3.15831 5.65822 0
M  V30 1263 N 125.638 -1.25649 -0.95132 0
M  V30 1264 C 126.863 -1.13443 -1.73624 0
M  V30 1265 C 127.288 0.307565 -1.85568 0
M  V30 1266 O 126.646 1.22282 -1.33854 0
M  V30 1267 C 126.694 -1.79723 -3.12621 0
M  V30 1268 O 125.798 -1.07912 -3.98031 0
M  V30 1269 H 125.139 -0.395872 -0.533086 0
M  V30 1270 H 127.669 -1.66276 -1.1922 0
M  V30 1271 H 127.679 -1.86141 -3.63064 0
M  V30 1272 H 126.354 -2.84633 -3.03244 0
M  V30 1273 H 124.931 -1.09398 -3.56492 0
M  V30 1274 N 127.117 1.15442 -1.07289 0
M  V30 1275 C 128.08 2.18358 -0.696591 0
M  V30 1276 C 129.08 1.58637 0.262837 0
M  V30 1277 O 130.27 1.74145 0.0438809 0
M  V30 1278 C 127.402 3.4089 -0.0266151 0
M  V30 1279 H 128.595 2.53162 -1.60776 0
M  V30 1280 H 126.148 1.29893 -0.869342 0
M  V30 1281 H 126.883 3.11653 0.896822 0
M  V30 1282 H 126.668 3.85495 -0.716657 0
M  V30 1283 H 128.158 4.17009 0.222028 0
M  V30 1284 N 128.595 0.856903 1.32268 0
M  V30 1285 C 129.825 0.47475 2.01071 0
M  V30 1286 C 130.233 -0.933746 1.64553 0
M  V30 1287 O 129.576 -1.62114 0.863989 0
M  V30 1288 C 129.638 0.536746 3.55471 0
M  V30 1289 C 129.302 1.90453 4.15423 0
M  V30 1290 C 130.299 2.87029 4.33486 0
M  V30 1291 C 127.984 2.20229 4.51447 0
M  V30 1292 C 129.978 4.11532 4.86744 0
M  V30 1293 C 127.665 3.44984 5.0441 0
M  V30 1294 C 128.663 4.40452 5.22007 0
M  V30 1295 O 128.351 5.62998 5.73837 0
M  V30 1296 H 128.083 0.184778 0.650256 0
M  V30 1297 H 130.637 1.15615 1.69771 0
M  V30 1298 H 128.867 -0.20152 3.86175 0
M  V30 1299 H 130.556 0.169875 4.05544 0
M  V30 1300 H 131.322 2.6533 4.05986 0
M  V30 1301 H 127.201 1.46705 4.37034 0
M  V30 1302 H 130.745 4.86056 5.00395 0
M  V30 1303 H 126.642 3.66532 5.31342 0
M  V30 1304 H 127.41 5.64987 5.92226 0
M  V30 1305 N 130.073 -1.45103 0.615059 0
M  V30 1306 C 131.301 -2.06553 0.11977 0
M  V30 1307 C 131.716 -1.45842 -1.19898 0
M  V30 1308 O 131.073 -0.575325 -1.73194 0
M  V30 1309 C 131.124 -3.61495 -0.018364 0
M  V30 1310 O 130.845 -4.19942 1.24822 0
M  V30 1311 C 132.346 -4.39947 -0.544237 0
M  V30 1312 H 129.566 -0.667096 0.0722739 0
M  V30 1313 H 132.11 -1.8623 0.84491 0
M  V30 1314 H 130.265 -3.81135 -0.693865 0
M  V30 1315 H 130.679 -5.13204 1.0827 0
M  V30 1316 H 132.153 -5.48838 -0.589953 0
M  V30 1317 H 132.63 -4.10255 -1.56805 0
M  V30 1318 H 133.236 -4.25188 0.0974703 0
M  V30 1319 N 131.551 -0.354651 -1.53558 0
M  V30 1320 C 132.828 0.294281 -1.93374 0
M  V30 1321 C 133.208 1.67313 -1.28723 0
M  V30 1322 O 132.556 2.24179 -0.442247 0
M  V30 1323 C 132.766 0.355445 -3.47185 0
M  V30 1324 C 134.114 0.601007 -4.20325 0
M  V30 1325 O 135.138 0.437106 -3.53508 0
M  V30 1326 O 133.997 0.919322 -5.38712 0
M  V30 1327 H 131.091 0.174033 -0.808481 0
M  V30 1328 H 133.637 -0.406638 -1.64756 0
M  V30 1329 H 132.409 -0.611729 -3.86489 0
M  V30 1330 H 132.032 1.1027 -3.82003 0
M  V30 1331 N 133.029 1.57378 -0.0835403 0
M  V30 1332 C 133.959 2.1641 0.87686 0
M  V30 1333 C 134.94 1.09429 1.30228 0
M  V30 1334 O 136.125 1.37516 1.37124 0
M  V30 1335 C 133.255 2.73517 2.14022 0
M  V30 1336 C 132.209 3.85769 1.85381 0
M  V30 1337 C 131.535 4.29529 3.18448 0
M  V30 1338 C 132.835 5.09486 1.14984 0
M  V30 1339 H 134.529 2.96914 0.385059 0
M  V30 1340 H 132.075 1.42823 0.18377 0
M  V30 1341 H 134.028 3.13463 2.81636 0
M  V30 1342 H 132.752 1.90252 2.65465 0
M  V30 1343 H 131.411 3.46345 1.20169 0
M  V30 1344 H 131.059 3.43169 3.67755 0
M  V30 1345 H 130.759 5.05204 3.00071 0
M  V30 1346 H 132.283 4.72099 3.8724 0
M  V30 1347 H 133.697 5.46674 1.72687 0
M  V30 1348 H 132.094 5.90515 1.06826 0
M  V30 1349 H 133.164 4.84724 0.130749 0
M  V30 1350 N 134.507 -0.190092 1.56449 0
M  V30 1351 C 135.437 -1.23816 1.97969 0
M  V30 1352 C 136.418 -1.47201 0.852395 0
M  V30 1353 O 137.603 -1.58854 1.1171 0
M  V30 1354 C 134.733 -2.5813 2.3235 0
M  V30 1355 C 133.687 -2.49348 3.47864 0
M  V30 1356 C 133.013 -3.8798 3.67934 0
M  V30 1357 C 134.313 -2.01424 4.81898 0
M  V30 1358 H 136.007 -0.89311 2.85769 0
M  V30 1359 H 133.553 -0.428177 1.37487 0
M  V30 1360 H 135.506 -3.31637 2.59991 0
M  V30 1361 H 134.23 -2.94386 1.41438 0
M  V30 1362 H 132.889 -1.78297 3.20321 0
M  V30 1363 H 132.537 -4.21597 2.74344 0
M  V30 1364 H 132.237 -3.82978 4.45648 0
M  V30 1365 H 133.761 -4.63101 3.97957 0
M  V30 1366 H 135.175 -2.64693 5.08538 0
M  V30 1367 H 133.572 -2.07413 5.63116 0
M  V30 1368 H 134.642 -0.967677 4.75146 0
M  V30 1369 N 135.985 -1.50799 -0.457987 0
M  V30 1370 C 137.234 -1.6168 -1.20593 0
M  V30 1371 C 137.547 -0.32888 -1.92815 0
M  V30 1372 O 138.753 -0.316773 -2.69646 0
M  V30 1373 C 137.209 -2.8545 -2.19195 0
M  V30 1374 C 136.817 -4.21168 -1.52715 0
M  V30 1375 C 138.561 -3.05681 -2.94549 0
M  V30 1376 C 136.468 -5.3611 -2.4968 0
M  V30 1377 H 135.398 -0.602134 -0.453818 0
M  V30 1378 H 138.049 -1.77245 -0.475031 0
M  V30 1379 H 136.431 -2.63472 -2.95632 0
M  V30 1380 H 137.605 -4.53449 -0.819775 0
M  V30 1381 H 135.92 -4.06648 -0.895922 0
M  V30 1382 H 138.517 -3.88727 -3.67145 0
M  V30 1383 H 138.86 -2.17929 -3.54701 0
M  V30 1384 H 139.393 -3.27901 -2.25223 0
M  V30 1385 H 136.132 -6.26057 -1.94249 0
M  V30 1386 H 135.652 -5.0823 -3.18532 0
M  V30 1387 H 137.331 -5.6722 -3.11241 0
M  V30 1388 N 137.463 0.71206 -1.40597 0
M  V30 1389 C 138.688 1.50617 -1.42581 0
M  V30 1390 C 139.113 1.88079 -0.0282102 0
M  V30 1391 O 138.471 1.53511 0.964579 0
M  V30 1392 C 138.519 2.7557 -2.3258 0
M  V30 1393 O 137.623 3.72414 -1.77148 0
M  V30 1394 H 136.964 0.453966 -0.484573 0
M  V30 1395 H 139.494 0.876649 -1.84868 0
M  V30 1396 H 139.504 3.2406 -2.47889 0
M  V30 1397 H 138.179 2.47639 -3.34138 0
M  V30 1398 H 136.756 3.31276 -1.71204 0
M  V30 1399 N 138.941 1.26152 0.944643 0
M  V30 1400 C 140.187 1.11657 1.69294 0
M  V30 1401 C 140.52 -0.339926 1.91202 0
M  V30 1402 O 139.795 -1.24994 1.49019 0
M  V30 1403 C 140.078 1.88236 3.06984 0
M  V30 1404 C 139.931 3.41772 2.92424 0
M  V30 1405 C 141.25 1.67343 4.07043 0
M  V30 1406 H 138.369 0.407004 0.614424 0
M  V30 1407 H 141.011 1.55106 1.09737 0
M  V30 1408 H 139.161 1.51308 3.57824 0
M  V30 1409 H 140.833 3.88433 2.48832 0
M  V30 1410 H 139.076 3.68974 2.28124 0
M  V30 1411 H 139.747 3.90579 3.90067 0
M  V30 1412 H 142.223 1.99509 3.65151 0
M  V30 1413 H 141.099 2.23346 5.01406 0
M  V30 1414 H 141.36 0.617158 4.37771 0
M  V30 1415 N 140.419 -1.14872 1.07899 0
M  V30 1416 C 141.696 -1.81928 0.71845 0
M  V30 1417 C 142.076 -1.95417 -0.798455 0
M  V30 1418 O 141.424 -1.50997 -1.715 0
M  V30 1419 C 141.634 -3.17937 1.43935 0
M  V30 1420 C 142.982 -3.93501 1.59506 0
M  V30 1421 O 144.006 -3.27509 1.40058 0
M  V30 1422 O 142.865 -5.1183 1.91551 0
M  V30 1423 H 139.959 -0.78628 0.256305 0
M  V30 1424 H 142.505 -1.21934 1.18026 0
M  V30 1425 H 141.277 -3.0325 2.47295 0
M  V30 1426 H 140.9 -3.85619 0.968687 0
M  V30 1427 N 141.898 -0.863906 -1.31812 0
M  V30 1428 C 143.126 -0.486111 -2.01108 0
M  V30 1429 C 143.541 0.919755 -1.64882 0
M  V30 1430 O 142.898 1.60162 -0.874893 0
M  V30 1431 C 142.949 -0.626435 -3.56031 0
M  V30 1432 O 142.67 -1.97693 -3.90959 0
M  V30 1433 C 144.171 -0.248857 -4.42601 0
M  V30 1434 H 141.391 -0.190052 -0.643523 0
M  V30 1435 H 143.935 -1.1634 -1.68182 0
M  V30 1436 H 142.09 0.00322717 -3.874 0
M  V30 1437 H 142.504 -1.98034 -4.85678 0
M  V30 1438 H 143.978 -0.398016 -5.50563 0
M  V30 1439 H 144.455 0.811489 -4.31638 0
M  V30 1440 H 145.061 -0.853971 -4.16638 0
M  V30 1441 N 143.376 1.44774 -0.622745 0
M  V30 1442 C 144.622 2.02968 -0.13257 0
M  V30 1443 C 144.977 1.48047 1.22881 0
M  V30 1444 O 144.27 0.651625 1.80179 0
M  V30 1445 C 144.464 3.57364 -0.0508323 0
M  V30 1446 C 144.293 4.27262 -1.40275 0
M  V30 1447 C 143.063 4.64577 -1.98737 0
M  V30 1448 C 145.261 4.58248 -2.3348 0
M  V30 1449 N 143.243 5.19404 -3.27251 0
M  V30 1450 C 144.614 5.14069 -3.46603 0
M  V30 1451 C 146.669 4.40195 -2.32664 0
M  V30 1452 C 145.372 5.53738 -4.59093 0
M  V30 1453 C 147.398 4.80907 -3.44213 0
M  V30 1454 C 146.76 5.36834 -4.56058 0
M  V30 1455 H 142.859 0.776541 -0.0922354 0
M  V30 1456 H 145.443 1.76385 -0.82441 0
M  V30 1457 H 143.614 3.83576 0.610265 0
M  V30 1458 H 145.346 4.02219 0.447397 0
M  V30 1459 H 142.101 4.48622 -1.51774 0
M  V30 1460 H 142.525 5.51301 -3.92933 0
M  V30 1461 H 147.167 3.96257 -1.47446 0
M  V30 1462 H 144.885 5.96635 -5.45025 0
M  V30 1463 H 148.471 4.68659 -3.44747 0
M  V30 1464 H 147.351 5.67755 -5.40947 0
M  V30 1465 N 144.854 0.36279 1.53368 0
M  V30 1466 C 146.27 0.0116182 1.59596 0
M  V30 1467 C 146.47 -1.47012 1.37803 0
M  V30 1468 O 145.526 -2.23136 1.18181 0
M  V30 1469 C 146.839 0.465052 2.97082 0
M  V30 1470 C 148.387 0.419033 3.10182 0
M  V30 1471 C 148.862 0.848235 4.50077 0
M  V30 1472 N 150.353 0.803183 4.56183 0
M  V30 1473 C 151.088 1.107 5.62613 0
M  V30 1474 N 150.584 1.47996 6.76808 0
M  V30 1475 N 152.377 1.02998 5.52583 0
M  V30 1476 H 144.528 1.32775 1.65785 0
M  V30 1477 H 146.791 0.542518 0.777417 0
M  V30 1478 H 146.497 1.49892 3.18159 0
M  V30 1479 H 146.371 -0.149786 3.76902 0
M  V30 1480 H 148.758 -0.605696 2.88817 0
M  V30 1481 H 148.839 1.06933 2.32377 0
M  V30 1482 H 148.483 1.87107 4.7218 0
M  V30 1483 H 148.413 0.175218 5.26308 0
M  V30 1484 H 150.904 0.52838 3.74188 0
M  V30 1485 H 151.217 1.69613 7.53957 0
M  V30 1486 H 149.562 1.51859 6.78206 0
M  V30 1487 H 152.753 0.737817 4.62249 0
M  V30 1488 H 152.926 1.2701 6.35431 0
M  V30 1489 N 146.332 -1.57332 0.0918853 0
M  V30 1490 C 147.295 -2.12708 -0.85369 0
M  V30 1491 C 148.295 -1.05561 -1.213 0
M  V30 1492 O 149.485 -1.31461 -1.14296 0
M  V30 1493 C 146.617 -2.64503 -2.15061 0
M  V30 1494 H 147.81 -2.97573 -0.3729 0
M  V30 1495 H 145.363 -1.55509 -0.157072 0
M  V30 1496 H 146.098 -1.83149 -2.67632 0
M  V30 1497 H 145.883 -3.4284 -1.90272 0
M  V30 1498 H 147.373 -3.07351 -2.82711 0
M  V30 1499 N 147.81 0.181792 -1.56548 0
M  V30 1500 C 148.72 1.24538 -1.98815 0
M  V30 1501 C 149.736 1.49045 -0.897861 0
M  V30 1502 O 150.912 1.61399 -1.20467 0
M  V30 1503 C 147.977 2.56683 -2.33055 0
M  V30 1504 C 147.038 2.40131 -3.55859 0
M  V30 1505 C 146.271 3.65975 -3.88456 0
M  V30 1506 O 146.494 4.70711 -3.22161 0
M  V30 1507 O 145.428 3.6071 -4.81842 0
M  V30 1508 H 149.254 0.916647 -2.89536 0
M  V30 1509 H 146.839 0.387842 -1.44278 0
M  V30 1510 H 148.721 3.34655 -2.56094 0
M  V30 1511 H 147.396 2.89157 -1.45498 0
M  V30 1512 H 146.303 1.60226 -3.38051 0
M  V30 1513 H 147.636 2.12585 -4.43924 0
M  V30 1514 N 149.288 1.51039 0.449983 0
M  V30 1515 C 150.534 1.63322 1.20223 0
M  V30 1516 C 150.867 0.34241 1.91158 0
M  V30 1517 O 150.142 -0.657344 1.83055 0
M  V30 1518 C 150.425 2.82801 2.22925 0
M  V30 1519 C 150.278 4.21823 1.56157 0
M  V30 1520 C 151.597 2.97807 3.24035 0
M  V30 1521 H 148.716 0.594407 0.435718 0
M  V30 1522 H 151.358 1.83489 0.493136 0
M  V30 1523 H 149.508 2.65738 2.834 0
M  V30 1524 H 151.18 4.50526 0.991162 0
M  V30 1525 H 149.423 4.25105 0.864172 0
M  V30 1526 H 150.094 5.01391 2.30891 0
M  V30 1527 H 152.57 3.13497 2.73603 0
M  V30 1528 H 151.446 3.82992 3.93202 0
M  V30 1529 H 151.707 2.09328 3.89402 0
M  V30 1530 N 150.766 -0.704594 1.40972 0
M  V30 1531 C 151.729 -1.80035 1.41845 0
M  V30 1532 C 152.729 -1.57774 0.310474 0
M  V30 1533 O 153.919 -1.64613 0.56992 0
M  V30 1534 C 151.051 -3.18284 1.22098 0
M  V30 1535 H 152.244 -1.80658 2.3938 0
M  V30 1536 H 149.797 -0.911329 1.26982 0
M  V30 1537 H 150.532 -3.23306 0.253672 0
M  V30 1538 H 150.317 -3.35843 2.02366 0
M  V30 1539 H 151.807 -3.98289 1.25522 0
M  V30 1540 N 152.244 -1.26651 -0.937939 0
M  V30 1541 C 153.66 -1.03834 -1.21205 0
M  V30 1542 C 153.86 0.234502 -2.00131 0
M  V30 1543 O 152.916 0.942767 -2.3424 0
M  V30 1544 C 154.229 -2.27167 -1.97017 0
M  V30 1545 C 155.777 -2.32101 -2.09996 0
M  V30 1546 C 156.252 -3.55136 -2.8921 0
M  V30 1547 N 157.743 -3.55632 -2.96783 0
M  V30 1548 C 158.478 -4.475 -3.58512 0
M  V30 1549 N 157.974 -5.4966 -4.21717 0
M  V30 1550 N 159.767 -4.35145 -3.55816 0
M  V30 1551 H 151.918 -2.08398 -0.410391 0
M  V30 1552 H 154.181 -0.916031 -0.244114 0
M  V30 1553 H 153.887 -3.19765 -1.46434 0
M  V30 1554 H 153.761 -2.31672 -2.97671 0
M  V30 1555 H 156.148 -1.40015 -2.59769 0
M  V30 1556 H 156.229 -2.31605 -1.08594 0
M  V30 1557 H 155.873 -4.47553 -2.40123 0
M  V30 1558 H 155.803 -3.5288 -3.90875 0
M  V30 1559 H 158.294 -2.81743 -2.51852 0
M  V30 1560 H 158.607 -6.15943 -4.66727 0
M  V30 1561 H 156.952 -5.53514 -4.20294 0
M  V30 1562 H 160.143 -3.5455 -3.05634 0
M  V30 1563 H 160.316 -5.06934 -4.03636 0
M  V30 1564 N 153.722 1.14298 -1.08507 0
M  V30 1565 C 154.652 2.21542 -0.737646 0
M  V30 1566 C 155.633 1.67773 0.280377 0
M  V30 1567 O 156.818 1.93616 0.150521 0
M  V30 1568 C 153.948 3.46988 -0.147259 0
M  V30 1569 C 152.902 4.13789 -1.09374 0
M  V30 1570 C 152.228 5.33449 -0.365524 0
M  V30 1571 C 153.528 4.62208 -2.4323 0
M  V30 1572 H 155.222 2.5086 -1.6343 0
M  V30 1573 H 152.768 1.20576 -0.787243 0
M  V30 1574 H 154.721 4.21262 0.107808 0
M  V30 1575 H 153.445 3.17037 0.784538 0
M  V30 1576 H 152.104 3.4147 -1.33393 0
M  V30 1577 H 151.752 4.99759 0.57011 0
M  V30 1578 H 151.452 5.79088 -0.996512 0
M  V30 1579 H 152.976 6.10485 -0.118534 0
M  V30 1580 H 154.39 5.27952 -2.23472 0
M  V30 1581 H 152.787 5.18553 -3.02031 0
M  V30 1582 H 153.857 3.77224 -3.04681 0
M  V30 1583 N 155.201 0.870884 1.31352 0
M  V30 1584 C 156.164 0.332243 2.26779 0
M  V30 1585 C 157.164 -0.517302 1.52252 0
M  V30 1586 O 158.354 -0.326477 1.71113 0
M  V30 1587 C 155.486 -0.528066 3.36785 0
M  V30 1588 H 156.679 1.17469 2.75937 0
M  V30 1589 H 154.232 0.64655 1.423 0
M  V30 1590 H 154.967 -1.39167 2.92922 0
M  V30 1591 H 154.752 0.0802582 3.92018 0
M  V30 1592 H 156.242 -0.897179 4.07849 0
M  V30 1593 N 156.679 -1.44442 0.630414 0
M  V30 1594 C 157.919 -2.03934 0.137919 0
M  V30 1595 C 158.283 -1.48509 -1.21692 0
M  V30 1596 O 159.484 -1.99499 -1.80149 0
M  V30 1597 C 157.755 -3.57187 0.123373 0
M  V30 1598 S 159.314 -4.37741 -0.304604 0
M  V30 1599 H 156.132 -0.708401 0.0607353 0
M  V30 1600 H 158.734 -1.76835 0.833643 0
M  V30 1601 H 157.438 -3.95032 1.11256 0
M  V30 1602 H 156.969 -3.88895 -0.59362 0
M  V30 1603 H 158.984 -4.71403 -1.54897 0
M  V30 1604 N 158.157 -0.370918 -1.53173 0
M  V30 1605 C 159.385 0.217704 -2.05751 0
M  V30 1606 C 159.8 1.42018 -1.24404 0
M  V30 1607 O 159.157 1.80245 -0.286033 0
M  V30 1608 C 159.208 0.605954 -3.56385 0
M  V30 1609 O 158.929 -0.548734 -4.3465 0
M  V30 1610 C 160.43 1.2524 -4.25241 0
M  V30 1611 H 157.65 0.0371659 -0.66997 0
M  V30 1612 H 160.194 -0.530832 -1.9749 0
M  V30 1613 H 158.349 1.3044 -3.6478 0
M  V30 1614 H 158.763 -0.23376 -5.23979 0
M  V30 1615 H 160.237 1.47458 -5.3194 0
M  V30 1616 H 160.714 2.2143 -3.79296 0
M  V30 1617 H 161.32 0.595233 -4.21114 0
M  V30 1618 N 159.635 1.57281 -0.100228 0
M  V30 1619 C 160.598 2.13158 0.842398 0
M  V30 1620 C 161.598 1.06202 1.20738 0
M  V30 1621 O 162.788 1.32066 1.13597 0
M  V30 1622 C 159.92 2.65639 2.13655 0
M  V30 1623 H 161.113 2.97766 0.357114 0
M  V30 1624 H 158.666 1.5559 0.148823 0
M  V30 1625 H 159.401 1.84566 2.66657 0
M  V30 1626 H 159.186 3.43844 1.88451 0
M  V30 1627 H 160.676 3.08846 2.81077 0
M  V30 1628 N 161.113 -0.173488 1.56642 0
M  V30 1629 C 162.361 -0.888706 1.81512 0
M  V30 1630 C 162.682 -1.82875 0.676872 0
M  V30 1631 O 161.952 -1.93536 -0.303414 0
M  V30 1632 H 160.532 -0.331164 0.669582 0
M  V30 1633 H 163.194 -0.173823 1.94123 0
M  V30 1634 H 162.29 -1.46691 2.75478 0
M  V30 1635 N 162.591 -1.51276 -0.441967 0
M  V30 1636 C 163.554 -1.7167 -1.51862 0
M  V30 1637 C 164.554 -0.586793 -1.49711 0
M  V30 1638 O 165.744 -0.854276 -1.51815 0
M  V30 1639 C 162.876 -1.76889 -2.91416 0
M  V30 1640 H 164.069 -2.67754 -1.35084 0
M  V30 1641 H 161.622 -1.41196 -0.670333 0
M  V30 1642 H 162.357 -0.826026 -3.13604 0
M  V30 1643 H 162.142 -2.59001 -2.94382 0
M  V30 1644 H 163.632 -1.94522 -3.69528 0
M  V30 1645 N 164.069 0.697108 -1.41344 0
M  V30 1646 C 165.346 1.45154 -1.31109 0
M  V30 1647 C 165.726 2.11009 0.0620449 0
M  V30 1648 O 165.074 2.01571 1.07618 0
M  V30 1649 C 165.284 2.47223 -2.46337 0
M  V30 1650 C 166.632 3.1252 -2.87431 0
M  V30 1651 O 167.656 2.57547 -2.46065 0
M  V30 1652 O 166.515 4.12083 -3.58957 0
M  V30 1653 H 163.609 0.646365 -0.515889 0
M  V30 1654 H 166.155 0.727716 -1.53305 0
M  V30 1655 H 164.927 1.97204 -3.37974 0
M  V30 1656 H 164.55 3.27116 -2.2601 0
M  V30 1657 N 165.547 1.27147 0.931209 0
M  V30 1658 C 166.477 1.12081 2.04842 0
M  V30 1659 C 167.458 0.0232364 1.70084 0
M  V30 1660 O 168.643 0.197085 1.93197 0
M  V30 1661 C 165.773 0.76354 3.38803 0
M  V30 1662 C 164.727 1.81396 3.87659 0
M  V30 1663 C 164.053 1.31075 5.18385 0
M  V30 1664 C 165.353 3.21739 4.11438 0
M  V30 1665 H 167.047 2.05537 2.17703 0
M  V30 1666 H 164.593 0.989603 1.04608 0
M  V30 1667 H 166.546 0.644982 4.16435 0
M  V30 1668 H 165.27 -0.206727 3.25945 0
M  V30 1669 H 163.929 1.92136 3.12217 0
M  V30 1670 H 163.577 0.330037 5.01916 0
M  V30 1671 H 163.277 2.013 5.52044 0
M  V30 1672 H 164.801 1.20506 5.98591 0
M  V30 1673 H 166.215 3.14019 4.79651 0
M  V30 1674 H 164.612 3.89644 4.56397 0
M  V30 1675 H 165.682 3.67054 3.16859 0
M  V30 1676 N 167.025 -1.13721 1.09112 0
M  V30 1677 C 168.274 -1.84275 0.82009 0
M  V30 1678 C 168.587 -1.84253 -0.656509 0
M  V30 1679 O 169.793 -2.50668 -1.04296 0
M  V30 1680 C 168.249 -3.30825 1.41714 0
M  V30 1681 C 167.857 -3.39244 2.92605 0
M  V30 1682 C 169.601 -4.06443 1.22492 0
M  V30 1683 C 167.508 -4.80047 3.45411 0
M  V30 1684 H 166.438 -0.690387 0.30312 0
M  V30 1685 H 169.089 -1.28146 1.31343 0
M  V30 1686 H 167.471 -3.86737 0.851498 0
M  V30 1687 H 168.645 -2.93344 3.55367 0
M  V30 1688 H 166.96 -2.77088 3.10823 0
M  V30 1689 H 169.557 -5.10387 1.59402 0
M  V30 1690 H 169.9 -4.15972 0.165299 0
M  V30 1691 H 170.433 -3.56852 1.75788 0
M  V30 1692 H 167.172 -4.75709 4.50978 0
M  V30 1693 H 166.692 -5.26455 2.87411 0
M  V30 1694 H 168.371 -5.48957 3.42425 0
M  V30 1695 N 168.503 -0.877838 -1.30888 0
M  V30 1696 C 169.451 -0.328662 -2.30266 0
M  V30 1697 C 170.445 0.560496 -1.59859 0
M  V30 1698 O 171.651 0.445722 -1.74394 0
M  V30 1699 H 168.026 -0.0876142 -0.746879 0
M  V30 1700 H 169.997 -1.18061 -2.74051 0
M  V30 1701 C 168.746 0.448071 -3.44801 0
M  V30 1702 H 168.069 -0.226859 -3.99156 0
M  V30 1703 H 169.509 0.797541 -4.16432 0
M  V30 1704 C 167.968 1.64239 -2.94155 0
M  V30 1705 O 168.498 2.74175 -2.93583 0
M  V30 1706 N 166.704 1.47716 -2.50256 0
M  V30 1707 H 166.251 0.582821 -2.5092 0
M  V30 1708 H 166.209 2.27765 -2.16727 0
M  V30 1709 N 169.982 1.44106 -0.638065 0
M  V30 1710 C 171.259 1.95453 -0.0759321 0
M  V30 1711 C 171.639 1.57984 1.40015 0
M  V30 1712 O 170.987 0.857361 2.11806 0
M  V30 1713 C 171.197 3.47655 -0.306132 0
M  V30 1714 C 172.545 4.24114 -0.203008 0
M  V30 1715 O 173.569 3.55405 -0.237871 0
M  V30 1716 O 172.428 5.46381 -0.113827 0
M  V30 1717 H 169.522 0.826797 0.0183332 0
M  V30 1718 H 172.068 1.54122 -0.710251 0
M  V30 1719 H 170.84 3.68 -1.3301 0
M  V30 1720 H 170.463 3.95949 0.361991 0
M  V30 1721 N 171.46 0.379036 1.52974 0
M  V30 1722 C 172.685 -0.209353 2.06341 0
M  V30 1723 C 173.11 -1.40583 1.24972 0
M  V30 1724 O 172.468 -1.79246 0.272155 0
M  V30 1725 C 172.516 -0.567786 3.56102 0
M  V30 1726 O 171.62 -1.66318 3.77375 0
M  V30 1727 H 170.961 -0.0272919 0.663439 0
M  V30 1728 H 173.491 0.543536 1.97248 0
M  V30 1729 H 173.501 -0.835003 3.99364 0
M  V30 1730 H 172.176 0.307013 4.14765 0
M  V30 1731 H 170.753 -1.39048 3.46006 0
M  V30 1732 N 172.938 -1.57226 0.108567 0
M  V30 1733 C 174.184 -1.95919 -0.546564 0
M  V30 1734 C 174.539 -0.990417 -1.6495 0
M  V30 1735 O 173.832 -0.0186593 -1.91591 0
M  V30 1736 C 174.026 -3.38911 -1.13463 0
M  V30 1737 C 173.855 -4.4961 -0.0901926 0
M  V30 1738 C 172.625 -5.04168 0.338008 0
M  V30 1739 C 174.823 -5.09693 0.686808 0
M  V30 1740 N 172.805 -5.98434 1.36931 0
M  V30 1741 C 174.176 -5.99804 1.56958 0
M  V30 1742 C 176.231 -4.92388 0.738846 0
M  V30 1743 C 174.934 -6.74463 2.49983 0
M  V30 1744 C 176.96 -5.67719 1.65676 0
M  V30 1745 C 176.322 -6.57507 2.52713 0
M  V30 1746 H 172.421 -0.763312 -0.169936 0
M  V30 1747 H 175.005 -1.93728 0.194264 0
M  V30 1748 H 173.176 -3.41769 -1.84522 0
M  V30 1749 H 174.908 -3.64752 -1.75322 0
M  V30 1750 H 171.663 -4.73571 -0.0523673 0
M  V30 1751 H 172.087 -6.5027 1.88356 0
M  V30 1752 H 176.729 -4.22724 0.080084 0
M  V30 1753 H 174.447 -7.4338 3.16878 0
M  V30 1754 H 178.033 -5.56338 1.70233 0
M  V30 1755 H 176.913 -7.14778 3.22586 0
M  V30 1756 N 174.416 0.165178 -1.56732 0
M  V30 1757 C 175.664 0.879068 -1.8198 0
M  V30 1758 C 175.985 1.82514 -0.686561 0
M  V30 1759 O 175.255 1.93694 0.293146 0
M  V30 1760 H 173.835 0.327608 -0.671329 0
M  V30 1761 H 176.497 0.163526 -1.94213 0
M  V30 1762 H 175.593 1.45228 -2.76252 0
M  V30 1763 N 175.894 1.51508 0.433938 0
M  V30 1764 C 177.142 1.6402 1.18075 0
M  V30 1765 C 177.463 0.360328 1.91642 0
M  V30 1766 O 176.733 -0.623945 1.85698 0
M  V30 1767 H 175.313 0.6045 0.43885 0
M  V30 1768 H 177.975 1.88452 0.497178 0
M  V30 1769 H 177.071 2.46949 1.90847 0
M  V30 1770 N 177.372 -0.689602 1.41712 0
M  V30 1771 C 178.335 -1.78521 1.43746 0
M  V30 1772 C 179.335 -1.57436 0.327191 0
M  V30 1773 O 180.525 -1.64 0.587348 0
M  V30 1774 C 177.657 -3.16971 1.25467 0
M  V30 1775 H 178.85 -1.78108 2.41283 0
M  V30 1776 H 176.403 -0.89781 1.27942 0
M  V30 1777 H 177.138 -3.23019 0.287948 0
M  V30 1778 H 176.923 -3.33678 2.05917 0
M  V30 1779 H 178.413 -3.96935 1.2974 0
M  V30 1780 N 178.85 -1.27639 -0.924453 0
M  V30 1781 C 180.127 -1.04887 -1.651 0
M  V30 1782 C 180.507 0.415327 -2.06974 0
M  V30 1783 O 179.855 1.39923 -1.80648 0
M  V30 1784 C 180.065 -2.01348 -2.85061 0
M  V30 1785 C 181.413 -2.30899 -3.56329 0
M  V30 1786 O 182.437 -1.99348 -2.95193 0
M  V30 1787 O 181.296 -2.84699 -4.66485 0
M  V30 1788 H 178.39 -0.400083 -0.723784 0
M  V30 1789 H 180.936 -1.38916 -0.974703 0
M  V30 1790 H 179.708 -3.0008 -2.51133 0
M  V30 1791 H 179.331 -1.679 -3.6041 0
M  V30 1792 N 180.328 1.1314 -1.09713 0
M  V30 1793 C 181.739 1.66029 -0.853885 0
M  V30 1794 C 182.09 1.86241 0.617142 0
M  V30 1795 O 181.215 1.5834 1.47503 0
M  V30 1796 C 181.81 3.01599 -1.5435 0
M  V30 1797 C 180.369 3.51467 -1.34714 0
M  V30 1798 C 179.516 2.26648 -1.59769 0
M  V30 1799 H 182.467 0.970226 -1.25588 0
M  V30 1800 H 182.488 3.67709 -0.978267 0
M  V30 1801 H 182 2.86856 -2.6141 0
M  V30 1802 H 180.101 3.71408 -0.297838 0
M  V30 1803 H 180.214 4.314 -2.08401 0
M  V30 1804 H 178.578 2.33385 -1.01998 0
M  V30 1805 H 179.361 2.14467 -2.68065 0
M  V30 1806 N 181.806 0.884767 1.30421 0
M  V30 1807 C 182.769 0.356277 2.26414 0
M  V30 1808 C 183.769 -0.501124 1.52792 0
M  V30 1809 O 184.959 -0.30831 1.7145 0
M  V30 1810 C 182.091 -0.492316 3.37326 0
M  V30 1811 H 183.284 1.20389 2.74675 0
M  V30 1812 H 180.837 0.661607 1.41607 0
M  V30 1813 H 181.572 -1.36052 2.94381 0
M  V30 1814 H 181.357 0.121832 3.91911 0
M  V30 1815 H 182.847 -0.853871 4.08777 0
M  V30 1816 N 183.284 -1.43765 0.645699 0
M  V30 1817 C 184.217 -2.2798 -0.100072 0
M  V30 1818 C 185.195 -1.39391 -0.837194 0
M  V30 1819 O 186.379 -1.68833 -0.838306 0
M  V30 1820 C 183.506 -3.18643 -1.14823 0
M  V30 1821 C 182.552 -4.2344 -0.510009 0
M  V30 1822 S 183.385 -5.30761 0.710824 0
M  V30 1823 C 184.541 -6.24992 -0.33699 0
M  V30 1824 H 184.774 -2.90884 0.614322 0
M  V30 1825 H 182.307 -1.48166 0.434304 0
M  V30 1826 H 184.265 -3.71424 -1.74799 0
M  V30 1827 H 182.926 -2.54932 -1.8349 0
M  V30 1828 H 182.119 -4.86948 -1.29991 0
M  V30 1829 H 181.721 -3.73997 0.0154577 0
M  V30 1830 H 184.013 -6.66691 -1.20537 0
M  V30 1831 H 184.956 -7.07612 0.262879 0
M  V30 1832 H 185.364 -5.60517 -0.669425 0
M  V30 1833 N 184.763 -0.387143 -1.52771 0
M  V30 1834 C 185.713 0.465942 -2.23188 0
M  V30 1835 C 186.697 1.03138 -1.23496 0
M  V30 1836 O 187.889 0.957845 -1.48843 0
M  V30 1837 C 185.018 1.59384 -3.04059 0
M  V30 1838 C 184.104 1.04024 -4.11144 0
M  V30 1839 N 184.495 0.211416 -5.05358 0
M  V30 1840 C 182.793 1.31295 -4.26237 0
M  V30 1841 C 183.494 -0.0941698 -5.81624 0
M  V30 1842 N 182.47 0.509207 -5.4121 0
M  V30 1843 H 186.272 -0.173856 -2.93385 0
M  V30 1844 H 183.786 -0.19633 -1.61209 0
M  V30 1845 H 185.783 2.21738 -3.53041 0
M  V30 1846 H 184.443 2.23648 -2.35397 0
M  V30 1847 H 185.454 -0.151151 -5.17679 0
M  V30 1848 H 182.131 1.95679 -3.68803 0
M  V30 1849 H 183.521 -0.765572 -6.67524 0
M  V30 1850 N 186.241 1.57166 -0.116904 0
M  V30 1851 C 187.151 2.18745 0.847812 0
M  V30 1852 C 188.167 1.163 1.29423 0
M  V30 1853 O 189.343 1.48761 1.35765 0
M  V30 1854 C 186.408 2.77307 2.0809 0
M  V30 1855 C 185.469 3.94781 1.68661 0
M  V30 1856 C 184.702 4.50541 2.86091 0
M  V30 1857 O 184.925 4.05202 4.01456 0
M  V30 1858 O 183.859 5.41256 2.63298 0
M  V30 1859 H 187.685 3.01632 0.353778 0
M  V30 1860 H 185.27 1.49005 0.108599 0
M  V30 1861 H 187.152 3.14647 2.80313 0
M  V30 1862 H 185.827 1.97452 2.56504 0
M  V30 1863 H 184.734 3.62214 0.935518 0
M  V30 1864 H 186.067 4.76065 1.24991 0
M  V30 1865 N 187.719 -0.156864 1.56817 0
M  V30 1866 C 188.965 -0.872416 1.83076 0
M  V30 1867 C 189.298 -1.81261 0.697001 0
M  V30 1868 O 188.573 -1.92171 -0.30008 0
M  V30 1869 C 188.856 -1.65551 3.19789 0
M  V30 1870 C 188.709 -0.737467 4.43713 0
M  V30 1871 C 190.028 -2.62012 3.53606 0
M  V30 1872 H 187.147 -0.315715 0.665953 0
M  V30 1873 H 189.789 -0.138004 1.89498 0
M  V30 1874 H 187.939 -2.28159 3.14445 0
M  V30 1875 H 189.611 -0.123143 4.61136 0
M  V30 1876 H 187.854 -0.0464067 4.33775 0
M  V30 1877 H 188.525 -1.32122 5.35955 0
M  V30 1878 H 191.001 -2.09525 3.59497 0
M  V30 1879 H 189.877 -3.13861 4.50314 0
M  V30 1880 H 190.138 -3.42902 2.79053 0
M  V30 1881 N 189.197 -1.51736 -0.425897 0
M  V30 1882 C 190.16 -1.73271 -1.50032 0
M  V30 1883 C 191.16 -0.602639 -1.4908 0
M  V30 1884 O 192.35 -0.87033 -1.509 0
M  V30 1885 C 189.482 -1.79969 -2.89523 0
M  V30 1886 H 190.675 -2.69172 -1.32237 0
M  V30 1887 H 188.228 -1.41899 -0.65532 0
M  V30 1888 H 188.963 -0.859241 -3.1271 0
M  V30 1889 H 188.748 -2.62109 -2.91619 0
M  V30 1890 H 190.238 -1.9843 -3.67444 0
M  V30 1891 N 190.675 0.682077 -1.42076 0
M  V30 1892 C 191.638 1.77756 -1.44691 0
M  V30 1893 C 192.638 1.5726 -0.335535 0
M  V30 1894 O 193.828 1.63686 -0.596037 0
M  V30 1895 C 190.96 3.16301 -1.27146 0
M  V30 1896 H 192.153 1.76826 -2.42224 0
M  V30 1897 H 189.706 0.891012 -1.28416 0
M  V30 1898 H 190.441 3.22862 -0.305075 0
M  V30 1899 H 190.226 3.32581 -2.07683 0
M  V30 1900 H 191.716 3.96241 -1.31843 0
M  V30 1901 N 192.153 1.28127 0.917671 0
M  V30 1902 C 193.063 1.13556 2.05286 0
M  V30 1903 C 194.079 0.0630914 1.73886 0
M  V30 1904 O 195.255 0.271598 1.9956 0
M  V30 1905 C 192.32 0.794676 3.3747 0
M  V30 1906 C 191.381 1.94909 3.82504 0
M  V30 1907 C 190.614 1.62437 5.0838 0
M  V30 1908 O 190.837 0.536905 5.67867 0
M  V30 1909 O 189.771 2.46677 5.4903 0
M  V30 1910 H 193.597 2.08844 2.20495 0
M  V30 1911 H 191.182 1.07409 1.03845 0
M  V30 1912 H 193.064 0.618344 4.16839 0
M  V30 1913 H 191.739 -0.128581 3.23445 0
M  V30 1914 H 190.646 2.18055 3.03978 0
M  V30 1915 H 191.979 2.85291 4.01086 0
M  V30 1916 N 193.631 -1.12557 1.10312 0
M  V30 1917 C 194.561 -2.20341 0.772798 0
M  V30 1918 C 195.542 -1.68198 -0.25365 0
M  V30 1919 O 196.727 -1.93831 -0.119699 0
M  V30 1920 C 193.857 -3.46709 0.202443 0
M  V30 1921 C 192.811 -4.11996 1.15943 0
M  V30 1922 C 192.137 -5.328 0.450345 0
M  V30 1923 C 193.437 -4.5828 2.50552 0
M  V30 1924 H 195.131 -2.48229 1.674 0
M  V30 1925 H 192.677 -1.19308 0.806326 0
M  V30 1926 H 194.63 -4.2138 -0.0407752 0
M  V30 1927 H 193.354 -3.18245 -0.734001 0
M  V30 1928 H 192.013 -3.39305 1.38808 0
M  V30 1929 H 191.661 -5.00602 -0.490531 0
M  V30 1930 H 191.361 -5.7743 1.08851 0
M  V30 1931 H 192.885 -6.10219 0.215642 0
M  V30 1932 H 194.299 -5.2433 2.31843 0
M  V30 1933 H 192.696 -5.13683 3.10242 0
M  V30 1934 H 193.766 -3.72329 3.10643 0
M  V30 1935 N 195.109 -0.891671 -1.2995 0
M  V30 1936 C 196.357 -0.512486 -1.95494 0
M  V30 1937 C 196.678 0.942776 -1.70695 0
M  V30 1938 O 195.948 1.66374 -1.03424 0
M  V30 1939 H 194.528 -0.186533 -0.723336 0
M  V30 1940 H 197.19 -1.13621 -1.58355 0
M  V30 1941 H 196.286 -0.688342 -3.04415 0
M  V30 1942 N 196.587 1.43421 -0.653314 0
M  V30 1943 C 197.55 2.29182 0.0287951 0
M  V30 1944 C 198.55 1.42213 0.750465 0
M  V30 1945 O 199.74 1.63843 0.591701 0
M  V30 1946 C 196.872 3.24278 1.05151 0
M  V30 1947 H 198.065 2.90985 -0.725786 0
M  V30 1948 H 195.618 1.50702 -0.414545 0
M  V30 1949 H 196.353 2.6737 1.83532 0
M  V30 1950 H 196.138 3.88396 0.537687 0
M  V30 1951 H 197.628 3.88647 1.52786 0
M  V30 1952 N 198.065 0.39524 1.52563 0
M  V30 1953 C 199.313 -0.184678 2.01254 0
M  V30 1954 C 199.634 -1.46822 1.28329 0
M  V30 1955 O 198.904 -1.91666 0.405094 0
M  V30 1956 H 197.484 -0.0712355 0.743596 0
M  V30 1957 H 200.146 0.528293 1.87603 0
M  V30 1958 H 199.242 -0.390681 3.09645 0
M  V30 1959 N 199.544 -1.57102 0.125237 0
M  V30 1960 C 200.474 -2.18659 -0.819174 0
M  V30 1961 C 201.455 -1.12843 -1.27281 0
M  V30 1962 O 202.64 -1.41104 -1.33429 0
M  V30 1963 C 199.77 -2.79096 -2.06695 0
M  V30 1964 C 198.724 -3.90548 -1.75088 0
M  V30 1965 C 198.05 -4.37821 -3.06948 0
M  V30 1966 C 199.35 -5.12356 -1.01435 0
M  V30 1967 H 201.044 -2.9783 -0.306202 0
M  V30 1968 H 198.59 -1.4326 -0.145839 0
M  V30 1969 H 200.543 -3.2082 -2.73226 0
M  V30 1970 H 199.267 -1.97223 -2.60328 0
M  V30 1971 H 197.926 -3.49409 -1.10944 0
M  V30 1972 H 197.574 -3.52799 -3.58527 0
M  V30 1973 H 197.274 -5.12982 -2.86571 0
M  V30 1974 H 198.798 -4.822 -3.74587 0
M  V30 1975 H 200.212 -5.5106 -1.58132 0
M  V30 1976 H 198.609 -5.9314 -0.911319 0
M  V30 1977 H 199.679 -4.849 -0.00218681 0
M  V30 1978 N 201.022 0.148545 -1.56898 0
M  V30 1979 C 202.268 0.862694 -1.83536 0
M  V30 1980 C 202.601 1.80889 -0.706604 0
M  V30 1981 O 201.876 1.92328 0.289885 0
M  V30 1982 C 202.159 1.63853 -3.20662 0
M  V30 1983 C 202.012 0.713925 -4.44098 0
M  V30 1984 C 203.331 2.60133 -3.54991 0
M  V30 1985 H 200.45 0.312179 -0.667618 0
M  V30 1986 H 203.092 0.127953 -1.89569 0
M  V30 1987 H 201.242 2.26489 -3.1565 0
M  V30 1988 H 202.914 0.098686 -4.61194 0
M  V30 1989 H 201.157 0.0234019 -4.33794 0
M  V30 1990 H 201.828 1.29278 -5.36648 0
M  V30 1991 H 204.304 2.07616 -3.60603 0
M  V30 1992 H 203.18 3.11468 -4.51972 0
M  V30 1993 H 203.441 3.41417 -2.80868 0
M  V30 1994 N 202.5 1.5196 0.417844 0
M  V30 1995 C 203.74 1.67262 1.17486 0
M  V30 1996 C 204.104 0.38983 1.88001 0
M  V30 1997 O 205.305 0.418845 2.65517 0
M  V30 1998 C 203.576 2.85526 2.14965 0
M  V30 1999 S 205.135 3.21263 2.98891 0
M  V30 2000 H 201.953 0.589077 0.398132 0
M  V30 2001 H 204.555 1.89927 0.463452 0
M  V30 2002 H 203.259 3.77145 1.61833 0
M  V30 2003 H 202.79 2.65107 2.90657 0
M  V30 2004 H 204.805 2.69208 4.16823 0
M  V30 2005 N 203.978 -0.674533 1.42435 0
M  V30 2006 C 205.203 -1.46784 1.46524 0
M  V30 2007 C 205.628 -1.87938 0.078066 0
M  V30 2008 O 204.986 -1.56014 -0.92354 0
M  V30 2009 C 205.034 -2.69307 2.39805 0
M  V30 2010 O 204.138 -3.67587 1.86959 0
M  V30 2011 H 203.479 -0.440959 0.496439 0
M  V30 2012 H 206.009 -0.827326 1.87127 0
M  V30 2013 H 206.019 -3.17374 2.56393 0
M  V30 2014 H 204.694 -2.38692 3.40586 0
M  V30 2015 H 203.271 -3.2662 1.79927 0
M  V30 2016 N 205.456 -1.28612 -0.910864 0
M  V30 2017 C 206.406 -1.09423 -2.00026 0
M  V30 2018 C 207.39 -0.0170079 -1.60891 0
M  V30 2019 O 208.582 -0.237472 -1.754 0
M  V30 2020 C 205.711 -0.76114 -3.34756 0
M  V30 2021 C 204.797 -1.87735 -3.80285 0
M  V30 2022 N 205.188 -3.11938 -3.98156 0
M  V30 2023 C 203.486 -1.76786 -4.09467 0
M  V30 2024 C 204.187 -3.84687 -4.36338 0
M  V30 2025 N 203.163 -3.12555 -4.44759 0
M  V30 2026 H 206.965 -2.03658 -2.11898 0
M  V30 2027 H 204.479 -1.19573 -1.09891 0
M  V30 2028 H 206.476 -0.604743 -4.12491 0
M  V30 2029 H 205.136 0.173403 -3.24237 0
M  V30 2030 H 206.147 -3.47516 -3.83996 0
M  V30 2031 H 202.824 -0.905284 -4.07567 0
M  V30 2032 H 204.214 -4.91518 -4.58104 0
M  V30 2033 N 206.934 1.1197 -1.10907 0
M  V30 2034 C 208.162 1.87402 -0.876824 0
M  V30 2035 C 208.577 1.79894 0.573025 0
M  V30 2036 O 207.934 1.17629 1.39534 0
M  V30 2037 C 207.985 3.36428 -1.32282 0
M  V30 2038 O 207.706 3.43765 -2.71582 0
M  V30 2039 C 209.207 4.28783 -1.12518 0
M  V30 2040 H 206.427 0.592793 -0.314384 0
M  V30 2041 H 208.971 1.41649 -1.47499 0
M  V30 2042 H 207.126 3.79706 -0.768229 0
M  V30 2043 H 207.54 4.3652 -2.90776 0
M  V30 2044 H 209.014 5.31613 -1.48633 0
M  V30 2045 H 209.491 4.39153 -0.0642394 0
M  V30 2046 H 210.097 3.91291 -1.66648 0
M  V30 2047 N 208.412 0.89855 1.29475 0
M  V30 2048 C 209.66 0.522847 1.9522 0
M  V30 2049 C 209.981 -0.93371 1.71192 0
M  V30 2050 O 209.251 -1.65823 1.04305 0
M  V30 2051 H 207.831 0.190366 0.722336 0
M  V30 2052 H 210.493 1.14459 1.5775 0
M  V30 2053 H 209.589 0.704476 3.04045 0
M  V30 2054 N 209.89 -1.43072 0.660911 0
M  V30 2055 C 211.138 -2.01323 0.177094 0
M  V30 2056 C 211.459 -1.5245 -1.2159 0
M  V30 2057 O 210.729 -0.740322 -1.81373 0
M  V30 2058 H 209.309 -0.744382 0.0624804 0
M  V30 2059 H 211.971 -1.75179 0.854305 0
M  V30 2060 H 211.067 -3.11649 0.167641 0
M  V30 2061 N 211.368 -0.403325 -1.52352 0
M  V30 2062 C 212.331 0.413051 -2.25447 0
M  V30 2063 C 213.331 0.978513 -1.276 0
M  V30 2064 O 214.521 0.858305 -1.51587 0
M  V30 2065 C 211.653 1.58087 -3.02029 0
M  V30 2066 H 212.846 -0.227094 -2.99039 0
M  V30 2067 H 210.399 -0.155722 -1.55522 0
M  V30 2068 H 211.134 2.25804 -2.32772 0
M  V30 2069 H 210.919 1.18195 -3.73861 0
M  V30 2070 H 212.409 2.1585 -3.57489 0
M  V30 2071 N 212.846 1.57033 -0.133567 0
M  V30 2072 C 213.776 2.1909 0.807567 0
M  V30 2073 C 214.757 1.13517 1.26681 0
M  V30 2074 O 215.942 1.41809 1.32679 0
M  V30 2075 C 213.072 2.80188 2.05212 0
M  V30 2076 C 212.026 3.91471 1.73015 0
M  V30 2077 C 211.352 4.39443 3.04622 0
M  V30 2078 C 212.652 5.12886 0.987168 0
M  V30 2079 H 214.346 2.97988 0.290403 0
M  V30 2080 H 211.892 1.43335 0.138239 0
M  V30 2081 H 213.845 3.22264 2.71521 0
M  V30 2082 H 212.569 1.98601 2.59278 0
M  V30 2083 H 211.228 3.49993 1.0909 0
M  V30 2084 H 210.876 3.54695 3.56651 0
M  V30 2085 H 210.576 5.14495 2.83847 0
M  V30 2086 H 212.1 4.8418 3.72024 0
M  V30 2087 H 213.514 5.51891 1.55208 0
M  V30 2088 H 211.911 5.93615 0.87985 0
M  V30 2089 H 212.981 4.84894 -0.0235286 0
M  V30 2090 N 214.325 -0.140222 1.56975 0
M  V30 2091 C 215.736 -0.699596 1.73097 0
M  V30 2092 C 216.087 -1.8134 0.749022 0
M  V30 2093 O 215.212 -2.16241 -0.0828503 0
M  V30 2094 C 215.807 -1.27582 3.1386 0
M  V30 2095 C 214.366 -1.78169 3.31561 0
M  V30 2096 C 213.513 -0.672855 2.69013 0
M  V30 2097 H 216.464 0.0855115 1.58469 0
M  V30 2098 H 216.485 -2.14561 3.14235 0
M  V30 2099 H 215.997 -0.464955 3.85305 0
M  V30 2100 H 214.098 -2.61801 2.65124 0
M  V30 2101 H 214.211 -1.90574 4.39566 0
M  V30 2102 H 212.575 -1.10118 2.29665 0
M  V30 2103 H 213.358 0.126679 3.43066 0
M  V30 2104 N 215.803 -1.52179 -0.40978 0
M  V30 2105 C 217.219 -1.40968 -0.74835 0
M  V30 2106 C 217.419 -0.513657 -1.94843 0
M  V30 2107 O 216.475 0.0208026 -2.52491 0
M  V30 2108 C 217.788 -2.83483 -1.0029 0
M  V30 2109 C 219.336 -2.92821 -1.10565 0
M  V30 2110 C 219.811 -4.36303 -1.39296 0
M  V30 2111 N 221.302 -4.39535 -1.46162 0
M  V30 2112 C 222.037 -5.47614 -1.70018 0
M  V30 2113 N 221.533 -6.65812 -1.91483 0
M  V30 2114 N 223.326 -5.35129 -1.72027 0
M  V30 2115 H 215.477 -2.0897 0.380186 0
M  V30 2116 H 217.74 -0.94185 0.107805 0
M  V30 2117 H 217.446 -3.51168 -0.193461 0
M  V30 2118 H 217.32 -3.24487 -1.92323 0
M  V30 2119 H 219.707 -2.25318 -1.90568 0
M  V30 2120 H 219.788 -2.55276 -0.16369 0
M  V30 2121 H 219.432 -5.04366 -0.598109 0
M  V30 2122 H 219.362 -4.71385 -2.34743 0
M  V30 2123 H 221.853 -3.54332 -1.31367 0
M  V30 2124 H 222.166 -7.43964 -2.09134 0
M  V30 2125 H 220.511 -6.68879 -1.88749 0
M  V30 2126 H 223.702 -4.41764 -1.54796 0
M  V30 2127 H 223.875 -6.19433 -1.9028 0
M  V30 2128 N 217.281 0.66697 -1.42791 0
M  V30 2129 C 218.509 1.45505 -1.47091 0
M  V30 2130 C 218.924 1.8861 -0.0845873 0
M  V30 2131 O 218.281 1.58632 0.90234 0
M  V30 2132 C 218.332 2.69906 -2.40485 0
M  V30 2133 O 218.053 2.28608 -3.73725 0
M  V30 2134 C 219.554 3.63396 -2.53886 0
M  V30 2135 H 216.774 0.447459 -0.500022 0
M  V30 2136 H 219.318 0.818866 -1.8739 0
M  V30 2137 H 217.473 3.29696 -2.03419 0
M  V30 2138 H 217.887 3.08997 -4.23817 0
M  V30 2139 H 219.361 4.47387 -3.2334 0
M  V30 2140 H 219.838 4.09824 -1.57927 0
M  V30 2141 H 220.444 3.09495 -2.91706 0
M  V30 2142 N 218.759 1.29093 0.90403 0
M  V30 2143 C 220.175 1.07011 1.1841 0
M  V30 2144 C 220.375 -0.181358 2.00682 0
M  V30 2145 O 219.431 -0.880331 2.36657 0
M  V30 2146 C 220.744 2.32311 1.90924 0
M  V30 2147 C 222.292 2.37587 2.03768 0
M  V30 2148 C 222.767 3.62679 2.79693 0
M  V30 2149 N 224.258 3.63376 2.87249 0
M  V30 2150 C 224.993 4.56848 3.46522 0
M  V30 2151 N 224.489 5.60648 4.06996 0
M  V30 2152 N 226.282 4.44426 3.44154 0
M  V30 2153 H 218.433 2.09412 0.354993 0
M  V30 2154 H 220.696 0.922181 0.219742 0
M  V30 2155 H 220.402 3.23536 1.37905 0
M  V30 2156 H 220.276 2.39483 2.91424 0
M  V30 2157 H 222.663 1.46853 2.55965 0
M  V30 2158 H 222.744 2.34403 1.02415 0
M  V30 2159 H 222.388 4.53762 2.28173 0
M  V30 2160 H 222.318 3.63119 3.81381 0
M  V30 2161 H 224.809 2.88321 2.44293 0
M  V30 2162 H 225.122 6.28101 4.50232 0
M  V30 2163 H 223.467 5.64463 4.05471 0
M  V30 2164 H 226.658 3.62529 2.96126 0
M  V30 2165 H 226.831 5.17457 3.90054 0
M  V30 2166 N 220.237 -1.11381 1.11499 0
M  V30 2167 C 221.648 -1.6465 0.880191 0
M  V30 2168 C 221.999 -1.87199 -0.587434 0
M  V30 2169 O 221.124 -1.60667 -1.44966 0
M  V30 2170 C 221.719 -2.99105 1.59128 0
M  V30 2171 C 220.278 -3.49279 1.40289 0
M  V30 2172 C 219.425 -2.24077 1.63354 0
M  V30 2173 H 222.376 -0.950123 1.27116 0
M  V30 2174 H 222.397 -3.66107 1.03664 0
M  V30 2175 H 221.909 -2.82661 2.65941 0
M  V30 2176 H 220.01 -3.70887 0.356888 0
M  V30 2177 H 220.123 -4.2803 2.15238 0
M  V30 2178 H 218.487 -2.31733 1.05698 0
M  V30 2179 H 219.27 -2.10175 2.71443 0
M  V30 2180 N 221.715 -0.905404 -1.28997 0
M  V30 2181 C 222.962 -0.534248 -1.95325 0
M  V30 2182 C 223.29 0.920535 -1.71337 0
M  V30 2183 O 222.545 1.66861 -1.02254 0
M  V30 2184 C 222.844 -0.779906 -3.48787 0
M  V30 2185 C 222.51 -2.21293 -3.92861 0
M  V30 2186 C 221.172 -2.60475 -4.04606 0
M  V30 2187 C 223.524 -3.14587 -4.15553 0
M  V30 2188 C 220.852 -3.9212 -4.36416 0
M  V30 2189 C 223.204 -4.45787 -4.48839 0
M  V30 2190 C 221.868 -4.84834 -4.58794 0
M  V30 2191 H 221.138 -0.195495 -0.714747 0
M  V30 2192 H 223.785 -1.14514 -1.53488 0
M  V30 2193 H 222.09 -0.0861365 -3.91705 0
M  V30 2194 H 223.787 -0.472029 -3.98212 0
M  V30 2195 H 220.377 -1.89887 -3.84241 0
M  V30 2196 H 224.561 -2.85528 -4.0594 0
M  V30 2197 H 219.817 -4.22086 -4.42327 0
M  V30 2198 H 223.991 -5.18098 -4.65346 0
M  V30 2199 H 221.618 -5.86877 -4.83197 0
M  V30 2200 N 223.193 1.4272 -0.668489 0
M  V30 2201 C 224.609 1.55992 -0.33745 0
M  V30 2202 C 224.809 1.64933 1.15756 0
M  V30 2203 O 223.865 1.61278 1.94282 0
M  V30 2204 C 225.178 2.81314 -1.06222 0
M  V30 2205 C 226.726 2.95078 -1.04394 0
M  V30 2206 C 227.201 4.23252 -1.74991 0
M  V30 2207 N 228.692 4.3015 -1.71829 0
M  V30 2208 C 229.427 5.28127 -2.23315 0
M  V30 2209 N 228.923 6.32293 -2.83156 0
M  V30 2210 N 230.716 5.19882 -2.13726 0
M  V30 2211 H 222.867 1.3516 -1.63846 0
M  V30 2212 H 225.13 0.650174 -0.689912 0
M  V30 2213 H 224.836 2.80823 -2.11734 0
M  V30 2214 H 224.71 3.72012 -0.62344 0
M  V30 2215 H 227.097 2.951 0.0028244 0
M  V30 2216 H 227.178 2.05627 -1.52155 0
M  V30 2217 H 226.822 4.2399 -2.79633 0
M  V30 2218 H 226.752 5.11626 -1.24685 0
M  V30 2219 H 229.243 3.55499 -1.28175 0
M  V30 2220 H 229.556 7.03398 -3.20079 0
M  V30 2221 H 227.901 6.32873 -2.87223 0
M  V30 2222 H 231.092 4.37423 -1.66669 0
M  V30 2223 H 231.265 5.96077 -2.54158 0
M  V30 2224 N 224.671 0.411399 1.52136 0
M  V30 2225 C 225.917 -0.163888 2.02137 0
M  V30 2226 C 226.25 -1.44597 1.29636 0
M  V30 2227 O 225.525 -1.90272 0.403353 0
M  V30 2228 C 225.808 -0.40927 3.57767 0
M  V30 2229 C 225.661 0.889643 4.40914 0
M  V30 2230 C 226.98 -1.19042 4.23694 0
M  V30 2231 H 224.099 -0.0580896 0.734707 0
M  V30 2232 H 226.741 0.54531 1.82007 0
M  V30 2233 H 224.891 -1.0134 3.7505 0
M  V30 2234 H 226.563 1.52575 4.35337 0
M  V30 2235 H 224.806 1.50011 4.07037 0
M  V30 2236 H 225.477 0.672314 5.4789 0
M  V30 2237 H 227.953 -0.678942 4.10524 0
M  V30 2238 H 226.829 -1.33086 5.32522 0
M  V30 2239 H 227.09 -2.21166 3.82803 0
M  V30 2240 N 226.149 -1.5696 0.141893 0
M  V30 2241 C 227.374 -2.00754 -0.520838 0
M  V30 2242 C 227.799 -1.0213 -1.57959 0
M  V30 2243 O 227.157 0.00371324 -1.813 0
M  V30 2244 C 227.205 -3.43318 -1.10294 0
M  V30 2245 O 226.309 -3.47679 -2.21795 0
M  V30 2246 H 225.65 -0.651564 -0.127908 0
M  V30 2247 H 228.18 -2.03221 0.23712 0
M  V30 2248 H 228.19 -3.82012 -1.43287 0
M  V30 2249 H 226.865 -4.14608 -0.327574 0
M  V30 2250 H 225.442 -3.20824 -1.9007 0
M  V30 2251 N 227.627 0.131896 -1.57047 0
M  V30 2252 C 228.857 0.855219 -1.88068 0
M  V30 2253 C 229.265 1.74557 -0.729817 0
M  V30 2254 O 228.608 1.81083 0.308962 0
M  V30 2255 C 228.67 1.75119 -3.13964 0
M  V30 2256 C 228.334 1.03646 -4.45091 0
M  V30 2257 C 229.331 0.383276 -5.18485 0
M  V30 2258 C 227.016 1.02148 -4.91804 0
M  V30 2259 C 229.01 -0.275347 -6.36805 0
M  V30 2260 C 226.697 0.359047 -6.10044 0
M  V30 2261 C 227.695 -0.288222 -6.82392 0
M  V30 2262 O 227.383 -0.94011 -7.98384 0
M  V30 2263 H 227.115 0.251864 -0.627328 0
M  V30 2264 H 229.669 0.124782 -2.05021 0
M  V30 2265 H 227.899 2.52295 -2.9306 0
M  V30 2266 H 229.588 2.3478 -3.31109 0
M  V30 2267 H 230.354 0.386562 -4.83457 0
M  V30 2268 H 226.233 1.5147 -4.35405 0
M  V30 2269 H 229.777 -0.781148 -6.93213 0
M  V30 2270 H 225.674 0.35348 -6.44531 0
M  V30 2271 H 226.442 -0.84329 -8.14144 0
M  V30 2272 N 229.106 1.52395 0.401703 0
M  V30 2273 C 230.354 1.66488 1.14569 0
M  V30 2274 C 230.675 0.400897 1.90835 0
M  V30 2275 O 229.945 -0.584415 1.8698 0
M  V30 2276 H 228.525 0.613672 0.425929 0
M  V30 2277 H 231.187 1.89464 0.457093 0
M  V30 2278 H 230.283 2.50942 1.85566 0
M  V30 2279 N 230.584 -0.659388 1.43143 0
M  V30 2280 C 231.812 -1.44723 1.47861 0
M  V30 2281 C 232.227 -1.88563 0.0945886 0
M  V30 2282 O 231.584 -1.59108 -0.893915 0
M  V30 2283 C 231.635 -2.68627 2.41913 0
M  V30 2284 O 231.356 -2.26623 3.74932 0
M  V30 2285 C 232.857 -3.62045 2.55809 0
M  V30 2286 H 230.077 -0.444801 0.502387 0
M  V30 2287 H 232.621 -0.808916 1.87821 0
M  V30 2288 H 230.776 -3.28613 2.05164 0
M  V30 2289 H 231.19 -3.06745 4.2545 0
M  V30 2290 H 232.664 -4.45666 3.25708 0
M  V30 2291 H 233.141 -4.08981 1.60099 0
M  V30 2292 H 233.747 -3.07944 2.93344 0
M  V30 2293 N 232.062 -1.29571 -0.897171 0
M  V30 2294 C 233.29 -1.20583 -1.68129 0
M  V30 2295 C 233.705 0.233181 -1.87354 0
M  V30 2296 O 233.062 1.15579 -1.41236 0
M  V30 2297 C 233.113 -1.91772 -3.06441 0
M  V30 2298 O 232.834 -3.30053 -2.88091 0
M  V30 2299 C 234.335 -1.89291 -4.00854 0
M  V30 2300 H 231.555 -0.417826 -0.525036 0
M  V30 2301 H 234.099 -1.70987 -1.12177 0
M  V30 2302 H 232.254 -1.45196 -3.59161 0
M  V30 2303 H 232.668 -3.65942 -3.75748 0
M  V30 2304 H 234.142 -2.43662 -4.95311 0
M  V30 2305 H 234.619 -0.869014 -4.30517 0
M  V30 2306 H 235.225 -2.35622 -3.54066 0
M  V30 2307 N 233.54 1.10788 -1.12088 0
M  V30 2308 C 234.768 1.86461 -0.896651 0
M  V30 2309 C 235.183 1.80492 0.553912 0
M  V30 2310 O 234.54 1.19102 1.38278 0
M  V30 2311 C 234.591 3.35006 -1.35843 0
M  V30 2312 O 234.312 3.40866 -2.75213 0
M  V30 2313 C 235.813 4.27565 -1.1706 0
M  V30 2314 H 233.033 0.589425 -0.320654 0
M  V30 2315 H 235.577 1.40076 -1.48993 0
M  V30 2316 H 233.732 3.7887 -0.808458 0
M  V30 2317 H 234.146 4.33411 -2.9539 0
M  V30 2318 H 235.62 5.30007 -1.54263 0
M  V30 2319 H 236.097 4.3906 -0.110814 0
M  V30 2320 H 236.703 3.89501 -1.70789 0
M  V30 2321 N 235.018 0.912232 1.28515 0
M  V30 2322 C 236.434 0.610159 1.47476 0
M  V30 2323 C 236.634 -0.844955 1.82928 0
M  V30 2324 O 235.69 -1.62416 1.93332 0
M  V30 2325 C 237.003 1.54675 2.57868 0
M  V30 2326 C 238.551 1.55331 2.71738 0
M  V30 2327 C 239.026 2.47649 3.85272 0
M  V30 2328 N 240.517 2.45767 3.92623 0
M  V30 2329 C 241.252 3.13896 4.79851 0
M  V30 2330 N 240.748 3.9135 5.71679 0
M  V30 2331 N 242.541 3.02991 4.73448 0
M  V30 2332 H 234.692 1.85318 1.03783 0
M  V30 2333 H 236.955 0.794777 0.516753 0
M  V30 2334 H 236.661 2.5841 2.38574 0
M  V30 2335 H 236.535 1.27671 3.54937 0
M  V30 2336 H 238.922 0.52335 2.90422 0
M  V30 2337 H 239.003 1.86378 1.75205 0
M  V30 2338 H 238.647 3.50745 3.67342 0
M  V30 2339 H 238.577 2.13904 4.81199 0
M  V30 2340 H 241.068 1.89503 3.26951 0
M  V30 2341 H 241.381 4.40359 6.35062 0
M  V30 2342 H 239.726 3.95455 5.71524 0
M  V30 2343 H 242.917 2.41987 4.007 0
M  V30 2344 H 243.09 3.5636 5.41213 0
M  V30 2345 N 236.496 -1.42363 0.676048 0
M  V30 2346 C 237.744 -2.01123 0.198437 0
M  V30 2347 C 238.065 -1.53731 -1.19966 0
M  V30 2348 O 237.335 -0.759518 -1.80577 0
M  V30 2349 H 235.915 -0.743678 0.0703721 0
M  V30 2350 H 238.577 -1.74263 0.872837 0
M  V30 2351 H 237.673 -3.11454 0.200686 0
M  V30 2352 N 237.974 -0.419461 -1.51915 0
M  V30 2353 C 239.22 0.153166 -2.02221 0
M  V30 2354 C 239.553 1.43907 -1.30401 0
M  V30 2355 O 238.828 1.90055 -0.413438 0
M  V30 2356 C 239.111 0.390291 -3.57979 0
M  V30 2357 C 238.964 -0.913014 -4.40436 0
M  V30 2358 C 240.283 1.16794 -4.2432 0
M  V30 2359 H 237.402 0.0541924 -0.735005 0
M  V30 2360 H 240.044 -0.554955 -1.81715 0
M  V30 2361 H 238.194 0.993491 -3.75582 0
M  V30 2362 H 239.866 -1.54882 -4.34522 0
M  V30 2363 H 238.109 -1.52168 -4.06236 0
M  V30 2364 H 238.78 -0.701361 -5.47526 0
M  V30 2365 H 241.256 0.657161 -4.10878 0
M  V30 2366 H 240.132 1.3026 -5.3322 0
M  V30 2367 H 240.393 2.19132 -3.83971 0
M  V30 2368 N 239.452 1.56882 -0.150215 0
M  V30 2369 C 240.698 1.96518 0.500834 0
M  V30 2370 C 241.031 1.03527 1.64304 0
M  V30 2371 O 240.306 0.0782751 1.94342 0
M  V30 2372 C 240.589 3.45822 1.00395 0
M  V30 2373 C 240.442 4.49591 -0.136983 0
M  V30 2374 C 241.761 3.97704 1.88467 0
M  V30 2375 H 238.88 0.714535 0.18058 0
M  V30 2376 H 241.522 1.88577 -0.232091 0
M  V30 2377 H 239.672 3.5272 1.62851 0
M  V30 2378 H 241.344 4.5477 -0.77343 0
M  V30 2379 H 239.587 4.26441 -0.795652 0
M  V30 2380 H 240.258 5.51402 0.256815 0
M  V30 2381 H 242.734 3.93304 1.35834 0
M  V30 2382 H 241.61 5.0263 2.20578 0
M  V30 2383 H 241.871 3.40252 2.82279 0
M  V30 2384 N 240.93 -0.123565 1.57115 0
M  V30 2385 C 242.207 -0.862196 1.75572 0
M  V30 2386 C 242.587 -1.98279 0.724475 0
M  V30 2387 O 241.935 -2.27102 -0.252407 0
M  V30 2388 C 242.145 -1.38309 3.20424 0
M  V30 2389 C 243.493 -1.83724 3.82793 0
M  V30 2390 O 244.517 -1.47999 3.23998 0
M  V30 2391 O 243.376 -2.49685 4.86127 0
M  V30 2392 H 240.47 -0.409113 0.718718 0
M  V30 2393 H 243.016 -0.107661 1.69358 0
M  V30 2394 H 241.788 -0.578889 3.86994 0
M  V30 2395 H 241.411 -2.20046 3.31158 0
M  V30 2396 N 242.408 -1.52605 -0.393616 0
M  V30 2397 C 243.685 -1.58001 -1.15304 0
M  V30 2398 C 244.065 -0.370385 -2.07825 0
M  V30 2399 O 243.413 0.641638 -2.19306 0
M  V30 2400 C 243.623 -2.91652 -1.91677 0
M  V30 2401 C 244.971 -3.4522 -2.47201 0
M  V30 2402 O 245.995 -2.93495 -2.01839 0
M  V30 2403 O 244.854 -4.35579 -3.3005 0
M  V30 2404 H 241.948 -0.637068 -0.527327 0
M  V30 2405 H 244.494 -1.64939 -0.399141 0
M  V30 2406 H 243.266 -3.71136 -1.23992 0
M  V30 2407 H 242.889 -2.88077 -2.74039 0
M  V30 2408 N 243.887 0.651787 -1.4349 0
M  V30 2409 C 245.133 1.41376 -1.45398 0
M  V30 2410 C 245.466 1.94041 -0.0784823 0
M  V30 2411 O 244.741 1.72379 0.900878 0
M  V30 2412 C 245.024 2.59414 -2.49752 0
M  V30 2413 C 244.877 2.12232 -3.96582 0
M  V30 2414 C 246.196 3.61626 -2.50827 0
M  V30 2415 H 243.315 0.512719 -0.529422 0
M  V30 2416 H 245.957 0.738796 -1.75048 0
M  V30 2417 H 244.107 3.16997 -2.246 0
M  V30 2418 H 245.779 1.59639 -4.32797 0
M  V30 2419 H 244.022 1.43592 -4.09346 0
M  V30 2420 H 244.693 2.9712 -4.65214 0
M  V30 2421 H 247.169 3.13805 -2.7325 0
M  V30 2422 H 246.045 4.41766 -3.25783 0
M  V30 2423 H 246.306 4.14314 -1.5426 0
M  V30 2424 N 245.365 1.30045 0.890287 0
M  V30 2425 C 246.614 1.17929 1.63633 0
M  V30 2426 C 246.927 -0.266204 1.9378 0
M  V30 2427 O 248.133 -0.508804 2.6669 0
M  V30 2428 C 246.589 2.06317 2.94892 0
M  V30 2429 C 246.197 3.55745 2.72305 0
M  V30 2430 C 247.941 2.0295 3.72843 0
M  V30 2431 C 245.848 4.36205 3.99348 0
M  V30 2432 H 244.778 0.437782 0.613892 0
M  V30 2433 H 247.429 1.54754 0.986075 0
M  V30 2434 H 245.811 1.6237 3.61182 0
M  V30 2435 H 246.985 4.07805 2.1455 0
M  V30 2436 H 245.3 3.6088 2.07737 0
M  V30 2437 H 247.897 2.60319 4.67053 0
M  V30 2438 H 248.24 1.0117 4.0382 0
M  V30 2439 H 248.773 2.4499 3.13408 0
M  V30 2440 H 245.512 5.38659 3.73533 0
M  V30 2441 H 245.032 3.8891 4.56628 0
M  V30 2442 H 246.711 4.47362 4.67415 0
M  V30 2443 N 246.843 -1.10192 1.12674 0
M  V30 2444 C 248.259 -1.34235 0.863317 0
M  V30 2445 C 248.459 -1.95062 -0.505277 0
M  V30 2446 O 247.515 -2.19192 -1.25345 0
M  V30 2447 C 248.828 -2.2616 1.98172 0
M  V30 2448 C 250.376 -2.3969 2.0129 0
M  V30 2449 C 250.851 -3.34946 3.1237 0
M  V30 2450 N 252.342 -3.42515 3.11829 0
M  V30 2451 C 253.077 -4.16199 3.94419 0
M  V30 2452 N 252.573 -4.92747 4.87004 0
M  V30 2453 N 254.366 -4.11843 3.82547 0
M  V30 2454 H 246.517 -0.690798 2.00853 0
M  V30 2455 H 248.78 -0.366774 0.874174 0
M  V30 2456 H 248.486 -1.8868 2.96804 0
M  V30 2457 H 248.36 -3.26488 1.88906 0
M  V30 2458 H 250.747 -2.76438 1.03276 0
M  V30 2459 H 250.828 -1.39169 2.14629 0
M  V30 2460 H 250.472 -2.98923 4.10619 0
M  V30 2461 H 250.402 -4.35353 2.96269 0
M  V30 2462 H 252.893 -2.87926 2.44759 0
M  V30 2463 H 253.206 -5.46376 5.46528 0
M  V30 2464 H 251.551 -4.91862 4.91016 0
M  V30 2465 H 254.742 -3.51136 3.0955 0
M  V30 2466 H 254.915 -4.69007 4.47142 0
M  V30 2467 N 248.321 -0.919034 -1.28029 0
M  V30 2468 C 249.253 -0.368762 -2.26214 0
M  V30 2469 C 250.266 0.495716 -1.55069 0
M  V30 2470 O 251.455 0.30974 -1.75792 0
M  V30 2471 C 248.555 0.491049 -3.35324 0
M  V30 2472 C 247.728 -0.352133 -4.3598 0
M  V30 2473 C 246.787 0.443622 -5.24327 0
M  V30 2474 O 245.813 -0.14566 -5.69014 0
M  V30 2475 N 247.015 1.74545 -5.53637 0
M  V30 2476 H 249.78 -1.21273 -2.74068 0
M  V30 2477 H 247.341 -0.785541 -1.41566 0
M  V30 2478 H 249.333 1.03026 -3.91366 0
M  V30 2479 H 247.903 1.23574 -2.87138 0
M  V30 2480 H 247.123 -1.07269 -3.79324 0
M  V30 2481 H 248.411 -0.928883 -5.00249 0
M  V30 2482 H 247.809 2.24666 -5.19174 0
M  V30 2483 H 246.366 2.23138 -6.12416 0
M  V30 2484 N 249.799 1.42003 -0.683588 0
M  V30 2485 C 251.045 2.01712 -0.209825 0
M  V30 2486 C 251.378 1.53968 1.18353 0
M  V30 2487 O 250.653 0.745661 1.79639 0
M  V30 2488 C 250.936 3.59202 -0.254197 0
M  V30 2489 C 250.789 4.17102 -1.68363 0
M  V30 2490 C 252.108 4.38344 0.392709 0
M  V30 2491 H 249.227 0.732891 -0.0777189 0
M  V30 2492 H 251.869 1.68909 -0.87004 0
M  V30 2493 H 250.019 3.87278 0.307954 0
M  V30 2494 H 251.691 3.99946 -2.29871 0
M  V30 2495 H 249.934 3.72597 -2.22157 0
M  V30 2496 H 250.605 5.26249 -1.6663 0
M  V30 2497 H 253.081 4.16011 -0.0859162 0
M  V30 2498 H 251.957 5.47901 0.331063 0
M  V30 2499 H 252.218 4.16887 1.47164 0
M  V30 2500 N 251.277 0.427512 1.51691 0
M  V30 2501 C 252.505 -0.141191 2.06418 0
M  V30 2502 C 252.92 -1.37303 1.29589 0
M  V30 2503 O 252.277 -1.79059 0.352732 0
M  V30 2504 C 252.328 -0.473266 3.58389 0
M  V30 2505 O 252.049 0.709673 4.32314 0
M  V30 2506 C 253.55 -1.09371 4.29596 0
M  V30 2507 H 250.77 -0.0122747 0.670888 0
M  V30 2508 H 253.314 0.603764 1.95384 0
M  V30 2509 H 251.469 -1.16812 3.69369 0
M  V30 2510 H 251.883 0.42807 5.2275 0
M  V30 2511 H 253.357 -1.27613 5.37046 0
M  V30 2512 H 253.834 -2.072 3.87253 0
M  V30 2513 H 254.44 -0.43853 4.23033 0
M  V30 2514 N 252.755 -1.56801 0.158532 0
M  V30 2515 C 253.718 -2.16138 -0.762705 0
M  V30 2516 C 254.718 -1.1061 -1.16713 0
M  V30 2517 O 255.908 -1.36191 -1.08617 0
M  V30 2518 C 253.04 -2.73386 -2.03649 0
M  V30 2519 H 254.233 -2.98886 -0.246354 0
M  V30 2520 H 251.786 -1.56035 -0.0909744 0
M  V30 2521 H 252.521 -1.94335 -2.59623 0
M  V30 2522 H 252.306 -3.50601 -1.75559 0
M  V30 2523 H 253.796 -3.19065 -2.6942 0
M  V30 2524 N 254.233 0.115231 -1.57178 0
M  V30 2525 C 255.196 1.12526 -1.99676 0
M  V30 2526 C 256.196 1.34095 -0.88742 0
M  V30 2527 O 257.386 1.30548 -1.15337 0
M  V30 2528 C 254.518 2.4789 -2.34015 0
M  V30 2529 H 255.711 0.759912 -2.90113 0
M  V30 2530 H 253.264 0.359648 -1.52106 0
M  V30 2531 H 253.999 2.89339 -1.4647 0
M  V30 2532 H 253.784 2.33588 -3.14927 0
M  V30 2533 H 255.274 3.20575 -2.67622 0
M  V30 2534 N 255.711 1.52812 0.385517 0
M  V30 2535 C 256.674 1.77188 1.45386 0
M  V30 2536 C 257.674 0.641953 1.4743 0
M  V30 2537 O 258.864 0.910033 1.4854 0
M  V30 2538 C 255.996 1.87582 2.8465 0
M  V30 2539 H 257.189 2.72583 1.25054 0
M  V30 2540 H 254.742 1.43586 0.617467 0
M  V30 2541 H 255.477 0.941849 3.10322 0
M  V30 2542 H 255.262 2.69748 2.84567 0
M  V30 2543 H 256.752 2.08102 3.62054 0
M  V30 2544 N 257.189 -0.644168 1.43834 0
M  V30 2545 C 258.099 -1.78563 1.52159 0
M  V30 2546 C 259.115 -1.69147 0.408069 0
M  V30 2547 O 260.291 -1.90156 0.663524 0
M  V30 2548 C 257.356 -3.14888 1.45073 0
M  V30 2549 C 256.417 -3.36034 2.6717 0
M  V30 2550 C 255.65 -4.65855 2.60413 0
M  V30 2551 O 255.873 -5.45805 1.65689 0
M  V30 2552 O 254.807 -4.88918 3.5106 0
M  V30 2553 H 258.633 -1.74494 2.48567 0
M  V30 2554 H 256.218 -0.80378 1.25935 0
M  V30 2555 H 258.1 -3.96179 1.43597 0
M  V30 2556 H 256.775 -3.19528 0.518037 0
M  V30 2557 H 255.682 -2.54472 2.74217 0
M  V30 2558 H 257.015 -3.36247 3.59442 0
M  V30 2559 N 258.668 -1.30515 -0.883378 0
M  V30 2560 C 260.084 -1.08881 -1.16692 0
M  V30 2561 C 260.284 0.149409 -2.00945 0
M  V30 2562 O 259.34 0.84257 -2.38027 0
M  V30 2563 C 260.653 -2.35319 -1.87204 0
M  V30 2564 C 262.201 -2.40799 -1.99962 0
M  V30 2565 C 262.676 -3.67083 -2.73887 0
M  V30 2566 N 264.167 -3.679 -2.81432 0
M  V30 2567 C 264.902 -4.62303 -3.3921 0
M  V30 2568 N 264.398 -5.67052 -3.98025 0
M  V30 2569 N 266.191 -4.49845 -3.3704 0
M  V30 2570 H 258.342 -2.09951 -0.321633 0
M  V30 2571 H 260.605 -0.92556 -0.205043 0
M  V30 2572 H 260.311 -3.25689 -1.3274 0
M  V30 2573 H 260.185 -2.44089 -2.87577 0
M  V30 2574 H 262.572 -1.50907 -2.53597 0
M  V30 2575 H 262.653 -2.36003 -0.98673 0
M  V30 2576 H 262.297 -4.57334 -2.20925 0
M  V30 2577 H 262.227 -3.69141 -3.75556 0
M  V30 2578 H 264.718 -2.92171 -2.39676 0
M  V30 2579 H 265.031 -6.35184 -4.40183 0
M  V30 2580 H 263.376 -5.70842 -3.96439 0
M  V30 2581 H 266.567 -3.67194 -2.90321 0
M  V30 2582 H 266.74 -5.23597 -3.81772 0
M  V30 2583 N 260.146 1.09593 -1.13257 0
M  V30 2584 C 261.109 2.14359 -0.811358 0
M  V30 2585 C 262.109 1.59808 0.178377 0
M  V30 2586 O 263.299 1.74132 -0.0484911 0
M  V30 2587 C 260.431 3.40269 -0.207276 0
M  V30 2588 H 261.624 2.44284 -1.73969 0
M  V30 2589 H 259.177 1.25102 -0.936973 0
M  V30 2590 H 259.912 3.15969 0.73036 0
M  V30 2591 H 259.697 3.81154 -0.919992 0
M  V30 2592 H 261.187 4.176 0.000667944 0
M  V30 2593 N 261.624 0.925811 1.2754 0
M  V30 2594 C 262.87 0.566092 1.94739 0
M  V30 2595 C 263.203 -0.890057 1.72603 0
M  V30 2596 O 262.478 -1.63467 1.05399 0
M  V30 2597 C 262.761 0.89054 3.48915 0
M  V30 2598 C 262.614 2.4003 3.80402 0
M  V30 2599 C 263.933 0.395101 4.38323 0
M  V30 2600 H 261.052 0.20714 0.707292 0
M  V30 2601 H 263.694 1.15725 1.50691 0
M  V30 2602 H 261.844 0.387452 3.86563 0
M  V30 2603 H 263.516 2.97494 3.52555 0
M  V30 2604 H 261.759 2.85028 3.2702 0
M  V30 2605 H 262.43 2.57785 4.8811 0
M  V30 2606 H 264.906 0.826241 4.07814 0
M  V30 2607 H 263.782 0.651086 5.45025 0
M  V30 2608 H 264.043 -0.704798 4.36446 0
M  V30 2609 N 263.102 -1.41638 0.69111 0
M  V30 2610 C 264.065 -2.29178 0.0319786 0
M  V30 2611 C 265.065 -1.44153 -0.712496 0
M  V30 2612 O 266.255 -1.65354 -0.548053 0
M  V30 2613 C 263.387 -3.26952 -0.965161 0
M  V30 2614 H 264.58 -2.88959 0.802681 0
M  V30 2615 H 262.133 -1.4955 0.454356 0
M  V30 2616 H 262.868 -2.72142 -1.76378 0
M  V30 2617 H 262.653 -3.89685 -0.434522 0
M  V30 2618 H 264.143 -3.92561 -1.42428 0
M  V30 2619 N 264.58 -0.43555 -1.51462 0
M  V30 2620 C 265.543 0.365137 -2.26273 0
M  V30 2621 C 266.543 0.951227 -1.29647 0
M  V30 2622 O 267.733 0.825958 -1.53374 0
M  V30 2623 C 264.865 1.51645 -3.05314 0
M  V30 2624 H 266.058 -0.290474 -2.9849 0
M  V30 2625 H 263.611 -0.188676 -1.55157 0
M  V30 2626 H 264.346 2.20816 -2.3751 0
M  V30 2627 H 264.131 1.10238 -3.76284 0
M  V30 2628 H 265.621 2.08218 -3.61987 0
M  V30 2629 N 266.058 1.56714 -0.166846 0
M  V30 2630 C 267.306 1.96358 0.478305 0
M  V30 2631 C 267.627 1.0537 1.6408 0
M  V30 2632 O 266.897 0.119154 1.95537 0
M  V30 2633 H 265.477 0.725065 0.179692 0
M  V30 2634 H 268.139 1.93329 -0.246985 0
M  V30 2635 H 267.235 3.00547 0.841292 0
M  V30 2636 N 267.536 -0.106894 1.57237 0
M  V30 2637 C 268.782 -0.81373 1.85759 0
M  V30 2638 C 269.115 -1.78952 0.754315 0
M  V30 2639 O 268.39 -1.93029 -0.23879 0
M  V30 2640 C 268.673 -1.55293 3.24894 0
M  V30 2641 C 268.526 -0.595929 4.45835 0
M  V30 2642 C 269.845 -2.5063 3.61763 0
M  V30 2643 H 266.964 -0.294369 0.67566 0
M  V30 2644 H 269.606 -0.0776472 1.89841 0
M  V30 2645 H 267.756 -2.1804 3.21544 0
M  V30 2646 H 269.428 0.0236262 4.61294 0
M  V30 2647 H 267.671 0.0916191 4.33703 0
M  V30 2648 H 268.342 -1.15004 5.39887 0
M  V30 2649 H 270.818 -1.97982 3.65981 0
M  V30 2650 H 269.694 -2.99376 4.60071 0
M  V30 2651 H 269.955 -3.3385 2.89821 0
M  V30 2652 N 269.014 -1.53014 -0.377408 0
M  V30 2653 C 270.242 -1.72515 -1.14219 0
M  V30 2654 C 270.657 -0.448735 -1.8339 0
M  V30 2655 O 270.014 0.577592 -1.73119 0
M  V30 2656 C 270.065 -2.8826 -2.18148 0
M  V30 2657 O 269.786 -4.10962 -1.51795 0
M  V30 2658 C 271.287 -3.19536 -3.07264 0
M  V30 2659 H 268.507 -0.577301 -0.342001 0
M  V30 2660 H 271.051 -1.99712 -0.439935 0
M  V30 2661 H 269.206 -2.63492 -2.83991 0
M  V30 2662 H 269.62 -4.75693 -2.20945 0
M  V30 2663 H 271.094 -4.03959 -3.76193 0
M  V30 2664 H 271.571 -2.34403 -3.71419 0
M  V30 2665 H 272.177 -3.46186 -2.47053 0
M  V30 2666 N 270.492 0.636531 -1.44174 0
M  V30 2667 C 271.908 0.954104 -1.27941 0
M  V30 2668 C 272.108 2.0039 -0.211248 0
M  V30 2669 O 271.164 2.49236 0.404695 0
M  V30 2670 C 272.477 1.4225 -2.64925 0
M  V30 2671 C 274.025 1.53827 -2.72592 0
M  V30 2672 C 274.5 2.04053 -4.10032 0
M  V30 2673 N 275.991 2.11331 -4.12182 0
M  V30 2674 C 276.726 2.51352 -5.15374 0
M  V30 2675 N 276.222 2.90549 -6.2893 0
M  V30 2676 N 278.015 2.51438 -5.02728 0
M  V30 2677 H 270.166 -0.0578386 -2.12321 0
M  V30 2678 H 272.429 0.0367406 -0.947288 0
M  V30 2679 H 272.135 0.725466 -3.44136 0
M  V30 2680 H 272.009 2.39451 -2.9145 0
M  V30 2681 H 274.396 2.22628 -1.93702 0
M  V30 2682 H 274.477 0.550154 -2.49814 0
M  V30 2683 H 274.121 1.35848 -4.89395 0
M  V30 2684 H 274.051 3.03726 -4.30184 0
M  V30 2685 H 276.542 1.83745 -3.30222 0
M  V30 2686 H 276.855 3.19884 -7.03487 0
M  V30 2687 H 275.2 2.88313 -6.32377 0
M  V30 2688 H 278.391 2.20203 -4.13072 0
M  V30 2689 H 278.564 2.82304 -5.83274 0
M  V30 2690 N 271.97 1.30982 0.876444 0
M  V30 2691 C 273.247 1.10942 1.61094 0
M  V30 2692 C 273.627 -0.338223 2.08373 0
M  V30 2693 O 272.975 -1.33122 1.85717 0
M  V30 2694 C 273.185 2.11789 2.77392 0
M  V30 2695 C 274.533 2.43965 3.47514 0
M  V30 2696 O 275.557 2.10166 2.87591 0
M  V30 2697 O 274.416 3.01817 4.55597 0
M  V30 2698 H 271.51 0.42667 0.708436 0
M  V30 2699 H 274.056 1.42438 0.922474 0
M  V30 2700 H 272.828 3.09194 2.39823 0
M  V30 2701 H 272.451 1.81161 3.5393 0
M  V30 2702 N 273.449 -1.08991 1.13837 0
M  V30 2703 C 274.674 -1.85551 0.926585 0
M  V30 2704 C 275.099 -1.80782 -0.519566 0
M  V30 2705 O 274.457 -1.18855 -1.36906 0
M  V30 2706 C 274.505 -3.31266 1.42462 0
M  V30 2707 O 273.609 -4.07822 0.612789 0
M  V30 2708 H 272.95 -0.575192 0.331738 0
M  V30 2709 H 275.48 -1.37604 1.51414 0
M  V30 2710 H 275.49 -3.82112 1.43019 0
M  V30 2711 H 274.165 -3.34052 2.47754 0
M  V30 2712 H 272.742 -3.66731 0.675463 0
M  V30 2713 N 274.927 -0.932562 -1.27047 0
M  V30 2714 C 276.173 -0.576412 -1.94436 0
M  V30 2715 C 276.506 0.880891 -1.73072 0
M  V30 2716 O 275.781 1.62905 -1.06264 0
M  V30 2717 C 276.064 -0.909031 -3.48437 0
M  V30 2718 C 275.917 -2.42044 -3.79123 0
M  V30 2719 C 277.236 -0.418341 -4.38107 0
M  V30 2720 H 274.355 -0.210888 -0.706184 0
M  V30 2721 H 276.997 -1.16522 -1.50075 0
M  V30 2722 H 275.147 -0.407947 -3.86352 0
M  V30 2723 H 276.819 -2.99359 -3.50973 0
M  V30 2724 H 275.062 -2.86758 -3.25503 0
M  V30 2725 H 275.733 -2.6037 -4.86736 0
M  V30 2726 H 278.209 -0.847856 -4.0737 0
M  V30 2727 H 277.085 -0.679981 -5.44672 0
M  V30 2728 H 277.346 0.681642 -4.36814 0
M  V30 2729 N 276.405 1.4127 -0.698611 0
M  V30 2730 C 277.335 2.33447 -0.049629 0
M  V30 2731 C 278.316 1.51982 0.763898 0
M  V30 2732 O 279.501 1.80509 0.716257 0
M  V30 2733 C 276.631 3.35828 0.885267 0
M  V30 2734 C 275.585 4.27627 0.178613 0
M  V30 2735 C 274.911 5.20406 1.22807 0
M  V30 2736 C 276.211 5.13459 -0.956933 0
M  V30 2737 H 277.905 2.87966 -0.81951 0
M  V30 2738 H 275.451 1.38461 -0.395538 0
M  V30 2739 H 277.404 3.9924 1.34854 0
M  V30 2740 H 276.128 2.79666 1.68685 0
M  V30 2741 H 274.787 3.65643 -0.26466 0
M  V30 2742 H 274.435 4.60558 2.02226 0
M  V30 2743 H 274.135 5.82661 0.760239 0
M  V30 2744 H 275.659 5.86695 1.69179 0
M  V30 2745 H 277.073 5.70421 -0.573805 0
M  V30 2746 H 275.47 5.8467 -1.35205 0
M  V30 2747 H 276.54 4.50443 -1.79524 0
M  V30 2748 N 277.883 0.443576 1.51229 0
M  V30 2749 C 279.129 -0.120975 2.02439 0
M  V30 2750 C 279.462 -1.41815 1.32674 0
M  V30 2751 O 278.737 -1.89373 0.443622 0
M  V30 2752 C 279.02 -0.333291 3.58554 0
M  V30 2753 C 278.873 0.982968 4.38928 0
M  V30 2754 C 280.192 -1.10028 4.26124 0
M  V30 2755 H 277.311 -0.0424923 0.735774 0
M  V30 2756 H 279.953 0.583794 1.80809 0
M  V30 2757 H 278.103 -0.933614 3.77115 0
M  V30 2758 H 279.775 1.61775 4.32003 0
M  V30 2759 H 278.018 1.58611 4.03763 0
M  V30 2760 H 278.689 0.788379 5.46341 0
M  V30 2761 H 281.165 -0.591711 4.11871 0
M  V30 2762 H 280.041 -1.21761 5.35225 0
M  V30 2763 H 280.302 -2.12996 3.87408 0
M  V30 2764 N 279.361 -1.56624 0.175154 0
M  V30 2765 C 280.638 -1.88688 -0.515373 0
M  V30 2766 C 281.018 -1.08564 -1.81044 0
M  V30 2767 O 280.366 -0.180703 -2.27784 0
M  V30 2768 C 280.576 -3.40768 -0.753552 0
M  V30 2769 C 281.924 -4.10587 -1.08184 0
M  V30 2770 O 282.948 -3.46106 -0.841961 0
M  V30 2771 O 281.807 -5.24512 -1.53459 0
M  V30 2772 H 278.901 -0.78301 -0.26613 0
M  V30 2773 H 281.447 -1.68347 0.213877 0
M  V30 2774 H 280.219 -3.90965 0.161829 0
M  V30 2775 H 279.842 -3.66733 -1.53598 0
M  V30 2776 N 280.839 0.0985539 -1.57292 0
M  V30 2777 C 282.25 0.653457 -1.74891 0
M  V30 2778 C 282.601 1.7929 -0.796838 0
M  V30 2779 O 281.726 2.16385 0.0254886 0
M  V30 2780 C 282.321 1.19216 -3.17133 0
M  V30 2781 C 280.88 1.69316 -3.36168 0
M  V30 2782 C 280.027 0.601294 -2.70702 0
M  V30 2783 H 282.978 -0.127497 -1.58187 0
M  V30 2784 H 282.999 2.06154 -3.19814 0
M  V30 2785 H 282.511 0.362635 -3.86402 0
M  V30 2786 H 280.612 2.5468 -2.71972 0
M  V30 2787 H 280.725 1.78853 -4.44464 0
M  V30 2788 H 279.089 1.0399 -2.32504 0
M  V30 2789 H 279.872 -0.217592 -3.4261 0
M  V30 2790 N 282.317 1.53212 0.369288 0
M  V30 2791 C 283.545 1.73119 1.13303 0
M  V30 2792 C 283.96 0.458455 1.83149 0
M  V30 2793 O 283.317 -0.568403 1.73423 0
M  V30 2794 C 283.368 2.89413 2.16616 0
M  V30 2795 O 283.089 4.11761 1.49614 0
M  V30 2796 C 284.59 3.21161 3.05566 0
M  V30 2797 H 281.81 0.579107 0.338934 0
M  V30 2798 H 284.354 1.99942 0.429338 0
M  V30 2799 H 282.509 2.64994 2.82589 0
M  V30 2800 H 282.923 4.76858 2.18419 0
M  V30 2801 H 284.397 4.05949 3.74045 0
M  V30 2802 H 284.874 2.36369 3.70171 0
M  V30 2803 H 285.48 3.47492 2.45213 0
M  V30 2804 N 283.795 -0.628877 1.44509 0
M  V30 2805 C 284.745 -1.7345 1.47983 0
M  V30 2806 C 285.729 -1.5715 0.345373 0
M  V30 2807 O 286.921 -1.66848 0.590829 0
M  V30 2808 C 284.05 -3.12143 1.42904 0
M  V30 2809 C 283.136 -3.33906 2.61472 0
M  V30 2810 N 283.527 -3.26024 3.86706 0
M  V30 2811 C 281.825 -3.64709 2.56716 0
M  V30 2812 C 282.526 -3.48536 4.65722 0
M  V30 2813 N 281.502 -3.71517 3.96832 0
M  V30 2814 H 285.304 -1.65818 2.42655 0
M  V30 2815 H 282.818 -0.831419 1.39503 0
M  V30 2816 H 284.815 -3.91433 1.43476 0
M  V30 2817 H 283.475 -3.2094 0.492717 0
M  V30 2818 H 284.486 -3.04893 4.18641 0
M  V30 2819 H 281.163 -3.80473 1.71891 0
M  V30 2820 H 282.553 -3.48016 5.74747 0
M  V30 2821 N 285.273 -1.31445 -0.869486 0
M  V30 2822 C 286.55 -1.11795 -1.60503 0
M  V30 2823 C 286.93 0.327168 -2.08549 0
M  V30 2824 O 286.278 1.32135 -1.8642 0
M  V30 2825 C 286.488 -2.13258 -2.76265 0
M  V30 2826 C 287.836 -2.45805 -3.46215 0
M  V30 2827 O 288.86 -2.11688 -2.86473 0
M  V30 2828 O 287.719 -3.04228 -4.5399 0
M  V30 2829 H 284.813 -0.430421 -0.706163 0
M  V30 2830 H 287.359 -1.42925 -0.914907 0
M  V30 2831 H 286.131 -3.10461 -2.3818 0
M  V30 2832 H 285.754 -1.83035 -3.52964 0
M  V30 2833 N 286.751 1.08385 -1.14413 0
M  V30 2834 C 287.998 1.80776 -0.912482 0
M  V30 2835 C 288.326 1.86236 0.560934 0
M  V30 2836 O 287.581 1.33431 1.43159 0
M  V30 2837 C 287.88 3.26273 -1.45879 0
M  V30 2838 C 287.546 3.4093 -2.95089 0
M  V30 2839 C 286.208 3.44638 -3.35824 0
M  V30 2840 C 288.56 3.44591 -3.91033 0
M  V30 2841 C 285.888 3.49597 -4.71167 0
M  V30 2842 C 288.24 3.51086 -5.26233 0
M  V30 2843 C 286.904 3.53067 -5.6648 0
M  V30 2844 H 286.174 0.661507 -0.333901 0
M  V30 2845 H 288.821 1.27613 -1.42784 0
M  V30 2846 H 287.126 3.82146 -0.864376 0
M  V30 2847 H 288.823 3.80839 -1.2555 0
M  V30 2848 H 285.413 3.38736 -2.62594 0
M  V30 2849 H 289.597 3.40957 -3.60641 0
M  V30 2850 H 284.853 3.49424 -5.0171 0
M  V30 2851 H 289.027 3.52864 -6.00383 0
M  V30 2852 H 286.654 3.56662 -6.71339 0
M  V30 2853 N 288.23 0.939286 1.26551 0
M  V30 2854 C 289.478 0.58469 1.93457 0
M  V30 2855 C 289.799 -0.878774 1.74076 0
M  V30 2856 O 289.069 -1.62421 1.09528 0
M  V30 2857 H 287.649 0.21325 0.715914 0
M  V30 2858 H 290.311 1.1942 1.54029 0
M  V30 2859 H 289.407 0.800849 3.0165 0
M  V30 2860 N 289.708 -1.40897 0.706093 0
M  V30 2861 C 290.655 -2.30751 0.0474474 0
M  V30 2862 C 291.625 -1.47678 -0.76029 0
M  V30 2863 O 292.81 -1.76441 -0.726177 0
M  V30 2864 C 289.95 -3.33815 -0.875309 0
M  V30 2865 C 289.063 -4.31961 -0.0580623 0
M  V30 2866 C 288.198 -5.22093 -0.979425 0
M  V30 2867 C 287.237 -6.11902 -0.155706 0
M  V30 2868 N 286.374 -6.94482 -1.03144 0
M  V30 2869 H 291.214 -2.86513 0.819413 0
M  V30 2870 H 288.751 -1.41102 0.415783 0
M  V30 2871 H 290.709 -3.92129 -1.42446 0
M  V30 2872 H 289.339 -2.79579 -1.61356 0
M  V30 2873 H 288.391 -3.75507 0.608147 0
M  V30 2874 H 289.703 -4.95415 0.580082 0
M  V30 2875 H 288.857 -5.85292 -1.59744 0
M  V30 2876 H 287.596 -4.5889 -1.65141 0
M  V30 2877 H 286.601 -5.47742 0.475309 0
M  V30 2878 H 287.826 -6.77162 0.512635 0
M  V30 2879 H 285.772 -6.33877 -1.68924 0
M  V30 2880 H 285.689 -7.54665 -0.449108 0
M  V30 2881 H 286.957 -7.6214 -1.63593 0
M  V30 2882 N 291.186 -0.45159 -1.50991 0
M  V30 2883 C 292.134 0.366864 -2.29689 0
M  V30 2884 C 293.128 1.00809 -1.36139 0
M  V30 2885 O 294.334 0.941427 -1.53418 0
M  V30 2886 H 290.709 0.137133 -0.739391 0
M  V30 2887 H 292.68 -0.317538 -2.96706 0
M  V30 2888 C 291.429 1.44751 -3.16137 0
M  V30 2889 H 290.752 0.963473 -3.88017 0
M  V30 2890 H 292.192 1.99315 -3.74232 0
M  V30 2891 C 290.651 2.43869 -2.32442 0
M  V30 2892 O 291.181 3.4872 -1.99392 0
M  V30 2893 N 289.387 2.15105 -1.95392 0
M  V30 2894 H 288.934 1.29866 -2.22469 0
M  V30 2895 H 288.892 2.81661 -1.39693 0
M  V30 2896 N 292.664 1.56529 -0.183458 0
M  V30 2897 C 293.892 2.01623 0.464285 0
M  V30 2898 C 294.307 1.06366 1.55986 0
M  V30 2899 O 293.664 0.0665398 1.82379 0
M  V30 2900 C 293.715 3.46475 1.03139 0
M  V30 2901 O 293.436 4.38095 -0.0204675 0
M  V30 2902 C 294.937 4.0703 1.75617 0
M  V30 2903 H 292.157 0.660596 0.117704 0
M  V30 2904 H 294.701 2.02451 -0.288751 0
M  V30 2905 H 292.856 3.46383 1.73486 0
M  V30 2906 H 293.27 5.22973 0.399952 0
M  V30 2907 H 294.744 5.10271 2.10542 0
M  V30 2908 H 295.221 3.49819 2.65563 0
M  V30 2909 H 295.827 4.1086 1.09882 0
M  V30 2910 N 294.142 -0.090211 1.57342 0
M  V30 2911 C 295.389 -0.792807 1.86335 0
M  V30 2912 C 295.717 -1.78494 0.772662 0
M  V30 2913 O 294.972 -1.94305 -0.233258 0
M  V30 2914 C 295.271 -1.55222 3.21933 0
M  V30 2915 C 294.937 -0.701765 4.45406 0
M  V30 2916 C 293.599 -0.467334 4.78925 0
M  V30 2917 C 295.951 -0.11086 5.21082 0
M  V30 2918 C 293.279 0.367785 5.85546 0
M  V30 2919 C 295.631 0.711609 6.28585 0
M  V30 2920 C 294.295 0.956086 6.60617 0
M  V30 2921 H 293.565 -0.290109 0.681849 0
M  V30 2922 H 296.212 -0.0541332 1.91423 0
M  V30 2923 H 294.517 -2.3626 3.12551 0
M  V30 2924 H 296.214 -2.10032 3.41595 0
M  V30 2925 H 292.804 -0.894598 4.1916 0
M  V30 2926 H 296.988 -0.279129 4.95514 0
M  V30 2927 H 292.244 0.566128 6.08773 0
M  V30 2928 H 296.418 1.17632 6.86393 0
M  V30 2929 H 294.045 1.60499 7.43064 0
M  V30 2930 N 295.62 -1.53406 -0.361157 0
M  V30 2931 C 296.57 -1.76536 -1.44287 0
M  V30 2932 C 297.554 -0.620019 -1.48474 0
M  V30 2933 O 298.746 -0.878834 -1.53641 0
M  V30 2934 C 295.875 -1.96266 -2.81664 0
M  V30 2935 C 294.961 -3.16815 -2.81938 0
M  V30 2936 N 295.352 -4.38637 -2.51855 0
M  V30 2937 C 293.65 -3.17627 -3.13096 0
M  V30 2938 C 294.351 -5.20401 -2.59919 0
M  V30 2939 N 293.327 -4.56712 -2.94814 0
M  V30 2940 H 297.129 -2.68331 -1.19899 0
M  V30 2941 H 294.643 -1.52091 -0.56938 0
M  V30 2942 H 296.64 -2.10966 -3.59582 0
M  V30 2943 H 295.3 -1.05702 -3.07013 0
M  V30 2944 H 296.311 -4.66293 -2.25369 0
M  V30 2945 H 292.988 -2.36971 -3.43731 0
M  V30 2946 H 294.378 -6.27586 -2.39969 0
M  V30 2947 N 297.098 0.621204 -1.44841 0
M  V30 2948 C 298.346 1.37783 -1.47852 0
M  V30 2949 C 298.667 1.94653 -0.116224 0
M  V30 2950 O 297.937 1.76367 0.852737 0
M  V30 2951 H 296.517 0.511453 -0.544449 0
M  V30 2952 H 299.179 0.730446 -1.80694 0
M  V30 2953 H 298.275 2.20414 -2.20961 0
M  V30 2954 N 298.576 1.31904 0.862503 0
M  V30 2955 C 299.506 1.22782 1.98612 0
M  V30 2956 C 300.487 0.113362 1.69722 0
M  V30 2957 O 301.672 0.299218 1.91881 0
M  V30 2958 C 298.802 0.942058 3.34279 0
M  V30 2959 C 297.756 2.0169 3.77499 0
M  V30 2960 C 297.082 1.58369 5.10709 0
M  V30 2961 C 298.382 3.43096 3.93805 0
M  V30 2962 H 300.076 2.16788 2.06502 0
M  V30 2963 H 297.622 1.04366 0.992154 0
M  V30 2964 H 299.575 0.864818 4.1243 0
M  V30 2965 H 298.299 -0.0336603 3.26583 0
M  V30 2966 H 296.958 2.08416 3.01593 0
M  V30 2967 H 296.606 0.595628 4.99461 0
M  V30 2968 H 296.306 2.30279 5.40597 0
M  V30 2969 H 297.83 1.52067 5.91361 0
M  V30 2970 H 299.244 3.39003 4.62331 0
M  V30 2971 H 297.641 4.13288 4.35101 0
M  V30 2972 H 298.711 3.83334 2.96957 0
M  V30 2973 N 300.054 -1.07777 1.14986 0
M  V30 2974 C 300.984 -2.16865 0.865557 0
M  V30 2975 C 301.965 -1.69123 -0.182083 0
M  V30 2976 O 303.15 -1.94164 -0.0373815 0
M  V30 2977 C 300.28 -3.45539 0.349313 0
M  V30 2978 C 299.234 -4.06708 1.33313 0
M  V30 2979 C 298.56 -5.30411 0.675918 0
M  V30 2980 C 299.86 -4.47241 2.69764 0
M  V30 2981 H 301.554 -2.40905 1.77778 0
M  V30 2982 H 299.1 -1.15781 0.856203 0
M  V30 2983 H 301.053 -4.21174 0.137983 0
M  V30 2984 H 299.777 -3.21072 -0.598362 0
M  V30 2985 H 298.436 -3.33112 1.53075 0
M  V30 2986 H 298.084 -5.02232 -0.277767 0
M  V30 2987 H 297.784 -5.72293 1.33244 0
M  V30 2988 H 299.308 -6.08755 0.474262 0
M  V30 2989 H 300.722 -5.14025 2.53873 0
M  V30 2990 H 299.119 -5.00062 3.3175 0
M  V30 2991 H 300.189 -3.58818 3.26156 0
M  V30 2992 N 301.532 -0.945985 -1.26051 0
M  V30 2993 C 302.462 -0.477172 -2.28572 0
M  V30 2994 C 303.443 0.472032 -1.63419 0
M  V30 2995 O 304.628 0.372853 -1.90587 0
M  V30 2996 C 301.758 0.253975 -3.4637 0
M  V30 2997 C 300.712 -0.609135 -4.23643 0
M  V30 2998 C 300.038 0.252252 -5.34105 0
M  V30 2999 C 301.338 -1.8829 -4.8718 0
M  V30 3000 H 303.032 -1.33402 -2.68038 0
M  V30 3001 H 300.578 -0.642904 -1.28852 0
M  V30 3002 H 302.531 0.593016 -4.17207 0
M  V30 3003 H 301.255 1.145 -3.05871 0
M  V30 3004 H 299.914 -0.931138 -3.54578 0
M  V30 3005 H 299.562 1.14278 -4.89846 0
M  V30 3006 H 299.262 -0.32188 -5.86718 0
M  V30 3007 H 300.786 0.586454 -6.07777 0
M  V30 3008 H 302.2 -1.61081 -5.50205 0
M  V30 3009 H 300.597 -2.40199 -5.49931 0
M  V30 3010 H 301.667 -2.59134 -4.09851 0
M  V30 3011 N 303.011 1.40521 -0.713556 0
M  V30 3012 C 303.941 2.33381 -0.0743864 0
M  V30 3013 C 304.922 1.52784 0.747735 0
M  V30 3014 O 306.107 1.81258 0.697071 0
M  V30 3015 C 303.237 3.36748 0.849598 0
M  V30 3016 C 302.191 4.27793 0.133247 0
M  V30 3017 C 301.517 5.21679 1.17281 0
M  V30 3018 C 302.817 5.12415 -1.01134 0
M  V30 3019 H 304.511 2.87081 -0.850007 0
M  V30 3020 H 302.057 1.38034 -0.410201 0
M  V30 3021 H 304.01 4.00648 1.30612 0
M  V30 3022 H 302.734 2.81439 1.65709 0
M  V30 3023 H 301.393 3.65342 -0.303426 0
M  V30 3024 H 301.041 4.62677 1.9733 0
M  V30 3025 H 300.741 5.83435 0.698397 0
M  V30 3026 H 302.265 5.88456 1.62947 0
M  V30 3027 H 303.679 5.69781 -0.634274 0
M  V30 3028 H 302.076 5.83203 -1.41399 0
M  V30 3029 H 303.146 4.48514 -1.84292 0
M  V30 3030 N 304.489 0.459591 1.5075 0
M  V30 3031 C 305.905 0.113092 1.59199 0
M  V30 3032 C 306.105 -1.37951 1.46874 0
M  V30 3033 O 305.161 -2.15168 1.32132 0
M  V30 3034 C 306.474 0.653043 2.93523 0
M  V30 3035 C 308.022 0.615449 3.0689 0
M  V30 3036 C 308.497 1.13275 4.43771 0
M  V30 3037 N 309.988 1.09167 4.50152 0
M  V30 3038 C 310.723 1.46256 5.54434 0
M  V30 3039 N 310.219 1.90739 6.66026 0
M  V30 3040 N 312.012 1.37932 5.44914 0
M  V30 3041 H 304.163 1.43049 1.57005 0
M  V30 3042 H 306.426 0.590861 0.741341 0
M  V30 3043 H 306.132 1.69822 3.07983 0
M  V30 3044 H 306.006 0.0902132 3.77092 0
M  V30 3045 H 308.393 -0.420793 2.92084 0
M  V30 3046 H 308.474 1.21495 2.25106 0
M  V30 3047 H 308.118 2.16757 4.59324 0
M  V30 3048 H 308.048 0.509576 5.24129 0
M  V30 3049 H 310.539 0.76528 3.7007 0
M  V30 3050 H 310.852 2.17218 7.41644 0
M  V30 3051 H 309.197 1.94683 6.67176 0
M  V30 3052 H 312.388 1.0303 4.56621 0
M  V30 3053 H 312.561 1.67164 6.26067 0
M  V30 3054 N 305.967 -1.56429 0.191757 0
M  V30 3055 C 306.917 -2.15548 -0.743184 0
M  V30 3056 C 307.901 -1.09531 -1.17863 0
M  V30 3057 O 309.093 -1.35602 -1.13759 0
M  V30 3058 C 306.222 -2.81577 -1.96391 0
M  V30 3059 C 305.308 -3.9478 -1.54951 0
M  V30 3060 N 305.699 -4.98677 -0.845876 0
M  V30 3061 C 303.997 -4.06319 -1.83905 0
M  V30 3062 C 304.698 -5.78183 -0.638724 0
M  V30 3063 N 303.674 -5.30495 -1.18643 0
M  V30 3064 H 307.476 -2.9324 -0.196839 0
M  V30 3065 H 304.99 -1.62398 -0.0081603 0
M  V30 3066 H 306.987 -3.22321 -2.64415 0
M  V30 3067 H 305.647 -2.05371 -2.51501 0
M  V30 3068 H 306.658 -5.15464 -0.501704 0
M  V30 3069 H 303.335 -3.41238 -2.40548 0
M  V30 3070 H 304.725 -6.71851 -0.0807929 0
M  V30 3071 N 307.445 0.0818655 -1.57387 0
M  V30 3072 C 308.691 0.784074 -1.8703 0
M  V30 3073 C 309.024 1.77729 -0.782689 0
M  V30 3074 O 308.299 1.93384 0.208051 0
M  V30 3075 C 308.582 1.50105 -3.27323 0
M  V30 3076 C 308.435 0.524925 -4.46727 0
M  V30 3077 C 309.754 2.44843 -3.65705 0
M  V30 3078 H 306.873 0.283582 -0.680257 0
M  V30 3079 H 309.515 0.0474352 -1.89941 0
M  V30 3080 H 307.665 2.12897 -3.24972 0
M  V30 3081 H 309.337 -0.0970111 -4.61198 0
M  V30 3082 H 307.58 -0.160606 -4.33503 0
M  V30 3083 H 308.251 1.064 -5.41648 0
M  V30 3084 H 310.727 1.92135 -3.69085 0
M  V30 3085 H 309.603 2.92018 -4.64776 0
M  V30 3086 H 309.864 3.29197 -2.95096 0
M  V30 3087 N 308.923 1.53595 0.353017 0
M  V30 3088 C 310.2 1.61002 1.11075 0
M  V30 3089 C 310.58 0.425356 2.0677 0
M  V30 3090 O 309.928 -0.583267 2.2093 0
M  V30 3091 C 310.138 2.96631 1.83877 0
M  V30 3092 C 311.486 3.51653 2.37961 0
M  V30 3093 O 312.51 2.98743 1.93987 0
M  V30 3094 O 311.369 4.44177 3.18386 0
M  V30 3095 H 308.463 0.650825 0.510251 0
M  V30 3096 H 311.009 1.6594 0.35527 0
M  V30 3097 H 309.781 3.74293 1.14108 0
M  V30 3098 H 309.404 2.95242 2.66304 0
M  V30 3099 N 310.401 -0.613514 1.45168 0
M  V30 3100 C 311.311 -1.75296 1.55912 0
M  V30 3101 C 312.327 -1.68244 0.443856 0
M  V30 3102 O 313.503 -1.88706 0.70371 0
M  V30 3103 C 310.568 -3.1174 1.5172 0
M  V30 3104 C 309.629 -3.30291 2.74238 0
M  V30 3105 C 308.862 -4.60226 2.70236 0
M  V30 3106 O 309.085 -5.42168 1.77229 0
M  V30 3107 O 308.019 -4.81361 3.61352 0
M  V30 3108 H 311.845 -1.69183 2.52212 0
M  V30 3109 H 309.43 -0.776886 1.27612 0
M  V30 3110 H 311.312 -3.93044 1.51968 0
M  V30 3111 H 309.987 -3.18357 0.585697 0
M  V30 3112 H 308.894 -2.48598 2.79553 0
M  V30 3113 H 310.227 -3.28547 3.66494 0
M  V30 3114 N 311.879 -1.3236 -0.855495 0
M  V30 3115 C 312.809 -1.23833 -1.97958 0
M  V30 3116 C 313.79 -0.122361 -1.69659 0
M  V30 3117 O 314.975 -0.30939 -1.9172 0
M  V30 3118 C 312.105 -0.959772 -3.33775 0
M  V30 3119 C 311.059 -2.03689 -3.76424 0
M  V30 3120 C 310.385 -1.61075 -5.09862 0
M  V30 3121 C 311.685 -3.4518 -3.9198 0
M  V30 3122 H 313.379 -2.1788 -2.0535 0
M  V30 3123 H 310.925 -1.04891 -0.986605 0
M  V30 3124 H 312.878 -0.886678 -4.11966 0
M  V30 3125 H 311.602 0.0163404 -3.26596 0
M  V30 3126 H 310.261 -2.10012 -3.00484 0
M  V30 3127 H 309.909 -0.622107 -4.99138 0
M  V30 3128 H 309.609 -2.33143 -5.39368 0
M  V30 3129 H 311.133 -1.55201 -5.90546 0
M  V30 3130 H 312.547 -3.4145 -4.60526 0
M  V30 3131 H 310.944 -4.1559 -4.32903 0
M  V30 3132 H 312.014 -3.84903 -2.94919 0
M  V30 3133 N 313.357 1.07166 -1.15556 0
M  V30 3134 C 314.603 1.80065 -0.932984 0
M  V30 3135 C 314.936 1.86586 0.53845 0
M  V30 3136 O 314.211 1.35098 1.39924 0
M  V30 3137 C 314.494 3.25022 -1.55025 0
M  V30 3138 C 314.347 3.26634 -3.09242 0
M  V30 3139 C 315.666 4.22341 -1.2376 0
M  V30 3140 H 312.785 0.653697 -0.340366 0
M  V30 3141 H 315.427 1.25389 -1.4275 0
M  V30 3142 H 313.577 3.71712 -1.12972 0
M  V30 3143 H 315.249 2.88173 -3.60214 0
M  V30 3144 H 313.492 2.65539 -3.43033 0
M  V30 3145 H 314.163 4.28854 -3.47546 0
M  V30 3146 H 316.639 3.8405 -1.60139 0
M  V30 3147 H 315.515 5.22053 -1.69564 0
M  V30 3148 H 315.776 4.41828 -0.154938 0
M  V30 3149 N 314.835 0.952656 1.25548 0
M  V30 3150 C 315.782 0.47008 2.25962 0
M  V30 3151 C 316.752 -0.476384 1.59122 0
M  V30 3152 O 317.937 -0.39007 1.8677 0
M  V30 3153 C 315.077 -0.247881 3.44209 0
M  V30 3154 C 314.19 0.735591 4.25691 0
M  V30 3155 C 313.325 -0.0047306 5.312 0
M  V30 3156 C 312.364 0.969805 6.04368 0
M  V30 3157 N 311.501 0.260486 7.01617 0
M  V30 3158 H 316.341 1.33126 2.66611 0
M  V30 3159 H 313.878 0.66765 1.31076 0
M  V30 3160 H 315.836 -0.680695 4.1161 0
M  V30 3161 H 314.466 -1.07312 3.0444 0
M  V30 3162 H 313.518 1.28689 3.57971 0
M  V30 3163 H 314.83 1.47934 4.76358 0
M  V30 3164 H 313.984 -0.496275 6.04667 0
M  V30 3165 H 312.723 -0.781282 4.81401 0
M  V30 3166 H 311.728 1.47237 5.29718 0
M  V30 3167 H 312.953 1.74655 6.56256 0
M  V30 3168 H 310.899 -0.497364 6.54112 0
M  V30 3169 H 310.816 0.943362 7.50091 0
M  V30 3170 H 312.084 -0.209587 7.79218 0
M  V30 3171 N 316.313 -1.40141 0.720998 0
M  V30 3172 C 317.541 -2.05096 0.272656 0
M  V30 3173 C 317.956 -1.54334 -1.0875 0
M  V30 3174 O 317.313 -0.702211 -1.6845 0
M  V30 3175 C 317.364 -3.60636 0.249835 0
M  V30 3176 O 317.085 -4.09526 1.55629 0
M  V30 3177 C 318.586 -4.42772 -0.216396 0
M  V30 3178 H 315.806 -0.659897 0.121558 0
M  V30 3179 H 318.35 -1.79449 0.980723 0
M  V30 3180 H 316.505 -3.85232 -0.409237 0
M  V30 3181 H 316.919 -5.03758 1.4604 0
M  V30 3182 H 318.393 -5.51702 -0.181212 0
M  V30 3183 H 318.87 -4.20756 -1.25941 0
M  V30 3184 H 319.476 -4.23294 0.412596 0
M  V30 3185 N 317.792 -0.46758 -1.50504 0
M  V30 3186 C 319.04 0.0884469 -2.01906 0
M  V30 3187 C 319.361 1.40532 -1.35188 0
M  V30 3188 O 318.631 1.89515 -0.496079 0
M  V30 3189 H 317.211 0.0356765 -0.746148 0
M  V30 3190 H 319.873 -0.6172 -1.84869 0
M  V30 3191 H 318.969 0.2425 -3.11156 0
M  V30 3192 N 319.27 1.56325 -0.20005 0
M  V30 3193 C 320.516 1.98772 0.431408 0
M  V30 3194 C 320.871 1.0849 1.58895 0
M  V30 3195 O 320.164 0.130331 1.91156 0
M  V30 3196 C 320.358 3.4495 0.935103 0
M  V30 3197 C 320.187 4.49371 -0.172096 0
M  V30 3198 C 318.957 5.0134 -0.631377 0
M  V30 3199 C 321.155 5.04822 -0.982806 0
M  V30 3200 N 319.137 5.89433 -1.71588 0
M  V30 3201 C 320.508 5.89632 -1.91661 0
M  V30 3202 C 322.563 4.87242 -1.02467 0
M  V30 3203 C 321.266 6.58741 -2.88881 0
M  V30 3204 C 323.292 5.57094 -1.98494 0
M  V30 3205 C 322.654 6.41655 -2.90617 0
M  V30 3206 H 318.753 0.771922 0.125144 0
M  V30 3207 H 321.337 1.92266 -0.306883 0
M  V30 3208 H 319.508 3.51946 1.64282 0
M  V30 3209 H 321.24 3.74354 1.53758 0
M  V30 3210 H 317.995 4.73071 -0.223827 0
M  V30 3211 H 318.419 6.38182 -2.25948 0
M  V30 3212 H 323.061 4.21538 -0.326408 0
M  V30 3213 H 320.779 7.23641 -3.5968 0
M  V30 3214 H 324.365 5.45466 -2.0238 0
M  V30 3215 H 323.245 6.94755 -3.63711 0
M  V30 3216 N 320.748 -0.0735177 1.57428 0
M  V30 3217 C 322.159 -0.625551 1.75908 0
M  V30 3218 C 322.51 -1.78 0.825261 0
M  V30 3219 O 321.635 -2.16398 0.00893964 0
M  V30 3220 C 322.23 -1.14155 3.18989 0
M  V30 3221 C 320.789 -1.63946 3.38819 0
M  V30 3222 C 319.936 -0.558151 2.71625 0
M  V30 3223 H 322.887 0.152647 1.57964 0
M  V30 3224 H 322.908 -2.0104 3.23053 0
M  V30 3225 H 322.42 -0.301116 3.8693 0
M  V30 3226 H 320.521 -2.50321 2.7599 0
M  V30 3227 H 320.634 -1.71759 4.47253 0
M  V30 3228 H 318.998 -1.00278 2.34129 0
M  V30 3229 H 319.781 0.272071 3.4222 0
M  V30 3230 N 322.226 -1.5378 -0.344866 0
M  V30 3231 C 323.472 -1.71216 -1.08687 0
M  V30 3232 C 323.805 -0.473281 -1.88345 0
M  V30 3233 O 323.08 0.52968 -1.87149 0
M  V30 3234 C 323.363 -2.97486 -2.02914 0
M  V30 3235 C 323.216 -4.31579 -1.26727 0
M  V30 3236 C 324.535 -3.19422 -3.0275 0
M  V30 3237 H 321.654 -0.62301 -0.393735 0
M  V30 3238 H 324.296 -1.8645 -0.365563 0
M  V30 3239 H 322.446 -2.84629 -2.64421 0
M  V30 3240 H 324.118 -4.56284 -0.67845 0
M  V30 3241 H 322.361 -4.30049 -0.569273 0
M  V30 3242 H 323.032 -5.16106 -1.95803 0
M  V30 3243 H 325.508 -3.316 -2.51357 0
M  V30 3244 H 324.384 -4.09169 -3.65885 0
M  V30 3245 H 324.645 -2.35656 -3.74057 0
M  V30 3246 N 323.704 0.605807 -1.45491 0
M  V30 3247 C 324.634 1.72709 -1.57143 0
M  V30 3248 C 325.615 1.6476 -0.422884 0
M  V30 3249 O 326.8 1.83132 -0.646247 0
M  V30 3250 C 323.93 3.11316 -1.53948 0
M  V30 3251 C 322.884 3.34077 -2.67537 0
M  V30 3252 C 322.21 4.72975 -2.49397 0
M  V30 3253 C 323.51 3.24158 -4.09535 0
M  V30 3254 H 325.204 1.63214 -2.51001 0
M  V30 3255 H 322.75 0.78379 -1.208 0
M  V30 3256 H 324.703 3.89557 -1.60696 0
M  V30 3257 H 323.427 3.21655 -0.566205 0
M  V30 3258 H 322.086 2.58227 -2.6022 0
M  V30 3259 H 321.734 4.8005 -1.50205 0
M  V30 3260 H 321.434 4.8916 -3.25571 0
M  V30 3261 H 322.958 5.53414 -2.58002 0
M  V30 3262 H 324.372 3.92271 -4.18086 0
M  V30 3263 H 322.769 3.51872 -4.86113 0
M  V30 3264 H 323.839 2.2157 -4.31317 0
M  V30 3265 N 325.182 1.32811 0.848464 0
M  V30 3266 C 326.115 1.16601 1.96162 0
M  V30 3267 C 327.093 0.0638855 1.62474 0
M  V30 3268 O 328.277 0.224348 1.8716 0
M  V30 3269 C 325.404 0.786333 3.29446 0
M  V30 3270 C 324.45 1.89459 3.8211 0
M  V30 3271 S 325.283 3.50395 4.04949 0
M  V30 3272 C 326.439 3.14413 5.41198 0
M  V30 3273 H 326.672 2.10832 2.09612 0
M  V30 3274 H 324.205 1.17543 1.00115 0
M  V30 3275 H 326.163 0.574044 4.06466 0
M  V30 3276 H 324.824 -0.137218 3.138 0
M  V30 3277 H 324.017 1.58207 4.78526 0
M  V30 3278 H 323.619 2.06304 3.11953 0
M  V30 3279 H 325.911 2.64642 6.23675 0
M  V30 3280 H 326.854 4.09874 5.77416 0
M  V30 3281 H 327.262 2.51266 5.05495 0
M  V30 3282 N 326.66 -1.06551 1.16123 0
M  V30 3283 C 327.885 -1.83544 0.965735 0
M  V30 3284 C 328.31 -1.81843 -0.481102 0
M  V30 3285 O 327.668 -1.21732 -1.34354 0
M  V30 3286 C 327.716 -3.28169 1.49457 0
M  V30 3287 O 326.82 -4.0643 0.699157 0
M  V30 3288 H 326.161 -0.568026 0.343864 0
M  V30 3289 H 328.691 -1.34362 1.54299 0
M  V30 3290 H 328.701 -3.78992 1.51092 0
M  V30 3291 H 327.376 -3.28722 2.54784 0
M  V30 3292 H 325.953 -3.65216 0.7531 0
M  V30 3293 N 328.138 -0.959301 -1.25041 0
M  V30 3294 C 329.068 -0.501388 -2.28053 0
M  V30 3295 C 330.049 0.454673 -1.63911 0
M  V30 3296 O 331.234 0.352618 -1.90972 0
M  V30 3297 C 328.364 0.217224 -3.4662 0
M  V30 3298 C 327.318 -0.654034 -4.22973 0
M  V30 3299 C 326.644 0.195589 -5.34342 0
M  V30 3300 C 327.944 -1.93447 -4.85155 0
M  V30 3301 H 329.638 -1.36238 -2.66608 0
M  V30 3302 H 327.184 -0.656534 -1.28163 0
M  V30 3303 H 329.137 0.548732 -4.17812 0
M  V30 3304 H 327.861 1.1125 -3.07068 0
M  V30 3305 H 326.52 -0.968693 -3.5357 0
M  V30 3306 H 326.168 1.09076 -4.91031 0
M  V30 3307 H 325.868 -0.384091 -5.86343 0
M  V30 3308 H 327.392 0.521958 -6.08365 0
M  V30 3309 H 328.806 -1.66908 -5.48466 0
M  V30 3310 H 327.203 -2.46018 -5.47353 0
M  V30 3311 H 328.273 -2.63466 -4.07079 0
M  V30 3312 N 329.616 1.39756 -0.72842 0
M  V30 3313 C 330.841 2.05472 -0.282159 0
M  V30 3314 C 331.266 1.54549 1.07221 0
M  V30 3315 O 330.624 0.686372 1.67805 0
M  V30 3316 C 330.672 3.59462 -0.286264 0
M  V30 3317 O 329.776 4.05918 0.728298 0
M  V30 3318 H 329.117 0.651226 -0.129618 0
M  V30 3319 H 331.647 1.78915 -0.992499 0
M  V30 3320 H 331.657 4.07798 -0.128373 0
M  V30 3321 H 330.332 3.95889 -1.27456 0
M  V30 3322 H 328.909 3.69012 0.537081 0
M  V30 3323 N 331.094 0.475555 1.50254 0
M  V30 3324 C 332.042 -0.330276 2.30243 0
M  V30 3325 C 333.036 -0.986306 1.37726 0
M  V30 3326 O 334.242 -0.9169 1.54897 0
M  V30 3327 H 330.617 -0.125353 0.741479 0
M  V30 3328 H 332.588 0.364702 2.96163 0
M  V30 3329 C 331.337 -1.39704 3.18399 0
M  V30 3330 H 330.66 -0.901621 3.89501 0
M  V30 3331 H 332.1 -1.93336 3.77355 0
M  V30 3332 C 330.559 -2.4014 2.36293 0
M  V30 3333 O 331.089 -3.45504 2.04914 0
M  V30 3334 N 329.295 -2.1197 1.98789 0
M  V30 3335 H 328.842 -1.2631 2.24507 0
M  V30 3336 H 328.8 -2.79403 1.44157 0
M  V30 3337 N 332.573 -1.56217 0.208337 0
M  V30 3338 C 333.52 -2.19699 -0.707192 0
M  V30 3339 C 334.49 -1.14836 -1.20008 0
M  V30 3340 O 335.675 -1.4314 -1.26157 0
M  V30 3341 C 332.815 -2.87061 -1.91546 0
M  V30 3342 C 331.928 -4.06483 -1.46271 0
M  V30 3343 C 331.063 -4.61665 -2.62752 0
M  V30 3344 C 330.102 -5.73417 -2.14147 0
M  V30 3345 N 329.239 -6.22948 -3.23853 0
M  V30 3346 H 334.079 -2.97575 -0.159111 0
M  V30 3347 H 331.616 -1.46948 -0.0667874 0
M  V30 3348 H 333.574 -3.24294 -2.62468 0
M  V30 3349 H 332.204 -2.11725 -2.43664 0
M  V30 3350 H 331.256 -3.74825 -0.648886 0
M  V30 3351 H 332.568 -4.87271 -1.06622 0
M  V30 3352 H 331.722 -5.01272 -3.41776 0
M  V30 3353 H 330.461 -3.80013 -3.05682 0
M  V30 3354 H 329.466 -5.33326 -1.33581 0
M  V30 3355 H 330.691 -6.56897 -1.72232 0
M  V30 3356 H 328.637 -5.44213 -3.6629 0
M  V30 3357 H 328.554 -6.98823 -2.88414 0
M  V30 3358 H 329.822 -6.6721 -4.03052 0
M  V30 3359 N 334.051 0.0651679 -1.57465 0
M  V30 3360 C 335.328 0.79644 -1.78651 0
M  V30 3361 C 335.708 1.95454 -0.797566 0
M  V30 3362 O 335.056 2.27882 0.167946 0
M  V30 3363 C 335.266 1.26322 -3.25337 0
M  V30 3364 C 336.614 1.6939 -3.89348 0
M  V30 3365 O 337.638 1.35872 -3.29268 0
M  V30 3366 O 336.497 2.31471 -4.95059 0
M  V30 3367 H 333.591 0.382157 -0.733407 0
M  V30 3368 H 336.137 0.0447311 -1.69641 0
M  V30 3369 H 334.909 0.434859 -3.88876 0
M  V30 3370 H 334.532 2.07604 -3.39096 0
M  V30 3371 N 335.529 1.53961 0.336706 0
M  V30 3372 C 336.776 1.71536 1.07618 0
M  V30 3373 C 337.104 0.482125 1.8843 0
M  V30 3374 O 336.359 -0.536142 1.88213 0
M  V30 3375 C 336.658 2.93493 2.03953 0
M  V30 3376 C 336.324 4.28811 1.39399 0
M  V30 3377 C 334.986 4.65602 1.21523 0
M  V30 3378 C 337.338 5.12844 0.929541 0
M  V30 3379 C 334.666 5.84037 0.558312 0
M  V30 3380 C 337.018 6.31951 0.286505 0
M  V30 3381 C 335.682 6.67432 0.0954869 0
M  V30 3382 H 334.952 0.627696 0.393801 0
M  V30 3383 H 337.599 1.88186 0.354715 0
M  V30 3384 H 335.904 2.71475 2.82504 0
M  V30 3385 H 337.601 3.04285 2.61174 0
M  V30 3386 H 334.191 3.99858 1.54311 0
M  V30 3387 H 338.375 4.84947 1.05548 0
M  V30 3388 H 333.631 6.10097 0.398995 0
M  V30 3389 H 337.805 6.96352 -0.0814376 0
M  V30 3390 H 335.432 7.59063 -0.415579 0
M  V30 3391 N 337.007 -0.598083 1.45811 0
M  V30 3392 C 338.253 -1.35882 1.50545 0
M  V30 3393 C 338.586 -1.93616 0.150445 0
M  V30 3394 O 337.861 -1.75604 -0.83628 0
M  V30 3395 C 338.144 -2.49966 2.59208 0
M  V30 3396 C 337.997 -1.97367 4.04186 0
M  V30 3397 C 339.316 -3.52068 2.64076 0
M  V30 3398 H 336.435 -0.492717 0.548087 0
M  V30 3399 H 339.077 -0.673319 1.77669 0
M  V30 3400 H 337.227 -3.08443 2.3621 0
M  V30 3401 H 338.899 -1.43466 4.38423 0
M  V30 3402 H 337.142 -1.283 4.14393 0
M  V30 3403 H 337.813 -2.79649 4.75921 0
M  V30 3404 H 340.289 -3.03448 2.84708 0
M  V30 3405 H 339.165 -4.2937 3.41954 0
M  V30 3406 H 339.426 -4.08304 1.69531 0
M  V30 3407 N 338.485 -1.33259 -0.841409 0
M  V30 3408 C 339.733 -1.24326 -1.59334 0
M  V30 3409 C 340.054 0.191564 -1.94057 0
M  V30 3410 O 339.324 1.11967 -1.60749 0
M  V30 3411 H 337.904 -0.457174 -0.590763 0
M  V30 3412 H 340.566 -1.66947 -1.00571 0
M  V30 3413 H 339.662 -1.8352 -2.52442 0
M  V30 3414 N 339.963 1.05934 -1.16686 0
M  V30 3415 C 340.873 2.17014 -0.891183 0
M  V30 3416 C 341.889 1.73453 0.137907 0
M  V30 3417 O 343.065 2.01361 -0.039592 0
M  V30 3418 C 340.13 3.44384 -0.400099 0
M  V30 3419 C 339.191 4.02433 -1.49486 0
M  V30 3420 C 338.424 5.23723 -1.02711 0
M  V30 3421 O 338.647 5.7027 0.121716 0
M  V30 3422 O 337.581 5.7382 -1.81699 0
M  V30 3423 H 341.407 2.43113 -1.82015 0
M  V30 3424 H 338.992 1.15541 -0.947132 0
M  V30 3425 H 340.874 4.21189 -0.133392 0
M  V30 3426 H 339.549 3.19802 0.500817 0
M  V30 3427 H 338.456 3.27102 -1.81535 0
M  V30 3428 H 339.789 4.31317 -2.37121 0
M  V30 3429 N 341.441 0.965919 1.2453 0
M  V30 3430 C 342.669 0.644385 1.96609 0
M  V30 3431 C 343.084 -0.785823 1.71669 0
M  V30 3432 O 342.441 -1.52703 0.999399 0
M  V30 3433 C 342.492 0.907375 3.49927 0
M  V30 3434 O 342.213 2.28136 3.74013 0
M  V30 3435 C 343.714 0.599784 4.39224 0
M  V30 3436 H 340.934 0.240588 0.626385 0
M  V30 3437 H 343.478 1.29337 1.58405 0
M  V30 3438 H 341.633 0.304631 3.862 0
M  V30 3439 H 342.047 2.36002 4.68405 0
M  V30 3440 H 343.521 0.834263 5.45659 0
M  V30 3441 H 343.998 -0.465921 4.36722 0
M  V30 3442 H 344.604 1.18235 4.08535 0
M  V30 3443 N 342.919 -1.39368 0.735821 0
M  V30 3444 C 343.849 -2.33234 0.111506 0
M  V30 3445 C 344.83 -1.53954 -0.723334 0
M  V30 3446 O 346.015 -1.82344 -0.668147 0
M  V30 3447 C 343.145 -3.38057 -0.795917 0
M  V30 3448 C 342.099 -4.2795 -0.065172 0
M  V30 3449 C 341.425 -5.23479 -1.08967 0
M  V30 3450 C 342.725 -5.10741 1.09273 0
M  V30 3451 H 344.419 -2.85692 0.895571 0
M  V30 3452 H 341.965 -1.37364 0.432109 0
M  V30 3453 H 343.918 -4.02675 -1.24221 0
M  V30 3454 H 342.642 -2.8404 -1.61211 0
M  V30 3455 H 341.301 -3.64813 0.361511 0
M  V30 3456 H 340.949 -4.65758 -1.89944 0
M  V30 3457 H 340.649 -5.84472 -0.605489 0
M  V30 3458 H 342.173 -5.90974 -1.53565 0
M  V30 3459 H 343.587 -5.68699 0.724841 0
M  V30 3460 H 341.984 -5.8088 1.50659 0
M  V30 3461 H 343.054 -4.45525 1.91404 0
M  V30 3462 N 344.397 -0.483516 -1.5 0
M  V30 3463 C 345.645 0.067027 -2.01989 0
M  V30 3464 C 345.966 1.3909 -1.36671 0
M  V30 3465 O 345.236 1.88978 -0.516152 0
M  V30 3466 H 343.816 0.0277606 -0.746484 0
M  V30 3467 H 346.478 -0.636773 -1.84204 0
M  V30 3468 H 345.574 0.209484 -3.11396 0
M  V30 3469 N 345.875 1.56104 -0.216619 0
M  V30 3470 C 347.121 1.98466 0.417033 0
M  V30 3471 C 347.454 1.10403 1.59765 0
M  V30 3472 O 346.729 0.160632 1.93836 0
M  V30 3473 C 347.012 3.49769 0.85637 0
M  V30 3474 C 346.865 4.48606 -0.327546 0
M  V30 3475 C 348.184 4.05339 1.7143 0
M  V30 3476 H 345.303 0.721551 0.150112 0
M  V30 3477 H 347.945 1.87423 -0.311864 0
M  V30 3478 H 346.095 3.5931 1.47745 0
M  V30 3479 H 347.767 4.5108 -0.965618 0
M  V30 3480 H 346.01 4.22682 -0.975805 0
M  V30 3481 H 346.681 5.51995 0.0227149 0
M  V30 3482 H 349.157 3.98712 1.19031 0
M  V30 3483 H 348.033 5.11533 1.99061 0
M  V30 3484 H 348.294 3.51918 2.67593 0
M  V30 3485 N 347.353 -0.0568162 1.57498 0
M  V30 3486 C 348.601 -0.751617 1.87604 0
M  V30 3487 C 348.922 -1.77351 0.81066 0
M  V30 3488 O 348.192 -1.95254 -0.159018 0
M  V30 3489 H 346.772 -0.280583 0.692302 0
M  V30 3490 H 349.434 -0.0293483 1.94878 0
M  V30 3491 H 348.53 -1.25852 2.856 0
M  V30 3492 N 348.832 -1.54138 -0.328536 0
M  V30 3493 C 349.762 -1.86167 -1.40939 0
M  V30 3494 C 350.743 -0.718044 -1.54202 0
M  V30 3495 O 351.928 -0.971328 -1.68163 0
M  V30 3496 C 349.058 -2.08461 -2.77779 0
M  V30 3497 C 348.012 -3.24299 -2.7931 0
M  V30 3498 C 347.338 -3.31955 -4.19178 0
M  V30 3499 C 348.638 -4.62065 -2.43502 0
M  V30 3500 H 350.332 -2.76689 -1.14383 0
M  V30 3501 H 347.878 -1.33132 -0.548806 0
M  V30 3502 H 349.831 -2.29453 -3.53454 0
M  V30 3503 H 348.555 -1.14684 -3.05802 0
M  V30 3504 H 347.214 -3.03187 -2.0609 0
M  V30 3505 H 346.862 -2.35745 -4.44335 0
M  V30 3506 H 346.562 -4.09805 -4.2111 0
M  V30 3507 H 348.086 -3.55175 -4.96672 0
M  V30 3508 H 349.5 -4.8297 -3.08889 0
M  V30 3509 H 347.897 -5.42429 -2.56693 0
M  V30 3510 H 348.967 -4.64652 -1.38659 0
M  V30 3511 N 350.31 0.590341 -1.46126 0
M  V30 3512 C 351.538 1.37504 -1.54597 0
M  V30 3513 C 351.953 1.87897 -0.184447 0
M  V30 3514 O 351.31 1.63192 0.816984 0
M  V30 3515 C 351.361 2.56779 -2.54454 0
M  V30 3516 O 351.082 2.08476 -3.85317 0
M  V30 3517 C 352.583 3.49427 -2.72792 0
M  V30 3518 H 349.803 0.420325 -0.523037 0
M  V30 3519 H 352.347 0.718383 -1.91467 0
M  V30 3520 H 350.502 3.1845 -2.20609 0
M  V30 3521 H 350.916 2.86097 -4.396 0
M  V30 3522 H 352.39 4.29619 -3.466 0
M  V30 3523 H 352.867 4.00876 -1.79429 0
M  V30 3524 H 353.473 2.93598 -3.07702 0
M  V30 3525 N 351.788 1.33704 0.83433 0
M  V30 3526 C 352.698 1.26382 1.97648 0
M  V30 3527 C 353.714 0.173548 1.73132 0
M  V30 3528 O 354.89 0.397962 1.97429 0
M  V30 3529 C 351.955 1.00769 3.31733 0
M  V30 3530 C 351.016 2.1884 3.69334 0
M  V30 3531 C 350.249 1.9444 4.9702 0
M  V30 3532 O 350.472 0.896961 5.63303 0
M  V30 3533 O 349.406 2.81093 5.32231 0
M  V30 3534 H 353.232 2.22444 2.06767 0
M  V30 3535 H 350.817 1.13795 0.968037 0
M  V30 3536 H 352.699 0.882186 4.12062 0
M  V30 3537 H 351.374 0.0773783 3.23608 0
M  V30 3538 H 350.281 2.36946 2.89495 0
M  V30 3539 H 351.614 3.10221 3.82131 0
M  V30 3540 N 353.266 -1.05314 1.17247 0
M  V30 3541 C 354.682 -1.30452 0.919473 0
M  V30 3542 C 354.882 -1.9703 -0.42209 0
M  V30 3543 O 353.938 -2.24311 -1.15935 0
M  V30 3544 C 355.251 -2.17551 2.07586 0
M  V30 3545 C 356.799 -2.30937 2.11275 0
M  V30 3546 C 357.274 -3.21396 3.26296 0
M  V30 3547 N 358.765 -3.28981 3.26076 0
M  V30 3548 C 359.5 -3.99095 4.11716 0
M  V30 3549 N 358.996 -4.71648 5.07465 0
M  V30 3550 N 360.789 -3.95247 3.9967 0
M  V30 3551 H 352.94 -0.604988 2.03602 0
M  V30 3552 H 355.203 -0.329368 0.888944 0
M  V30 3553 H 354.909 -1.75921 3.0454 0
M  V30 3554 H 354.783 -3.18182 2.02584 0
M  V30 3555 H 357.17 -2.71809 1.14907 0
M  V30 3556 H 357.251 -1.2994 2.20339 0
M  V30 3557 H 356.895 -2.81238 4.22927 0
M  V30 3558 H 356.825 -4.22395 3.14467 0
M  V30 3559 H 359.316 -2.77286 2.5675 0
M  V30 3560 H 359.629 -5.22705 5.6921 0
M  V30 3561 H 357.974 -4.70594 5.11435 0
M  V30 3562 H 361.165 -3.37691 3.24164 0
M  V30 3563 H 361.338 -4.4962 4.66632 0
M  V30 3564 N 354.744 -0.972509 -1.24016 0
M  V30 3565 C 355.674 -0.525548 -2.27509 0
M  V30 3566 C 356.655 0.437262 -1.64384 0
M  V30 3567 O 357.84 0.332343 -1.91335 0
M  V30 3568 C 354.97 0.180448 -3.46831 0
M  V30 3569 C 353.924 -0.698859 -4.22256 0
M  V30 3570 C 353.25 0.138903 -5.3452 0
M  V30 3571 C 354.55 -1.98582 -4.83076 0
M  V30 3572 H 356.244 -1.39058 -2.65148 0
M  V30 3573 H 353.79 -0.67009 -1.27459 0
M  V30 3574 H 355.743 0.504387 -4.18371 0
M  V30 3575 H 354.467 1.07987 -3.08231 0
M  V30 3576 H 353.126 -1.00614 -3.52523 0
M  V30 3577 H 352.774 1.03862 -4.9216 0
M  V30 3578 H 352.474 -0.446259 -5.85903 0
M  V30 3579 H 353.998 0.457404 -6.08884 0
M  V30 3580 H 355.412 -1.72715 -5.46665 0
M  V30 3581 H 353.809 -2.5181 -5.44713 0
M  V30 3582 H 354.879 -2.67769 -4.04262 0
M  V30 3583 N 356.222 1.38976 -0.743202 0
M  V30 3584 C 357.132 2.3434 -0.110399 0
M  V30 3585 C 358.148 1.58741 0.712559 0
M  V30 3586 O 359.324 1.9099 0.639125 0
M  V30 3587 C 356.389 3.37812 0.780012 0
M  V30 3588 C 355.45 4.29263 -0.0561319 0
M  V30 3589 C 354.683 5.27793 0.791875 0
M  V30 3590 O 354.906 5.33043 2.03031 0
M  V30 3591 O 353.84 6.01512 0.216183 0
M  V30 3592 H 357.666 2.90129 -0.897714 0
M  V30 3593 H 355.251 1.40643 -0.503966 0
M  V30 3594 H 357.133 4.01194 1.28923 0
M  V30 3595 H 355.808 2.84395 1.546 0
M  V30 3596 H 354.715 3.69076 -0.611056 0
M  V30 3597 H 356.048 4.85907 -0.784531 0
M  V30 3598 N 357.7 0.491464 1.49741 0
M  V30 3599 C 358.948 -0.0563141 2.02022 0
M  V30 3600 C 359.269 -1.38363 1.37407 0
M  V30 3601 O 358.539 -1.88702 0.526166 0
M  V30 3602 H 357.119 -0.0238014 0.746621 0
M  V30 3603 H 359.781 0.646533 1.83864 0
M  V30 3604 H 358.877 -0.192967 3.11503 0
M  V30 3605 N 359.178 -1.55987 0.224894 0
M  V30 3606 C 360.406 -2.02784 -0.410665 0
M  V30 3607 C 360.821 -1.10464 -1.53112 0
M  V30 3608 O 360.178 -0.114871 -1.82138 0
M  V30 3609 C 360.229 -3.49087 -0.939165 0
M  V30 3610 O 359.95 -4.37887 0.136614 0
M  V30 3611 C 361.451 -4.11543 -1.64763 0
M  V30 3612 H 358.671 -0.663484 -0.100148 0
M  V30 3613 H 361.215 -2.01614 0.342326 0
M  V30 3614 H 359.37 -3.50861 -1.64242 0
M  V30 3615 H 359.784 -5.23849 -0.261155 0
M  V30 3616 H 361.258 -5.15673 -1.96939 0
M  V30 3617 H 361.735 -3.56736 -2.56195 0
M  V30 3618 H 362.341 -4.13629 -0.989503 0
M  V30 3619 N 360.656 0.0484629 -1.57525 0
M  V30 3620 C 361.586 1.0549 -2.08313 0
M  V30 3621 C 362.567 1.38929 -0.981463 0
M  V30 3622 O 363.752 1.48151 -1.25558 0
M  V30 3623 C 360.882 2.36162 -2.54646 0
M  V30 3624 C 359.836 2.17016 -3.68901 0
M  V30 3625 C 359.162 3.53278 -4.01371 0
M  V30 3626 C 360.462 1.57219 -4.98076 0
M  V30 3627 H 362.156 0.632195 -2.92649 0
M  V30 3628 H 359.702 0.302654 -1.40784 0
M  V30 3629 H 361.655 3.06882 -2.88793 0
M  V30 3630 H 360.379 2.80456 -1.67368 0
M  V30 3631 H 359.038 1.48733 -3.35073 0
M  V30 3632 H 358.686 3.95185 -3.11188 0
M  V30 3633 H 358.386 3.41299 -4.78318 0
M  V30 3634 H 359.91 4.25391 -4.38035 0
M  V30 3635 H 361.324 2.17832 -5.30304 0
M  V30 3636 H 359.721 1.55871 -5.79503 0
M  V30 3637 H 360.791 0.535956 -4.81929 0
M  V30 3638 N 362.134 1.5431 0.320358 0
M  V30 3639 C 363.097 1.83195 1.3774 0
M  V30 3640 C 364.097 0.703906 1.44575 0
M  V30 3641 O 365.287 0.972214 1.44546 0
M  V30 3642 C 362.419 1.99487 2.76438 0
M  V30 3643 H 363.612 2.77642 1.1338 0
M  V30 3644 H 361.165 1.46076 0.556012 0
M  V30 3645 H 361.9 1.07262 3.06048 0
M  V30 3646 H 361.685 2.81575 2.7287 0
M  V30 3647 H 363.175 2.23271 3.52902 0
M  V30 3648 N 363.613 -0.582584 1.46437 0
M  V30 3649 C 364.576 -1.67366 1.56592 0
M  V30 3650 C 365.576 -1.54575 0.443072 0
M  V30 3651 O 366.766 -1.59191 0.707381 0
M  V30 3652 C 363.898 -3.06791 1.48634 0
M  V30 3653 H 365.091 -1.5972 2.5383 0
M  V30 3654 H 362.644 -0.800432 1.34249 0
M  V30 3655 H 363.379 -3.19993 0.526763 0
M  V30 3656 H 363.164 -3.17484 2.30101 0
M  V30 3657 H 364.654 -3.86218 1.58826 0
M  V30 3658 N 365.091 -1.34144 -0.827227 0
M  V30 3659 C 366.319 -1.29325 -1.61501 0
M  V30 3660 C 366.734 0.13354 -1.88327 0
M  V30 3661 O 366.091 1.0793 -1.47164 0
M  V30 3662 C 366.142 -2.07746 -2.95844 0
M  V30 3663 O 365.863 -3.4486 -2.70191 0
M  V30 3664 C 367.364 -2.10273 -3.90256 0
M  V30 3665 H 364.584 -0.445069 -0.50215 0
M  V30 3666 H 367.128 -1.76693 -1.02955 0
M  V30 3667 H 365.283 -1.6403 -3.5096 0
M  V30 3668 H 365.697 -3.85345 -3.55822 0
M  V30 3669 H 367.171 -2.69575 -4.81698 0
M  V30 3670 H 367.648 -1.096 -4.25305 0
M  V30 3671 H 368.254 -2.54059 -3.41078 0
M  V30 3672 N 366.569 1.04691 -1.17803 0
M  V30 3673 C 367.532 2.10724 -0.901545 0
M  V30 3674 C 368.532 1.6042 0.110437 0
M  V30 3675 O 369.722 1.7377 -0.122303 0
M  V30 3676 C 366.854 3.39084 -0.351409 0
M  V30 3677 H 368.047 2.36686 -1.84174 0
M  V30 3678 H 365.6 1.21015 -0.98919 0
M  V30 3679 H 366.335 3.18782 0.59569 0
M  V30 3680 H 366.12 3.76909 -1.08083 0
M  V30 3681 H 367.61 4.17227 -0.176451 0
M  V30 3682 N 368.047 0.979072 1.23499 0
M  V30 3683 C 368.977 0.537606 2.27227 0
M  V30 3684 C 369.958 -0.428539 1.64613 0
M  V30 3685 O 371.143 -0.322191 1.91509 0
M  V30 3686 C 368.273 -0.162052 3.46922 0
M  V30 3687 C 367.227 0.721242 4.21879 0
M  V30 3688 C 366.553 -0.110555 5.34586 0
M  V30 3689 C 367.853 2.01141 4.82016 0
M  V30 3690 H 369.547 1.40462 2.64406 0
M  V30 3691 H 367.093 0.67684 1.27102 0
M  V30 3692 H 369.046 -0.482192 4.18632 0
M  V30 3693 H 367.77 -1.06351 3.08799 0
M  V30 3694 H 366.429 1.02482 3.51984 0
M  V30 3695 H 366.077 -1.0125 4.92704 0
M  V30 3696 H 365.777 0.477325 5.85658 0
M  V30 3697 H 367.301 -0.425107 6.09118 0
M  V30 3698 H 368.715 1.75612 5.45741 0
M  V30 3699 H 367.112 2.54695 5.43369 0
M  V30 3700 H 368.182 2.69909 4.02836 0
M  V30 3701 N 369.525 -1.3858 0.750561 0
M  V30 3702 C 370.488 -2.28836 0.129152 0
M  V30 3703 C 371.488 -1.47045 -0.650714 0
M  V30 3704 O 372.678 -1.6753 -0.477428 0
M  V30 3705 C 369.81 -3.30751 -0.825622 0
M  V30 3706 H 371.003 -2.85294 0.924516 0
M  V30 3707 H 368.556 -1.47489 0.517376 0
M  V30 3708 H 369.291 -2.79378 -1.64677 0
M  V30 3709 H 369.076 -3.91177 -0.268852 0
M  V30 3710 H 370.566 -3.98249 -1.2565 0
M  V30 3711 N 371.003 -0.499398 -1.49478 0
M  V30 3712 C 371.966 0.268838 -2.27618 0
M  V30 3713 C 372.966 0.895383 -1.33565 0
M  V30 3714 O 374.156 0.760164 -1.56739 0
M  V30 3715 C 371.288 1.38559 -3.11471 0
M  V30 3716 H 372.481 -0.416812 -2.96989 0
M  V30 3717 H 370.034 -0.254313 -1.54217 0
M  V30 3718 H 370.769 2.10544 -2.46661 0
M  V30 3719 H 370.554 0.941797 -3.80621 0
M  V30 3720 H 372.044 1.92678 -3.70493 0
M  V30 3721 N 372.481 1.55866 -0.233164 0
M  V30 3722 C 373.444 2.1953 0.658715 0
M  V30 3723 C 374.444 1.16053 1.11303 0
M  V30 3724 O 375.634 1.41218 1.01996 0
M  V30 3725 C 372.766 2.82791 1.90373 0
M  V30 3726 H 373.959 2.99721 0.10347 0
M  V30 3727 H 371.512 1.56291 0.0164245 0
M  V30 3728 H 372.247 2.06501 2.50056 0
M  V30 3729 H 372.032 3.58578 1.58632 0
M  V30 3730 H 373.522 3.31556 2.53891 0
M  V30 3731 N 373.959 -0.0401083 1.57549 0
M  V30 3732 C 374.922 -1.02871 2.04817 0
M  V30 3733 C 375.922 -1.29708 0.950388 0
M  V30 3734 O 377.112 -1.24897 1.21435 0
M  V30 3735 C 374.244 -2.36443 2.45576 0
M  V30 3736 H 375.437 -0.620631 2.93408 0
M  V30 3737 H 372.99 -0.286667 1.53649 0
M  V30 3738 H 373.725 -2.82021 1.60108 0
M  V30 3739 H 373.51 -2.18296 3.25713 0
M  V30 3740 H 375 -3.07441 2.82612 0
M  V30 3741 N 375.437 -1.54477 -0.31217 0
M  V30 3742 C 376.685 -1.72884 -1.04668 0
M  V30 3743 C 377.006 -0.511477 -1.88173 0
M  V30 3744 O 376.276 0.474407 -1.90069 0
M  V30 3745 H 374.856 -0.637461 -0.389425 0
M  V30 3746 H 377.518 -1.91807 -0.345852 0
M  V30 3747 H 376.614 -2.61334 -1.70619 0
M  V30 3748 N 376.915 0.57481 -1.46744 0
M  V30 3749 C 378.161 1.3347 -1.52688 0
M  V30 3750 C 378.494 1.93353 -0.181229 0
M  V30 3751 O 377.769 1.76912 0.808237 0
M  V30 3752 C 378.052 2.45811 -2.63152 0
M  V30 3753 C 377.905 1.90912 -4.07275 0
M  V30 3754 C 379.224 3.47822 -2.69644 0
M  V30 3755 H 376.343 0.483935 -0.555856 0
M  V30 3756 H 378.985 0.644968 -1.78718 0
M  V30 3757 H 377.135 3.04646 -2.41088 0
M  V30 3758 H 378.807 1.36473 -4.4065 0
M  V30 3759 H 377.05 1.21691 -4.16382 0
M  V30 3760 H 377.721 2.72042 -4.80309 0
M  V30 3761 H 380.197 2.9888 -2.895 0
M  V30 3762 H 379.073 4.23876 -3.48742 0
M  V30 3763 H 379.334 4.05555 -1.76005 0
M  V30 3764 N 378.394 1.34581 0.820102 0
M  V30 3765 C 379.81 1.14325 1.11364 0
M  V30 3766 C 380.01 -0.0533648 2.01429 0
M  V30 3767 O 379.066 -0.728044 2.41776 0
M  V30 3768 C 380.379 2.43983 1.75764 0
M  V30 3769 C 381.927 2.50065 1.88246 0
M  V30 3770 C 382.402 3.79732 2.56061 0
M  V30 3771 N 383.893 3.80908 2.63558 0
M  V30 3772 C 384.628 4.77961 3.16766 0
M  V30 3773 N 384.124 5.85397 3.70517 0
M  V30 3774 N 385.917 4.65413 3.15194 0
M  V30 3775 H 378.068 2.11246 0.221096 0
M  V30 3776 H 380.331 0.934289 0.160649 0
M  V30 3777 H 380.037 3.31651 1.1705 0
M  V30 3778 H 379.911 2.57531 2.75604 0
M  V30 3779 H 382.298 1.62834 2.46108 0
M  V30 3780 H 382.379 2.40442 0.873006 0
M  V30 3781 H 382.023 4.67354 1.98853 0
M  V30 3782 H 381.953 3.86639 3.57516 0
M  V30 3783 H 384.444 3.03274 2.25463 0
M  V30 3784 H 384.757 6.55463 4.09376 0
M  V30 3785 H 383.102 5.89107 3.68752 0
M  V30 3786 H 386.293 3.80627 2.72471 0
M  V30 3787 H 386.466 5.41216 3.56356 0
M  V30 3788 N 379.872 -1.04064 1.18357 0
M  V30 3789 C 380.805 -2.11618 0.854 0
M  V30 3790 C 381.783 -1.61555 -0.184043 0
M  V30 3791 O 382.967 -1.88395 -0.0630048 0
M  V30 3792 C 380.094 -3.37574 0.27597 0
M  V30 3793 C 379.14 -4.06485 1.2912 0
M  V30 3794 S 379.973 -4.53543 2.84709 0
M  V30 3795 C 381.129 -5.82732 2.28417 0
M  V30 3796 H 381.362 -2.39247 1.76488 0
M  V30 3797 H 378.895 -1.16832 1.00944 0
M  V30 3798 H 380.853 -4.10468 -0.051026 0
M  V30 3799 H 379.514 -3.0806 -0.613028 0
M  V30 3800 H 378.707 -4.97024 0.835633 0
M  V30 3801 H 378.309 -3.39708 1.56443 0
M  V30 3802 H 380.601 -6.56677 1.66677 0
M  V30 3803 H 381.544 -6.33052 3.17256 0
M  V30 3804 H 381.952 -5.37838 1.71436 0
M  V30 3805 N 381.35 -0.985608 -1.22978 0
M  V30 3806 C 382.597 -0.657386 -1.91532 0
M  V30 3807 C 382.925 0.809707 -1.76845 0
M  V30 3808 O 382.18 1.60021 -1.12658 0
M  V30 3809 C 382.479 -1.00014 -3.43121 0
M  V30 3810 C 382.145 -2.4583 -3.77993 0
M  V30 3811 C 380.807 -2.85679 -3.87222 0
M  V30 3812 C 383.159 -3.40378 -3.94705 0
M  V30 3813 C 380.487 -4.19081 -4.10595 0
M  V30 3814 C 382.839 -4.73429 -4.1958 0
M  V30 3815 C 381.503 -5.1303 -4.27032 0
M  V30 3816 H 380.773 -0.240555 -0.700867 0
M  V30 3817 H 383.42 -1.24044 -1.45895 0
M  V30 3818 H 381.725 -0.335072 -3.90365 0
M  V30 3819 H 383.422 -0.724322 -3.94404 0
M  V30 3820 H 380.012 -2.13939 -3.71387 0
M  V30 3821 H 384.196 -3.10766 -3.8696 0
M  V30 3822 H 379.452 -4.49362 -4.14589 0
M  V30 3823 H 383.626 -5.46644 -4.31455 0
M  V30 3824 H 381.253 -6.16418 -4.44896 0
M  V30 3825 N 382.828 1.3818 -0.7579 0
M  V30 3826 C 384.244 1.5353 -0.435972 0
M  V30 3827 C 384.444 1.71961 1.05032 0
M  V30 3828 O 383.5 1.73307 1.83633 0
M  V30 3829 C 384.813 2.73989 -1.23898 0
M  V30 3830 C 386.361 2.87841 -1.22949 0
M  V30 3831 C 386.836 4.11266 -2.01554 0
M  V30 3832 N 388.327 4.18352 -1.98837 0
M  V30 3833 C 389.062 5.12856 -2.5645 0
M  V30 3834 N 388.558 6.13005 -3.22794 0
M  V30 3835 N 390.351 5.05238 -2.46356 0
M  V30 3836 H 382.502 1.24467 -1.7211 0
M  V30 3837 H 384.765 0.604982 -0.729864 0
M  V30 3838 H 384.471 2.66789 -2.29165 0
M  V30 3839 H 384.345 3.67294 -0.858764 0
M  V30 3840 H 386.732 2.9452 -0.184854 0
M  V30 3841 H 386.813 1.95534 -1.64924 0
M  V30 3842 H 386.457 4.05349 -3.06031 0
M  V30 3843 H 386.387 5.02661 -1.5697 0
M  V30 3844 H 388.878 3.46628 -1.50524 0
M  V30 3845 H 389.191 6.81619 -3.64165 0
M  V30 3846 H 387.536 6.13325 -3.2689 0
M  V30 3847 H 390.727 4.25938 -1.9415 0
M  V30 3848 H 390.9 5.78707 -2.91552 0
M  V30 3849 N 384.306 0.507319 1.49211 0
M  V30 3850 C 385.552 -0.0350047 2.0277 0
M  V30 3851 C 385.885 -1.3606 1.38569 0
M  V30 3852 O 385.16 -1.87321 0.523542 0
M  V30 3853 C 385.443 -0.180916 3.59645 0
M  V30 3854 C 385.296 1.16825 4.34364 0
M  V30 3855 C 386.615 -0.918558 4.30407 0
M  V30 3856 H 383.734 -0.0112473 0.736914 0
M  V30 3857 H 386.376 0.659956 1.7817 0
M  V30 3858 H 384.526 -0.772826 3.80736 0
M  V30 3859 H 386.198 1.79952 4.24753 0
M  V30 3860 H 384.441 1.75594 3.96673 0
M  V30 3861 H 385.112 1.01939 5.42506 0
M  V30 3862 H 387.588 -0.41649 4.1401 0
M  V30 3863 H 386.464 -0.989505 5.39907 0
M  V30 3864 H 386.725 -1.96373 3.96093 0
M  V30 3865 N 385.784 -1.5574 0.241426 0
M  V30 3866 C 386.734 -2.17803 -0.674233 0
M  V30 3867 C 387.718 -1.13225 -1.14319 0
M  V30 3868 O 388.91 -1.39153 -1.09387 0
M  V30 3869 C 386.039 -2.87682 -1.87333 0
M  V30 3870 C 385.125 -3.99509 -1.42313 0
M  V30 3871 N 385.516 -5.01115 -0.686798 0
M  V30 3872 C 383.814 -4.11964 -1.70885 0
M  V30 3873 C 384.515 -5.79922 -0.454456 0
M  V30 3874 N 383.491 -5.34001 -1.01705 0
M  V30 3875 H 387.293 -2.93718 -0.103447 0
M  V30 3876 H 384.807 -1.62342 0.0435095 0
M  V30 3877 H 386.804 -3.3057 -2.54026 0
M  V30 3878 H 385.464 -2.13269 -2.4484 0
M  V30 3879 H 386.475 -5.16799 -0.337459 0
M  V30 3880 H 383.152 -3.48718 -2.2957 0
M  V30 3881 H 384.542 -6.71768 0.132992 0
M  V30 3882 N 387.262 0.0317525 -1.57568 0
M  V30 3883 C 388.172 1.05021 -2.0978 0
M  V30 3884 C 389.188 1.39809 -1.03583 0
M  V30 3885 O 390.364 1.49182 -1.35302 0
M  V30 3886 C 387.429 2.33301 -2.56459 0
M  V30 3887 C 386.49 2.0512 -3.77127 0
M  V30 3888 C 385.723 3.27283 -4.2157 0
M  V30 3889 O 385.946 4.37861 -3.65559 0
M  V30 3890 O 384.88 3.13141 -5.14029 0
M  V30 3891 H 388.706 0.636505 -2.96955 0
M  V30 3892 H 386.291 0.248559 -1.47318 0
M  V30 3893 H 388.173 3.08722 -2.86825 0
M  V30 3894 H 386.848 2.73973 -1.72397 0
M  V30 3895 H 385.755 1.27276 -3.51784 0
M  V30 3896 H 387.088 1.69305 -4.62165 0
M  V30 3897 N 388.74 1.54641 0.303973 0
M  V30 3898 C 389.986 1.74038 1.04109 0
M  V30 3899 C 390.319 0.523051 1.87024 0
M  V30 3900 O 389.594 -0.479874 1.88487 0
M  V30 3901 C 389.877 3.02761 1.94955 0
M  V30 3902 C 389.73 4.34787 1.1524 0
M  V30 3903 C 391.049 3.27336 2.94175 0
M  V30 3904 H 388.168 0.63323 0.377079 0
M  V30 3905 H 390.81 1.87354 0.316001 0
M  V30 3906 H 388.96 2.9154 2.56782 0
M  V30 3907 H 390.632 4.57922 0.557236 0
M  V30 3908 H 388.875 4.31407 0.455053 0
M  V30 3909 H 389.546 5.21116 1.8205 0
M  V30 3910 H 392.022 3.38148 2.42477 0
M  V30 3911 H 390.898 4.18726 3.54908 0
M  V30 3912 H 391.159 2.45491 3.67677 0
M  V30 3913 N 390.218 -0.567019 1.47046 0
M  V30 3914 C 391.464 -1.32658 1.53394 0
M  V30 3915 C 391.797 -1.93254 0.19148 0
M  V30 3916 O 391.072 -1.77338 -0.798844 0
M  V30 3917 C 391.355 -2.44412 2.64452 0
M  V30 3918 C 391.208 -1.88749 4.08282 0
M  V30 3919 C 392.527 -3.46387 2.71485 0
M  V30 3920 H 389.646 -0.48098 0.558415 0
M  V30 3921 H 392.288 -0.635481 1.79058 0
M  V30 3922 H 390.438 -3.03363 2.427 0
M  V30 3923 H 392.11 -1.34134 4.41368 0
M  V30 3924 H 390.353 -1.19481 4.17021 0
M  V30 3925 H 391.024 -2.69491 4.81745 0
M  V30 3926 H 393.5 -2.9734 2.91081 0
M  V30 3927 H 392.376 -4.2202 3.50985 0
M  V30 3928 H 392.637 -4.04616 1.78153 0
M  V30 3929 N 391.696 -1.35014 -0.812953 0
M  V30 3930 C 392.659 -1.27292 -1.90602 0
M  V30 3931 C 393.659 -0.185817 -1.59723 0
M  V30 3932 O 394.849 -0.439102 -1.68575 0
M  V30 3933 C 391.981 -0.967676 -3.26877 0
M  V30 3934 H 393.174 -2.24479 -1.9887 0
M  V30 3935 H 390.727 -1.19446 -1.00808 0
M  V30 3936 H 391.462 0.0005954 -3.243 0
M  V30 3937 H 391.247 -1.75412 -3.50675 0
M  V30 3938 H 392.737 -0.939085 -4.06904 0
M  V30 3939 N 393.175 1.03435 -1.18907 0
M  V30 3940 C 394.403 1.80381 -1.01342 0
M  V30 3941 C 394.818 1.83649 0.438005 0
M  V30 3942 O 394.175 1.27655 1.30424 0
M  V30 3943 C 394.226 3.25689 -1.56873 0
M  V30 3944 O 393.947 3.22673 -2.96334 0
M  V30 3945 C 395.448 4.19255 -1.44014 0
M  V30 3946 H 392.668 0.56784 -0.35749 0
M  V30 3947 H 395.212 1.30317 -1.576 0
M  V30 3948 H 393.367 3.72962 -1.04777 0
M  V30 3949 H 393.781 4.13748 -3.22355 0
M  V30 3950 H 395.255 5.19123 -1.87657 0
M  V30 3951 H 395.732 4.37467 -0.389815 0
M  V30 3952 H 396.338 3.77851 -1.95214 0
M  V30 3953 N 394.653 0.992116 1.22453 0
M  V30 3954 C 396.069 0.702713 1.43297 0
M  V30 3955 C 396.269 -0.726909 1.87932 0
M  V30 3956 O 395.325 -1.49792 2.0327 0
M  V30 3957 C 396.638 1.70762 2.47509 0
M  V30 3958 C 398.186 1.72298 2.61309 0
M  V30 3959 C 398.661 2.71649 3.68742 0
M  V30 3960 N 400.152 2.70239 3.76199 0
M  V30 3961 C 400.887 3.43778 4.58917 0
M  V30 3962 N 400.383 4.26914 5.45633 0
M  V30 3963 N 402.176 3.32487 4.5322 0
M  V30 3964 H 394.327 1.91543 0.917871 0
M  V30 3965 H 396.59 0.826031 0.465162 0
M  V30 3966 H 396.296 2.73059 2.21657 0
M  V30 3967 H 396.17 1.49985 3.46099 0
M  V30 3968 H 398.557 0.706989 2.86506 0
M  V30 3969 H 398.638 1.97143 1.62997 0
M  V30 3970 H 398.282 3.73397 3.44292 0
M  V30 3971 H 398.212 2.44074 4.66622 0
M  V30 3972 H 400.703 2.09912 3.14237 0
M  V30 3973 H 401.016 4.79855 6.05771 0
M  V30 3974 H 399.361 4.31002 5.45218 0
M  V30 3975 H 402.552 2.6698 3.84499 0
M  V30 3976 H 402.725 3.90058 5.17454 0
M  V30 3977 N 396.131 -1.37776 0.765217 0
M  V30 3978 C 397.547 -1.53297 0.444108 0
M  V30 3979 C 397.747 -1.72515 -1.04119 0
M  V30 3980 O 396.803 -1.74278 -1.82711 0
M  V30 3981 C 398.116 -2.73328 1.25349 0
M  V30 3982 C 399.664 -2.87185 1.24473 0
M  V30 3983 C 400.139 -4.10191 2.03733 0
M  V30 3984 N 401.63 -4.17291 2.01053 0
M  V30 3985 C 402.365 -5.11488 2.59166 0
M  V30 3986 N 401.861 -6.11285 3.26041 0
M  V30 3987 N 403.654 -5.03924 2.49032 0
M  V30 3988 H 395.805 -1.23552 1.72768 0
M  V30 3989 H 398.068 -0.601103 0.733062 0
M  V30 3990 H 397.774 -2.6557 2.30577 0
M  V30 3991 H 397.648 -3.66834 0.87823 0
M  V30 3992 H 400.035 -2.94418 0.20047 0
M  V30 3993 H 400.116 -1.94657 1.65959 0
M  V30 3994 H 399.76 -4.0372 3.08176 0
M  V30 3995 H 399.69 -5.01821 1.59633 0
M  V30 3996 H 402.181 -3.45825 1.5236 0
M  V30 3997 H 402.494 -6.79678 3.67774 0
M  V30 3998 H 400.839 -6.11583 3.30138 0
M  V30 3999 H 404.03 -4.24902 1.96407 0
M  V30 4000 H 404.203 -5.77152 2.94617 0
M  V30 4001 N 397.609 -0.515225 -1.4894 0
M  V30 4002 C 398.855 0.0242508 -2.02785 0
M  V30 4003 C 399.188 1.35323 -1.39289 0
M  V30 4004 O 398.463 1.87041 -0.533469 0
M  V30 4005 C 398.746 0.16184 -3.59736 0
M  V30 4006 C 398.599 -1.19127 -4.33738 0
M  V30 4007 C 399.918 0.895719 -4.30888 0
M  V30 4008 H 397.037 0.00733914 -0.736963 0
M  V30 4009 H 399.679 -0.669395 -1.77818 0
M  V30 4010 H 397.829 0.752624 -3.8114 0
M  V30 4011 H 399.501 -1.82202 -4.23792 0
M  V30 4012 H 397.744 -1.77695 -3.95736 0
M  V30 4013 H 398.415 -1.04815 -5.41957 0
M  V30 4014 H 400.891 0.394528 -4.14225 0
M  V30 4015 H 399.767 0.960859 -5.40425 0
M  V30 4016 H 400.028 1.9427 -3.97129 0
M  V30 4017 N 399.087 1.5561 -0.249682 0
M  V30 4018 C 400.017 2.24477 0.642826 0
M  V30 4019 C 400.998 1.22601 1.17911 0
M  V30 4020 O 402.183 1.5126 1.21795 0
M  V30 4021 C 399.313 2.94638 1.83863 0
M  V30 4022 C 398.267 4.03227 1.435 0
M  V30 4023 C 397.593 4.60828 2.71186 0
M  V30 4024 C 398.893 5.18796 0.604002 0
M  V30 4025 H 400.587 2.99321 0.0685625 0
M  V30 4026 H 398.133 1.43965 0.0315363 0
M  V30 4027 H 400.086 3.41517 2.46868 0
M  V30 4028 H 398.81 2.17287 2.43832 0
M  V30 4029 H 397.469 3.57121 0.828275 0
M  V30 4030 H 397.117 3.80174 3.29358 0
M  V30 4031 H 396.817 5.34132 2.44901 0
M  V30 4032 H 398.341 5.10442 3.35084 0
M  V30 4033 H 399.755 5.61883 1.13842 0
M  V30 4034 H 398.152 5.98506 0.437097 0
M  V30 4035 H 399.222 4.83384 -0.383147 0
M  V30 4036 N 400.565 -0.0233959 1.57583 0
M  V30 4037 C 401.475 -1.03907 2.10334 0
M  V30 4038 C 402.491 -1.39257 1.04323 0
M  V30 4039 O 403.667 -1.48462 1.36091 0
M  V30 4040 C 400.732 -2.31938 2.57693 0
M  V30 4041 C 399.793 -2.03117 3.78209 0
M  V30 4042 C 399.026 -3.25043 4.233 0
M  V30 4043 O 399.249 -4.35916 3.67876 0
M  V30 4044 O 398.183 -3.10411 5.15683 0
M  V30 4045 H 402.009 -0.620748 2.97288 0
M  V30 4046 H 399.594 -0.240743 1.47448 0
M  V30 4047 H 401.476 -3.07196 2.88458 0
M  V30 4048 H 400.151 -2.73055 1.73847 0
M  V30 4049 H 399.058 -1.25408 3.52454 0
M  V30 4050 H 400.391 -1.66852 4.63056 0
M  V30 4051 N 402.043 -1.548 -0.295768 0
M  V30 4052 C 402.976 -1.81003 -1.38972 0
M  V30 4053 C 403.954 -0.661544 -1.48534 0
M  V30 4054 O 405.138 -0.902074 -1.65514 0
M  V30 4055 C 402.265 -1.95141 -2.76835 0
M  V30 4056 C 401.311 -3.17592 -2.84671 0
M  V30 4057 S 402.144 -4.75531 -2.46232 0
M  V30 4058 C 403.3 -4.92613 -3.86114 0
M  V30 4059 H 403.533 -2.73507 -1.16537 0
M  V30 4060 H 401.066 -1.46278 -0.494168 0
M  V30 4061 H 403.024 -2.03972 -3.56238 0
M  V30 4062 H 401.685 -1.03565 -2.96535 0
M  V30 4063 H 400.878 -3.24303 -3.85803 0
M  V30 4064 H 400.48 -3.07235 -2.13267 0
M  V30 4065 H 402.772 -4.76957 -4.81164 0
M  V30 4066 H 403.715 -5.94698 -3.8437 0
M  V30 4067 H 404.123 -4.2073 -3.76359 0
M  V30 4068 N 403.521 0.559213 -1.47345 0
M  V30 4069 C 404.767 1.31843 -1.54095 0
M  V30 4070 C 405.1 1.93149 -0.201726 0
M  V30 4071 O 404.375 1.77759 0.789428 0
M  V30 4072 C 404.658 2.43006 -2.65744 0
M  V30 4073 C 404.511 1.86581 -4.09277 0
M  V30 4074 C 405.83 3.44943 -2.73318 0
M  V30 4075 H 402.949 0.478012 -0.560957 0
M  V30 4076 H 405.591 0.625977 -1.79392 0
M  V30 4077 H 403.741 3.02072 -2.44305 0
M  V30 4078 H 405.413 1.31792 -4.42073 0
M  V30 4079 H 403.656 1.17268 -4.17649 0
M  V30 4080 H 404.327 2.66933 -4.83168 0
M  V30 4081 H 406.803 2.95793 -2.92653 0
M  V30 4082 H 405.679 4.20153 -3.53218 0
M  V30 4083 H 405.94 4.03665 -1.80296 0
M  V30 4084 N 404.999 1.35443 0.805782 0
M  V30 4085 C 405.962 1.28301 1.89925 0
M  V30 4086 C 406.962 0.194285 1.59622 0
M  V30 4087 O 408.152 0.448036 1.6834 0
M  V30 4088 C 405.284 0.984997 3.2636 0
M  V30 4089 H 406.477 2.2553 1.97677 0
M  V30 4090 H 404.03 1.19979 1.00173 0
M  V30 4091 H 404.765 0.016603 3.24296 0
M  V30 4092 H 404.55 1.77269 3.4974 0
M  V30 4093 H 406.04 0.960651 4.064 0
M  V30 4094 N 406.477 -1.02803 1.19454 0
M  V30 4095 C 407.702 -1.80378 1.02364 0
M  V30 4096 C 408.127 -1.83282 -0.423007 0
M  V30 4097 O 407.485 -1.25945 -1.30413 0
M  V30 4098 C 407.533 -3.23248 1.59821 0
M  V30 4099 O 406.637 -4.04 0.828105 0
M  V30 4100 H 405.978 -0.556799 0.361761 0
M  V30 4101 H 408.508 -1.29385 1.58495 0
M  V30 4102 H 408.518 -3.73994 1.63073 0
M  V30 4103 H 407.193 -3.2045 2.65113 0
M  V30 4104 H 405.77 -3.62635 0.86891 0
M  V30 4105 N 407.956 -0.998596 -1.21925 0
M  V30 4106 C 409.205 -0.673085 -1.90138 0
M  V30 4107 C 409.518 0.79895 -1.78539 0
M  V30 4108 O 410.724 1.23628 -2.4172 0
M  V30 4109 C 409.18 -1.15339 -3.40918 0
M  V30 4110 C 408.788 -2.65106 -3.61141 0
M  V30 4111 C 410.532 -0.902476 -4.14796 0
M  V30 4112 C 408.439 -3.0671 -5.05651 0
M  V30 4113 H 407.369 -0.248057 -0.712028 0
M  V30 4114 H 410.02 -1.20891 -1.38049 0
M  V30 4115 H 408.402 -0.545658 -3.92223 0
M  V30 4116 H 409.576 -3.31274 -3.20304 0
M  V30 4117 H 407.891 -2.88142 -3.00605 0
M  V30 4118 H 410.488 -1.18895 -5.21314 0
M  V30 4119 H 410.831 0.161349 -4.15987 0
M  V30 4120 H 411.364 -1.47269 -3.69536 0
M  V30 4121 H 408.103 -4.12292 -5.09603 0
M  V30 4122 H 407.623 -2.45249 -5.47369 0
M  V30 4123 H 409.302 -2.9833 -5.74115 0
M  V30 4124 N 409.434 1.37368 -0.772513 0
M  V30 4125 C 410.366 2.28899 -0.117502 0
M  V30 4126 C 411.379 1.4867 0.663405 0
M  V30 4127 O 412.568 1.71314 0.501372 0
M  V30 4128 C 409.668 3.2788 0.857192 0
M  V30 4129 C 408.841 4.37207 0.129938 0
M  V30 4130 C 407.9 5.16257 1.01811 0
M  V30 4131 O 406.926 5.67159 0.481601 0
M  V30 4132 N 408.128 5.31058 2.3443 0
M  V30 4133 H 410.893 2.85752 -0.903662 0
M  V30 4134 H 408.454 1.49353 -0.62493 0
M  V30 4135 H 410.446 3.77647 1.45482 0
M  V30 4136 H 409.016 2.7179 1.54432 0
M  V30 4137 H 408.236 3.88827 -0.648605 0
M  V30 4138 H 409.524 5.07434 -0.372559 0
M  V30 4139 H 408.922 4.91287 2.80452 0
M  V30 4140 H 407.479 5.84131 2.89197 0
M  V30 4141 N 410.912 0.523116 1.48665 0
M  V30 4142 C 412.16 -0.0134497 2.02096 0
M  V30 4143 C 412.481 -1.35418 1.40311 0
M  V30 4144 O 411.751 -1.87543 0.566074 0
M  V30 4145 H 410.331 -0.00795915 0.746958 0
M  V30 4146 H 412.993 0.685388 1.82451 0
M  V30 4147 H 412.089 -0.126849 3.11842 0
M  V30 4148 N 412.39 -1.55475 0.257931 0
M  V30 4149 C 413.618 -2.03609 -0.367559 0
M  V30 4150 C 414.033 -1.13687 -1.50734 0
M  V30 4151 O 413.39 -0.153479 -1.81853 0
M  V30 4152 C 413.441 -3.51001 -0.864908 0
M  V30 4153 O 413.162 -4.37499 0.229465 0
M  V30 4154 C 414.663 -4.14946 -1.55997 0
M  V30 4155 H 411.883 -0.665459 -0.0860521 0
M  V30 4156 H 414.427 -2.00843 0.385014 0
M  V30 4157 H 412.582 -3.54266 -1.56762 0
M  V30 4158 H 412.996 -5.24286 -0.14998 0
M  V30 4159 H 414.47 -5.19735 -1.85956 0
M  V30 4160 H 414.947 -3.6209 -2.4857 0
M  V30 4161 H 415.553 -4.15635 -0.901543 0
M  V30 4162 N 413.868 0.0150385 -1.57593 0
M  V30 4163 C 415.284 0.370907 -1.5523 0
M  V30 4164 C 415.484 1.75735 -0.985882 0
M  V30 4165 O 414.54 2.44944 -0.613077 0
M  V30 4166 C 415.853 0.259908 -2.99575 0
M  V30 4167 C 417.401 0.335959 -3.11192 0
M  V30 4168 C 417.876 0.254253 -4.57294 0
M  V30 4169 N 419.367 0.312618 -4.62144 0
M  V30 4170 C 420.102 0.272505 -5.72752 0
M  V30 4171 N 419.598 0.183864 -6.92556 0
M  V30 4172 N 421.391 0.323267 -5.6117 0
M  V30 4173 H 413.542 -0.892104 -1.92757 0
M  V30 4174 H 415.805 -0.340563 -0.884715 0
M  V30 4175 H 415.511 -0.693403 -3.44797 0
M  V30 4176 H 415.385 1.048 -3.62349 0
M  V30 4177 H 417.772 1.27971 -2.65909 0
M  V30 4178 H 417.853 -0.481739 -2.51223 0
M  V30 4179 H 417.497 -0.685887 -5.03247 0
M  V30 4180 H 417.427 1.09024 -5.15191 0
M  V30 4181 H 419.918 0.38307 -3.75953 0
M  V30 4182 H 420.231 0.15874 -7.72637 0
M  V30 4183 H 418.576 0.149708 -6.94839 0
M  V30 4184 H 421.767 0.390607 -4.66467 0
M  V30 4185 H 421.94 0.288539 -6.47357 0
M  V30 4186 N 415.346 1.54954 0.287554 0
M  V30 4187 C 416.757 1.65732 0.859634 0
M  V30 4188 C 417.108 0.574767 1.87592 0
M  V30 4189 O 416.233 -0.286299 2.14498 0
M  V30 4190 C 416.828 3.00438 1.56597 0
M  V30 4191 C 415.387 3.13292 2.08627 0
M  V30 4192 C 414.534 2.61473 0.923416 0
M  V30 4193 H 417.485 1.5857 0.0642338 0
M  V30 4194 H 417.506 2.92613 2.43224 0
M  V30 4195 H 417.018 3.79207 0.826053 0
M  V30 4196 H 415.119 2.39268 2.85625 0
M  V30 4197 H 415.232 4.19647 2.31157 0
M  V30 4198 H 413.596 2.18264 1.31275 0
M  V30 4199 H 414.379 3.42733 0.197241 0
M  V30 4200 N 416.824 -0.551391 1.4764 0
M  V30 4201 C 418.235 -1.13349 1.48354 0
M  V30 4202 C 418.586 -1.94709 0.241432 0
M  V30 4203 O 417.711 -2.06306 -0.653205 0
M  V30 4204 C 418.306 -2.0623 2.68802 0
M  V30 4205 C 416.865 -2.597 2.72457 0
M  V30 4206 C 416.012 -1.36201 2.41546 0
M  V30 4207 H 418.963 -0.337698 1.55065 0
M  V30 4208 H 418.984 -2.90196 2.46103 0
M  V30 4209 H 418.496 -1.46987 3.59188 0
M  V30 4210 H 416.597 -3.22724 1.86225 0
M  V30 4211 H 416.71 -3.00296 3.73308 0
M  V30 4212 H 415.074 -1.67068 1.9225 0
M  V30 4213 H 415.857 -0.787425 3.34147 0
M  V30 4214 N 418.302 -1.35869 -0.798587 0
M  V30 4215 C 419.53 -1.32722 -1.58722 0
M  V30 4216 C 419.945 0.0935631 -1.88568 0
M  V30 4217 O 419.302 1.04784 -1.49421 0
M  V30 4218 C 419.353 -2.13974 -2.91371 0
M  V30 4219 O 419.074 -3.50514 -2.62815 0
M  V30 4220 C 420.575 -2.18504 -3.85708 0
M  V30 4221 H 417.795 -0.45562 -0.492596 0
M  V30 4222 H 420.339 -1.78837 -0.991843 0
M  V30 4223 H 418.494 -1.71438 -3.47402 0
M  V30 4224 H 418.908 -3.92806 -3.47568 0
M  V30 4225 H 420.382 -2.79732 -4.75872 0
M  V30 4226 H 420.859 -1.18597 -4.22885 0
M  V30 4227 H 421.465 -2.61236 -3.35612 0
M  V30 4228 N 419.78 1.02168 -1.19998 0
M  V30 4229 C 421.196 1.27969 -0.953737 0
M  V30 4230 C 421.396 1.98079 0.369703 0
M  V30 4231 O 420.452 2.27306 1.09947 0
M  V30 4232 C 421.765 2.11971 -2.13281 0
M  V30 4233 C 423.313 2.25255 -2.17323 0
M  V30 4234 C 423.788 3.12632 -3.34702 0
M  V30 4235 N 425.279 3.2022 -3.34684 0
M  V30 4236 C 426.014 3.88039 -4.22153 0
M  V30 4237 N 425.51 4.58027 -5.19791 0
M  V30 4238 N 427.303 3.84511 -4.10009 0
M  V30 4239 H 419.454 0.550794 -2.05134 0
M  V30 4240 H 421.717 0.305683 -0.897364 0
M  V30 4241 H 421.423 1.67785 -3.09097 0
M  V30 4242 H 421.297 3.12699 -2.10949 0
M  V30 4243 H 423.684 2.68667 -1.22073 0
M  V30 4244 H 423.765 1.24053 -2.23706 0
M  V30 4245 H 423.409 2.69926 -4.30235 0
M  V30 4246 H 423.339 4.13909 -3.25556 0
M  V30 4247 H 425.83 2.70382 -2.64012 0
M  V30 4248 H 426.143 5.07429 -5.82868 0
M  V30 4249 H 424.488 4.56869 -5.23733 0
M  V30 4250 H 427.679 3.28978 -3.33003 0
M  V30 4251 H 427.852 4.3709 -4.78389 0
M  V30 4252 N 421.258 1.00505 1.21394 0
M  V30 4253 C 422.486 0.706609 1.9446 0
M  V30 4254 C 422.901 -0.73081 1.74082 0
M  V30 4255 O 422.258 -1.49446 1.04747 0
M  V30 4256 C 422.309 1.01824 3.46863 0
M  V30 4257 O 422.03 2.39919 3.66566 0
M  V30 4258 C 423.531 0.739216 4.37093 0
M  V30 4259 H 420.751 0.260394 0.618414 0
M  V30 4260 H 423.295 1.34311 1.54211 0
M  V30 4261 H 421.45 0.427343 3.85036 0
M  V30 4262 H 421.864 2.50784 4.6066 0
M  V30 4263 H 423.338 1.00744 5.42729 0
M  V30 4264 H 423.815 -0.326746 4.37983 0
M  V30 4265 H 424.421 1.31173 4.04566 0
M  V30 4266 N 422.737 -1.36956 0.779787 0
M  V30 4267 C 423.983 -1.99787 0.348281 0
M  V30 4268 C 424.316 -1.61756 -1.07465 0
M  V30 4269 O 423.591 -0.867639 -1.74075 0
M  V30 4270 C 423.874 -3.56597 0.50104 0
M  V30 4271 C 423.727 -4.04513 1.96697 0
M  V30 4272 C 425.046 -4.40008 -0.0898097 0
M  V30 4273 H 422.165 -0.725796 0.128022 0
M  V30 4274 H 424.807 -1.62514 0.984331 0
M  V30 4275 H 422.957 -3.88479 -0.0404347 0
M  V30 4276 H 424.629 -3.83161 2.56876 0
M  V30 4277 H 422.872 -3.56408 2.47297 0
M  V30 4278 H 423.543 -5.1352 2.02486 0
M  V30 4279 H 426.019 -4.14431 0.372293 0
M  V30 4280 H 424.895 -5.4888 0.0471605 0
M  V30 4281 H 425.156 -4.26035 -1.18096 0
M  V30 4282 N 424.215 -0.530993 -1.48385 0
M  V30 4283 C 425.631 -0.188919 -1.58478 0
M  V30 4284 C 425.831 1.30786 -1.53288 0
M  V30 4285 O 424.887 2.08619 -1.42248 0
M  V30 4286 C 426.2 -0.792343 -2.90073 0
M  V30 4287 C 427.748 -0.76117 -3.03604 0
M  V30 4288 C 428.223 -1.34319 -4.37861 0
M  V30 4289 N 429.714 -1.3052 -4.44431 0
M  V30 4290 C 430.449 -1.72543 -5.46824 0
M  V30 4291 N 429.945 -2.22299 -6.56167 0
M  V30 4292 N 431.738 -1.63773 -5.37712 0
M  V30 4293 H 423.889 -1.50377 -1.50002 0
M  V30 4294 H 426.152 -0.625559 -0.712306 0
M  V30 4295 H 425.858 -1.84323 -2.99529 0
M  V30 4296 H 425.732 -0.270026 -3.76232 0
M  V30 4297 H 428.119 0.280957 -2.93759 0
M  V30 4298 H 428.2 -1.32097 -2.19053 0
M  V30 4299 H 427.844 -2.38425 -4.4846 0
M  V30 4300 H 427.774 -0.759064 -5.21101 0
M  V30 4301 H 430.265 -0.940973 -3.65997 0
M  V30 4302 H 430.578 -2.52356 -7.30436 0
M  V30 4303 H 428.923 -2.26293 -6.57127 0
M  V30 4304 H 432.114 -1.24698 -4.51185 0
M  V30 4305 H 432.287 -1.96844 -6.17379 0
M  V30 4306 N 425.693 1.55336 -0.266172 0
M  V30 4307 C 426.941 1.99003 0.35246 0
M  V30 4308 C 427.262 1.15591 1.57047 0
M  V30 4309 O 426.532 0.243268 1.94384 0
M  V30 4310 H 425.112 0.735025 0.133217 0
M  V30 4311 H 427.774 1.91367 -0.369434 0
M  V30 4312 H 426.87 3.05289 0.648453 0
M  V30 4313 N 427.171 -0.0066808 1.57599 0
M  V30 4314 C 428.101 -0.999296 2.11036 0
M  V30 4315 C 429.082 -1.36278 1.01795 0
M  V30 4316 O 430.267 -1.4477 1.29442 0
M  V30 4317 C 427.397 -2.29328 2.60818 0
M  V30 4318 C 426.351 -2.07159 3.74525 0
M  V30 4319 C 425.677 -3.42512 4.10596 0
M  V30 4320 C 426.977 -1.43959 5.02069 0
M  V30 4321 H 428.671 -0.554382 2.94223 0
M  V30 4322 H 426.217 -0.265221 1.41536 0
M  V30 4323 H 428.17 -2.99117 2.96828 0
M  V30 4324 H 426.894 -2.7592 1.74745 0
M  V30 4325 H 425.553 -1.39797 3.38899 0
M  V30 4326 H 425.201 -3.86795 3.21556 0
M  V30 4327 H 424.901 -3.28498 4.87199 0
M  V30 4328 H 426.425 -4.13628 4.4916 0
M  V30 4329 H 427.839 -2.03696 5.35893 0
M  V30 4330 H 426.236 -1.40452 5.83432 0
M  V30 4331 H 427.306 -0.407992 4.83181 0
M  V30 4332 N 428.649 -1.55105 -0.279332 0
M  V30 4333 C 429.612 -1.86783 -1.32834 0
M  V30 4334 C 430.612 -0.74199 -1.42657 0
M  V30 4335 O 431.802 -1.0102 -1.41918 0
M  V30 4336 C 428.934 -2.06746 -2.71052 0
M  V30 4337 H 430.127 -2.8055 -1.05979 0
M  V30 4338 H 427.68 -1.47499 -0.517087 0
M  V30 4339 H 428.415 -1.15339 -3.03097 0
M  V30 4340 H 428.2 -2.88711 -2.65309 0
M  V30 4341 H 429.69 -2.32549 -3.46858 0
M  V30 4342 O 430.166 0.425144 -1.55804 0
M  V30 4343 H 430.857 1.07829 -1.60912 0
M  V30 END ATOM
M  V30 BEGIN BOND
M  V30 END BOND
M  V30 END CTAB
M  END
$$$$
