drugbank_target|Q13164 Mitogen-activated protein kinase 7 (DB12010)
 OpenBabel12092121163D

  0  0  0     0  0            999 V3000
M  V30 BEGIN CTAB
M  V30 COUNTS 12396 12573 0 0 0
M  V30 BEGIN ATOM
M  V30 1 H -0.908 1.98254 -0.117106 0
M  V30 2 N 0 1.576 0 0
M  V30 3 C 0.933 2.03868 1.02534 0
M  V30 4 C 1.911 0.928543 1.3348 0
M  V30 5 O 3.095 1.19667 1.45644 0
M  V30 6 C 0.222 2.43627 2.35294 0
M  V30 7 C -0.732 3.65373 2.2001 0
M  V30 8 S 0.101 5.13292 1.52614 0
M  V30 9 C 1.257 5.56322 2.86805 0
M  V30 10 H 1.49 2.90518 0.631377 0
M  V30 11 H -0.977 1.52953 0.210867 0
M  V30 12 H 0.981 2.67203 3.11629 0
M  V30 13 H -0.358 1.57376 2.7183 0
M  V30 14 H -1.165 3.90944 3.18086 0
M  V30 15 H -1.563 3.418 1.51819 0
M  V30 16 H 0.729 5.58782 3.83104 0
M  V30 17 H 1.672 6.56266 2.65933 0
M  V30 18 H 2.08 4.83886 2.90714 0
M  V30 19 N 1.4781 -0.272755 1.55222 0
M  V30 20 C 2.4411 -1.32041 1.87344 0
M  V30 21 C 3.4411 -1.42342 0.74803 0
M  V30 22 O 4.6311 -1.41488 1.0162 0
M  V30 23 C 1.7631 -2.70173 2.07893 0
M  V30 24 H 2.9561 -1.04789 2.80997 0
M  V30 25 H 0.5091 -0.51083 1.47717 0
M  V30 26 H 1.2441 -3.02605 1.16622 0
M  V30 27 H 1.0291 -2.64082 2.89833 0
M  V30 28 H 2.5191 -3.45869 2.34017 0
M  V30 29 N 2.9562 -1.48159 -0.537278 0
M  V30 30 C 3.8662 -1.64807 -1.6696 0
M  V30 31 C 4.8822 -0.530651 -1.65711 0
M  V30 32 O 6.0582 -0.800784 -1.84796 0
M  V30 33 C 3.1232 -1.67708 -3.03438 0
M  V30 34 C 2.1842 -2.91025 -3.156 0
M  V30 35 C 1.4172 -2.93778 -4.45567 0
M  V30 36 O 1.6402 -2.05153 -5.3223 0
M  V30 37 O 0.5742 -3.85868 -4.61941 0
M  V30 38 H 4.4002 -2.6066 -1.55853 0
M  V30 39 H 1.9852 -1.31475 -0.709549 0
M  V30 40 H 3.8672 -1.7218 -3.84619 0
M  V30 41 H 2.5422 -0.750278 -3.14885 0
M  V30 42 H 1.4492 -2.92089 -2.33741 0
M  V30 43 H 2.7822 -3.83065 -3.09066 0
M  V30 44 N 4.4343 0.785586 -1.36625 0
M  V30 45 C 5.8453 1.36101 -1.27803 0
M  V30 46 C 6.1963 1.96035 0.0804875 0
M  V30 47 O 5.3213 1.92834 0.982042 0
M  V30 48 C 5.9163 2.47442 -2.31426 0
M  V30 49 C 4.4753 3.00789 -2.26281 0
M  V30 50 C 3.6223 1.73896 -2.15999 0
M  V30 51 H 6.5733 0.586928 -1.47448 0
M  V30 52 H 6.5943 3.2656 -1.95291 0
M  V30 53 H 6.1063 2.03791 -3.30289 0
M  V30 54 H 4.2073 3.48851 -1.30896 0
M  V30 55 H 4.3203 3.57343 -3.19128 0
M  V30 56 H 2.6843 1.9628 -1.62316 0
M  V30 57 H 3.4673 1.32368 -3.16755 0
M  V30 58 N 5.9124 1.20967 1.01018 0
M  V30 59 C 6.8424 0.988272 2.11555 0
M  V30 60 C 7.8234 -0.0849778 1.69888 0
M  V30 61 O 9.0084 0.0738202 1.9406 0
M  V30 62 C 6.1384 0.546528 3.42973 0
M  V30 63 C 5.0924 1.56375 3.9841 0
M  V30 64 C 4.4184 0.97842 5.25672 0
M  V30 65 C 5.7184 2.94922 4.31066 0
M  V30 66 H 7.4124 1.91276 2.30334 0
M  V30 67 H 4.9584 0.921073 1.1069 0
M  V30 68 H 6.9114 0.378839 4.19694 0
M  V30 69 H 5.6354 -0.413598 3.23971 0
M  V30 70 H 4.2944 1.71891 3.23804 0
M  V30 71 H 3.9424 0.0101688 5.02999 0
M  V30 72 H 3.6424 1.65784 5.63728 0
M  V30 73 H 5.1664 0.821939 6.05043 0
M  V30 74 H 6.5804 2.8288 4.9865 0
M  V30 75 H 4.9774 3.5983 4.80253 0
M  V30 76 H 6.0474 3.4616 3.39561 0
M  V30 77 N 7.3905 -1.2043 1.01659 0
M  V30 78 C 8.3375 -2.23215 0.586822 0
M  V30 79 C 9.3075 -1.61382 -0.393085 0
M  V30 80 O 10.4925 -1.88544 -0.292525 0
M  V30 81 C 7.6325 -3.45032 -0.0687464 0
M  V30 82 C 6.7455 -4.21296 0.955724 0
M  V30 83 C 5.8805 -5.30507 0.271208 0
M  V30 84 C 4.9195 -5.98515 1.28244 0
M  V30 85 N 4.0565 -6.99316 0.62459 0
M  V30 86 H 8.8965 -2.59336 1.46796 0
M  V30 87 H 6.4335 -1.27431 0.734836 0
M  V30 88 H 8.3915 -4.1459 -0.465965 0
M  V30 89 H 7.0215 -3.09604 -0.913529 0
M  V30 90 H 6.0735 -3.50803 1.4711 0
M  V30 91 H 7.3855 -4.6803 1.72479 0
M  V30 92 H 6.5395 -6.06428 -0.18151 0
M  V30 93 H 5.2785 -4.8481 -0.530163 0
M  V30 94 H 4.2835 -5.21355 1.74554 0
M  V30 95 H 5.5085 -6.46298 2.08509 0
M  V30 96 H 3.4545 -6.55812 -0.156914 0
M  V30 97 H 3.3715 -7.44178 1.33172 0
M  V30 98 H 4.6395 -7.79255 0.195462 0
M  V30 99 N 8.8686 -0.792821 -1.36206 0
M  V30 100 C 9.7786 -0.194808 -2.3379 0
M  V30 101 C 10.7946 0.654869 -1.61206 0
M  V30 102 O 11.9706 0.569856 -1.9317 0
M  V30 103 C 9.0356 0.657721 -3.40404 0
M  V30 104 C 8.0966 -0.210849 -4.28782 0
M  V30 105 C 7.3296 0.601086 -5.30304 0
M  V30 106 O 7.5526 1.83682 -5.40016 0
M  V30 107 O 6.4866 -0.000808277 -6.019 0
M  V30 108 H 10.3126 -1.00172 -2.86704 0
M  V30 109 H 7.8976 -0.554341 -1.38735 0
M  V30 110 H 9.7796 1.14375 -4.05581 0
M  V30 111 H 8.4546 1.44247 -2.89784 0
M  V30 112 H 7.3616 -0.743714 -3.66633 0
M  V30 113 H 8.6946 -0.959195 -4.82763 0
M  V30 114 N 10.3467 1.47872 -0.545128 0
M  V30 115 C 11.2567 2.33633 0.212746 0
M  V30 116 C 12.2727 1.4744 0.923983 0
M  V30 117 O 13.4487 1.80393 0.895572 0
M  V30 118 C 10.5137 3.23884 1.23693 0
M  V30 119 C 9.5747 4.25961 0.534417 0
M  V30 120 C 8.8077 5.11899 1.5098 0
M  V30 121 O 9.0307 5.00077 2.7437 0
M  V30 122 O 7.9647 5.92831 1.0409 0
M  V30 123 H 11.7907 2.99714 -0.490416 0
M  V30 124 H 9.3757 1.46235 -0.305871 0
M  V30 125 H 11.2577 3.79666 1.82843 0
M  V30 126 H 9.9327 2.60446 1.92222 0
M  V30 127 H 8.8397 3.73972 -0.0979679 0
M  V30 128 H 10.1727 4.92079 -0.109213 0
M  V30 129 N 11.8248 0.280983 1.55075 0
M  V30 130 C 13.1018 -0.386207 1.91749 0
M  V30 131 C 13.4818 -1.73264 1.20594 0
M  V30 132 O 12.8298 -2.26034 0.334784 0
M  V30 133 C 13.0398 -0.520687 3.45094 0
M  V30 134 C 14.3878 -0.800865 4.16979 0
M  V30 135 O 15.4118 -0.605271 3.5102 0
M  V30 136 O 14.2708 -1.1753 5.33712 0
M  V30 137 H 11.3648 -0.212408 0.799257 0
M  V30 138 H 13.9108 0.327568 1.66509 0
M  V30 139 H 12.6828 0.426633 3.88967 0
M  V30 140 H 12.3058 -1.2837 3.76307 0
M  V30 141 N 13.3029 -1.57598 0.00835791 0
M  V30 142 C 14.5509 -1.90551 -0.6734 0
M  V30 143 C 14.8719 -0.883301 -1.73847 0
M  V30 144 O 14.1419 0.0781442 -1.95744 0
M  V30 145 H 12.7219 -0.703312 -0.251717 0
M  V30 146 H 15.3839 -1.94833 0.0512592 0
M  V30 147 H 14.4799 -2.9056 -1.13935 0
M  V30 148 N 14.781 0.264519 -1.55364 0
M  V30 149 C 15.691 1.34902 -1.91934 0
M  V30 150 C 16.707 1.53595 -0.817593 0
M  V30 151 O 17.883 1.67558 -1.11742 0
M  V30 152 C 14.948 2.68676 -2.19121 0
M  V30 153 C 14.009 2.58657 -3.4263 0
M  V30 154 C 13.242 3.86051 -3.68511 0
M  V30 155 O 13.465 4.87126 -2.96757 0
M  V30 156 O 12.399 3.85744 -4.62045 0
M  V30 157 H 16.225 1.06883 -2.8427 0
M  V30 158 H 13.81 0.463775 -1.42019 0
M  V30 159 H 15.692 3.47759 -2.37995 0
M  V30 160 H 14.367 2.96463 -1.29966 0
M  V30 161 H 13.274 1.7792 -3.29082 0
M  V30 162 H 14.607 2.35818 -4.32031 0
M  V30 163 N 16.2591 1.48442 0.529413 0
M  V30 164 C 17.5361 1.46978 1.29062 0
M  V30 165 C 17.9161 0.181769 2.10316 0
M  V30 166 O 17.2641 -0.836481 2.12639 0
M  V30 167 C 17.4741 2.7321 2.17157 0
M  V30 168 C 18.8221 3.21562 2.77278 0
M  V30 169 O 19.8461 2.74131 2.27444 0
M  V30 170 O 18.7051 4.04094 3.67927 0
M  V30 171 H 15.7991 0.587003 0.582543 0
M  V30 172 H 18.3451 1.60676 0.546021 0
M  V30 173 H 17.1171 3.58465 1.56903 0
M  V30 174 H 16.7401 2.62235 2.98862 0
M  V30 175 N 17.7372 -0.778329 1.37039 0
M  V30 176 C 18.9852 -1.53361 1.31623 0
M  V30 177 C 19.3062 -1.94739 -0.100831 0
M  V30 178 O 18.5762 -1.65797 -1.04347 0
M  V30 179 H 17.1562 -0.568794 0.484234 0
M  V30 180 H 19.8182 -0.926742 1.71457 0
M  V30 181 H 18.9142 -2.43606 1.95096 0
M  V30 182 N 19.2153 -1.21501 -1.00376 0
M  V30 183 C 20.4403 -1.05977 -1.78279 0
M  V30 184 C 20.8653 0.385994 -1.84097 0
M  V30 185 O 20.2233 1.27849 -1.28547 0
M  V30 186 C 20.2713 -1.66302 -3.19963 0
M  V30 187 O 19.3753 -0.909333 -4.0225 0
M  V30 188 H 18.7163 -0.372906 -0.549397 0
M  V30 189 H 21.2463 -1.6107 -1.26165 0
M  V30 190 H 21.2563 -1.70574 -3.70632 0
M  V30 191 H 19.9313 -2.71515 -3.15043 0
M  V30 192 H 18.5083 -0.941795 -3.60811 0
M  V30 193 N 20.6934 1.19889 -1.02296 0
M  V30 194 C 21.6564 2.21116 -0.603351 0
M  V30 195 C 22.6564 1.5738 0.329884 0
M  V30 196 O 23.8464 1.73802 0.117702 0
M  V30 197 C 20.9784 3.40696 0.117992 0
M  V30 198 H 22.1714 2.59754 -1.49893 0
M  V30 199 H 19.7244 1.33463 -0.813468 0
M  V30 200 H 20.4594 3.07569 1.0282 0
M  V30 201 H 20.2444 3.88188 -0.552511 0
M  V30 202 H 21.7344 4.15692 0.398696 0
M  V30 203 N 22.1715 0.800033 1.35784 0
M  V30 204 C 23.0815 0.207204 2.33683 0
M  V30 205 C 24.0975 -0.64631 1.61551 0
M  V30 206 O 25.2735 -0.559604 1.93469 0
M  V30 207 C 22.3385 -0.639659 3.40748 0
M  V30 208 C 21.3995 0.233585 4.28664 0
M  V30 209 C 20.6325 -0.572954 5.30616 0
M  V30 210 O 20.8555 -1.80816 5.40982 0
M  V30 211 O 19.7895 0.0327285 6.01891 0
M  V30 212 H 23.6155 1.01692 2.86169 0
M  V30 213 H 21.2005 0.561691 1.38439 0
M  V30 214 H 23.0825 -1.12223 4.06182 0
M  V30 215 H 21.7575 -1.42708 2.90544 0
M  V30 216 H 20.6645 0.763147 3.66233 0
M  V30 217 H 21.9975 0.984784 4.82248 0
M  V30 218 N 23.6496 -1.47581 0.552962 0
M  V30 219 C 25.0606 -1.86324 0.118463 0
M  V30 220 C 25.4116 -1.46006 -1.3106 0
M  V30 221 O 24.5366 -0.861182 -1.98526 0
M  V30 222 C 25.1316 -3.3816 0.20821 0
M  V30 223 C 23.6906 -3.7601 -0.171226 0
M  V30 224 C 22.8376 -2.71634 0.557686 0
M  V30 225 H 25.7886 -1.39159 0.762928 0
M  V30 226 H 25.8096 -3.76141 -0.574278 0
M  V30 227 H 25.3216 -3.67473 1.24841 0
M  V30 228 H 23.4226 -3.52313 -1.21269 0
M  V30 229 H 23.5356 -4.78745 0.184379 0
M  V30 230 H 21.8996 -2.547 0.00125792 0
M  V30 231 H 22.6826 -3.0379 1.59896 0
M  V30 232 N 25.1277 -0.289203 -1.54924 0
M  V30 233 C 26.5387 0.205791 -1.85562 0
M  V30 234 C 26.8897 1.54351 -1.2112 0
M  V30 235 O 26.0147 2.10435 -0.504601 0
M  V30 236 C 26.6097 0.380177 -3.3666 0
M  V30 237 C 25.1687 0.819395 -3.67373 0
M  V30 238 C 24.3157 -0.079159 -2.77187 0
M  V30 239 H 27.2667 -0.510577 -1.50262 0
M  V30 240 H 27.2877 1.21659 -3.60526 0
M  V30 241 H 26.7997 -0.593589 -3.83534 0
M  V30 242 H 24.9007 1.80413 -3.26009 0
M  V30 243 H 25.0137 0.646957 -4.74712 0
M  V30 244 H 23.3777 0.439565 -2.50878 0
M  V30 245 H 24.1607 -1.04906 -3.26878 0
M  V30 246 N 26.6058 1.57591 -0.0167156 0
M  V30 247 C 27.8538 1.90906 0.663285 0
M  V30 248 C 28.1748 0.892509 1.73376 0
M  V30 249 O 27.4448 -0.0677623 1.95783 0
M  V30 250 H 26.0248 0.704637 0.247983 0
M  V30 251 H 28.6868 1.94803 -0.0615909 0
M  V30 252 H 27.7828 2.9116 1.12393 0
M  V30 253 N 28.0839 -0.256276 1.55502 0
M  V30 254 C 29.4949 -0.826068 1.67431 0
M  V30 255 C 29.8459 -1.86396 0.612446 0
M  V30 256 O 28.9709 -2.15031 -0.243025 0
M  V30 257 C 29.5659 -1.50512 3.03532 0
M  V30 258 C 28.1249 -2.02273 3.17431 0
M  V30 259 C 27.2719 -0.870548 2.63281 0
M  V30 260 H 30.2229 -0.0322728 1.58667 0
M  V30 261 H 30.2439 -2.37279 2.97454 0
M  V30 262 H 29.7559 -0.749484 3.80794 0
M  V30 263 H 27.8569 -2.80746 2.44974 0
M  V30 264 H 27.9699 -2.22655 4.24219 0
M  V30 265 H 26.3339 -1.26851 2.20864 0
M  V30 266 H 27.1169 -0.128149 3.43061 0
M  V30 267 N 29.562 -1.4872 -0.521534 0
M  V30 268 C 30.808 -1.574 -1.27879 0
M  V30 269 C 31.141 -0.250817 -1.92573 0
M  V30 270 O 30.416 0.743934 -1.79711 0
M  V30 271 C 30.699 -2.71843 -2.36164 0
M  V30 272 C 30.552 -4.13893 -1.76105 0
M  V30 273 C 31.871 -2.82008 -3.37875 0
M  V30 274 H 28.99 -0.572941 -0.463581 0
M  V30 275 H 31.632 -1.80927 -0.580119 0
M  V30 276 H 29.782 -2.51914 -2.95756 0
M  V30 277 H 31.454 -4.45284 -1.20499 0
M  V30 278 H 29.697 -4.20498 -1.06601 0
M  V30 279 H 30.368 -4.89804 -2.5455 0
M  V30 280 H 32.844 -3.00086 -2.88249 0
M  V30 281 H 31.72 -3.63796 -4.11028 0
M  V30 282 H 31.981 -1.90511 -3.98946 0
M  V30 283 N 31.0401 0.771051 -1.3745 0
M  V30 284 C 31.9871 1.88435 -1.3327 0
M  V30 285 C 32.9571 1.64914 -0.198136 0
M  V30 286 O 34.1421 1.86821 -0.387606 0
M  V30 287 C 31.2821 3.25509 -1.14622 0
M  V30 288 C 30.3951 3.60979 -2.37314 0
M  V30 289 C 29.5301 4.87265 -2.11533 0
M  V30 290 C 28.5691 5.15469 -3.30088 0
M  V30 291 N 27.7061 6.32944 -3.03853 0
M  V30 292 H 32.5461 1.91344 -2.28455 0
M  V30 293 H 30.0831 0.935466 -1.13523 0
M  V30 294 H 32.0411 4.04582 -1.01831 0
M  V30 295 H 30.6711 3.21974 -0.230837 0
M  V30 296 H 29.7231 2.76885 -2.60842 0
M  V30 297 H 31.0351 3.77759 -3.25729 0
M  V30 298 H 30.1891 5.74244 -1.95777 0
M  V30 299 H 28.9281 4.7259 -1.20457 0
M  V30 300 H 27.9331 4.26966 -3.46382 0
M  V30 301 H 29.1581 5.32052 -4.22016 0
M  V30 302 H 27.1041 6.19625 -2.15407 0
M  V30 303 H 27.0211 6.50143 -3.85812 0
M  V30 304 H 28.2891 7.22857 -2.91716 0
M  V30 305 N 32.5182 1.22032 0.997298 0
M  V30 306 C 33.4812 0.987909 2.06816 0
M  V30 307 C 34.4812 -0.0440084 1.6074 0
M  V30 308 O 35.6712 0.194053 1.73116 0
M  V30 309 C 32.8032 0.49132 3.37341 0
M  V30 310 H 33.9962 1.93803 2.28868 0
M  V30 311 H 31.5492 1.03838 1.16822 0
M  V30 312 H 32.2842 -0.463364 3.20973 0
M  V30 313 H 32.0692 1.23575 3.72118 0
M  V30 314 H 33.5592 0.348824 4.16141 0
M  V30 315 N 33.9963 -1.19345 1.0293 0
M  V30 316 C 34.9063 -2.26245 0.620515 0
M  V30 317 C 35.9223 -1.70486 -0.347928 0
M  V30 318 O 37.0983 -2.00347 -0.205704 0
M  V30 319 C 34.1633 -3.46693 -0.0218957 0
M  V30 320 C 33.2243 -4.17632 0.994102 0
M  V30 321 C 32.4573 -5.32329 0.382253 0
M  V30 322 O 32.6803 -5.64552 -0.814676 0
M  V30 323 O 31.6143 -5.91664 1.10531 0
M  V30 324 H 35.4403 -2.63453 1.51083 0
M  V30 325 H 33.0253 -1.26207 0.799513 0
M  V30 326 H 34.9073 -4.19683 -0.380072 0
M  V30 327 H 33.5823 -3.11333 -0.886209 0
M  V30 328 H 32.4893 -3.4676 1.40387 0
M  V30 329 H 33.8223 -4.56964 1.8288 0
M  V30 330 N 35.4744 -0.807222 -1.35358 0
M  V30 331 C 36.8854 -0.44876 -1.81226 0
M  V30 332 C 37.2364 1.02929 -1.67033 0
M  V30 333 O 36.3614 1.79991 -1.20133 0
M  V30 334 C 36.9564 -0.807774 -3.2903 0
M  V30 335 C 35.5154 -0.501901 -3.73039 0
M  V30 336 C 34.6624 -1.03304 -2.57339 0
M  V30 337 H 37.6134 -0.998808 -1.23327 0
M  V30 338 H 37.6344 -0.10554 -3.80354 0
M  V30 339 H 37.1464 -1.88357 -3.39328 0
M  V30 340 H 35.2474 0.565128 -3.68289 0
M  V30 341 H 35.3604 -1.03497 -4.67787 0
M  V30 342 H 33.7244 -0.455339 -2.50597 0
M  V30 343 H 34.5074 -2.11496 -2.70415 0
M  V30 344 N 36.9525 1.47285 -0.560781 0
M  V30 345 C 37.9155 2.28535 0.174488 0
M  V30 346 C 38.9155 1.37153 0.839388 0
M  V30 347 O 40.1055 1.59748 0.694702 0
M  V30 348 C 37.2375 3.16934 1.25561 0
M  V30 349 H 38.4305 2.95012 -0.539262 0
M  V30 350 H 35.9835 1.53034 -0.317865 0
M  V30 351 H 36.7185 2.55157 2.00164 0
M  V30 352 H 36.5035 3.8419 0.783604 0
M  V30 353 H 37.9935 3.78143 1.77193 0
M  V30 354 N 38.4306 0.297415 1.54768 0
M  V30 355 C 39.3806 -0.595275 2.20092 0
M  V30 356 C 40.3646 -1.10163 1.17273 0
M  V30 357 O 41.5566 -1.043 1.43006 0
M  V30 358 C 38.6856 -1.7684 2.94249 0
M  V30 359 C 37.7716 -1.27818 4.0438 0
M  V30 360 N 38.1626 -0.505695 5.03266 0
M  V30 361 C 36.4606 -1.55923 4.17857 0
M  V30 362 C 37.1616 -0.245094 5.81183 0
M  V30 363 N 36.1376 -0.823881 5.3732 0
M  V30 364 H 39.9396 0.00250837 2.939 0
M  V30 365 H 37.4536 0.102007 1.62079 0
M  V30 366 H 39.4506 -2.41944 3.39513 0
M  V30 367 H 38.1106 -2.36992 2.21957 0
M  V30 368 H 39.1216 -0.150928 5.1768 0
M  V30 369 H 35.7986 -2.16849 3.56767 0
M  V30 370 H 37.1886 0.375084 6.70852 0
M  V30 371 N 39.9087 -1.5758 0.0250728 0
M  V30 372 C 41.1367 -1.9593 -0.664747 0
M  V30 373 C 41.5517 -0.901352 -1.65895 0
M  V30 374 O 40.9087 0.117255 -1.82123 0
M  V30 375 C 40.9597 -3.34342 -1.37468 0
M  V30 376 O 40.6807 -4.36079 -0.420324 0
M  V30 377 C 42.1817 -3.873 -2.1567 0
M  V30 378 H 39.4017 -0.645405 -0.183557 0
M  V30 379 H 41.9457 -2.04329 0.0836372 0
M  V30 380 H 40.1007 -3.27175 -2.0745 0
M  V30 381 H 40.5147 -5.16297 -0.923991 0
M  V30 382 H 41.9887 -4.86504 -2.60803 0
M  V30 383 H 42.4657 -3.21331 -2.99405 0
M  V30 384 H 43.0717 -3.97723 -1.50654 0
M  V30 385 N 41.3868 0.248026 -1.55636 0
M  V30 386 C 42.3498 1.29044 -1.89421 0
M  V30 387 C 43.3498 1.41134 -0.770581 0
M  V30 388 O 44.5398 1.39854 -1.03858 0
M  V30 389 C 41.6718 2.66831 -2.12165 0
M  V30 390 H 42.8648 1.00305 -2.82629 0
M  V30 391 H 40.4178 0.487265 -1.48511 0
M  V30 392 H 41.1528 3.00711 -1.21422 0
M  V30 393 H 40.9378 2.59438 -2.93997 0
M  V30 394 H 42.4278 3.42103 -2.3949 0
M  V30 395 N 42.8649 1.48995 0.513639 0
M  V30 396 C 43.8279 1.64229 1.59879 0
M  V30 397 C 44.8279 0.514696 1.5234 0
M  V30 398 O 46.0179 0.78087 1.55718 0
M  V30 399 C 43.1499 1.62783 2.99524 0
M  V30 400 H 44.3429 2.61004 1.47705 0
M  V30 401 H 41.8959 1.37837 0.736936 0
M  V30 402 H 42.6309 0.675461 3.17188 0
M  V30 403 H 42.4159 2.4466 3.06404 0
M  V30 404 H 43.9059 1.76669 3.78388 0
M  V30 405 N 44.343 -0.763751 1.37857 0
M  V30 406 C 45.568 -1.55805 1.36893 0
M  V30 407 C 45.993 -1.88054 -0.0416135 0
M  V30 408 O 45.351 -1.49825 -1.02089 0
M  V30 409 C 45.399 -2.84012 2.22192 0
M  V30 410 O 44.503 -3.78732 1.63204 0
M  V30 411 H 43.844 -0.471638 0.46739 0
M  V30 412 H 46.374 -0.944657 1.81487 0
M  V30 413 H 46.384 -3.33037 2.35691 0
M  V30 414 H 45.059 -2.59869 3.24716 0
M  V30 415 H 43.636 -3.37402 1.58791 0
M  V30 416 N 45.8211 -1.22559 -0.990812 0
M  V30 417 C 47.0671 -1.05297 -1.73322 0
M  V30 418 C 47.4001 0.410655 -1.89808 0
M  V30 419 O 46.6751 1.30439 -1.44277 0
M  V30 420 C 46.9581 -1.76713 -3.13759 0
M  V30 421 C 46.8111 -3.30684 -3.04907 0
M  V30 422 C 48.1301 -1.52121 -4.12974 0
M  V30 423 H 45.2491 -0.38392 -0.629106 0
M  V30 424 H 47.8911 -1.50926 -1.15418 0
M  V30 425 H 46.0411 -1.37924 -3.63193 0
M  V30 426 H 47.7131 -3.7893 -2.63077 0
M  V30 427 H 45.9561 -3.60253 -2.41661 0
M  V30 428 H 46.6271 -3.75833 -4.04294 0
M  V30 429 H 49.1031 -1.85819 -3.72304 0
M  V30 430 H 47.9791 -2.04582 -5.0935 0
M  V30 431 H 48.2401 -0.454257 -4.3976 0
M  V30 432 N 47.2992 1.18797 -1.03562 0
M  V30 433 C 48.2622 2.20464 -0.626769 0
M  V30 434 C 49.2622 1.57721 0.313173 0
M  V30 435 O 50.4522 1.73917 0.0992615 0
M  V30 436 C 47.5842 3.40802 0.0818498 0
M  V30 437 H 48.7772 2.58149 -1.5264 0
M  V30 438 H 46.3302 1.32593 -0.827578 0
M  V30 439 H 47.0652 3.08642 0.995518 0
M  V30 440 H 46.8502 3.8758 -0.593652 0
M  V30 441 H 48.3402 4.16092 0.354584 0
M  V30 442 N 48.7773 0.814389 1.34928 0
M  V30 443 C 49.7403 0.235759 2.27984 0
M  V30 444 C 50.7403 -0.581412 1.49921 0
M  V30 445 O 51.9303 -0.398758 1.69575 0
M  V30 446 C 49.0623 -0.670433 3.34242 0
M  V30 447 H 50.2553 1.05659 2.80671 0
M  V30 448 H 47.8083 0.585614 1.44915 0
M  V30 449 H 48.5433 -1.51466 2.86755 0
M  V30 450 H 48.3283 -0.0860822 3.92005 0
M  V30 451 H 49.8183 -1.06935 4.03676 0
M  V30 452 N 50.2554 -1.46986 0.568584 0
M  V30 453 C 51.2024 -2.30153 -0.172707 0
M  V30 454 C 52.1724 -1.39759 -0.897586 0
M  V30 455 O 53.3574 -1.68716 -0.891044 0
M  V30 456 C 50.4974 -3.23952 -1.1895 0
M  V30 457 C 49.6104 -4.29441 -0.469517 0
M  V30 458 C 48.7454 -5.1038 -1.47259 0
M  V30 459 C 47.7844 -6.07632 -0.738225 0
M  V30 460 N 46.9214 -6.8149 -1.68868 0
M  V30 461 H 51.7614 -2.93019 0.542596 0
M  V30 462 H 49.2984 -1.44422 0.279401 0
M  V30 463 H 51.2564 -3.76767 -1.79173 0
M  V30 464 H 49.8864 -2.62926 -1.87269 0
M  V30 465 H 48.9384 -3.79594 0.247467 0
M  V30 466 H 50.2504 -4.98689 0.105241 0
M  V30 467 H 49.4044 -5.67402 -2.14803 0
M  V30 468 H 48.1434 -4.4106 -2.08128 0
M  V30 469 H 47.1484 -5.49778 -0.0489293 0
M  V30 470 H 48.3734 -6.78966 -0.135129 0
M  V30 471 H 46.3194 -6.14891 -2.28573 0
M  V30 472 H 46.2364 -7.46948 -1.16636 0
M  V30 473 H 47.5044 -7.43078 -2.3549 0
M  V30 474 N 51.7335 -0.305618 -1.54608 0
M  V30 475 C 52.6815 0.584119 -2.25146 0
M  V30 476 C 53.6755 1.13326 -1.25911 0
M  V30 477 O 54.8815 1.08337 -1.43747 0
M  V30 478 H 51.2565 0.206983 -0.722954 0
M  V30 479 H 53.2275 -0.033291 -2.98381 0
M  V30 480 C 51.9765 1.74225 -3.009 0
M  V30 481 H 51.2995 1.32892 -3.77067 0
M  V30 482 H 52.7395 2.34077 -3.53531 0
M  V30 483 C 51.1985 2.64914 -2.0814 0
M  V30 484 O 51.7285 3.66137 -1.65246 0
M  V30 485 N 49.9345 2.3275 -1.74 0
M  V30 486 H 49.4815 1.50479 -2.09078 0
M  V30 487 H 49.4395 2.93694 -1.12211 0
M  V30 488 N 53.2116 1.57565 -0.0334293 0
M  V30 489 C 54.1416 2.13511 0.945265 0
M  V30 490 C 55.1226 1.05231 1.33643 0
M  V30 491 O 56.3076 1.33084 1.41429 0
M  V30 492 C 53.4376 2.6657 2.22616 0
M  V30 493 C 52.3916 3.79676 1.97561 0
M  V30 494 C 51.7176 4.1918 3.31952 0
M  V30 495 C 53.0176 5.0557 1.31135 0
M  V30 496 H 54.7116 2.95538 0.479325 0
M  V30 497 H 52.2576 1.42166 0.229115 0
M  V30 498 H 54.2106 3.04344 2.91466 0
M  V30 499 H 52.9346 1.8171 2.71384 0
M  V30 500 H 51.5936 3.42347 1.31127 0
M  V30 501 H 51.2416 3.31296 3.78487 0
M  V30 502 H 50.9416 4.95402 3.15992 0
M  V30 503 H 52.4656 4.59541 4.02063 0
M  V30 504 H 53.8796 5.40903 1.89992 0
M  V30 505 H 52.2766 5.86818 1.25559 0
M  V30 506 H 53.3466 4.84062 0.284894 0
M  V30 507 N 54.6897 -0.239769 1.55765 0
M  V30 508 C 55.6527 -1.28038 1.90103 0
M  V30 509 C 56.6527 -1.40723 0.778055 0
M  V30 510 O 57.8427 -1.39301 1.04599 0
M  V30 511 C 54.9747 -2.65702 2.13577 0
M  V30 512 H 56.1677 -0.988048 2.83157 0
M  V30 513 H 53.7207 -0.479382 1.48767 0
M  V30 514 H 54.4557 -3.00063 1.23015 0
M  V30 515 H 54.2407 -2.57875 2.95369 0
M  V30 516 H 55.7307 -3.40828 2.41301 0
M  V30 517 N 56.1678 -1.49265 -0.50573 0
M  V30 518 C 57.0978 -1.68495 -1.61653 0
M  V30 519 C 58.0788 -0.53366 -1.61512 0
M  V30 520 O 59.2638 -0.76897 -1.78327 0
M  V30 521 C 56.3938 -1.74709 -3.00157 0
M  V30 522 C 55.3478 -2.89581 -3.15162 0
M  V30 523 C 54.6738 -2.80903 -4.5497 0
M  V30 524 C 55.9738 -4.30578 -2.95634 0
M  V30 525 H 57.6678 -2.61493 -1.45814 0
M  V30 526 H 55.2138 -1.25838 -0.70005 0
M  V30 527 H 57.1668 -1.86748 -3.77761 0
M  V30 528 H 55.8908 -0.783067 -3.17074 0
M  V30 529 H 54.5498 -2.77136 -2.39982 0
M  V30 530 H 54.1978 -1.82419 -4.68756 0
M  V30 531 H 53.8978 -3.57999 -4.65951 0
M  V30 532 H 55.4218 -2.94944 -5.34641 0
M  V30 533 H 56.8358 -4.4373 -3.63011 0
M  V30 534 H 55.2328 -5.0886 -3.18091 0
M  V30 535 H 56.3028 -4.45352 -1.91806 0
M  V30 536 N 57.6459 0.756429 -1.3826 0
M  V30 537 C 58.5759 1.88374 -1.37976 0
M  V30 538 C 59.5569 1.68311 -0.246082 0
M  V30 539 O 60.7419 1.88944 -0.44874 0
M  V30 540 C 57.8719 3.25864 -1.20125 0
M  V30 541 C 56.8259 3.60523 -2.30666 0
M  V30 542 C 56.1519 4.9672 -1.97923 0
M  V30 543 C 57.4519 3.65692 -3.72916 0
M  V30 544 H 59.1459 1.88869 -2.32312 0
M  V30 545 H 56.6919 0.907272 -1.11824 0
M  V30 546 H 58.6449 4.0438 -1.18552 0
M  V30 547 H 57.3689 3.25841 -0.222498 0
M  V30 548 H 56.0279 2.84324 -2.3142 0
M  V30 549 H 55.6759 4.93253 -0.985393 0
M  V30 550 H 55.3759 5.20878 -2.71955 0
M  V30 551 H 56.8999 5.77618 -1.97964 0
M  V30 552 H 58.3139 4.34328 -3.74208 0
M  V30 553 H 56.7109 4.01358 -4.4613 0
M  V30 554 H 57.7809 2.65987 -4.05436 0
M  V30 555 N 59.124 1.23083 0.984299 0
M  V30 556 C 60.071 1.00854 2.07598 0
M  V30 557 C 61.041 -0.0726709 1.65941 0
M  V30 558 O 62.226 0.0786535 1.90638 0
M  V30 559 C 59.366 0.601645 3.39815 0
M  V30 560 C 58.479 1.75456 3.94765 0
M  V30 561 C 57.614 1.29482 5.15177 0
M  V30 562 C 56.653 2.41873 5.62284 0
M  V30 563 N 55.79 1.96885 6.73929 0
M  V30 564 H 60.63 1.943 2.25946 0
M  V30 565 H 58.167 0.968001 1.10762 0
M  V30 566 H 60.125 0.346854 4.15756 0
M  V30 567 H 58.755 -0.295803 3.21442 0
M  V30 568 H 57.807 2.12346 3.15616 0
M  V30 569 H 59.119 2.59965 4.25699 0
M  V30 570 H 58.273 0.997923 5.98437 0
M  V30 571 H 57.012 0.420046 4.85888 0
M  V30 572 H 56.017 2.72342 4.77608 0
M  V30 573 H 57.242 3.29881 5.93595 0
M  V30 574 H 55.188 1.11782 6.46406 0
M  V30 575 H 55.105 2.74956 7.04227 0
M  V30 576 H 56.373 1.70289 7.60672 0
M  V30 577 N 60.6021 -1.18246 1.0419 0
M  V30 578 C 61.5651 -2.20128 0.638452 0
M  V30 579 C 62.5651 -1.57885 -0.304805 0
M  V30 580 O 63.7551 -1.73967 -0.0900369 0
M  V30 581 C 60.8871 -3.4084 -0.0637751 0
M  V30 582 H 62.0801 -2.57336 1.54007 0
M  V30 583 H 59.6331 -1.32152 0.834598 0
M  V30 584 H 60.3681 -3.09166 -0.979136 0
M  V30 585 H 60.1531 -3.8726 0.614198 0
M  V30 586 H 61.6431 -4.16274 -0.332512 0
M  V30 587 N 62.0802 -0.821533 -1.34494 0
M  V30 588 C 63.4962 -0.507117 -1.51329 0
M  V30 589 C 63.6962 0.968964 -1.76673 0
M  V30 590 O 62.7522 1.75348 -1.81685 0
M  V30 591 C 64.0652 -1.36544 -2.67911 0
M  V30 592 C 65.6132 -1.36242 -2.81793 0
M  V30 593 C 66.0882 -2.2052 -4.01416 0
M  V30 594 N 67.5792 -2.18136 -4.08621 0
M  V30 595 C 68.3142 -2.80095 -5.00334 0
M  V30 596 N 67.8102 -3.51039 -5.9728 0
M  V30 597 N 69.6032 -2.69656 -4.93196 0
M  V30 598 H 61.7542 -1.77729 -1.16302 0
M  V30 599 H 64.0172 -0.757291 -0.570276 0
M  V30 600 H 63.7232 -2.41361 -2.55808 0
M  V30 601 H 63.5972 -1.02917 -3.62888 0
M  V30 602 H 65.9842 -0.322041 -2.93338 0
M  V30 603 H 66.0652 -1.73866 -1.87628 0
M  V30 604 H 65.7092 -3.24607 -3.90631 0
M  V30 605 H 65.6392 -1.80247 -4.94791 0
M  V30 606 H 68.1302 -1.6653 -3.39229 0
M  V30 607 H 68.4432 -3.95565 -6.63889 0
M  V30 608 H 66.7882 -3.55145 -5.97409 0
M  V30 609 H 69.9792 -2.13808 -4.16418 0
M  V30 610 H 70.1522 -3.1823 -5.64476 0
M  V30 611 N 63.5583 1.46682 -0.576371 0
M  V30 612 C 64.7833 2.07304 -0.0630475 0
M  V30 613 C 65.2083 1.42329 1.2298 0
M  V30 614 O 64.5663 0.504865 1.74129 0
M  V30 615 C 64.6143 3.60472 0.095895 0
M  V30 616 O 63.7183 3.95927 1.15394 0
M  V30 617 H 63.0593 0.661288 -0.0599463 0
M  V30 618 H 65.5893 1.88417 -0.797511 0
M  V30 619 H 65.5993 4.06865 0.304071 0
M  V30 620 H 64.2743 4.07157 -0.84828 0
M  V30 621 H 62.8513 3.61252 0.924724 0
M  V30 622 N 65.0364 0.313813 1.54444 0
M  V30 623 C 66.2834 -0.291675 2.00388 0
M  V30 624 C 66.6114 -1.52904 1.2021 0
M  V30 625 O 65.8664 -1.93833 0.269707 0
M  V30 626 C 66.1654 -0.680386 3.50864 0
M  V30 627 C 65.8314 0.456699 4.48581 0
M  V30 628 C 64.4934 0.768824 4.75018 0
M  V30 629 C 66.8454 1.22098 5.06697 0
M  V30 630 C 64.1734 1.84812 5.56831 0
M  V30 631 C 66.5254 2.29029 5.89685 0
M  V30 632 C 65.1894 2.60834 6.14428 0
M  V30 633 H 64.4594 -0.106732 0.733273 0
M  V30 634 H 67.1064 0.43557 1.86481 0
M  V30 635 H 65.4114 -1.48791 3.62448 0
M  V30 636 H 67.1084 -1.16026 3.83847 0
M  V30 637 H 63.6984 0.203337 4.28117 0
M  V30 638 H 67.8824 0.993096 4.86263 0
M  V30 639 H 63.1384 2.09912 5.74236 0
M  V30 640 H 67.3124 2.887 6.33739 0
M  V30 641 H 64.9394 3.44596 6.77612 0
M  V30 642 N 66.5145 -1.57545 0.0417849 0
M  V30 643 C 67.7915 -1.83642 -0.673433 0
M  V30 644 C 68.1715 -0.928298 -1.89594 0
M  V30 645 O 67.5195 0.0129955 -2.28496 0
M  V30 646 C 67.7295 -3.33155 -1.03964 0
M  V30 647 C 69.0775 -3.99941 -1.42592 0
M  V30 648 O 70.1015 -3.37725 -1.13226 0
M  V30 649 O 68.9605 -5.09619 -1.9736 0
M  V30 650 H 66.0545 -0.757638 -0.331533 0
M  V30 651 H 68.6005 -1.69554 0.070433 0
M  V30 652 H 67.3725 -3.9093 -0.170098 0
M  V30 653 H 66.9955 -3.52396 -1.84126 0
M  V30 654 N 67.9926 0.231505 -1.5589 0
M  V30 655 C 69.2386 0.95877 -1.78705 0
M  V30 656 C 69.5716 1.8438 -0.609725 0
M  V30 657 O 68.8466 1.90521 0.391426 0
M  V30 658 C 69.1296 1.8062 -3.11526 0
M  V30 659 C 68.9826 0.948328 -4.39689 0
M  V30 660 C 70.3016 2.78585 -3.40703 0
M  V30 661 H 67.4206 0.347129 -0.650131 0
M  V30 662 H 70.0626 0.228259 -1.88624 0
M  V30 663 H 68.2126 2.42902 -3.03201 0
M  V30 664 H 69.8846 0.343016 -4.60023 0
M  V30 665 H 68.1276 0.253314 -4.3306 0
M  V30 666 H 68.7986 1.57543 -5.29041 0
M  V30 667 H 71.2746 2.26439 -3.49091 0
M  V30 668 H 70.1506 3.34988 -4.34826 0
M  V30 669 H 70.4116 3.55825 -2.62375 0
M  V30 670 N 69.4707 1.49531 0.497807 0
M  V30 671 C 70.6987 1.62893 1.27567 0
M  V30 672 C 71.1137 0.301585 1.86376 0
M  V30 673 O 70.4707 -0.713335 1.67982 0
M  V30 674 C 70.5217 2.70013 2.40364 0
M  V30 675 O 70.2427 3.976 1.83972 0
M  V30 676 C 71.7437 2.94109 3.31685 0
M  V30 677 H 68.9637 0.548298 0.386794 0
M  V30 678 H 71.5077 1.95584 0.597245 0
M  V30 679 H 69.6627 2.40092 3.04031 0
M  V30 680 H 70.0767 4.56631 2.58047 0
M  V30 681 H 71.5507 3.72788 4.07104 0
M  V30 682 H 72.0277 2.04147 3.88871 0
M  V30 683 H 72.6337 3.2546 2.73781 0
M  V30 684 N 70.9488 -0.749086 1.3866 0
M  V30 685 C 72.1958 -1.50833 1.35114 0
M  V30 686 C 72.5238 -1.94415 -0.0574049 0
M  V30 687 O 71.7788 -1.66065 -1.03541 0
M  V30 688 C 72.0778 -2.7712 2.25697 0
M  V30 689 C 71.7438 -2.52477 3.73585 0
M  V30 690 C 70.4058 -2.45466 4.13884 0
M  V30 691 C 72.7578 -2.31066 4.67181 0
M  V30 692 C 70.0858 -2.15064 5.45861 0
M  V30 693 C 72.4378 -2.02183 5.9942 0
M  V30 694 C 71.1018 -1.93631 6.38798 0
M  V30 695 H 70.3718 -0.551936 0.494416 0
M  V30 696 H 73.0188 -0.860979 1.71054 0
M  V30 697 H 71.3238 -3.46528 1.82827 0
M  V30 698 H 73.0208 -3.35096 2.20254 0
M  V30 699 H 69.6108 -2.58807 3.41638 0
M  V30 700 H 73.7948 -2.35459 4.3689 0
M  V30 701 H 69.0508 -2.06954 5.75308 0
M  V30 702 H 73.2248 -1.8462 6.71482 0
M  V30 703 H 70.8518 -1.69839 7.40985 0
M  V30 704 N 72.4269 -1.23603 -0.977757 0
M  V30 705 C 73.7039 -0.977897 -1.69401 0
M  V30 706 C 74.0839 0.502738 -2.05026 0
M  V30 707 O 73.4319 1.47459 -1.74551 0
M  V30 708 C 73.6419 -1.89077 -2.93345 0
M  V30 709 C 74.9899 -2.15579 -3.65802 0
M  V30 710 O 76.0139 -1.86648 -3.03383 0
M  V30 711 O 74.8729 -2.64658 -4.78141 0
M  V30 712 H 71.9669 -0.369025 -0.740101 0
M  V30 713 H 74.5129 -1.34657 -1.03274 0
M  V30 714 H 73.2849 -2.89158 -2.63634 0
M  V30 715 H 72.9079 -1.52463 -3.67207 0
M  V30 716 N 73.905 1.17692 -1.04816 0
M  V30 717 C 75.151 1.88137 -0.75711 0
M  V30 718 C 75.484 1.80604 0.713841 0
M  V30 719 O 74.759 1.21146 1.52164 0
M  V30 720 C 75.042 3.38318 -1.2334 0
M  V30 721 C 74.895 3.54622 -2.76701 0
M  V30 722 C 76.214 4.32214 -0.829415 0
M  V30 723 H 73.333 0.683163 -0.27651 0
M  V30 724 H 75.975 1.38424 -1.30149 0
M  V30 725 H 74.125 3.80787 -0.770286 0
M  V30 726 H 75.797 3.21194 -3.31107 0
M  V30 727 H 74.04 2.97026 -3.16161 0
M  V30 728 H 74.711 4.60028 -3.05088 0
M  V30 729 H 77.187 3.97565 -1.22805 0
M  V30 730 H 76.063 5.35838 -1.19033 0
M  V30 731 H 76.324 4.41294 0.266891 0
M  V30 732 N 75.3831 0.828654 1.34056 0
M  V30 733 C 76.6311 0.41863 1.97717 0
M  V30 734 C 76.9521 -1.02314 1.66002 0
M  V30 735 O 76.2221 -1.71119 0.953683 0
M  V30 736 H 74.8021 0.151809 0.731412 0
M  V30 737 H 77.4641 1.05936 1.63596 0
M  V30 738 H 76.5601 0.542318 3.07352 0
M  V30 739 N 76.8612 -1.46375 0.584142 0
M  V30 740 C 78.1382 -1.956 0.0033388 0
M  V30 741 C 78.5182 -1.52679 -1.45782 0
M  V30 742 O 77.8662 -0.77816 -2.14842 0
M  V30 743 C 78.0762 -3.48551 0.176891 0
M  V30 744 C 79.4242 -4.24576 0.0454609 0
M  V30 745 O 80.4482 -3.56043 0.105801 0
M  V30 746 O 79.3072 -5.46427 -0.0890376 0
M  V30 747 H 76.4012 -0.825547 -0.0490066 0
M  V30 748 H 78.9472 -1.56652 0.65256 0
M  V30 749 H 77.7192 -3.72683 1.1926 0
M  V30 750 H 77.3422 -3.94332 -0.508695 0
M  V30 751 N 78.3393 -0.321999 -1.54275 0
M  V30 752 C 79.2493 0.553631 -2.27974 0
M  V30 753 C 80.2653 1.13054 -1.32268 0
M  V30 754 O 81.4413 1.15084 -1.6528 0
M  V30 755 C 78.5063 1.69927 -3.02201 0
M  V30 756 C 77.5673 1.15433 -4.1349 0
M  V30 757 C 76.8003 2.24537 -4.84168 0
M  V30 758 O 77.0233 3.44852 -4.5435 0
M  V30 759 O 75.9573 1.90044 -5.7111 0
M  V30 760 H 79.7833 -0.0448345 -3.03667 0
M  V30 761 H 77.3683 -0.0877418 -1.49142 0
M  V30 762 H 79.2503 2.3663 -3.48689 0
M  V30 763 H 77.9253 2.28395 -2.29385 0
M  V30 764 H 76.8323 0.452436 -3.71354 0
M  V30 765 H 78.1653 0.614805 -4.88345 0
M  V30 766 N 79.8174 1.5752 -0.0501392 0
M  V30 767 C 81.0474 1.96678 0.632573 0
M  V30 768 C 81.4554 0.926298 1.64974 0
M  V30 769 O 80.7984 -0.09802 1.83438 0
M  V30 770 C 80.8604 3.32068 1.37735 0
M  V30 771 C 80.5244 4.54076 0.516131 0
M  V30 772 C 81.5214 5.19445 -0.217357 0
M  V30 773 C 79.2064 5.00304 0.44736 0
M  V30 774 C 81.2004 6.29378 -1.00807 0
M  V30 775 C 78.8874 6.10114 -0.347038 0
M  V30 776 C 79.8854 6.74512 -1.07344 0
M  V30 777 O 79.5734 7.82211 -1.85477 0
M  V30 778 H 79.3054 0.652193 0.177821 0
M  V30 779 H 81.8594 2.05091 -0.112543 0
M  V30 780 H 80.0894 3.20206 2.16807 0
M  V30 781 H 81.7784 3.55981 1.95019 0
M  V30 782 H 82.5444 4.84689 -0.173688 0
M  V30 783 H 78.4234 4.49971 1.00235 0
M  V30 784 H 81.9674 6.79575 -1.57556 0
M  V30 785 H 77.8644 6.44307 -0.392349 0
M  V30 786 H 78.6324 7.98982 -1.77678 0
M  V30 787 N 81.2955 -0.223234 1.56011 0
M  V30 788 C 82.2055 -1.29766 1.95443 0
M  V30 789 C 83.2215 -1.51373 0.858028 0
M  V30 790 O 84.3975 -1.64536 1.16146 0
M  V30 791 C 81.4625 -2.62772 2.26167 0
M  V30 792 C 80.5235 -2.49482 3.49367 0
M  V30 793 C 79.7565 -3.76145 3.78616 0
M  V30 794 O 79.9795 -4.79087 3.09568 0
M  V30 795 O 78.9135 -3.73358 4.72109 0
M  V30 796 H 82.7395 -0.99309 2.87004 0
M  V30 797 H 80.3245 -0.425958 1.43199 0
M  V30 798 H 82.2065 -3.41327 2.47131 0
M  V30 799 H 80.8815 -2.92913 1.37781 0
M  V30 800 H 79.7885 -1.69133 3.33684 0
M  V30 801 H 81.1215 -2.2428 4.38131 0
M  V30 802 N 82.7736 -1.49793 -0.48987 0
M  V30 803 C 84.0226 -1.59085 -1.23995 0
M  V30 804 C 84.3356 -0.287907 -1.9347 0
M  V30 805 O 85.5416 -0.259506 -2.70257 0
M  V30 806 C 83.9976 -2.80736 -2.252 0
M  V30 807 C 83.6056 -4.17833 -1.61614 0
M  V30 808 C 85.3496 -2.99364 -3.00967 0
M  V30 809 C 83.2566 -5.30693 -2.60996 0
M  V30 810 H 82.1866 -0.592372 -0.466488 0
M  V30 811 H 84.8376 -1.76197 -0.51252 0
M  V30 812 H 83.2196 -2.57142 -3.01154 0
M  V30 813 H 84.3936 -4.51608 -0.915774 0
M  V30 814 H 82.7086 -4.04656 -0.981977 0
M  V30 815 H 85.3056 -3.80851 -3.75308 0
M  V30 816 H 85.6486 -2.10356 -3.59244 0
M  V30 817 H 86.1816 -3.2305 -2.32128 0
M  V30 818 H 82.9206 -6.21796 -2.07485 0
M  V30 819 H 82.4406 -5.01359 -3.2924 0
M  V30 820 H 84.1196 -5.6049 -3.23202 0
M  V30 821 N 84.2517 0.741722 -1.39055 0
M  V30 822 C 85.5007 1.49656 -1.35225 0
M  V30 823 C 85.8137 1.95533 0.0512708 0
M  V30 824 O 87.0197 2.7067 0.212138 0
M  V30 825 C 85.4757 2.70389 -2.37525 0
M  V30 826 C 85.0837 2.31489 -3.83558 0
M  V30 827 C 86.8277 3.48236 -2.42759 0
M  V30 828 C 84.7347 3.48903 -4.77515 0
M  V30 829 H 83.6647 0.56197 -0.502699 0
M  V30 830 H 86.3157 0.809727 -1.64668 0
M  V30 831 H 84.6977 3.41113 -2.01142 0
M  V30 832 H 85.8717 1.68354 -4.28945 0
M  V30 833 H 84.1867 1.66749 -3.81554 0
M  V30 834 H 86.7837 4.35558 -3.1015 0
M  V30 835 H 87.1267 3.90229 -1.45008 0
M  V30 836 H 87.6597 2.84535 -2.78002 0
M  V30 837 H 84.3987 3.11966 -5.76504 0
M  V30 838 H 83.9187 4.11041 -4.36813 0
M  V30 839 H 85.5977 4.15328 -4.96096 0
M  V30 840 N 85.7298 1.2412 0.971189 0
M  V30 841 C 86.6398 1.04747 2.09917 0
M  V30 842 C 87.6558 -0.0107162 1.73997 0
M  V30 843 O 88.8318 0.186714 2.00533 0
M  V30 844 C 85.8968 0.650828 3.40537 0
M  V30 845 C 84.9578 1.7851 3.90426 0
M  V30 846 C 84.1908 1.40729 5.14812 0
M  V30 847 O 84.4138 0.29557 5.69634 0
M  V30 848 O 83.3478 2.23168 5.58999 0
M  V30 849 H 87.1738 1.99304 2.29154 0
M  V30 850 H 84.7588 1.02908 1.08307 0
M  V30 851 H 86.6408 0.440992 4.19086 0
M  V30 852 H 85.3158 -0.265649 3.22608 0
M  V30 853 H 84.2228 2.04966 3.12953 0
M  V30 854 H 85.5558 2.68023 4.12825 0
M  V30 855 N 87.2079 -1.17134 1.05439 0
M  V30 856 C 88.4359 -1.91372 0.786414 0
M  V30 857 C 88.8509 -1.76955 -0.658202 0
M  V30 858 O 88.2079 -1.10838 -1.44987 0
M  V30 859 C 88.2589 -3.42356 1.1608 0
M  V30 860 O 87.9799 -3.56332 2.54871 0
M  V30 861 C 89.4809 -4.33663 0.919322 0
M  V30 862 H 86.7009 -0.607118 0.285743 0
M  V30 863 H 89.2449 -1.48525 1.40572 0
M  V30 864 H 87.3999 -3.82939 0.586191 0
M  V30 865 H 87.8139 -4.49896 2.69618 0
M  V30 866 H 89.2879 -5.38099 1.231 0
M  V30 867 H 89.7649 -4.38959 -0.145359 0
M  V30 868 H 90.3709 -3.98796 1.47789 0
M  V30 869 N 88.686 -0.835752 -1.33615 0
M  V30 870 C 89.935 -0.426289 -1.97144 0
M  V30 871 C 90.248 1.01912 -1.66953 0
M  V30 872 O 91.454 1.53311 -2.24072 0
M  V30 873 C 89.91 -0.711321 -3.52801 0
M  V30 874 C 89.518 -2.1712 -3.91871 0
M  V30 875 C 91.262 -0.368654 -4.22896 0
M  V30 876 C 89.169 -2.40044 -5.40493 0
M  V30 877 H 88.099 -0.15567 -0.737755 0
M  V30 878 H 90.75 -1.0239 -1.52278 0
M  V30 879 H 89.132 -0.0433766 -3.95976 0
M  V30 880 H 90.306 -2.87936 -3.59763 0
M  V30 881 H 88.621 -2.47654 -3.34749 0
M  V30 882 H 91.218 -0.517601 -5.32189 0
M  V30 883 H 91.561 0.688078 -4.10574 0
M  V30 884 H 92.094 -0.991702 -3.8524 0
M  V30 885 H 88.833 -3.44271 -5.57815 0
M  V30 886 H 88.353 -1.73785 -5.74072 0
M  V30 887 H 90.032 -2.23042 -6.0734 0
M  V30 888 N 90.1641 1.46063 -0.591896 0
M  V30 889 C 91.4121 2.01938 -0.0808391 0
M  V30 890 C 91.7331 1.46475 1.28725 0
M  V30 891 O 91.0031 0.652944 1.84698 0
M  V30 892 H 89.5831 0.746516 -0.0268938 0
M  V30 893 H 92.2451 1.79055 -0.769752 0
M  V30 894 H 91.3411 3.12094 -0.0187578 0
M  V30 895 N 91.6422 0.330177 1.54103 0
M  V30 896 C 92.5902 -0.548226 2.26047 0
M  V30 897 C 93.5842 -1.11309 1.27698 0
M  V30 898 O 94.7902 -1.06036 1.45452 0
M  V30 899 H 91.1652 -0.195456 0.726155 0
M  V30 900 H 93.1362 0.0807567 2.98291 0
M  V30 901 C 91.8852 -1.69415 3.03634 0
M  V30 902 H 91.2082 -1.26876 3.79134 0
M  V30 903 H 92.6482 -2.28423 3.5721 0
M  V30 904 C 91.1072 -2.61569 2.12328 0
M  V30 905 O 91.6372 -3.63462 1.7105 0
M  V30 906 N 89.8432 -2.29952 1.77681 0
M  V30 907 H 89.3902 -1.47134 2.11446 0
M  V30 908 H 89.3482 -2.91871 1.16869 0
M  V30 909 N 93.1203 -1.57491 0.0584922 0
M  V30 910 C 94.3683 -1.92597 -0.612436 0
M  V30 911 C 94.6893 -0.938162 -1.70949 0
M  V30 912 O 93.9593 0.0158301 -1.95894 0
M  V30 913 H 92.5393 -0.710964 -0.229214 0
M  V30 914 H 95.2013 -1.94571 0.113218 0
M  V30 915 H 94.2973 -2.94038 -1.04633 0
M  V30 916 N 94.5984 0.214957 -1.56127 0
M  V30 917 C 95.5614 1.24997 -1.92116 0
M  V30 918 C 96.5614 1.39467 -0.800344 0
M  V30 919 O 97.7514 1.37619 -1.06802 0
M  V30 920 C 94.8834 2.62271 -2.17777 0
M  V30 921 H 96.0764 0.942875 -2.84693 0
M  V30 922 H 93.6294 0.455654 -1.49511 0
M  V30 923 H 94.3644 2.98068 -1.27773 0
M  V30 924 H 94.1494 2.53143 -2.99434 0
M  V30 925 H 95.6394 3.36946 -2.46693 0
M  V30 926 N 96.0765 1.50051 0.48192 0
M  V30 927 C 97.3065 1.63999 1.2565 0
M  V30 928 C 97.7145 0.318288 1.86504 0
M  V30 929 O 97.0575 -0.708534 1.69486 0
M  V30 930 C 97.1195 2.66504 2.4128 0
M  V30 931 C 96.7835 4.10352 2.01148 0
M  V30 932 C 97.7805 4.96562 1.54021 0
M  V30 933 C 95.4655 4.56203 2.10199 0
M  V30 934 C 97.4595 6.26668 1.16473 0
M  V30 935 C 95.1465 5.86318 1.72264 0
M  V30 936 C 96.1445 6.71375 1.25477 0
M  V30 937 O 95.8325 7.99062 0.880626 0
M  V30 938 H 95.5645 0.55456 0.386574 0
M  V30 939 H 98.1185 1.96954 0.582944 0
M  V30 940 H 96.3485 2.28769 3.11772 0
M  V30 941 H 98.0375 2.69783 3.03268 0
M  V30 942 H 98.8035 4.62358 1.46458 0
M  V30 943 H 94.6825 3.90152 2.45566 0
M  V30 944 H 98.2265 6.93011 0.798841 0
M  V30 945 H 94.1235 6.20046 1.79482 0
M  V30 946 H 94.8915 8.12239 1.01043 0
M  V30 947 N 97.5546 -0.734337 1.39446 0
M  V30 948 C 98.8026 -1.49096 1.36436 0
M  V30 949 C 99.1236 -1.94961 -0.0388255 0
M  V30 950 O 98.3936 -1.69033 -0.990191 0
M  V30 951 H 96.9736 -0.5531 0.502085 0
M  V30 952 H 99.6356 -0.871725 1.74319 0
M  V30 953 H 98.7316 -2.37276 2.02747 0
M  V30 954 N 99.0327 -1.24633 -0.964593 0
M  V30 955 C 100.279 -1.08949 -1.71049 0
M  V30 956 C 100.612 0.370302 -1.90637 0
M  V30 957 O 99.8867 1.27349 -1.47011 0
M  V30 958 C 100.17 -1.83329 -3.0994 0
M  V30 959 C 100.023 -3.37077 -2.97824 0
M  V30 960 C 101.342 -1.60846 -4.09654 0
M  V30 961 H 98.4607 -0.397178 -0.620821 0
M  V30 962 H 101.103 -1.5334 -1.12191 0
M  V30 963 H 99.2527 -1.45597 -3.60186 0
M  V30 964 H 100.925 -3.84425 -2.5498 0
M  V30 965 H 99.1677 -3.65298 -2.33965 0
M  V30 966 H 99.8387 -3.84324 -3.96231 0
M  V30 967 H 102.315 -1.93674 -3.68279 0
M  V30 968 H 101.191 -2.1534 -5.04896 0
M  V30 969 H 101.452 -0.547434 -4.38698 0
M  V30 970 N 100.511 1.16574 -1.06058 0
M  V30 971 C 101.757 1.87324 -0.777022 0
M  V30 972 C 102.09 1.81351 0.694645 0
M  V30 973 O 101.365 1.22753 1.50871 0
M  V30 974 C 101.648 3.36991 -1.26922 0
M  V30 975 C 101.501 3.51667 -2.80447 0
M  V30 976 C 102.82 4.3131 -0.87521 0
M  V30 977 H 99.9388 0.680191 -0.28374 0
M  V30 978 H 102.581 1.37036 -1.3161 0
M  V30 979 H 100.731 3.79949 -0.81063 0
M  V30 980 H 102.403 3.17664 -3.34495 0
M  V30 981 H 100.646 2.93656 -3.19294 0
M  V30 982 H 101.317 4.56766 -3.0995 0
M  V30 983 H 103.793 3.9624 -1.27014 0
M  V30 984 H 102.669 5.34545 -1.2471 0
M  V30 985 H 102.93 4.41552 0.220071 0
M  V30 986 N 101.989 0.842826 1.3317 0
M  V30 987 C 103.214 0.453129 2.02389 0
M  V30 988 C 103.639 -0.939105 1.6298 0
M  V30 989 O 102.997 -1.61472 0.8244 0
M  V30 990 C 103.045 0.586094 3.55805 0
M  V30 991 O 102.149 -0.386029 4.10589 0
M  V30 992 H 101.49 0.183664 0.638094 0
M  V30 993 H 104.02 1.13875 1.69981 0
M  V30 994 H 104.03 0.469209 4.05293 0
M  V30 995 H 102.705 1.6014 3.83833 0
M  V30 996 H 101.282 -0.226371 3.72212 0
M  V30 997 N 103.467 -1.45747 0.599634 0
M  V30 998 C 104.692 -2.07178 0.0960198 0
M  V30 999 C 105.117 -1.44268 -1.207 0
M  V30 1000 O 104.475 -0.532503 -1.73303 0
M  V30 1001 C 104.523 -3.60579 -0.0385348 0
M  V30 1002 O 103.627 -3.97713 -1.0908 0
M  V30 1003 H 102.968 -0.660251 0.0704593 0
M  V30 1004 H 105.498 -1.87124 0.827385 0
M  V30 1005 H 105.508 -4.07298 -0.239304 0
M  V30 1006 H 104.183 -4.05756 0.912947 0
M  V30 1007 H 102.76 -3.62678 -0.867135 0
M  V30 1008 N 104.945 -0.338344 -1.53925 0
M  V30 1009 C 105.908 0.508299 -2.23493 0
M  V30 1010 C 106.908 1.03175 -1.23335 0
M  V30 1011 O 108.098 0.921826 -1.47811 0
M  V30 1012 C 105.23 1.70754 -2.95052 0
M  V30 1013 H 106.423 -0.100058 -2.99733 0
M  V30 1014 H 103.976 -0.0896198 -1.56043 0
M  V30 1015 H 104.711 2.35474 -2.22986 0
M  V30 1016 H 104.496 1.33946 -3.68512 0
M  V30 1017 H 105.986 2.30818 -3.48013 0
M  V30 1018 N 106.423 1.57458 -0.0668435 0
M  V30 1019 C 107.839 1.56947 0.289772 0
M  V30 1020 C 108.039 1.07584 1.70376 0
M  V30 1021 O 107.095 0.739486 2.41429 0
M  V30 1022 C 108.408 3.0052 0.103943 0
M  V30 1023 C 109.956 3.12517 0.173857 0
M  V30 1024 C 110.431 4.57997 0.0163682 0
M  V30 1025 N 111.922 4.63144 0.0721352 0
M  V30 1026 C 112.657 5.73394 -0.0253794 0
M  V30 1027 N 112.153 6.92576 -0.176133 0
M  V30 1028 N 113.946 5.62091 0.0313305 0
M  V30 1029 H 106.097 1.87863 -0.991027 0
M  V30 1030 H 108.36 0.86583 -0.38606 0
M  V30 1031 H 108.066 3.40729 -0.871572 0
M  V30 1032 H 107.94 3.67304 0.858366 0
M  V30 1033 H 110.327 2.72197 1.13985 0
M  V30 1034 H 110.408 2.48381 -0.611586 0
M  V30 1035 H 110.052 4.99005 -0.946374 0
M  V30 1036 H 109.982 5.20158 0.821153 0
M  V30 1037 H 112.473 3.77436 0.187263 0
M  V30 1038 H 112.786 7.72418 -0.242821 0
M  V30 1039 H 111.131 6.94678 -0.211429 0
M  V30 1040 H 114.322 4.67867 0.147773 0
M  V30 1041 H 114.495 6.47982 -0.048121 0
M  V30 1042 N 107.901 -0.206675 1.56239 0
M  V30 1043 C 109.317 -0.557025 1.49564 0
M  V30 1044 C 109.517 -1.86424 0.764735 0
M  V30 1045 O 108.573 -2.50584 0.310491 0
M  V30 1046 C 109.886 -0.622478 2.94186 0
M  V30 1047 C 111.434 -0.712099 3.04792 0
M  V30 1048 C 111.909 -0.808767 4.50803 0
M  V30 1049 N 113.4 -0.8726 4.54907 0
M  V30 1050 C 114.135 -0.967365 5.65181 0
M  V30 1051 N 113.631 -1.02515 6.85173 0
M  V30 1052 N 115.424 -1.00366 5.53067 0
M  V30 1053 H 107.575 0.650943 2.02179 0
M  V30 1054 H 109.838 0.230387 0.919579 0
M  V30 1055 H 109.544 0.268727 3.50672 0
M  V30 1056 H 109.418 -1.4811 3.46905 0
M  V30 1057 H 111.805 -1.59374 2.48363 0
M  V30 1058 H 111.886 0.172489 2.55218 0
M  V30 1059 H 111.53 0.0684754 5.07854 0
M  V30 1060 H 111.46 -1.70899 4.98098 0
M  V30 1061 H 113.951 -0.837657 3.68499 0
M  V30 1062 H 114.264 -1.09765 7.64965 0
M  V30 1063 H 112.609 -0.994026 6.87855 0
M  V30 1064 H 115.8 -0.95527 4.58249 0
M  V30 1065 H 115.973 -1.07405 6.39037 0
M  V30 1066 N 109.379 -1.50304 -0.473955 0
M  V30 1067 C 110.795 -1.37667 -0.807466 0
M  V30 1068 C 110.995 -0.430555 -1.96846 0
M  V30 1069 O 110.051 0.127874 -2.52176 0
M  V30 1070 C 111.364 -2.78974 -1.12223 0
M  V30 1071 C 112.912 -2.87868 -1.22885 0
M  V30 1072 C 113.387 -4.30003 -1.57676 0
M  V30 1073 N 114.878 -4.3294 -1.64673 0
M  V30 1074 C 115.613 -5.3991 -1.93091 0
M  V30 1075 N 115.109 -6.57092 -2.1955 0
M  V30 1076 N 116.902 -5.27351 -1.94569 0
M  V30 1077 H 109.053 -2.10394 0.291212 0
M  V30 1078 H 111.316 -0.945575 0.0677609 0
M  V30 1079 H 111.022 -3.50031 -0.342229 0
M  V30 1080 H 110.896 -3.16038 -2.05913 0
M  V30 1081 H 113.283 -2.17032 -1.99953 0
M  V30 1082 H 113.364 -2.54352 -0.271814 0
M  V30 1083 H 113.008 -5.01375 -0.81149 0
M  V30 1084 H 112.938 -4.61004 -2.54525 0
M  V30 1085 H 115.429 -3.48441 -1.46277 0
M  V30 1086 H 115.742 -7.34425 -2.405 0
M  V30 1087 H 114.087 -6.60272 -2.16948 0
M  V30 1088 H 117.278 -4.34801 -1.73394 0
M  V30 1089 H 117.451 -6.10805 -2.16381 0
M  V30 1090 N 110.857 0.726932 -1.39834 0
M  V30 1091 C 111.787 1.85405 -1.41941 0
M  V30 1092 C 112.768 1.67751 -0.281728 0
M  V30 1093 O 113.953 1.8795 -0.488717 0
M  V30 1094 C 111.083 3.23243 -1.2701 0
M  V30 1095 C 110.037 3.55549 -2.38262 0
M  V30 1096 C 109.363 4.9241 -2.08415 0
M  V30 1097 C 110.663 3.577 -3.80589 0
M  V30 1098 H 112.357 1.83899 -2.36266 0
M  V30 1099 H 109.903 0.883349 -1.13723 0
M  V30 1100 H 111.856 4.01775 -1.27103 0
M  V30 1101 H 110.58 3.25296 -0.291564 0
M  V30 1102 H 109.239 2.79351 -2.37399 0
M  V30 1103 H 108.887 4.91052 -1.0898 0
M  V30 1104 H 108.587 5.14992 -2.82943 0
M  V30 1105 H 110.111 5.73289 -2.10171 0
M  V30 1106 H 111.525 4.26293 -3.83337 0
M  V30 1107 H 109.922 3.91804 -4.54543 0
M  V30 1108 H 110.992 2.57328 -4.10987 0
M  V30 1109 N 112.336 1.25143 0.95797 0
M  V30 1110 C 113.564 1.12424 1.73691 0
M  V30 1111 C 113.979 -0.322304 1.86029 0
M  V30 1112 O 113.336 -1.22186 1.35561 0
M  V30 1113 C 113.387 1.76933 3.15241 0
M  V30 1114 O 113.108 3.15932 3.03511 0
M  V30 1115 C 114.609 1.6995 4.09429 0
M  V30 1116 H 111.829 0.3923 0.544373 0
M  V30 1117 H 114.373 1.6544 1.20207 0
M  V30 1118 H 112.528 1.27895 3.6568 0
M  V30 1119 H 112.942 3.47598 3.9278 0
M  V30 1120 H 114.416 2.19753 5.06372 0
M  V30 1121 H 114.893 0.662619 4.34173 0
M  V30 1122 H 115.499 2.18461 3.64904 0
M  V30 1123 N 113.814 -1.1601 1.06675 0
M  V30 1124 C 115.062 -1.86264 0.784229 0
M  V30 1125 C 115.383 -1.82328 -0.691488 0
M  V30 1126 O 114.653 -1.25947 -1.50047 0
M  V30 1127 H 113.233 -0.689621 0.28711 0
M  V30 1128 H 115.895 -1.40664 1.34906 0
M  V30 1129 H 114.991 -2.91595 1.11259 0
M  V30 1130 N 115.292 -0.849877 -1.32721 0
M  V30 1131 C 116.224 -0.248332 -2.27851 0
M  V30 1132 C 117.237 0.577218 -1.52224 0
M  V30 1133 O 118.426 0.402489 -1.73903 0
M  V30 1134 C 115.526 0.668107 -3.32249 0
M  V30 1135 C 114.699 -0.120534 -4.37234 0
M  V30 1136 C 113.758 0.720932 -5.21238 0
M  V30 1137 O 112.784 0.156166 -5.68986 0
M  V30 1138 N 113.986 2.03647 -5.43607 0
M  V30 1139 H 116.751 -1.06575 -2.80111 0
M  V30 1140 H 114.312 -0.709395 -1.45531 0
M  V30 1141 H 116.304 1.23627 -3.85355 0
M  V30 1142 H 114.874 1.38621 -2.80184 0
M  V30 1143 H 114.094 -0.870108 -3.84477 0
M  V30 1144 H 115.382 -0.662406 -5.0447 0
M  V30 1145 H 114.78 2.51871 -5.06535 0
M  V30 1146 H 113.337 2.55287 -5.99727 0
M  V30 1147 N 116.77 1.45427 -0.607355 0
M  V30 1148 C 117.702 2.2871 0.149752 0
M  V30 1149 C 118.715 1.39937 0.831958 0
M  V30 1150 O 119.904 1.64313 0.697385 0
M  V30 1151 C 117.004 3.15673 1.23304 0
M  V30 1152 C 116.177 4.32722 0.637996 0
M  V30 1153 C 115.236 5.00895 1.61215 0
M  V30 1154 O 114.262 5.57697 1.13854 0
M  V30 1155 N 115.464 5.00159 2.94655 0
M  V30 1156 H 118.229 2.94328 -0.564882 0
M  V30 1157 H 115.79 1.55612 -0.446823 0
M  V30 1158 H 117.782 3.58144 1.88454 0
M  V30 1159 H 116.352 2.51965 1.8502 0
M  V30 1160 H 115.572 3.93734 -0.191572 0
M  V30 1161 H 116.86 5.08321 0.220665 0
M  V30 1162 H 116.258 4.553 3.35735 0
M  V30 1163 H 114.815 5.46495 3.55228 0
M  V30 1164 N 118.248 0.346503 1.53744 0
M  V30 1165 C 119.494 -0.249473 2.0126 0
M  V30 1166 C 119.827 -1.49965 1.23386 0
M  V30 1167 O 119.102 -1.91811 0.32229 0
M  V30 1168 C 119.385 -0.560643 3.55709 0
M  V30 1169 C 119.238 0.701836 4.44291 0
M  V30 1170 C 120.557 -1.36905 4.18264 0
M  V30 1171 H 117.676 -0.0891987 0.731582 0
M  V30 1172 H 120.318 0.467624 1.84156 0
M  V30 1173 H 118.468 -1.17156 3.70414 0
M  V30 1174 H 120.14 1.33974 4.41417 0
M  V30 1175 H 118.383 1.32612 4.13033 0
M  V30 1176 H 119.054 0.43933 5.50249 0
M  V30 1177 H 121.53 -0.852448 4.07275 0
M  V30 1178 H 120.406 -1.55553 5.26398 0
M  V30 1179 H 120.667 -2.37203 3.73078 0
M  V30 1180 N 119.726 -1.57421 0.075193 0
M  V30 1181 C 120.689 -2.11791 -0.876203 0
M  V30 1182 C 121.689 -1.04268 -1.22412 0
M  V30 1183 O 122.879 -1.30242 -1.15684 0
M  V30 1184 C 120.011 -2.62207 -2.17854 0
M  V30 1185 H 121.204 -2.9716 -0.40444 0
M  V30 1186 H 118.757 -1.55333 -0.173557 0
M  V30 1187 H 119.492 -1.803 -2.6956 0
M  V30 1188 H 119.277 -3.40802 -1.93897 0
M  V30 1189 H 120.767 -3.04335 -2.85955 0
M  V30 1190 N 121.204 0.198386 -1.56346 0
M  V30 1191 C 122.453 0.917451 -1.79627 0
M  V30 1192 C 122.766 1.8456 -0.64784 0
M  V30 1193 O 123.972 2.60504 -0.764859 0
M  V30 1194 C 122.428 1.68175 -3.18191 0
M  V30 1195 C 122.036 0.798589 -4.40825 0
M  V30 1196 C 123.78 2.39065 -3.50782 0
M  V30 1197 C 121.687 1.56157 -5.70411 0
M  V30 1198 H 120.617 0.346317 -0.669762 0
M  V30 1199 H 123.268 0.170801 -1.82703 0
M  V30 1200 H 121.65 2.47216 -3.09354 0
M  V30 1201 H 122.824 0.0470665 -4.60776 0
M  V30 1202 H 121.139 0.200686 -4.15916 0
M  V30 1203 H 123.736 2.96692 -4.44835 0
M  V30 1204 H 124.079 3.13091 -2.74371 0
M  V30 1205 H 124.612 1.66993 -3.61052 0
M  V30 1206 H 121.351 0.864142 -6.49779 0
M  V30 1207 H 120.871 2.2871 -5.54483 0
M  V30 1208 H 122.55 2.11622 -6.11412 0
M  V30 1209 N 122.682 1.50554 0.465978 0
M  V30 1210 C 123.629 1.6979 1.56333 0
M  V30 1211 C 124.599 0.539239 1.57103 0
M  V30 1212 O 125.784 0.770401 1.74555 0
M  V30 1213 C 122.924 1.80273 2.94271 0
M  V30 1214 C 122.037 3.07674 3.0325 0
M  V30 1215 C 121.172 3.08922 4.32135 0
M  V30 1216 C 120.211 4.30755 4.34875 0
M  V30 1217 N 119.348 4.29714 5.55239 0
M  V30 1218 H 124.188 2.63472 1.39235 0
M  V30 1219 H 121.725 1.30602 0.676873 0
M  V30 1220 H 123.683 1.84332 3.74269 0
M  V30 1221 H 122.313 0.900258 3.09992 0
M  V30 1222 H 121.365 3.13062 2.16094 0
M  V30 1223 H 122.677 3.97642 3.01135 0
M  V30 1224 H 121.831 3.11738 5.20485 0
M  V30 1225 H 120.57 2.16792 4.36866 0
M  V30 1226 H 119.575 4.28146 3.44922 0
M  V30 1227 H 120.8 5.24117 4.31831 0
M  V30 1228 H 118.746 3.4044 5.60746 0
M  V30 1229 H 118.663 5.13456 5.54886 0
M  V30 1230 H 119.931 4.36683 6.457 0
M  V30 1231 N 124.16 -0.719506 1.40217 0
M  V30 1232 C 125.107 -1.83359 1.40172 0
M  V30 1233 C 126.077 -1.64065 0.259206 0
M  V30 1234 O 127.262 -1.85254 0.456677 0
M  V30 1235 C 124.402 -3.2103 1.26624 0
M  V30 1236 C 123.515 -3.51923 2.50548 0
M  V30 1237 C 122.65 -4.79079 2.29471 0
M  V30 1238 C 121.689 -5.02863 3.48992 0
M  V30 1239 N 120.826 -6.2123 3.27135 0
M  V30 1240 H 125.666 -1.82733 2.35399 0
M  V30 1241 H 123.203 -0.892688 1.16917 0
M  V30 1242 H 125.161 -4.00524 1.16776 0
M  V30 1243 H 123.791 -3.20895 0.350176 0
M  V30 1244 H 122.843 -2.67014 2.70939 0
M  V30 1245 H 124.155 -3.6541 3.39525 0
M  V30 1246 H 123.309 -5.66582 2.16955 0
M  V30 1247 H 122.048 -4.67794 1.37913 0
M  V30 1248 H 121.053 -4.13816 3.6199 0
M  V30 1249 H 122.278 -5.16023 4.41472 0
M  V30 1250 H 120.224 -6.11204 2.38256 0
M  V30 1251 H 120.141 -6.35375 4.09675 0
M  V30 1252 H 121.409 -7.11532 3.18344 0
M  V30 1253 N 125.638 -1.25649 -0.95132 0
M  V30 1254 C 126.887 -1.09988 -1.69073 0
M  V30 1255 C 127.2 0.358355 -1.92289 0
M  V30 1256 O 128.406 0.635466 -2.63958 0
M  V30 1257 C 126.862 -1.92012 -3.044 0
M  V30 1258 C 126.47 -3.42347 -2.88968 0
M  V30 1259 C 128.214 -1.8493 -3.82101 0
M  V30 1260 C 126.121 -4.16655 -4.19705 0
M  V30 1261 H 125.051 -0.407993 -0.63408 0
M  V30 1262 H 127.702 -1.49873 -1.05879 0
M  V30 1263 H 126.084 -1.44952 -3.68517 0
M  V30 1264 H 127.258 -3.97104 -2.33762 0
M  V30 1265 H 125.573 -3.50557 -2.24719 0
M  V30 1266 H 128.17 -2.37739 -4.78941 0
M  V30 1267 H 128.513 -0.817883 -4.08187 0
M  V30 1268 H 129.046 -2.29758 -3.2474 0
M  V30 1269 H 125.785 -5.20224 -3.98807 0
M  V30 1270 H 125.305 -3.66681 -4.74663 0
M  V30 1271 H 126.984 -4.24551 -4.88227 0
M  V30 1272 N 127.117 1.15442 -1.07289 0
M  V30 1273 C 128.528 1.67803 -0.818475 0
M  V30 1274 C 128.879 1.8489 0.656507 0
M  V30 1275 O 128.004 1.55176 1.50829 0
M  V30 1276 C 128.599 3.04805 -1.47917 0
M  V30 1277 C 127.158 3.54245 -1.27229 0
M  V30 1278 C 126.305 2.29986 -1.54925 0
M  V30 1279 H 129.256 0.996646 -1.23502 0
M  V30 1280 H 129.277 3.69702 -0.90005 0
M  V30 1281 H 128.789 2.92336 -2.55267 0
M  V30 1282 H 126.89 3.71956 -0.21899 0
M  V30 1283 H 127.003 4.35723 -1.99203 0
M  V30 1284 H 125.367 2.35496 -0.970242 0
M  V30 1285 H 126.15 2.20105 -2.63455 0
M  V30 1286 N 128.595 0.856903 1.32268 0
M  V30 1287 C 129.543 0.291987 2.3076 0
M  V30 1288 C 130.537 -0.585857 1.58947 0
M  V30 1289 O 131.743 -0.47341 1.73663 0
M  V30 1290 H 128.118 0.075721 0.748178 0
M  V30 1291 H 130.089 1.13687 2.75895 0
M  V30 1292 C 128.838 -0.502869 3.44044 0
M  V30 1293 H 128.161 0.163328 3.99466 0
M  V30 1294 H 129.601 -0.863691 4.1511 0
M  V30 1295 C 128.06 -1.68898 2.91505 0
M  V30 1296 O 128.59 -2.78811 2.89184 0
M  V30 1297 N 126.796 -1.51679 2.47875 0
M  V30 1298 H 126.343 -0.622666 2.49961 0
M  V30 1299 H 126.301 -2.31184 2.13076 0
M  V30 1300 N 130.073 -1.45103 0.615059 0
M  V30 1301 C 131.036 -2.29025 -0.0895485 0
M  V30 1302 C 132.036 -1.40174 -0.787906 0
M  V30 1303 O 133.226 -1.62217 -0.634933 0
M  V30 1304 C 130.358 -3.21376 -1.13711 0
M  V30 1305 H 131.551 -2.92807 0.648382 0
M  V30 1306 H 129.104 -1.51749 0.374444 0
M  V30 1307 H 129.839 -2.6241 -1.90556 0
M  V30 1308 H 129.624 -3.86834 -0.640475 0
M  V30 1309 H 131.114 -3.84459 -1.63036 0
M  V30 1310 N 131.551 -0.354651 -1.53558 0
M  V30 1311 C 132.798 0.238443 -2.01091 0
M  V30 1312 C 133.126 1.49663 -1.24222 0
M  V30 1313 O 132.381 1.93049 -0.321003 0
M  V30 1314 C 132.68 0.587121 -3.52545 0
M  V30 1315 C 132.346 -0.575472 -4.47213 0
M  V30 1316 C 131.008 -0.894497 -4.72813 0
M  V30 1317 C 133.36 -1.35489 -5.03281 0
M  V30 1318 C 130.688 -1.99511 -5.51736 0
M  V30 1319 C 133.04 -2.44583 -5.83405 0
M  V30 1320 C 131.704 -2.77033 -6.07296 0
M  V30 1321 H 130.974 0.0872526 -0.735845 0
M  V30 1322 H 133.621 -0.484859 -1.8526 0
M  V30 1323 H 131.926 1.39129 -3.66265 0
M  V30 1324 H 133.623 1.05809 -3.86789 0
M  V30 1325 H 130.213 -0.316774 -4.27428 0
M  V30 1326 H 134.397 -1.12167 -4.83459 0
M  V30 1327 H 129.653 -2.25063 -5.68469 0
M  V30 1328 H 133.827 -3.05401 -6.25862 0
M  V30 1329 H 131.454 -3.6244 -6.68237 0
M  V30 1330 N 133.029 1.57378 -0.0835403 0
M  V30 1331 C 134.306 1.85363 0.624507 0
M  V30 1332 C 134.686 0.978239 1.87066 0
M  V30 1333 O 134.034 0.0475908 2.2845 0
M  V30 1334 C 134.244 3.35795 0.950947 0
M  V30 1335 C 135.592 4.03581 1.31939 0
M  V30 1336 O 136.616 3.40609 1.04232 0
M  V30 1337 O 135.475 5.14672 1.83779 0
M  V30 1338 H 132.569 0.766162 0.311329 0
M  V30 1339 H 135.115 1.69307 -0.115362 0
M  V30 1340 H 133.887 3.91244 0.0663899 0
M  V30 1341 H 133.51 3.57154 1.74719 0
M  V30 1342 N 134.507 -0.190092 1.56449 0
M  V30 1343 C 135.753 -0.911052 1.81184 0
M  V30 1344 C 136.086 -1.82699 0.658396 0
M  V30 1345 O 135.361 -1.91491 -0.340775 0
M  V30 1346 C 135.644 -1.72297 3.16205 0
M  V30 1347 C 135.497 -0.831419 4.42049 0
M  V30 1348 C 136.816 -2.69454 3.47969 0
M  V30 1349 H 133.935 -0.32977 0.659106 0
M  V30 1350 H 136.577 -0.178169 1.89163 0
M  V30 1351 H 134.727 -2.34778 3.09534 0
M  V30 1352 H 136.399 -0.220929 4.60771 0
M  V30 1353 H 134.642 -0.138406 4.33579 0
M  V30 1354 H 135.313 -1.43461 5.33032 0
M  V30 1355 H 137.789 -2.17104 3.54972 0
M  V30 1356 H 136.665 -3.23342 4.43555 0
M  V30 1357 H 136.926 -3.48744 2.71717 0
M  V30 1358 N 135.985 -1.50799 -0.457987 0
M  V30 1359 C 137.231 -1.62683 -1.21088 0
M  V30 1360 C 137.564 -0.332268 -1.91336 0
M  V30 1361 O 136.839 0.667043 -1.82704 0
M  V30 1362 C 137.122 -2.81615 -2.24422 0
M  V30 1363 C 136.975 -4.20989 -1.58392 0
M  V30 1364 C 138.294 -2.96085 -3.2561 0
M  V30 1365 H 135.413 -0.592087 -0.438864 0
M  V30 1366 H 138.055 -1.83225 -0.50286 0
M  V30 1367 H 136.205 -2.64231 -2.84806 0
M  V30 1368 H 137.877 -4.49994 -1.01504 0
M  V30 1369 H 136.12 -4.24641 -0.886704 0
M  V30 1370 H 136.791 -5.0016 -2.33547 0
M  V30 1371 H 139.267 -3.12042 -2.75262 0
M  V30 1372 H 138.143 -3.80902 -3.95228 0
M  V30 1373 H 138.404 -2.0726 -3.90507 0
M  V30 1374 N 137.463 0.71206 -1.40597 0
M  V30 1375 C 138.691 1.50111 -1.42388 0
M  V30 1376 C 139.106 1.88784 -0.0245395 0
M  V30 1377 O 138.463 1.55681 0.952351 0
M  V30 1378 C 138.514 2.7742 -2.31776 0
M  V30 1379 O 138.235 2.40382 -3.66262 0
M  V30 1380 C 139.736 3.7129 -2.42196 0
M  V30 1381 H 136.956 0.46314 -0.485533 0
M  V30 1382 H 139.5 0.878068 -1.8469 0
M  V30 1383 H 137.655 3.36001 -1.92827 0
M  V30 1384 H 138.069 3.22324 -4.13772 0
M  V30 1385 H 139.543 4.57448 -3.08943 0
M  V30 1386 H 140.02 4.14641 -1.44809 0
M  V30 1387 H 140.626 3.18619 -2.81712 0
M  V30 1388 N 138.941 1.26152 0.944643 0
M  V30 1389 C 139.889 1.07215 2.06417 0
M  V30 1390 C 140.883 9.2007e-05 1.694 0
M  V30 1391 O 142.089 0.1565 1.79318 0
M  V30 1392 H 138.464 0.329837 0.675805 0
M  V30 1393 H 140.435 2.02099 2.19541 0
M  V30 1394 C 139.184 0.718197 3.40202 0
M  V30 1395 H 138.507 1.53497 3.69159 0
M  V30 1396 H 139.947 0.625459 4.19361 0
M  V30 1397 C 138.406 -0.576435 3.31932 0
M  V30 1398 O 138.936 -1.61574 3.67773 0
M  V30 1399 N 137.142 -0.565781 2.85039 0
M  V30 1400 H 136.689 0.280367 2.5607 0
M  V30 1401 H 136.647 -1.43213 2.79888 0
M  V30 1402 N 140.419 -1.14872 1.07899 0
M  V30 1403 C 141.382 -2.17986 0.708161 0
M  V30 1404 C 142.382 -1.58775 -0.25442 0
M  V30 1405 O 143.572 -1.74166 -0.034645 0
M  V30 1406 C 140.704 -3.40871 0.0446929 0
M  V30 1407 H 141.897 -2.52306 1.62116 0
M  V30 1408 H 139.45 -1.2943 0.876218 0
M  V30 1409 H 140.185 -3.12124 -0.880281 0
M  V30 1410 H 139.97 -3.8511 0.737091 0
M  V30 1411 H 141.46 -4.17121 -0.19991 0
M  V30 1412 N 141.898 -0.863906 -1.31812 0
M  V30 1413 C 142.845 -0.313303 -2.28664 0
M  V30 1414 C 143.815 0.584868 -1.55462 0
M  V30 1415 O 145 0.517805 -1.83639 0
M  V30 1416 C 142.14 0.48441 -3.41683 0
M  V30 1417 C 141.253 -0.440594 -4.29747 0
M  V30 1418 C 140.388 0.370652 -5.29905 0
M  V30 1419 C 139.427 -0.551164 -6.09613 0
M  V30 1420 N 138.564 0.223462 -7.01744 0
M  V30 1421 H 143.404 -1.14444 -2.75148 0
M  V30 1422 H 140.941 -0.575769 -1.35364 0
M  V30 1423 H 142.899 0.962627 -4.05943 0
M  V30 1424 H 141.529 1.28029 -2.96325 0
M  V30 1425 H 140.581 -1.03724 -3.65986 0
M  V30 1426 H 141.893 -1.14767 -4.85417 0
M  V30 1427 H 141.047 0.911638 -5.99812 0
M  V30 1428 H 139.786 1.11105 -4.74876 0
M  V30 1429 H 138.791 -1.10396 -5.38603 0
M  V30 1430 H 140.016 -1.29032 -6.66729 0
M  V30 1431 H 137.962 0.946787 -6.49132 0
M  V30 1432 H 137.879 -0.424399 -7.54808 0
M  V30 1433 H 139.147 0.745876 -7.75923 0
M  V30 1434 N 143.376 1.44774 -0.622745 0
M  V30 1435 C 144.792 1.56986 -0.287652 0
M  V30 1436 C 144.992 1.61167 1.20944 0
M  V30 1437 O 144.048 1.55015 1.99315 0
M  V30 1438 C 145.361 2.84551 -0.972188 0
M  V30 1439 C 146.909 2.9825 -0.949536 0
M  V30 1440 C 147.384 4.28605 -1.61437 0
M  V30 1441 N 148.875 4.35399 -1.58057 0
M  V30 1442 C 149.61 5.34964 -2.064 0
M  V30 1443 N 149.106 6.40981 -2.62897 0
M  V30 1444 N 150.899 5.26419 -1.97078 0
M  V30 1445 H 143.05 1.40304 -1.59463 0
M  V30 1446 H 145.313 0.671794 -0.668878 0
M  V30 1447 H 145.019 2.87417 -2.02693 0
M  V30 1448 H 144.893 3.73807 -0.504771 0
M  V30 1449 H 147.28 2.94941 0.0967067 0
M  V30 1450 H 147.361 2.10364 -1.45536 0
M  V30 1451 H 147.005 4.32672 -2.66002 0
M  V30 1452 H 146.935 5.15334 -1.08344 0
M  V30 1453 H 149.426 3.59397 -1.16801 0
M  V30 1454 H 149.739 7.13225 -2.97539 0
M  V30 1455 H 148.084 6.4169 -2.66943 0
M  V30 1456 H 151.275 4.42504 -1.52669 0
M  V30 1457 H 151.448 6.03861 -2.35066 0
M  V30 1458 N 144.854 0.36279 1.53368 0
M  V30 1459 C 146.082 -0.228613 2.05633 0
M  V30 1460 C 146.497 -1.42676 1.23649 0
M  V30 1461 O 145.854 -1.80394 0.27647 0
M  V30 1462 C 145.905 -0.624845 3.56059 0
M  V30 1463 O 145.626 0.525675 4.34935 0
M  V30 1464 C 147.127 -1.27493 4.24571 0
M  V30 1465 H 144.347 -0.0407183 0.669763 0
M  V30 1466 H 146.891 0.520352 1.97769 0
M  V30 1467 H 145.046 -1.32373 3.64083 0
M  V30 1468 H 145.46 0.205969 5.24095 0
M  V30 1469 H 146.934 -1.50277 5.31151 0
M  V30 1470 H 147.411 -2.23439 3.78116 0
M  V30 1471 H 148.017 -0.617558 4.20792 0
M  V30 1472 N 146.332 -1.57332 0.0918853 0
M  V30 1473 C 147.262 -2.16872 -0.865371 0
M  V30 1474 C 148.243 -1.10118 -1.29646 0
M  V30 1475 O 149.428 -1.38242 -1.36392 0
M  V30 1476 C 146.558 -2.74649 -2.12569 0
M  V30 1477 C 145.512 -3.86747 -1.83333 0
M  V30 1478 C 144.838 -4.31212 -3.16166 0
M  V30 1479 C 146.138 -5.10089 -1.1228 0
M  V30 1480 H 147.832 -2.97114 -0.369307 0
M  V30 1481 H 145.378 -1.42918 -0.176194 0
M  V30 1482 H 147.331 -3.14952 -2.7997 0
M  V30 1483 H 146.055 -1.91657 -2.64452 0
M  V30 1484 H 144.714 -3.46978 -1.18331 0
M  V30 1485 H 144.362 -3.45115 -3.6593 0
M  V30 1486 H 144.062 -5.06788 -2.97388 0
M  V30 1487 H 145.586 -4.74146 -3.84731 0
M  V30 1488 H 147 -5.47582 -1.69785 0
M  V30 1489 H 145.397 -5.91073 -1.03693 0
M  V30 1490 H 146.467 -4.84786 -0.105041 0
M  V30 1491 N 147.81 0.181792 -1.56548 0
M  V30 1492 C 149.226 0.53316 -1.50431 0
M  V30 1493 C 149.426 1.85184 -0.794297 0
M  V30 1494 O 148.482 2.50058 -0.350318 0
M  V30 1495 C 149.795 0.575597 -2.9514 0
M  V30 1496 C 151.343 0.663519 -3.05886 0
M  V30 1497 C 151.818 0.736946 -4.52032 0
M  V30 1498 N 153.309 0.800118 -4.56237 0
M  V30 1499 C 154.044 0.877327 -5.66649 0
M  V30 1500 N 153.54 0.916016 -6.86718 0
M  V30 1501 N 155.333 0.915542 -5.54594 0
M  V30 1502 H 147.484 -0.683025 -2.01118 0
M  V30 1503 H 149.747 -0.244988 -0.915797 0
M  V30 1504 H 149.453 -0.324482 -3.502 0
M  V30 1505 H 149.327 1.42572 -3.49218 0
M  V30 1506 H 151.714 1.55403 -2.50867 0
M  V30 1507 H 151.795 -0.21307 -2.54911 0
M  V30 1508 H 151.439 -0.149262 -5.07681 0
M  V30 1509 H 151.369 1.62953 -5.00753 0
M  V30 1510 H 153.86 0.778926 -3.69785 0
M  V30 1511 H 154.173 0.975813 -7.66614 0
M  V30 1512 H 152.518 0.884469 -6.89349 0
M  V30 1513 H 155.709 0.882245 -4.59711 0
M  V30 1514 H 155.882 0.972253 -6.40665 0
M  V30 1515 N 149.288 1.51039 0.449983 0
M  V30 1516 C 150.198 1.74261 1.57067 0
M  V30 1517 C 151.214 0.626363 1.62335 0
M  V30 1518 O 152.39 0.907162 1.79812 0
M  V30 1519 C 149.455 1.85114 2.93144 0
M  V30 1520 C 148.516 3.0893 2.98095 0
M  V30 1521 C 147.749 3.19256 4.27681 0
M  V30 1522 O 147.972 2.35835 5.19363 0
M  V30 1523 O 146.906 4.12144 4.38658 0
M  V30 1524 H 150.732 2.69303 1.40391 0
M  V30 1525 H 148.317 1.35389 0.631688 0
M  V30 1526 H 150.199 1.94311 3.73926 0
M  V30 1527 H 148.874 0.932588 3.09975 0
M  V30 1528 H 147.781 3.0522 2.16314 0
M  V30 1529 H 149.114 4.00433 2.86206 0
M  V30 1530 N 150.766 -0.704594 1.40972 0
M  V30 1531 C 151.696 -1.83124 1.44872 0
M  V30 1532 C 152.677 -1.67281 0.30838 0
M  V30 1533 O 153.862 -1.87149 0.518556 0
M  V30 1534 C 150.992 -3.21181 1.32136 0
M  V30 1535 C 149.946 -3.51714 2.43888 0
M  V30 1536 C 149.272 -4.89032 2.16222 0
M  V30 1537 C 150.572 -3.516 3.86232 0
M  V30 1538 H 152.266 -1.80117 2.39161 0
M  V30 1539 H 149.812 -0.865145 1.15114 0
M  V30 1540 H 151.765 -3.99702 1.33479 0
M  V30 1541 H 150.489 -3.24791 0.343279 0
M  V30 1542 H 149.148 -2.75539 2.41813 0
M  V30 1543 H 148.796 -4.89256 1.16778 0
M  V30 1544 H 148.496 -5.10426 2.911 0
M  V30 1545 H 150.02 -5.69873 2.19265 0
M  V30 1546 H 151.434 -4.2014 3.9007 0
M  V30 1547 H 149.831 -3.84523 4.60719 0
M  V30 1548 H 150.901 -2.50757 4.15029 0
M  V30 1549 N 152.244 -1.26651 -0.937939 0
M  V30 1550 C 153.191 -1.0849 -2.03712 0
M  V30 1551 C 154.161 0.011033 -1.66096 0
M  V30 1552 O 155.346 -0.149353 -1.90215 0
M  V30 1553 C 152.486 -0.72735 -3.37348 0
M  V30 1554 C 151.599 -1.89986 -3.87981 0
M  V30 1555 C 150.734 -1.48513 -5.10017 0
M  V30 1556 C 149.773 -2.62575 -5.5292 0
M  V30 1557 N 148.91 -2.21762 -6.66158 0
M  V30 1558 H 153.75 -2.02551 -2.18579 0
M  V30 1559 H 151.287 -1.00844 -1.07093 0
M  V30 1560 H 153.245 -0.50092 -4.14182 0
M  V30 1561 H 151.875 0.176298 -3.22318 0
M  V30 1562 H 150.927 -2.23913 -3.07518 0
M  V30 1563 H 152.239 -2.75586 -4.15757 0
M  V30 1564 H 151.393 -1.21934 -5.94321 0
M  V30 1565 H 150.132 -0.60009 -4.83994 0
M  V30 1566 H 149.137 -2.8988 -4.67172 0
M  V30 1567 H 150.362 -3.51685 -5.80943 0
M  V30 1568 H 148.308 -1.35696 -6.41812 0
M  V30 1569 H 148.225 -3.00903 -6.93537 0
M  V30 1570 H 149.493 -1.98403 -7.53828 0
M  V30 1571 N 153.722 1.14298 -1.08507 0
M  V30 1572 C 154.971 1.84708 -0.810305 0
M  V30 1573 C 155.284 1.83903 0.666271 0
M  V30 1574 O 156.49 2.50112 1.05624 0
M  V30 1575 C 154.946 3.31572 -1.39957 0
M  V30 1576 C 154.554 3.40791 -2.90801 0
M  V30 1577 C 156.298 4.07087 -1.20334 0
M  V30 1578 C 154.205 4.81872 -3.4286 0
M  V30 1579 H 153.135 0.691985 -0.299454 0
M  V30 1580 H 155.786 1.28841 -1.30661 0
M  V30 1581 H 154.168 3.87183 -0.830976 0
M  V30 1582 H 155.342 2.95225 -3.53806 0
M  V30 1583 H 153.657 2.78732 -3.0935 0
M  V30 1584 H 156.254 5.11225 -1.56693 0
M  V30 1585 H 156.597 4.16054 -0.143237 0
M  V30 1586 H 157.13 3.57779 -1.73893 0
M  V30 1587 H 153.869 4.78094 -4.48449 0
M  V30 1588 H 153.389 5.27972 -2.84615 0
M  V30 1589 H 155.068 5.50765 -3.39509 0
M  V30 1590 N 155.201 0.870884 1.31352 0
M  V30 1591 C 156.131 0.343096 2.30966 0
M  V30 1592 C 157.112 -0.566507 1.60389 0
M  V30 1593 O 158.297 -0.483336 1.88089 0
M  V30 1594 C 155.427 -0.455487 3.443 0
M  V30 1595 C 154.381 0.361103 4.26474 0
M  V30 1596 C 153.707 -0.563221 5.31725 0
M  V30 1597 C 155.007 1.59566 4.97329 0
M  V30 1598 H 156.701 1.17548 2.75359 0
M  V30 1599 H 154.247 0.566686 1.32381 0
M  V30 1600 H 156.2 -0.83525 4.13039 0
M  V30 1601 H 154.924 -1.32139 2.98675 0
M  V30 1602 H 153.583 0.722825 3.59403 0
M  V30 1603 H 153.231 -1.42643 4.82351 0
M  V30 1604 H 152.931 -0.0207409 5.87596 0
M  V30 1605 H 154.455 -0.939808 6.03324 0
M  V30 1606 H 155.869 1.28728 5.58661 0
M  V30 1607 H 154.266 2.07728 5.63 0
M  V30 1608 H 155.336 2.34798 4.24262 0
M  V30 1609 N 156.679 -1.44442 0.630414 0
M  V30 1610 C 157.626 -2.30678 -0.0749355 0
M  V30 1611 C 158.596 -1.4344 -0.837502 0
M  V30 1612 O 159.781 -1.72343 -0.818684 0
M  V30 1613 C 156.921 -3.28706 -1.05103 0
M  V30 1614 C 156.034 -4.31046 -0.286954 0
M  V30 1615 C 155.169 -5.16167 -1.2548 0
M  V30 1616 C 154.208 -6.10216 -0.479843 0
M  V30 1617 N 153.345 -6.88039 -1.39811 0
M  V30 1618 H 158.185 -2.90454 0.666386 0
M  V30 1619 H 155.722 -1.43107 0.340404 0
M  V30 1620 H 157.68 -3.84027 -1.63031 0
M  V30 1621 H 156.31 -2.70632 -1.75949 0
M  V30 1622 H 155.362 -3.78203 0.408243 0
M  V30 1623 H 156.674 -4.97794 0.316657 0
M  V30 1624 H 155.828 -5.76002 -1.90544 0
M  V30 1625 H 154.567 -4.49491 -1.89233 0
M  V30 1626 H 153.572 -5.49491 0.184295 0
M  V30 1627 H 154.797 -6.78928 0.152965 0
M  V30 1628 H 152.743 -6.24032 -2.02287 0
M  V30 1629 H 152.66 -7.51223 -0.848508 0
M  V30 1630 H 153.928 -7.52397 -2.03762 0
M  V30 1631 N 158.157 -0.370918 -1.53173 0
M  V30 1632 C 159.107 0.489588 -2.22681 0
M  V30 1633 C 160.091 1.04442 -1.22395 0
M  V30 1634 O 161.283 0.973578 -1.47819 0
M  V30 1635 C 158.412 1.626 -3.02351 0
M  V30 1636 C 157.498 1.08379 -4.10018 0
M  V30 1637 N 157.889 0.265004 -5.05105 0
M  V30 1638 C 156.187 1.35809 -4.2482 0
M  V30 1639 C 156.888 -0.0324755 -5.81691 0
M  V30 1640 N 155.864 0.566581 -5.40639 0
M  V30 1641 H 159.666 -0.142729 -2.93553 0
M  V30 1642 H 157.18 -0.179221 -1.61408 0
M  V30 1643 H 159.177 2.2547 -3.50669 0
M  V30 1644 H 157.837 2.26132 -2.33011 0
M  V30 1645 H 158.848 -0.0962352 -5.17811 0
M  V30 1646 H 155.525 1.9958 -3.66707 0
M  V30 1647 H 156.915 -0.69473 -6.68299 0
M  V30 1648 N 159.635 1.57281 -0.100228 0
M  V30 1649 C 160.882 1.94537 0.562268 0
M  V30 1650 C 161.21 0.982315 1.67871 0
M  V30 1651 O 160.465 0.00280936 1.957 0
M  V30 1652 C 160.764 3.38305 1.15259 0
M  V30 1653 C 160.43 4.50618 0.159409 0
M  V30 1654 C 159.092 4.81066 -0.113741 0
M  V30 1655 C 161.444 5.18615 -0.518461 0
M  V30 1656 C 158.772 5.76835 -1.07137 0
M  V30 1657 C 161.124 6.15412 -1.46459 0
M  V30 1658 C 159.788 6.44262 -1.74592 0
M  V30 1659 H 159.058 0.711863 0.205748 0
M  V30 1660 H 161.705 1.90679 -0.17715 0
M  V30 1661 H 160.01 3.38766 1.96836 0
M  V30 1662 H 161.707 3.64435 1.67297 0
M  V30 1663 H 158.297 4.2689 0.382491 0
M  V30 1664 H 162.481 4.95264 -0.320581 0
M  V30 1665 H 157.737 5.975 -1.29628 0
M  V30 1666 H 161.911 6.67194 -1.99564 0
M  V30 1667 H 159.538 7.1828 -2.48953 0
M  V30 1668 N 161.113 -0.173488 1.56642 0
M  V30 1669 C 162.06 -1.21482 1.96242 0
M  V30 1670 C 163.03 -1.44104 0.826027 0
M  V30 1671 O 164.215 -1.5688 1.08597 0
M  V30 1672 C 161.355 -2.54964 2.32567 0
M  V30 1673 C 160.468 -2.39739 3.59373 0
M  V30 1674 C 159.603 -3.66072 3.84921 0
M  V30 1675 C 158.642 -3.45771 5.05083 0
M  V30 1676 N 157.779 -4.64169 5.26775 0
M  V30 1677 H 162.619 -0.870123 2.85014 0
M  V30 1678 H 160.156 -0.418245 1.41029 0
M  V30 1679 H 162.114 -3.32758 2.5165 0
M  V30 1680 H 160.744 -2.87433 1.46908 0
M  V30 1681 H 159.796 -1.53131 3.48217 0
M  V30 1682 H 161.108 -2.20683 4.47326 0
M  V30 1683 H 160.262 -4.52303 4.0436 0
M  V30 1684 H 159.001 -3.88105 2.9534 0
M  V30 1685 H 158.006 -2.57927 4.85545 0
M  V30 1686 H 159.231 -3.25163 5.96193 0
M  V30 1687 H 157.177 -4.86425 4.40144 0
M  V30 1688 H 157.094 -4.48019 6.08946 0
M  V30 1689 H 158.362 -5.51689 5.5069 0
M  V30 1690 N 162.591 -1.51276 -0.441967 0
M  V30 1691 C 163.541 -1.6864 -1.53442 0
M  V30 1692 C 164.525 -0.540444 -1.51552 0
M  V30 1693 O 165.717 -0.796157 -1.58083 0
M  V30 1694 C 162.846 -1.8106 -2.91672 0
M  V30 1695 C 161.932 -3.01424 -2.98336 0
M  V30 1696 N 162.323 -4.2467 -2.74752 0
M  V30 1697 C 160.621 -3.00584 -3.29493 0
M  V30 1698 C 161.322 -5.05891 -2.87139 0
M  V30 1699 N 160.298 -4.40442 -3.18609 0
M  V30 1700 H 164.1 -2.61598 -1.33954 0
M  V30 1701 H 161.614 -1.4886 -0.6492 0
M  V30 1702 H 163.611 -1.91609 -3.70259 0
M  V30 1703 H 162.271 -0.892795 -3.12185 0
M  V30 1704 H 163.282 -4.53691 -2.49769 0
M  V30 1705 H 159.959 -2.18417 -3.55809 0
M  V30 1706 H 161.349 -6.13983 -2.72899 0
M  V30 1707 N 164.069 0.697108 -1.41344 0
M  V30 1708 C 165.346 1.45154 -1.31109 0
M  V30 1709 C 165.726 2.11009 0.0620449 0
M  V30 1710 O 165.074 2.01571 1.07618 0
M  V30 1711 C 165.284 2.47223 -2.46337 0
M  V30 1712 C 166.632 3.1252 -2.87431 0
M  V30 1713 O 167.656 2.57547 -2.46065 0
M  V30 1714 O 166.515 4.12083 -3.58957 0
M  V30 1715 H 163.609 0.646365 -0.515889 0
M  V30 1716 H 166.155 0.727716 -1.53305 0
M  V30 1717 H 164.927 1.97204 -3.37974 0
M  V30 1718 H 164.55 3.27116 -2.2601 0
M  V30 1719 N 165.547 1.27147 0.931209 0
M  V30 1720 C 166.495 1.09398 2.05268 0
M  V30 1721 C 167.489 0.0180591 1.6939 0
M  V30 1722 O 168.695 0.17551 1.79142 0
M  V30 1723 H 165.07 0.336986 0.672268 0
M  V30 1724 H 167.041 2.04416 2.17386 0
M  V30 1725 C 165.79 0.75424 3.39421 0
M  V30 1726 H 165.113 1.57404 3.67511 0
M  V30 1727 H 166.553 0.669903 4.18674 0
M  V30 1728 C 165.012 -0.541197 3.32525 0
M  V30 1729 O 165.542 -1.57664 3.69466 0
M  V30 1730 N 163.748 -0.535517 2.85623 0
M  V30 1731 H 163.295 0.307511 2.55758 0
M  V30 1732 H 163.253 -1.40236 2.81392 0
M  V30 1733 N 167.025 -1.13721 1.09112 0
M  V30 1734 C 168.274 -1.84275 0.82009 0
M  V30 1735 C 168.587 -1.84253 -0.656509 0
M  V30 1736 O 169.793 -2.50668 -1.04296 0
M  V30 1737 C 168.249 -3.30825 1.41714 0
M  V30 1738 C 167.857 -3.39244 2.92605 0
M  V30 1739 C 169.601 -4.06443 1.22492 0
M  V30 1740 C 167.508 -4.80047 3.45411 0
M  V30 1741 H 166.438 -0.690387 0.30312 0
M  V30 1742 H 169.089 -1.28146 1.31343 0
M  V30 1743 H 167.471 -3.86737 0.851498 0
M  V30 1744 H 168.645 -2.93344 3.55367 0
M  V30 1745 H 166.96 -2.77088 3.10823 0
M  V30 1746 H 169.557 -5.10387 1.59402 0
M  V30 1747 H 169.9 -4.15972 0.165299 0
M  V30 1748 H 170.433 -3.56852 1.75788 0
M  V30 1749 H 167.172 -4.75709 4.50978 0
M  V30 1750 H 166.692 -5.26455 2.87411 0
M  V30 1751 H 168.371 -5.48957 3.42425 0
M  V30 1752 N 168.503 -0.877838 -1.30888 0
M  V30 1753 C 169.752 -0.488793 -1.95688 0
M  V30 1754 C 170.065 0.965485 -1.70111 0
M  V30 1755 O 171.271 1.46104 -2.28836 0
M  V30 1756 C 169.727 -0.823201 -3.50359 0
M  V30 1757 C 169.335 -2.29477 -3.84765 0
M  V30 1758 C 171.079 -0.503009 -4.21509 0
M  V30 1759 C 168.986 -2.57118 -5.32583 0
M  V30 1760 H 167.916 -0.179062 -0.732429 0
M  V30 1761 H 170.567 -1.07183 -1.48943 0
M  V30 1762 H 168.949 -0.169331 -3.95638 0
M  V30 1763 H 170.123 -2.99236 -3.5042 0
M  V30 1764 H 168.438 -2.58178 -3.267 0
M  V30 1765 H 171.035 -0.68665 -5.30273 0
M  V30 1766 H 171.378 0.557109 -4.12555 0
M  V30 1767 H 171.911 -1.11376 -3.8189 0
M  V30 1768 H 168.65 -3.61843 -5.4658 0
M  V30 1769 H 168.17 -1.91961 -5.68253 0
M  V30 1770 H 169.849 -2.42251 -5.99936 0
M  V30 1771 N 169.982 1.44106 -0.638065 0
M  V30 1772 C 170.945 2.29138 0.0531013 0
M  V30 1773 C 171.945 1.41409 0.765506 0
M  V30 1774 O 173.135 1.63206 0.609046 0
M  V30 1775 C 170.267 3.23144 1.08584 0
M  V30 1776 H 171.46 2.91739 -0.694883 0
M  V30 1777 H 169.013 1.51134 -0.398538 0
M  V30 1778 H 169.748 2.65408 1.86357 0
M  V30 1779 H 169.533 3.87804 0.578852 0
M  V30 1780 H 171.023 3.87004 1.56899 0
M  V30 1781 N 171.46 0.379036 1.52974 0
M  V30 1782 C 172.709 -0.207612 2.00629 0
M  V30 1783 C 173.022 -1.48758 1.27006 0
M  V30 1784 O 174.228 -2.15365 1.65318 0
M  V30 1785 C 172.684 -0.42053 3.57435 0
M  V30 1786 C 172.292 0.845587 4.39948 0
M  V30 1787 C 174.036 -0.964102 4.13407 0
M  V30 1788 C 171.943 0.601513 5.88333 0
M  V30 1789 H 170.873 -0.0813591 0.749598 0
M  V30 1790 H 173.524 0.499853 1.76561 0
M  V30 1791 H 171.906 -1.18959 3.7771 0
M  V30 1792 H 173.08 1.61848 4.31442 0
M  V30 1793 H 171.395 1.31336 3.95145 0
M  V30 1794 H 173.992 -1.16225 5.21916 0
M  V30 1795 H 174.335 -1.93019 3.68849 0
M  V30 1796 H 174.868 -0.25487 3.96983 0
M  V30 1797 H 171.607 1.53831 6.37194 0
M  V30 1798 H 171.127 -0.132628 5.99653 0
M  V30 1799 H 172.806 0.232134 6.46583 0
M  V30 1800 N 172.938 -1.57226 0.108567 0
M  V30 1801 C 173.885 -2.14756 -0.845481 0
M  V30 1802 C 174.855 -1.06971 -1.27068 0
M  V30 1803 O 176.04 -1.34827 -1.35005 0
M  V30 1804 C 173.18 -2.74298 -2.09415 0
M  V30 1805 C 172.293 -3.96358 -1.71826 0
M  V30 1806 C 171.428 -4.44021 -2.9158 0
M  V30 1807 C 170.467 -5.58637 -2.50181 0
M  V30 1808 N 169.604 -6.01091 -3.62814 0
M  V30 1809 H 174.444 -2.95961 -0.348035 0
M  V30 1810 H 171.981 -1.46226 -0.160106 0
M  V30 1811 H 173.939 -3.06945 -2.82561 0
M  V30 1812 H 172.569 -1.95801 -2.56636 0
M  V30 1813 H 171.621 -3.69939 -0.885947 0
M  V30 1814 H 172.933 -4.79504 -1.37394 0
M  V30 1815 H 172.087 -4.78522 -3.72963 0
M  V30 1816 H 170.826 -3.59803 -3.29231 0
M  V30 1817 H 169.831 -5.23751 -1.67228 0
M  V30 1818 H 171.056 -6.44613 -2.13659 0
M  V30 1819 H 169.002 -5.19817 -4.00158 0
M  V30 1820 H 168.919 -6.79066 -3.32273 0
M  V30 1821 H 170.187 -6.40227 -4.44668 0
M  V30 1822 N 174.416 0.165178 -1.56732 0
M  V30 1823 C 175.693 0.908443 -1.73224 0
M  V30 1824 C 176.073 2.0013 -0.67165 0
M  V30 1825 O 175.421 2.26353 0.31253 0
M  V30 1826 C 175.631 1.46756 -3.16644 0
M  V30 1827 C 176.979 1.93809 -3.77787 0
M  V30 1828 O 178.003 1.56537 -3.1996 0
M  V30 1829 O 176.862 2.62486 -4.79336 0
M  V30 1830 H 173.956 0.428025 -0.707618 0
M  V30 1831 H 176.502 0.152526 -1.69013 0
M  V30 1832 H 175.274 0.68129 -3.85323 0
M  V30 1833 H 174.897 2.28749 -3.25207 0
M  V30 1834 N 175.894 1.51508 0.433938 0
M  V30 1835 C 177.143 1.63578 1.18005 0
M  V30 1836 C 177.456 0.359514 1.92268 0
M  V30 1837 O 178.662 0.359632 2.69108 0
M  V30 1838 C 177.118 2.88901 2.14626 0
M  V30 1839 C 176.726 4.23544 1.45995 0
M  V30 1840 C 178.47 3.10328 2.89649 0
M  V30 1841 C 176.377 5.40014 2.4112 0
M  V30 1842 H 175.307 0.609277 0.444182 0
M  V30 1843 H 177.958 1.77978 0.446773 0
M  V30 1844 H 176.34 2.68142 2.91403 0
M  V30 1845 H 177.514 4.54696 0.747532 0
M  V30 1846 H 175.829 4.08021 0.831115 0
M  V30 1847 H 178.426 3.94518 3.60915 0
M  V30 1848 H 178.769 2.23544 3.51189 0
M  V30 1849 H 179.302 3.31443 2.19978 0
M  V30 1850 H 176.041 6.29068 1.84264 0
M  V30 1851 H 175.561 5.13233 3.10406 0
M  V30 1852 H 177.24 5.72099 3.02177 0
M  V30 1853 N 177.372 -0.689602 1.41712 0
M  V30 1854 C 178.302 -1.81577 1.46806 0
M  V30 1855 C 179.283 -1.66945 0.326105 0
M  V30 1856 O 180.468 -1.86588 0.538377 0
M  V30 1857 C 177.598 -3.19762 1.35535 0
M  V30 1858 C 176.552 -3.49107 2.47605 0
M  V30 1859 C 175.878 -4.86711 2.21397 0
M  V30 1860 C 177.178 -3.47483 3.89939 0
M  V30 1861 H 178.872 -1.7757 2.41058 0
M  V30 1862 H 176.418 -0.852887 1.16025 0
M  V30 1863 H 178.371 -3.98263 1.3771 0
M  V30 1864 H 177.095 -3.24409 0.377708 0
M  V30 1865 H 175.754 -2.72959 2.44722 0
M  V30 1866 H 175.402 -4.8799 1.21961 0
M  V30 1867 H 175.102 -5.0731 2.96497 0
M  V30 1868 H 176.626 -5.67515 2.25297 0
M  V30 1869 H 178.04 -4.1598 3.94505 0
M  V30 1870 H 176.437 -3.79615 4.64771 0
M  V30 1871 H 177.507 -2.46341 4.17665 0
M  V30 1872 N 178.85 -1.27639 -0.924453 0
M  V30 1873 C 180.266 -1.05113 -1.20097 0
M  V30 1874 C 180.466 0.213262 -2.00368 0
M  V30 1875 O 179.522 0.91787 -2.35226 0
M  V30 1876 C 180.835 -2.29244 -1.94596 0
M  V30 1877 C 182.383 -2.34315 -2.07522 0
M  V30 1878 C 182.858 -3.58183 -2.85427 0
M  V30 1879 N 184.349 -3.5876 -2.92994 0
M  V30 1880 C 185.084 -4.51277 -3.53746 0
M  V30 1881 N 184.58 -5.54102 -4.15863 0
M  V30 1882 N 186.373 -4.38894 -3.51181 0
M  V30 1883 H 178.524 -2.08821 -0.388264 0
M  V30 1884 H 180.787 -0.918568 -0.234385 0
M  V30 1885 H 180.493 -3.21301 -1.43034 0
M  V30 1886 H 180.367 -2.34816 -2.95197 0
M  V30 1887 H 182.754 -1.42762 -2.58269 0
M  V30 1888 H 182.835 -2.32744 -1.06131 0
M  V30 1889 H 182.479 -4.50074 -2.35363 0
M  V30 1890 H 182.409 -3.57006 -3.8711 0
M  V30 1891 H 184.9 -2.84398 -2.4885 0
M  V30 1892 H 185.213 -6.20859 -4.60168 0
M  V30 1893 H 183.558 -5.57941 -4.144 0
M  V30 1894 H 186.749 -3.57772 -3.01856 0
M  V30 1895 H 186.922 -5.11186 -3.98237 0
M  V30 1896 N 180.328 1.1314 -1.09713 0
M  V30 1897 C 181.739 1.66029 -0.853885 0
M  V30 1898 C 182.09 1.86241 0.617142 0
M  V30 1899 O 181.215 1.5834 1.47503 0
M  V30 1900 C 181.81 3.01599 -1.5435 0
M  V30 1901 C 180.369 3.51467 -1.34714 0
M  V30 1902 C 179.516 2.26648 -1.59769 0
M  V30 1903 H 182.467 0.970226 -1.25588 0
M  V30 1904 H 182.488 3.67709 -0.978267 0
M  V30 1905 H 182 2.86856 -2.6141 0
M  V30 1906 H 180.101 3.71408 -0.297838 0
M  V30 1907 H 180.214 4.314 -2.08401 0
M  V30 1908 H 178.578 2.33385 -1.01998 0
M  V30 1909 H 179.361 2.14467 -2.68065 0
M  V30 1910 N 181.806 0.884767 1.30421 0
M  V30 1911 C 183.034 0.518044 2.0031 0
M  V30 1912 C 183.449 -0.893408 1.66324 0
M  V30 1913 O 182.806 -1.5875 0.900262 0
M  V30 1914 C 182.857 0.682997 3.54989 0
M  V30 1915 O 182.578 2.03888 3.87764 0
M  V30 1916 C 184.079 0.31924 4.42149 0
M  V30 1917 H 181.299 0.200265 0.640418 0
M  V30 1918 H 183.843 1.19001 1.6631 0
M  V30 1919 H 181.998 0.0584052 3.87356 0
M  V30 1920 H 182.412 2.05735 4.82466 0
M  V30 1921 H 183.886 0.485555 5.4986 0
M  V30 1922 H 184.363 -0.742717 4.32875 0
M  V30 1923 H 184.969 0.920147 4.15227 0
M  V30 1924 N 183.284 -1.43765 0.645699 0
M  V30 1925 C 184.53 -2.02197 0.156271 0
M  V30 1926 C 184.863 -1.50776 -1.22393 0
M  V30 1927 O 184.138 -0.697771 -1.81553 0
M  V30 1928 C 184.421 -3.59749 0.158872 0
M  V30 1929 C 184.274 -4.21419 1.57245 0
M  V30 1930 C 185.593 -4.37149 -0.50879 0
M  V30 1931 H 182.712 -0.734694 0.0582602 0
M  V30 1932 H 185.354 -1.71157 0.824951 0
M  V30 1933 H 183.504 -3.86325 -0.410525 0
M  V30 1934 H 185.176 -4.059 2.19186 0
M  V30 1935 H 183.419 -3.78356 2.122 0
M  V30 1936 H 184.09 -5.30482 1.52619 0
M  V30 1937 H 186.566 -4.16093 -0.024412 0
M  V30 1938 H 185.442 -5.4683 -0.476213 0
M  V30 1939 H 185.703 -4.12839 -1.58165 0
M  V30 1940 N 184.763 -0.387143 -1.52771 0
M  V30 1941 C 186.174 0.0873634 -1.86495 0
M  V30 1942 C 186.525 1.46336 -1.30691 0
M  V30 1943 O 185.65 2.068 -0.637409 0
M  V30 1944 C 186.245 0.165305 -3.38396 0
M  V30 1945 C 184.804 0.584101 -3.7184 0
M  V30 1946 C 183.951 -0.255279 -2.76122 0
M  V30 1947 H 186.902 -0.605104 -1.46711 0
M  V30 1948 H 186.923 0.984848 -3.67534 0
M  V30 1949 H 186.435 -0.836301 -3.78982 0
M  V30 1950 H 184.536 1.59315 -3.36823 0
M  V30 1951 H 184.649 0.343749 -4.77865 0
M  V30 1952 H 183.013 0.279126 -2.53166 0
M  V30 1953 H 183.796 -1.25482 -3.19545 0
M  V30 1954 N 186.241 1.57166 -0.116904 0
M  V30 1955 C 187.471 1.99184 0.548586 0
M  V30 1956 C 187.879 0.995436 1.60897 0
M  V30 1957 O 187.222 -0.0201293 1.83689 0
M  V30 1958 C 187.284 3.37611 1.23526 0
M  V30 1959 C 186.948 4.55857 0.323077 0
M  V30 1960 C 187.945 5.18056 -0.437476 0
M  V30 1961 C 185.63 5.01751 0.234761 0
M  V30 1962 C 187.624 6.24536 -1.2741 0
M  V30 1963 C 185.311 6.08093 -0.605496 0
M  V30 1964 C 186.309 6.69352 -1.35856 0
M  V30 1965 O 185.997 7.7364 -2.18487 0
M  V30 1966 H 185.729 0.659148 0.149999 0
M  V30 1967 H 188.283 2.0443 -0.199428 0
M  V30 1968 H 186.513 3.29113 2.0303 0
M  V30 1969 H 188.202 3.63932 1.79745 0
M  V30 1970 H 188.968 4.83516 -0.379105 0
M  V30 1971 H 184.847 4.53817 0.810601 0
M  V30 1972 H 188.391 6.72281 -1.86237 0
M  V30 1973 H 184.288 6.42063 -0.665268 0
M  V30 1974 H 185.056 7.90727 -2.11406 0
M  V30 1975 N 187.719 -0.156864 1.56817 0
M  V30 1976 C 188.967 -0.869404 1.82444 0
M  V30 1977 C 189.288 -1.82147 0.69623 0
M  V30 1978 O 188.558 -1.93847 -0.28287 0
M  V30 1979 H 187.138 -0.324043 0.673056 0
M  V30 1980 H 189.8 -0.153224 1.94297 0
M  V30 1981 H 188.896 -1.43761 2.77019 0
M  V30 1982 N 189.197 -1.51736 -0.425897 0
M  V30 1983 C 190.107 -1.76738 -1.54275 0
M  V30 1984 C 191.123 -0.65211 -1.61318 0
M  V30 1985 O 192.299 -0.935654 -1.78346 0
M  V30 1986 C 189.364 -1.89755 -2.90162 0
M  V30 1987 C 188.425 -3.13633 -2.93143 0
M  V30 1988 C 187.658 -3.2602 -4.22548 0
M  V30 1989 O 187.881 -2.44067 -5.15546 0
M  V30 1990 O 186.815 -4.19071 -4.32046 0
M  V30 1991 H 190.641 -2.71502 -1.36089 0
M  V30 1992 H 188.226 -1.36376 -0.610069 0
M  V30 1993 H 190.108 -2.00236 -3.70788 0
M  V30 1994 H 188.783 -0.981785 -3.08452 0
M  V30 1995 H 187.69 -3.08622 -2.11431 0
M  V30 1996 H 189.023 -4.04936 -2.798 0
M  V30 1997 N 190.675 0.682077 -1.42076 0
M  V30 1998 C 191.922 1.44215 -1.42156 0
M  V30 1999 C 192.25 1.94468 -0.0354186 0
M  V30 2000 O 191.505 1.70816 0.955002 0
M  V30 2001 C 191.804 2.66036 -2.38662 0
M  V30 2002 C 191.47 2.34366 -3.85206 0
M  V30 2003 C 190.132 2.25439 -4.25124 0
M  V30 2004 C 192.484 2.08513 -4.77673 0
M  V30 2005 C 189.812 1.88775 -5.55501 0
M  V30 2006 C 192.164 1.73354 -6.08384 0
M  V30 2007 C 190.828 1.62933 -6.47309 0
M  V30 2008 H 190.098 0.527718 -0.520187 0
M  V30 2009 H 192.745 0.778387 -1.74967 0
M  V30 2010 H 191.05 3.3741 -1.99152 0
M  V30 2011 H 192.747 3.24205 -2.35991 0
M  V30 2012 H 189.337 2.42213 -3.53597 0
M  V30 2013 H 193.521 2.14346 -4.47626 0
M  V30 2014 H 188.777 1.7927 -5.84527 0
M  V30 2015 H 192.951 1.52373 -6.79526 0
M  V30 2016 H 190.578 1.34292 -7.48244 0
M  V30 2017 N 192.153 1.28127 0.917671 0
M  V30 2018 C 193.1 1.11717 2.0196 0
M  V30 2019 C 194.07 0.0153929 1.66093 0
M  V30 2020 O 195.255 0.179596 1.89953 0
M  V30 2021 C 192.395 0.780927 3.36148 0
M  V30 2022 C 191.508 1.96135 3.84909 0
M  V30 2023 C 190.643 1.56609 5.0759 0
M  V30 2024 C 189.682 2.71339 5.48673 0
M  V30 2025 N 188.819 2.32332 6.62545 0
M  V30 2026 H 193.659 2.06003 2.15329 0
M  V30 2027 H 191.196 1.02535 1.05475 0
M  V30 2028 H 193.154 0.56675 4.13333 0
M  V30 2029 H 191.784 -0.124998 3.22558 0
M  V30 2030 H 190.836 2.28777 3.03916 0
M  V30 2031 H 192.148 2.82165 4.1132 0
M  V30 2032 H 191.302 1.31374 5.92305 0
M  V30 2033 H 190.041 0.677014 4.82978 0
M  V30 2034 H 189.046 2.97276 4.62501 0
M  V30 2035 H 190.271 3.60882 5.75274 0
M  V30 2036 H 188.217 1.45889 6.39572 0
M  V30 2037 H 188.134 3.11899 6.88662 0
M  V30 2038 H 189.402 2.10371 7.50576 0
M  V30 2039 N 193.631 -1.12557 1.10312 0
M  V30 2040 C 194.856 -1.88405 0.867085 0
M  V30 2041 C 195.281 -1.79038 -0.576817 0
M  V30 2042 O 194.639 -1.14439 -1.40618 0
M  V30 2043 C 194.687 -3.3563 1.31851 0
M  V30 2044 O 193.791 -4.09565 0.482734 0
M  V30 2045 H 193.132 -0.585455 0.313271 0
M  V30 2046 H 195.662 -1.42352 1.4696 0
M  V30 2047 H 195.672 -3.86469 1.3079 0
M  V30 2048 H 194.347 -3.41765 2.37001 0
M  V30 2049 H 192.924 -3.68695 0.558448 0
M  V30 2050 N 195.109 -0.891671 -1.2995 0
M  V30 2051 C 196.355 -0.514261 -1.96171 0
M  V30 2052 C 196.688 0.935506 -1.70182 0
M  V30 2053 O 195.963 1.66204 -1.01028 0
M  V30 2054 C 196.246 -0.797719 -3.51153 0
M  V30 2055 C 196.099 -2.2986 -3.86632 0
M  V30 2056 C 197.418 -0.278749 -4.39216 0
M  V30 2057 H 194.537 -0.188314 -0.712535 0
M  V30 2058 H 197.179 -1.11689 -1.53706 0
M  V30 2059 H 195.329 -0.284826 -3.87455 0
M  V30 2060 H 197.001 -2.88042 -3.60319 0
M  V30 2061 H 195.244 -2.76257 -3.34462 0
M  V30 2062 H 195.915 -2.44753 -4.94773 0
M  V30 2063 H 198.391 -0.717825 -4.09862 0
M  V30 2064 H 197.267 -0.506353 -5.46559 0
M  V30 2065 H 197.528 0.820266 -4.34424 0
M  V30 2066 N 196.587 1.43421 -0.653314 0
M  V30 2067 C 197.817 2.05864 -0.174238 0
M  V30 2068 C 198.225 1.49052 1.16534 0
M  V30 2069 O 197.568 0.616481 1.73047 0
M  V30 2070 C 197.63 3.59499 -0.00875873 0
M  V30 2071 C 197.294 4.38893 -1.27364 0
M  V30 2072 C 198.291 4.70947 -2.20239 0
M  V30 2073 C 195.976 4.789 -1.51525 0
M  V30 2074 C 197.97 5.41916 -3.35568 0
M  V30 2075 C 195.657 5.49614 -2.67147 0
M  V30 2076 C 196.655 5.81044 -3.58994 0
M  V30 2077 O 196.343 6.50313 -4.72597 0
M  V30 2078 H 196.075 0.670345 -0.0872549 0
M  V30 2079 H 198.629 1.84913 -0.894226 0
M  V30 2080 H 196.859 3.79025 0.7666 0
M  V30 2081 H 198.548 4.0364 0.427687 0
M  V30 2082 H 199.314 4.40558 -2.02815 0
M  V30 2083 H 195.193 4.53843 -0.809158 0
M  V30 2084 H 198.737 5.66365 -4.07279 0
M  V30 2085 H 194.634 5.79419 -2.84505 0
M  V30 2086 H 195.402 6.68795 -4.71864 0
M  V30 2087 N 198.065 0.39524 1.52563 0
M  V30 2088 C 199.311 -0.185318 2.01952 0
M  V30 2089 C 199.644 -1.45964 1.28095 0
M  V30 2090 O 198.919 -1.90689 0.38315 0
M  V30 2091 C 199.202 -0.447193 3.57312 0
M  V30 2092 C 199.055 0.842828 4.41833 0
M  V30 2093 C 200.374 -1.23529 4.22408 0
M  V30 2094 H 197.493 -0.0658788 0.73405 0
M  V30 2095 H 200.135 0.525975 1.82575 0
M  V30 2096 H 198.285 -1.05312 3.73954 0
M  V30 2097 H 199.957 1.4795 4.36931 0
M  V30 2098 H 198.2 1.45686 4.08605 0
M  V30 2099 H 198.871 0.614165 5.48573 0
M  V30 2100 H 201.347 -0.722445 4.0978 0
M  V30 2101 H 200.223 -1.38727 5.3108 0
M  V30 2102 H 200.484 -2.25213 3.80436 0
M  V30 2103 N 199.544 -1.57102 0.125237 0
M  V30 2104 C 200.79 -1.95697 -0.532035 0
M  V30 2105 C 201.123 -1.009 -1.6593 0
M  V30 2106 O 200.398 -0.047347 -1.94442 0
M  V30 2107 C 200.681 -3.44181 -1.05884 0
M  V30 2108 C 200.534 -4.49752 0.0654392 0
M  V30 2109 C 201.853 -3.94655 -1.9477 0
M  V30 2110 H 198.972 -0.711571 -0.191925 0
M  V30 2111 H 201.614 -1.88923 0.20206 0
M  V30 2112 H 199.764 -3.50085 -1.68442 0
M  V30 2113 H 201.436 -4.55943 0.700982 0
M  V30 2114 H 199.679 -4.27653 0.727709 0
M  V30 2115 H 200.35 -5.50924 -0.344505 0
M  V30 2116 H 202.826 -3.91094 -1.42074 0
M  V30 2117 H 201.702 -4.99057 -2.28546 0
M  V30 2118 H 201.963 -3.35718 -2.87656 0
M  V30 2119 N 201.022 0.148545 -1.56898 0
M  V30 2120 C 201.952 1.18524 -2.01182 0
M  V30 2121 C 202.933 1.4489 -0.891123 0
M  V30 2122 O 204.118 1.55836 -1.15882 0
M  V30 2123 C 201.248 2.51879 -2.39112 0
M  V30 2124 C 200.202 2.40038 -3.54353 0
M  V30 2125 C 199.528 3.78089 -3.78091 0
M  V30 2126 C 200.828 1.88577 -4.87069 0
M  V30 2127 H 202.522 0.817029 -2.88036 0
M  V30 2128 H 200.068 0.391575 -1.38574 0
M  V30 2129 H 202.021 3.24627 -2.68692 0
M  V30 2130 H 200.745 2.90532 -1.49193 0
M  V30 2131 H 199.404 1.69742 -3.24936 0
M  V30 2132 H 199.052 4.14175 -2.85426 0
M  V30 2133 H 198.752 3.71028 -4.55645 0
M  V30 2134 H 200.276 4.52387 -4.10095 0
M  V30 2135 H 201.69 2.51117 -5.15377 0
M  V30 2136 H 200.087 1.9241 -5.68417 0
M  V30 2137 H 201.157 0.84136 -4.77545 0
M  V30 2138 N 202.5 1.5196 0.417844 0
M  V30 2139 C 203.777 1.56146 1.17803 0
M  V30 2140 C 204.157 0.337275 2.08388 0
M  V30 2141 O 203.505 -0.676447 2.18258 0
M  V30 2142 C 203.715 2.88566 1.96293 0
M  V30 2143 C 205.063 3.41244 2.52662 0
M  V30 2144 O 206.087 2.90247 2.06483 0
M  V30 2145 O 204.946 4.30273 3.36938 0
M  V30 2146 H 202.04 0.628598 0.537395 0
M  V30 2147 H 204.586 1.64283 0.425331 0
M  V30 2148 H 203.358 3.69116 1.2988 0
M  V30 2149 H 202.981 2.83681 2.78587 0
M  V30 2150 N 203.978 -0.674533 1.42435 0
M  V30 2151 C 204.908 -1.80009 1.48724 0
M  V30 2152 C 205.889 -1.6659 0.343793 0
M  V30 2153 O 207.074 -1.86007 0.558137 0
M  V30 2154 C 204.204 -3.18306 1.38919 0
M  V30 2155 C 203.158 -3.46461 2.51294 0
M  V30 2156 C 202.484 -4.84335 2.26547 0
M  V30 2157 C 203.784 -3.43328 3.93603 0
M  V30 2158 H 205.478 -1.75004 2.42928 0
M  V30 2159 H 203.024 -0.840533 1.16923 0
M  V30 2160 H 204.977 -3.9678 1.41927 0
M  V30 2161 H 203.701 -3.2399 0.412094 0
M  V30 2162 H 202.36 -2.70348 2.47604 0
M  V30 2163 H 202.008 -4.86669 1.2713 0
M  V30 2164 H 201.708 -5.04136 3.01861 0
M  V30 2165 H 203.232 -5.65094 2.31304 0
M  V30 2166 H 204.646 -4.11772 3.98894 0
M  V30 2167 H 203.043 -3.74664 4.68771 0
M  V30 2168 H 204.113 -2.41897 4.20255 0
M  V30 2169 N 205.456 -1.28612 -0.910864 0
M  V30 2170 C 206.389 -1.07109 -2.01502 0
M  V30 2171 C 207.367 0.013706 -1.62594 0
M  V30 2172 O 208.551 -0.134796 -1.88017 0
M  V30 2173 C 205.678 -0.628255 -3.32822 0
M  V30 2174 C 204.724 -1.71012 -3.90714 0
M  V30 2175 S 205.557 -3.30676 -4.21205 0
M  V30 2176 C 206.713 -2.88234 -5.55583 0
M  V30 2177 H 206.946 -2.00591 -2.19432 0
M  V30 2178 H 204.479 -1.12633 -1.05609 0
M  V30 2179 H 206.437 -0.37946 -4.08742 0
M  V30 2180 H 205.098 0.28678 -3.12788 0
M  V30 2181 H 204.291 -1.35195 -4.85529 0
M  V30 2182 H 203.893 -1.91186 -3.21441 0
M  V30 2183 H 206.185 -2.34584 -6.35591 0
M  V30 2184 H 207.128 -3.81857 -5.96314 0
M  V30 2185 H 207.536 -2.26862 -5.16908 0
M  V30 2186 N 206.934 1.1197 -1.10907 0
M  V30 2187 C 207.844 2.21433 -0.774896 0
M  V30 2188 C 208.86 1.72478 0.229657 0
M  V30 2189 O 210.036 2.01288 0.0672008 0
M  V30 2190 C 207.101 3.4602 -0.216986 0
M  V30 2191 C 206.162 4.09791 -1.27944 0
M  V30 2192 C 205.395 5.28431 -0.748055 0
M  V30 2193 O 205.618 5.68823 0.423833 0
M  V30 2194 O 204.552 5.82644 -1.51027 0
M  V30 2195 H 208.378 2.5242 -1.68873 0
M  V30 2196 H 205.963 1.20399 -0.884555 0
M  V30 2197 H 207.845 4.21304 0.090059 0
M  V30 2198 H 206.52 3.16698 0.669633 0
M  V30 2199 H 205.427 3.36265 -1.63941 0
M  V30 2200 H 206.76 4.4328 -2.13925 0
M  V30 2201 N 208.412 0.89855 1.29475 0
M  V30 2202 C 209.637 0.538561 2.00285 0
M  V30 2203 C 210.062 -0.869135 1.66816 0
M  V30 2204 O 209.42 -1.57831 0.892145 0
M  V30 2205 C 209.468 0.736475 3.52999 0
M  V30 2206 O 208.572 -0.211537 4.11857 0
M  V30 2207 H 207.913 0.210563 0.62973 0
M  V30 2208 H 210.443 1.20982 1.64998 0
M  V30 2209 H 210.453 0.640685 4.02938 0
M  V30 2210 H 209.128 1.76276 3.76696 0
M  V30 2211 H 207.705 -0.0682991 3.72837 0
M  V30 2212 N 209.89 -1.43072 0.660911 0
M  V30 2213 C 211.167 -1.95307 0.107017 0
M  V30 2214 C 211.547 -1.60192 -1.37484 0
M  V30 2215 O 210.895 -0.890949 -2.10415 0
M  V30 2216 C 211.105 -3.47124 0.361402 0
M  V30 2217 C 212.453 -4.23738 0.270455 0
M  V30 2218 O 213.477 -3.54981 0.294382 0
M  V30 2219 O 212.336 -5.46131 0.200737 0
M  V30 2220 H 209.43 -0.826984 -0.00517729 0
M  V30 2221 H 211.976 -1.52972 0.734681 0
M  V30 2222 H 210.748 -3.65837 1.38848 0
M  V30 2223 H 210.371 -3.96475 -0.298953 0
M  V30 2224 N 211.368 -0.403325 -1.52352 0
M  V30 2225 C 212.298 0.416205 -2.29761 0
M  V30 2226 C 213.279 1.05123 -1.33728 0
M  V30 2227 O 214.464 1.06134 -1.62632 0
M  V30 2228 C 211.594 1.53624 -3.11475 0
M  V30 2229 C 210.548 1.02653 -4.15507 0
M  V30 2230 C 209.874 2.23971 -4.85532 0
M  V30 2231 C 211.174 0.08463 -5.22231 0
M  V30 2232 H 212.868 -0.229701 -2.98518 0
M  V30 2233 H 210.414 -0.111913 -1.43564 0
M  V30 2234 H 212.367 2.1165 -3.64393 0
M  V30 2235 H 211.091 2.20994 -2.40477 0
M  V30 2236 H 209.75 0.46871 -3.63591 0
M  V30 2237 H 209.398 2.89883 -4.11068 0
M  V30 2238 H 209.098 1.90521 -5.55856 0
M  V30 2239 H 210.622 2.82614 -5.41259 0
M  V30 2240 H 212.036 0.573509 -5.70424 0
M  V30 2241 H 210.433 -0.160783 -5.99885 0
M  V30 2242 H 211.503 -0.86237 -4.7717 0
M  V30 2243 N 212.846 1.57033 -0.133567 0
M  V30 2244 C 213.796 2.12641 0.822671 0
M  V30 2245 C 214.78 1.05081 1.21847 0
M  V30 2246 O 215.972 1.31287 1.18713 0
M  V30 2247 C 213.101 2.74094 2.06706 0
M  V30 2248 C 212.187 3.88757 1.69497 0
M  V30 2249 N 212.578 4.95194 1.03037 0
M  V30 2250 C 210.876 3.99213 1.98859 0
M  V30 2251 C 211.577 5.75414 0.852873 0
M  V30 2252 N 210.553 5.25726 1.3825 0
M  V30 2253 H 214.355 2.92308 0.305537 0
M  V30 2254 H 211.869 1.62256 0.0684276 0
M  V30 2255 H 213.866 3.12285 2.76195 0
M  V30 2256 H 212.526 1.95896 2.5895 0
M  V30 2257 H 213.537 5.13247 0.692669 0
M  V30 2258 H 210.214 3.32075 2.53047 0
M  V30 2259 H 211.604 6.71089 0.330091 0
M  V30 2260 N 214.325 -0.140222 1.56975 0
M  V30 2261 C 215.257 -1.19818 1.95388 0
M  V30 2262 C 216.27 -1.38816 0.850525 0
M  V30 2263 O 217.459 -1.38267 1.12891 0
M  V30 2264 C 214.559 -2.56189 2.21857 0
M  V30 2265 C 213.732 -2.58077 3.5315 0
M  V30 2266 C 212.791 -3.76037 3.6808 0
M  V30 2267 O 211.817 -3.60598 4.40406 0
M  V30 2268 N 213.019 -4.93763 3.05251 0
M  V30 2269 H 215.784 -0.871609 2.86746 0
M  V30 2270 H 213.345 -0.32972 1.58507 0
M  V30 2271 H 215.337 -3.33623 2.2908 0
M  V30 2272 H 213.907 -2.81111 1.36731 0
M  V30 2273 H 213.127 -1.6651 3.57307 0
M  V30 2274 H 214.415 -2.56377 4.39486 0
M  V30 2275 H 213.813 -5.09209 2.46419 0
M  V30 2276 H 212.37 -5.68949 3.18026 0
M  V30 2277 N 215.803 -1.52179 -0.40978 0
M  V30 2278 C 217.052 -1.65434 -1.15388 0
M  V30 2279 C 217.365 -0.390056 -1.91671 0
M  V30 2280 O 218.571 -0.402399 -2.68501 0
M  V30 2281 C 217.027 -2.92279 -2.10003 0
M  V30 2282 C 216.635 -4.25813 -1.39239 0
M  V30 2283 C 218.379 -3.14897 -2.84675 0
M  V30 2284 C 216.286 -5.43782 -2.32498 0
M  V30 2285 H 215.216 -0.616267 -0.434432 0
M  V30 2286 H 217.867 -1.78666 -0.418401 0
M  V30 2287 H 216.249 -2.72744 -2.871 0
M  V30 2288 H 217.423 -4.55828 -0.675099 0
M  V30 2289 H 215.738 -4.09292 -0.766097 0
M  V30 2290 H 218.335 -4.0021 -3.54593 0
M  V30 2291 H 218.678 -2.29103 -3.47588 0
M  V30 2292 H 219.211 -3.34901 -2.14677 0
M  V30 2293 H 215.95 -6.3192 -1.74233 0
M  V30 2294 H 215.47 -5.18106 -3.02201 0
M  V30 2295 H 217.149 -5.76834 -2.93038 0
M  V30 2296 N 217.281 0.66697 -1.42791 0
M  V30 2297 C 218.53 1.42278 -1.42968 0
M  V30 2298 C 218.843 1.9553 -0.0524489 0
M  V30 2299 O 220.049 2.71414 0.068363 0
M  V30 2300 C 218.505 2.57418 -2.51524 0
M  V30 2301 C 218.113 2.10832 -3.9529 0
M  V30 2302 C 219.857 3.34878 -2.60877 0
M  V30 2303 C 217.764 3.23101 -4.95338 0
M  V30 2304 H 216.694 0.534533 -0.531781 0
M  V30 2305 H 219.345 0.721302 -1.68729 0
M  V30 2306 H 217.727 3.29971 -2.18941 0
M  V30 2307 H 218.901 1.4538 -4.37266 0
M  V30 2308 H 217.216 1.46289 -3.89857 0
M  V30 2309 H 219.813 4.18505 -3.32802 0
M  V30 2310 H 220.156 3.81993 -1.6549 0
M  V30 2311 H 220.689 2.69398 -2.92693 0
M  V30 2312 H 217.428 2.80969 -5.9223 0
M  V30 2313 H 216.948 3.87309 -4.57987 0
M  V30 2314 H 218.627 3.88447 -5.17415 0
M  V30 2315 N 218.759 1.29093 0.90403 0
M  V30 2316 C 219.709 1.10482 1.99443 0
M  V30 2317 C 220.693 0.0255401 1.6088 0
M  V30 2318 O 221.885 0.24677 1.75271 0
M  V30 2319 C 219.014 0.778882 3.34348 0
M  V30 2320 C 218.1 1.89749 3.79284 0
M  V30 2321 N 218.491 3.14045 3.96497 0
M  V30 2322 C 216.789 1.78955 4.08523 0
M  V30 2323 C 217.49 3.86996 4.34292 0
M  V30 2324 N 216.466 3.14909 4.43095 0
M  V30 2325 H 220.268 2.04778 2.10815 0
M  V30 2326 H 217.782 1.20155 1.09255 0
M  V30 2327 H 219.779 0.62661 4.12164 0
M  V30 2328 H 218.439 -0.156205 3.24324 0
M  V30 2329 H 219.45 3.49548 3.82148 0
M  V30 2330 H 216.127 0.926886 4.07081 0
M  V30 2331 H 217.517 4.93941 4.55491 0
M  V30 2332 N 220.237 -1.11381 1.11499 0
M  V30 2333 C 221.462 -1.87475 0.887019 0
M  V30 2334 C 221.887 -1.79639 -0.557796 0
M  V30 2335 O 221.245 -1.15924 -1.39396 0
M  V30 2336 C 221.293 -3.34213 1.35403 0
M  V30 2337 O 220.397 -4.0903 0.526146 0
M  V30 2338 H 219.738 -0.582099 0.319463 0
M  V30 2339 H 222.268 -1.40785 1.48461 0
M  V30 2340 H 222.278 -3.8506 1.34881 0
M  V30 2341 H 220.953 -3.39232 2.40612 0
M  V30 2342 H 219.53 -3.68082 0.597522 0
M  V30 2343 N 221.715 -0.905404 -1.28997 0
M  V30 2344 C 222.94 -0.549175 -1.99997 0
M  V30 2345 C 223.365 0.860276 -1.67275 0
M  V30 2346 O 222.723 1.57355 -0.900502 0
M  V30 2347 C 222.771 -0.755185 -3.52604 0
M  V30 2348 O 221.875 0.189692 -4.11964 0
M  V30 2349 H 221.216 -0.213899 -0.628604 0
M  V30 2350 H 223.746 -1.21856 -1.64354 0
M  V30 2351 H 223.756 -0.662045 -4.02593 0
M  V30 2352 H 222.431 -1.78271 -3.75755 0
M  V30 2353 H 221.008 0.0485257 -3.72868 0
M  V30 2354 N 223.193 1.4272 -0.668489 0
M  V30 2355 C 224.125 2.2914 0.052613 0
M  V30 2356 C 225.138 1.43339 0.771857 0
M  V30 2357 O 226.327 1.67123 0.627067 0
M  V30 2358 C 223.427 3.20618 1.09804 0
M  V30 2359 C 222.6 4.35039 0.45389 0
M  V30 2360 C 221.659 5.07282 1.39825 0
M  V30 2361 O 220.685 5.62024 0.900978 0
M  V30 2362 N 221.887 5.12206 2.73176 0
M  V30 2363 H 224.652 2.91668 -0.689209 0
M  V30 2364 H 222.213 1.53577 -0.512422 0
M  V30 2365 H 224.205 3.65815 1.73094 0
M  V30 2366 H 222.775 2.59585 1.74167 0
M  V30 2367 H 221.995 3.92567 -0.358396 0
M  V30 2368 H 223.283 5.088 0.00486972 0
M  V30 2369 H 222.681 4.6913 3.16122 0
M  V30 2370 H 221.238 5.61069 3.31729 0
M  V30 2371 N 224.671 0.411399 1.52136 0
M  V30 2372 C 226.082 -0.0576826 1.86611 0
M  V30 2373 C 226.433 -1.44238 1.33003 0
M  V30 2374 O 225.558 -2.05759 0.670228 0
M  V30 2375 C 226.153 -0.111448 3.38617 0
M  V30 2376 C 224.712 -0.52487 3.72723 0
M  V30 2377 C 223.859 0.299176 2.75681 0
M  V30 2378 H 226.81 0.628368 1.4573 0
M  V30 2379 H 226.831 -0.926252 3.69054 0
M  V30 2380 H 226.343 0.896488 3.77604 0
M  V30 2381 H 224.444 -1.53936 3.39315 0
M  V30 2382 H 224.557 -0.267681 4.78352 0
M  V30 2383 H 222.921 -0.238814 2.53578 0
M  V30 2384 H 223.704 1.3055 3.17508 0
M  V30 2385 N 226.149 -1.5696 0.141893 0
M  V30 2386 C 227.079 -2.19516 -0.795936 0
M  V30 2387 C 228.06 -1.14187 -1.26077 0
M  V30 2388 O 229.245 -1.42511 -1.31925 0
M  V30 2389 C 226.375 -2.81272 -2.03723 0
M  V30 2390 C 225.329 -3.92384 -1.70936 0
M  V30 2391 C 224.655 -4.41052 -3.02287 0
M  V30 2392 C 225.955 -5.13403 -0.959954 0
M  V30 2393 H 227.649 -2.98138 -0.274596 0
M  V30 2394 H 225.195 -1.43406 -0.130636 0
M  V30 2395 H 227.148 -3.237 -2.69808 0
M  V30 2396 H 225.872 -1.99973 -2.58221 0
M  V30 2397 H 224.531 -3.50566 -1.07232 0
M  V30 2398 H 224.179 -3.56582 -3.54765 0
M  V30 2399 H 223.879 -5.15993 -2.81114 0
M  V30 2400 H 225.403 -4.86146 -3.69451 0
M  V30 2401 H 226.817 -5.52706 -1.52279 0
M  V30 2402 H 225.214 -5.94073 -0.848357 0
M  V30 2403 H 226.284 -4.84875 0.0492434 0
M  V30 2404 N 227.627 0.131896 -1.57047 0
M  V30 2405 C 228.855 0.856461 -1.88341 0
M  V30 2406 C 229.27 1.74042 -0.731757 0
M  V30 2407 O 228.627 1.80051 0.297945 0
M  V30 2408 C 228.678 1.70064 -3.18999 0
M  V30 2409 O 228.399 0.852278 -4.2973 0
M  V30 2410 C 229.9 2.53148 -3.63911 0
M  V30 2411 H 227.12 0.246885 -0.62393 0
M  V30 2412 H 229.664 0.120152 -2.04147 0
M  V30 2413 H 227.819 2.38984 -3.04902 0
M  V30 2414 H 228.233 1.43329 -5.04537 0
M  V30 2415 H 229.707 3.07931 -4.58129 0
M  V30 2416 H 230.184 3.29901 -2.89935 0
M  V30 2417 H 230.79 1.89492 -3.80753 0
M  V30 2418 N 229.106 1.52395 0.401703 0
M  V30 2419 C 230.036 1.79231 1.49661 0
M  V30 2420 C 231.017 0.643654 1.57452 0
M  V30 2421 O 232.202 0.889989 1.72606 0
M  V30 2422 C 229.332 1.94971 2.87409 0
M  V30 2423 C 228.286 3.10604 2.94465 0
M  V30 2424 C 227.612 3.11577 4.34538 0
M  V30 2425 C 228.912 4.49921 2.6527 0
M  V30 2426 H 230.606 2.70917 1.27454 0
M  V30 2427 H 228.152 1.30362 0.6117 0
M  V30 2428 H 230.105 2.12328 3.63999 0
M  V30 2429 H 228.829 0.999632 3.10926 0
M  V30 2430 H 227.488 2.93009 2.20321 0
M  V30 2431 H 227.136 2.14277 4.55076 0
M  V30 2432 H 226.836 3.89247 4.40183 0
M  V30 2433 H 228.36 3.31073 5.13053 0
M  V30 2434 H 229.774 4.67683 3.31581 0
M  V30 2435 H 228.171 5.29564 2.82281 0
M  V30 2436 H 229.241 4.57507 1.60671 0
M  V30 2437 N 230.584 -0.659388 1.43143 0
M  V30 2438 C 231.494 -1.80167 1.50256 0
M  V30 2439 C 232.51 -1.69571 0.390106 0
M  V30 2440 O 233.686 -1.90849 0.643319 0
M  V30 2441 C 230.751 -3.16409 1.41725 0
M  V30 2442 C 229.812 -3.38848 2.63591 0
M  V30 2443 C 229.045 -4.68591 2.55458 0
M  V30 2444 O 229.268 -5.47532 1.59891 0
M  V30 2445 O 228.202 -4.92614 3.45854 0
M  V30 2446 H 232.028 -1.77121 2.46702 0
M  V30 2447 H 229.613 -0.817092 1.25076 0
M  V30 2448 H 231.495 -3.9768 1.39387 0
M  V30 2449 H 230.17 -3.20059 0.484118 0
M  V30 2450 H 229.077 -2.57366 2.71502 0
M  V30 2451 H 230.41 -3.4004 3.55856 0
M  V30 2452 N 232.062 -1.29571 -0.897171 0
M  V30 2453 C 233.012 -1.11539 -1.98855 0
M  V30 2454 C 233.996 -0.0340716 -1.60864 0
M  V30 2455 O 235.188 -0.256062 -1.75138 0
M  V30 2456 C 232.317 -0.796603 -3.3393 0
M  V30 2457 C 231.403 -1.91758 -3.78272 0
M  V30 2458 N 231.794 -3.16143 -3.94826 0
M  V30 2459 C 230.092 -1.81119 -4.07568 0
M  V30 2460 C 230.793 -3.89293 -4.32233 0
M  V30 2461 N 229.769 -3.17255 -4.41419 0
M  V30 2462 H 233.571 -2.05894 -2.09726 0
M  V30 2463 H 231.085 -1.20732 -1.08616 0
M  V30 2464 H 233.082 -0.648459 -4.11826 0
M  V30 2465 H 231.742 0.139003 -3.24402 0
M  V30 2466 H 232.753 -3.5157 -3.80288 0
M  V30 2467 H 229.43 -0.948461 -4.06584 0
M  V30 2468 H 230.82 -4.9635 -4.52865 0
M  V30 2469 N 233.54 1.10788 -1.12088 0
M  V30 2470 C 234.786 1.82942 -0.875226 0
M  V30 2471 C 235.119 1.84779 0.597538 0
M  V30 2472 O 234.394 1.30578 1.44152 0
M  V30 2473 C 234.677 3.29789 -1.44606 0
M  V30 2474 C 234.53 3.36307 -2.98693 0
M  V30 2475 C 235.849 4.26064 -1.10261 0
M  V30 2476 H 232.968 0.664195 -0.319397 0
M  V30 2477 H 235.61 1.29867 -1.38689 0
M  V30 2478 H 233.76 3.75118 -1.01089 0
M  V30 2479 H 235.432 2.99487 -3.50864 0
M  V30 2480 H 233.675 2.76318 -3.34411 0
M  V30 2481 H 234.346 4.39694 -3.33726 0
M  V30 2482 H 236.822 3.88951 -1.4784 0
M  V30 2483 H 235.698 5.27183 -1.52869 0
M  V30 2484 H 235.959 4.42098 -0.0142953 0
M  V30 2485 N 235.018 0.912232 1.28515 0
M  V30 2486 C 236.434 0.610159 1.47476 0
M  V30 2487 C 236.634 -0.844955 1.82928 0
M  V30 2488 O 235.69 -1.62416 1.93332 0
M  V30 2489 C 237.003 1.54675 2.57868 0
M  V30 2490 C 238.551 1.55331 2.71738 0
M  V30 2491 C 239.026 2.47649 3.85272 0
M  V30 2492 N 240.517 2.45767 3.92623 0
M  V30 2493 C 241.252 3.13896 4.79851 0
M  V30 2494 N 240.748 3.9135 5.71679 0
M  V30 2495 N 242.541 3.02991 4.73448 0
M  V30 2496 H 234.692 1.85318 1.03783 0
M  V30 2497 H 236.955 0.794777 0.516753 0
M  V30 2498 H 236.661 2.5841 2.38574 0
M  V30 2499 H 236.535 1.27671 3.54937 0
M  V30 2500 H 238.922 0.52335 2.90422 0
M  V30 2501 H 239.003 1.86378 1.75205 0
M  V30 2502 H 238.647 3.50745 3.67342 0
M  V30 2503 H 238.577 2.13904 4.81199 0
M  V30 2504 H 241.068 1.89503 3.26951 0
M  V30 2505 H 241.381 4.40359 6.35062 0
M  V30 2506 H 239.726 3.95455 5.71524 0
M  V30 2507 H 242.917 2.41987 4.007 0
M  V30 2508 H 243.09 3.5636 5.41213 0
M  V30 2509 N 236.496 -1.42363 0.676048 0
M  V30 2510 C 237.726 -2.05561 0.206967 0
M  V30 2511 C 238.134 -1.50887 -1.14148 0
M  V30 2512 O 237.477 -0.643933 -1.72044 0
M  V30 2513 C 237.539 -3.5944 0.0659508 0
M  V30 2514 C 237.203 -4.36812 1.34331 0
M  V30 2515 C 238.2 -4.67383 2.27704 0
M  V30 2516 C 235.885 -4.76429 1.59125 0
M  V30 2517 C 237.879 -5.36509 3.44147 0
M  V30 2518 C 235.566 -5.45294 2.75857 0
M  V30 2519 C 236.564 -5.75259 3.68193 0
M  V30 2520 O 236.252 -6.42712 4.82883 0
M  V30 2521 H 235.984 -0.668872 0.0979084 0
M  V30 2522 H 238.538 -1.83467 0.923531 0
M  V30 2523 H 236.768 -3.80197 -0.706204 0
M  V30 2524 H 238.457 -4.0427 -0.363418 0
M  V30 2525 H 239.223 -4.37275 2.09799 0
M  V30 2526 H 235.102 -4.52498 0.881258 0
M  V30 2527 H 238.646 -5.59814 4.16238 0
M  V30 2528 H 234.543 -5.7482 2.93688 0
M  V30 2529 H 235.311 -6.61204 4.82444 0
M  V30 2530 N 237.974 -0.419461 -1.51915 0
M  V30 2531 C 239.221 0.152939 -2.01922 0
M  V30 2532 C 239.549 1.4426 -1.30458 0
M  V30 2533 O 238.804 1.91514 -0.402593 0
M  V30 2534 C 239.103 0.437067 -3.54717 0
M  V30 2535 C 238.769 -0.764632 -4.44369 0
M  V30 2536 C 237.431 -1.09423 -4.68594 0
M  V30 2537 C 239.783 -1.56713 -4.97082 0
M  V30 2538 C 237.111 -2.22732 -5.42777 0
M  V30 2539 C 239.463 -2.69107 -5.72507 0
M  V30 2540 C 238.127 -3.02541 -5.95 0
M  V30 2541 H 237.397 0.0559644 -0.738884 0
M  V30 2542 H 240.044 -0.562998 -1.83037 0
M  V30 2543 H 238.349 1.23469 -3.71837 0
M  V30 2544 H 240.046 0.893083 -3.90928 0
M  V30 2545 H 236.636 -0.497775 -4.257 0
M  V30 2546 H 240.82 -1.32571 -4.78266 0
M  V30 2547 H 236.076 -2.48971 -5.58411 0
M  V30 2548 H 240.25 -3.31671 -6.12346 0
M  V30 2549 H 237.877 -3.90457 -6.52264 0
M  V30 2550 N 239.452 1.56882 -0.150215 0
M  V30 2551 C 240.382 2.19935 0.784284 0
M  V30 2552 C 241.363 1.14854 1.25469 0
M  V30 2553 O 242.548 1.43209 1.31168 0
M  V30 2554 C 239.678 2.82349 2.02229 0
M  V30 2555 C 238.632 3.93285 1.68853 0
M  V30 2556 C 237.958 4.42649 2.99944 0
M  V30 2557 C 239.258 5.13904 0.932714 0
M  V30 2558 H 240.952 2.9828 0.258781 0
M  V30 2559 H 238.498 1.43473 0.123029 0
M  V30 2560 H 240.451 3.25126 2.68088 0
M  V30 2561 H 239.175 2.0134 2.57157 0
M  V30 2562 H 237.834 3.5113 1.05371 0
M  V30 2563 H 237.482 3.58458 3.52869 0
M  V30 2564 H 237.182 5.17476 2.78374 0
M  V30 2565 H 238.706 4.88099 3.66868 0
M  V30 2566 H 240.12 5.53506 1.49345 0
M  V30 2567 H 238.517 5.94515 0.81684 0
M  V30 2568 H 239.587 4.84842 -0.0749568 0
M  V30 2569 N 240.93 -0.123565 1.57115 0
M  V30 2570 C 242.16 -0.845233 1.88519 0
M  V30 2571 C 242.568 -1.74168 0.739064 0
M  V30 2572 O 241.911 -1.81244 -0.299355 0
M  V30 2573 C 241.973 -1.73452 3.14888 0
M  V30 2574 C 241.637 -1.01285 4.45635 0
M  V30 2575 C 242.634 -0.355774 5.18681 0
M  V30 2576 C 240.319 -0.99538 4.92339 0
M  V30 2577 C 242.313 0.309114 6.3665 0
M  V30 2578 C 240 -0.32669 6.10226 0
M  V30 2579 C 240.998 0.324406 6.82229 0
M  V30 2580 O 240.686 0.982437 7.97874 0
M  V30 2581 H 240.418 -0.248534 0.628655 0
M  V30 2582 H 242.972 -0.113907 2.05084 0
M  V30 2583 H 241.202 -2.50737 2.94394 0
M  V30 2584 H 242.891 -2.33021 3.32349 0
M  V30 2585 H 243.657 -0.360918 4.83655 0
M  V30 2586 H 239.536 -1.49159 4.36202 0
M  V30 2587 H 243.08 0.8179 6.92789 0
M  V30 2588 H 238.977 -0.319294 6.4471 0
M  V30 2589 H 239.745 0.886454 8.13686 0
M  V30 2590 N 242.408 -1.52605 -0.393616 0
M  V30 2591 C 243.34 -1.73303 -1.49995 0
M  V30 2592 C 244.353 -0.613473 -1.50799 0
M  V30 2593 O 245.542 -0.889049 -1.54784 0
M  V30 2594 C 242.642 -1.77245 -2.88855 0
M  V30 2595 C 241.815 -3.06483 -3.12069 0
M  V30 2596 C 240.874 -3.02033 -4.30886 0
M  V30 2597 O 239.9 -3.75907 -4.27414 0
M  V30 2598 N 241.102 -2.20897 -5.36828 0
M  V30 2599 H 243.867 -2.68756 -1.32629 0
M  V30 2600 H 241.428 -1.51036 -0.583083 0
M  V30 2601 H 243.42 -1.7178 -3.66434 0
M  V30 2602 H 241.99 -0.891993 -2.99603 0
M  V30 2603 H 241.21 -3.25474 -2.22396 0
M  V30 2604 H 242.498 -3.91947 -3.2443 0
M  V30 2605 H 241.896 -1.60336 -5.42502 0
M  V30 2606 H 240.453 -2.21275 -6.13091 0
M  V30 2607 N 243.887 0.651787 -1.4349 0
M  V30 2608 C 244.817 1.77621 -1.51569 0
M  V30 2609 C 245.798 1.66022 -0.370253 0
M  V30 2610 O 246.983 1.85095 -0.587658 0
M  V30 2611 C 244.113 3.16056 -1.43966 0
M  V30 2612 C 243.067 3.4242 -2.56774 0
M  V30 2613 C 242.393 4.8067 -2.34223 0
M  V30 2614 C 243.693 3.37023 -3.99015 0
M  V30 2615 H 245.387 1.71117 -2.45681 0
M  V30 2616 H 242.933 0.821825 -1.18246 0
M  V30 2617 H 244.886 3.94472 -1.48221 0
M  V30 2618 H 243.61 3.23293 -0.463586 0
M  V30 2619 H 242.269 2.66375 -2.51873 0
M  V30 2620 H 241.917 4.84585 -1.34856 0
M  V30 2621 H 241.617 4.9927 -3.09844 0
M  V30 2622 H 243.141 5.61342 -2.40265 0
M  V30 2623 H 244.555 4.05374 -4.05395 0
M  V30 2624 H 242.952 3.67159 -4.74673 0
M  V30 2625 H 244.022 2.3518 -4.2405 0
M  V30 2626 N 245.365 1.30045 0.890287 0
M  V30 2627 C 246.295 1.18541 2.01172 0
M  V30 2628 C 247.276 0.0773356 1.69924 0
M  V30 2629 O 248.461 0.25845 1.92473 0
M  V30 2630 C 245.591 0.870941 3.36202 0
M  V30 2631 C 244.545 1.93637 3.81692 0
M  V30 2632 C 243.871 1.475 5.13953 0
M  V30 2633 C 245.171 3.34666 4.00994 0
M  V30 2634 H 246.865 2.12359 2.11054 0
M  V30 2635 H 244.411 1.02238 1.01407 0
M  V30 2636 H 246.364 0.777141 4.14172 0
M  V30 2637 H 245.088 -0.102926 3.26438 0
M  V30 2638 H 243.747 2.01972 3.05946 0
M  V30 2639 H 243.395 0.489551 5.00612 0
M  V30 2640 H 243.095 2.1876 5.4536 0
M  V30 2641 H 244.619 1.39489 5.94454 0
M  V30 2642 H 246.033 3.2912 4.69417 0
M  V30 2643 H 244.43 4.03966 4.43769 0
M  V30 2644 H 245.5 3.76949 3.05021 0
M  V30 2645 N 246.843 -1.10192 1.12674 0
M  V30 2646 C 248.259 -1.34235 0.863317 0
M  V30 2647 C 248.459 -1.95062 -0.505277 0
M  V30 2648 O 247.515 -2.19192 -1.25345 0
M  V30 2649 C 248.828 -2.2616 1.98172 0
M  V30 2650 C 250.376 -2.3969 2.0129 0
M  V30 2651 C 250.851 -3.34946 3.1237 0
M  V30 2652 N 252.342 -3.42515 3.11829 0
M  V30 2653 C 253.077 -4.16199 3.94419 0
M  V30 2654 N 252.573 -4.92747 4.87004 0
M  V30 2655 N 254.366 -4.11843 3.82547 0
M  V30 2656 H 246.517 -0.690798 2.00853 0
M  V30 2657 H 248.78 -0.366774 0.874174 0
M  V30 2658 H 248.486 -1.8868 2.96804 0
M  V30 2659 H 248.36 -3.26488 1.88906 0
M  V30 2660 H 250.747 -2.76438 1.03276 0
M  V30 2661 H 250.828 -1.39169 2.14629 0
M  V30 2662 H 250.472 -2.98923 4.10619 0
M  V30 2663 H 250.402 -4.35353 2.96269 0
M  V30 2664 H 252.893 -2.87926 2.44759 0
M  V30 2665 H 253.206 -5.46376 5.46528 0
M  V30 2666 H 251.551 -4.91862 4.91016 0
M  V30 2667 H 254.742 -3.51136 3.0955 0
M  V30 2668 H 254.915 -4.69007 4.47142 0
M  V30 2669 N 248.321 -0.919034 -1.28029 0
M  V30 2670 C 249.569 -0.553838 -1.94363 0
M  V30 2671 C 249.89 0.906357 -1.72656 0
M  V30 2672 O 249.16 1.64143 -1.0693 0
M  V30 2673 H 247.74 -0.201834 -0.719216 0
M  V30 2674 H 250.402 -1.16954 -1.55909 0
M  V30 2675 H 249.498 -0.752758 -3.02886 0
M  V30 2676 N 249.799 1.42003 -0.683588 0
M  V30 2677 C 250.729 2.33487 -0.024866 0
M  V30 2678 C 251.71 1.51163 0.779975 0
M  V30 2679 O 252.895 1.79739 0.735362 0
M  V30 2680 C 250.025 3.3487 0.920836 0
M  V30 2681 C 248.979 4.27414 0.223958 0
M  V30 2682 C 248.305 5.19074 1.2832 0
M  V30 2683 C 249.605 5.14445 -0.90242 0
M  V30 2684 H 251.299 2.88819 -0.788921 0
M  V30 2685 H 248.845 1.38873 -0.38083 0
M  V30 2686 H 250.798 3.97787 1.39081 0
M  V30 2687 H 249.522 2.77861 1.71642 0
M  V30 2688 H 248.181 3.65904 -0.225864 0
M  V30 2689 H 247.829 4.58387 2.071 0
M  V30 2690 H 247.529 5.81822 0.821995 0
M  V30 2691 H 249.053 5.84867 1.75392 0
M  V30 2692 H 250.467 5.70998 -0.513272 0
M  V30 2693 H 248.864 5.86072 -1.28997 0
M  V30 2694 H 249.934 4.52322 -1.74737 0
M  V30 2695 N 251.277 0.427512 1.51691 0
M  V30 2696 C 252.224 -0.388867 2.275 0
M  V30 2697 C 253.194 -1.02532 1.30677 0
M  V30 2698 O 254.379 -1.0461 1.59566 0
M  V30 2699 C 251.519 -1.48954 3.11298 0
M  V30 2700 C 250.632 -0.872194 4.23104 0
M  V30 2701 C 249.767 -1.94709 4.94228 0
M  V30 2702 C 248.806 -1.30766 5.97969 0
M  V30 2703 N 247.943 -2.32349 6.62539 0
M  V30 2704 H 252.783 0.263997 2.96828 0
M  V30 2705 H 250.32 0.142033 1.46413 0
M  V30 2706 H 252.278 -2.13887 3.58201 0
M  V30 2707 H 250.908 -2.11217 2.44105 0
M  V30 2708 H 249.96 -0.111419 3.80237 0
M  V30 2709 H 251.272 -0.365264 4.97461 0
M  V30 2710 H 250.426 -2.67327 5.44629 0
M  V30 2711 H 249.165 -2.48773 4.1948 0
M  V30 2712 H 248.17 -0.566902 5.4687 0
M  V30 2713 H 249.395 -0.774483 6.74669 0
M  V30 2714 H 247.341 -2.85511 5.90609 0
M  V30 2715 H 247.258 -1.8652 7.3263 0
M  V30 2716 H 248.526 -3.04481 7.17574 0
M  V30 2717 N 252.755 -1.56801 0.158532 0
M  V30 2718 C 253.985 -2.00568 -0.495583 0
M  V30 2719 C 254.393 -1.03774 -1.58201 0
M  V30 2720 O 253.736 -0.0285797 -1.83678 0
M  V30 2721 C 253.798 -3.40768 -1.14532 0
M  V30 2722 C 253.462 -4.56553 -0.202101 0
M  V30 2723 C 254.459 -5.16714 0.574675 0
M  V30 2724 C 252.144 -5.02197 -0.101648 0
M  V30 2725 C 254.138 -6.20939 1.43924 0
M  V30 2726 C 251.825 -6.06274 0.766508 0
M  V30 2727 C 252.823 -6.65515 1.53555 0
M  V30 2728 O 252.511 -7.67575 2.38922 0
M  V30 2729 H 252.243 -0.662893 -0.13247 0
M  V30 2730 H 254.797 -2.03829 0.253559 0
M  V30 2731 H 253.027 -3.34381 -1.94233 0
M  V30 2732 H 254.716 -3.6857 -1.70033 0
M  V30 2733 H 255.482 -4.82341 0.507167 0
M  V30 2734 H 251.361 -4.55807 -0.689994 0
M  V30 2735 H 254.905 -6.67107 2.03996 0
M  V30 2736 H 250.802 -6.40073 0.835266 0
M  V30 2737 H 251.57 -7.84844 2.32296 0
M  V30 2738 N 254.233 0.115231 -1.57178 0
M  V30 2739 C 255.166 1.17166 -1.95825 0
M  V30 2740 C 256.144 1.39912 -0.828463 0
M  V30 2741 O 257.328 1.54004 -1.08697 0
M  V30 2742 C 254.455 2.52478 -2.25771 0
M  V30 2743 C 253.501 2.46136 -3.48309 0
M  V30 2744 S 254.334 1.89736 -5.0076 0
M  V30 2745 C 255.49 3.26713 -5.33863 0
M  V30 2746 H 255.723 0.842103 -2.85124 0
M  V30 2747 H 253.256 0.322136 -1.51002 0
M  V30 2748 H 255.214 3.30332 -2.43702 0
M  V30 2749 H 253.875 2.82609 -1.37079 0
M  V30 2750 H 253.068 3.45819 -3.66641 0
M  V30 2751 H 252.67 1.76404 -3.29784 0
M  V30 2752 H 254.962 4.22935 -5.29275 0
M  V30 2753 H 255.905 3.13205 -6.35065 0
M  V30 2754 H 256.313 3.25316 -4.61335 0
M  V30 2755 N 255.711 1.52812 0.385517 0
M  V30 2756 C 256.661 1.74219 1.47078 0
M  V30 2757 C 257.645 0.59632 1.49442 0
M  V30 2758 O 258.837 0.85428 1.5502 0
M  V30 2759 C 255.966 1.9176 2.84751 0
M  V30 2760 C 255.052 3.12289 2.86943 0
M  V30 2761 N 255.443 4.34575 2.58802 0
M  V30 2762 C 253.741 3.12605 3.1811 0
M  V30 2763 C 254.442 5.162 2.68166 0
M  V30 2764 N 253.418 4.51964 3.02043 0
M  V30 2765 H 257.22 2.6639 1.24152 0
M  V30 2766 H 254.734 1.51166 0.593504 0
M  V30 2767 H 256.731 2.05218 3.62893 0
M  V30 2768 H 255.391 1.00805 3.08656 0
M  V30 2769 H 256.402 4.62649 2.32759 0
M  V30 2770 H 253.079 2.31472 3.47458 0
M  V30 2771 H 254.469 6.23689 2.49923 0
M  V30 2772 N 257.189 -0.644168 1.43834 0
M  V30 2773 C 258.414 -1.43642 1.49605 0
M  V30 2774 C 258.839 -1.8773 0.117913 0
M  V30 2775 O 258.197 -1.57938 -0.890239 0
M  V30 2776 C 258.245 -2.6416 2.45463 0
M  V30 2777 O 257.349 -3.63538 1.94714 0
M  V30 2778 H 256.69 -0.430329 0.50568 0
M  V30 2779 H 259.22 -0.787448 1.8884 0
M  V30 2780 H 259.23 -3.11864 2.63068 0
M  V30 2781 H 257.905 -2.31414 3.45572 0
M  V30 2782 H 256.482 -3.2273 1.86814 0
M  V30 2783 N 258.668 -1.30515 -0.883378 0
M  V30 2784 C 259.631 -1.1701 -1.97082 0
M  V30 2785 C 260.631 -0.10089 -1.60483 0
M  V30 2786 O 261.821 -0.349127 -1.70666 0
M  V30 2787 C 258.953 -0.793045 -3.31547 0
M  V30 2788 H 260.146 -2.13622 -2.10489 0
M  V30 2789 H 257.699 -1.13935 -1.06998 0
M  V30 2790 H 258.434 0.172499 -3.23841 0
M  V30 2791 H 258.219 -1.56576 -3.5948 0
M  V30 2792 H 259.709 -0.722073 -4.1131 0
M  V30 2793 N 260.146 1.09593 -1.13257 0
M  V30 2794 C 261.078 2.16015 -0.766167 0
M  V30 2795 C 262.091 1.61423 0.211303 0
M  V30 2796 O 263.28 1.78498 -0.00863946 0
M  V30 2797 C 260.38 3.38706 -0.114662 0
M  V30 2798 C 259.553 4.22717 -1.12379 0
M  V30 2799 C 258.612 5.23835 -0.498301 0
M  V30 2800 O 257.638 5.573 -1.15781 0
M  V30 2801 N 258.84 5.75886 0.730417 0
M  V30 2802 H 261.605 2.48055 -1.68193 0
M  V30 2803 H 259.166 1.25292 -1.02535 0
M  V30 2804 H 261.158 4.03464 0.315991 0
M  V30 2805 H 259.728 3.04569 0.704011 0
M  V30 2806 H 258.948 3.54122 -1.73179 0
M  V30 2807 H 260.236 4.75673 -1.80589 0
M  V30 2808 H 259.634 5.50911 1.28504 0
M  V30 2809 H 258.191 6.42387 1.10376 0
M  V30 2810 N 261.624 0.925811 1.2754 0
M  V30 2811 C 262.87 0.566092 1.94739 0
M  V30 2812 C 263.203 -0.890057 1.72603 0
M  V30 2813 O 262.478 -1.63467 1.05399 0
M  V30 2814 C 262.761 0.89054 3.48915 0
M  V30 2815 C 262.614 2.4003 3.80402 0
M  V30 2816 C 263.933 0.395101 4.38323 0
M  V30 2817 H 261.052 0.20714 0.707292 0
M  V30 2818 H 263.694 1.15725 1.50691 0
M  V30 2819 H 261.844 0.387452 3.86563 0
M  V30 2820 H 263.516 2.97494 3.52555 0
M  V30 2821 H 261.759 2.85028 3.2702 0
M  V30 2822 H 262.43 2.57785 4.8811 0
M  V30 2823 H 264.906 0.826241 4.07814 0
M  V30 2824 H 263.782 0.651086 5.45025 0
M  V30 2825 H 264.043 -0.704798 4.36446 0
M  V30 2826 N 263.102 -1.41638 0.69111 0
M  V30 2827 C 264.351 -2.00526 0.217318 0
M  V30 2828 C 264.664 -1.55353 -1.18848 0
M  V30 2829 O 265.87 -2.06769 -1.75951 0
M  V30 2830 C 264.326 -3.58313 0.337639 0
M  V30 2831 C 263.934 -4.12469 1.74852 0
M  V30 2832 C 265.678 -4.24431 -0.0766066 0
M  V30 2833 C 263.585 -5.62675 1.82074 0
M  V30 2834 H 262.515 -0.750008 0.0774893 0
M  V30 2835 H 265.166 -1.6217 0.858661 0
M  V30 2836 H 263.548 -3.9425 -0.371879 0
M  V30 2837 H 264.722 -3.8796 2.48644 0
M  V30 2838 H 263.037 -3.58861 2.11205 0
M  V30 2839 H 265.634 -5.34683 -0.0430284 0
M  V30 2840 H 265.977 -4.01101 -1.1146 0
M  V30 2841 H 266.51 -3.93512 0.582476 0
M  V30 2842 H 263.249 -5.90826 2.83911 0
M  V30 2843 H 262.769 -5.89124 1.12661 0
M  V30 2844 H 264.448 -6.27371 1.58159 0
M  V30 2845 N 264.58 -0.43555 -1.51462 0
M  V30 2846 C 265.53 0.394701 -2.24558 0
M  V30 2847 C 266.514 0.99157 -1.26715 0
M  V30 2848 O 267.706 0.910007 -1.51815 0
M  V30 2849 C 264.835 1.4963 -3.08975 0
M  V30 2850 C 263.921 0.908912 -4.14246 0
M  V30 2851 N 264.312 0.0505335 -5.05775 0
M  V30 2852 C 262.61 1.17668 -4.30198 0
M  V30 2853 C 263.311 -0.279161 -5.8103 0
M  V30 2854 N 262.287 0.336767 -5.42556 0
M  V30 2855 H 266.089 -0.267106 -2.92684 0
M  V30 2856 H 263.603 -0.247518 -1.60503 0
M  V30 2857 H 265.6 2.10394 -3.59917 0
M  V30 2858 H 264.26 2.16046 -2.42393 0
M  V30 2859 H 265.271 -0.31577 -5.16936 0
M  V30 2860 H 261.948 1.83847 -3.74842 0
M  V30 2861 H 263.338 -0.977553 -6.64751 0
M  V30 2862 N 266.058 1.56714 -0.166846 0
M  V30 2863 C 267.474 1.58473 0.189372 0
M  V30 2864 C 267.674 1.18201 1.63189 0
M  V30 2865 O 266.73 0.891528 2.36237 0
M  V30 2866 C 268.043 3.00573 -0.0873872 0
M  V30 2867 C 269.591 3.1299 -0.0252443 0
M  V30 2868 C 270.066 4.57174 -0.274934 0
M  V30 2869 N 271.557 4.62665 -0.222553 0
M  V30 2870 C 272.292 5.72072 -0.389985 0
M  V30 2871 N 271.788 6.90054 -0.616229 0
M  V30 2872 N 273.581 5.61153 -0.326202 0
M  V30 2873 H 265.732 1.8118 -1.10849 0
M  V30 2874 H 267.995 0.839525 -0.440342 0
M  V30 2875 H 267.701 3.34497 -1.0865 0
M  V30 2876 H 267.575 3.72019 0.623037 0
M  V30 2877 H 269.962 2.78895 0.96444 0
M  V30 2878 H 270.043 2.43989 -0.768309 0
M  V30 2879 H 269.687 4.91976 -1.26181 0
M  V30 2880 H 269.617 5.24328 0.48869 0
M  V30 2881 H 272.108 3.77863 -0.0531512 0
M  V30 2882 H 272.421 7.69311 -0.733559 0
M  V30 2883 H 270.766 6.91927 -0.652791 0
M  V30 2884 H 273.957 4.67859 -0.150072 0
M  V30 2885 H 274.13 6.46364 -0.460116 0
M  V30 2886 N 267.536 -0.106894 1.57237 0
M  V30 2887 C 268.813 -0.843526 1.76477 0
M  V30 2888 C 269.193 -1.97499 0.745464 0
M  V30 2889 O 268.541 -2.27357 -0.228306 0
M  V30 2890 C 268.751 -1.34903 3.21873 0
M  V30 2891 C 270.099 -1.79654 3.8472 0
M  V30 2892 O 271.123 -1.44554 3.2555 0
M  V30 2893 O 269.982 -2.44515 4.88748 0
M  V30 2894 H 267.076 -0.401468 0.723016 0
M  V30 2895 H 269.622 -0.0896927 1.69463 0
M  V30 2896 H 268.394 -0.53781 3.87586 0
M  V30 2897 H 268.017 -2.16522 3.33473 0
M  V30 2898 N 269.014 -1.53014 -0.377408 0
M  V30 2899 C 269.944 -1.81589 -1.46791 0
M  V30 2900 C 270.925 -0.668622 -1.56408 0
M  V30 2901 O 272.11 -0.917337 -1.71168 0
M  V30 2902 C 269.24 -1.99519 -2.8427 0
M  V30 2903 C 268.194 -3.15249 -2.89486 0
M  V30 2904 C 267.52 -3.18451 -4.29527 0
M  V30 2905 C 268.82 -4.54084 -2.58079 0
M  V30 2906 H 270.514 -2.7291 -1.23127 0
M  V30 2907 H 268.06 -1.31319 -0.590883 0
M  V30 2908 H 270.013 -2.18092 -3.60575 0
M  V30 2909 H 268.737 -1.04897 -3.09296 0
M  V30 2910 H 267.396 -2.96477 -2.15631 0
M  V30 2911 H 267.044 -2.2149 -4.5161 0
M  V30 2912 H 266.744 -3.962 -4.33934 0
M  V30 2913 H 268.268 -3.39193 -5.07721 0
M  V30 2914 H 269.682 -4.72899 -3.24098 0
M  V30 2915 H 268.079 -5.33987 -2.7382 0
M  V30 2916 H 269.149 -4.60006 -1.53372 0
M  V30 2917 N 270.492 0.636531 -1.44174 0
M  V30 2918 C 271.439 1.74875 -1.50624 0
M  V30 2919 C 272.409 1.62275 -0.35442 0
M  V30 2920 O 273.594 1.82276 -0.563908 0
M  V30 2921 C 270.734 3.13102 -1.45125 0
M  V30 2922 C 269.847 3.36717 -2.7064 0
M  V30 2923 C 268.982 4.64885 -2.57013 0
M  V30 2924 C 268.021 4.8166 -3.77717 0
M  V30 2925 N 267.158 6.01101 -3.62798 0
M  V30 2926 H 271.998 1.68697 -2.45653 0
M  V30 2927 H 269.535 0.823004 -1.21922 0
M  V30 2928 H 271.493 3.93034 -1.39929 0
M  V30 2929 H 270.123 3.18308 -0.536671 0
M  V30 2930 H 269.175 2.50763 -2.86046 0
M  V30 2931 H 270.487 3.44993 -3.60252 0
M  V30 2932 H 269.641 5.52969 -2.49619 0
M  V30 2933 H 268.38 4.58957 -1.64953 0
M  V30 2934 H 267.385 3.92007 -3.85501 0
M  V30 2935 H 268.61 4.89406 -4.70807 0
M  V30 2936 H 266.556 5.96273 -2.73486 0
M  V30 2937 H 266.473 6.10409 -4.46023 0
M  V30 2938 H 267.741 6.91761 -3.59286 0
M  V30 2939 N 271.97 1.30982 0.876444 0
M  V30 2940 C 273.381 1.18277 1.44456 0
M  V30 2941 C 273.732 -0.213265 1.95037 0
M  V30 2942 O 272.857 -1.11057 1.85729 0
M  V30 2943 C 273.452 2.1411 2.62569 0
M  V30 2944 C 272.011 2.05358 3.15444 0
M  V30 2945 C 271.158 2.03706 1.88146 0
M  V30 2946 H 274.109 1.43127 0.685584 0
M  V30 2947 H 274.13 1.72692 3.39054 0
M  V30 2948 H 273.642 3.15706 2.25724 0
M  V30 2949 H 271.743 1.06934 3.56926 0
M  V30 2950 H 271.856 2.94156 3.78166 0
M  V30 2951 H 270.22 1.48629 2.06837 0
M  V30 2952 H 271.003 3.07047 1.53547 0
M  V30 2953 N 273.449 -1.08991 1.13837 0
M  V30 2954 C 274.674 -1.85551 0.926585 0
M  V30 2955 C 275.099 -1.80782 -0.519566 0
M  V30 2956 O 274.457 -1.18855 -1.36906 0
M  V30 2957 C 274.505 -3.31266 1.42462 0
M  V30 2958 O 273.609 -4.07822 0.612789 0
M  V30 2959 H 272.95 -0.575192 0.331738 0
M  V30 2960 H 275.48 -1.37604 1.51414 0
M  V30 2961 H 275.49 -3.82112 1.43019 0
M  V30 2962 H 274.165 -3.34052 2.47754 0
M  V30 2963 H 272.742 -3.66731 0.675463 0
M  V30 2964 N 274.927 -0.932562 -1.27047 0
M  V30 2965 C 275.875 -0.42603 -2.28665 0
M  V30 2966 C 276.869 0.49219 -1.62092 0
M  V30 2967 O 278.075 0.371355 -1.76128 0
M  V30 2968 H 274.45 -0.119213 -0.742491 0
M  V30 2969 H 276.421 -1.29579 -2.68797 0
M  V30 2970 C 275.17 0.301426 -3.46391 0
M  V30 2971 H 274.493 -0.39595 -3.97834 0
M  V30 2972 H 275.933 0.6202 -4.1944 0
M  V30 2973 C 274.392 1.51616 -3.00856 0
M  V30 2974 O 274.922 2.61476 -3.04948 0
M  V30 2975 N 273.128 1.36969 -2.56296 0
M  V30 2976 H 272.675 0.475873 -2.53166 0
M  V30 2977 H 272.633 2.18368 -2.26192 0
M  V30 2978 N 276.405 1.4127 -0.698611 0
M  V30 2979 C 277.335 2.33447 -0.049629 0
M  V30 2980 C 278.316 1.51982 0.763898 0
M  V30 2981 O 279.501 1.80509 0.716257 0
M  V30 2982 C 276.631 3.35828 0.885267 0
M  V30 2983 C 275.585 4.27627 0.178613 0
M  V30 2984 C 274.911 5.20406 1.22807 0
M  V30 2985 C 276.211 5.13459 -0.956933 0
M  V30 2986 H 277.905 2.87966 -0.81951 0
M  V30 2987 H 275.451 1.38461 -0.395538 0
M  V30 2988 H 277.404 3.9924 1.34854 0
M  V30 2989 H 276.128 2.79666 1.68685 0
M  V30 2990 H 274.787 3.65643 -0.26466 0
M  V30 2991 H 274.435 4.60558 2.02226 0
M  V30 2992 H 274.135 5.82661 0.760239 0
M  V30 2993 H 275.659 5.86695 1.69179 0
M  V30 2994 H 277.073 5.70421 -0.573805 0
M  V30 2995 H 275.47 5.8467 -1.35205 0
M  V30 2996 H 276.54 4.50443 -1.79524 0
M  V30 2997 N 277.883 0.443576 1.51229 0
M  V30 2998 C 278.813 -0.355142 2.30783 0
M  V30 2999 C 279.794 -1.0154 1.36468 0
M  V30 3000 O 280.979 -1.01785 1.65389 0
M  V30 3001 C 278.109 -1.45312 3.15439 0
M  V30 3002 C 277.063 -0.916002 4.18083 0
M  V30 3003 C 276.389 -2.1102 4.91299 0
M  V30 3004 C 277.689 0.0538602 5.22272 0
M  V30 3005 H 279.383 0.308767 2.97804 0
M  V30 3006 H 276.929 0.149937 1.43217 0
M  V30 3007 H 278.882 -2.01914 3.69876 0
M  V30 3008 H 277.606 -2.14541 2.46252 0
M  V30 3009 H 276.265 -0.372145 3.64706 0
M  V30 3010 H 275.913 -2.78882 4.18609 0
M  V30 3011 H 275.613 -1.75717 5.60712 0
M  V30 3012 H 277.137 -2.68164 5.48562 0
M  V30 3013 H 278.551 -0.422069 5.71744 0
M  V30 3014 H 276.948 0.319776 5.99247 0
M  V30 3015 H 278.018 0.98858 4.74716 0
M  V30 3016 N 279.361 -1.56624 0.175154 0
M  V30 3017 C 280.607 -1.9729 -0.469506 0
M  V30 3018 C 280.94 -1.06128 -1.62636 0
M  V30 3019 O 280.215 -0.109183 -1.94193 0
M  V30 3020 C 280.498 -3.47375 -0.948804 0
M  V30 3021 C 280.351 -4.49317 0.208491 0
M  V30 3022 C 281.67 -4.00652 -1.82116 0
M  V30 3023 H 278.789 -0.717317 -0.16919 0
M  V30 3024 H 281.431 -1.88184 0.262062 0
M  V30 3025 H 279.581 -3.55267 -1.57219 0
M  V30 3026 H 281.253 -4.53482 0.845682 0
M  V30 3027 H 279.496 -4.25121 0.863395 0
M  V30 3028 H 280.167 -5.51741 -0.169059 0
M  V30 3029 H 282.643 -3.95416 -1.2956 0
M  V30 3030 H 281.519 -5.06075 -2.12554 0
M  V30 3031 H 281.78 -3.44699 -2.7683 0
M  V30 3032 N 280.839 0.0985539 -1.57292 0
M  V30 3033 C 281.787 1.1387 -2.02821 0
M  V30 3034 C 282.781 1.41676 -0.928666 0
M  V30 3035 O 283.987 1.41398 -1.11385 0
M  V30 3036 H 280.362 0.384419 -0.646317 0
M  V30 3037 H 282.333 0.728347 -2.89375 0
M  V30 3038 C 281.082 2.45166 -2.46554 0
M  V30 3039 H 280.405 2.24613 -3.3074 0
M  V30 3040 H 281.845 3.16456 -2.8219 0
M  V30 3041 C 280.304 3.09216 -1.33742 0
M  V30 3042 O 280.834 3.96163 -0.66464 0
M  V30 3043 N 279.04 2.69413 -1.08928 0
M  V30 3044 H 278.587 1.98801 -1.63817 0
M  V30 3045 H 278.545 3.12594 -0.336458 0
M  V30 3046 N 282.317 1.53212 0.369288 0
M  V30 3047 C 283.227 1.82342 1.47609 0
M  V30 3048 C 284.243 0.711532 1.58787 0
M  V30 3049 O 285.419 1.0012 1.74751 0
M  V30 3050 C 282.484 2.00393 2.8292 0
M  V30 3051 C 281.545 3.24297 2.81301 0
M  V30 3052 C 280.778 3.41478 4.10157 0
M  V30 3053 O 281.001 2.63033 5.06132 0
M  V30 3054 O 279.935 4.34817 4.16194 0
M  V30 3055 H 283.761 2.76366 1.25918 0
M  V30 3056 H 281.346 1.38547 0.559034 0
M  V30 3057 H 283.228 2.13859 3.63101 0
M  V30 3058 H 281.903 1.09559 3.04596 0
M  V30 3059 H 280.81 3.16257 1.99831 0
M  V30 3060 H 282.143 4.15041 2.64578 0
M  V30 3061 N 283.795 -0.628877 1.44509 0
M  V30 3062 C 284.743 -1.76193 1.51852 0
M  V30 3063 C 285.737 -1.64849 0.390042 0
M  V30 3064 O 286.943 -1.709 0.565082 0
M  V30 3065 H 283.318 -0.581728 0.476547 0
M  V30 3066 H 285.289 -1.67123 2.47209 0
M  V30 3067 C 284.038 -3.14533 1.48204 0
M  V30 3068 H 283.361 -3.23911 2.34354 0
M  V30 3069 H 284.801 -3.93701 1.57402 0
M  V30 3070 C 283.26 -3.36287 0.203142 0
M  V30 3071 O 283.79 -3.9509 -0.725745 0
M  V30 3072 N 281.996 -2.90408 0.105563 0
M  V30 3073 H 281.543 -2.42739 0.862301 0
M  V30 3074 H 281.501 -3.05339 -0.749371 0
M  V30 3075 N 285.273 -1.31445 -0.869486 0
M  V30 3076 C 286.513 -1.22458 -1.63656 0
M  V30 3077 C 286.877 0.213846 -1.90805 0
M  V30 3078 O 288.078 0.427212 -2.65383 0
M  V30 3079 C 286.349 -2.04564 -2.93067 0
M  V30 3080 S 287.908 -2.12445 -3.83944 0
M  V30 3081 H 284.726 -0.436145 -0.561514 0
M  V30 3082 H 287.328 -1.66114 -1.03085 0
M  V30 3083 H 286.032 -3.0816 -2.71045 0
M  V30 3084 H 285.563 -1.6163 -3.58663 0
M  V30 3085 H 287.578 -1.26312 -4.79854 0
M  V30 3086 N 286.751 1.08385 -1.14413 0
M  V30 3087 C 287.661 2.18856 -0.844951 0
M  V30 3088 C 288.677 1.73121 0.174668 0
M  V30 3089 O 289.853 2.014 0.00312857 0
M  V30 3090 C 286.918 3.45155 -0.32696 0
M  V30 3091 C 285.979 4.05513 -1.40916 0
M  V30 3092 C 285.212 5.25784 -0.915793 0
M  V30 3093 O 285.435 5.69884 0.242651 0
M  V30 3094 O 284.369 5.77545 -1.69487 0
M  V30 3095 H 288.195 2.46919 -1.76818 0
M  V30 3096 H 285.78 1.17524 -0.922411 0
M  V30 3097 H 287.662 4.21377 -0.0440211 0
M  V30 3098 H 286.337 3.18668 0.568539 0
M  V30 3099 H 285.244 3.30879 -1.74556 0
M  V30 3100 H 286.577 4.3625 -2.27919 0
M  V30 3101 N 288.23 0.939286 1.26551 0
M  V30 3102 C 289.16 0.465044 2.28822 0
M  V30 3103 C 290.141 -0.480692 1.63167 0
M  V30 3104 O 291.326 -0.382955 1.90387 0
M  V30 3105 C 288.456 -0.27234 3.46231 0
M  V30 3106 C 287.41 0.58666 4.2396 0
M  V30 3107 C 286.736 -0.280573 5.33963 0
M  V30 3108 C 288.036 1.85704 4.88171 0
M  V30 3109 H 289.73 1.31979 2.68741 0
M  V30 3110 H 287.276 0.636061 1.29191 0
M  V30 3111 H 289.229 -0.615133 4.16886 0
M  V30 3112 H 287.953 -1.16121 3.0526 0
M  V30 3113 H 286.612 0.91232 3.55067 0
M  V30 3114 H 286.26 -1.16874 4.89234 0
M  V30 3115 H 285.96 0.29076 5.8688 0
M  V30 3116 H 287.484 -0.618678 6.07458 0
M  V30 3117 H 288.898 1.58161 5.51052 0
M  V30 3118 H 287.295 2.37279 5.51197 0
M  V30 3119 H 288.365 2.56957 4.11219 0
M  V30 3120 N 289.708 -1.40897 0.706093 0
M  V30 3121 C 290.655 -2.30751 0.0474474 0
M  V30 3122 C 291.625 -1.47678 -0.76029 0
M  V30 3123 O 292.81 -1.76441 -0.726177 0
M  V30 3124 C 289.95 -3.33815 -0.875309 0
M  V30 3125 C 289.063 -4.31961 -0.0580623 0
M  V30 3126 C 288.198 -5.22093 -0.979425 0
M  V30 3127 C 287.237 -6.11902 -0.155706 0
M  V30 3128 N 286.374 -6.94482 -1.03144 0
M  V30 3129 H 291.214 -2.86513 0.819413 0
M  V30 3130 H 288.751 -1.41102 0.415783 0
M  V30 3131 H 290.709 -3.92129 -1.42446 0
M  V30 3132 H 289.339 -2.79579 -1.61356 0
M  V30 3133 H 288.391 -3.75507 0.608147 0
M  V30 3134 H 289.703 -4.95415 0.580082 0
M  V30 3135 H 288.857 -5.85292 -1.59744 0
M  V30 3136 H 287.596 -4.5889 -1.65141 0
M  V30 3137 H 286.601 -5.47742 0.475309 0
M  V30 3138 H 287.826 -6.77162 0.512635 0
M  V30 3139 H 285.772 -6.33877 -1.68924 0
M  V30 3140 H 285.689 -7.54665 -0.449108 0
M  V30 3141 H 286.957 -7.6214 -1.63593 0
M  V30 3142 N 291.186 -0.45159 -1.50991 0
M  V30 3143 C 292.435 0.111653 -2.01391 0
M  V30 3144 C 292.748 1.42529 -1.33959 0
M  V30 3145 O 293.954 2.07232 -1.75405 0
M  V30 3146 C 292.41 0.249514 -3.59034 0
M  V30 3147 C 292.018 -1.05453 -4.35412 0
M  V30 3148 C 293.762 0.765762 -4.17536 0
M  V30 3149 C 291.669 -0.881529 -5.84793 0
M  V30 3150 H 290.599 0.0455022 -0.752626 0
M  V30 3151 H 293.25 -0.583524 -1.73975 0
M  V30 3152 H 291.632 1.00803 -3.82955 0
M  V30 3153 H 292.806 -1.82248 -4.23229 0
M  V30 3154 H 291.121 -1.50039 -3.88429 0
M  V30 3155 H 293.718 0.911913 -5.26866 0
M  V30 3156 H 294.061 1.75201 -3.77638 0
M  V30 3157 H 294.594 0.0651744 -3.97747 0
M  V30 3158 H 291.333 -1.84057 -6.29129 0
M  V30 3159 H 290.853 -0.153625 -5.99603 0
M  V30 3160 H 292.532 -0.540363 -6.4474 0
M  V30 3161 N 292.664 1.56529 -0.183458 0
M  V30 3162 C 293.912 1.96855 0.457452 0
M  V30 3163 C 294.233 1.07104 1.62953 0
M  V30 3164 O 293.503 0.139887 1.954 0
M  V30 3165 H 292.083 0.72693 0.171992 0
M  V30 3166 H 294.745 1.93056 -0.267476 0
M  V30 3167 H 293.841 3.01423 0.809368 0
M  V30 3168 N 294.142 -0.090211 1.57342 0
M  V30 3169 C 295.419 -0.824761 1.77361 0
M  V30 3170 C 295.799 -1.96698 0.76637 0
M  V30 3171 O 295.147 -2.27586 -0.204179 0
M  V30 3172 C 295.357 -1.31481 3.23286 0
M  V30 3173 C 296.705 -1.75563 3.86604 0
M  V30 3174 O 297.729 -1.41093 3.27065 0
M  V30 3175 O 296.588 -2.39317 4.91314 0
M  V30 3176 H 293.682 -0.393776 0.727234 0
M  V30 3177 H 296.228 -0.0717138 1.69548 0
M  V30 3178 H 295 -0.496671 3.88135 0
M  V30 3179 H 294.623 -2.12973 3.35751 0
M  V30 3180 N 295.62 -1.53406 -0.361157 0
M  V30 3181 C 296.867 -1.69802 -1.10333 0
M  V30 3182 C 297.195 -0.452087 -1.89173 0
M  V30 3183 O 296.45 0.566017 -1.87336 0
M  V30 3184 C 296.749 -2.90211 -2.08596 0
M  V30 3185 C 296.415 -4.26539 -1.46203 0
M  V30 3186 C 295.077 -4.6361 -1.28915 0
M  V30 3187 C 297.429 -5.113 -1.01101 0
M  V30 3188 C 294.757 -5.83075 -0.651157 0
M  V30 3189 C 297.109 -6.31415 -0.387007 0
M  V30 3190 C 295.773 -6.67195 -0.201657 0
M  V30 3191 H 295.043 -0.621351 -0.403737 0
M  V30 3192 H 297.69 -1.87598 -0.384609 0
M  V30 3193 H 295.995 -2.66946 -2.86788 0
M  V30 3194 H 297.692 -3.00091 -2.65982 0
M  V30 3195 H 294.282 -3.97352 -1.60653 0
M  V30 3196 H 298.466 -4.83206 -1.13249 0
M  V30 3197 H 293.722 -6.09385 -0.496006 0
M  V30 3198 H 297.896 -6.96394 -0.0293563 0
M  V30 3199 H 295.523 -7.59628 0.294766 0
M  V30 3200 N 297.098 0.621204 -1.44841 0
M  V30 3201 C 298.346 1.37783 -1.47852 0
M  V30 3202 C 298.667 1.94653 -0.116224 0
M  V30 3203 O 297.937 1.76367 0.852737 0
M  V30 3204 H 296.517 0.511453 -0.544449 0
M  V30 3205 H 299.179 0.730446 -1.80694 0
M  V30 3206 H 298.275 2.20414 -2.20961 0
M  V30 3207 N 298.576 1.31904 0.862503 0
M  V30 3208 C 299.509 1.14514 1.97388 0
M  V30 3209 C 300.487 0.0466493 1.62533 0
M  V30 3210 O 301.671 0.204484 1.87388 0
M  V30 3211 C 298.798 0.751347 3.30261 0
M  V30 3212 C 297.844 1.85395 3.84098 0
M  V30 3213 S 298.677 3.46081 4.08642 0
M  V30 3214 C 299.833 3.08655 5.44502 0
M  V30 3215 H 300.066 2.08597 2.11836 0
M  V30 3216 H 297.599 1.16475 1.01356 0
M  V30 3217 H 299.557 0.530901 4.07052 0
M  V30 3218 H 298.218 -0.170493 3.13637 0
M  V30 3219 H 297.411 1.53122 4.80177 0
M  V30 3220 H 297.013 2.02984 3.14123 0
M  V30 3221 H 299.305 2.58012 6.26447 0
M  V30 3222 H 300.248 4.03726 5.81731 0
M  V30 3223 H 300.656 2.45891 5.08132 0
M  V30 3224 N 300.054 -1.07777 1.14986 0
M  V30 3225 C 301.017 -2.13041 0.845358 0
M  V30 3226 C 302.017 -1.60071 -0.152931 0
M  V30 3227 O 303.207 -1.74033 0.0761879 0
M  V30 3228 C 300.339 -3.39896 0.261383 0
M  V30 3229 H 301.532 -2.41485 1.77834 0
M  V30 3230 H 299.085 -1.23595 0.956757 0
M  V30 3231 H 299.82 -3.17091 -0.68 0
M  V30 3232 H 299.605 -3.79642 0.980514 0
M  V30 3233 H 301.095 -4.17548 0.0657687 0
M  V30 3234 N 301.532 -0.945985 -1.26051 0
M  V30 3235 C 302.948 -0.649045 -1.45807 0
M  V30 3236 C 303.148 0.796158 -1.85104 0
M  V30 3237 O 302.204 1.57233 -1.97571 0
M  V30 3238 C 303.517 -1.61458 -2.53677 0
M  V30 3239 C 305.065 -1.62481 -2.67524 0
M  V30 3240 C 305.54 -2.57776 -3.7857 0
M  V30 3241 N 307.031 -2.5609 -3.85969 0
M  V30 3242 C 307.766 -3.26508 -4.7136 0
M  V30 3243 N 307.262 -4.0637 -5.61102 0
M  V30 3244 N 309.055 -3.15437 -4.65248 0
M  V30 3245 H 301.206 -1.88005 -0.988328 0
M  V30 3246 H 303.469 -0.808198 -0.4955 0
M  V30 3247 H 303.175 -2.64644 -2.31638 0
M  V30 3248 H 303.049 -1.37036 -3.51427 0
M  V30 3249 H 305.436 -0.600167 -2.88933 0
M  V30 3250 H 305.517 -1.90958 -1.70202 0
M  V30 3251 H 305.161 -3.60361 -3.57913 0
M  V30 3252 H 305.091 -2.26587 -4.75359 0
M  V30 3253 H 307.582 -1.98105 -3.21812 0
M  V30 3254 H 307.895 -4.57042 -6.23164 0
M  V30 3255 H 306.24 -4.10469 -5.60839 0
M  V30 3256 H 309.431 -2.52525 -3.94143 0
M  V30 3257 H 309.604 -3.70584 -5.31575 0
M  V30 3258 N 303.011 1.40521 -0.713556 0
M  V30 3259 C 304.259 2.00527 -0.251692 0
M  V30 3260 C 304.58 1.56857 1.15848 0
M  V30 3261 O 303.85 0.807127 1.785 0
M  V30 3262 H 302.43 0.741551 -0.0900646 0
M  V30 3263 H 305.092 1.71887 -0.918733 0
M  V30 3264 H 304.188 3.10813 -0.283192 0
M  V30 3265 N 304.489 0.459591 1.5075 0
M  V30 3266 C 305.419 -0.330644 2.31147 0
M  V30 3267 C 306.4 -1.00087 1.37538 0
M  V30 3268 O 307.585 -1.00025 1.66459 0
M  V30 3269 C 304.715 -1.41958 3.16962 0
M  V30 3270 C 303.669 -0.871608 4.19031 0
M  V30 3271 C 302.995 -2.05797 4.9351 0
M  V30 3272 C 304.295 0.109251 5.22186 0
M  V30 3273 H 305.989 0.340336 2.97459 0
M  V30 3274 H 303.535 0.165119 1.4305 0
M  V30 3275 H 305.488 -1.9798 3.71997 0
M  V30 3276 H 304.212 -2.11917 2.48513 0
M  V30 3277 H 302.871 -0.333442 3.6508 0
M  V30 3278 H 302.519 -2.74427 4.21544 0
M  V30 3279 H 302.219 -1.6976 5.62544 0
M  V30 3280 H 303.743 -2.62331 5.51375 0
M  V30 3281 H 305.157 -0.361405 5.7216 0
M  V30 3282 H 303.554 0.383316 5.98875 0
M  V30 3283 H 304.624 1.03887 4.73641 0
M  V30 3284 N 305.967 -1.56429 0.191757 0
M  V30 3285 C 307.207 -1.99383 -0.450099 0
M  V30 3286 C 307.571 -1.07581 -1.59029 0
M  V30 3287 O 308.772 -1.39758 -2.29611 0
M  V30 3288 C 307.043 -3.45841 -0.901611 0
M  V30 3289 S 308.602 -4.10822 -1.54177 0
M  V30 3290 H 305.42 -0.696253 -0.144057 0
M  V30 3291 H 308.022 -1.93276 0.294036 0
M  V30 3292 H 306.726 -4.10354 -0.0616596 0
M  V30 3293 H 306.257 -3.55757 -1.67929 0
M  V30 3294 H 308.272 -4.07553 -2.83046 0
M  V30 3295 N 307.445 0.0818655 -1.57387 0
M  V30 3296 C 308.673 0.796108 -1.9097 0
M  V30 3297 C 309.088 1.71626 -0.786757 0
M  V30 3298 O 308.445 1.80908 0.240513 0
M  V30 3299 C 308.496 1.59829 -3.24248 0
M  V30 3300 O 308.217 0.715131 -4.32224 0
M  V30 3301 C 309.718 2.41442 -3.7178 0
M  V30 3302 H 306.938 0.22691 -0.631469 0
M  V30 3303 H 309.482 0.0551439 -2.04426 0
M  V30 3304 H 307.637 2.29163 -3.12351 0
M  V30 3305 H 308.051 1.27205 -5.08841 0
M  V30 3306 H 309.525 2.932 -4.67694 0
M  V30 3307 H 310.002 3.2051 -3.00283 0
M  V30 3308 H 310.608 1.77283 -3.86589 0
M  V30 3309 N 308.923 1.53595 0.353017 0
M  V30 3310 C 310.148 1.7462 1.11904 0
M  V30 3311 C 310.573 0.479721 1.8188 0
M  V30 3312 O 309.931 -0.567066 1.72204 0
M  V30 3313 C 309.979 2.92029 2.11545 0
M  V30 3314 O 309.083 2.61516 3.18878 0
M  V30 3315 H 308.424 0.579531 0.324099 0
M  V30 3316 H 310.954 2.00525 0.406301 0
M  V30 3317 H 310.964 3.18551 2.5493 0
M  V30 3318 H 309.639 3.83888 1.60008 0
M  V30 3319 H 308.216 2.45852 2.80377 0
M  V30 3320 N 310.401 -0.613514 1.45168 0
M  V30 3321 C 311.812 -1.19539 1.43413 0
M  V30 3322 C 312.163 -1.95558 0.158632 0
M  V30 3323 O 311.288 -2.0335 -0.740119 0
M  V30 3324 C 311.883 -2.17445 2.59813 0
M  V30 3325 C 310.442 -2.71022 2.61197 0
M  V30 3326 C 309.589 -1.46323 2.35552 0
M  V30 3327 H 312.54 -0.403163 1.53494 0
M  V30 3328 H 312.561 -3.00373 2.33574 0
M  V30 3329 H 312.073 -1.62089 3.52631 0
M  V30 3330 H 310.174 -3.30332 1.7237 0
M  V30 3331 H 310.287 -3.15859 3.60236 0
M  V30 3332 H 308.651 -1.75072 1.84992 0
M  V30 3333 H 309.434 -0.92844 3.30507 0
M  V30 3334 N 311.879 -1.3236 -0.855495 0
M  V30 3335 C 312.842 -1.21164 -1.94556 0
M  V30 3336 C 313.842 -0.134908 -1.60233 0
M  V30 3337 O 315.032 -0.385249 -1.69887 0
M  V30 3338 C 312.164 -0.863192 -3.29791 0
M  V30 3339 H 313.357 -2.18038 -2.05911 0
M  V30 3340 H 310.91 -1.16179 -1.04557 0
M  V30 3341 H 311.645 0.103769 -3.24134 0
M  V30 3342 H 311.43 -1.64166 -3.56078 0
M  V30 3343 H 312.92 -0.809156 -4.09686 0
M  V30 3344 N 313.357 1.07166 -1.15556 0
M  V30 3345 C 314.267 2.17947 -0.868116 0
M  V30 3346 C 315.283 1.73297 0.156297 0
M  V30 3347 O 316.459 2.01392 -0.0182327 0
M  V30 3348 C 313.524 3.44789 -0.36355 0
M  V30 3349 C 312.585 4.03996 -1.45209 0
M  V30 3350 C 311.818 5.24783 -0.971508 0
M  V30 3351 O 312.041 5.70109 0.182194 0
M  V30 3352 O 310.975 5.75715 -1.75603 0
M  V30 3353 H 314.801 2.4503 -1.79427 0
M  V30 3354 H 312.386 1.16539 -0.934824 0
M  V30 3355 H 314.268 4.21307 -0.0887113 0
M  V30 3356 H 312.943 3.19253 0.534708 0
M  V30 3357 H 311.85 3.29009 -1.78056 0
M  V30 3358 H 313.183 4.33808 -2.32533 0
M  V30 3359 N 314.835 0.952656 1.25548 0
M  V30 3360 C 315.785 0.442033 2.23674 0
M  V30 3361 C 316.769 -0.467632 1.53955 0
M  V30 3362 O 317.961 -0.301006 1.74422 0
M  V30 3363 C 315.09 -0.280816 3.4215 0
M  V30 3364 C 314.176 0.646803 4.19139 0
M  V30 3365 N 314.567 1.77759 4.73535 0
M  V30 3366 C 312.865 0.454617 4.43677 0
M  V30 3367 C 313.566 2.35658 5.31827 0
M  V30 3368 N 312.542 1.64333 5.18166 0
M  V30 3369 H 316.344 1.30505 2.63336 0
M  V30 3370 H 313.858 0.809904 1.40763 0
M  V30 3371 H 315.855 -0.663747 4.11582 0
M  V30 3372 H 314.515 -1.14046 3.04012 0
M  V30 3373 H 315.526 2.15949 4.7073 0
M  V30 3374 H 312.203 -0.362312 4.15925 0
M  V30 3375 H 313.593 3.30998 5.84713 0
M  V30 3376 N 316.313 -1.40141 0.720998 0
M  V30 3377 C 317.245 -2.29177 0.0324669 0
M  V30 3378 C 318.258 -1.46105 -0.718126 0
M  V30 3379 O 319.447 -1.69335 -0.564608 0
M  V30 3380 C 316.547 -3.24473 -0.978292 0
M  V30 3381 C 315.72 -4.36423 -0.292115 0
M  V30 3382 C 314.779 -5.12122 -1.20901 0
M  V30 3383 O 313.805 -5.64981 -0.691766 0
M  V30 3384 N 315.007 -5.21992 -2.53978 0
M  V30 3385 H 317.772 -2.88909 0.796984 0
M  V30 3386 H 315.333 -1.51569 0.569068 0
M  V30 3387 H 317.325 -3.71987 -1.59398 0
M  V30 3388 H 315.895 -2.65871 -1.64413 0
M  V30 3389 H 315.115 -3.90967 0.503847 0
M  V30 3390 H 316.403 -5.08467 0.183971 0
M  V30 3391 H 315.801 -4.8054 -2.98493 0
M  V30 3392 H 314.358 -5.72995 -3.10677 0
M  V30 3393 N 317.792 -0.46758 -1.50504 0
M  V30 3394 C 319.022 0.086288 -2.0642 0
M  V30 3395 C 319.43 1.34369 -1.33197 0
M  V30 3396 O 318.773 1.79431 -0.393747 0
M  V30 3397 C 318.835 0.443846 -3.5675 0
M  V30 3398 C 318.499 -0.711035 -4.51435 0
M  V30 3399 C 319.496 -1.59205 -4.94924 0
M  V30 3400 C 317.181 -0.900363 -4.94165 0
M  V30 3401 C 319.175 -2.64683 -5.79846 0
M  V30 3402 C 316.862 -1.95837 -5.7887 0
M  V30 3403 C 317.86 -2.82997 -6.21612 0
M  V30 3404 O 317.548 -3.86977 -7.0463 0
M  V30 3405 H 317.28 -0.00217814 -0.675996 0
M  V30 3406 H 319.834 -0.654346 -1.94698 0
M  V30 3407 H 318.064 1.23762 -3.6636 0
M  V30 3408 H 319.753 0.932386 -3.95046 0
M  V30 3409 H 320.519 -1.45745 -4.62583 0
M  V30 3410 H 316.398 -0.231427 -4.60419 0
M  V30 3411 H 319.942 -3.32745 -6.13128 0
M  V30 3412 H 315.839 -2.09305 -6.10624 0
M  V30 3413 H 316.607 -3.83923 -7.22873 0
M  V30 3414 N 319.27 1.56325 -0.20005 0
M  V30 3415 C 320.517 1.97719 0.437411 0
M  V30 3416 C 320.845 1.08709 1.61284 0
M  V30 3417 O 320.1 0.127261 1.95286 0
M  V30 3418 C 320.399 3.4495 0.935103 0
M  V30 3419 C 320.065 4.5072 -0.12749 0
M  V30 3420 C 318.727 4.79368 -0.419451 0
M  V30 3421 C 321.079 5.14268 -0.847231 0
M  V30 3422 C 318.407 5.68854 -1.43604 0
M  V30 3423 C 320.759 6.04852 -1.85301 0
M  V30 3424 C 319.423 6.31855 -2.15211 0
M  V30 3425 H 318.693 0.723507 0.16006 0
M  V30 3426 H 321.34 1.89166 -0.298056 0
M  V30 3427 H 319.645 3.50599 1.74894 0
M  V30 3428 H 321.342 3.74337 1.43781 0
M  V30 3429 H 317.932 4.28458 0.11023 0
M  V30 3430 H 322.116 4.92222 -0.634901 0
M  V30 3431 H 317.372 5.88047 -1.67364 0
M  V30 3432 H 321.546 6.53152 -2.41591 0
M  V30 3433 H 319.173 7.00994 -2.94129 0
M  V30 3434 N 320.748 -0.0735177 1.57428 0
M  V30 3435 C 321.681 -1.11932 1.98863 0
M  V30 3436 C 322.659 -1.37666 0.865266 0
M  V30 3437 O 323.843 -1.51068 1.12742 0
M  V30 3438 C 320.97 -2.46403 2.32386 0
M  V30 3439 C 320.016 -2.36815 3.54713 0
M  V30 3440 S 320.849 -1.76392 5.05614 0
M  V30 3441 C 322.005 -3.12444 5.42337 0
M  V30 3442 H 322.238 -0.766212 2.87257 0
M  V30 3443 H 319.771 -0.281987 1.51803 0
M  V30 3444 H 321.729 -3.23755 2.52375 0
M  V30 3445 H 320.39 -2.78876 1.44524 0
M  V30 3446 H 319.583 -3.35977 3.7568 0
M  V30 3447 H 319.185 -1.67598 3.34345 0
M  V30 3448 H 321.477 -4.08753 5.40303 0
M  V30 3449 H 322.42 -2.96258 6.43146 0
M  V30 3450 H 322.828 -3.1297 4.69798 0
M  V30 3451 N 322.226 -1.5378 -0.344866 0
M  V30 3452 C 323.454 -1.74899 -1.10534 0
M  V30 3453 C 323.869 -0.487534 -1.82397 0
M  V30 3454 O 323.226 0.540741 -1.74305 0
M  V30 3455 C 323.277 -2.92822 -2.11984 0
M  V30 3456 O 322.998 -4.14089 -1.43044 0
M  V30 3457 C 324.499 -3.25982 -3.00417 0
M  V30 3458 H 321.719 -0.584426 -0.329678 0
M  V30 3459 H 324.263 -2.006 -0.397474 0
M  V30 3460 H 322.418 -2.69457 -2.78338 0
M  V30 3461 H 322.832 -4.80272 -2.10805 0
M  V30 3462 H 324.306 -4.11848 -3.67539 0
M  V30 3463 H 324.783 -2.42228 -3.66363 0
M  V30 3464 H 325.389 -3.51349 -2.39654 0
M  V30 3465 N 323.704 0.605807 -1.45491 0
M  V30 3466 C 324.614 1.74466 -1.56839 0
M  V30 3467 C 325.63 1.68006 -0.452772 0
M  V30 3468 O 326.806 1.8833 -0.713708 0
M  V30 3469 C 323.871 3.10931 -1.53371 0
M  V30 3470 C 322.932 3.28832 -2.75986 0
M  V30 3471 C 322.165 4.58787 -2.72673 0
M  V30 3472 O 322.388 5.4122 -1.80102 0
M  V30 3473 O 321.322 4.79438 -3.63899 0
M  V30 3474 H 325.148 1.67843 -2.53106 0
M  V30 3475 H 322.733 0.770108 -1.28022 0
M  V30 3476 H 324.615 3.92233 -1.54051 0
M  V30 3477 H 323.29 3.18042 -0.602572 0
M  V30 3478 H 322.197 2.47112 -2.80867 0
M  V30 3479 H 323.53 3.26599 -3.68231 0
M  V30 3480 N 325.182 1.32811 0.848464 0
M  V30 3481 C 326.412 1.26556 1.63301 0
M  V30 3482 C 326.82 -0.1676 1.88456 0
M  V30 3483 O 326.163 -1.11713 1.45828 0
M  V30 3484 C 326.225 1.96202 3.01239 0
M  V30 3485 C 325.889 3.45528 2.99098 0
M  V30 3486 C 326.886 4.40903 2.75501 0
M  V30 3487 C 324.571 3.87558 3.19537 0
M  V30 3488 C 326.565 5.76282 2.72356 0
M  V30 3489 C 324.252 5.23044 3.16019 0
M  V30 3490 C 325.25 6.17217 2.92458 0
M  V30 3491 O 324.938 7.50223 2.88825 0
M  V30 3492 H 324.67 0.43771 0.515156 0
M  V30 3493 H 327.224 1.7559 1.0657 0
M  V30 3494 H 325.454 1.41746 3.59785 0
M  V30 3495 H 327.143 1.83573 3.62016 0
M  V30 3496 H 327.909 4.09756 2.5947 0
M  V30 3497 H 323.788 3.14674 3.369 0
M  V30 3498 H 327.332 6.4976 2.53886 0
M  V30 3499 H 323.229 5.53818 3.31596 0
M  V30 3500 H 323.997 7.59657 3.04735 0
M  V30 3501 N 326.66 -1.06551 1.16123 0
M  V30 3502 C 327.906 -1.79567 0.94252 0
M  V30 3503 C 328.239 -1.86869 -0.528547 0
M  V30 3504 O 327.514 -1.35838 -1.39206 0
M  V30 3505 C 327.797 -3.24195 1.56747 0
M  V30 3506 C 327.65 -3.24989 3.10969 0
M  V30 3507 C 328.969 -4.21678 1.25998 0
M  V30 3508 H 326.088 -0.651883 0.343828 0
M  V30 3509 H 328.73 -1.2463 1.43413 0
M  V30 3510 H 326.88 -3.71107 1.14942 0
M  V30 3511 H 328.552 -2.86258 3.61737 0
M  V30 3512 H 326.795 -2.63716 3.44436 0
M  V30 3513 H 327.466 -4.27005 3.49815 0
M  V30 3514 H 329.942 -3.83196 1.62174 0
M  V30 3515 H 328.818 -5.21146 1.7233 0
M  V30 3516 H 329.079 -4.4174 0.178367 0
M  V30 3517 N 328.138 -0.959301 -1.25041 0
M  V30 3518 C 329.101 -0.487677 -2.23952 0
M  V30 3519 C 330.101 0.41119 -1.55454 0
M  V30 3520 O 331.291 0.207825 -1.72956 0
M  V30 3521 C 328.423 0.294807 -3.39623 0
M  V30 3522 H 329.616 -1.36198 -2.67189 0
M  V30 3523 H 327.169 -0.743042 -1.37508 0
M  V30 3524 H 327.904 1.18658 -3.01813 0
M  V30 3525 H 327.689 -0.35012 -3.90534 0
M  V30 3526 H 329.179 0.614089 -4.1306 0
M  V30 3527 N 329.616 1.39756 -0.72842 0
M  V30 3528 C 330.844 2.04948 -0.283528 0
M  V30 3529 C 331.259 1.54908 1.0793 0
M  V30 3530 O 330.616 0.711135 1.68075 0
M  V30 3531 C 330.667 3.60498 -0.268957 0
M  V30 3532 O 330.388 4.08695 -1.57798 0
M  V30 3533 C 331.889 4.4288 0.192912 0
M  V30 3534 H 329.109 0.659243 -0.125056 0
M  V30 3535 H 331.653 1.78927 -0.990226 0
M  V30 3536 H 329.808 3.85444 0.388801 0
M  V30 3537 H 330.222 5.02977 -1.48709 0
M  V30 3538 H 331.696 5.51791 0.151952 0
M  V30 3539 H 332.173 4.21418 1.23708 0
M  V30 3540 H 332.779 4.23069 -0.435039 0
M  V30 3541 N 331.094 0.475555 1.50254 0
M  V30 3542 C 332.51 0.12997 1.5907 0
M  V30 3543 C 332.71 -1.36385 1.48328 0
M  V30 3544 O 331.766 -2.13754 1.34407 0
M  V30 3545 C 333.079 0.684139 2.92814 0
M  V30 3546 C 334.627 0.647965 3.0622 0
M  V30 3547 C 335.102 1.17975 4.42545 0
M  V30 3548 N 336.593 1.13936 4.48969 0
M  V30 3549 C 337.328 1.52129 5.52851 0
M  V30 3550 N 336.824 1.97793 6.63965 0
M  V30 3551 N 338.617 1.43704 5.4342 0
M  V30 3552 H 330.768 1.44706 1.55479 0
M  V30 3553 H 333.031 0.598691 0.735033 0
M  V30 3554 H 332.737 1.73079 3.06164 0
M  V30 3555 H 332.611 0.130204 3.76975 0
M  V30 3556 H 334.998 -0.38979 2.92514 0
M  V30 3557 H 335.079 1.23876 2.23805 0
M  V30 3558 H 334.723 2.21616 4.57 0
M  V30 3559 H 334.653 0.565138 5.23559 0
M  V30 3560 H 337.144 0.804488 3.69238 0
M  V30 3561 H 337.457 2.25072 7.39299 0
M  V30 3562 H 335.802 2.01749 6.65073 0
M  V30 3563 H 338.993 1.07867 4.55502 0
M  V30 3564 H 339.166 1.73794 6.24259 0
M  V30 3565 N 332.573 -1.56217 0.208337 0
M  V30 3566 C 333.819 -1.98998 -0.42086 0
M  V30 3567 C 334.174 -1.09331 -1.58317 0
M  V30 3568 O 333.467 -0.140466 -1.91084 0
M  V30 3569 C 333.661 -3.45441 -0.916797 0
M  V30 3570 C 333.49 -4.49273 0.195925 0
M  V30 3571 C 332.26 -5.00998 0.657956 0
M  V30 3572 C 334.458 -5.04294 1.00956 0
M  V30 3573 N 332.44 -5.88514 1.74712 0
M  V30 3574 C 333.811 -5.88607 1.94785 0
M  V30 3575 C 335.866 -4.86692 1.05049 0
M  V30 3576 C 334.569 -6.572 2.9237 0
M  V30 3577 C 336.595 -5.56034 2.01446 0
M  V30 3578 C 335.957 -6.40105 2.94016 0
M  V30 3579 H 332.056 -0.772574 -0.121048 0
M  V30 3580 H 334.64 -1.92101 0.317075 0
M  V30 3581 H 332.811 -3.52812 -1.62413 0
M  V30 3582 H 334.543 -3.75164 -1.51771 0
M  V30 3583 H 331.298 -4.72945 0.248912 0
M  V30 3584 H 331.722 -6.36975 2.2933 0
M  V30 3585 H 336.364 -4.21359 0.348759 0
M  V30 3586 H 334.082 -7.21723 3.63512 0
M  V30 3587 H 337.668 -5.44385 2.0527 0
M  V30 3588 H 336.548 -6.92816 3.6739 0
M  V30 3589 N 334.051 0.0651679 -1.57465 0
M  V30 3590 C 335.281 0.774683 -1.91526 0
M  V30 3591 C 335.689 1.71305 -0.803196 0
M  V30 3592 O 335.032 1.82231 0.231881 0
M  V30 3593 C 335.094 1.61645 -3.21109 0
M  V30 3594 C 334.758 0.846753 -4.49087 0
M  V30 3595 C 335.755 0.163024 -5.19644 0
M  V30 3596 C 333.44 0.811966 -4.95694 0
M  V30 3597 C 335.434 -0.54519 -6.35064 0
M  V30 3598 C 333.121 0.0999836 -6.11018 0
M  V30 3599 C 334.119 -0.577388 -6.80555 0
M  V30 3600 O 333.807 -1.27789 -7.93678 0
M  V30 3601 H 333.539 0.225031 -0.637446 0
M  V30 3602 H 336.093 0.0377134 -2.05365 0
M  V30 3603 H 334.323 2.39638 -3.03497 0
M  V30 3604 H 336.012 2.20525 -3.40769 0
M  V30 3605 H 336.778 0.181163 -4.84662 0
M  V30 3606 H 332.657 1.32867 -4.41438 0
M  V30 3607 H 336.201 -1.07446 -6.89276 0
M  V30 3608 H 332.098 0.0797945 -6.45451 0
M  V30 3609 H 332.866 -1.18784 -8.09835 0
M  V30 3610 N 335.529 1.53961 0.336706 0
M  V30 3611 C 336.945 1.44378 0.680241 0
M  V30 3612 C 337.145 0.606034 1.9217 0
M  V30 3613 O 336.201 0.099688 2.52303 0
M  V30 3614 C 337.514 2.87945 0.8665 0
M  V30 3615 C 339.062 2.97763 0.964682 0
M  V30 3616 C 339.537 4.42453 1.18321 0
M  V30 3617 N 341.028 4.46008 1.25025 0
M  V30 3618 C 341.763 5.55102 1.43697 0
M  V30 3619 N 341.259 6.7419 1.59498 0
M  V30 3620 N 343.052 5.42727 1.463 0
M  V30 3621 H 335.203 2.06918 -0.479455 0
M  V30 3622 H 337.466 0.935634 -0.152619 0
M  V30 3623 H 337.172 3.51691 0.0256937 0
M  V30 3624 H 337.046 3.33293 1.76623 0
M  V30 3625 H 339.433 2.34153 1.796 0
M  V30 3626 H 339.514 2.55766 0.041708 0
M  V30 3627 H 339.158 5.06645 0.356788 0
M  V30 3628 H 339.088 4.82048 2.11985 0
M  V30 3629 H 341.579 3.60196 1.14312 0
M  V30 3630 H 341.892 7.53095 1.734 0
M  V30 3631 H 340.237 6.77123 1.56621 0
M  V30 3632 H 343.428 4.48647 1.33543 0
M  V30 3633 H 343.601 6.27806 1.6051 0
M  V30 3634 N 337.007 -0.598083 1.45811 0
M  V30 3635 C 337.97 -1.69018 1.54808 0
M  V30 3636 C 338.97 -1.55037 0.426652 0
M  V30 3637 O 340.16 -1.59932 0.690456 0
M  V30 3638 C 337.292 -3.0835 1.45371 0
M  V30 3639 H 338.485 -1.62403 2.52121 0
M  V30 3640 H 336.038 -0.814626 1.33392 0
M  V30 3641 H 336.773 -3.20534 0.492793 0
M  V30 3642 H 336.558 -3.19907 2.26721 0
M  V30 3643 H 338.048 -3.8788 1.54721 0
M  V30 3644 N 338.485 -1.33259 -0.841409 0
M  V30 3645 C 339.896 -1.22066 -1.41269 0
M  V30 3646 C 340.247 0.161479 -1.95534 0
M  V30 3647 O 339.372 1.06094 -1.88608 0
M  V30 3648 C 339.967 -2.20996 -2.568 0
M  V30 3649 C 338.526 -2.13649 -3.09888 0
M  V30 3650 C 337.673 -2.08623 -1.82679 0
M  V30 3651 H 340.624 -1.44895 -0.647395 0
M  V30 3652 H 340.645 -1.81621 -3.34356 0
M  V30 3653 H 340.157 -3.2158 -2.17274 0
M  V30 3654 H 338.258 -1.16359 -3.53965 0
M  V30 3655 H 338.371 -3.04079 -3.70234 0
M  V30 3656 H 336.735 -1.54061 -2.02824 0
M  V30 3657 H 337.518 -3.1101 -1.45353 0
M  V30 3658 N 339.963 1.05934 -1.16686 0
M  V30 3659 C 340.873 2.17014 -0.891183 0
M  V30 3660 C 341.889 1.73453 0.137907 0
M  V30 3661 O 343.065 2.01361 -0.039592 0
M  V30 3662 C 340.13 3.44384 -0.400099 0
M  V30 3663 C 339.191 4.02433 -1.49486 0
M  V30 3664 C 338.424 5.23723 -1.02711 0
M  V30 3665 O 338.647 5.7027 0.121716 0
M  V30 3666 O 337.581 5.7382 -1.81699 0
M  V30 3667 H 341.407 2.43113 -1.82015 0
M  V30 3668 H 338.992 1.15541 -0.947132 0
M  V30 3669 H 340.874 4.21189 -0.133392 0
M  V30 3670 H 339.549 3.19802 0.500817 0
M  V30 3671 H 338.456 3.27102 -1.81535 0
M  V30 3672 H 339.789 4.31317 -2.37121 0
M  V30 3673 N 341.441 0.965919 1.2453 0
M  V30 3674 C 342.371 0.513476 2.27784 0
M  V30 3675 C 343.352 -0.445974 1.6415 0
M  V30 3676 O 344.537 -0.342485 1.91156 0
M  V30 3677 C 341.667 -0.198839 3.4673 0
M  V30 3678 C 340.621 0.676456 4.2262 0
M  V30 3679 C 339.947 -0.167248 5.34438 0
M  V30 3680 C 341.247 1.96017 4.84123 0
M  V30 3681 H 342.941 1.3765 2.65881 0
M  V30 3682 H 340.487 0.663321 1.27813 0
M  V30 3683 H 342.44 -0.526567 4.18097 0
M  V30 3684 H 341.164 -1.0962 3.07654 0
M  V30 3685 H 339.823 0.98743 3.53052 0
M  V30 3686 H 339.471 -1.0647 4.91603 0
M  V30 3687 H 339.171 0.415181 5.86131 0
M  V30 3688 H 340.695 -0.489688 6.08633 0
M  V30 3689 H 342.109 1.69814 5.47573 0
M  V30 3690 H 340.506 2.48918 5.4604 0
M  V30 3691 H 341.576 2.65622 4.05676 0
M  V30 3692 N 342.919 -1.39368 0.735821 0
M  V30 3693 C 343.852 -2.28155 0.0451175 0
M  V30 3694 C 344.83 -1.44433 -0.746852 0
M  V30 3695 O 346.014 -1.73823 -0.729237 0
M  V30 3696 C 343.141 -3.253 -0.943266 0
M  V30 3697 C 342.187 -4.25826 -0.239685 0
M  V30 3698 S 343.02 -5.25166 1.04693 0
M  V30 3699 C 344.176 -6.2587 0.0611639 0
M  V30 3700 H 344.409 -2.86388 0.79807 0
M  V30 3701 H 341.942 -1.45104 0.527653 0
M  V30 3702 H 343.9 -3.81789 -1.50824 0
M  V30 3703 H 342.561 -2.66085 -1.66906 0
M  V30 3704 H 341.754 -4.94229 -0.987596 0
M  V30 3705 H 341.356 -3.73141 0.253274 0
M  V30 3706 H 343.648 -6.73007 -0.778941 0
M  V30 3707 H 344.591 -7.04508 0.712362 0
M  V30 3708 H 344.999 -5.63639 -0.311602 0
M  V30 3709 N 344.397 -0.483516 -1.5 0
M  V30 3710 C 345.327 0.293829 -2.31644 0
M  V30 3711 C 346.308 0.978864 -1.39112 0
M  V30 3712 O 347.493 0.973644 -1.68029 0
M  V30 3713 C 344.623 1.36897 -3.19181 0
M  V30 3714 C 343.577 0.804833 -4.20365 0
M  V30 3715 C 342.903 1.9792 -4.96721 0
M  V30 3716 C 344.203 -0.192313 -5.21946 0
M  V30 3717 H 345.897 -0.387616 -2.9688 0
M  V30 3718 H 343.443 -0.187856 -1.42769 0
M  V30 3719 H 345.396 1.92037 -3.751 0
M  V30 3720 H 344.12 2.07936 -2.51853 0
M  V30 3721 H 342.779 0.275319 -3.65565 0
M  V30 3722 H 342.427 2.67686 -4.25856 0
M  V30 3723 H 342.127 1.60789 -5.65173 0
M  V30 3724 H 343.651 2.53526 -5.55479 0
M  V30 3725 H 345.065 0.270333 -5.72662 0
M  V30 3726 H 343.462 -0.478543 -5.98189 0
M  V30 3727 H 344.532 -1.11409 -4.71928 0
M  V30 3728 N 345.875 1.56104 -0.216619 0
M  V30 3729 C 347.1 2.0301 0.424462 0
M  V30 3730 C 347.525 1.0955 1.52907 0
M  V30 3731 O 346.883 0.0827914 1.81111 0
M  V30 3732 C 346.931 3.4819 0.937883 0
M  V30 3733 O 346.035 3.57865 2.04955 0
M  V30 3734 H 345.376 0.656925 0.0966755 0
M  V30 3735 H 347.906 2.01859 -0.33381 0
M  V30 3736 H 347.916 3.88413 1.24897 0
M  V30 3737 H 346.591 4.15699 0.129387 0
M  V30 3738 H 345.168 3.29527 1.74546 0
M  V30 3739 N 347.353 -0.0568162 1.57498 0
M  V30 3740 C 348.283 -1.06593 2.0775 0
M  V30 3741 C 349.264 -1.39448 0.974082 0
M  V30 3742 O 350.449 -1.48815 1.24771 0
M  V30 3743 C 347.579 -2.37509 2.5339 0
M  V30 3744 C 346.533 -2.1897 3.67745 0
M  V30 3745 C 345.859 -3.55402 3.99492 0
M  V30 3746 C 347.159 -1.59859 4.97235 0
M  V30 3747 H 348.853 -0.647706 2.9231 0
M  V30 3748 H 346.399 -0.310116 1.40621 0
M  V30 3749 H 348.352 -3.08409 2.87162 0
M  V30 3750 H 347.076 -2.8134 1.65878 0
M  V30 3751 H 345.735 -1.50508 3.3428 0
M  V30 3752 H 345.383 -3.9683 3.09088 0
M  V30 3753 H 345.083 -3.43831 4.76502 0
M  V30 3754 H 346.607 -4.27708 4.35773 0
M  V30 3755 H 348.021 -2.20642 5.29141 0
M  V30 3756 H 346.418 -1.58942 5.78669 0
M  V30 3757 H 347.488 -0.561506 4.81638 0
M  V30 3758 N 348.832 -1.54138 -0.328536 0
M  V30 3759 C 349.782 -1.79557 -1.4051 0
M  V30 3760 C 350.766 -0.651373 -1.47126 0
M  V30 3761 O 351.958 -0.911226 -1.51742 0
M  V30 3762 C 349.087 -2.02196 -2.77438 0
M  V30 3763 C 348.173 -3.22724 -2.75155 0
M  V30 3764 N 348.564 -4.43881 -2.42494 0
M  V30 3765 C 346.862 -3.24196 -3.06289 0
M  V30 3766 C 347.563 -5.25797 -2.48822 0
M  V30 3767 N 346.539 -4.62862 -2.8506 0
M  V30 3768 H 350.341 -2.70814 -1.1418 0
M  V30 3769 H 347.855 -1.53265 -0.536991 0
M  V30 3770 H 349.852 -2.18546 -3.55026 0
M  V30 3771 H 348.512 -1.12191 -3.04702 0
M  V30 3772 H 349.523 -4.70969 -2.15428 0
M  V30 3773 H 346.2 -2.44208 -3.38627 0
M  V30 3774 H 347.59 -6.32535 -2.26603 0
M  V30 3775 N 350.31 0.590341 -1.46126 0
M  V30 3776 C 351.22 1.72793 -1.58681 0
M  V30 3777 C 352.236 1.67516 -0.470566 0
M  V30 3778 O 353.412 1.87562 -0.733642 0
M  V30 3779 C 350.477 3.09287 -1.5666 0
M  V30 3780 C 349.538 3.25886 -2.79458 0
M  V30 3781 C 348.771 4.55869 -2.77524 0
M  V30 3782 O 348.994 5.3928 -1.85832 0
M  V30 3783 O 347.928 4.75552 -3.68964 0
M  V30 3784 H 351.754 1.65149 -2.54872 0
M  V30 3785 H 349.339 0.756486 -1.28832 0
M  V30 3786 H 351.221 3.90577 -1.58202 0
M  V30 3787 H 349.896 3.17385 -0.636271 0
M  V30 3788 H 348.803 2.44119 -2.83472 0
M  V30 3789 H 350.136 3.22675 -3.71674 0
M  V30 3790 N 351.788 1.33704 0.83433 0
M  V30 3791 C 353.018 1.28281 1.6195 0
M  V30 3792 C 353.426 -0.147603 1.88623 0
M  V30 3793 O 352.769 -1.1016 1.47005 0
M  V30 3794 C 352.831 1.99386 2.99141 0
M  V30 3795 C 352.495 3.48681 2.95416 0
M  V30 3796 C 353.492 4.438 2.70809 0
M  V30 3797 C 351.177 3.90925 3.15409 0
M  V30 3798 C 353.171 5.79138 2.66229 0
M  V30 3799 C 350.858 5.26366 3.10454 0
M  V30 3800 C 351.856 6.20284 2.85895 0
M  V30 3801 O 351.544 7.53245 2.80852 0
M  V30 3802 H 351.276 0.44315 0.510484 0
M  V30 3803 H 353.83 1.76711 1.04702 0
M  V30 3804 H 352.06 1.45554 3.58261 0
M  V30 3805 H 353.749 1.87403 3.60049 0
M  V30 3806 H 354.515 4.12485 2.5511 0
M  V30 3807 H 350.394 3.18229 3.33543 0
M  V30 3808 H 353.938 6.52416 2.4698 0
M  V30 3809 H 349.835 5.57304 3.25703 0
M  V30 3810 H 350.603 7.62846 2.96661 0
M  V30 3811 N 353.266 -1.05314 1.17247 0
M  V30 3812 C 354.494 -1.81971 0.984593 0
M  V30 3813 C 354.909 -1.82929 -0.467166 0
M  V30 3814 O 354.266 -1.25564 -1.32438 0
M  V30 3815 C 354.317 -3.28143 1.51672 0
M  V30 3816 O 354.038 -3.27347 2.91163 0
M  V30 3817 C 355.539 -4.21493 1.37326 0
M  V30 3818 H 352.759 -0.573455 0.348411 0
M  V30 3819 H 355.303 -1.32808 1.55506 0
M  V30 3820 H 353.458 -3.74582 0.988302 0
M  V30 3821 H 353.872 -4.18824 3.15732 0
M  V30 3822 H 355.346 -5.22043 1.79375 0
M  V30 3823 H 355.823 -4.38031 0.320169 0
M  V30 3824 H 356.429 -3.80909 1.89178 0
M  V30 3825 N 354.744 -0.972509 -1.24016 0
M  V30 3826 C 355.676 -0.464375 -2.24446 0
M  V30 3827 C 356.689 0.4295 -1.57032 0
M  V30 3828 O 357.878 0.234902 -1.76948 0
M  V30 3829 C 354.978 0.348385 -3.37105 0
M  V30 3830 C 354.151 -0.53673 -4.34094 0
M  V30 3831 C 353.21 0.220838 -5.25736 0
M  V30 3832 O 352.236 -0.386867 -5.67884 0
M  V30 3833 N 353.438 1.50907 -5.60542 0
M  V30 3834 H 356.203 -1.32788 -2.68677 0
M  V30 3835 H 353.764 -0.844877 -1.38107 0
M  V30 3836 H 355.756 0.863341 -3.95384 0
M  V30 3837 H 354.326 1.11285 -2.92121 0
M  V30 3838 H 353.546 -1.23261 -3.74433 0
M  V30 3839 H 354.834 -1.14022 -4.95859 0
M  V30 3840 H 354.232 2.02444 -5.28236 0
M  V30 3841 H 352.789 1.96962 -6.21329 0
M  V30 3842 N 356.222 1.38976 -0.743202 0
M  V30 3843 C 357.185 2.28901 -0.117014 0
M  V30 3844 C 358.185 1.46698 0.658503 0
M  V30 3845 O 359.375 1.67274 0.486305 0
M  V30 3846 C 356.507 3.30309 0.84315 0
M  V30 3847 H 357.7 2.8578 -0.909373 0
M  V30 3848 H 355.253 1.47761 -0.509547 0
M  V30 3849 H 355.988 2.785 1.66157 0
M  V30 3850 H 355.773 3.91029 0.289594 0
M  V30 3851 H 357.263 3.97577 1.2776 0
M  V30 3852 N 357.7 0.491464 1.49741 0
M  V30 3853 C 358.949 -0.0582189 2.01616 0
M  V30 3854 C 359.262 -1.38927 1.3769 0
M  V30 3855 O 360.468 -2.02509 1.80838 0
M  V30 3856 C 358.924 -0.154235 3.59569 0
M  V30 3857 C 358.532 1.1696 4.32463 0
M  V30 3858 C 360.276 -0.65479 4.1942 0
M  V30 3859 C 358.183 1.03627 5.8225 0
M  V30 3860 H 357.113 -0.0255317 0.753568 0
M  V30 3861 H 359.764 0.629445 1.72367 0
M  V30 3862 H 358.146 -0.906138 3.85493 0
M  V30 3863 H 359.32 1.93405 4.18248 0
M  V30 3864 H 357.635 1.60285 3.84315 0
M  V30 3865 H 360.232 -0.771903 5.29099 0
M  V30 3866 H 360.575 -1.65127 3.8215 0
M  V30 3867 H 361.108 0.040304 3.9778 0
M  V30 3868 H 357.847 2.00672 6.24028 0
M  V30 3869 H 357.367 0.312546 5.98985 0
M  V30 3870 H 359.046 0.711114 6.4308 0
M  V30 3871 N 359.178 -1.55987 0.224894 0
M  V30 3872 C 360.455 -1.90232 -0.455083 0
M  V30 3873 C 360.835 -1.14269 -1.77499 0
M  V30 3874 O 360.183 -0.253079 -2.27094 0
M  V30 3875 C 360.393 -3.42993 -0.644758 0
M  V30 3876 C 361.741 -4.13821 -0.950669 0
M  V30 3877 O 362.765 -3.4861 -0.731423 0
M  V30 3878 O 361.624 -5.29128 -1.36695 0
M  V30 3879 H 358.718 -0.79108 -0.241084 0
M  V30 3880 H 361.264 -1.67581 0.267327 0
M  V30 3881 H 360.036 -3.90252 0.28613 0
M  V30 3882 H 359.659 -3.71434 -1.41853 0
M  V30 3883 N 360.656 0.0484629 -1.57525 0
M  V30 3884 C 361.586 1.0549 -2.08313 0
M  V30 3885 C 362.567 1.38929 -0.981463 0
M  V30 3886 O 363.752 1.48151 -1.25558 0
M  V30 3887 C 360.882 2.36162 -2.54646 0
M  V30 3888 C 359.836 2.17016 -3.68901 0
M  V30 3889 C 359.162 3.53278 -4.01371 0
M  V30 3890 C 360.462 1.57219 -4.98076 0
M  V30 3891 H 362.156 0.632195 -2.92649 0
M  V30 3892 H 359.702 0.302654 -1.40784 0
M  V30 3893 H 361.655 3.06882 -2.88793 0
M  V30 3894 H 360.379 2.80456 -1.67368 0
M  V30 3895 H 359.038 1.48733 -3.35073 0
M  V30 3896 H 358.686 3.95185 -3.11188 0
M  V30 3897 H 358.386 3.41299 -4.78318 0
M  V30 3898 H 359.91 4.25391 -4.38035 0
M  V30 3899 H 361.324 2.17832 -5.30304 0
M  V30 3900 H 359.721 1.55871 -5.79503 0
M  V30 3901 H 360.791 0.535956 -4.81929 0
M  V30 3902 N 362.134 1.5431 0.320358 0
M  V30 3903 C 363.38 1.73859 1.05568 0
M  V30 3904 C 363.735 0.507807 1.85578 0
M  V30 3905 O 363.028 -0.499789 1.84967 0
M  V30 3906 C 363.222 2.95639 2.00828 0
M  V30 3907 C 363.051 4.30444 1.30186 0
M  V30 3908 C 361.821 4.94544 1.03703 0
M  V30 3909 C 364.019 5.0929 0.716138 0
M  V30 3910 N 362.001 6.13172 0.298846 0
M  V30 3911 C 363.372 6.19903 0.109729 0
M  V30 3912 C 365.427 4.94034 0.619269 0
M  V30 3913 C 364.13 7.16924 -0.584153 0
M  V30 3914 C 366.156 5.91369 -0.0609184 0
M  V30 3915 C 365.518 7.01336 -0.656258 0
M  V30 3916 H 361.617 0.688988 0.36989 0
M  V30 3917 H 364.201 1.9177 0.336494 0
M  V30 3918 H 362.372 2.79188 2.70016 0
M  V30 3919 H 364.104 3.03802 2.6737 0
M  V30 3920 H 360.859 4.54536 1.33019 0
M  V30 3921 H 361.283 6.76977 -0.0561964 0
M  V30 3922 H 365.925 4.0916 1.06526 0
M  V30 3923 H 363.643 8.01354 -1.04197 0
M  V30 3924 H 367.229 5.81642 -0.135552 0
M  V30 3925 H 366.109 7.75359 -1.17423 0
M  V30 3926 N 363.613 -0.582584 1.46437 0
M  V30 3927 C 364.838 -1.37168 1.55563 0
M  V30 3928 C 365.263 -1.87061 0.19743 0
M  V30 3929 O 364.621 -1.61572 -0.822451 0
M  V30 3930 C 364.669 -2.53511 2.56446 0
M  V30 3931 O 363.773 -3.54953 2.09958 0
M  V30 3932 H 363.114 -0.408494 0.523477 0
M  V30 3933 H 365.644 -0.706646 1.9201 0
M  V30 3934 H 365.654 -3.00426 2.76058 0
M  V30 3935 H 364.329 -2.16549 3.55076 0
M  V30 3936 H 362.906 -3.14516 2.00334 0
M  V30 3937 N 365.091 -1.34144 -0.827227 0
M  V30 3938 C 366.337 -1.26446 -1.58554 0
M  V30 3939 C 366.67 0.1664 -1.93486 0
M  V30 3940 O 365.945 1.1107 -1.59667 0
M  V30 3941 C 366.228 -2.15111 -2.8879 0
M  V30 3942 C 366.081 -3.66712 -2.60465 0
M  V30 3943 C 367.4 -2.03311 -3.90324 0
M  V30 3944 H 364.519 -0.46067 -0.575284 0
M  V30 3945 H 367.161 -1.64356 -0.953269 0
M  V30 3946 H 365.311 -1.8291 -3.42748 0
M  V30 3947 H 366.983 -4.09259 -2.1285 0
M  V30 3948 H 365.226 -3.88014 -1.93978 0
M  V30 3949 H 365.897 -4.24112 -3.53317 0
M  V30 3950 H 368.373 -2.31574 -3.45706 0
M  V30 3951 H 367.249 -2.67582 -4.79261 0
M  V30 3952 H 367.51 -1.00879 -4.30437 0
M  V30 3953 N 366.569 1.04691 -1.17803 0
M  V30 3954 C 367.817 1.7743 -0.967617 0
M  V30 3955 C 368.138 1.88359 0.504574 0
M  V30 3956 O 367.408 1.40402 1.36617 0
M  V30 3957 H 365.988 0.657242 -0.355024 0
M  V30 3958 H 368.65 1.2638 -1.48371 0
M  V30 3959 H 367.746 2.78924 -1.40027 0
M  V30 3960 N 368.047 0.979072 1.23499 0
M  V30 3961 C 369.287 0.655228 1.93613 0
M  V30 3962 C 369.651 -0.796336 1.74707 0
M  V30 3963 O 370.852 -1.23094 2.38959 0
M  V30 3964 C 369.123 1.03337 3.42135 0
M  V30 3965 S 370.682 0.825793 4.3096 0
M  V30 3966 H 367.5 0.240004 0.669267 0
M  V30 3967 H 370.102 1.25843 1.49612 0
M  V30 3968 H 368.806 2.08646 3.53405 0
M  V30 3969 H 368.337 0.421397 3.91137 0
M  V30 3970 H 370.352 -0.290991 4.95346 0
M  V30 3971 N 369.525 -1.3858 0.750561 0
M  V30 3972 C 370.774 -1.99424 0.302172 0
M  V30 3973 C 371.087 -1.60254 -1.12152 0
M  V30 3974 O 372.293 -2.14046 -1.67023 0
M  V30 3975 C 370.749 -3.56558 0.489307 0
M  V30 3976 C 370.357 -4.04682 1.92189 0
M  V30 3977 C 372.101 -4.24374 0.103478 0
M  V30 3978 C 370.008 -5.54446 2.05775 0
M  V30 3979 H 368.938 -0.746046 0.10923 0
M  V30 3980 H 371.589 -1.58383 0.92667 0
M  V30 3981 H 369.971 -3.95472 -0.204329 0
M  V30 3982 H 371.145 -3.77065 2.64875 0
M  V30 3983 H 369.46 -3.4958 2.26236 0
M  V30 3984 H 372.057 -5.34384 0.183787 0
M  V30 3985 H 372.4 -4.05468 -0.943481 0
M  V30 3986 H 372.933 -3.90688 0.748854 0
M  V30 3987 H 369.672 -5.78252 3.08714 0
M  V30 3988 H 369.192 -5.83816 1.37546 0
M  V30 3989 H 370.871 -6.20099 1.84626 0
M  V30 3990 N 371.003 -0.499398 -1.49478 0
M  V30 3991 C 372.25 0.0456899 -2.02448 0
M  V30 3992 C 372.578 1.37142 -1.37921 0
M  V30 3993 O 371.833 1.89111 -0.503544 0
M  V30 3994 C 372.132 0.248424 -3.56536 0
M  V30 3995 C 371.798 -0.999107 -4.39692 0
M  V30 3996 C 370.46 -1.34108 -4.62135 0
M  V30 3997 C 372.812 -1.82842 -4.88076 0
M  V30 3998 C 370.14 -2.51191 -5.30208 0
M  V30 3999 C 372.492 -2.99076 -5.57437 0
M  V30 4000 C 371.156 -3.33655 -5.78127 0
M  V30 4001 H 370.426 0.0167191 -0.740811 0
M  V30 4002 H 373.073 -0.65923 -1.79795 0
M  V30 4003 H 371.378 1.03586 -3.77859 0
M  V30 4004 H 373.075 0.684605 -3.95113 0
M  V30 4005 H 369.665 -0.722729 -4.22463 0
M  V30 4006 H 373.849 -1.57737 -4.70566 0
M  V30 4007 H 369.105 -2.78221 -5.44429 0
M  V30 4008 H 373.279 -3.63664 -5.93904 0
M  V30 4009 H 370.906 -4.24483 -6.30649 0
M  V30 4010 N 372.481 1.55866 -0.233164 0
M  V30 4011 C 373.729 1.9821 0.394593 0
M  V30 4012 C 374.05 1.12234 1.59463 0
M  V30 4013 O 373.32 0.201981 1.94856 0
M  V30 4014 H 371.9 0.732034 0.148778 0
M  V30 4015 H 374.562 1.92107 -0.32876 0
M  V30 4016 H 373.658 3.03845 0.713063 0
M  V30 4017 N 373.959 -0.0401083 1.57549 0
M  V30 4018 C 374.869 -1.06133 2.0922 0
M  V30 4019 C 375.885 -1.40356 1.0284 0
M  V30 4020 O 377.061 -1.49897 1.34509 0
M  V30 4021 C 374.126 -2.34658 2.55218 0
M  V30 4022 C 373.187 -2.07117 3.76033 0
M  V30 4023 C 372.42 -3.29514 4.19829 0
M  V30 4024 O 372.643 -4.39794 3.63232 0
M  V30 4025 O 371.577 -3.15863 5.12362 0
M  V30 4026 H 375.403 -0.652244 2.96613 0
M  V30 4027 H 372.988 -0.256368 1.47184 0
M  V30 4028 H 374.87 -3.10239 2.85184 0
M  V30 4029 H 373.545 -2.74883 1.70941 0
M  V30 4030 H 372.452 -1.29139 3.51104 0
M  V30 4031 H 373.785 -1.71754 4.61261 0
M  V30 4032 N 375.437 -1.54477 -0.31217 0
M  V30 4033 C 376.37 -1.79519 -1.40884 0
M  V30 4034 C 377.348 -0.645753 -1.49227 0
M  V30 4035 O 378.532 -0.884468 -1.66461 0
M  V30 4036 C 375.659 -1.92194 -2.78889 0
M  V30 4037 C 374.705 -3.14555 -2.88023 0
M  V30 4038 S 375.538 -4.72893 -2.51262 0
M  V30 4039 C 376.694 -4.8849 -3.91317 0
M  V30 4040 H 376.927 -2.72256 -1.19432 0
M  V30 4041 H 374.46 -1.45746 -0.509654 0
M  V30 4042 H 376.418 -2.00182 -3.58382 0
M  V30 4043 H 375.079 -1.00414 -2.97617 0
M  V30 4044 H 374.272 -3.20193 -3.89221 0
M  V30 4045 H 373.874 -3.04955 -2.16514 0
M  V30 4046 H 376.166 -4.71826 -4.86196 0
M  V30 4047 H 377.109 -5.90588 -3.90656 0
M  V30 4048 H 377.517 -4.16715 -3.80801 0
M  V30 4049 N 376.915 0.57481 -1.46744 0
M  V30 4050 C 377.845 1.69337 -1.60771 0
M  V30 4051 C 378.826 1.63825 -0.457736 0
M  V30 4052 O 380.011 1.8172 -0.684947 0
M  V30 4053 C 377.141 3.0798 -1.60517 0
M  V30 4054 C 376.095 3.28327 -2.74564 0
M  V30 4055 C 375.421 4.67578 -2.59373 0
M  V30 4056 C 376.721 3.15398 -4.16319 0
M  V30 4057 H 378.415 1.57853 -2.54407 0
M  V30 4058 H 375.961 0.75799 -1.22436 0
M  V30 4059 H 377.914 3.86061 -1.68923 0
M  V30 4060 H 376.638 3.20381 -0.634305 0
M  V30 4061 H 375.297 2.52649 -2.65639 0
M  V30 4062 H 374.945 4.76755 -1.60353 0
M  V30 4063 H 374.645 4.82144 -3.35873 0
M  V30 4064 H 376.169 5.47817 -2.69682 0
M  V30 4065 H 377.583 3.83315 -4.26313 0
M  V30 4066 H 375.98 3.41482 -4.93468 0
M  V30 4067 H 377.05 2.12372 -4.3592 0
M  V30 4068 N 378.394 1.34581 0.820102 0
M  V30 4069 C 379.357 1.2628 1.91275 0
M  V30 4070 C 380.357 0.177344 1.59819 0
M  V30 4071 O 381.547 0.430156 1.68806 0
M  V30 4072 C 378.679 0.950327 3.27386 0
M  V30 4073 H 379.872 2.23421 2.00057 0
M  V30 4074 H 377.425 1.1891 1.0144 0
M  V30 4075 H 378.16 -0.0177938 3.24295 0
M  V30 4076 H 377.945 1.73549 3.51601 0
M  V30 4077 H 379.435 0.917492 4.07396 0
M  V30 4078 N 379.872 -1.04064 1.18357 0
M  V30 4079 C 381.288 -1.2947 0.933258 0
M  V30 4080 C 381.488 -1.97466 -0.401169 0
M  V30 4081 O 380.544 -2.25528 -1.13549 0
M  V30 4082 C 381.857 -2.15337 2.09882 0
M  V30 4083 C 383.405 -2.28683 2.13712 0
M  V30 4084 C 383.88 -3.17917 3.29686 0
M  V30 4085 N 385.371 -3.25504 3.29547 0
M  V30 4086 C 386.106 -3.94706 4.15926 0
M  V30 4087 N 385.602 -4.66239 5.12439 0
M  V30 4088 N 387.395 -3.90986 4.0384 0
M  V30 4089 H 379.546 -0.583359 2.04232 0
M  V30 4090 H 381.809 -0.319921 0.892387 0
M  V30 4091 H 381.515 -1.72682 3.06389 0
M  V30 4092 H 381.389 -3.16015 2.05947 0
M  V30 4093 H 383.776 -2.70575 1.17784 0
M  V30 4094 H 383.857 -1.27596 2.21705 0
M  V30 4095 H 383.501 -2.76736 4.25887 0
M  V30 4096 H 383.431 -4.19036 3.1893 0
M  V30 4097 H 385.922 -2.74547 2.59677 0
M  V30 4098 H 386.235 -5.16638 5.74722 0
M  V30 4099 H 384.58 -4.65143 5.16398 0
M  V30 4100 H 387.771 -3.34234 3.27727 0
M  V30 4101 H 387.944 -4.44646 4.71375 0
M  V30 4102 N 381.35 -0.985608 -1.22978 0
M  V30 4103 C 382.766 -0.695104 -1.43668 0
M  V30 4104 C 382.966 0.736866 -1.87543 0
M  V30 4105 O 382.022 1.50868 -2.02473 0
M  V30 4106 C 383.335 -1.69447 -2.48412 0
M  V30 4107 C 384.883 -1.70909 -2.62219 0
M  V30 4108 C 385.358 -2.6969 -3.70178 0
M  V30 4109 N 386.849 -2.6824 -3.77626 0
M  V30 4110 C 387.584 -3.41339 -4.60733 0
M  V30 4111 N 387.08 -4.24015 -5.4789 0
M  V30 4112 N 388.873 -3.30079 -4.54977 0
M  V30 4113 H 381.024 -1.91054 -0.928016 0
M  V30 4114 H 383.287 -0.823553 -0.469536 0
M  V30 4115 H 382.993 -2.7188 -2.23102 0
M  V30 4116 H 382.867 -1.48147 -3.46889 0
M  V30 4117 H 385.254 -0.691785 -2.86877 0
M  V30 4118 H 385.335 -1.96276 -1.6404 0
M  V30 4119 H 384.979 -3.71566 -3.46268 0
M  V30 4120 H 384.909 -2.41595 -4.67909 0
M  V30 4121 H 387.4 -2.08243 -3.15346 0
M  V30 4122 H 387.713 -4.76636 -6.08308 0
M  V30 4123 H 386.058 -4.28104 -5.47496 0
M  V30 4124 H 389.249 -2.64937 -3.85909 0
M  V30 4125 H 389.422 -3.87308 -5.19516 0
M  V30 4126 N 382.828 1.3818 -0.7579 0
M  V30 4127 C 383.76 2.2901 -0.0932177 0
M  V30 4128 C 384.773 1.47958 0.679136 0
M  V30 4129 O 385.962 1.70773 0.519514 0
M  V30 4130 C 383.062 3.26953 0.89192 0
M  V30 4131 C 382.235 4.37045 0.176303 0
M  V30 4132 C 381.294 5.15148 1.07281 0
M  V30 4133 O 380.32 5.66616 0.541728 0
M  V30 4134 N 381.522 5.28542 2.40049 0
M  V30 4135 H 384.287 2.86694 -0.873303 0
M  V30 4136 H 381.848 1.50007 -0.609054 0
M  V30 4137 H 383.84 3.76083 1.49479 0
M  V30 4138 H 382.41 2.70136 1.57306 0
M  V30 4139 H 381.63 3.89493 -0.607328 0
M  V30 4140 H 382.918 5.07801 -0.318718 0
M  V30 4141 H 382.316 4.88285 2.85647 0
M  V30 4142 H 380.873 5.8103 2.95376 0
M  V30 4143 N 384.306 0.507319 1.49211 0
M  V30 4144 C 385.236 -0.256939 2.32082 0
M  V30 4145 C 386.217 -0.956609 1.40652 0
M  V30 4146 O 387.402 -0.946788 1.69557 0
M  V30 4147 C 384.532 -1.31802 3.21318 0
M  V30 4148 C 383.486 -0.737855 4.21592 0
M  V30 4149 C 382.812 -1.89992 4.99807 0
M  V30 4150 C 384.112 0.275325 5.21574 0
M  V30 4151 H 385.806 0.434798 2.96226 0
M  V30 4152 H 383.352 0.210546 1.42452 0
M  V30 4153 H 385.305 -1.86045 3.78107 0
M  V30 4154 H 384.029 -2.03903 2.5513 0
M  V30 4155 H 382.688 -0.217126 3.65956 0
M  V30 4156 H 382.336 -2.60877 4.30061 0
M  V30 4157 H 382.036 -1.51777 5.6766 0
M  V30 4158 H 383.56 -2.44657 5.59442 0
M  V30 4159 H 384.974 -0.179193 5.7302 0
M  V30 4160 H 383.371 0.573649 5.97352 0
M  V30 4161 H 384.441 1.18903 4.70096 0
M  V30 4162 N 385.784 -1.5574 0.241426 0
M  V30 4163 C 387.031 -1.9881 -0.384836 0
M  V30 4164 C 387.359 -1.12947 -1.58346 0
M  V30 4165 O 386.614 -0.178993 -1.9488 0
M  V30 4166 C 386.913 -3.47308 -0.843317 0
M  V30 4167 C 386.579 -4.50223 0.246946 0
M  V30 4168 C 385.241 -4.78088 0.546399 0
M  V30 4169 C 387.593 -5.11841 0.983282 0
M  V30 4170 C 384.921 -5.64846 1.58636 0
M  V30 4171 C 387.273 -5.99727 2.01272 0
M  V30 4172 C 385.937 -6.25927 2.31888 0
M  V30 4173 H 385.207 -0.727496 -0.140821 0
M  V30 4174 H 387.854 -1.8831 0.348106 0
M  V30 4175 H 386.159 -3.55112 -1.65537 0
M  V30 4176 H 387.856 -3.78017 -1.33806 0
M  V30 4177 H 384.446 -4.286 0.00340639 0
M  V30 4178 H 388.63 -4.90366 0.765182 0
M  V30 4179 H 383.886 -5.83403 1.82896 0
M  V30 4180 H 388.06 -6.46517 2.58823 0
M  V30 4181 H 385.687 -6.92949 3.12611 0
M  V30 4182 N 387.262 0.0317525 -1.57568 0
M  V30 4183 C 388.673 0.578692 -1.77505 0
M  V30 4184 C 389.024 1.75749 -0.872164 0
M  V30 4185 O 388.149 2.16298 -0.0663106 0
M  V30 4186 C 388.744 1.05658 -3.21904 0
M  V30 4187 C 387.303 1.54906 -3.43047 0
M  V30 4188 C 386.45 0.485939 -2.73009 0
M  V30 4189 H 389.401 -0.194475 -1.57504 0
M  V30 4190 H 389.422 1.92404 -3.28269 0
M  V30 4191 H 388.934 0.198422 -3.87592 0
M  V30 4192 H 387.035 2.42915 -2.82529 0
M  V30 4193 H 387.148 1.59841 -4.5165 0
M  V30 4194 H 385.512 0.940354 -2.36705 0
M  V30 4195 H 386.295 -0.362709 -3.41379 0
M  V30 4196 N 388.74 1.54641 0.303973 0
M  V30 4197 C 389.988 1.73437 1.0375 0
M  V30 4198 C 390.309 0.521449 1.87899 0
M  V30 4199 O 389.579 -0.46432 1.90318 0
M  V30 4200 H 388.159 0.639518 0.386039 0
M  V30 4201 H 390.821 1.91988 0.335675 0
M  V30 4202 H 389.917 2.62235 1.69231 0
M  V30 4203 N 390.218 -0.567019 1.47046 0
M  V30 4204 C 391.165 -1.67489 1.58796 0
M  V30 4205 C 392.135 -1.60399 0.43144 0
M  V30 4206 O 393.32 -1.79378 0.650233 0
M  V30 4207 C 390.46 -3.05821 1.59899 0
M  V30 4208 C 389.573 -3.2342 2.86397 0
M  V30 4209 C 388.708 -4.52093 2.789 0
M  V30 4210 C 387.747 -4.6309 4.00267 0
M  V30 4211 N 386.884 -5.83106 3.91064 0
M  V30 4212 H 391.724 -1.56785 2.53422 0
M  V30 4213 H 389.261 -0.763896 1.2571 0
M  V30 4214 H 391.219 -3.8591 1.58522 0
M  V30 4215 H 389.849 -3.15384 0.687929 0
M  V30 4216 H 388.901 -2.3683 2.97684 0
M  V30 4217 H 390.213 -3.27412 3.76301 0
M  V30 4218 H 389.367 -5.4043 2.75718 0
M  V30 4219 H 388.106 -4.50565 1.86662 0
M  V30 4220 H 387.111 -3.73168 4.03765 0
M  V30 4221 H 388.336 -4.66386 4.93621 0
M  V30 4222 H 386.282 -5.82546 3.01623 0
M  V30 4223 H 386.199 -5.88434 4.74638 0
M  V30 4224 H 387.467 -6.73831 3.91882 0
M  V30 4225 N 391.696 -1.35014 -0.812953 0
M  V30 4226 C 392.644 -1.27435 -1.94585 0
M  V30 4227 C 393.638 -0.170494 -1.6854 0
M  V30 4228 O 394.844 -0.336085 -1.76835 0
M  V30 4229 H 391.219 -0.396144 -0.639198 0
M  V30 4230 H 393.19 -2.23158 -1.98098 0
M  V30 4231 C 391.939 -1.05677 -3.31252 0
M  V30 4232 H 391.262 -1.89853 -3.51846 0
M  V30 4233 H 392.702 -1.04413 -4.10943 0
M  V30 4234 C 391.161 0.239615 -3.36047 0
M  V30 4235 O 391.691 1.23759 -3.8216 0
M  V30 4236 N 389.897 0.276186 -2.89285 0
M  V30 4237 H 389.444 -0.53653 -2.51951 0
M  V30 4238 H 389.402 1.14332 -2.92875 0
M  V30 4239 N 393.175 1.03435 -1.18907 0
M  V30 4240 C 394.405 1.8012 -1.01195 0
M  V30 4241 C 394.813 1.8395 0.442613 0
M  V30 4242 O 394.156 1.27836 1.31923 0
M  V30 4243 C 394.218 3.26792 -1.49823 0
M  V30 4244 C 393.882 3.46609 -2.97844 0
M  V30 4245 C 394.879 3.37278 -3.95651 0
M  V30 4246 C 392.564 3.73001 -3.36416 0
M  V30 4247 C 394.558 3.54054 -5.30023 0
M  V30 4248 C 392.245 3.89423 -4.70949 0
M  V30 4249 C 393.243 3.79951 -5.67562 0
M  V30 4250 O 392.931 3.95895 -6.99659 0
M  V30 4251 H 392.663 0.573865 -0.357289 0
M  V30 4252 H 395.217 1.31207 -1.58031 0
M  V30 4253 H 393.447 3.76703 -0.873578 0
M  V30 4254 H 395.136 3.85055 -1.28404 0
M  V30 4255 H 395.902 3.16846 -3.67197 0
M  V30 4256 H 391.781 3.79469 -2.61772 0
M  V30 4257 H 395.325 3.46577 -6.05417 0
M  V30 4258 H 391.222 4.09351 -4.99101 0
M  V30 4259 H 391.99 4.13019 -7.06653 0
M  V30 4260 N 394.653 0.992116 1.22453 0
M  V30 4261 C 395.899 0.668523 1.91464 0
M  V30 4262 C 396.232 -0.797313 1.77078 0
M  V30 4263 O 395.507 -1.5765 1.13916 0
M  V30 4264 C 395.79 1.07424 3.43703 0
M  V30 4265 C 395.643 2.59857 3.67143 0
M  V30 4266 C 396.962 0.626891 4.35612 0
M  V30 4267 H 394.081 0.244341 0.695318 0
M  V30 4268 H 396.723 1.2355 1.44345 0
M  V30 4269 H 394.873 0.591816 3.83966 0
M  V30 4270 H 396.545 3.15764 3.3629 0
M  V30 4271 H 394.788 3.01961 3.11451 0
M  V30 4272 H 395.459 2.83296 4.73759 0
M  V30 4273 H 397.935 1.04125 4.02861 0
M  V30 4274 H 396.811 0.939076 5.40807 0
M  V30 4275 H 397.072 -0.472457 4.39568 0
M  V30 4276 N 396.131 -1.37776 0.765217 0
M  V30 4277 C 397.081 -2.2768 0.12075 0
M  V30 4278 C 398.065 -1.45778 -0.680988 0
M  V30 4279 O 399.257 -1.684 -0.545033 0
M  V30 4280 C 396.386 -3.34722 -0.762626 0
M  V30 4281 C 395.472 -4.24074 0.0465881 0
M  V30 4282 N 395.863 -4.93939 1.08892 0
M  V30 4283 C 394.161 -4.45643 -0.178418 0
M  V30 4284 C 394.862 -5.59845 1.57951 0
M  V30 4285 N 393.838 -5.36218 0.892797 0
M  V30 4286 H 397.64 -2.79166 0.918889 0
M  V30 4287 H 395.154 -1.50816 0.602353 0
M  V30 4288 H 397.151 -3.98031 -1.24005 0
M  V30 4289 H 395.811 -2.84793 -1.55959 0
M  V30 4290 H 396.822 -4.96572 1.47095 0
M  V30 4291 H 393.499 -4.06599 -0.9478 0
M  V30 4292 H 394.889 -6.25703 2.44838 0
M  V30 4293 N 397.609 -0.515225 -1.4894 0
M  V30 4294 C 398.541 0.292481 -2.27326 0
M  V30 4295 C 399.554 0.917838 -1.3446 0
M  V30 4296 O 400.743 0.798772 -1.5963 0
M  V30 4297 C 397.843 1.42803 -3.07344 0
M  V30 4298 C 397.016 0.907347 -4.27885 0
M  V30 4299 C 396.075 1.92222 -4.89834 0
M  V30 4300 O 395.101 1.48506 -5.49486 0
M  V30 4301 N 396.303 3.25355 -4.80754 0
M  V30 4302 H 399.068 -0.379721 -2.97285 0
M  V30 4303 H 396.629 -0.348638 -1.58102 0
M  V30 4304 H 398.621 2.10481 -3.45658 0
M  V30 4305 H 397.191 2.00414 -2.39902 0
M  V30 4306 H 396.411 0.0550218 -3.94162 0
M  V30 4307 H 397.699 0.538108 -5.05946 0
M  V30 4308 H 397.097 3.6355 -4.33414 0
M  V30 4309 H 395.654 3.88707 -5.23211 0
M  V30 4310 N 399.087 1.5561 -0.249682 0
M  V30 4311 C 400.017 2.24477 0.642826 0
M  V30 4312 C 400.998 1.22601 1.17911 0
M  V30 4313 O 402.183 1.5126 1.21795 0
M  V30 4314 C 399.313 2.94638 1.83863 0
M  V30 4315 C 398.267 4.03227 1.435 0
M  V30 4316 C 397.593 4.60828 2.71186 0
M  V30 4317 C 398.893 5.18796 0.604002 0
M  V30 4318 H 400.587 2.99321 0.0685625 0
M  V30 4319 H 398.133 1.43965 0.0315363 0
M  V30 4320 H 400.086 3.41517 2.46868 0
M  V30 4321 H 398.81 2.17287 2.43832 0
M  V30 4322 H 397.469 3.57121 0.828275 0
M  V30 4323 H 397.117 3.80174 3.29358 0
M  V30 4324 H 396.817 5.34132 2.44901 0
M  V30 4325 H 398.341 5.10442 3.35084 0
M  V30 4326 H 399.755 5.61883 1.13842 0
M  V30 4327 H 398.152 5.98506 0.437097 0
M  V30 4328 H 399.222 4.83384 -0.383147 0
M  V30 4329 N 400.565 -0.0233959 1.57583 0
M  V30 4330 C 401.497 -1.04994 2.03737 0
M  V30 4331 C 402.51 -1.32125 0.951152 0
M  V30 4332 O 403.699 -1.29512 1.22837 0
M  V30 4333 C 400.799 -2.39026 2.40249 0
M  V30 4334 C 399.972 -2.31171 3.7132 0
M  V30 4335 C 399.031 -3.47698 3.94959 0
M  V30 4336 O 398.057 -3.26937 4.65941 0
M  V30 4337 N 399.259 -4.6976 3.41037 0
M  V30 4338 H 402.024 -0.656507 2.92421 0
M  V30 4339 H 399.585 -0.211235 1.60516 0
M  V30 4340 H 401.577 -3.15712 2.53196 0
M  V30 4341 H 400.147 -2.70194 1.57207 0
M  V30 4342 H 399.367 -1.39547 3.68674 0
M  V30 4343 H 400.655 -2.23071 4.57293 0
M  V30 4344 H 400.053 -4.89528 2.83512 0
M  V30 4345 H 398.61 -5.43791 3.59353 0
M  V30 4346 N 402.043 -1.548 -0.295768 0
M  V30 4347 C 402.973 -1.89115 -1.36959 0
M  V30 4348 C 403.954 -0.75059 -1.52644 0
M  V30 4349 O 405.139 -1.00678 -1.66065 0
M  V30 4350 C 402.269 -2.14307 -2.73295 0
M  V30 4351 C 401.223 -3.30151 -2.72368 0
M  V30 4352 C 400.549 -3.40772 -4.12042 0
M  V30 4353 C 401.849 -4.67126 -2.33646 0
M  V30 4354 H 403.543 -2.79053 -1.08488 0
M  V30 4355 H 401.089 -1.34266 -0.520443 0
M  V30 4356 H 403.042 -2.36898 -3.48507 0
M  V30 4357 H 401.766 -1.21145 -3.03301 0
M  V30 4358 H 400.425 -3.0749 -1.99613 0
M  V30 4359 H 400.073 -2.45117 -4.39234 0
M  V30 4360 H 399.773 -4.18645 -4.12322 0
M  V30 4361 H 401.297 -3.6563 -4.89027 0
M  V30 4362 H 402.711 -4.89414 -2.98575 0
M  V30 4363 H 401.108 -5.47751 -2.45129 0
M  V30 4364 H 402.178 -4.67489 -1.28772 0
M  V30 4365 N 403.521 0.559213 -1.47345 0
M  V30 4366 C 404.77 1.31281 -1.53128 0
M  V30 4367 C 405.083 1.94602 -0.197344 0
M  V30 4368 O 406.289 2.71173 -0.133154 0
M  V30 4369 C 404.745 2.38051 -2.69925 0
M  V30 4370 C 404.353 1.8093 -4.0984 0
M  V30 4371 C 406.097 3.14604 -2.84999 0
M  V30 4372 C 404.004 2.85468 -5.1794 0
M  V30 4373 H 402.934 0.493614 -0.569966 0
M  V30 4374 H 405.585 0.594155 -1.73615 0
M  V30 4375 H 403.967 3.12822 -2.42814 0
M  V30 4376 H 405.141 1.12544 -4.46845 0
M  V30 4377 H 403.456 1.16967 -3.99634 0
M  V30 4378 H 406.053 3.92666 -3.62929 0
M  V30 4379 H 406.396 3.68665 -1.93369 0
M  V30 4380 H 406.929 2.46945 -3.1187 0
M  V30 4381 H 403.668 2.36264 -6.1144 0
M  V30 4382 H 403.188 3.52269 -4.85455 0
M  V30 4383 H 404.867 3.48996 -5.44803 0
M  V30 4384 N 404.999 1.35443 0.805782 0
M  V30 4385 C 405.932 1.22783 1.92353 0
M  V30 4386 C 406.91 0.115543 1.62189 0
M  V30 4387 O 408.094 0.283778 1.86352 0
M  V30 4388 C 405.221 0.890746 3.26777 0
M  V30 4389 C 404.267 2.01519 3.75889 0
M  V30 4390 S 405.1 3.63101 3.93596 0
M  V30 4391 C 406.256 3.31472 5.30921 0
M  V30 4392 H 406.489 2.17394 2.02798 0
M  V30 4393 H 404.022 1.20669 0.963245 0
M  V30 4394 H 405.98 0.703068 4.04434 0
M  V30 4395 H 404.641 -0.0373152 3.14078 0
M  V30 4396 H 403.834 1.7335 4.7325 0
M  V30 4397 H 403.436 2.16124 3.05231 0
M  V30 4398 H 405.728 2.8435 6.1494 0
M  V30 4399 H 406.671 4.28036 5.64084 0
M  V30 4400 H 407.079 2.67221 4.97246 0
M  V30 4401 N 406.477 -1.02803 1.19454 0
M  V30 4402 C 407.41 -2.107 0.876396 0
M  V30 4403 C 408.388 -1.61741 -0.166897 0
M  V30 4404 O 409.572 -1.88451 -0.0430195 0
M  V30 4405 C 406.699 -3.37262 0.311758 0
M  V30 4406 C 405.745 -4.05093 1.33424 0
M  V30 4407 S 406.578 -4.50498 2.89503 0
M  V30 4408 C 407.734 -5.80277 2.34584 0
M  V30 4409 H 407.967 -2.37362 1.79016 0
M  V30 4410 H 405.5 -1.15755 1.02177 0
M  V30 4411 H 407.458 -4.10499 -0.00748752 0
M  V30 4412 H 406.119 -3.08693 -0.58032 0
M  V30 4413 H 405.312 -4.9611 0.888302 0
M  V30 4414 H 404.914 -3.3803 1.60037 0
M  V30 4415 H 407.206 -6.54873 1.73633 0
M  V30 4416 H 408.149 -6.29651 3.23952 0
M  V30 4417 H 408.557 -5.3599 1.77131 0
M  V30 4418 N 407.956 -0.998596 -1.21925 0
M  V30 4419 C 409.202 -0.678667 -1.91107 0
M  V30 4420 C 409.535 0.78791 -1.77498 0
M  V30 4421 O 408.81 1.57043 -1.1475 0
M  V30 4422 C 409.093 -1.09245 -3.43129 0
M  V30 4423 C 408.946 -2.61801 -3.6576 0
M  V30 4424 C 410.265 -0.649984 -4.35274 0
M  V30 4425 H 407.384 -0.248025 -0.694012 0
M  V30 4426 H 410.026 -1.24314 -1.43688 0
M  V30 4427 H 408.176 -0.612171 -3.83647 0
M  V30 4428 H 409.848 -3.17543 -3.34611 0
M  V30 4429 H 408.091 -3.03609 -3.09845 0
M  V30 4430 H 408.762 -2.85804 -4.7225 0
M  V30 4431 H 411.238 -1.0626 -4.02303 0
M  V30 4432 H 410.114 -0.967743 -5.40302 0
M  V30 4433 H 410.375 0.449139 -4.39813 0
M  V30 4434 N 409.434 1.37368 -0.772513 0
M  V30 4435 C 410.364 2.32856 -0.173304 0
M  V30 4436 C 411.345 1.55818 0.682262 0
M  V30 4437 O 412.53 1.84052 0.619566 0
M  V30 4438 C 409.66 3.40048 0.706007 0
M  V30 4439 C 408.614 4.27973 -0.0483144 0
M  V30 4440 C 407.94 5.26184 0.950491 0
M  V30 4441 C 409.24 5.07665 -1.22776 0
M  V30 4442 H 410.934 2.83217 -0.971002 0
M  V30 4443 H 408.48 1.3617 -0.468377 0
M  V30 4444 H 410.433 4.05827 1.13501 0
M  V30 4445 H 409.157 2.88214 1.53623 0
M  V30 4446 H 407.816 3.63726 -0.458107 0
M  V30 4447 H 407.464 4.7063 1.77529 0
M  V30 4448 H 407.164 5.85872 0.450314 0
M  V30 4449 H 408.688 5.94838 1.37842 0
M  V30 4450 H 410.102 5.66578 -0.875366 0
M  V30 4451 H 408.499 5.76681 -1.66007 0
M  V30 4452 H 409.569 4.40294 -2.03149 0
M  V30 4453 N 410.912 0.523116 1.48665 0
M  V30 4454 C 412.16 -0.0134497 2.02096 0
M  V30 4455 C 412.481 -1.35418 1.40311 0
M  V30 4456 O 411.751 -1.87543 0.566074 0
M  V30 4457 H 410.331 -0.00795915 0.746958 0
M  V30 4458 H 412.993 0.685388 1.82451 0
M  V30 4459 H 412.089 -0.126849 3.11842 0
M  V30 4460 N 412.39 -1.55475 0.257931 0
M  V30 4461 C 413.618 -2.03609 -0.367559 0
M  V30 4462 C 414.033 -1.13687 -1.50734 0
M  V30 4463 O 413.39 -0.153479 -1.81853 0
M  V30 4464 C 413.441 -3.51001 -0.864908 0
M  V30 4465 O 413.162 -4.37499 0.229465 0
M  V30 4466 C 414.663 -4.14946 -1.55997 0
M  V30 4467 H 411.883 -0.665459 -0.0860521 0
M  V30 4468 H 414.427 -2.00843 0.385014 0
M  V30 4469 H 412.582 -3.54266 -1.56762 0
M  V30 4470 H 412.996 -5.24286 -0.14998 0
M  V30 4471 H 414.47 -5.19735 -1.85956 0
M  V30 4472 H 414.947 -3.6209 -2.4857 0
M  V30 4473 H 415.553 -4.15635 -0.901543 0
M  V30 4474 N 413.868 0.0150385 -1.57593 0
M  V30 4475 C 415.279 0.559832 -1.78109 0
M  V30 4476 C 415.63 1.74814 -0.890756 0
M  V30 4477 O 414.755 2.16216 -0.0892482 0
M  V30 4478 C 415.35 1.02238 -3.23006 0
M  V30 4479 C 413.909 1.51258 -3.44671 0
M  V30 4480 C 413.056 0.456955 -2.73509 0
M  V30 4481 H 416.007 -0.211169 -1.57289 0
M  V30 4482 H 416.028 1.88912 -3.30292 0
M  V30 4483 H 415.54 0.157302 -3.87781 0
M  V30 4484 H 413.641 2.39905 -2.8509 0
M  V30 4485 H 413.754 1.55042 -4.5332 0
M  V30 4486 H 412.118 0.915196 -2.37689 0
M  V30 4487 H 412.901 -0.398896 -3.40975 0
M  V30 4488 N 415.346 1.54954 0.287554 0
M  V30 4489 C 416.571 1.79209 1.04397 0
M  V30 4490 C 416.996 0.556431 1.79682 0
M  V30 4491 O 416.354 -0.493518 1.74454 0
M  V30 4492 C 416.402 3.00739 1.98969 0
M  V30 4493 O 415.506 2.74805 3.075 0
M  V30 4494 H 414.847 0.592755 0.299227 0
M  V30 4495 H 417.377 2.02068 0.320886 0
M  V30 4496 H 417.387 3.29077 2.4119 0
M  V30 4497 H 416.062 3.90329 1.43582 0
M  V30 4498 H 414.639 2.57523 2.69697 0
M  V30 4499 N 416.824 -0.551391 1.4764 0
M  V30 4500 C 418.235 -1.13349 1.48354 0
M  V30 4501 C 418.586 -1.94709 0.241432 0
M  V30 4502 O 417.711 -2.06306 -0.653205 0
M  V30 4503 C 418.306 -2.0623 2.68802 0
M  V30 4504 C 416.865 -2.597 2.72457 0
M  V30 4505 C 416.012 -1.36201 2.41546 0
M  V30 4506 H 418.963 -0.337698 1.55065 0
M  V30 4507 H 418.984 -2.90196 2.46103 0
M  V30 4508 H 418.496 -1.46987 3.59188 0
M  V30 4509 H 416.597 -3.22724 1.86225 0
M  V30 4510 H 416.71 -3.00296 3.73308 0
M  V30 4511 H 415.074 -1.67068 1.9225 0
M  V30 4512 H 415.857 -0.787425 3.34147 0
M  V30 4513 N 418.302 -1.35869 -0.798587 0
M  V30 4514 C 419.265 -1.29307 -1.89242 0
M  V30 4515 C 420.265 -0.202747 -1.59517 0
M  V30 4516 O 421.455 -0.456957 -1.681 0
M  V30 4517 C 418.587 -1.00229 -3.25833 0
M  V30 4518 H 419.78 -2.26576 -1.96478 0
M  V30 4519 H 417.333 -1.20509 -0.995358 0
M  V30 4520 H 418.068 -0.033801 -3.24282 0
M  V30 4521 H 417.853 -1.79121 -3.48795 0
M  V30 4522 H 419.343 -0.98219 -4.05885 0
M  V30 4523 N 419.78 1.02168 -1.19998 0
M  V30 4524 C 421.026 1.75945 -1.00852 0
M  V30 4525 C 421.359 1.88702 0.458828 0
M  V30 4526 O 420.634 1.40911 1.34069 0
M  V30 4527 C 420.917 3.18154 -1.68671 0
M  V30 4528 C 420.77 3.13224 -3.22817 0
M  V30 4529 C 422.089 4.16711 -1.41561 0
M  V30 4530 H 419.208 0.638673 -0.367785 0
M  V30 4531 H 421.85 1.19222 -1.4794 0
M  V30 4532 H 420 3.66586 -1.28636 0
M  V30 4533 H 421.672 2.72635 -3.72112 0
M  V30 4534 H 419.915 2.50751 -3.53986 0
M  V30 4535 H 420.586 4.13728 -3.65422 0
M  V30 4536 H 423.062 3.76913 -1.76284 0
M  V30 4537 H 421.938 5.14391 -1.91553 0
M  V30 4538 H 422.199 4.40774 -0.342193 0
M  V30 4539 N 421.258 1.00505 1.21394 0
M  V30 4540 C 422.507 0.683159 1.89778 0
M  V30 4541 C 422.82 -0.789471 1.7896 0
M  V30 4542 O 424.026 -1.22344 2.42372 0
M  V30 4543 C 422.482 1.17146 3.40301 0
M  V30 4544 C 422.09 2.67017 3.5973 0
M  V30 4545 C 423.834 0.924461 4.14311 0
M  V30 4546 C 421.741 3.09387 5.04017 0
M  V30 4547 H 420.671 0.25183 0.710702 0
M  V30 4548 H 423.322 1.21622 1.37406 0
M  V30 4549 H 421.704 0.566451 3.91928 0
M  V30 4550 H 422.878 3.32968 3.18542 0
M  V30 4551 H 421.193 2.89732 2.99073 0
M  V30 4552 H 423.79 1.21658 5.20676 0
M  V30 4553 H 424.133 -0.139286 4.16067 0
M  V30 4554 H 424.666 1.49226 3.6875 0
M  V30 4555 H 421.405 4.14989 5.07409 0
M  V30 4556 H 420.925 2.48149 5.46061 0
M  V30 4557 H 422.604 3.01371 5.72525 0
M  V30 4558 N 422.737 -1.36956 0.779787 0
M  V30 4559 C 423.669 -2.28833 0.129639 0
M  V30 4560 C 424.682 -1.4902 -0.655511 0
M  V30 4561 O 425.871 -1.71578 -0.492279 0
M  V30 4562 C 422.971 -3.2833 -0.839792 0
M  V30 4563 C 422.144 -4.3727 -0.10675 0
M  V30 4564 C 421.203 -5.16789 -0.990717 0
M  V30 4565 O 420.229 -5.67406 -0.451516 0
M  V30 4566 N 421.431 -5.32294 -2.3161 0
M  V30 4567 H 424.196 -2.85268 0.918803 0
M  V30 4568 H 421.757 -1.49019 0.632841 0
M  V30 4569 H 423.749 -3.78413 -1.43477 0
M  V30 4570 H 422.319 -2.72605 -1.52988 0
M  V30 4571 H 421.539 -3.88478 0.669216 0
M  V30 4572 H 422.827 -5.07229 0.399464 0
M  V30 4573 H 422.225 -4.92768 -2.77843 0
M  V30 4574 H 420.782 -5.85656 -2.86095 0
M  V30 4575 N 424.215 -0.530993 -1.48385 0
M  V30 4576 C 425.178 0.220497 -2.28137 0
M  V30 4577 C 426.178 0.866851 -1.35434 0
M  V30 4578 O 427.368 0.726746 -1.58316 0
M  V30 4579 C 424.5 1.31921 -3.1434 0
M  V30 4580 H 425.693 -0.479714 -2.96038 0
M  V30 4581 H 423.246 -0.286968 -1.53643 0
M  V30 4582 H 423.981 2.05264 -2.51072 0
M  V30 4583 H 423.766 0.86085 -3.82533 0
M  V30 4584 H 425.256 1.84776 -3.74497 0
M  V30 4585 N 425.693 1.55336 -0.266172 0
M  V30 4586 C 426.939 1.99692 0.353681 0
M  V30 4587 C 427.272 1.1543 1.56172 0
M  V30 4588 O 426.547 0.222218 1.93226 0
M  V30 4589 C 426.83 3.52316 0.74466 0
M  V30 4590 C 426.683 4.47337 -0.470101 0
M  V30 4591 C 428.002 4.10588 1.58447 0
M  V30 4592 H 425.121 0.725961 0.12708 0
M  V30 4593 H 427.763 1.86336 -0.371333 0
M  V30 4594 H 425.913 3.63829 1.36239 0
M  V30 4595 H 427.585 4.4778 -1.10864 0
M  V30 4596 H 425.828 4.19364 -1.10978 0
M  V30 4597 H 426.499 5.51788 -0.15291 0
M  V30 4598 H 428.975 4.02297 1.06286 0
M  V30 4599 H 427.851 5.17607 1.82686 0
M  V30 4600 H 428.112 3.60253 2.56262 0
M  V30 4601 N 427.171 -0.0066808 1.57599 0
M  V30 4602 C 428.419 -0.691552 1.899 0
M  V30 4603 C 428.74 -1.74682 0.866672 0
M  V30 4604 O 428.01 -1.95661 -0.0968189 0
M  V30 4605 H 426.59 -0.258416 0.700878 0
M  V30 4606 H 429.252 0.0326655 1.94873 0
M  V30 4607 H 428.348 -1.16702 2.8946 0
M  V30 4608 N 428.649 -1.55105 -0.279332 0
M  V30 4609 C 429.612 -1.86783 -1.32834 0
M  V30 4610 C 430.612 -0.74199 -1.42657 0
M  V30 4611 O 431.802 -1.0102 -1.41918 0
M  V30 4612 C 428.934 -2.06746 -2.71052 0
M  V30 4613 H 430.127 -2.8055 -1.05979 0
M  V30 4614 H 427.68 -1.47499 -0.517087 0
M  V30 4615 H 428.415 -1.15339 -3.03097 0
M  V30 4616 H 428.2 -2.88711 -2.65309 0
M  V30 4617 H 429.69 -2.32549 -3.46858 0
M  V30 4618 N 430.127 0.543554 -1.4793 0
M  V30 4619 C 431.037 1.67657 -1.64098 0
M  V30 4620 C 432.053 1.65934 -0.523622 0
M  V30 4621 O 433.229 1.85133 -0.792943 0
M  V30 4622 C 430.294 3.04146 -1.66421 0
M  V30 4623 C 429.355 3.16831 -2.89684 0
M  V30 4624 C 428.588 4.46809 -2.91886 0
M  V30 4625 O 428.811 5.33095 -2.02895 0
M  V30 4626 O 427.745 4.63573 -3.83906 0
M  V30 4627 H 431.571 1.56957 -2.59997 0
M  V30 4628 H 429.156 0.715116 -1.31173 0
M  V30 4629 H 431.038 3.85346 -1.70548 0
M  V30 4630 H 429.713 3.152 -0.736923 0
M  V30 4631 H 428.62 2.34977 -2.91095 0
M  V30 4632 H 429.953 3.10687 -3.81752 0
M  V30 4633 N 431.605 1.3629 0.791371 0
M  V30 4634 C 433.021 1.16661 1.08914 0
M  V30 4635 C 433.221 -0.0106266 2.01497 0
M  V30 4636 O 432.277 -0.676596 2.43266 0
M  V30 4637 C 433.59 2.47656 1.70549 0
M  V30 4638 C 435.138 2.54002 1.82899 0
M  V30 4639 C 435.613 3.85078 2.47949 0
M  V30 4640 N 437.104 3.86413 2.5542 0
M  V30 4641 C 437.839 4.84572 3.06557 0
M  V30 4642 N 437.335 5.93124 3.58016 0
M  V30 4643 N 439.128 4.71994 3.05251 0
M  V30 4644 H 431.279 2.11668 0.176238 0
M  V30 4645 H 433.542 0.937486 0.140796 0
M  V30 4646 H 433.248 3.34059 1.09989 0
M  V30 4647 H 433.122 2.63319 2.70079 0
M  V30 4648 H 435.509 1.68018 2.42598 0
M  V30 4649 H 435.59 2.42239 0.821808 0
M  V30 4650 H 435.234 4.71467 1.88895 0
M  V30 4651 H 435.164 3.94135 3.49235 0
M  V30 4652 H 437.655 3.07988 2.18979 0
M  V30 4653 H 437.968 6.63999 3.95381 0
M  V30 4654 H 436.313 5.96796 3.56173 0
M  V30 4655 H 439.504 3.86321 2.64336 0
M  V30 4656 H 439.677 5.48653 3.44796 0
M  V30 4657 N 433.083 -1.0153 1.20538 0
M  V30 4658 C 434.329 -1.75408 1.01783 0
M  V30 4659 C 434.662 -1.88943 -0.448814 0
M  V30 4660 O 433.937 -1.4162 -1.33319 0
M  V30 4661 C 434.22 -3.17255 1.70356 0
M  V30 4662 C 434.073 -3.11508 3.24473 0
M  V30 4663 C 435.392 -4.15955 1.43769 0
M  V30 4664 H 432.511 -0.636713 0.371167 0
M  V30 4665 H 435.153 -1.18436 1.4857 0
M  V30 4666 H 433.303 -3.65898 1.30578 0
M  V30 4667 H 434.975 -2.70658 3.73553 0
M  V30 4668 H 433.218 -2.4887 3.55311 0
M  V30 4669 H 433.889 -4.11784 3.67611 0
M  V30 4670 H 436.365 -3.75973 1.7828 0
M  V30 4671 H 435.241 -5.13368 1.94279 0
M  V30 4672 H 435.502 -4.40586 0.365564 0
M  V30 4673 N 434.561 -1.01147 -1.20859 0
M  V30 4674 C 435.977 -0.725422 -1.42161 0
M  V30 4675 C 436.177 0.696919 -1.89064 0
M  V30 4676 O 435.233 1.46539 -2.05627 0
M  V30 4677 C 436.546 -1.74678 -2.44761 0
M  V30 4678 C 438.094 -1.76433 -2.58535 0
M  V30 4679 C 438.569 -2.77481 -3.64374 0
M  V30 4680 N 440.06 -2.76189 -3.71852 0
M  V30 4681 C 440.795 -3.51035 -4.53389 0
M  V30 4682 N 440.291 -4.35541 -5.38773 0
M  V30 4683 N 442.084 -3.39655 -4.47873 0
M  V30 4684 H 434.235 -1.92979 -0.887282 0
M  V30 4685 H 436.498 -0.833327 -0.451962 0
M  V30 4686 H 436.204 -2.76551 -2.17285 0
M  V30 4687 H 436.078 -1.55472 -3.43669 0
M  V30 4688 H 438.465 -0.75248 -2.85345 0
M  V30 4689 H 438.546 -1.99712 -1.5984 0
M  V30 4690 H 438.19 -3.78827 -3.38308 0
M  V30 4691 H 438.12 -2.51466 -4.6268 0
M  V30 4692 H 440.611 -2.14885 -3.10858 0
M  V30 4693 H 440.924 -4.89432 -5.98061 0
M  V30 4694 H 439.269 -4.39621 -5.38292 0
M  V30 4695 H 442.46 -2.73063 -3.80203 0
M  V30 4696 H 442.633 -3.9824 -5.11184 0
M  V30 4697 N 436.039 1.36541 -0.78704 0
M  V30 4698 C 437.002 2.28413 -0.189778 0
M  V30 4699 C 438.002 1.48719 0.611499 0
M  V30 4700 O 439.192 1.68737 0.432842 0
M  V30 4701 C 436.324 3.32824 0.737638 0
M  V30 4702 H 437.517 2.82743 -0.999831 0
M  V30 4703 H 435.07 1.46065 -0.556298 0
M  V30 4704 H 435.805 2.83646 1.57212 0
M  V30 4705 H 435.59 3.91752 0.165044 0
M  V30 4706 H 437.08 4.0144 1.15047 0
M  V30 4707 N 437.518 0.538854 1.48102 0
M  V30 4708 C 438.748 0.0122958 2.06596 0
M  V30 4709 C 439.156 -1.27861 1.39457 0
M  V30 4710 O 438.499 -1.77348 0.478907 0
M  V30 4711 C 438.561 -0.273131 3.58461 0
M  V30 4712 C 438.225 0.92561 4.47528 0
M  V30 4713 C 439.222 1.82637 4.86765 0
M  V30 4714 C 436.907 1.13511 4.89306 0
M  V30 4715 C 438.901 2.92047 5.66558 0
M  V30 4716 C 436.588 2.23233 5.68868 0
M  V30 4717 C 437.586 3.12333 6.07402 0
M  V30 4718 O 437.274 4.20155 6.85365 0
M  V30 4719 H 437.006 0.0344283 0.675123 0
M  V30 4720 H 439.56 0.746494 1.91355 0
M  V30 4721 H 437.79 -1.06141 3.71848 0
M  V30 4722 H 439.479 -0.742842 3.99045 0
M  V30 4723 H 440.245 1.67649 4.55103 0
M  V30 4724 H 436.124 0.450835 4.5879 0
M  V30 4725 H 439.668 3.6162 5.96554 0
M  V30 4726 H 435.565 2.38201 5.99942 0
M  V30 4727 H 436.333 4.17975 7.03732 0
M  V30 4728 N 438.996 -1.55193 0.274407 0
M  V30 4729 C 440.245 -1.98758 -0.343213 0
M  V30 4730 C 440.558 -1.16624 -1.5703 0
M  V30 4731 O 441.764 -1.5033 -2.26082 0
M  V30 4732 C 440.22 -3.53759 -0.661996 0
M  V30 4733 C 439.828 -4.4467 0.54524 0
M  V30 4734 C 441.572 -4.05916 -1.24228 0
M  V30 4735 C 439.479 -5.91058 0.201084 0
M  V30 4736 H 438.409 -0.742353 -0.132014 0
M  V30 4737 H 441.06 -1.79545 0.378948 0
M  V30 4738 H 439.442 -3.68772 -1.44304 0
M  V30 4739 H 440.616 -4.41426 1.32212 0
M  V30 4740 H 438.931 -4.03143 1.04232 0
M  V30 4741 H 441.528 -5.12831 -1.51357 0
M  V30 4742 H 441.871 -3.54908 -2.17592 0
M  V30 4743 H 442.404 -3.9434 -0.523542 0
M  V30 4744 H 439.143 -6.46161 1.10258 0
M  V30 4745 H 438.663 -5.97373 -0.539045 0
M  V30 4746 H 440.342 -6.46669 -0.206954 0
M  V30 4747 N 440.474 -0.00167713 -1.576 0
M  V30 4748 C 441.406 1.0174 -2.05382 0
M  V30 4749 C 442.419 1.30595 -0.972052 0
M  V30 4750 O 443.608 1.27542 -1.24882 0
M  V30 4751 C 440.708 2.35174 -2.44022 0
M  V30 4752 C 439.881 2.25234 -3.74951 0
M  V30 4753 C 438.94 3.4137 -4.00441 0
M  V30 4754 O 437.966 3.19483 -4.71083 0
M  V30 4755 N 439.168 4.64275 -3.48467 0
M  V30 4756 H 441.933 0.609902 -2.93428 0
M  V30 4757 H 439.494 0.185672 -1.60832 0
M  V30 4758 H 441.486 3.11643 -2.58187 0
M  V30 4759 H 440.056 2.67659 -1.61485 0
M  V30 4760 H 439.276 1.33664 -3.70847 0
M  V30 4761 H 440.564 2.15767 -4.60784 0
M  V30 4762 H 439.962 4.84955 -2.91264 0
M  V30 4763 H 438.519 5.38005 -3.67959 0
M  V30 4764 N 441.952 1.55251 0.271103 0
M  V30 4765 C 443.177 1.80306 1.02491 0
M  V30 4766 C 443.602 0.575457 1.79081 0
M  V30 4767 O 442.96 -0.474987 1.74967 0
M  V30 4768 C 443.008 3.02832 1.95768 0
M  V30 4769 O 442.112 2.78051 3.04568 0
M  V30 4770 H 441.453 0.595896 0.292923 0
M  V30 4771 H 443.983 2.02397 0.299436 0
M  V30 4772 H 443.993 3.31616 2.37686 0
M  V30 4773 H 442.668 3.9183 1.39434 0
M  V30 4774 H 441.245 2.60369 2.66951 0
M  V30 4775 N 443.43 -0.535701 1.48216 0
M  V30 4776 C 444.36 -1.65014 1.65204 0
M  V30 4777 C 445.341 -1.62554 0.501011 0
M  V30 4778 O 446.526 -1.7984 0.732886 0
M  V30 4779 C 443.656 -3.03616 1.68626 0
M  V30 4780 C 442.61 -3.20932 2.83172 0
M  V30 4781 C 441.936 -4.60537 2.71679 0
M  V30 4782 C 443.236 -3.04249 4.24535 0
M  V30 4783 H 444.93 -1.51053 2.58502 0
M  V30 4784 H 442.476 -0.725262 1.24402 0
M  V30 4785 H 444.429 -3.81446 1.79099 0
M  V30 4786 H 443.153 -3.18587 0.719026 0
M  V30 4787 H 441.812 -2.45517 2.72244 0
M  V30 4788 H 441.46 -4.72336 1.72937 0
M  V30 4789 H 441.16 -4.73069 3.48538 0
M  V30 4790 H 442.684 -5.40475 2.84112 0
M  V30 4791 H 444.098 -3.71877 4.36326 0
M  V30 4792 H 442.495 -3.28278 5.02348 0
M  V30 4793 H 443.565 -2.00739 4.41397 0
M  V30 4794 N 444.908 -1.36708 -0.784132 0
M  V30 4795 C 446.319 -1.27947 -1.35965 0
M  V30 4796 C 446.67 0.0784013 -1.96043 0
M  V30 4797 O 445.795 0.979989 -1.92938 0
M  V30 4798 C 446.39 -2.31689 -2.47195 0
M  V30 4799 C 444.949 -2.26601 -3.00548 0
M  V30 4800 C 444.096 -2.16184 -1.73666 0
M  V30 4801 H 447.047 -1.4751 -0.585358 0
M  V30 4802 H 447.068 -1.95638 -3.26352 0
M  V30 4803 H 446.58 -3.30506 -2.03439 0
M  V30 4804 H 444.681 -1.31268 -3.48711 0
M  V30 4805 H 444.794 -3.19508 -3.57004 0
M  V30 4806 H 443.158 -1.62524 -1.96107 0
M  V30 4807 H 443.941 -3.16896 -1.32031 0
M  V30 4808 N 446.386 1.0089 -1.21074 0
M  V30 4809 C 447.797 1.56056 -1.02486 0
M  V30 4810 C 448.148 1.91728 0.416506 0
M  V30 4811 O 447.273 1.73066 1.29912 0
M  V30 4812 C 447.868 2.83563 -1.85411 0
M  V30 4813 C 446.427 3.3523 -1.71166 0
M  V30 4814 C 445.574 2.0846 -1.82865 0
M  V30 4815 H 448.525 0.831818 -1.35154 0
M  V30 4816 H 448.546 3.55286 -1.36205 0
M  V30 4817 H 448.058 2.57569 -2.9031 0
M  V30 4818 H 446.159 3.66167 -0.689361 0
M  V30 4819 H 446.272 4.06913 -2.52901 0
M  V30 4820 H 444.636 2.21275 -1.26132 0
M  V30 4821 H 445.419 1.84883 -2.89263 0
M  V30 4822 N 447.864 1.01787 1.20321 0
M  V30 4823 C 449.28 0.732951 1.41774 0
M  V30 4824 C 449.48 -0.686883 1.89431 0
M  V30 4825 O 448.536 -1.45446 2.06402 0
M  V30 4826 C 449.849 1.75973 2.43832 0
M  V30 4827 C 451.397 1.77802 2.57596 0
M  V30 4828 C 451.872 2.7941 3.62897 0
M  V30 4829 N 453.363 2.78157 3.70382 0
M  V30 4830 C 454.098 3.53434 4.51521 0
M  V30 4831 N 453.594 4.38392 5.36455 0
M  V30 4832 N 455.387 3.42026 4.46066 0
M  V30 4833 H 447.538 1.93447 0.877035 0
M  V30 4834 H 449.801 0.835712 0.447536 0
M  V30 4835 H 449.507 2.77699 2.15815 0
M  V30 4836 H 449.381 1.57292 3.4284 0
M  V30 4837 H 451.768 0.767602 2.84942 0
M  V30 4838 H 451.849 2.00557 1.58779 0
M  V30 4839 H 451.493 3.80616 3.36295 0
M  V30 4840 H 451.423 2.53916 4.61339 0
M  V30 4841 H 453.914 2.16531 3.09714 0
M  V30 4842 H 454.227 4.92596 5.95457 0
M  V30 4843 H 452.572 4.4247 5.35953 0
M  V30 4844 H 455.763 2.75075 3.78749 0
M  V30 4845 H 455.936 4.00946 5.09064 0
M  V30 4846 N 449.342 -1.36122 0.79427 0
M  V30 4847 C 450.274 -2.28683 0.153903 0
M  V30 4848 C 451.287 -1.49707 -0.639669 0
M  V30 4849 O 452.476 -1.7209 -0.474054 0
M  V30 4850 C 449.576 -3.29202 -0.804921 0
M  V30 4851 C 448.749 -4.37358 -0.060366 0
M  V30 4852 C 447.808 -5.17811 -0.935849 0
M  V30 4853 O 446.834 -5.67853 -0.391309 0
M  V30 4854 N 448.036 -5.34721 -2.25951 0
M  V30 4855 H 450.801 -2.84278 0.949008 0
M  V30 4856 H 448.362 -1.4834 0.648611 0
M  V30 4857 H 450.354 -3.79914 -1.39455 0
M  V30 4858 H 448.924 -2.74212 -1.50088 0
M  V30 4859 H 448.144 -3.87746 0.710382 0
M  V30 4860 H 449.432 -5.06777 0.45324 0
M  V30 4861 H 448.83 -4.95687 -2.72601 0
M  V30 4862 H 447.387 -5.88657 -2.79867 0
M  V30 4863 N 450.82 -0.546701 -1.47814 0
M  V30 4864 C 452.231 -0.110564 -1.86372 0
M  V30 4865 C 452.582 1.31678 -1.45449 0
M  V30 4866 O 451.707 1.98889 -0.852758 0
M  V30 4867 C 452.302 -0.193873 -3.38245 0
M  V30 4868 C 450.861 0.187164 -3.75934 0
M  V30 4869 C 450.008 -0.546166 -2.71868 0
M  V30 4870 H 452.959 -0.757022 -1.39481 0
M  V30 4871 H 452.98 0.590218 -3.75895 0
M  V30 4872 H 452.492 -1.23282 -3.67999 0
M  V30 4873 H 450.593 1.22762 -3.51796 0
M  V30 4874 H 450.706 -0.164083 -4.78819 0
M  V30 4875 H 449.07 0.00953904 -2.54698 0
M  V30 4876 H 449.853 -1.58606 -3.04465 0
M  V30 4877 N 452.299 1.55045 -0.282633 0
M  V30 4878 C 453.545 2.00056 0.332481 0
M  V30 4879 C 453.878 1.1708 1.54939 0
M  V30 4880 O 453.153 0.2427 1.9298 0
M  V30 4881 C 453.436 3.53086 0.70725 0
M  V30 4882 C 453.289 4.46813 -0.517521 0
M  V30 4883 C 454.608 4.12245 1.54084 0
M  V30 4884 H 451.727 0.727268 0.119373 0
M  V30 4885 H 454.369 1.85932 -0.391076 0
M  V30 4886 H 452.519 3.65253 1.32372 0
M  V30 4887 H 454.191 4.46579 -1.15607 0
M  V30 4888 H 452.434 4.18163 -1.1542 0
M  V30 4889 H 453.105 5.51595 -0.211426 0
M  V30 4890 H 455.581 4.03401 1.02013 0
M  V30 4891 H 454.457 5.19515 1.77186 0
M  V30 4892 H 454.718 3.62951 2.52427 0
M  V30 4893 N 453.777 0.010035 1.57597 0
M  V30 4894 C 455.188 -0.531426 1.78977 0
M  V30 4895 C 455.539 -1.73375 0.918454 0
M  V30 4896 O 454.664 -2.16047 0.123635 0
M  V30 4897 C 455.259 -0.97086 3.24592 0
M  V30 4898 C 453.818 -1.45756 3.47033 0
M  V30 4899 C 452.965 -0.413384 2.74201 0
M  V30 4900 H 455.916 0.236166 1.56933 0
M  V30 4901 H 455.937 -1.83633 3.33255 0
M  V30 4902 H 455.449 -0.0955893 3.87982 0
M  V30 4903 H 453.55 -2.35339 2.88871 0
M  V30 4904 H 453.663 -1.4781 4.55729 0
M  V30 4905 H 452.027 -0.877266 2.39115 0
M  V30 4906 H 452.81 0.453092 3.40297 0
M  V30 4907 N 455.255 -1.55392 -0.262866 0
M  V30 4908 C 456.501 -1.77657 -0.990424 0
M  V30 4909 C 456.856 -0.576333 -1.83565 0
M  V30 4910 O 456.149 0.430795 -1.86694 0
M  V30 4911 C 456.343 -3.02889 -1.89718 0
M  V30 4912 C 456.172 -4.34979 -1.14121 0
M  V30 4913 C 454.942 -4.98052 -0.852768 0
M  V30 4914 C 457.14 -5.11597 -0.526625 0
M  V30 4915 N 455.122 -6.13859 -0.0710649 0
M  V30 4916 C 456.493 -6.19883 0.12042 0
M  V30 4917 C 458.548 -4.95992 -0.435485 0
M  V30 4918 C 457.251 -7.14262 0.849833 0
M  V30 4919 C 459.277 -5.90735 0.280359 0
M  V30 4920 C 458.639 -6.98417 0.916103 0
M  V30 4921 H 454.738 -0.702242 -0.344064 0
M  V30 4922 H 457.322 -1.92887 -0.265088 0
M  V30 4923 H 455.493 -2.89017 -2.59468 0
M  V30 4924 H 457.225 -3.13516 -2.5591 0
M  V30 4925 H 453.98 -4.5916 -1.16058 0
M  V30 4926 H 454.404 -6.76302 0.307413 0
M  V30 4927 H 459.046 -4.12832 -0.912671 0
M  V30 4928 H 456.764 -7.96935 1.33867 0
M  V30 4929 H 460.35 -5.80738 0.351332 0
M  V30 4930 H 459.23 -7.70467 1.46119 0
M  V30 4931 N 456.733 0.527833 -1.48498 0
M  V30 4932 C 457.643 1.65907 -1.65867 0
M  V30 4933 C 458.659 1.6537 -0.541192 0
M  V30 4934 O 459.835 1.84282 -0.812534 0
M  V30 4935 C 456.9 3.02364 -1.69637 0
M  V30 4936 C 455.961 3.1374 -2.93028 0
M  V30 4937 C 455.194 4.43688 -2.96609 0
M  V30 4938 O 455.417 5.30913 -2.08538 0
M  V30 4939 O 454.351 4.59475 -3.88802 0
M  V30 4940 H 458.177 1.5419 -2.61647 0
M  V30 4941 H 455.762 0.701163 -1.31924 0
M  V30 4942 H 457.644 3.83515 -1.74625 0
M  V30 4943 H 456.319 3.14401 -0.770312 0
M  V30 4944 H 455.226 2.31877 -2.93571 0
M  V30 4945 H 456.559 3.06621 -3.85026 0
M  V30 4946 N 458.211 1.37122 0.776871 0
M  V30 4947 C 459.439 1.3523 1.5659 0
M  V30 4948 C 459.854 -0.0635518 1.88693 0
M  V30 4949 O 459.211 -1.02394 1.51069 0
M  V30 4950 C 459.262 2.18583 2.8793 0
M  V30 4951 O 458.983 3.5465 2.57206 0
M  V30 4952 C 460.484 2.24612 3.82183 0
M  V30 4953 H 457.704 0.4634 0.485285 0
M  V30 4954 H 460.248 1.80392 0.963266 0
M  V30 4955 H 458.403 1.76943 3.4463 0
M  V30 4956 H 458.817 3.98286 3.41275 0
M  V30 4957 H 460.291 2.87267 4.71361 0
M  V30 4958 H 460.768 1.25309 4.20944 0
M  V30 4959 H 461.374 2.66543 3.31414 0
M  V30 4960 N 459.689 -1.00246 1.21608 0
M  V30 4961 C 460.935 -1.74319 1.03638 0
M  V30 4962 C 461.268 -1.89408 -0.428749 0
M  V30 4963 O 460.543 -1.43026 -1.3181 0
M  V30 4964 C 460.826 -3.15431 1.73711 0
M  V30 4965 C 460.679 -3.08049 3.27759 0
M  V30 4966 C 461.998 -4.14407 1.48173 0
M  V30 4967 H 459.117 -0.632741 0.377899 0
M  V30 4968 H 461.759 -1.16853 1.49818 0
M  V30 4969 H 459.909 -3.64493 1.34452 0
M  V30 4970 H 461.581 -2.66681 3.76403 0
M  V30 4971 H 459.824 -2.45088 3.57931 0
M  V30 4972 H 460.495 -4.07862 3.71958 0
M  V30 4973 H 462.971 -3.74061 1.82258 0
M  V30 4974 H 461.847 -5.11279 1.99713 0
M  V30 4975 H 462.108 -4.40174 0.412273 0
M  V30 4976 N 461.167 -1.02423 -1.1978 0
M  V30 4977 C 462.397 -0.736387 -1.93031 0
M  V30 4978 C 462.805 0.708023 -1.75453 0
M  V30 4979 O 462.148 1.4927 -1.07071 0
M  V30 4980 C 462.21 -1.00194 -3.45255 0
M  V30 4981 C 461.874 -2.43698 -3.86601 0
M  V30 4982 C 462.871 -3.41814 -3.91738 0
M  V30 4983 C 460.556 -2.77975 -4.18372 0
M  V30 4984 C 462.55 -4.72265 -4.28071 0
M  V30 4985 C 460.237 -4.08636 -4.54378 0
M  V30 4986 C 461.235 -5.05592 -4.59201 0
M  V30 4987 O 460.923 -6.33914 -4.94376 0
M  V30 4988 H 460.655 -0.269116 -0.620123 0
M  V30 4989 H 463.209 -1.37043 -1.52998 0
M  V30 4990 H 461.439 -0.310747 -3.85449 0
M  V30 4991 H 463.128 -0.704488 -3.9974 0
M  V30 4992 H 463.894 -3.16671 -3.67348 0
M  V30 4993 H 459.773 -2.0319 -4.13805 0
M  V30 4994 H 463.317 -5.4794 -4.3175 0
M  V30 4995 H 459.214 -4.33556 -4.78226 0
M  V30 4996 H 459.982 -6.38317 -5.12341 0
M  V30 4997 N 462.645 1.35699 -0.801477 0
M  V30 4998 C 464.056 1.81415 -0.441073 0
M  V30 4999 C 464.407 1.66595 1.03636 0
M  V30 5000 O 463.532 1.19369 1.80499 0
M  V30 5001 C 464.127 3.29369 -0.793819 0
M  V30 5002 C 462.686 3.73248 -0.486083 0
M  V30 5003 C 461.833 2.57775 -1.02213 0
M  V30 5004 H 464.784 1.23749 -0.993572 0
M  V30 5005 H 464.805 3.80395 -0.0894158 0
M  V30 5006 H 464.317 3.40123 -1.86917 0
M  V30 5007 H 462.418 3.68046 0.580735 0
M  V30 5008 H 462.531 4.68222 -1.01513 0
M  V30 5009 H 460.895 2.50788 -0.444712 0
M  V30 5010 H 461.678 2.71309 -2.10348 0
M  V30 5011 N 464.123 0.554532 1.47522 0
M  V30 5012 C 465.371 0.0294208 2.02079 0
M  V30 5013 C 465.692 -1.32411 1.43151 0
M  V30 5014 O 464.962 -1.863 0.605728 0
M  V30 5015 H 463.542 0.00788672 0.746958 0
M  V30 5016 H 466.204 0.723934 1.80956 0
M  V30 5017 H 465.3 -0.0606745 3.12041 0
M  V30 5018 N 465.601 -1.54893 0.290851 0
M  V30 5019 C 466.564 -2.21824 -0.576784 0
M  V30 5020 C 467.564 -1.20104 -1.06919 0
M  V30 5021 O 468.754 -1.44906 -0.966843 0
M  V30 5022 C 465.886 -2.89662 -1.79747 0
M  V30 5023 H 467.079 -2.99899 0.00784051 0
M  V30 5024 H 464.632 -1.56245 0.0415934 0
M  V30 5025 H 465.367 -2.15639 -2.42219 0
M  V30 5026 H 465.152 -3.64219 -1.45214 0
M  V30 5027 H 466.642 -3.4075 -2.4141 0
M  V30 5028 N 467.08 -0.0183926 -1.57589 0
M  V30 5029 C 468.357 0.700621 -1.82622 0
M  V30 5030 C 468.737 1.90951 -0.90005 0
M  V30 5031 O 468.085 2.28452 0.0469145 0
M  V30 5032 C 468.295 1.08899 -3.31575 0
M  V30 5033 C 469.643 1.48514 -3.9778 0
M  V30 5034 O 470.667 1.18227 -3.36007 0
M  V30 5035 O 469.526 2.04903 -5.06633 0
M  V30 5036 H 466.62 0.342743 -0.752633 0
M  V30 5037 H 469.166 -0.0452548 -1.6964 0
M  V30 5038 H 467.938 0.228113 -3.90635 0
M  V30 5039 H 467.561 1.89338 -3.49624 0
M  V30 5040 N 468.558 1.5553 0.254621 0
M  V30 5041 C 469.974 1.4778 0.602753 0
M  V30 5042 C 470.174 0.707047 1.88688 0
M  V30 5043 O 469.23 0.233288 2.5142 0
M  V30 5044 C 470.543 2.92133 0.712648 0
M  V30 5045 C 472.091 3.02458 0.805488 0
M  V30 5046 C 472.566 4.48102 0.947009 0
M  V30 5047 N 474.057 4.52008 1.01207 0
M  V30 5048 C 474.792 5.61939 1.1407 0
M  V30 5049 N 474.288 6.81697 1.23536 0
M  V30 5050 N 476.081 5.49719 1.17325 0
M  V30 5051 H 468.232 2.04085 -0.588463 0
M  V30 5052 H 470.495 0.926229 -0.202001 0
M  V30 5053 H 470.201 3.51332 -0.160766 0
M  V30 5054 H 470.075 3.42187 1.58707 0
M  V30 5055 H 472.462 2.43344 1.66936 0
M  V30 5056 H 472.543 2.55627 -0.0939266 0
M  V30 5057 H 472.187 5.07824 0.087725 0
M  V30 5058 H 472.117 4.92607 1.86135 0
M  V30 5059 H 474.608 3.65749 0.950577 0
M  V30 5060 H 474.921 7.61228 1.33236 0
M  V30 5061 H 473.266 6.84473 1.20508 0
M  V30 5062 H 476.457 4.55095 1.09573 0
M  V30 5063 H 476.63 6.35432 1.27005 0
M  V30 5064 N 470.036 -0.519951 1.48776 0
M  V30 5065 C 470.968 -1.63973 1.60142 0
M  V30 5066 C 471.981 -1.55404 0.485117 0
M  V30 5067 O 473.17 -1.61682 0.756391 0
M  V30 5068 C 470.27 -3.02676 1.52449 0
M  V30 5069 C 469.443 -3.36624 2.79291 0
M  V30 5070 C 468.502 -4.54652 2.64912 0
M  V30 5071 O 467.528 -4.57374 3.38818 0
M  V30 5072 N 468.73 -5.53432 1.75195 0
M  V30 5073 H 471.495 -1.54656 2.56713 0
M  V30 5074 H 469.056 -0.707439 1.45626 0
M  V30 5075 H 471.048 -3.79525 1.4051 0
M  V30 5076 H 469.618 -3.06018 0.638125 0
M  V30 5077 H 468.838 -2.48855 3.0572 0
M  V30 5078 H 470.126 -3.56094 3.6342 0
M  V30 5079 H 469.524 -5.54018 1.14371 0
M  V30 5080 H 468.081 -6.29459 1.69189 0
M  V30 5081 N 471.514 -1.37532 -0.769588 0
M  V30 5082 C 472.477 -1.33292 -1.86456 0
M  V30 5083 C 473.477 -0.236537 -1.59051 0
M  V30 5084 O 474.667 -0.492511 -1.67093 0
M  V30 5085 C 471.799 -1.07118 -3.23633 0
M  V30 5086 H 472.992 -2.30692 -1.91628 0
M  V30 5087 H 470.545 -1.22593 -0.969572 0
M  V30 5088 H 471.28 -0.102578 -3.24138 0
M  V30 5089 H 471.065 -1.86479 -3.44917 0
M  V30 5090 H 472.555 -1.06806 -4.03711 0
M  V30 5091 N 472.992 0.995999 -1.22138 0
M  V30 5092 C 473.922 2.10387 -1.01289 0
M  V30 5093 C 474.903 1.69975 0.0651454 0
M  V30 5094 O 476.088 1.9396 -0.0964628 0
M  V30 5095 C 473.218 3.42312 -0.586517 0
M  V30 5096 C 472.172 3.96558 -1.61014 0
M  V30 5097 C 471.498 5.24494 -1.0397 0
M  V30 5098 C 472.798 4.27595 -2.99933 0
M  V30 5099 H 474.492 2.28086 -1.93951 0
M  V30 5100 H 472.038 1.09607 -0.933928 0
M  V30 5101 H 473.991 4.19223 -0.427793 0
M  V30 5102 H 472.715 3.24431 0.375761 0
M  V30 5103 H 471.374 3.21776 -1.75658 0
M  V30 5104 H 471.022 5.02953 -0.0688703 0
M  V30 5105 H 470.722 5.61755 -1.72352 0
M  V30 5106 H 472.246 6.04042 -0.892494 0
M  V30 5107 H 473.66 4.95315 -2.8868 0
M  V30 5108 H 472.057 4.76021 -3.6541 0
M  V30 5109 H 473.127 3.35498 -3.50099 0
M  V30 5110 N 474.47 1.03057 1.19235 0
M  V30 5111 C 475.695 0.74757 1.93458 0
M  V30 5112 C 476.12 -0.687648 1.7508 0
M  V30 5113 O 475.478 -1.47499 1.05422 0
M  V30 5114 C 475.526 1.10604 3.43219 0
M  V30 5115 O 474.63 0.225671 4.11782 0
M  V30 5116 H 473.971 0.276047 0.603899 0
M  V30 5117 H 476.501 1.3777 1.51263 0
M  V30 5118 H 476.511 1.06366 3.93891 0
M  V30 5119 H 475.186 2.15165 3.55917 0
M  V30 5120 H 473.763 0.326795 3.71465 0
M  V30 5121 N 475.948 -1.35272 0.808662 0
M  V30 5122 C 476.878 -2.32315 0.234981 0
M  V30 5123 C 477.859 -1.57572 -0.64071 0
M  V30 5124 O 479.044 -1.8563 -0.570551 0
M  V30 5125 C 476.174 -3.41801 -0.615601 0
M  V30 5126 C 475.128 -4.27694 0.161767 0
M  V30 5127 C 474.454 -5.28519 -0.810649 0
M  V30 5128 C 475.754 -5.04231 1.36193 0
M  V30 5129 H 477.448 -2.80543 1.04575 0
M  V30 5130 H 474.994 -1.3488 0.504315 0
M  V30 5131 H 476.947 -4.08693 -1.02702 0
M  V30 5132 H 475.671 -2.92186 -1.45928 0
M  V30 5133 H 474.33 -3.62384 0.554382 0
M  V30 5134 H 473.978 -4.75171 -1.64988 0
M  V30 5135 H 473.678 -5.8686 -0.294822 0
M  V30 5136 H 475.202 -5.98283 -1.22023 0
M  V30 5137 H 476.616 -5.64058 1.02528 0
M  V30 5138 H 475.013 -5.72077 1.81239 0
M  V30 5139 H 476.083 -4.34753 2.14751 0
M  V30 5140 N 477.426 -0.562348 -1.47226 0
M  V30 5141 C 478.356 0.170627 -2.32876 0
M  V30 5142 C 479.337 0.903748 -1.44106 0
M  V30 5143 O 480.522 0.883206 -1.72954 0
M  V30 5144 C 477.652 1.19786 -3.25989 0
M  V30 5145 C 476.606 0.580875 -4.2404 0
M  V30 5146 C 475.932 1.71311 -5.06514 0
M  V30 5147 C 477.232 -0.468714 -5.20193 0
M  V30 5148 H 478.926 -0.544441 -2.94408 0
M  V30 5149 H 476.472 -0.263271 -1.41573 0
M  V30 5150 H 478.425 1.71884 -3.84752 0
M  V30 5151 H 477.149 1.94294 -2.62521 0
M  V30 5152 H 475.808 0.0811538 -3.6651 0
M  V30 5153 H 475.456 2.44736 -4.39447 0
M  V30 5154 H 475.156 1.30604 -5.72902 0
M  V30 5155 H 476.68 2.23725 -5.68137 0
M  V30 5156 H 478.094 -0.0336028 -5.7329 0
M  V30 5157 H 476.491 -0.794957 -5.94811 0
M  V30 5158 H 477.561 -1.36269 -4.65359 0
M  V30 5159 N 478.904 1.54736 -0.299062 0
M  V30 5160 C 480.152 1.99706 0.31017 0
M  V30 5161 C 480.473 1.18896 1.54559 0
M  V30 5162 O 479.743 0.284445 1.93824 0
M  V30 5163 H 478.323 0.737686 0.117596 0
M  V30 5164 H 480.985 1.9054 -0.409943 0
M  V30 5165 H 480.081 3.06596 0.58355 0
M  V30 5166 N 480.382 0.0267497 1.57577 0
M  V30 5167 C 481.798 -0.32962 1.56159 0
M  V30 5168 C 481.998 -1.73059 1.03213 0
M  V30 5169 O 481.054 -2.43233 0.677804 0
M  V30 5170 C 482.367 -0.18039 3.00158 0
M  V30 5171 C 483.915 -0.253334 3.11973 0
M  V30 5172 C 484.39 -0.132921 4.57807 0
M  V30 5173 N 485.881 -0.189979 4.6281 0
M  V30 5174 C 486.616 -0.120554 5.73273 0
M  V30 5175 N 486.112 -0.000180315 6.928 0
M  V30 5176 N 487.905 -0.174369 5.61829 0
M  V30 5177 H 480.056 0.942896 1.90324 0
M  V30 5178 H 482.319 0.3639 0.875375 0
M  V30 5179 H 482.025 0.784576 3.42837 0
M  V30 5180 H 481.899 -0.951565 3.65 0
M  V30 5181 H 484.286 -1.20876 2.69208 0
M  V30 5182 H 484.367 0.548177 2.49857 0
M  V30 5183 H 484.011 0.819073 5.01252 0
M  V30 5184 H 483.941 -0.953264 5.179 0
M  V30 5185 H 486.432 -0.283257 3.76837 0
M  V30 5186 H 486.745 0.0461666 7.72786 0
M  V30 5187 H 485.09 0.034569 6.94991 0
M  V30 5188 H 488.281 -0.266794 4.67339 0
M  V30 5189 H 488.454 -0.116802 6.47895 0
M  V30 5190 N 481.861 -1.55662 -0.24637 0
M  V30 5191 C 482.794 -1.85332 -1.33143 0
M  V30 5192 C 483.772 -0.708464 -1.46354 0
M  V30 5193 O 484.956 -0.954274 -1.6256 0
M  V30 5194 C 482.083 -2.0385 -2.70487 0
M  V30 5195 C 481.129 -3.26488 -2.74423 0
M  V30 5196 S 481.962 -4.83124 -2.30979 0
M  V30 5197 C 483.118 -5.04647 -3.70246 0
M  V30 5198 H 483.351 -2.77077 -1.07777 0
M  V30 5199 H 480.884 -1.47776 -0.44738 0
M  V30 5200 H 482.842 -2.15202 -3.49569 0
M  V30 5201 H 481.503 -1.12947 -2.9309 0
M  V30 5202 H 480.696 -3.36413 -3.7529 0
M  V30 5203 H 480.298 -3.13864 -2.03385 0
M  V30 5204 H 482.59 -4.92023 -4.65746 0
M  V30 5205 H 483.533 -6.06625 -3.65255 0
M  V30 5206 H 483.941 -4.32491 -3.62784 0
M  V30 5207 N 483.339 0.512053 -1.4905 0
M  V30 5208 C 484.269 1.62365 -1.67809 0
M  V30 5209 C 485.25 1.61737 -0.526809 0
M  V30 5210 O 486.435 1.78651 -0.761404 0
M  V30 5211 C 483.565 3.00895 -1.73435 0
M  V30 5212 C 482.519 3.16387 -2.88242 0
M  V30 5213 C 481.845 4.56157 -2.78971 0
M  V30 5214 C 483.145 2.97457 -4.29321 0
M  V30 5215 H 484.839 1.46921 -2.60873 0
M  V30 5216 H 482.385 0.705379 -1.2554 0
M  V30 5217 H 484.338 3.78549 -1.85145 0
M  V30 5218 H 483.062 3.17403 -0.769619 0
M  V30 5219 H 481.721 2.41155 -2.76116 0
M  V30 5220 H 481.369 4.69525 -1.8043 0
M  V30 5221 H 481.069 4.67465 -3.5602 0
M  V30 5222 H 482.593 5.35886 -2.92675 0
M  V30 5223 H 484.007 3.64888 -4.42187 0
M  V30 5224 H 482.404 3.20245 -5.07507 0
M  V30 5225 H 483.474 1.93692 -4.44535 0
M  V30 5226 N 484.817 1.37938 0.762283 0
M  V30 5227 C 486.233 1.18945 1.06415 0
M  V30 5228 C 486.433 0.0321163 2.01474 0
M  V30 5229 O 485.489 -0.624844 2.44647 0
M  V30 5230 C 486.802 2.51218 1.65258 0
M  V30 5231 C 488.35 2.57824 1.7747 0
M  V30 5232 C 488.825 3.90251 2.39725 0
M  V30 5233 N 490.316 3.91744 2.47166 0
M  V30 5234 C 491.051 4.90966 2.96209 0
M  V30 5235 N 490.547 6.00585 3.45354 0
M  V30 5236 N 492.34 4.78363 2.9517 0
M  V30 5237 H 484.491 2.11994 0.131301 0
M  V30 5238 H 486.754 0.940262 0.120879 0
M  V30 5239 H 486.46 3.36317 1.02878 0
M  V30 5240 H 486.334 2.68989 2.64433 0
M  V30 5241 H 488.721 1.73126 2.3898 0
M  V30 5242 H 488.802 2.43928 0.770241 0
M  V30 5243 H 488.446 4.75368 1.78852 0
M  V30 5244 H 488.376 4.01454 3.40796 0
M  V30 5245 H 490.867 3.12563 2.12397 0
M  V30 5246 H 491.18 6.72236 3.81207 0
M  V30 5247 H 489.525 6.04217 3.43434 0
M  V30 5248 H 492.716 3.91841 2.56082 0
M  V30 5249 H 492.889 5.55843 3.33081 0
M  V30 5250 N 486.295 -0.989507 1.22664 0
M  V30 5251 C 487.542 -1.72953 1.05325 0
M  V30 5252 C 487.87 -1.90104 -0.411168 0
M  V30 5253 O 487.125 -1.44386 -1.32103 0
M  V30 5254 C 487.424 -3.13649 1.71345 0
M  V30 5255 C 487.09 -3.16403 3.21248 0
M  V30 5256 C 485.752 -3.16862 3.62149 0
M  V30 5257 C 488.104 -3.12428 4.17179 0
M  V30 5258 C 485.432 -3.11051 4.97458 0
M  V30 5259 C 487.784 -3.08159 5.52468 0
M  V30 5260 C 486.448 -3.06935 5.92746 0
M  V30 5261 H 485.718 -0.632881 0.385412 0
M  V30 5262 H 488.365 -1.15863 1.52473 0
M  V30 5263 H 486.67 -3.74069 1.16532 0
M  V30 5264 H 488.367 -3.69658 1.55416 0
M  V30 5265 H 484.957 -3.16798 2.88682 0
M  V30 5266 H 489.141 -3.11221 3.86595 0
M  V30 5267 H 484.397 -3.0845 5.27891 0
M  V30 5268 H 488.571 -3.04039 6.26525 0
M  V30 5269 H 486.198 -3.02186 6.97558 0
M  V30 5270 N 487.773 -1.03688 -1.18687 0
M  V30 5271 C 488.683 -0.634908 -2.25845 0
M  V30 5272 C 489.699 0.337065 -1.70704 0
M  V30 5273 O 490.875 0.192943 -2.00474 0
M  V30 5274 C 487.94 -0.000180054 -3.467 0
M  V30 5275 C 487.001 -1.02067 -4.1699 0
M  V30 5276 C 486.234 -0.41614 -5.32075 0
M  V30 5277 O 486.457 0.778712 -5.65059 0
M  V30 5278 O 485.391 -1.14296 -5.90948 0
M  V30 5279 H 489.217 -1.52757 -2.62486 0
M  V30 5280 H 486.802 -0.807533 -1.25695 0
M  V30 5281 H 488.684 0.353342 -4.19916 0
M  V30 5282 H 487.359 0.866367 -3.11891 0
M  V30 5283 H 486.266 -1.42592 -3.45859 0
M  V30 5284 H 487.599 -1.85786 -4.5579 0
M  V30 5285 N 489.251 1.34841 -0.815825 0
M  V30 5286 C 490.662 1.80937 -0.46029 0
M  V30 5287 C 491.013 1.67685 1.01863 0
M  V30 5288 O 490.138 1.21277 1.79223 0
M  V30 5289 C 490.733 3.28509 -0.828708 0
M  V30 5290 C 489.292 3.72712 -0.525644 0
M  V30 5291 C 488.439 2.56676 -1.04941 0
M  V30 5292 H 491.39 1.22688 -1.00664 0
M  V30 5293 H 491.411 3.80279 -0.129757 0
M  V30 5294 H 490.923 3.38122 -1.90513 0
M  V30 5295 H 489.024 3.68642 0.541666 0
M  V30 5296 H 489.137 4.67119 -1.06474 0
M  V30 5297 H 487.501 2.50302 -0.471286 0
M  V30 5298 H 488.284 2.69063 -2.13214 0
M  V30 5299 N 490.729 0.570148 1.46925 0
M  V30 5300 C 491.954 0.0542592 2.07329 0
M  V30 5301 C 492.379 -1.23582 1.41806 0
M  V30 5302 O 491.737 -1.74341 0.497479 0
M  V30 5303 C 491.785 -0.111175 3.60429 0
M  V30 5304 O 490.889 -1.17071 3.95434 0
M  V30 5305 H 490.23 0.0571425 0.661537 0
M  V30 5306 H 492.76 0.789516 1.88753 0
M  V30 5307 H 492.77 -0.321315 4.06733 0
M  V30 5308 H 491.445 0.831012 4.07513 0
M  V30 5309 H 490.022 -0.940029 3.60857 0
M  V30 5310 N 492.207 -1.54576 0.307264 0
M  V30 5311 C 493.17 -2.22423 -0.553224 0
M  V30 5312 C 494.17 -1.21231 -1.05639 0
M  V30 5313 O 495.36 -1.45923 -0.951419 0
M  V30 5314 C 492.492 -2.91552 -1.76664 0
M  V30 5315 H 493.685 -2.99874 0.0396484 0
M  V30 5316 H 491.238 -1.56192 0.0581629 0
M  V30 5317 H 491.973 -2.18196 -2.39918 0
M  V30 5318 H 491.758 -3.65738 -1.41343 0
M  V30 5319 H 493.248 -3.43292 -2.37783 0
M  V30 5320 N 493.685 -0.035106 -1.57561 0
M  V30 5321 C 495.101 0.321334 -1.56332 0
M  V30 5322 C 495.301 1.72509 -1.04129 0
M  V30 5323 O 494.357 2.4287 -0.690694 0
M  V30 5324 C 495.67 0.164469 -3.0025 0
M  V30 5325 C 497.218 0.236786 -3.12103 0
M  V30 5326 C 497.693 0.10864 -4.57871 0
M  V30 5327 N 499.184 0.165433 -4.62904 0
M  V30 5328 C 499.919 0.0901506 -5.73329 0
M  V30 5329 N 499.415 -0.0365606 -6.9279 0
M  V30 5330 N 501.208 0.144572 -5.61914 0
M  V30 5331 H 493.359 -0.952976 -1.89821 0
M  V30 5332 H 495.622 -0.368537 -0.873432 0
M  V30 5333 H 495.328 -0.802746 -3.42416 0
M  V30 5334 H 495.202 0.932194 -3.655 0
M  V30 5335 H 497.589 1.19446 -2.69845 0
M  V30 5336 H 497.67 -0.561419 -2.49563 0
M  V30 5337 H 497.314 -0.845644 -5.00811 0
M  V30 5338 H 497.244 0.925786 -5.18398 0
M  V30 5339 H 499.735 0.263269 -3.76982 0
M  V30 5340 H 500.048 -0.0871487 -7.72751 0
M  V30 5341 H 498.393 -0.0714256 -6.94963 0
M  V30 5342 H 501.584 0.242006 -4.67474 0
M  V30 5343 H 501.757 0.0824413 -6.47948 0
M  V30 5344 N 495.163 1.55791 0.238111 0
M  V30 5345 C 496.412 1.77234 0.962868 0
M  V30 5346 C 496.725 0.600661 1.86149 0
M  V30 5347 O 497.931 0.698315 2.62366 0
M  V30 5348 C 496.387 3.13808 1.76218 0
M  V30 5349 C 495.995 4.3865 0.910518 0
M  V30 5350 C 497.739 3.44585 2.47914 0
M  V30 5351 C 495.646 5.66252 1.70623 0
M  V30 5352 H 494.576 0.660731 0.36325 0
M  V30 5353 H 497.227 1.8221 0.217242 0
M  V30 5354 H 495.609 3.02963 2.55009 0
M  V30 5355 H 496.783 4.60507 0.164316 0
M  V30 5356 H 495.098 4.15271 0.30647 0
M  V30 5357 H 497.695 4.3714 3.07917 0
M  V30 5358 H 498.038 2.66314 3.19973 0
M  V30 5359 H 498.571 3.56685 1.76127 0
M  V30 5360 H 495.31 6.47369 1.02923 0
M  V30 5361 H 494.83 5.48483 2.42748 0
M  V30 5362 H 496.509 6.05829 2.27114 0
M  V30 5363 N 496.642 -0.504142 1.49319 0
M  V30 5364 C 497.867 -1.28729 1.62615 0
M  V30 5365 C 498.292 -1.85752 0.296309 0
M  V30 5366 O 497.65 -1.65704 -0.735649 0
M  V30 5367 C 497.698 -2.39561 2.69524 0
M  V30 5368 O 496.802 -3.43324 2.28478 0
M  V30 5369 H 496.143 -0.380172 0.544395 0
M  V30 5370 H 498.673 -0.603872 1.95485 0
M  V30 5371 H 498.683 -2.8537 2.91595 0
M  V30 5372 H 497.358 -1.97423 3.66056 0
M  V30 5373 H 495.935 -3.03455 2.16725 0
M  V30 5374 N 498.12 -1.38341 -0.754957 0
M  V30 5375 C 499.083 -1.35262 -1.85032 0
M  V30 5376 C 500.083 -0.253393 -1.58791 0
M  V30 5377 O 501.273 -0.510205 -1.66561 0
M  V30 5378 C 498.405 -1.10544 -3.22479 0
M  V30 5379 H 499.598 -2.32712 -1.8917 0
M  V30 5380 H 497.151 -1.23614 -0.956515 0
M  V30 5381 H 497.886 -0.136952 -3.24011 0
M  V30 5382 H 497.671 -1.90127 -3.4292 0
M  V30 5383 H 499.161 -1.11082 -4.02555 0
M  V30 5384 N 499.598 0.982988 -1.23187 0
M  V30 5385 C 500.561 2.05649 -1.01198 0
M  V30 5386 C 501.561 1.6078 0.0252464 0
M  V30 5387 O 502.751 1.72878 -0.214243 0
M  V30 5388 C 499.883 3.36744 -0.530656 0
M  V30 5389 H 501.076 2.2659 -1.96461 0
M  V30 5390 H 498.629 1.15602 -1.05195 0
M  V30 5391 H 499.364 3.21492 0.425873 0
M  V30 5392 H 499.149 3.7065 -1.2791 0
M  V30 5393 H 500.639 4.15705 -0.397366 0
M  V30 5394 N 501.076 1.04316 1.18135 0
M  V30 5395 C 502.039 0.640794 2.2006 0
M  V30 5396 C 503.039 -0.303124 1.57917 0
M  V30 5397 O 504.229 -0.0881855 1.73977 0
M  V30 5398 C 501.361 -0.060148 3.40847 0
M  V30 5399 H 502.554 1.54281 2.57172 0
M  V30 5400 H 500.107 0.836004 1.32063 0
M  V30 5401 H 500.842 -0.975845 3.0927 0
M  V30 5402 H 500.627 0.618319 3.87194 0
M  V30 5403 H 502.117 -0.328082 4.16309 0
M  V30 5404 N 502.554 -1.34406 0.822964 0
M  V30 5405 C 503.517 -2.2783 0.250271 0
M  V30 5406 C 504.517 -1.50288 -0.571854 0
M  V30 5407 O 505.707 -1.69825 -0.387952 0
M  V30 5408 C 502.839 -3.34663 -0.649137 0
M  V30 5409 H 504.032 -2.79992 1.07444 0
M  V30 5410 H 501.585 -1.44539 0.594829 0
M  V30 5411 H 502.32 -2.87714 -1.49637 0
M  V30 5412 H 502.105 -3.92052 -0.0611199 0
M  V30 5413 H 503.595 -4.04349 -1.04363 0
M  V30 5414 N 504.032 -0.577932 -1.46621 0
M  V30 5415 C 504.962 0.145917 -2.33044 0
M  V30 5416 C 505.943 0.888412 -1.45056 0
M  V30 5417 O 507.128 0.864812 -1.73881 0
M  V30 5418 C 504.258 1.16322 -3.27241 0
M  V30 5419 C 503.212 0.535868 -4.24632 0
M  V30 5420 C 502.538 1.65929 -5.08303 0
M  V30 5421 C 503.838 -0.523861 -5.19666 0
M  V30 5422 H 505.532 -0.575636 -2.93814 0
M  V30 5423 H 503.078 -0.278272 -1.41286 0
M  V30 5424 H 505.031 1.67793 -3.86553 0
M  V30 5425 H 503.755 1.91498 -2.64567 0
M  V30 5426 H 502.414 0.0422759 -3.66576 0
M  V30 5427 H 502.062 2.40061 -4.42018 0
M  V30 5428 H 501.762 1.2452 -5.74255 0
M  V30 5429 H 503.286 2.17686 -5.70478 0
M  V30 5430 H 504.7 -0.0944059 -5.73222 0
M  V30 5431 H 503.097 -0.858 -5.93935 0
M  V30 5432 H 504.167 -1.41197 -4.63887 0
M  V30 5433 N 505.51 1.54411 -0.315457 0
M  V30 5434 C 506.926 1.59556 0.037464 0
M  V30 5435 C 507.126 1.33217 1.5118 0
M  V30 5436 O 506.182 1.11264 2.26664 0
M  V30 5437 C 507.495 2.98372 -0.373477 0
M  V30 5438 C 509.043 3.11324 -0.323452 0
M  V30 5439 C 509.518 4.52472 -0.709433 0
M  V30 5440 N 511.009 4.58437 -0.662524 0
M  V30 5441 C 511.744 5.65751 -0.933474 0
M  V30 5442 N 511.24 6.81039 -1.27114 0
M  V30 5443 N 513.033 5.55489 -0.859573 0
M  V30 5444 H 505.184 1.6979 -1.27614 0
M  V30 5445 H 507.447 0.793732 -0.518356 0
M  V30 5446 H 507.153 3.22618 -1.40037 0
M  V30 5447 H 507.027 3.76264 0.265615 0
M  V30 5448 H 509.414 2.86818 0.694223 0
M  V30 5449 H 509.495 2.35555 -0.997367 0
M  V30 5450 H 509.139 4.7771 -1.72498 0
M  V30 5451 H 509.069 5.26598 -0.0132923 0
M  V30 5452 H 511.56 3.75636 -0.413065 0
M  V30 5453 H 511.873 7.58816 -1.46348 0
M  V30 5454 H 510.218 6.82555 -1.30932 0
M  V30 5455 H 513.409 4.64299 -0.595324 0
M  V30 5456 H 513.582 6.39036 -1.0741 0
M  V30 5457 N 506.988 0.0434614 1.5754 0
M  V30 5458 C 507.938 -0.943039 2.07583 0
M  V30 5459 C 508.922 -1.27662 0.979342 0
M  V30 5460 O 510.114 -1.26034 1.24276 0
M  V30 5461 C 507.243 -2.22056 2.61813 0
M  V30 5462 C 506.329 -1.91471 3.78417 0
M  V30 5463 N 506.72 -1.31214 4.88484 0
M  V30 5464 C 505.018 -2.21384 3.87176 0
M  V30 5465 C 505.719 -1.18084 5.69588 0
M  V30 5466 N 504.695 -1.68116 5.16951 0
M  V30 5467 H 508.497 -0.472354 2.90079 0
M  V30 5468 H 506.011 -0.161191 1.61598 0
M  V30 5469 H 508.008 -2.93618 2.95963 0
M  V30 5470 H 506.668 -2.69738 1.80752 0
M  V30 5471 H 507.679 -0.985318 5.08441 0
M  V30 5472 H 504.356 -2.7164 3.17046 0
M  V30 5473 H 505.746 -0.713684 6.68099 0
M  V30 5474 N 508.466 -1.55915 -0.229846 0
M  V30 5475 C 509.877 -1.68809 -0.797531 0
M  V30 5476 C 510.228 -0.643995 -1.8533 0
M  V30 5477 O 509.353 0.206492 -2.15413 0
M  V30 5478 C 509.948 -3.06043 -1.45338 0
M  V30 5479 C 508.507 -3.20819 -1.96856 0
M  V30 5480 C 507.654 -2.6472 -0.825736 0
M  V30 5481 H 510.605 -1.58699 -0.00533733 0
M  V30 5482 H 510.626 -3.01438 -2.32196 0
M  V30 5483 H 510.138 -3.82012 -0.684743 0
M  V30 5484 H 508.239 -2.49704 -2.76548 0
M  V30 5485 H 508.352 -4.27937 -2.15423 0
M  V30 5486 H 506.716 -2.22985 -1.23084 0
M  V30 5487 H 507.499 -3.43229 -0.0699019 0
M  V30 5488 N 509.944 0.496216 -1.49584 0
M  V30 5489 C 511.191 1.25003 -1.59312 0
M  V30 5490 C 511.519 1.92445 -0.28198 0
M  V30 5491 O 510.774 1.81557 0.730452 0
M  V30 5492 C 511.073 2.3359 -2.705 0
M  V30 5493 C 510.739 1.83574 -4.11839 0
M  V30 5494 C 509.401 1.69653 -4.50302 0
M  V30 5495 C 511.753 1.46193 -5.00277 0
M  V30 5496 C 509.081 1.16736 -5.74969 0
M  V30 5497 C 511.433 0.947265 -6.25468 0
M  V30 5498 C 510.097 0.794485 -6.62755 0
M  V30 5499 H 509.367 0.45742 -0.582965 0
M  V30 5500 H 512.014 0.549996 -1.83432 0
M  V30 5501 H 510.319 3.09401 -2.40371 0
M  V30 5502 H 512.016 2.91627 -2.75235 0
M  V30 5503 H 508.606 1.9537 -3.81482 0
M  V30 5504 H 512.79 1.55793 -4.71214 0
M  V30 5505 H 508.046 1.03623 -6.02555 0
M  V30 5506 H 512.22 0.648846 -6.93371 0
M  V30 5507 H 509.847 0.382271 -7.59238 0
M  V30 5508 N 511.423 1.38739 0.74761 0
M  V30 5509 C 512.353 1.39173 1.87492 0
M  V30 5510 C 513.334 0.256794 1.6815 0
M  V30 5511 O 514.519 0.460762 1.88655 0
M  V30 5512 C 511.649 1.22197 3.25093 0
M  V30 5513 C 510.603 2.32957 3.59047 0
M  V30 5514 C 509.929 2.01082 4.95449 0
M  V30 5515 C 511.229 3.75237 3.6331 0
M  V30 5516 H 512.923 2.3351 1.87386 0
M  V30 5517 H 510.469 1.12399 0.900134 0
M  V30 5518 H 512.422 1.21124 4.03617 0
M  V30 5519 H 511.146 0.243241 3.25693 0
M  V30 5520 H 509.805 2.33226 2.82845 0
M  V30 5521 H 509.453 1.01678 4.92616 0
M  V30 5522 H 509.153 2.75267 5.19136 0
M  V30 5523 H 510.677 2.01638 5.76346 0
M  V30 5524 H 512.091 3.76966 4.31937 0
M  V30 5525 H 510.488 4.48677 3.98509 0
M  V30 5526 H 511.558 4.07122 2.634 0
M  V30 5527 N 512.901 -0.976442 1.23707 0
M  V30 5528 C 513.864 -2.0511 1.02287 0
M  V30 5529 C 514.864 -1.60791 -0.0167195 0
M  V30 5530 O 516.054 -1.72761 0.223408 0
M  V30 5531 C 513.186 -3.36458 0.548507 0
M  V30 5532 H 514.379 -2.25545 1.9766 0
M  V30 5533 H 511.932 -1.15042 1.05806 0
M  V30 5534 H 512.667 -3.21713 -0.408818 0
M  V30 5535 H 512.452 -3.69967 1.29874 0
M  V30 5536 H 513.942 -4.15489 0.419406 0
M  V30 5537 N 514.379 -1.04941 -1.1758 0
M  V30 5538 C 515.326 -0.648155 -2.21512 0
M  V30 5539 C 516.296 0.348431 -1.62404 0
M  V30 5540 O 517.481 0.240419 -1.89279 0
M  V30 5541 C 514.621 -0.0264291 -3.4509 0
M  V30 5542 C 513.734 -1.07154 -4.185 0
M  V30 5543 C 512.869 -0.417403 -5.29558 0
M  V30 5544 C 511.908 -1.447 -5.94751 0
M  V30 5545 N 511.045 -0.817203 -6.97328 0
M  V30 5546 H 515.885 -1.53891 -2.55189 0
M  V30 5547 H 513.422 -0.769699 -1.25356 0
M  V30 5548 H 515.38 0.351456 -4.15717 0
M  V30 5549 H 514.01 0.827802 -3.12005 0
M  V30 5550 H 513.062 -1.56728 -3.46613 0
M  V30 5551 H 514.374 -1.8532 -4.63096 0
M  V30 5552 H 513.528 0.0142061 -6.06698 0
M  V30 5553 H 512.267 0.396265 -4.86087 0
M  V30 5554 H 511.272 -1.88865 -5.16343 0
M  V30 5555 H 512.497 -2.26252 -6.40302 0
M  V30 5556 H 510.443 -0.0239995 -6.55996 0
M  V30 5557 H 510.36 -1.53644 -7.40223 0
M  V30 5558 H 511.628 -0.410283 -7.7842 0
M  V30 5559 N 515.857 1.33968 -0.830081 0
M  V30 5560 C 517.087 2.01987 -0.434142 0
M  V30 5561 C 517.495 1.62639 0.96671 0
M  V30 5562 O 516.838 0.831151 1.63822 0
M  V30 5563 C 516.9 3.5648 -0.465018 0
M  V30 5564 C 516.564 4.19176 -1.82045 0
M  V30 5565 C 517.561 4.39181 -2.78237 0
M  V30 5566 C 515.246 4.55792 -2.11089 0
M  V30 5567 C 517.24 4.94937 -4.01642 0
M  V30 5568 C 514.927 5.11258 -3.34752 0
M  V30 5569 C 515.925 5.30775 -4.29845 0
M  V30 5570 O 515.613 5.85064 -5.51322 0
M  V30 5571 H 515.345 0.653847 -0.171639 0
M  V30 5572 H 517.899 1.72066 -1.12171 0
M  V30 5573 H 516.129 3.8569 0.279284 0
M  V30 5574 H 517.818 4.05804 -0.0881334 0
M  V30 5575 H 518.584 4.11249 -2.57097 0
M  V30 5576 H 514.463 4.39901 -1.3787 0
M  V30 5577 H 518.007 5.10086 -4.75876 0
M  V30 5578 H 513.904 5.38619 -3.55753 0
M  V30 5579 H 514.672 6.03489 -5.5294 0
M  V30 5580 N 517.335 0.585699 1.46312 0
M  V30 5581 C 518.285 -0.166813 2.27389 0
M  V30 5582 C 519.269 -0.859076 1.36047 0
M  V30 5583 O 520.461 -0.752678 1.60199 0
M  V30 5584 C 517.59 -1.17791 3.2246 0
M  V30 5585 C 516.676 -0.487605 4.21288 0
M  V30 5586 N 517.067 0.45849 5.03718 0
M  V30 5587 C 515.365 -0.737971 4.39852 0
M  V30 5588 C 516.066 0.862213 5.75275 0
M  V30 5589 N 515.042 0.210707 5.43191 0
M  V30 5590 H 518.844 0.560167 2.88512 0
M  V30 5591 H 516.358 0.407715 1.57199 0
M  V30 5592 H 518.355 -1.73122 3.79255 0
M  V30 5593 H 517.015 -1.90568 2.62896 0
M  V30 5594 H 518.026 0.834163 5.11138 0
M  V30 5595 H 514.703 -1.45209 3.91434 0
M  V30 5596 H 516.093 1.64128 6.51546 0
M  V30 5597 N 518.813 -1.54241 0.323641 0
M  V30 5598 C 520.09 -1.92741 -0.333181 0
M  V30 5599 C 520.47 -1.25326 -1.69872 0
M  V30 5600 O 519.818 -0.396991 -2.25025 0
M  V30 5601 C 520.028 -3.46399 -0.425322 0
M  V30 5602 C 521.376 -4.19029 -0.68557 0
M  V30 5603 O 522.4 -3.52555 -0.50824 0
M  V30 5604 O 521.259 -5.36751 -1.02767 0
M  V30 5605 H 518.353 -0.804811 -0.190286 0
M  V30 5606 H 520.899 -1.65542 0.373361 0
M  V30 5607 H 519.671 -3.87643 0.533737 0
M  V30 5608 H 519.294 -3.79704 -1.17944 0
M  V30 5609 N 520.291 -0.0518155 -1.57515 0
M  V30 5610 C 521.702 0.483787 -1.80323 0
M  V30 5611 C 522.053 1.70879 -0.964099 0
M  V30 5612 O 521.178 2.15643 -0.180872 0
M  V30 5613 C 521.773 0.884459 -3.27052 0
M  V30 5614 C 520.332 1.36504 -3.50776 0
M  V30 5615 C 519.479 0.340539 -2.75201 0
M  V30 5616 H 522.43 -0.277691 -1.56252 0
M  V30 5617 H 522.451 1.74733 -3.38007 0
M  V30 5618 H 521.963 -0.00731093 -3.88099 0
M  V30 5619 H 520.064 2.27598 -2.95009 0
M  V30 5620 H 520.177 1.35675 -4.59488 0
M  V30 5621 H 518.541 0.81356 -2.41357 0
M  V30 5622 H 519.324 -0.543156 -3.38976 0
M  V30 5623 N 521.769 1.56035 0.221574 0
M  V30 5624 C 523.046 1.69837 0.970301 0
M  V30 5625 C 523.426 0.599065 2.02421 0
M  V30 5626 O 522.774 -0.393929 2.25079 0
M  V30 5627 C 522.984 3.11148 1.58076 0
M  V30 5628 C 524.332 3.70555 2.07302 0
M  V30 5629 O 525.356 3.14109 1.6797 0
M  V30 5630 O 524.215 4.69562 2.79596 0
M  V30 5631 H 521.309 0.691727 0.453257 0
M  V30 5632 H 523.855 1.68353 0.213358 0
M  V30 5633 H 522.627 3.82617 0.819759 0
M  V30 5634 H 522.25 3.16749 2.40324 0
M  V30 5635 N 523.247 -0.488276 1.49845 0
M  V30 5636 C 524.524 -1.24959 1.50481 0
M  V30 5637 C 524.904 -2.09735 0.239698 0
M  V30 5638 O 524.252 -2.14865 -0.777524 0
M  V30 5639 C 524.462 -2.0954 2.79095 0
M  V30 5640 C 525.81 -2.68305 3.29086 0
M  V30 5641 O 526.834 -2.19797 2.80299 0
M  V30 5642 O 525.693 -3.56643 4.14087 0
M  V30 5643 H 522.787 -0.566133 0.602845 0
M  V30 5644 H 525.333 -0.501504 1.6212 0
M  V30 5645 H 524.105 -1.46958 3.62656 0
M  V30 5646 H 523.728 -2.91517 2.70377 0
M  V30 5647 N 524.725 -1.39134 -0.740242 0
M  V30 5648 C 525.635 -1.39697 -1.88473 0
M  V30 5649 C 526.651 -0.292403 -1.71526 0
M  V30 5650 O 527.827 -0.533021 -1.94219 0
M  V30 5651 C 524.892 -1.23382 -3.24003 0
M  V30 5652 C 523.953 -2.43763 -3.53381 0
M  V30 5653 C 523.186 -2.28216 -4.82445 0
M  V30 5654 O 523.409 -1.28288 -5.55786 0
M  V30 5655 O 522.343 -3.1709 -5.11603 0
M  V30 5656 H 526.169 -2.36159 -1.90952 0
M  V30 5657 H 523.754 -1.20194 -0.887346 0
M  V30 5658 H 525.636 -1.16395 -4.05006 0
M  V30 5659 H 524.311 -0.300121 -3.22306 0
M  V30 5660 H 523.218 -2.56325 -2.72485 0
M  V30 5661 H 524.551 -3.35808 -3.59852 0
M  V30 5662 N 526.204 0.969867 -1.24223 0
M  V30 5663 C 527.615 1.52717 -1.07399 0
M  V30 5664 C 527.966 1.92956 0.355298 0
M  V30 5665 O 527.091 1.77112 1.2434 0
M  V30 5666 C 527.686 2.77521 -1.94339 0
M  V30 5667 C 526.245 3.29615 -1.81744 0
M  V30 5668 C 525.392 2.02537 -1.89405 0
M  V30 5669 H 528.343 0.788399 -1.37732 0
M  V30 5670 H 528.364 3.50773 -1.47439 0
M  V30 5671 H 527.876 2.48203 -2.98357 0
M  V30 5672 H 525.977 3.63789 -0.805505 0
M  V30 5673 H 526.09 3.98661 -2.65718 0
M  V30 5674 H 524.454 2.17151 -1.33108 0
M  V30 5675 H 525.237 1.75587 -2.94999 0
M  V30 5676 N 527.682 1.05563 1.17022 0
M  V30 5677 C 528.959 0.68165 1.83338 0
M  V30 5678 C 529.339 -0.837665 1.93769 0
M  V30 5679 O 528.687 -1.74507 1.47511 0
M  V30 5680 C 528.897 1.375 3.20772 0
M  V30 5681 C 530.245 1.51545 3.96635 0
M  V30 5682 O 531.269 1.33431 3.30264 0
M  V30 5683 O 530.128 1.812 5.15586 0
M  V30 5684 H 527.222 0.240412 0.791285 0
M  V30 5685 H 529.768 1.15545 1.24288 0
M  V30 5686 H 528.54 2.41135 3.08171 0
M  V30 5687 H 528.163 0.890798 3.87493 0
M  V30 5688 N 529.16 -1.33526 0.837174 0
M  V30 5689 C 530.4 -1.99649 0.438115 0
M  V30 5690 C 530.764 -1.64879 -0.983816 0
M  V30 5691 O 531.965 -2.23956 -1.48651 0
M  V30 5692 C 530.236 -3.51431 0.650461 0
M  V30 5693 S 531.795 -4.37431 0.346371 0
M  V30 5694 H 528.613 -0.69162 0.164872 0
M  V30 5695 H 531.215 -1.62556 1.08609 0
M  V30 5696 H 529.919 -3.74225 1.68475 0
M  V30 5697 H 529.45 -3.93398 -0.0117309 0
M  V30 5698 H 531.465 -4.89132 -0.834504 0
M  V30 5699 N 530.638 -0.59345 -1.46 0
M  V30 5700 C 531.601 0.123538 -2.28867 0
M  V30 5701 C 532.601 0.808628 -1.38989 0
M  V30 5702 O 533.791 0.658945 -1.61256 0
M  V30 5703 C 530.923 1.1847 -3.19653 0
M  V30 5704 H 532.116 -0.604843 -2.93737 0
M  V30 5705 H 529.669 -0.351875 -1.52288 0
M  V30 5706 H 530.404 1.94431 -2.59552 0
M  V30 5707 H 530.189 0.69783 -3.8584 0
M  V30 5708 H 531.679 1.68726 -3.81997 0
M  V30 5709 N 532.116 1.54067 -0.331816 0
M  V30 5710 C 533.527 1.86059 0.15454 0
M  V30 5711 C 533.878 1.25331 1.50952 0
M  V30 5712 O 533.003 0.562441 2.08963 0
M  V30 5713 C 533.598 3.37581 0.287192 0
M  V30 5714 C 532.157 3.69493 0.717773 0
M  V30 5715 C 531.304 2.76863 -0.155569 0
M  V30 5716 H 534.255 1.48797 -0.55182 0
M  V30 5717 H 534.276 3.63744 1.11671 0
M  V30 5718 H 533.788 3.81751 -0.699131 0
M  V30 5719 H 531.889 3.3086 1.71354 0
M  V30 5720 H 532.002 4.76315 0.5158 0
M  V30 5721 H 530.366 2.51995 0.370213 0
M  V30 5722 H 531.149 3.23861 -1.13881 0
M  V30 5723 N 533.594 0.0601682 1.57485 0
M  V30 5724 C 535.005 -0.474217 1.80577 0
M  V30 5725 C 535.356 -1.70365 0.973147 0
M  V30 5726 O 534.481 -2.15544 0.192306 0
M  V30 5727 C 535.076 -0.867102 3.27516 0
M  V30 5728 C 533.635 -1.34642 3.51495 0
M  V30 5729 C 532.782 -0.32594 2.75378 0
M  V30 5730 H 535.733 0.285973 1.56102 0
M  V30 5731 H 535.754 -1.72938 3.38929 0
M  V30 5732 H 535.266 0.0278927 3.8809 0
M  V30 5733 H 533.367 -2.2603 2.96212 0
M  V30 5734 H 533.48 -1.33237 4.60201 0
M  V30 5735 H 531.844 -0.800749 2.41785 0
M  V30 5736 H 532.627 0.561125 3.38683 0
M  V30 5737 N 535.072 -1.5615 -0.213296 0
M  V30 5738 C 536.319 -1.79546 -0.936462 0
M  V30 5739 C 536.647 -0.630337 -1.84003 0
M  V30 5740 O 535.902 0.384883 -1.91878 0
M  V30 5741 C 536.201 -3.08772 -1.79985 0
M  V30 5742 C 535.867 -4.38532 -1.04882 0
M  V30 5743 C 534.529 -4.73787 -0.841393 0
M  V30 5744 C 536.881 -5.18609 -0.51907 0
M  V30 5745 C 534.209 -5.86627 -0.0924403 0
M  V30 5746 C 536.561 -6.32229 0.216581 0
M  V30 5747 C 535.225 -6.6608 0.435191 0
M  V30 5748 H 534.495 -0.657004 -0.342676 0
M  V30 5749 H 537.142 -1.9041 -0.204051 0
M  V30 5750 H 535.447 -2.93065 -2.60038 0
M  V30 5751 H 537.144 -3.24077 -2.36168 0
M  V30 5752 H 533.734 -4.10855 -1.22048 0
M  V30 5753 H 537.918 -4.91801 -0.666775 0
M  V30 5754 H 533.174 -6.11338 0.087081 0
M  V30 5755 H 537.348 -6.93503 0.634538 0
M  V30 5756 H 534.975 -7.5336 1.01746 0
M  V30 5757 N 536.55 0.480323 -1.50102 0
M  V30 5758 C 537.827 1.24159 -1.51142 0
M  V30 5759 C 538.207 2.09605 -0.250818 0
M  V30 5760 O 537.555 2.15274 0.766118 0
M  V30 5761 C 537.765 2.08057 -2.80202 0
M  V30 5762 C 539.113 2.66556 -3.30504 0
M  V30 5763 O 540.137 2.18308 -2.81461 0
M  V30 5764 O 538.996 3.54442 -4.15973 0
M  V30 5765 H 536.09 0.562928 -0.605839 0
M  V30 5766 H 538.636 0.492899 -1.62384 0
M  V30 5767 H 537.408 1.45032 -3.6343 0
M  V30 5768 H 537.031 2.90079 -2.71919 0
M  V30 5769 N 538.028 1.39524 0.732853 0
M  V30 5770 C 539.275 1.36865 1.49246 0
M  V30 5771 C 539.603 -0.0347118 1.94469 0
M  V30 5772 O 538.858 -1.01596 1.67262 0
M  V30 5773 C 539.157 2.28916 2.74468 0
M  V30 5774 C 538.823 3.76506 2.481 0
M  V30 5775 C 537.485 4.16721 2.40619 0
M  V30 5776 C 539.837 4.69846 2.25598 0
M  V30 5777 C 537.165 5.48334 2.08679 0
M  V30 5778 C 539.517 6.01739 1.95174 0
M  V30 5779 C 538.181 6.41015 1.86163 0
M  V30 5780 H 537.451 0.500824 0.546129 0
M  V30 5781 H 540.098 1.72047 0.840958 0
M  V30 5782 H 538.403 1.86859 3.4437 0
M  V30 5783 H 540.1 2.2415 3.32502 0
M  V30 5784 H 536.69 3.44635 2.54803 0
M  V30 5785 H 540.874 4.39608 2.30344 0
M  V30 5786 H 536.13 5.77685 2.00226 0
M  V30 5787 H 540.304 6.73591 1.76771 0
M  V30 5788 H 537.931 7.42917 1.61179 0
M  V30 5789 N 539.506 -0.963266 1.24736 0
M  V30 5790 C 540.469 -2.04013 1.04457 0
M  V30 5791 C 541.469 -1.608 0.000335555 0
M  V30 5792 O 542.659 -1.72515 0.241719 0
M  V30 5793 C 539.791 -3.35858 0.584162 0
M  V30 5794 H 540.984 -2.23436 2.00041 0
M  V30 5795 H 538.537 -1.13914 1.07021 0
M  V30 5796 H 539.272 -3.22128 -0.374673 0
M  V30 5797 H 539.057 -3.68568 1.3379 0
M  V30 5798 H 540.547 -4.1502 0.463451 0
M  V30 5799 N 540.985 -1.06182 -1.16461 0
M  V30 5800 C 542.232 -0.777863 -1.86964 0
M  V30 5801 C 542.56 0.695602 -1.81636 0
M  V30 5802 O 541.815 1.52532 -1.22607 0
M  V30 5803 C 542.114 -1.21633 -3.36066 0
M  V30 5804 C 541.78 -2.69371 -3.61594 0
M  V30 5805 C 540.442 -3.09727 -3.6827 0
M  V30 5806 C 542.794 -3.64791 -3.7226 0
M  V30 5807 C 540.122 -4.44345 -3.83112 0
M  V30 5808 C 542.474 -4.99155 -3.88623 0
M  V30 5809 C 541.138 -5.39149 -3.93541 0
M  V30 5810 H 540.408 -0.28464 -0.68415 0
M  V30 5811 H 543.055 -1.33071 -1.37711 0
M  V30 5812 H 541.36 -0.582651 -3.87443 0
M  V30 5813 H 543.057 -0.973682 -3.88999 0
M  V30 5814 H 539.647 -2.37124 -3.57029 0
M  V30 5815 H 543.831 -3.34746 -3.66413 0
M  V30 5816 H 539.087 -4.74819 -3.85172 0
M  V30 5817 H 543.261 -5.72976 -3.95817 0
M  V30 5818 H 540.888 -6.43464 -4.04794 0
M  V30 5819 N 542.463 1.3308 -0.844243 0
M  V30 5820 C 543.74 1.92178 -0.364261 0
M  V30 5821 C 544.12 1.76961 1.15101 0
M  V30 5822 O 543.468 1.16128 1.9679 0
M  V30 5823 C 543.678 3.393 -0.817106 0
M  V30 5824 C 545.026 4.16444 -0.828236 0
M  V30 5825 O 546.05 3.47975 -0.761062 0
M  V30 5826 O 544.909 5.38685 -0.920926 0
M  V30 5827 H 542.003 0.820411 -0.10419 0
M  V30 5828 H 544.549 1.41918 -0.930453 0
M  V30 5829 H 543.321 3.44272 -1.85991 0
M  V30 5830 H 542.944 3.96947 -0.227785 0
M  V30 5831 N 543.941 0.601185 1.45683 0
M  V30 5832 C 545.357 0.264315 1.57396 0
M  V30 5833 C 545.557 -1.23324 1.59353 0
M  V30 5834 O 544.613 -2.01594 1.52039 0
M  V30 5835 C 545.926 0.929839 2.85962 0
M  V30 5836 C 547.474 0.905156 2.99626 0
M  V30 5837 C 547.949 1.55057 4.30954 0
M  V30 5838 N 549.44 1.51576 4.37697 0
M  V30 5839 C 550.175 1.98436 5.37969 0
M  V30 5840 N 549.671 2.53352 6.44813 0
M  V30 5841 N 551.464 1.89242 5.29286 0
M  V30 5842 H 543.615 1.57363 1.42656 0
M  V30 5843 H 545.878 0.658831 0.681649 0
M  V30 5844 H 545.584 1.98404 2.90394 0
M  V30 5845 H 545.458 0.449224 3.74515 0
M  V30 5846 H 547.845 -0.14048 2.94765 0
M  V30 5847 H 547.926 1.42397 2.12501 0
M  V30 5848 H 547.57 2.5955 4.36573 0
M  V30 5849 H 547.5 1.00682 5.16886 0
M  V30 5850 H 549.991 1.11452 3.61091 0
M  V30 5851 H 550.304 2.86918 7.17564 0
M  V30 5852 H 548.649 2.57388 6.45582 0
M  V30 5853 H 551.84 1.46083 4.44722 0
M  V30 5854 H 552.013 2.26075 6.07284 0
M  V30 5855 N 545.419 -1.53889 0.339982 0
M  V30 5856 C 546.329 -2.28604 -0.526988 0
M  V30 5857 C 547.345 -1.33578 -1.11503 0
M  V30 5858 O 548.521 -1.66612 -1.13148 0
M  V30 5859 C 545.586 -3.04164 -1.66389 0
M  V30 5860 C 544.647 -4.14809 -1.10599 0
M  V30 5861 C 543.88 -4.86756 -2.18871 0
M  V30 5862 O 544.103 -4.58343 -3.39526 0
M  V30 5863 O 543.037 -5.73289 -1.83366 0
M  V30 5864 H 546.863 -3.03594 0.0802707 0
M  V30 5865 H 544.448 -1.4903 0.105141 0
M  V30 5866 H 546.33 -3.51427 -2.32544 0
M  V30 5867 H 545.005 -2.32035 -2.25703 0
M  V30 5868 H 543.912 -3.71857 -0.409067 0
M  V30 5869 H 545.245 -4.89029 -0.557771 0
M  V30 5870 N 546.897 -0.0685191 -1.57451 0
M  V30 5871 C 547.86 0.885173 -2.11417 0
M  V30 5872 C 548.86 1.22853 -1.03748 0
M  V30 5873 O 550.05 1.16235 -1.2975 0
M  V30 5874 C 547.182 2.18964 -2.61281 0
M  V30 5875 H 548.375 0.417034 -2.96986 0
M  V30 5876 H 545.928 0.18014 -1.55258 0
M  V30 5877 H 546.663 2.70321 -1.79156 0
M  V30 5878 H 546.448 1.9534 -3.39977 0
M  V30 5879 H 547.938 2.87242 -3.0312 0
M  V30 5880 N 548.375 1.56261 0.205012 0
M  V30 5881 C 549.305 1.96779 1.257 0
M  V30 5882 C 550.286 0.838309 1.48008 0
M  V30 5883 O 551.471 1.10189 1.59913 0
M  V30 5884 C 548.601 2.29876 2.60335 0
M  V30 5885 C 547.555 3.45469 2.52656 0
M  V30 5886 C 546.881 3.64215 3.91473 0
M  V30 5887 C 548.181 4.79954 2.06014 0
M  V30 5888 H 549.875 2.84904 0.920338 0
M  V30 5889 H 547.421 1.37072 0.441277 0
M  V30 5890 H 549.374 2.56814 3.34102 0
M  V30 5891 H 548.098 1.38622 2.95722 0
M  V30 5892 H 546.757 3.18605 1.81345 0
M  V30 5893 H 546.405 2.70309 4.24196 0
M  V30 5894 H 546.105 4.41973 3.87213 0
M  V30 5895 H 547.629 3.93519 4.66878 0
M  V30 5896 H 549.043 5.05989 2.69533 0
M  V30 5897 H 547.44 5.61111 2.12777 0
M  V30 5898 H 548.51 4.74201 1.01297 0
M  V30 5899 N 549.853 -0.472356 1.50355 0
M  V30 5900 C 551.081 -1.24784 1.65035 0
M  V30 5901 C 551.496 -1.85837 0.333176 0
M  V30 5902 O 550.853 -1.69168 -0.68472 0
M  V30 5903 C 550.904 -2.35747 2.74054 0
M  V30 5904 O 550.625 -1.77197 4.00665 0
M  V30 5905 C 552.126 -3.26645 2.99696 0
M  V30 5906 H 549.346 -0.377432 0.554785 0
M  V30 5907 H 551.89 -0.563962 1.9657 0
M  V30 5908 H 550.045 -2.99912 2.45217 0
M  V30 5909 H 550.459 -2.5026 4.60945 0
M  V30 5910 H 551.933 -4.00718 3.79644 0
M  V30 5911 H 552.41 -3.8535 2.10718 0
M  V30 5912 H 553.016 -2.68218 3.3006 0
M  V30 5913 N 551.331 -1.39911 -0.725443 0
M  V30 5914 C 552.747 -1.21725 -1.03224 0
M  V30 5915 C 552.947 -0.0855224 -2.01318 0
M  V30 5916 O 552.003 0.55976 -2.46217 0
M  V30 5917 C 553.316 -2.55511 -1.58539 0
M  V30 5918 C 554.864 -2.62439 -1.70572 0
M  V30 5919 C 555.339 -3.9647 -2.29294 0
M  V30 5920 N 556.83 -3.98159 -2.36692 0
M  V30 5921 C 557.565 -4.98647 -2.83088 0
M  V30 5922 N 557.061 -6.0953 -3.2931 0
M  V30 5923 N 558.854 -4.8602 -2.82384 0
M  V30 5924 H 551.005 -2.12267 -0.075048 0
M  V30 5925 H 553.268 -0.943136 -0.0959066 0
M  V30 5926 H 552.974 -3.38926 -0.939249 0
M  V30 5927 H 552.848 -2.75905 -2.57208 0
M  V30 5928 H 555.235 -1.79401 -2.34306 0
M  V30 5929 H 555.316 -2.45885 -0.705297 0
M  V30 5930 H 554.96 -4.79942 -1.66186 0
M  V30 5931 H 554.89 -4.10349 -3.30032 0
M  V30 5932 H 557.381 -3.18085 -2.04035 0
M  V30 5933 H 557.694 -6.82106 -3.6325 0
M  V30 5934 H 556.039 -6.1311 -3.27294 0
M  V30 5935 H 559.23 -3.98493 -2.45603 0
M  V30 5936 H 559.403 -5.64478 -3.18226 0
M  V30 5937 N 552.809 0.956637 -1.25245 0
M  V30 5938 C 553.719 2.0868 -1.0719 0
M  V30 5939 C 554.735 1.73997 -0.00959074 0
M  V30 5940 O 555.911 2.00301 -0.210104 0
M  V30 5941 C 552.976 3.39754 -0.690526 0
M  V30 5942 C 552.037 3.88316 -1.83055 0
M  V30 5943 C 551.27 5.13134 -1.46728 0
M  V30 5944 O 551.493 5.6925 -0.362029 0
M  V30 5945 O 550.427 5.56356 -2.29677 0
M  V30 5946 H 554.253 2.26813 -2.01965 0
M  V30 5947 H 551.838 1.07098 -1.04165 0
M  V30 5948 H 553.72 4.18543 -0.489871 0
M  V30 5949 H 552.395 3.22896 0.227981 0
M  V30 5950 H 551.302 3.1054 -2.08604 0
M  V30 5951 H 552.635 4.09669 -2.72822 0
M  V30 5952 N 554.287 1.06798 1.15896 0
M  V30 5953 C 555.703 0.792423 1.38538 0
M  V30 5954 C 555.903 -0.60592 1.92174 0
M  V30 5955 O 554.959 -1.36561 2.12385 0
M  V30 5956 C 556.272 1.86157 2.36149 0
M  V30 5957 C 557.82 1.88567 2.49823 0
M  V30 5958 C 558.295 2.9455 3.5072 0
M  V30 5959 N 559.786 2.93616 3.58251 0
M  V30 5960 C 560.521 3.72267 4.36125 0
M  V30 5961 N 560.017 4.60751 5.17379 0
M  V30 5962 N 561.81 3.60637 4.31158 0
M  V30 5963 H 553.961 1.96993 0.794198 0
M  V30 5964 H 556.224 0.853942 0.411688 0
M  V30 5965 H 555.93 2.86603 2.03843 0
M  V30 5966 H 555.804 1.71692 3.3586 0
M  V30 5967 H 558.191 0.887765 2.8143 0
M  V30 5968 H 558.272 2.0711 1.5013 0
M  V30 5969 H 557.916 3.94537 3.19849 0
M  V30 5970 H 557.846 2.73255 4.50155 0
M  V30 5971 H 560.337 2.29472 3.00252 0
M  V30 5972 H 560.65 5.17408 5.74028 0
M  V30 5973 H 558.995 4.64803 5.16704 0
M  V30 5974 H 562.186 2.90892 3.66742 0
M  V30 5975 H 562.359 4.22176 4.91601 0
M  V30 5976 N 555.766 -1.3263 0.851289 0
M  V30 5977 C 557.015 -1.96633 0.449267 0
M  V30 5978 C 557.328 -1.68131 -0.999562 0
M  V30 5979 O 558.534 -2.25845 -1.50685 0
M  V30 5980 C 556.99 -3.51946 0.752446 0
M  V30 5981 C 556.598 -3.89311 2.21678 0
M  V30 5982 C 558.342 -4.22437 0.417983 0
M  V30 5983 C 556.249 -5.37655 2.46336 0
M  V30 5984 H 555.179 -0.735888 0.164269 0
M  V30 5985 H 557.83 -1.51073 1.0416 0
M  V30 5986 H 556.212 -3.95899 0.0895858 0
M  V30 5987 H 557.386 -3.56378 2.92115 0
M  V30 5988 H 555.701 -3.31836 2.51543 0
M  V30 5989 H 558.298 -5.31549 0.579674 0
M  V30 5990 H 558.641 -4.11349 -0.640115 0
M  V30 5991 H 559.174 -3.84057 1.03659 0
M  V30 5992 H 555.913 -5.5376 3.50757 0
M  V30 5993 H 555.433 -5.72005 1.80473 0
M  V30 5994 H 557.112 -6.04695 2.30115 0
M  V30 5995 N 557.244 -0.608902 -1.45362 0
M  V30 5996 C 558.191 0.109172 -2.30542 0
M  V30 5997 C 559.161 0.858704 -1.42181 0
M  V30 5998 O 560.346 0.844178 -1.71109 0
M  V30 5999 C 557.486 1.09971 -3.27109 0
M  V30 6000 C 556.599 0.350911 -4.30572 0
M  V30 6001 C 555.734 1.33129 -5.14247 0
M  V30 6002 C 554.773 0.570377 -6.09437 0
M  V30 6003 N 553.91 1.5001 -6.85887 0
M  V30 6004 H 558.75 -0.623195 -2.91411 0
M  V30 6005 H 556.287 -0.319122 -1.43597 0
M  V30 6006 H 558.245 1.68714 -3.81564 0
M  V30 6007 H 556.875 1.79947 -2.67991 0
M  V30 6008 H 555.927 -0.352054 -3.78767 0
M  V30 6009 H 557.239 -0.242725 -4.98209 0
M  V30 6010 H 556.393 1.99074 -5.73109 0
M  V30 6011 H 555.132 1.95885 -4.46632 0
M  V30 6012 H 554.137 -0.102702 -5.49704 0
M  V30 6013 H 555.362 -0.0521607 -6.7908 0
M  V30 6014 H 553.308 2.11529 -6.2096 0
M  V30 6015 H 553.225 0.959934 -7.49881 0
M  V30 6016 H 554.493 2.14909 -7.49289 0
M  V30 6017 N 558.722 1.53707 -0.348139 0
M  V30 6018 C 559.632 2.28881 0.514857 0
M  V30 6019 C 560.648 1.34168 1.10793 0
M  V30 6020 O 561.824 1.6721 1.12262 0
M  V30 6021 C 558.889 3.05042 1.64774 0
M  V30 6022 C 557.95 4.15389 1.08398 0
M  V30 6023 C 557.183 4.87909 2.16287 0
M  V30 6024 O 557.406 4.60137 3.3709 0
M  V30 6025 O 556.34 5.74254 1.80323 0
M  V30 6026 H 560.166 3.03547 -0.0963699 0
M  V30 6027 H 557.751 1.48972 -0.113043 0
M  V30 6028 H 559.633 3.52656 2.30677 0
M  V30 6029 H 558.308 2.33228 2.24469 0
M  V30 6030 H 557.215 3.72068 0.389341 0
M  V30 6031 H 558.548 4.89318 0.531829 0
M  V30 6032 N 560.2 0.0768682 1.57412 0
M  V30 6033 C 561.163 -0.873949 2.11884 0
M  V30 6034 C 562.163 -1.22301 1.04398 0
M  V30 6035 O 563.353 -1.15545 1.30365 0
M  V30 6036 C 560.485 -2.17575 2.62438 0
M  V30 6037 H 561.678 -0.401278 2.97203 0
M  V30 6038 H 559.231 -0.171904 1.55352 0
M  V30 6039 H 559.966 -2.69368 1.80587 0
M  V30 6040 H 559.751 -1.93534 3.41009 0
M  V30 6041 H 561.241 -2.85631 3.04639 0
M  V30 6042 N 561.678 -1.56367 -0.196722 0
M  V30 6043 C 562.927 -1.79724 -0.915539 0
M  V30 6044 C 563.24 -0.649804 -1.84491 0
M  V30 6045 O 564.446 -0.767631 -2.60422 0
M  V30 6046 C 562.902 -3.18369 -1.67836 0
M  V30 6047 C 562.51 -4.4091 -0.793897 0
M  V30 6048 C 564.254 -3.51037 -2.38691 0
M  V30 6049 C 562.161 -5.70577 -1.55549 0
M  V30 6050 H 561.091 -0.67013 -0.345604 0
M  V30 6051 H 563.742 -1.82721 -0.168856 0
M  V30 6052 H 562.124 -3.09617 -2.46887 0
M  V30 6053 H 563.298 -4.60781 -0.042163 0
M  V30 6054 H 561.613 -4.15937 -0.19626 0
M  V30 6055 H 564.21 -4.4515 -2.96219 0
M  V30 6056 H 564.553 -2.74704 -3.12799 0
M  V30 6057 H 565.086 -3.61229 -1.66608 0
M  V30 6058 H 561.825 -6.49871 -0.857226 0
M  V30 6059 H 561.345 -5.54726 -2.2812 0
M  V30 6060 H 563.024 -6.11637 -2.10971 0
M  V30 6061 N 563.156 0.464375 -1.50603 0
M  V30 6062 C 564.402 1.21776 -1.62168 0
M  V30 6063 C 564.735 1.91476 -0.324154 0
M  V30 6064 O 564.01 1.8242 0.674782 0
M  V30 6065 C 564.293 2.25614 -2.80661 0
M  V30 6066 C 564.146 1.60175 -4.20314 0
M  V30 6067 C 565.465 3.26862 -2.94702 0
M  V30 6068 H 562.584 0.44137 -0.590222 0
M  V30 6069 H 565.226 0.510623 -1.8301 0
M  V30 6070 H 563.376 2.85923 -2.63021 0
M  V30 6071 H 565.048 1.03411 -4.4956 0
M  V30 6072 H 563.291 0.904697 -4.24261 0
M  V30 6073 H 563.962 2.35665 -4.99165 0
M  V30 6074 H 566.438 2.76582 -3.10872 0
M  V30 6075 H 565.314 3.96839 -3.79223 0
M  V30 6076 H 565.575 3.91382 -2.05603 0
M  V30 6077 N 564.634 1.40294 0.718013 0
M  V30 6078 C 565.597 1.4012 1.81381 0
M  V30 6079 C 566.597 0.295405 1.58063 0
M  V30 6080 O 567.787 0.554187 1.6515 0
M  V30 6081 C 564.919 1.19056 3.19435 0
M  V30 6082 H 566.112 2.37645 1.82933 0
M  V30 6083 H 563.665 1.26107 0.923405 0
M  V30 6084 H 564.4 0.222809 3.23534 0
M  V30 6085 H 564.185 1.99152 3.37758 0
M  V30 6086 H 565.675 1.21716 3.99468 0
M  V30 6087 N 566.112 -0.949982 1.2575 0
M  V30 6088 C 567.022 -2.08109 1.08295 0
M  V30 6089 C 568.038 -1.7399 0.0188181 0
M  V30 6090 O 569.214 -2.00187 0.220724 0
M  V30 6091 C 566.279 -3.39383 0.708534 0
M  V30 6092 C 565.34 -3.8734 1.85111 0
M  V30 6093 C 564.573 -5.12349 1.49447 0
M  V30 6094 O 564.796 -5.6905 0.392212 0
M  V30 6095 O 563.73 -5.5513 2.32624 0
M  V30 6096 H 567.556 -2.25738 2.03165 0
M  V30 6097 H 565.141 -1.06545 1.04731 0
M  V30 6098 H 567.023 -4.18277 0.512061 0
M  V30 6099 H 565.698 -3.23013 -0.210854 0
M  V30 6100 H 564.605 -3.09429 2.10248 0
M  V30 6101 H 565.938 -4.08216 2.74991 0
M  V30 6102 N 567.59 -1.07411 -1.15328 0
M  V30 6103 C 568.839 -0.792643 -1.85473 0
M  V30 6104 C 569.152 0.683789 -1.83259 0
M  V30 6105 O 570.358 1.08005 -2.49093 0
M  V30 6106 C 568.814 -1.36787 -3.32892 0
M  V30 6107 C 568.422 -2.87536 -3.43551 0
M  V30 6108 C 570.166 -1.16444 -4.08217 0
M  V30 6109 C 568.073 -3.38247 -4.85122 0
M  V30 6110 H 567.003 -0.292838 -0.694811 0
M  V30 6111 H 569.654 -1.29426 -1.30082 0
M  V30 6112 H 568.036 -0.793993 -3.87958 0
M  V30 6113 H 569.21 -3.50973 -2.98588 0
M  V30 6114 H 567.525 -3.06676 -2.81672 0
M  V30 6115 H 570.122 -1.51808 -5.12697 0
M  V30 6116 H 570.465 -0.10353 -4.16171 0
M  V30 6117 H 570.998 -1.70472 -3.59422 0
M  V30 6118 H 567.737 -4.43866 -4.82351 0
M  V30 6119 H 567.257 -2.79564 -5.30664 0
M  V30 6120 H 568.936 -3.34238 -5.5398 0
M  V30 6121 N 569.068 1.32177 -0.85831 0
M  V30 6122 C 569.978 2.32561 -0.308606 0
M  V30 6123 C 570.994 1.64209 0.575462 0
M  V30 6124 O 572.17 1.95719 0.474961 0
M  V30 6125 C 569.235 3.43207 0.490909 0
M  V30 6126 C 568.296 4.27243 -0.419733 0
M  V30 6127 C 567.529 5.32605 0.341719 0
M  V30 6128 O 567.752 5.48332 1.57125 0
M  V30 6129 O 566.686 6.0118 -0.294379 0
M  V30 6130 H 570.512 2.81477 -1.14037 0
M  V30 6131 H 568.097 1.35866 -0.621349 0
M  V30 6132 H 569.979 4.10677 0.944574 0
M  V30 6133 H 568.654 2.96474 1.29941 0
M  V30 6134 H 567.561 3.62569 -0.921652 0
M  V30 6135 H 568.894 4.7751 -1.19352 0
M  V30 6136 N 570.547 0.616602 1.45037 0
M  V30 6137 C 571.824 0.0469086 1.95544 0
M  V30 6138 C 572.204 -1.42345 1.55888 0
M  V30 6139 O 571.552 -2.13055 0.825824 0
M  V30 6140 C 571.762 0.254489 3.48071 0
M  V30 6141 C 573.11 0.140025 4.24369 0
M  V30 6142 O 574.134 0.185084 3.55719 0
M  V30 6143 O 572.993 0.0327034 5.4649 0
M  V30 6144 H 570.087 -0.0306051 0.826433 0
M  V30 6145 H 572.633 0.687293 1.55159 0
M  V30 6146 H 571.405 1.27532 3.69934 0
M  V30 6147 H 571.028 -0.42073 3.95368 0
M  V30 6148 N 572.025 -1.5352 0.356285 0
M  V30 6149 C 573.272 -2.01117 -0.236303 0
M  V30 6150 C 573.6 -1.24381 -1.49531 0
M  V30 6151 O 572.855 -0.323057 -1.93015 0
M  V30 6152 C 573.154 -3.52607 -0.583369 0
M  V30 6153 C 572.82 -4.47151 0.58023 0
M  V30 6154 C 571.482 -4.72718 0.899528 0
M  V30 6155 C 573.834 -5.03137 1.36024 0
M  V30 6156 C 571.162 -5.51523 2.00098 0
M  V30 6157 C 573.514 -5.83145 2.45204 0
M  V30 6158 C 572.178 -6.07001 2.77679 0
M  V30 6159 H 571.448 -0.735938 -0.0864695 0
M  V30 6160 H 574.095 -1.85209 0.48683 0
M  V30 6161 H 572.4 -3.66413 -1.38739 0
M  V30 6162 H 574.097 -3.86901 -1.05397 0
M  V30 6163 H 570.687 -4.27394 0.321322 0
M  V30 6164 H 574.871 -4.83339 1.12682 0
M  V30 6165 H 570.127 -5.68229 2.25668 0
M  V30 6166 H 574.301 -6.25537 3.06067 0
M  V30 6167 H 571.928 -6.67851 3.63151 0
M  V30 6168 N 573.503 -0.0852151 -1.57369 0
M  V30 6169 C 574.453 0.88767 -2.10011 0
M  V30 6170 C 575.437 1.25021 -1.01285 0
M  V30 6171 O 576.629 1.22694 -1.27574 0
M  V30 6172 C 573.758 2.15037 -2.67608 0
M  V30 6173 C 572.844 1.81371 -3.83361 0
M  V30 6174 N 573.235 1.18216 -4.91791 0
M  V30 6175 C 571.533 2.11041 -3.92909 0
M  V30 6176 C 572.234 1.02941 -5.72519 0
M  V30 6177 N 571.21 1.54351 -5.21226 0
M  V30 6178 H 575.012 0.395279 -2.9123 0
M  V30 6179 H 572.526 0.11829 -1.61969 0
M  V30 6180 H 574.523 2.85667 -3.03644 0
M  V30 6181 H 573.183 2.64851 -1.8784 0
M  V30 6182 H 574.194 0.850168 -5.10874 0
M  V30 6183 H 570.871 2.63138 -3.24136 0
M  V30 6184 H 572.261 0.536298 -6.69756 0
M  V30 6185 N 574.981 1.5647 0.188427 0
M  V30 6186 C 575.944 1.9421 1.21718 0
M  V30 6187 C 576.944 0.823901 1.38089 0
M  V30 6188 O 578.134 1.09122 1.35787 0
M  V30 6189 C 575.266 2.22197 2.58537 0
M  V30 6190 H 576.459 2.86252 0.894418 0
M  V30 6191 H 574.012 1.50263 0.430211 0
M  V30 6192 H 574.747 1.32814 2.95856 0
M  V30 6193 H 574.532 3.03688 2.48025 0
M  V30 6194 H 576.022 2.52376 3.3271 0
M  V30 6195 N 576.459 -0.456382 1.50847 0
M  V30 6196 C 577.875 -0.791345 1.386 0
M  V30 6197 C 578.075 -1.9633 0.453498 0
M  V30 6198 O 577.131 -2.52308 -0.0984353 0
M  V30 6199 C 578.444 -1.08959 2.80265 0
M  V30 6200 C 579.992 -1.19517 2.89283 0
M  V30 6201 C 580.467 -1.52647 4.31814 0
M  V30 6202 N 581.958 -1.59609 4.34832 0
M  V30 6203 C 582.693 -1.86777 5.42127 0
M  V30 6204 N 582.189 -2.11866 6.59609 0
M  V30 6205 N 583.982 -1.88402 5.29586 0
M  V30 6206 H 576.133 0.315746 2.1004 0
M  V30 6207 H 578.396 0.0787916 0.94472 0
M  V30 6208 H 578.102 -0.301355 3.50407 0
M  V30 6209 H 577.976 -2.02211 3.18419 0
M  V30 6210 H 580.363 -1.97406 2.19351 0
M  V30 6211 H 580.444 -0.242111 2.54652 0
M  V30 6212 H 580.088 -0.752922 5.02288 0
M  V30 6213 H 580.018 -2.49127 4.63943 0
M  V30 6214 H 582.509 -1.42201 3.50125 0
M  V30 6215 H 582.822 -2.31912 7.37182 0
M  V30 6216 H 581.167 -2.09228 6.62758 0
M  V30 6217 H 584.358 -1.68307 4.36795 0
M  V30 6218 H 584.531 -2.09238 6.13289 0
M  V30 6219 N 577.937 -1.40673 -0.710563 0
M  V30 6220 C 579.353 -1.22813 -1.01928 0
M  V30 6221 C 579.553 -0.10687 -2.01216 0
M  V30 6222 O 578.609 0.533614 -2.46797 0
M  V30 6223 C 579.922 -2.57178 -1.5582 0
M  V30 6224 C 581.47 -2.64233 -1.67779 0
M  V30 6225 C 581.945 -3.98879 -2.25076 0
M  V30 6226 N 583.436 -4.00647 -2.32456 0
M  V30 6227 C 584.171 -5.01621 -2.77784 0
M  V30 6228 N 583.667 -6.12989 -3.22826 0
M  V30 6229 N 585.46 -4.88988 -2.77213 0
M  V30 6230 H 577.611 -2.12335 -0.05253 0
M  V30 6231 H 579.874 -0.9441 -0.085898 0
M  V30 6232 H 579.58 -3.39903 -0.903249 0
M  V30 6233 H 579.454 -2.78618 -2.54267 0
M  V30 6234 H 581.841 -1.81876 -2.3239 0
M  V30 6235 H 581.922 -2.46619 -0.679178 0
M  V30 6236 H 581.566 -4.81678 -1.61086 0
M  V30 6237 H 581.496 -4.13826 -3.25661 0
M  V30 6238 H 583.987 -3.20231 -2.0065 0
M  V30 6239 H 584.3 -6.85921 -3.55995 0
M  V30 6240 H 582.645 -6.16547 -3.20773 0
M  V30 6241 H 585.836 -4.01075 -2.41363 0
M  V30 6242 H 586.009 -5.67822 -3.12221 0
M  V30 6243 N 579.415 0.9433 -1.26252 0
M  V30 6244 C 580.325 2.07532 -1.09397 0
M  V30 6245 C 581.341 1.73977 -0.0280449 0
M  V30 6246 O 582.517 2.00067 -0.231337 0
M  V30 6247 C 579.582 3.39002 -0.726523 0
M  V30 6248 C 578.643 3.86353 -1.87163 0
M  V30 6249 C 577.876 5.11549 -1.52162 0
M  V30 6250 O 578.099 5.68834 -0.422385 0
M  V30 6251 O 577.033 5.53889 -2.35565 0
M  V30 6252 H 580.859 2.24658 -2.04359 0
M  V30 6253 H 578.444 1.05988 -1.05295 0
M  V30 6254 H 580.326 4.18 -0.534236 0
M  V30 6255 H 579.001 3.2312 0.193721 0
M  V30 6256 H 577.908 3.0831 -2.11886 0
M  V30 6257 H 579.241 4.06752 -2.77152 0
M  V30 6258 N 580.893 1.08022 1.14757 0
M  V30 6259 C 582.141 0.805913 1.85336 0
M  V30 6260 C 582.462 -0.670162 1.83122 0
M  V30 6261 O 581.732 -1.48567 1.2769 0
M  V30 6262 H 580.312 0.295138 0.686223 0
M  V30 6263 H 582.974 1.36538 1.3908 0
M  V30 6264 H 582.07 1.14655 2.90277 0
M  V30 6265 N 582.371 -1.3172 0.865308 0
M  V30 6266 C 583.62 -1.96145 0.470098 0
M  V30 6267 C 583.933 -1.69182 -0.981674 0
M  V30 6268 O 585.139 -2.27431 -1.48281 0
M  V30 6269 C 583.595 -3.51129 0.789732 0
M  V30 6270 C 583.203 -3.86938 2.25795 0
M  V30 6271 C 584.947 -4.2197 0.462765 0
M  V30 6272 C 582.854 -5.35012 2.52024 0
M  V30 6273 H 581.784 -0.734105 0.172065 0
M  V30 6274 H 584.435 -1.49959 1.05757 0
M  V30 6275 H 582.817 -3.95781 0.131571 0
M  V30 6276 H 583.991 -3.5326 2.95879 0
M  V30 6277 H 582.306 -3.29149 2.55049 0
M  V30 6278 H 584.903 -5.30904 0.636019 0
M  V30 6279 H 585.246 -4.12005 -0.59645 0
M  V30 6280 H 585.779 -3.82936 1.07727 0
M  V30 6281 H 582.518 -5.50008 3.56611 0
M  V30 6282 H 582.038 -5.70058 1.8653 0
M  V30 6283 H 583.717 -6.0222 2.36515 0
M  V30 6284 N 583.85 -0.624285 -1.44708 0
M  V30 6285 C 585.266 -0.289322 -1.56956 0
M  V30 6286 C 585.466 1.20773 -1.61295 0
M  V30 6287 O 584.522 1.9915 -1.55227 0
M  V30 6288 C 585.835 -0.975215 -2.84447 0
M  V30 6289 C 587.383 -0.952709 -2.98148 0
M  V30 6290 C 587.858 -1.61893 -4.28433 0
M  V30 6291 N 589.349 -1.5852 -4.35231 0
M  V30 6292 C 590.084 -2.06969 -5.34744 0
M  V30 6293 N 589.58 -2.63579 -6.40701 0
M  V30 6294 N 591.373 -1.97638 -5.26209 0
M  V30 6295 H 583.524 -1.59612 -1.40135 0
M  V30 6296 H 585.787 -0.669592 -0.671081 0
M  V30 6297 H 585.493 -2.02999 -2.87201 0
M  V30 6298 H 585.367 -0.508749 -3.73753 0
M  V30 6299 H 587.754 0.093568 -2.94952 0
M  V30 6300 H 587.835 -1.4576 -2.10209 0
M  V30 6301 H 587.479 -2.66463 -4.32389 0
M  V30 6302 H 587.409 -1.08893 -5.15218 0
M  V30 6303 H 589.899 -1.17183 -3.59272 0
M  V30 6304 H 590.213 -2.98298 -7.12908 0
M  V30 6305 H 588.558 -2.67626 -6.41406 0
M  V30 6306 H 591.749 -1.5314 -4.42341 0
M  V30 6307 H 591.922 -2.35708 -6.03611 0
M  V30 6308 N 585.328 1.53329 -0.364422 0
M  V30 6309 C 586.26 2.23286 0.517293 0
M  V30 6310 C 587.273 1.24657 1.04711 0
M  V30 6311 O 588.462 1.50887 0.95369 0
M  V30 6312 C 585.562 2.91604 1.72685 0
M  V30 6313 C 584.735 4.1673 1.32873 0
M  V30 6314 C 583.794 4.68269 2.40022 0
M  V30 6315 O 582.82 5.31976 2.02461 0
M  V30 6316 N 584.022 4.45983 3.7159 0
M  V30 6317 H 586.787 2.99588 -0.0819391 0
M  V30 6318 H 584.348 1.60787 -0.189544 0
M  V30 6319 H 586.34 3.22992 2.4384 0
M  V30 6320 H 584.91 2.18763 2.23297 0
M  V30 6321 H 584.13 3.91657 0.447069 0
M  V30 6322 H 585.418 4.98078 1.03902 0
M  V30 6323 H 584.816 3.95077 4.04883 0
M  V30 6324 H 583.373 4.81924 4.38854 0
M  V30 6325 N 586.806 0.0935595 1.57322 0
M  V30 6326 C 587.738 -0.895923 2.10964 0
M  V30 6327 C 588.751 -1.24705 1.04654 0
M  V30 6328 O 589.94 -1.20044 1.32105 0
M  V30 6329 C 587.04 -2.20546 2.57318 0
M  V30 6330 C 586.213 -2.0299 3.87445 0
M  V30 6331 C 585.272 -3.17443 4.19662 0
M  V30 6332 O 584.298 -2.91474 4.88909 0
M  V30 6333 N 585.5 -4.43168 3.74943 0
M  V30 6334 H 588.265 -0.437788 2.96485 0
M  V30 6335 H 585.826 -0.0915863 1.61641 0
M  V30 6336 H 587.818 -2.9606 2.75917 0
M  V30 6337 H 586.388 -2.57789 1.76816 0
M  V30 6338 H 585.608 -1.11815 3.78009 0
M  V30 6339 H 586.896 -1.88535 4.7258 0
M  V30 6340 H 586.294 -4.67149 3.19043 0
M  V30 6341 H 584.851 -5.15637 3.987 0
M  V30 6342 N 588.284 -1.56567 -0.180126 0
M  V30 6343 C 589.533 -1.80685 -0.896426 0
M  V30 6344 C 589.846 -0.669335 -1.83791 0
M  V30 6345 O 591.052 -0.795209 -2.59593 0
M  V30 6346 C 589.508 -3.20132 -1.6445 0
M  V30 6347 C 589.116 -4.41727 -0.747088 0
M  V30 6348 C 590.86 -3.53549 -2.34955 0
M  V30 6349 C 588.767 -5.72195 -1.49489 0
M  V30 6350 H 587.697 -0.673758 -0.338477 0
M  V30 6351 H 590.348 -1.8289 -0.149467 0
M  V30 6352 H 588.73 -3.12218 -2.43589 0
M  V30 6353 H 589.904 -4.608 0.00671129 0
M  V30 6354 H 588.219 -4.16122 -0.152134 0
M  V30 6355 H 590.816 -4.48267 -2.91481 0
M  V30 6356 H 591.159 -2.78006 -3.09868 0
M  V30 6357 H 591.692 -3.62976 -1.62768 0
M  V30 6358 H 588.431 -6.50743 -0.788251 0
M  V30 6359 H 587.951 -5.57115 -2.22224 0
M  V30 6360 H 589.63 -6.1384 -2.04472 0
M  V30 6361 N 589.762 0.448376 -1.51087 0
M  V30 6362 C 591.178 0.783984 -1.39017 0
M  V30 6363 C 591.378 1.96087 -0.463904 0
M  V30 6364 O 590.434 2.52357 0.0850534 0
M  V30 6365 C 591.747 1.07471 -2.80839 0
M  V30 6366 C 593.295 1.17981 -2.89913 0
M  V30 6367 C 593.77 1.50354 -4.32617 0
M  V30 6368 N 595.261 1.57301 -4.35673 0
M  V30 6369 C 595.996 1.839 -5.4311 0
M  V30 6370 N 595.492 2.08365 -6.60724 0
M  V30 6371 N 597.285 1.8559 -5.30578 0
M  V30 6372 H 589.436 -0.326881 -2.0987 0
M  V30 6373 H 591.699 -0.0838006 -0.944289 0
M  V30 6374 H 591.405 0.282768 -3.50561 0
M  V30 6375 H 591.279 2.00519 -3.19487 0
M  V30 6376 H 593.666 1.9624 -2.20395 0
M  V30 6377 H 593.747 0.228603 -2.54776 0
M  V30 6378 H 593.391 0.726273 -5.0268 0
M  V30 6379 H 593.321 2.46663 -4.65258 0
M  V30 6380 H 595.812 1.40342 -3.50874 0
M  V30 6381 H 596.125 2.27999 -7.38401 0
M  V30 6382 H 594.47 2.0571 -6.63859 0
M  V30 6383 H 597.661 1.65989 -4.37682 0
M  V30 6384 H 597.834 2.05983 -6.1439 0
M  V30 6385 N 591.24 1.41047 0.703093 0
M  V30 6386 C 592.487 1.4 1.46309 0
M  V30 6387 C 592.815 0.00654574 1.94499 0
M  V30 6388 O 592.07 -0.980255 1.6938 0
M  V30 6389 C 592.369 2.34686 2.6955 0
M  V30 6390 C 592.035 3.81684 2.40058 0
M  V30 6391 C 590.697 4.21731 2.31725 0
M  V30 6392 C 593.049 4.74525 2.15581 0
M  V30 6393 C 590.377 5.52637 1.97001 0
M  V30 6394 C 592.729 6.05744 1.82366 0
M  V30 6395 C 591.393 6.44819 1.72524 0
M  V30 6396 H 590.663 0.512295 0.535382 0
M  V30 6397 H 593.31 1.73792 0.804275 0
M  V30 6398 H 591.615 1.94122 3.40329 0
M  V30 6399 H 593.312 2.31152 3.27673 0
M  V30 6400 H 589.902 3.49963 2.47435 0
M  V30 6401 H 594.086 4.44395 2.20968 0
M  V30 6402 H 589.342 5.81802 1.87928 0
M  V30 6403 H 593.516 6.77189 1.62444 0
M  V30 6404 H 591.143 7.46168 1.45385 0
M  V30 6405 N 592.718 -0.936591 1.26751 0
M  V30 6406 C 593.65 -2.03991 1.045 0
M  V30 6407 C 594.663 -1.628 0.00394261 0
M  V30 6408 O 595.852 -1.76817 0.244526 0
M  V30 6409 C 592.952 -3.34218 0.561403 0
M  V30 6410 C 592.125 -4.04151 1.67274 0
M  V30 6411 C 591.184 -5.12651 1.1864 0
M  V30 6412 O 590.21 -5.37104 1.88437 0
M  V30 6413 N 591.412 -5.80488 0.037278 0
M  V30 6414 H 594.177 -2.23644 1.99508 0
M  V30 6415 H 591.738 -1.10638 1.18198 0
M  V30 6416 H 593.73 -4.04101 0.220136 0
M  V30 6417 H 592.3 -3.11203 -0.295211 0
M  V30 6418 H 591.52 -3.28121 2.18472 0
M  V30 6419 H 592.808 -4.47626 2.41885 0
M  V30 6420 H 592.206 -5.63064 -0.545494 0
M  V30 6421 H 590.763 -6.5134 -0.244877 0
M  V30 6422 N 594.196 -1.08629 -1.14182 0
M  V30 6423 C 595.607 -0.838003 -1.66836 0
M  V30 6424 C 595.958 0.634885 -1.85644 0
M  V30 6425 O 595.083 1.49008 -1.56926 0
M  V30 6426 C 595.678 -1.51465 -3.03058 0
M  V30 6427 C 594.237 -1.31355 -3.52736 0
M  V30 6428 C 593.384 -1.57599 -2.28162 0
M  V30 6429 H 596.335 -1.24656 -0.982165 0
M  V30 6430 H 596.356 -0.943134 -3.68626 0
M  V30 6431 H 595.868 -2.58661 -2.89337 0
M  V30 6432 H 593.969 -0.262384 -3.71675 0
M  V30 6433 H 594.082 -2.04275 -4.33369 0
M  V30 6434 H 592.446 -0.997659 -2.34348 0
M  V30 6435 H 593.229 -2.66006 -2.17015 0
M  V30 6436 N 595.674 1.31259 -0.872281 0
M  V30 6437 C 596.899 2.0133 -0.498099 0
M  V30 6438 C 597.324 1.65031 0.902568 0
M  V30 6439 O 596.682 0.860164 1.59596 0
M  V30 6440 C 596.73 3.54411 -0.665205 0
M  V30 6441 O 595.834 4.11347 0.294473 0
M  V30 6442 H 595.175 0.633844 -0.197832 0
M  V30 6443 H 597.705 1.67402 -1.17633 0
M  V30 6444 H 597.715 4.04147 -0.559373 0
M  V30 6445 H 596.39 3.80171 -1.68651 0
M  V30 6446 H 594.967 3.72624 0.143403 0
M  V30 6447 N 597.152 0.631951 1.44375 0
M  V30 6448 C 598.082 -0.0593243 2.33425 0
M  V30 6449 C 599.063 -0.833964 1.48253 0
M  V30 6450 O 600.248 -0.799682 1.76971 0
M  V30 6451 C 597.378 -1.04096 3.31333 0
M  V30 6452 C 596.332 -0.377899 4.26328 0
M  V30 6453 C 595.658 -1.4695 5.14111 0
M  V30 6454 C 596.958 0.716371 5.17364 0
M  V30 6455 H 598.652 0.684287 2.91475 0
M  V30 6456 H 596.198 0.330518 1.40156 0
M  V30 6457 H 598.151 -1.53331 3.92514 0
M  V30 6458 H 596.875 -1.81547 2.71493 0
M  V30 6459 H 595.534 0.0938054 3.6648 0
M  V30 6460 H 595.182 -2.2349 4.50623 0
M  V30 6461 H 594.882 -1.03121 5.78481 0
M  V30 6462 H 596.406 -1.96363 5.78164 0
M  V30 6463 H 597.82 0.307089 5.72477 0
M  V30 6464 H 596.217 1.07784 5.90341 0
M  V30 6465 H 597.287 1.58316 4.58327 0
M  V30 6466 N 598.631 -1.53133 0.372548 0
M  V30 6467 C 599.563 -2.23557 -0.505444 0
M  V30 6468 C 600.576 -1.25211 -1.04049 0
M  V30 6469 O 601.765 -1.51391 -0.945675 0
M  V30 6470 C 598.865 -2.92516 -1.71136 0
M  V30 6471 C 598.038 -4.17428 -1.30661 0
M  V30 6472 C 597.097 -4.69535 -2.37536 0
M  V30 6473 O 596.123 -5.33042 -1.99637 0
M  V30 6474 N 597.325 -4.47947 -3.6922 0
M  V30 6475 H 600.09 -2.9954 0.0978259 0
M  V30 6476 H 597.651 -1.60684 0.198068 0
M  V30 6477 H 599.643 -3.24281 -2.42124 0
M  V30 6478 H 598.213 -2.19944 -2.22134 0
M  V30 6479 H 597.433 -3.91888 -0.426292 0
M  V30 6480 H 598.721 -4.98622 -1.01259 0
M  V30 6481 H 598.119 -3.97219 -4.02783 0
M  V30 6482 H 596.676 -4.84245 -4.36292 0
M  V30 6483 N 600.109 -0.101901 -1.5727 0
M  V30 6484 C 601.52 0.426173 -1.81771 0
M  V30 6485 C 601.871 1.67725 -1.01797 0
M  V30 6486 O 600.996 2.14958 -0.249386 0
M  V30 6487 C 601.591 0.779962 -3.297 0
M  V30 6488 C 600.15 1.25275 -3.54941 0
M  V30 6489 C 599.297 0.252814 -2.76145 0
M  V30 6490 H 602.248 -0.32726 -1.55289 0
M  V30 6491 H 602.269 1.63891 -3.43395 0
M  V30 6492 H 601.781 -0.130778 -3.8788 0
M  V30 6493 H 599.882 2.18097 -3.021 0
M  V30 6494 H 599.995 1.20988 -4.63572 0
M  V30 6495 H 598.359 0.736362 -2.43823 0
M  V30 6496 H 599.142 -0.650724 -3.37076 0
M  V30 6497 N 601.587 1.56661 0.17182 0
M  V30 6498 C 602.833 1.82235 0.889845 0
M  V30 6499 C 603.166 0.679673 1.81918 0
M  V30 6500 O 602.441 -0.318404 1.91876 0
M  V30 6501 C 602.724 3.18195 1.68595 0
M  V30 6502 C 602.577 4.42989 0.779773 0
M  V30 6503 C 603.896 3.5109 2.65375 0
M  V30 6504 H 601.015 0.66291 0.322056 0
M  V30 6505 H 603.657 1.89358 0.15608 0
M  V30 6506 H 601.807 3.12253 2.3115 0
M  V30 6507 H 603.479 4.60997 0.16714 0
M  V30 6508 H 601.722 4.33711 0.0877964 0
M  V30 6509 H 602.393 5.3467 1.3723 0
M  V30 6510 H 604.869 3.57482 2.12946 0
M  V30 6511 H 603.745 4.47298 3.18144 0
M  V30 6512 H 604.006 2.75768 3.45549 0
M  V30 6513 N 603.065 -0.440357 1.51323 0
M  V30 6514 C 604.028 -1.51679 1.71832 0
M  V30 6515 C 605.028 -1.49648 0.588386 0
M  V30 6516 O 606.218 -1.51724 0.855891 0
M  V30 6517 C 603.35 -2.91228 1.77199 0
M  V30 6518 H 604.543 -1.34799 2.67898 0
M  V30 6519 H 602.096 -0.66883 1.41267 0
M  V30 6520 H 602.831 -3.13516 0.829363 0
M  V30 6521 H 602.616 -2.94107 2.59314 0
M  V30 6522 H 604.106 -3.69321 1.94915 0
M  V30 6523 N 604.543 -1.41418 -0.695603 0
M  V30 6524 C 605.768 -1.44329 -1.48942 0
M  V30 6525 C 606.193 -0.0501579 -1.88033 0
M  V30 6526 O 605.551 0.946598 -1.54626 0
M  V30 6527 C 605.599 -2.3578 -2.72837 0
M  V30 6528 O 604.703 -1.81482 -3.70322 0
M  V30 6529 H 604.044 -0.489838 -0.44828 0
M  V30 6530 H 606.574 -1.85878 -0.855014 0
M  V30 6531 H 606.584 -2.51654 -3.21145 0
M  V30 6532 H 605.259 -3.37005 -2.43722 0
M  V30 6533 H 603.836 -1.75058 -3.29255 0
M  V30 6534 N 606.021 0.929856 -1.27246 0
M  V30 6535 C 606.931 2.0636 -1.11592 0
M  V30 6536 C 607.947 1.73938 -0.046496 0
M  V30 6537 O 609.123 1.9981 -0.252544 0
M  V30 6538 C 606.188 3.38213 -0.762437 0
M  V30 6539 C 605.249 3.84346 -1.9125 0
M  V30 6540 C 604.482 5.09906 -1.57579 0
M  V30 6541 O 604.705 5.68354 -0.482694 0
M  V30 6542 O 603.639 5.51359 -2.41426 0
M  V30 6543 H 607.465 2.22478 -2.0673 0
M  V30 6544 H 605.05 1.04865 -1.06413 0
M  V30 6545 H 606.932 4.1741 -0.57854 0
M  V30 6546 H 605.607 3.23307 0.159439 0
M  V30 6547 H 604.514 3.06045 -2.15144 0
M  V30 6548 H 605.847 4.0379 -2.81451 0
M  V30 6549 N 607.499 1.09233 1.13605 0
M  V30 6550 C 608.91 0.846839 1.6639 0
M  V30 6551 C 609.261 -0.625031 1.85978 0
M  V30 6552 O 608.386 -1.48173 1.57714 0
M  V30 6553 C 608.981 1.5307 3.0225 0
M  V30 6554 C 607.54 1.33223 3.52035 0
M  V30 6555 C 606.687 1.58806 2.27323 0
M  V30 6556 H 609.638 1.25175 0.975541 0
M  V30 6557 H 609.659 0.96267 3.68121 0
M  V30 6558 H 609.171 2.60192 2.87961 0
M  V30 6559 H 607.272 0.282091 3.71531 0
M  V30 6560 H 607.385 2.0657 4.32279 0
M  V30 6561 H 605.749 1.01007 2.33815 0
M  V30 6562 H 606.532 2.67153 2.15602 0
M  V30 6563 N 608.977 -1.30795 0.87923 0
M  V30 6564 C 610.225 -1.95974 0.493809 0
M  V30 6565 C 610.546 -1.69787 -0.959021 0
M  V30 6566 O 609.816 -1.01832 -1.67353 0
M  V30 6567 H 608.396 -0.725083 0.179622 0
M  V30 6568 H 611.058 -1.59432 1.12105 0
M  V30 6569 H 610.154 -3.05058 0.659263 0
M  V30 6570 N 610.455 -0.639598 -1.44038 0
M  V30 6571 C 611.695 -0.150902 -2.03842 0
M  V30 6572 C 612.059 1.20744 -1.49281 0
M  V30 6573 O 613.26 1.78875 -2.00642 0
M  V30 6574 C 611.531 -0.146114 -3.57101 0
M  V30 6575 S 613.09 0.276725 -4.37927 0
M  V30 6576 H 609.908 -0.0652447 -0.708 0
M  V30 6577 H 612.51 -0.844886 -1.76301 0
M  V30 6578 H 611.214 -1.13769 -3.94316 0
M  V30 6579 H 610.745 0.568846 -3.89266 0
M  V30 6580 H 612.76 1.51893 -4.7238 0
M  V30 6581 N 611.933 1.52934 -0.380664 0
M  V30 6582 C 613.344 1.86457 0.0952684 0
M  V30 6583 C 613.695 1.3007 1.46889 0
M  V30 6584 O 612.82 0.628636 2.07068 0
M  V30 6585 C 613.415 3.38323 0.179648 0
M  V30 6586 C 611.974 3.71589 0.599858 0
M  V30 6587 C 611.121 2.76228 -0.243572 0
M  V30 6588 H 614.072 1.46966 -0.59888 0
M  V30 6589 H 614.093 3.67113 1.00042 0
M  V30 6590 H 613.605 3.79333 -0.820228 0
M  V30 6591 H 611.706 3.36144 1.60742 0
M  V30 6592 H 611.819 4.77715 0.364003 0
M  V30 6593 H 610.183 2.53045 0.289855 0
M  V30 6594 H 610.966 3.20074 -1.24127 0
M  V30 6595 N 613.412 0.11024 1.57214 0
M  V30 6596 C 614.689 -0.592956 1.86396 0
M  V30 6597 C 615.069 -1.85379 1.00985 0
M  V30 6598 O 614.417 -2.28337 0.0863592 0
M  V30 6599 C 614.627 -0.893816 3.3736 0
M  V30 6600 C 615.975 -1.25069 4.05762 0
M  V30 6601 O 616.999 -0.984356 3.42329 0
M  V30 6602 O 615.858 -1.75017 5.17718 0
M  V30 6603 H 612.952 -0.29828 0.771335 0
M  V30 6604 H 615.498 0.144083 1.69087 0
M  V30 6605 H 614.27 2.6031e-05 3.913 0
M  V30 6606 H 613.893 -1.68631 3.60068 0
M  V30 6607 N 614.89 -1.56749 -0.16351 0
M  V30 6608 C 616.136 -1.82704 -0.880168 0
M  V30 6609 C 616.469 -0.689311 -1.81555 0
M  V30 6610 O 615.744 0.308224 -1.92042 0
M  V30 6611 C 616.027 -3.19084 -1.66905 0
M  V30 6612 C 615.88 -4.43397 -0.756269 0
M  V30 6613 C 617.199 -3.52493 -2.63509 0
M  V30 6614 H 614.318 -0.664608 -0.318535 0
M  V30 6615 H 616.96 -1.89438 -0.146036 0
M  V30 6616 H 615.11 -3.13475 -2.2949 0
M  V30 6617 H 616.782 -4.61079 -0.14269 0
M  V30 6618 H 615.025 -4.33752 -0.0647944 0
M  V30 6619 H 615.696 -5.3539 -1.34393 0
M  V30 6620 H 618.172 -3.58606 -2.11047 0
M  V30 6621 H 617.048 -4.48979 -3.15767 0
M  V30 6622 H 617.309 -2.77597 -3.44082 0
M  V30 6623 N 616.368 0.432326 -1.51554 0
M  V30 6624 C 617.278 1.55023 -1.76082 0
M  V30 6625 C 618.294 1.61593 -0.645265 0
M  V30 6626 O 619.47 1.78742 -0.928086 0
M  V30 6627 C 616.535 2.90964 -1.88523 0
M  V30 6628 C 615.596 2.9447 -3.12388 0
M  V30 6629 C 614.829 4.23926 -3.24225 0
M  V30 6630 O 615.052 5.16576 -2.4188 0
M  V30 6631 O 613.986 4.33818 -4.17235 0
M  V30 6632 H 617.812 1.37238 -2.70923 0
M  V30 6633 H 615.397 0.615845 -1.36117 0
M  V30 6634 H 617.279 3.71633 -1.98662 0
M  V30 6635 H 615.954 3.08865 -0.9687 0
M  V30 6636 H 614.861 2.12737 -3.07723 0
M  V30 6637 H 616.194 2.81514 -4.03746 0
M  V30 6638 N 617.846 1.41785 0.688094 0
M  V30 6639 C 618.779 1.38643 1.81255 0
M  V30 6640 C 619.757 0.252583 1.60626 0
M  V30 6641 O 620.941 0.440691 1.83276 0
M  V30 6642 C 618.068 1.16449 3.18053 0
M  V30 6643 C 617.114 2.32651 3.57457 0
M  V30 6644 S 617.947 3.95152 3.61407 0
M  V30 6645 C 619.103 3.75275 5.00919 0
M  V30 6646 H 619.336 2.33799 1.83644 0
M  V30 6647 H 616.869 1.28398 0.857513 0
M  V30 6648 H 618.827 1.0433 3.97021 0
M  V30 6649 H 617.488 0.229002 3.13264 0
M  V30 6650 H 616.681 2.12835 4.56856 0
M  V30 6651 H 616.283 2.41215 2.85817 0
M  V30 6652 H 618.575 3.35443 5.88629 0
M  V30 6653 H 619.518 4.74302 5.25778 0
M  V30 6654 H 619.926 3.08401 4.7281 0
M  V30 6655 N 619.324 -0.923095 1.27737 0
M  V30 6656 C 620.735 -1.48626 1.12993 0
M  V30 6657 C 621.086 -1.94142 -0.283439 0
M  V30 6658 O 620.211 -1.81605 -1.17681 0
M  V30 6659 C 620.806 -2.70117 2.04505 0
M  V30 6660 C 619.365 -3.22642 1.93853 0
M  V30 6661 C 618.512 -1.95368 1.96791 0
M  V30 6662 H 621.463 -0.736737 1.40563 0
M  V30 6663 H 621.484 -3.4506 1.60356 0
M  V30 6664 H 620.996 -2.36959 3.07363 0
M  V30 6665 H 619.097 -3.60549 0.939968 0
M  V30 6666 H 619.21 -3.88525 2.80331 0
M  V30 6667 H 617.574 -2.12061 1.41076 0
M  V30 6668 H 618.357 -1.64517 3.01312 0
M  V30 6669 N 620.802 -1.09834 -1.13024 0
M  V30 6670 C 622.027 -0.85909 -1.88771 0
M  V30 6671 C 622.452 0.584402 -1.78791 0
M  V30 6672 O 621.81 1.41101 -1.13842 0
M  V30 6673 C 621.858 -1.30427 -3.36186 0
M  V30 6674 O 620.962 -0.465368 -4.09766 0
M  V30 6675 H 620.303 -0.310786 -0.586778 0
M  V30 6676 H 622.833 -1.46355 -1.42973 0
M  V30 6677 H 622.843 -1.2915 -3.8702 0
M  V30 6678 H 621.518 -2.3555 -3.42767 0
M  V30 6679 H 620.095 -0.542814 -3.68928 0
M  V30 6680 N 622.28 1.30327 -0.886154 0
M  V30 6681 C 623.691 1.78243 -0.555554 0
M  V30 6682 C 624.042 1.72849 0.928314 0
M  V30 6683 O 623.167 1.30607 1.72542 0
M  V30 6684 C 623.762 3.23654 -1.00168 0
M  V30 6685 C 622.321 3.69401 -0.722471 0
M  V30 6686 C 621.468 2.50753 -1.18399 0
M  V30 6687 H 624.419 1.1718 -1.07026 0
M  V30 6688 H 624.44 3.79056 -0.331152 0
M  V30 6689 H 623.952 3.27548 -2.08169 0
M  V30 6690 H 622.053 3.70995 0.345496 0
M  V30 6691 H 622.166 4.60818 -1.31085 0
M  V30 6692 H 620.53 2.47452 -0.603303 0
M  V30 6693 H 621.313 2.57383 -2.27176 0
M  V30 6694 N 623.758 0.647228 1.43697 0
M  V30 6695 C 625.004 0.167001 2.02713 0
M  V30 6696 C 625.359 -1.20351 1.50111 0
M  V30 6697 O 624.652 -1.79047 0.682113 0
M  V30 6698 C 624.846 0.111481 3.57226 0
M  V30 6699 C 624.675 1.47507 4.2482 0
M  V30 6700 C 623.445 2.06594 4.61137 0
M  V30 6701 C 625.643 2.41224 4.54219 0
M  V30 6702 N 623.625 3.3602 5.13774 0
M  V30 6703 C 624.996 3.55278 5.08112 0
M  V30 6704 C 627.051 2.40102 4.36183 0
M  V30 6705 C 625.754 4.68426 5.45866 0
M  V30 6706 C 627.78 3.52326 4.74995 0
M  V30 6707 C 627.142 4.65104 5.29015 0
M  V30 6708 H 623.241 0.105402 0.774864 0
M  V30 6709 H 625.825 0.854229 1.7496 0
M  V30 6710 H 623.996 -0.545073 3.84556 0
M  V30 6711 H 625.728 -0.379063 4.02921 0
M  V30 6712 H 622.483 1.59366 4.45981 0
M  V30 6713 H 622.907 4.02233 5.44552 0
M  V30 6714 H 627.549 1.54151 3.93697 0
M  V30 6715 H 625.267 5.55074 5.87298 0
M  V30 6716 H 628.853 3.52652 4.6274 0
M  V30 6717 H 627.733 5.50506 5.58492 0
M  V30 6718 N 625.236 -1.5273 0.388769 0
M  V30 6719 C 626.199 -2.25043 -0.434544 0
M  V30 6720 C 627.199 -1.26661 -0.990644 0
M  V30 6721 O 628.389 -1.50762 -0.872731 0
M  V30 6722 C 625.521 -3.00507 -1.60961 0
M  V30 6723 H 626.714 -2.99242 0.198549 0
M  V30 6724 H 624.267 -1.55664 0.140875 0
M  V30 6725 H 625.002 -2.30607 -2.28015 0
M  V30 6726 H 624.787 -3.72716 -1.21757 0
M  V30 6727 H 626.277 -3.55413 -2.19251 0
M  V30 6728 N 626.714 -0.118576 -1.57153 0
M  V30 6729 C 628.125 0.40687 -1.82213 0
M  V30 6730 C 628.476 1.66636 -1.03571 0
M  V30 6731 O 627.601 2.14682 -0.272171 0
M  V30 6732 C 628.196 0.744949 -3.30509 0
M  V30 6733 C 626.755 1.21503 -3.5625 0
M  V30 6734 C 625.902 0.223511 -2.76398 0
M  V30 6735 H 628.853 -0.343712 -1.54933 0
M  V30 6736 H 628.874 1.6024 -3.45114 0
M  V30 6737 H 628.386 -0.171911 -3.87719 0
M  V30 6738 H 626.487 2.1488 -3.04396 0
M  V30 6739 H 626.6 1.16065 -4.64829 0
M  V30 6740 H 624.964 0.71046 -2.44591 0
M  V30 6741 H 625.747 -0.686439 -3.36367 0
M  V30 6742 N 628.193 1.56834 0.155195 0
M  V30 6743 C 629.418 1.87412 0.888337 0
M  V30 6744 C 629.843 0.70671 1.74319 0
M  V30 6745 O 629.201 -0.343892 1.78009 0
M  V30 6746 C 629.249 3.1652 1.72765 0
M  V30 6747 O 628.353 2.99877 2.83103 0
M  V30 6748 H 627.694 0.615983 0.247914 0
M  V30 6749 H 630.224 2.04061 0.148478 0
M  V30 6750 H 630.234 3.48334 2.12433 0
M  V30 6751 H 628.909 4.01094 1.09985 0
M  V30 6752 H 627.486 2.79453 2.46902 0
M  V30 6753 N 629.671 -0.424282 1.51781 0
M  V30 6754 C 630.919 -1.17028 1.64769 0
M  V30 6755 C 631.24 -1.91409 0.372523 0
M  V30 6756 O 630.51 -1.86091 -0.612108 0
M  V30 6757 H 629.09 -0.434992 0.607282 0
M  V30 6758 H 631.752 -0.485169 1.88765 0
M  V30 6759 H 630.848 -1.8927 2.4816 0
M  V30 6760 N 631.149 -1.42148 -0.680565 0
M  V30 6761 C 632.426 -1.32795 -1.43614 0
M  V30 6762 C 632.806 0.037415 -2.11067 0
M  V30 6763 O 632.154 1.05258 -2.02813 0
M  V30 6764 C 632.364 -2.49206 -2.44331 0
M  V30 6765 C 633.712 -2.91059 -3.09144 0
M  V30 6766 O 634.736 -2.49054 -2.54657 0
M  V30 6767 O 633.595 -3.63741 -4.07866 0
M  V30 6768 H 630.689 -0.523397 -0.640301 0
M  V30 6769 H 633.235 -1.54144 -0.709775 0
M  V30 6770 H 632.007 -3.40252 -1.93247 0
M  V30 6771 H 631.63 -2.29813 -3.24456 0
M  V30 6772 N 632.627 0.916307 -1.28225 0
M  V30 6773 C 633.867 1.67964 -1.16479 0
M  V30 6774 C 634.231 1.8991 0.282494 0
M  V30 6775 O 635.432 2.63671 0.522607 0
M  V30 6776 C 633.703 3.00251 -1.93866 0
M  V30 6777 S 635.262 3.91353 -1.98465 0
M  V30 6778 H 632.08 0.576873 -0.415619 0
M  V30 6779 H 634.682 1.09006 -1.62289 0
M  V30 6780 H 633.386 2.81978 -2.98189 0
M  V30 6781 H 632.917 3.64257 -1.48595 0
M  V30 6782 H 634.932 4.84096 -1.0893 0
M  V30 6783 N 634.105 1.10431 1.1244 0
M  V30 6784 C 635.068 0.756542 2.16354 0
M  V30 6785 C 636.068 -0.21899 1.59302 0
M  V30 6786 O 637.258 0.00415969 1.742 0
M  V30 6787 C 634.39 0.120612 3.40687 0
M  V30 6788 H 635.583 1.67696 2.48632 0
M  V30 6789 H 633.136 0.904832 1.27446 0
M  V30 6790 H 633.871 -0.810536 3.14008 0
M  V30 6791 H 633.656 0.822693 3.83372 0
M  V30 6792 H 635.146 -0.106945 4.17463 0
M  V30 6793 N 635.583 -1.29855 0.893053 0
M  V30 6794 C 636.516 -2.26079 0.3104 0
M  V30 6795 C 637.494 -1.52145 -0.573644 0
M  V30 6796 O 638.678 -1.8113 -0.521937 0
M  V30 6797 C 635.805 -3.34069 -0.558179 0
M  V30 6798 C 634.851 -4.25721 0.257638 0
M  V30 6799 S 635.684 -5.09409 1.65114 0
M  V30 6800 C 636.84 -6.20903 0.789307 0
M  V30 6801 H 637.073 -2.75151 1.12602 0
M  V30 6802 H 634.606 -1.37975 0.692978 0
M  V30 6803 H 636.564 -3.9675 -1.05355 0
M  V30 6804 H 635.225 -2.83705 -1.34797 0
M  V30 6805 H 634.418 -5.02366 -0.405562 0
M  V30 6806 H 634.02 -3.67656 0.685917 0
M  V30 6807 H 636.312 -6.77499 0.00978451 0
M  V30 6808 H 637.255 -6.91426 1.52762 0
M  V30 6809 H 637.663 -5.63435 0.346634 0
M  V30 6810 N 637.061 -0.65484 -1.43351 0
M  V30 6811 C 637.971 0.0363603 -2.34572 0
M  V30 6812 C 638.987 0.810432 -1.53974 0
M  V30 6813 O 640.163 0.757308 -1.86619 0
M  V30 6814 C 637.228 0.989733 -3.32273 0
M  V30 6815 C 636.289 0.212414 -4.28774 0
M  V30 6816 C 635.522 1.12038 -5.21808 0
M  V30 6817 O 635.745 2.35967 -5.19303 0
M  V30 6818 O 634.679 0.59191 -5.98982 0
M  V30 6819 H 638.505 -0.714527 -2.95175 0
M  V30 6820 H 636.09 -0.415029 -1.4352 0
M  V30 6821 H 637.972 1.53759 -3.92347 0
M  V30 6822 H 636.647 1.72082 -2.74171 0
M  V30 6823 H 635.554 -0.379062 -3.72175 0
M  V30 6824 H 636.887 -0.479138 -4.89862 0
M  V30 6825 N 638.539 1.52521 -0.396863 0
M  V30 6826 C 639.764 2.06571 0.185258 0
M  V30 6827 C 640.189 1.26605 1.39115 0
M  V30 6828 O 639.547 0.293055 1.78916 0
M  V30 6829 C 639.595 3.5674 0.526189 0
M  V30 6830 O 638.699 3.7929 1.61903 0
M  V30 6831 H 638.04 0.663712 0.0195474 0
M  V30 6832 H 640.57 1.966 -0.566519 0
M  V30 6833 H 640.58 4.00311 0.788338 0
M  V30 6834 H 639.255 4.14379 -0.355397 0
M  V30 6835 H 637.832 3.47605 1.35 0
M  V30 6836 N 640.017 0.126909 1.57088 0
M  V30 6837 C 641.428 -0.397201 1.82426 0
M  V30 6838 C 641.779 -1.66084 1.04453 0
M  V30 6839 O 640.904 -2.14534 0.283552 0
M  V30 6840 C 641.499 -0.727411 3.30899 0
M  V30 6841 C 640.058 -1.19612 3.56889 0
M  V30 6842 C 639.205 -0.20885 2.76512 0
M  V30 6843 H 642.156 0.351924 1.54749 0
M  V30 6844 H 642.177 -1.58407 3.45959 0
M  V30 6845 H 641.689 0.19247 3.87622 0
M  V30 6846 H 639.79 -2.13263 3.05532 0
M  V30 6847 H 639.903 -1.13598 4.65438 0
M  V30 6848 H 638.267 -0.697479 2.44964 0
M  V30 6849 H 639.05 0.704267 3.35998 0
M  V30 6850 N 641.495 -1.56914 -0.146875 0
M  V30 6851 C 642.906 -1.72799 -0.706928 0
M  V30 6852 C 643.257 -0.741329 -1.81656 0
M  V30 6853 O 642.382 0.0920162 -2.16204 0
M  V30 6854 C 642.977 -3.13317 -1.28911 0
M  V30 6855 C 641.536 -3.30803 -1.79573 0
M  V30 6856 C 640.683 -2.68725 -0.684252 0
M  V30 6857 H 643.634 -1.58504 0.0787931 0
M  V30 6858 H 643.655 -3.13323 -2.15891 0
M  V30 6859 H 643.167 -3.85104 -0.481284 0
M  V30 6860 H 641.268 -2.64012 -2.62923 0
M  V30 6861 H 641.381 -4.38754 -1.92436 0
M  V30 6862 H 639.745 -2.29196 -1.11091 0
M  V30 6863 H 640.528 -3.43117 0.112134 0
M  V30 6864 N 642.974 0.416227 -1.52004 0
M  V30 6865 C 644.385 0.995319 -1.57957 0
M  V30 6866 C 644.736 1.91744 -0.415754 0
M  V30 6867 O 643.861 2.11349 0.464808 0
M  V30 6868 C 644.456 1.81191 -2.86278 0
M  V30 6869 C 643.015 2.34115 -2.94732 0
M  V30 6870 C 642.162 1.139 -2.52828 0
M  V30 6871 H 645.113 0.196716 -1.57476 0
M  V30 6872 H 645.134 2.66859 -2.71231 0
M  V30 6873 H 644.646 1.14051 -3.70963 0
M  V30 6874 H 642.747 3.04647 -2.14525 0
M  V30 6875 H 642.86 2.65466 -3.98829 0
M  V30 6876 H 641.224 1.49081 -2.06511 0
M  V30 6877 H 642.007 0.483383 -3.3988 0
M  V30 6878 N 644.452 1.42507 0.673017 0
M  V30 6879 C 645.415 1.4582 1.76831 0
M  V30 6880 C 646.415 0.345542 1.57043 0
M  V30 6881 O 647.605 0.606447 1.63303 0
M  V30 6882 C 644.737 1.29158 3.15485 0
M  V30 6883 H 645.93 2.43345 1.7528 0
M  V30 6884 H 643.483 1.28981 0.882817 0
M  V30 6885 H 644.218 0.325626 3.22661 0
M  V30 6886 H 644.003 2.09797 3.31252 0
M  V30 6887 H 645.493 1.34363 3.95394 0
M  V30 6888 N 645.93 -0.909495 1.28709 0
M  V30 6889 C 647.341 -1.47419 1.14563 0
M  V30 6890 C 647.692 -1.94432 -0.262832 0
M  V30 6891 O 646.817 -1.82842 -1.15748 0
M  V30 6892 C 647.412 -2.67933 2.07358 0
M  V30 6893 C 645.971 -3.20568 1.97264 0
M  V30 6894 C 645.118 -1.93269 1.98852 0
M  V30 6895 H 648.069 -0.721787 1.41336 0
M  V30 6896 H 648.09 -3.43339 1.64007 0
M  V30 6897 H 647.602 -2.33685 3.09859 0
M  V30 6898 H 645.703 -3.59531 0.978157 0
M  V30 6899 H 645.816 -3.85529 2.84436 0
M  V30 6900 H 644.18 -2.10553 1.43317 0
M  V30 6901 H 644.963 -1.61312 3.0304 0
M  V30 6902 N 647.408 -1.11026 -1.11852 0
M  V30 6903 C 648.819 -0.873203 -1.65021 0
M  V30 6904 C 649.17 0.595364 -1.86949 0
M  V30 6905 O 648.295 1.45645 -1.60051 0
M  V30 6906 C 648.89 -1.57859 -2.99777 0
M  V30 6907 C 647.449 -1.38807 -3.49871 0
M  V30 6908 C 646.596 -1.62403 -2.24768 0
M  V30 6909 H 649.547 -1.26712 -0.955503 0
M  V30 6910 H 649.568 -1.02111 -3.66543 0
M  V30 6911 H 649.08 -2.6474 -2.83786 0
M  V30 6912 H 647.181 -0.341163 -3.71035 0
M  V30 6913 H 647.294 -2.13421 -4.28938 0
M  V30 6914 H 645.658 -1.04714 -2.32179 0
M  V30 6915 H 646.441 -2.70549 -2.11324 0
M  V30 6916 N 648.886 1.2938 -0.899927 0
M  V30 6917 C 650.297 1.77644 -0.574427 0
M  V30 6918 C 650.648 1.73824 0.909928 0
M  V30 6919 O 649.773 1.32429 1.71147 0
M  V30 6920 C 650.368 3.22573 -1.03595 0
M  V30 6921 C 648.927 3.68614 -0.76161 0
M  V30 6922 C 648.074 2.49483 -1.21052 0
M  V30 6923 H 651.025 1.16038 -1.08263 0
M  V30 6924 H 651.046 3.78684 -0.371337 0
M  V30 6925 H 650.558 3.25321 -2.11631 0
M  V30 6926 H 648.659 3.7134 0.306127 0
M  V30 6927 H 648.772 4.59402 -1.35965 0
M  V30 6928 H 647.136 2.46798 -0.629515 0
M  V30 6929 H 647.919 2.54959 -2.29893 0
M  V30 6930 N 650.364 0.662433 1.43002 0
M  V30 6931 C 651.604 0.183312 2.03576 0
M  V30 6932 C 651.968 -1.18354 1.51183 0
M  V30 6933 O 653.169 -1.7566 2.03462 0
M  V30 6934 C 651.44 0.202908 3.56824 0
M  V30 6935 S 652.999 -0.20702 4.38311 0
M  V30 6936 H 649.817 0.0765001 0.706872 0
M  V30 6937 H 652.419 0.872827 1.74934 0
M  V30 6938 H 651.123 1.20028 3.92456 0
M  V30 6939 H 650.654 -0.506845 3.90121 0
M  V30 6940 H 652.669 -1.44358 4.74737 0
M  V30 6941 N 651.842 -1.52309 0.404946 0
M  V30 6942 C 653.253 -1.86585 -0.0655926 0
M  V30 6943 C 653.604 -1.3239 -1.44801 0
M  V30 6944 O 652.729 -0.6615 -2.06042 0
M  V30 6945 C 653.324 -3.38566 -0.125801 0
M  V30 6946 C 651.883 -3.72497 -0.540666 0
M  V30 6947 C 651.03 -2.75806 0.287487 0
M  V30 6948 H 653.981 -1.45995 0.622185 0
M  V30 6949 H 654.002 -3.68658 -0.941888 0
M  V30 6950 H 653.514 -3.77981 0.880473 0
M  V30 6951 H 651.615 -3.38659 -1.55373 0
M  V30 6952 H 651.728 -4.78234 -0.287956 0
M  V30 6953 H 650.092 -2.53474 -0.249561 0
M  V30 6954 H 650.875 -3.18059 1.29203 0
M  V30 6955 N 653.32 -0.135238 -1.57019 0
M  V30 6956 C 654.568 0.51777 -1.95355 0
M  V30 6957 C 654.889 1.6617 -1.02042 0
M  V30 6958 O 654.159 1.95738 -0.0797343 0
M  V30 6959 H 652.739 0.194264 -0.721298 0
M  V30 6960 H 655.401 -0.207983 -1.93787 0
M  V30 6961 H 654.497 0.901675 -2.98791 0
M  V30 6962 N 654.798 1.5699 0.138552 0
M  V30 6963 C 656.209 1.73171 0.697754 0
M  V30 6964 C 656.56 0.750952 1.8126 0
M  V30 6965 O 655.685 -0.080549 2.1625 0
M  V30 6966 C 656.28 3.13996 1.27248 0
M  V30 6967 C 654.839 3.3175 1.77816 0
M  V30 6968 C 653.986 2.69084 0.669991 0
M  V30 6969 H 656.937 1.5846 -0.0871979 0
M  V30 6970 H 656.958 3.14463 2.14227 0
M  V30 6971 H 656.47 3.85354 0.460855 0
M  V30 6972 H 654.571 2.65403 2.61519 0
M  V30 6973 H 654.684 4.39768 1.90107 0
M  V30 6974 H 653.048 2.29782 1.09874 0
M  V30 6975 H 653.831 3.43053 -0.130329 0
M  V30 6976 N 656.276 -0.40816 1.52223 0
M  V30 6977 C 657.239 -1.48 1.7501 0
M  V30 6978 C 658.239 -1.48367 0.619996 0
M  V30 6979 O 659.429 -1.49874 0.887881 0
M  V30 6980 C 656.561 -2.87403 1.83336 0
M  V30 6981 H 657.754 -1.29086 2.70697 0
M  V30 6982 H 655.307 -0.638715 1.42654 0
M  V30 6983 H 656.042 -3.11686 0.895677 0
M  V30 6984 H 655.827 -2.8854 2.65494 0
M  V30 6985 H 657.317 -3.65103 2.02705 0
M  V30 6986 N 657.755 -1.42862 -0.66545 0
M  V30 6987 C 659.166 -1.3901 -1.24632 0
M  V30 6988 C 659.517 -0.0880285 -1.96002 0
M  V30 6989 O 658.642 0.812947 -2.0055 0
M  V30 6990 C 659.237 -2.51806 -2.2667 0
M  V30 6991 C 657.796 -2.51257 -2.80262 0
M  V30 6992 C 656.943 -2.30124 -1.5472 0
M  V30 6993 H 659.894 -1.5194 -0.458237 0
M  V30 6994 H 659.915 -2.22593 -3.08598 0
M  V30 6995 H 659.427 -3.46558 -1.74697 0
M  V30 6996 H 657.528 -1.60349 -3.36332 0
M  V30 6997 H 657.641 -3.48614 -3.28641 0
M  V30 6998 H 656.005 -1.7856 -1.81627 0
M  V30 6999 H 656.788 -3.26945 -1.04699 0
M  V30 7000 N 659.233 0.902656 -1.29189 0
M  V30 7001 C 660.51 1.63296 -1.07674 0
M  V30 7002 C 660.89 2.07649 0.380137 0
M  V30 7003 O 660.238 1.82997 1.36837 0
M  V30 7004 C 660.448 2.81603 -2.06158 0
M  V30 7005 C 661.796 3.52359 -2.36914 0
M  V30 7006 O 662.82 2.91767 -2.04329 0
M  V30 7007 O 661.679 4.61586 -2.92576 0
M  V30 7008 H 658.773 0.716889 -0.41231 0
M  V30 7009 H 661.319 0.950984 -1.4055 0
M  V30 7010 H 660.091 2.46004 -3.04299 0
M  V30 7011 H 659.714 3.57508 -1.73993 0
M  V30 7012 N 660.711 1.11618 1.11262 0
M  V30 7013 C 661.939 0.888739 1.8684 0
M  V30 7014 C 662.354 -0.561558 1.80255 0
M  V30 7015 O 661.711 -1.38782 1.18515 0
M  V30 7016 C 661.762 1.34422 3.35579 0
M  V30 7017 O 661.483 2.73766 3.42029 0
M  V30 7018 C 662.984 1.15246 4.28058 0
M  V30 7019 H 660.204 0.318152 0.590779 0
M  V30 7020 H 662.748 1.48398 1.40707 0
M  V30 7021 H 660.903 0.79239 3.7921 0
M  V30 7022 H 661.317 2.9355 4.34659 0
M  V30 7023 H 662.791 1.52015 5.30656 0
M  V30 7024 H 663.268 0.0922007 4.39103 0
M  V30 7025 H 663.874 1.69136 3.90222 0
M  V30 7026 N 662.189 -1.289 0.906776 0
M  V30 7027 C 663.438 -1.9455 0.532262 0
M  V30 7028 C 663.751 -1.72219 -0.927353 0
M  V30 7029 O 664.957 -2.32033 -1.40971 0
M  V30 7030 C 663.413 -3.48438 0.901041 0
M  V30 7031 C 663.021 -3.79558 2.37991 0
M  V30 7032 C 664.765 -4.20284 0.596777 0
M  V30 7033 C 662.672 -5.26723 2.68918 0
M  V30 7034 H 661.602 -0.728259 0.195333 0
M  V30 7035 H 664.253 -1.46519 1.10474 0
M  V30 7036 H 662.635 -3.95162 0.257419 0
M  V30 7037 H 663.809 -3.43668 3.06967 0
M  V30 7038 H 662.124 -3.20868 2.65391 0
M  V30 7039 H 664.721 -5.28612 0.8046 0
M  V30 7040 H 665.064 -4.13694 -0.465072 0
M  V30 7041 H 665.597 -3.79315 1.19855 0
M  V30 7042 H 662.336 -5.38384 3.73928 0
M  V30 7043 H 661.856 -5.63836 2.04571 0
M  V30 7044 H 663.535 -5.94391 2.55555 0
M  V30 7045 N 663.667 -0.670007 -1.42649 0
M  V30 7046 C 664.944 -0.119451 -1.95235 0
M  V30 7047 C 665.324 1.36461 -1.61064 0
M  V30 7048 O 664.672 2.09843 -0.904329 0
M  V30 7049 C 664.882 -0.383498 -3.46887 0
M  V30 7050 C 666.23 -0.297431 -4.23557 0
M  V30 7051 O 667.254 -0.31698 -3.54787 0
M  V30 7052 O 666.113 -0.235507 -5.45992 0
M  V30 7053 H 663.207 -8.85474e-05 -0.827 0
M  V30 7054 H 665.753 -0.744406 -1.52501 0
M  V30 7055 H 664.525 -1.41174 -3.64946 0
M  V30 7056 H 664.148 0.273702 -3.96657 0
M  V30 7057 N 665.145 1.52092 -0.413018 0
M  V30 7058 C 666.075 2.30021 0.401567 0
M  V30 7059 C 667.056 1.34395 1.04269 0
M  V30 7060 O 668.241 1.63304 1.05097 0
M  V30 7061 C 665.371 3.12447 1.51638 0
M  V30 7062 C 664.325 4.16153 1.00005 0
M  V30 7063 C 663.651 4.86948 2.20875 0
M  V30 7064 C 664.951 5.22275 0.0513757 0
M  V30 7065 H 666.645 2.98365 -0.248704 0
M  V30 7066 H 664.191 1.4349 -0.121052 0
M  V30 7067 H 666.144 3.65733 2.09326 0
M  V30 7068 H 664.868 2.41879 2.19458 0
M  V30 7069 H 663.527 3.63882 0.445549 0
M  V30 7070 H 663.175 4.12905 2.8726 0
M  V30 7071 H 662.875 5.57057 1.86978 0
M  V30 7072 H 664.399 5.43048 2.79162 0
M  V30 7073 H 665.813 5.70778 0.537176 0
M  V30 7074 H 664.21 5.9977 -0.198977 0
M  V30 7075 H 665.28 4.76611 -0.892736 0
M  V30 7076 N 666.623 0.143563 1.56945 0
M  V30 7077 C 667.851 -0.515447 2.00377 0
M  V30 7078 C 668.266 -1.58643 1.02361 0
M  V30 7079 O 667.623 -1.82489 0.0201039 0
M  V30 7080 C 667.674 -1.11923 3.43737 0
M  V30 7081 O 667.395 -0.0910318 4.38005 0
M  V30 7082 C 668.896 -1.85918 4.02429 0
M  V30 7083 H 666.116 -0.134478 0.657386 0
M  V30 7084 H 668.66 0.237135 2.0312 0
M  V30 7085 H 666.815 -1.82245 3.41856 0
M  V30 7086 H 667.229 -0.532916 5.21786 0
M  V30 7087 H 668.703 -2.2346 5.04747 0
M  V30 7088 H 669.18 -2.7438 3.42947 0
M  V30 7089 H 669.786 -1.20303 4.07931 0
M  V30 7090 N 668.101 -1.57061 -0.130224 0
M  V30 7091 C 669.031 -2.02552 -1.16168 0
M  V30 7092 C 670.012 -0.907971 -1.4384 0
M  V30 7093 O 671.197 -1.17693 -1.54473 0
M  V30 7094 C 668.327 -2.42035 -2.49071 0
M  V30 7095 C 667.281 -3.5713 -2.35886 0
M  V30 7096 C 666.607 -3.82478 -3.7365 0
M  V30 7097 C 667.907 -4.89236 -1.8288 0
M  V30 7098 H 669.601 -2.8897 -0.783359 0
M  V30 7099 H 667.147 -1.39021 -0.375376 0
M  V30 7100 H 669.1 -2.72462 -3.21469 0
M  V30 7101 H 667.824 -1.52573 -2.88771 0
M  V30 7102 H 666.483 -3.26895 -1.65938 0
M  V30 7103 H 666.131 -2.9024 -4.10816 0
M  V30 7104 H 665.831 -4.59944 -3.65685 0
M  V30 7105 H 667.355 -4.15347 -4.47571 0
M  V30 7106 H 668.769 -5.18272 -2.45085 0
M  V30 7107 H 667.166 -5.70624 -1.85763 0
M  V30 7108 H 668.236 -4.78494 -0.785571 0
M  V30 7109 N 669.579 0.400081 -1.52437 0
M  V30 7110 C 670.511 1.50729 -1.72666 0
M  V30 7111 C 671.524 1.51058 -0.607075 0
M  V30 7112 O 672.713 1.5516 -0.88248 0
M  V30 7113 C 669.813 2.89604 -1.76019 0
M  V30 7114 C 668.986 3.13365 -3.05157 0
M  V30 7115 C 668.045 4.32163 -3.00203 0
M  V30 7116 O 667.071 4.29004 -3.74092 0
M  V30 7117 N 668.273 5.3776 -2.18619 0
M  V30 7118 H 671.038 1.33767 -2.68191 0
M  V30 7119 H 668.599 0.58948 -1.50787 0
M  V30 7120 H 670.591 3.67159 -1.70225 0
M  V30 7121 H 669.161 2.99979 -0.879284 0
M  V30 7122 H 668.381 2.23774 -3.24529 0
M  V30 7123 H 669.669 3.26089 -3.90568 0
M  V30 7124 H 669.067 5.43177 -1.58035 0
M  V30 7125 H 667.624 6.14023 -2.18674 0
M  V30 7126 N 671.057 1.43213 0.657864 0
M  V30 7127 C 672.468 1.39669 1.23893 0
M  V30 7128 C 672.819 0.0984217 1.95953 0
M  V30 7129 O 671.944 -0.8023 2.00978 0
M  V30 7130 C 672.539 2.53004 2.25332 0
M  V30 7131 C 671.098 2.5274 2.78926 0
M  V30 7132 C 670.245 2.30941 1.53497 0
M  V30 7133 H 673.196 1.52181 0.450172 0
M  V30 7134 H 673.217 2.24226 3.07413 0
M  V30 7135 H 672.729 3.4748 1.72856 0
M  V30 7136 H 670.83 1.6213 3.35477 0
M  V30 7137 H 670.943 3.50352 3.26787 0
M  V30 7138 H 669.307 1.7952 1.80678 0
M  V30 7139 H 670.09 3.27496 1.02963 0
M  V30 7140 N 672.536 -0.895792 1.29666 0
M  V30 7141 C 673.947 -1.46195 1.1612 0
M  V30 7142 C 674.298 -1.94699 -0.242195 0
M  V30 7143 O 673.423 -1.8406 -1.13802 0
M  V30 7144 C 674.018 -2.65718 2.10189 0
M  V30 7145 C 672.577 -3.18458 2.00653 0
M  V30 7146 C 671.724 -1.91149 2.00891 0
M  V30 7147 H 674.675 -0.706756 1.42094 0
M  V30 7148 H 674.696 -3.4158 1.6764 0
M  V30 7149 H 674.208 -2.30386 3.12321 0
M  V30 7150 H 672.309 -3.58474 1.01623 0
M  V30 7151 H 672.422 -3.82491 2.88509 0
M  V30 7152 H 670.786 -2.09021 1.45542 0
M  V30 7153 H 671.569 -1.58089 3.04734 0
M  V30 7154 N 674.014 -1.12206 -1.10668 0
M  V30 7155 C 675.425 -0.890657 -1.64086 0
M  V30 7156 C 675.776 0.575502 -1.8757 0
M  V30 7157 O 674.901 1.4394 -1.61587 0
M  V30 7158 C 675.496 -1.61029 -2.98085 0
M  V30 7159 C 674.055 -1.4251 -3.48379 0
M  V30 7160 C 673.202 -1.64778 -2.23033 0
M  V30 7161 H 676.153 -1.27718 -0.94201 0
M  V30 7162 H 676.174 -1.05993 -3.65439 0
M  V30 7163 H 675.686 -2.67735 -2.80962 0
M  V30 7164 H 673.787 -0.380497 -3.70652 0
M  V30 7165 H 673.9 -2.17959 -4.26651 0
M  V30 7166 H 672.264 -1.07171 -2.31055 0
M  V30 7167 H 673.047 -2.72776 -2.08443 0
M  V30 7168 N 675.492 1.28418 -0.913599 0
M  V30 7169 C 676.903 1.77024 -0.593237 0
M  V30 7170 C 677.254 1.74779 0.891441 0
M  V30 7171 O 676.379 1.34237 1.69733 0
M  V30 7172 C 676.974 3.21456 -1.07011 0
M  V30 7173 C 675.533 3.67786 -0.800664 0
M  V30 7174 C 674.68 2.48185 -1.23691 0
M  V30 7175 H 677.631 1.14883 -1.09487 0
M  V30 7176 H 677.652 3.78269 -0.411481 0
M  V30 7177 H 677.164 3.23058 -2.1507 0
M  V30 7178 H 675.265 3.71644 0.266725 0
M  V30 7179 H 675.378 4.57934 -1.4083 0
M  V30 7180 H 673.742 2.46116 -0.655655 0
M  V30 7181 H 674.525 2.52506 -2.32585 0
M  V30 7182 N 676.97 0.677563 1.42291 0
M  V30 7183 C 678.216 0.201272 2.01799 0
M  V30 7184 C 678.549 -1.19004 1.53465 0
M  V30 7185 O 677.824 -1.79953 0.738039 0
M  V30 7186 C 678.107 0.238968 3.59306 0
M  V30 7187 C 677.96 1.66594 4.17812 0
M  V30 7188 C 679.279 -0.411287 4.38174 0
M  V30 7189 H 676.398 0.0746114 0.733214 0
M  V30 7190 H 679.04 0.862872 1.69276 0
M  V30 7191 H 677.19 -0.324368 3.87144 0
M  V30 7192 H 678.862 2.28173 4.00917 0
M  V30 7193 H 677.105 2.20576 3.73536 0
M  V30 7194 H 677.776 1.64398 5.26951 0
M  V30 7195 H 680.252 0.0682804 4.16044 0
M  V30 7196 H 679.128 -0.354286 5.47755 0
M  V30 7197 H 679.389 -1.4893 4.1626 0
M  V30 7198 N 678.448 -1.51871 0.421078 0
M  V30 7199 C 679.673 -2.0684 -0.152371 0
M  V30 7200 C 680.098 -1.28802 -1.37083 0
M  V30 7201 O 679.456 -0.321482 -1.78427 0
M  V30 7202 C 679.504 -3.57532 -0.469368 0
M  V30 7203 O 678.608 -3.81818 -1.55848 0
M  V30 7204 H 677.949 -0.663939 -0.00898586 0
M  V30 7205 H 680.479 -1.95674 0.597724 0
M  V30 7206 H 680.489 -4.01515 -0.724553 0
M  V30 7207 H 679.164 -4.13761 0.421276 0
M  V30 7208 H 677.741 -3.49709 -1.29453 0
M  V30 7209 N 679.926 -0.151884 -1.56866 0
M  V30 7210 C 680.836 0.798876 -2.20579 0
M  V30 7211 C 681.852 1.268 -1.19154 0
M  V30 7212 O 683.028 1.32418 -1.51748 0
M  V30 7213 C 680.093 2.01861 -2.81874 0
M  V30 7214 C 679.154 1.59825 -3.9844 0
M  V30 7215 C 678.387 2.75984 -4.56802 0
M  V30 7216 O 678.61 3.92331 -4.14044 0
M  V30 7217 O 677.544 2.51175 -5.46987 0
M  V30 7218 H 681.37 0.2865 -3.02346 0
M  V30 7219 H 678.955 0.0753806 -1.4921 0
M  V30 7220 H 680.837 2.73235 -3.20813 0
M  V30 7221 H 679.512 2.52042 -2.03117 0
M  V30 7222 H 678.419 0.854601 -3.64208 0
M  V30 7223 H 679.752 1.14355 -4.78731 0
M  V30 7224 N 681.404 1.57128 0.121893 0
M  V30 7225 C 682.815 1.73902 0.679348 0
M  V30 7226 C 683.166 0.770135 1.80453 0
M  V30 7227 O 682.291 -0.0576083 2.16323 0
M  V30 7228 C 682.886 3.15328 1.2391 0
M  V30 7229 C 681.445 3.33618 1.74288 0
M  V30 7230 C 680.592 2.6978 0.641414 0
M  V30 7231 H 683.543 1.58359 -0.104 0
M  V30 7232 H 683.564 3.16718 2.10879 0
M  V30 7233 H 683.076 3.85821 0.419957 0
M  V30 7234 H 681.177 2.68162 2.58689 0
M  V30 7235 H 681.29 4.4176 1.85432 0
M  V30 7236 H 679.654 2.30935 1.0743 0
M  V30 7237 H 680.437 3.42895 -0.166707 0
M  V30 7238 N 682.882 -0.391992 1.52647 0
M  V30 7239 C 683.845 -1.46135 1.7657 0
M  V30 7240 C 684.845 -1.47701 0.635698 0
M  V30 7241 O 686.035 -1.48924 0.903728 0
M  V30 7242 C 683.167 -2.85443 1.86374 0
M  V30 7243 H 684.36 -1.26208 2.72051 0
M  V30 7244 H 681.913 -0.623549 1.43323 0
M  V30 7245 H 682.648 -3.10718 0.928685 0
M  V30 7246 H 682.433 -2.85708 2.68539 0
M  V30 7247 H 683.923 -3.62933 2.06566 0
M  V30 7248 N 684.36 -1.4356 -0.65026 0
M  V30 7249 C 685.771 -1.40324 -1.2315 0
M  V30 7250 C 686.122 -0.108812 -1.95898 0
M  V30 7251 O 685.247 0.79163 -2.01401 0
M  V30 7252 C 685.842 -2.54195 -2.23987 0
M  V30 7253 C 684.401 -2.54215 -2.77582 0
M  V30 7254 C 683.548 -2.31752 -1.5227 0
M  V30 7255 H 686.499 -1.52418 -0.442095 0
M  V30 7256 H 686.52 -2.25854 -3.0622 0
M  V30 7257 H 686.032 -3.48392 -1.71011 0
M  V30 7258 H 684.133 -1.63907 -3.34612 0
M  V30 7259 H 684.246 -3.52081 -3.24925 0
M  V30 7260 H 682.61 -1.80476 -1.79723 0
M  V30 7261 H 683.393 -3.28037 -1.01225 0
M  V30 7262 N 685.838 0.888903 -1.30139 0
M  V30 7263 C 687.249 1.45578 -1.16893 0
M  V30 7264 C 687.6 1.94825 0.231866 0
M  V30 7265 O 686.725 1.84661 1.12824 0
M  V30 7266 C 687.32 2.646 -2.11595 0
M  V30 7267 C 685.879 3.17389 -2.02339 0
M  V30 7268 C 685.026 1.90081 -2.01902 0
M  V30 7269 H 687.977 0.69921 -1.42467 0
M  V30 7270 H 687.998 3.40687 -1.69449 0
M  V30 7271 H 687.51 2.28726 -3.13538 0
M  V30 7272 H 685.611 3.5793 -1.03523 0
M  V30 7273 H 685.724 3.80955 -2.90534 0
M  V30 7274 H 684.088 2.08246 -1.46648 0
M  V30 7275 H 684.871 1.5647 -3.05568 0
M  V30 7276 N 687.317 1.12792 1.10072 0
M  V30 7277 C 688.264 0.79921 2.16521 0
M  V30 7278 C 689.234 -0.235726 1.64419 0
M  V30 7279 O 690.419 -0.109457 1.90486 0
M  V30 7280 C 687.559 0.264091 3.44088 0
M  V30 7281 C 686.672 1.35729 4.10124 0
M  V30 7282 C 685.807 0.781212 5.25424 0
M  V30 7283 C 684.846 1.85327 5.8337 0
M  V30 7284 N 683.983 1.29564 6.90042 0
M  V30 7285 H 688.823 1.71105 2.43981 0
M  V30 7286 H 686.36 0.854225 1.19756 0
M  V30 7287 H 688.318 -0.0642423 4.17151 0
M  V30 7288 H 686.948 -0.610901 3.16967 0
M  V30 7289 H 686 1.80234 3.34993 0
M  V30 7290 H 687.312 2.16782 4.4923 0
M  V30 7291 H 686.466 0.403769 6.05355 0
M  V30 7292 H 685.205 -0.0604686 4.87663 0
M  V30 7293 H 684.21 2.23986 5.02106 0
M  V30 7294 H 685.435 2.69824 6.23195 0
M  V30 7295 H 683.381 0.475844 6.54272 0
M  V30 7296 H 683.298 2.04271 7.2788 0
M  V30 7297 H 684.566 0.945545 7.73744 0
M  V30 7298 N 688.795 -1.27931 0.920396 0
M  V30 7299 C 689.742 -2.27085 0.412422 0
M  V30 7300 C 690.712 -1.57858 -0.516725 0
M  V30 7301 O 691.897 -1.85717 -0.437475 0
M  V30 7302 C 689.037 -3.43466 -0.335399 0
M  V30 7303 C 688.15 -4.27425 0.627017 0
M  V30 7304 C 687.285 -5.31016 -0.139916 0
M  V30 7305 C 686.324 -6.06641 0.815683 0
M  V30 7306 N 685.461 -7.02052 0.0818439 0
M  V30 7307 H 690.301 -2.69913 1.26298 0
M  V30 7308 H 687.838 -1.32732 0.634076 0
M  V30 7309 H 689.796 -4.09744 -0.785226 0
M  V30 7310 H 688.426 -3.01611 -1.15025 0
M  V30 7311 H 687.478 -3.6113 1.19537 0
M  V30 7312 H 688.79 -4.79969 1.35763 0
M  V30 7313 H 687.944 -6.03208 -0.649998 0
M  V30 7314 H 686.683 -4.79257 -0.903543 0
M  V30 7315 H 685.688 -5.33294 1.33708 0
M  V30 7316 H 686.913 -6.60489 1.57897 0
M  V30 7317 H 684.859 -6.52634 -0.663671 0
M  V30 7318 H 684.776 -7.52249 0.752163 0
M  V30 7319 H 686.044 -7.78432 -0.407825 0
M  V30 7320 N 690.273 -0.685099 -1.4193 0
M  V30 7321 C 691.55 -0.140152 -1.95097 0
M  V30 7322 C 691.93 1.34745 -1.62502 0
M  V30 7323 O 691.278 2.08872 -0.926534 0
M  V30 7324 C 691.488 -0.420268 -3.4646 0
M  V30 7325 C 692.836 -0.342338 -4.23218 0
M  V30 7326 O 693.86 -0.354592 -3.54431 0
M  V30 7327 O 692.719 -0.293404 -5.45712 0
M  V30 7328 H 689.813 -0.00885998 -0.826953 0
M  V30 7329 H 692.359 -0.760539 -1.51703 0
M  V30 7330 H 691.131 -1.45037 -3.63428 0
M  V30 7331 H 690.754 0.231616 -3.96925 0
M  V30 7332 N 691.751 1.51645 -0.429126 0
M  V30 7333 C 692.999 2.01616 0.139802 0
M  V30 7334 C 693.32 1.31568 1.43927 0
M  V30 7335 O 692.59 0.447688 1.90716 0
M  V30 7336 H 691.17 0.744998 0.054654 0
M  V30 7337 H 693.832 1.8638 -0.569952 0
M  V30 7338 H 692.928 3.10439 0.321609 0
M  V30 7339 N 693.229 0.160201 1.56784 0
M  V30 7340 C 694.192 -0.760405 2.16219 0
M  V30 7341 C 695.192 -1.16595 1.10735 0
M  V30 7342 O 696.382 -1.08472 1.36306 0
M  V30 7343 C 693.514 -2.03358 2.73603 0
M  V30 7344 H 694.707 -0.243173 2.98912 0
M  V30 7345 H 692.26 -0.0893139 1.56045 0
M  V30 7346 H 692.995 -2.59416 1.94612 0
M  V30 7347 H 692.78 -1.75186 3.50788 0
M  V30 7348 H 694.27 -2.69081 3.19351 0
M  V30 7349 N 694.707 -1.5719 -0.113559 0
M  V30 7350 C 695.956 -1.84325 -0.818984 0
M  V30 7351 C 696.269 -0.746685 -1.80787 0
M  V30 7352 O 697.475 -0.904596 -2.55987 0
M  V30 7353 C 695.931 -3.26818 -1.50724 0
M  V30 7354 C 695.539 -4.44498 -0.559065 0
M  V30 7355 C 697.283 -3.63196 -2.19748 0
M  V30 7356 C 695.19 -5.7802 -1.25086 0
M  V30 7357 H 694.12 -0.687507 -0.309596 0
M  V30 7358 H 696.771 -1.8336 -0.0717621 0
M  V30 7359 H 695.153 -3.22269 -2.30128 0
M  V30 7360 H 696.327 -4.60356 0.202146 0
M  V30 7361 H 694.642 -4.16393 0.024495 0
M  V30 7362 H 697.239 -4.60226 -2.72206 0
M  V30 7363 H 697.582 -2.90899 -2.97798 0
M  V30 7364 H 698.115 -3.69553 -1.47226 0
M  V30 7365 H 694.854 -6.53501 -0.511539 0
M  V30 7366 H 694.374 -5.66038 -1.98395 0
M  V30 7367 H 696.053 -6.2196 -1.78253 0
M  V30 7368 N 696.185 0.383891 -1.52853 0
M  V30 7369 C 697.41 1.154 -1.7233 0
M  V30 7370 C 697.835 1.82809 -0.44298 0
M  V30 7371 O 697.193 1.71026 0.601645 0
M  V30 7372 C 697.241 2.17386 -2.87708 0
M  V30 7373 O 696.345 3.24082 -2.55038 0
M  V30 7374 H 695.686 0.335709 -0.572883 0
M  V30 7375 H 698.216 0.44662 -1.99666 0
M  V30 7376 H 698.226 2.61296 -3.1335 0
M  V30 7377 H 696.901 1.6771 -3.80587 0
M  V30 7378 H 695.478 2.85273 -2.40153 0
M  V30 7379 N 697.663 1.43903 0.642637 0
M  V30 7380 C 698.94 1.36556 1.40043 0
M  V30 7381 C 699.32 0.0185588 2.11092 0
M  V30 7382 O 698.668 -0.998438 2.05532 0
M  V30 7383 C 698.878 2.55596 2.37638 0
M  V30 7384 C 700.226 2.99153 3.01318 0
M  V30 7385 O 701.25 2.55719 2.47965 0
M  V30 7386 O 700.109 3.74427 3.98078 0
M  V30 7387 H 697.203 0.540189 0.626198 0
M  V30 7388 H 699.749 1.55971 0.668657 0
M  V30 7389 H 698.521 3.45256 1.84158 0
M  V30 7390 H 698.144 2.38334 3.18249 0
M  V30 7391 N 699.141 -0.881989 1.30609 0
M  V30 7392 C 700.089 -2.00942 1.17155 0
M  V30 7393 C 701.083 -1.69198 0.0827154 0
M  V30 7394 O 702.289 -1.78342 0.243775 0
M  V30 7395 H 698.664 -0.658913 0.362406 0
M  V30 7396 H 700.635 -2.09423 2.12567 0
M  V30 7397 C 699.384 -3.36294 0.883273 0
M  V30 7398 H 698.707 -3.61233 1.7132 0
M  V30 7399 H 700.147 -4.15812 0.829255 0
M  V30 7400 C 698.606 -3.34348 -0.413851 0
M  V30 7401 O 699.136 -3.75216 -1.43444 0
M  V30 7402 N 697.342 -2.87459 -0.426082 0
M  V30 7403 H 696.889 -2.54397 0.40493 0
M  V30 7404 H 696.847 -2.8654 -1.29391 0
M  V30 7405 N 700.619 -1.13374 -1.09472 0
M  V30 7406 C 701.847 -0.918351 -1.85402 0
M  V30 7407 C 702.262 0.53281 -1.81126 0
M  V30 7408 O 701.619 1.36879 -1.20708 0
M  V30 7409 C 701.67 -1.39743 -3.33398 0
M  V30 7410 O 701.391 -2.79172 -3.37631 0
M  V30 7411 C 702.892 -1.22042 -4.2617 0
M  V30 7412 H 700.112 -0.327511 -0.585643 0
M  V30 7413 H 702.656 -1.50617 -1.38328 0
M  V30 7414 H 700.811 -0.852619 -3.77901 0
M  V30 7415 H 701.225 -3.00428 -4.29934 0
M  V30 7416 H 702.699 -1.60438 -5.2817 0
M  V30 7417 H 703.176 -0.162047 -4.38901 0
M  V30 7418 H 703.782 -1.75323 -3.87482 0
M  V30 7419 N 702.098 1.27442 -0.927168 0
M  V30 7420 C 703.045 2.26863 -0.424459 0
M  V30 7421 C 704.015 1.5813 0.508346 0
M  V30 7422 O 705.2 1.85946 0.42762 0
M  V30 7423 C 702.34 3.43639 0.31718 0
M  V30 7424 C 701.453 4.27087 -0.649675 0
M  V30 7425 C 700.588 5.31082 0.111753 0
M  V30 7426 C 699.627 6.062 -0.847843 0
M  V30 7427 N 698.764 7.01999 -0.119074 0
M  V30 7428 H 703.604 2.69239 -1.27728 0
M  V30 7429 H 701.141 1.32394 -0.641106 0
M  V30 7430 H 703.099 4.10155 0.763486 0
M  V30 7431 H 701.729 3.02217 1.13424 0
M  V30 7432 H 700.781 3.60491 -1.21451 0
M  V30 7433 H 702.093 4.79242 -1.38307 0
M  V30 7434 H 701.247 6.03544 0.618 0
M  V30 7435 H 699.986 4.7973 0.878114 0
M  V30 7436 H 698.991 5.32577 -1.36534 0
M  V30 7437 H 700.216 6.59642 -1.61398 0
M  V30 7438 H 698.162 6.52977 0.629051 0
M  V30 7439 H 698.079 7.5184 -0.792046 0
M  V30 7440 H 699.347 7.78638 0.366537 0
M  V30 7441 N 703.576 0.692616 1.41565 0
M  V30 7442 C 704.539 0.0344174 2.29174 0
M  V30 7443 C 705.539 -0.710961 1.44229 0
M  V30 7444 O 706.729 -0.546293 1.65412 0
M  V30 7445 C 703.861 -0.961682 3.27054 0
M  V30 7446 H 705.054 0.805755 2.88873 0
M  V30 7447 H 702.607 0.455947 1.49502 0
M  V30 7448 H 703.342 -1.76089 2.72329 0
M  V30 7449 H 703.127 -0.430375 3.89731 0
M  V30 7450 H 704.617 -1.4201 3.92712 0
M  V30 7451 N 705.054 -1.51416 0.437162 0
M  V30 7452 C 706.017 -2.26312 -0.362729 0
M  V30 7453 C 707.017 -1.29748 -0.949847 0
M  V30 7454 O 708.207 -1.53462 -0.824325 0
M  V30 7455 C 705.339 -3.05475 -1.5132 0
M  V30 7456 H 706.532 -2.98459 0.29365 0
M  V30 7457 H 704.085 -1.55137 0.190327 0
M  V30 7458 H 704.82 -2.37744 -2.20563 0
M  V30 7459 H 704.605 -3.76401 -1.09838 0
M  V30 7460 H 706.095 -3.62209 -2.07833 0
M  V30 7461 N 706.532 -0.168513 -1.56696 0
M  V30 7462 C 707.462 0.758563 -2.20835 0
M  V30 7463 C 708.443 1.24121 -1.1631 0
M  V30 7464 O 709.628 1.29487 -1.4473 0
M  V30 7465 C 706.758 1.9892 -2.8469 0
M  V30 7466 C 705.712 1.64252 -3.95228 0
M  V30 7467 C 705.038 2.94757 -4.46119 0
M  V30 7468 C 706.338 0.872675 -5.14958 0
M  V30 7469 H 708.032 0.223953 -2.98561 0
M  V30 7470 H 705.578 0.106277 -1.43607 0
M  V30 7471 H 707.531 2.64275 -3.28233 0
M  V30 7472 H 706.255 2.5479 -2.04327 0
M  V30 7473 H 704.914 1.01266 -3.52336 0
M  V30 7474 H 704.562 3.48662 -3.62552 0
M  V30 7475 H 704.262 2.72316 -5.2069 0
M  V30 7476 H 705.786 3.61147 -4.92347 0
M  V30 7477 H 707.2 1.42875 -5.55211 0
M  V30 7478 H 705.597 0.747402 -5.95428 0
M  V30 7479 H 706.667 -0.131535 -4.84722 0
M  V30 7480 N 708.01 1.57248 0.105221 0
M  V30 7481 C 708.957 2.01338 1.12835 0
M  V30 7482 C 709.927 0.887897 1.40377 0
M  V30 7483 O 711.112 1.15315 1.5201 0
M  V30 7484 C 708.252 2.43432 2.44611 0
M  V30 7485 C 707.365 3.69457 2.23888 0
M  V30 7486 C 706.5 4.00473 3.48991 0
M  V30 7487 C 705.539 5.19638 3.23485 0
M  V30 7488 N 704.676 5.46457 4.40828 0
M  V30 7489 H 709.516 2.88527 0.745386 0
M  V30 7490 H 707.053 1.42714 0.356535 0
M  V30 7491 H 709.011 2.65879 3.21503 0
M  V30 7492 H 707.641 1.59266 2.80774 0
M  V30 7493 H 706.693 3.54545 1.37847 0
M  V30 7494 H 708.005 4.56497 2.01026 0
M  V30 7495 H 707.159 4.23642 4.34295 0
M  V30 7496 H 705.898 3.11935 3.74897 0
M  V30 7497 H 704.903 4.96299 2.36574 0
M  V30 7498 H 706.128 6.09766 2.98935 0
M  V30 7499 H 704.074 4.60876 4.66829 0
M  V30 7500 H 703.991 6.27849 4.2112 0
M  V30 7501 H 705.259 5.74155 5.27225 0
M  V30 7502 N 709.488 -0.375779 1.53054 0
M  V30 7503 C 710.451 -1.44254 1.7811 0
M  V30 7504 C 711.451 -1.47018 0.651328 0
M  V30 7505 O 712.641 -1.47957 0.919472 0
M  V30 7506 C 709.773 -2.8345 1.89391 0
M  V30 7507 H 710.966 -1.23316 2.73374 0
M  V30 7508 H 708.519 -0.608312 1.43977 0
M  V30 7509 H 709.254 -3.09716 0.961589 0
M  V30 7510 H 709.039 -2.82844 2.71555 0
M  V30 7511 H 710.529 -3.60722 2.10404 0
M  V30 7512 N 710.966 -1.44241 -0.634997 0
M  V30 7513 C 711.929 -1.50457 -1.72903 0
M  V30 7514 C 712.929 -0.387058 -1.56072 0
M  V30 7515 O 714.119 -0.649531 -1.61638 0
M  V30 7516 C 711.251 -1.37477 -3.1195 0
M  V30 7517 H 712.444 -2.47907 -1.68767 0
M  V30 7518 H 709.997 -1.31276 -0.84831 0
M  V30 7519 H 710.732 -0.41106 -3.21684 0
M  V30 7520 H 710.517 -2.18506 -3.25573 0
M  V30 7521 H 712.007 -1.44799 -3.91692 0
M  V30 7522 N 712.444 0.87505 -1.31075 0
M  V30 7523 C 713.374 1.99775 -1.20881 0
M  V30 7524 C 714.355 1.69822 -0.0971612 0
M  V30 7525 O 715.54 1.92158 -0.280895 0
M  V30 7526 C 712.67 3.35163 -0.910118 0
M  V30 7527 C 711.624 3.79406 -1.98078 0
M  V30 7528 C 710.95 5.12197 -1.53488 0
M  V30 7529 C 712.25 3.97061 -3.39323 0
M  V30 7530 H 713.944 2.08562 -2.14808 0
M  V30 7531 H 711.49 1.00207 -1.03415 0
M  V30 7532 H 713.443 4.13237 -0.825423 0
M  V30 7533 H 712.167 3.26536 0.064822 0
M  V30 7534 H 710.826 3.03568 -2.05528 0
M  V30 7535 H 710.474 5.00007 -0.547941 0
M  V30 7536 H 710.174 5.4277 -2.2511 0
M  V30 7537 H 711.698 5.92785 -1.46417 0
M  V30 7538 H 713.112 4.65545 -3.34576 0
M  V30 7539 H 711.509 4.39025 -4.09118 0
M  V30 7540 H 712.579 3.00601 -3.80483 0
M  V30 7541 N 713.922 1.13953 1.08869 0
M  V30 7542 C 714.852 0.844824 2.17681 0
M  V30 7543 C 715.833 -0.198213 1.68941 0
M  V30 7544 O 717.018 -0.0559073 1.9412 0
M  V30 7545 C 714.148 0.316325 3.45856 0
M  V30 7546 C 713.102 1.29426 4.07962 0
M  V30 7547 C 712.428 0.625275 5.31031 0
M  V30 7548 C 713.728 2.65484 4.49795 0
M  V30 7549 H 715.422 1.75471 2.42591 0
M  V30 7550 H 712.968 0.845116 1.16592 0
M  V30 7551 H 714.921 0.0977876 4.21287 0
M  V30 7552 H 713.645 -0.628972 3.20486 0
M  V30 7553 H 712.304 1.49889 3.34558 0
M  V30 7554 H 711.952 -0.325678 5.01945 0
M  V30 7555 H 711.652 1.27777 5.73539 0
M  V30 7556 H 713.176 0.416152 6.0918 0
M  V30 7557 H 714.59 2.48957 5.16424 0
M  V30 7558 H 712.987 3.26963 5.03205 0
M  V30 7559 H 714.057 3.22717 3.61914 0
M  V30 7560 N 715.4 -1.26948 0.933913 0
M  V30 7561 C 716.347 -2.26635 0.436484 0
M  V30 7562 C 717.317 -1.58397 -0.499953 0
M  V30 7563 O 718.502 -1.86171 -0.417753 0
M  V30 7564 C 715.642 -3.43803 -0.298951 0
M  V30 7565 C 714.755 -4.26736 0.672316 0
M  V30 7566 C 713.89 -5.31134 -0.0835872 0
M  V30 7567 C 712.929 -6.05742 0.879979 0
M  V30 7568 N 712.066 -7.01926 0.156301 0
M  V30 7569 H 716.906 -2.68558 1.29154 0
M  V30 7570 H 714.443 -1.32052 0.648118 0
M  V30 7571 H 716.401 -4.10554 -0.741723 0
M  V30 7572 H 715.031 -3.02814 -1.1182 0
M  V30 7573 H 714.083 -3.59842 1.23361 0
M  V30 7574 H 715.395 -4.78502 1.40846 0
M  V30 7575 H 714.549 -6.03863 -0.585984 0
M  V30 7576 H 713.288 -4.80188 -0.852661 0
M  V30 7577 H 712.293 -5.31846 1.39357 0
M  V30 7578 H 713.518 -6.58777 1.64894 0
M  V30 7579 H 711.464 -6.53301 -0.594413 0
M  V30 7580 H 711.381 -7.51409 0.831906 0
M  V30 7581 H 712.649 -7.78821 -0.325239 0
M  V30 7582 N 716.879 -0.700114 -1.41195 0
M  V30 7583 C 718.104 -0.240704 -2.05998 0
M  V30 7584 C 718.529 1.10313 -1.52357 0
M  V30 7585 O 717.887 1.69154 -0.652424 0
M  V30 7586 C 717.935 -0.213783 -3.59966 0
M  V30 7587 O 717.039 0.809933 -4.04368 0
M  V30 7588 H 716.38 -0.116471 -0.653705 0
M  V30 7589 H 718.91 -0.956251 -1.80878 0
M  V30 7590 H 718.92 -0.0461852 -4.07974 0
M  V30 7591 H 717.595 -1.19454 -3.98376 0
M  V30 7592 H 716.172 0.611319 -3.67855 0
M  V30 7593 N 718.357 1.51182 -0.445186 0
M  V30 7594 C 719.287 2.30821 0.352686 0
M  V30 7595 C 720.268 1.36576 1.01395 0
M  V30 7596 O 721.453 1.65497 1.01609 0
M  V30 7597 C 718.583 3.15593 1.44976 0
M  V30 7598 C 717.537 4.1818 0.911553 0
M  V30 7599 C 716.863 4.91523 2.10497 0
M  V30 7600 C 718.163 5.22266 -0.059418 0
M  V30 7601 H 719.857 2.97771 -0.311936 0
M  V30 7602 H 717.403 1.43201 -0.151461 0
M  V30 7603 H 719.356 3.70091 2.01521 0
M  V30 7604 H 718.08 2.4648 2.14278 0
M  V30 7605 H 716.739 3.64746 0.368264 0
M  V30 7606 H 716.387 4.18906 2.78437 0
M  V30 7607 H 716.087 5.60898 1.7512 0
M  V30 7608 H 717.611 5.48847 2.6758 0
M  V30 7609 H 719.025 5.71789 0.415985 0
M  V30 7610 H 717.422 5.99213 -0.326152 0
M  V30 7611 H 718.492 4.7461 -0.993631 0
M  V30 7612 N 719.835 0.176821 1.56605 0
M  V30 7613 C 721.251 -0.179278 1.5859 0
M  V30 7614 C 721.451 -1.62433 1.19238 0
M  V30 7615 O 720.507 -2.35665 0.906552 0
M  V30 7616 C 721.82 0.106524 3.00511 0
M  V30 7617 C 723.368 0.0451731 3.12967 0
M  V30 7618 C 723.843 0.304038 4.5699 0
M  V30 7619 N 725.334 0.252008 4.62514 0
M  V30 7620 C 726.069 0.426404 5.71812 0
M  V30 7621 N 725.565 0.660155 6.89648 0
M  V30 7622 N 727.358 0.361926 5.60934 0
M  V30 7623 H 719.509 1.12001 1.8047 0
M  V30 7624 H 721.772 0.445679 0.836704 0
M  V30 7625 H 721.478 1.10778 3.33798 0
M  V30 7626 H 721.352 -0.599337 3.72408 0
M  V30 7627 H 723.739 -0.946662 2.79504 0
M  V30 7628 H 723.82 0.78383 2.43495 0
M  V30 7629 H 723.464 1.29311 4.91163 0
M  V30 7630 H 723.394 -0.455294 5.24628 0
M  V30 7631 H 725.885 0.0772102 3.77821 0
M  V30 7632 H 726.198 0.782529 7.68828 0
M  V30 7633 H 724.543 0.696835 6.91498 0
M  V30 7634 H 727.734 0.17986 4.67754 0
M  V30 7635 H 727.907 0.501263 6.46058 0
M  V30 7636 N 721.313 -1.57302 -0.09688 0
M  V30 7637 C 722.538 -1.9058 -0.818169 0
M  V30 7638 C 722.963 -0.770921 -1.71576 0
M  V30 7639 O 722.321 0.277588 -1.79162 0
M  V30 7640 C 722.369 -3.22714 -1.60898 0
M  V30 7641 O 721.473 -3.10178 -2.71779 0
M  V30 7642 H 720.814 -0.624759 -0.224882 0
M  V30 7643 H 723.344 -2.04471 -0.07264 0
M  V30 7644 H 723.354 -3.55978 -1.99358 0
M  V30 7645 H 722.029 -4.04899 -0.950227 0
M  V30 7646 H 720.606 -2.88424 -2.3636 0
M  V30 7647 N 722.791 0.367657 -1.53252 0
M  V30 7648 C 724.207 0.709191 -1.42978 0
M  V30 7649 C 724.407 1.93352 -0.567193 0
M  V30 7650 O 723.463 2.52453 -0.0488349 0
M  V30 7651 C 724.776 0.924338 -2.86141 0
M  V30 7652 C 726.324 1.02448 -2.95759 0
M  V30 7653 C 726.799 1.27211 -4.39979 0
M  V30 7654 N 728.29 1.33986 -4.43398 0
M  V30 7655 C 729.025 1.54852 -5.52095 0
M  V30 7656 N 728.521 1.73049 -6.7084 0
M  V30 7657 N 730.314 1.57205 -5.39669 0
M  V30 7658 H 722.465 -0.437669 -2.07842 0
M  V30 7659 H 724.728 -0.133737 -0.938519 0
M  V30 7660 H 724.434 0.0965455 -3.51567 0
M  V30 7661 H 724.308 1.83302 -3.29667 0
M  V30 7662 H 726.695 1.84282 -2.30487 0
M  V30 7663 H 726.776 0.0932301 -2.5563 0
M  V30 7664 H 726.42 0.458792 -5.05824 0
M  V30 7665 H 726.35 2.21654 -4.77679 0
M  V30 7666 H 728.841 1.21545 -3.5782 0
M  V30 7667 H 729.154 1.88538 -7.49449 0
M  V30 7668 H 727.499 1.70231 -6.7383 0
M  V30 7669 H 730.69 1.42555 -4.45865 0
M  V30 7670 H 730.863 1.73126 -6.24445 0
M  V30 7671 N 724.269 1.44576 0.627338 0
M  V30 7672 C 725.199 1.54562 1.75022 0
M  V30 7673 C 726.18 0.398378 1.65369 0
M  V30 7674 O 727.365 0.61899 1.84071 0
M  V30 7675 C 724.495 1.49309 3.13567 0
M  V30 7676 C 723.449 2.62549 3.38012 0
M  V30 7677 C 722.775 2.42348 4.76625 0
M  V30 7678 C 724.075 4.04678 3.30202 0
M  V30 7679 H 725.769 2.4855 1.66922 0
M  V30 7680 H 723.315 1.19624 0.801636 0
M  V30 7681 H 725.268 1.54895 3.919 0
M  V30 7682 H 723.992 0.518392 3.2246 0
M  V30 7683 H 722.651 2.56358 2.62061 0
M  V30 7684 H 722.299 1.43062 4.82226 0
M  V30 7685 H 721.999 3.18273 4.93939 0
M  V30 7686 H 723.523 2.49758 5.57183 0
M  V30 7687 H 724.937 4.12217 3.98435 0
M  V30 7688 H 723.334 4.80836 3.5905 0
M  V30 7689 H 724.404 4.2798 2.27949 0
M  V30 7690 N 725.747 -0.868086 1.31537 0
M  V30 7691 C 727.163 -1.15414 1.10235 0
M  V30 7692 C 727.363 -2.01106 -0.125947 0
M  V30 7693 O 726.419 -2.38994 -0.814734 0
M  V30 7694 C 727.732 -1.84445 2.37488 0
M  V30 7695 C 729.28 -1.97139 2.43116 0
M  V30 7696 C 729.755 -2.69585 3.70254 0
M  V30 7697 N 731.246 -2.77119 3.71159 0
M  V30 7698 C 731.981 -3.33791 4.6623 0
M  V30 7699 N 731.477 -3.9138 5.71659 0
M  V30 7700 N 733.27 -3.31767 4.53747 0
M  V30 7701 H 725.421 -0.297109 2.10312 0
M  V30 7702 H 727.684 -0.194227 0.92789 0
M  V30 7703 H 727.39 -1.2893 3.27215 0
M  V30 7704 H 727.264 -2.84709 2.47428 0
M  V30 7705 H 729.651 -2.51818 1.53856 0
M  V30 7706 H 729.732 -0.95912 2.37138 0
M  V30 7707 H 729.376 -2.15572 4.59881 0
M  V30 7708 H 729.306 -3.71223 3.73499 0
M  V30 7709 H 731.797 -2.3625 2.94948 0
M  V30 7710 H 732.11 -4.3274 6.40278 0
M  V30 7711 H 730.455 -3.8975 5.7543 0
M  V30 7712 H 733.646 -2.86016 3.70557 0
M  V30 7713 H 733.819 -3.75636 5.28017 0
M  V30 7714 N 727.225 -1.14528 -1.08264 0
M  V30 7715 C 728.502 -0.825185 -1.77342 0
M  V30 7716 C 728.882 0.681037 -1.99813 0
M  V30 7717 O 728.23 1.62234 -1.60912 0
M  V30 7718 C 728.44 -1.62556 -3.08831 0
M  V30 7719 C 729.788 -1.82585 -3.83338 0
M  V30 7720 O 730.812 -1.59254 -3.18617 0
M  V30 7721 O 729.671 -2.21598 -4.99556 0
M  V30 7722 H 726.765 -0.302531 -0.769678 0
M  V30 7723 H 729.311 -1.25056 -1.14713 0
M  V30 7724 H 728.083 -2.64862 -2.88035 0
M  V30 7725 H 727.706 -1.1959 -3.79189 0
M  V30 7726 N 728.703 1.26451 -0.940633 0
M  V30 7727 C 729.951 1.93395 -0.586748 0
M  V30 7728 C 730.272 1.7417 0.876921 0
M  V30 7729 O 729.542 1.097 1.62304 0
M  V30 7730 H 728.122 0.715687 -0.214012 0
M  V30 7731 H 730.784 1.53902 -1.19584 0
M  V30 7732 H 729.88 3.01565 -0.804059 0
M  V30 7733 N 730.181 0.707592 1.40822 0
M  V30 7734 C 731.592 0.317011 1.83989 0
M  V30 7735 C 731.943 -1.14697 1.59182 0
M  V30 7736 O 731.068 -1.8818 1.06852 0
M  V30 7737 C 731.663 0.568593 3.33995 0
M  V30 7738 C 730.222 0.231804 3.75686 0
M  V30 7739 C 729.369 0.844933 2.64114 0
M  V30 7740 H 732.32 0.907349 1.30203 0
M  V30 7741 H 732.341 -0.168798 3.80125 0
M  V30 7742 H 731.853 1.63417 3.52018 0
M  V30 7743 H 729.954 -0.82903 3.6326 0
M  V30 7744 H 730.067 0.695219 4.74029 0
M  V30 7745 H 728.431 0.273588 2.53226 0
M  V30 7746 H 729.214 1.91462 2.84951 0
M  V30 7747 N 731.66 -1.50943 0.453197 0
M  V30 7748 C 732.885 -2.07116 -0.108463 0
M  V30 7749 C 733.31 -1.31681 -1.3432 0
M  V30 7750 O 732.668 -0.359256 -1.77705 0
M  V30 7751 C 732.716 -3.58447 -0.393424 0
M  V30 7752 O 731.82 -3.85038 -1.47714 0
M  V30 7753 H 731.161 -0.66398 0.0050993 0
M  V30 7754 H 733.691 -1.94362 0.639095 0
M  V30 7755 H 733.701 -4.02961 -0.639222 0
M  V30 7756 H 732.376 -4.12774 0.508946 0
M  V30 7757 H 730.953 -3.52376 -1.22006 0
M  V30 7758 N 733.138 -0.185124 -1.56509 0
M  V30 7759 C 734.101 0.72591 -2.17401 0
M  V30 7760 C 735.101 1.14819 -1.12575 0
M  V30 7761 O 736.291 1.0629 -1.38015 0
M  V30 7762 C 733.423 1.98979 -2.76803 0
M  V30 7763 H 734.616 0.195588 -2.99262 0
M  V30 7764 H 732.169 0.0644772 -1.56167 0
M  V30 7765 H 732.904 2.56287 -1.98714 0
M  V30 7766 H 732.689 1.69583 -3.53531 0
M  V30 7767 H 734.179 2.63966 -3.23592 0
M  V30 7768 N 734.616 1.57351 0.0885366 0
M  V30 7769 C 736.027 1.75303 0.642308 0
M  V30 7770 C 736.378 0.808238 1.78779 0
M  V30 7771 O 735.503 -0.01171 2.16397 0
M  V30 7772 C 736.098 3.17885 1.17194 0
M  V30 7773 C 734.657 3.37239 1.67172 0
M  V30 7774 C 733.804 2.7108 0.584045 0
M  V30 7775 H 736.755 1.58103 -0.137567 0
M  V30 7776 H 736.776 3.2112 2.04114 0
M  V30 7777 H 736.288 3.86625 0.338024 0
M  V30 7778 H 734.389 2.73588 2.52943 0
M  V30 7779 H 734.502 4.45594 1.76019 0
M  V30 7780 H 732.866 2.33161 1.02508 0
M  V30 7781 H 733.649 3.42464 -0.239403 0
M  V30 7782 N 736.094 -0.359525 1.53444 0
M  V30 7783 C 737.024 -1.44662 1.8329 0
M  V30 7784 C 738.005 -1.55617 0.68683 0
M  V30 7785 O 739.19 -1.70086 0.93725 0
M  V30 7786 C 736.32 -2.81923 2.02822 0
M  V30 7787 C 735.274 -2.85787 3.18606 0
M  V30 7788 C 734.6 -4.25781 3.23442 0
M  V30 7789 C 735.9 -2.52762 4.57065 0
M  V30 7790 H 737.594 -1.19934 2.74329 0
M  V30 7791 H 735.14 -0.575517 1.31999 0
M  V30 7792 H 737.093 -3.58005 2.22285 0
M  V30 7793 H 735.817 -3.08051 1.085 0
M  V30 7794 H 734.476 -2.12157 2.98973 0
M  V30 7795 H 734.124 -4.48994 2.26745 0
M  V30 7796 H 733.824 -4.29281 4.01238 0
M  V30 7797 H 735.348 -5.03727 3.45096 0
M  V30 7798 H 736.762 -3.18557 4.76649 0
M  V30 7799 H 735.159 -2.67569 5.37147 0
M  V30 7800 H 736.229 -1.47993 4.61764 0
M  V30 7801 N 737.572 -1.44907 -0.619662 0
M  V30 7802 C 738.482 -1.55168 -1.75955 0
M  V30 7803 C 739.498 -0.43672 -1.6843 0
M  V30 7804 O 740.674 -0.695704 -1.89002 0
M  V30 7805 C 737.739 -1.50397 -3.12381 0
M  V30 7806 C 736.8 -2.72835 -3.31451 0
M  V30 7807 C 736.033 -2.68283 -4.61368 0
M  V30 7808 O 736.256 -1.74929 -5.42914 0
M  V30 7809 O 735.19 -3.59308 -4.82889 0
M  V30 7810 H 739.016 -2.51493 -1.7025 0
M  V30 7811 H 736.601 -1.27282 -0.782289 0
M  V30 7812 H 738.483 -1.50301 -3.93685 0
M  V30 7813 H 737.158 -0.572197 -3.18603 0
M  V30 7814 H 736.065 -2.78496 -2.49781 0
M  V30 7815 H 737.398 -3.65098 -3.30098 0
M  V30 7816 N 739.05 0.861098 -1.31996 0
M  V30 7817 C 740.013 1.95068 -1.20338 0
M  V30 7818 C 741.013 1.60289 -0.128114 0
M  V30 7819 O 742.203 1.70048 -0.378044 0
M  V30 7820 C 739.335 3.30153 -0.849205 0
M  V30 7821 H 740.528 2.06833 -2.17164 0
M  V30 7822 H 738.081 1.05049 -1.15734 0
M  V30 7823 H 738.816 3.24087 0.117508 0
M  V30 7824 H 738.601 3.56771 -1.62655 0
M  V30 7825 H 740.091 4.10025 -0.791782 0
M  V30 7826 N 740.528 1.15101 1.07655 0
M  V30 7827 C 741.939 0.933848 1.61667 0
M  V30 7828 C 742.29 -0.525569 1.8903 0
M  V30 7829 O 741.415 -1.39605 1.65346 0
M  V30 7830 C 742.01 1.68876 2.93711 0
M  V30 7831 C 740.569 1.51697 3.44478 0
M  V30 7832 C 739.716 1.70633 2.18586 0
M  V30 7833 H 742.667 1.30171 0.907816 0
M  V30 7834 H 742.688 1.15645 3.625 0
M  V30 7835 H 742.2 2.7509 2.73764 0
M  V30 7836 H 740.301 0.478635 3.69513 0
M  V30 7837 H 740.414 2.29194 4.20722 0
M  V30 7838 H 738.778 1.13259 2.28132 0
M  V30 7839 H 739.561 2.78206 2.01137 0
M  V30 7840 N 742.006 -1.2595 0.947325 0
M  V30 7841 C 742.916 -2.29883 0.468079 0
M  V30 7842 C 743.932 -1.67783 -0.460975 0
M  V30 7843 O 745.108 -1.98526 -0.339006 0
M  V30 7844 C 742.173 -3.45773 -0.253315 0
M  V30 7845 C 741.234 -4.23337 0.713054 0
M  V30 7846 C 740.467 -5.33694 0.025993 0
M  V30 7847 O 740.69 -5.57853 -1.18978 0
M  V30 7848 O 739.624 -5.97724 0.70782 0
M  V30 7849 H 743.45 -2.72952 1.33156 0
M  V30 7850 H 741.035 -1.31263 0.713468 0
M  V30 7851 H 742.917 -4.16209 -0.659423 0
M  V30 7852 H 741.592 -3.04721 -1.09209 0
M  V30 7853 H 740.499 -3.55359 1.16923 0
M  V30 7854 H 741.832 -4.68154 1.51963 0
M  V30 7855 N 743.484 -0.715051 -1.40445 0
M  V30 7856 C 744.895 -0.326763 -1.83818 0
M  V30 7857 C 745.246 1.13851 -1.59789 0
M  V30 7858 O 744.371 1.87611 -1.07848 0
M  V30 7859 C 744.966 -0.586297 -3.33688 0
M  V30 7860 C 743.525 -0.251724 -3.75557 0
M  V30 7861 C 742.672 -0.858928 -2.63662 0
M  V30 7862 H 745.623 -0.914241 -1.2972 0
M  V30 7863 H 745.644 0.148636 -3.8021 0
M  V30 7864 H 745.156 -1.65281 -3.51146 0
M  V30 7865 H 743.257 0.809754 -3.63695 0
M  V30 7866 H 743.37 -0.720348 -4.73654 0
M  V30 7867 H 741.734 -0.287013 -2.53078 0
M  V30 7868 H 742.517 -1.9297 -2.83932 0
M  V30 7869 N 744.962 1.50701 -0.461195 0
M  V30 7870 C 746.378 1.59187 -0.114786 0
M  V30 7871 C 746.578 1.4702 1.37794 0
M  V30 7872 O 745.634 1.32361 2.15027 0
M  V30 7873 C 746.947 2.93453 -0.656167 0
M  V30 7874 C 748.495 3.06824 -0.618715 0
M  V30 7875 C 748.97 4.4365 -1.13747 0
M  V30 7876 N 750.461 4.50035 -1.09646 0
M  V30 7877 C 751.196 5.54278 -1.46846 0
M  V30 7878 N 750.692 6.65822 -1.91448 0
M  V30 7879 N 752.485 5.44767 -1.38512 0
M  V30 7880 H 744.636 1.56853 -1.43216 0
M  V30 7881 H 746.899 0.740712 -0.59165 0
M  V30 7882 H 746.605 3.07802 -1.7015 0
M  V30 7883 H 746.479 3.77082 -0.0942261 0
M  V30 7884 H 748.866 2.92129 0.417685 0
M  V30 7885 H 748.947 2.24976 -1.21734 0
M  V30 7886 H 748.591 4.59093 -2.17245 0
M  V30 7887 H 748.521 5.24074 -0.515153 0
M  V30 7888 H 751.012 3.69988 -0.769217 0
M  V30 7889 H 751.325 7.41413 -2.18007 0
M  V30 7890 H 749.67 6.66968 -1.95393 0
M  V30 7891 H 752.861 4.56511 -1.03516 0
M  V30 7892 H 753.034 6.25889 -1.6783 0
M  V30 7893 N 746.441 0.193421 1.56409 0
M  V30 7894 C 747.388 -0.728124 2.19014 0
M  V30 7895 C 748.358 -1.21098 1.13686 0
M  V30 7896 O 749.543 -1.27517 1.4193 0
M  V30 7897 C 746.683 -1.94277 2.8522 0
M  V30 7898 C 745.796 -1.50143 4.05069 0
M  V30 7899 C 744.931 -2.67145 4.59137 0
M  V30 7900 C 743.97 -2.19609 5.71348 0
M  V30 7901 N 743.107 -3.29782 6.19829 0
M  V30 7902 H 747.947 -0.187499 2.9741 0
M  V30 7903 H 745.484 -0.0808064 1.46878 0
M  V30 7904 H 747.442 -2.65551 3.21774 0
M  V30 7905 H 746.072 -2.45673 2.09391 0
M  V30 7906 H 745.124 -0.684624 3.74189 0
M  V30 7907 H 746.436 -1.11266 4.86232 0
M  V30 7908 H 745.59 -3.46544 4.97988 0
M  V30 7909 H 744.329 -3.09295 3.77078 0
M  V30 7910 H 743.334 -1.38664 5.32027 0
M  V30 7911 H 744.559 -1.78492 6.55223 0
M  V30 7912 H 742.505 -3.71466 5.40693 0
M  V30 7913 H 742.422 -2.95069 6.96039 0
M  V30 7914 H 743.69 -4.094 6.63334 0
M  V30 7915 N 747.919 -1.57396 -0.0801906 0
M  V30 7916 C 749.33 -1.75642 -0.633002 0
M  V30 7917 C 749.681 -0.817708 -1.78348 0
M  V30 7918 O 748.806 0.000233743 -2.164 0
M  V30 7919 C 749.401 -3.18502 -1.15507 0
M  V30 7920 C 747.96 -3.38121 -1.65381 0
M  V30 7921 C 747.107 -2.71386 -0.569661 0
M  V30 7922 H 750.058 -1.58027 0.145949 0
M  V30 7923 H 750.079 -3.22198 -2.02408 0
M  V30 7924 H 749.591 -3.86799 -0.317515 0
M  V30 7925 H 747.692 -2.74926 -2.51488 0
M  V30 7926 H 747.805 -4.46521 -1.73654 0
M  V30 7927 H 746.169 -2.33702 -1.0127 0
M  V30 7928 H 746.952 -3.42332 0.257561 0
M  V30 7929 N 749.397 0.351382 -1.53633 0
M  V30 7930 C 750.643 1.09411 -1.70754 0
M  V30 7931 C 750.976 1.88544 -0.465293 0
M  V30 7932 O 750.251 1.86923 0.537608 0
M  V30 7933 C 750.534 2.04173 -2.96623 0
M  V30 7934 C 750.387 1.28556 -4.31038 0
M  V30 7935 C 751.706 3.04102 -3.18136 0
M  V30 7936 H 748.825 0.396373 -0.621335 0
M  V30 7937 H 751.467 0.373464 -1.86293 0
M  V30 7938 H 749.617 2.65625 -2.83506 0
M  V30 7939 H 751.289 0.697786 -4.55992 0
M  V30 7940 H 749.532 0.587498 -4.29803 0
M  V30 7941 H 750.203 1.97989 -5.15271 0
M  V30 7942 H 752.679 2.5276 -3.30532 0
M  V30 7943 H 751.555 3.67616 -4.07615 0
M  V30 7944 H 751.816 3.75053 -2.34068 0
M  V30 7945 N 750.875 1.45233 0.611969 0
M  V30 7946 C 752.103 1.52539 1.39784 0
M  V30 7947 C 752.518 0.156533 1.8815 0
M  V30 7948 O 751.875 -0.84112 1.61961 0
M  V30 7949 C 751.926 2.50614 2.60528 0
M  V30 7950 O 751.647 3.8218 2.14173 0
M  V30 7951 C 753.148 2.67574 3.53439 0
M  V30 7952 H 750.368 0.51674 0.428043 0
M  V30 7953 H 752.912 1.90379 0.746727 0
M  V30 7954 H 751.067 2.15858 3.2169 0
M  V30 7955 H 751.481 4.35305 2.92592 0
M  V30 7956 H 752.955 3.40184 4.34717 0
M  V30 7957 H 753.432 1.73458 4.03496 0
M  V30 7958 H 754.038 3.0331 2.98133 0
M  V30 7959 N 752.353 -0.854086 1.3245 0
M  V30 7960 C 753.316 -1.94427 1.21371 0
M  V30 7961 C 754.316 -1.60219 0.136613 0
M  V30 7962 O 755.506 -1.69846 0.387057 0
M  V30 7963 C 752.638 -3.29698 0.866701 0
M  V30 7964 H 753.831 -2.05679 2.18257 0
M  V30 7965 H 751.384 -1.04434 1.1629 0
M  V30 7966 H 752.119 -3.24145 -0.100319 0
M  V30 7967 H 751.904 -3.55903 1.64545 0
M  V30 7968 H 753.394 -4.09599 0.813515 0
M  V30 7969 N 753.831 -1.1567 -1.07043 0
M  V30 7970 C 754.763 -0.814095 -2.14255 0
M  V30 7971 C 755.776 0.175293 -1.61854 0
M  V30 7972 O 756.965 -0.0483984 -1.78434 0
M  V30 7973 C 754.065 -0.190082 -3.38367 0
M  V30 7974 C 753.238 -1.21768 -4.20109 0
M  V30 7975 C 752.297 -0.614863 -5.22595 0
M  V30 7976 O 751.323 -1.28167 -5.54583 0
M  V30 7977 N 752.525 0.601955 -5.77371 0
M  V30 7978 H 755.29 -1.73677 -2.44247 0
M  V30 7979 H 752.851 -1.05301 -1.22977 0
M  V30 7980 H 754.843 0.22604 -4.04068 0
M  V30 7981 H 753.413 0.635992 -3.06062 0
M  V30 7982 H 752.633 -1.81025 -3.50177 0
M  V30 7983 H 753.921 -1.9114 -4.71533 0
M  V30 7984 H 753.319 1.162 -5.53637 0
M  V30 7985 H 751.876 0.96039 -6.44686 0
M  V30 7986 N 755.309 1.25446 -0.953992 0
M  V30 7987 C 756.219 2.29632 -0.480264 0
M  V30 7988 C 757.235 1.68025 0.452071 0
M  V30 7989 O 758.411 1.98703 0.328472 0
M  V30 7990 C 755.476 3.45903 0.234974 0
M  V30 7991 C 754.537 4.22953 -0.735495 0
M  V30 7992 C 753.77 5.33672 -0.0542957 0
M  V30 7993 O 753.993 5.58477 1.16018 0
M  V30 7994 O 752.927 5.9734 -0.739509 0
M  V30 7995 H 756.753 2.72242 -1.34602 0
M  V30 7996 H 754.338 1.30883 -0.720419 0
M  V30 7997 H 756.22 4.16552 0.637341 0
M  V30 7998 H 754.895 3.05296 1.07592 0
M  V30 7999 H 753.802 3.54734 -1.18806 0
M  V30 8000 H 755.135 4.67341 -1.54444 0
M  V30 8001 N 756.787 0.722489 1.40064 0
M  V30 8002 C 758.203 0.396758 1.5459 0
M  V30 8003 C 758.403 -1.09375 1.69232 0
M  V30 8004 O 757.459 -1.87984 1.68578 0
M  V30 8005 C 758.772 1.16885 2.77053 0
M  V30 8006 C 760.32 1.15583 2.90877 0
M  V30 8007 C 760.795 1.91023 4.16262 0
M  V30 8008 N 762.286 1.88126 4.23276 0
M  V30 8009 C 763.021 2.43315 5.19216 0
M  V30 8010 N 762.517 3.07089 6.21022 0
M  V30 8011 N 764.31 2.33418 5.11344 0
M  V30 8012 H 756.461 1.68887 1.28806 0
M  V30 8013 H 758.724 0.714231 0.62336 0
M  V30 8014 H 758.43 2.22301 2.72534 0
M  V30 8015 H 758.304 0.765011 3.69361 0
M  V30 8016 H 760.691 0.10984 2.94896 0
M  V30 8017 H 760.772 1.59895 1.99668 0
M  V30 8018 H 760.416 2.95616 4.13006 0
M  V30 8019 H 760.346 1.44126 5.06493 0
M  V30 8020 H 762.837 1.41654 3.50346 0
M  V30 8021 H 763.15 3.467 6.90666 0
M  V30 8022 H 761.495 3.11175 6.21446 0
M  V30 8023 H 764.686 1.83248 4.30741 0
M  V30 8024 H 764.859 2.7673 5.85939 0
M  V30 8025 N 758.265 -1.50454 0.469181 0
M  V30 8026 C 759.197 -2.26319 -0.362247 0
M  V30 8027 C 760.21 -1.31574 -0.958751 0
M  V30 8028 O 761.399 -1.57099 -0.847482 0
M  V30 8029 C 758.499 -3.02808 -1.52187 0
M  V30 8030 C 757.672 -4.24893 -1.03849 0
M  V30 8031 C 756.731 -4.83691 -2.07194 0
M  V30 8032 O 755.757 -5.44659 -1.65333 0
M  V30 8033 N 756.959 -4.70522 -3.39985 0
M  V30 8034 H 759.724 -2.98312 0.288124 0
M  V30 8035 H 757.285 -1.59099 0.299856 0
M  V30 8036 H 759.277 -3.39023 -2.21011 0
M  V30 8037 H 757.847 -2.33625 -2.07697 0
M  V30 8038 H 757.067 -3.93806 -0.176203 0
M  V30 8039 H 758.355 -5.04053 -0.693435 0
M  V30 8040 H 757.753 -4.2203 -3.76706 0
M  V30 8041 H 756.31 -5.11011 -4.04612 0
M  V30 8042 N 759.743 -0.201713 -1.56304 0
M  V30 8043 C 761.159 0.154025 -1.58855 0
M  V30 8044 C 761.359 1.60516 -1.21807 0
M  V30 8045 O 760.415 2.34193 -0.94393 0
M  V30 8046 C 761.728 -0.154319 -3.00304 0
M  V30 8047 C 763.276 -0.0949578 -3.12856 0
M  V30 8048 C 763.751 -0.376703 -4.56448 0
M  V30 8049 N 765.242 -0.325558 -4.62054 0
M  V30 8050 C 765.977 -0.51732 -5.71062 0
M  V30 8051 N 765.473 -0.769789 -6.8851 0
M  V30 8052 N 767.266 -0.45112 -5.60287 0
M  V30 8053 H 759.417 -1.14858 -1.78666 0
M  V30 8054 H 761.68 -0.458934 -0.829508 0
M  V30 8055 H 761.386 -1.16074 -3.31994 0
M  V30 8056 H 761.26 0.540014 -3.73314 0
M  V30 8057 H 763.647 0.902075 -2.80974 0
M  V30 8058 H 763.728 -0.822468 -2.42217 0
M  V30 8059 H 763.372 -1.37108 -4.89044 0
M  V30 8060 H 763.302 0.371772 -5.25286 0
M  V30 8061 H 765.793 -0.137308 -3.7765 0
M  V30 8062 H 766.106 -0.904744 -7.67486 0
M  V30 8063 H 764.451 -0.806758 -6.90302 0
M  V30 8064 H 767.642 -0.254253 -4.67409 0
M  V30 8065 H 767.815 -0.603982 -6.45179 0
M  V30 8066 N 761.222 1.57436 0.0718424 0
M  V30 8067 C 762.132 2.07039 1.10326 0
M  V30 8068 C 763.148 0.999918 1.424 0
M  V30 8069 O 764.324 1.31462 1.52577 0
M  V30 8070 C 761.389 2.50439 2.39752 0
M  V30 8071 C 760.45 3.71784 2.14651 0
M  V30 8072 C 759.683 4.13104 3.37906 0
M  V30 8073 O 759.906 3.54298 4.47023 0
M  V30 8074 O 758.84 5.05894 3.26121 0
M  V30 8075 H 762.666 2.95239 0.711872 0
M  V30 8076 H 760.251 1.46638 0.28597 0
M  V30 8077 H 762.133 2.78876 3.15921 0
M  V30 8078 H 760.808 1.65368 2.78271 0
M  V30 8079 H 759.715 3.48431 1.36187 0
M  V30 8080 H 761.048 4.57707 1.81012 0
M  V30 8081 N 762.7 -0.34323 1.53817 0
M  V30 8082 C 764.116 -0.686355 1.44088 0
M  V30 8083 C 764.316 -1.92426 0.597882 0
M  V30 8084 O 763.372 -2.52343 0.0889918 0
M  V30 8085 C 764.685 -0.878698 2.87575 0
M  V30 8086 C 766.233 -0.977296 2.97352 0
M  V30 8087 C 766.708 -1.20195 4.41947 0
M  V30 8088 N 768.199 -1.26915 4.45474 0
M  V30 8089 C 768.934 -1.46049 5.54488 0
M  V30 8090 N 768.43 -1.62354 6.73508 0
M  V30 8091 N 770.223 -1.48599 5.42102 0
M  V30 8092 H 762.374 0.470679 2.07119 0
M  V30 8093 H 764.637 0.148652 0.936273 0
M  V30 8094 H 764.343 -0.040602 3.51677 0
M  V30 8095 H 764.217 -1.78034 3.32541 0
M  V30 8096 H 766.604 -1.80591 2.3339 0
M  V30 8097 H 766.685 -0.0525498 2.55746 0
M  V30 8098 H 766.329 -0.378262 5.06489 0
M  V30 8099 H 766.259 -2.14027 4.81145 0
M  V30 8100 H 768.75 -1.15837 3.59708 0
M  V30 8101 H 769.063 -1.76591 7.52353 0
M  V30 8102 H 767.408 -1.5949 6.76453 0
M  V30 8103 H 770.599 -1.35443 4.48077 0
M  V30 8104 H 770.772 -1.6317 6.2712 0
M  V30 8105 N 764.178 -1.45556 -0.604258 0
M  V30 8106 C 765.088 -1.57025 -1.74299 0
M  V30 8107 C 766.104 -0.45456 -1.67958 0
M  V30 8108 O 767.28 -0.715711 -1.88254 0
M  V30 8109 C 764.345 -1.53702 -3.10768 0
M  V30 8110 C 763.406 -2.76335 -3.28538 0
M  V30 8111 C 762.639 -2.73161 -4.58496 0
M  V30 8112 O 762.862 -1.80678 -5.41028 0
M  V30 8113 O 761.796 -3.64409 -4.79051 0
M  V30 8114 H 765.622 -2.53284 -1.67573 0
M  V30 8115 H 763.207 -1.28104 -0.768745 0
M  V30 8116 H 765.089 -1.54468 -3.92068 0
M  V30 8117 H 763.764 -0.605957 -3.17978 0
M  V30 8118 H 762.671 -2.8113 -2.46813 0
M  V30 8119 H 764.004 -3.68578 -3.26207 0
M  V30 8120 N 765.656 0.84705 -1.32902 0
M  V30 8121 C 766.566 1.98845 -1.2449 0
M  V30 8122 C 767.582 1.7329 -0.15702 0
M  V30 8123 O 768.758 1.978 -0.379104 0
M  V30 8124 C 765.823 3.32679 -0.975985 0
M  V30 8125 C 764.884 3.71405 -2.15306 0
M  V30 8126 C 764.117 4.98853 -1.89688 0
M  V30 8127 O 764.34 5.64134 -0.843168 0
M  V30 8128 O 763.274 5.34889 -2.76002 0
M  V30 8129 H 767.1 2.0888 -2.2046 0
M  V30 8130 H 764.685 0.978852 -1.12867 0
M  V30 8131 H 766.567 4.12885 -0.842826 0
M  V30 8132 H 765.242 3.23667 -0.0464954 0
M  V30 8133 H 764.149 2.91743 -2.34172 0
M  V30 8134 H 765.482 3.85073 -3.06561 0
M  V30 8135 N 767.134 1.16236 1.06428 0
M  V30 8136 C 768.081 0.86769 2.13869 0
M  V30 8137 C 769.051 -0.183298 1.65086 0
M  V30 8138 O 770.236 -0.0488002 1.90738 0
M  V30 8139 C 767.376 0.373427 3.43074 0
M  V30 8140 C 766.489 1.48708 4.05598 0
M  V30 8141 C 765.624 0.947977 5.22673 0
M  V30 8142 C 764.663 2.03793 5.77178 0
M  V30 8143 N 763.8 1.51451 6.85571 0
M  V30 8144 H 768.64 1.78781 2.38414 0
M  V30 8145 H 766.177 0.891892 1.16977 0
M  V30 8146 H 768.135 0.0685035 4.17144 0
M  V30 8147 H 766.765 -0.509752 3.1875 0
M  V30 8148 H 765.817 1.908 3.29089 0
M  V30 8149 H 767.129 2.30964 4.42105 0
M  V30 8150 H 766.283 0.596154 6.03764 0
M  V30 8151 H 765.022 0.0947081 4.87608 0
M  V30 8152 H 764.027 2.39847 4.94726 0
M  V30 8153 H 765.252 2.89514 6.14295 0
M  V30 8154 H 763.198 0.683755 6.52427 0
M  V30 8155 H 763.115 2.27325 7.21013 0
M  V30 8156 H 764.383 1.19123 7.70344 0
M  V30 8157 N 768.612 -1.24939 0.960631 0
M  V30 8158 C 770.028 -1.45039 0.666018 0
M  V30 8159 C 770.228 -1.86021 -0.774501 0
M  V30 8160 O 769.284 -1.99392 -1.54916 0
M  V30 8161 C 770.597 -2.51775 1.64408 0
M  V30 8162 C 772.145 -2.6561 1.65592 0
M  V30 8163 C 772.62 -3.75536 2.62177 0
M  V30 8164 N 774.111 -3.82954 2.60577 0
M  V30 8165 C 774.846 -4.67517 3.31987 0
M  V30 8166 N 774.342 -5.56321 4.1289 0
M  V30 8167 N 776.135 -4.61535 3.20845 0
M  V30 8168 H 768.286 -0.96632 1.89145 0
M  V30 8169 H 770.549 -0.486034 0.813926 0
M  V30 8170 H 770.255 -2.28534 2.67329 0
M  V30 8171 H 770.129 -3.49804 1.41128 0
M  V30 8172 H 772.516 -2.88212 0.633846 0
M  V30 8173 H 772.597 -1.67962 1.92931 0
M  V30 8174 H 772.241 -3.53684 3.64514 0
M  V30 8175 H 772.171 -4.72682 2.32119 0
M  V30 8176 H 774.662 -3.19478 2.01847 0
M  V30 8177 H 774.975 -6.17787 4.64283 0
M  V30 8178 H 773.32 -5.5601 4.16987 0
M  V30 8179 H 776.511 -3.91169 2.57108 0
M  V30 8180 H 776.684 -5.27214 3.76762 0
M  V30 8181 N 770.09 -0.729906 -1.39679 0
M  V30 8182 C 771.506 -0.404951 -1.54377 0
M  V30 8183 C 771.706 1.08476 -1.6981 0
M  V30 8184 O 770.762 1.87087 -1.69572 0
M  V30 8185 C 772.075 -1.18352 -2.76429 0
M  V30 8186 C 773.623 -1.17124 -2.9026 0
M  V30 8187 C 774.098 -1.93227 -4.15244 0
M  V30 8188 N 775.589 -1.90368 -4.22273 0
M  V30 8189 C 776.324 -2.46065 -5.17918 0
M  V30 8190 N 775.82 -3.10378 -6.19385 0
M  V30 8191 N 777.613 -2.36127 -5.10099 0
M  V30 8192 H 769.764 -1.69567 -1.27909 0
M  V30 8193 H 772.027 -0.717527 -0.619564 0
M  V30 8194 H 771.733 -2.23743 -2.71352 0
M  V30 8195 H 771.607 -0.784589 -3.6895 0
M  V30 8196 H 773.994 -0.125478 -2.94833 0
M  V30 8197 H 774.075 -1.60951 -1.98817 0
M  V30 8198 H 773.719 -2.97802 -4.11432 0
M  V30 8199 H 773.649 -1.4681 -5.05722 0
M  V30 8200 H 776.14 -1.4351 -3.4959 0
M  V30 8201 H 776.453 -3.50358 -6.88817 0
M  V30 8202 H 774.798 -3.14467 -6.19787 0
M  V30 8203 H 777.989 -1.85529 -4.29763 0
M  V30 8204 H 778.162 -2.79833 -5.84463 0
M  V30 8205 N 771.568 1.50203 -0.477153 0
M  V30 8206 C 772.984 1.59056 -0.131663 0
M  V30 8207 C 773.184 1.48473 1.36227 0
M  V30 8208 O 772.24 1.34635 2.13611 0
M  V30 8209 C 773.553 2.92741 -0.687254 0
M  V30 8210 C 775.101 3.0615 -0.651223 0
M  V30 8211 C 775.576 4.42419 -1.18446 0
M  V30 8212 N 777.067 4.48847 -1.14413 0
M  V30 8213 C 777.802 5.52689 -1.52717 0
M  V30 8214 N 777.298 6.63754 -1.98499 0
M  V30 8215 N 779.091 5.43267 -1.44282 0
M  V30 8216 H 771.242 1.55325 -1.44872 0
M  V30 8217 H 773.505 0.734395 -0.599473 0
M  V30 8218 H 773.211 3.0598 -1.73405 0
M  V30 8219 H 773.085 3.76961 -0.134215 0
M  V30 8220 H 775.472 2.92556 0.386677 0
M  V30 8221 H 775.553 2.23673 -1.24114 0
M  V30 8222 H 775.197 4.56763 -2.22103 0
M  V30 8223 H 775.127 5.23498 -0.570709 0
M  V30 8224 H 777.618 3.69152 -0.808416 0
M  V30 8225 H 777.931 7.39059 -2.25859 0
M  V30 8226 H 776.276 6.64858 -2.02456 0
M  V30 8227 H 779.467 4.55387 -1.08352 0
M  V30 8228 H 779.64 6.24074 -1.74459 0
M  V30 8229 N 773.046 0.209999 1.56195 0
M  V30 8230 C 774.462 -0.145598 1.58934 0
M  V30 8231 C 774.662 -1.59868 1.22656 0
M  V30 8232 O 773.718 -2.33689 0.956336 0
M  V30 8233 C 775.031 0.170243 3.00218 0
M  V30 8234 C 776.579 0.111548 3.12801 0
M  V30 8235 C 777.054 0.400904 4.56242 0
M  V30 8236 N 778.545 0.350058 4.61875 0
M  V30 8237 C 779.28 0.547598 5.70779 0
M  V30 8238 N 778.776 0.806291 6.88092 0
M  V30 8239 N 780.569 0.480827 5.6004 0
M  V30 8240 H 772.72 1.15804 1.78054 0
M  V30 8241 H 774.983 0.463326 0.827063 0
M  V30 8242 H 774.689 1.17833 3.31373 0
M  V30 8243 H 774.563 -0.520208 3.73596 0
M  V30 8244 H 776.95 -0.887162 2.81449 0
M  V30 8245 H 777.031 0.835302 2.41777 0
M  V30 8246 H 776.675 1.397 4.8831 0
M  V30 8247 H 776.605 -0.34391 5.25476 0
M  V30 8248 H 779.096 0.157334 3.77572 0
M  V30 8249 H 779.409 0.945433 7.66995 0
M  V30 8250 H 777.754 0.843355 6.89864 0
M  V30 8251 H 780.945 0.279037 4.67268 0
M  V30 8252 H 781.118 0.638189 6.4485 0
M  V30 8253 N 774.524 -1.57472 -0.0634922 0
M  V30 8254 C 775.456 -2.00999 -1.10145 0
M  V30 8255 C 776.469 -0.917219 -1.34503 0
M  V30 8256 O 777.658 -1.19501 -1.32596 0
M  V30 8257 C 774.758 -2.34089 -2.45063 0
M  V30 8258 C 773.931 -3.65317 -2.40546 0
M  V30 8259 C 772.99 -3.85982 -3.57637 0
M  V30 8260 O 772.016 -4.5747 -3.38689 0
M  V30 8261 N 773.218 -3.28971 -4.78287 0
M  V30 8262 H 775.983 -2.90656 -0.730714 0
M  V30 8263 H 773.544 -1.59926 -0.252017 0
M  V30 8264 H 775.536 -2.4508 -3.22053 0
M  V30 8265 H 774.106 -1.50279 -2.74107 0
M  V30 8266 H 773.326 -3.65003 -1.48885 0
M  V30 8267 H 774.614 -4.51468 -2.34636 0
M  V30 8268 H 774.012 -2.70962 -4.96584 0
M  V30 8269 H 772.569 -3.45398 -5.5276 0
M  V30 8270 N 776.003 0.335068 -1.53997 0
M  V30 8271 C 776.913 1.43511 -1.85585 0
M  V30 8272 C 777.929 1.57162 -0.746726 0
M  V30 8273 O 779.105 1.72477 -1.03988 0
M  V30 8274 C 776.17 2.78386 -2.06646 0
M  V30 8275 C 775.231 2.74007 -3.30483 0
M  V30 8276 C 774.464 4.02449 -3.50529 0
M  V30 8277 O 774.687 5.00147 -2.74242 0
M  V30 8278 O 773.621 4.06405 -4.4398 0
M  V30 8279 H 777.447 1.19731 -2.79102 0
M  V30 8280 H 775.032 0.528033 -1.39758 0
M  V30 8281 H 776.914 3.58247 -2.21894 0
M  V30 8282 H 775.589 3.0208 -1.16317 0
M  V30 8283 H 774.496 1.92736 -3.2063 0
M  V30 8284 H 775.829 2.55267 -4.20832 0
M  V30 8285 N 777.481 1.45874 0.596531 0
M  V30 8286 C 778.897 1.30524 0.918459 0
M  V30 8287 C 779.097 0.266429 1.99731 0
M  V30 8288 O 778.153 -0.335809 2.50257 0
M  V30 8289 C 779.466 2.68747 1.3489 0
M  V30 8290 C 781.014 2.7673 1.46251 0
M  V30 8291 C 781.489 4.15504 1.92667 0
M  V30 8292 N 782.98 4.17853 1.99883 0
M  V30 8293 C 783.715 5.22109 2.37044 0
M  V30 8294 N 783.211 6.36704 2.73094 0
M  V30 8295 N 785.004 5.09471 2.37479 0
M  V30 8296 H 777.155 2.12081 -0.116368 0
M  V30 8297 H 779.418 0.947941 0.0106033 0
M  V30 8298 H 779.124 3.46006 0.630288 0
M  V30 8299 H 778.998 2.97942 2.31323 0
M  V30 8300 H 781.385 1.99768 2.17202 0
M  V30 8301 H 781.466 2.51236 0.481054 0
M  V30 8302 H 781.11 4.92956 1.223 0
M  V30 8303 H 781.04 4.38396 2.91747 0
M  V30 8304 H 783.531 3.35163 1.74568 0
M  V30 8305 H 783.844 7.12041 3.00362 0
M  V30 8306 H 782.189 6.40087 2.70764 0
M  V30 8307 H 785.38 4.18987 2.08728 0
M  V30 8308 H 785.553 5.90837 2.66112 0
M  V30 8309 N 778.959 -0.83999 1.33349 0
M  V30 8310 C 779.922 -1.93128 1.23426 0
M  V30 8311 C 780.922 -1.60065 0.153599 0
M  V30 8312 O 782.112 -1.69425 0.405049 0
M  V30 8313 C 779.244 -3.28761 0.901622 0
M  V30 8314 H 780.437 -2.03352 2.20427 0
M  V30 8315 H 777.99 -1.03194 1.17391 0
M  V30 8316 H 778.725 -3.24233 -0.0659337 0
M  V30 8317 H 778.51 -3.54138 1.68311 0
M  V30 8318 H 780 -4.08714 0.856913 0
M  V30 8319 N 780.437 -1.16799 -1.0581 0
M  V30 8320 C 781.384 -0.87902 -2.13405 0
M  V30 8321 C 782.354 0.174541 -1.6518 0
M  V30 8322 O 783.539 0.0386843 -1.90761 0
M  V30 8323 C 780.679 -0.391616 -3.42871 0
M  V30 8324 C 779.792 -1.50857 -4.04804 0
M  V30 8325 C 778.927 -0.975682 -5.22163 0
M  V30 8326 C 777.966 -2.06851 -5.76089 0
M  V30 8327 N 777.103 -1.55085 -6.84758 0
M  V30 8328 H 781.943 -1.80043 -2.37463 0
M  V30 8329 H 779.48 -0.898083 -1.16503 0
M  V30 8330 H 781.438 -0.0906247 -4.17102 0
M  V30 8331 H 780.068 0.49284 -3.19016 0
M  V30 8332 H 779.12 -1.92542 -3.28073 0
M  V30 8333 H 780.432 -2.33305 -4.40874 0
M  V30 8334 H 779.586 -0.628165 -6.03439 0
M  V30 8335 H 778.325 -0.120566 -4.87551 0
M  V30 8336 H 777.33 -2.42467 -4.93447 0
M  V30 8337 H 778.555 -2.92768 -6.12751 0
M  V30 8338 H 776.501 -0.718345 -6.52055 0
M  V30 8339 H 776.418 -2.31145 -7.19797 0
M  V30 8340 H 777.686 -1.23206 -7.69702 0
M  V30 8341 N 781.915 1.24427 -0.967243 0
M  V30 8342 C 782.825 2.29109 -0.504592 0
M  V30 8343 C 783.841 1.68495 0.434224 0
M  V30 8344 O 785.017 1.99041 0.307379 0
M  V30 8345 C 782.082 3.46133 0.198273 0
M  V30 8346 C 781.143 4.22149 -0.780313 0
M  V30 8347 C 780.376 5.33585 -0.110896 0
M  V30 8348 O 780.599 5.59676 1.10088 0
M  V30 8349 O 779.533 5.96522 -0.802823 0
M  V30 8350 H 783.359 2.708 -1.37482 0
M  V30 8351 H 780.944 1.30111 -0.73426 0
M  V30 8352 H 782.826 4.17205 0.593124 0
M  V30 8353 H 781.501 3.0642 1.04347 0
M  V30 8354 H 780.408 3.53454 -1.22561 0
M  V30 8355 H 781.741 4.65677 -1.59392 0
M  V30 8356 N 783.393 0.737304 1.3929 0
M  V30 8357 C 784.809 0.413132 1.5416 0
M  V30 8358 C 785.009 -1.07574 1.70382 0
M  V30 8359 O 784.065 -1.86185 1.70562 0
M  V30 8360 C 785.378 1.19817 2.75798 0
M  V30 8361 C 786.926 1.18662 2.89635 0
M  V30 8362 C 787.401 1.95427 4.14213 0
M  V30 8363 N 788.892 1.92605 4.21257 0
M  V30 8364 C 789.627 2.48808 5.16606 0
M  V30 8365 N 789.123 3.13659 6.1773 0
M  V30 8366 N 790.916 2.38829 5.08839 0
M  V30 8367 H 783.067 1.70243 1.27008 0
M  V30 8368 H 785.33 0.720802 0.61575 0
M  V30 8369 H 785.036 2.25179 2.70161 0
M  V30 8370 H 784.91 0.804144 3.68529 0
M  V30 8371 H 787.297 0.141112 2.94762 0
M  V30 8372 H 787.378 1.62003 1.97961 0
M  V30 8373 H 787.022 2.9998 4.09847 0
M  V30 8374 H 786.952 1.4949 5.04936 0
M  V30 8375 H 789.443 1.45362 3.48824 0
M  V30 8376 H 789.756 3.54006 6.8695 0
M  V30 8377 H 788.101 3.17749 6.1811 0
M  V30 8378 H 791.292 1.87806 4.28773 0
M  V30 8379 H 791.465 2.82929 5.82971 0
M  V30 8380 N 784.871 -1.49948 0.485112 0
M  V30 8381 C 785.781 -2.32587 -0.306697 0
M  V30 8382 C 786.797 -1.43598 -0.982632 0
M  V30 8383 O 787.973 -1.76638 -0.967519 0
M  V30 8384 C 785.038 -3.18638 -1.3664 0
M  V30 8385 C 784.099 -4.23462 -0.705589 0
M  V30 8386 C 783.332 -5.05401 -1.7148 0
M  V30 8387 O 783.555 -4.88618 -2.94293 0
M  V30 8388 O 782.489 -5.88157 -1.27889 0
M  V30 8389 H 786.315 -3.01447 0.369272 0
M  V30 8390 H 783.9 -1.47349 0.246709 0
M  V30 8391 H 785.782 -3.71992 -1.9799 0
M  V30 8392 H 784.457 -2.52491 -2.02559 0
M  V30 8393 H 783.364 -3.74063 -0.0527733 0
M  V30 8394 H 784.697 -4.92119 -0.0891187 0
M  V30 8395 N 786.349 -0.21828 -1.56081 0
M  V30 8396 C 787.296 0.693189 -2.20144 0
M  V30 8397 C 788.266 1.19274 -1.15598 0
M  V30 8398 O 789.451 1.25243 -1.4394 0
M  V30 8399 C 786.591 1.89715 -2.88275 0
M  V30 8400 C 785.704 1.4368 -4.07407 0
M  V30 8401 C 784.839 2.59807 -4.63329 0
M  V30 8402 C 783.878 2.10492 -5.74769 0
M  V30 8403 N 783.015 3.1988 -6.24997 0
M  V30 8404 H 787.855 0.14016 -2.9767 0
M  V30 8405 H 785.392 0.0574292 -1.46988 0
M  V30 8406 H 787.35 2.60398 -3.25958 0
M  V30 8407 H 785.98 2.42311 -2.13273 0
M  V30 8408 H 785.032 0.625007 -3.7523 0
M  V30 8409 H 786.344 1.03517 -4.8794 0
M  V30 8410 H 785.498 3.38577 -5.03438 0
M  V30 8411 H 784.237 3.03256 -3.81951 0
M  V30 8412 H 783.242 1.30182 -5.34165 0
M  V30 8413 H 784.467 1.68045 -6.5798 0
M  V30 8414 H 782.413 3.62817 -5.46534 0
M  V30 8415 H 782.33 2.83958 -7.00645 0
M  V30 8416 H 783.598 3.98796 -6.69763 0
M  V30 8417 N 787.827 1.57504 0.0551401 0
M  V30 8418 C 789.243 1.54236 0.410292 0
M  V30 8419 C 789.443 0.940839 1.78187 0
M  V30 8420 O 788.499 0.550541 2.46425 0
M  V30 8421 C 789.812 2.98816 0.336064 0
M  V30 8422 C 791.36 3.10236 0.415047 0
M  V30 8423 C 791.835 4.56499 0.37055 0
M  V30 8424 N 793.326 4.61199 0.43013 0
M  V30 8425 C 794.061 5.71873 0.418179 0
M  V30 8426 N 793.557 6.91864 0.360056 0
M  V30 8427 N 795.35 5.60165 0.465977 0
M  V30 8428 H 787.501 1.94965 -0.842759 0
M  V30 8429 H 789.764 0.893096 -0.317937 0
M  V30 8430 H 789.47 3.4645 -0.605429 0
M  V30 8431 H 789.344 3.59564 1.13988 0
M  V30 8432 H 791.731 2.62566 1.34697 0
M  V30 8433 H 791.812 2.52367 -0.417648 0
M  V30 8434 H 791.456 5.0483 -0.557592 0
M  V30 8435 H 791.386 5.12249 1.221 0
M  V30 8436 H 793.877 3.74857 0.478623 0
M  V30 8437 H 794.19 7.71983 0.35532 0
M  V30 8438 H 792.535 6.94233 0.326492 0
M  V30 8439 H 795.726 4.65322 0.509194 0
M  V30 8440 H 795.899 6.46413 0.453194 0
M  V30 8441 N 789.305 -0.326896 1.54172 0
M  V30 8442 C 790.721 -0.671034 1.44808 0
M  V30 8443 C 790.921 -1.91781 0.618258 0
M  V30 8444 O 789.977 -2.52235 0.115751 0
M  V30 8445 C 791.29 -0.848147 2.88491 0
M  V30 8446 C 792.838 -0.945702 2.98371 0
M  V30 8447 C 793.313 -1.15501 4.43197 0
M  V30 8448 N 794.804 -1.22183 4.46795 0
M  V30 8449 C 795.539 -1.4016 5.56006 0
M  V30 8450 N 795.035 -1.55202 6.75192 0
M  V30 8451 N 796.828 -1.42841 5.43648 0
M  V30 8452 H 788.979 0.49262 2.06608 0
M  V30 8453 H 791.242 0.158574 0.934643 0
M  V30 8454 H 790.948 -0.00329969 3.517 0
M  V30 8455 H 790.822 -1.74497 3.34411 0
M  V30 8456 H 793.209 -1.78106 2.35292 0
M  V30 8457 H 793.29 -0.0254215 2.55787 0
M  V30 8458 H 792.934 -0.324521 5.06862 0
M  V30 8459 H 792.864 -2.08911 4.83388 0
M  V30 8460 H 795.355 -1.12016 3.60917 0
M  V30 8461 H 795.668 -1.68601 7.54184 0
M  V30 8462 H 794.013 -1.52306 6.78106 0
M  V30 8463 H 797.204 -1.30683 4.49488 0
M  V30 8464 H 797.377 -1.56509 6.28816 0
M  V30 8465 N 790.784 -1.46188 -0.588786 0
M  V30 8466 C 791.716 -1.52319 -1.71265 0
M  V30 8467 C 792.729 -0.412096 -1.57498 0
M  V30 8468 O 793.918 -0.680146 -1.65034 0
M  V30 8469 C 791.018 -1.38164 -3.09458 0
M  V30 8470 C 790.191 -2.63284 -3.49286 0
M  V30 8471 C 789.25 -2.43415 -4.66514 0
M  V30 8472 O 788.276 -3.17113 -4.72682 0
M  V30 8473 N 789.478 -1.49187 -5.61002 0
M  V30 8474 H 792.243 -2.49219 -1.66463 0
M  V30 8475 H 789.804 -1.42167 -0.774601 0
M  V30 8476 H 791.796 -1.22653 -3.85666 0
M  V30 8477 H 790.366 -0.494678 -3.08661 0
M  V30 8478 H 789.586 -2.93779 -2.62845 0
M  V30 8479 H 790.874 -3.46413 -3.7266 0
M  V30 8480 H 790.272 -0.884027 -5.5875 0
M  V30 8481 H 788.829 -1.39642 -6.36666 0
M  V30 8482 N 792.262 0.832906 -1.33792 0
M  V30 8483 C 793.172 1.97514 -1.26592 0
M  V30 8484 C 794.188 1.73114 -0.175391 0
M  V30 8485 O 795.364 1.97387 -0.400062 0
M  V30 8486 C 792.429 3.31625 -1.01121 0
M  V30 8487 C 791.49 3.69101 -2.19233 0
M  V30 8488 C 790.723 4.96813 -1.94968 0
M  V30 8489 O 790.946 5.63208 -0.902955 0
M  V30 8490 O 789.88 5.31932 -2.8166 0
M  V30 8491 H 793.706 2.0653 -2.22664 0
M  V30 8492 H 791.291 0.966826 -1.13898 0
M  V30 8493 H 793.173 4.11968 -0.886571 0
M  V30 8494 H 791.848 3.23599 -0.080822 0
M  V30 8495 H 790.755 2.89243 -2.37253 0
M  V30 8496 H 792.088 3.818 -3.10628 0
M  V30 8497 N 793.74 1.17359 1.05189 0
M  V30 8498 C 795.156 0.920861 1.30355 0
M  V30 8499 C 795.356 -0.419993 1.97074 0
M  V30 8500 O 794.412 -1.15696 2.24434 0
M  V30 8501 C 795.725 2.07818 2.1733 0
M  V30 8502 C 797.273 2.1152 2.30712 0
M  V30 8503 C 797.748 3.26637 3.21048 0
M  V30 8504 N 799.239 3.26426 3.28634 0
M  V30 8505 C 799.974 4.12141 3.98657 0
M  V30 8506 N 799.47 5.07966 4.71107 0
M  V30 8507 N 801.263 4.00091 3.94821 0
M  V30 8508 H 793.414 2.03666 0.602821 0
M  V30 8509 H 795.677 0.889294 0.328421 0
M  V30 8510 H 795.383 3.04727 1.75597 0
M  V30 8511 H 795.257 2.02922 3.17966 0
M  V30 8512 H 797.644 1.15196 2.71687 0
M  V30 8513 H 797.725 2.20477 1.29706 0
M  V30 8514 H 797.369 4.23227 2.80788 0
M  V30 8515 H 797.299 3.14917 4.2206 0
M  V30 8516 H 799.79 2.57045 2.77013 0
M  V30 8517 H 800.103 5.69766 5.22099 0
M  V30 8518 H 798.448 5.11936 4.7005 0
M  V30 8519 H 801.639 3.24523 3.37346 0
M  V30 8520 H 801.812 4.6711 4.49123 0
M  V30 8521 N 795.218 -1.23913 0.973828 0
M  V30 8522 C 796.128 -2.28838 0.516735 0
M  V30 8523 C 797.144 -1.68723 -0.425282 0
M  V30 8524 O 798.32 -1.99201 -0.296819 0
M  V30 8525 C 795.385 -3.46233 -0.179914 0
M  V30 8526 C 794.446 -4.21729 0.80269 0
M  V30 8527 C 793.679 -5.33518 0.139191 0
M  V30 8528 O 793.902 -5.60252 -1.07118 0
M  V30 8529 O 792.836 -5.96088 0.834447 0
M  V30 8530 H 796.662 -2.70067 1.38916 0
M  V30 8531 H 794.247 -1.2972 0.74115 0
M  V30 8532 H 796.129 -4.17514 -0.570991 0
M  V30 8533 H 794.804 -3.06969 -1.02721 0
M  V30 8534 H 793.711 -3.52799 1.24434 0
M  V30 8535 H 795.044 -4.64825 1.61859 0
M  V30 8536 N 796.696 -0.74468 -1.38897 0
M  V30 8537 C 798.112 -0.421302 -1.53939 0
M  V30 8538 C 798.312 1.06668 -1.70951 0
M  V30 8539 O 797.368 1.85278 -1.71547 0
M  V30 8540 C 798.681 -1.21278 -2.75159 0
M  V30 8541 C 800.229 -1.20196 -2.89001 0
M  V30 8542 C 800.704 -1.97621 -4.13171 0
M  V30 8543 N 802.195 -1.94836 -4.2023 0
M  V30 8544 C 802.93 -2.51545 -5.15279 0
M  V30 8545 N 802.426 -3.1693 -6.16058 0
M  V30 8546 N 804.219 -2.41524 -5.07565 0
M  V30 8547 H 796.37 -1.70914 -1.26103 0
M  V30 8548 H 798.633 -0.724058 -0.611919 0
M  V30 8549 H 798.339 -2.26609 -2.68963 0
M  V30 8550 H 798.213 -0.823677 -3.68097 0
M  V30 8551 H 800.6 -0.156742 -2.94683 0
M  V30 8552 H 800.681 -1.63051 -1.97099 0
M  V30 8553 H 800.325 -3.02149 -4.0825 0
M  V30 8554 H 800.255 -1.52166 -5.04136 0
M  V30 8555 H 802.746 -1.4721 -3.48048 0
M  V30 8556 H 803.059 -3.57644 -6.85062 0
M  V30 8557 H 801.404 -3.21023 -6.16417 0
M  V30 8558 H 804.595 -1.90077 -4.27771 0
M  V30 8559 H 804.768 -2.86016 -5.81462 0
M  V30 8560 N 798.174 1.49689 -0.493057 0
M  V30 8561 C 799.121 2.28976 0.28959 0
M  V30 8562 C 800.091 1.35011 0.967536 0
M  V30 8563 O 801.276 1.63964 0.975736 0
M  V30 8564 C 798.416 3.1748 1.35279 0
M  V30 8565 C 797.529 4.26496 0.687418 0
M  V30 8566 C 796.664 5.02226 1.73038 0
M  V30 8567 C 795.703 6.03089 1.04645 0
M  V30 8568 N 794.84 6.72014 2.03325 0
M  V30 8569 H 799.68 2.954 -0.392798 0
M  V30 8570 H 797.217 1.45657 -0.205554 0
M  V30 8571 H 799.175 3.67162 1.98111 0
M  V30 8572 H 797.805 2.53057 2.00405 0
M  V30 8573 H 796.857 3.80362 -0.0540001 0
M  V30 8574 H 798.169 4.98578 0.14864 0
M  V30 8575 H 797.323 5.55737 2.43395 0
M  V30 8576 H 796.062 4.29899 2.303 0
M  V30 8577 H 795.067 5.48817 0.328606 0
M  V30 8578 H 796.292 6.77398 0.480428 0
M  V30 8579 H 794.238 6.02464 2.59564 0
M  V30 8580 H 794.155 7.40046 1.54492 0
M  V30 8581 H 795.423 7.30133 2.72995 0
M  V30 8582 N 799.652 0.226554 1.55963 0
M  V30 8583 C 800.562 -0.692725 2.24139 0
M  V30 8584 C 801.578 -1.20971 1.25068 0
M  V30 8585 O 802.754 -1.25027 1.57893 0
M  V30 8586 C 799.819 -1.88183 2.91184 0
M  V30 8587 C 798.88 -1.40633 4.05612 0
M  V30 8588 C 798.113 -2.53875 4.6945 0
M  V30 8589 O 798.336 -3.72129 4.32292 0
M  V30 8590 O 797.27 -2.24792 5.58348 0
M  V30 8591 H 801.096 -0.141921 3.03368 0
M  V30 8592 H 798.681 -0.0041049 1.49399 0
M  V30 8593 H 800.563 -2.57617 3.33484 0
M  V30 8594 H 799.238 -2.42064 2.14911 0
M  V30 8595 H 798.145 -0.67986 3.67871 0
M  V30 8596 H 799.478 -0.913838 4.83642 0
M  V30 8597 N 801.13 -1.57531 -0.0467866 0
M  V30 8598 C 802.546 -1.54451 -0.402107 0
M  V30 8599 C 802.746 -0.950275 -1.77685 0
M  V30 8600 O 801.802 -0.563602 -2.4613 0
M  V30 8601 C 803.115 -2.9899 -0.320212 0
M  V30 8602 C 804.663 -3.10452 -0.398588 0
M  V30 8603 C 805.138 -4.56689 -0.346335 0
M  V30 8604 N 806.629 -4.6142 -0.405666 0
M  V30 8605 C 807.364 -5.72087 -0.387845 0
M  V30 8606 N 806.86 -6.92045 -0.32336 0
M  V30 8607 N 808.653 -5.60404 -0.436263 0
M  V30 8608 H 800.804 -1.94515 0.853087 0
M  V30 8609 H 803.067 -0.891397 0.322669 0
M  V30 8610 H 802.773 -3.46124 0.623794 0
M  V30 8611 H 802.647 -3.60164 -1.1208 0
M  V30 8612 H 805.034 -2.63276 -1.33302 0
M  V30 8613 H 805.115 -2.52142 0.431026 0
M  V30 8614 H 804.759 -5.04527 0.584356 0
M  V30 8615 H 804.689 -5.12889 -1.19382 0
M  V30 8616 H 807.18 -3.75105 -0.458737 0
M  V30 8617 H 807.493 -7.7216 -0.314375 0
M  V30 8618 H 805.838 -6.94396 -0.28967 0
M  V30 8619 H 809.029 -4.65586 -0.48451 0
M  V30 8620 H 809.202 -6.46645 -0.418907 0
M  V30 8621 N 802.608 0.318715 -1.54344 0
M  V30 8622 C 803.856 1.054 -1.72439 0
M  V30 8623 C 804.177 1.88388 -0.503495 0
M  V30 8624 O 803.447 1.89866 0.48246 0
M  V30 8625 H 802.027 0.392124 -0.635805 0
M  V30 8626 H 804.689 0.35398 -1.91659 0
M  V30 8627 H 803.785 1.71726 -2.60608 0
M  V30 8628 N 804.086 1.46499 0.581025 0
M  V30 8629 C 805.049 1.5677 1.672 0
M  V30 8630 C 806.049 0.444716 1.54528 0
M  V30 8631 O 807.239 0.709074 1.59116 0
M  V30 8632 C 804.371 1.4896 3.06633 0
M  V30 8633 H 805.564 2.54 1.5945 0
M  V30 8634 H 803.117 1.34334 0.799003 0
M  V30 8635 H 803.852 0.530168 3.19937 0
M  V30 8636 H 803.637 2.30439 3.17239 0
M  V30 8637 H 805.127 1.59237 3.86048 0
M  V30 8638 N 805.565 -0.825799 1.34232 0
M  V30 8639 C 806.813 -1.57873 1.26177 0
M  V30 8640 C 807.134 -1.94267 -0.168904 0
M  V30 8641 O 806.404 -1.62045 -1.10084 0
M  V30 8642 H 804.984 -0.585388 0.464037 0
M  V30 8643 H 807.646 -0.986163 1.6811 0
M  V30 8644 H 806.742 -2.50283 1.86453 0
M  V30 8645 N 807.043 -1.17915 -1.04565 0
M  V30 8646 C 808.006 -0.903787 -2.10628 0
M  V30 8647 C 809.006 0.10873 -1.60432 0
M  V30 8648 O 810.196 -0.124152 -1.73757 0
M  V30 8649 C 807.328 -0.355017 -3.39046 0
M  V30 8650 H 808.521 -1.84425 -2.3649 0
M  V30 8651 H 806.074 -0.990477 -1.2091 0
M  V30 8652 H 806.809 0.592297 -3.18845 0
M  V30 8653 H 806.594 -1.08484 -3.76794 0
M  V30 8654 H 808.084 -0.180891 -4.17208 0
M  V30 8655 N 808.521 1.23394 -0.980386 0
M  V30 8656 C 809.746 1.96384 -0.666935 0
M  V30 8657 C 810.171 1.72087 0.759456 0
M  V30 8658 O 809.529 0.992328 1.51732 0
M  V30 8659 C 809.577 3.47499 -0.963177 0
M  V30 8660 O 808.681 4.12363 -0.0552051 0
M  V30 8661 H 808.022 0.614797 -0.250839 0
M  V30 8662 H 810.552 1.56831 -1.31398 0
M  V30 8663 H 810.562 3.97953 -0.899877 0
M  V30 8664 H 809.237 3.6451 -2.00264 0
M  V30 8665 H 807.814 3.72499 -0.172914 0
M  V30 8666 N 809.999 0.752036 1.385 0
M  V30 8667 C 811.247 0.306895 1.99756 0
M  V30 8668 C 811.568 -1.11478 1.59992 0
M  V30 8669 O 810.838 -1.76206 0.856045 0
M  V30 8670 H 809.418 0.11048 0.738785 0
M  V30 8671 H 812.08 0.965785 1.69289 0
M  V30 8672 H 811.176 0.368797 3.09913 0
M  V30 8673 N 811.477 -1.49425 0.500989 0
M  V30 8674 C 812.725 -2.02053 -0.0434495 0
M  V30 8675 C 813.046 -1.38285 -1.37486 0
M  V30 8676 O 812.316 -0.538171 -1.88363 0
M  V30 8677 H 810.896 -0.746757 -0.0190469 0
M  V30 8678 H 813.558 -1.83449 0.658227 0
M  V30 8679 H 812.654 -3.11619 -0.173129 0
M  V30 8680 N 812.955 -0.234822 -1.55841 0
M  V30 8681 C 814.366 0.270588 -1.84729 0
M  V30 8682 C 814.717 1.58494 -1.15646 0
M  V30 8683 O 813.842 2.12071 -0.430667 0
M  V30 8684 C 814.437 0.497733 -3.35124 0
M  V30 8685 C 812.996 0.947428 -3.64281 0
M  V30 8686 C 812.143 0.01787 -2.77294 0
M  V30 8687 H 815.094 -0.457691 -1.51957 0
M  V30 8688 H 815.115 1.34199 -3.56049 0
M  V30 8689 H 814.627 -0.459037 -3.85376 0
M  V30 8690 H 812.728 1.91709 -3.19497 0
M  V30 8691 H 812.841 0.812651 -4.72158 0
M  V30 8692 H 811.205 0.527071 -2.49187 0
M  V30 8693 H 811.988 -0.934056 -3.30349 0
M  V30 8694 N 814.433 1.57553 0.0384317 0
M  V30 8695 C 815.658 1.93485 0.746872 0
M  V30 8696 C 816.083 0.834069 1.68597 0
M  V30 8697 O 815.441 -0.210902 1.80069 0
M  V30 8698 C 815.489 3.28463 1.4881 0
M  V30 8699 O 814.593 3.20051 2.60079 0
M  V30 8700 H 813.934 0.632675 0.201539 0
M  V30 8701 H 816.464 2.046 -0.00329815 0
M  V30 8702 H 816.474 3.63132 1.86009 0
M  V30 8703 H 815.149 4.08147 0.799297 0
M  V30 8704 H 813.726 2.96998 2.25492 0
M  V30 8705 N 815.911 -0.310526 1.54511 0
M  V30 8706 C 817.139 -1.06611 1.77318 0
M  V30 8707 C 817.554 -1.81265 0.528043 0
M  V30 8708 O 816.911 -1.75466 -0.50178 0
M  V30 8709 C 816.962 -2.05409 2.97472 0
M  V30 8710 O 816.683 -1.33785 4.17173 0
M  V30 8711 C 818.184 -2.93082 3.32593 0
M  V30 8712 H 815.404 -0.316578 0.591624 0
M  V30 8713 H 817.948 -0.352691 2.01436 0
M  V30 8714 H 816.103 -2.72266 2.7559 0
M  V30 8715 H 816.517 -2.00055 4.84849 0
M  V30 8716 H 817.991 -3.58274 4.19933 0
M  V30 8717 H 818.468 -3.60877 2.50329 0
M  V30 8718 H 819.074 -2.31768 3.566 0
M  V30 8719 N 817.389 -1.46805 -0.573248 0
M  V30 8720 C 818.666 -1.43082 -1.33368 0
M  V30 8721 C 819.046 -0.119252 -2.10763 0
M  V30 8722 O 818.394 0.899239 -2.10062 0
M  V30 8723 C 818.604 -2.66643 -2.25172 0
M  V30 8724 C 819.952 -3.13188 -2.86702 0
M  V30 8725 O 820.976 -2.67258 -2.35482 0
M  V30 8726 O 819.835 -3.92994 -3.79761 0
M  V30 8727 H 816.929 -0.569451 -0.599712 0
M  V30 8728 H 819.475 -1.58984 -0.59348 0
M  V30 8729 H 818.247 -3.53649 -1.67475 0
M  V30 8730 H 817.87 -2.53247 -3.06516 0
M  V30 8731 N 818.867 0.818669 -1.34668 0
M  V30 8732 C 820.278 1.39177 -1.24446 0
M  V30 8733 C 820.629 1.9578 0.128268 0
M  V30 8734 O 819.754 1.90382 1.02877 0
M  V30 8735 C 820.349 2.53012 -2.25323 0
M  V30 8736 C 818.908 3.06218 -2.18878 0
M  V30 8737 C 818.055 1.79112 -2.11694 0
M  V30 8738 H 821.006 0.622709 -1.45973 0
M  V30 8739 H 821.027 3.31226 -1.8727 0
M  V30 8740 H 820.539 2.11784 -3.25221 0
M  V30 8741 H 818.64 3.51939 -1.22351 0
M  V30 8742 H 818.753 3.65019 -3.10319 0
M  V30 8743 H 817.117 2.0018 -1.57481 0
M  V30 8744 H 817.9 1.40053 -3.13433 0
M  V30 8745 N 820.346 1.18468 1.03938 0
M  V30 8746 C 821.276 0.936389 2.13902 0
M  V30 8747 C 822.257 -0.126381 1.6963 0
M  V30 8748 O 823.442 0.0264757 1.94182 0
M  V30 8749 C 820.572 0.462729 3.44204 0
M  V30 8750 C 819.526 1.46613 4.02105 0
M  V30 8751 C 818.852 0.84994 5.27902 0
M  V30 8752 C 820.152 2.84323 4.3813 0
M  V30 8753 H 821.846 1.85602 2.3493 0
M  V30 8754 H 819.392 0.893806 1.12903 0
M  V30 8755 H 821.345 0.276382 4.20493 0
M  V30 8756 H 820.069 -0.492477 3.22866 0
M  V30 8757 H 818.728 1.63944 3.27899 0
M  V30 8758 H 818.376 -0.112493 5.02874 0
M  V30 8759 H 818.076 1.51988 5.67603 0
M  V30 8760 H 819.6 0.674152 6.06867 0
M  V30 8761 H 821.014 2.70636 5.054 0
M  V30 8762 H 819.411 3.48012 4.88884 0
M  V30 8763 H 820.481 3.37776 3.47901 0
M  V30 8764 N 821.824 -1.22873 0.986916 0
M  V30 8765 C 822.787 -2.2281 0.537442 0
M  V30 8766 C 823.787 -1.56331 -0.37646 0
M  V30 8767 O 824.977 -1.73376 -0.169247 0
M  V30 8768 C 822.109 -3.40195 -0.219082 0
M  V30 8769 H 823.302 -2.64089 1.42116 0
M  V30 8770 H 820.855 -1.35819 0.773488 0
M  V30 8771 H 821.59 -3.04381 -1.11905 0
M  V30 8772 H 821.375 -3.89657 0.437026 0
M  V30 8773 H 822.865 -4.14326 -0.521926 0
M  V30 8774 N 823.302 -0.75937 -1.38099 0
M  V30 8775 C 824.55 -0.317485 -1.99591 0
M  V30 8776 C 824.871 1.10628 -1.60581 0
M  V30 8777 O 824.141 1.7575 -0.865378 0
M  V30 8778 H 822.721 -0.114397 -0.738189 0
M  V30 8779 H 825.383 -0.974749 -1.68774 0
M  V30 8780 H 824.479 -0.385227 -3.09713 0
M  V30 8781 N 824.78 1.49157 -0.508906 0
M  V30 8782 C 825.71 2.32109 0.254469 0
M  V30 8783 C 826.691 1.40754 0.955111 0
M  V30 8784 O 827.876 1.69658 0.944983 0
M  V30 8785 C 825.006 3.21458 1.3146 0
M  V30 8786 C 823.96 4.2167 0.733368 0
M  V30 8787 C 823.286 5.00009 1.8946 0
M  V30 8788 C 824.586 5.21544 -0.280875 0
M  V30 8789 H 826.28 2.9618 -0.43795 0
M  V30 8790 H 823.826 1.4243 -0.212062 0
M  V30 8791 H 825.779 3.78305 1.85643 0
M  V30 8792 H 824.503 2.55346 2.03632 0
M  V30 8793 H 823.162 3.65979 0.213231 0
M  V30 8794 H 822.81 4.30338 2.60419 0
M  V30 8795 H 822.51 5.67821 1.51173 0
M  V30 8796 H 824.034 5.59702 2.44061 0
M  V30 8797 H 825.448 5.73039 0.173095 0
M  V30 8798 H 823.845 5.97291 -0.580006 0
M  V30 8799 H 824.915 4.69969 -1.19404 0
M  V30 8800 N 826.258 0.243083 1.55714 0
M  V30 8801 C 827.504 -0.383287 1.99145 0
M  V30 8802 C 827.837 -1.57868 1.13098 0
M  V30 8803 O 827.112 -1.93535 0.193509 0
M  V30 8804 C 827.395 -0.796879 3.51172 0
M  V30 8805 C 827.248 0.403642 4.47985 0
M  V30 8806 C 828.567 -1.64525 4.08191 0
M  V30 8807 H 825.686 -0.137843 0.723995 0
M  V30 8808 H 828.328 0.343631 1.86867 0
M  V30 8809 H 826.478 -1.41625 3.61766 0
M  V30 8810 H 828.15 1.04204 4.49376 0
M  V30 8811 H 826.393 1.04741 4.20965 0
M  V30 8812 H 827.064 0.0709794 5.51954 0
M  V30 8813 H 829.54 -1.12246 4.00674 0
M  V30 8814 H 828.416 -1.9035 5.14838 0
M  V30 8815 H 828.677 -2.61582 3.56409 0
M  V30 8816 N 827.736 -1.57571 -0.0300757 0
M  V30 8817 C 828.666 -2.0953 -1.03051 0
M  V30 8818 C 829.647 -0.99761 -1.37774 0
M  V30 8819 O 830.832 -1.27279 -1.46676 0
M  V30 8820 C 827.962 -2.57385 -2.33174 0
M  V30 8821 C 826.916 -3.71409 -2.12696 0
M  V30 8822 C 826.242 -4.05467 -3.4857 0
M  V30 8823 C 827.542 -4.99877 -1.51396 0
M  V30 8824 H 829.236 -2.93367 -0.597999 0
M  V30 8825 H 826.782 -1.41127 -0.286203 0
M  V30 8826 H 828.735 -2.92355 -3.03491 0
M  V30 8827 H 827.459 -1.70629 -2.78484 0
M  V30 8828 H 826.118 -3.36786 -1.44813 0
M  V30 8829 H 825.766 -3.15779 -3.91526 0
M  V30 8830 H 825.466 -4.82269 -3.35694 0
M  V30 8831 H 826.99 -4.4297 -4.2025 0
M  V30 8832 H 828.404 -5.3281 -2.11629 0
M  V30 8833 H 826.801 -5.81283 -1.49098 0
M  V30 8834 H 827.871 -4.82522 -0.479676 0
M  V30 8835 N 829.214 0.302327 -1.54673 0
M  V30 8836 C 830.439 1.06103 -1.78205 0
M  V30 8837 C 830.864 1.80204 -0.53926 0
M  V30 8838 O 830.222 1.73975 0.510142 0
M  V30 8839 C 830.27 2.01829 -2.98827 0
M  V30 8840 O 829.374 3.10108 -2.71858 0
M  V30 8841 H 828.715 0.30487 -0.589873 0
M  V30 8842 H 831.245 0.340153 -2.01753 0
M  V30 8843 H 831.255 2.44319 -3.2676 0
M  V30 8844 H 829.93 1.473 -3.88942 0
M  V30 8845 H 828.507 2.72142 -2.54937 0
M  V30 8846 N 830.692 1.47107 0.565454 0
M  V30 8847 C 831.969 1.43787 1.32607 0
M  V30 8848 C 832.349 0.130428 2.10697 0
M  V30 8849 O 831.697 -0.888086 2.10536 0
M  V30 8850 C 831.907 2.67833 2.23755 0
M  V30 8851 C 833.255 3.14704 2.85037 0
M  V30 8852 O 834.279 2.68503 2.34061 0
M  V30 8853 O 833.138 3.95002 3.77671 0
M  V30 8854 H 830.232 0.572623 0.596684 0
M  V30 8855 H 832.778 1.59296 0.58504 0
M  V30 8856 H 831.55 3.54532 1.65597 0
M  V30 8857 H 831.173 2.54869 3.05168 0
M  V30 8858 N 832.17 -0.811516 1.35101 0
M  V30 8859 C 833.118 -1.94449 1.27642 0
M  V30 8860 C 834.112 -1.68522 0.172287 0
M  V30 8861 O 835.318 -1.76799 0.337967 0
M  V30 8862 H 831.693 -0.638776 0.396824 0
M  V30 8863 H 833.664 -1.97861 2.23369 0
M  V30 8864 C 832.413 -3.31139 1.06029 0
M  V30 8865 H 831.736 -3.51644 1.90227 0
M  V30 8866 H 833.176 -4.10831 1.0485 0
M  V30 8867 C 831.635 -3.36072 -0.236039 0
M  V30 8868 O 832.165 -3.82292 -1.23353 0
M  V30 8869 N 830.371 -2.89314 -0.273107 0
M  V30 8870 H 829.918 -2.51893 0.539211 0
M  V30 8871 H 829.876 -2.92996 -1.1402 0
M  V30 8872 N 833.648 -1.19017 -1.03309 0
M  V30 8873 C 834.925 -0.899659 -1.73682 0
M  V30 8874 C 835.305 0.595677 -2.02521 0
M  V30 8875 O 834.653 1.55263 -1.67648 0
M  V30 8876 C 834.863 -1.75508 -3.01659 0
M  V30 8877 C 836.211 -1.98679 -3.75249 0
M  V30 8878 O 837.235 -1.72624 -3.11576 0
M  V30 8879 O 836.094 -2.42587 -4.89708 0
M  V30 8880 H 833.188 -0.334903 -0.756154 0
M  V30 8881 H 835.734 -1.29809 -1.09305 0
M  V30 8882 H 834.506 -2.7684 -2.76542 0
M  V30 8883 H 834.129 -1.35565 -3.73775 0
M  V30 8884 N 835.127 1.22348 -0.993418 0
M  V30 8885 C 836.543 1.43222 -0.704238 0
M  V30 8886 C 836.743 1.88009 0.724909 0
M  V30 8887 O 835.799 2.03429 1.49575 0
M  V30 8888 C 837.112 2.47328 -1.71025 0
M  V30 8889 C 838.66 2.61126 -1.72576 0
M  V30 8890 C 839.135 3.68453 -2.72041 0
M  V30 8891 N 840.626 3.75911 -2.70639 0
M  V30 8892 C 841.361 4.58551 -3.44266 0
M  V30 8893 N 840.857 5.45179 -4.27495 0
M  V30 8894 N 842.65 4.52866 -3.32969 0
M  V30 8895 H 834.801 0.915832 -1.91641 0
M  V30 8896 H 837.064 0.464283 -0.826526 0
M  V30 8897 H 836.77 2.21366 -2.73295 0
M  V30 8898 H 836.644 3.45939 -1.50353 0
M  V30 8899 H 839.031 2.86431 -0.710037 0
M  V30 8900 H 839.112 1.62787 -1.97317 0
M  V30 8901 H 838.756 3.43895 -3.73763 0
M  V30 8902 H 838.686 4.66362 -2.4457 0
M  V30 8903 H 841.177 3.14014 -2.10247 0
M  V30 8904 H 841.49 6.0526 -4.80499 0
M  V30 8905 H 839.835 5.44759 -4.31582 0
M  V30 8906 H 843.026 3.84215 -2.67389 0
M  V30 8907 H 843.199 5.17039 -3.90608 0
M  V30 8908 N 836.605 0.766683 1.37694 0
M  V30 8909 C 837.83 0.338715 2.04615 0
M  V30 8910 C 838.255 -1.02918 1.57447 0
M  V30 8911 O 837.613 -1.65849 0.732386 0
M  V30 8912 C 837.661 0.385284 3.58536 0
M  V30 8913 O 836.765 -0.616081 4.07772 0
M  V30 8914 H 836.106 0.147527 0.647404 0
M  V30 8915 H 838.636 1.04146 1.7611 0
M  V30 8916 H 838.646 0.240782 4.07289 0
M  V30 8917 H 837.321 1.38325 3.92223 0
M  V30 8918 H 835.898 -0.435115 3.70353 0
M  V30 8919 N 838.083 -1.48885 0.516809 0
M  V30 8920 C 839.013 -2.32241 -0.242157 0
M  V30 8921 C 839.994 -1.41258 -0.947633 0
M  V30 8922 O 841.179 -1.70156 -0.935973 0
M  V30 8923 C 838.309 -3.22151 -1.29754 0
M  V30 8924 C 837.263 -4.22053 -0.710995 0
M  V30 8925 C 836.589 -5.01007 -1.86806 0
M  V30 8926 C 837.889 -5.21388 0.30853 0
M  V30 8927 H 839.583 -2.95943 0.453651 0
M  V30 8928 H 837.129 -1.42316 0.219612 0
M  V30 8929 H 839.082 -3.79284 -1.83634 0
M  V30 8930 H 837.806 -2.56423 -2.02274 0
M  V30 8931 H 836.465 -3.66087 -0.193819 0
M  V30 8932 H 836.113 -4.31713 -2.58133 0
M  V30 8933 H 835.813 -5.68615 -1.48159 0
M  V30 8934 H 837.337 -5.60989 -2.4109 0
M  V30 8935 H 838.751 -5.73122 -0.142703 0
M  V30 8936 H 837.148 -5.96975 0.611673 0
M  V30 8937 H 838.218 -4.69329 1.21894 0
M  V30 8938 N 839.561 -0.251338 -1.55583 0
M  V30 8939 C 840.491 0.640437 -2.24545 0
M  V30 8940 C 841.472 1.17781 -1.22726 0
M  V30 8941 O 842.657 1.21633 -1.5139 0
M  V30 8942 C 839.787 1.8355 -2.94834 0
M  V30 8943 C 838.741 1.4307 -4.03379 0
M  V30 8944 C 838.067 2.70695 -4.61116 0
M  V30 8945 C 839.367 0.59848 -5.1886 0
M  V30 8946 H 841.061 0.0653772 -2.99329 0
M  V30 8947 H 838.607 0.0300042 -1.43969 0
M  V30 8948 H 840.56 2.46505 -3.4178 0
M  V30 8949 H 839.284 2.43601 -2.17546 0
M  V30 8950 H 837.943 0.824474 -3.57209 0
M  V30 8951 H 837.591 3.28954 -3.80524 0
M  V30 8952 H 837.291 2.44332 -5.34393 0
M  V30 8953 H 838.815 3.34541 -5.10798 0
M  V30 8954 H 840.229 1.13244 -5.62004 0
M  V30 8955 H 838.626 0.430728 -5.98552 0
M  V30 8956 H 839.696 -0.38829 -4.83343 0
M  V30 8957 N 841.039 1.57585 0.0217189 0
M  V30 8958 C 841.949 2.10444 1.03684 0
M  V30 8959 C 842.965 1.04472 1.39146 0
M  V30 8960 O 844.141 1.36249 1.48317 0
M  V30 8961 C 841.206 2.5794 2.31664 0
M  V30 8962 C 840.267 3.78425 2.02714 0
M  V30 8963 C 839.5 4.23646 3.24592 0
M  V30 8964 O 839.723 3.6834 4.35525 0
M  V30 8965 O 838.657 5.16013 3.09862 0
M  V30 8966 H 842.483 2.97354 0.617584 0
M  V30 8967 H 840.068 1.47473 0.239174 0
M  V30 8968 H 841.95 2.88785 3.06889 0
M  V30 8969 H 840.625 1.74138 2.7287 0
M  V30 8970 H 839.532 3.52587 1.25033 0
M  V30 8971 H 840.865 4.63234 1.66359 0
M  V30 8972 N 842.517 -0.29412 1.54831 0
M  V30 8973 C 843.933 -0.640167 1.46199 0
M  V30 8974 C 844.133 -1.90426 0.658798 0
M  V30 8975 O 843.189 -2.51932 0.169228 0
M  V30 8976 C 844.502 -0.786763 2.90225 0
M  V30 8977 C 846.05 -0.882201 3.0031 0
M  V30 8978 C 846.525 -1.06074 4.45547 0
M  V30 8979 N 848.016 -1.12678 4.49286 0
M  V30 8980 C 848.751 -1.28334 5.58854 0
M  V30 8981 N 848.247 -1.40845 6.78332 0
M  V30 8982 N 850.04 -1.31277 5.46555 0
M  V30 8983 H 842.191 0.536334 2.05517 0
M  V30 8984 H 844.454 0.178363 0.93107 0
M  V30 8985 H 844.16 0.0713018 3.51628 0
M  V30 8986 H 844.034 -1.67364 3.38037 0
M  V30 8987 H 846.421 -1.73075 2.39017 0
M  V30 8988 H 846.502 0.0288405 2.55784 0
M  V30 8989 H 846.146 -0.216935 5.07437 0
M  V30 8990 H 846.076 -1.98611 4.8771 0
M  V30 8991 H 848.567 -1.04335 3.63212 0
M  V30 8992 H 848.88 -1.52566 7.57591 0
M  V30 8993 H 847.225 -1.37888 6.81184 0
M  V30 8994 H 850.416 -1.2112 4.52159 0
M  V30 8995 H 850.589 -1.43136 6.31994 0
M  V30 8996 N 843.995 -1.47404 -0.557645 0
M  V30 8997 C 845.241 -1.55219 -1.31449 0
M  V30 8998 C 845.596 -0.211457 -1.91234 0
M  V30 8999 O 844.889 0.782795 -1.7488 0
M  V30 9000 C 845.083 -2.6061 -2.44575 0
M  V30 9001 C 844.912 -4.048 -1.95875 0
M  V30 9002 C 843.682 -4.72252 -1.79738 0
M  V30 9003 C 845.88 -4.91833 -1.50348 0
M  V30 9004 N 843.862 -6.00962 -1.25372 0
M  V30 9005 C 845.233 -6.10566 -1.07745 0
M  V30 9006 C 847.288 -4.78279 -1.38396 0
M  V30 9007 C 845.991 -7.17242 -0.543767 0
M  V30 9008 C 848.017 -5.8505 -0.864293 0
M  V30 9009 C 847.379 -7.02973 -0.44818 0
M  V30 9010 H 843.478 -0.622694 -0.47305 0
M  V30 9011 H 846.062 -1.84152 -0.632144 0
M  V30 9012 H 844.233 -2.33545 -3.10341 0
M  V30 9013 H 845.965 -2.5827 -3.11574 0
M  V30 9014 H 842.72 -4.28153 -2.0244 0
M  V30 9015 H 843.144 -6.69532 -1.00278 0
M  V30 9016 H 847.786 -3.87477 -1.69179 0
M  V30 9017 H 845.504 -8.07791 -0.223563 0
M  V30 9018 H 849.09 -5.7661 -0.775371 0
M  V30 9019 H 847.97 -7.84183 -0.0522964 0
M  V30 9020 N 845.473 0.80434 -1.35529 0
M  V30 9021 C 846.701 1.59283 -1.32048 0
M  V30 9022 C 847.116 1.88527 0.101556 0
M  V30 9023 O 846.473 1.48975 1.05417 0
M  V30 9024 C 846.524 2.92276 -2.12737 0
M  V30 9025 O 846.245 2.64299 -3.49396 0
M  V30 9026 C 847.746 3.86631 -2.16867 0
M  V30 9027 H 844.966 0.494523 -0.453528 0
M  V30 9028 H 847.51 0.999415 -1.78415 0
M  V30 9029 H 845.665 3.48125 -1.69964 0
M  V30 9030 H 846.079 3.4923 -3.91329 0
M  V30 9031 H 847.553 4.77053 -2.77712 0
M  V30 9032 H 848.03 4.23384 -1.16803 0
M  V30 9033 H 848.636 3.36717 -2.59811 0
M  V30 9034 N 846.951 1.19563 1.02676 0
M  V30 9035 C 848.367 0.948304 1.28372 0
M  V30 9036 C 848.567 -0.378096 1.97921 0
M  V30 9037 O 847.623 -1.1091 2.26838 0
M  V30 9038 C 848.936 2.12381 2.12873 0
M  V30 9039 C 850.484 2.16366 2.26174 0
M  V30 9040 C 850.959 3.33374 3.14048 0
M  V30 9041 N 852.45 3.33323 3.21636 0
M  V30 9042 C 853.185 4.20504 3.89825 0
M  V30 9043 N 852.681 5.17845 4.60227 0
M  V30 9044 N 854.474 4.08375 3.86246 0
M  V30 9045 H 846.625 2.04899 0.559485 0
M  V30 9046 H 848.888 0.89606 0.309484 0
M  V30 9047 H 848.594 3.08383 1.69094 0
M  V30 9048 H 848.468 2.09621 3.1359 0
M  V30 9049 H 850.855 1.20933 2.69182 0
M  V30 9050 H 850.936 2.23179 1.25 0
M  V30 9051 H 850.58 4.29087 2.71747 0
M  V30 9052 H 850.51 3.23798 4.15286 0
M  V30 9053 H 853.001 2.62863 2.71498 0
M  V30 9054 H 853.314 5.80712 5.09896 0
M  V30 9055 H 851.659 5.21791 4.59085 0
M  V30 9056 H 854.85 3.31606 3.30386 0
M  V30 9057 H 855.023 4.76532 4.39114 0
M  V30 9058 N 848.429 -1.21819 0.999893 0
M  V30 9059 C 849.362 -2.22635 0.500887 0
M  V30 9060 C 850.34 -1.56459 -0.442636 0
M  V30 9061 O 851.524 -1.84902 -0.366551 0
M  V30 9062 C 848.651 -3.37598 -0.273046 0
M  V30 9063 C 847.697 -4.22006 0.617511 0
M  V30 9064 S 848.53 -4.93583 2.07693 0
M  V30 9065 C 849.686 -6.1198 1.31269 0
M  V30 9066 H 849.919 -2.64618 1.35516 0
M  V30 9067 H 847.452 -1.31606 0.807419 0
M  V30 9068 H 849.41 -4.04251 -0.713515 0
M  V30 9069 H 848.071 -2.94108 -1.10268 0
M  V30 9070 H 847.264 -5.03995 0.0216543 0
M  V30 9071 H 846.866 -3.6052 0.99504 0
M  V30 9072 H 849.158 -6.74979 0.583933 0
M  V30 9073 H 850.101 -6.75991 2.10811 0
M  V30 9074 H 850.509 -5.5847 0.822901 0
M  V30 9075 N 849.908 -0.773975 -1.37286 0
M  V30 9076 C 850.871 -0.167974 -2.28584 0
M  V30 9077 C 851.871 0.625662 -1.48129 0
M  V30 9078 O 853.061 0.448924 -1.68316 0
M  V30 9079 C 850.193 0.769364 -3.32105 0
M  V30 9080 H 851.386 -0.972806 -2.83684 0
M  V30 9081 H 848.939 -0.542335 -1.46589 0
M  V30 9082 H 849.674 1.59912 -2.82132 0
M  V30 9083 H 849.459 0.202419 -3.91577 0
M  V30 9084 H 850.949 1.18872 -4.00324 0
M  V30 9085 N 851.386 1.48609 -0.524698 0
M  V30 9086 C 852.802 1.58557 -0.182199 0
M  V30 9087 C 853.002 1.52732 1.31435 0
M  V30 9088 O 852.058 1.41362 2.0922 0
M  V30 9089 C 853.371 2.90406 -0.78004 0
M  V30 9090 C 854.919 3.03924 -0.748293 0
M  V30 9091 C 855.394 4.38427 -1.32462 0
M  V30 9092 N 856.885 4.4498 -1.28635 0
M  V30 9093 C 857.62 5.47551 -1.70223 0
M  V30 9094 N 857.116 6.57103 -2.19515 0
M  V30 9095 N 858.909 5.38402 -1.61493 0
M  V30 9096 H 851.06 1.50638 -1.4974 0
M  V30 9097 H 853.323 0.714952 -0.622533 0
M  V30 9098 H 853.029 3.00308 -1.83052 0
M  V30 9099 H 852.903 3.76343 -0.254075 0
M  V30 9100 H 855.29 2.93638 0.293407 0
M  V30 9101 H 855.371 2.19611 -1.31167 0
M  V30 9102 H 855.015 4.49466 -2.36522 0
M  V30 9103 H 854.945 5.21418 -0.736967 0
M  V30 9104 H 857.436 3.66393 -0.92545 0
M  V30 9105 H 857.749 7.31499 -2.49257 0
M  V30 9106 H 856.094 6.58081 -2.23506 0
M  V30 9107 H 859.285 4.5171 -1.22785 0
M  V30 9108 H 859.458 6.18208 -1.94225 0
M  V30 9109 N 852.864 0.259585 1.55447 0
M  V30 9110 C 854.275 -0.241165 1.85136 0
M  V30 9111 C 854.626 -1.56634 1.18153 0
M  V30 9112 O 853.751 -2.11359 0.464351 0
M  V30 9113 C 854.346 -0.444355 3.35873 0
M  V30 9114 C 852.905 -0.889354 3.65742 0
M  V30 9115 C 852.052 0.0262474 2.77288 0
M  V30 9116 H 855.003 0.481808 1.51209 0
M  V30 9117 H 855.024 -1.28517 3.58139 0
M  V30 9118 H 854.536 0.520289 3.84597 0
M  V30 9119 H 852.637 -1.86602 3.22507 0
M  V30 9120 H 852.75 -0.737432 4.73391 0
M  V30 9121 H 851.114 -0.487361 2.49994 0
M  V30 9122 H 851.897 0.986494 3.28821 0
M  V30 9123 N 854.342 -1.57594 -0.0133615 0
M  V30 9124 C 855.305 -2.06534 -0.993799 0
M  V30 9125 C 856.305 -0.972267 -1.28077 0
M  V30 9126 O 857.495 -1.23537 -1.22818 0
M  V30 9127 C 854.627 -2.49554 -2.3224 0
M  V30 9128 H 855.82 -2.94419 -0.570741 0
M  V30 9129 H 853.373 -1.54113 -0.260546 0
M  V30 9130 H 854.108 -1.64872 -2.79263 0
M  V30 9131 H 853.893 -3.29371 -2.12737 0
M  V30 9132 H 855.383 -2.8779 -3.026 0
M  V30 9133 N 855.82 0.285905 -1.54985 0
M  V30 9134 C 856.783 1.33625 -1.86218 0
M  V30 9135 C 857.783 1.42971 -0.735936 0
M  V30 9136 O 858.973 1.42345 -1.00417 0
M  V30 9137 C 856.105 2.71926 -2.05595 0
M  V30 9138 H 857.298 1.07167 -2.80099 0
M  V30 9139 H 854.851 0.523335 -1.47278 0
M  V30 9140 H 855.586 3.03583 -1.14053 0
M  V30 9141 H 855.371 2.6653 -2.87583 0
M  V30 9142 H 856.861 3.47841 -2.31077 0
M  V30 9143 N 857.298 1.47698 0.54982 0
M  V30 9144 C 858.709 1.48474 1.13191 0
M  V30 9145 C 859.06 0.243504 1.94683 0
M  V30 9146 O 858.185 -0.651009 2.06375 0
M  V30 9147 C 858.78 2.69022 2.05944 0
M  V30 9148 C 857.339 2.72733 2.5941 0
M  V30 9149 C 856.486 2.41691 1.35944 0
M  V30 9150 H 859.437 1.55101 0.336048 0
M  V30 9151 H 859.458 2.46412 2.89934 0
M  V30 9152 H 858.97 3.59345 1.46605 0
M  V30 9153 H 857.071 1.86568 3.22526 0
M  V30 9154 H 857.184 3.73628 2.99899 0
M  V30 9155 H 855.548 1.92428 1.66864 0
M  V30 9156 H 856.331 3.34231 0.783869 0
M  V30 9157 N 858.776 -0.797141 1.35954 0
M  V30 9158 C 859.739 -1.89104 1.29508 0
M  V30 9159 C 860.739 -1.59495 0.204444 0
M  V30 9160 O 861.929 -1.68051 0.458746 0
M  V30 9161 C 859.061 -3.25726 1.00576 0
M  V30 9162 H 860.254 -1.96237 2.26785 0
M  V30 9163 H 857.807 -0.994075 1.20614 0
M  V30 9164 H 858.542 -3.24279 0.0372519 0
M  V30 9165 H 858.327 -3.48604 1.79492 0
M  V30 9166 H 859.817 -4.0578 0.986508 0
M  V30 9167 N 860.254 -1.20106 -1.0204 0
M  V30 9168 C 861.184 -0.970301 -2.12385 0
M  V30 9169 C 862.165 0.099378 -1.69809 0
M  V30 9170 O 863.35 -0.057365 -1.94115 0
M  V30 9171 C 860.48 -0.517431 -3.43424 0
M  V30 9172 C 859.434 -1.52992 -3.99722 0
M  V30 9173 C 858.76 -0.933817 -5.26483 0
M  V30 9174 C 860.06 -2.91257 -4.33551 0
M  V30 9175 H 861.754 -1.89316 -2.31948 0
M  V30 9176 H 859.3 -0.911655 -1.11467 0
M  V30 9177 H 861.253 -0.343243 -4.2 0
M  V30 9178 H 859.977 0.441049 -3.23608 0
M  V30 9179 H 858.636 -1.6914 -3.2525 0
M  V30 9180 H 858.284 0.0324763 -5.0299 0
M  V30 9181 H 857.984 -1.60999 -5.65113 0
M  V30 9182 H 859.508 -0.770614 -6.05718 0
M  V30 9183 H 860.922 -2.78642 -5.0103 0
M  V30 9184 H 859.319 -3.55745 -4.83286 0
M  V30 9185 H 860.389 -3.43269 -3.42483 0
M  V30 9186 N 861.732 1.21287 -1.00634 0
M  V30 9187 C 862.96 1.94385 -0.708678 0
M  V30 9188 C 863.375 1.7416 0.728957 0
M  V30 9189 O 862.732 1.04906 1.49335 0
M  V30 9190 C 862.783 3.46755 -1.02193 0
M  V30 9191 O 862.504 3.6631 -2.40309 0
M  V30 9192 C 864.005 4.37014 -0.743867 0
M  V30 9193 H 861.225 0.618136 -0.261052 0
M  V30 9194 H 863.769 1.54067 -1.34475 0
M  V30 9195 H 861.924 3.8499 -0.431441 0
M  V30 9196 H 862.338 4.60393 -2.51274 0
M  V30 9197 H 863.812 5.42621 -1.01321 0
M  V30 9198 H 864.289 4.38017 0.322084 0
M  V30 9199 H 864.895 4.04426 -1.31603 0
M  V30 9200 N 863.21 0.781244 1.36873 0
M  V30 9201 C 864.435 0.360398 2.04245 0
M  V30 9202 C 864.86 -1.01242 1.58529 0
M  V30 9203 O 864.218 -1.65063 0.749936 0
M  V30 9204 C 864.266 0.42329 3.58107 0
M  V30 9205 O 863.37 -0.572796 4.08403 0
M  V30 9206 H 862.711 0.154386 0.645803 0
M  V30 9207 H 865.241 1.06008 1.74996 0
M  V30 9208 H 865.251 0.283967 4.07011 0
M  V30 9209 H 863.926 1.42477 3.90734 0
M  V30 9210 H 862.503 -0.395809 3.70793 0
M  V30 9211 N 864.689 -1.48329 0.532571 0
M  V30 9212 C 865.935 -2.028 -0.000583219 0
M  V30 9213 C 866.268 -1.40858 -1.33688 0
M  V30 9214 O 865.543 -0.555261 -1.86406 0
M  V30 9215 C 865.826 -3.59901 -0.119846 0
M  V30 9216 C 865.679 -4.32318 1.2418 0
M  V30 9217 C 866.998 -4.31904 -0.845372 0
M  V30 9218 H 864.117 -0.736999 0.00126205 0
M  V30 9219 H 866.759 -1.77024 0.690102 0
M  V30 9220 H 864.909 -3.81993 -0.708092 0
M  V30 9221 H 866.581 -4.21637 1.87136 0
M  V30 9222 H 864.824 -3.93635 1.82301 0
M  V30 9223 H 865.495 -5.40697 1.11132 0
M  V30 9224 H 867.971 -4.14658 -0.346159 0
M  V30 9225 H 866.847 -5.41509 -0.897723 0
M  V30 9226 H 867.108 -3.99369 -1.89622 0
M  V30 9227 N 866.167 -0.267825 -1.55308 0
M  V30 9228 C 867.578 0.231344 -1.85261 0
M  V30 9229 C 867.929 1.56006 -1.18982 0
M  V30 9230 O 867.054 2.1111 -0.475554 0
M  V30 9231 C 867.649 0.426537 -3.36104 0
M  V30 9232 C 866.208 0.869945 -3.66209 0
M  V30 9233 C 865.355 -0.0409522 -2.7727 0
M  V30 9234 H 868.306 -0.489821 -1.50952 0
M  V30 9235 H 868.327 1.26616 -3.58816 0
M  V30 9236 H 867.839 -0.540678 -3.84315 0
M  V30 9237 H 865.94 1.84889 -3.23492 0
M  V30 9238 H 866.053 0.712316 -4.73775 0
M  V30 9239 H 864.417 0.474097 -2.50249 0
M  V30 9240 H 865.2 -1.00392 -3.28293 0
M  V30 9241 N 867.645 1.57599 0.00500368 0
M  V30 9242 C 868.608 2.07058 0.982832 0
M  V30 9243 C 869.608 0.979045 1.27559 0
M  V30 9244 O 870.798 1.24187 1.22161 0
M  V30 9245 C 867.93 2.50782 2.30914 0
M  V30 9246 H 869.123 2.94718 0.555119 0
M  V30 9247 H 866.676 1.54249 0.25237 0
M  V30 9248 H 867.411 1.66351 2.78385 0
M  V30 9249 H 867.196 3.30495 2.10987 0
M  V30 9250 H 868.686 2.89391 3.0107 0
M  V30 9251 N 869.123 -0.277682 1.55134 0
M  V30 9252 C 870.534 -0.849063 1.66276 0
M  V30 9253 C 870.885 -1.87223 0.5867 0
M  V30 9254 O 870.01 -2.14676 -0.272635 0
M  V30 9255 C 870.605 -1.54681 3.01429 0
M  V30 9256 C 869.164 -2.06628 3.14614 0
M  V30 9257 C 868.311 -0.906748 2.62056 0
M  V30 9258 H 871.262 -0.0541357 1.58608 0
M  V30 9259 H 871.283 -2.41356 2.94156 0
M  V30 9260 H 870.795 -0.80189 3.79725 0
M  V30 9261 H 868.896 -2.84095 2.41082 0
M  V30 9262 H 869.009 -2.2848 4.2111 0
M  V30 9263 H 867.373 -1.29882 2.19095 0
M  V30 9264 H 868.156 -0.175414 3.42852 0
M  V30 9265 N 870.601 -1.47988 -0.541979 0
M  V30 9266 C 871.564 -1.61148 -1.62984 0
M  V30 9267 C 872.564 -0.48553 -1.53295 0
M  V30 9268 O 873.754 -0.751012 -1.5718 0
M  V30 9269 C 870.886 -1.57038 -3.02576 0
M  V30 9270 H 872.079 -2.58138 -1.52659 0
M  V30 9271 H 869.632 -1.36405 -0.763106 0
M  V30 9272 H 870.367 -0.614807 -3.18419 0
M  V30 9273 H 870.152 -2.38769 -3.11018 0
M  V30 9274 H 871.642 -1.69416 -3.81691 0
M  V30 9275 N 872.079 0.78992 -1.36375 0
M  V30 9276 C 873.49 1.36506 -1.2737 0
M  V30 9277 C 873.841 1.96008 0.086711 0
M  V30 9278 O 872.966 1.92521 0.988159 0
M  V30 9279 C 873.561 2.48175 -2.30639 0
M  V30 9280 C 872.12 3.01506 -2.25325 0
M  V30 9281 C 871.267 1.74581 -2.15445 0
M  V30 9282 H 874.218 0.591606 -1.47261 0
M  V30 9283 H 874.239 3.27179 -1.94253 0
M  V30 9284 H 873.751 2.04838 -3.2964 0
M  V30 9285 H 871.852 3.49265 -1.29788 0
M  V30 9286 H 871.965 3.58355 -3.17992 0
M  V30 9287 H 870.329 1.96794 -1.61692 0
M  V30 9288 H 871.112 1.33373 -3.16333 0
M  V30 9289 N 873.557 1.20646 1.01402 0
M  V30 9290 C 874.52 0.959314 2.08158 0
M  V30 9291 C 875.52 -0.0661558 1.60664 0
M  V30 9292 O 876.71 0.170177 1.73367 0
M  V30 9293 C 873.842 0.444785 3.37986 0
M  V30 9294 H 875.035 1.90631 2.31517 0
M  V30 9295 H 872.588 1.02219 1.18241 0
M  V30 9296 H 873.323 -0.507553 3.20304 0
M  V30 9297 H 873.108 1.18435 3.73785 0
M  V30 9298 H 874.598 0.291443 4.16582 0
M  V30 9299 N 875.035 -1.20752 1.01276 0
M  V30 9300 C 876.446 -1.7175 0.732033 0
M  V30 9301 C 876.797 -1.8131 -0.749733 0
M  V30 9302 O 875.922 -1.47301 -1.58529 0
M  V30 9303 C 876.517 -3.11936 1.32217 0
M  V30 9304 C 875.076 -3.6026 1.09039 0
M  V30 9305 C 874.223 -2.37571 1.43022 0
M  V30 9306 H 877.174 -1.0582 1.1827 0
M  V30 9307 H 877.195 -3.73802 0.710771 0
M  V30 9308 H 876.707 -3.04946 2.40061 0
M  V30 9309 H 874.808 -3.72588 0.0294464 0
M  V30 9310 H 874.921 -4.45295 1.76775 0
M  V30 9311 H 873.285 -2.40128 0.849159 0
M  V30 9312 H 874.068 -2.33225 2.51915 0
M  V30 9313 N 876.513 -0.788492 -1.36457 0
M  V30 9314 C 877.741 -0.372365 -2.03522 0
M  V30 9315 C 878.156 1.01093 -1.59454 0
M  V30 9316 O 877.513 1.64824 -0.783535 0
M  V30 9317 C 877.564 -0.425435 -3.58988 0
M  V30 9318 O 877.285 -1.75418 -4.01448 0
M  V30 9319 C 878.786 0.000180167 -4.433 0
M  V30 9320 H 876.006 -0.1536 -0.653183 0
M  V30 9321 H 878.55 -1.06708 -1.74452 0
M  V30 9322 H 876.705 0.220856 -3.8677 0
M  V30 9323 H 877.119 -1.70437 -4.96036 0
M  V30 9324 H 878.593 -0.0880919 -5.5193 0
M  V30 9325 H 879.07 1.05269 -4.26398 0
M  V30 9326 H 879.676 -0.618563 -4.20778 0
M  V30 9327 N 877.991 1.48044 -0.54043 0
M  V30 9328 C 879.402 1.86418 -0.102662 0
M  V30 9329 C 879.753 1.4489 1.32293 0
M  V30 9330 O 878.878 0.844319 1.99249 0
M  V30 9331 C 879.473 3.38324 -0.179533 0
M  V30 9332 C 878.032 3.75852 0.203098 0
M  V30 9333 C 877.179 2.72097 -0.534637 0
M  V30 9334 H 880.13 1.398 -0.751103 0
M  V30 9335 H 880.151 3.75641 0.606147 0
M  V30 9336 H 879.663 3.68518 -1.21721 0
M  V30 9337 H 877.764 3.51272 1.24252 0
M  V30 9338 H 877.877 4.78884 -0.143784 0
M  V30 9339 H 876.241 2.54692 0.0203358 0
M  V30 9340 H 877.024 3.05135 -1.57314 0
M  V30 9341 N 879.47 0.276058 1.55163 0
M  V30 9342 C 880.698 -0.343772 2.04024 0
M  V30 9343 C 881.113 -1.49397 1.15438 0
M  V30 9344 O 880.47 -1.81662 0.174692 0
M  V30 9345 C 880.521 -0.823885 3.51986 0
M  V30 9346 O 880.242 0.280507 4.37201 0
M  V30 9347 C 881.743 -1.51143 4.16738 0
M  V30 9348 H 878.963 -0.07828 0.666418 0
M  V30 9349 H 881.507 0.408427 2.0038 0
M  V30 9350 H 879.662 -1.52617 3.56071 0
M  V30 9351 H 880.076 -0.0887831 5.24425 0
M  V30 9352 H 881.55 -1.79878 5.2187 0
M  V30 9353 H 882.027 -2.44327 3.64967 0
M  V30 9354 H 882.633 -0.852975 4.16659 0
M  V30 9355 N 880.948 -1.576 0.00335426 0
M  V30 9356 C 882.359 -1.7875 -0.539008 0
M  V30 9357 C 882.71 -0.911097 -1.73763 0
M  V30 9358 O 881.835 -0.114476 -2.16097 0
M  V30 9359 C 882.43 -3.24177 -0.984611 0
M  V30 9360 C 880.989 -3.46412 -1.47226 0
M  V30 9361 C 880.136 -2.74024 -0.425004 0
M  V30 9362 H 883.087 -1.57032 0.229511 0
M  V30 9363 H 883.108 -3.32474 -1.85044 0
M  V30 9364 H 882.62 -3.87938 -0.112035 0
M  V30 9365 H 880.721 -2.8787 -2.36562 0
M  V30 9366 H 880.834 -4.55098 -1.49741 0
M  V30 9367 H 879.198 -2.38741 -0.887394 0
M  V30 9368 H 879.981 -3.40486 0.438662 0
M  V30 9369 N 882.426 0.269451 -1.5528 0
M  V30 9370 C 883.654 1.01872 -1.80082 0
M  V30 9371 C 884.069 1.79802 -0.575917 0
M  V30 9372 O 883.426 1.76735 0.455081 0
M  V30 9373 C 883.477 1.9745 -3.02813 0
M  V30 9374 O 883.198 1.22677 -4.20573 0
M  V30 9375 C 884.699 2.8416 -3.40247 0
M  V30 9376 H 881.919 0.300781 -0.59981 0
M  V30 9377 H 884.463 0.29916 -2.023 0
M  V30 9378 H 882.618 2.64864 -2.82712 0
M  V30 9379 H 883.032 1.87129 -4.89982 0
M  V30 9380 H 884.506 3.47014 -4.29284 0
M  V30 9381 H 884.983 3.54113 -2.59809 0
M  V30 9382 H 885.589 2.22232 -3.6262 0
M  V30 9383 N 883.904 1.48273 0.534124 0
M  V30 9384 C 885.315 1.49667 1.1161 0
M  V30 9385 C 885.666 0.264139 1.94414 0
M  V30 9386 O 884.791 -0.629084 2.07054 0
M  V30 9387 C 885.386 2.71191 2.03079 0
M  V30 9388 C 883.945 2.7547 2.56502 0
M  V30 9389 C 883.092 2.43119 1.33373 0
M  V30 9390 H 886.043 1.55449 0.319578 0
M  V30 9391 H 886.064 2.49473 2.87304 0
M  V30 9392 H 885.576 3.60879 1.42785 0
M  V30 9393 H 883.677 1.89979 3.20529 0
M  V30 9394 H 883.79 3.76787 2.95919 0
M  V30 9395 H 882.154 1.94187 1.64813 0
M  V30 9396 H 882.937 3.35044 0.748375 0
M  V30 9397 N 885.382 -0.782676 1.36792 0
M  V30 9398 C 886.628 -1.54311 1.3159 0
M  V30 9399 C 886.961 -1.93928 -0.102696 0
M  V30 9400 O 886.236 -1.63233 -1.05761 0
M  V30 9401 C 886.519 -2.81561 2.24489 0
M  V30 9402 C 886.372 -2.48268 3.75078 0
M  V30 9403 C 887.691 -3.83428 2.16034 0
M  V30 9404 H 884.81 -0.559828 0.479335 0
M  V30 9405 H 887.452 -0.898717 1.67401 0
M  V30 9406 H 885.602 -3.36549 1.9408 0
M  V30 9407 H 887.274 -1.99279 4.16036 0
M  V30 9408 H 885.517 -1.81116 3.94182 0
M  V30 9409 H 886.188 -3.39183 4.35499 0
M  V30 9410 H 888.664 -3.37905 2.42815 0
M  V30 9411 H 887.54 -4.70204 2.83194 0
M  V30 9412 H 887.801 -4.26887 1.14976 0
M  V30 9413 N 886.86 -1.21182 -1.00761 0
M  V30 9414 C 887.792 -0.926523 -2.09638 0
M  V30 9415 C 888.805 0.0892511 -1.62555 0
M  V30 9416 O 889.994 -0.142915 -1.77927 0
M  V30 9417 C 887.094 -0.369175 -3.36883 0
M  V30 9418 C 886.267 -1.43866 -4.13063 0
M  V30 9419 C 885.326 -0.891015 -5.18601 0
M  V30 9420 O 884.352 -1.57384 -5.47009 0
M  V30 9421 N 885.554 0.295057 -5.7975 0
M  V30 9422 H 888.319 -1.8638 -2.34697 0
M  V30 9423 H 885.88 -1.11671 -1.17223 0
M  V30 9424 H 887.872 0.011534 -4.04698 0
M  V30 9425 H 886.442 0.472861 -3.09003 0
M  V30 9426 H 885.662 -1.99332 -3.40089 0
M  V30 9427 H 886.95 -2.15866 -4.60738 0
M  V30 9428 H 886.348 0.8669 -5.59018 0
M  V30 9429 H 884.905 0.617306 -6.4887 0
M  V30 9430 N 888.338 1.20213 -1.01915 0
M  V30 9431 C 889.749 1.7136 -0.741131 0
M  V30 9432 C 890.1 1.81705 0.740107 0
M  V30 9433 O 889.225 1.48139 1.57746 0
M  V30 9434 C 889.82 3.11231 -1.33869 0
M  V30 9435 C 888.379 3.59677 -1.10948 0
M  V30 9436 C 887.526 2.36809 -1.4428 0
M  V30 9437 H 890.477 1.05191 -1.1883 0
M  V30 9438 H 890.498 3.7342 -0.730585 0
M  V30 9439 H 890.01 3.03669 -2.41675 0
M  V30 9440 H 888.111 3.72568 -0.0492052 0
M  V30 9441 H 888.224 4.44351 -1.79134 0
M  V30 9442 H 886.588 2.39674 -0.861881 0
M  V30 9443 H 887.371 2.31886 -2.53148 0
M  V30 9444 N 889.816 0.795718 1.36037 0
M  V30 9445 C 891.044 0.383153 2.03321 0
M  V30 9446 C 891.459 -1.00246 1.59988 0
M  V30 9447 O 890.816 -1.64406 0.792265 0
M  V30 9448 C 890.867 0.444467 3.58757 0
M  V30 9449 O 890.588 1.77544 4.00512 0
M  V30 9450 C 892.089 0.0233291 4.43294 0
M  V30 9451 H 889.309 0.157061 0.652359 0
M  V30 9452 H 891.853 1.07632 1.73884 0
M  V30 9453 H 890.008 -0.200341 3.86882 0
M  V30 9454 H 890.422 1.73065 4.95125 0
M  V30 9455 H 891.896 0.117361 5.51875 0
M  V30 9456 H 892.373 -1.03007 4.2695 0
M  V30 9457 H 892.979 0.64087 4.20444 0
M  V30 9458 N 891.294 -1.47756 0.548274 0
M  V30 9459 C 892.519 -2.07387 0.023475 0
M  V30 9460 C 892.944 -1.39956 -1.25674 0
M  V30 9461 O 892.302 -0.471543 -1.7506 0
M  V30 9462 C 892.35 -3.60224 -0.164669 0
M  V30 9463 O 891.454 -3.93653 -1.22928 0
M  V30 9464 H 890.795 -0.662312 0.0473156 0
M  V30 9465 H 893.325 -1.89905 0.761409 0
M  V30 9466 H 893.335 -4.06211 -0.38166 0
M  V30 9467 H 892.01 -4.08702 0.770425 0
M  V30 9468 H 890.587 -3.59422 -0.993495 0
M  V30 9469 N 892.772 -0.284283 -1.55015 0
M  V30 9470 C 894.183 0.211681 -1.85496 0
M  V30 9471 C 894.534 1.54735 -1.2063 0
M  V30 9472 O 893.659 2.10594 -0.497918 0
M  V30 9473 C 894.254 0.390864 -3.36538 0
M  V30 9474 C 892.813 0.831055 -3.67111 0
M  V30 9475 C 891.96 -0.0703581 -2.77211 0
M  V30 9476 H 894.911 -0.505803 -1.50424 0
M  V30 9477 H 894.932 1.22803 -3.60138 0
M  V30 9478 H 894.444 -0.581409 -3.8372 0
M  V30 9479 H 892.545 1.81447 -3.25434 0
M  V30 9480 H 892.658 0.662026 -4.74504 0
M  V30 9481 H 891.022 0.447528 -2.50737 0
M  V30 9482 H 891.805 -1.03868 -3.2721 0
M  V30 9483 N 894.251 1.57596 -0.0117121 0
M  V30 9484 C 895.662 1.79033 0.529521 0
M  V30 9485 C 896.013 0.920299 1.73277 0
M  V30 9486 O 895.138 0.125934 2.16033 0
M  V30 9487 C 895.733 3.24695 0.967405 0
M  V30 9488 C 894.292 3.47188 1.45387 0
M  V30 9489 C 893.439 2.74245 0.410466 0
M  V30 9490 H 896.39 1.56908 -0.237836 0
M  V30 9491 H 896.411 3.33451 1.83278 0
M  V30 9492 H 895.923 3.87992 0.0914605 0
M  V30 9493 H 894.024 2.89121 2.35032 0
M  V30 9494 H 894.137 4.55886 1.47325 0
M  V30 9495 H 892.501 2.39209 0.874721 0
M  V30 9496 H 893.284 3.40248 -0.456713 0
M  V30 9497 N 895.729 -0.261212 1.5542 0
M  V30 9498 C 897.14 -0.83138 1.67167 0
M  V30 9499 C 897.491 -1.8659 0.606525 0
M  V30 9500 O 896.616 -2.14953 -0.24985 0
M  V30 9501 C 897.211 -1.51475 3.03052 0
M  V30 9502 C 895.77 -2.0328 3.16787 0
M  V30 9503 C 894.917 -0.878903 2.63003 0
M  V30 9504 H 897.868 -0.0373102 1.58656 0
M  V30 9505 H 897.889 -2.38222 2.96699 0
M  V30 9506 H 897.401 -0.76157 3.80554 0
M  V30 9507 H 895.502 -2.81523 2.44082 0
M  V30 9508 H 895.615 -2.24001 4.2351 0
M  V30 9509 H 893.979 -1.27551 2.2046 0
M  V30 9510 H 894.762 -0.13904 3.43018 0
M  V30 9511 N 897.207 -1.48554 -0.526253 0
M  V30 9512 C 898.455 -1.56452 -1.27935 0
M  V30 9513 C 898.776 -0.24184 -1.93495 0
M  V30 9514 O 898.046 0.736917 -1.81511 0
M  V30 9515 H 896.626 -0.576379 -0.47518 0
M  V30 9516 H 899.288 -1.85039 -0.612083 0
M  V30 9517 H 898.384 -2.34751 -2.05666 0
M  V30 9518 N 898.685 0.775411 -1.37205 0
M  V30 9519 C 900.096 1.35147 -1.28811 0
M  V30 9520 C 900.447 1.96089 0.0659168 0
M  V30 9521 O 899.572 1.93558 0.967684 0
M  V30 9522 C 900.167 2.45715 -2.33258 0
M  V30 9523 C 898.726 2.99099 -2.2851 0
M  V30 9524 C 897.873 1.72286 -2.17285 0
M  V30 9525 H 900.824 0.575954 -1.4788 0
M  V30 9526 H 900.845 3.251 -1.97712 0
M  V30 9527 H 900.357 2.01331 -3.31795 0
M  V30 9528 H 898.458 3.47868 -1.33485 0
M  V30 9529 H 898.571 3.54962 -3.21774 0
M  V30 9530 H 896.935 1.95068 -1.6377 0
M  V30 9531 H 897.718 1.3001 -3.1773 0
M  V30 9532 N 900.163 1.21714 1.00117 0
M  V30 9533 C 901.409 1.03823 1.74208 0
M  V30 9534 C 901.742 -0.426733 1.89454 0
M  V30 9535 O 901.017 -1.31658 1.43166 0
M  V30 9536 C 901.3 1.74047 3.15246 0
M  V30 9537 C 901.153 3.28087 3.077 0
M  V30 9538 C 902.472 1.48614 4.14249 0
M  V30 9539 H 899.591 0.378573 0.632338 0
M  V30 9540 H 902.233 1.49942 1.16694 0
M  V30 9541 H 900.383 1.3484 3.64349 0
M  V30 9542 H 902.055 3.76686 2.6628 0
M  V30 9543 H 900.298 3.58191 2.44707 0
M  V30 9544 H 900.969 3.72392 4.07466 0
M  V30 9545 H 903.445 1.82656 3.73866 0
M  V30 9546 H 902.321 2.00257 5.11066 0
M  V30 9547 H 902.582 0.416957 4.40129 0
M  V30 9548 N 901.641 -1.19671 1.02551 0
M  V30 9549 C 902.604 -2.20987 0.608055 0
M  V30 9550 C 903.604 -1.5745 -0.326534 0
M  V30 9551 O 904.794 -1.73827 -0.114003 0
M  V30 9552 C 901.926 -3.4072 -0.11074 0
M  V30 9553 H 903.119 -2.59434 1.50446 0
M  V30 9554 H 900.672 -1.3329 0.816307 0
M  V30 9555 H 901.407 -3.07787 -1.02165 0
M  V30 9556 H 901.192 -3.88069 0.560772 0
M  V30 9557 H 902.682 -4.15776 -0.389848 0
M  V30 9558 N 903.119 -0.802921 -1.35613 0
M  V30 9559 C 904.051 -0.168461 -2.2858 0
M  V30 9560 C 905.064 0.630123 -1.50111 0
M  V30 9561 O 906.253 0.463086 -1.72388 0
M  V30 9562 C 903.353 0.783943 -3.29708 0
M  V30 9563 C 902.526 0.0325165 -4.37388 0
M  V30 9564 C 901.585 0.902859 -5.18396 0
M  V30 9565 O 900.611 0.355144 -5.68091 0
M  V30 9566 N 901.813 2.22542 -5.36149 0
M  V30 9567 H 904.578 -0.96709 -2.83668 0
M  V30 9568 H 902.139 -0.658043 -1.47924 0
M  V30 9569 H 904.131 1.37034 -3.80794 0
M  V30 9570 H 902.701 1.48339 -2.75162 0
M  V30 9571 H 901.921 -0.735057 -3.87286 0
M  V30 9572 H 903.209 -0.485499 -5.06478 0
M  V30 9573 H 902.607 2.69439 -4.97412 0
M  V30 9574 H 901.164 2.76113 -5.90428 0
M  V30 9575 N 904.597 1.47463 -0.556102 0
M  V30 9576 C 906.008 1.86298 -0.122429 0
M  V30 9577 C 906.359 1.46285 1.30749 0
M  V30 9578 O 905.484 0.865405 1.98342 0
M  V30 9579 C 906.079 3.38115 -0.215407 0
M  V30 9580 C 904.638 3.76046 0.163223 0
M  V30 9581 C 903.785 2.71515 -0.563466 0
M  V30 9582 H 906.736 1.38996 -0.765888 0
M  V30 9583 H 906.757 3.76263 0.566271 0
M  V30 9584 H 906.269 3.67207 -1.25622 0
M  V30 9585 H 904.37 3.5257 1.20519 0
M  V30 9586 H 904.483 4.78705 -0.194568 0
M  V30 9587 H 902.847 2.54699 -0.00667879 0
M  V30 9588 H 903.63 3.03449 -1.60542 0
M  V30 9589 N 906.075 0.2925 1.54862 0
M  V30 9590 C 907.303 -0.322113 2.04377 0
M  V30 9591 C 907.718 -1.48164 1.17016 0
M  V30 9592 O 907.075 -1.81466 0.19395 0
M  V30 9593 C 907.126 -0.786506 3.5284 0
M  V30 9594 O 906.847 0.326863 4.36879 0
M  V30 9595 C 908.348 -1.46715 4.18318 0
M  V30 9596 H 905.568 -0.0712074 0.667211 0
M  V30 9597 H 908.112 0.429657 1.99935 0
M  V30 9598 H 906.267 -1.48832 3.5767 0
M  V30 9599 H 906.681 -0.0331558 5.2449 0
M  V30 9600 H 908.155 -1.74333 5.23748 0
M  V30 9601 H 908.632 -2.40443 3.67538 0
M  V30 9602 H 909.238 -0.808735 4.1754 0
M  V30 9603 N 907.553 -1.57587 0.0200696 0
M  V30 9604 C 908.801 -1.91046 -0.65922 0
M  V30 9605 C 909.122 -0.896197 -1.73186 0
M  V30 9606 O 908.392 0.0635952 -1.95797 0
M  V30 9607 H 906.972 -0.705163 -0.246483 0
M  V30 9608 H 909.634 -1.94789 0.0657368 0
M  V30 9609 H 908.73 -2.91399 -1.11773 0
M  V30 9610 N 909.032 0.252966 -1.55557 0
M  V30 9611 C 910.443 0.822503 -1.67606 0
M  V30 9612 C 910.794 1.86265 -0.616411 0
M  V30 9613 O 909.919 2.15082 0.238447 0
M  V30 9614 C 910.514 1.49866 -3.03852 0
M  V30 9615 C 909.073 2.01597 -3.17861 0
M  V30 9616 C 908.22 0.864943 -2.63465 0
M  V30 9617 H 911.171 0.0288958 -1.58674 0
M  V30 9618 H 911.192 2.36646 -2.97958 0
M  V30 9619 H 910.704 0.741378 -3.80953 0
M  V30 9620 H 908.805 2.80224 -2.45571 0
M  V30 9621 H 908.918 2.21752 -4.24692 0
M  V30 9622 H 907.282 1.2638 -2.21134 0
M  V30 9623 H 908.065 0.120847 -3.43087 0
M  V30 9624 N 910.51 1.48831 0.518367 0
M  V30 9625 C 911.442 1.60317 1.63802 0
M  V30 9626 C 912.455 0.486771 1.55352 0
M  V30 9627 O 913.644 0.758111 1.61601 0
M  V30 9628 C 910.744 1.52771 3.02513 0
M  V30 9629 C 909.917 2.79649 3.36326 0
M  V30 9630 C 908.976 2.65396 4.54369 0
M  V30 9631 O 908.002 3.39304 4.57013 0
M  V30 9632 N 909.204 1.75784 5.53245 0
M  V30 9633 H 911.969 2.56878 1.54383 0
M  V30 9634 H 909.53 1.45701 0.705889 0
M  V30 9635 H 911.522 1.40914 3.79375 0
M  V30 9636 H 910.092 0.641381 3.05949 0
M  V30 9637 H 909.312 3.05985 2.48529 0
M  V30 9638 H 910.6 3.63799 3.55707 0
M  V30 9639 H 909.998 1.14961 5.53896 0
M  V30 9640 H 908.555 1.69859 6.29278 0
M  V30 9641 N 911.988 -0.768124 1.37614 0
M  V30 9642 C 913.399 -1.34462 1.29525 0
M  V30 9643 C 913.75 -1.96121 -0.0555168 0
M  V30 9644 O 912.875 -1.94069 -0.957406 0
M  V30 9645 C 913.47 -2.44475 2.34558 0
M  V30 9646 C 912.029 -2.97883 2.30093 0
M  V30 9647 C 911.176 -1.71131 2.18196 0
M  V30 9648 H 914.127 -0.568103 1.48183 0
M  V30 9649 H 914.148 -3.24047 1.99434 0
M  V30 9650 H 913.66 -1.99568 3.32858 0
M  V30 9651 H 911.761 -3.47156 1.35328 0
M  V30 9652 H 911.874 -3.53251 3.23652 0
M  V30 9653 H 910.238 -1.94197 1.64802 0
M  V30 9654 H 911.021 -1.28323 3.18415 0
M  V30 9655 N 913.466 -1.22244 -0.994698 0
M  V30 9656 C 914.398 -0.948706 -2.08644 0
M  V30 9657 C 915.411 0.0720049 -1.62641 0
M  V30 9658 O 916.6 -0.161778 -1.77765 0
M  V30 9659 C 913.7 -0.404885 -3.36473 0
M  V30 9660 C 912.873 -1.48239 -4.11514 0
M  V30 9661 C 911.932 -0.94597 -5.17627 0
M  V30 9662 O 910.958 -1.63177 -5.45309 0
M  V30 9663 N 912.16 0.23355 -5.8003 0
M  V30 9664 H 914.925 -1.88858 -2.32707 0
M  V30 9665 H 912.486 -1.12908 -1.16032 0
M  V30 9666 H 914.478 -0.0313903 -4.04688 0
M  V30 9667 H 913.048 0.440061 -3.09487 0
M  V30 9668 H 912.268 -2.02928 -3.37955 0
M  V30 9669 H 913.556 -2.20741 -4.58422 0
M  V30 9670 H 912.954 0.80756 -5.59906 0
M  V30 9671 H 911.511 0.54845 -6.49488 0
M  V30 9672 N 914.944 1.19125 -1.03184 0
M  V30 9673 C 916.169 1.93379 -0.749628 0
M  V30 9674 C 916.594 1.75153 0.685785 0
M  V30 9675 O 915.952 1.05579 1.47386 0
M  V30 9676 C 916 3.43101 -1.1097 0
M  V30 9677 O 915.104 4.11758 -0.230053 0
M  V30 9678 H 914.445 0.603605 -0.276689 0
M  V30 9679 H 916.975 1.51116 -1.37931 0
M  V30 9680 H 916.985 3.93778 -1.06785 0
M  V30 9681 H 915.66 3.55688 -2.15544 0
M  V30 9682 H 914.237 3.7143 -0.330748 0
M  V30 9683 N 916.422 0.810101 1.35185 0
M  V30 9684 C 917.385 0.22852 2.28058 0
M  V30 9685 C 918.385 -0.586168 1.49735 0
M  V30 9686 O 919.575 -0.40414 1.69447 0
M  V30 9687 C 916.707 -0.681041 3.34028 0
M  V30 9688 H 917.9 1.04768 2.81005 0
M  V30 9689 H 915.453 0.58101 1.451 0
M  V30 9690 H 916.188 -1.52375 2.86273 0
M  V30 9691 H 915.973 -0.0985276 3.91976 0
M  V30 9692 H 917.463 -1.08217 4.03335 0
M  V30 9693 N 917.9 -1.47166 0.563914 0
M  V30 9694 C 919.148 -2.02056 0.0422873 0
M  V30 9695 C 919.469 -1.43992 -1.31497 0
M  V30 9696 O 918.739 -0.617578 -1.85911 0
M  V30 9697 H 917.319 -0.746893 0.0126427 0
M  V30 9698 H 919.981 -1.80492 0.735441 0
M  V30 9699 H 919.077 -3.12073 -0.0408044 0
M  V30 9700 N 919.378 -0.300708 -1.54705 0
M  V30 9701 C 920.603 0.314073 -2.05008 0
M  V30 9702 C 921.028 1.46759 -1.17657 0
M  V30 9703 O 920.386 1.80398 -0.180598 0
M  V30 9704 C 920.434 0.748243 -3.52752 0
M  V30 9705 O 919.538 1.85305 -3.68424 0
M  V30 9706 H 918.879 0.0610139 -0.661191 0
M  V30 9707 H 921.409 -0.442467 -1.99758 0
M  V30 9708 H 921.419 1.03713 -3.94598 0
M  V30 9709 H 920.094 -0.095573 -4.1579 0
M  V30 9710 H 918.671 1.56473 -3.38483 0
M  V30 9711 N 920.856 1.57574 -0.0284266 0
M  V30 9712 C 922.084 1.96071 0.660575 0
M  V30 9713 C 922.499 0.904881 1.65703 0
M  V30 9714 O 921.856 -0.113379 1.82147 0
M  V30 9715 C 921.907 3.34634 1.36756 0
M  V30 9716 O 921.628 4.36167 0.411041 0
M  V30 9717 C 923.129 3.87758 2.14845 0
M  V30 9718 H 920.349 0.645794 0.182183 0
M  V30 9719 H 922.893 2.04311 -0.0879858 0
M  V30 9720 H 921.048 3.27616 2.06753 0
M  V30 9721 H 921.462 5.16493 0.913 0
M  V30 9722 H 922.936 4.87058 2.59767 0
M  V30 9723 H 923.413 3.21967 2.9872 0
M  V30 9724 H 924.019 3.98043 1.49807 0
M  V30 9725 N 922.334 -0.244713 1.55689 0
M  V30 9726 C 923.559 -0.994157 1.8202 0
M  V30 9727 C 923.984 -1.78079 0.60577 0
M  V30 9728 O 923.342 -1.75748 -0.445221 0
M  V30 9729 C 923.39 -1.90599 3.06111 0
M  V30 9730 O 922.494 -2.99804 2.8318 0
M  V30 9731 H 921.835 -0.282767 0.600782 0
M  V30 9732 H 924.365 -0.26504 2.02876 0
M  V30 9733 H 924.375 -2.32023 3.35603 0
M  V30 9734 H 923.05 -1.32763 3.9414 0
M  V30 9735 H 921.627 -2.62493 2.64862 0
M  V30 9736 N 923.813 -1.49104 -0.510467 0
M  V30 9737 C 925.061 -1.578 -1.26268 0
M  V30 9738 C 925.382 -0.262349 -1.93227 0
M  V30 9739 O 924.652 0.717624 -1.82283 0
M  V30 9740 H 923.232 -0.581387 -0.46904 0
M  V30 9741 H 925.894 -1.85678 -0.592423 0
M  V30 9742 H 924.99 -2.36919 -2.03165 0
M  V30 9743 N 925.291 0.760815 -1.38019 0
M  V30 9744 C 926.702 1.33773 -1.30237 0
M  V30 9745 C 927.053 1.96148 0.0451153 0
M  V30 9746 O 926.178 1.94574 0.9471 0
M  V30 9747 C 926.773 2.43227 -2.35851 0
M  V30 9748 C 925.332 2.96659 -2.31669 0
M  V30 9749 C 924.479 1.69972 -2.191 0
M  V30 9750 H 927.43 0.560237 -1.48482 0
M  V30 9751 H 927.451 3.22985 -2.01149 0
M  V30 9752 H 926.963 1.978 -3.33911 0
M  V30 9753 H 925.064 3.46433 -1.37167 0
M  V30 9754 H 925.177 3.51529 -3.25521 0
M  V30 9755 H 923.541 1.9332 -1.65829 0
M  V30 9756 H 924.324 1.26633 -3.19091 0
M  V30 9757 N 926.769 1.22769 0.988202 0
M  V30 9758 C 928.015 1.05665 1.73097 0
M  V30 9759 C 928.348 -0.406615 1.89895 0
M  V30 9760 O 927.623 -1.30132 1.44554 0
M  V30 9761 C 927.906 1.77381 3.13382 0
M  V30 9762 C 927.759 3.31332 3.04203 0
M  V30 9763 C 929.078 1.52999 4.12649 0
M  V30 9764 H 926.197 0.385258 0.628288 0
M  V30 9765 H 928.839 1.51171 1.15097 0
M  V30 9766 H 926.989 1.38696 3.62899 0
M  V30 9767 H 928.661 3.79489 2.6227 0
M  V30 9768 H 926.904 3.60767 2.40894 0
M  V30 9769 H 927.575 3.76692 4.03493 0
M  V30 9770 H 930.051 1.86611 3.71908 0
M  V30 9771 H 928.927 2.05666 5.08913 0
M  V30 9772 H 929.188 0.463615 4.39662 0
M  V30 9773 N 928.247 -1.18576 1.03814 0
M  V30 9774 C 929.658 -1.70159 0.768299 0
M  V30 9775 C 930.009 -1.8286 -0.711106 0
M  V30 9776 O 929.134 -1.5063 -1.55369 0
M  V30 9777 C 929.729 -3.09062 1.38804 0
M  V30 9778 C 928.288 -3.57866 1.16656 0
M  V30 9779 C 927.435 -2.34484 1.48029 0
M  V30 9780 H 930.386 -1.03287 1.20488 0
M  V30 9781 H 930.407 -3.72211 0.7899 0
M  V30 9782 H 929.919 -2.99785 2.46476 0
M  V30 9783 H 928.02 -3.72442 0.108471 0
M  V30 9784 H 928.133 -4.41445 1.8618 0
M  V30 9785 H 926.497 -2.38273 0.899902 0
M  V30 9786 H 927.28 -2.27829 2.56805 0
M  V30 9787 N 929.725 -0.817259 -1.34754 0
M  V30 9788 C 930.657 -0.192695 -2.28389 0
M  V30 9789 C 931.67 0.614167 -1.50771 0
M  V30 9790 O 932.859 0.444776 -1.7287 0
M  V30 9791 C 929.959 0.748929 -3.30521 0
M  V30 9792 C 929.132 -0.0138762 -4.37398 0
M  V30 9793 C 928.191 0.847825 -5.19325 0
M  V30 9794 O 927.217 0.29487 -5.68436 0
M  V30 9795 N 928.419 2.16843 -5.38479 0
M  V30 9796 H 931.184 -0.997122 -2.82626 0
M  V30 9797 H 928.745 -0.673696 -1.47217 0
M  V30 9798 H 930.737 1.32987 -3.82226 0
M  V30 9799 H 929.307 1.45412 -2.7672 0
M  V30 9800 H 928.527 -0.776093 -3.86485 0
M  V30 9801 H 929.815 -0.539191 -5.05935 0
M  V30 9802 H 929.213 2.64148 -5.00242 0
M  V30 9803 H 927.77 2.69835 -5.93323 0
M  V30 9804 N 931.203 1.46865 -0.571711 0
M  V30 9805 C 932.614 1.86158 -0.142181 0
M  V30 9806 C 932.965 1.47663 1.2919 0
M  V30 9807 O 932.09 0.886393 1.97413 0
M  V30 9808 C 932.685 3.37867 -0.251256 0
M  V30 9809 C 931.244 3.76198 0.123329 0
M  V30 9810 C 930.391 2.70902 -0.592232 0
M  V30 9811 H 933.342 1.38176 -0.780587 0
M  V30 9812 H 933.363 3.76842 0.526331 0
M  V30 9813 H 932.875 3.65853 -1.2951 0
M  V30 9814 H 930.976 3.53829 1.16773 0
M  V30 9815 H 931.089 4.78471 -0.24533 0
M  V30 9816 H 929.453 2.54678 -0.0336927 0
M  V30 9817 H 930.236 3.01729 -1.63751 0
M  V30 9818 N 932.681 0.308908 1.54543 0
M  V30 9819 C 933.644 -0.550857 2.22482 0
M  V30 9820 C 934.644 -1.0551 1.21344 0
M  V30 9821 O 935.834 -0.949866 1.46025 0
M  V30 9822 C 932.966 -1.76354 2.9174 0
M  V30 9823 H 934.159 0.0428395 2.99869 0
M  V30 9824 H 931.712 0.059825 1.56185 0
M  V30 9825 H 932.447 -2.39686 2.18451 0
M  V30 9826 H 932.232 -1.40954 3.65889 0
M  V30 9827 H 933.722 -2.37417 3.43545 0
M  V30 9828 N 934.159 -1.57557 0.0367827 0
M  V30 9829 C 935.399 -1.93981 -0.644252 0
M  V30 9830 C 935.763 -0.913982 -1.6885 0
M  V30 9831 O 936.964 -1.16468 -2.42257 0
M  V30 9832 C 935.235 -3.35281 -1.23779 0
M  V30 9833 S 936.794 -3.93643 -1.93883 0
M  V30 9834 H 933.612 -0.678683 -0.21192 0
M  V30 9835 H 936.214 -1.95232 0.102281 0
M  V30 9836 H 934.918 -4.07752 -0.465451 0
M  V30 9837 H 934.449 -3.37492 -2.02146 0
M  V30 9838 H 936.464 -3.777 -3.21803 0
M  V30 9839 N 935.637 0.236453 -1.55816 0
M  V30 9840 C 937.048 0.80468 -1.68469 0
M  V30 9841 C 937.399 1.85601 -0.636133 0
M  V30 9842 O 936.524 2.15323 0.215622 0
M  V30 9843 C 937.119 1.46634 -3.05424 0
M  V30 9844 C 935.678 1.98214 -3.19981 0
M  V30 9845 C 934.825 0.83695 -2.64368 0
M  V30 9846 H 937.776 0.0120647 -1.58695 0
M  V30 9847 H 937.797 2.33472 -3.00451 0
M  V30 9848 H 937.309 0.700931 -3.81718 0
M  V30 9849 H 935.41 2.77604 -2.4853 0
M  V30 9850 H 935.523 2.17235 -4.2702 0
M  V30 9851 H 933.887 1.24028 -2.22462 0
M  V30 9852 H 934.67 0.084451 -3.43196 0
M  V30 9853 N 937.115 1.49373 0.502552 0
M  V30 9854 C 938.526 1.52 1.0841 0
M  V30 9855 C 938.877 0.305317 1.9381 0
M  V30 9856 O 938.002 -0.585023 2.08342 0
M  V30 9857 C 938.597 2.75437 1.97281 0
M  V30 9858 C 937.156 2.80848 2.50602 0
M  V30 9859 C 936.303 2.45894 1.28186 0
M  V30 9860 H 939.254 1.56092 0.286533 0
M  V30 9861 H 939.275 2.55511 2.81947 0
M  V30 9862 H 938.787 3.63827 1.35098 0
M  V30 9863 H 936.888 1.96735 3.16427 0
M  V30 9864 H 937.001 3.82979 2.8786 0
M  V30 9865 H 935.365 1.97639 1.60657 0
M  V30 9866 H 936.148 3.36556 0.677139 0
M  V30 9867 N 938.594 -0.753485 1.38421 0
M  V30 9868 C 940.005 -1.33081 1.30944 0
M  V30 9869 C 940.356 -1.96169 -0.0347124 0
M  V30 9870 O 939.481 -1.95073 -0.936768 0
M  V30 9871 C 940.076 -2.41973 2.37138 0
M  V30 9872 C 938.635 -2.95426 2.33239 0
M  V30 9873 C 937.782 -1.68808 2.19998 0
M  V30 9874 H 940.733 -0.552354 1.48777 0
M  V30 9875 H 940.754 -3.21913 2.02859 0
M  V30 9876 H 940.266 -1.96027 3.34956 0
M  V30 9877 H 938.367 -3.45701 1.39003 0
M  V30 9878 H 938.48 -3.49798 3.27381 0
M  V30 9879 H 936.844 -1.92438 1.66852 0
M  V30 9880 H 937.627 -1.24939 3.19758 0
M  V30 9881 N 940.072 -1.23292 -0.981677 0
M  V30 9882 C 941.32 -1.06214 -1.71939 0
M  V30 9883 C 941.641 0.401989 -1.90812 0
M  V30 9884 O 940.911 1.28825 -1.47584 0
M  V30 9885 H 939.491 -0.390042 -0.637084 0
M  V30 9886 H 942.153 -1.54988 -1.18173 0
M  V30 9887 H 941.249 -1.54904 -2.70945 0
M  V30 9888 N 941.55 1.18024 -1.04442 0
M  V30 9889 C 942.961 1.69749 -0.777312 0
M  V30 9890 C 943.312 1.83234 0.701399 0
M  V30 9891 O 942.437 1.51452 1.54568 0
M  V30 9892 C 943.032 3.08321 -1.40441 0
M  V30 9893 C 941.591 3.57243 -1.18553 0
M  V30 9894 C 940.738 2.33695 -1.49271 0
M  V30 9895 H 943.689 1.02647 -1.21035 0
M  V30 9896 H 943.71 3.71787 -0.809628 0
M  V30 9897 H 943.222 2.98474 -2.48062 0
M  V30 9898 H 941.323 3.72379 -0.128221 0
M  V30 9899 H 941.436 4.40451 -1.88519 0
M  V30 9900 H 939.8 2.37792 -0.912526 0
M  V30 9901 H 940.583 2.26464 -2.5801 0
M  V30 9902 N 943.028 0.824394 1.34319 0
M  V30 9903 C 943.991 0.252696 2.27803 0
M  V30 9904 C 944.991 -0.570254 1.50349 0
M  V30 9905 O 946.181 -0.386145 1.69866 0
M  V30 9906 C 943.313 -0.645575 3.34731 0
M  V30 9907 H 944.506 1.07742 2.79878 0
M  V30 9908 H 942.059 0.596367 1.44475 0
M  V30 9909 H 942.794 -1.4933 2.87873 0
M  V30 9910 H 942.579 -0.0569478 3.92059 0
M  V30 9911 H 944.069 -1.03933 4.0446 0
M  V30 9912 N 944.506 -1.46559 0.579492 0
M  V30 9913 C 945.917 -1.8608 0.152052 0
M  V30 9914 C 946.268 -1.48346 -1.28405 0
M  V30 9915 O 945.393 -0.89685 -1.9694 0
M  V30 9916 C 945.988 -3.37729 0.269171 0
M  V30 9917 C 944.547 -3.76258 -0.103376 0
M  V30 9918 C 943.694 -2.70584 0.60659 0
M  V30 9919 H 946.645 -1.3776 0.787904 0
M  V30 9920 H 946.666 -3.77116 -0.506339 0
M  V30 9921 H 946.178 -3.65162 1.31448 0
M  V30 9922 H 944.279 -3.54443 -1.14895 0
M  V30 9923 H 944.392 -4.78335 0.270701 0
M  V30 9924 H 942.756 -2.54656 0.0471984 0
M  V30 9925 H 943.539 -3.00856 1.65349 0
M  V30 9926 N 945.984 -0.3171 -1.54377 0
M  V30 9927 C 946.934 0.567199 -2.20832 0
M  V30 9928 C 947.918 1.08661 -1.18666 0
M  V30 9929 O 949.11 1.0247 -1.44322 0
M  V30 9930 C 946.239 1.73079 -2.96477 0
M  V30 9931 C 945.325 1.22658 -4.05975 0
M  V30 9932 N 945.716 0.441565 -5.03869 0
M  V30 9933 C 944.014 1.50589 -4.19808 0
M  V30 9934 C 944.715 0.171063 -5.81448 0
M  V30 9935 N 943.691 0.755389 -5.38326 0
M  V30 9936 H 947.493 -0.0399349 -2.93873 0
M  V30 9937 H 945.007 -0.122639 -1.61936 0
M  V30 9938 H 947.004 2.37601 -3.42566 0
M  V30 9939 H 945.664 2.34146 -2.24957 0
M  V30 9940 H 946.675 0.0849921 -5.1783 0
M  V30 9941 H 943.352 2.12288 -3.595 0
M  V30 9942 H 944.742 -0.460484 -6.7032 0
M  V30 9943 N 947.462 1.57535 -0.0451378 0
M  V30 9944 C 948.873 1.80116 0.491426 0
M  V30 9945 C 949.224 0.956846 1.71286 0
M  V30 9946 O 948.349 0.17173 2.15718 0
M  V30 9947 C 948.944 3.26674 0.898315 0
M  V30 9948 C 947.503 3.50194 1.37989 0
M  V30 9949 C 946.65 2.75054 0.352202 0
M  V30 9950 H 949.601 1.56368 -0.271065 0
M  V30 9951 H 949.622 3.37263 1.76164 0
M  V30 9952 H 949.134 3.88099 0.009141 0
M  V30 9953 H 947.235 2.94041 2.28846 0
M  V30 9954 H 947.348 4.58909 1.37622 0
M  V30 9955 H 945.712 2.4101 0.823784 0
M  V30 9956 H 946.495 3.39203 -0.528782 0
M  V30 9957 N 948.94 -0.228186 1.55939 0
M  V30 9958 C 950.168 -0.970618 1.8272 0
M  V30 9959 C 950.583 -1.78212 0.623385 0
M  V30 9960 O 949.94 -1.77879 -0.408063 0
M  V30 9961 C 949.991 -1.89352 3.07942 0
M  V30 9962 O 949.712 -1.11483 4.23678 0
M  V30 9963 C 951.213 -2.75039 3.47661 0
M  V30 9964 H 948.433 -0.284772 0.607574 0
M  V30 9965 H 950.977 -0.245419 2.03022 0
M  V30 9966 H 949.132 -2.57275 2.89635 0
M  V30 9967 H 949.546 -1.74073 4.94772 0
M  V30 9968 H 951.02 -3.35511 4.38334 0
M  V30 9969 H 951.497 -3.471 2.69106 0
M  V30 9970 H 952.103 -2.1254 3.68384 0
M  V30 9971 N 950.418 -1.49637 -0.494624 0
M  V30 9972 C 951.666 -1.5913 -1.24587 0
M  V30 9973 C 951.987 -0.282828 -1.92938 0
M  V30 9974 O 951.257 0.69825 -1.83034 0
M  V30 9975 H 949.837 -0.586329 -0.462847 0
M  V30 9976 H 952.499 -1.86296 -0.572696 0
M  V30 9977 H 951.595 -2.3906 -2.00641 0
M  V30 9978 N 951.896 0.746133 -1.38819 0
M  V30 9979 C 953.307 1.32384 -1.31648 0
M  V30 9980 C 953.658 1.96185 0.0243086 0
M  V30 9981 O 952.783 1.95567 0.92641 0
M  V30 9982 C 953.378 2.40712 -2.38418 0
M  V30 9983 C 951.937 2.94185 -2.34803 0
M  V30 9984 C 951.084 1.67639 -2.20891 0
M  V30 9985 H 954.035 0.544457 -1.49068 0
M  V30 9986 H 954.056 3.20833 -2.04564 0
M  V30 9987 H 953.568 1.94247 -3.3599 0
M  V30 9988 H 951.669 3.44959 -1.40834 0
M  V30 9989 H 951.782 3.48057 -3.29231 0
M  V30 9990 H 950.146 1.9155 -1.67871 0
M  V30 9991 H 950.929 1.23242 -3.20416 0
M  V30 9992 N 953.375 1.23811 0.975125 0
M  V30 9993 C 954.786 1.0675 1.53171 0
M  V30 9994 C 955.137 -0.363475 1.92804 0
M  V30 9995 O 954.262 -1.25089 1.76583 0
M  V30 9996 C 954.857 1.93161 2.78342 0
M  V30 9997 C 953.416 1.80346 3.30382 0
M  V30 9998 C 952.563 1.88544 2.03338 0
M  V30 9999 H 955.514 1.37396 0.79423 0
M  V30 10000 H 955.535 1.45951 3.51395 0
M  V30 10001 H 955.047 2.97302 2.49465 0
M  V30 10002 H 953.148 0.790077 3.64127 0
M  V30 10003 H 953.261 2.64026 3.99784 0
M  V30 10004 H 951.625 1.32186 2.17713 0
M  V30 10005 H 952.408 2.94252 1.76836 0
M  V30 10006 N 954.853 -1.17469 1.05066 0
M  V30 10007 C 956.101 -1.87327 0.758485 0
M  V30 10008 C 956.422 -1.81358 -0.716549 0
M  V30 10009 O 955.692 -1.23868 -1.51768 0
M  V30 10010 H 954.272 -0.693512 0.277579 0
M  V30 10011 H 956.934 -1.4251 1.32954 0
M  V30 10012 H 956.03 -2.93101 1.0723 0
M  V30 10013 N 956.331 -0.831506 -1.3388 0
M  V30 10014 C 957.742 -0.481375 -1.80388 0
M  V30 10015 C 958.093 0.998993 -1.68863 0
M  V30 10016 O 957.218 1.77795 -1.2336 0
M  V30 10017 C 957.813 -0.86699 -3.27519 0
M  V30 10018 C 956.372 -0.569105 -3.72073 0
M  V30 10019 C 955.519 -1.07929 -2.55434 0
M  V30 10020 H 958.47 -1.02089 -1.21505 0
M  V30 10021 H 958.491 -0.174128 -3.80101 0
M  V30 10022 H 958.003 -1.94447 -3.35875 0
M  V30 10023 H 956.104 0.498607 -3.69249 0
M  V30 10024 H 956.217 -1.11918 -4.65845 0
M  V30 10025 H 954.581 -0.500465 -2.49735 0
M  V30 10026 H 955.364 -2.16339 -2.66556 0
M  V30 10027 N 957.809 1.4625 -0.587256 0
M  V30 10028 C 959.058 2.01571 -0.0722643 0
M  V30 10029 C 959.371 1.46385 1.29733 0
M  V30 10030 O 960.577 1.93554 1.90392 0
M  V30 10031 C 959.033 3.59814 -0.078579 0
M  V30 10032 C 958.641 4.23996 -1.44678 0
M  V30 10033 C 960.385 4.22776 0.382231 0
M  V30 10034 C 958.292 5.74332 -1.41057 0
M  V30 10035 H 957.222 0.753642 -0.0232461 0
M  V30 10036 H 959.873 1.67936 -0.739577 0
M  V30 10037 H 958.255 3.90546 0.654988 0
M  V30 10038 H 959.429 4.04867 -2.20043 0
M  V30 10039 H 957.744 3.73147 -1.84799 0
M  V30 10040 H 960.341 5.32983 0.428182 0
M  V30 10041 H 960.684 3.92027 1.40072 0
M  V30 10042 H 961.217 3.96687 -0.297417 0
M  V30 10043 H 957.956 6.09747 -2.40601 0
M  V30 10044 H 957.476 5.95711 -0.699185 0
M  V30 10045 H 959.155 6.37137 -1.12543 0
M  V30 10046 N 959.287 0.325282 1.54207 0
M  V30 10047 C 960.698 -0.162426 1.85992 0
M  V30 10048 C 961.049 -1.51482 1.2469 0
M  V30 10049 O 960.174 -2.092 0.553578 0
M  V30 10050 C 960.769 -0.3015 3.37456 0
M  V30 10051 C 959.328 -0.73343 3.69185 0
M  V30 10052 C 958.475 0.143831 2.76927 0
M  V30 10053 H 961.426 0.545508 1.4903 0
M  V30 10054 H 961.447 -1.13212 3.63268 0
M  V30 10055 H 960.959 0.682942 3.82044 0
M  V30 10056 H 959.06 -1.72755 3.30131 0
M  V30 10057 H 959.173 -0.535987 4.76092 0
M  V30 10058 H 957.537 -0.380892 2.51836 0
M  V30 10059 H 958.32 1.12507 3.24341 0
M  V30 10060 N 960.765 -1.57509 0.0534917 0
M  V30 10061 C 962.011 -1.93068 -0.62069 0
M  V30 10062 C 962.344 -0.932313 -1.70357 0
M  V30 10063 O 961.619 0.0413393 -1.94456 0
M  V30 10064 C 961.902 -3.38997 -1.21463 0
M  V30 10065 C 961.755 -4.49583 -0.13965 0
M  V30 10066 C 963.074 -3.85366 -2.12558 0
M  V30 10067 H 960.193 -0.702083 -0.224163 0
M  V30 10068 H 962.835 -1.89647 0.115729 0
M  V30 10069 H 960.985 -3.42043 -1.84226 0
M  V30 10070 H 962.657 -4.58664 0.492411 0
M  V30 10071 H 960.9 -4.30525 0.532006 0
M  V30 10072 H 961.571 -5.48781 -0.595287 0
M  V30 10073 H 964.047 -3.8421 -1.59755 0
M  V30 10074 H 962.923 -4.8812 -2.51058 0
M  V30 10075 H 963.184 -3.22256 -3.02661 0
M  V30 10076 N 962.243 0.219913 -1.56058 0
M  V30 10077 C 963.654 0.786766 -1.69313 0
M  V30 10078 C 964.005 1.84916 -0.655782 0
M  V30 10079 O 963.13 2.1554 0.192772 0
M  V30 10080 C 963.725 1.43387 -3.06962 0
M  V30 10081 C 962.284 1.94809 -3.22066 0
M  V30 10082 C 961.431 0.808863 -2.65241 0
M  V30 10083 H 964.382 -0.00476777 -1.58699 0
M  V30 10084 H 964.403 2.30272 -3.02911 0
M  V30 10085 H 963.915 0.660405 -3.8244 0
M  V30 10086 H 962.016 2.74952 -2.5146 0
M  V30 10087 H 962.129 2.12694 -4.293 0
M  V30 10088 H 960.493 1.21661 -2.23765 0
M  V30 10089 H 961.276 0.0480458 -3.43266 0
M  V30 10090 N 963.721 1.49897 0.486681 0
M  V30 10091 C 964.684 1.67086 1.56891 0
M  V30 10092 C 965.684 0.54209 1.51387 0
M  V30 10093 O 966.874 0.80883 1.54284 0
M  V30 10094 C 964.006 1.68159 2.96539 0
M  V30 10095 H 965.199 2.63626 1.42974 0
M  V30 10096 H 962.752 1.39143 0.711954 0
M  V30 10097 H 963.487 0.732562 3.15918 0
M  V30 10098 H 963.272 2.50147 3.01942 0
M  V30 10099 H 964.762 1.83466 3.7514 0
M  V30 10100 N 965.199 -0.738761 1.39212 0
M  V30 10101 C 966.61 -1.31684 1.32348 0
M  V30 10102 C 966.961 -1.96195 -0.0139041 0
M  V30 10103 O 966.086 -1.96056 -0.916025 0
M  V30 10104 C 966.681 -2.39444 2.39691 0
M  V30 10105 C 965.24 -2.92935 2.36359 0
M  V30 10106 C 964.387 -1.66465 2.21776 0
M  V30 10107 H 967.338 -0.536543 1.49355 0
M  V30 10108 H 967.359 -3.19744 2.06262 0
M  V30 10109 H 966.871 -1.92463 3.37016 0
M  V30 10110 H 964.972 -3.44207 1.42662 0
M  V30 10111 H 965.085 -3.46306 3.31073 0
M  V30 10112 H 963.449 -1.90657 1.68884 0
M  V30 10113 H 964.232 -1.21541 3.21065 0
M  V30 10114 N 966.677 -1.24326 -0.968545 0
M  V30 10115 C 968.088 -1.07561 -1.52603 0
M  V30 10116 C 968.439 0.353245 -1.92994 0
M  V30 10117 O 967.564 1.24151 -1.77244 0
M  V30 10118 C 968.159 -1.94634 -2.77314 0
M  V30 10119 C 966.718 -1.82095 -3.29421 0
M  V30 10120 C 965.865 -1.8962 -2.02335 0
M  V30 10121 H 968.816 -1.37815 -0.786932 0
M  V30 10122 H 968.837 -1.47812 -3.50616 0
M  V30 10123 H 968.349 -2.98621 -2.47885 0
M  V30 10124 H 966.45 -0.809376 -3.63703 0
M  V30 10125 H 966.563 -2.66142 -3.98378 0
M  V30 10126 H 964.927 -1.33339 -2.17009 0
M  V30 10127 H 965.71 -2.95185 -1.75273 0
M  V30 10128 N 968.156 1.1691 -1.05688 0
M  V30 10129 C 969.088 2.20648 -0.620237 0
M  V30 10130 C 970.101 1.59652 0.318604 0
M  V30 10131 O 971.29 1.78157 0.110553 0
M  V30 10132 C 968.39 3.38716 0.111729 0
M  V30 10133 C 967.563 4.29277 -0.839062 0
M  V30 10134 C 966.622 5.25993 -0.147453 0
M  V30 10135 O 965.648 5.63787 -0.783151 0
M  V30 10136 N 966.85 5.69725 1.11327 0
M  V30 10137 H 969.615 2.58731 -1.51256 0
M  V30 10138 H 967.176 1.31858 -0.939412 0
M  V30 10139 H 969.168 4.00455 0.584657 0
M  V30 10140 H 967.738 2.99189 0.905784 0
M  V30 10141 H 966.958 3.64894 -1.4915 0
M  V30 10142 H 968.246 4.86669 -1.48428 0
M  V30 10143 H 967.644 5.41103 1.64999 0
M  V30 10144 H 966.201 6.33584 1.53018 0
M  V30 10145 N 969.634 0.838594 1.33437 0
M  V30 10146 C 970.883 0.430484 1.97053 0
M  V30 10147 C 971.196 -1.01556 1.6717 0
M  V30 10148 O 972.402 -1.52834 2.24397 0
M  V30 10149 C 970.858 0.718828 3.52648 0
M  V30 10150 C 970.466 2.17953 3.91408 0
M  V30 10151 C 972.21 0.377654 4.22817 0
M  V30 10152 C 970.117 2.41194 5.39981 0
M  V30 10153 H 969.047 0.157239 0.737422 0
M  V30 10154 H 971.698 1.02714 1.5206 0
M  V30 10155 H 970.08 0.0518042 3.95966 0
M  V30 10156 H 971.254 2.88701 3.59149 0
M  V30 10157 H 969.569 2.48366 3.34221 0
M  V30 10158 H 972.166 0.528926 5.32077 0
M  V30 10159 H 972.509 -0.679338 4.1072 0
M  V30 10160 H 973.042 0.999899 3.85028 0
M  V30 10161 H 969.781 3.45457 5.57081 0
M  V30 10162 H 969.301 1.75007 5.73701 0
M  V30 10163 H 970.98 2.24334 6.06863 0
M  V30 10164 N 971.112 -1.45937 0.595003 0
M  V30 10165 C 972.075 -2.2888 -0.121102 0
M  V30 10166 C 973.075 -1.39075 -0.807149 0
M  V30 10167 O 974.265 -1.61326 -0.657228 0
M  V30 10168 C 971.397 -3.19778 -1.1813 0
M  V30 10169 H 972.59 -2.93673 0.607968 0
M  V30 10170 H 970.143 -1.5225 0.353495 0
M  V30 10171 H 970.878 -2.59759 -1.94154 0
M  V30 10172 H 970.663 -3.85914 -0.693724 0
M  V30 10173 H 972.153 -3.82176 -1.68319 0
M  V30 10174 N 972.59 -0.333456 -1.54032 0
M  V30 10175 C 973.818 0.267813 -2.05159 0
M  V30 10176 C 974.233 1.4501 -1.20903 0
M  V30 10177 O 973.59 1.80888 -0.241994 0
M  V30 10178 C 973.641 0.69268 -3.54802 0
M  V30 10179 O 973.362 -0.442579 -4.35859 0
M  V30 10180 C 974.863 1.35572 -4.2206 0
M  V30 10181 H 972.083 0.0534924 -0.668864 0
M  V30 10182 H 974.627 -0.482515 -1.98726 0
M  V30 10183 H 972.782 1.39297 -3.6149 0
M  V30 10184 H 973.196 -0.105915 -5.24393 0
M  V30 10185 H 974.67 1.60385 -5.28186 0
M  V30 10186 H 975.147 2.30614 -3.73783 0
M  V30 10187 H 975.753 0.697748 -4.19537 0
M  V30 10188 N 974.068 1.57479 -0.061844 0
M  V30 10189 C 975.293 1.97843 0.622311 0
M  V30 10190 C 975.718 0.939602 1.62951 0
M  V30 10191 O 975.076 -0.095958 1.81046 0
M  V30 10192 C 975.124 3.37262 1.2762 0
M  V30 10193 O 974.228 3.35943 2.39199 0
M  V30 10194 H 973.569 0.644212 0.160896 0
M  V30 10195 H 976.099 2.04165 -0.133409 0
M  V30 10196 H 976.109 3.74226 1.62539 0
M  V30 10197 H 974.784 4.12404 0.538112 0
M  V30 10198 H 973.361 3.10737 2.06148 0
M  V30 10199 N 975.546 -0.211634 1.56173 0
M  V30 10200 C 976.774 -0.951184 1.83739 0
M  V30 10201 C 977.189 -1.7754 0.642252 0
M  V30 10202 O 976.546 -1.78302 -0.389174 0
M  V30 10203 C 976.597 -1.86075 3.09933 0
M  V30 10204 O 976.318 -1.06983 4.24837 0
M  V30 10205 C 977.819 -2.71337 3.50559 0
M  V30 10206 H 975.039 -0.278312 0.61056 0
M  V30 10207 H 977.583 -0.223871 2.03271 0
M  V30 10208 H 975.738 -2.54189 2.92347 0
M  V30 10209 H 976.152 -1.68815 4.9659 0
M  V30 10210 H 977.626 -3.30843 4.41868 0
M  V30 10211 H 978.103 -3.44226 2.72773 0
M  V30 10212 H 978.709 -2.0862 3.70618 0
M  V30 10213 N 977.024 -1.50153 -0.478725 0
M  V30 10214 C 978.249 -1.64776 -1.2595 0
M  V30 10215 C 978.674 -0.327794 -1.85222 0
M  V30 10216 O 978.032 0.707418 -1.66929 0
M  V30 10217 C 978.08 -2.73551 -2.34952 0
M  V30 10218 O 977.184 -2.34273 -3.39397 0
M  V30 10219 H 976.525 -0.550769 -0.370877 0
M  V30 10220 H 979.055 -1.96482 -0.570605 0
M  V30 10221 H 979.065 -2.96397 -2.8038 0
M  V30 10222 H 977.74 -3.69354 -1.91181 0
M  V30 10223 H 976.317 -2.21844 -2.99733 0
M  V30 10224 N 978.502 0.731368 -1.39602 0
M  V30 10225 C 979.432 1.85855 -1.41351 0
M  V30 10226 C 980.413 1.67839 -0.2764 0
M  V30 10227 O 981.598 1.88104 -0.482747 0
M  V30 10228 C 978.728 3.23644 -1.25983 0
M  V30 10229 C 977.682 3.56304 -2.37132 0
M  V30 10230 C 977.008 4.93069 -2.0685 0
M  V30 10231 C 978.308 3.58906 -3.79452 0
M  V30 10232 H 980.002 1.84648 -2.3568 0
M  V30 10233 H 977.548 0.886955 -1.13442 0
M  V30 10234 H 979.501 4.02176 -1.25826 0
M  V30 10235 H 978.225 3.25387 -0.281234 0
M  V30 10236 H 976.884 2.80104 -2.36511 0
M  V30 10237 H 976.532 4.91396 -1.0742 0
M  V30 10238 H 976.232 5.15888 -2.81306 0
M  V30 10239 H 977.756 5.73953 -2.0835 0
M  V30 10240 H 979.17 4.27508 -3.81982 0
M  V30 10241 H 977.567 3.93246 -4.53297 0
M  V30 10242 H 978.637 2.58631 -4.10168 0
M  V30 10243 N 979.98 1.24838 0.961938 0
M  V30 10244 C 980.91 1.07053 2.07514 0
M  V30 10245 C 981.891 -0.0182465 1.7009 0
M  V30 10246 O 983.076 0.149915 1.9362 0
M  V30 10247 C 980.206 0.680693 3.40564 0
M  V30 10248 C 979.16 1.71889 3.91967 0
M  V30 10249 C 978.486 1.18395 5.21428 0
M  V30 10250 C 979.786 3.1161 4.19161 0
M  V30 10251 H 981.48 2.00167 2.22651 0
M  V30 10252 H 979.026 0.963799 1.0699 0
M  V30 10253 H 980.979 0.54324 4.17884 0
M  V30 10254 H 979.703 -0.28615 3.25344 0
M  V30 10255 H 978.362 1.84465 3.16809 0
M  V30 10256 H 978.01 0.207543 5.02572 0
M  V30 10257 H 977.71 1.87778 5.56788 0
M  V30 10258 H 979.234 1.05873 6.01351 0
M  V30 10259 H 980.648 3.0223 4.87165 0
M  V30 10260 H 979.045 3.78398 4.65763 0
M  V30 10261 H 980.115 3.59218 3.25715 0
M  V30 10262 N 981.458 -1.16348 1.06306 0
M  V30 10263 C 982.421 -2.18941 0.678053 0
M  V30 10264 C 983.421 -1.58409 -0.276277 0
M  V30 10265 O 984.611 -1.74101 -0.0586435 0
M  V30 10266 C 981.743 -3.409 -0.00228684 0
M  V30 10267 H 982.936 -2.54516 1.58624 0
M  V30 10268 H 980.489 -1.30625 0.858298 0
M  V30 10269 H 981.224 -3.10881 -0.923212 0
M  V30 10270 H 981.009 -3.86089 0.683949 0
M  V30 10271 H 982.499 -4.16806 -0.257374 0
M  V30 10272 N 982.937 -0.845659 -1.3299 0
M  V30 10273 C 983.9 -0.288905 -2.27372 0
M  V30 10274 C 984.9 0.546263 -1.51237 0
M  V30 10275 O 986.09 0.359072 -1.70459 0
M  V30 10276 C 983.222 0.59224 -3.35716 0
M  V30 10277 H 984.415 -1.12181 -2.78128 0
M  V30 10278 H 981.968 -0.619276 -1.43508 0
M  V30 10279 H 982.703 1.44732 -2.90212 0
M  V30 10280 H 982.488 -0.00543255 -3.921 0
M  V30 10281 H 983.978 0.974848 -4.06062 0
M  V30 10282 N 984.415 1.45619 -0.602734 0
M  V30 10283 C 985.347 2.28662 0.157012 0
M  V30 10284 C 986.36 1.39672 0.836396 0
M  V30 10285 O 987.549 1.64091 0.702599 0
M  V30 10286 C 984.649 3.1528 1.24306 0
M  V30 10287 C 983.822 4.32517 0.651731 0
M  V30 10288 C 982.881 5.00381 1.62804 0
M  V30 10289 O 981.907 5.57333 1.15624 0
M  V30 10290 N 983.109 4.99221 2.96241 0
M  V30 10291 H 985.874 2.94506 -0.555535 0
M  V30 10292 H 983.435 1.55753 -0.441881 0
M  V30 10293 H 985.427 3.57544 1.8959 0
M  V30 10294 H 983.997 2.51376 1.85819 0
M  V30 10295 H 983.217 3.93793 -0.17907 0
M  V30 10296 H 984.505 5.08249 0.236802 0
M  V30 10297 H 983.903 4.54232 3.37179 0
M  V30 10298 H 982.46 5.45364 3.56961 0
M  V30 10299 N 985.893 0.34162 1.53853 0
M  V30 10300 C 987.118 -0.259608 2.05769 0
M  V30 10301 C 987.543 -1.43588 1.21507 0
M  V30 10302 O 986.901 -1.79856 0.228364 0
M  V30 10303 C 986.949 -0.654455 3.54611 0
M  V30 10304 O 986.053 -1.75472 3.73207 0
M  V30 10305 H 985.394 -0.0434621 0.662576 0
M  V30 10306 H 987.924 0.495274 1.98515 0
M  V30 10307 H 987.934 -0.932142 3.97209 0
M  V30 10308 H 986.609 0.205779 4.15391 0
M  V30 10309 H 985.186 -1.47444 3.42512 0
M  V30 10310 N 987.371 -1.57444 0.0701946 0
M  V30 10311 C 988.301 -2.15659 -0.895176 0
M  V30 10312 C 989.282 -1.08321 -1.31151 0
M  V30 10313 O 990.467 -1.36349 -1.38284 0
M  V30 10314 C 987.597 -2.71693 -2.16334 0
M  V30 10315 C 986.551 -3.84183 -1.88645 0
M  V30 10316 C 985.877 -4.26814 -3.22078 0
M  V30 10317 C 987.177 -5.08493 -1.19299 0
M  V30 10318 H 988.871 -2.96576 -0.410217 0
M  V30 10319 H 986.417 -1.42662 -0.195872 0
M  V30 10320 H 988.37 -3.11064 -2.84284 0
M  V30 10321 H 987.094 -1.87994 -2.67069 0
M  V30 10322 H 985.753 -3.45314 -1.23101 0
M  V30 10323 H 985.401 -3.40039 -3.70651 0
M  V30 10324 H 985.101 -5.02642 -3.04344 0
M  V30 10325 H 986.625 -4.68799 -3.91228 0
M  V30 10326 H 988.039 -5.4519 -1.77316 0
M  V30 10327 H 986.436 -5.89588 -1.11828 0
M  V30 10328 H 987.506 -4.84595 -0.171839 0
M  V30 10329 N 988.849 0.203349 -1.56283 0
M  V30 10330 C 990.095 0.926381 -1.80405 0
M  V30 10331 C 990.428 1.8325 -0.642883 0
M  V30 10332 O 989.703 1.91196 0.356998 0
M  V30 10333 C 989.986 1.74972 -3.14733 0
M  V30 10334 C 989.839 0.868866 -4.41328 0
M  V30 10335 C 991.158 2.72394 -3.45672 0
M  V30 10336 H 988.277 0.335346 -0.656286 0
M  V30 10337 H 990.919 0.1942 -1.89005 0
M  V30 10338 H 989.069 2.37394 -3.07533 0
M  V30 10339 H 990.741 0.259986 -4.60567 0
M  V30 10340 H 988.984 0.175161 -4.33446 0
M  V30 10341 H 989.655 1.47975 -5.31796 0
M  V30 10342 H 992.131 2.20105 -3.53119 0
M  V30 10343 H 991.007 3.27091 -4.40798 0
M  V30 10344 H 991.268 3.51035 -2.6875 0
M  V30 10345 N 990.327 1.50405 0.470755 0
M  V30 10346 C 991.738 1.54266 1.05162 0
M  V30 10347 C 992.089 0.346359 1.93119 0
M  V30 10348 O 991.214 -0.540699 2.09536 0
M  V30 10349 C 991.809 2.7956 1.91394 0
M  V30 10350 C 990.368 2.86101 2.44588 0
M  V30 10351 C 989.515 2.48557 1.22941 0
M  V30 10352 H 992.466 1.56665 0.253359 0
M  V30 10353 H 992.487 2.61434 2.76464 0
M  V30 10354 H 991.999 3.66611 1.27351 0
M  V30 10355 H 990.1 2.03403 3.12183 0
M  V30 10356 H 990.213 3.88999 2.79672 0
M  V30 10357 H 988.577 2.01003 1.56429 0
M  V30 10358 H 989.36 3.37916 0.605598 0
M  V30 10359 N 991.805 -0.723954 1.39988 0
M  V30 10360 C 993.216 -1.30273 1.33738 0
M  V30 10361 C 993.567 -1.96199 0.00690581 0
M  V30 10362 O 992.692 -1.97016 -0.895179 0
M  V30 10363 C 993.287 -2.36889 2.42217 0
M  V30 10364 C 991.846 -2.90412 2.39453 0
M  V30 10365 C 990.993 -1.64103 2.2353 0
M  V30 10366 H 993.944 -0.520672 1.49916 0
M  V30 10367 H 993.965 -3.17538 2.09642 0
M  V30 10368 H 993.477 -1.88878 3.39038 0
M  V30 10369 H 991.578 -3.42674 1.46304 0
M  V30 10370 H 991.691 -3.42775 3.34727 0
M  V30 10371 H 990.055 -1.88855 1.70897 0
M  V30 10372 H 990.838 -1.18128 3.22336 0
M  V30 10373 N 993.283 -1.25346 -0.955304 0
M  V30 10374 C 994.694 -1.09173 -1.51453 0
M  V30 10375 C 995.045 0.332755 -1.93358 0
M  V30 10376 O 994.17 1.22264 -1.78551 0
M  V30 10377 C 994.765 -1.97564 -2.75234 0
M  V30 10378 C 993.324 -1.85579 -3.27471 0
M  V30 10379 C 992.471 -1.91755 -2.00313 0
M  V30 10380 H 995.422 -1.38642 -0.772271 0
M  V30 10381 H 995.443 -1.51523 -3.49029 0
M  V30 10382 H 994.955 -3.01233 -2.44704 0
M  V30 10383 H 993.056 -0.847906 -3.62824 0
M  V30 10384 H 993.169 -2.70353 -3.95533 0
M  V30 10385 H 991.533 -1.35633 -2.15582 0
M  V30 10386 H 992.316 -2.97028 -1.72132 0
M  V30 10387 N 994.761 1.15782 -1.06922 0
M  V30 10388 C 996.009 1.86097 -0.788192 0
M  V30 10389 C 996.33 1.82475 0.687606 0
M  V30 10390 O 995.6 1.26266 1.49778 0
M  V30 10391 H 994.18 0.689008 -0.288577 0
M  V30 10392 H 996.842 1.40377 -1.35205 0
M  V30 10393 H 995.938 2.91358 -1.1188 0
M  V30 10394 N 996.239 0.8527 1.3254 0
M  V30 10395 C 997.169 0.311234 2.31416 0
M  V30 10396 C 998.15 -0.588557 1.59593 0
M  V30 10397 O 999.335 -0.509211 1.87405 0
M  V30 10398 C 996.465 -0.502892 3.4364 0
M  V30 10399 C 995.419 0.302296 4.26931 0
M  V30 10400 C 994.745 -0.636445 5.30899 0
M  V30 10401 C 996.045 1.52697 4.99481 0
M  V30 10402 H 997.739 1.13742 2.76953 0
M  V30 10403 H 995.285 0.548389 1.33149 0
M  V30 10404 H 997.238 -0.892092 4.11849 0
M  V30 10405 H 995.962 -1.36242 2.96826 0
M  V30 10406 H 994.621 0.673226 3.60365 0
M  V30 10407 H 994.269 -1.49277 4.80339 0
M  V30 10408 H 993.969 -0.101716 5.87512 0
M  V30 10409 H 995.493 -1.02286 6.01972 0
M  V30 10410 H 996.907 1.21017 5.60382 0
M  V30 10411 H 995.304 1.9995 5.65809 0
M  V30 10412 H 996.374 2.28929 4.27457 0
M  V30 10413 N 997.718 -1.45297 0.610449 0
M  V30 10414 C 999.129 -1.85715 0.191488 0
M  V30 10415 C 999.48 -1.51036 -1.25229 0
M  V30 10416 O 998.605 -0.938422 -1.94994 0
M  V30 10417 C 999.2 -3.37082 0.340747 0
M  V30 10418 C 997.759 -3.76393 -0.0235433 0
M  V30 10419 C 996.906 -2.69237 0.663849 0
M  V30 10420 H 999.857 -1.36058 0.816948 0
M  V30 10421 H 999.878 -3.78105 -0.426233 0
M  V30 10422 H 999.39 -3.62291 1.39164 0
M  V30 10423 H 997.491 -3.56801 -1.07351 0
M  V30 10424 H 997.604 -4.77653 0.372102 0
M  V30 10425 H 995.968 -2.54499 0.101204 0
M  V30 10426 H 996.751 -2.97281 1.71694 0
M  V30 10427 N 999.196 -0.349774 -1.5367 0
M  V30 10428 C 1000.44 0.244343 -2.00617 0
M  V30 10429 C 1000.76 1.50567 -1.23914 0
M  V30 10430 O 1000.03 1.92784 -0.348016 0
M  V30 10431 H 998.615 0.0932792 -0.741153 0
M  V30 10432 H 1001.28 -0.472367 -1.89089 0
M  V30 10433 H 1000.37 0.482433 -3.08349 0
M  V30 10434 N 1000.67 1.57404 -0.0785433 0
M  V30 10435 C 1001.9 1.98492 0.601292 0
M  V30 10436 C 1002.32 0.956832 1.61945 0
M  V30 10437 O 1001.68 -0.0767502 1.81137 0
M  V30 10438 C 1001.73 3.38596 1.24036 0
M  V30 10439 O 1000.83 3.38461 2.35622 0
M  V30 10440 H 1000.17 0.645882 0.154054 0
M  V30 10441 H 1002.7 2.04012 -0.155056 0
M  V30 10442 H 1002.71 3.75929 1.5856 0
M  V30 10443 H 1001.39 4.12952 0.494341 0
M  V30 10444 H 999.967 3.12906 2.02841 0
M  V30 10445 N 1002.15 -0.195058 1.56388 0
M  V30 10446 C 1003.38 -0.935745 1.85091 0
M  V30 10447 C 1003.8 -1.76061 0.662118 0
M  V30 10448 O 1003.16 -1.77076 -0.389083 0
M  V30 10449 C 1003.21 -1.80764 3.1202 0
M  V30 10450 O 1002.31 -2.90643 2.92575 0
M  V30 10451 H 1001.65 -0.26351 0.609474 0
M  V30 10452 H 1004.18 -0.200362 2.03617 0
M  V30 10453 H 1004.19 -2.21229 3.42815 0
M  V30 10454 H 1002.87 -1.20157 3.98165 0
M  V30 10455 H 1001.44 -2.53934 2.73079 0
M  V30 10456 N 1003.63 -1.50653 -0.462772 0
M  V30 10457 C 1004.86 -1.65826 -1.23731 0
M  V30 10458 C 1005.27 -0.345002 -1.85621 0
M  V30 10459 O 1004.63 0.673935 -1.69601 0
M  V30 10460 C 1004.68 -2.7555 -2.33997 0
M  V30 10461 O 1004.4 -4.01785 -1.74643 0
M  V30 10462 C 1005.9 -3.0177 -3.2473 0
M  V30 10463 H 1003.12 -0.557177 -0.373892 0
M  V30 10464 H 1005.67 -1.96925 -0.551434 0
M  V30 10465 H 1003.82 -2.47122 -2.98345 0
M  V30 10466 H 1004.24 -4.62529 -2.4732 0
M  V30 10467 H 1005.71 -3.82188 -3.98292 0
M  V30 10468 H 1006.19 -2.13167 -3.84001 0
M  V30 10469 H 1006.79 -3.31761 -2.66111 0
M  V30 10470 N 1005.11 0.71652 -1.4037 0
M  V30 10471 C 1006.52 1.29562 -1.34427 0
M  V30 10472 C 1006.87 1.96192 -0.0173106 0
M  V30 10473 O 1006 1.97488 0.884719 0
M  V30 10474 C 1006.59 2.35601 -2.4347 0
M  V30 10475 C 1005.15 2.89138 -2.4099 0
M  V30 10476 C 1004.3 1.62915 -2.24397 0
M  V30 10477 H 1007.25 0.512715 -1.5019 0
M  V30 10478 H 1007.27 3.16422 -2.11323 0
M  V30 10479 H 1006.78 1.87077 -3.40035 0
M  V30 10480 H 1004.88 3.41894 -1.4812 0
M  V30 10481 H 1004.99 3.40995 -3.3654 0
M  V30 10482 H 1003.36 1.87947 -1.71896 0
M  V30 10483 H 1004.14 1.16417 -3.22958 0
M  V30 10484 N 1006.59 1.25851 0.948643 0
M  V30 10485 C 1007.83 1.10735 1.69062 0
M  V30 10486 C 1008.16 -0.351257 1.9181 0
M  V30 10487 O 1007.43 -1.24867 1.50947 0
M  V30 10488 H 1006.01 0.406796 0.626519 0
M  V30 10489 H 1008.67 1.58066 1.14022 0
M  V30 10490 H 1007.76 1.62033 2.66743 0
M  V30 10491 N 1008.06 -1.15214 1.07534 0
M  V30 10492 C 1009.31 -1.86319 0.800814 0
M  V30 10493 C 1009.64 -1.82221 -0.671494 0
M  V30 10494 O 1008.92 -1.24664 -1.49295 0
M  V30 10495 C 1009.2 -3.35347 1.31203 0
M  V30 10496 C 1009.05 -3.48067 2.84902 0
M  V30 10497 C 1010.37 -4.3016 0.930064 0
M  V30 10498 H 1007.49 -0.676523 0.292379 0
M  V30 10499 H 1010.13 -1.35349 1.33344 0
M  V30 10500 H 1008.28 -3.78886 0.858949 0
M  V30 10501 H 1009.96 -3.13379 3.38514 0
M  V30 10502 H 1008.2 -2.89566 3.23008 0
M  V30 10503 H 1008.87 -4.52782 3.15741 0
M  V30 10504 H 1011.35 -3.94591 1.3205 0
M  V30 10505 H 1010.22 -5.32914 1.31507 0
M  V30 10506 H 1010.48 -4.41796 -0.163824 0
M  V30 10507 N 1009.54 -0.859717 -1.32086 0
M  V30 10508 C 1010.47 -0.323502 -2.31248 0
M  V30 10509 C 1011.45 0.580085 -1.59903 0
M  V30 10510 O 1012.64 0.499265 -1.87673 0
M  V30 10511 C 1009.77 0.484661 -3.43902 0
M  V30 10512 C 1008.72 -0.324933 -4.26765 0
M  V30 10513 C 1008.05 0.608281 -5.31229 0
M  V30 10514 C 1009.35 -1.55344 -4.98664 0
M  V30 10515 H 1011.04 -1.15209 -2.76346 0
M  V30 10516 H 1008.59 -0.555442 -1.32856 0
M  V30 10517 H 1010.54 0.870238 -4.12316 0
M  V30 10518 H 1009.27 1.34666 -2.97544 0
M  V30 10519 H 1007.92 -0.692328 -3.60003 0
M  V30 10520 H 1007.57 1.46727 -4.81124 0
M  V30 10521 H 1007.27 0.0705571 -5.87558 0
M  V30 10522 H 1008.8 0.990925 -6.02506 0
M  V30 10523 H 1010.21 -1.23987 -5.59732 0
M  V30 10524 H 1008.61 -2.02947 -5.64741 0
M  V30 10525 H 1009.68 -2.31192 -4.26237 0
M  V30 10526 N 1011.02 1.44971 -0.618145 0
M  V30 10527 C 1012.43 1.85611 -0.201334 0
M  V30 10528 C 1012.78 1.51698 1.24427 0
M  V30 10529 O 1011.91 0.94875 1.94493 0
M  V30 10530 C 1012.5 3.36897 -0.358619 0
M  V30 10531 C 1011.06 3.764 0.00358196 0
M  V30 10532 C 1010.21 2.68881 -0.678118 0
M  V30 10533 H 1013.16 1.35622 -0.824152 0
M  V30 10534 H 1013.18 3.78326 0.406176 0
M  V30 10535 H 1012.69 3.61548 -1.41084 0
M  V30 10536 H 1010.79 3.57365 1.05457 0
M  V30 10537 H 1010.91 4.77449 -0.397427 0
M  V30 10538 H 1009.27 2.54442 -0.114699 0
M  V30 10539 H 1010.05 2.96367 -1.73268 0
M  V30 10540 N 1012.5 0.357919 1.53482 0
M  V30 10541 C 1013.73 -0.234799 2.05261 0
M  V30 10542 C 1014.14 -1.43618 1.23169 0
M  V30 10543 O 1013.48 -1.81801 0.263435 0
M  V30 10544 C 1013.54 -0.699748 3.52624 0
M  V30 10545 C 1013.21 0.383905 4.55385 0
M  V30 10546 C 1014.2 1.23129 5.05109 0
M  V30 10547 C 1011.89 0.541953 4.99368 0
M  V30 10548 C 1013.88 2.22214 5.97411 0
M  V30 10549 C 1011.57 1.53618 5.91477 0
M  V30 10550 C 1012.57 2.37471 6.40388 0
M  V30 10551 O 1012.25 3.35199 7.30682 0
M  V30 10552 H 1011.99 -0.0465364 0.674396 0
M  V30 10553 H 1014.54 0.512355 1.98907 0
M  V30 10554 H 1012.77 -1.49838 3.5649 0
M  V30 10555 H 1014.46 -1.21461 3.87301 0
M  V30 10556 H 1015.23 1.12035 4.71883 0
M  V30 10557 H 1011.1 -0.100929 4.6089 0
M  V30 10558 H 1014.65 2.87702 6.35511 0
M  V30 10559 H 1010.55 1.64763 6.24118 0
M  V30 10560 H 1011.31 3.30838 7.48658 0
M  V30 10561 N 1013.98 -1.5736 0.0868897 0
M  V30 10562 C 1015.22 -1.94054 -0.578741 0
M  V30 10563 C 1015.55 -0.968047 -1.68698 0
M  V30 10564 O 1014.81 0.0137824 -1.95695 0
M  V30 10565 C 1015.11 -3.37316 -1.18123 0
M  V30 10566 C 1014.77 -4.50467 -0.197607 0
M  V30 10567 C 1013.43 -4.81145 0.072952 0
M  V30 10568 C 1015.79 -5.19036 0.474473 0
M  V30 10569 C 1013.11 -5.77723 1.02242 0
M  V30 10570 C 1015.47 -6.16632 1.41236 0
M  V30 10571 C 1014.13 -6.45719 1.69124 0
M  V30 10572 H 1013.4 -0.710093 -0.211776 0
M  V30 10573 H 1016.05 -1.90822 0.160978 0
M  V30 10574 H 1014.35 -3.37085 -1.99701 0
M  V30 10575 H 1016.05 -3.63003 -1.7038 0
M  V30 10576 H 1012.64 -4.2655 -0.418669 0
M  V30 10577 H 1016.82 -4.95518 0.278581 0
M  V30 10578 H 1012.08 -5.98578 1.24557 0
M  V30 10579 H 1016.25 -6.68862 1.939 0
M  V30 10580 H 1013.88 -7.20365 2.42855 0
M  V30 10581 N 1015.45 0.186762 -1.56489 0
M  V30 10582 C 1016.87 0.750675 -1.70944 0
M  V30 10583 C 1017.22 1.83483 -0.694858 0
M  V30 10584 O 1016.34 2.159 0.147009 0
M  V30 10585 C 1016.94 1.36843 -3.09934 0
M  V30 10586 C 1015.5 1.87934 -3.26125 0
M  V30 10587 C 1014.64 0.75242 -2.66897 0
M  V30 10588 H 1017.59 -0.0384292 -1.58653 0
M  V30 10589 H 1017.61 2.23795 -3.07727 0
M  V30 10590 H 1017.13 0.579135 -3.83755 0
M  V30 10591 H 1015.23 2.69556 -2.57235 0
M  V30 10592 H 1015.34 2.0354 -4.33715 0
M  V30 10593 H 1013.7 1.16888 -2.26295 0
M  V30 10594 H 1014.49 -0.0247769 -3.43291 0
M  V30 10595 N 1016.93 1.50896 0.454776 0
M  V30 10596 C 1018.34 1.55372 1.0352 0
M  V30 10597 C 1018.69 0.366822 1.9274 0
M  V30 10598 O 1017.82 -0.518444 2.10098 0
M  V30 10599 C 1018.41 2.81574 1.88418 0
M  V30 10600 C 1016.97 2.88679 2.4154 0
M  V30 10601 C 1016.12 2.49847 1.20298 0
M  V30 10602 H 1019.07 1.56924 0.236729 0
M  V30 10603 H 1019.09 2.64352 2.73676 0
M  V30 10604 H 1018.6 3.67941 1.23455 0
M  V30 10605 H 1016.71 2.06702 3.10008 0
M  V30 10606 H 1016.82 3.91944 2.7553 0
M  V30 10607 H 1015.18 2.02651 1.54288 0
M  V30 10608 H 1015.97 3.3854 0.569723 0
M  V30 10609 N 1018.41 -0.709066 1.40748 0
M  V30 10610 C 1019.66 -1.46611 1.39103 0
M  V30 10611 C 1019.98 -1.95 -0.00365366 0
M  V30 10612 O 1019.25 -1.70791 -0.959541 0
M  V30 10613 H 1017.83 -0.543954 0.511979 0
M  V30 10614 H 1020.49 -0.840141 1.75863 0
M  V30 10615 H 1019.59 -2.33581 2.06994 0
M  V30 10616 N 1019.89 -1.26353 -0.941956 0
M  V30 10617 C 1020.82 -1.10341 -2.05784 0
M  V30 10618 C 1021.8 -0.00881565 -1.70098 0
M  V30 10619 O 1022.99 -0.180699 -1.93357 0
M  V30 10620 C 1020.12 -0.734788 -3.39438 0
M  V30 10621 C 1019.07 -1.78103 -3.89183 0
M  V30 10622 C 1018.4 -1.26675 -5.19478 0
M  V30 10623 C 1019.7 -3.1824 -4.14151 0
M  V30 10624 H 1021.39 -2.03684 -2.19438 0
M  V30 10625 H 1018.94 -0.980698 -1.05443 0
M  V30 10626 H 1020.89 -0.609653 -4.16967 0
M  V30 10627 H 1019.61 0.234354 -3.25758 0
M  V30 10628 H 1018.27 -1.89482 -3.13835 0
M  V30 10629 H 1017.92 -0.287472 -5.02178 0
M  V30 10630 H 1017.62 -1.96612 -5.53731 0
M  V30 10631 H 1019.14 -1.15427 -5.99591 0
M  V30 10632 H 1020.56 -3.09942 -4.82296 0
M  V30 10633 H 1018.95 -3.8576 -4.59684 0
M  V30 10634 H 1020.02 -3.64354 -3.19959 0
M  V30 10635 N 1021.37 1.14642 -1.08144 0
M  V30 10636 C 1022.78 1.6719 -0.830923 0
M  V30 10637 C 1023.13 1.85373 0.642749 0
M  V30 10638 O 1022.25 1.56293 1.49671 0
M  V30 10639 C 1022.85 3.03697 -1.50179 0
M  V30 10640 C 1021.41 3.5329 -1.29858 0
M  V30 10641 C 1020.56 2.28828 -1.5663 0
M  V30 10642 H 1023.51 0.987441 -1.24239 0
M  V30 10643 H 1023.53 3.69023 -0.9275 0
M  V30 10644 H 1023.04 2.90431 -2.57432 0
M  V30 10645 H 1021.14 3.71783 -0.246626 0
M  V30 10646 H 1021.25 4.34231 -2.02436 0
M  V30 10647 H 1019.62 2.34769 -0.987716 0
M  V30 10648 H 1020.4 2.18141 -2.65084 0
M  V30 10649 N 1022.85 0.866709 1.31628 0
M  V30 10650 C 1024.26 0.529032 1.79048 0
M  V30 10651 C 1024.61 -0.953871 1.71452 0
M  V30 10652 O 1023.73 -1.74462 1.28031 0
M  V30 10653 C 1024.33 0.953522 3.25105 0
M  V30 10654 C 1022.89 0.667554 3.70433 0
M  V30 10655 C 1022.03 1.14664 2.52483 0
M  V30 10656 H 1024.98 1.05275 1.18756 0
M  V30 10657 H 1025.01 0.274844 3.79506 0
M  V30 10658 H 1024.52 2.03283 3.30602 0
M  V30 10659 H 1022.62 -0.400532 3.70441 0
M  V30 10660 H 1022.73 1.2423 4.62714 0
M  V30 10661 H 1021.1 0.566502 2.4832 0
M  V30 10662 H 1021.88 2.2333 2.60727 0
M  V30 10663 N 1024.32 -1.44642 0.625825 0
M  V30 10664 C 1025.73 -1.85502 0.211175 0
M  V30 10665 C 1026.09 -1.52356 -1.2362 0
M  V30 10666 O 1025.21 -0.959051 -1.93988 0
M  V30 10667 C 1025.81 -3.36702 0.37648 0
M  V30 10668 C 1024.36 -3.76396 0.0163795 0
M  V30 10669 C 1023.51 -2.68517 0.692368 0
M  V30 10670 H 1026.46 -1.35183 0.831333 0
M  V30 10671 H 1026.48 -3.78536 -0.386106 0
M  V30 10672 H 1026 -3.60795 1.42999 0
M  V30 10673 H 1024.1 -3.57919 -1.0356 0
M  V30 10674 H 1024.21 -4.77231 0.422742 0
M  V30 10675 H 1022.57 -2.54377 0.128191 0
M  V30 10676 H 1023.36 -2.95444 1.74837 0
M  V30 10677 N 1025.8 -0.366053 -1.5329 0
M  V30 10678 C 1027.08 0.279902 -1.93587 0
M  V30 10679 C 1027.46 1.66352 -1.29963 0
M  V30 10680 O 1026.81 2.23845 -0.458895 0
M  V30 10681 C 1027.02 0.329634 -3.4744 0
M  V30 10682 C 1028.36 0.569754 -4.2076 0
M  V30 10683 O 1029.39 0.410823 -3.53823 0
M  V30 10684 O 1028.25 0.879262 -5.3938 0
M  V30 10685 H 1025.34 0.16802 -0.809752 0
M  V30 10686 H 1027.89 -0.418871 -1.64449 0
M  V30 10687 H 1026.66 -0.640434 -3.86023 0
M  V30 10688 H 1026.28 1.07428 -3.82812 0
M  V30 10689 N 1027.28 1.57312 -0.0952337 0
M  V30 10690 C 1028.24 2.12889 0.849161 0
M  V30 10691 C 1029.24 1.05819 1.21075 0
M  V30 10692 O 1030.43 1.31704 1.14016 0
M  V30 10693 C 1027.56 2.6496 2.14498 0
M  V30 10694 H 1028.76 2.97651 0.366566 0
M  V30 10695 H 1026.31 1.55542 0.153762 0
M  V30 10696 H 1027.05 1.83718 2.67242 0
M  V30 10697 H 1026.83 3.43244 1.89542 0
M  V30 10698 H 1028.32 3.07952 2.82056 0
M  V30 10699 N 1028.76 -0.17846 1.56586 0
M  V30 10700 C 1030.01 -0.894464 1.81228 0
M  V30 10701 C 1030.33 -1.83089 0.671062 0
M  V30 10702 O 1029.6 -1.93439 -0.309557 0
M  V30 10703 H 1028.18 -0.333288 0.668527 0
M  V30 10704 H 1030.84 -0.179986 1.94067 0
M  V30 10705 H 1029.93 -1.47565 2.75011 0
M  V30 10706 N 1030.24 -1.51135 -0.446768 0
M  V30 10707 C 1031.48 -1.63013 -1.19461 0
M  V30 10708 C 1031.8 -0.344067 -1.91941 0
M  V30 10709 O 1031.07 0.639666 -1.85162 0
M  V30 10710 H 1029.65 -0.600757 -0.443959 0
M  V30 10711 H 1032.32 -1.88024 -0.513137 0
M  V30 10712 H 1031.41 -2.45322 -1.92933 0
M  V30 10713 N 1031.71 0.701592 -1.41122 0
M  V30 10714 C 1032.68 1.79733 -1.42227 0
M  V30 10715 C 1033.68 1.57708 -0.313831 0
M  V30 10716 O 1034.87 1.64492 -0.573423 0
M  V30 10717 C 1032 3.18024 -1.22775 0
M  V30 10718 H 1033.19 1.80148 -2.39764 0
M  V30 10719 H 1030.74 0.908624 -1.27176 0
M  V30 10720 H 1031.48 3.23252 -0.260552 0
M  V30 10721 H 1031.26 3.35411 -2.0308 0
M  V30 10722 H 1032.75 3.98021 -1.2637 0
M  V30 10723 N 1033.19 1.2685 0.935242 0
M  V30 10724 C 1034.6 1.11569 1.49697 0
M  V30 10725 C 1034.95 -0.301952 1.93863 0
M  V30 10726 O 1034.08 -1.19408 1.80473 0
M  V30 10727 C 1034.67 2.01918 2.72056 0
M  V30 10728 C 1033.23 1.90765 3.24477 0
M  V30 10729 C 1032.38 1.94918 1.97237 0
M  V30 10730 H 1035.33 1.39853 0.750116 0
M  V30 10731 H 1035.35 1.57056 3.46574 0
M  V30 10732 H 1034.86 3.05088 2.39881 0
M  V30 10733 H 1032.96 0.905521 3.61429 0
M  V30 10734 H 1033.08 2.76611 3.91182 0
M  V30 10735 H 1031.44 1.39046 2.13397 0
M  V30 10736 H 1032.22 2.99729 1.67385 0
M  V30 10737 N 1034.67 -1.14067 1.0875 0
M  V30 10738 C 1035.6 -2.18926 0.67852 0
M  V30 10739 C 1036.62 -1.60441 -0.276163 0
M  V30 10740 O 1037.8 -1.78388 -0.0632788 0
M  V30 10741 C 1034.9 -3.38893 -0.0218852 0
M  V30 10742 C 1034.08 -4.26901 0.952582 0
M  V30 10743 C 1033.14 -5.25418 0.286859 0
M  V30 10744 O 1032.16 -5.61512 0.932354 0
M  V30 10745 N 1033.36 -5.72476 -0.961831 0
M  V30 10746 H 1036.13 -2.54629 1.58063 0
M  V30 10747 H 1033.69 -1.29321 0.974042 0
M  V30 10748 H 1035.68 -4.01864 -0.478278 0
M  V30 10749 H 1034.25 -3.01486 -0.826141 0
M  V30 10750 H 1033.47 -3.60812 1.58772 0
M  V30 10751 H 1034.76 -4.82563 1.61279 0
M  V30 10752 H 1034.16 -5.45287 -1.50594 0
M  V30 10753 H 1032.72 -6.37418 -1.36166 0
M  V30 10754 N 1036.15 -0.873678 -1.31166 0
M  V30 10755 C 1037.37 -0.500242 -2.01277 0
M  V30 10756 C 1037.8 0.900811 -1.65127 0
M  V30 10757 O 1037.16 1.59504 -0.861862 0
M  V30 10758 C 1037.2 -0.668976 -3.5434 0
M  V30 10759 O 1036.31 0.290096 -4.11378 0
M  V30 10760 H 1035.65 -0.198507 -0.633633 0
M  V30 10761 H 1038.18 -1.17811 -1.67277 0
M  V30 10762 H 1038.19 -0.563673 -4.04088 0
M  V30 10763 H 1036.86 -1.69055 -3.79991 0
M  V30 10764 H 1035.44 0.139437 -3.72639 0
M  V30 10765 N 1037.63 1.44308 -0.633487 0
M  V30 10766 C 1038.85 2.06897 -0.144347 0
M  V30 10767 C 1039.28 1.47045 1.173 0
M  V30 10768 O 1038.63 0.572806 1.72013 0
M  V30 10769 C 1038.68 3.60571 -0.0456324 0
M  V30 10770 O 1037.79 4.0015 0.997682 0
M  V30 10771 H 1037.13 0.658427 -0.0858499 0
M  V30 10772 H 1039.66 1.85142 -0.870833 0
M  V30 10773 H 1039.67 4.07745 0.144178 0
M  V30 10774 H 1038.34 4.03515 -1.0074 0
M  V30 10775 H 1036.92 3.64603 0.782252 0
M  V30 10776 N 1039.1 0.374177 1.53094 0
M  V30 10777 C 1040.04 -0.511995 2.22382 0
M  V30 10778 C 1041.02 -1.07617 1.2189 0
M  V30 10779 O 1042.2 -1.13068 1.50824 0
M  V30 10780 C 1039.33 -1.70724 2.92525 0
M  V30 10781 C 1038.37 -1.26972 4.07161 0
M  V30 10782 S 1039.21 -0.263835 5.3485 0
M  V30 10783 C 1040.36 -1.46521 6.08508 0
M  V30 10784 H 1040.59 0.0764311 2.97202 0
M  V30 10785 H 1038.13 0.158307 1.53586 0
M  V30 10786 H 1040.09 -2.39279 3.3355 0
M  V30 10787 H 1038.75 -2.26693 2.17414 0
M  V30 10788 H 1037.94 -2.16172 4.55286 0
M  V30 10789 H 1037.54 -0.663273 3.68072 0
M  V30 10790 H 1039.83 -2.39483 6.33762 0
M  V30 10791 H 1040.78 -1.02517 7.0064 0
M  V30 10792 H 1041.18 -1.67516 5.39072 0
M  V30 10793 N 1040.58 -1.57259 0.103575 0
M  V30 10794 C 1041.81 -1.99424 -0.569638 0
M  V30 10795 C 1042.23 -0.982475 -1.60403 0
M  V30 10796 O 1041.59 0.0479231 -1.81237 0
M  V30 10797 C 1041.64 -3.40527 -1.18633 0
M  V30 10798 O 1040.74 -3.42167 -2.30208 0
M  V30 10799 H 1040.08 -0.648251 -0.143759 0
M  V30 10800 H 1042.61 -2.03739 0.187493 0
M  V30 10801 H 1042.62 -3.78404 -1.5256 0
M  V30 10802 H 1041.3 -4.13686 -0.428582 0
M  V30 10803 H 1039.88 -3.16093 -1.97837 0
M  V30 10804 N 1042.06 0.170153 -1.56679 0
M  V30 10805 C 1042.97 1.23057 -1.99735 0
M  V30 10806 C 1043.99 1.48374 -0.908912 0
M  V30 10807 O 1045.16 1.60499 -1.21663 0
M  V30 10808 C 1042.23 2.54944 -2.34956 0
M  V30 10809 C 1041.29 2.3748 -3.57634 0
M  V30 10810 C 1040.52 3.63078 -3.91165 0
M  V30 10811 O 1040.74 4.68304 -3.2565 0
M  V30 10812 O 1039.68 3.57119 -4.8451 0
M  V30 10813 H 1043.5 0.895104 -2.9021 0
M  V30 10814 H 1041.09 0.377109 -1.44562 0
M  V30 10815 H 1042.97 3.32742 -2.58574 0
M  V30 10816 H 1041.65 2.88068 -1.47643 0
M  V30 10817 H 1040.55 1.57709 -3.39232 0
M  V30 10818 H 1041.89 2.0928 -4.45491 0
M  V30 10819 N 1043.54 1.5137 0.438746 0
M  V30 10820 C 1044.76 1.68058 1.21537 0
M  V30 10821 C 1045.19 0.376787 1.84288 0
M  V30 10822 O 1044.55 -0.662911 1.68746 0
M  V30 10823 C 1044.59 2.79684 2.27616 0
M  V30 10824 O 1043.7 2.43189 3.33066 0
M  V30 10825 H 1043.04 0.560408 0.356144 0
M  V30 10826 H 1045.57 1.97926 0.518311 0
M  V30 10827 H 1045.58 3.03726 2.72423 0
M  V30 10828 H 1044.25 3.74293 1.81321 0
M  V30 10829 H 1042.83 2.29713 2.93746 0
M  V30 10830 N 1045.02 -0.694098 1.41492 0
M  V30 10831 C 1046.43 -1.27407 1.36471 0
M  V30 10832 C 1046.78 -1.9614 0.0485209 0
M  V30 10833 O 1045.9 -1.98871 -0.853188 0
M  V30 10834 C 1046.5 -2.31698 2.47188 0
M  V30 10835 C 1045.06 -2.85268 2.45559 0
M  V30 10836 C 1044.2 -1.59325 2.2696 0
M  V30 10837 H 1047.16 -0.488756 1.50986 0
M  V30 10838 H 1047.18 -3.1302 2.1633 0
M  V30 10839 H 1046.69 -1.81644 3.42968 0
M  V30 10840 H 1044.79 -3.39494 1.5354 0
M  V30 10841 H 1044.9 -3.35598 3.41922 0
M  V30 10842 H 1043.27 -1.85188 1.74864 0
M  V30 10843 H 1044.05 -1.11265 3.24769 0
M  V30 10844 N 1046.49 -1.27344 -0.928501 0
M  V30 10845 C 1047.77 -1.04362 -1.65433 0
M  V30 10846 C 1048.15 0.421896 -2.06841 0
M  V30 10847 O 1047.5 1.40496 -1.80203 0
M  V30 10848 C 1047.71 -2.00442 -2.85699 0
M  V30 10849 C 1049.06 -2.29767 -3.57061 0
M  V30 10850 O 1050.08 -1.98409 -2.95825 0
M  V30 10851 O 1048.94 -2.83217 -4.67387 0
M  V30 10852 H 1046.03 -0.397783 -0.72505 0
M  V30 10853 H 1048.58 -1.38606 -0.979109 0
M  V30 10854 H 1047.35 -2.99281 -2.52085 0
M  V30 10855 H 1046.98 -1.66755 -3.60941 0
M  V30 10856 N 1047.97 1.13488 -1.09353 0
M  V30 10857 C 1049.22 1.85022 -0.830354 0
M  V30 10858 C 1049.55 1.83266 0.64242 0
M  V30 10859 O 1048.83 1.27024 1.47293 0
M  V30 10860 C 1049.11 3.33218 -1.36521 0
M  V30 10861 C 1048.96 3.43491 -2.90404 0
M  V30 10862 C 1050.28 4.28626 -0.998381 0
M  V30 10863 H 1047.4 0.671786 -0.303105 0
M  V30 10864 H 1050.04 1.33211 -1.3548 0
M  V30 10865 H 1048.19 3.77471 -0.919117 0
M  V30 10866 H 1049.86 3.07954 -3.43456 0
M  V30 10867 H 1048.11 2.84391 -3.27573 0
M  V30 10868 H 1048.78 4.47702 -3.22905 0
M  V30 10869 H 1051.25 3.9244 -1.38311 0
M  V30 10870 H 1050.13 5.30754 -1.39968 0
M  V30 10871 H 1050.39 4.42001 0.093517 0
M  V30 10872 N 1049.45 0.880621 1.30701 0
M  V30 10873 C 1050.4 0.333562 2.30196 0
M  V30 10874 C 1051.39 -0.557092 1.59978 0
M  V30 10875 O 1052.6 -0.442009 1.74489 0
M  V30 10876 H 1048.97 0.0892036 0.746691 0
M  V30 10877 H 1050.95 1.18644 2.73799 0
M  V30 10878 C 1049.69 -0.440731 3.44895 0
M  V30 10879 H 1049.02 0.235353 3.99107 0
M  V30 10880 H 1050.46 -0.788676 4.166 0
M  V30 10881 C 1048.92 -1.63613 2.94504 0
M  V30 10882 O 1049.45 -2.73549 2.94166 0
M  V30 10883 N 1047.65 -1.47183 2.5057 0
M  V30 10884 H 1047.2 -0.577479 2.51044 0
M  V30 10885 H 1047.16 -2.27303 2.17211 0
M  V30 10886 N 1050.93 -1.4397 0.641131 0
M  V30 10887 C 1051.86 -2.33458 -0.04446 0
M  V30 10888 C 1052.84 -1.48781 -0.824507 0
M  V30 10889 O 1054.03 -1.77477 -0.788397 0
M  V30 10890 C 1051.16 -3.31989 -1.01984 0
M  V30 10891 C 1050.11 -4.2656 -0.350745 0
M  V30 10892 C 1049.44 -5.15036 -1.43673 0
M  V30 10893 C 1050.74 -5.16897 0.749299 0
M  V30 10894 H 1052.43 -2.91034 0.702832 0
M  V30 10895 H 1049.98 -1.39942 0.339435 0
M  V30 10896 H 1051.93 -3.93483 -1.50828 0
M  V30 10897 H 1050.65 -2.72643 -1.79815 0
M  V30 10898 H 1049.31 -3.66413 0.117139 0
M  V30 10899 H 1048.96 -4.52037 -2.20617 0
M  V30 10900 H 1048.66 -5.79125 -0.994358 0
M  V30 10901 H 1050.18 -5.79403 -1.92678 0
M  V30 10902 H 1051.6 -5.7227 0.343534 0
M  V30 10903 H 1049.99 -5.89643 1.11541 0
M  V30 10904 H 1051.06 -4.5731 1.61232 0
M  V30 10905 N 1052.41 -0.382291 -1.52893 0
M  V30 10906 C 1053.65 0.202433 -2.01787 0
M  V30 10907 C 1053.99 1.47044 -1.26853 0
M  V30 10908 O 1053.26 1.91007 -0.366969 0
M  V30 10909 C 1053.54 0.477471 -3.5692 0
M  V30 10910 C 1053.4 -0.805339 -4.42532 0
M  V30 10911 C 1054.72 1.27106 -4.21346 0
M  V30 10912 H 1051.84 0.0720998 -0.733465 0
M  V30 10913 H 1054.48 -0.510478 -1.83014 0
M  V30 10914 H 1052.63 1.08478 -3.73048 0
M  V30 10915 H 1054.3 -1.4424 -4.3817 0
M  V30 10916 H 1052.54 -1.42216 -4.09826 0
M  V30 10917 H 1053.21 -0.567635 -5.49074 0
M  V30 10918 H 1055.69 0.757161 -4.09153 0
M  V30 10919 H 1054.57 1.43225 -5.29885 0
M  V30 10920 H 1054.83 2.28431 -3.78513 0
M  V30 10921 N 1053.89 1.57202 -0.111913 0
M  V30 10922 C 1055.11 1.99297 0.555713 0
M  V30 10923 C 1055.53 0.991444 1.60673 0
M  V30 10924 O 1054.89 -0.0166672 1.82492 0
M  V30 10925 C 1054.94 3.41413 1.18826 0
M  V30 10926 O 1054.66 4.37733 0.179261 0
M  V30 10927 C 1056.16 3.98602 1.93989 0
M  V30 10928 H 1053.38 0.654543 0.147695 0
M  V30 10929 H 1055.92 2.03557 -0.196163 0
M  V30 10930 H 1054.08 3.38115 1.89096 0
M  V30 10931 H 1054.49 5.20606 0.637935 0
M  V30 10932 H 1055.97 5.00143 2.33584 0
M  V30 10933 H 1056.44 3.37349 2.81233 0
M  V30 10934 H 1057.05 4.05424 1.28497 0
M  V30 10935 N 1055.36 -0.161842 1.56767 0
M  V30 10936 C 1056.3 -1.22499 1.93718 0
M  V30 10937 C 1057.31 -1.39975 0.831314 0
M  V30 10938 O 1058.5 -1.3981 1.10975 0
M  V30 10939 C 1055.6 -2.59222 2.18306 0
M  V30 10940 C 1054.77 -2.6292 3.4956 0
M  V30 10941 C 1053.83 -3.81074 3.62863 0
M  V30 10942 O 1052.86 -3.66633 4.35395 0
M  V30 10943 N 1054.06 -4.97923 2.98418 0
M  V30 10944 H 1056.82 -0.911043 2.85517 0
M  V30 10945 H 1054.38 -0.351533 1.58038 0
M  V30 10946 H 1056.38 -3.36749 2.24461 0
M  V30 10947 H 1054.95 -2.82969 1.32844 0
M  V30 10948 H 1054.17 -1.71418 3.54978 0
M  V30 10949 H 1055.45 -2.62409 4.35911 0
M  V30 10950 H 1054.85 -5.12557 2.39378 0
M  V30 10951 H 1053.41 -5.73277 3.10155 0
M  V30 10952 N 1056.84 -1.516 -0.430713 0
M  V30 10953 C 1057.77 -1.69594 -1.54177 0
M  V30 10954 C 1058.79 -0.576518 -1.5225 0
M  V30 10955 O 1059.98 -0.85104 -1.56906 0
M  V30 10956 C 1057.08 -1.70148 -2.93092 0
M  V30 10957 C 1056.25 -2.98782 -3.1945 0
M  V30 10958 C 1055.31 -2.91435 -4.38123 0
M  V30 10959 O 1054.33 -3.65372 -4.36454 0
M  V30 10960 N 1055.54 -2.0774 -5.42056 0
M  V30 10961 H 1058.3 -2.65442 -1.39143 0
M  V30 10962 H 1055.86 -1.49569 -0.61974 0
M  V30 10963 H 1057.85 -1.62793 -3.70514 0
M  V30 10964 H 1056.42 -0.818667 -3.0169 0
M  V30 10965 H 1055.64 -3.19954 -2.30267 0
M  V30 10966 H 1056.93 -3.83919 -3.33892 0
M  V30 10967 H 1056.33 -1.47059 -5.46251 0
M  V30 10968 H 1054.89 -2.06259 -6.18305 0
M  V30 10969 N 1058.32 0.686584 -1.41858 0
M  V30 10970 C 1059.25 1.81264 -1.47193 0
M  V30 10971 C 1060.23 1.66875 -0.329657 0
M  V30 10972 O 1061.42 1.86473 -0.542347 0
M  V30 10973 C 1058.55 3.19472 -1.36216 0
M  V30 10974 C 1057.5 3.4858 -2.48347 0
M  V30 10975 C 1056.83 4.86239 -2.22432 0
M  V30 10976 C 1058.13 3.46653 -3.90678 0
M  V30 10977 H 1059.82 1.77057 -2.41436 0
M  V30 10978 H 1057.37 0.850415 -1.16206 0
M  V30 10979 H 1059.32 3.97969 -1.38558 0
M  V30 10980 H 1058.04 3.24327 -0.384611 0
M  V30 10981 H 1056.7 2.72437 -2.45303 0
M  V30 10982 H 1056.35 4.8773 -1.22999 0
M  V30 10983 H 1056.05 5.06677 -2.97577 0
M  V30 10984 H 1057.57 5.67034 -2.26505 0
M  V30 10985 H 1058.99 4.15139 -3.95389 0
M  V30 10986 H 1057.38 3.78625 -4.65578 0
M  V30 10987 H 1058.45 2.45451 -4.18189 0
M  V30 10988 N 1059.8 1.27835 0.921735 0
M  V30 10989 C 1061.02 1.17465 1.70929 0
M  V30 10990 C 1061.45 -0.264171 1.86236 0
M  V30 10991 O 1060.81 -1.19124 1.36671 0
M  V30 10992 C 1060.85 1.8697 3.08342 0
M  V30 10993 O 1059.96 1.17173 3.95404 0
M  V30 10994 H 1059.3 0.408206 0.523702 0
M  V30 10995 H 1061.83 1.69013 1.15307 0
M  V30 10996 H 1061.84 1.94564 3.58621 0
M  V30 10997 H 1060.51 2.91633 2.96518 0
M  V30 10998 H 1059.09 1.17688 3.53842 0
M  V30 10999 N 1061.28 -1.12907 1.09954 0
M  V30 11000 C 1062.22 -2.18485 0.743848 0
M  V30 11001 C 1063.19 -1.63766 -0.277494 0
M  V30 11002 O 1064.38 -1.90146 -0.157899 0
M  V30 11003 C 1061.52 -3.44649 0.176437 0
M  V30 11004 C 1060.63 -4.13445 1.25248 0
M  V30 11005 C 1059.77 -5.27242 0.647242 0
M  V30 11006 C 1058.8 -5.87897 1.70421 0
M  V30 11007 N 1057.94 -6.93116 1.1196 0
M  V30 11008 H 1062.78 -2.48257 1.64841 0
M  V30 11009 H 1060.32 -1.21891 0.823471 0
M  V30 11010 H 1062.28 -4.16852 -0.170384 0
M  V30 11011 H 1060.91 -3.15309 -0.69137 0
M  V30 11012 H 1059.96 -3.39471 1.7165 0
M  V30 11013 H 1061.27 -4.54601 2.05279 0
M  V30 11014 H 1060.42 -6.06186 0.249579 0
M  V30 11015 H 1059.16 -4.87351 -0.184556 0
M  V30 11016 H 1058.17 -5.07643 2.11136 0
M  V30 11017 H 1059.39 -6.2986 2.53877 0
M  V30 11018 H 1057.34 -6.55271 0.309181 0
M  V30 11019 H 1057.26 -7.32843 1.85681 0
M  V30 11020 H 1058.52 -7.759 0.748326 0
M  V30 11021 N 1062.75 -0.88754 -1.30232 0
M  V30 11022 C 1063.98 -0.521562 -2.00735 0
M  V30 11023 C 1064.4 0.883247 -1.66073 0
M  V30 11024 O 1063.76 1.58581 -0.878731 0
M  V30 11025 C 1063.81 -0.706521 -3.53611 0
M  V30 11026 O 1062.91 0.246447 -4.11663 0
M  V30 11027 H 1062.25 -0.205216 -0.631492 0
M  V30 11028 H 1064.78 -1.19579 -1.66018 0
M  V30 11029 H 1064.79 -0.606501 -4.03467 0
M  V30 11030 H 1063.47 -1.73076 -3.78177 0
M  V30 11031 H 1062.05 0.0999062 -3.72766 0
M  V30 11032 N 1064.23 1.43628 -0.648757 0
M  V30 11033 C 1065.16 2.29045 0.0841858 0
M  V30 11034 C 1066.18 1.42262 0.791537 0
M  V30 11035 O 1067.37 1.66243 0.650039 0
M  V30 11036 C 1064.47 3.19075 1.14212 0
M  V30 11037 C 1063.64 4.34372 0.513799 0
M  V30 11038 C 1062.7 5.05307 1.46803 0
M  V30 11039 O 1061.72 5.60729 0.978346 0
M  V30 11040 N 1062.93 5.08393 2.80209 0
M  V30 11041 H 1065.69 2.9259 -0.648948 0
M  V30 11042 H 1063.25 1.54268 -0.491209 0
M  V30 11043 H 1065.24 3.63395 1.78119 0
M  V30 11044 H 1063.81 2.57161 1.77728 0
M  V30 11045 H 1063.03 3.93024 -0.304262 0
M  V30 11046 H 1064.32 5.08745 0.0749871 0
M  V30 11047 H 1063.72 4.64729 3.22557 0
M  V30 11048 H 1062.28 5.56445 3.3943 0
M  V30 11049 N 1065.71 0.390394 1.52688 0
M  V30 11050 C 1066.96 -0.191729 2.01892 0
M  V30 11051 C 1067.29 -1.4637 1.27631 0
M  V30 11052 O 1066.56 -1.90809 0.377094 0
M  V30 11053 C 1066.85 -0.458535 3.57169 0
M  V30 11054 C 1066.7 0.828796 4.42098 0
M  V30 11055 C 1068.02 -1.2487 4.22014 0
M  V30 11056 H 1065.14 -0.0682091 0.733837 0
M  V30 11057 H 1067.78 0.520176 1.82741 0
M  V30 11058 H 1065.93 -1.06498 3.73618 0
M  V30 11059 H 1067.6 1.46562 4.37398 0
M  V30 11060 H 1065.85 1.44388 4.09066 0
M  V30 11061 H 1066.52 0.596746 5.48765 0
M  V30 11062 H 1068.99 -0.735452 4.09549 0
M  V30 11063 H 1067.87 -1.40412 5.30637 0
M  V30 11064 H 1068.13 -2.2642 3.79719 0
M  V30 11065 N 1067.19 -1.57141 0.120249 0
M  V30 11066 C 1068.1 -2.18925 -0.843155 0
M  V30 11067 C 1069.11 -1.16575 -1.29175 0
M  V30 11068 O 1070.29 -1.4905 -1.35448 0
M  V30 11069 C 1067.36 -2.7775 -2.075 0
M  V30 11070 C 1066.42 -3.95139 -1.6782 0
M  V30 11071 C 1065.65 -4.51149 -2.85132 0
M  V30 11072 O 1065.87 -4.06056 -4.00593 0
M  V30 11073 O 1064.81 -5.41815 -2.62145 0
M  V30 11074 H 1068.63 -3.01707 -0.347357 0
M  V30 11075 H 1066.22 -1.49028 -0.105427 0
M  V30 11076 H 1068.1 -3.15243 -2.79643 0
M  V30 11077 H 1066.77 -1.97998 -2.56083 0
M  V30 11078 H 1065.68 -3.62412 -0.927807 0
M  V30 11079 H 1067.01 -4.7633 -1.23977 0
M  V30 11080 N 1068.67 0.153526 -1.5685 0
M  V30 11081 C 1069.94 0.895545 -1.73895 0
M  V30 11082 C 1070.32 1.99625 -0.686504 0
M  V30 11083 O 1069.67 2.26579 0.2957 0
M  V30 11084 C 1069.88 1.44399 -3.17726 0
M  V30 11085 C 1071.23 1.90996 -3.79217 0
M  V30 11086 O 1072.25 1.54155 -3.21115 0
M  V30 11087 O 1071.11 2.58917 -4.81274 0
M  V30 11088 H 1068.21 0.422755 -0.710779 0
M  V30 11089 H 1070.75 0.139961 -1.69122 0
M  V30 11090 H 1069.52 0.652635 -3.85819 0
M  V30 11091 H 1069.15 2.26326 -3.26898 0
M  V30 11092 N 1070.14 1.51827 0.422667 0
M  V30 11093 C 1071.56 1.57533 1.00201 0
M  V30 11094 C 1071.91 0.407623 1.91919 0
M  V30 11095 O 1071.03 -0.473763 2.1115 0
M  V30 11096 C 1071.63 2.85508 1.82403 0
M  V30 11097 C 1070.19 2.93737 2.35362 0
M  V30 11098 C 1069.33 2.52343 1.14971 0
M  V30 11099 H 1072.28 1.57391 0.20339 0
M  V30 11100 H 1072.3 2.70097 2.68007 0
M  V30 11101 H 1071.82 3.70477 1.15623 0
M  V30 11102 H 1069.92 2.13231 3.05554 0
M  V30 11103 H 1070.03 3.977 2.67155 0
M  V30 11104 H 1068.39 2.05878 1.49955 0
M  V30 11105 H 1069.18 3.39672 0.497786 0
M  V30 11106 N 1071.62 -0.679052 1.4222 0
M  V30 11107 C 1072.55 -1.80481 1.48152 0
M  V30 11108 C 1073.53 -1.66698 0.338502 0
M  V30 11109 O 1074.72 -1.86183 0.552228 0
M  V30 11110 C 1071.85 -3.18746 1.37908 0
M  V30 11111 C 1070.8 -3.47258 2.50192 0
M  V30 11112 C 1070.13 -4.85052 2.25008 0
M  V30 11113 C 1071.43 -3.44576 3.92511 0
M  V30 11114 H 1073.12 -1.75774 2.42371 0
M  V30 11115 H 1070.67 -0.844241 1.16656 0
M  V30 11116 H 1072.62 -3.97229 1.40666 0
M  V30 11117 H 1071.35 -3.24119 0.401806 0
M  V30 11118 H 1070 -2.71133 2.46744 0
M  V30 11119 H 1069.65 -4.8707 1.25584 0
M  V30 11120 H 1069.35 -5.05092 3.00259 0
M  V30 11121 H 1070.88 -5.65825 2.29508 0
M  V30 11122 H 1072.29 -4.13036 3.97585 0
M  V30 11123 H 1070.69 -3.76151 4.67579 0
M  V30 11124 H 1071.76 -2.4323 4.19484 0
M  V30 11125 N 1073.1 -1.28322 -0.914942 0
M  V30 11126 C 1074.51 -1.13937 -1.47903 0
M  V30 11127 C 1074.86 0.271072 -1.94318 0
M  V30 11128 O 1073.99 1.16522 -1.8235 0
M  V30 11129 C 1074.58 -2.06221 -2.68809 0
M  V30 11130 C 1073.14 -1.95903 -3.21402 0
M  V30 11131 C 1072.29 -1.98031 -1.94111 0
M  V30 11132 H 1075.24 -1.41029 -0.727772 0
M  V30 11133 H 1075.26 -1.6255 -3.44031 0
M  V30 11134 H 1074.77 -3.08866 -2.34997 0
M  V30 11135 H 1072.87 -0.962907 -3.59943 0
M  V30 11136 H 1072.99 -2.82799 -3.86732 0
M  V30 11137 H 1071.35 -1.42423 -2.11158 0
M  V30 11138 H 1072.13 -3.02354 -1.62595 0
M  V30 11139 N 1074.58 1.12322 -1.10551 0
M  V30 11140 C 1075.99 1.6539 -0.8662 0
M  V30 11141 C 1076.34 1.86695 0.603284 0
M  V30 11142 O 1075.47 1.59432 1.46323 0
M  V30 11143 C 1076.06 3.00443 -1.56587 0
M  V30 11144 C 1074.62 3.50456 -1.37323 0
M  V30 11145 C 1073.77 2.25454 -1.61449 0
M  V30 11146 H 1076.72 0.960866 -1.26305 0
M  V30 11147 H 1076.74 3.66972 -1.00557 0
M  V30 11148 H 1076.25 2.84905 -2.63535 0
M  V30 11149 H 1074.35 3.71176 -0.325431 0
M  V30 11150 H 1074.46 4.29839 -2.11601 0
M  V30 11151 H 1072.83 2.32621 -1.03729 0
M  V30 11152 H 1073.61 2.12469 -2.69651 0
M  V30 11153 N 1076.06 0.894434 1.2976 0
M  V30 11154 C 1077.3 0.518435 1.96061 0
M  V30 11155 C 1077.64 -0.931882 1.70381 0
M  V30 11156 O 1076.91 -1.65988 1.01381 0
M  V30 11157 C 1077.19 0.80519 3.50982 0
M  V30 11158 C 1077.05 2.30683 3.86142 0
M  V30 11159 C 1078.37 0.288096 4.39156 0
M  V30 11160 H 1075.48 0.18983 0.712133 0
M  V30 11161 H 1078.13 1.12016 1.53468 0
M  V30 11162 H 1076.28 0.293071 3.87393 0
M  V30 11163 H 1077.95 2.88808 3.59705 0
M  V30 11164 H 1076.19 2.76968 3.33873 0
M  V30 11165 H 1076.86 2.45805 4.94251 0
M  V30 11166 H 1079.34 0.726547 4.09708 0
M  V30 11167 H 1078.21 0.517985 5.4645 0
M  V30 11168 H 1078.48 -0.811018 4.34597 0
M  V30 11169 N 1077.53 -1.43282 0.656365 0
M  V30 11170 C 1078.78 -2.01776 0.171039 0
M  V30 11171 C 1079.11 -1.51795 -1.21609 0
M  V30 11172 O 1078.36 -0.702864 -1.82643 0
M  V30 11173 C 1078.66 -3.57148 0.134225 0
M  V30 11174 C 1078.33 -4.26488 1.46352 0
M  V30 11175 C 1076.99 -4.45146 1.82753 0
M  V30 11176 C 1079.34 -4.65728 2.33981 0
M  V30 11177 C 1076.67 -5.0031 3.06443 0
M  V30 11178 C 1079.02 -5.22263 3.56966 0
M  V30 11179 C 1077.69 -5.39136 3.93559 0
M  V30 11180 H 1076.96 -0.738352 0.0625878 0
M  V30 11181 H 1079.6 -1.71716 0.847697 0
M  V30 11182 H 1077.91 -3.86768 -0.625892 0
M  V30 11183 H 1079.61 -4.00168 -0.258207 0
M  V30 11184 H 1076.2 -4.12313 1.1703 0
M  V30 11185 H 1080.38 -4.51003 2.07148 0
M  V30 11186 H 1075.64 -5.11559 3.34839 0
M  V30 11187 H 1079.81 -5.51614 4.25082 0
M  V30 11188 H 1077.44 -5.81646 4.89481 0
M  V30 11189 N 1079.01 -0.398486 -1.52479 0
M  V30 11190 C 1080.24 0.183059 -2.06591 0
M  V30 11191 C 1080.66 1.3898 -1.26753 0
M  V30 11192 O 1080.02 1.78885 -0.294959 0
M  V30 11193 C 1080.07 0.522392 -3.56796 0
M  V30 11194 O 1079.17 1.61499 -3.79462 0
M  V30 11195 H 1078.51 0.0188411 -0.663733 0
M  V30 11196 H 1081.04 -0.56861 -1.9654 0
M  V30 11197 H 1081.05 0.784078 -4.00395 0
M  V30 11198 H 1079.73 -0.359807 -4.14341 0
M  V30 11199 H 1078.31 1.3463 -3.47749 0
M  V30 11200 N 1080.49 1.57075 -0.12858 0
M  V30 11201 C 1081.74 1.95134 0.526046 0
M  V30 11202 C 1082.06 1.01337 1.66601 0
M  V30 11203 O 1081.33 0.0714361 1.9577 0
M  V30 11204 H 1079.91 0.720468 0.19732 0
M  V30 11205 H 1082.57 1.93874 -0.199767 0
M  V30 11206 H 1081.67 2.98406 0.914332 0
M  V30 11207 N 1081.97 -0.145205 1.5693 0
M  V30 11208 C 1083.2 -0.872398 1.87608 0
M  V30 11209 C 1083.61 -1.74657 0.716975 0
M  V30 11210 O 1082.97 -1.79792 -0.3132 0
M  V30 11211 C 1083.02 -1.72762 3.17546 0
M  V30 11212 O 1082.74 -0.888681 4.28992 0
M  V30 11213 C 1084.24 -2.56224 3.61751 0
M  V30 11214 H 1081.46 -0.252166 0.621815 0
M  V30 11215 H 1084.01 -0.137456 2.04038 0
M  V30 11216 H 1082.16 -2.41561 3.02865 0
M  V30 11217 H 1082.58 -1.47601 5.03303 0
M  V30 11218 H 1084.05 -3.11804 4.55502 0
M  V30 11219 H 1084.53 -3.32347 2.87127 0
M  V30 11220 H 1085.13 -1.92714 3.79133 0
M  V30 11221 N 1083.45 -1.52049 -0.414609 0
M  V30 11222 C 1084.86 -1.58062 -0.993638 0
M  V30 11223 C 1085.21 -0.417795 -1.917 0
M  V30 11224 O 1084.33 0.462558 -2.11399 0
M  V30 11225 C 1084.93 -2.86471 -1.80886 0
M  V30 11226 C 1083.49 -2.94981 -2.33801 0
M  V30 11227 C 1082.64 -2.52949 -1.13631 0
M  V30 11228 H 1085.59 -1.57497 -0.19504 0
M  V30 11229 H 1085.61 -2.71515 -2.66571 0
M  V30 11230 H 1085.12 -3.71085 -1.13657 0
M  V30 11231 H 1083.22 -2.14849 -3.04419 0
M  V30 11232 H 1083.33 -3.99111 -2.65042 0
M  V30 11233 H 1081.7 -2.0667 -1.48861 0
M  V30 11234 H 1082.48 -3.39931 -0.479765 0
M  V30 11235 N 1084.93 0.6715 -1.42579 0
M  V30 11236 C 1085.87 1.78496 -1.46314 0
M  V30 11237 C 1086.84 1.63091 -0.314743 0
M  V30 11238 O 1088.03 1.83597 -0.519292 0
M  V30 11239 C 1085.17 3.16548 -1.37447 0
M  V30 11240 C 1084.28 3.43216 -2.62348 0
M  V30 11241 C 1083.42 4.71014 -2.456 0
M  V30 11242 C 1082.45 4.90728 -3.65859 0
M  V30 11243 N 1081.59 6.09769 -3.48032 0
M  V30 11244 H 1086.43 1.74638 -2.41466 0
M  V30 11245 H 1083.97 0.852491 -1.19879 0
M  V30 11246 H 1085.93 3.96329 -1.30303 0
M  V30 11247 H 1084.56 3.19522 -0.458891 0
M  V30 11248 H 1083.61 2.57664 -2.79846 0
M  V30 11249 H 1084.92 3.53675 -3.51732 0
M  V30 11250 H 1084.07 5.58892 -2.3606 0
M  V30 11251 H 1082.81 4.62843 -1.53712 0
M  V30 11252 H 1081.82 4.01291 -3.75827 0
M  V30 11253 H 1083.04 5.00741 -4.58732 0
M  V30 11254 H 1080.99 6.02765 -2.58864 0
M  V30 11255 H 1080.91 6.21104 -4.31005 0
M  V30 11256 H 1082.17 7.00317 -3.42311 0
M  V30 11257 N 1086.4 1.28806 0.908124 0
M  V30 11258 C 1087.65 1.16058 1.65454 0
M  V30 11259 C 1087.97 -0.290057 1.92831 0
M  V30 11260 O 1087.24 -1.20001 1.54843 0
M  V30 11261 H 1085.82 0.426522 0.61326 0
M  V30 11262 H 1088.48 1.61614 1.08936 0
M  V30 11263 H 1087.58 1.70437 2.61453 0
M  V30 11264 N 1087.88 -1.11734 1.11145 0
M  V30 11265 C 1089.11 -1.87755 0.881062 0
M  V30 11266 C 1089.53 -1.79461 -0.563496 0
M  V30 11267 O 1088.89 -1.15481 -1.39763 0
M  V30 11268 C 1088.94 -3.34641 1.34342 0
M  V30 11269 O 1088.04 -4.09195 0.513157 0
M  V30 11270 H 1087.38 -0.583111 0.317613 0
M  V30 11271 H 1089.91 -1.41256 1.48013 0
M  V30 11272 H 1089.92 -3.85486 1.33658 0
M  V30 11273 H 1088.6 -3.39994 2.39534 0
M  V30 11274 H 1087.17 -3.68269 0.585833 0
M  V30 11275 N 1089.36 -0.901303 -1.29284 0
M  V30 11276 C 1090.61 -0.527 -1.95108 0
M  V30 11277 C 1090.93 0.930065 -1.71391 0
M  V30 11278 O 1090.2 1.65601 -1.04658 0
M  V30 11279 H 1088.78 -0.191903 -0.721929 0
M  V30 11280 H 1091.44 -1.14795 -1.57506 0
M  V30 11281 H 1090.54 -0.710945 -3.03895 0
M  V30 11282 N 1090.84 1.42931 -0.663954 0
M  V30 11283 C 1091.8 2.29197 0.0117626 0
M  V30 11284 C 1092.8 1.42767 0.739875 0
M  V30 11285 O 1093.99 1.64278 0.579509 0
M  V30 11286 C 1091.12 3.2505 1.02738 0
M  V30 11287 H 1092.32 2.90438 -0.747391 0
M  V30 11288 H 1089.87 1.5039 -0.425733 0
M  V30 11289 H 1090.6 2.68726 1.8154 0
M  V30 11290 H 1090.39 3.88785 0.508809 0
M  V30 11291 H 1091.88 3.89771 1.49893 0
M  V30 11292 N 1092.32 0.406567 1.52266 0
M  V30 11293 C 1093.56 -0.169717 2.01386 0
M  V30 11294 C 1093.88 -1.45864 1.29417 0
M  V30 11295 O 1093.15 -1.9136 0.419327 0
M  V30 11296 H 1091.73 -0.0657075 0.744105 0
M  V30 11297 H 1094.4 0.542221 1.87206 0
M  V30 11298 H 1093.49 -0.367659 3.09927 0
M  V30 11299 N 1093.79 -1.57004 0.136909 0
M  V30 11300 C 1095.02 -1.99866 -0.523177 0
M  V30 11301 C 1095.43 -1.01584 -1.59616 0
M  V30 11302 O 1094.78 -0.00326426 -1.837 0
M  V30 11303 C 1094.84 -3.39157 -1.19217 0
M  V30 11304 C 1094.5 -4.56231 -0.265 0
M  V30 11305 C 1095.5 -5.17457 0.503412 0
M  V30 11306 C 1093.18 -5.02009 -0.170846 0
M  V30 11307 C 1095.18 -6.22863 1.35353 0
M  V30 11308 C 1092.86 -6.07273 0.682884 0
M  V30 11309 C 1093.86 -6.67568 1.44369 0
M  V30 11310 O 1093.55 -7.70795 2.28321 0
M  V30 11311 H 1093.28 -0.661005 -0.141593 0
M  V30 11312 H 1095.84 -2.04159 0.225445 0
M  V30 11313 H 1094.07 -3.31672 -1.98823 0
M  V30 11314 H 1095.76 -3.66191 -1.75096 0
M  V30 11315 H 1096.52 -4.82994 0.440648 0
M  V30 11316 H 1092.4 -4.54813 -0.752744 0
M  V30 11317 H 1095.94 -6.69855 1.94783 0
M  V30 11318 H 1091.84 -6.41163 0.746978 0
M  V30 11319 H 1092.61 -7.87971 2.21458 0
M  V30 11320 N 1095.27 0.136881 -1.57004 0
M  V30 11321 C 1096.52 0.8461 -1.83536 0
M  V30 11322 C 1096.84 1.81246 -0.71937 0
M  V30 11323 O 1096.11 1.94191 0.258161 0
M  V30 11324 H 1094.69 0.315446 -0.677128 0
M  V30 11325 H 1097.35 0.128469 -1.94476 0
M  V30 11326 H 1096.45 1.40221 -2.78827 0
M  V30 11327 N 1096.75 1.52266 0.40654 0
M  V30 11328 C 1098 1.66699 1.15496 0
M  V30 11329 C 1098.33 0.397019 1.90098 0
M  V30 11330 O 1097.6 -0.604646 1.84863 0
M  V30 11331 C 1097.89 2.8907 2.14734 0
M  V30 11332 C 1097.74 4.26123 1.44012 0
M  V30 11333 C 1099.06 3.06966 3.15373 0
M  V30 11334 H 1096.18 0.606642 0.418515 0
M  V30 11335 H 1098.82 1.84826 0.440381 0
M  V30 11336 H 1096.97 2.73745 2.75673 0
M  V30 11337 H 1098.64 4.5318 0.861722 0
M  V30 11338 H 1096.89 4.27406 0.742064 0
M  V30 11339 H 1097.56 5.07799 2.16436 0
M  V30 11340 H 1100.03 3.21205 2.64512 0
M  V30 11341 H 1098.91 3.94097 3.82072 0
M  V30 11342 H 1099.17 2.20395 3.83247 0
M  V30 11343 N 1098.23 -0.663929 1.42933 0
M  V30 11344 C 1099.48 -1.42111 1.43697 0
M  V30 11345 C 1099.8 -1.94913 0.0583858 0
M  V30 11346 O 1099.07 -1.73757 -0.904719 0
M  V30 11347 H 1097.65 -0.527391 0.529026 0
M  V30 11348 H 1100.31 -0.783766 1.78446 0
M  V30 11349 H 1099.41 -2.26877 2.1432 0
M  V30 11350 N 1099.71 -1.29285 -0.901281 0
M  V30 11351 C 1100.95 -1.17165 -1.65162 0
M  V30 11352 C 1101.28 0.277184 -1.92515 0
M  V30 11353 O 1100.54 1.2168 -1.53273 0
M  V30 11354 C 1100.84 -1.92865 -3.00895 0
M  V30 11355 C 1100.5 -3.42593 -2.93157 0
M  V30 11356 C 1099.16 -3.83426 -2.90754 0
M  V30 11357 C 1101.52 -4.38011 -2.82481 0
M  V30 11358 C 1098.84 -5.17997 -2.75492 0
M  V30 11359 C 1101.2 -5.7267 -2.68759 0
M  V30 11360 C 1099.86 -6.12764 -2.64721 0
M  V30 11361 H 1099.13 -0.428737 -0.604372 0
M  V30 11362 H 1101.78 -1.60204 -1.04914 0
M  V30 11363 H 1100.08 -1.42412 -3.65001 0
M  V30 11364 H 1101.78 -1.80893 -3.57881 0
M  V30 11365 H 1098.37 -3.10134 -2.95829 0
M  V30 11366 H 1102.55 -4.07417 -2.83416 0
M  V30 11367 H 1097.81 -5.48173 -2.70769 0
M  V30 11368 H 1101.98 -6.46258 -2.59469 0
M  V30 11369 H 1099.61 -7.16987 -2.52652 0
M  V30 11370 N 1101.18 1.11143 -1.11736 0
M  V30 11371 C 1102.46 1.79384 -0.779785 0
M  V30 11372 C 1102.84 1.98015 0.731668 0
M  V30 11373 O 1102.19 1.56731 1.66276 0
M  V30 11374 C 1102.4 3.12868 -1.54643 0
M  V30 11375 C 1103.75 3.8786 -1.7277 0
M  V30 11376 O 1104.77 3.22566 -1.51094 0
M  V30 11377 O 1103.63 5.05034 -2.08813 0
M  V30 11378 H 1100.72 0.777128 -0.282845 0
M  V30 11379 H 1103.27 1.17858 -1.22096 0
M  V30 11380 H 1102.04 2.94682 -2.57446 0
M  V30 11381 H 1101.67 3.82109 -1.09901 0
M  V30 11382 N 1102.66 0.908147 1.28804 0
M  V30 11383 C 1103.59 0.409106 2.29888 0
M  V30 11384 C 1104.57 -0.520338 1.61946 0
M  V30 11385 O 1105.76 -0.429268 1.89396 0
M  V30 11386 C 1102.89 -0.35669 3.45463 0
M  V30 11387 C 1101.84 0.4831 4.25265 0
M  V30 11388 C 1101.17 -0.4107 5.3312 0
M  V30 11389 C 1102.47 1.73744 4.92555 0
M  V30 11390 H 1104.16 1.25386 2.7188 0
M  V30 11391 H 1101.71 0.604368 1.30703 0
M  V30 11392 H 1103.66 -0.71661 4.15262 0
M  V30 11393 H 1102.39 -1.2353 3.02337 0
M  V30 11394 H 1101.04 0.825464 3.57186 0
M  V30 11395 H 1100.69 -1.28769 4.86238 0
M  V30 11396 H 1100.39 0.14756 5.87415 0
M  V30 11397 H 1101.92 -0.766626 6.05768 0
M  V30 11398 H 1103.33 1.44676 5.54745 0
M  V30 11399 H 1101.73 2.23767 5.5682 0
M  V30 11400 H 1102.8 2.46853 4.17363 0
M  V30 11401 N 1104.14 -1.42577 0.671525 0
M  V30 11402 C 1105.05 -2.34598 -0.00898225 0
M  V30 11403 C 1106.07 -1.54909 -0.792407 0
M  V30 11404 O 1107.24 -1.87491 -0.735477 0
M  V30 11405 C 1104.31 -3.33405 -0.950888 0
M  V30 11406 C 1103.37 -4.28993 -0.16236 0
M  V30 11407 C 1102.6 -5.2308 -1.0594 0
M  V30 11408 O 1102.82 -5.22022 -2.2989 0
M  V30 11409 O 1101.76 -5.99632 -0.521966 0
M  V30 11410 H 1105.58 -2.94321 0.748927 0
M  V30 11411 H 1103.17 -1.43025 0.43175 0
M  V30 11412 H 1105.05 -3.94115 -1.49169 0
M  V30 11413 H 1103.73 -2.7616 -1.68871 0
M  V30 11414 H 1102.63 -3.71707 0.42247 0
M  V30 11415 H 1103.97 -4.8927 0.536274 0
M  V30 11416 N 1105.62 -0.414636 -1.52048 0
M  V30 11417 C 1106.53 0.414861 -2.30903 0
M  V30 11418 C 1107.54 1.04855 -1.38858 0
M  V30 11419 O 1108.72 1.04886 -1.71933 0
M  V30 11420 C 1105.79 1.51356 -3.11917 0
M  V30 11421 C 1104.85 0.902359 -4.19709 0
M  V30 11422 C 1104.08 1.9487 -4.96852 0
M  V30 11423 O 1104.3 3.16766 -4.74358 0
M  V30 11424 O 1103.24 1.55186 -5.8155 0
M  V30 11425 H 1107.06 -0.228251 -3.02841 0
M  V30 11426 H 1104.65 -0.177704 -1.48339 0
M  V30 11427 H 1106.53 2.15127 -3.62351 0
M  V30 11428 H 1105.2 2.14117 -2.42767 0
M  V30 11429 H 1104.11 0.22721 -3.73409 0
M  V30 11430 H 1105.44 0.318587 -4.91168 0
M  V30 11431 N 1107.1 1.56929 -0.145233 0
M  V30 11432 C 1108.34 1.96068 0.50632 0
M  V30 11433 C 1108.67 1.02999 1.64989 0
M  V30 11434 O 1107.93 0.0588581 1.95611 0
M  V30 11435 C 1108.23 3.41467 1.05522 0
M  V30 11436 C 1107.89 4.5089 0.0302827 0
M  V30 11437 C 1106.55 4.80542 -0.251475 0
M  V30 11438 C 1108.91 5.16917 -0.666783 0
M  V30 11439 C 1106.23 5.7353 -1.23614 0
M  V30 11440 C 1108.59 6.10965 -1.64025 0
M  V30 11441 C 1107.25 6.38998 -1.92973 0
M  V30 11442 H 1106.52 0.717464 0.185276 0
M  V30 11443 H 1109.17 1.90093 -0.23169 0
M  V30 11444 H 1107.47 3.44265 1.87053 0
M  V30 11445 H 1109.17 3.69077 1.5679 0
M  V30 11446 H 1105.76 4.2781 0.260069 0
M  V30 11447 H 1109.94 4.94142 -0.462297 0
M  V30 11448 H 1105.2 5.93543 -1.46687 0
M  V30 11449 H 1109.37 6.61204 -2.18591 0
M  V30 11450 H 1107 7.10855 -2.69423 0
M  V30 11451 N 1108.58 -0.128553 1.57075 0
M  V30 11452 C 1109.51 -1.15953 2.02675 0
M  V30 11453 C 1110.49 -1.43743 0.909501 0
M  V30 11454 O 1111.67 -1.54348 1.17857 0
M  V30 11455 C 1108.8 -2.48813 2.423 0
M  V30 11456 C 1107.76 -2.35506 3.57381 0
M  V30 11457 C 1107.08 -3.73243 3.82875 0
M  V30 11458 C 1108.38 -1.82359 4.89431 0
M  V30 11459 H 1110.08 -0.780283 2.89054 0
M  V30 11460 H 1107.62 -0.373896 1.39061 0
M  V30 11461 H 1109.57 -3.21179 2.72804 0
M  V30 11462 H 1108.3 -2.88609 1.52881 0
M  V30 11463 H 1106.96 -1.6559 3.27071 0
M  V30 11464 H 1106.61 -4.10507 2.90677 0
M  V30 11465 H 1106.31 -3.65195 4.60333 0
M  V30 11466 H 1107.83 -4.47128 4.15823 0
M  V30 11467 H 1109.24 -2.44533 5.18533 0
M  V30 11468 H 1107.64 -1.85156 5.70822 0
M  V30 11469 H 1108.71 -0.780478 4.78578 0
M  V30 11470 N 1110.05 -1.5248 -0.398459 0
M  V30 11471 C 1111 -1.77211 -1.50662 0
M  V30 11472 C 1112 -0.639638 -1.5686 0
M  V30 11473 O 1113.2 -0.821917 -1.60139 0
M  V30 11474 H 1109.58 -0.56057 -0.501264 0
M  V30 11475 H 1111.55 -2.70028 -1.26993 0
M  V30 11476 C 1110.3 -1.94944 -2.8791 0
M  V30 11477 H 1109.62 -2.8151 -2.83888 0
M  V30 11478 H 1111.06 -2.16243 -3.64712 0
M  V30 11479 C 1109.52 -0.719402 -3.29129 0
M  V30 11480 O 1110.05 0.107671 -4.01556 0
M  V30 11481 N 1108.25 -0.552228 -2.85305 0
M  V30 11482 H 1107.8 -1.22638 -2.26534 0
M  V30 11483 H 1107.76 0.269447 -3.13243 0
M  V30 11484 N 1111.53 0.65634 -1.43283 0
M  V30 11485 C 1112.46 1.78184 -1.44164 0
M  V30 11486 C 1113.48 1.59249 -0.338177 0
M  V30 11487 O 1114.67 1.68027 -0.60242 0
M  V30 11488 C 1111.77 3.15566 -1.23577 0
M  V30 11489 C 1110.94 3.61187 -2.46704 0
M  V30 11490 C 1110 4.77361 -2.21388 0
M  V30 11491 O 1109.02 4.8696 -2.94718 0
M  V30 11492 N 1110.23 5.67351 -1.22855 0
M  V30 11493 H 1112.99 1.77907 -2.41183 0
M  V30 11494 H 1110.55 0.840076 -1.38399 0
M  V30 11495 H 1112.54 3.90968 -1.04529 0
M  V30 11496 H 1111.11 3.10633 -0.350155 0
M  V30 11497 H 1110.33 2.76263 -2.81198 0
M  V30 11498 H 1111.62 3.88413 -3.28652 0
M  V30 11499 H 1111.02 5.62265 -0.622417 0
M  V30 11500 H 1109.58 6.42487 -1.09791 0
M  V30 11501 N 1113.01 1.29761 0.894412 0
M  V30 11502 C 1114.23 1.21064 1.68399 0
M  V30 11503 C 1114.66 -0.224608 1.86754 0
M  V30 11504 O 1114.02 -1.16199 1.39167 0
M  V30 11505 C 1114.07 1.93468 3.04306 0
M  V30 11506 O 1113.17 1.25533 3.9283 0
M  V30 11507 H 1112.51 0.419223 0.514925 0
M  V30 11508 H 1115.04 1.71421 1.11696 0
M  V30 11509 H 1115.05 2.02127 3.54413 0
M  V30 11510 H 1113.73 2.97857 2.90265 0
M  V30 11511 H 1112.3 1.25168 3.51266 0
M  V30 11512 N 1114.49 -1.10549 1.12324 0
M  V30 11513 C 1115.73 -1.82485 0.877817 0
M  V30 11514 C 1116.06 -1.85131 -0.596373 0
M  V30 11515 O 1115.32 -1.30675 -1.45679 0
M  V30 11516 C 1115.62 -3.28997 1.39626 0
M  V30 11517 C 1115.28 -3.465 2.88529 0
M  V30 11518 C 1113.94 -3.50984 3.29186 0
M  V30 11519 C 1116.3 -3.51991 3.84385 0
M  V30 11520 C 1113.62 -3.58525 4.6441 0
M  V30 11521 C 1115.98 -3.61065 5.19437 0
M  V30 11522 C 1114.64 -3.63813 5.5964 0
M  V30 11523 H 1113.91 -0.667758 0.321216 0
M  V30 11524 H 1116.56 -1.30314 1.40323 0
M  V30 11525 H 1114.86 -3.83726 0.791291 0
M  V30 11526 H 1116.56 -3.83165 1.18259 0
M  V30 11527 H 1113.15 -3.43686 2.56082 0
M  V30 11528 H 1117.33 -3.47777 3.54069 0
M  V30 11529 H 1112.59 -3.58934 4.94951 0
M  V30 11530 H 1116.76 -3.64257 5.9354 0
M  V30 11531 H 1114.39 -3.69409 6.6441 0
M  V30 11532 N 1115.97 -0.914965 -1.28321 0
M  V30 11533 C 1117.24 -0.46764 -1.89928 0
M  V30 11534 C 1117.62 1.05364 -1.82925 0
M  V30 11535 O 1116.97 1.90223 -1.26599 0
M  V30 11536 C 1117.18 -0.999372 -3.34385 0
M  V30 11537 C 1118.53 -1.0522 -4.11356 0
M  V30 11538 O 1119.55 -0.9481 -3.4335 0
M  V30 11539 O 1118.41 -1.21085 -5.32917 0
M  V30 11540 H 1115.51 -0.148398 -0.813577 0
M  V30 11541 H 1118.05 -1.00583 -1.36679 0
M  V30 11542 H 1116.82 -2.04333 -3.33712 0
M  V30 11543 H 1116.45 -0.442083 -3.95135 0
M  V30 11544 N 1117.44 1.42219 -0.679077 0
M  V30 11545 C 1118.38 2.28152 0.0468359 0
M  V30 11546 C 1119.35 1.41307 0.804433 0
M  V30 11547 O 1120.54 1.70744 0.798673 0
M  V30 11548 C 1117.67 3.21236 1.07355 0
M  V30 11549 C 1116.71 4.24515 0.411042 0
M  V30 11550 S 1117.54 5.28958 -0.834506 0
M  V30 11551 C 1118.7 6.25608 0.191029 0
M  V30 11552 H 1118.93 2.89371 -0.682045 0
M  V30 11553 H 1116.47 1.47112 -0.468767 0
M  V30 11554 H 1118.42 3.75402 1.66082 0
M  V30 11555 H 1117.09 2.59145 1.7749 0
M  V30 11556 H 1116.28 4.89849 1.1859 0
M  V30 11557 H 1115.88 3.73859 -0.102742 0
M  V30 11558 H 1118.17 6.69323 1.04944 0
M  V30 11559 H 1119.12 7.06806 -0.427959 0
M  V30 11560 H 1119.52 5.61926 0.538422 0
M  V30 11561 N 1118.92 0.422693 1.51826 0
M  V30 11562 C 1120.17 -0.148348 2.01555 0
M  V30 11563 C 1120.49 -1.44483 1.30956 0
M  V30 11564 O 1119.76 -1.90904 0.439599 0
M  V30 11565 H 1118.34 -0.0578116 0.74476 0
M  V30 11566 H 1121 0.562046 1.8662 0
M  V30 11567 H 1120.1 -0.334766 3.10299 0
M  V30 11568 N 1120.4 -1.5685 0.153553 0
M  V30 11569 C 1121.65 -1.96625 -0.49665 0
M  V30 11570 C 1121.98 -1.03877 -1.64083 0
M  V30 11571 O 1121.25 -0.0824112 -1.94325 0
M  V30 11572 C 1121.54 -3.46035 -0.996585 0
M  V30 11573 C 1121.39 -4.49561 0.146551 0
M  V30 11574 C 1122.71 -3.98104 -1.8762 0
M  V30 11575 H 1119.83 -0.714917 -0.179059 0
M  V30 11576 H 1122.47 -1.88527 0.236104 0
M  V30 11577 H 1120.62 -3.53066 -1.621 0
M  V30 11578 H 1122.29 -4.54604 0.783108 0
M  V30 11579 H 1120.53 -4.26271 0.804727 0
M  V30 11580 H 1121.21 -5.51456 -0.245078 0
M  V30 11581 H 1123.68 -3.93593 -1.34997 0
M  V30 11582 H 1122.56 -5.03098 -2.19508 0
M  V30 11583 H 1122.82 -3.40852 -2.81554 0
M  V30 11584 N 1121.88 0.120221 -1.57141 0
M  V30 11585 C 1122.84 1.13159 -1.99318 0
M  V30 11586 C 1123.84 1.34376 -0.883158 0
M  V30 11587 O 1125.03 1.30914 -1.14922 0
M  V30 11588 C 1122.16 2.48632 -2.33227 0
M  V30 11589 H 1123.36 0.769119 -2.8987 0
M  V30 11590 H 1120.91 0.364475 -1.51991 0
M  V30 11591 H 1121.64 2.89802 -1.45551 0
M  V30 11592 H 1121.43 2.34587 -3.14184 0
M  V30 11593 H 1122.92 3.21423 -2.66603 0
M  V30 11594 N 1123.36 1.52689 0.390367 0
M  V30 11595 C 1124.63 1.58246 1.14968 0
M  V30 11596 C 1125.01 0.374808 2.07746 0
M  V30 11597 O 1124.36 -0.636969 2.19442 0
M  V30 11598 C 1124.57 2.92059 1.91056 0
M  V30 11599 C 1125.92 3.45745 2.46466 0
M  V30 11600 O 1126.94 2.93924 2.01214 0
M  V30 11601 O 1125.8 4.3628 3.29122 0
M  V30 11602 H 1122.9 0.638189 0.52597 0
M  V30 11603 H 1125.44 1.65024 0.39563 0
M  V30 11604 H 1124.21 3.71399 1.23201 0
M  V30 11605 H 1123.84 2.8866 2.73425 0
M  V30 11606 N 1124.83 -0.648732 1.43629 0
M  V30 11607 C 1126.08 -1.40579 1.45196 0
M  V30 11608 C 1126.4 -1.9484 0.0790556 0
M  V30 11609 O 1125.67 -1.74707 -0.886239 0
M  V30 11610 H 1124.25 -0.52175 0.53459 0
M  V30 11611 H 1126.92 -0.764796 1.79268 0
M  V30 11612 H 1126.01 -2.24591 2.16715 0
M  V30 11613 N 1126.31 -1.30234 -0.887518 0
M  V30 11614 C 1127.72 -1.17048 -1.45453 0
M  V30 11615 C 1128.07 0.229793 -1.9485 0
M  V30 11616 O 1127.2 1.12628 -1.84781 0
M  V30 11617 C 1127.79 -2.11876 -2.64375 0
M  V30 11618 C 1126.35 -2.02676 -3.17174 0
M  V30 11619 C 1125.5 -2.02104 -1.89866 0
M  V30 11620 H 1128.45 -1.42541 -0.697694 0
M  V30 11621 H 1128.47 -1.69811 -3.40506 0
M  V30 11622 H 1127.98 -3.13781 -2.28392 0
M  V30 11623 H 1126.09 -1.03904 -3.57819 0
M  V30 11624 H 1126.2 -2.90939 -3.80646 0
M  V30 11625 H 1124.56 -1.4687 -2.0809 0
M  V30 11626 H 1125.35 -3.05735 -1.56145 0
M  V30 11627 N 1127.79 1.09952 -1.12909 0
M  V30 11628 C 1128.72 2.16257 -0.759305 0
M  V30 11629 C 1129.74 1.61355 0.216427 0
M  V30 11630 O 1130.92 1.785 -0.00297224 0
M  V30 11631 C 1128.02 3.38741 -0.103908 0
M  V30 11632 C 1127.2 4.23072 -1.11037 0
M  V30 11633 C 1126.26 5.23991 -0.481667 0
M  V30 11634 O 1125.28 5.57665 -1.14011 0
M  V30 11635 N 1126.48 5.75652 0.748698 0
M  V30 11636 H 1129.25 2.48588 -1.67405 0
M  V30 11637 H 1126.81 1.25617 -1.02137 0
M  V30 11638 H 1128.8 4.03362 0.328799 0
M  V30 11639 H 1127.37 3.04344 0.713677 0
M  V30 11640 H 1126.59 3.5467 -1.72054 0
M  V30 11641 H 1127.88 4.76244 -1.79078 0
M  V30 11642 H 1127.28 5.505 1.30253 0
M  V30 11643 H 1125.84 6.42033 1.12415 0
M  V30 11644 N 1129.27 0.921757 1.27833 0
M  V30 11645 C 1130.55 0.477706 1.89677 0
M  V30 11646 C 1130.93 -1.04392 1.83481 0
M  V30 11647 O 1130.27 -1.89549 1.27606 0
M  V30 11648 C 1130.48 1.01709 3.33851 0
M  V30 11649 C 1131.83 1.074 4.10792 0
M  V30 11650 O 1132.86 0.966295 3.42843 0
M  V30 11651 O 1131.71 1.23909 5.32268 0
M  V30 11652 H 1128.81 0.15271 0.812778 0
M  V30 11653 H 1131.35 1.01306 1.36144 0
M  V30 11654 H 1130.13 2.061 3.32623 0
M  V30 11655 H 1129.75 0.463031 3.94895 0
M  V30 11656 N 1130.75 -1.41857 0.686609 0
M  V30 11657 C 1131.99 -2.0097 0.213378 0
M  V30 11658 C 1132.32 -1.54618 -1.1882 0
M  V30 11659 O 1131.59 -0.772916 -1.80008 0
M  V30 11660 H 1130.17 -0.743134 0.0758968 0
M  V30 11661 H 1132.83 -1.73609 0.885763 0
M  V30 11662 H 1131.92 -3.11296 0.223826 0
M  V30 11663 N 1132.22 -0.430739 -1.51599 0
M  V30 11664 C 1133.16 0.419726 -2.25324 0
M  V30 11665 C 1134.17 0.991925 -1.29092 0
M  V30 11666 O 1135.36 0.887188 -1.54891 0
M  V30 11667 C 1132.46 1.59844 -2.98836 0
M  V30 11668 C 1131.63 1.14629 -4.22112 0
M  V30 11669 C 1130.69 2.19437 -4.78261 0
M  V30 11670 O 1129.72 1.79141 -5.40275 0
M  V30 11671 N 1130.92 3.51849 -4.61717 0
M  V30 11672 H 1133.68 -0.212112 -2.98948 0
M  V30 11673 H 1131.24 -0.259269 -1.59811 0
M  V30 11674 H 1133.24 2.29567 -3.33288 0
M  V30 11675 H 1131.81 2.13575 -2.28264 0
M  V30 11676 H 1131.03 0.276367 -3.9323 0
M  V30 11677 H 1132.31 0.821488 -5.02124 0
M  V30 11678 H 1131.71 3.87324 -4.12306 0
M  V30 11679 H 1130.27 4.17486 -5.00548 0
M  V30 11680 N 1133.7 1.56767 -0.161869 0
M  V30 11681 C 1134.67 2.16299 0.758104 0
M  V30 11682 C 1135.67 1.10859 1.16478 0
M  V30 11683 O 1136.86 1.36422 1.08327 0
M  V30 11684 C 1133.99 2.73819 2.03067 0
M  V30 11685 H 1135.18 2.98938 0.239992 0
M  V30 11686 H 1132.73 1.56054 0.0876532 0
M  V30 11687 H 1133.47 1.94887 2.59209 0
M  V30 11688 H 1133.25 3.50974 1.74813 0
M  V30 11689 H 1134.74 3.19638 2.68741 0
M  V30 11690 N 1135.18 -0.111886 1.57202 0
M  V30 11691 C 1136.46 -0.849125 1.76208 0
M  V30 11692 C 1136.84 -1.97735 0.73919 0
M  V30 11693 O 1136.19 -2.27283 -0.235523 0
M  V30 11694 C 1136.4 -1.35924 3.21443 0
M  V30 11695 C 1137.74 -1.80874 3.84148 0
M  V30 11696 O 1138.77 -1.45587 3.25089 0
M  V30 11697 O 1137.63 -2.46065 4.87969 0
M  V30 11698 H 1134.72 -0.403761 0.721738 0
M  V30 11699 H 1137.27 -0.0950726 1.69433 0
M  V30 11700 H 1136.04 -0.550113 3.87414 0
M  V30 11701 H 1135.66 -2.17579 3.32784 0
M  V30 11702 N 1136.66 -1.52894 -0.382264 0
M  V30 11703 C 1137.88 -1.72453 -1.15216 0
M  V30 11704 C 1138.31 -0.444925 -1.82762 0
M  V30 11705 O 1137.67 0.599825 -1.7109 0
M  V30 11706 C 1137.71 -2.87939 -2.17079 0
M  V30 11707 O 1136.82 -2.55383 -3.23811 0
M  V30 11708 H 1136.16 -0.57324 -0.335099 0
M  V30 11709 H 1138.69 -1.99713 -0.444495 0
M  V30 11710 H 1138.7 -3.13628 -2.60963 0
M  V30 11711 H 1137.37 -3.80765 -1.67305 0
M  V30 11712 H 1135.95 -2.40457 -2.85018 0
M  V30 11713 N 1138.14 0.641106 -1.43971 0
M  V30 11714 C 1139.1 1.73539 -1.49723 0
M  V30 11715 C 1140.1 1.56235 -0.380438 0
M  V30 11716 O 1141.29 1.61912 -0.642673 0
M  V30 11717 C 1138.42 3.1253 -1.36153 0
M  V30 11718 H 1139.62 1.69816 -2.47189 0
M  V30 11719 H 1137.17 0.853867 -1.30915 0
M  V30 11720 H 1137.9 3.21856 -0.39742 0
M  V30 11721 H 1137.69 3.26496 -2.17124 0
M  V30 11722 H 1139.18 3.92303 -1.43138 0
M  V30 11723 N 1139.62 1.30703 0.880598 0
M  V30 11724 C 1140.84 1.22843 1.67106 0
M  V30 11725 C 1141.27 -0.204788 1.86982 0
M  V30 11726 O 1140.62 -1.14716 1.40392 0
M  V30 11727 C 1140.67 1.96685 3.02237 0
M  V30 11728 O 1139.78 1.29693 3.91476 0
M  V30 11729 H 1139.12 0.424661 0.51045 0
M  V30 11730 H 1141.65 1.72596 1.09871 0
M  V30 11731 H 1141.66 2.05874 3.52249 0
M  V30 11732 H 1140.33 3.00919 2.8709 0
M  V30 11733 H 1138.91 1.28886 3.49918 0
M  V30 11734 N 1141.09 -1.09351 1.1349 0
M  V30 11735 C 1142.02 -2.18037 0.835588 0
M  V30 11736 C 1143 -1.68856 -0.205373 0
M  V30 11737 O 1144.19 -1.94094 -0.0641357 0
M  V30 11738 C 1141.32 -3.45987 0.301661 0
M  V30 11739 C 1140.27 -4.08507 1.27696 0
M  V30 11740 C 1139.6 -5.31292 0.602758 0
M  V30 11741 C 1140.9 -4.50916 2.63575 0
M  V30 11742 H 1142.59 -2.43332 1.74441 0
M  V30 11743 H 1140.14 -1.1695 0.840166 0
M  V30 11744 H 1142.09 -4.21324 0.079928 0
M  V30 11745 H 1140.82 -3.20217 -0.642552 0
M  V30 11746 H 1139.48 -3.3519 1.4847 0
M  V30 11747 H 1139.12 -5.01802 -0.346953 0
M  V30 11748 H 1138.82 -5.74075 1.25345 0
M  V30 11749 H 1140.35 -6.09351 0.390325 0
M  V30 11750 H 1141.76 -5.17474 2.46765 0
M  V30 11751 H 1140.16 -5.04586 3.24827 0
M  V30 11752 H 1141.23 -3.63279 3.2118 0
M  V30 11753 N 1142.57 -0.928524 -1.27343 0
M  V30 11754 C 1143.8 -0.58516 -1.98974 0
M  V30 11755 C 1144.22 0.829964 -1.68799 0
M  V30 11756 O 1143.58 1.55705 -0.928738 0
M  V30 11757 C 1143.63 -0.818662 -3.51184 0
M  V30 11758 O 1142.73 0.115355 -4.12239 0
M  V30 11759 H 1142.07 -0.225203 -0.624644 0
M  V30 11760 H 1144.6 -1.248 -1.6213 0
M  V30 11761 H 1144.61 -0.734554 -4.01333 0
M  V30 11762 H 1143.29 -1.8502 -3.72479 0
M  V30 11763 H 1141.86 -0.0187371 -3.72895 0
M  V30 11764 N 1144.05 1.41491 -0.694123 0
M  V30 11765 C 1145.01 2.2917 -0.0368562 0
M  V30 11766 C 1146.01 1.44305 0.709426 0
M  V30 11767 O 1147.2 1.6547 0.544533 0
M  V30 11768 C 1144.33 3.27156 0.958201 0
M  V30 11769 H 1145.53 2.88787 -0.808829 0
M  V30 11770 H 1143.08 1.49453 -0.457538 0
M  V30 11771 H 1143.82 2.72516 1.75799 0
M  V30 11772 H 1143.6 3.89776 0.426227 0
M  V30 11773 H 1145.09 3.92863 1.41592 0
M  V30 11774 N 1145.53 0.438773 1.51369 0
M  V30 11775 C 1146.75 -0.128221 2.07003 0
M  V30 11776 C 1147.18 -1.3557 1.30393 0
M  V30 11777 O 1146.54 -1.7804 0.342283 0
M  V30 11778 C 1146.58 -0.42761 3.58056 0
M  V30 11779 O 1145.69 -1.51382 3.83611 0
M  V30 11780 H 1145.03 -0.00123679 0.663999 0
M  V30 11781 H 1147.56 0.62052 1.94963 0
M  V30 11782 H 1147.57 -0.677645 4.02333 0
M  V30 11783 H 1146.24 0.469535 4.13241 0
M  V30 11784 H 1144.82 -1.25363 3.51196 0
M  V30 11785 N 1147.01 -1.56678 0.170181 0
M  V30 11786 C 1147.94 -2.20916 -0.756213 0
M  V30 11787 C 1148.92 -1.16442 -1.23997 0
M  V30 11788 O 1150.1 -1.44867 -1.29333 0
M  V30 11789 C 1147.23 -2.84901 -1.98617 0
M  V30 11790 C 1146.19 -3.95403 -1.63831 0
M  V30 11791 C 1145.51 -4.46432 -2.94282 0
M  V30 11792 C 1146.81 -5.15051 -0.867195 0
M  V30 11793 H 1148.51 -2.98585 -0.220776 0
M  V30 11794 H 1146.05 -1.43619 -0.104748 0
M  V30 11795 H 1148 -3.28514 -2.63926 0
M  V30 11796 H 1146.73 -2.04598 -2.54572 0
M  V30 11797 H 1145.39 -3.52444 -1.00891 0
M  V30 11798 H 1145.04 -3.62923 -3.48276 0
M  V30 11799 H 1144.74 -5.20979 -2.71762 0
M  V30 11800 H 1146.26 -4.92731 -3.60622 0
M  V30 11801 H 1147.67 -5.55363 -1.42285 0
M  V30 11802 H 1146.07 -5.95507 -0.741065 0
M  V30 11803 H 1147.14 -4.84707 0.136693 0
M  V30 11804 N 1148.48 0.103547 -1.57259 0
M  V30 11805 C 1149.41 1.12714 -2.04494 0
M  V30 11806 C 1150.39 1.42278 -0.932255 0
M  V30 11807 O 1151.58 1.52453 -1.20298 0
M  V30 11808 C 1148.71 2.44927 -2.46228 0
M  V30 11809 C 1147.66 2.2979 -3.61082 0
M  V30 11810 C 1146.99 3.67105 -3.88765 0
M  V30 11811 C 1148.29 1.7455 -4.9227 0
M  V30 11812 H 1149.98 0.734198 -2.90258 0
M  V30 11813 H 1147.53 0.351725 -1.39638 0
M  V30 11814 H 1149.48 3.16798 -2.77879 0
M  V30 11815 H 1148.21 2.8614 -1.57453 0
M  V30 11816 H 1146.87 1.60366 -3.29664 0
M  V30 11817 H 1146.51 4.05831 -2.97171 0
M  V30 11818 H 1146.21 3.57825 -4.66084 0
M  V30 11819 H 1147.74 4.40456 -4.22884 0
M  V30 11820 H 1149.15 2.36253 -5.22358 0
M  V30 11821 H 1147.55 1.76051 -5.73695 0
M  V30 11822 H 1148.62 0.704242 -4.79759 0
M  V30 11823 N 1149.96 1.53094 0.37415 0
M  V30 11824 C 1150.92 1.78264 1.44065 0
M  V30 11825 C 1151.92 0.652892 1.46949 0
M  V30 11826 O 1153.11 0.921046 1.47859 0
M  V30 11827 C 1150.25 1.89693 2.83248 0
M  V30 11828 H 1151.44 2.73505 1.23025 0
M  V30 11829 H 1148.99 1.44041 0.60678 0
M  V30 11830 H 1149.73 0.964884 3.09613 0
M  V30 11831 H 1149.51 2.71855 2.82554 0
M  V30 11832 H 1151 2.10787 3.60498 0
M  V30 11833 N 1151.44 -0.633461 1.44309 0
M  V30 11834 C 1152.72 -1.3917 1.37444 0
M  V30 11835 C 1153.1 -2.11076 0.0319994 0
M  V30 11836 O 1152.44 -2.06164 -0.98533 0
M  V30 11837 C 1152.65 -2.36005 2.57104 0
M  V30 11838 C 1154 -2.99407 3.01065 0
M  V30 11839 O 1155.03 -2.46331 2.57292 0
M  V30 11840 O 1153.89 -3.95686 3.76954 0
M  V30 11841 H 1150.98 -0.622746 0.544166 0
M  V30 11842 H 1153.53 -0.658712 1.56394 0
M  V30 11843 H 1152.3 -1.81955 3.46422 0
M  V30 11844 H 1151.92 -3.16725 2.40356 0
M  V30 11845 N 1152.92 -1.31168 -0.873655 0
M  V30 11846 C 1154.16 -1.21831 -1.62877 0
M  V30 11847 C 1154.52 0.222272 -1.91112 0
M  V30 11848 O 1153.81 1.15463 -1.52902 0
M  V30 11849 C 1154.01 -1.99204 -2.96736 0
M  V30 11850 C 1153.84 -3.50639 -2.81571 0
M  V30 11851 C 1152.61 -4.19992 -2.80953 0
M  V30 11852 C 1154.8 -4.45658 -2.56697 0
M  V30 11853 N 1152.79 -5.57609 -2.56799 0
M  V30 11854 C 1154.16 -5.70917 -2.41771 0
M  V30 11855 C 1156.21 -4.35126 -2.42012 0
M  V30 11856 C 1154.91 -6.86837 -2.13654 0
M  V30 11857 C 1156.94 -5.50825 -2.15282 0
M  V30 11858 C 1156.3 -6.75071 -2.01142 0
M  V30 11859 H 1152.4 -0.500911 -0.60051 0
M  V30 11860 H 1154.99 -1.65313 -1.02857 0
M  V30 11861 H 1153.16 -1.58096 -3.54768 0
M  V30 11862 H 1154.89 -1.81916 -3.61509 0
M  V30 11863 H 1151.64 -3.71928 -2.932 0
M  V30 11864 H 1152.07 -6.30058 -2.47703 0
M  V30 11865 H 1156.71 -3.39736 -2.51673 0
M  V30 11866 H 1154.43 -7.82257 -2.0273 0
M  V30 11867 H 1158.01 -5.44591 -2.04725 0
M  V30 11868 H 1156.89 -7.63085 -1.8075 0
M  V30 11869 N 1154.4 1.08748 -1.14068 0
M  V30 11870 C 1155.33 2.17591 -0.84714 0
M  V30 11871 C 1156.31 1.68962 0.196415 0
M  V30 11872 O 1157.49 1.94125 0.0538415 0
M  V30 11873 C 1154.62 3.45823 -0.320005 0
M  V30 11874 C 1153.58 4.07824 -1.2986 0
M  V30 11875 C 1152.9 5.30965 -0.630925 0
M  V30 11876 C 1154.2 4.49512 -2.65963 0
M  V30 11877 H 1155.9 2.42404 -1.75729 0
M  V30 11878 H 1153.44 1.16502 -0.846356 0
M  V30 11879 H 1155.4 4.21276 -0.102271 0
M  V30 11880 H 1154.12 3.20553 0.625561 0
M  V30 11881 H 1152.78 3.34398 -1.50245 0
M  V30 11882 H 1152.43 5.01979 0.320337 0
M  V30 11883 H 1152.13 5.73402 -1.28388 0
M  V30 11884 H 1153.65 6.09136 -0.422635 0
M  V30 11885 H 1155.06 5.16159 -2.49506 0
M  V30 11886 H 1153.46 5.02857 -3.27498 0
M  V30 11887 H 1154.53 3.6157 -3.23102 0
M  V30 11888 N 1155.87 0.935264 1.26849 0
M  V30 11889 C 1156.78 0.446122 2.30319 0
M  V30 11890 C 1157.8 -0.476965 1.67335 0
M  V30 11891 O 1158.98 -0.357934 1.98194 0
M  V30 11892 C 1156.04 -0.286297 3.45516 0
M  V30 11893 C 1155.1 0.672626 4.23998 0
M  V30 11894 C 1154.34 -0.0249345 5.33694 0
M  V30 11895 O 1154.56 -1.24296 5.56693 0
M  V30 11896 O 1153.49 0.650752 5.98372 0
M  V30 11897 H 1157.32 1.30546 2.74211 0
M  V30 11898 H 1154.9 0.70091 1.31938 0
M  V30 11899 H 1156.79 -0.699109 4.1556 0
M  V30 11900 H 1155.46 -1.12112 3.03665 0
M  V30 11901 H 1154.37 1.13527 3.56458 0
M  V30 11902 H 1155.7 1.47489 4.69583 0
M  V30 11903 N 1157.35 -1.41121 0.701616 0
M  V30 11904 C 1158.6 -2.00733 0.234682 0
M  V30 11905 C 1158.92 -1.55869 -1.17174 0
M  V30 11906 O 1158.19 -0.791965 -1.79178 0
M  V30 11907 H 1156.77 -0.742288 0.0837745 0
M  V30 11908 H 1159.43 -1.7266 0.904127 0
M  V30 11909 H 1158.53 -3.11041 0.256831 0
M  V30 11910 N 1158.83 -0.446794 -1.51134 0
M  V30 11911 C 1159.78 0.378002 -2.24845 0
M  V30 11912 C 1160.76 0.982126 -1.27448 0
M  V30 11913 O 1161.96 0.8987 -1.52487 0
M  V30 11914 C 1159.09 1.4733 -3.10079 0
M  V30 11915 C 1158.17 0.878102 -4.1491 0
M  V30 11916 N 1158.56 0.0129452 -5.05798 0
M  V30 11917 C 1156.86 1.14468 -4.3106 0
M  V30 11918 C 1157.56 -0.322333 -5.80806 0
M  V30 11919 N 1156.54 0.296438 -5.42791 0
M  V30 11920 H 1160.34 -0.28885 -2.92477 0
M  V30 11921 H 1157.85 -0.259439 -1.60314 0
M  V30 11922 H 1159.85 2.07713 -3.6147 0
M  V30 11923 H 1158.51 2.14239 -2.43992 0
M  V30 11924 H 1159.52 -0.354177 -5.16688 0
M  V30 11925 H 1156.2 1.81056 -3.76198 0
M  V30 11926 H 1157.59 -1.02693 -6.64006 0
M  V30 11927 N 1160.31 1.56586 -0.178487 0
M  V30 11928 C 1161.56 1.96709 0.4637 0
M  V30 11929 C 1161.88 1.06586 1.63292 0
M  V30 11930 O 1161.15 0.133683 1.95443 0
M  V30 11931 H 1159.73 0.726381 0.174299 0
M  V30 11932 H 1162.39 1.9314 -0.261345 0
M  V30 11933 H 1161.49 3.01164 0.818934 0
M  V30 11934 N 1161.79 -0.095206 1.57312 0
M  V30 11935 C 1162.72 -1.14662 1.97301 0
M  V30 11936 C 1163.7 -1.38845 0.846212 0
M  V30 11937 O 1164.88 -1.52607 1.1065 0
M  V30 11938 C 1162.01 -2.49582 2.28968 0
M  V30 11939 C 1161.05 -2.41681 3.51415 0
M  V30 11940 S 1161.89 -1.83343 5.03136 0
M  V30 11941 C 1163.04 -3.19888 5.3798 0
M  V30 11942 H 1163.28 -0.805726 2.86174 0
M  V30 11943 H 1160.81 -0.302881 1.514 0
M  V30 11944 H 1162.77 -3.27202 2.47889 0
M  V30 11945 H 1161.43 -2.80841 1.40667 0
M  V30 11946 H 1160.62 -3.41122 3.71015 0
M  V30 11947 H 1160.22 -1.7219 3.32004 0
M  V30 11948 H 1162.52 -4.16161 5.34618 0
M  V30 11949 H 1163.46 -3.05093 6.39002 0
M  V30 11950 H 1163.87 -3.19414 4.6544 0
M  V30 11951 N 1163.26 -1.53291 -0.366026 0
M  V30 11952 C 1164.21 -1.80367 -1.4687 0
M  V30 11953 C 1165.21 -0.672767 -1.55468 0
M  V30 11954 O 1166.41 -0.8557 -1.5836 0
M  V30 11955 H 1162.79 -0.571076 -0.48926 0
M  V30 11956 H 1164.76 -2.72661 -1.21237 0
M  V30 11957 C 1163.51 -2.01008 -2.8371 0
M  V30 11958 H 1162.83 -2.87468 -2.77853 0
M  V30 11959 H 1164.27 -2.2393 -3.60043 0
M  V30 11960 C 1162.73 -0.789054 -3.27529 0
M  V30 11961 O 1163.26 0.0224712 -4.01694 0
M  V30 11962 N 1161.47 -0.612621 -2.84069 0
M  V30 11963 H 1161.01 -1.27416 -2.23881 0
M  V30 11964 H 1160.97 0.202943 -3.13744 0
M  V30 11965 N 1164.74 0.6258 -1.44643 0
M  V30 11966 C 1166.15 1.20751 -1.42394 0
M  V30 11967 C 1166.5 1.95685 -0.142047 0
M  V30 11968 O 1165.63 2.02715 0.757332 0
M  V30 11969 C 1166.22 2.1964 -2.57961 0
M  V30 11970 C 1164.78 2.73227 -2.5889 0
M  V30 11971 C 1163.93 1.48315 -2.34303 0
M  V30 11972 H 1166.88 0.416162 -1.53146 0
M  V30 11973 H 1166.9 3.02342 -2.31019 0
M  V30 11974 H 1166.41 1.65073 -3.51244 0
M  V30 11975 H 1164.52 3.31782 -1.69563 0
M  V30 11976 H 1164.63 3.18902 -3.57545 0
M  V30 11977 H 1162.99 1.76634 -1.83501 0
M  V30 11978 H 1163.78 0.956427 -3.29708 0
M  V30 11979 N 1166.22 1.31629 0.866686 0
M  V30 11980 C 1167.18 1.1951 1.95576 0
M  V30 11981 C 1168.18 0.121319 1.60342 0
M  V30 11982 O 1169.37 0.370832 1.70207 0
M  V30 11983 C 1166.51 0.835201 3.30511 0
M  V30 11984 H 1167.7 2.16285 2.07752 0
M  V30 11985 H 1165.25 1.15288 1.05539 0
M  V30 11986 H 1165.99 -0.131245 3.24034 0
M  V30 11987 H 1165.77 1.61142 3.57457 0
M  V30 11988 H 1167.26 0.774393 4.10357 0
M  V30 11989 N 1167.7 -1.08142 1.14644 0
M  V30 11990 C 1168.98 -1.77254 0.827071 0
M  V30 11991 C 1169.36 -1.99885 -0.67891 0
M  V30 11992 O 1168.7 -1.61084 -1.62062 0
M  V30 11993 C 1168.91 -3.08658 1.62884 0
M  V30 11994 C 1170.26 -3.83143 1.82993 0
M  V30 11995 O 1171.29 -3.18447 1.59593 0
M  V30 11996 O 1170.15 -4.9932 2.2213 0
M  V30 11997 H 1167.24 -0.769356 0.30335 0
M  V30 11998 H 1169.79 -1.1458 1.25178 0
M  V30 11999 H 1168.56 -2.87753 2.65168 0
M  V30 12000 H 1168.18 -3.79061 1.19994 0
M  V30 12001 N 1169.18 -0.941978 -1.26351 0
M  V30 12002 C 1170.43 -0.585711 -1.93009 0
M  V30 12003 C 1170.74 0.879507 -1.74711 0
M  V30 12004 O 1171.95 1.34518 -2.35833 0
M  V30 12005 C 1170.4 -0.996787 -3.45821 0
M  V30 12006 C 1170.01 -2.48367 -3.72851 0
M  V30 12007 C 1171.75 -0.712452 -4.18479 0
M  V30 12008 C 1169.66 -2.83341 -5.19107 0
M  V30 12009 H 1168.59 -0.215342 -0.722595 0
M  V30 12010 H 1171.24 -1.14472 -1.43417 0
M  V30 12011 H 1169.62 -0.366295 -3.94302 0
M  V30 12012 H 1170.8 -3.16328 -3.35072 0
M  V30 12013 H 1169.11 -2.74139 -3.13427 0
M  V30 12014 H 1171.71 -0.95007 -5.26192 0
M  V30 12015 H 1172.05 0.350811 -4.14819 0
M  V30 12016 H 1172.59 -1.3027 -3.75865 0
M  V30 12017 H 1169.32 -3.88633 -5.27868 0
M  V30 12018 H 1168.84 -2.20043 -5.5798 0
M  V30 12019 H 1170.52 -2.71849 -5.87118 0
M  V30 12020 N 1170.66 1.40747 -0.709091 0
M  V30 12021 C 1171.57 2.3454 -0.0532205 0
M  V30 12022 C 1172.58 1.56956 0.751057 0
M  V30 12023 O 1173.76 1.89375 0.685509 0
M  V30 12024 C 1170.82 3.35809 0.862157 0
M  V30 12025 C 1169.88 4.29273 0.0485632 0
M  V30 12026 C 1169.12 5.25705 0.920345 0
M  V30 12027 O 1169.34 5.27933 2.15969 0
M  V30 12028 O 1168.27 6.00806 0.3628 0
M  V30 12029 H 1172.1 2.92232 -0.826698 0
M  V30 12030 H 1169.68 1.4183 -0.469519 0
M  V30 12031 H 1171.57 3.97931 1.38668 0
M  V30 12032 H 1170.24 2.8054 1.61489 0
M  V30 12033 H 1169.15 3.70456 -0.520873 0
M  V30 12034 H 1170.48 4.87676 -0.665807 0
M  V30 12035 N 1172.13 0.454803 1.50895 0
M  V30 12036 C 1173.36 -0.106259 2.07128 0
M  V30 12037 C 1173.78 -1.3418 1.31823 0
M  V30 12038 O 1173.14 -1.77667 0.361147 0
M  V30 12039 C 1173.19 -0.389609 3.58489 0
M  V30 12040 O 1172.29 -1.47305 3.85195 0
M  V30 12041 H 1171.63 0.00580588 0.663975 0
M  V30 12042 H 1174.16 0.641163 1.94294 0
M  V30 12043 H 1174.17 -0.634934 4.03029 0
M  V30 12044 H 1172.85 0.513338 4.1272 0
M  V30 12045 H 1171.43 -1.21631 3.52506 0
M  V30 12046 N 1173.61 -1.56489 0.186789 0
M  V30 12047 C 1174.54 -2.21705 -0.732739 0
M  V30 12048 C 1175.52 -1.17751 -1.22755 0
M  V30 12049 O 1176.71 -1.46231 -1.27789 0
M  V30 12050 C 1173.84 -2.86992 -1.95584 0
M  V30 12051 C 1172.79 -3.97118 -1.59628 0
M  V30 12052 C 1172.12 -4.49529 -2.89531 0
M  V30 12053 C 1173.42 -5.15941 -0.812518 0
M  V30 12054 H 1175.11 -2.98802 -0.189094 0
M  V30 12055 H 1172.66 -1.43722 -0.0895099 0
M  V30 12056 H 1174.61 -3.31295 -2.60426 0
M  V30 12057 H 1173.33 -2.07287 -2.52388 0
M  V30 12058 H 1171.99 -3.53494 -0.971475 0
M  V30 12059 H 1171.64 -3.66596 -3.44407 0
M  V30 12060 H 1171.34 -5.23832 -2.66221 0
M  V30 12061 H 1172.87 -4.96528 -3.55376 0
M  V30 12062 H 1174.28 -5.56841 -1.36386 0
M  V30 12063 H 1172.68 -5.96259 -0.677862 0
M  V30 12064 H 1173.75 -4.84535 0.188095 0
M  V30 12065 N 1175.09 0.086862 -1.5736 0
M  V30 12066 C 1176.02 1.13117 -1.99342 0
M  V30 12067 C 1177.03 1.35849 -0.897151 0
M  V30 12068 O 1178.22 1.34356 -1.17519 0
M  V30 12069 C 1175.32 2.48511 -2.30425 0
M  V30 12070 C 1174.5 2.45942 -3.61706 0
M  V30 12071 C 1173.56 3.63327 -3.80631 0
M  V30 12072 O 1172.58 3.45443 -4.52392 0
M  V30 12073 N 1173.78 4.83118 -3.21835 0
M  V30 12074 H 1176.55 0.773782 -2.89539 0
M  V30 12075 H 1174.11 0.275731 -1.59535 0
M  V30 12076 H 1176.1 3.25656 -2.40272 0
M  V30 12077 H 1174.67 2.76308 -1.46194 0
M  V30 12078 H 1173.89 1.54287 -3.62752 0
M  V30 12079 H 1175.18 2.41313 -4.47935 0
M  V30 12080 H 1174.58 5.00552 -2.6356 0
M  V30 12081 H 1173.13 5.57827 -3.37154 0
M  V30 12082 N 1176.57 1.53483 0.357892 0
M  V30 12083 C 1177.98 1.43426 0.700073 0
M  V30 12084 C 1178.18 0.579493 1.92987 0
M  V30 12085 O 1177.24 0.0649086 2.52417 0
M  V30 12086 C 1178.55 2.86723 0.906099 0
M  V30 12087 C 1180.1 2.96405 1.00563 0
M  V30 12088 C 1180.58 4.4078 1.24407 0
M  V30 12089 N 1182.07 4.44243 1.3116 0
M  V30 12090 C 1182.8 5.53069 1.51333 0
M  V30 12091 N 1182.3 6.71928 1.68774 0
M  V30 12092 N 1184.09 5.40659 1.53765 0
M  V30 12093 H 1176.24 2.07559 -0.450894 0
M  V30 12094 H 1178.5 0.937649 -0.139711 0
M  V30 12095 H 1178.21 3.51622 0.0741579 0
M  V30 12096 H 1178.08 3.30827 1.81199 0
M  V30 12097 H 1180.47 2.31656 1.8281 0
M  V30 12098 H 1180.55 2.55684 0.0769512 0
M  V30 12099 H 1180.2 5.06105 0.426575 0
M  V30 12100 H 1180.13 4.7908 2.18608 0
M  V30 12101 H 1182.62 3.58587 1.19265 0
M  V30 12102 H 1182.93 7.50634 1.83762 0
M  V30 12103 H 1181.28 6.749 1.65937 0
M  V30 12104 H 1184.47 4.46764 1.39713 0
M  V30 12105 H 1184.64 6.25535 1.69146 0
M  V30 12106 N 1178.05 -0.61812 1.44973 0
M  V30 12107 C 1178.96 -1.7579 1.55355 0
M  V30 12108 C 1179.97 -1.68384 0.438512 0
M  V30 12109 O 1181.15 -1.88928 0.697715 0
M  V30 12110 C 1178.21 -3.1222 1.50729 0
M  V30 12111 C 1177.27 -3.3116 2.73188 0
M  V30 12112 C 1176.51 -4.61082 2.68774 0
M  V30 12113 O 1176.73 -5.42728 1.75507 0
M  V30 12114 O 1175.66 -4.82506 3.59821 0
M  V30 12115 H 1179.49 -1.69983 2.51674 0
M  V30 12116 H 1177.07 -0.780934 1.27365 0
M  V30 12117 H 1178.96 -3.93524 1.5072 0
M  V30 12118 H 1177.63 -3.18541 0.575587 0
M  V30 12119 H 1176.54 -2.49485 2.78762 0
M  V30 12120 H 1177.87 -3.29709 3.65449 0
M  V30 12121 N 1179.52 -1.32087 -0.859693 0
M  V30 12122 C 1180.77 -1.21716 -1.60836 0
M  V30 12123 C 1181.09 0.220904 -1.94349 0
M  V30 12124 O 1182.29 0.446422 -2.67805 0
M  V30 12125 C 1180.75 -2.13143 -2.89997 0
M  V30 12126 C 1180.36 -3.62003 -2.63928 0
M  V30 12127 C 1182.1 -2.11596 -3.68004 0
M  V30 12128 C 1180.01 -4.45407 -3.89059 0
M  V30 12129 H 1178.94 -0.45199 -0.603507 0
M  V30 12130 H 1181.59 -1.57013 -0.949687 0
M  V30 12131 H 1179.97 -1.70755 -3.57294 0
M  V30 12132 H 1181.14 -4.12701 -2.04974 0
M  V30 12133 H 1179.46 -3.6563 -1.99258 0
M  V30 12134 H 1182.06 -2.71149 -4.6085 0
M  V30 12135 H 1182.4 -1.10568 -4.01348 0
M  V30 12136 H 1182.93 -2.52238 -3.07605 0
M  V30 12137 H 1179.67 -5.4723 -3.60859 0
M  V30 12138 H 1179.19 -3.99462 -4.47427 0
M  V30 12139 H 1180.87 -4.58149 -4.56846 0
M  V30 12140 N 1181 1.07532 -1.15215 0
M  V30 12141 C 1181.93 2.14598 -0.805006 0
M  V30 12142 C 1182.95 1.61778 0.182152 0
M  V30 12143 O 1184.14 1.78453 -0.040834 0
M  V30 12144 C 1181.24 3.38444 -0.175736 0
M  V30 12145 C 1180.41 4.20621 -1.19986 0
M  V30 12146 C 1179.47 5.22851 -0.592705 0
M  V30 12147 O 1178.49 5.55121 -1.25815 0
M  V30 12148 N 1179.7 5.7711 0.626425 0
M  V30 12149 H 1182.46 2.44981 -1.7264 0
M  V30 12150 H 1180.02 1.23423 -1.04778 0
M  V30 12151 H 1182.01 4.03969 0.243166 0
M  V30 12152 H 1180.58 3.0579 0.64896 0
M  V30 12153 H 1179.8 3.50941 -1.79539 0
M  V30 12154 H 1181.09 4.72339 -1.89139 0
M  V30 12155 H 1180.49 5.53139 1.18546 0
M  V30 12156 H 1179.05 6.44273 0.98771 0
M  V30 12157 N 1182.48 0.948665 1.2585 0
M  V30 12158 C 1183.41 0.408398 2.24516 0
M  V30 12159 C 1184.39 -0.506954 1.54495 0
M  V30 12160 O 1185.58 -0.442695 1.83228 0
M  V30 12161 C 1182.7 -0.41241 3.3618 0
M  V30 12162 C 1181.75 0.442483 4.24198 0
M  V30 12163 S 1182.58 1.87106 5.01749 0
M  V30 12164 C 1183.74 1.05851 6.16884 0
M  V30 12165 H 1183.97 1.24458 2.69995 0
M  V30 12166 H 1181.5 0.752309 1.34832 0
M  V30 12167 H 1183.46 -0.880064 4.00955 0
M  V30 12168 H 1182.12 -1.22335 2.89297 0
M  V30 12169 H 1181.32 -0.186767 5.03654 0
M  V30 12170 H 1180.92 0.845113 3.64327 0
M  V30 12171 H 1183.21 0.304329 6.76816 0
M  V30 12172 H 1184.15 1.82678 6.8413 0
M  V30 12173 H 1184.56 0.591269 5.61395 0
M  V30 12174 N 1183.96 -1.40369 0.716545 0
M  V30 12175 C 1185.24 -1.94737 0.183576 0
M  V30 12176 C 1185.62 -1.65464 -1.31092 0
M  V30 12177 O 1184.96 -0.972832 -2.06756 0
M  V30 12178 C 1185.17 -3.45438 0.497339 0
M  V30 12179 C 1186.52 -4.2235 0.436526 0
M  V30 12180 O 1187.55 -3.53553 0.433454 0
M  V30 12181 O 1186.4 -5.44923 0.41489 0
M  V30 12182 H 1183.5 -0.82655 0.0272785 0
M  V30 12183 H 1186.04 -1.49972 0.794143 0
M  V30 12184 H 1184.82 -3.60107 1.53097 0
M  V30 12185 H 1184.44 -3.97342 -0.143141 0
M  V30 12186 N 1185.44 -0.462799 -1.50652 0
M  V30 12187 C 1186.66 0.0952726 -2.07181 0
M  V30 12188 C 1187.09 1.33479 -1.32533 0
M  V30 12189 O 1186.44 1.77473 -0.370564 0
M  V30 12190 C 1186.49 0.370592 -3.58691 0
M  V30 12191 O 1185.6 1.4526 -3.85971 0
M  V30 12192 H 1184.94 -0.00932702 -0.663934 0
M  V30 12193 H 1187.47 -0.651458 -1.93951 0
M  V30 12194 H 1187.48 0.613551 -4.0336 0
M  V30 12195 H 1186.15 -0.535219 -4.12442 0
M  V30 12196 H 1184.73 1.1976 -3.53146 0
M  V30 12197 N 1186.91 1.56388 -0.195085 0
M  V30 12198 C 1188.33 1.8398 0.317513 0
M  V30 12199 C 1188.68 1.11575 1.61386 0
M  V30 12200 O 1187.8 0.376557 2.13099 0
M  V30 12201 C 1188.4 3.33749 0.582859 0
M  V30 12202 C 1186.96 3.61752 1.03983 0
M  V30 12203 C 1186.1 2.77159 0.088434 0
M  V30 12204 H 1189.05 1.53072 -0.418871 0
M  V30 12205 H 1189.07 3.52519 1.43216 0
M  V30 12206 H 1188.59 3.86419 -0.360813 0
M  V30 12207 H 1186.69 3.14515 1.99778 0
M  V30 12208 H 1186.8 4.69937 0.932549 0
M  V30 12209 H 1185.16 2.47765 0.590317 0
M  V30 12210 H 1185.95 3.32619 -0.849682 0
M  V30 12211 N 1188.39 -0.0785156 1.57404 0
M  V30 12212 C 1189.33 -1.12563 1.98506 0
M  V30 12213 C 1190.3 -1.3794 0.860891 0
M  V30 12214 O 1191.49 -1.51425 1.12262 0
M  V30 12215 C 1188.61 -2.47139 2.31603 0
M  V30 12216 C 1187.66 -2.3794 3.53959 0
M  V30 12217 S 1188.49 -1.77997 5.05052 0
M  V30 12218 C 1189.65 -3.14164 5.41342 0
M  V30 12219 H 1189.88 -0.775328 2.87012 0
M  V30 12220 H 1187.42 -0.286806 1.51713 0
M  V30 12221 H 1189.37 -3.24554 2.51346 0
M  V30 12222 H 1188.03 -2.79333 1.43638 0
M  V30 12223 H 1187.23 -3.37168 3.74612 0
M  V30 12224 H 1186.83 -1.68659 3.33812 0
M  V30 12225 H 1189.12 -4.10467 5.39002 0
M  V30 12226 H 1190.06 -2.98298 6.42202 0
M  V30 12227 H 1190.47 -3.1446 4.68802 0
M  V30 12228 N 1189.87 -1.5367 -0.349747 0
M  V30 12229 C 1190.8 -1.84208 -1.43492 0
M  V30 12230 C 1191.78 -0.696725 -1.55177 0
M  V30 12231 O 1192.97 -0.948061 -1.69486 0
M  V30 12232 C 1190.1 -2.04613 -2.80625 0
M  V30 12233 C 1189.05 -3.20419 -2.83753 0
M  V30 12234 C 1188.38 -3.26147 -4.23713 0
M  V30 12235 C 1189.68 -4.58666 -2.49846 0
M  V30 12236 H 1191.37 -2.75087 -1.18185 0
M  V30 12237 H 1188.92 -1.32363 -0.567101 0
M  V30 12238 H 1190.87 -2.2456 -3.56582 0
M  V30 12239 H 1189.59 -1.10459 -3.07354 0
M  V30 12240 H 1188.25 -3.00318 -2.10249 0
M  V30 12241 H 1187.9 -2.29599 -4.47541 0
M  V30 12242 H 1187.6 -4.03963 -4.26717 0
M  V30 12243 H 1189.12 -3.48296 -5.0152 0
M  V30 12244 H 1190.54 -4.78668 -3.15516 0
M  V30 12245 H 1188.94 -5.3884 -2.64144 0
M  V30 12246 H 1190.01 -4.62697 -1.4505 0
M  V30 12247 N 1191.35 0.610423 -1.45298 0
M  V30 12248 C 1192.28 1.73207 -1.56594 0
M  V30 12249 C 1193.26 1.64893 -0.417651 0
M  V30 12250 O 1194.44 1.83336 -0.64043 0
M  V30 12251 C 1191.57 3.11803 -1.52959 0
M  V30 12252 C 1190.53 3.34925 -2.66475 0
M  V30 12253 C 1189.85 4.73764 -2.47894 0
M  V30 12254 C 1191.15 3.25456 -4.08504 0
M  V30 12255 H 1192.85 1.6401 -2.50482 0
M  V30 12256 H 1190.39 0.787621 -1.20551 0
M  V30 12257 H 1192.35 3.90065 -1.59458 0
M  V30 12258 H 1191.07 3.21833 -0.55599 0
M  V30 12259 H 1189.73 2.59051 -2.59399 0
M  V30 12260 H 1189.38 4.80524 -1.4868 0
M  V30 12261 H 1189.08 4.90191 -3.24016 0
M  V30 12262 H 1190.6 5.54231 -2.56243 0
M  V30 12263 H 1192.02 3.93597 -4.16839 0
M  V30 12264 H 1190.41 3.53414 -4.84994 0
M  V30 12265 H 1191.48 2.22939 -4.30612 0
M  V30 12266 N 1192.83 1.32541 0.852676 0
M  V30 12267 C 1193.79 1.21578 1.94297 0
M  V30 12268 C 1194.79 0.138318 1.60204 0
M  V30 12269 O 1195.98 0.388864 1.69804 0
M  V30 12270 C 1193.11 0.870209 3.29606 0
M  V30 12271 H 1194.3 2.18476 2.05446 0
M  V30 12272 H 1191.86 1.16401 1.0431 0
M  V30 12273 H 1192.59 -0.0968698 3.24155 0
M  V30 12274 H 1192.38 1.64924 3.55728 0
M  V30 12275 H 1193.87 0.817874 4.09513 0
M  V30 12276 N 1194.3 -1.0692 1.15784 0
M  V30 12277 C 1195.58 -1.76367 0.845825 0
M  V30 12278 C 1195.96 -2.00594 -0.657672 0
M  V30 12279 O 1195.31 -1.62794 -1.60345 0
M  V30 12280 C 1195.52 -3.06913 1.66149 0
M  V30 12281 C 1196.87 -3.81181 1.87046 0
M  V30 12282 O 1197.89 -3.16737 1.62961 0
M  V30 12283 O 1196.75 -4.96936 2.27413 0
M  V30 12284 H 1193.84 -0.766095 0.311493 0
M  V30 12285 H 1196.39 -1.13246 1.26386 0
M  V30 12286 H 1195.16 -2.84924 2.68205 0
M  V30 12287 H 1194.79 -3.77767 1.24007 0
M  V30 12288 N 1195.78 -0.955326 -1.25345 0
M  V30 12289 C 1196.71 -0.494145 -2.28211 0
M  V30 12290 C 1197.69 0.459875 -1.63766 0
M  V30 12291 O 1198.88 0.358679 -1.90859 0
M  V30 12292 C 1196.01 0.228228 -3.46549 0
M  V30 12293 C 1194.96 -0.640601 -4.23179 0
M  V30 12294 C 1194.29 0.212553 -5.34277 0
M  V30 12295 C 1195.59 -1.91906 -4.85767 0
M  V30 12296 H 1197.28 -1.35391 -2.67039 0
M  V30 12297 H 1194.83 -0.652462 -1.2837 0
M  V30 12298 H 1196.78 0.561995 -4.17636 0
M  V30 12299 H 1195.51 1.12224 -3.06714 0
M  V30 12300 H 1194.16 -0.957462 -3.53876 0
M  V30 12301 H 1193.81 1.10634 -4.90682 0
M  V30 12302 H 1193.51 -0.365473 -5.86462 0
M  V30 12303 H 1195.04 0.541271 -6.08196 0
M  V30 12304 H 1196.45 -1.65165 -5.48993 0
M  V30 12305 H 1194.85 -2.44279 -5.48131 0
M  V30 12306 H 1195.92 -2.62173 -4.07914 0
M  V30 12307 N 1197.26 1.39987 -0.723979 0
M  V30 12308 C 1198.67 1.83606 -0.338461 0
M  V30 12309 C 1199.02 1.6051 1.12831 0
M  V30 12310 O 1198.15 1.09041 1.8692 0
M  V30 12311 C 1198.74 3.33308 -0.607533 0
M  V30 12312 C 1197.3 3.75389 -0.275632 0
M  V30 12313 C 1196.45 2.6311 -0.875699 0
M  V30 12314 H 1199.4 1.29135 -0.922483 0
M  V30 12315 H 1199.42 3.80297 0.124424 0
M  V30 12316 H 1198.93 3.50087 -1.67514 0
M  V30 12317 H 1197.03 3.64203 0.786579 0
M  V30 12318 H 1197.15 4.73185 -0.750492 0
M  V30 12319 H 1195.51 2.5289 -0.303122 0
M  V30 12320 H 1196.29 2.82698 -1.94774 0
M  V30 12321 N 1198.74 0.470782 1.50404 0
M  V30 12322 C 1200.02 -0.145879 1.95055 0
M  V30 12323 C 1200.4 -1.57004 1.41114 0
M  V30 12324 O 1199.74 -2.20152 0.612006 0
M  V30 12325 C 1199.95 -0.0895071 3.48885 0
M  V30 12326 C 1201.3 -0.278548 4.23685 0
M  V30 12327 O 1202.33 -0.166105 3.55812 0
M  V30 12328 O 1201.19 -0.505606 5.44156 0
M  V30 12329 H 1198.28 -0.111838 0.819403 0
M  V30 12330 H 1200.83 0.531162 1.61173 0
M  V30 12331 H 1199.6 0.904836 3.80695 0
M  V30 12332 H 1199.22 -0.808019 3.89303 0
M  V30 12333 N 1200.22 -1.56282 0.203376 0
M  V30 12334 C 1201.15 -2.2247 -0.709183 0
M  V30 12335 C 1202.13 -1.19046 -1.21499 0
M  V30 12336 O 1203.31 -1.47578 -1.26231 0
M  V30 12337 C 1200.44 -2.8905 -1.92529 0
M  V30 12338 C 1199.4 -3.98789 -1.55407 0
M  V30 12339 C 1198.72 -4.52574 -2.84747 0
M  V30 12340 C 1200.02 -5.16774 -0.75775 0
M  V30 12341 H 1201.72 -2.98986 -0.157392 0
M  V30 12342 H 1199.26 -1.43808 -0.0742613 0
M  V30 12343 H 1201.22 -3.34038 -2.56898 0
M  V30 12344 H 1199.94 -2.09952 -2.50175 0
M  V30 12345 H 1198.6 -3.54504 -0.933928 0
M  V30 12346 H 1198.25 -3.70229 -3.40499 0
M  V30 12347 H 1197.95 -5.26627 -2.6065 0
M  V30 12348 H 1199.47 -5.00269 -3.5009 0
M  V30 12349 H 1200.89 -5.58256 -1.30472 0
M  V30 12350 H 1199.28 -5.96945 -0.614583 0
M  V30 12351 H 1200.35 -4.84308 0.239476 0
M  V30 12352 N 1201.7 0.070167 -1.57444 0
M  V30 12353 C 1202.63 1.10996 -2.0053 0
M  V30 12354 C 1203.64 1.3489 -0.91151 0
M  V30 12355 O 1204.83 1.33102 -1.18938 0
M  V30 12356 C 1201.93 2.46053 -2.33048 0
M  V30 12357 C 1201.1 2.42092 -3.64294 0
M  V30 12358 C 1200.16 3.5927 -3.84463 0
M  V30 12359 O 1199.19 3.40625 -4.5603 0
M  V30 12360 N 1200.39 4.79677 -3.26941 0
M  V30 12361 H 1203.15 0.743029 -2.90343 0
M  V30 12362 H 1200.72 0.258794 -1.59818 0
M  V30 12363 H 1202.71 3.23089 -2.43712 0
M  V30 12364 H 1201.28 2.74742 -1.49116 0
M  V30 12365 H 1200.5 1.5043 -3.64368 0
M  V30 12366 H 1201.79 2.36548 -4.50469 0
M  V30 12367 H 1201.18 4.97729 -2.68855 0
M  V30 12368 H 1199.74 5.54219 -3.43051 0
M  V30 12369 N 1203.17 1.53854 0.341593 0
M  V30 12370 C 1204.45 1.61823 1.09875 0
M  V30 12371 C 1204.83 0.440711 2.06448 0
M  V30 12372 O 1204.18 -0.566833 2.21358 0
M  V30 12373 C 1204.39 2.9799 1.81668 0
M  V30 12374 C 1205.74 3.53411 2.35341 0
M  V30 12375 O 1206.76 3.00177 1.91761 0
M  V30 12376 O 1205.62 4.4653 3.15076 0
M  V30 12377 H 1202.71 0.654599 0.5054 0
M  V30 12378 H 1205.26 1.66199 0.342929 0
M  V30 12379 H 1204.03 3.7513 1.11323 0
M  V30 12380 H 1203.65 2.97213 2.64103 0
M  V30 12381 N 1204.65 -0.602709 1.4562 0
M  V30 12382 C 1206.06 -1.1847 1.44297 0
M  V30 12383 C 1206.41 -1.95434 0.17316 0
M  V30 12384 O 1205.54 -2.03894 -0.724986 0
M  V30 12385 C 1206.13 -2.15508 2.61422 0
M  V30 12386 C 1204.69 -2.69073 2.63204 0
M  V30 12387 C 1203.84 -1.44568 2.36633 0
M  V30 12388 H 1206.79 -0.391745 1.53789 0
M  V30 12389 H 1206.81 -2.98628 2.35799 0
M  V30 12390 H 1206.32 -1.59464 3.53826 0
M  V30 12391 H 1204.42 -3.29042 1.7482 0
M  V30 12392 H 1204.54 -3.13173 3.62573 0
M  V30 12393 H 1202.9 -1.73692 1.86287 0
M  V30 12394 H 1203.68 -0.903852 3.31188 0
M  V30 12395 O 1206.17 -1.43203 -0.746673 0
M  V30 12396 H 1206.86 -1.34308 -1.39575 0
M  V30 END ATOM
M  V30 BEGIN BOND
M  V30 END BOND
M  V30 END CTAB
M  END
$$$$
