drugbank_target|P9WNG3 3-oxoacyl-[acyl-carrier-protein] synthase 3 (DB03017; DB03264; DB07611; DB07650; DB08171; DB08684; DB08712)
 OpenBabel12092119583D

  0  0  0     0  0            999 V3000
M  V30 BEGIN CTAB
M  V30 COUNTS 4865 4909 0 0 0
M  V30 BEGIN ATOM
M  V30 1 H -0.908 1.98254 -0.117106 0
M  V30 2 N 0 1.576 0 0
M  V30 3 C 0.933 2.03868 1.02534 0
M  V30 4 C 1.911 0.928543 1.3348 0
M  V30 5 O 3.095 1.19667 1.45644 0
M  V30 6 C 0.222 2.43627 2.35294 0
M  V30 7 C -0.732 3.65373 2.2001 0
M  V30 8 S 0.101 5.13292 1.52614 0
M  V30 9 C 1.257 5.56322 2.86805 0
M  V30 10 H 1.49 2.90518 0.631377 0
M  V30 11 H -0.977 1.52953 0.210867 0
M  V30 12 H 0.981 2.67203 3.11629 0
M  V30 13 H -0.358 1.57376 2.7183 0
M  V30 14 H -1.165 3.90944 3.18086 0
M  V30 15 H -1.563 3.418 1.51819 0
M  V30 16 H 0.729 5.58782 3.83104 0
M  V30 17 H 1.672 6.56266 2.65933 0
M  V30 18 H 2.08 4.83886 2.90714 0
M  V30 19 N 1.4781 -0.272755 1.55222 0
M  V30 20 C 2.7061 -1.02255 1.79865 0
M  V30 21 C 3.1211 -1.79924 0.572088 0
M  V30 22 O 2.4781 -1.76638 -0.458842 0
M  V30 23 C 2.5291 -1.98094 3.02392 0
M  V30 24 O 2.2501 -1.23572 4.20311 0
M  V30 25 C 3.7511 -2.84884 3.39641 0
M  V30 26 H 0.9711 -0.302057 0.599168 0
M  V30 27 H 3.5151 -0.303465 2.02236 0
M  V30 28 H 1.6701 -2.65465 2.82147 0
M  V30 29 H 2.0841 -1.88172 4.89583 0
M  V30 30 H 3.5581 -3.47927 4.28545 0
M  V30 31 H 4.0351 -3.54665 2.59055 0
M  V30 32 H 4.6411 -2.23003 3.62146 0
M  V30 33 N 2.9562 -1.48159 -0.537278 0
M  V30 34 C 3.8662 -1.64807 -1.6696 0
M  V30 35 C 4.8822 -0.530651 -1.65711 0
M  V30 36 O 6.0582 -0.800784 -1.84796 0
M  V30 37 C 3.1232 -1.67708 -3.03438 0
M  V30 38 C 2.1842 -2.91025 -3.156 0
M  V30 39 C 1.4172 -2.93778 -4.45567 0
M  V30 40 O 1.6402 -2.05153 -5.3223 0
M  V30 41 O 0.5742 -3.85868 -4.61941 0
M  V30 42 H 4.4002 -2.6066 -1.55853 0
M  V30 43 H 1.9852 -1.31475 -0.709549 0
M  V30 44 H 3.8672 -1.7218 -3.84619 0
M  V30 45 H 2.5422 -0.750278 -3.14885 0
M  V30 46 H 1.4492 -2.92089 -2.33741 0
M  V30 47 H 2.7822 -3.83065 -3.09066 0
M  V30 48 N 4.4343 0.785586 -1.36625 0
M  V30 49 C 5.6833 1.53883 -1.30396 0
M  V30 50 C 5.9963 1.95271 0.113452 0
M  V30 51 O 7.2023 2.69858 0.298142 0
M  V30 52 C 5.6583 2.77808 -2.28802 0
M  V30 53 C 5.2663 2.43574 -3.75999 0
M  V30 54 C 7.0103 3.55783 -2.31558 0
M  V30 55 C 4.9173 3.63919 -4.66173 0
M  V30 56 H 3.8473 0.577678 -0.484566 0
M  V30 57 H 6.4983 0.861705 -1.62009 0
M  V30 58 H 4.8803 3.47339 -1.90188 0
M  V30 59 H 6.0543 1.81916 -4.23371 0
M  V30 60 H 4.3693 1.78803 -3.76056 0
M  V30 61 H 6.9663 4.45205 -2.96137 0
M  V30 62 H 7.3093 3.94644 -1.3252 0
M  V30 63 H 7.8423 2.93235 -2.68809 0
M  V30 64 H 4.5813 3.3015 -5.66287 0
M  V30 65 H 4.1013 4.2473 -4.23515 0
M  V30 66 H 5.7803 4.30901 -4.82632 0
M  V30 67 N 5.9124 1.20967 1.01018 0
M  V30 68 C 6.8754 0.965918 2.07853 0
M  V30 69 C 7.8754 -0.0610545 1.60684 0
M  V30 70 O 9.0654 0.175681 1.73312 0
M  V30 71 C 6.1974 0.455513 3.37843 0
M  V30 72 H 7.3904 1.91365 2.3091 0
M  V30 73 H 4.9434 1.02594 1.17916 0
M  V30 74 H 5.6784 -0.497381 3.20463 0
M  V30 75 H 5.4634 1.19622 3.73407 0
M  V30 76 H 6.9534 0.304667 4.16487 0
M  V30 77 N 7.3905 -1.2043 1.01659 0
M  V30 78 C 8.6185 -1.93777 0.725132 0
M  V30 79 C 9.0335 -1.74772 -0.714166 0
M  V30 80 O 8.3905 -1.06169 -1.4844 0
M  V30 81 C 8.4415 -3.45876 1.05129 0
M  V30 82 O 8.1625 -3.6426 2.43406 0
M  V30 83 C 9.6635 -4.36368 0.780891 0
M  V30 84 H 6.8835 -0.615901 0.266284 0
M  V30 85 H 9.4275 -1.52922 1.35776 0
M  V30 86 H 7.5825 -3.8461 0.464065 0
M  V30 87 H 7.9965 -4.58246 2.55169 0
M  V30 88 H 9.4705 -5.41743 1.05918 0
M  V30 89 H 9.9475 -4.38275 -0.284937 0
M  V30 90 H 10.5535 -4.03296 1.35027 0
M  V30 91 N 8.8686 -0.792821 -1.36206 0
M  V30 92 C 10.0966 -0.378825 -2.03402 0
M  V30 93 C 10.5116 1.00586 -1.59774 0
M  V30 94 O 9.8686 1.64574 -0.788764 0
M  V30 95 C 9.9196 -0.43683 -3.58851 0
M  V30 96 O 9.6406 -1.76691 -4.00889 0
M  V30 97 C 11.1416 -0.0138943 -4.43298 0
M  V30 98 H 8.3616 -0.155673 -0.652692 0
M  V30 99 H 10.9056 -1.07261 -1.74113 0
M  V30 100 H 9.0606 0.208575 -3.86838 0
M  V30 101 H 9.4746 -1.72011 -4.95492 0
M  V30 102 H 10.9486 -0.105615 -5.51899 0
M  V30 103 H 11.4256 1.03915 -4.2673 0
M  V30 104 H 12.0316 -0.63192 -4.20579 0
M  V30 105 N 10.3467 1.47872 -0.545128 0
M  V30 106 C 11.5717 2.07391 -0.0190611 0
M  V30 107 C 11.9967 1.39688 1.25971 0
M  V30 108 O 11.3547 0.467816 1.7516 0
M  V30 109 C 11.4027 3.60188 0.172335 0
M  V30 110 O 10.5067 3.9339 1.23766 0
M  V30 111 H 9.8477 0.662411 -0.0459059 0
M  V30 112 H 12.3777 1.90066 -0.757365 0
M  V30 113 H 12.3877 4.06129 0.390305 0
M  V30 114 H 11.0627 4.08865 -0.761725 0
M  V30 115 H 9.6397 3.5921 1.00114 0
M  V30 116 N 11.8248 0.280983 1.55075 0
M  V30 117 C 13.0728 -0.333455 1.9933 0
M  V30 118 C 13.3938 -1.55937 1.17085 0
M  V30 119 O 12.6638 -1.94143 0.261805 0
M  V30 120 H 11.2438 -0.126197 0.736263 0
M  V30 121 H 13.9058 0.387678 1.91005 0
M  V30 122 H 13.0018 -0.619292 3.05894 0
M  V30 123 N 13.3029 -1.57598 0.00835791 0
M  V30 124 C 14.2659 -2.07884 -0.965242 0
M  V30 125 C 15.2659 -0.989825 -1.26725 0
M  V30 126 O 16.4559 -1.25218 -1.21104 0
M  V30 127 C 13.5879 -2.52731 -2.28779 0
M  V30 128 H 14.7809 -2.95178 -0.530112 0
M  V30 129 H 12.3339 -1.54458 -0.239283 0
M  V30 130 H 13.0689 -1.68705 -2.76964 0
M  V30 131 H 12.8539 -3.32272 -2.08177 0
M  V30 132 H 14.3439 -2.91933 -2.98605 0
M  V30 133 N 14.781 0.264519 -1.55364 0
M  V30 134 C 16.197 0.61215 -1.47394 0
M  V30 135 C 16.397 1.89134 -0.695018 0
M  V30 136 O 15.453 2.51563 -0.217275 0
M  V30 137 C 16.766 0.731235 -2.91674 0
M  V30 138 C 18.314 0.82473 -3.01939 0
M  V30 139 C 18.789 0.975522 -4.4749 0
M  V30 140 N 20.28 1.04083 -4.51354 0
M  V30 141 C 21.015 1.17646 -5.61201 0
M  V30 142 N 20.511 1.27874 -6.80896 0
M  V30 143 N 22.304 1.20823 -5.48961 0
M  V30 144 H 14.455 -0.575456 -2.04456 0
M  V30 145 H 16.718 -0.196099 -0.927496 0
M  V30 146 H 16.424 -0.138392 -3.51428 0
M  V30 147 H 16.298 1.60883 -3.41169 0
M  V30 148 H 18.685 1.68482 -2.42276 0
M  V30 149 H 18.766 -0.0776479 -2.55682 0
M  V30 150 H 18.41 0.120058 -5.07758 0
M  V30 151 H 18.34 1.89268 -4.91412 0
M  V30 152 H 20.831 0.973846 -3.65136 0
M  V30 153 H 21.144 1.38081 -7.60364 0
M  V30 154 H 19.489 1.24863 -6.83692 0
M  V30 155 H 22.68 1.12469 -4.54388 0
M  V30 156 H 22.853 1.31049 -6.3461 0
M  V30 157 N 16.2591 1.48442 0.529413 0
M  V30 158 C 17.4841 1.60406 1.31471 0
M  V30 159 C 17.9091 0.264738 1.86228 0
M  V30 160 O 17.2671 -0.763668 1.64432 0
M  V30 161 C 17.3151 2.65419 2.44101 0
M  V30 162 O 16.4191 2.22618 3.47153 0
M  V30 163 H 15.7601 0.537863 0.389357 0
M  V30 164 H 18.2901 1.94432 0.636965 0
M  V30 165 H 18.3001 2.86709 2.90279 0
M  V30 166 H 16.9751 3.62652 2.03608 0
M  V30 167 H 15.5521 2.11543 3.0709 0
M  V30 168 N 17.7372 -0.778329 1.37039 0
M  V30 169 C 18.9832 -1.53892 1.32079 0
M  V30 170 C 19.3162 -1.9396 -0.0965386 0
M  V30 171 O 18.5912 -1.63568 -1.05242 0
M  V30 172 C 18.8742 -2.80847 2.25382 0
M  V30 173 C 18.7272 -2.47076 3.75864 0
M  V30 174 C 20.0462 -3.82741 2.1725 0
M  V30 175 H 17.1652 -0.558303 0.48111 0
M  V30 176 H 19.8072 -0.893397 1.67685 0
M  V30 177 H 17.9572 -3.35931 1.95148 0
M  V30 178 H 19.6292 -1.97957 4.16666 0
M  V30 179 H 17.8722 -1.79863 3.94755 0
M  V30 180 H 18.5432 -3.37798 4.36574 0
M  V30 181 H 21.0192 -3.37133 2.43887 0
M  V30 182 H 19.8952 -4.69303 2.84686 0
M  V30 183 H 20.1562 -4.2652 1.16331 0
M  V30 184 N 19.2153 -1.21501 -1.00376 0
M  V30 185 C 20.4633 -1.03095 -1.73827 0
M  V30 186 C 20.7843 0.436341 -1.90055 0
M  V30 187 O 20.0543 1.31466 -1.45236 0
M  V30 188 H 18.6343 -0.378487 -0.644016 0
M  V30 189 H 21.2963 -1.52831 -1.20949 0
M  V30 190 H 20.3923 -1.49991 -2.73695 0
M  V30 191 N 20.6934 1.19889 -1.02296 0
M  V30 192 C 21.6234 2.25141 -0.619174 0
M  V30 193 C 22.6044 1.66051 0.368915 0
M  V30 194 O 23.7894 1.92546 0.252941 0
M  V30 195 C 20.9194 3.4728 0.0368783 0
M  V30 196 C 19.8734 4.19005 -0.872865 0
M  V30 197 C 19.1994 5.34637 -0.0822402 0
M  V30 198 C 20.4994 4.74452 -2.18387 0
M  V30 199 H 22.1934 2.59171 -1.49903 0
M  V30 200 H 19.7394 1.24579 -0.722222 0
M  V30 201 H 21.6924 4.20098 0.330958 0
M  V30 202 H 20.4164 3.12433 0.95149 0
M  V30 203 H 19.0754 3.48061 -1.15105 0
M  V30 204 H 18.7234 4.96034 0.83422 0
M  V30 205 H 18.4234 5.83557 -0.688149 0
M  V30 206 H 19.9474 6.10255 0.205238 0
M  V30 207 H 21.3614 5.39055 -1.95172 0
M  V30 208 H 19.7584 5.33834 -2.74119 0
M  V30 209 H 20.8284 3.92844 -2.84257 0
M  V30 210 N 22.1715 0.800033 1.35784 0
M  V30 211 C 23.1015 0.220184 2.3246 0
M  V30 212 C 24.0825 -0.65073 1.57161 0
M  V30 213 O 25.2675 -0.582359 1.85263 0
M  V30 214 C 22.3975 -0.637353 3.41402 0
M  V30 215 C 21.3515 0.134531 4.27789 0
M  V30 216 C 20.6775 -0.844285 5.27992 0
M  V30 217 C 21.9775 1.32979 5.05088 0
M  V30 218 H 23.6715 1.02787 2.81203 0
M  V30 219 H 21.2175 0.495717 1.35199 0
M  V30 220 H 23.1705 -1.05302 4.08031 0
M  V30 221 H 21.8945 -1.47785 2.91251 0
M  V30 222 H 20.5535 0.531296 3.6273 0
M  V30 223 H 20.2015 -1.68011 4.74111 0
M  V30 224 H 19.9015 -0.332184 5.8666 0
M  V30 225 H 21.4255 -1.2583 5.97494 0
M  V30 226 H 22.8395 0.98934 5.64699 0
M  V30 227 H 21.2365 1.77593 5.7322 0
M  V30 228 H 22.3065 2.11978 4.36111 0
M  V30 229 N 23.6496 -1.47581 0.552962 0
M  V30 230 C 24.8746 -2.07378 0.0300593 0
M  V30 231 C 25.2996 -1.40355 -1.25229 0
M  V30 232 O 24.6576 -0.477099 -1.7491 0
M  V30 233 C 24.7056 -3.60274 -0.153231 0
M  V30 234 O 23.8096 -3.94041 -1.21678 0
M  V30 235 H 23.1506 -0.662158 0.0494182 0
M  V30 236 H 25.6806 -1.89662 0.767434 0
M  V30 237 H 25.6906 -4.0633 -0.368761 0
M  V30 238 H 24.3656 -4.08455 0.783397 0
M  V30 239 H 22.9426 -3.59735 -0.982079 0
M  V30 240 N 25.1277 -0.289203 -1.54924 0
M  V30 241 C 26.3737 0.323998 -2.00195 0
M  V30 242 C 26.7067 1.54441 -1.17735 0
M  V30 243 O 25.9817 1.92875 -0.250878 0
M  V30 244 C 26.2647 0.692276 -3.53383 0
M  V30 245 C 26.1177 -0.536457 -4.46589 0
M  V30 246 C 27.4367 1.52335 -4.12895 0
M  V30 247 H 24.5557 0.116289 -0.727768 0
M  V30 248 H 27.1977 -0.398954 -1.85764 0
M  V30 249 H 25.3477 1.30822 -3.65811 0
M  V30 250 H 27.0197 -1.17499 -4.46085 0
M  V30 251 H 25.2627 -1.17192 -4.1767 0
M  V30 252 H 25.9337 -0.234806 -5.515 0
M  V30 253 H 28.4097 1.00302 -4.0383 0
M  V30 254 H 27.2857 1.74982 -5.20262 0
M  V30 255 H 27.5467 2.50886 -3.64018 0
M  V30 256 N 26.6058 1.57591 -0.0167156 0
M  V30 257 C 27.8538 1.90906 0.663285 0
M  V30 258 C 28.1748 0.892509 1.73376 0
M  V30 259 O 27.4448 -0.0677623 1.95783 0
M  V30 260 H 26.0248 0.704637 0.247983 0
M  V30 261 H 28.6868 1.94803 -0.0615909 0
M  V30 262 H 27.7828 2.9116 1.12393 0
M  V30 263 N 28.0839 -0.256276 1.55502 0
M  V30 264 C 29.0469 -1.30047 1.88734 0
M  V30 265 C 30.0469 -1.4154 0.763086 0
M  V30 266 O 31.2369 -1.40403 1.03115 0
M  V30 267 C 28.3689 -2.67953 2.10747 0
M  V30 268 H 29.5619 -1.01802 2.82093 0
M  V30 269 H 27.1149 -0.495134 1.4825 0
M  V30 270 H 27.8499 -3.01351 1.19825 0
M  V30 271 H 27.6349 -2.60993 2.92617 0
M  V30 272 H 29.1249 -3.43368 2.37673 0
M  V30 273 N 29.562 -1.4872 -0.521534 0
M  V30 274 C 30.792 -1.6061 -1.29954 0
M  V30 275 C 31.2 -0.268728 -1.87282 0
M  V30 276 O 30.543 0.753221 -1.67548 0
M  V30 277 C 30.605 -2.60013 -2.48261 0
M  V30 278 C 30.269 -4.04874 -2.11957 0
M  V30 279 C 31.266 -4.92304 -1.67132 0
M  V30 280 C 28.951 -4.5047 -2.22221 0
M  V30 281 C 30.945 -6.2336 -1.33047 0
M  V30 282 C 28.632 -5.81544 -1.87748 0
M  V30 283 C 29.63 -6.67812 -1.43234 0
M  V30 284 O 29.318 -7.96446 -1.09217 0
M  V30 285 H 29.05 -0.544116 -0.401141 0
M  V30 286 H 31.604 -1.95339 -0.634958 0
M  V30 287 H 29.834 -2.20422 -3.17728 0
M  V30 288 H 31.523 -2.61648 -3.10315 0
M  V30 289 H 32.289 -4.58312 -1.58665 0
M  V30 290 H 28.168 -3.83504 -2.55823 0
M  V30 291 H 31.712 -6.90649 -0.982299 0
M  V30 292 H 27.609 -6.15069 -1.95858 0
M  V30 293 H 28.377 -8.09275 -1.22542 0
M  V30 294 N 31.0401 0.771051 -1.3745 0
M  V30 295 C 32.4561 1.07171 -1.18265 0
M  V30 296 C 32.6561 2.01491 -0.019287 0
M  V30 297 O 31.7121 2.44244 0.640408 0
M  V30 298 C 33.0251 1.66854 -2.50161 0
M  V30 299 C 34.5731 1.79109 -2.56689 0
M  V30 300 C 35.0481 2.42205 -3.88717 0
M  V30 301 N 36.5391 2.49655 -3.90162 0
M  V30 302 C 37.2741 2.9933 -4.8907 0
M  V30 303 N 36.7701 3.49172 -5.98374 0
M  V30 304 N 38.5631 2.9821 -4.76474 0
M  V30 305 H 30.7141 0.144796 -2.11906 0
M  V30 306 H 32.9771 0.126863 -0.939473 0
M  V30 307 H 32.6831 1.05017 -3.35655 0
M  V30 308 H 32.5571 2.6614 -2.673 0
M  V30 309 H 34.9441 2.40077 -1.71601 0
M  V30 310 H 35.0251 0.785757 -2.43433 0
M  V30 311 H 34.6691 1.81875 -4.74219 0
M  V30 312 H 34.5991 3.43345 -3.99276 0
M  V30 313 H 37.0901 2.14383 -3.11205 0
M  V30 314 H 37.4031 3.8548 -6.69795 0
M  V30 315 H 35.7481 3.47275 -6.02018 0
M  V30 316 H 38.9391 2.58572 -3.90203 0
M  V30 317 H 39.1121 3.36613 -5.53711 0
M  V30 318 N 32.5182 1.22032 0.997298 0
M  V30 319 C 33.9292 1.0397 1.55071 0
M  V30 320 C 34.2802 -0.398192 1.92117 0
M  V30 321 O 33.4052 -1.28254 1.74298 0
M  V30 322 C 34.0002 1.88109 2.81781 0
M  V30 323 C 32.5592 1.74357 3.33581 0
M  V30 324 C 31.7062 1.84846 2.06706 0
M  V30 325 H 34.6572 1.35941 0.818883 0
M  V30 326 H 34.6782 1.39589 3.53971 0
M  V30 327 H 34.1902 2.92754 2.54787 0
M  V30 328 H 32.2912 0.72427 3.65493 0
M  V30 329 H 32.4042 2.56772 4.04481 0
M  V30 330 H 30.7682 1.28238 2.20062 0
M  V30 331 H 31.5512 2.91014 1.82114 0
M  V30 332 N 33.9963 -1.19345 1.0293 0
M  V30 333 C 34.9063 -2.26245 0.620515 0
M  V30 334 C 35.9223 -1.70486 -0.347928 0
M  V30 335 O 37.0983 -2.00347 -0.205704 0
M  V30 336 C 34.1633 -3.46693 -0.0218957 0
M  V30 337 C 33.2243 -4.17632 0.994102 0
M  V30 338 C 32.4573 -5.32329 0.382253 0
M  V30 339 O 32.6803 -5.64552 -0.814676 0
M  V30 340 O 31.6143 -5.91664 1.10531 0
M  V30 341 H 35.4403 -2.63453 1.51083 0
M  V30 342 H 33.0253 -1.26207 0.799513 0
M  V30 343 H 34.9073 -4.19683 -0.380072 0
M  V30 344 H 33.5823 -3.11333 -0.886209 0
M  V30 345 H 32.4893 -3.4676 1.40387 0
M  V30 346 H 33.8223 -4.56964 1.8288 0
M  V30 347 N 35.4744 -0.807222 -1.35358 0
M  V30 348 C 36.8904 -0.491038 -1.51858 0
M  V30 349 C 37.0904 0.987648 -1.75635 0
M  V30 350 O 36.1464 1.77265 -1.79815 0
M  V30 351 C 37.4594 -1.33695 -2.69344 0
M  V30 352 C 39.0074 -1.33246 -2.83222 0
M  V30 353 C 39.4824 -2.1625 -4.03733 0
M  V30 354 N 40.9734 -2.1379 -4.10911 0
M  V30 355 C 41.7084 -2.74772 -5.03277 0
M  V30 356 N 41.2044 -3.44684 -6.0097 0
M  V30 357 N 42.9974 -2.6441 -4.96028 0
M  V30 358 H 35.1484 -1.76485 -1.18181 0
M  V30 359 H 37.4114 -0.751199 -0.578276 0
M  V30 360 H 37.1174 -2.38634 -2.58354 0
M  V30 361 H 36.9914 -0.990618 -3.6396 0
M  V30 362 H 39.3784 -0.290911 -2.93663 0
M  V30 363 H 39.4594 -1.71866 -1.89461 0
M  V30 364 H 39.1034 -3.20445 -3.94052 0
M  V30 365 H 39.0334 -1.74989 -4.96675 0
M  V30 366 H 41.5244 -1.62923 -3.40976 0
M  V30 367 H 41.8374 -3.88501 -6.68047 0
M  V30 368 H 40.1824 -3.48788 -6.01142 0
M  V30 369 H 43.3734 -2.0938 -4.18662 0
M  V30 370 H 43.5464 -3.12225 -5.6782 0
M  V30 371 N 36.9525 1.47285 -0.560781 0
M  V30 372 C 38.1985 2.02764 -0.0381184 0
M  V30 373 C 38.5315 1.43384 1.30976 0
M  V30 374 O 37.8065 0.590733 1.85312 0
M  V30 375 C 38.0895 3.60064 0.0511427 0
M  V30 376 C 37.9425 4.2987 -1.32408 0
M  V30 377 C 39.2615 4.33439 0.762795 0
M  V30 378 H 36.3805 0.736841 -0.0153264 0
M  V30 379 H 39.0225 1.75675 -0.723759 0
M  V30 380 H 37.1725 3.83274 0.635065 0
M  V30 381 H 38.8445 4.17989 -1.95148 0
M  V30 382 H 37.0875 3.90085 -1.8978 0
M  V30 383 H 37.7585 5.38478 -1.21431 0
M  V30 384 H 40.2345 4.15243 0.266965 0
M  V30 385 H 39.1105 5.43124 0.794221 0
M  V30 386 H 39.3715 4.02915 1.81966 0
M  V30 387 N 38.4306 0.297415 1.54768 0
M  V30 388 C 39.6766 -0.313376 2.00364 0
M  V30 389 C 40.0096 -1.53815 1.18553 0
M  V30 390 O 39.2846 -1.92739 0.261103 0
M  V30 391 C 39.5676 -0.673525 3.53745 0
M  V30 392 C 39.4206 0.560133 4.46299 0
M  V30 393 C 40.7396 -1.50143 4.13697 0
M  V30 394 H 37.8586 -0.112428 0.728374 0
M  V30 395 H 40.5006 0.4088 1.8555 0
M  V30 396 H 38.6506 -1.28881 3.665 0
M  V30 397 H 40.3226 1.19863 4.45455 0
M  V30 398 H 38.5656 1.19405 4.17043 0
M  V30 399 H 39.2366 0.26405 5.51368 0
M  V30 400 H 41.7126 -0.981588 4.04356 0
M  V30 401 H 40.5886 -1.72221 5.21182 0
M  V30 402 H 40.8496 -2.48952 3.65343 0
M  V30 403 N 39.9087 -1.5758 0.0250728 0
M  V30 404 C 41.1367 -1.9593 -0.664747 0
M  V30 405 C 41.5517 -0.901352 -1.65895 0
M  V30 406 O 40.9087 0.117255 -1.82123 0
M  V30 407 C 40.9597 -3.34342 -1.37468 0
M  V30 408 O 40.6807 -4.36079 -0.420324 0
M  V30 409 C 42.1817 -3.873 -2.1567 0
M  V30 410 H 39.4017 -0.645405 -0.183557 0
M  V30 411 H 41.9457 -2.04329 0.0836372 0
M  V30 412 H 40.1007 -3.27175 -2.0745 0
M  V30 413 H 40.5147 -5.16297 -0.923991 0
M  V30 414 H 41.9887 -4.86504 -2.60803 0
M  V30 415 H 42.4657 -3.21331 -2.99405 0
M  V30 416 H 43.0717 -3.97723 -1.50654 0
M  V30 417 N 41.3868 0.248026 -1.55636 0
M  V30 418 C 42.3348 1.32683 -1.91045 0
M  V30 419 C 43.3288 1.49883 -0.789401 0
M  V30 420 O 44.5348 1.51371 -0.974007 0
M  V30 421 H 40.9098 0.444272 -0.606734 0
M  V30 422 H 42.8808 1.00085 -2.81115 0
M  V30 423 C 41.6298 2.6755 -2.22064 0
M  V30 424 H 40.9528 2.55114 -3.07826 0
M  V30 425 H 42.3928 3.41912 -2.50743 0
M  V30 426 C 40.8518 3.20556 -1.0366 0
M  V30 427 O 41.3818 4.00695 -0.284016 0
M  V30 428 N 39.5878 2.78568 -0.82753 0
M  V30 429 H 39.1348 2.1351 -1.44123 0
M  V30 430 H 39.0928 3.14378 -0.0369803 0
M  V30 431 N 42.8649 1.48995 0.513639 0
M  V30 432 C 44.1419 1.48338 1.27495 0
M  V30 433 C 44.5219 0.204065 2.10111 0
M  V30 434 O 43.8699 -0.813881 2.13514 0
M  V30 435 C 44.0799 2.75498 2.14247 0
M  V30 436 C 45.4279 3.24484 2.73852 0
M  V30 437 O 46.4519 2.76528 2.24523 0
M  V30 438 O 45.3109 4.07974 3.6362 0
M  V30 439 H 42.4049 0.593149 0.576284 0
M  V30 440 H 44.9509 1.61246 0.528948 0
M  V30 441 H 43.7229 3.60109 1.53092 0
M  V30 442 H 43.3459 2.6539 2.96064 0
M  V30 443 N 44.343 -0.763751 1.37857 0
M  V30 444 C 45.253 -1.90817 1.36478 0
M  V30 445 C 46.269 -1.71997 0.263248 0
M  V30 446 O 47.445 -1.95095 0.499979 0
M  V30 447 C 44.51 -3.2605 1.17864 0
M  V30 448 C 43.571 -3.57467 2.3773 0
M  V30 449 C 42.804 -4.86249 2.19995 0
M  V30 450 O 43.027 -5.57884 1.18836 0
M  V30 451 O 41.961 -5.16911 3.08361 0
M  V30 452 H 45.787 -1.94933 2.32884 0
M  V30 453 H 43.372 -0.907619 1.1867 0
M  V30 454 H 45.254 -4.06924 1.09504 0
M  V30 455 H 43.929 -3.22769 0.245372 0
M  V30 456 H 42.836 -2.76796 2.51664 0
M  V30 457 H 44.169 -3.655 3.29652 0
M  V30 458 N 45.8211 -1.22559 -0.990812 0
M  V30 459 C 47.0701 -1.04553 -1.72486 0
M  V30 460 C 47.3831 0.419349 -1.91052 0
M  V30 461 O 48.5891 0.719121 -2.61803 0
M  V30 462 C 47.0451 -1.82231 -3.10355 0
M  V30 463 C 46.6531 -3.32981 -2.99713 0
M  V30 464 C 48.3971 -1.7268 -3.87791 0
M  V30 465 C 46.3041 -4.03091 -4.32748 0
M  V30 466 H 45.2341 -0.387614 -0.646739 0
M  V30 467 H 47.8851 -1.46429 -1.10593 0
M  V30 468 H 46.2671 -1.33155 -3.72942 0
M  V30 469 H 47.4411 -3.89466 -2.46278 0
M  V30 470 H 45.7561 -3.43231 -2.35758 0
M  V30 471 H 48.3531 -2.22381 -4.86262 0
M  V30 472 H 48.6961 -0.687607 -4.10582 0
M  V30 473 H 49.2291 -2.1931 -3.31885 0
M  V30 474 H 45.9681 -5.07273 -4.15156 0
M  V30 475 H 45.4881 -3.51394 -4.86089 0
M  V30 476 H 47.1671 -4.08804 -5.01486 0
M  V30 477 N 47.2992 1.18797 -1.03562 0
M  V30 478 C 48.5392 1.90346 -0.744832 0
M  V30 479 C 48.9032 1.78231 0.713972 0
M  V30 480 O 50.1042 2.44441 1.11813 0
M  V30 481 C 48.3752 3.36942 -1.19184 0
M  V30 482 S 49.9342 4.26638 -1.02593 0
M  V30 483 H 46.7522 0.657343 -0.270963 0
M  V30 484 H 49.3542 1.43579 -1.32685 0
M  V30 485 H 48.0582 3.43287 -2.24905 0
M  V30 486 H 47.5892 3.88745 -0.603397 0
M  V30 487 H 49.6042 4.96164 0.0596033 0
M  V30 488 N 48.7773 0.814389 1.34928 0
M  V30 489 C 49.7093 0.187834 2.28429 0
M  V30 490 C 50.7223 -0.617374 1.5064 0
M  V30 491 O 51.9113 -0.448454 1.72775 0
M  V30 492 C 49.0113 -0.755962 3.30361 0
M  V30 493 C 48.1843 0.00456686 4.374 0
M  V30 494 C 47.2433 -0.858876 5.19143 0
M  V30 495 O 46.2693 -0.306968 5.68372 0
M  V30 496 N 47.4713 -2.17988 5.38016 0
M  V30 497 H 50.2363 0.991105 2.82838 0
M  V30 498 H 47.7973 0.670561 1.4736 0
M  V30 499 H 49.7893 -1.338 3.81942 0
M  V30 500 H 48.3593 -1.46001 2.7641 0
M  V30 501 H 47.5793 0.767865 3.86649 0
M  V30 502 H 48.8673 0.528422 5.06049 0
M  V30 503 H 48.2653 -2.65212 4.99679 0
M  V30 504 H 46.8223 -2.71098 5.92747 0
M  V30 505 N 50.2554 -1.46986 0.568584 0
M  V30 506 C 51.2054 -2.27179 -0.193339 0
M  V30 507 C 52.1894 -1.35035 -0.874895 0
M  V30 508 O 53.3814 -1.5931 -0.771322 0
M  V30 509 C 50.5104 -3.21063 -1.21546 0
M  V30 510 C 49.5964 -4.2069 -0.536738 0
M  V30 511 N 49.9874 -5.04218 0.399673 0
M  V30 512 C 48.2854 -4.38961 -0.789254 0
M  V30 513 C 48.9864 -5.76242 0.795017 0
M  V30 514 N 47.9624 -5.434 0.1473 0
M  V30 515 H 51.7644 -2.89146 0.526458 0
M  V30 516 H 49.2784 -1.57664 0.389342 0
M  V30 517 H 51.2754 -3.77209 -1.77536 0
M  V30 518 H 49.9354 -2.60654 -1.93623 0
M  V30 519 H 50.9464 -5.12077 0.774454 0
M  V30 520 H 47.6234 -3.89713 -1.49767 0
M  V30 521 H 49.0134 -6.53417 1.56513 0
M  V30 522 N 51.7335 -0.305618 -1.54608 0
M  V30 523 C 52.9825 0.303098 -1.9941 0
M  V30 524 C 53.2955 1.54648 -1.19764 0
M  V30 525 O 54.5015 2.23007 -1.54855 0
M  V30 526 C 52.9575 0.590588 -3.55021 0
M  V30 527 C 52.5655 -0.634719 -4.43481 0
M  V30 528 C 54.3095 1.16025 -4.08336 0
M  V30 529 C 52.2165 -0.320126 -5.90533 0
M  V30 530 H 51.1465 0.117031 -0.744862 0
M  V30 531 H 53.7975 -0.415045 -1.78745 0
M  V30 532 H 52.1795 1.36845 -3.71604 0
M  V30 533 H 53.3535 -1.41079 -4.38672 0
M  V30 534 H 51.6685 -1.12333 -4.00962 0
M  V30 535 H 54.2655 1.40994 -5.15776 0
M  V30 536 H 54.6085 2.10397 -3.5922 0
M  V30 537 H 55.1415 0.443985 -3.95315 0
M  V30 538 H 51.8805 -1.23254 -6.43808 0
M  V30 539 H 51.4005 0.418579 -5.98338 0
M  V30 540 H 53.0795 0.0766241 -6.46955 0
M  V30 541 N 53.2116 1.57565 -0.0334293 0
M  V30 542 C 54.4886 1.83282 0.683163 0
M  V30 543 C 54.8686 0.91823 1.90084 0
M  V30 544 O 54.2166 -0.025113 2.28486 0
M  V30 545 C 54.4266 3.32599 1.0573 0
M  V30 546 C 55.7746 3.99179 1.44711 0
M  V30 547 O 56.7986 3.3712 1.15015 0
M  V30 548 O 55.6576 5.08565 2.0006 0
M  V30 549 H 52.7516 0.755869 0.335546 0
M  V30 550 H 55.2976 1.69589 -0.0614402 0
M  V30 551 H 54.0696 3.90834 0.190828 0
M  V30 552 H 53.6926 3.51415 1.85993 0
M  V30 553 N 54.6897 -0.239769 1.55765 0
M  V30 554 C 55.9147 -0.988373 1.82335 0
M  V30 555 C 56.3397 -1.77886 0.611421 0
M  V30 556 O 55.6977 -1.75889 -0.439639 0
M  V30 557 C 55.7457 -1.89627 3.06715 0
M  V30 558 O 54.8497 -2.98904 2.84131 0
M  V30 559 H 54.1907 -0.280858 0.601677 0
M  V30 560 H 56.7207 -0.258597 2.02959 0
M  V30 561 H 56.7307 -2.30957 3.36338 0
M  V30 562 H 55.4057 -1.31511 3.9456 0
M  V30 563 H 53.9827 -2.61651 2.65694 0
M  V30 564 N 56.1678 -1.49265 -0.50573 0
M  V30 565 C 57.3928 -1.62478 -1.28902 0
M  V30 566 C 57.8178 -0.294332 -1.85783 0
M  V30 567 O 57.1758 0.737412 -1.65626 0
M  V30 568 C 57.2238 -2.69268 -2.39848 0
M  V30 569 O 56.3278 -2.28113 -3.43567 0
M  V30 570 H 55.6688 -0.54399 -0.380751 0
M  V30 571 H 58.1988 -1.95421 -0.605952 0
M  V30 572 H 58.2088 -2.91291 -2.85681 0
M  V30 573 H 56.8838 -3.65846 -1.97812 0
M  V30 574 H 55.4608 -2.16401 -3.03685 0
M  V30 575 N 57.6459 0.756429 -1.3826 0
M  V30 576 C 58.9229 1.50584 -1.24835 0
M  V30 577 C 59.3029 2.10556 0.151485 0
M  V30 578 O 58.6509 1.96825 1.1607 0
M  V30 579 C 58.8609 2.57448 -2.3563 0
M  V30 580 C 60.2089 3.24429 -2.73917 0
M  V30 581 O 61.2329 2.67751 -2.34921 0
M  V30 582 O 60.0919 4.26937 -3.41156 0
M  V30 583 H 57.1859 0.667664 -0.48801 0
M  V30 584 H 59.7319 0.792083 -1.5008 0
M  V30 585 H 58.5039 2.11362 -3.29305 0
M  V30 586 H 58.1269 3.36408 -2.11933 0
M  V30 587 N 59.124 1.23083 0.984299 0
M  V30 588 C 60.034 1.02515 2.11016 0
M  V30 589 C 61.05 -0.0291702 1.73976 0
M  V30 590 O 62.226 0.165434 2.00719 0
M  V30 591 C 59.291 0.614673 3.41208 0
M  V30 592 C 58.352 1.74359 3.92297 0
M  V30 593 C 57.585 1.35261 5.16275 0
M  V30 594 O 57.808 0.235136 5.69915 0
M  V30 595 O 56.742 2.17227 5.61334 0
M  V30 596 H 60.568 1.96862 2.31255 0
M  V30 597 H 58.153 1.01753 1.09392 0
M  V30 598 H 60.035 0.396518 4.1953 0
M  V30 599 H 58.71 -0.299851 3.22308 0
M  V30 600 H 57.617 2.01635 3.1511 0
M  V30 601 H 58.95 2.63629 4.15645 0
M  V30 602 N 60.6021 -1.18246 1.0419 0
M  V30 603 C 61.8481 -1.88793 0.75689 0
M  V30 604 C 62.2031 -1.78909 -0.707767 0
M  V30 605 O 61.4961 -1.1794 -1.50999 0
M  V30 606 C 61.6901 -3.38082 1.15911 0
M  V30 607 C 61.5191 -3.62496 2.66133 0
M  V30 608 C 60.2891 -3.7979 3.33298 0
M  V30 609 C 62.4871 -3.62976 3.64353 0
M  V30 610 N 60.4691 -3.91955 4.72487 0
M  V30 611 C 61.8401 -3.80869 4.89222 0
M  V30 612 C 63.8951 -3.46071 3.57965 0
M  V30 613 C 62.5981 -3.83608 6.08471 0
M  V30 614 C 64.6241 -3.50093 4.76643 0
M  V30 615 C 63.9861 -3.68484 6.00332 0
M  V30 616 H 60.0851 -0.709406 0.32904 0
M  V30 617 H 62.6691 -1.42022 1.33183 0
M  V30 618 H 60.8401 -3.83544 0.612238 0
M  V30 619 H 62.5721 -3.96202 0.824989 0
M  V30 620 H 59.3271 -3.79224 2.83701 0
M  V30 621 H 59.7511 -4.01857 5.44831 0
M  V30 622 H 64.3931 -3.30797 2.63311 0
M  V30 623 H 62.1111 -3.97669 7.0348 0
M  V30 624 H 65.6971 -3.38285 4.73344 0
M  V30 625 H 64.5771 -3.71488 6.90627 0
M  V30 626 N 62.0802 -0.821533 -1.34494 0
M  V30 627 C 63.3292 -0.405355 -1.97585 0
M  V30 628 C 63.6422 1.03677 -1.65863 0
M  V30 629 O 64.8482 1.55679 -2.22433 0
M  V30 630 C 63.3042 -0.673861 -3.53535 0
M  V30 631 C 62.9122 -2.12951 -3.94152 0
M  V30 632 C 64.6562 -0.32378 -4.23263 0
M  V30 633 C 62.5632 -2.34298 -5.43009 0
M  V30 634 H 61.4932 -0.147836 -0.739365 0
M  V30 635 H 64.1442 -1.00769 -1.53355 0
M  V30 636 H 62.5262 -0.00137554 -3.96 0
M  V30 637 H 63.7002 -2.84104 -3.62797 0
M  V30 638 H 62.0152 -2.44089 -3.37356 0
M  V30 639 H 64.6122 -0.461126 -5.32708 0
M  V30 640 H 64.9552 0.731586 -4.09821 0
M  V30 641 H 65.4882 -0.950786 -3.8627 0
M  V30 642 H 62.2272 -3.38335 -5.61435 0
M  V30 643 H 61.7472 -1.67687 -5.75883 0
M  V30 644 H 63.4262 -2.16588 -6.09671 0
M  V30 645 N 63.5583 1.46682 -0.576371 0
M  V30 646 C 64.7883 2.06498 -0.0648694 0
M  V30 647 C 65.1963 1.42665 1.24271 0
M  V30 648 O 64.5393 0.523886 1.76071 0
M  V30 649 C 64.6013 3.5904 0.181816 0
M  V30 650 C 64.2653 4.45028 -1.0392 0
M  V30 651 C 65.2623 4.81959 -1.94966 0
M  V30 652 C 62.9473 4.86259 -1.25927 0
M  V30 653 C 64.9413 5.58942 -3.06371 0
M  V30 654 C 62.6283 5.63002 -2.37638 0
M  V30 655 C 63.6263 5.99257 -3.2769 0
M  V30 656 O 63.3143 6.7445 -4.37461 0
M  V30 657 H 63.0463 0.674028 -0.0515987 0
M  V30 658 H 65.6003 1.89393 -0.794951 0
M  V30 659 H 63.8303 3.74429 0.966436 0
M  V30 660 H 65.5193 4.00806 0.641047 0
M  V30 661 H 66.2853 4.50689 -1.79177 0
M  V30 662 H 62.1643 4.57494 -0.567448 0
M  V30 663 H 65.7083 5.87158 -3.76684 0
M  V30 664 H 61.6053 5.93686 -2.53392 0
M  V30 665 H 62.3733 6.92867 -4.35749 0
M  V30 666 N 65.0364 0.313813 1.54444 0
M  V30 667 C 66.2644 -0.293918 2.04802 0
M  V30 668 C 66.6794 -1.46537 1.19047 0
M  V30 669 O 66.0364 -1.81182 0.218939 0
M  V30 670 C 66.0874 -0.737806 3.53891 0
M  V30 671 O 65.8084 0.387038 4.36387 0
M  V30 672 C 67.3094 -1.40936 4.203 0
M  V30 673 H 64.5294 -0.0620057 0.668129 0
M  V30 674 H 67.0734 0.457169 1.99324 0
M  V30 675 H 65.2284 -1.43889 3.59687 0
M  V30 676 H 65.6424 0.0391274 5.24485 0
M  V30 677 H 67.1164 -1.67099 5.26101 0
M  V30 678 H 67.5934 -2.35355 3.70816 0
M  V30 679 H 68.1994 -0.751117 4.18615 0
M  V30 680 N 66.5145 -1.57545 0.0417849 0
M  V30 681 C 67.9305 -1.56467 -0.314704 0
M  V30 682 C 68.1305 -1.04859 -1.72066 0
M  V30 683 O 67.1865 -0.700983 -2.42575 0
M  V30 684 C 68.4995 -3.00317 -0.15174 0
M  V30 685 C 70.0475 -3.12201 -0.223553 0
M  V30 686 C 70.5225 -4.57913 -0.0892295 0
M  V30 687 N 72.0135 -4.6297 -0.145808 0
M  V30 688 C 72.7485 -5.73362 -0.0658459 0
M  V30 689 N 72.2445 -6.92769 0.0659282 0
M  V30 690 N 74.0375 -5.6197 -0.12075 0
M  V30 691 H 66.1885 -1.89416 0.961014 0
M  V30 692 H 68.4515 -0.871862 0.372237 0
M  V30 693 H 68.1575 -3.42073 0.817254 0
M  V30 694 H 68.0315 -3.65892 -0.916692 0
M  V30 695 H 70.4185 -2.70349 -1.18301 0
M  V30 696 H 70.4995 -2.49323 0.571994 0
M  V30 697 H 70.1435 -5.00448 0.866867 0
M  V30 698 H 70.0735 -5.18786 -0.903802 0
M  V30 699 H 72.5645 -3.7709 -0.247286 0
M  V30 700 H 72.8775 -7.72707 0.119905 0
M  V30 701 H 71.2225 -6.94927 0.100885 0
M  V30 702 H 74.4135 -4.67572 -0.222187 0
M  V30 703 H 74.5865 -6.47977 -0.0549735 0
M  V30 704 N 67.9926 0.231505 -1.5589 0
M  V30 705 C 69.2206 0.974505 -1.82513 0
M  V30 706 C 69.6356 1.78344 -0.619591 0
M  V30 707 O 68.9926 1.77792 0.411848 0
M  V30 708 C 69.0436 1.90007 -3.07538 0
M  V30 709 O 68.7646 1.12385 -4.2344 0
M  V30 710 C 70.2656 2.75779 -3.47075 0
M  V30 711 H 67.4856 0.286065 -0.606966 0
M  V30 712 H 70.0296 0.249739 -2.02969 0
M  V30 713 H 68.1846 2.57891 -2.89086 0
M  V30 714 H 68.5986 1.75125 -4.944 0
M  V30 715 H 70.0726 3.36443 -4.37619 0
M  V30 716 H 70.5496 3.47672 -2.68367 0
M  V30 717 H 71.1556 2.13323 -3.67931 0
M  V30 718 N 69.4707 1.49531 0.497807 0
M  V30 719 C 70.7187 1.58865 1.24926 0
M  V30 720 C 71.0397 0.278721 1.92998 0
M  V30 721 O 70.3097 -0.702144 1.82885 0
M  V30 722 H 68.8897 0.585343 0.464094 0
M  V30 723 H 71.5517 1.86174 0.57666 0
M  V30 724 H 70.6477 2.38633 2.01149 0
M  V30 725 N 70.9488 -0.749086 1.3866 0
M  V30 726 C 72.1978 -1.50371 1.3443 0
M  V30 727 C 72.5108 -1.95503 -0.0616397 0
M  V30 728 O 73.7168 -2.70554 -0.226489 0
M  V30 729 C 72.1728 -2.71644 2.36088 0
M  V30 730 C 71.7808 -2.3352 3.82325 0
M  V30 731 C 73.5248 -3.49518 2.40909 0
M  V30 732 C 71.4318 -3.51431 4.75658 0
M  V30 733 H 70.3618 -0.564628 0.499712 0
M  V30 734 H 73.0128 -0.818449 1.64237 0
M  V30 735 H 71.3948 -3.42175 1.9933 0
M  V30 736 H 72.5688 -1.70627 4.28046 0
M  V30 737 H 70.8838 -1.6877 3.80665 0
M  V30 738 H 73.4808 -4.37197 3.07836 0
M  V30 739 H 73.8238 -3.90992 1.42937 0
M  V30 740 H 74.3568 -2.86005 2.76489 0
M  V30 741 H 71.0958 -3.15019 5.74842 0
M  V30 742 H 70.6158 -4.13352 4.34627 0
M  V30 743 H 72.2948 -4.17953 4.93887 0
M  V30 744 N 72.4269 -1.23603 -0.977757 0
M  V30 745 C 73.3739 -1.01954 -2.07061 0
M  V30 746 C 74.3439 0.0638697 -1.65977 0
M  V30 747 O 75.5289 -0.0887624 -1.90593 0
M  V30 748 C 72.6689 -0.619658 -3.39491 0
M  V30 749 C 71.7819 -1.77547 -3.93829 0
M  V30 750 C 70.9169 -1.32212 -5.14484 0
M  V30 751 C 69.9559 -2.44852 -5.60994 0
M  V30 752 N 69.0929 -2.00456 -6.72876 0
M  V30 753 H 73.9329 -1.95495 -2.24913 0
M  V30 754 H 71.4699 -0.973861 -1.10247 0
M  V30 755 H 73.4279 -0.368898 -4.15566 0
M  V30 756 H 72.0579 0.278752 -3.21594 0
M  V30 757 H 71.1099 -2.14016 -3.14486 0
M  V30 758 H 72.4219 -2.62219 -4.24314 0
M  V30 759 H 71.5759 -1.02965 -5.97899 0
M  V30 760 H 70.3149 -0.445808 -4.85658 0
M  V30 761 H 69.3199 -2.74871 -4.76157 0
M  V30 762 H 70.5449 -3.33024 -5.91837 0
M  V30 763 H 68.4909 -1.15208 -6.45804 0
M  V30 764 H 68.4079 -2.78687 -7.02759 0
M  V30 765 H 69.6759 -1.7432 -7.59758 0
M  V30 766 N 73.905 1.17692 -1.04816 0
M  V30 767 C 75.133 1.91786 -0.776254 0
M  V30 768 C 75.548 1.76604 0.667577 0
M  V30 769 O 74.905 1.10067 1.45573 0
M  V30 770 C 74.956 3.42967 -1.14263 0
M  V30 771 O 74.677 3.57678 -2.52978 0
M  V30 772 C 76.178 4.34144 -0.896311 0
M  V30 773 H 73.398 0.608624 -0.282519 0
M  V30 774 H 75.942 1.49268 -1.39783 0
M  V30 775 H 74.097 3.83245 -0.565874 0
M  V30 776 H 74.511 4.51319 -2.67229 0
M  V30 777 H 75.985 5.38744 -1.20244 0
M  V30 778 H 76.462 4.38876 0.168636 0
M  V30 779 H 77.068 3.99574 -1.45672 0
M  V30 780 N 75.3831 0.828654 1.34056 0
M  V30 781 C 76.7991 0.515135 1.51058 0
M  V30 782 C 76.9991 -0.959581 1.77184 0
M  V30 783 O 76.0551 -1.74382 1.82612 0
M  V30 784 C 77.3681 1.37963 2.67183 0
M  V30 785 C 78.9161 1.37735 2.81066 0
M  V30 786 C 79.3911 2.22645 4.00241 0
M  V30 787 N 80.8821 2.203 4.07458 0
M  V30 788 C 81.6171 2.82744 4.98842 0
M  V30 789 N 81.1131 3.54201 5.9541 0
M  V30 790 N 82.9061 2.72268 4.91759 0
M  V30 791 H 75.0571 1.78343 1.15358 0
M  V30 792 H 77.3201 0.760304 0.566252 0
M  V30 793 H 77.0261 2.42714 2.54525 0
M  V30 794 H 76.9001 1.0484 3.62338 0
M  V30 795 H 79.2871 0.337593 2.93163 0
M  V30 796 H 79.3681 1.74859 1.86703 0
M  V30 797 H 79.0121 3.26674 3.88905 0
M  V30 798 H 78.9421 1.82869 4.93829 0
M  V30 799 H 81.4331 1.68327 3.38341 0
M  V30 800 H 81.7461 3.9908 6.61782 0
M  V30 801 H 80.0911 3.58308 5.95517 0
M  V30 802 H 83.2821 2.16014 4.15278 0
M  V30 803 H 83.4551 3.21219 5.62781 0
M  V30 804 N 76.8612 -1.46375 0.584142 0
M  V30 805 C 78.2772 -1.57694 0.245929 0
M  V30 806 C 78.4772 -1.57903 -1.25175 0
M  V30 807 O 77.5332 -1.49676 -2.03355 0
M  V30 808 C 78.8462 -2.87028 0.896402 0
M  V30 809 C 80.3942 -3.00662 0.870127 0
M  V30 810 C 80.8692 -4.32734 1.50017 0
M  V30 811 N 82.3602 -4.39436 1.46458 0
M  V30 812 C 83.0952 -5.40248 1.92144 0
M  V30 813 N 82.5912 -6.47726 2.4581 0
M  V30 814 N 84.3842 -5.31459 1.83052 0
M  V30 815 H 76.5352 -1.44483 1.55687 0
M  V30 816 H 78.7982 -0.689291 0.650831 0
M  V30 817 H 78.5042 -2.9269 1.95002 0
M  V30 818 H 78.3782 -3.75014 0.405486 0
M  V30 819 H 80.7652 -2.94581 -0.174871 0
M  V30 820 H 80.8462 -2.14148 1.39908 0
M  V30 821 H 80.4902 -4.39573 2.54437 0
M  V30 822 H 80.4202 -5.18025 0.946432 0
M  V30 823 H 82.9112 -3.62367 1.07231 0
M  V30 824 H 83.2242 -7.20863 2.78525 0
M  V30 825 H 81.5692 -6.48542 2.49836 0
M  V30 826 H 84.7602 -4.46396 1.40883 0
M  V30 827 H 84.9332 -6.09881 2.18973 0
M  V30 828 N 78.3393 -0.321999 -1.54275 0
M  V30 829 C 79.5863 0.281044 -2.0054 0
M  V30 830 C 79.9143 1.52265 -1.21019 0
M  V30 831 O 79.1693 1.93687 -0.279982 0
M  V30 832 C 79.4683 0.661769 -3.5122 0
M  V30 833 C 79.1343 -0.480482 -4.48333 0
M  V30 834 C 77.7963 -0.794005 -4.74604 0
M  V30 835 C 80.1483 -1.24783 -5.06042 0
M  V30 836 C 77.4763 -1.87763 -5.55844 0
M  V30 837 C 79.8283 -2.32153 -5.88462 0
M  V30 838 C 78.4923 -2.64089 -6.13036 0
M  V30 839 H 77.7623 0.102841 -0.733829 0
M  V30 840 H 80.4093 -0.445453 -1.86247 0
M  V30 841 H 78.7143 1.46867 -3.63232 0
M  V30 842 H 80.4113 1.13989 -3.84457 0
M  V30 843 H 77.0013 -0.226039 -4.28004 0
M  V30 844 H 81.1853 -1.01887 -4.85729 0
M  V30 845 H 76.4413 -2.12954 -5.73115 0
M  V30 846 H 80.6153 -2.92057 -6.32199 0
M  V30 847 H 78.2423 -3.48185 -6.75775 0
M  V30 848 N 79.8174 1.5752 -0.0501392 0
M  V30 849 C 80.7804 2.1037 0.909786 0
M  V30 850 C 81.7804 1.02308 1.24056 0
M  V30 851 O 82.9704 1.28385 1.17741 0
M  V30 852 C 80.1024 2.58708 2.21998 0
M  V30 853 H 81.2954 2.96479 0.451665 0
M  V30 854 H 78.8484 1.55038 0.198248 0
M  V30 855 H 79.5834 1.75989 2.72394 0
M  V30 856 H 79.3684 3.37675 1.99295 0
M  V30 857 H 80.8584 2.99747 2.9076 0
M  V30 858 N 81.2955 -0.223234 1.56011 0
M  V30 859 C 82.2585 -1.26014 1.9145 0
M  V30 860 C 83.2585 -1.3989 0.792937 0
M  V30 861 O 84.4485 -1.38184 1.0607 0
M  V30 862 C 81.5805 -2.63422 2.16383 0
M  V30 863 H 82.7735 -0.95796 2.84189 0
M  V30 864 H 80.3265 -0.463576 1.49267 0
M  V30 865 H 81.0615 -2.98741 1.2619 0
M  V30 866 H 80.8465 -2.54728 2.98088 0
M  V30 867 H 82.3365 -3.38249 2.44903 0
M  V30 868 N 82.7736 -1.49793 -0.48987 0
M  V30 869 C 84.0506 -1.50348 -1.25119 0
M  V30 870 C 84.4306 -0.237466 -2.0976 0
M  V30 871 O 83.7786 0.77981 -2.14782 0
M  V30 872 C 83.9886 -2.78872 -2.09837 0
M  V30 873 C 85.3366 -3.288 -2.68655 0
M  V30 874 O 86.3606 -2.80065 -2.20096 0
M  V30 875 O 85.2196 -4.13707 -3.57083 0
M  V30 876 H 82.3136 -0.602242 -0.566775 0
M  V30 877 H 84.8596 -1.62067 -0.503229 0
M  V30 878 H 83.6316 -3.62499 -1.47343 0
M  V30 879 H 83.2546 -2.70066 -2.91805 0
M  V30 880 N 84.2517 0.741722 -1.39055 0
M  V30 881 C 85.5287 1.49252 -1.26425 0
M  V30 882 C 85.9087 2.10705 0.129144 0
M  V30 883 O 85.2567 1.98045 1.13976 0
M  V30 884 C 85.4667 2.54934 -2.38347 0
M  V30 885 C 86.8147 3.21506 -2.77343 0
M  V30 886 O 87.8387 2.65245 -2.37747 0
M  V30 887 O 86.6977 4.23294 -3.45665 0
M  V30 888 H 83.7917 0.662451 -0.495064 0
M  V30 889 H 86.3377 0.776121 -1.50912 0
M  V30 890 H 85.1097 2.07857 -3.31529 0
M  V30 891 H 84.7327 3.34141 -2.15489 0
M  V30 892 N 85.7298 1.2412 0.971189 0
M  V30 893 C 86.6398 1.04747 2.09917 0
M  V30 894 C 87.6558 -0.0107162 1.73997 0
M  V30 895 O 88.8318 0.186714 2.00533 0
M  V30 896 C 85.8968 0.650828 3.40537 0
M  V30 897 C 84.9578 1.7851 3.90426 0
M  V30 898 C 84.1908 1.40729 5.14812 0
M  V30 899 O 84.4138 0.29557 5.69634 0
M  V30 900 O 83.3478 2.23168 5.58999 0
M  V30 901 H 87.1738 1.99304 2.29154 0
M  V30 902 H 84.7588 1.02908 1.08307 0
M  V30 903 H 86.6408 0.440992 4.19086 0
M  V30 904 H 85.3158 -0.265649 3.22608 0
M  V30 905 H 84.2228 2.04966 3.12953 0
M  V30 906 H 85.5558 2.68023 4.12825 0
M  V30 907 N 87.2079 -1.17134 1.05439 0
M  V30 908 C 88.4329 -1.91913 0.786396 0
M  V30 909 C 88.8579 -1.7643 -0.652234 0
M  V30 910 O 88.2159 -1.08372 -1.45345 0
M  V30 911 C 88.2639 -3.40921 1.17497 0
M  V30 912 O 87.3679 -4.11244 0.308589 0
M  V30 913 H 86.7089 -0.598215 0.288158 0
M  V30 914 H 89.2389 -1.48457 1.4079 0
M  V30 915 H 89.2489 -3.91668 1.14281 0
M  V30 916 H 87.9239 -3.5151 2.22292 0
M  V30 917 H 86.5009 -3.70731 0.40157 0
M  V30 918 N 88.686 -0.835752 -1.33615 0
M  V30 919 C 89.649 -0.272 -2.2758 0
M  V30 920 C 90.649 0.557487 -1.50827 0
M  V30 921 O 91.839 0.37173 -1.70188 0
M  V30 922 C 88.971 0.617173 -3.35267 0
M  V30 923 H 90.164 -1.10111 -2.78954 0
M  V30 924 H 87.717 -0.608594 -1.43965 0
M  V30 925 H 88.452 1.46884 -2.89129 0
M  V30 926 H 88.237 0.0237066 -3.92093 0
M  V30 927 H 89.727 1.005 -4.05326 0
M  V30 928 N 90.1641 1.46063 -0.591896 0
M  V30 929 C 91.1271 2.28854 0.125973 0
M  V30 930 C 92.1271 1.38903 0.810107 0
M  V30 931 O 93.3171 1.61186 0.66066 0
M  V30 932 C 90.4491 3.19526 1.1881 0
M  V30 933 H 91.6421 2.93802 -0.601717 0
M  V30 934 H 89.1951 1.52325 -0.350254 0
M  V30 935 H 89.9301 2.59345 1.94707 0
M  V30 936 H 89.7151 3.85766 0.701936 0
M  V30 937 H 91.2051 3.81817 1.69132 0
M  V30 938 N 91.6422 0.330177 1.54103 0
M  V30 939 C 92.8672 -0.274893 2.0557 0
M  V30 940 C 93.2922 -1.44487 1.20437 0
M  V30 941 O 92.6502 -1.80021 0.214991 0
M  V30 942 C 92.6982 -0.68079 3.54115 0
M  V30 943 O 91.8022 -1.7824 3.71893 0
M  V30 944 H 91.1432 -0.0483849 0.662235 0
M  V30 945 H 93.6732 0.480508 1.98878 0
M  V30 946 H 93.6832 -0.961635 3.96505 0
M  V30 947 H 92.3582 0.174903 4.15532 0
M  V30 948 H 90.9352 -1.49985 3.41407 0
M  V30 949 N 93.1203 -1.57491 0.0584922 0
M  V30 950 C 94.0533 -2.07533 -0.948969 0
M  V30 951 C 95.0313 -0.977444 -1.29942 0
M  V30 952 O 96.2153 -1.2499 -1.41102 0
M  V30 953 C 93.3423 -2.52192 -2.2609 0
M  V30 954 C 92.3883 -3.73287 -2.06298 0
M  V30 955 S 93.2213 -5.18603 -1.33459 0
M  V30 956 C 94.3773 -5.66583 -2.65959 0
M  V30 957 H 94.6103 -2.92662 -0.523118 0
M  V30 958 H 92.1433 -1.53631 -0.153954 0
M  V30 959 H 94.1013 -2.78585 -3.01498 0
M  V30 960 H 92.7623 -1.67356 -2.65802 0
M  V30 961 H 91.9553 -4.0248 -3.03357 0
M  V30 962 H 91.5573 -3.47199 -1.39029 0
M  V30 963 H 93.8493 -5.72616 -3.62101 0
M  V30 964 H 94.7923 -6.65684 -2.41393 0
M  V30 965 H 95.2003 -4.94342 -2.72554 0
M  V30 966 N 94.5984 0.214957 -1.56127 0
M  V30 967 C 95.5614 1.24997 -1.92116 0
M  V30 968 C 96.5614 1.39467 -0.800344 0
M  V30 969 O 97.7514 1.37619 -1.06802 0
M  V30 970 C 94.8834 2.62271 -2.17777 0
M  V30 971 H 96.0764 0.942875 -2.84693 0
M  V30 972 H 93.6294 0.455654 -1.49511 0
M  V30 973 H 94.3644 2.98068 -1.27773 0
M  V30 974 H 94.1494 2.53143 -2.99434 0
M  V30 975 H 95.6394 3.36946 -2.46693 0
M  V30 976 N 96.0765 1.50051 0.48192 0
M  V30 977 C 97.3045 1.64237 1.25832 0
M  V30 978 C 97.7195 0.321336 1.86045 0
M  V30 979 O 97.0765 -0.695478 1.68729 0
M  V30 980 C 97.1275 2.72548 2.37487 0
M  V30 981 O 96.8485 3.99529 1.79745 0
M  V30 982 C 98.3495 2.9761 3.28547 0
M  V30 983 H 95.5695 0.55237 0.380957 0
M  V30 984 H 98.1135 1.96207 0.576467 0
M  V30 985 H 96.2685 2.43303 3.01467 0
M  V30 986 H 96.6825 4.59342 2.5319 0
M  V30 987 H 98.1565 3.77084 4.03127 0
M  V30 988 H 98.6335 2.0826 3.86684 0
M  V30 989 H 99.2395 3.28345 2.70314 0
M  V30 990 N 97.5546 -0.734337 1.39446 0
M  V30 991 C 98.4646 -1.87879 1.40495 0
M  V30 992 C 99.4806 -1.714 0.299672 0
M  V30 993 O 100.657 -1.93991 0.541249 0
M  V30 994 C 97.7216 -3.23477 1.24754 0
M  V30 995 C 96.7826 -3.52344 2.45259 0
M  V30 996 C 96.0156 -4.81473 2.30259 0
M  V30 997 O 96.2386 -5.55237 1.30643 0
M  V30 998 O 95.1726 -5.10254 3.19256 0
M  V30 999 H 98.9986 -1.89949 2.36966 0
M  V30 1000 H 96.5836 -0.882243 1.20569 0
M  V30 1001 H 98.4656 -4.04509 1.18111 0
M  V30 1002 H 97.1406 -3.22176 0.313781 0
M  V30 1003 H 96.0476 -2.71396 2.57478 0
M  V30 1004 H 97.3806 -3.58426 3.37331 0
M  V30 1005 N 99.0327 -1.24633 -0.964593 0
M  V30 1006 C 99.9957 -1.0424 -2.04124 0
M  V30 1007 C 100.996 0.00137563 -1.608 0
M  V30 1008 O 102.186 -0.239883 -1.7254 0
M  V30 1009 C 99.3177 -0.580588 -3.3592 0
M  V30 1010 H 100.511 -1.99803 -2.23649 0
M  V30 1011 H 98.0637 -1.06899 -1.14027 0
M  V30 1012 H 98.7987 0.3781 -3.22088 0
M  V30 1013 H 98.5837 -1.33398 -3.6871 0
M  V30 1014 H 100.074 -0.459034 -4.15069 0
M  V30 1015 N 100.511 1.16574 -1.06058 0
M  V30 1016 C 101.751 1.88723 -0.78504 0
M  V30 1017 C 102.115 1.79706 0.676006 0
M  V30 1018 O 103.316 2.46757 1.06603 0
M  V30 1019 C 101.587 3.34338 -1.26304 0
M  V30 1020 S 103.146 4.24366 -1.1162 0
M  V30 1021 H 99.9638 0.651448 -0.284846 0
M  V30 1022 H 102.566 1.40732 -1.35701 0
M  V30 1023 H 101.27 3.38439 -2.32136 0
M  V30 1024 H 100.801 3.87378 -0.685719 0
M  V30 1025 H 102.816 4.96179 -0.0456539 0
M  V30 1026 N 101.989 0.842826 1.3317 0
M  V30 1027 C 103.405 0.531128 1.50503 0
M  V30 1028 C 103.605 -0.940734 1.78192 0
M  V30 1029 O 102.661 -1.72436 1.84451 0
M  V30 1030 C 103.974 1.40789 2.65705 0
M  V30 1031 C 105.522 1.40708 2.79589 0
M  V30 1032 C 105.997 2.26878 3.97857 0
M  V30 1033 N 107.488 2.24609 4.05099 0
M  V30 1034 C 108.223 2.88019 4.95815 0
M  V30 1035 N 107.719 3.60496 5.9162 0
M  V30 1036 N 109.512 2.77469 4.88843 0
M  V30 1037 H 101.663 1.79557 1.1346 0
M  V30 1038 H 103.926 0.766267 0.558156 0
M  V30 1039 H 103.632 2.454 2.51936 0
M  V30 1040 H 103.506 1.08677 3.61205 0
M  V30 1041 H 105.893 0.368668 2.92788 0
M  V30 1042 H 105.974 1.76829 1.84838 0
M  V30 1043 H 105.618 3.3078 3.85418 0
M  V30 1044 H 105.548 1.88096 4.91861 0
M  V30 1045 H 108.039 1.71906 3.36536 0
M  V30 1046 H 108.352 4.06076 6.57512 0
M  V30 1047 H 106.697 3.64604 5.91683 0
M  V30 1048 H 109.888 2.20406 4.12963 0
M  V30 1049 H 110.061 3.2717 5.59342 0
M  V30 1050 N 103.467 -1.45747 0.599634 0
M  V30 1051 C 104.883 -1.57424 0.26264 0
M  V30 1052 C 105.083 -1.59222 -1.23493 0
M  V30 1053 O 104.139 -1.51825 -2.01756 0
M  V30 1054 C 105.452 -2.86061 0.926795 0
M  V30 1055 C 107 -2.99722 0.901967 0
M  V30 1056 C 107.475 -4.31119 1.54598 0
M  V30 1057 N 108.966 -4.37858 1.5111 0
M  V30 1058 C 109.701 -5.3818 1.97863 0
M  V30 1059 N 109.197 -6.45083 2.52666 0
M  V30 1060 N 110.99 -5.29487 1.88679 0
M  V30 1061 H 103.141 -1.42823 1.57211 0
M  V30 1062 H 105.404 -0.68235 0.658105 0
M  V30 1063 H 105.11 -2.90605 1.98095 0
M  V30 1064 H 104.984 -3.74563 0.445238 0
M  V30 1065 H 107.371 -2.9475 -0.143617 0
M  V30 1066 H 107.452 -2.12652 1.42171 0
M  V30 1067 H 107.096 -4.36849 2.59085 0
M  V30 1068 H 107.026 -5.16992 1.00132 0
M  V30 1069 H 109.517 -3.61209 1.11068 0
M  V30 1070 H 109.83 -7.17869 2.86155 0
M  V30 1071 H 108.175 -6.45856 2.56701 0
M  V30 1072 H 111.366 -4.44877 1.4561 0
M  V30 1073 H 111.539 -6.07524 2.25429 0
M  V30 1074 N 104.945 -0.338344 -1.53925 0
M  V30 1075 C 105.908 0.508299 -2.23493 0
M  V30 1076 C 106.908 1.03175 -1.23335 0
M  V30 1077 O 108.098 0.921826 -1.47811 0
M  V30 1078 C 105.23 1.70754 -2.95052 0
M  V30 1079 H 106.423 -0.100058 -2.99733 0
M  V30 1080 H 103.976 -0.0896198 -1.56043 0
M  V30 1081 H 104.711 2.35474 -2.22986 0
M  V30 1082 H 104.496 1.33946 -3.68512 0
M  V30 1083 H 105.986 2.30818 -3.48013 0
M  V30 1084 N 106.423 1.57458 -0.0668435 0
M  V30 1085 C 107.353 2.15468 0.899764 0
M  V30 1086 C 108.334 1.08042 1.31381 0
M  V30 1087 O 109.519 1.36054 1.38574 0
M  V30 1088 C 106.649 2.71232 2.16911 0
M  V30 1089 C 105.603 3.83781 1.89463 0
M  V30 1090 C 104.929 4.26127 3.22986 0
M  V30 1091 C 106.229 5.08238 1.20381 0
M  V30 1092 H 107.923 2.96488 0.416529 0
M  V30 1093 H 105.469 1.4262 0.198908 0
M  V30 1094 H 107.422 3.10458 2.84945 0
M  V30 1095 H 106.146 1.87426 2.67468 0
M  V30 1096 H 104.805 3.45051 1.23836 0
M  V30 1097 H 104.453 3.39249 3.71374 0
M  V30 1098 H 104.153 5.01993 3.05413 0
M  V30 1099 H 105.677 4.67966 3.92225 0
M  V30 1100 H 107.091 5.44811 1.78475 0
M  V30 1101 H 105.488 5.89349 1.13083 0
M  V30 1102 H 106.558 4.84558 0.182153 0
M  V30 1103 N 107.901 -0.206675 1.56239 0
M  V30 1104 C 109.126 -0.949474 1.8439 0
M  V30 1105 C 109.551 -1.76549 0.649016 0
M  V30 1106 O 108.909 -1.76782 -0.402231 0
M  V30 1107 C 108.957 -1.83078 3.10668 0
M  V30 1108 O 108.061 -2.9281 2.90407 0
M  V30 1109 H 107.402 -0.268033 0.607499 0
M  V30 1110 H 109.932 -0.215488 2.03462 0
M  V30 1111 H 109.942 -2.2377 3.41161 0
M  V30 1112 H 108.617 -1.23112 3.97261 0
M  V30 1113 H 107.194 -2.55956 2.71184 0
M  V30 1114 N 109.379 -1.50304 -0.473955 0
M  V30 1115 C 110.327 -1.69482 -1.59307 0
M  V30 1116 C 111.321 -0.560669 -1.59853 0
M  V30 1117 O 112.527 -0.741087 -1.64036 0
M  V30 1118 H 108.902 -0.534892 -0.528578 0
M  V30 1119 H 110.873 -2.63364 -1.40293 0
M  V30 1120 C 109.622 -1.80354 -2.97267 0
M  V30 1121 H 108.945 -2.67012 -2.97564 0
M  V30 1122 H 110.385 -1.97798 -3.75036 0
M  V30 1123 C 108.844 -0.55448 -3.32306 0
M  V30 1124 O 109.374 0.307661 -4.0052 0
M  V30 1125 N 107.58 -0.409354 -2.87702 0
M  V30 1126 H 107.127 -1.11196 -2.32364 0
M  V30 1127 H 107.085 0.425223 -3.11511 0
M  V30 1128 N 110.857 0.726932 -1.39834 0
M  V30 1129 C 111.82 1.82269 -1.38962 0
M  V30 1130 C 112.82 1.58248 -0.285334 0
M  V30 1131 O 114.01 1.65499 -0.54366 0
M  V30 1132 C 111.142 3.20186 -1.17019 0
M  V30 1133 H 112.335 1.84443 -2.36476 0
M  V30 1134 H 109.888 0.931416 -1.25516 0
M  V30 1135 H 110.623 3.23669 -0.202204 0
M  V30 1136 H 110.408 3.3902 -1.96998 0
M  V30 1137 H 111.898 4.00235 -1.1917 0
M  V30 1138 N 112.336 1.25143 0.95797 0
M  V30 1139 C 113.584 1.09476 1.69881 0
M  V30 1140 C 113.905 -0.365502 1.91544 0
M  V30 1141 O 113.175 -1.25985 1.50015 0
M  V30 1142 H 111.755 0.402128 0.629525 0
M  V30 1143 H 114.417 1.57214 1.15194 0
M  V30 1144 H 113.513 1.60046 2.6794 0
M  V30 1145 N 113.814 -1.1601 1.06675 0
M  V30 1146 C 114.744 -2.22688 0.702307 0
M  V30 1147 C 115.725 -1.67306 -0.307032 0
M  V30 1148 O 116.91 -1.93352 -0.181305 0
M  V30 1149 C 114.04 -3.47178 0.092038 0
M  V30 1150 C 112.994 -4.15477 1.02777 0
M  V30 1151 C 112.32 -5.33963 0.28061 0
M  V30 1152 C 113.62 -4.66019 2.35846 0
M  V30 1153 H 115.314 -2.53429 1.59419 0
M  V30 1154 H 112.86 -1.21813 0.767961 0
M  V30 1155 H 114.813 -4.21037 -0.174814 0
M  V30 1156 H 113.537 -3.15749 -0.834877 0
M  V30 1157 H 112.196 -3.43549 1.27944 0
M  V30 1158 H 111.844 -4.98788 -0.649545 0
M  V30 1159 H 111.544 -5.806 0.904258 0
M  V30 1160 H 113.068 -6.10596 0.021396 0
M  V30 1161 H 114.482 -5.3144 2.15045 0
M  V30 1162 H 112.879 -5.23293 2.93743 0
M  V30 1163 H 113.949 -3.82023 2.98641 0
M  V30 1164 N 115.292 -0.849877 -1.32721 0
M  V30 1165 C 116.517 -0.463856 -2.02146 0
M  V30 1166 C 116.942 0.930449 -1.63476 0
M  V30 1167 O 116.3 1.61033 -0.832952 0
M  V30 1168 C 116.348 -0.604955 -3.55489 0
M  V30 1169 O 115.452 0.36425 -4.10788 0
M  V30 1170 H 114.793 -0.187046 -0.637111 0
M  V30 1171 H 117.323 -1.14775 -1.69375 0
M  V30 1172 H 117.333 -0.490696 -4.05038 0
M  V30 1173 H 116.008 -1.62174 -3.82978 0
M  V30 1174 H 114.585 0.206628 -3.72327 0
M  V30 1175 N 116.77 1.45427 -0.607355 0
M  V30 1176 C 117.733 2.28974 0.101693 0
M  V30 1177 C 118.733 1.39754 0.795329 0
M  V30 1178 O 119.923 1.61878 0.643527 0
M  V30 1179 C 117.055 3.20768 1.15414 0
M  V30 1180 H 118.248 2.93147 -0.632844 0
M  V30 1181 H 115.801 1.51945 -0.366391 0
M  V30 1182 H 116.536 2.61395 1.91945 0
M  V30 1183 H 116.321 3.86489 0.66098 0
M  V30 1184 H 117.811 3.83589 1.65073 0
M  V30 1185 N 118.248 0.346503 1.53744 0
M  V30 1186 C 119.211 -0.496439 2.23759 0
M  V30 1187 C 120.211 -1.0252 1.2388 0
M  V30 1188 O 121.401 -0.913974 1.48297 0
M  V30 1189 C 118.533 -1.69187 2.95954 0
M  V30 1190 H 119.726 0.115952 2.99676 0
M  V30 1191 H 117.279 0.0978939 1.55993 0
M  V30 1192 H 118.014 -2.34288 2.24231 0
M  V30 1193 H 117.799 -1.31989 3.69217 0
M  V30 1194 H 119.289 -2.28969 3.49232 0
M  V30 1195 N 119.726 -1.57421 0.075193 0
M  V30 1196 C 121.003 -1.85029 -0.634329 0
M  V30 1197 C 121.383 -0.968305 -1.87582 0
M  V30 1198 O 120.731 -0.0354749 -2.28472 0
M  V30 1199 C 120.941 -3.35286 -0.968742 0
M  V30 1200 C 122.289 -4.02875 -1.34077 0
M  V30 1201 O 123.313 -3.40051 -1.06037 0
M  V30 1202 O 122.172 -5.13691 -1.86506 0
M  V30 1203 H 119.266 -0.7645 -0.315387 0
M  V30 1204 H 121.812 -1.69366 0.106382 0
M  V30 1205 H 120.584 -3.91203 -0.0871376 0
M  V30 1206 H 120.207 -3.56223 -1.7661 0
M  V30 1207 N 121.204 0.198386 -1.56346 0
M  V30 1208 C 122.453 0.917451 -1.79627 0
M  V30 1209 C 122.766 1.8456 -0.64784 0
M  V30 1210 O 123.972 2.60504 -0.764859 0
M  V30 1211 C 122.428 1.68175 -3.18191 0
M  V30 1212 C 122.036 0.798589 -4.40825 0
M  V30 1213 C 123.78 2.39065 -3.50782 0
M  V30 1214 C 121.687 1.56157 -5.70411 0
M  V30 1215 H 120.617 0.346317 -0.669762 0
M  V30 1216 H 123.268 0.170801 -1.82703 0
M  V30 1217 H 121.65 2.47216 -3.09354 0
M  V30 1218 H 122.824 0.0470665 -4.60776 0
M  V30 1219 H 121.139 0.200686 -4.15916 0
M  V30 1220 H 123.736 2.96692 -4.44835 0
M  V30 1221 H 124.079 3.13091 -2.74371 0
M  V30 1222 H 124.612 1.66993 -3.61052 0
M  V30 1223 H 121.351 0.864142 -6.49779 0
M  V30 1224 H 120.871 2.2871 -5.54483 0
M  V30 1225 H 122.55 2.11622 -6.11412 0
M  V30 1226 N 122.682 1.50554 0.465978 0
M  V30 1227 C 123.959 1.5232 1.22712 0
M  V30 1228 C 124.339 0.270807 2.09356 0
M  V30 1229 O 123.687 -0.745541 2.15995 0
M  V30 1230 C 123.897 2.82175 2.05374 0
M  V30 1231 C 125.245 3.33033 2.6339 0
M  V30 1232 O 126.269 2.83531 2.15612 0
M  V30 1233 O 125.128 4.19336 3.50456 0
M  V30 1234 H 122.222 0.611183 0.557122 0
M  V30 1235 H 124.768 1.62847 0.477381 0
M  V30 1236 H 123.54 3.64797 1.41558 0
M  V30 1237 H 123.163 2.74675 2.87471 0
M  V30 1238 N 124.16 -0.719506 1.40217 0
M  V30 1239 C 125.408 -1.47641 1.3801 0
M  V30 1240 C 125.729 -1.94992 -0.018145 0
M  V30 1241 O 124.999 -1.70073 -0.972207 0
M  V30 1242 H 123.579 -0.547744 0.507923 0
M  V30 1243 H 126.241 -0.853187 1.75233 0
M  V30 1244 H 125.337 -2.35112 2.05253 0
M  V30 1245 N 125.638 -1.25649 -0.95132 0
M  V30 1246 C 126.884 -1.10757 -1.69884 0
M  V30 1247 C 127.217 0.350061 -1.91019 0
M  V30 1248 O 126.492 1.25783 -1.48354 0
M  V30 1249 C 126.775 -1.86606 -3.07978 0
M  V30 1250 C 126.628 -3.40217 -2.94232 0
M  V30 1251 C 127.947 -1.65182 -4.07925 0
M  V30 1252 H 125.066 -0.40374 -0.616574 0
M  V30 1253 H 127.708 -1.54521 -1.10558 0
M  V30 1254 H 125.858 -1.49409 -3.58621 0
M  V30 1255 H 127.53 -3.87108 -2.50889 0
M  V30 1256 H 125.773 -3.67759 -2.30078 0
M  V30 1257 H 126.444 -3.88505 -3.92133 0
M  V30 1258 H 128.92 -1.9757 -3.66204 0
M  V30 1259 H 127.796 -2.20683 -5.02583 0
M  V30 1260 H 128.057 -0.593933 -4.38092 0
M  V30 1261 N 127.117 1.15442 -1.07289 0
M  V30 1262 C 128.366 1.85557 -0.790669 0
M  V30 1263 C 128.679 1.83186 0.685739 0
M  V30 1264 O 129.885 2.48977 1.0827 0
M  V30 1265 C 128.341 3.33038 -1.36433 0
M  V30 1266 C 127.949 3.43856 -2.8717 0
M  V30 1267 C 129.693 4.0834 -1.1601 0
M  V30 1268 C 127.6 4.85482 -3.3773 0
M  V30 1269 H 126.53 0.695122 -0.292098 0
M  V30 1270 H 129.181 1.30219 -1.29287 0
M  V30 1271 H 127.563 3.88043 -0.789864 0
M  V30 1272 H 128.737 2.98961 -3.50655 0
M  V30 1273 H 127.052 2.81998 -3.06376 0
M  V30 1274 H 129.649 5.12859 -1.51262 0
M  V30 1275 H 129.992 4.16182 -0.0991007 0
M  V30 1276 H 130.525 3.59603 -1.70089 0
M  V30 1277 H 127.264 4.82823 -4.43353 0
M  V30 1278 H 126.784 5.30961 -2.78999 0
M  V30 1279 H 128.463 5.54335 -3.33648 0
M  V30 1280 N 128.595 0.856903 1.32268 0
M  V30 1281 C 129.841 0.462069 1.97466 0
M  V30 1282 C 130.174 -0.980298 1.67642 0
M  V30 1283 O 129.449 -1.68824 0.965858 0
M  V30 1284 C 129.732 0.704336 3.53145 0
M  V30 1285 C 129.585 2.19529 3.9259 0
M  V30 1286 C 130.904 0.1622 4.39801 0
M  V30 1287 H 128.023 0.169357 0.717278 0
M  V30 1288 H 130.665 1.07574 1.56614 0
M  V30 1289 H 128.815 0.181999 3.88073 0
M  V30 1290 H 130.487 2.78387 3.67829 0
M  V30 1291 H 128.73 2.67292 3.41668 0
M  V30 1292 H 129.401 2.31549 5.01088 0
M  V30 1293 H 131.877 0.608905 4.11621 0
M  V30 1294 H 130.753 0.361265 5.4771 0
M  V30 1295 H 131.014 -0.935158 4.32096 0
M  V30 1296 N 130.073 -1.45103 0.615059 0
M  V30 1297 C 131.301 -2.06553 0.11977 0
M  V30 1298 C 131.716 -1.45842 -1.19898 0
M  V30 1299 O 131.073 -0.575325 -1.73194 0
M  V30 1300 C 131.124 -3.61495 -0.018364 0
M  V30 1301 O 130.845 -4.19942 1.24822 0
M  V30 1302 C 132.346 -4.39947 -0.544237 0
M  V30 1303 H 129.566 -0.667096 0.0722739 0
M  V30 1304 H 132.11 -1.8623 0.84491 0
M  V30 1305 H 130.265 -3.81135 -0.693865 0
M  V30 1306 H 130.679 -5.13204 1.0827 0
M  V30 1307 H 132.153 -5.48838 -0.589953 0
M  V30 1308 H 132.63 -4.10255 -1.56805 0
M  V30 1309 H 133.236 -4.25188 0.0974703 0
M  V30 1310 N 131.551 -0.354651 -1.53558 0
M  V30 1311 C 132.779 0.239515 -2.05509 0
M  V30 1312 C 133.194 1.4333 -1.2289 0
M  V30 1313 O 132.551 1.80538 -0.266899 0
M  V30 1314 C 132.602 0.643719 -3.55723 0
M  V30 1315 O 132.323 -0.502602 -4.35207 0
M  V30 1316 C 133.824 1.29743 -4.23889 0
M  V30 1317 H 131.044 0.0442697 -0.669538 0
M  V30 1318 H 133.588 -0.509856 -1.98042 0
M  V30 1319 H 131.743 1.34302 -3.63376 0
M  V30 1320 H 132.157 -0.178172 -5.24197 0
M  V30 1321 H 133.631 1.53091 -5.30346 0
M  V30 1322 H 134.108 2.25441 -3.76926 0
M  V30 1323 H 134.714 0.639865 -4.20459 0
M  V30 1324 N 133.029 1.57378 -0.0835403 0
M  V30 1325 C 133.977 2.14602 0.89714 0
M  V30 1326 C 134.971 1.08589 1.30018 0
M  V30 1327 O 136.177 1.26952 1.27606 0
M  V30 1328 H 132.552 0.686346 0.3073 0
M  V30 1329 H 134.523 2.95845 0.38969 0
M  V30 1330 C 133.272 2.73188 2.15089 0
M  V30 1331 H 132.595 3.54442 1.84962 0
M  V30 1332 H 134.035 3.1681 2.81793 0
M  V30 1333 C 132.494 1.68517 2.91725 0
M  V30 1334 O 133.024 1.11718 3.85852 0
M  V30 1335 N 131.23 1.39277 2.55049 0
M  V30 1336 H 130.777 1.85655 1.78577 0
M  V30 1337 H 130.735 0.694791 3.06627 0
M  V30 1338 N 134.507 -0.190092 1.56449 0
M  V30 1339 C 135.735 -0.925772 1.85033 0
M  V30 1340 C 136.15 -1.76638 0.666658 0
M  V30 1341 O 135.507 -1.78822 -0.364565 0
M  V30 1342 C 135.558 -1.81786 3.12468 0
M  V30 1343 O 135.279 -1.01118 4.26271 0
M  V30 1344 C 136.78 -2.6648 3.54265 0
M  V30 1345 H 134 -0.269872 0.614337 0
M  V30 1346 H 136.544 -0.195837 2.0356 0
M  V30 1347 H 134.699 -2.50136 2.95822 0
M  V30 1348 H 135.113 -1.61956 4.98869 0
M  V30 1349 H 136.587 -3.24722 4.46385 0
M  V30 1350 H 137.064 -3.40434 2.77491 0
M  V30 1351 H 137.67 -2.03493 3.73458 0
M  V30 1352 N 135.985 -1.50799 -0.457987 0
M  V30 1353 C 136.935 -1.67003 -1.55222 0
M  V30 1354 C 137.919 -0.52434 -1.52117 0
M  V30 1355 O 139.111 -0.779345 -1.58919 0
M  V30 1356 C 136.24 -1.77956 -2.93576 0
M  V30 1357 C 135.326 -2.98243 -3.01516 0
M  V30 1358 N 135.717 -4.21732 -2.79241 0
M  V30 1359 C 134.015 -2.97072 -3.32662 0
M  V30 1360 C 134.716 -5.02817 -2.92489 0
M  V30 1361 N 133.692 -4.37038 -3.23262 0
M  V30 1362 H 137.494 -2.60163 -1.36721 0
M  V30 1363 H 135.008 -1.48163 -0.664952 0
M  V30 1364 H 137.005 -1.87671 -3.72271 0
M  V30 1365 H 135.665 -0.859634 -3.13114 0
M  V30 1366 H 136.676 -4.51016 -2.54567 0
M  V30 1367 H 133.353 -2.14631 -3.58106 0
M  V30 1368 H 134.743 -6.11054 -2.79396 0
M  V30 1369 N 137.463 0.71206 -1.40597 0
M  V30 1370 C 138.71 1.47197 -1.39065 0
M  V30 1371 C 139.038 1.94499 0.00583891 0
M  V30 1372 O 138.293 1.68752 0.99102 0
M  V30 1373 C 138.592 2.71039 -2.32965 0
M  V30 1374 C 138.258 2.42484 -3.80148 0
M  V30 1375 C 136.92 2.34406 -4.20247 0
M  V30 1376 C 139.272 2.18598 -4.73143 0
M  V30 1377 C 136.6 2.00516 -5.51371 0
M  V30 1378 C 138.952 1.8622 -6.0457 0
M  V30 1379 C 137.616 1.76626 -6.43708 0
M  V30 1380 H 136.886 0.538634 -0.508876 0
M  V30 1381 H 139.533 0.815325 -1.73276 0
M  V30 1382 H 137.838 3.41558 -1.91951 0
M  V30 1383 H 139.535 3.29138 -2.29061 0
M  V30 1384 H 136.125 2.49659 -3.4838 0
M  V30 1385 H 140.309 2.23793 -4.42979 0
M  V30 1386 H 135.565 1.91628 -5.80593 0
M  V30 1387 H 139.739 1.66752 -6.76141 0
M  V30 1388 H 137.366 1.50133 -7.45228 0
M  V30 1389 N 138.941 1.26152 0.944643 0
M  V30 1390 C 139.871 1.09902 2.06019 0
M  V30 1391 C 140.852 0.00519538 1.70099 0
M  V30 1392 O 142.037 0.176583 1.93396 0
M  V30 1393 C 139.167 0.727562 3.39594 0
M  V30 1394 C 138.121 1.77274 3.89561 0
M  V30 1395 C 137.447 1.25569 5.19747 0
M  V30 1396 C 138.747 3.17357 4.14827 0
M  V30 1397 H 140.441 2.03217 2.19871 0
M  V30 1398 H 137.987 0.978452 1.05652 0
M  V30 1399 H 139.94 0.600777 4.17095 0
M  V30 1400 H 138.664 -0.241287 3.25707 0
M  V30 1401 H 137.323 1.88814 3.14237 0
M  V30 1402 H 136.971 0.276783 5.02238 0
M  V30 1403 H 136.671 1.95433 5.54148 0
M  V30 1404 H 138.195 1.1415 5.99835 0
M  V30 1405 H 139.609 3.08914 4.82954 0
M  V30 1406 H 138.006 3.84781 4.60504 0
M  V30 1407 H 139.076 3.63673 3.20734 0
M  V30 1408 N 140.419 -1.14872 1.07899 0
M  V30 1409 C 141.351 -2.19425 0.662231 0
M  V30 1410 C 142.364 -1.60231 -0.288079 0
M  V30 1411 O 143.553 -1.78336 -0.076534 0
M  V30 1412 C 140.653 -3.38867 -0.0470695 0
M  V30 1413 C 139.826 -4.27597 0.920831 0
M  V30 1414 C 138.885 -5.25616 0.247805 0
M  V30 1415 O 137.911 -5.62189 0.890599 0
M  V30 1416 N 139.113 -5.71746 -1.00435 0
M  V30 1417 H 141.878 -2.55797 1.56166 0
M  V30 1418 H 139.439 -1.30042 0.964404 0
M  V30 1419 H 141.431 -4.01497 -0.50813 0
M  V30 1420 H 140.001 -3.00864 -0.848523 0
M  V30 1421 H 139.221 -3.61982 1.56087 0
M  V30 1422 H 140.509 -4.83748 1.57688 0
M  V30 1423 H 139.907 -5.44153 -1.54642 0
M  V30 1424 H 138.464 -6.36389 -1.40899 0
M  V30 1425 N 141.898 -0.863906 -1.31812 0
M  V30 1426 C 143.126 -0.486111 -2.01108 0
M  V30 1427 C 143.541 0.919755 -1.64882 0
M  V30 1428 O 142.898 1.60162 -0.874893 0
M  V30 1429 C 142.949 -0.626435 -3.56031 0
M  V30 1430 O 142.67 -1.97693 -3.90959 0
M  V30 1431 C 144.171 -0.248857 -4.42601 0
M  V30 1432 H 141.391 -0.190052 -0.643523 0
M  V30 1433 H 143.935 -1.1634 -1.68182 0
M  V30 1434 H 142.09 0.00322717 -3.874 0
M  V30 1435 H 142.504 -1.98034 -4.85678 0
M  V30 1436 H 143.978 -0.398016 -5.50563 0
M  V30 1437 H 144.455 0.811489 -4.31638 0
M  V30 1438 H 145.061 -0.853971 -4.16638 0
M  V30 1439 N 143.376 1.44774 -0.622745 0
M  V30 1440 C 144.787 1.85546 -0.207226 0
M  V30 1441 C 145.138 1.52093 1.23944 0
M  V30 1442 O 144.263 0.95492 1.94191 0
M  V30 1443 C 144.858 3.36781 -0.369313 0
M  V30 1444 C 143.417 3.76399 -0.00836847 0
M  V30 1445 C 142.564 2.68664 -0.686651 0
M  V30 1446 H 145.515 1.3536 -0.828454 0
M  V30 1447 H 145.536 3.78453 0.394162 0
M  V30 1448 H 145.048 3.61098 -1.42231 0
M  V30 1449 H 143.149 3.57698 1.04322 0
M  V30 1450 H 143.262 4.7732 -0.412584 0
M  V30 1451 H 141.626 2.54404 -0.122777 0
M  V30 1452 H 142.409 2.95815 -1.74208 0
M  V30 1453 N 144.854 0.36279 1.53368 0
M  V30 1454 C 146.265 -0.117022 1.86333 0
M  V30 1455 C 146.616 -1.48397 1.28347 0
M  V30 1456 O 145.741 -2.07787 0.604428 0
M  V30 1457 C 146.336 -0.21912 3.38091 0
M  V30 1458 C 144.895 -0.643184 3.70864 0
M  V30 1459 C 144.042 0.211318 2.76494 0
M  V30 1460 H 146.993 0.581687 1.47655 0
M  V30 1461 H 147.014 -1.04319 3.6592 0
M  V30 1462 H 146.526 0.775902 3.80265 0
M  V30 1463 H 144.627 -1.64654 3.34245 0
M  V30 1464 H 144.74 -0.41973 4.77258 0
M  V30 1465 H 143.104 -0.319367 2.5269 0
M  V30 1466 H 143.887 1.20383 3.21501 0
M  V30 1467 N 146.332 -1.57332 0.0918853 0
M  V30 1468 C 147.295 -2.12708 -0.85369 0
M  V30 1469 C 148.295 -1.05561 -1.213 0
M  V30 1470 O 149.485 -1.31461 -1.14296 0
M  V30 1471 C 146.617 -2.64503 -2.15061 0
M  V30 1472 H 147.81 -2.97573 -0.3729 0
M  V30 1473 H 145.363 -1.55509 -0.157072 0
M  V30 1474 H 146.098 -1.83149 -2.67632 0
M  V30 1475 H 145.883 -3.4284 -1.90272 0
M  V30 1476 H 147.373 -3.07351 -2.82711 0
M  V30 1477 N 147.81 0.181792 -1.56548 0
M  V30 1478 C 148.773 1.20894 -1.94724 0
M  V30 1479 C 149.773 1.37738 -0.829747 0
M  V30 1480 O 150.963 1.35323 -1.09697 0
M  V30 1481 C 148.095 2.57593 -2.23291 0
M  V30 1482 H 149.288 0.882275 -2.86629 0
M  V30 1483 H 146.841 0.423838 -1.50444 0
M  V30 1484 H 147.576 2.95291 -1.34067 0
M  V30 1485 H 147.361 2.46735 -3.04736 0
M  V30 1486 H 148.851 3.31637 -2.53785 0
M  V30 1487 N 149.288 1.51039 0.449983 0
M  V30 1488 C 150.699 1.557 1.03026 0
M  V30 1489 C 151.05 0.372939 1.92623 0
M  V30 1490 O 150.175 -0.511771 2.10261 0
M  V30 1491 C 150.77 2.82171 1.87523 0
M  V30 1492 C 149.329 2.89444 2.40622 0
M  V30 1493 C 148.476 2.50228 1.19504 0
M  V30 1494 H 151.427 1.56999 0.231745 0
M  V30 1495 H 151.448 2.65219 2.72835 0
M  V30 1496 H 150.96 3.68331 1.22286 0
M  V30 1497 H 149.061 2.07685 3.0935 0
M  V30 1498 H 149.174 3.92816 2.74285 0
M  V30 1499 H 147.538 2.03139 1.53644 0
M  V30 1500 H 148.321 3.38719 0.558972 0
M  V30 1501 N 150.766 -0.704594 1.40972 0
M  V30 1502 C 151.699 -1.82861 1.36518 0
M  V30 1503 C 152.677 -1.6091 0.23382 0
M  V30 1504 O 153.861 -1.83778 0.419271 0
M  V30 1505 C 150.988 -3.1939 1.12729 0
M  V30 1506 C 150.034 -3.60148 2.28463 0
M  V30 1507 S 150.867 -3.65994 3.90907 0
M  V30 1508 C 152.023 -5.05264 3.69403 0
M  V30 1509 H 152.256 -1.86361 2.3164 0
M  V30 1510 H 149.789 -0.872439 1.27389 0
M  V30 1511 H 151.747 -3.98211 0.996893 0
M  V30 1512 H 150.408 -3.1351 0.192427 0
M  V30 1513 H 149.601 -4.59309 2.07489 0
M  V30 1514 H 149.203 -2.88612 2.37863 0
M  V30 1515 H 151.495 -5.92504 3.28551 0
M  V30 1516 H 152.438 -5.31278 4.68134 0
M  V30 1517 H 152.846 -4.76377 3.02862 0
M  V30 1518 N 152.244 -1.26651 -0.937939 0
M  V30 1519 C 153.49 -1.12553 -1.687 0
M  V30 1520 C 153.823 0.329782 -1.91379 0
M  V30 1521 O 153.098 1.24202 -1.4968 0
M  V30 1522 C 153.381 -1.89862 -3.05981 0
M  V30 1523 C 153.234 -3.43318 -2.90607 0
M  V30 1524 C 154.553 -1.69499 -4.0615 0
M  V30 1525 H 151.672 -0.410257 -0.612257 0
M  V30 1526 H 154.314 -1.55685 -1.08913 0
M  V30 1527 H 152.464 -1.53204 -3.57017 0
M  V30 1528 H 154.136 -3.89747 -2.46769 0
M  V30 1529 H 152.379 -3.70179 -2.26164 0
M  V30 1530 H 153.05 -3.92642 -3.8799 0
M  V30 1531 H 155.526 -2.01442 -3.64088 0
M  V30 1532 H 154.402 -2.26002 -5.00214 0
M  V30 1533 H 154.663 -0.640365 -4.37438 0
M  V30 1534 N 153.722 1.14298 -1.08507 0
M  V30 1535 C 154.685 2.17607 -0.719711 0
M  V30 1536 C 155.685 1.58907 0.245997 0
M  V30 1537 O 156.875 1.74181 0.0254081 0
M  V30 1538 C 154.007 3.40842 -0.0627695 0
M  V30 1539 H 155.2 2.51443 -1.63452 0
M  V30 1540 H 152.753 1.28963 -0.88307 0
M  V30 1541 H 153.488 3.12587 0.863716 0
M  V30 1542 H 153.273 3.84713 -0.757504 0
M  V30 1543 H 154.763 4.17221 0.177786 0
M  V30 1544 N 155.201 0.870884 1.31352 0
M  V30 1545 C 156.164 0.332243 2.26779 0
M  V30 1546 C 157.164 -0.517302 1.52252 0
M  V30 1547 O 158.354 -0.326477 1.71113 0
M  V30 1548 C 155.486 -0.528066 3.36785 0
M  V30 1549 H 156.679 1.17469 2.75937 0
M  V30 1550 H 154.232 0.64655 1.423 0
M  V30 1551 H 154.967 -1.39167 2.92922 0
M  V30 1552 H 154.752 0.0802582 3.92018 0
M  V30 1553 H 156.242 -0.897179 4.07849 0
M  V30 1554 N 156.679 -1.44442 0.630414 0
M  V30 1555 C 157.904 -2.06927 0.139944 0
M  V30 1556 C 158.329 -1.46795 -1.17613 0
M  V30 1557 O 157.687 -0.569144 -1.72135 0
M  V30 1558 C 157.735 -3.6058 0.0379581 0
M  V30 1559 O 156.839 -3.99937 -1.0062 0
M  V30 1560 H 156.18 -0.658608 0.0844483 0
M  V30 1561 H 158.71 -1.85327 0.866891 0
M  V30 1562 H 158.72 -4.07714 -0.152856 0
M  V30 1563 H 157.395 -4.03728 0.998809 0
M  V30 1564 H 155.972 -3.64436 -0.79001 0
M  V30 1565 N 158.157 -0.370918 -1.53173 0
M  V30 1566 C 159.087 0.464847 -2.28826 0
M  V30 1567 C 160.068 1.07936 -1.31468 0
M  V30 1568 O 161.253 1.0956 -1.60344 0
M  V30 1569 C 158.383 1.60196 -3.08147 0
M  V30 1570 C 157.337 1.11443 -4.13237 0
M  V30 1571 C 156.663 2.3422 -4.80672 0
M  V30 1572 C 157.963 0.195384 -5.21934 0
M  V30 1573 H 159.657 -0.166329 -2.98938 0
M  V30 1574 H 157.203 -0.0814359 -1.4377 0
M  V30 1575 H 159.156 2.19332 -3.59822 0
M  V30 1576 H 157.88 2.26045 -2.35735 0
M  V30 1577 H 156.539 0.545727 -3.62515 0
M  V30 1578 H 156.187 2.98537 -4.04827 0
M  V30 1579 H 155.887 2.02269 -5.51689 0
M  V30 1580 H 157.411 2.94032 -5.35143 0
M  V30 1581 H 158.825 0.694375 -5.69079 0
M  V30 1582 H 157.222 -0.0335027 -6.00091 0
M  V30 1583 H 158.292 -0.760961 -4.78892 0
M  V30 1584 N 159.635 1.57281 -0.100228 0
M  V30 1585 C 160.883 1.94153 0.561157 0
M  V30 1586 C 161.204 0.983157 1.68401 0
M  V30 1587 O 160.474 0.0361132 1.95867 0
M  V30 1588 H 159.054 0.716791 0.210283 0
M  V30 1589 H 161.716 1.94202 -0.164765 0
M  V30 1590 H 160.812 2.96709 0.968008 0
M  V30 1591 N 161.113 -0.173488 1.56642 0
M  V30 1592 C 162.076 -1.19859 1.95362 0
M  V30 1593 C 163.076 -1.37296 0.83704 0
M  V30 1594 O 164.266 -1.34739 1.10413 0
M  V30 1595 C 161.398 -2.56405 2.24654 0
M  V30 1596 H 162.591 -0.867062 2.87092 0
M  V30 1597 H 160.144 -0.415853 1.50666 0
M  V30 1598 H 160.879 -2.94576 1.35631 0
M  V30 1599 H 160.664 -2.45115 3.06041 0
M  V30 1600 H 162.154 -3.30287 2.5554 0
M  V30 1601 N 162.591 -1.51276 -0.441967 0
M  V30 1602 C 163.538 -1.72256 -1.53612 0
M  V30 1603 C 164.508 -0.564164 -1.56225 0
M  V30 1604 O 165.693 -0.798074 -1.73307 0
M  V30 1605 C 162.833 -1.84932 -2.91366 0
M  V30 1606 C 161.946 -3.12459 -2.98317 0
M  V30 1607 C 161.081 -3.15758 -4.27166 0
M  V30 1608 C 160.12 -4.37619 -4.27967 0
M  V30 1609 N 159.257 -4.38493 -5.48333 0
M  V30 1610 H 164.097 -2.65654 -1.35026 0
M  V30 1611 H 161.634 -1.31662 -0.656009 0
M  V30 1612 H 163.592 -1.90263 -3.7129 0
M  V30 1613 H 162.222 -0.949461 -3.08521 0
M  V30 1614 H 161.274 -3.1646 -2.11086 0
M  V30 1615 H 162.586 -4.02382 -2.94771 0
M  V30 1616 H 161.74 -3.19979 -5.15459 0
M  V30 1617 H 160.479 -2.23715 -4.33362 0
M  V30 1618 H 159.484 -4.33579 -3.38067 0
M  V30 1619 H 160.709 -5.30921 -4.23438 0
M  V30 1620 H 158.655 -3.49318 -5.55259 0
M  V30 1621 H 158.572 -5.22219 -5.46647 0
M  V30 1622 H 159.84 -4.469 -6.38671 0
M  V30 1623 N 164.069 0.697108 -1.41344 0
M  V30 1624 C 165.317 1.45426 -1.40341 0
M  V30 1625 C 165.638 1.94996 -0.0128787 0
M  V30 1626 O 164.908 1.71599 0.945027 0
M  V30 1627 H 163.488 0.539594 -0.516573 0
M  V30 1628 H 166.15 0.825201 -1.76569 0
M  V30 1629 H 165.246 2.31817 -2.08967 0
M  V30 1630 N 165.547 1.27147 0.931209 0
M  V30 1631 C 166.796 1.12664 1.67302 0
M  V30 1632 C 167.109 -0.327718 1.92835 0
M  V30 1633 O 168.315 -0.593392 2.64936 0
M  V30 1634 C 166.771 1.9683 3.01307 0
M  V30 1635 C 166.379 3.46901 2.83485 0
M  V30 1636 C 168.123 1.90985 3.79111 0
M  V30 1637 C 166.03 4.23279 4.13024 0
M  V30 1638 H 164.96 0.41803 0.627509 0
M  V30 1639 H 167.611 1.51539 1.03481 0
M  V30 1640 H 165.993 1.50797 3.66164 0
M  V30 1641 H 167.167 4.00773 2.27415 0
M  V30 1642 H 165.482 3.54088 2.19113 0
M  V30 1643 H 168.079 2.45328 4.75098 0
M  V30 1644 H 168.422 0.882718 4.06834 0
M  V30 1645 H 168.955 2.34895 3.21044 0
M  V30 1646 H 165.694 5.26503 3.90481 0
M  V30 1647 H 165.214 3.74186 4.6877 0
M  V30 1648 H 166.893 4.32265 4.81411 0
M  V30 1649 N 167.025 -1.13721 1.09112 0
M  V30 1650 C 167.955 -2.21148 0.749385 0
M  V30 1651 C 168.936 -1.6792 -0.271475 0
M  V30 1652 O 170.121 -1.93693 -0.140251 0
M  V30 1653 C 167.251 -3.46905 0.165659 0
M  V30 1654 C 166.205 -4.13203 1.11567 0
M  V30 1655 C 165.531 -5.33248 0.393809 0
M  V30 1656 C 166.831 -4.60912 2.45678 0
M  V30 1657 H 168.525 -2.4999 1.64758 0
M  V30 1658 H 166.071 -1.20156 0.793626 0
M  V30 1659 H 168.024 -4.21313 -0.085466 0
M  V30 1660 H 166.748 -3.17449 -0.767714 0
M  V30 1661 H 165.407 -3.40758 1.35202 0
M  V30 1662 H 165.055 -5.00054 -0.543599 0
M  V30 1663 H 164.755 -5.78552 1.02721 0
M  V30 1664 H 166.279 -6.10413 0.150908 0
M  V30 1665 H 167.693 -5.26759 2.26269 0
M  V30 1666 H 166.09 -5.16944 3.04776 0
M  V30 1667 H 167.16 -3.75603 3.06677 0
M  V30 1668 N 168.503 -0.877838 -1.30888 0
M  V30 1669 C 169.751 -0.491723 -1.96027 0
M  V30 1670 C 170.072 0.960827 -1.69685 0
M  V30 1671 O 169.342 1.67462 -1.01654 0
M  V30 1672 H 167.922 -0.17885 -0.725273 0
M  V30 1673 H 170.584 -1.11935 -1.59551 0
M  V30 1674 H 169.68 -0.656016 -3.05128 0
M  V30 1675 N 169.982 1.44106 -0.638065 0
M  V30 1676 C 171.229 2.01978 -0.14533 0
M  V30 1677 C 171.557 1.50234 1.23532 0
M  V30 1678 O 170.812 0.679548 1.83523 0
M  V30 1679 C 171.111 3.5729 -0.0887327 0
M  V30 1680 C 170.777 4.28317 -1.40909 0
M  V30 1681 C 169.439 4.47437 -1.77069 0
M  V30 1682 C 171.791 4.6867 -2.28031 0
M  V30 1683 C 169.119 5.04171 -3.00047 0
M  V30 1684 C 171.471 5.26766 -3.50286 0
M  V30 1685 C 170.135 5.44104 -3.86661 0
M  V30 1686 H 169.405 0.739089 -0.0531801 0
M  V30 1687 H 172.052 1.72781 -0.825761 0
M  V30 1688 H 170.357 3.8594 0.675095 0
M  V30 1689 H 172.054 3.99807 0.309145 0
M  V30 1690 H 168.644 4.1377 -1.1177 0
M  V30 1691 H 172.828 4.53604 -2.01388 0
M  V30 1692 H 168.084 5.15782 -3.28298 0
M  V30 1693 H 172.258 5.56983 -4.18023 0
M  V30 1694 H 169.885 5.87832 -4.82034 0
M  V30 1695 N 171.46 0.379036 1.52974 0
M  V30 1696 C 172.737 -0.263479 1.93817 0
M  V30 1697 C 173.117 -1.65244 1.31368 0
M  V30 1698 O 172.465 -2.23448 0.477856 0
M  V30 1699 C 172.675 -0.300166 3.47707 0
M  V30 1700 C 174.023 -0.534061 4.21228 0
M  V30 1701 O 175.047 -0.38081 3.54159 0
M  V30 1702 O 173.906 -0.833501 5.40106 0
M  V30 1703 H 171 -0.161149 0.811147 0
M  V30 1704 H 173.546 0.432798 1.64088 0
M  V30 1705 H 172.318 0.673138 3.85467 0
M  V30 1706 H 171.941 -1.04179 3.83709 0
M  V30 1707 N 172.938 -1.57226 0.108567 0
M  V30 1708 C 173.868 -2.17778 -0.84232 0
M  V30 1709 C 174.849 -1.11487 -1.2847 0
M  V30 1710 O 176.034 -1.39681 -1.34918 0
M  V30 1711 C 173.164 -2.76888 -2.09644 0
M  V30 1712 C 172.118 -3.88669 -1.79221 0
M  V30 1713 C 171.444 -4.34541 -3.11574 0
M  V30 1714 C 172.744 -5.11251 -1.06864 0
M  V30 1715 H 174.438 -2.97489 -0.337774 0
M  V30 1716 H 171.984 -1.43097 -0.161025 0
M  V30 1717 H 173.937 -3.17904 -2.76614 0
M  V30 1718 H 172.661 -1.94451 -2.62405 0
M  V30 1719 H 171.32 -3.48213 -1.14644 0
M  V30 1720 H 170.968 -3.48977 -3.62249 0
M  V30 1721 H 170.668 -5.09914 -2.91996 0
M  V30 1722 H 172.192 -4.782 -3.7968 0
M  V30 1723 H 173.606 -5.49352 -1.63968 0
M  V30 1724 H 172.003 -5.9214 -0.974178 0
M  V30 1725 H 173.073 -4.8487 -0.0536168 0
M  V30 1726 N 174.416 0.165178 -1.56732 0
M  V30 1727 C 175.641 0.900253 -1.86843 0
M  V30 1728 C 176.066 1.74766 -0.695596 0
M  V30 1729 O 175.424 1.77786 0.35522 0
M  V30 1730 C 175.472 1.74777 -3.15413 0
M  V30 1731 O 174.576 2.85007 -2.98068 0
M  V30 1732 H 173.917 0.251832 -0.614391 0
M  V30 1733 H 176.447 0.161468 -2.03962 0
M  V30 1734 H 176.457 2.14646 -3.46974 0
M  V30 1735 H 175.132 1.12537 -4.00385 0
M  V30 1736 H 173.709 2.48676 -2.77875 0
M  V30 1737 N 175.894 1.51508 0.433938 0
M  V30 1738 C 176.857 1.72473 1.50949 0
M  V30 1739 C 177.857 0.594725 1.49398 0
M  V30 1740 O 179.047 0.862315 1.5136 0
M  V30 1741 C 176.179 1.78431 2.90474 0
M  V30 1742 H 177.372 2.68467 1.33662 0
M  V30 1743 H 174.925 1.41549 0.662836 0
M  V30 1744 H 175.66 0.842645 3.13161 0
M  V30 1745 H 175.445 2.60558 2.93005 0
M  V30 1746 H 176.935 1.96479 3.68491 0
M  V30 1747 N 177.372 -0.689602 1.41712 0
M  V30 1748 C 178.62 -1.4468 1.4111 0
M  V30 1749 C 178.941 -1.94986 0.0232196 0
M  V30 1750 O 178.211 -1.72097 -0.935913 0
M  V30 1751 H 176.791 -0.536847 0.519427 0
M  V30 1752 H 179.453 -0.815825 1.77004 0
M  V30 1753 H 178.549 -2.30706 2.10193 0
M  V30 1754 N 178.85 -1.27639 -0.924453 0
M  V30 1755 C 180.09 -1.15407 -1.68703 0
M  V30 1756 C 180.454 0.294581 -1.89727 0
M  V30 1757 O 181.655 0.539385 -2.63333 0
M  V30 1758 C 179.926 -1.9195 -3.0148 0
M  V30 1759 S 181.485 -1.95969 -3.92609 0
M  V30 1760 H 178.303 -0.411937 -0.579507 0
M  V30 1761 H 180.905 -1.61592 -1.10038 0
M  V30 1762 H 179.609 -2.96387 -2.83871 0
M  V30 1763 H 179.14 -1.46272 -3.65196 0
M  V30 1764 H 181.155 -1.05846 -4.84779 0
M  V30 1765 N 180.328 1.1314 -1.09713 0
M  V30 1766 C 181.291 2.16831 -0.742751 0
M  V30 1767 C 182.291 1.59159 0.229129 0
M  V30 1768 O 183.481 1.74199 0.00693237 0
M  V30 1769 C 180.613 3.40756 -0.0989168 0
M  V30 1770 H 181.806 2.49695 -1.66109 0
M  V30 1771 H 179.359 1.2802 -0.896699 0
M  V30 1772 H 180.094 3.13485 0.830514 0
M  V30 1773 H 179.879 3.83888 -0.798265 0
M  V30 1774 H 181.369 4.17386 0.133524 0
M  V30 1775 N 181.806 0.884767 1.30421 0
M  V30 1776 C 183.054 0.502112 1.95763 0
M  V30 1777 C 183.375 -0.951815 1.70192 0
M  V30 1778 O 182.645 -1.6692 1.0254 0
M  V30 1779 H 181.225 0.182694 0.724315 0
M  V30 1780 H 183.887 1.1278 1.58955 0
M  V30 1781 H 182.983 0.672188 3.04775 0
M  V30 1782 N 183.284 -1.43765 0.645699 0
M  V30 1783 C 184.531 -2.01898 0.15604 0
M  V30 1784 C 184.859 -1.50887 -1.22733 0
M  V30 1785 O 184.114 -0.689271 -1.8316 0
M  V30 1786 C 184.413 -3.57238 0.107679 0
M  V30 1787 C 184.079 -4.27564 1.43178 0
M  V30 1788 C 182.741 -4.46492 1.7944 0
M  V30 1789 C 185.093 -4.67454 2.30513 0
M  V30 1790 C 182.421 -5.02573 3.02716 0
M  V30 1791 C 184.773 -5.24901 3.53074 0
M  V30 1792 C 183.437 -5.42046 3.89541 0
M  V30 1793 H 182.707 -0.738797 0.057099 0
M  V30 1794 H 185.354 -1.72341 0.834912 0
M  V30 1795 H 183.659 -3.86293 -0.654618 0
M  V30 1796 H 185.356 -3.99965 -0.287938 0
M  V30 1797 H 181.946 -4.13171 1.13963 0
M  V30 1798 H 186.13 -4.5253 2.0379 0
M  V30 1799 H 181.386 -5.14033 3.31028 0
M  V30 1800 H 185.56 -5.54758 4.20971 0
M  V30 1801 H 183.187 -5.85268 4.85145 0
M  V30 1802 N 184.763 -0.387143 -1.52771 0
M  V30 1803 C 186.011 0.195349 -2.01154 0
M  V30 1804 C 186.332 1.475 -1.27549 0
M  V30 1805 O 185.602 1.91878 -0.394924 0
M  V30 1806 H 184.182 0.075178 -0.743207 0
M  V30 1807 H 186.844 -0.518337 -1.87881 0
M  V30 1808 H 185.94 0.407096 -3.09434 0
M  V30 1809 N 186.241 1.57166 -0.116904 0
M  V30 1810 C 187.471 1.99184 0.548586 0
M  V30 1811 C 187.879 0.995436 1.60897 0
M  V30 1812 O 187.222 -0.0201293 1.83689 0
M  V30 1813 C 187.284 3.37611 1.23526 0
M  V30 1814 C 186.948 4.55857 0.323077 0
M  V30 1815 C 187.945 5.18056 -0.437476 0
M  V30 1816 C 185.63 5.01751 0.234761 0
M  V30 1817 C 187.624 6.24536 -1.2741 0
M  V30 1818 C 185.311 6.08093 -0.605496 0
M  V30 1819 C 186.309 6.69352 -1.35856 0
M  V30 1820 O 185.997 7.7364 -2.18487 0
M  V30 1821 H 185.729 0.659148 0.149999 0
M  V30 1822 H 188.283 2.0443 -0.199428 0
M  V30 1823 H 186.513 3.29113 2.0303 0
M  V30 1824 H 188.202 3.63932 1.79745 0
M  V30 1825 H 188.968 4.83516 -0.379105 0
M  V30 1826 H 184.847 4.53817 0.810601 0
M  V30 1827 H 188.391 6.72281 -1.86237 0
M  V30 1828 H 184.288 6.42063 -0.665268 0
M  V30 1829 H 185.056 7.90727 -2.11406 0
M  V30 1830 N 187.719 -0.156864 1.56817 0
M  V30 1831 C 188.682 -1.17781 1.96622 0
M  V30 1832 C 189.682 -1.36401 0.851555 0
M  V30 1833 O 190.872 -1.33561 1.11836 0
M  V30 1834 C 188.004 -2.54008 2.27361 0
M  V30 1835 H 189.197 -0.836564 2.87996 0
M  V30 1836 H 186.75 -0.39985 1.51099 0
M  V30 1837 H 187.485 -2.9312 1.38748 0
M  V30 1838 H 187.27 -2.41856 3.08623 0
M  V30 1839 H 188.76 -3.27558 2.59029 0
M  V30 1840 N 189.197 -1.51736 -0.425897 0
M  V30 1841 C 190.127 -1.76827 -1.52494 0
M  V30 1842 C 191.108 -0.618524 -1.58456 0
M  V30 1843 O 192.293 -0.862416 -1.74 0
M  V30 1844 C 189.423 -1.90374 -2.90474 0
M  V30 1845 C 188.377 -3.0588 -2.99369 0
M  V30 1846 C 187.703 -3.04625 -4.3944 0
M  V30 1847 C 189.003 -4.45644 -2.72394 0
M  V30 1848 H 190.697 -2.68855 -1.31748 0
M  V30 1849 H 188.243 -1.29372 -0.632362 0
M  V30 1850 H 190.196 -2.0651 -3.6733 0
M  V30 1851 H 188.92 -0.95004 -3.12477 0
M  V30 1852 H 187.579 -2.89467 -2.24954 0
M  V30 1853 H 187.227 -2.0701 -4.58428 0
M  V30 1854 H 186.927 -3.82195 -4.46319 0
M  V30 1855 H 188.451 -3.22869 -5.18255 0
M  V30 1856 H 189.865 -4.62348 -3.38979 0
M  V30 1857 H 188.262 -5.25006 -2.9067 0
M  V30 1858 H 189.332 -4.54893 -1.67929 0
M  V30 1859 N 190.675 0.682077 -1.42076 0
M  V30 1860 C 191.923 1.4393 -1.41876 0
M  V30 1861 C 192.244 1.94971 -0.0335599 0
M  V30 1862 O 191.514 1.72591 0.926773 0
M  V30 1863 H 190.094 0.534085 -0.522267 0
M  V30 1864 H 192.756 0.806427 -1.77434 0
M  V30 1865 H 191.852 2.29588 -2.11414 0
M  V30 1866 N 192.153 1.28127 0.917671 0
M  V30 1867 C 193.116 1.11744 2.00115 0
M  V30 1868 C 194.116 0.0583052 1.60694 0
M  V30 1869 O 195.306 0.303755 1.71531 0
M  V30 1870 C 192.438 0.704862 3.33533 0
M  V30 1871 H 193.631 2.07966 2.16079 0
M  V30 1872 H 191.184 1.11058 1.09981 0
M  V30 1873 H 191.919 -0.258299 3.2327 0
M  V30 1874 H 191.704 1.4699 3.63505 0
M  V30 1875 H 193.194 0.612768 4.1308 0
M  V30 1876 N 193.631 -1.12557 1.10312 0
M  V30 1877 C 194.594 -2.16434 0.75424 0
M  V30 1878 C 195.594 -1.59278 -0.220685 0
M  V30 1879 O 196.784 -1.742 0.00230591 0
M  V30 1880 C 193.916 -3.40699 0.116987 0
M  V30 1881 H 195.109 -2.48811 1.67431 0
M  V30 1882 H 192.662 -1.27542 0.903475 0
M  V30 1883 H 193.397 -3.13921 -0.813877 0
M  V30 1884 H 193.182 -3.83459 0.818613 0
M  V30 1885 H 194.672 -4.17451 -0.111387 0
M  V30 1886 N 195.109 -0.891671 -1.2995 0
M  V30 1887 C 196.072 -0.36828 -2.26222 0
M  V30 1888 C 197.072 0.493014 -1.53056 0
M  V30 1889 O 198.262 0.299213 -1.71611 0
M  V30 1890 C 195.394 0.47442 -3.37583 0
M  V30 1891 H 196.587 -1.21844 -2.74033 0
M  V30 1892 H 194.14 -0.669107 -1.41254 0
M  V30 1893 H 194.875 1.34489 -2.95099 0
M  V30 1894 H 194.66 -0.142615 -3.91841 0
M  V30 1895 H 196.15 0.83218 -4.09224 0
M  V30 1896 N 196.587 1.43421 -0.653314 0
M  V30 1897 C 197.864 1.95361 -0.0966581 0
M  V30 1898 C 198.244 1.59461 1.38331 0
M  V30 1899 O 197.592 0.879777 2.10884 0
M  V30 1900 C 197.802 3.47311 -0.342988 0
M  V30 1901 C 199.15 4.23875 -0.24798 0
M  V30 1902 O 200.174 3.55133 -0.275553 0
M  V30 1903 O 199.033 5.4623 -0.171771 0
M  V30 1904 H 196.127 0.826945 0.00956291 0
M  V30 1905 H 198.673 1.5336 -0.726558 0
M  V30 1906 H 197.445 3.66569 -1.36906 0
M  V30 1907 H 197.068 3.9631 0.319975 0
M  V30 1908 N 198.065 0.39524 1.52563 0
M  V30 1909 C 198.998 -0.4813 2.23067 0
M  V30 1910 C 199.976 -1.05927 1.23362 0
M  V30 1911 O 201.16 -1.10979 1.52368 0
M  V30 1912 C 198.287 -1.66676 2.9485 0
M  V30 1913 C 197.333 -1.21348 4.08873 0
M  V30 1914 S 198.166 -0.190102 5.35162 0
M  V30 1915 C 199.322 -1.38121 6.1047 0
M  V30 1916 H 199.555 0.117381 2.97068 0
M  V30 1917 H 197.088 0.179458 1.53354 0
M  V30 1918 H 199.046 -2.3466 3.36816 0
M  V30 1919 H 197.707 -2.23676 2.20518 0
M  V30 1920 H 196.9 -2.09877 4.58222 0
M  V30 1921 H 196.502 -0.612486 3.68951 0
M  V30 1922 H 198.794 -2.30726 6.37002 0
M  V30 1923 H 199.737 -0.928521 7.01986 0
M  V30 1924 H 200.145 -1.60071 5.41329 0
M  V30 1925 N 199.544 -1.57102 0.125237 0
M  V30 1926 C 200.793 -1.94582 -0.531095 0
M  V30 1927 C 201.106 -1.01126 -1.6743 0
M  V30 1928 O 202.312 -1.28097 -2.39381 0
M  V30 1929 C 200.768 -3.45839 -0.996164 0
M  V30 1930 C 200.376 -4.47842 0.118926 0
M  V30 1931 C 202.12 -3.92227 -1.62352 0
M  V30 1932 C 200.027 -5.90284 -0.363192 0
M  V30 1933 H 198.957 -0.726391 -0.20217 0
M  V30 1934 H 201.608 -1.82339 0.206092 0
M  V30 1935 H 199.99 -3.53338 -1.78796 0
M  V30 1936 H 201.164 -4.52018 0.895358 0
M  V30 1937 H 199.479 -4.11243 0.653324 0
M  V30 1938 H 202.076 -4.96069 -1.99548 0
M  V30 1939 H 202.419 -3.32552 -2.50429 0
M  V30 1940 H 202.952 -3.87554 -0.897019 0
M  V30 1941 H 199.691 -6.53728 0.481679 0
M  V30 1942 H 199.211 -5.89515 -1.10597 0
M  V30 1943 H 200.89 -6.41752 -0.822377 0
M  V30 1944 N 201.022 0.148545 -1.56898 0
M  V30 1945 C 202.438 0.501131 -1.51528 0
M  V30 1946 C 202.638 1.83458 -0.833399 0
M  V30 1947 O 201.694 2.49259 -0.40328 0
M  V30 1948 C 203.007 0.512864 -2.96294 0
M  V30 1949 C 204.555 0.598487 -3.07225 0
M  V30 1950 C 205.03 0.640897 -4.53494 0
M  V30 1951 N 206.521 0.703163 -4.57832 0
M  V30 1952 C 207.256 0.756935 -5.68382 0
M  V30 1953 N 206.752 0.770147 -6.88506 0
M  V30 1954 N 208.545 0.797698 -5.56411 0
M  V30 1955 H 200.696 -0.725532 -1.99624 0
M  V30 1956 H 202.959 -0.264358 -0.910395 0
M  V30 1957 H 202.665 -0.398691 -3.49433 0
M  V30 1958 H 202.539 1.35133 -3.52163 0
M  V30 1959 H 204.926 1.50046 -2.54106 0
M  V30 1960 H 205.007 -0.267093 -2.54402 0
M  V30 1961 H 204.651 -0.256915 -5.0725 0
M  V30 1962 H 204.581 1.52295 -5.04097 0
M  V30 1963 H 207.072 0.700314 -3.71354 0
M  V30 1964 H 207.385 0.812983 -7.68512 0
M  V30 1965 H 205.73 0.738049 -6.9107 0
M  V30 1966 H 208.921 0.784535 -4.61479 0
M  V30 1967 H 209.094 0.83614 -6.42583 0
M  V30 1968 N 202.5 1.5196 0.417844 0
M  V30 1969 C 203.748 1.65263 1.16329 0
M  V30 1970 C 204.069 0.380634 1.91249 0
M  V30 1971 O 203.339 -0.604214 1.86349 0
M  V30 1972 H 201.919 0.60912 0.432414 0
M  V30 1973 H 204.581 1.88969 0.477162 0
M  V30 1974 H 203.677 2.4896 1.88217 0
M  V30 1975 N 203.978 -0.674533 1.42435 0
M  V30 1976 C 205.226 -1.43175 1.42637 0
M  V30 1977 C 205.547 -1.94951 0.0438992 0
M  V30 1978 O 204.817 -1.7308 -0.917607 0
M  V30 1979 H 203.397 -0.531307 0.525092 0
M  V30 1980 H 206.059 -0.797006 1.77859 0
M  V30 1981 H 205.155 -2.28463 2.12629 0
M  V30 1982 N 205.456 -1.28612 -0.910864 0
M  V30 1983 C 206.704 -1.15705 -1.65701 0
M  V30 1984 C 207.025 0.29416 -1.92769 0
M  V30 1985 O 206.295 1.20331 -1.54588 0
M  V30 1986 H 204.875 -0.425216 -0.614167 0
M  V30 1987 H 207.537 -1.61381 -1.0928 0
M  V30 1988 H 206.633 -1.6988 -2.61815 0
M  V30 1989 N 206.934 1.1197 -1.10907 0
M  V30 1990 C 207.897 2.16031 -0.765707 0
M  V30 1991 C 208.897 1.59393 0.212235 0
M  V30 1992 O 210.087 1.74196 -0.0115441 0
M  V30 1993 C 207.219 3.40632 -0.135053 0
M  V30 1994 H 208.412 2.47919 -1.68748 0
M  V30 1995 H 205.965 1.27061 -0.910226 0
M  V30 1996 H 206.7 3.14348 0.797218 0
M  V30 1997 H 206.485 3.8302 -0.838937 0
M  V30 1998 H 207.975 4.17505 0.0892469 0
M  V30 1999 N 208.412 0.89855 1.29475 0
M  V30 2000 C 209.375 0.380272 2.26023 0
M  V30 2001 C 210.375 -0.484891 1.53315 0
M  V30 2002 O 211.565 -0.290108 1.71767 0
M  V30 2003 C 208.697 -0.45651 3.3783 0
M  V30 2004 H 209.89 1.23295 2.73383 0
M  V30 2005 H 207.443 0.676589 1.40897 0
M  V30 2006 H 208.178 -1.32922 2.95808 0
M  V30 2007 H 207.963 0.163393 3.91759 0
M  V30 2008 H 209.453 -0.810466 4.0966 0
M  V30 2009 N 209.89 -1.43072 0.660911 0
M  V30 2010 C 211.118 -2.06067 0.185422 0
M  V30 2011 C 211.533 -1.49582 -1.15198 0
M  V30 2012 O 210.89 -0.630134 -1.71276 0
M  V30 2013 C 210.941 -3.61371 0.0966523 0
M  V30 2014 O 210.662 -4.15758 1.38119 0
M  V30 2015 C 212.163 -4.41455 -0.403996 0
M  V30 2016 H 209.383 -0.664459 0.0934604 0
M  V30 2017 H 211.927 -1.83447 0.90373 0
M  V30 2018 H 210.082 -3.8315 -0.572259 0
M  V30 2019 H 210.496 -5.09499 1.24542 0
M  V30 2020 H 211.97 -5.50437 -0.415045 0
M  V30 2021 H 212.447 -4.15036 -1.43674 0
M  V30 2022 H 213.053 -4.24663 0.232691 0
M  V30 2023 N 211.368 -0.403325 -1.52352 0
M  V30 2024 C 212.301 0.469463 -2.23319 0
M  V30 2025 C 213.279 1.05272 -1.23922 0
M  V30 2026 O 214.463 1.10169 -1.52954 0
M  V30 2027 C 211.59 1.6511 -2.9573 0
M  V30 2028 C 210.636 1.19178 -4.0951 0
M  V30 2029 S 211.469 0.161718 -5.35256 0
M  V30 2030 C 212.625 1.34882 -6.11194 0
M  V30 2031 H 212.858 -0.133134 -2.97002 0
M  V30 2032 H 210.391 -0.187588 -1.53256 0
M  V30 2033 H 212.349 2.3287 -3.38056 0
M  V30 2034 H 211.01 2.22503 -2.21701 0
M  V30 2035 H 210.203 2.07444 -4.59329 0
M  V30 2036 H 209.805 0.592911 -3.6927 0
M  V30 2037 H 212.097 2.27345 -6.38217 0
M  V30 2038 H 213.04 0.89128 -7.02468 0
M  V30 2039 H 213.448 1.57198 -5.42171 0
M  V30 2040 N 212.846 1.57033 -0.133567 0
M  V30 2041 C 213.776 2.1909 0.807567 0
M  V30 2042 C 214.757 1.13517 1.26681 0
M  V30 2043 O 215.942 1.41809 1.32679 0
M  V30 2044 C 213.072 2.80188 2.05212 0
M  V30 2045 C 212.026 3.91471 1.73015 0
M  V30 2046 C 211.352 4.39443 3.04622 0
M  V30 2047 C 212.652 5.12886 0.987168 0
M  V30 2048 H 214.346 2.97988 0.290403 0
M  V30 2049 H 211.892 1.43335 0.138239 0
M  V30 2050 H 213.845 3.22264 2.71521 0
M  V30 2051 H 212.569 1.98601 2.59278 0
M  V30 2052 H 211.228 3.49993 1.0909 0
M  V30 2053 H 210.876 3.54695 3.56651 0
M  V30 2054 H 210.576 5.14495 2.83847 0
M  V30 2055 H 212.1 4.8418 3.72024 0
M  V30 2056 H 213.514 5.51891 1.55208 0
M  V30 2057 H 211.911 5.93615 0.87985 0
M  V30 2058 H 212.981 4.84894 -0.0235286 0
M  V30 2059 N 214.325 -0.140222 1.56975 0
M  V30 2060 C 215.571 -0.852949 1.83991 0
M  V30 2061 C 215.904 -1.80512 0.716187 0
M  V30 2062 O 215.179 -1.92479 -0.279681 0
M  V30 2063 C 215.462 -1.6215 3.21527 0
M  V30 2064 C 215.315 -0.690363 4.4447 0
M  V30 2065 C 216.634 -2.58247 3.56366 0
M  V30 2066 H 213.753 -0.308634 0.669264 0
M  V30 2067 H 216.395 -0.117898 1.89634 0
M  V30 2068 H 214.545 -2.24812 3.16847 0
M  V30 2069 H 216.217 -0.0742264 4.6124 0
M  V30 2070 H 214.46 -0.000396433 4.338 0
M  V30 2071 H 215.131 -1.2643 5.37326 0
M  V30 2072 H 217.607 -2.05701 3.61699 0
M  V30 2073 H 216.483 -3.09067 4.53617 0
M  V30 2074 H 216.744 -3.39923 2.82674 0
M  V30 2075 N 215.803 -1.52179 -0.40978 0
M  V30 2076 C 217.049 -1.66453 -1.15851 0
M  V30 2077 C 217.382 -0.392972 -1.90182 0
M  V30 2078 O 216.657 0.608579 -1.84734 0
M  V30 2079 C 216.94 -2.88612 -2.15349 0
M  V30 2080 C 216.793 -4.25815 -1.44918 0
M  V30 2081 C 218.112 -3.06294 -3.16026 0
M  V30 2082 H 215.231 -0.60575 -0.419805 0
M  V30 2083 H 217.873 -1.84732 -0.444314 0
M  V30 2084 H 216.023 -2.73158 -2.76255 0
M  V30 2085 H 217.695 -4.52995 -0.871365 0
M  V30 2086 H 215.938 -4.27247 -0.751159 0
M  V30 2087 H 216.609 -5.07337 -2.17516 0
M  V30 2088 H 219.085 -3.20641 -2.65195 0
M  V30 2089 H 217.961 -3.93283 -3.8291 0
M  V30 2090 H 218.222 -2.19579 -3.83715 0
M  V30 2091 N 217.281 0.66697 -1.42791 0
M  V30 2092 C 218.529 1.42417 -1.43394 0
M  V30 2093 C 218.85 1.94925 -0.0542373 0
M  V30 2094 O 218.12 1.73564 0.908415 0
M  V30 2095 H 216.7 0.528515 -0.527902 0
M  V30 2096 H 219.362 0.787562 -1.78279 0
M  V30 2097 H 218.458 2.27333 -2.13837 0
M  V30 2098 N 218.759 1.29093 0.90403 0
M  V30 2099 C 219.987 1.19689 1.68766 0
M  V30 2100 C 220.402 -0.243113 1.87228 0
M  V30 2101 O 219.759 -1.16326 1.40621 0
M  V30 2102 C 219.81 1.90144 3.07453 0
M  V30 2103 O 219.531 3.2852 2.89838 0
M  V30 2104 C 221.032 1.87162 4.01852 0
M  V30 2105 H 218.252 0.415035 0.527244 0
M  V30 2106 H 220.796 1.7039 1.13082 0
M  V30 2107 H 218.951 1.43289 3.59926 0
M  V30 2108 H 219.365 3.63944 3.77684 0
M  V30 2109 H 220.839 2.41032 4.96596 0
M  V30 2110 H 221.316 0.84617 4.30972 0
M  V30 2111 H 221.922 2.33741 3.5531 0
M  V30 2112 N 220.237 -1.11381 1.11499 0
M  V30 2113 C 221.147 -2.21019 0.786628 0
M  V30 2114 C 222.163 -1.72597 -0.220507 0
M  V30 2115 O 223.339 -2.01321 -0.0565251 0
M  V30 2116 C 220.404 -3.459 0.235333 0
M  V30 2117 C 219.465 -4.09107 1.30115 0
M  V30 2118 C 218.698 -5.28027 0.776068 0
M  V30 2119 O 218.921 -5.6904 -0.393661 0
M  V30 2120 O 217.855 -5.81835 1.54114 0
M  V30 2121 H 221.681 -2.51521 1.70209 0
M  V30 2122 H 219.266 -1.19928 0.890928 0
M  V30 2123 H 221.148 -4.21346 -0.067715 0
M  V30 2124 H 219.823 -3.17049 -0.652828 0
M  V30 2125 H 218.73 -3.35391 1.65722 0
M  V30 2126 H 220.063 -4.42139 2.16273 0
M  V30 2127 N 221.715 -0.905404 -1.28997 0
M  V30 2128 C 222.662 -0.385892 -2.27551 0
M  V30 2129 C 223.632 0.535113 -1.57244 0
M  V30 2130 O 224.817 0.459119 -1.85194 0
M  V30 2131 C 221.957 0.375461 -3.43051 0
M  V30 2132 C 221.07 -0.577092 -4.28128 0
M  V30 2133 C 220.205 0.201879 -5.30816 0
M  V30 2134 C 219.244 -0.744829 -6.07551 0
M  V30 2135 N 218.381 9.42587e-05 -7.021 0
M  V30 2136 H 223.221 -1.23139 -2.71368 0
M  V30 2137 H 220.758 -0.618542 -1.33463 0
M  V30 2138 H 222.716 0.832992 -4.088 0
M  V30 2139 H 221.346 1.18537 -3.00248 0
M  V30 2140 H 220.398 -1.15315 -3.62501 0
M  V30 2141 H 221.71 -1.30152 -4.8152 0
M  V30 2142 H 220.864 0.720351 -6.02408 0
M  V30 2143 H 219.603 0.959413 -4.7817 0
M  V30 2144 H 218.608 -1.27475 -5.34818 0
M  V30 2145 H 219.833 -1.50178 -6.62286 0
M  V30 2146 H 217.779 0.739791 -6.51815 0
M  V30 2147 H 217.696 -0.664321 -7.53076 0
M  V30 2148 H 218.964 0.498644 -7.77903 0
M  V30 2149 N 223.193 1.4272 -0.668489 0
M  V30 2150 C 224.123 2.335 -0.000100175 0
M  V30 2151 C 225.104 1.50328 0.795964 0
M  V30 2152 O 226.289 1.78949 0.754385 0
M  V30 2153 C 223.419 3.33874 0.956302 0
M  V30 2154 C 222.373 4.27152 0.269278 0
M  V30 2155 C 221.699 5.17684 1.33818 0
M  V30 2156 C 222.999 5.15373 -0.847805 0
M  V30 2157 H 224.693 2.89639 -0.758244 0
M  V30 2158 H 222.239 1.39269 -0.366079 0
M  V30 2159 H 224.192 3.9629 1.43292 0
M  V30 2160 H 222.916 2.76025 1.74579 0
M  V30 2161 H 221.575 3.66123 -0.187042 0
M  V30 2162 H 221.223 4.56165 2.1195 0
M  V30 2163 H 220.923 5.80918 0.883659 0
M  V30 2164 H 222.447 5.82974 1.81586 0
M  V30 2165 H 223.861 5.7151 -0.452681 0
M  V30 2166 H 222.258 5.87407 -1.22773 0
M  V30 2167 H 223.328 4.5415 -1.69929 0
M  V30 2168 N 224.671 0.411399 1.52136 0
M  V30 2169 C 225.896 -0.165538 2.06738 0
M  V30 2170 C 226.321 -1.379 1.27926 0
M  V30 2171 O 225.679 -1.78628 0.310114 0
M  V30 2172 C 225.727 -0.492124 3.57226 0
M  V30 2173 O 224.831 -1.58276 3.80818 0
M  V30 2174 H 224.172 -0.0132132 0.663869 0
M  V30 2175 H 226.702 0.585253 1.96051 0
M  V30 2176 H 226.712 -0.750104 4.01045 0
M  V30 2177 H 225.387 0.394922 4.14021 0
M  V30 2178 H 223.964 -1.31677 3.48877 0
M  V30 2179 N 226.149 -1.5696 0.141893 0
M  V30 2180 C 227.56 -1.82797 -0.379776 0
M  V30 2181 C 227.911 -1.06033 -1.6508 0
M  V30 2182 O 227.036 -0.304011 -2.14254 0
M  V30 2183 C 227.631 -3.31578 -0.695802 0
M  V30 2184 C 226.19 -3.58014 -1.16201 0
M  V30 2185 C 225.337 -2.76699 -0.182455 0
M  V30 2186 H 228.288 -1.54406 0.366675 0
M  V30 2187 H 228.309 -3.47454 -1.55099 0
M  V30 2188 H 227.821 -3.87421 0.229449 0
M  V30 2189 H 225.922 -3.07553 -2.10338 0
M  V30 2190 H 226.035 -4.66501 -1.09151 0
M  V30 2191 H 224.399 -2.45618 -0.674072 0
M  V30 2192 H 225.182 -3.35311 0.736297 0
M  V30 2193 N 227.627 0.131896 -1.57047 0
M  V30 2194 C 228.855 0.856461 -1.88341 0
M  V30 2195 C 229.27 1.74042 -0.731757 0
M  V30 2196 O 228.627 1.80051 0.297945 0
M  V30 2197 C 228.678 1.70064 -3.18999 0
M  V30 2198 O 228.399 0.852278 -4.2973 0
M  V30 2199 C 229.9 2.53148 -3.63911 0
M  V30 2200 H 227.12 0.246885 -0.62393 0
M  V30 2201 H 229.664 0.120152 -2.04147 0
M  V30 2202 H 227.819 2.38984 -3.04902 0
M  V30 2203 H 228.233 1.43329 -5.04537 0
M  V30 2204 H 229.707 3.07931 -4.58129 0
M  V30 2205 H 230.184 3.29901 -2.89935 0
M  V30 2206 H 230.79 1.89492 -3.80753 0
M  V30 2207 N 229.106 1.52395 0.401703 0
M  V30 2208 C 230.355 1.66044 1.14509 0
M  V30 2209 C 230.668 0.400216 1.91462 0
M  V30 2210 O 231.874 0.416632 2.68284 0
M  V30 2211 C 230.33 2.93388 2.0845 0
M  V30 2212 C 229.938 4.26545 1.36978 0
M  V30 2213 C 231.682 3.16402 2.83001 0
M  V30 2214 C 229.589 5.45007 2.29611 0
M  V30 2215 H 228.519 0.618562 0.431158 0
M  V30 2216 H 231.17 1.78886 0.40892 0
M  V30 2217 H 229.552 2.74263 2.8565 0
M  V30 2218 H 230.726 4.56179 0.650916 0
M  V30 2219 H 229.041 4.09692 0.74438 0
M  V30 2220 H 231.638 4.02085 3.52465 0
M  V30 2221 H 231.981 2.30943 3.46368 0
M  V30 2222 H 232.514 3.36034 2.12898 0
M  V30 2223 H 229.253 6.32835 1.70879 0
M  V30 2224 H 228.773 5.19702 2.9945 0
M  V30 2225 H 230.452 5.7838 2.89974 0
M  V30 2226 N 230.584 -0.659388 1.43143 0
M  V30 2227 C 231.861 -1.41627 1.34912 0
M  V30 2228 C 232.241 -2.11099 -0.00607785 0
M  V30 2229 O 231.589 -2.04353 -1.02236 0
M  V30 2230 C 231.799 -2.40604 2.52805 0
M  V30 2231 C 233.147 -3.04789 2.95616 0
M  V30 2232 O 234.171 -2.50932 2.52807 0
M  V30 2233 O 233.03 -4.02421 3.69756 0
M  V30 2234 H 230.124 -0.63246 0.532844 0
M  V30 2235 H 232.67 -0.686814 1.5518 0
M  V30 2236 H 231.442 -1.88174 3.43083 0
M  V30 2237 H 231.065 -3.21009 2.34604 0
M  V30 2238 N 232.062 -1.29571 -0.897171 0
M  V30 2239 C 232.995 -1.0924 -2.00354 0
M  V30 2240 C 233.973 -0.00354011 -1.626 0
M  V30 2241 O 235.157 -0.15473 -1.87864 0
M  V30 2242 C 232.284 -0.66352 -3.32137 0
M  V30 2243 C 231.33 -1.75146 -3.88878 0
M  V30 2244 S 232.163 -3.35124 -4.17674 0
M  V30 2245 C 233.319 -2.9411 -5.52494 0
M  V30 2246 H 233.552 -2.02907 -2.17292 0
M  V30 2247 H 231.085 -1.13746 -1.04408 0
M  V30 2248 H 233.043 -0.422791 -4.08317 0
M  V30 2249 H 231.704 0.253588 -3.13075 0
M  V30 2250 H 230.897 -1.40337 -4.84068 0
M  V30 2251 H 230.499 -1.94584 -3.19395 0
M  V30 2252 H 232.791 -2.41312 -6.33068 0
M  V30 2253 H 233.734 -3.88161 -5.9223 0
M  V30 2254 H 234.142 -2.32332 -5.14473 0
M  V30 2255 N 233.54 1.10788 -1.12088 0
M  V30 2256 C 234.77 1.86191 -0.895351 0
M  V30 2257 C 235.178 1.80763 0.558702 0
M  V30 2258 O 234.521 1.19188 1.39785 0
M  V30 2259 C 234.583 3.35659 -1.28737 0
M  V30 2260 C 234.247 3.64849 -2.75198 0
M  V30 2261 C 235.244 3.61757 -3.734 0
M  V30 2262 C 232.929 3.93641 -3.12013 0
M  V30 2263 C 234.923 3.87045 -5.06434 0
M  V30 2264 C 232.61 4.18585 -4.4523 0
M  V30 2265 C 233.608 4.15277 -5.42249 0
M  V30 2266 O 233.296 4.3959 -6.73065 0
M  V30 2267 H 233.028 0.595425 -0.32007 0
M  V30 2268 H 235.582 1.40992 -1.49367 0
M  V30 2269 H 233.812 3.81497 -0.63224 0
M  V30 2270 H 235.501 3.92441 -1.03656 0
M  V30 2271 H 236.267 3.39557 -3.46303 0
M  V30 2272 H 232.146 3.95348 -2.37109 0
M  V30 2273 H 235.69 3.84378 -5.82151 0
M  V30 2274 H 231.587 4.40264 -4.72057 0
M  V30 2275 H 232.355 4.57123 -6.78956 0
M  V30 2276 N 235.018 0.912232 1.28515 0
M  V30 2277 C 236.295 0.463597 1.90027 0
M  V30 2278 C 236.675 -1.05753 1.82701 0
M  V30 2279 O 236.023 -1.90492 1.26194 0
M  V30 2280 C 236.233 0.992253 3.34597 0
M  V30 2281 C 237.581 1.04344 4.11579 0
M  V30 2282 O 238.605 0.94079 3.43551 0
M  V30 2283 O 237.464 1.1995 5.33174 0
M  V30 2284 H 234.558 0.146666 0.813891 0
M  V30 2285 H 237.104 1.00292 1.36893 0
M  V30 2286 H 235.876 2.03623 3.34146 0
M  V30 2287 H 235.499 0.433672 3.95228 0
M  V30 2288 N 236.496 -1.42363 0.676048 0
M  V30 2289 C 237.912 -1.55811 0.345718 0
M  V30 2290 C 238.112 -1.65544 -1.14879 0
M  V30 2291 O 237.168 -1.62306 -1.93424 0
M  V30 2292 C 238.481 -2.80746 1.07713 0
M  V30 2293 C 240.029 -2.9452 1.05958 0
M  V30 2294 C 240.504 -4.22318 1.77233 0
M  V30 2295 N 241.995 -4.29233 1.74108 0
M  V30 2296 C 242.73 -5.26935 2.26113 0
M  V30 2297 N 242.226 -6.30783 2.86505 0
M  V30 2298 N 244.019 -5.18741 2.1648 0
M  V30 2299 H 236.17 -1.34289 1.6456 0
M  V30 2300 H 238.433 -0.646506 0.69335 0
M  V30 2301 H 238.139 -2.79696 2.13221 0
M  V30 2302 H 238.013 -3.71676 0.64316 0
M  V30 2303 H 240.4 -2.95097 0.0128255 0
M  V30 2304 H 240.481 -2.04817 1.53244 0
M  V30 2305 H 240.125 -4.22502 2.81877 0
M  V30 2306 H 240.055 -5.10958 1.27396 0
M  V30 2307 H 242.546 -3.54814 1.30059 0
M  V30 2308 H 242.859 -7.01691 3.23805 0
M  V30 2309 H 241.204 -6.31341 2.90575 0
M  V30 2310 H 244.395 -4.36533 1.68987 0
M  V30 2311 H 244.568 -5.94721 2.57316 0
M  V30 2312 N 237.974 -0.419461 -1.51915 0
M  V30 2313 C 239.222 0.152637 -2.01523 0
M  V30 2314 C 239.543 1.44762 -1.30649 0
M  V30 2315 O 238.813 1.90997 -0.435535 0
M  V30 2316 H 237.393 0.0593966 -0.744635 0
M  V30 2317 H 240.055 -0.558073 -1.86739 0
M  V30 2318 H 239.151 0.341369 -3.10227 0
M  V30 2319 N 239.452 1.56882 -0.150215 0
M  V30 2320 C 240.4 2.18214 0.805313 0
M  V30 2321 C 241.394 1.14006 1.25296 0
M  V30 2322 O 242.6 1.3225 1.22107 0
M  V30 2323 H 238.975 0.698762 0.277913 0
M  V30 2324 H 240.946 2.97231 0.263862 0
M  V30 2325 C 239.695 2.82065 2.03309 0
M  V30 2326 H 239.018 3.61968 1.69763 0
M  V30 2327 H 240.458 3.28477 2.68103 0
M  V30 2328 C 238.917 1.80739 2.84315 0
M  V30 2329 O 239.447 1.27983 3.80767 0
M  V30 2330 N 237.653 1.4997 2.48913 0
M  V30 2331 H 237.2 1.93062 1.70542 0
M  V30 2332 H 237.158 0.824217 3.03404 0
M  V30 2333 N 240.93 -0.123565 1.57115 0
M  V30 2334 C 242.17 -0.838097 1.86428 0
M  V30 2335 C 242.534 -1.77266 0.737611 0
M  V30 2336 O 243.735 -2.52842 0.912389 0
M  V30 2337 C 242.006 -1.57219 3.20962 0
M  V30 2338 S 243.565 -2.32893 3.71896 0
M  V30 2339 H 240.383 -0.279811 0.653626 0
M  V30 2340 H 242.985 -0.0967034 1.95261 0
M  V30 2341 H 241.689 -0.877522 4.00909 0
M  V30 2342 H 241.22 -2.35405 3.15195 0
M  V30 2343 H 243.235 -3.5853 3.43032 0
M  V30 2344 N 242.408 -1.52605 -0.393616 0
M  V30 2345 C 243.655 -1.67424 -1.1391 0
M  V30 2346 C 243.983 -0.411859 -1.90089 0
M  V30 2347 O 243.238 0.605626 -1.86093 0
M  V30 2348 C 243.537 -2.85721 -2.14705 0
M  V30 2349 C 243.203 -4.23342 -1.55218 0
M  V30 2350 C 241.865 -4.60771 -1.3872 0
M  V30 2351 C 244.217 -5.09041 -1.11924 0
M  V30 2352 C 241.545 -5.81563 -0.774689 0
M  V30 2353 C 243.897 -6.30452 -0.520853 0
M  V30 2354 C 242.561 -6.66617 -0.343134 0
M  V30 2355 H 241.831 -0.612648 -0.416826 0
M  V30 2356 H 244.478 -1.8674 -0.424315 0
M  V30 2357 H 242.783 -2.60803 -2.92385 0
M  V30 2358 H 244.48 -2.94382 -2.72288 0
M  V30 2359 H 241.07 -3.93855 -1.69045 0
M  V30 2360 H 245.254 -4.80695 -1.23473 0
M  V30 2361 H 240.51 -6.08196 -0.625154 0
M  V30 2362 H 244.684 -6.96175 -0.177065 0
M  V30 2363 H 242.311 -7.60083 0.133571 0
M  V30 2364 N 243.887 0.651787 -1.4349 0
M  V30 2365 C 245.136 1.40754 -1.44469 0
M  V30 2366 C 245.449 1.95463 -0.0731845 0
M  V30 2367 O 246.655 2.71471 0.0395721 0
M  V30 2368 C 245.111 2.54735 -2.5424 0
M  V30 2369 C 244.719 2.06628 -3.97504 0
M  V30 2370 C 246.463 3.32092 -2.64414 0
M  V30 2371 C 244.37 3.17829 -4.98737 0
M  V30 2372 H 243.3 0.528862 -0.53742 0
M  V30 2373 H 245.951 0.703365 -1.69485 0
M  V30 2374 H 244.333 3.2763 -2.22428 0
M  V30 2375 H 245.507 1.40734 -4.38783 0
M  V30 2376 H 243.822 1.42146 -3.91387 0
M  V30 2377 H 246.419 4.14952 -3.37223 0
M  V30 2378 H 246.762 3.80217 -1.69532 0
M  V30 2379 H 247.295 2.66279 -2.95534 0
M  V30 2380 H 244.034 2.74671 -5.95177 0
M  V30 2381 H 243.554 3.82429 -4.62069 0
M  V30 2382 H 245.233 3.82937 -5.21505 0
M  V30 2383 N 245.365 1.30045 0.890287 0
M  V30 2384 C 246.612 1.18561 1.64163 0
M  V30 2385 C 246.94 -0.260852 1.92743 0
M  V30 2386 O 246.195 -1.20376 1.54299 0
M  V30 2387 C 246.494 1.95409 2.99249 0
M  V30 2388 C 246.16 3.45066 2.90242 0
M  V30 2389 C 244.822 3.85878 2.87492 0
M  V30 2390 C 247.174 4.4039 2.78758 0
M  V30 2391 C 244.502 5.20314 2.7109 0
M  V30 2392 C 246.854 5.74928 2.63894 0
M  V30 2393 C 245.518 6.14986 2.59516 0
M  V30 2394 H 244.788 0.433846 0.600715 0
M  V30 2395 H 247.435 1.61088 1.03552 0
M  V30 2396 H 245.74 1.45501 3.63781 0
M  V30 2397 H 247.437 1.8392 3.56334 0
M  V30 2398 H 244.027 3.12631 2.93189 0
M  V30 2399 H 248.211 4.09806 2.79952 0
M  V30 2400 H 243.467 5.50449 2.66112 0
M  V30 2401 H 247.641 6.48434 2.53981 0
M  V30 2402 H 245.268 7.19104 2.46565 0
M  V30 2403 N 246.843 -1.10192 1.12674 0
M  V30 2404 C 247.806 -2.14786 0.799979 0
M  V30 2405 C 248.806 -1.59711 -0.18685 0
M  V30 2406 O 249.996 -1.74156 0.0392558 0
M  V30 2407 C 247.128 -3.40374 0.189228 0
M  V30 2408 H 248.321 -2.45203 1.72671 0
M  V30 2409 H 245.874 -1.25597 0.930326 0
M  V30 2410 H 246.609 -3.15577 -0.747107 0
M  V30 2411 H 246.394 -3.81637 0.899766 0
M  V30 2412 H 247.884 -4.17594 -0.0228143 0
M  V30 2413 N 248.321 -0.919034 -1.28029 0
M  V30 2414 C 249.598 -0.473668 -1.89778 0
M  V30 2415 C 249.978 1.04783 -1.83259 0
M  V30 2416 O 249.326 1.8982 -1.27202 0
M  V30 2417 C 249.536 -1.00998 -3.34066 0
M  V30 2418 C 250.884 -1.06525 -4.1102 0
M  V30 2419 O 251.908 -0.958996 -3.43048 0
M  V30 2420 O 250.767 -1.22776 -5.3253 0
M  V30 2421 H 247.861 -0.15098 -0.813101 0
M  V30 2422 H 250.407 -1.01016 -1.36359 0
M  V30 2423 H 249.179 -2.05392 -3.33061 0
M  V30 2424 H 248.802 -0.454626 -3.94992 0
M  V30 2425 N 249.799 1.42003 -0.683588 0
M  V30 2426 C 251.047 2.01015 -0.209101 0
M  V30 2427 C 251.368 1.54365 1.19149 0
M  V30 2428 O 250.638 0.769083 1.80172 0
M  V30 2429 H 249.218 0.743294 -0.074315 0
M  V30 2430 H 251.88 1.73798 -0.882066 0
M  V30 2431 H 250.976 3.11343 -0.2172 0
M  V30 2432 N 251.277 0.427512 1.51691 0
M  V30 2433 C 252.24 -0.377132 2.26076 0
M  V30 2434 C 253.24 -0.958089 1.29141 0
M  V30 2435 O 254.43 -0.83408 1.52934 0
M  V30 2436 C 251.562 -1.53262 3.04506 0
M  V30 2437 H 252.755 0.27464 2.9864 0
M  V30 2438 H 250.308 0.180445 1.55255 0
M  V30 2439 H 251.043 -2.22072 2.36335 0
M  V30 2440 H 250.828 -1.12232 3.75694 0
M  V30 2441 H 252.318 -2.10135 3.60878 0
M  V30 2442 N 252.755 -1.56801 0.158532 0
M  V30 2443 C 253.718 -2.16138 -0.762705 0
M  V30 2444 C 254.718 -1.1061 -1.16713 0
M  V30 2445 O 255.908 -1.36191 -1.08617 0
M  V30 2446 C 253.04 -2.73386 -2.03649 0
M  V30 2447 H 254.233 -2.98886 -0.246354 0
M  V30 2448 H 251.786 -1.56035 -0.0909744 0
M  V30 2449 H 252.521 -1.94335 -2.59623 0
M  V30 2450 H 252.306 -3.50601 -1.75559 0
M  V30 2451 H 253.796 -3.19065 -2.6942 0
M  V30 2452 N 254.233 0.115231 -1.57178 0
M  V30 2453 C 255.196 1.12526 -1.99676 0
M  V30 2454 C 256.196 1.34095 -0.88742 0
M  V30 2455 O 257.386 1.30548 -1.15337 0
M  V30 2456 C 254.518 2.4789 -2.34015 0
M  V30 2457 H 255.711 0.759912 -2.90113 0
M  V30 2458 H 253.264 0.359648 -1.52106 0
M  V30 2459 H 253.999 2.89339 -1.4647 0
M  V30 2460 H 253.784 2.33588 -3.14927 0
M  V30 2461 H 255.274 3.20575 -2.67622 0
M  V30 2462 N 255.711 1.52812 0.385517 0
M  V30 2463 C 256.957 1.68275 1.13188 0
M  V30 2464 C 257.29 0.423179 1.89533 0
M  V30 2465 O 256.565 -0.579113 1.85679 0
M  V30 2466 C 256.848 2.92001 2.1073 0
M  V30 2467 C 256.701 4.28067 1.38125 0
M  V30 2468 C 258.02 3.11283 3.11113 0
M  V30 2469 H 255.139 0.612352 0.410115 0
M  V30 2470 H 257.781 1.85415 0.414869 0
M  V30 2471 H 255.931 2.77519 2.71874 0
M  V30 2472 H 257.603 4.54324 0.799187 0
M  V30 2473 H 255.846 4.28388 0.683092 0
M  V30 2474 H 256.517 5.10733 2.09417 0
M  V30 2475 H 258.993 3.2482 2.6006 0
M  V30 2476 H 257.869 3.99325 3.76605 0
M  V30 2477 H 258.13 2.25656 3.80173 0
M  V30 2478 N 257.189 -0.644168 1.43834 0
M  V30 2479 C 258.435 -1.40603 1.46146 0
M  V30 2480 C 258.768 -1.93997 0.0887717 0
M  V30 2481 O 258.043 -1.72854 -0.891724 0
M  V30 2482 C 258.326 -2.58086 2.51124 0
M  V30 2483 C 258.179 -2.10126 3.97702 0
M  V30 2484 C 259.498 -3.60291 2.52742 0
M  V30 2485 H 256.617 -0.509905 0.532134 0
M  V30 2486 H 259.259 -0.729502 1.75437 0
M  V30 2487 H 257.409 -3.15801 2.26278 0
M  V30 2488 H 259.081 -1.57342 4.33637 0
M  V30 2489 H 257.324 -1.41419 4.10101 0
M  V30 2490 H 257.995 -2.94649 4.66783 0
M  V30 2491 H 260.471 -3.12352 2.7491 0
M  V30 2492 H 259.347 -4.40032 3.28121 0
M  V30 2493 H 259.608 -4.1349 1.56455 0
M  V30 2494 N 258.668 -1.30515 -0.883378 0
M  V30 2495 C 259.914 -1.19607 -1.63774 0
M  V30 2496 C 260.247 0.248314 -1.92606 0
M  V30 2497 O 259.522 1.17742 -1.54813 0
M  V30 2498 C 259.805 -2.02669 -2.97653 0
M  V30 2499 C 259.658 -3.55335 -2.75784 0
M  V30 2500 C 260.977 -1.86573 -3.98596 0
M  V30 2501 H 258.096 -0.435856 -0.594305 0
M  V30 2502 H 260.738 -1.60165 -1.02212 0
M  V30 2503 H 258.888 -1.68208 -3.50197 0
M  V30 2504 H 260.56 -3.99863 -2.30016 0
M  V30 2505 H 258.803 -3.79438 -2.1026 0
M  V30 2506 H 259.474 -4.08745 -3.70988 0
M  V30 2507 H 261.95 -2.16703 -3.55217 0
M  V30 2508 H 260.826 -2.47014 -4.90179 0
M  V30 2509 H 261.087 -0.825321 -4.34328 0
M  V30 2510 N 260.146 1.09593 -1.13257 0
M  V30 2511 C 261.394 1.81375 -0.891492 0
M  V30 2512 C 261.715 1.86049 0.584009 0
M  V30 2513 O 260.985 1.34481 1.42449 0
M  V30 2514 H 259.565 0.671708 -0.326828 0
M  V30 2515 H 262.227 1.3256 -1.42877 0
M  V30 2516 H 261.323 2.84612 -1.28071 0
M  V30 2517 N 261.624 0.925811 1.2754 0
M  V30 2518 C 262.534 0.428993 2.30644 0
M  V30 2519 C 263.55 -0.489387 1.66976 0
M  V30 2520 O 264.726 -0.372653 1.97922 0
M  V30 2521 C 261.791 -0.311967 3.45294 0
M  V30 2522 C 260.852 0.641098 4.24486 0
M  V30 2523 C 260.085 -0.0645955 5.33661 0
M  V30 2524 O 260.308 -1.28429 5.55754 0
M  V30 2525 O 259.242 0.606265 5.98839 0
M  V30 2526 H 263.068 1.28504 2.75173 0
M  V30 2527 H 260.653 0.691086 1.32455 0
M  V30 2528 H 262.535 -0.729972 4.15029 0
M  V30 2529 H 261.21 -1.14365 3.02824 0
M  V30 2530 H 260.117 1.10874 3.57292 0
M  V30 2531 H 261.45 1.43995 4.70666 0
M  V30 2532 N 263.102 -1.41638 0.69111 0
M  V30 2533 C 264.33 -2.05628 0.22909 0
M  V30 2534 C 264.745 -1.51992 -1.11999 0
M  V30 2535 O 264.102 -0.666322 -1.69901 0
M  V30 2536 C 264.153 -3.61084 0.173283 0
M  V30 2537 O 263.874 -4.12735 1.46907 0
M  V30 2538 C 265.375 -4.42213 -0.310266 0
M  V30 2539 H 262.595 -0.662327 0.107534 0
M  V30 2540 H 265.139 -1.81489 0.942438 0
M  V30 2541 H 263.294 -3.84278 -0.490858 0
M  V30 2542 H 263.708 -5.06743 1.35322 0
M  V30 2543 H 265.182 -5.51194 -0.298196 0
M  V30 2544 H 265.659 -4.1799 -1.34838 0
M  V30 2545 H 266.265 -4.24074 0.322716 0
M  V30 2546 N 264.58 -0.43555 -1.51462 0
M  V30 2547 C 265.991 0.0279871 -1.86679 0
M  V30 2548 C 266.342 1.42104 -1.35281 0
M  V30 2549 O 265.467 2.04667 -0.702878 0
M  V30 2550 C 266.062 0.0575626 -3.38751 0
M  V30 2551 C 264.621 0.465507 -3.7351 0
M  V30 2552 C 263.768 -0.342996 -2.75171 0
M  V30 2553 H 266.719 -0.651473 -1.44712 0
M  V30 2554 H 266.74 0.867421 -3.70481 0
M  V30 2555 H 266.252 -0.956448 -3.7613 0
M  V30 2556 H 264.353 1.48519 -3.41721 0
M  V30 2557 H 264.466 0.191546 -4.78717 0
M  V30 2558 H 262.83 0.198442 -2.53926 0
M  V30 2559 H 263.613 -1.35585 -3.15391 0
M  V30 2560 N 266.058 1.56714 -0.166846 0
M  V30 2561 C 267.305 1.96747 0.479252 0
M  V30 2562 C 267.633 1.05263 1.63554 0
M  V30 2563 O 266.888 0.0858098 1.95512 0
M  V30 2564 C 267.187 3.42889 1.00806 0
M  V30 2565 C 266.853 4.50889 -0.0318574 0
M  V30 2566 C 265.515 4.8015 -0.317675 0
M  V30 2567 C 267.867 5.15949 -0.737956 0
M  V30 2568 C 265.195 5.71772 -1.31506 0
M  V30 2569 C 267.547 6.08647 -1.72429 0
M  V30 2570 C 266.211 6.36277 -2.0176 0
M  V30 2571 H 265.481 0.719949 0.175371 0
M  V30 2572 H 268.128 1.89756 -0.257864 0
M  V30 2573 H 266.433 3.4681 1.82291 0
M  V30 2574 H 268.13 3.71203 1.51689 0
M  V30 2575 H 264.72 4.28128 0.201088 0
M  V30 2576 H 268.904 4.93458 -0.530351 0
M  V30 2577 H 264.16 5.91465 -1.54853 0
M  V30 2578 H 268.334 6.58129 -2.27682 0
M  V30 2579 H 265.961 7.07075 -2.79194 0
M  V30 2580 N 267.536 -0.106894 1.57237 0
M  V30 2581 C 268.468 -1.15646 1.97885 0
M  V30 2582 C 269.481 -1.36981 0.879779 0
M  V30 2583 O 270.67 -1.35841 1.15799 0
M  V30 2584 C 267.77 -2.51425 2.27241 0
M  V30 2585 C 266.943 -2.50529 3.58545 0
M  V30 2586 C 266.002 -3.68145 3.75973 0
M  V30 2587 O 265.028 -3.51176 4.47956 0
M  V30 2588 N 266.23 -4.87177 3.15656 0
M  V30 2589 H 268.995 -0.81059 2.8853 0
M  V30 2590 H 266.556 -0.296024 1.59171 0
M  V30 2591 H 268.548 -3.28689 2.36105 0
M  V30 2592 H 267.118 -2.78147 1.42663 0
M  V30 2593 H 266.338 -1.58894 3.60758 0
M  V30 2594 H 267.626 -2.46997 4.44826 0
M  V30 2595 H 267.024 -5.03868 2.57165 0
M  V30 2596 H 265.581 -5.62075 3.30023 0
M  V30 2597 N 269.014 -1.53014 -0.377408 0
M  V30 2598 C 270.262 -1.6829 -1.11906 0
M  V30 2599 C 270.583 -0.431206 -1.90173 0
M  V30 2600 O 269.853 0.554595 -1.87886 0
M  V30 2601 H 268.433 -0.620371 -0.416112 0
M  V30 2602 H 271.095 -1.90167 -0.426893 0
M  V30 2603 H 270.191 -2.53862 -1.8155 0
M  V30 2604 N 270.492 0.636531 -1.44174 0
M  V30 2605 C 271.741 1.39213 -1.45954 0
M  V30 2606 C 272.054 1.95374 -0.0939119 0
M  V30 2607 O 273.26 2.71498 0.0107767 0
M  V30 2608 C 271.716 2.52025 -2.56927 0
M  V30 2609 C 271.324 2.024 -3.99673 0
M  V30 2610 C 273.068 3.29269 -2.67922 0
M  V30 2611 C 270.975 3.12521 -5.0208 0
M  V30 2612 H 269.905 0.523132 -0.542999 0
M  V30 2613 H 272.556 0.685349 -1.70221 0
M  V30 2614 H 270.938 3.25253 -2.25891 0
M  V30 2615 H 272.112 1.36073 -4.40251 0
M  V30 2616 H 270.427 1.37987 -3.92872 0
M  V30 2617 H 273.024 4.11352 -3.41605 0
M  V30 2618 H 273.367 3.78397 -1.73555 0
M  V30 2619 H 273.9 2.63129 -2.98342 0
M  V30 2620 H 270.639 2.68343 -5.98057 0
M  V30 2621 H 270.159 3.77507 -4.66099 0
M  V30 2622 H 271.838 3.77385 -5.25538 0
M  V30 2623 N 271.97 1.30982 0.876444 0
M  V30 2624 C 273.218 1.20058 1.62575 0
M  V30 2625 C 273.539 -0.242947 1.93481 0
M  V30 2626 O 272.809 -1.1619 1.57724 0
M  V30 2627 H 271.389 0.44135 0.602677 0
M  V30 2628 H 274.051 1.64222 1.04962 0
M  V30 2629 H 273.147 1.76762 2.57219 0
M  V30 2630 N 273.449 -1.08991 1.13837 0
M  V30 2631 C 274.86 -1.62746 0.914917 0
M  V30 2632 C 275.211 -1.88403 -0.547594 0
M  V30 2633 O 274.336 -1.63706 -1.41525 0
M  V30 2634 C 274.931 -2.95662 1.65437 0
M  V30 2635 C 273.49 -3.46225 1.47666 0
M  V30 2636 C 272.637 -2.20562 1.6807 0
M  V30 2637 H 275.588 -0.922946 1.29102 0
M  V30 2638 H 275.609 -3.63825 1.11407 0
M  V30 2639 H 275.121 -2.76956 2.71877 0
M  V30 2640 H 273.222 -3.70046 0.435478 0
M  V30 2641 H 273.335 -4.23368 2.24268 0
M  V30 2642 H 271.699 -2.29439 1.10589 0
M  V30 2643 H 272.482 -2.0437 2.7584 0
M  V30 2644 N 274.927 -0.932562 -1.27047 0
M  V30 2645 C 276.155 -0.592031 -1.98249 0
M  V30 2646 C 276.57 0.831062 -1.69525 0
M  V30 2647 O 275.927 1.55299 -0.958561 0
M  V30 2648 C 275.978 -0.814279 -3.5221 0
M  V30 2649 O 275.699 -2.18139 -3.7993 0
M  V30 2650 C 277.2 -0.483121 -4.4066 0
M  V30 2651 H 274.42 -0.223896 -0.632544 0
M  V30 2652 H 276.964 -1.25091 -1.61779 0
M  V30 2653 H 275.119 -0.20213 -3.86872 0
M  V30 2654 H 275.533 -2.235 -4.74498 0
M  V30 2655 H 277.007 -0.689298 -5.47679 0
M  V30 2656 H 277.484 0.581546 -4.35333 0
M  V30 2657 H 278.09 -1.07362 -4.11526 0
M  V30 2658 N 276.405 1.4127 -0.698611 0
M  V30 2659 C 277.651 2.01478 -0.231207 0
M  V30 2660 C 277.984 1.55215 1.16713 0
M  V30 2661 O 277.259 0.764672 1.78838 0
M  V30 2662 C 277.542 3.58912 -0.292281 0
M  V30 2663 C 277.395 4.15293 -1.72778 0
M  V30 2664 C 278.714 4.38736 0.346194 0
M  V30 2665 H 275.833 0.732025 -0.0854878 0
M  V30 2666 H 278.475 1.67977 -0.887906 0
M  V30 2667 H 276.625 3.87582 0.26686 0
M  V30 2668 H 278.297 3.97486 -2.341 0
M  V30 2669 H 276.54 3.7022 -2.26096 0
M  V30 2670 H 277.211 5.24452 -1.72202 0
M  V30 2671 H 279.687 4.15897 -0.130035 0
M  V30 2672 H 278.563 5.48221 0.272932 0
M  V30 2673 H 278.824 4.18425 1.42734 0
M  V30 2674 N 277.883 0.443576 1.51229 0
M  V30 2675 C 278.846 -0.353132 2.26463 0
M  V30 2676 C 279.846 -0.944338 1.3015 0
M  V30 2677 O 281.036 -0.817813 1.5381 0
M  V30 2678 C 278.168 -1.50023 3.06114 0
M  V30 2679 H 279.361 0.3063 2.98332 0
M  V30 2680 H 276.914 0.196902 1.55055 0
M  V30 2681 H 277.649 -2.19553 2.38677 0
M  V30 2682 H 277.434 -1.08241 3.76864 0
M  V30 2683 H 278.924 -2.06296 3.63087 0
M  V30 2684 N 279.361 -1.56624 0.175154 0
M  V30 2685 C 280.609 -1.96609 -0.467885 0
M  V30 2686 C 280.93 -1.06238 -1.63519 0
M  V30 2687 O 280.2 -0.129523 -1.95471 0
M  V30 2688 H 278.78 -0.726008 -0.175845 0
M  V30 2689 H 281.442 -1.93195 0.257234 0
M  V30 2690 H 280.538 -3.00989 -0.825342 0
M  V30 2691 N 280.839 0.0985539 -1.57292 0
M  V30 2692 C 282.064 0.820196 -1.90493 0
M  V30 2693 C 282.489 1.71658 -0.769094 0
M  V30 2694 O 281.847 1.79133 0.279495 0
M  V30 2695 C 281.895 1.61242 -3.22542 0
M  V30 2696 O 280.999 2.72108 -3.09888 0
M  V30 2697 H 280.34 0.225547 -0.62452 0
M  V30 2698 H 282.87 0.0748159 -2.04463 0
M  V30 2699 H 282.88 1.99737 -3.55766 0
M  V30 2700 H 281.555 0.954535 -4.04798 0
M  V30 2701 H 280.132 2.36667 -2.88172 0
M  V30 2702 N 282.317 1.53212 0.369288 0
M  V30 2703 C 283.594 1.59815 1.12776 0
M  V30 2704 C 283.974 0.403402 2.0721 0
M  V30 2705 O 283.322 -0.606667 2.20299 0
M  V30 2706 C 283.532 2.94664 1.87013 0
M  V30 2707 C 284.88 3.49109 2.41677 0
M  V30 2708 O 285.904 2.96669 1.97144 0
M  V30 2709 O 284.763 4.40775 3.23079 0
M  V30 2710 H 281.857 0.645376 0.517125 0
M  V30 2711 H 284.403 1.65553 0.37285 0
M  V30 2712 H 283.175 3.73061 1.18071 0
M  V30 2713 H 282.798 2.92401 2.69421 0
M  V30 2714 N 283.795 -0.628877 1.44509 0
M  V30 2715 C 285.043 -1.38565 1.4712 0
M  V30 2716 C 285.364 -1.94712 0.105899 0
M  V30 2717 O 284.634 -1.75912 -0.862079 0
M  V30 2718 H 283.214 -0.514333 0.541729 0
M  V30 2719 H 285.876 -0.740018 1.80305 0
M  V30 2720 H 284.972 -2.21583 2.19789 0
M  V30 2721 N 285.273 -1.31445 -0.869486 0
M  V30 2722 C 286.183 -1.21097 -2.0093 0
M  V30 2723 C 287.199 -0.127584 -1.73532 0
M  V30 2724 O 288.375 -0.345477 -1.98415 0
M  V30 2725 C 285.44 -0.919378 -3.34288 0
M  V30 2726 C 284.501 -2.08971 -3.75006 0
M  V30 2727 C 283.734 -1.81194 -5.02001 0
M  V30 2728 O 283.957 -0.747296 -5.65484 0
M  V30 2729 O 282.891 -2.66883 -5.39497 0
M  V30 2730 H 286.717 -2.16883 -2.12592 0
M  V30 2731 H 284.302 -1.11189 -0.997868 0
M  V30 2732 H 286.184 -0.772625 -4.14257 0
M  V30 2733 H 284.859 0.00844772 -3.23699 0
M  V30 2734 H 283.766 -2.29187 -2.95676 0
M  V30 2735 H 285.099 -2.9998 -3.90221 0
M  V30 2736 N 286.751 1.08385 -1.14413 0
M  V30 2737 C 287.683 2.1519 -0.789036 0
M  V30 2738 C 288.696 1.61638 0.19417 0
M  V30 2739 O 289.885 1.78479 -0.0275711 0
M  V30 2740 C 286.985 3.38565 -0.15058 0
M  V30 2741 C 286.158 4.21501 -1.16857 0
M  V30 2742 C 285.217 5.23277 -0.553832 0
M  V30 2743 O 284.243 5.56041 -1.21686 0
M  V30 2744 N 285.445 5.76629 0.669296 0
M  V30 2745 H 288.21 2.46257 -1.70814 0
M  V30 2746 H 285.771 1.24198 -1.03858 0
M  V30 2747 H 287.763 4.03777 0.273181 0
M  V30 2748 H 286.333 3.05299 0.671667 0
M  V30 2749 H 285.553 3.52265 -1.76926 0
M  V30 2750 H 286.841 4.73731 -1.85624 0
M  V30 2751 H 286.239 5.52243 1.22654 0
M  V30 2752 H 284.796 6.43521 1.03556 0
M  V30 2753 N 288.23 0.939286 1.26551 0
M  V30 2754 C 289.193 0.451987 2.24699 0
M  V30 2755 C 290.193 -0.435869 1.5478 0
M  V30 2756 O 291.383 -0.235314 1.72603 0
M  V30 2757 C 288.515 -0.348801 3.39111 0
M  V30 2758 H 289.708 1.3193 2.69322 0
M  V30 2759 H 287.261 0.721072 1.38673 0
M  V30 2760 H 287.996 -1.23444 2.99887 0
M  V30 2761 H 287.781 0.287945 3.91041 0
M  V30 2762 H 289.271 -0.679726 4.12031 0
M  V30 2763 N 289.708 -1.40897 0.706093 0
M  V30 2764 C 290.985 -1.94868 0.169099 0
M  V30 2765 C 291.365 -1.64485 -1.32318 0
M  V30 2766 O 290.713 -0.95744 -2.07474 0
M  V30 2767 C 290.923 -3.45798 0.471654 0
M  V30 2768 C 292.271 -4.22663 0.405127 0
M  V30 2769 O 293.295 -3.53865 0.407168 0
M  V30 2770 O 292.154 -5.45216 0.374383 0
M  V30 2771 H 289.248 -0.82673 0.0211352 0
M  V30 2772 H 291.794 -1.50558 0.782976 0
M  V30 2773 H 290.566 -3.61235 1.50416 0
M  V30 2774 H 290.189 -3.97225 -0.172666 0
M  V30 2775 N 291.186 -0.45159 -1.50991 0
M  V30 2776 C 292.149 0.341117 -2.26647 0
M  V30 2777 C 293.149 0.937422 -1.30649 0
M  V30 2778 O 294.339 0.809644 -1.54241 0
M  V30 2779 C 291.471 1.48398 -3.06905 0
M  V30 2780 H 292.664 -0.322117 -2.98165 0
M  V30 2781 H 290.217 -0.205122 -1.54948 0
M  V30 2782 H 290.952 2.18284 -2.39838 0
M  V30 2783 H 290.737 1.06241 -3.77432 0
M  V30 2784 H 292.227 2.04367 -3.64176 0
M  V30 2785 N 292.664 1.56529 -0.183458 0
M  V30 2786 C 293.913 1.96419 0.458511 0
M  V30 2787 C 294.226 1.0727 1.63562 0
M  V30 2788 O 295.432 1.36893 2.34462 0
M  V30 2789 C 293.888 3.49298 0.867122 0
M  V30 2790 C 293.496 4.47092 -0.285057 0
M  V30 2791 C 295.24 3.97983 1.47683 0
M  V30 2792 C 293.147 5.91225 0.143862 0
M  V30 2793 H 292.077 0.733394 0.175071 0
M  V30 2794 H 294.728 1.81448 -0.273624 0
M  V30 2795 H 293.11 3.59731 1.65559 0
M  V30 2796 H 294.284 4.48383 -1.0625 0
M  V30 2797 H 292.599 4.08535 -0.805503 0
M  V30 2798 H 295.196 5.03134 1.80999 0
M  V30 2799 H 295.539 3.41618 2.37914 0
M  V30 2800 H 296.072 3.90617 0.752562 0
M  V30 2801 H 292.811 6.5149 -0.723974 0
M  V30 2802 H 292.331 5.93214 0.886413 0
M  V30 2803 H 294.01 6.44362 0.583628 0
M  V30 2804 N 294.142 -0.090211 1.57342 0
M  V30 2805 C 295.558 -0.444547 1.53284 0
M  V30 2806 C 295.758 -1.80238 0.900914 0
M  V30 2807 O 294.814 -2.4759 0.495513 0
M  V30 2808 C 296.127 -0.402543 2.97993 0
M  V30 2809 C 297.675 -0.48405 3.09234 0
M  V30 2810 C 298.15 -0.472144 4.5556 0
M  V30 2811 N 299.641 -0.532757 4.60126 0
M  V30 2812 C 300.376 -0.545462 5.708 0
M  V30 2813 N 299.872 -0.514082 6.9089 0
M  V30 2814 N 301.665 -0.59064 5.58988 0
M  V30 2815 H 293.816 0.799121 1.96794 0
M  V30 2816 H 296.079 0.297965 0.899956 0
M  V30 2817 H 295.785 0.528106 3.47712 0
M  V30 2818 H 295.659 -1.21969 3.56936 0
M  V30 2819 H 298.046 -1.40512 2.595 0
M  V30 2820 H 298.127 0.361328 2.53235 0
M  V30 2821 H 297.771 0.445 5.05947 0
M  V30 2822 H 297.701 -1.3348 5.09402 0
M  V30 2823 H 300.192 -0.562006 3.73698 0
M  V30 2824 H 300.505 -0.527195 7.71 0
M  V30 2825 H 298.85 -0.481054 6.93333 0
M  V30 2826 H 302.041 -0.61272 4.64073 0
M  V30 2827 H 302.214 -0.597073 6.45243 0
M  V30 2828 N 295.62 -1.53406 -0.361157 0
M  V30 2829 C 296.552 -1.76446 -1.46286 0
M  V30 2830 C 297.565 -0.645322 -1.49464 0
M  V30 2831 O 298.754 -0.921681 -1.52864 0
M  V30 2832 C 295.854 -1.83332 -2.85031 0
M  V30 2833 C 295.027 -3.13033 -3.05498 0
M  V30 2834 C 294.086 -3.11104 -4.24383 0
M  V30 2835 O 293.112 -3.84888 -4.19344 0
M  V30 2836 N 294.314 -2.32234 -5.32022 0
M  V30 2837 H 297.079 -2.71508 -1.26899 0
M  V30 2838 H 294.64 -1.52238 -0.550915 0
M  V30 2839 H 296.632 -1.79514 -3.62708 0
M  V30 2840 H 295.202 -0.955342 -2.97644 0
M  V30 2841 H 294.422 -3.30119 -2.15442 0
M  V30 2842 H 295.71 -3.9874 -3.16044 0
M  V30 2843 H 295.108 -1.71807 -5.38979 0
M  V30 2844 H 293.665 -2.3423 -6.08259 0
M  V30 2845 N 297.098 0.621204 -1.44841 0
M  V30 2846 C 298.375 1.38 -1.38619 0
M  V30 2847 C 298.755 2.11041 -0.0498935 0
M  V30 2848 O 298.103 2.06992 0.967816 0
M  V30 2849 C 298.313 2.33817 -2.59096 0
M  V30 2850 C 299.661 2.96844 -3.03593 0
M  V30 2851 O 300.685 2.44141 -2.59371 0
M  V30 2852 O 299.544 3.92476 -3.80296 0
M  V30 2853 H 296.638 0.61811 -0.549426 0
M  V30 2854 H 299.184 0.645429 -1.56947 0
M  V30 2855 H 297.956 1.79012 -3.47952 0
M  V30 2856 H 297.579 3.14676 -2.43032 0
M  V30 2857 N 298.576 1.31904 0.862503 0
M  V30 2858 C 299.825 1.21373 1.61094 0
M  V30 2859 C 300.138 -0.22504 1.94301 0
M  V30 2860 O 301.344 -0.452121 2.67709 0
M  V30 2861 C 299.8 2.12525 2.9045 0
M  V30 2862 C 299.408 3.61441 2.64697 0
M  V30 2863 C 301.152 2.10813 3.68454 0
M  V30 2864 C 299.059 4.44578 3.90006 0
M  V30 2865 H 297.989 0.450705 0.604468 0
M  V30 2866 H 300.64 1.56811 0.953027 0
M  V30 2867 H 299.022 1.69994 3.57656 0
M  V30 2868 H 300.196 4.12264 2.05851 0
M  V30 2869 H 298.511 3.65205 2.00036 0
M  V30 2870 H 301.108 2.70167 4.61426 0
M  V30 2871 H 301.451 1.09713 4.01583 0
M  V30 2872 H 301.984 2.51583 3.08141 0
M  V30 2873 H 298.723 5.46461 3.62023 0
M  V30 2874 H 298.243 3.98508 4.48276 0
M  V30 2875 H 299.922 4.57176 4.5782 0
M  V30 2876 N 300.054 -1.07777 1.14986 0
M  V30 2877 C 301.331 -1.7699 0.832695 0
M  V30 2878 C 301.711 -2.001 -0.672561 0
M  V30 2879 O 301.059 -1.61598 -1.6155 0
M  V30 2880 C 301.269 -3.08139 1.63863 0
M  V30 2881 C 302.617 -3.8256 1.84208 0
M  V30 2882 O 303.641 -3.17939 1.60603 0
M  V30 2883 O 302.5 -4.98612 2.23714 0
M  V30 2884 H 299.594 -0.768389 0.305791 0
M  V30 2885 H 302.14 -1.14182 1.25541 0
M  V30 2886 H 300.912 -2.86909 2.6608 0
M  V30 2887 H 300.535 -3.78678 1.21197 0
M  V30 2888 N 301.532 -0.945985 -1.26051 0
M  V30 2889 C 302.778 -0.606539 -1.94146 0
M  V30 2890 C 303.133 0.84586 -1.72809 0
M  V30 2891 O 302.426 1.59781 -1.05738 0
M  V30 2892 C 302.62 -0.890475 -3.46129 0
M  V30 2893 C 302.449 -2.36892 -3.82246 0
M  V30 2894 C 301.219 -3.02494 -4.04753 0
M  V30 2895 C 303.417 -3.34772 -3.90425 0
M  V30 2896 N 301.399 -4.40302 -4.27794 0
M  V30 2897 C 302.77 -4.57855 -4.18054 0
M  V30 2898 C 304.825 -3.2973 -3.73072 0
M  V30 2899 C 303.528 -5.76522 -4.30134 0
M  V30 2900 C 305.554 -4.47727 -3.86386 0
M  V30 2901 C 304.916 -5.69593 -4.14419 0
M  V30 2902 H 301.015 -0.272407 -0.73302 0
M  V30 2903 H 303.599 -1.21638 -1.52027 0
M  V30 2904 H 301.77 -0.309638 -3.87164 0
M  V30 2905 H 303.502 -0.51181 -4.01451 0
M  V30 2906 H 300.257 -2.53095 -4.003 0
M  V30 2907 H 300.681 -5.11646 -4.43337 0
M  V30 2908 H 305.323 -2.36565 -3.50424 0
M  V30 2909 H 303.041 -6.70136 -4.51601 0
M  V30 2910 H 306.627 -4.45363 -3.74356 0
M  V30 2911 H 305.507 -6.59375 -4.24493 0
M  V30 2912 N 303.011 1.40521 -0.713556 0
M  V30 2913 C 304.26 2.00155 -0.249192 0
M  V30 2914 C 304.573 1.57224 1.16362 0
M  V30 2915 O 305.779 2.09542 1.72639 0
M  V30 2916 C 304.235 3.5773 -0.3946 0
M  V30 2917 C 303.843 4.09635 -1.81392 0
M  V30 2918 C 305.587 4.24499 0.00907364 0
M  V30 2919 C 303.494 5.59707 -1.91003 0
M  V30 2920 H 302.424 0.74868 -0.0894114 0
M  V30 2921 H 305.075 1.60784 -0.884352 0
M  V30 2922 H 303.457 3.94792 0.30911 0
M  V30 2923 H 304.631 3.83955 -2.54785 0
M  V30 2924 H 302.946 3.55456 -2.16888 0
M  V30 2925 H 305.543 5.34683 -0.0420404 0
M  V30 2926 H 305.886 4.02824 1.05065 0
M  V30 2927 H 306.419 3.92536 -0.645007 0
M  V30 2928 H 303.158 5.86234 -2.93275 0
M  V30 2929 H 302.678 5.87258 -1.22019 0
M  V30 2930 H 304.357 6.24776 -1.6812 0
M  V30 2931 N 304.489 0.459591 1.5075 0
M  V30 2932 C 305.717 -0.0973749 2.06671 0
M  V30 2933 C 306.132 -1.34524 1.32472 0
M  V30 2934 O 305.489 -1.7827 0.390634 0
M  V30 2935 C 305.54 -0.39714 3.59312 0
M  V30 2936 O 305.261 0.801214 4.30711 0
M  V30 2937 C 306.762 -1.00234 4.31819 0
M  V30 2938 H 303.982 0.00195854 0.670997 0
M  V30 2939 H 306.526 0.645072 1.94059 0
M  V30 2940 H 304.681 -1.08951 3.71764 0
M  V30 2941 H 305.095 0.538857 5.21725 0
M  V30 2942 H 306.569 -1.16193 5.39632 0
M  V30 2943 H 307.046 -1.98939 3.91561 0
M  V30 2944 H 307.652 -0.348699 4.23868 0
M  V30 2945 N 305.967 -1.56429 0.191757 0
M  V30 2946 C 307.214 -1.97485 -0.447891 0
M  V30 2947 C 307.542 -1.07852 -1.61859 0
M  V30 2948 O 306.797 -0.116903 -1.95351 0
M  V30 2949 C 307.096 -3.44449 -0.953384 0
M  V30 2950 C 306.762 -4.50781 0.103586 0
M  V30 2951 C 305.424 -4.79584 0.394023 0
M  V30 2952 C 307.776 -5.1471 0.819946 0
M  V30 2953 C 305.104 -5.69607 1.40585 0
M  V30 2954 C 307.456 -6.05827 1.8209 0
M  V30 2955 C 306.12 -6.32987 2.11857 0
M  V30 2956 H 305.39 -0.722648 -0.163895 0
M  V30 2957 H 308.037 -1.89322 0.28802 0
M  V30 2958 H 306.342 -3.49666 -1.76751 0
M  V30 2959 H 308.039 -3.73569 -1.45765 0
M  V30 2960 H 304.629 -4.28394 -0.132951 0
M  V30 2961 H 308.813 -4.92552 0.608789 0
M  V30 2962 H 304.069 -5.88926 1.64243 0
M  V30 2963 H 308.243 -6.54424 2.38123 0
M  V30 2964 H 305.87 -7.02544 2.90407 0
M  V30 2965 N 307.445 0.0818655 -1.57387 0
M  V30 2966 C 308.408 1.08265 -2.02018 0
M  V30 2967 C 309.408 1.32183 -0.915664 0
M  V30 2968 O 310.598 1.28073 -1.18081 0
M  V30 2969 C 307.73 2.42871 -2.39221 0
M  V30 2970 H 308.923 0.698204 -2.91659 0
M  V30 2971 H 306.476 0.327303 -1.52835 0
M  V30 2972 H 307.211 2.86167 -1.52575 0
M  V30 2973 H 306.996 2.26855 -3.19811 0
M  V30 2974 H 308.486 3.14826 -2.74362 0
M  V30 2975 N 308.923 1.53595 0.353017 0
M  V30 2976 C 309.855 1.77219 1.45348 0
M  V30 2977 C 310.868 0.65324 1.49119 0
M  V30 2978 O 312.057 0.929775 1.52373 0
M  V30 2979 C 309.157 1.84841 2.84055 0
M  V30 2980 C 308.33 3.14649 3.03833 0
M  V30 2981 C 307.389 3.13351 4.22727 0
M  V30 2982 O 306.415 3.87107 4.17297 0
M  V30 2983 N 307.617 2.35052 5.30783 0
M  V30 2984 H 310.382 2.72178 1.25457 0
M  V30 2985 H 307.943 1.52528 0.542833 0
M  V30 2986 H 309.935 1.81435 3.61751 0
M  V30 2987 H 308.505 0.971114 2.97133 0
M  V30 2988 H 307.725 3.31256 2.13689 0
M  V30 2989 H 309.013 4.00411 3.13925 0
M  V30 2990 H 308.411 1.74663 5.38061 0
M  V30 2991 H 306.968 2.37453 6.07009 0
M  V30 2992 N 310.401 -0.613514 1.45168 0
M  V30 2993 C 311.349 -1.74572 1.53712 0
M  V30 2994 C 312.343 -1.64426 0.407505 0
M  V30 2995 O 313.549 -1.70291 0.583176 0
M  V30 2996 H 309.924 -0.576641 0.48269 0
M  V30 2997 H 311.895 -1.64492 2.48968 0
M  V30 2998 C 310.644 -3.12943 1.51532 0
M  V30 2999 H 309.967 -3.21407 2.37776 0
M  V30 3000 H 311.407 -3.9201 1.61569 0
M  V30 3001 C 309.866 -3.36053 0.238798 0
M  V30 3002 O 310.396 -3.95837 -0.6838 0
M  V30 3003 N 308.602 -2.9028 0.136359 0
M  V30 3004 H 308.149 -2.41811 0.887999 0
M  V30 3005 H 308.107 -3.06116 -0.716944 0
M  V30 3006 N 311.879 -1.3236 -0.855495 0
M  V30 3007 C 313.29 -1.2056 -1.42556 0
M  V30 3008 C 313.641 0.182209 -1.95352 0
M  V30 3009 O 312.766 1.08088 -1.87472 0
M  V30 3010 C 313.361 -2.1826 -2.59129 0
M  V30 3011 C 311.92 -2.10351 -3.12137 0
M  V30 3012 C 311.067 -2.06674 -1.84882 0
M  V30 3013 H 314.018 -1.442 -0.662727 0
M  V30 3014 H 314.039 -1.78064 -3.36264 0
M  V30 3015 H 313.551 -3.19257 -2.20673 0
M  V30 3016 H 311.652 -1.12599 -3.55179 0
M  V30 3017 H 311.765 -3.00135 -3.73438 0
M  V30 3018 H 310.129 -1.51901 -2.04446 0
M  V30 3019 H 310.912 -3.09451 -1.48643 0
M  V30 3020 N 313.357 1.07166 -1.15556 0
M  V30 3021 C 314.582 1.84053 -0.955988 0
M  V30 3022 C 315.007 1.81586 0.490739 0
M  V30 3023 O 314.365 1.21018 1.34997 0
M  V30 3024 C 314.413 3.28957 -1.47714 0
M  V30 3025 O 313.517 4.06795 -0.677593 0
M  V30 3026 H 312.858 0.569842 -0.340847 0
M  V30 3027 H 315.388 1.35178 -1.53584 0
M  V30 3028 H 315.398 3.79788 -1.4908 0
M  V30 3029 H 314.073 3.30068 -2.53037 0
M  V30 3030 H 312.65 3.6561 -0.733721 0
M  V30 3031 N 314.835 0.952656 1.25548 0
M  V30 3032 C 316.083 0.605176 1.92826 0
M  V30 3033 C 316.404 -0.860261 1.74999 0
M  V30 3034 O 315.674 -1.6125 1.11244 0
M  V30 3035 H 314.254 0.220832 0.713612 0
M  V30 3036 H 316.916 1.21047 1.52754 0
M  V30 3037 H 316.012 0.832798 3.00784 0
M  V30 3038 N 316.313 -1.40141 0.720998 0
M  V30 3039 C 317.724 -1.83678 0.334553 0
M  V30 3040 C 318.075 -1.6027 -1.13173 0
M  V30 3041 O 317.2 -1.08643 -1.87152 0
M  V30 3042 C 317.795 -3.33437 0.600437 0
M  V30 3043 C 316.354 -3.75447 0.267642 0
M  V30 3044 C 315.501 -2.63296 0.870097 0
M  V30 3045 H 318.452 -1.29331 0.919732 0
M  V30 3046 H 318.473 -3.80269 -0.132517 0
M  V30 3047 H 317.985 -3.50442 1.66768 0
M  V30 3048 H 316.086 -3.64035 -0.794329 0
M  V30 3049 H 316.199 -4.73344 0.74042 0
M  V30 3050 H 314.563 -2.52954 0.297739 0
M  V30 3051 H 315.346 -2.83112 1.94172 0
M  V30 3052 N 317.792 -0.46758 -1.50504 0
M  V30 3053 C 319.208 -0.121533 -1.59137 0
M  V30 3054 C 319.408 1.3717 -1.47603 0
M  V30 3055 O 318.464 2.14464 -1.33272 0
M  V30 3056 C 319.777 -0.6686 -2.93173 0
M  V30 3057 C 321.325 -0.631716 -3.06559 0
M  V30 3058 C 321.8 -1.15627 -4.43164 0
M  V30 3059 N 323.291 -1.11553 -4.49567 0
M  V30 3060 C 324.026 -1.49195 -5.5365 0
M  V30 3061 N 323.522 -1.94269 -6.65005 0
M  V30 3062 N 325.315 -1.4082 -5.44175 0
M  V30 3063 H 317.466 -1.4388 -1.56245 0
M  V30 3064 H 319.729 -0.594784 -0.738198 0
M  V30 3065 H 319.435 -1.71453 -3.07078 0
M  V30 3066 H 319.309 -0.11021 -3.77039 0
M  V30 3067 H 321.696 0.405297 -2.92304 0
M  V30 3068 H 321.777 -1.22687 -2.24458 0
M  V30 3069 H 321.421 -2.1919 -4.58168 0
M  V30 3070 H 321.351 -0.537365 -5.23851 0
M  V30 3071 H 323.842 -0.784895 -3.69659 0
M  V30 3072 H 324.155 -2.21148 -7.40482 0
M  V30 3073 H 322.5 -1.98219 -6.66134 0
M  V30 3074 H 325.691 -1.0545 -4.56068 0
M  V30 3075 H 325.864 -1.70481 -6.25172 0
M  V30 3076 N 319.27 1.56325 -0.20005 0
M  V30 3077 C 320.681 1.8408 0.31167 0
M  V30 3078 C 321.032 1.12087 1.61031 0
M  V30 3079 O 320.157 0.38332 2.12978 0
M  V30 3080 C 320.752 3.33932 0.57226 0
M  V30 3081 C 319.311 3.6208 1.02834 0
M  V30 3082 C 318.458 2.77186 0.079634 0
M  V30 3083 H 321.409 1.52939 -0.423729 0
M  V30 3084 H 321.43 3.52971 1.42096 0
M  V30 3085 H 320.942 3.86303 -0.37308 0
M  V30 3086 H 319.043 3.15147 1.98778 0
M  V30 3087 H 319.156 4.7023 0.917624 0
M  V30 3088 H 317.52 2.47951 0.582448 0
M  V30 3089 H 318.303 3.32347 -0.860238 0
M  V30 3090 N 320.748 -0.0735177 1.57428 0
M  V30 3091 C 321.995 -0.772999 1.87166 0
M  V30 3092 C 322.323 -1.77665 0.791551 0
M  V30 3093 O 321.578 -1.94541 -0.212636 0
M  V30 3094 C 321.877 -1.51799 3.23561 0
M  V30 3095 C 321.543 -0.654484 4.46125 0
M  V30 3096 C 320.205 -0.416511 4.79394 0
M  V30 3097 C 322.557 -0.0555862 5.2117 0
M  V30 3098 C 319.885 0.429869 5.85123 0
M  V30 3099 C 322.237 0.778239 6.27795 0
M  V30 3100 C 320.901 1.0261 6.59566 0
M  V30 3101 H 320.171 -0.282861 0.684888 0
M  V30 3102 H 322.818 -0.0338272 1.9147 0
M  V30 3103 H 321.123 -2.32932 3.1504 0
M  V30 3104 H 322.82 -2.06397 3.43804 0
M  V30 3105 H 319.41 -0.850091 4.20085 0
M  V30 3106 H 323.594 -0.226558 4.95783 0
M  V30 3107 H 318.85 0.630665 6.08139 0
M  V30 3108 H 323.024 1.24906 6.85107 0
M  V30 3109 H 320.651 1.68371 7.4132 0
M  V30 3110 N 322.226 -1.5378 -0.344866 0
M  V30 3111 C 323.472 -1.71216 -1.08687 0
M  V30 3112 C 323.805 -0.473281 -1.88345 0
M  V30 3113 O 323.08 0.52968 -1.87149 0
M  V30 3114 C 323.363 -2.97486 -2.02914 0
M  V30 3115 C 323.216 -4.31579 -1.26727 0
M  V30 3116 C 324.535 -3.19422 -3.0275 0
M  V30 3117 H 321.654 -0.62301 -0.393735 0
M  V30 3118 H 324.296 -1.8645 -0.365563 0
M  V30 3119 H 322.446 -2.84629 -2.64421 0
M  V30 3120 H 324.118 -4.56284 -0.67845 0
M  V30 3121 H 322.361 -4.30049 -0.569273 0
M  V30 3122 H 323.032 -5.16106 -1.95803 0
M  V30 3123 H 325.508 -3.316 -2.51357 0
M  V30 3124 H 324.384 -4.09169 -3.65885 0
M  V30 3125 H 324.645 -2.35656 -3.74057 0
M  V30 3126 N 323.704 0.605807 -1.45491 0
M  V30 3127 C 325.12 0.926751 -1.29936 0
M  V30 3128 C 325.32 1.99896 -0.253706 0
M  V30 3129 O 324.376 2.50038 0.351737 0
M  V30 3130 C 325.689 1.36599 -2.67883 0
M  V30 3131 C 327.237 1.4801 -2.75793 0
M  V30 3132 C 327.712 1.95309 -4.14268 0
M  V30 3133 N 329.203 2.0254 -4.16571 0
M  V30 3134 C 329.938 2.40363 -5.20589 0
M  V30 3135 N 329.434 2.77143 -6.34952 0
M  V30 3136 N 331.227 2.40718 -5.07948 0
M  V30 3137 H 323.378 -0.102862 -2.12151 0
M  V30 3138 H 325.641 0.016639 -0.947854 0
M  V30 3139 H 325.347 0.652306 -3.45598 0
M  V30 3140 H 325.221 2.33215 -2.96463 0
M  V30 3141 H 327.608 2.1847 -1.98381 0
M  V30 3142 H 327.689 0.497041 -2.50925 0
M  V30 3143 H 327.333 1.25436 -4.92167 0
M  V30 3144 H 327.263 2.94532 -4.3653 0
M  V30 3145 H 329.754 1.76699 -3.34045 0
M  V30 3146 H 330.067 3.0489 -7.10114 0
M  V30 3147 H 328.412 2.74834 -6.3835 0
M  V30 3148 H 331.603 2.11392 -4.1765 0
M  V30 3149 H 331.776 2.69869 -5.89131 0
M  V30 3150 N 325.182 1.32811 0.848464 0
M  V30 3151 C 326.112 1.24882 1.97299 0
M  V30 3152 C 327.093 0.131357 1.69592 0
M  V30 3153 O 328.278 0.319553 1.91553 0
M  V30 3154 C 325.408 0.97746 3.33261 0
M  V30 3155 C 324.362 2.05682 3.75338 0
M  V30 3156 C 323.688 1.63777 5.09 0
M  V30 3157 C 324.988 3.47254 3.90144 0
M  V30 3158 H 326.682 2.18966 2.04191 0
M  V30 3159 H 324.228 1.05413 0.981029 0
M  V30 3160 H 326.181 0.908513 4.1149 0
M  V30 3161 H 324.905 0.000980011 3.266 0
M  V30 3162 H 323.564 2.11603 2.99366 0
M  V30 3163 H 323.212 0.648569 4.98801 0
M  V30 3164 H 322.912 2.36 5.38124 0
M  V30 3165 H 324.436 1.5833 5.89715 0
M  V30 3166 H 325.85 3.43888 4.58709 0
M  V30 3167 H 324.247 4.1788 4.30693 0
M  V30 3168 H 325.317 3.86462 2.92874 0
M  V30 3169 N 326.66 -1.06551 1.16123 0
M  V30 3170 C 327.57 -2.17484 0.879662 0
M  V30 3171 C 328.586 -1.73377 -0.147104 0
M  V30 3172 O 329.762 -2.01379 0.0289128 0
M  V30 3173 C 326.827 -3.44591 0.381829 0
M  V30 3174 C 325.888 -4.0322 1.4735 0
M  V30 3175 C 325.121 -5.24261 0.999324 0
M  V30 3176 O 325.344 -5.70198 -0.151957 0
M  V30 3177 O 324.278 -5.74775 1.78653 0
M  V30 3178 H 328.104 -2.44075 1.80724 0
M  V30 3179 H 325.689 -1.16042 0.940992 0
M  V30 3180 H 327.571 -4.21254 0.111053 0
M  V30 3181 H 326.246 -3.19532 -0.51777 0
M  V30 3182 H 325.153 -3.2806 1.79798 0
M  V30 3183 H 326.486 -4.32568 2.34831 0
M  V30 3184 N 328.138 -0.959301 -1.25041 0
M  V30 3185 C 329.386 -0.615393 -1.92503 0
M  V30 3186 C 329.707 0.850969 -1.75452 0
M  V30 3187 O 328.977 1.60658 -1.12098 0
M  V30 3188 H 327.557 -0.224613 -0.712431 0
M  V30 3189 H 330.219 -1.21855 -1.5211 0
M  V30 3190 H 329.315 -0.848738 -3.00338 0
M  V30 3191 N 329.616 1.39756 -0.72842 0
M  V30 3192 C 331.027 1.83498 -0.344289 0
M  V30 3193 C 331.378 1.60868 1.12321 0
M  V30 3194 O 330.503 1.09634 1.86573 0
M  V30 3195 C 331.098 3.33114 -0.618112 0
M  V30 3196 C 329.657 3.753 -0.287549 0
M  V30 3197 C 328.804 2.62831 -0.884048 0
M  V30 3198 H 331.755 1.28842 -0.926578 0
M  V30 3199 H 331.776 3.80334 0.112349 0
M  V30 3200 H 331.288 3.49553 -1.68625 0
M  V30 3201 H 329.389 3.64451 0.775012 0
M  V30 3202 H 329.502 4.72945 -0.765512 0
M  V30 3203 H 327.866 2.52792 -0.311149 0
M  V30 3204 H 328.649 2.82078 -1.95671 0
M  V30 3205 N 331.094 0.475555 1.50254 0
M  V30 3206 C 332.057 -0.305016 2.27161 0
M  V30 3207 C 333.057 -0.916519 1.32123 0
M  V30 3208 O 334.247 -0.785003 1.5551 0
M  V30 3209 C 331.379 -1.43496 3.09227 0
M  V30 3210 H 332.572 0.369511 2.97615 0
M  V30 3211 H 330.125 0.229747 1.54602 0
M  V30 3212 H 330.86 -2.14441 2.43281 0
M  V30 3213 H 330.645 -1.00223 3.79075 0
M  V30 3214 H 332.135 -1.98548 3.67381 0
M  V30 3215 N 332.573 -1.56217 0.208337 0
M  V30 3216 C 333.819 -1.98242 -0.427552 0
M  V30 3217 C 334.152 -1.09554 -1.60348 0
M  V30 3218 O 333.427 -0.15035 -1.93918 0
M  V30 3219 C 333.71 -3.4931 -0.874907 0
M  V30 3220 C 333.563 -4.48773 0.303751 0
M  V30 3221 C 334.882 -4.04424 -1.73577 0
M  V30 3222 H 332.001 -0.720744 -0.153936 0
M  V30 3223 H 334.643 -1.87586 0.30192 0
M  V30 3224 H 332.793 -3.58522 -1.49648 0
M  V30 3225 H 334.465 -4.51586 0.941682 0
M  V30 3226 H 332.708 -4.23194 0.953375 0
M  V30 3227 H 333.379 -5.51976 -0.0519883 0
M  V30 3228 H 335.855 -3.98075 -1.21143 0
M  V30 3229 H 334.731 -5.1047 -2.01771 0
M  V30 3230 H 334.992 -3.50494 -2.69456 0
M  V30 3231 N 334.051 0.0651679 -1.57465 0
M  V30 3232 C 335.298 0.763063 -1.87573 0
M  V30 3233 C 335.626 1.77242 -0.800961 0
M  V30 3234 O 334.881 1.94651 0.202316 0
M  V30 3235 C 335.18 1.50081 -3.24362 0
M  V30 3236 C 334.846 0.630816 -4.46466 0
M  V30 3237 C 333.508 0.391082 -4.79608 0
M  V30 3238 C 335.86 0.0279465 -5.21193 0
M  V30 3239 C 333.188 -0.460894 -5.84887 0
M  V30 3240 C 335.54 -0.811522 -6.27373 0
M  V30 3241 C 334.204 -1.06106 -6.59013 0
M  V30 3242 H 333.474 0.279224 -0.686378 0
M  V30 3243 H 336.121 0.0236726 -1.91485 0
M  V30 3244 H 334.426 2.31258 -3.16271 0
M  V30 3245 H 336.123 2.04571 -3.44894 0
M  V30 3246 H 332.713 0.8278 -4.2053 0
M  V30 3247 H 336.897 0.200262 -4.95896 0
M  V30 3248 H 332.153 -0.662907 -6.07796 0
M  V30 3249 H 336.327 -1.28537 -6.84435 0
M  V30 3250 H 333.954 -1.723 -7.40417 0
M  V30 3251 N 335.529 1.53961 0.336706 0
M  V30 3252 C 336.945 1.44378 0.680241 0
M  V30 3253 C 337.145 0.606034 1.9217 0
M  V30 3254 O 336.201 0.099688 2.52303 0
M  V30 3255 C 337.514 2.87945 0.8665 0
M  V30 3256 C 339.062 2.97763 0.964682 0
M  V30 3257 C 339.537 4.42453 1.18321 0
M  V30 3258 N 341.028 4.46008 1.25025 0
M  V30 3259 C 341.763 5.55102 1.43697 0
M  V30 3260 N 341.259 6.7419 1.59498 0
M  V30 3261 N 343.052 5.42727 1.463 0
M  V30 3262 H 335.203 2.06918 -0.479455 0
M  V30 3263 H 337.466 0.935634 -0.152619 0
M  V30 3264 H 337.172 3.51691 0.0256937 0
M  V30 3265 H 337.046 3.33293 1.76623 0
M  V30 3266 H 339.433 2.34153 1.796 0
M  V30 3267 H 339.514 2.55766 0.041708 0
M  V30 3268 H 339.158 5.06645 0.356788 0
M  V30 3269 H 339.088 4.82048 2.11985 0
M  V30 3270 H 341.579 3.60196 1.14312 0
M  V30 3271 H 341.892 7.53095 1.734 0
M  V30 3272 H 340.237 6.77123 1.56621 0
M  V30 3273 H 343.428 4.48647 1.33543 0
M  V30 3274 H 343.601 6.27806 1.6051 0
M  V30 3275 N 337.007 -0.598083 1.45811 0
M  V30 3276 C 338.253 -1.35679 1.51535 0
M  V30 3277 C 338.608 -1.91745 0.15864 0
M  V30 3278 O 337.901 -1.72654 -0.830724 0
M  V30 3279 C 338.095 -2.51669 2.53766 0
M  V30 3280 C 337.924 -2.06963 3.99245 0
M  V30 3281 C 336.694 -1.92693 4.67116 0
M  V30 3282 C 338.892 -1.63855 4.875 0
M  V30 3283 N 336.874 -1.41897 5.97276 0
M  V30 3284 C 338.245 -1.24541 6.07363 0
M  V30 3285 C 340.3 -1.51533 4.74281 0
M  V30 3286 C 339.003 -0.741354 7.15469 0
M  V30 3287 C 341.029 -1.0253 5.82444 0
M  V30 3288 C 340.391 -0.641869 7.01469 0
M  V30 3289 H 336.49 -0.490042 0.609412 0
M  V30 3290 H 339.074 -0.682687 1.82339 0
M  V30 3291 H 337.245 -3.16663 2.24898 0
M  V30 3292 H 338.977 -3.18578 2.4958 0
M  V30 3293 H 335.732 -2.1417 4.22408 0
M  V30 3294 H 336.156 -1.18704 6.66512 0
M  V30 3295 H 340.798 -1.798 3.82664 0
M  V30 3296 H 338.516 -0.446243 8.06867 0
M  V30 3297 H 342.102 -0.934088 5.74253 0
M  V30 3298 H 340.982 -0.268531 7.8374 0
M  V30 3299 N 338.485 -1.33259 -0.841409 0
M  V30 3300 C 339.448 -1.23221 -1.9326 0
M  V30 3301 C 340.448 -0.151895 -1.60081 0
M  V30 3302 O 341.638 -0.403246 -1.69468 0
M  V30 3303 C 338.77 -0.898123 -3.28856 0
M  V30 3304 H 339.963 -2.2021 -2.03587 0
M  V30 3305 H 337.516 -1.17281 -1.03319 0
M  V30 3306 H 338.251 0.0693841 -3.24226 0
M  V30 3307 H 338.036 -1.67934 -3.54317 0
M  V30 3308 H 339.526 -0.852563 -4.08805 0
M  V30 3309 N 339.963 1.05934 -1.16686 0
M  V30 3310 C 340.926 2.11669 -0.879144 0
M  V30 3311 C 341.926 1.60294 0.127445 0
M  V30 3312 O 343.116 1.7389 -0.103865 0
M  V30 3313 C 340.248 3.39438 -0.315425 0
M  V30 3314 H 341.441 2.38626 -1.81653 0
M  V30 3315 H 338.994 1.22058 -0.976299 0
M  V30 3316 H 339.729 3.18132 0.629468 0
M  V30 3317 H 339.514 3.78034 -1.04079 0
M  V30 3318 H 341.004 4.17391 -0.132189 0
M  V30 3319 N 341.441 0.965919 1.2453 0
M  V30 3320 C 342.688 0.626831 1.92554 0
M  V30 3321 C 343.016 -0.837739 1.75534 0
M  V30 3322 O 342.271 -1.61793 1.10098 0
M  V30 3323 C 342.57 0.945428 3.44669 0
M  V30 3324 C 342.236 2.39785 3.81856 0
M  V30 3325 C 340.898 2.79483 3.91718 0
M  V30 3326 C 343.25 3.34055 4.00071 0
M  V30 3327 C 340.578 4.12496 4.1721 0
M  V30 3328 C 342.93 4.66694 4.27059 0
M  V30 3329 C 341.594 5.06172 4.3514 0
M  V30 3330 H 340.864 0.229374 0.704605 0
M  V30 3331 H 343.511 1.21707 1.4785 0
M  V30 3332 H 341.816 0.272926 3.90848 0
M  V30 3333 H 343.513 0.661484 3.95507 0
M  V30 3334 H 340.103 2.08003 3.74743 0
M  V30 3335 H 344.287 3.04571 3.91855 0
M  V30 3336 H 339.543 4.42709 4.21685 0
M  V30 3337 H 343.717 5.3971 4.40097 0
M  V30 3338 H 341.344 6.09262 4.54646 0
M  V30 3339 N 342.919 -1.39368 0.735821 0
M  V30 3340 C 343.866 -2.30599 0.0963825 0
M  V30 3341 C 344.836 -1.49257 -0.728794 0
M  V30 3342 O 346.021 -1.77941 -0.688588 0
M  V30 3343 C 343.161 -3.35596 -0.804305 0
M  V30 3344 C 342.274 -4.31987 0.0335761 0
M  V30 3345 C 341.409 -5.24053 -0.868461 0
M  V30 3346 C 340.448 -6.12095 -0.0258776 0
M  V30 3347 N 339.585 -6.96514 -0.883893 0
M  V30 3348 H 344.425 -2.8471 0.880002 0
M  V30 3349 H 341.962 -1.40188 0.445619 0
M  V30 3350 H 343.92 -3.95062 -1.34096 0
M  V30 3351 H 342.55 -2.82938 -1.55389 0
M  V30 3352 H 341.602 -3.74133 0.68766 0
M  V30 3353 H 342.914 -4.94074 0.685036 0
M  V30 3354 H 342.068 -5.88549 -1.47293 0
M  V30 3355 H 340.807 -4.62289 -1.5537 0
M  V30 3356 H 339.812 -5.4661 0.591386 0
M  V30 3357 H 341.037 -6.75923 0.656156 0
M  V30 3358 H 338.983 -6.37318 -1.55441 0
M  V30 3359 H 338.9 -7.55448 -0.288931 0
M  V30 3360 H 340.168 -7.65439 -1.4739 0
M  V30 3361 N 344.397 -0.483516 -1.5 0
M  V30 3362 C 345.33 0.350427 -2.25493 0
M  V30 3363 C 346.308 0.985549 -1.29328 0
M  V30 3364 O 347.492 1.01906 -1.58579 0
M  V30 3365 C 344.619 1.49202 -3.04066 0
M  V30 3366 C 343.665 0.973036 -4.15252 0
M  V30 3367 S 344.498 -0.122237 -5.3536 0
M  V30 3368 C 345.654 1.02294 -6.17484 0
M  V30 3369 H 345.887 -0.290381 -2.95878 0
M  V30 3370 H 343.42 -0.268562 -1.52046 0
M  V30 3371 H 345.378 2.14623 -3.49925 0
M  V30 3372 H 344.039 2.10438 -2.33183 0
M  V30 3373 H 343.232 1.82804 -4.69679 0
M  V30 3374 H 342.834 0.396335 -3.71894 0
M  V30 3375 H 345.126 1.93195 -6.49371 0
M  V30 3376 H 346.069 0.517664 -7.06205 0
M  V30 3377 H 346.477 1.28238 -5.49741 0
M  V30 3378 N 345.875 1.56104 -0.216619 0
M  V30 3379 C 347.123 1.97781 0.415593 0
M  V30 3380 C 347.444 1.10536 1.60645 0
M  V30 3381 O 346.714 0.181303 1.95059 0
M  V30 3382 H 345.294 0.730415 0.156534 0
M  V30 3383 H 347.956 1.92445 -0.308366 0
M  V30 3384 H 347.052 3.03072 0.74525 0
M  V30 3385 N 347.353 -0.0568162 1.57498 0
M  V30 3386 C 348.63 -0.786954 1.79071 0
M  V30 3387 C 349.01 -1.95028 0.80792 0
M  V30 3388 O 348.358 -2.27968 -0.155858 0
M  V30 3389 C 348.568 -1.24594 3.26002 0
M  V30 3390 C 349.916 -1.67323 3.90241 0
M  V30 3391 O 350.94 -1.34124 3.29984 0
M  V30 3392 O 349.799 -2.28842 4.9628 0
M  V30 3393 H 346.893 -0.378262 0.735423 0
M  V30 3394 H 349.439 -0.035734 1.69662 0
M  V30 3395 H 348.211 -0.41423 3.89101 0
M  V30 3396 H 347.834 -2.05803 3.40192 0
M  V30 3397 N 348.832 -1.54138 -0.328536 0
M  V30 3398 C 350.078 -1.7236 -1.06865 0
M  V30 3399 C 350.411 -0.493231 -1.87832 0
M  V30 3400 O 349.686 0.5098 -1.877 0
M  V30 3401 C 349.969 -2.99621 -1.99747 0
M  V30 3402 C 349.822 -4.32899 -1.22143 0
M  V30 3403 C 351.141 -3.22615 -2.99345 0
M  V30 3404 H 348.26 -0.627151 -0.387105 0
M  V30 3405 H 350.902 -1.86827 -0.345767 0
M  V30 3406 H 349.052 -2.87418 -2.61387 0
M  V30 3407 H 350.724 -4.56978 -0.630017 0
M  V30 3408 H 348.967 -4.30628 -0.523628 0
M  V30 3409 H 349.638 -5.18154 -1.90318 0
M  V30 3410 H 352.114 -3.34248 -2.47826 0
M  V30 3411 H 350.99 -4.13027 -3.61524 0
M  V30 3412 H 351.251 -2.3961 -3.71536 0
M  V30 3413 N 350.31 0.590341 -1.46126 0
M  V30 3414 C 351.558 1.34616 -1.50742 0
M  V30 3415 C 351.879 1.94363 -0.157486 0
M  V30 3416 O 351.149 1.78136 0.815136 0
M  V30 3417 H 349.729 0.499789 -0.555175 0
M  V30 3418 H 352.391 0.691953 -1.82203 0
M  V30 3419 H 351.487 2.15678 -2.25587 0
M  V30 3420 N 351.788 1.33704 0.83433 0
M  V30 3421 C 353.204 1.13137 1.12571 0
M  V30 3422 C 353.404 -0.0747261 2.01361 0
M  V30 3423 O 352.46 -0.753647 2.4099 0
M  V30 3424 C 353.773 2.42105 1.78342 0
M  V30 3425 C 355.321 2.48054 1.90888 0
M  V30 3426 C 355.796 3.76995 2.60075 0
M  V30 3427 N 357.287 3.78092 2.67584 0
M  V30 3428 C 358.022 4.74574 3.21818 0
M  V30 3429 N 357.518 5.81434 3.76705 0
M  V30 3430 N 359.311 4.62044 3.20112 0
M  V30 3431 H 351.462 2.11 0.243489 0
M  V30 3432 H 353.725 0.932532 0.17055 0
M  V30 3433 H 353.431 3.30391 1.20561 0
M  V30 3434 H 353.305 2.54594 2.7832 0
M  V30 3435 H 355.692 1.60215 2.47821 0
M  V30 3436 H 355.773 2.39502 0.898459 0
M  V30 3437 H 355.417 4.65219 2.03799 0
M  V30 3438 H 355.347 3.82825 3.61597 0
M  V30 3439 H 357.838 3.00865 2.28667 0
M  V30 3440 H 358.151 6.51084 4.16305 0
M  V30 3441 H 356.496 5.85163 3.7498 0
M  V30 3442 H 359.687 3.77716 2.76493 0
M  V30 3443 H 359.86 5.37406 3.62076 0
M  V30 3444 N 353.266 -1.05314 1.17247 0
M  V30 3445 C 354.682 -1.30452 0.919473 0
M  V30 3446 C 354.882 -1.9703 -0.42209 0
M  V30 3447 O 353.938 -2.24311 -1.15935 0
M  V30 3448 C 355.251 -2.17551 2.07586 0
M  V30 3449 C 356.799 -2.30937 2.11275 0
M  V30 3450 C 357.274 -3.21396 3.26296 0
M  V30 3451 N 358.765 -3.28981 3.26076 0
M  V30 3452 C 359.5 -3.99095 4.11716 0
M  V30 3453 N 358.996 -4.71648 5.07465 0
M  V30 3454 N 360.789 -3.95247 3.9967 0
M  V30 3455 H 352.94 -0.604988 2.03602 0
M  V30 3456 H 355.203 -0.329368 0.888944 0
M  V30 3457 H 354.909 -1.75921 3.0454 0
M  V30 3458 H 354.783 -3.18182 2.02584 0
M  V30 3459 H 357.17 -2.71809 1.14907 0
M  V30 3460 H 357.251 -1.2994 2.20339 0
M  V30 3461 H 356.895 -2.81238 4.22927 0
M  V30 3462 H 356.825 -4.22395 3.14467 0
M  V30 3463 H 359.316 -2.77286 2.5675 0
M  V30 3464 H 359.629 -5.22705 5.6921 0
M  V30 3465 H 357.974 -4.70594 5.11435 0
M  V30 3466 H 361.165 -3.37691 3.24164 0
M  V30 3467 H 361.338 -4.4962 4.66632 0
M  V30 3468 N 354.744 -0.972509 -1.24016 0
M  V30 3469 C 355.707 -0.511403 -2.23422 0
M  V30 3470 C 356.707 0.394679 -1.55881 0
M  V30 3471 O 357.897 0.189469 -1.73167 0
M  V30 3472 C 355.029 0.258769 -3.39916 0
M  V30 3473 H 356.222 -1.39024 -2.6573 0
M  V30 3474 H 353.775 -0.757585 -1.36713 0
M  V30 3475 H 354.51 1.1545 -3.03054 0
M  V30 3476 H 354.295 -0.391522 -3.9014 0
M  V30 3477 H 355.785 0.570244 -4.13688 0
M  V30 3478 N 356.222 1.38976 -0.743202 0
M  V30 3479 C 357.155 2.28128 -0.0572165 0
M  V30 3480 C 358.133 1.44827 0.739182 0
M  V30 3481 O 359.317 1.74207 0.720009 0
M  V30 3482 C 356.444 3.25796 0.926001 0
M  V30 3483 C 355.49 4.25947 0.217099 0
M  V30 3484 S 356.323 5.24604 -1.07477 0
M  V30 3485 C 357.479 6.25829 -0.0943545 0
M  V30 3486 H 357.712 2.85961 -0.813246 0
M  V30 3487 H 355.245 1.44822 -0.535341 0
M  V30 3488 H 357.203 3.82583 1.48797 0
M  V30 3489 H 355.864 2.66966 1.65493 0
M  V30 3490 H 355.057 4.94746 0.961372 0
M  V30 3491 H 354.659 3.73002 -0.273059 0
M  V30 3492 H 356.951 6.73411 0.743239 0
M  V30 3493 H 357.894 7.0412 -0.749713 0
M  V30 3494 H 358.302 5.63797 0.281706 0
M  V30 3495 N 357.7 0.491464 1.49741 0
M  V30 3496 C 358.977 -0.118984 1.95238 0
M  V30 3497 C 359.357 -1.55044 1.43264 0
M  V30 3498 O 358.705 -2.19287 0.642287 0
M  V30 3499 C 358.915 -0.0414187 3.48975 0
M  V30 3500 C 360.263 -0.220133 4.24029 0
M  V30 3501 O 361.287 -0.117055 3.56008 0
M  V30 3502 O 360.146 -0.430567 5.44801 0
M  V30 3503 H 357.24 -0.100536 0.820866 0
M  V30 3504 H 359.786 0.553322 1.60426 0
M  V30 3505 H 358.558 0.957214 3.79412 0
M  V30 3506 H 358.181 -0.754292 3.9038 0
M  V30 3507 N 359.178 -1.55987 0.224894 0
M  V30 3508 C 360.141 -2.19178 -0.670348 0
M  V30 3509 C 361.141 -1.15461 -1.11917 0
M  V30 3510 O 362.331 -1.40675 -1.02743 0
M  V30 3511 C 359.463 -2.81777 -1.9187 0
M  V30 3512 H 360.656 -2.99662 -0.119364 0
M  V30 3513 H 358.209 -1.5628 -0.0247128 0
M  V30 3514 H 358.944 -2.05172 -2.51147 0
M  V30 3515 H 358.729 -3.57732 -1.60531 0
M  V30 3516 H 360.219 -3.30205 -2.55645 0
M  V30 3517 N 360.656 0.0484629 -1.57525 0
M  V30 3518 C 361.619 1.03956 -2.04269 0
M  V30 3519 C 362.619 1.30211 -0.943496 0
M  V30 3520 O 363.809 1.25539 -1.20771 0
M  V30 3521 C 360.941 2.37742 -2.44319 0
M  V30 3522 H 362.134 0.636182 -2.93075 0
M  V30 3523 H 359.687 0.294811 -1.53494 0
M  V30 3524 H 360.422 2.82866 -1.5861 0
M  V30 3525 H 360.207 2.20021 -3.24551 0
M  V30 3526 H 361.697 3.08936 -2.80978 0
M  V30 3527 N 362.134 1.5431 0.320358 0
M  V30 3528 C 363.382 1.72327 1.05583 0
M  V30 3529 C 363.703 0.50149 1.88441 0
M  V30 3530 O 362.973 -0.48448 1.89815 0
M  V30 3531 H 361.553 0.635387 0.3928 0
M  V30 3532 H 364.215 1.91621 0.356019 0
M  V30 3533 H 363.311 2.60426 1.72003 0
M  V30 3534 N 363.613 -0.582584 1.46437 0
M  V30 3535 C 364.859 -1.34278 1.51978 0
M  V30 3536 C 365.192 -1.93446 0.170973 0
M  V30 3537 O 364.467 -1.76481 -0.817608 0
M  V30 3538 C 364.75 -2.47203 2.61845 0
M  V30 3539 C 364.603 -1.93069 4.06257 0
M  V30 3540 C 365.922 -3.49247 2.67795 0
M  V30 3541 H 363.041 -0.486876 0.553282 0
M  V30 3542 H 365.683 -0.654437 1.78374 0
M  V30 3543 H 363.833 -3.0592 2.39469 0
M  V30 3544 H 365.505 -1.38808 4.3992 0
M  V30 3545 H 363.748 -1.23898 4.1573 0
M  V30 3546 H 364.419 -2.74586 4.7886 0
M  V30 3547 H 366.895 -3.00411 2.8791 0
M  V30 3548 H 365.771 -4.25719 3.46489 0
M  V30 3549 H 366.032 -4.06482 1.73852 0
M  V30 3550 N 365.091 -1.34144 -0.827227 0
M  V30 3551 C 366.507 -1.13732 -1.11969 0
M  V30 3552 C 366.707 0.0640463 -2.01398 0
M  V30 3553 O 365.763 0.740856 -2.41387 0
M  V30 3554 C 367.076 -2.43047 -1.77055 0
M  V30 3555 C 368.624 -2.49063 -1.89569 0
M  V30 3556 C 369.099 -3.78369 -2.58072 0
M  V30 3557 N 370.59 -3.79505 -2.65575 0
M  V30 3558 C 371.325 -4.76274 -3.19297 0
M  V30 3559 N 370.821 -5.83424 -3.73616 0
M  V30 3560 N 372.614 -4.63735 -3.17658 0
M  V30 3561 H 364.765 -2.11126 -0.232296 0
M  V30 3562 H 367.028 -0.933424 -0.165602 0
M  V30 3563 H 366.734 -3.31025 -1.18807 0
M  V30 3564 H 366.608 -2.56066 -2.76966 0
M  V30 3565 H 368.995 -1.61527 -2.46968 0
M  V30 3566 H 369.076 -2.39975 -0.885745 0
M  V30 3567 H 368.72 -4.66293 -2.01329 0
M  V30 3568 H 368.65 -3.84737 -3.59562 0
M  V30 3569 H 371.141 -3.02074 -2.27068 0
M  V30 3570 H 371.454 -6.53282 -4.12846 0
M  V30 3571 H 369.799 -5.87143 -3.71871 0
M  V30 3572 H 372.99 -3.79177 -2.74486 0
M  V30 3573 H 373.163 -5.39318 -3.59221 0
M  V30 3574 N 366.569 1.04691 -1.17803 0
M  V30 3575 C 367.98 1.59238 -0.974689 0
M  V30 3576 C 368.331 1.90306 0.477292 0
M  V30 3577 O 367.456 1.68846 1.35352 0
M  V30 3578 C 368.051 2.89318 -1.76296 0
M  V30 3579 C 366.61 3.40506 -1.60414 0
M  V30 3580 C 365.757 2.14172 -1.76141 0
M  V30 3581 H 368.708 0.874395 -1.32439 0
M  V30 3582 H 368.729 3.5944 -1.24833 0
M  V30 3583 H 368.241 2.66675 -2.81968 0
M  V30 3584 H 366.342 3.68175 -0.572519 0
M  V30 3585 H 366.455 4.14753 -2.39827 0
M  V30 3586 H 364.819 2.25176 -1.19028 0
M  V30 3587 H 365.602 1.93992 -2.83235 0
M  V30 3588 N 368.047 0.979072 1.23499 0
M  V30 3589 C 369.324 0.563674 1.87302 0
M  V30 3590 C 369.704 -0.959199 1.88049 0
M  V30 3591 O 369.052 -1.83535 1.36114 0
M  V30 3592 C 369.262 1.16822 3.28867 0
M  V30 3593 C 370.61 1.26014 4.0547 0
M  V30 3594 O 371.634 1.12158 3.38082 0
M  V30 3595 O 370.493 1.48044 5.26066 0
M  V30 3596 H 367.587 0.189602 0.804972 0
M  V30 3597 H 370.133 1.07407 1.31384 0
M  V30 3598 H 368.905 2.21049 3.22883 0
M  V30 3599 H 368.528 0.642564 3.92373 0
M  V30 3600 N 369.525 -1.3858 0.750561 0
M  V30 3601 C 370.457 -2.29057 0.0810714 0
M  V30 3602 C 371.47 -1.47596 -0.686973 0
M  V30 3603 O 372.659 -1.70495 -0.528563 0
M  V30 3604 C 369.759 -3.26475 -0.909247 0
M  V30 3605 C 368.932 -4.36945 -0.199478 0
M  V30 3606 C 367.991 -5.14572 -1.10011 0
M  V30 3607 O 367.017 -5.66321 -0.57177 0
M  V30 3608 N 368.219 -5.27262 -2.42849 0
M  V30 3609 H 370.984 -2.87153 0.858087 0
M  V30 3610 H 368.545 -1.50328 0.60109 0
M  V30 3611 H 370.537 -3.75285 -1.51471 0
M  V30 3612 H 369.107 -2.69298 -1.58736 0
M  V30 3613 H 368.327 -3.8981 0.586664 0
M  V30 3614 H 369.615 -5.07963 0.291783 0
M  V30 3615 H 369.013 -4.86763 -2.88233 0
M  V30 3616 H 367.57 -5.79456 -2.98453 0
M  V30 3617 N 371.003 -0.499398 -1.49478 0
M  V30 3618 C 372.252 0.0475259 -2.01644 0
M  V30 3619 C 372.565 1.38195 -1.38425 0
M  V30 3620 O 373.771 2.01547 -1.8191 0
M  V30 3621 C 372.227 0.135164 -3.59646 0
M  V30 3622 C 371.835 -1.19252 -4.31837 0
M  V30 3623 C 373.579 0.632538 -4.19761 0
M  V30 3624 C 371.486 -1.06713 -5.81693 0
M  V30 3625 H 370.416 0.0215349 -0.753692 0
M  V30 3626 H 373.067 -0.638577 -1.7203 0
M  V30 3627 H 371.449 0.885681 -3.85969 0
M  V30 3628 H 372.623 -1.9562 -4.17216 0
M  V30 3629 H 370.938 -1.62321 -3.83459 0
M  V30 3630 H 373.535 0.743833 -5.29501 0
M  V30 3631 H 373.878 1.63098 -3.83021 0
M  V30 3632 H 374.411 -0.0613987 -3.97753 0
M  V30 3633 H 371.15 -2.03979 -6.22955 0
M  V30 3634 H 370.67 -0.344307 -5.98811 0
M  V30 3635 H 372.349 -0.745208 -6.42694 0
M  V30 3636 N 372.481 1.55866 -0.233164 0
M  V30 3637 C 373.758 1.90471 0.444988 0
M  V30 3638 C 374.138 1.15209 1.7689 0
M  V30 3639 O 373.486 0.265119 2.26957 0
M  V30 3640 C 373.696 3.4333 0.626559 0
M  V30 3641 C 375.044 4.14319 0.92871 0
M  V30 3642 O 376.068 3.48993 0.712926 0
M  V30 3643 O 374.927 5.29846 1.33887 0
M  V30 3644 H 372.021 0.792347 0.236885 0
M  V30 3645 H 374.567 1.67437 -0.276211 0
M  V30 3646 H 373.339 3.90095 -0.306822 0
M  V30 3647 H 372.962 3.72181 1.39881 0
M  V30 3648 N 373.959 -0.0401083 1.57549 0
M  V30 3649 C 375.205 -0.734211 1.89043 0
M  V30 3650 C 375.538 -1.75591 0.829535 0
M  V30 3651 O 374.813 -1.93868 -0.156706 0
M  V30 3652 C 375.096 -1.41374 3.31188 0
M  V30 3653 C 374.949 -0.406299 4.47961 0
M  V30 3654 C 376.268 -2.35061 3.72068 0
M  V30 3655 H 373.387 -0.265447 0.687537 0
M  V30 3656 H 376.029 0.00294087 1.9 0
M  V30 3657 H 374.179 -2.04206 3.30503 0
M  V30 3658 H 375.851 0.219255 4.60779 0
M  V30 3659 H 374.094 0.275485 4.32924 0
M  V30 3660 H 374.765 -0.920022 5.44279 0
M  V30 3661 H 377.241 -1.82282 3.74049 0
M  V30 3662 H 376.117 -2.79593 4.72355 0
M  V30 3663 H 376.378 -3.21258 3.0372 0
M  V30 3664 N 375.437 -1.54477 -0.31217 0
M  V30 3665 C 376.684 -1.73227 -1.04875 0
M  V30 3666 C 377.012 -0.512042 -1.87639 0
M  V30 3667 O 376.267 0.506131 -1.89042 0
M  V30 3668 C 376.566 -2.967 -1.99258 0
M  V30 3669 C 376.232 -4.30974 -1.32559 0
M  V30 3670 C 374.894 -4.67477 -1.141 0
M  V30 3671 C 377.246 -5.14258 -0.847835 0
M  V30 3672 C 374.574 -5.84852 -0.465326 0
M  V30 3673 C 376.926 -6.32327 -0.185931 0
M  V30 3674 C 375.59 -6.67499 0.0107077 0
M  V30 3675 H 374.86 -0.633881 -0.383765 0
M  V30 3676 H 377.507 -1.88727 -0.324731 0
M  V30 3677 H 375.812 -2.75935 -2.7815 0
M  V30 3678 H 377.509 -3.08401 -2.563 0
M  V30 3679 H 374.099 -4.02262 -1.4793 0
M  V30 3680 H 378.283 -4.86565 -0.978192 0
M  V30 3681 H 373.539 -6.10654 -0.301883 0
M  V30 3682 H 377.713 -6.96135 0.192211 0
M  V30 3683 H 375.34 -7.58306 0.536287 0
M  V30 3684 N 376.915 0.57481 -1.46744 0
M  V30 3685 C 378.161 1.3347 -1.52688 0
M  V30 3686 C 378.494 1.93353 -0.181229 0
M  V30 3687 O 377.769 1.76912 0.808237 0
M  V30 3688 C 378.052 2.45811 -2.63152 0
M  V30 3689 C 377.905 1.90912 -4.07275 0
M  V30 3690 C 379.224 3.47822 -2.69644 0
M  V30 3691 H 376.343 0.483935 -0.555856 0
M  V30 3692 H 378.985 0.644968 -1.78718 0
M  V30 3693 H 377.135 3.04646 -2.41088 0
M  V30 3694 H 378.807 1.36473 -4.4065 0
M  V30 3695 H 377.05 1.21691 -4.16382 0
M  V30 3696 H 377.721 2.72042 -4.80309 0
M  V30 3697 H 380.197 2.9888 -2.895 0
M  V30 3698 H 379.073 4.23876 -3.48742 0
M  V30 3699 H 379.334 4.05555 -1.76005 0
M  V30 3700 N 378.394 1.34581 0.820102 0
M  V30 3701 C 379.805 1.24298 1.39309 0
M  V30 3702 C 380.156 -0.130351 1.95767 0
M  V30 3703 O 379.281 -1.0308 1.90272 0
M  V30 3704 C 379.876 2.25054 2.53251 0
M  V30 3705 C 378.435 2.18552 3.0645 0
M  V30 3706 C 377.582 2.11503 1.79337 0
M  V30 3707 H 380.533 1.45906 0.624262 0
M  V30 3708 H 380.554 1.86917 3.31425 0
M  V30 3709 H 380.066 3.24996 2.1213 0
M  V30 3710 H 378.167 1.21976 3.52069 0
M  V30 3711 H 378.28 3.0993 3.65349 0
M  V30 3712 H 376.644 1.57268 2.00347 0
M  V30 3713 H 377.427 3.13284 1.40386 0
M  V30 3714 N 379.872 -1.04064 1.18357 0
M  V30 3715 C 380.822 -2.10393 0.878561 0
M  V30 3716 C 381.806 -1.60183 -0.151713 0
M  V30 3717 O 382.998 -1.76923 0.0523303 0
M  V30 3718 C 380.127 -3.4089 0.406096 0
M  V30 3719 C 379.213 -3.97866 1.46844 0
M  V30 3720 N 379.604 -4.28657 2.68489 0
M  V30 3721 C 377.902 -4.2574 1.32896 0
M  V30 3722 C 378.603 -4.74253 3.36836 0
M  V30 3723 N 377.579 -4.75068 2.64219 0
M  V30 3724 H 381.381 -2.32076 1.80327 0
M  V30 3725 H 378.895 -1.21818 1.07397 0
M  V30 3726 H 380.892 -4.16557 0.169088 0
M  V30 3727 H 379.552 -3.20633 -0.512275 0
M  V30 3728 H 380.563 -4.18304 3.05356 0
M  V30 3729 H 377.24 -4.1481 0.473134 0
M  V30 3730 H 378.63 -5.07096 4.40798 0
M  V30 3731 N 381.35 -0.985608 -1.22978 0
M  V30 3732 C 382.282 -0.488154 -2.23941 0
M  V30 3733 C 383.295 0.41282 -1.57479 0
M  V30 3734 O 384.484 0.216121 -1.77187 0
M  V30 3735 C 381.584 0.312611 -3.37455 0
M  V30 3736 C 380.757 -0.582741 -4.33501 0
M  V30 3737 C 379.816 0.165064 -5.25941 0
M  V30 3738 O 378.842 -0.447077 -5.67442 0
M  V30 3739 N 380.044 1.44953 -5.62111 0
M  V30 3740 H 382.809 -1.3563 -2.67254 0
M  V30 3741 H 380.37 -0.859477 -1.37203 0
M  V30 3742 H 382.362 0.821357 -3.96277 0
M  V30 3743 H 380.932 1.0818 -2.93285 0
M  V30 3744 H 380.152 -1.27225 -3.73105 0
M  V30 3745 H 381.44 -1.19275 -4.94622 0
M  V30 3746 H 380.838 1.9683 -5.30353 0
M  V30 3747 H 379.395 1.90361 -6.23383 0
M  V30 3748 N 382.828 1.3818 -0.7579 0
M  V30 3749 C 383.791 2.28764 -0.141286 0
M  V30 3750 C 384.791 1.47388 0.642907 0
M  V30 3751 O 385.981 1.67781 0.468536 0
M  V30 3752 C 383.113 3.31184 0.808069 0
M  V30 3753 H 384.306 2.848 -0.939633 0
M  V30 3754 H 381.859 1.47212 -0.525191 0
M  V30 3755 H 382.594 2.80247 1.63193 0
M  V30 3756 H 382.379 3.91314 0.248104 0
M  V30 3757 H 383.869 3.98909 1.23536 0
M  V30 3758 N 384.306 0.507319 1.49211 0
M  V30 3759 C 385.254 -0.281364 2.30892 0
M  V30 3760 C 386.248 -0.95687 1.39787 0
M  V30 3761 O 387.454 -0.883838 1.56807 0
M  V30 3762 H 383.829 -0.109597 0.743971 0
M  V30 3763 H 385.8 0.42744 2.95323 0
M  V30 3764 C 384.549 -1.32918 3.21291 0
M  V30 3765 H 383.872 -0.818799 3.91326 0
M  V30 3766 H 385.312 -1.85288 3.81372 0
M  V30 3767 C 383.771 -2.35074 2.41333 0
M  V30 3768 O 384.301 -3.4108 2.12197 0
M  V30 3769 N 382.507 -2.07705 2.03241 0
M  V30 3770 H 382.054 -1.2152 2.27136 0
M  V30 3771 H 382.012 -2.76283 1.50051 0
M  V30 3772 N 385.784 -1.5574 0.241426 0
M  V30 3773 C 387.009 -2.0366 -0.392111 0
M  V30 3774 C 387.434 -1.11969 -1.51144 0
M  V30 3775 O 386.792 -0.111594 -1.80956 0
M  V30 3776 C 386.84 -3.49638 -0.882371 0
M  V30 3777 O 385.944 -3.6108 -1.99235 0
M  V30 3778 H 385.285 -0.658379 -0.0862122 0
M  V30 3779 H 387.815 -2.01302 0.365881 0
M  V30 3780 H 387.825 -3.90351 -1.18702 0
M  V30 3781 H 386.5 -4.15852 -0.0632361 0
M  V30 3782 H 385.077 -3.32262 -1.69282 0
M  V30 3783 N 387.262 0.0317525 -1.57568 0
M  V30 3784 C 388.678 0.38735 -1.54828 0
M  V30 3785 C 388.878 1.7677 -0.967187 0
M  V30 3786 O 387.934 2.45581 -0.587063 0
M  V30 3787 C 389.247 0.291667 -2.99282 0
M  V30 3788 C 390.795 0.368946 -3.10818 0
M  V30 3789 C 391.27 0.302741 -4.56998 0
M  V30 3790 N 392.761 0.361617 -4.61786 0
M  V30 3791 C 393.496 0.333238 -5.72431 0
M  V30 3792 N 392.992 0.257308 -6.92322 0
M  V30 3793 N 394.785 0.382769 -5.60795 0
M  V30 3794 H 386.936 -0.871609 -1.93692 0
M  V30 3795 H 389.199 -0.331161 -0.888277 0
M  V30 3796 H 388.905 -0.656794 -3.45513 0
M  V30 3797 H 388.779 1.08638 -3.61217 0
M  V30 3798 H 391.166 1.30784 -2.64536 0
M  V30 3799 H 391.247 -0.455066 -2.5172 0
M  V30 3800 H 390.891 -0.632473 -5.03947 0
M  V30 3801 H 390.821 1.14482 -5.14005 0
M  V30 3802 H 393.312 0.422923 -3.75526 0
M  V30 3803 H 393.625 0.24068 -7.72425 0
M  V30 3804 H 391.97 0.223396 -6.94641 0
M  V30 3805 H 395.161 0.44006 -4.66027 0
M  V30 3806 H 395.334 0.357184 -6.47015 0
M  V30 3807 N 388.74 1.54641 0.303973 0
M  V30 3808 C 389.989 1.7299 1.03717 0
M  V30 3809 C 390.302 0.521168 1.88529 0
M  V30 3810 O 391.508 0.586408 2.65092 0
M  V30 3811 C 389.964 3.06051 1.89369 0
M  V30 3812 C 389.572 4.34393 1.09574 0
M  V30 3813 C 391.316 3.3376 2.62306 0
M  V30 3814 C 389.223 5.58506 1.94486 0
M  V30 3815 H 388.153 0.64473 0.390947 0
M  V30 3816 H 390.804 1.81124 0.294328 0
M  V30 3817 H 389.186 2.91874 2.67629 0
M  V30 3818 H 390.36 4.59396 0.359485 0
M  V30 3819 H 388.675 4.13597 0.482324 0
M  V30 3820 H 391.272 4.23687 3.26181 0
M  V30 3821 H 391.615 2.52503 3.3098 0
M  V30 3822 H 392.148 3.48894 1.91097 0
M  V30 3823 H 388.887 6.42422 1.30287 0
M  V30 3824 H 388.407 5.37694 2.65792 0
M  V30 3825 H 390.086 5.95651 2.52605 0
M  V30 3826 N 390.218 -0.567019 1.47046 0
M  V30 3827 C 391.166 -1.69593 1.59188 0
M  V30 3828 C 392.16 -1.63046 0.459609 0
M  V30 3829 O 393.366 -1.6835 0.637058 0
M  V30 3830 H 389.741 -0.560993 0.500791 0
M  V30 3831 H 391.712 -1.56488 2.54075 0
M  V30 3832 C 390.461 -3.07964 1.61411 0
M  V30 3833 H 389.784 -3.13679 2.47881 0
M  V30 3834 H 391.224 -3.86671 1.73958 0
M  V30 3835 C 389.683 -3.35123 0.34559 0
M  V30 3836 O 390.213 -3.97812 -0.557521 0
M  V30 3837 N 388.419 -2.89699 0.22864 0
M  V30 3838 H 387.966 -2.38863 0.964479 0
M  V30 3839 H 387.924 -3.08242 -0.619192 0
M  V30 3840 N 391.696 -1.35014 -0.812953 0
M  V30 3841 C 392.606 -1.2951 -1.95613 0
M  V30 3842 C 393.622 -0.20107 -1.72834 0
M  V30 3843 O 394.798 -0.42932 -1.96771 0
M  V30 3844 C 391.863 -1.06033 -3.30088 0
M  V30 3845 C 390.924 -2.24688 -3.65805 0
M  V30 3846 C 390.157 -2.02322 -4.93864 0
M  V30 3847 O 390.38 -0.986464 -5.61805 0
M  V30 3848 O 389.314 -2.89525 -5.27692 0
M  V30 3849 H 393.14 -2.25705 -2.03202 0
M  V30 3850 H 390.725 -1.15321 -0.949811 0
M  V30 3851 H 392.607 -0.94763 -4.10607 0
M  V30 3852 H 391.282 -0.128852 -3.23443 0
M  V30 3853 H 390.189 -2.41521 -2.85689 0
M  V30 3854 H 391.522 -3.16261 -3.77147 0
M  V30 3855 N 393.175 1.03435 -1.18907 0
M  V30 3856 C 394.105 2.13503 -0.945448 0
M  V30 3857 C 395.086 1.69682 0.119189 0
M  V30 3858 O 396.271 1.94169 -0.034707 0
M  V30 3859 C 393.401 3.44004 -0.477316 0
M  V30 3860 C 392.355 4.0148 -1.48316 0
M  V30 3861 C 391.681 5.27537 -0.872311 0
M  V30 3862 C 392.981 4.36921 -2.86177 0
M  V30 3863 H 394.675 2.34141 -1.86597 0
M  V30 3864 H 392.221 1.12523 -0.898584 0
M  V30 3865 H 394.174 4.20372 -0.294204 0
M  V30 3866 H 392.898 3.23072 0.478786 0
M  V30 3867 H 391.557 3.27201 -1.65332 0
M  V30 3868 H 391.205 5.02917 0.0911752 0
M  V30 3869 H 390.905 5.66954 -1.54393 0
M  V30 3870 H 392.429 6.06576 -0.699871 0
M  V30 3871 H 393.843 5.04248 -2.72776 0
M  V30 3872 H 392.24 4.87405 -3.50081 0
M  V30 3873 H 393.31 3.46466 -3.39248 0
M  V30 3874 N 394.653 0.992116 1.22453 0
M  V30 3875 C 395.583 0.561677 2.26644 0
M  V30 3876 C 396.564 -0.411055 1.65059 0
M  V30 3877 O 397.749 -0.301861 1.9184 0
M  V30 3878 C 394.879 -0.125247 3.47074 0
M  V30 3879 C 393.833 0.765948 4.21091 0
M  V30 3880 C 393.159 -0.0538484 5.34673 0
M  V30 3881 C 394.459 2.06242 4.79856 0
M  V30 3882 H 396.153 1.43259 2.62902 0
M  V30 3883 H 393.699 0.690283 1.26377 0
M  V30 3884 H 395.652 -0.437764 4.1912 0
M  V30 3885 H 394.376 -1.03069 3.0991 0
M  V30 3886 H 393.035 1.0621 3.50878 0
M  V30 3887 H 392.683 -0.960188 4.9375 0
M  V30 3888 H 392.383 0.539415 5.85119 0
M  V30 3889 H 393.907 -0.360477 6.09535 0
M  V30 3890 H 395.321 1.8139 5.43848 0
M  V30 3891 H 393.718 2.60444 5.40638 0
M  V30 3892 H 394.788 2.74167 3.99951 0
M  V30 3893 N 396.131 -1.37776 0.765217 0
M  V30 3894 C 397.377 -2.00145 0.327072 0
M  V30 3895 C 397.71 -1.60607 -1.09175 0
M  V30 3896 O 396.985 -0.849127 -1.74986 0
M  V30 3897 C 397.268 -3.57109 0.46319 0
M  V30 3898 C 397.121 -4.06576 1.92395 0
M  V30 3899 C 398.44 -4.39888 -0.136473 0
M  V30 3900 H 395.559 -0.727113 0.120316 0
M  V30 3901 H 398.201 -1.63549 0.967039 0
M  V30 3902 H 396.351 -3.88414 -0.0816358 0
M  V30 3903 H 398.023 -3.85864 2.52798 0
M  V30 3904 H 396.266 -3.59011 2.43503 0
M  V30 3905 H 396.937 -5.15639 1.97028 0
M  V30 3906 H 399.413 -4.14803 0.328317 0
M  V30 3907 H 398.289 -5.48899 -0.0110582 0
M  V30 3908 H 398.55 -4.24758 -1.22608 0
M  V30 3909 N 397.609 -0.515225 -1.4894 0
M  V30 3910 C 398.556 0.255567 -2.29381 0
M  V30 3911 C 399.526 0.947387 -1.36432 0
M  V30 3912 O 400.711 0.951288 -1.65394 0
M  V30 3913 C 397.851 1.30551 -3.19453 0
M  V30 3914 C 396.964 0.624029 -4.27469 0
M  V30 3915 C 396.099 1.65563 -5.0474 0
M  V30 3916 C 395.138 0.956802 -6.04576 0
M  V30 3917 N 394.275 1.93326 -6.74959 0
M  V30 3918 H 399.115 -0.436607 -2.94784 0
M  V30 3919 H 396.652 -0.227154 -1.45336 0
M  V30 3920 H 398.61 1.92639 -3.70062 0
M  V30 3921 H 397.24 1.96626 -2.56004 0
M  V30 3922 H 396.292 -0.110459 -3.8024 0
M  V30 3923 H 397.604 0.0746092 -4.98744 0
M  V30 3924 H 396.758 2.35119 -5.59289 0
M  V30 3925 H 395.497 2.23893 -4.3327 0
M  V30 3926 H 394.502 0.247097 -5.49244 0
M  V30 3927 H 395.727 0.379814 -6.78037 0
M  V30 3928 H 393.673 2.50591 -6.06251 0
M  V30 3929 H 393.59 1.43489 -7.42258 0
M  V30 3930 H 394.858 2.62126 -7.34105 0
M  V30 3931 N 399.087 1.5561 -0.249682 0
M  V30 3932 C 400.035 2.22894 0.664906 0
M  V30 3933 C 401.029 1.21743 1.17792 0
M  V30 3934 O 402.235 1.39748 1.13449 0
M  V30 3935 H 398.61 0.715022 0.232912 0
M  V30 3936 H 400.581 2.98307 0.0742998 0
M  V30 3937 C 399.33 2.94424 1.84959 0
M  V30 3938 H 398.653 3.72031 1.46399 0
M  V30 3939 H 400.093 3.44862 2.4667 0
M  V30 3940 C 398.552 1.98454 2.72245 0
M  V30 3941 O 399.082 1.51939 3.71857 0
M  V30 3942 N 397.288 1.65496 2.38871 0
M  V30 3943 H 396.835 2.03517 1.57919 0
M  V30 3944 H 396.793 1.0155 2.97548 0
M  V30 3945 N 400.565 -0.0233959 1.57583 0
M  V30 3946 C 401.495 -1.02162 2.09965 0
M  V30 3947 C 402.476 -1.3735 1.00344 0
M  V30 3948 O 403.661 -1.46135 1.27899 0
M  V30 3949 C 400.791 -2.32081 2.58371 0
M  V30 3950 C 399.745 -2.1112 3.72307 0
M  V30 3951 C 399.071 -3.46848 4.06941 0
M  V30 3952 C 400.371 -1.49276 5.00514 0
M  V30 3953 H 402.065 -0.585557 2.93618 0
M  V30 3954 H 399.611 -0.280218 1.41247 0
M  V30 3955 H 401.564 -3.02249 2.93639 0
M  V30 3956 H 400.288 -2.77758 1.71808 0
M  V30 3957 H 398.947 -1.43384 3.37397 0
M  V30 3958 H 398.595 -3.90184 3.17436 0
M  V30 3959 H 398.295 -3.33646 4.83688 0
M  V30 3960 H 399.819 -4.18369 4.44747 0
M  V30 3961 H 401.233 -2.09368 5.33702 0
M  V30 3962 H 399.63 -1.46632 5.8191 0
M  V30 3963 H 400.7 -0.459217 4.82721 0
M  V30 3964 N 402.043 -1.548 -0.295768 0
M  V30 3965 C 402.975 -1.82492 -1.3867 0
M  V30 3966 C 403.988 -0.708134 -1.46592 0
M  V30 3967 O 405.177 -0.985686 -1.48817 0
M  V30 3968 C 402.277 -1.95256 -2.76999 0
M  V30 3969 C 401.45 -3.25709 -2.91946 0
M  V30 3970 C 400.509 -3.28824 -4.10806 0
M  V30 3971 O 399.535 -4.02328 -4.02643 0
M  V30 3972 N 400.737 -2.5459 -5.21694 0
M  V30 3973 H 403.502 -2.76646 -1.15269 0
M  V30 3974 H 401.063 -1.54438 -0.485849 0
M  V30 3975 H 403.055 -1.94736 -3.54768 0
M  V30 3976 H 401.625 -1.08072 -2.93324 0
M  V30 3977 H 400.845 -3.38959 -2.01247 0
M  V30 3978 H 402.133 -4.11786 -2.98847 0
M  V30 3979 H 401.531 -1.94512 -5.31208 0
M  V30 3980 H 400.088 -2.59818 -5.97778 0
M  V30 3981 N 403.521 0.559213 -1.47345 0
M  V30 3982 C 404.451 1.67622 -1.62558 0
M  V30 3983 C 405.432 1.63331 -0.475087 0
M  V30 3984 O 406.617 1.80983 -0.704182 0
M  V30 3985 C 403.747 3.0626 -1.63774 0
M  V30 3986 C 402.701 3.25397 -2.7803 0
M  V30 3987 C 402.027 4.64801 -2.64318 0
M  V30 3988 C 403.327 3.10965 -4.19641 0
M  V30 3989 H 405.021 1.55146 -2.56067 0
M  V30 3990 H 402.567 0.744961 -1.23233 0
M  V30 3991 H 404.52 3.84247 -1.73008 0
M  V30 3992 H 403.244 3.1969 -0.66825 0
M  V30 3993 H 401.903 2.49817 -2.68304 0
M  V30 3994 H 401.551 4.75028 -1.65401 0
M  V30 3995 H 401.251 4.78555 -3.40968 0
M  V30 3996 H 402.775 5.44926 -2.75478 0
M  V30 3997 H 404.189 3.78772 -4.30354 0
M  V30 3998 H 402.586 3.36229 -4.97062 0
M  V30 3999 H 403.656 2.07736 -4.38148 0
M  V30 4000 N 404.999 1.35443 0.805782 0
M  V30 4001 C 406.415 1.15499 1.10146 0
M  V30 4002 C 406.615 -0.0319975 2.01475 0
M  V30 4003 O 405.671 -0.70236 2.42535 0
M  V30 4004 C 406.984 2.45833 1.73166 0
M  V30 4005 C 408.532 2.52047 1.85583 0
M  V30 4006 C 409.007 3.82427 2.52019 0
M  V30 4007 N 410.498 3.83682 2.59504 0
M  V30 4008 C 411.233 4.81294 3.11679 0
M  V30 4009 N 410.729 5.89294 3.64287 0
M  V30 4010 N 412.522 4.6873 3.1024 0
M  V30 4011 H 404.673 2.11469 0.198678 0
M  V30 4012 H 406.936 0.93594 0.150731 0
M  V30 4013 H 406.642 3.32874 1.13526 0
M  V30 4014 H 406.516 2.6044 2.72857 0
M  V30 4015 H 408.903 1.65435 2.44367 0
M  V30 4016 H 408.984 2.41354 0.847455 0
M  V30 4017 H 408.628 4.69437 1.93885 0
M  V30 4018 H 408.558 3.90409 3.53395 0
M  V30 4019 H 411.049 3.05648 2.22234 0
M  V30 4020 H 411.362 6.59768 4.02401 0
M  V30 4021 H 409.707 5.92985 3.62483 0
M  V30 4022 H 412.898 3.83496 2.68419 0
M  V30 4023 H 413.071 5.44965 3.50596 0
M  V30 4024 N 406.477 -1.02803 1.19454 0
M  V30 4025 C 407.888 -1.57667 0.999899 0
M  V30 4026 C 408.239 -1.91041 -0.446956 0
M  V30 4027 O 407.364 -1.70978 -1.32648 0
M  V30 4028 C 407.959 -2.86477 1.80877 0
M  V30 4029 C 406.518 -3.37911 1.65811 0
M  V30 4030 C 405.665 -2.11343 1.79526 0
M  V30 4031 H 408.616 -0.853214 1.33813 0
M  V30 4032 H 408.637 -3.57408 1.30536 0
M  V30 4033 H 408.149 -2.62155 2.86175 0
M  V30 4034 H 406.25 -3.67218 0.63102 0
M  V30 4035 H 406.363 -4.10885 2.46395 0
M  V30 4036 H 404.727 -2.23254 1.22596 0
M  V30 4037 H 405.51 -1.89461 2.86285 0
M  V30 4038 N 407.956 -0.998596 -1.21925 0
M  V30 4039 C 409.233 -0.593401 -1.86382 0
M  V30 4040 C 409.613 0.92916 -1.89552 0
M  V30 4041 O 408.961 1.81347 -1.39017 0
M  V30 4042 C 409.171 -1.22039 -3.26967 0
M  V30 4043 C 410.519 -1.32449 -4.03413 0
M  V30 4044 O 411.543 -1.17522 -3.36254 0
M  V30 4045 O 410.402 -1.56395 -5.23644 0
M  V30 4046 H 407.496 -0.202385 -0.801854 0
M  V30 4047 H 410.042 -1.09484 -1.29659 0
M  V30 4048 H 408.814 -2.26158 -3.19325 0
M  V30 4049 H 408.437 -0.704906 -3.91301 0
M  V30 4050 N 409.434 1.37368 -0.772513 0
M  V30 4051 C 410.397 2.28601 -0.165541 0
M  V30 4052 C 411.397 1.48062 0.627238 0
M  V30 4053 O 412.587 1.68268 0.450715 0
M  V30 4054 C 409.719 3.32023 0.772897 0
M  V30 4055 H 410.912 2.83787 -0.969787 0
M  V30 4056 H 408.465 1.46647 -0.540775 0
M  V30 4057 H 409.2 2.81962 1.60212 0
M  V30 4058 H 408.985 3.91555 0.206585 0
M  V30 4059 H 410.475 4.00197 1.19298 0
M  V30 4060 N 410.912 0.523116 1.48665 0
M  V30 4061 C 412.158 -0.0134963 2.02796 0
M  V30 4062 C 412.491 -1.34582 1.40004 0
M  V30 4063 O 411.766 -1.86756 0.543381 0
M  V30 4064 C 412.049 -0.14276 3.59817 0
M  V30 4065 C 411.902 1.21425 4.331 0
M  V30 4066 C 413.221 -0.872856 4.31357 0
M  V30 4067 H 410.34 -0.00343074 0.736992 0
M  V30 4068 H 412.982 0.678816 1.7746 0
M  V30 4069 H 411.132 -0.732401 3.81534 0
M  V30 4070 H 412.804 1.84447 4.2282 0
M  V30 4071 H 411.047 1.79791 3.94788 0
M  V30 4072 H 411.718 1.07687 5.41394 0
M  V30 4073 H 414.194 -0.372555 4.14429 0
M  V30 4074 H 413.07 -0.932185 5.40927 0
M  V30 4075 H 413.331 -1.92161 3.98154 0
M  V30 4076 N 412.39 -1.55475 0.257931 0
M  V30 4077 C 413.636 -1.99502 -0.364266 0
M  V30 4078 C 413.969 -1.146 -1.56782 0
M  V30 4079 O 413.244 -0.211968 -1.93342 0
M  V30 4080 C 413.527 -3.51917 -0.763333 0
M  V30 4081 C 413.38 -4.4758 0.446371 0
M  V30 4082 C 414.699 -4.09742 -1.60623 0
M  V30 4083 H 411.818 -0.725277 -0.130929 0
M  V30 4084 H 414.46 -1.8653 0.361446 0
M  V30 4085 H 412.61 -3.63101 -1.38166 0
M  V30 4086 H 414.282 -4.48362 1.08487 0
M  V30 4087 H 412.525 -4.19947 1.08753 0
M  V30 4088 H 413.196 -5.51862 0.123645 0
M  V30 4089 H 415.672 -4.01727 -1.08418 0
M  V30 4090 H 414.548 -5.16631 -1.85429 0
M  V30 4091 H 414.809 -3.58889 -2.58169 0
M  V30 4092 N 413.868 0.0150385 -1.57593 0
M  V30 4093 C 414.831 0.995996 -2.06428 0
M  V30 4094 C 415.831 1.2818 -0.970903 0
M  V30 4095 O 417.021 1.22949 -1.23406 0
M  V30 4096 C 414.153 2.32506 -2.49307 0
M  V30 4097 H 415.346 0.573873 -2.94358 0
M  V30 4098 H 412.899 0.262186 -1.54085 0
M  V30 4099 H 413.634 2.79438 -1.64575 0
M  V30 4100 H 413.419 2.13087 -3.29145 0
M  V30 4101 H 414.909 3.02906 -2.87468 0
M  V30 4102 N 415.346 1.54954 0.287554 0
M  V30 4103 C 416.294 1.87606 1.37502 0
M  V30 4104 C 417.288 0.751001 1.51843 0
M  V30 4105 O 418.494 0.935169 1.53801 0
M  V30 4106 H 414.869 0.595231 0.459569 0
M  V30 4107 H 416.84 2.78477 1.07206 0
M  V30 4108 C 415.589 2.15183 2.73115 0
M  V30 4109 H 414.912 3.01234 2.62866 0
M  V30 4110 H 416.352 2.4196 3.48183 0
M  V30 4111 C 414.811 0.954686 3.2309 0
M  V30 4112 O 415.341 0.181949 4.01288 0
M  V30 4113 N 413.547 0.756368 2.80584 0
M  V30 4114 H 413.094 1.38643 2.17108 0
M  V30 4115 H 413.052 -0.0430391 3.14371 0
M  V30 4116 N 416.824 -0.551391 1.4764 0
M  V30 4117 C 418.101 -1.31229 1.45046 0
M  V30 4118 C 418.481 -2.10563 0.150527 0
M  V30 4119 O 417.829 -2.11374 -0.867956 0
M  V30 4120 C 418.039 -2.21189 2.69956 0
M  V30 4121 C 419.387 -2.82021 3.1741 0
M  V30 4122 O 420.411 -2.31488 2.70724 0
M  V30 4123 O 419.27 -3.73885 3.98588 0
M  V30 4124 H 416.364 -0.591193 0.578291 0
M  V30 4125 H 418.91 -0.569813 1.59847 0
M  V30 4126 H 417.682 -1.62207 3.56096 0
M  V30 4127 H 417.305 -3.02722 2.57769 0
M  V30 4128 N 418.302 -1.35869 -0.798587 0
M  V30 4129 C 419.551 -1.28921 -1.5512 0
M  V30 4130 C 419.864 0.13208 -1.95154 0
M  V30 4131 O 421.07 0.323879 -2.69561 0
M  V30 4132 C 419.526 -2.26141 -2.79979 0
M  V30 4133 C 419.134 -3.73658 -2.47151 0
M  V30 4134 C 420.878 -2.28152 -3.57976 0
M  V30 4135 C 418.785 -4.62679 -3.6835 0
M  V30 4136 H 417.715 -0.479031 -0.582276 0
M  V30 4137 H 420.366 -1.61179 -0.877125 0
M  V30 4138 H 418.748 -1.86865 -3.49138 0
M  V30 4139 H 419.922 -4.21616 -1.85947 0
M  V30 4140 H 418.237 -3.74333 -1.82383 0
M  V30 4141 H 420.834 -2.91875 -4.4801 0
M  V30 4142 H 421.177 -1.28748 -3.95891 0
M  V30 4143 H 421.71 -2.65998 -2.95787 0
M  V30 4144 H 418.449 -5.63111 -3.35538 0
M  V30 4145 H 417.969 -4.19442 -4.28752 0
M  V30 4146 H 419.648 -4.78498 -4.35487 0
M  V30 4147 N 419.78 1.02168 -1.19998 0
M  V30 4148 C 420.69 2.14069 -0.959774 0
M  V30 4149 C 421.706 1.73804 0.082655 0
M  V30 4150 O 422.882 2.01133 -0.103633 0
M  V30 4151 C 419.947 3.42936 -0.509459 0
M  V30 4152 C 419.008 3.97474 -1.62213 0
M  V30 4153 C 418.241 5.2019 -1.19321 0
M  V30 4154 O 418.464 5.70369 -0.0597726 0
M  V30 4155 O 417.398 5.67749 -1.99863 0
M  V30 4156 H 421.224 2.37199 -1.89658 0
M  V30 4157 H 418.809 1.12469 -0.983411 0
M  V30 4158 H 420.691 4.20551 -0.267322 0
M  V30 4159 H 419.366 3.21234 0.398821 0
M  V30 4160 H 418.273 3.21161 -1.9185 0
M  V30 4161 H 419.606 4.23555 -2.50723 0
M  V30 4162 N 421.258 1.00505 1.21394 0
M  V30 4163 C 422.208 0.536503 2.21598 0
M  V30 4164 C 423.192 -0.401914 1.55799 0
M  V30 4165 O 424.384 -0.226757 1.75541 0
M  V30 4166 C 421.513 -0.135446 3.43033 0
M  V30 4167 C 420.599 0.823992 4.16018 0
M  V30 4168 N 420.99 1.97683 4.6557 0
M  V30 4169 C 419.288 0.642387 4.4135 0
M  V30 4170 C 419.989 2.58003 5.21354 0
M  V30 4171 N 418.965 1.86162 5.1073 0
M  V30 4172 H 422.767 1.41557 2.57563 0
M  V30 4173 H 420.281 0.868878 1.37202 0
M  V30 4174 H 422.278 -0.488584 4.14027 0
M  V30 4175 H 420.938 -1.01049 3.08576 0
M  V30 4176 H 421.949 2.3572 4.61147 0
M  V30 4177 H 418.626 -0.185578 4.17087 0
M  V30 4178 H 420.016 3.555 5.70149 0
M  V30 4179 N 422.737 -1.36956 0.779787 0
M  V30 4180 C 423.965 -2.03755 0.359398 0
M  V30 4181 C 424.38 -1.58807 -1.02106 0
M  V30 4182 O 423.737 -0.773024 -1.6532 0
M  V30 4183 C 423.788 -3.59251 0.402568 0
M  V30 4184 O 423.509 -4.02557 1.72858 0
M  V30 4185 C 425.01 -4.43291 -0.0284068 0
M  V30 4186 H 422.23 -0.654148 0.149437 0
M  V30 4187 H 424.774 -1.75128 1.05595 0
M  V30 4188 H 422.929 -3.86621 -0.245478 0
M  V30 4189 H 423.343 -4.97111 1.67275 0
M  V30 4190 H 424.817 -5.51975 0.0529466 0
M  V30 4191 H 425.294 -4.25719 -1.07982 0
M  V30 4192 H 425.9 -4.21163 0.591758 0
M  V30 4193 N 424.215 -0.530993 -1.48385 0
M  V30 4194 C 425.463 0.00273189 -2.021 0
M  V30 4195 C 425.784 1.34672 -1.41027 0
M  V30 4196 O 425.054 1.8724 -0.576012 0
M  V30 4197 H 423.634 0.00399774 -0.746989 0
M  V30 4198 H 426.296 -0.695054 -1.82085 0
M  V30 4199 H 425.392 0.11031 -3.11905 0
M  V30 4200 N 425.693 1.55336 -0.266172 0
M  V30 4201 C 426.641 2.23587 0.641228 0
M  V30 4202 C 427.635 1.22986 1.16494 0
M  V30 4203 O 428.841 1.40943 1.1196 0
M  V30 4204 H 425.216 0.717452 0.225315 0
M  V30 4205 H 427.187 2.9837 0.0426561 0
M  V30 4206 C 425.936 2.96369 1.81826 0
M  V30 4207 H 425.259 3.73563 1.42445 0
M  V30 4208 H 426.699 3.47459 2.42998 0
M  V30 4209 C 425.158 2.0133 2.70125 0
M  V30 4210 O 425.688 1.55875 3.70224 0
M  V30 4211 N 423.894 1.6802 2.37102 0
M  V30 4212 H 423.441 2.05181 1.55751 0
M  V30 4213 H 423.399 1.047 2.96454 0
M  V30 4214 N 427.171 -0.0066808 1.57599 0
M  V30 4215 C 428.399 -0.704087 1.94551 0
M  V30 4216 C 428.814 -1.67677 0.867746 0
M  V30 4217 O 428.171 -1.8185 -0.153925 0
M  V30 4218 C 428.222 -1.44177 3.31505 0
M  V30 4219 O 427.943 -0.508097 4.35144 0
M  V30 4220 C 429.444 -2.23429 3.82876 0
M  V30 4221 H 426.664 -0.196523 0.641576 0
M  V30 4222 H 429.208 0.042453 2.04456 0
M  V30 4223 H 427.363 -2.13999 3.22929 0
M  V30 4224 H 427.777 -1.02782 5.14331 0
M  V30 4225 H 429.251 -2.70552 4.8115 0
M  V30 4226 H 429.728 -3.05818 3.15233 0
M  V30 4227 H 430.334 -1.58636 3.94607 0
M  V30 4228 N 428.649 -1.55105 -0.279332 0
M  V30 4229 C 429.874 -1.7976 -1.03446 0
M  V30 4230 C 430.299 -0.565952 -1.79384 0
M  V30 4231 O 429.657 0.484259 -1.74713 0
M  V30 4232 C 429.705 -3.0179 -1.97371 0
M  V30 4233 O 428.809 -2.76432 -3.06038 0
M  V30 4234 H 428.15 -0.594334 -0.29608 0
M  V30 4235 H 430.68 -2.02235 -0.310165 0
M  V30 4236 H 430.69 -3.30351 -2.39441 0
M  V30 4237 H 429.365 -3.91085 -1.4151 0
M  V30 4238 H 427.942 -2.58949 -2.68328 0
M  V30 4239 N 430.127 0.543554 -1.4793 0
M  V30 4240 C 431.09 1.63156 -1.60975 0
M  V30 4241 C 432.09 1.53346 -0.483899 0
M  V30 4242 O 433.28 1.5726 -0.749339 0
M  V30 4243 C 430.412 3.02743 -1.56716 0
M  V30 4244 H 431.605 1.52934 -2.57975 0
M  V30 4245 H 429.158 0.764557 -1.36324 0
M  V30 4246 H 429.893 3.18484 -0.611418 0
M  V30 4247 H 429.678 3.11272 -2.38438 0
M  V30 4248 H 431.168 3.81871 -1.6901 0
M  V30 4249 N 431.605 1.3629 0.791371 0
M  V30 4250 C 432.568 1.30309 1.88553 0
M  V30 4251 C 433.568 0.211204 1.59407 0
M  V30 4252 O 434.758 0.465865 1.67855 0
M  V30 4253 C 431.89 1.01956 3.25297 0
M  V30 4254 H 433.083 2.27614 1.95273 0
M  V30 4255 H 430.636 1.21035 0.988953 0
M  V30 4256 H 431.371 0.050998 3.2426 0
M  V30 4257 H 431.156 1.80968 3.4784 0
M  V30 4258 H 432.646 1.0037 4.05359 0
M  V30 4259 N 433.083 -1.0153 1.20538 0
M  V30 4260 C 434.308 -1.79283 1.04271 0
M  V30 4261 C 434.733 -1.8372 -0.403544 0
M  V30 4262 O 434.091 -1.27321 -1.2907 0
M  V30 4263 C 434.139 -3.21535 1.63241 0
M  V30 4264 O 433.243 -4.03099 0.870908 0
M  V30 4265 H 432.584 -0.55293 0.367647 0
M  V30 4266 H 435.114 -1.27696 1.59859 0
M  V30 4267 H 435.124 -3.72243 1.6703 0
M  V30 4268 H 433.799 -3.1762 2.68497 0
M  V30 4269 H 432.376 -3.61693 0.907323 0
M  V30 4270 N 434.561 -1.01147 -1.20859 0
M  V30 4271 C 435.81 -0.693214 -1.89413 0
M  V30 4272 C 436.123 0.779969 -1.79376 0
M  V30 4273 O 437.329 1.21057 -2.43017 0
M  V30 4274 C 435.785 -1.18949 -3.39675 0
M  V30 4275 C 435.393 -2.68921 -3.58309 0
M  V30 4276 C 437.137 -0.94642 -4.13815 0
M  V30 4277 C 435.044 -3.12056 -5.0237 0
M  V30 4278 H 433.974 -0.255595 -0.709357 0
M  V30 4279 H 436.625 -1.22349 -1.36759 0
M  V30 4280 H 435.007 -0.587228 -3.91622 0
M  V30 4281 H 436.181 -3.34652 -3.16772 0
M  V30 4282 H 434.496 -2.91314 -2.97532 0
M  V30 4283 H 437.093 -1.24417 -5.20023 0
M  V30 4284 H 437.436 0.117219 -4.16135 0
M  V30 4285 H 437.969 -1.5118 -3.67953 0
M  V30 4286 H 434.708 -4.17674 -5.05202 0
M  V30 4287 H 434.228 -2.51041 -5.44737 0
M  V30 4288 H 435.907 -3.04403 -5.70918 0
M  V30 4289 N 436.039 1.36541 -0.78704 0
M  V30 4290 C 437.45 1.81873 -0.421807 0
M  V30 4291 C 437.801 1.65487 1.05397 0
M  V30 4292 O 436.926 1.17448 1.81755 0
M  V30 4293 C 437.521 3.30192 -0.758841 0
M  V30 4294 C 436.08 3.73743 -0.446468 0
M  V30 4295 C 435.227 2.58844 -0.994728 0
M  V30 4296 H 438.178 1.24796 -0.98039 0
M  V30 4297 H 438.199 3.80468 -0.0490648 0
M  V30 4298 H 437.711 3.42087 -1.83299 0
M  V30 4299 H 435.812 3.6741 0.619739 0
M  V30 4300 H 435.925 4.69272 -0.965415 0
M  V30 4301 H 434.289 2.51245 -0.418087 0
M  V30 4302 H 435.072 2.73525 -2.07458 0
M  V30 4303 N 437.518 0.538854 1.48102 0
M  V30 4304 C 438.448 -0.207654 2.32575 0
M  V30 4305 C 439.429 -0.926559 1.4265 0
M  V30 4306 O 440.614 -0.91061 1.71527 0
M  V30 4307 C 437.744 -1.24957 3.24042 0
M  V30 4308 C 436.698 -0.648263 4.23062 0
M  V30 4309 C 436.024 -1.79348 5.03725 0
M  V30 4310 C 437.324 0.385897 5.20872 0
M  V30 4311 H 439.018 0.497534 2.95237 0
M  V30 4312 H 436.564 0.240715 1.41974 0
M  V30 4313 H 438.517 -1.77983 3.81969 0
M  V30 4314 H 437.241 -1.98446 2.59397 0
M  V30 4315 H 435.9 -0.139452 3.66335 0
M  V30 4316 H 435.548 -2.51696 4.35498 0
M  V30 4317 H 435.248 -1.39702 5.70751 0
M  V30 4318 H 436.772 -2.32735 5.64506 0
M  V30 4319 H 438.186 -0.057607 5.73271 0
M  V30 4320 H 436.583 0.700227 5.96001 0
M  V30 4321 H 437.653 1.28848 4.67468 0
M  V30 4322 N 438.996 -1.55193 0.274407 0
M  V30 4323 C 439.959 -2.212 -0.600279 0
M  V30 4324 C 440.959 -1.18963 -1.08187 0
M  V30 4325 O 442.149 -1.43873 -0.982158 0
M  V30 4326 C 439.281 -2.87739 -1.82809 0
M  V30 4327 H 440.474 -2.9989 -0.0239682 0
M  V30 4328 H 438.027 -1.5628 0.0250192 0
M  V30 4329 H 438.762 -2.13058 -2.44493 0
M  V30 4330 H 438.547 -3.62658 -1.49069 0
M  V30 4331 H 440.037 -3.38171 -2.45011 0
M  V30 4332 N 440.474 -0.00167713 -1.576 0
M  V30 4333 C 441.407 1.02317 -2.03977 0
M  V30 4334 C 442.385 1.33381 -0.929963 0
M  V30 4335 O 443.569 1.45517 -1.19822 0
M  V30 4336 C 440.696 2.35035 -2.43878 0
M  V30 4337 C 439.742 2.19621 -3.65607 0
M  V30 4338 S 440.575 1.52068 -5.13455 0
M  V30 4339 C 441.731 2.86212 -5.56627 0
M  V30 4340 H 441.964 0.628285 -2.90585 0
M  V30 4341 H 439.497 0.209239 -1.52976 0
M  V30 4342 H 441.455 3.11345 -2.67534 0
M  V30 4343 H 440.116 2.71663 -1.57665 0
M  V30 4344 H 439.309 3.1767 -3.91282 0
M  V30 4345 H 438.911 1.51455 -3.41961 0
M  V30 4346 H 441.203 3.82509 -5.59189 0
M  V30 4347 H 442.146 2.65235 -6.56549 0
M  V30 4348 H 442.554 2.90199 -4.84195 0
M  V30 4349 N 441.952 1.55251 0.271103 0
M  V30 4350 C 442.915 1.87484 1.31842 0
M  V30 4351 C 443.915 0.749545 1.42262 0
M  V30 4352 O 445.105 1.01771 1.4138 0
M  V30 4353 C 442.237 2.0818 2.69951 0
M  V30 4354 H 443.43 2.81108 1.0449 0
M  V30 4355 H 440.983 1.47771 0.509258 0
M  V30 4356 H 441.718 1.16944 3.02481 0
M  V30 4357 H 441.503 2.90114 2.63774 0
M  V30 4358 H 442.993 2.34385 3.4562 0
M  V30 4359 N 443.43 -0.535701 1.48216 0
M  V30 4360 C 444.34 -1.66785 1.64985 0
M  V30 4361 C 445.356 -1.65654 0.532414 0
M  V30 4362 O 446.532 -1.8471 0.80275 0
M  V30 4363 C 443.597 -3.0326 1.68031 0
M  V30 4364 C 442.658 -3.1529 2.9136 0
M  V30 4365 C 441.891 -4.45255 2.94252 0
M  V30 4366 O 442.114 -5.32011 2.05719 0
M  V30 4367 O 441.048 -4.6153 3.86359 0
M  V30 4368 H 444.874 -1.55576 2.60825 0
M  V30 4369 H 442.459 -0.70815 1.31551 0
M  V30 4370 H 444.341 -3.84436 1.72589 0
M  V30 4371 H 443.016 -3.14805 0.753628 0
M  V30 4372 H 441.923 -2.3343 2.92337 0
M  V30 4373 H 443.256 -3.08658 3.83394 0
M  V30 4374 N 444.908 -1.36708 -0.784132 0
M  V30 4375 C 445.838 -1.34153 -1.91116 0
M  V30 4376 C 446.819 -0.212121 -1.68772 0
M  V30 4377 O 448.004 -0.410581 -1.8981 0
M  V30 4378 C 445.134 -1.13535 -3.28218 0
M  V30 4379 C 444.088 -2.23356 -3.65097 0
M  V30 4380 C 443.414 -1.87875 -5.00607 0
M  V30 4381 C 444.714 -3.65473 -3.73131 0
M  V30 4382 H 446.408 -2.28459 -1.93512 0
M  V30 4383 H 443.954 -1.09973 -0.929618 0
M  V30 4384 H 445.907 -1.10381 -4.06687 0
M  V30 4385 H 444.631 -0.156804 -3.26223 0
M  V30 4386 H 443.29 -2.25645 -2.88929 0
M  V30 4387 H 442.938 -0.885814 -4.95139 0
M  V30 4388 H 442.638 -2.61406 -5.26252 0
M  V30 4389 H 444.162 -1.86286 -5.81489 0
M  V30 4390 H 445.576 -3.65382 -4.41779 0
M  V30 4391 H 443.973 -4.37953 -4.10265 0
M  V30 4392 H 445.043 -3.99995 -2.74102 0
M  V30 4393 N 446.386 1.0089 -1.21074 0
M  V30 4394 C 447.316 2.1145 -0.990523 0
M  V30 4395 C 448.297 1.69897 0.0831699 0
M  V30 4396 O 449.482 1.94052 -0.0758853 0
M  V30 4397 C 446.612 3.42914 -0.550177 0
M  V30 4398 C 445.566 3.98244 -1.56799 0
M  V30 4399 C 444.892 5.25568 -0.984013 0
M  V30 4400 C 446.192 4.30752 -2.95381 0
M  V30 4401 H 447.886 2.3013 -1.91521 0
M  V30 4402 H 445.432 1.10592 -0.92225 0
M  V30 4403 H 447.385 4.19653 -0.383305 0
M  V30 4404 H 446.109 3.24014 0.41015 0
M  V30 4405 H 444.768 3.23621 -1.72236 0
M  V30 4406 H 444.416 5.02998 -0.0155216 0
M  V30 4407 H 444.116 5.63551 -1.66384 0
M  V30 4408 H 445.64 6.04955 -0.828378 0
M  V30 4409 H 447.054 4.98349 -2.8341 0
M  V30 4410 H 445.451 4.79869 -3.60341 0
M  V30 4411 H 446.521 3.39192 -3.46521 0
M  V30 4412 N 447.864 1.01787 1.20321 0
M  V30 4413 C 449.092 0.727194 1.937 0
M  V30 4414 C 449.507 -0.712305 1.74848 0
M  V30 4415 O 448.864 -1.48327 1.06327 0
M  V30 4416 C 448.915 1.05497 3.45764 0
M  V30 4417 O 448.636 2.43794 3.64 0
M  V30 4418 C 450.137 0.785534 4.36285 0
M  V30 4419 H 447.357 0.266939 0.615617 0
M  V30 4420 H 449.901 1.35939 1.52777 0
M  V30 4421 H 448.056 0.468158 3.84561 0
M  V30 4422 H 448.47 2.55656 4.57974 0
M  V30 4423 H 449.944 1.06495 5.4163 0
M  V30 4424 H 450.421 -0.280273 4.38305 0
M  V30 4425 H 451.027 1.35456 4.03152 0
M  V30 4426 N 449.342 -1.36122 0.79427 0
M  V30 4427 C 450.57 -2.03362 0.380989 0
M  V30 4428 C 450.985 -1.59881 -1.00416 0
M  V30 4429 O 450.342 -0.790515 -1.6449 0
M  V30 4430 C 450.393 -3.58804 0.440649 0
M  V30 4431 O 450.114 -4.007 1.77118 0
M  V30 4432 C 451.615 -4.43296 0.0186117 0
M  V30 4433 H 448.835 -0.652526 0.156367 0
M  V30 4434 H 451.379 -1.73998 1.07447 0
M  V30 4435 H 449.534 -3.8686 -0.204458 0
M  V30 4436 H 449.948 -4.95309 1.72538 0
M  V30 4437 H 451.422 -5.51887 0.111488 0
M  V30 4438 H 451.899 -4.2684 -1.03461 0
M  V30 4439 H 452.505 -4.20512 0.636395 0
M  V30 4440 N 450.82 -0.546701 -1.47814 0
M  V30 4441 C 452.068 -0.0187037 -2.02091 0
M  V30 4442 C 452.389 1.33168 -1.42447 0
M  V30 4443 O 451.659 1.86619 -0.595839 0
M  V30 4444 H 450.239 -0.00392531 -0.74699 0
M  V30 4445 H 452.901 -0.714327 -1.81338 0
M  V30 4446 H 451.997 0.0772219 -3.12004 0
M  V30 4447 N 452.299 1.55045 -0.282633 0
M  V30 4448 C 453.262 2.21515 0.588539 0
M  V30 4449 C 454.262 1.19535 1.07554 0
M  V30 4450 O 455.452 1.44391 0.974514 0
M  V30 4451 C 452.584 2.88704 1.8128 0
M  V30 4452 H 453.777 2.99899 0.00806397 0
M  V30 4453 H 451.33 1.56265 -0.0333067 0
M  V30 4454 H 452.065 2.14352 2.43359 0
M  V30 4455 H 451.85 3.63443 1.47144 0
M  V30 4456 H 453.34 3.39465 2.43214 0
M  V30 4457 N 453.777 0.010035 1.57597 0
M  V30 4458 C 454.74 -0.963029 2.07986 0
M  V30 4459 C 455.74 -1.26619 0.991173 0
M  V30 4460 O 456.93 -1.2097 1.25347 0
M  V30 4461 C 454.062 -2.2851 2.52974 0
M  V30 4462 H 455.255 -0.526971 2.95234 0
M  V30 4463 H 452.808 -0.237639 1.54483 0
M  V30 4464 H 453.543 -2.76784 1.69 0
M  V30 4465 H 453.328 -2.07824 3.32493 0
M  V30 4466 H 454.818 -2.98294 2.9225 0
M  V30 4467 N 455.255 -1.55392 -0.262866 0
M  V30 4468 C 456.202 -1.88966 -1.32516 0
M  V30 4469 C 457.172 -0.742187 -1.48596 0
M  V30 4470 O 458.357 -0.99439 -1.62839 0
M  V30 4471 C 455.497 -2.17592 -2.67858 0
M  V30 4472 C 454.61 -3.45061 -2.59917 0
M  V30 4473 C 453.745 -3.63336 -3.87505 0
M  V30 4474 C 452.784 -4.84462 -3.74116 0
M  V30 4475 N 451.921 -4.99342 -4.93561 0
M  V30 4476 H 456.761 -2.79566 -1.03184 0
M  V30 4477 H 454.298 -1.38404 -0.498285 0
M  V30 4478 H 456.256 -2.3219 -3.46617 0
M  V30 4479 H 454.886 -1.30215 -2.95371 0
M  V30 4480 H 453.938 -3.38881 -1.72812 0
M  V30 4481 H 455.25 -4.3396 -2.45926 0
M  V30 4482 H 454.404 -3.77807 -4.74707 0
M  V30 4483 H 453.143 -2.72641 -4.04374 0
M  V30 4484 H 452.148 -4.69985 -2.85297 0
M  V30 4485 H 453.373 -5.76603 -3.58757 0
M  V30 4486 H 451.319 -4.1158 -5.10821 0
M  V30 4487 H 451.236 -5.82303 -4.82141 0
M  V30 4488 H 452.504 -5.18208 -5.82306 0
M  V30 4489 N 456.733 0.527833 -1.48498 0
M  V30 4490 C 458.144 1.10975 -1.50138 0
M  V30 4491 C 458.495 1.943 -0.272378 0
M  V30 4492 O 457.62 2.07319 0.620301 0
M  V30 4493 C 458.215 2.01927 -2.72049 0
M  V30 4494 C 456.774 2.55332 -2.76554 0
M  V30 4495 C 455.921 1.32341 -2.43683 0
M  V30 4496 H 458.872 0.312986 -1.55583 0
M  V30 4497 H 458.893 2.86244 -2.50689 0
M  V30 4498 H 458.405 1.41254 -3.61481 0
M  V30 4499 H 456.506 3.19721 -1.91336 0
M  V30 4500 H 456.619 2.94319 -3.78038 0
M  V30 4501 H 454.983 1.63989 -1.94884 0
M  V30 4502 H 455.766 0.734165 -3.35358 0
M  V30 4503 N 458.211 1.37122 0.776871 0
M  V30 4504 C 459.459 1.31787 1.53221 0
M  V30 4505 C 459.78 -0.0987589 1.9475 0
M  V30 4506 O 459.05 -1.0417 1.65908 0
M  V30 4507 H 457.63 0.484839 0.568278 0
M  V30 4508 H 460.292 1.71556 0.924917 0
M  V30 4509 H 459.388 1.95355 2.43398 0
M  V30 4510 N 459.689 -1.00246 1.21608 0
M  V30 4511 C 460.966 -1.71336 0.943568 0
M  V30 4512 C 461.346 -2.03972 -0.543943 0
M  V30 4513 O 460.694 -1.71545 -1.50946 0
M  V30 4514 C 460.904 -2.97094 1.83128 0
M  V30 4515 C 462.252 -3.70071 2.08165 0
M  V30 4516 O 463.276 -3.07081 1.80498 0
M  V30 4517 O 462.135 -4.83376 2.54971 0
M  V30 4518 H 459.229 -0.747386 0.354039 0
M  V30 4519 H 461.775 -1.05967 1.32549 0
M  V30 4520 H 460.547 -2.69407 2.83788 0
M  V30 4521 H 460.17 -3.70204 1.45034 0
M  V30 4522 N 461.167 -1.02423 -1.1978 0
M  V30 4523 C 462.097 -0.62157 -2.25075 0
M  V30 4524 C 463.078 0.367148 -1.6609 0
M  V30 4525 O 464.263 0.250892 -1.92573 0
M  V30 4526 C 461.393 0.0331826 -3.47284 0
M  V30 4527 C 460.347 -0.877323 -4.18912 0
M  V30 4528 C 459.673 -0.0879296 -5.34628 0
M  V30 4529 C 460.973 -2.18892 -4.74219 0
M  V30 4530 H 462.667 -1.50179 -2.59011 0
M  V30 4531 H 460.213 -0.723547 -1.24502 0
M  V30 4532 H 462.166 0.326488 -4.20133 0
M  V30 4533 H 460.89 0.948164 -3.12534 0
M  V30 4534 H 459.549 -1.15475 -3.47938 0
M  V30 4535 H 459.197 0.828941 -4.96123 0
M  V30 4536 H 458.897 -0.694359 -5.83483 0
M  V30 4537 H 460.421 0.198743 -6.10276 0
M  V30 4538 H 461.835 -1.95746 -5.38847 0
M  V30 4539 H 460.232 -2.74686 -5.33542 0
M  V30 4540 H 461.302 -2.84674 -3.92541 0
M  V30 4541 N 462.645 1.35699 -0.801477 0
M  V30 4542 C 463.608 2.28199 -0.213994 0
M  V30 4543 C 464.608 1.49359 0.595691 0
M  V30 4544 O 465.798 1.69186 0.414921 0
M  V30 4545 C 462.93 3.33587 0.702297 0
M  V30 4546 H 464.123 2.81666 -1.02976 0
M  V30 4547 H 461.676 1.45467 -0.571759 0
M  V30 4548 H 462.411 2.85297 1.54195 0
M  V30 4549 H 462.196 3.91906 0.123484 0
M  V30 4550 H 463.686 4.02638 1.10783 0
M  V30 4551 N 464.123 0.554532 1.47522 0
M  V30 4552 C 465.053 -0.182974 2.32782 0
M  V30 4553 C 466.034 -0.911377 1.43624 0
M  V30 4554 O 467.219 -0.892366 1.72483 0
M  V30 4555 C 464.349 -1.21513 3.25349 0
M  V30 4556 C 463.303 -0.603355 4.23726 0
M  V30 4557 C 462.629 -1.73995 5.05598 0
M  V30 4558 C 463.929 0.441121 5.20434 0
M  V30 4559 H 465.623 0.52882 2.94693 0
M  V30 4560 H 463.169 0.255759 1.41711 0
M  V30 4561 H 465.122 -1.73922 3.83835 0
M  V30 4562 H 463.846 -1.95683 2.61487 0
M  V30 4563 H 462.505 -0.10059 3.66462 0
M  V30 4564 H 462.153 -2.47063 4.38143 0
M  V30 4565 H 461.853 -1.3364 5.72201 0
M  V30 4566 H 463.377 -2.26735 5.66942 0
M  V30 4567 H 464.791 0.00319931 5.733 0
M  V30 4568 H 463.188 0.763402 5.95224 0
M  V30 4569 H 464.258 1.33799 4.66075 0
M  V30 4570 N 465.601 -1.54893 0.290851 0
M  V30 4571 C 466.531 -2.26103 -0.583084 0
M  V30 4572 C 467.512 -1.25684 -1.14619 0
M  V30 4573 O 468.697 -1.54436 -1.17741 0
M  V30 4574 C 465.827 -2.99409 -1.75987 0
M  V30 4575 C 464.781 -4.0689 -1.32758 0
M  V30 4576 C 464.107 -4.67856 -2.58872 0
M  V30 4577 C 465.407 -5.20215 -0.46624 0
M  V30 4578 H 467.101 -2.99398 0.0108214 0
M  V30 4579 H 464.647 -1.43998 0.00664468 0
M  V30 4580 H 466.6 -3.47943 -2.37727 0
M  V30 4581 H 465.324 -2.23675 -2.37985 0
M  V30 4582 H 463.983 -3.59191 -0.733299 0
M  V30 4583 H 463.631 -3.88772 -3.19163 0
M  V30 4584 H 463.331 -5.40438 -2.30653 0
M  V30 4585 H 464.855 -5.19147 -3.21433 0
M  V30 4586 H 466.269 -5.64704 -0.989047 0
M  V30 4587 H 464.666 -5.99455 -0.27826 0
M  V30 4588 H 465.736 -4.82198 0.511173 0
M  V30 4589 N 467.08 -0.0183926 -1.57589 0
M  V30 4590 C 468.329 0.66185 -1.90532 0
M  V30 4591 C 468.642 1.73904 -0.895366 0
M  V30 4592 O 469.848 2.47518 -1.11566 0
M  V30 4593 C 468.304 1.22844 -3.38286 0
M  V30 4594 C 467.912 0.185103 -4.47617 0
M  V30 4595 C 469.656 1.88581 -3.80312 0
M  V30 4596 C 467.563 0.762723 -5.86461 0
M  V30 4597 H 466.493 0.250972 -0.711006 0
M  V30 4598 H 469.144 -0.0819435 -1.83317 0
M  V30 4599 H 467.526 2.0235 -3.40398 0
M  V30 4600 H 468.7 -0.58671 -4.5705 0
M  V30 4601 H 467.015 -0.372889 -4.14727 0
M  V30 4602 H 469.612 2.32735 -4.81392 0
M  V30 4603 H 469.955 2.72408 -3.14801 0
M  V30 4604 H 470.488 1.15782 -3.80578 0
M  V30 4605 H 467.227 -0.0371713 -6.55489 0
M  V30 4606 H 466.747 1.50327 -5.80656 0
M  V30 4607 H 468.426 1.25576 -6.34697 0
M  V30 4608 N 468.558 1.5553 0.254621 0
M  V30 4609 C 469.806 1.7665 0.981793 0
M  V30 4610 C 470.127 0.580963 1.86145 0
M  V30 4611 O 469.397 -0.403537 1.91699 0
M  V30 4612 H 467.977 0.651475 0.365498 0
M  V30 4613 H 470.639 1.92958 0.274426 0
M  V30 4614 H 469.735 2.67486 1.60802 0
M  V30 4615 N 470.036 -0.519951 1.48776 0
M  V30 4616 C 471.266 -1.29783 1.60748 0
M  V30 4617 C 471.674 -1.87253 0.27072 0
M  V30 4618 O 471.017 -1.67628 -0.751438 0
M  V30 4619 C 471.079 -2.47984 2.60277 0
M  V30 4620 C 470.743 -2.11526 4.051 0
M  V30 4621 C 471.74 -1.66608 4.92481 0
M  V30 4622 C 469.425 -2.21742 4.50706 0
M  V30 4623 C 471.419 -1.32384 6.23501 0
M  V30 4624 C 469.106 -1.87129 5.81744 0
M  V30 4625 C 470.104 -1.42523 6.67964 0
M  V30 4626 O 469.792 -1.0837 7.96562 0
M  V30 4627 H 469.524 -0.400562 0.544542 0
M  V30 4628 H 472.078 -0.632879 1.95407 0
M  V30 4629 H 470.308 -3.17493 2.2076 0
M  V30 4630 H 471.997 -3.10036 2.61978 0
M  V30 4631 H 472.763 -1.58178 4.58481 0
M  V30 4632 H 468.642 -2.55415 3.83776 0
M  V30 4633 H 472.186 -0.974949 6.90754 0
M  V30 4634 H 468.083 -1.95204 6.15277 0
M  V30 4635 H 468.851 -1.21681 8.09405 0
M  V30 4636 N 471.514 -1.37532 -0.769588 0
M  V30 4637 C 472.762 -1.32597 -1.5252 0
M  V30 4638 C 473.083 0.0884294 -1.94799 0
M  V30 4639 O 472.353 1.03289 -1.66458 0
M  V30 4640 H 470.933 -0.487846 -0.565699 0
M  V30 4641 H 473.595 -1.72044 -0.915806 0
M  V30 4642 H 472.691 -1.96643 -2.42359 0
M  V30 4643 N 472.992 0.995999 -1.22138 0
M  V30 4644 C 473.955 2.06711 -0.990109 0
M  V30 4645 C 474.955 1.60744 0.0422978 0
M  V30 4646 O 476.145 1.73095 -0.195895 0
M  V30 4647 C 473.277 3.37288 -0.49491 0
M  V30 4648 H 474.47 2.28661 -1.94047 0
M  V30 4649 H 472.023 1.16711 -1.03963 0
M  V30 4650 H 472.758 3.21022 0.459948 0
M  V30 4651 H 472.543 3.71986 -1.23971 0
M  V30 4652 H 474.033 4.16103 -0.353253 0
M  V30 4653 N 474.47 1.03057 1.19235 0
M  V30 4654 C 475.718 0.726581 1.88587 0
M  V30 4655 C 476.039 -0.747227 1.80115 0
M  V30 4656 O 475.309 -1.53849 1.21274 0
M  V30 4657 H 473.889 0.265768 0.698124 0
M  V30 4658 H 476.551 1.30516 1.44746 0
M  V30 4659 H 475.647 1.0224 2.94879 0
M  V30 4660 N 475.948 -1.35272 0.808662 0
M  V30 4661 C 476.878 -2.32315 0.234981 0
M  V30 4662 C 477.859 -1.57572 -0.64071 0
M  V30 4663 O 479.044 -1.8563 -0.570551 0
M  V30 4664 C 476.174 -3.41801 -0.615601 0
M  V30 4665 C 475.128 -4.27694 0.161767 0
M  V30 4666 C 474.454 -5.28519 -0.810649 0
M  V30 4667 C 475.754 -5.04231 1.36193 0
M  V30 4668 H 477.448 -2.80543 1.04575 0
M  V30 4669 H 474.994 -1.3488 0.504315 0
M  V30 4670 H 476.947 -4.08693 -1.02702 0
M  V30 4671 H 475.671 -2.92186 -1.45928 0
M  V30 4672 H 474.33 -3.62384 0.554382 0
M  V30 4673 H 473.978 -4.75171 -1.64988 0
M  V30 4674 H 473.678 -5.8686 -0.294822 0
M  V30 4675 H 475.202 -5.98283 -1.22023 0
M  V30 4676 H 476.616 -5.64058 1.02528 0
M  V30 4677 H 475.013 -5.72077 1.81239 0
M  V30 4678 H 476.083 -4.34753 2.14751 0
M  V30 4679 N 477.426 -0.562348 -1.47226 0
M  V30 4680 C 478.651 -0.0432632 -2.07355 0
M  V30 4681 C 479.076 1.24332 -1.41149 0
M  V30 4682 O 478.434 1.74603 -0.488226 0
M  V30 4683 C 478.482 0.130288 -3.60365 0
M  V30 4684 O 477.586 1.19166 -3.94808 0
M  V30 4685 H 476.927 -0.0536334 -0.66183 0
M  V30 4686 H 479.457 -0.779495 -1.89169 0
M  V30 4687 H 479.467 0.342881 -4.06557 0
M  V30 4688 H 478.142 -0.809389 -4.07948 0
M  V30 4689 H 476.719 0.959153 -3.60354 0
M  V30 4690 N 478.904 1.54736 -0.299062 0
M  V30 4691 C 480.134 2.04215 0.312992 0
M  V30 4692 C 480.542 1.17596 1.48215 0
M  V30 4693 O 479.885 0.193835 1.82674 0
M  V30 4694 C 479.947 3.49696 0.833862 0
M  V30 4695 C 479.611 4.56518 -0.20977 0
M  V30 4696 C 480.608 5.09442 -1.03756 0
M  V30 4697 C 478.293 5.01073 -0.35091 0
M  V30 4698 C 480.287 6.05459 -1.99244 0
M  V30 4699 C 477.974 5.9691 -1.30924 0
M  V30 4700 C 478.972 6.48987 -2.1285 0
M  V30 4701 O 478.66 7.42947 -3.07059 0
M  V30 4702 H 478.392 0.672128 0.0722494 0
M  V30 4703 H 480.946 2.00718 -0.436043 0
M  V30 4704 H 479.176 3.5051 1.63339 0
M  V30 4705 H 480.865 3.82381 1.36159 0
M  V30 4706 H 481.631 4.75816 -0.939376 0
M  V30 4707 H 477.51 4.60168 0.276813 0
M  V30 4708 H 481.054 6.46031 -2.63229 0
M  V30 4709 H 476.951 6.29953 -1.40815 0
M  V30 4710 H 477.719 7.60743 -3.02015 0
M  V30 4711 N 480.382 0.0267497 1.57577 0
M  V30 4712 C 481.345 -0.940916 2.08996 0
M  V30 4713 C 482.345 -1.25561 1.00455 0
M  V30 4714 O 483.535 -1.19634 1.26623 0
M  V30 4715 C 480.667 -2.25814 2.55384 0
M  V30 4716 H 481.86 -0.495628 2.95776 0
M  V30 4717 H 479.413 -0.221241 1.54726 0
M  V30 4718 H 480.148 -2.74976 1.71926 0
M  V30 4719 H 479.933 -2.04285 3.34679 0
M  V30 4720 H 481.423 -2.95178 2.95398 0
M  V30 4721 N 481.861 -1.55662 -0.24637 0
M  V30 4722 C 482.824 -1.89558 -1.28842 0
M  V30 4723 C 483.824 -0.772082 -1.41052 0
M  V30 4724 O 485.014 -1.04007 -1.39743 0
M  V30 4725 C 482.146 -2.12449 -2.66605 0
M  V30 4726 H 483.339 -2.82735 -1.00004 0
M  V30 4727 H 480.892 -1.48562 -0.485684 0
M  V30 4728 H 481.627 -1.21742 -3.00582 0
M  V30 4729 H 481.412 -2.94273 -2.59125 0
M  V30 4730 H 482.902 -2.39854 -3.41847 0
M  V30 4731 N 483.339 0.512053 -1.4905 0
M  V30 4732 C 484.271 1.63121 -1.6101 0
M  V30 4733 C 485.284 1.55145 -0.493352 0
M  V30 4734 O 486.473 1.61278 -0.764955 0
M  V30 4735 C 483.573 3.01863 -1.54052 0
M  V30 4736 C 482.746 3.35138 -2.81072 0
M  V30 4737 C 481.805 4.5324 -2.67319 0
M  V30 4738 O 480.831 4.55571 -3.41238 0
M  V30 4739 N 482.033 5.52495 -1.78127 0
M  V30 4740 H 484.798 1.53292 -2.5753 0
M  V30 4741 H 482.359 0.699706 -1.45999 0
M  V30 4742 H 484.351 3.78774 -1.42521 0
M  V30 4743 H 482.921 3.05675 -0.654345 0
M  V30 4744 H 482.141 2.4723 -3.07036 0
M  V30 4745 H 483.429 3.54162 -3.65304 0
M  V30 4746 H 482.827 5.53403 -1.17308 0
M  V30 4747 H 481.384 6.28553 -1.72525 0
M  V30 4748 N 484.817 1.37938 0.762283 0
M  V30 4749 C 486.063 1.33866 1.52341 0
M  V30 4750 C 486.396 -0.0738961 1.94059 0
M  V30 4751 O 485.671 -1.03326 1.64785 0
M  V30 4752 C 485.954 2.28644 2.78197 0
M  V30 4753 C 485.807 3.78722 2.42672 0
M  V30 4754 C 487.126 2.21702 3.80179 0
M  V30 4755 H 484.245 0.487593 0.55265 0
M  V30 4756 H 486.887 1.68717 0.873767 0
M  V30 4757 H 485.037 1.99055 3.33631 0
M  V30 4758 H 486.709 4.18948 1.93081 0
M  V30 4759 H 484.952 3.96827 1.75244 0
M  V30 4760 H 485.623 4.40486 3.3268 0
M  V30 4761 H 488.099 2.47805 3.34263 0
M  V30 4762 H 486.975 2.90143 4.65949 0
M  V30 4763 H 487.236 1.21301 4.25133 0
M  V30 4764 N 486.295 -0.989507 1.22664 0
M  V30 4765 C 487.541 -1.7321 1.05481 0
M  V30 4766 C 487.874 -1.89852 -0.408635 0
M  V30 4767 O 487.149 -1.44416 -1.30285 0
M  V30 4768 C 487.432 -3.1357 1.77047 0
M  V30 4769 C 487.285 -3.04555 3.31008 0
M  V30 4770 C 488.604 -4.12812 1.5256 0
M  V30 4771 H 485.723 -0.628697 0.384589 0
M  V30 4772 H 488.365 -1.15258 1.51049 0
M  V30 4773 H 486.515 -3.63046 1.3831 0
M  V30 4774 H 488.187 -2.62674 3.7921 0
M  V30 4775 H 486.43 -2.41278 3.6051 0
M  V30 4776 H 487.101 -4.03894 3.76263 0
M  V30 4777 H 489.577 -3.72106 1.86215 0
M  V30 4778 H 488.453 -5.09132 2.05124 0
M  V30 4779 H 488.714 -4.39711 0.458936 0
M  V30 4780 N 487.773 -1.03688 -1.18687 0
M  V30 4781 C 489.189 -0.755413 -1.4059 0
M  V30 4782 C 489.389 0.656659 -1.905 0
M  V30 4783 O 488.445 1.42144 -2.08689 0
M  V30 4784 C 489.758 -1.7983 -2.41001 0
M  V30 4785 C 491.306 -1.81877 -2.54735 0
M  V30 4786 C 491.781 -2.85148 -3.58406 0
M  V30 4787 N 493.272 -2.84015 -3.6591 0
M  V30 4788 C 494.007 -3.60573 -4.45841 0
M  V30 4789 N 493.503 -4.46871 -5.29413 0
M  V30 4790 N 495.296 -3.49079 -4.40568 0
M  V30 4791 H 487.447 -1.94818 -0.846148 0
M  V30 4792 H 489.71 -0.842727 -0.434184 0
M  V30 4793 H 489.416 -2.81097 -2.1137 0
M  V30 4794 H 489.29 -1.62727 -3.40294 0
M  V30 4795 H 491.677 -0.812836 -2.83685 0
M  V30 4796 H 491.758 -2.03057 -1.55568 0
M  V30 4797 H 491.402 -3.85918 -3.30197 0
M  V30 4798 H 491.332 -2.61224 -4.57241 0
M  V30 4799 H 493.823 -2.21431 -3.0623 0
M  V30 4800 H 494.136 -5.02007 -5.87545 0
M  V30 4801 H 492.481 -4.5094 -5.28846 0
M  V30 4802 H 495.672 -2.81066 -3.74325 0
M  V30 4803 H 495.845 -4.08994 -5.02621 0
M  V30 4804 N 489.251 1.34841 -0.815825 0
M  V30 4805 C 490.184 2.27504 -0.178062 0
M  V30 4806 C 491.162 1.48542 0.661373 0
M  V30 4807 O 492.346 1.77779 0.626653 0
M  V30 4808 C 489.473 3.30246 0.752002 0
M  V30 4809 C 488.519 4.26499 -0.00899172 0
M  V30 4810 S 489.352 5.18169 -1.35134 0
M  V30 4811 C 490.508 6.24449 -0.42596 0
M  V30 4812 H 490.741 2.81248 -0.963684 0
M  V30 4813 H 488.274 1.41781 -0.611355 0
M  V30 4814 H 490.232 3.89933 1.28308 0
M  V30 4815 H 488.893 2.75363 1.51109 0
M  V30 4816 H 488.086 4.99146 0.697766 0
M  V30 4817 H 487.688 3.7103 -0.470396 0
M  V30 4818 H 489.98 6.76404 0.385234 0
M  V30 4819 H 490.923 6.99156 -1.1219 0
M  V30 4820 H 491.331 5.64497 -0.0175461 0
M  V30 4821 N 490.729 0.570148 1.46925 0
M  V30 4822 C 492.14 0.1402 1.86173 0
M  V30 4823 C 492.491 -1.29347 1.47526 0
M  V30 4824 O 491.616 -1.97508 0.884292 0
M  V30 4825 C 492.211 0.247661 3.37894 0
M  V30 4826 C 490.77 -0.127332 3.76185 0
M  V30 4827 C 489.917 0.589349 2.70965 0
M  V30 4828 H 492.868 0.779117 1.38259 0
M  V30 4829 H 492.889 -0.530341 3.76786 0
M  V30 4830 H 492.401 1.29121 3.65991 0
M  V30 4831 H 490.502 -1.17149 3.53704 0
M  V30 4832 H 490.615 0.240238 4.78497 0
M  V30 4833 H 488.979 0.0309824 2.54681 0
M  V30 4834 H 489.762 1.6343 3.01903 0
M  V30 4835 N 492.207 -1.54576 0.307264 0
M  V30 4836 C 493.154 -2.23751 -0.56604 0
M  V30 4837 C 494.124 -1.22235 -1.12462 0
M  V30 4838 O 495.309 -1.50873 -1.16799 0
M  V30 4839 C 492.449 -2.98661 -1.72903 0
M  V30 4840 C 491.562 -4.14963 -1.20124 0
M  V30 4841 C 490.697 -4.77441 -2.3286 0
M  V30 4842 C 489.736 -5.85875 -1.77247 0
M  V30 4843 N 488.873 -6.42282 -2.8358 0
M  V30 4844 H 493.713 -2.97984 0.0304578 0
M  V30 4845 H 491.25 -1.47076 0.0268015 0
M  V30 4846 H 493.208 -3.40329 -2.41313 0
M  V30 4847 H 491.838 -2.26793 -2.29706 0
M  V30 4848 H 490.89 -3.78193 -0.409198 0
M  V30 4849 H 492.202 -4.93066 -0.754171 0
M  V30 4850 H 491.356 -5.21993 -3.09205 0
M  V30 4851 H 490.095 -3.98684 -2.80896 0
M  V30 4852 H 489.1 -5.40741 -0.993926 0
M  V30 4853 H 490.325 -6.6652 -1.30107 0
M  V30 4854 H 488.271 -5.66406 -3.30939 0
M  V30 4855 H 488.188 -7.1575 -2.43388 0
M  V30 4856 H 489.456 -6.91492 -3.59804 0
M  V30 4857 N 493.685 -0.035106 -1.57561 0
M  V30 4858 C 494.933 0.64096 -1.91667 0
M  V30 4859 C 495.254 1.72323 -0.912681 0
M  V30 4860 O 494.524 1.95849 0.0449089 0
M  V30 4861 H 493.104 0.239743 -0.707483 0
M  V30 4862 H 495.766 -0.084321 -1.94718 0
M  V30 4863 H 494.862 1.08987 -2.92452 0
M  V30 4864 O 495.202 1.61149 0.106394 0
M  V30 4865 H 495.893 1.7916 0.736293 0
M  V30 END ATOM
M  V30 BEGIN BOND
M  V30 END BOND
M  V30 END CTAB
M  END
$$$$
