drugbank_target|P15692 Vascular endothelial growth factor A (DB00112; DB01017; DB01120; DB01136; DB01270; DB03088; DB04895; DB05294; DB05434; DB05890; DB05932; DB05969; DB06642; DB06779; DB08885; DB09301; DB10772; DB14864; DB15303)
 OpenBabel12092119253D

  0  0  0     0  0            999 V3000
M  V30 BEGIN CTAB
M  V30 COUNTS 3753 3801 0 0 0
M  V30 BEGIN ATOM
M  V30 1 H -0.908 1.98254 -0.117106 0
M  V30 2 N 0 1.576 0 0
M  V30 3 C 0.933 2.03868 1.02534 0
M  V30 4 C 1.911 0.928543 1.3348 0
M  V30 5 O 3.095 1.19667 1.45644 0
M  V30 6 C 0.222 2.43627 2.35294 0
M  V30 7 C -0.732 3.65373 2.2001 0
M  V30 8 S 0.101 5.13292 1.52614 0
M  V30 9 C 1.257 5.56322 2.86805 0
M  V30 10 H 1.49 2.90518 0.631377 0
M  V30 11 H -0.977 1.52953 0.210867 0
M  V30 12 H 0.981 2.67203 3.11629 0
M  V30 13 H -0.358 1.57376 2.7183 0
M  V30 14 H -1.165 3.90944 3.18086 0
M  V30 15 H -1.563 3.418 1.51819 0
M  V30 16 H 0.729 5.58782 3.83104 0
M  V30 17 H 1.672 6.56266 2.65933 0
M  V30 18 H 2.08 4.83886 2.90714 0
M  V30 19 N 1.4781 -0.272755 1.55222 0
M  V30 20 C 2.4261 -1.35705 1.88909 0
M  V30 21 C 3.4201 -1.5112 0.765456 0
M  V30 22 O 4.6261 -1.52901 0.949802 0
M  V30 23 H 1.0011 -0.453868 0.59959 0
M  V30 24 H 2.9721 -1.04544 2.79487 0
M  V30 25 C 1.7211 -2.71049 2.17779 0
M  V30 26 H 1.0441 -2.59979 3.03728 0
M  V30 27 H 2.4841 -3.45858 2.45272 0
M  V30 28 C 0.9431 -3.22165 0.985473 0
M  V30 29 O 1.4731 -4.01096 0.220233 0
M  V30 30 N -0.3209 -2.7985 0.783108 0
M  V30 31 H -0.7739 -2.15775 1.40708 0
M  V30 32 H -0.8159 -3.14397 -0.0130392 0
M  V30 33 N 2.9562 -1.48159 -0.537278 0
M  V30 34 C 4.2032 -1.55804 -1.29349 0
M  V30 35 C 4.5312 -0.228802 -1.9315 0
M  V30 36 O 3.7862 0.780242 -1.79473 0
M  V30 37 C 4.0852 -2.63956 -2.40961 0
M  V30 38 C 3.7512 -4.0662 -1.94861 0
M  V30 39 C 2.4132 -4.45452 -1.82006 0
M  V30 40 C 4.7652 -4.96055 -1.59933 0
M  V30 41 C 2.0932 -5.71531 -1.32547 0
M  V30 42 C 4.4452 -6.22617 -1.11939 0
M  V30 43 C 3.1092 -6.60312 -0.976951 0
M  V30 44 H 2.3792 -0.570129 -0.473322 0
M  V30 45 H 5.0262 -1.81845 -0.600372 0
M  V30 46 H 3.3312 -2.31747 -3.15912 0
M  V30 47 H 5.0282 -2.67089 -2.99107 0
M  V30 48 H 1.6182 -3.75949 -2.05815 0
M  V30 49 H 5.8022 -4.66738 -1.68728 0
M  V30 50 H 1.0582 -5.99468 -1.202 0
M  V30 51 H 5.2322 -6.91318 -0.839811 0
M  V30 52 H 2.8592 -7.57895 -0.591501 0
M  V30 53 N 4.4343 0.785586 -1.36625 0
M  V30 54 C 5.3643 1.91259 -1.33949 0
M  V30 55 C 6.3453 1.68795 -0.210325 0
M  V30 56 O 7.5303 1.89854 -0.408561 0
M  V30 57 C 4.6603 3.28339 -1.13186 0
M  V30 58 C 3.6143 3.65335 -2.22967 0
M  V30 59 C 2.9403 5.00806 -1.87342 0
M  V30 60 C 4.2403 3.7352 -3.65075 0
M  V30 61 H 5.9343 1.93755 -2.28253 0
M  V30 62 H 3.4803 0.930788 -1.09874 0
M  V30 63 H 5.4333 4.06804 -1.09948 0
M  V30 64 H 4.1573 3.2624 -0.153332 0
M  V30 65 H 2.8163 2.89169 -2.25337 0
M  V30 66 H 2.4643 4.95233 -0.880545 0
M  V30 67 H 2.1643 5.26529 -2.60846 0
M  V30 68 H 3.6883 5.81687 -1.85667 0
M  V30 69 H 5.1023 4.42168 -3.64911 0
M  V30 70 H 3.4993 4.10731 -4.37516 0
M  V30 71 H 4.5693 2.74527 -3.99703 0
M  V30 72 N 5.9124 1.20967 1.01018 0
M  V30 73 C 6.8424 0.988272 2.11555 0
M  V30 74 C 7.8234 -0.0849778 1.69888 0
M  V30 75 O 9.0084 0.0738202 1.9406 0
M  V30 76 C 6.1384 0.546528 3.42973 0
M  V30 77 C 5.0924 1.56375 3.9841 0
M  V30 78 C 4.4184 0.97842 5.25672 0
M  V30 79 C 5.7184 2.94922 4.31066 0
M  V30 80 H 7.4124 1.91276 2.30334 0
M  V30 81 H 4.9584 0.921073 1.1069 0
M  V30 82 H 6.9114 0.378839 4.19694 0
M  V30 83 H 5.6354 -0.413598 3.23971 0
M  V30 84 H 4.2944 1.71891 3.23804 0
M  V30 85 H 3.9424 0.0101688 5.02999 0
M  V30 86 H 3.6424 1.65784 5.63728 0
M  V30 87 H 5.1664 0.821939 6.05043 0
M  V30 88 H 6.5804 2.8288 4.9865 0
M  V30 89 H 4.9774 3.5983 4.80253 0
M  V30 90 H 6.0474 3.4616 3.39561 0
M  V30 91 N 7.3905 -1.2043 1.01659 0
M  V30 92 C 8.6155 -1.94318 0.724942 0
M  V30 93 C 9.0405 -1.74266 -0.708034 0
M  V30 94 O 8.3985 -1.03694 -1.48719 0
M  V30 95 C 8.4465 -3.44486 1.06591 0
M  V30 96 O 7.5505 -4.12017 0.177599 0
M  V30 97 H 6.8915 -0.60708 0.26898 0
M  V30 98 H 9.4215 -1.52861 1.35995 0
M  V30 99 H 9.4315 -3.95106 1.01762 0
M  V30 100 H 8.1065 -3.58404 2.10997 0
M  V30 101 H 6.6835 -3.71821 0.283421 0
M  V30 102 N 8.8686 -0.792821 -1.36206 0
M  V30 103 C 10.1146 -0.376415 -1.99887 0
M  V30 104 C 10.4696 1.04127 -1.61788 0
M  V30 105 O 9.7626 1.71004 -0.864193 0
M  V30 106 C 9.9566 -0.481501 -3.54142 0
M  V30 107 C 9.7856 -1.90786 -4.07223 0
M  V30 108 C 8.5556 -2.53322 -4.37214 0
M  V30 109 C 10.7536 -2.87048 -4.26741 0
M  V30 110 N 8.7356 -3.8751 -4.7614 0
M  V30 111 C 10.1066 -4.06077 -4.6851 0
M  V30 112 C 12.1616 -2.8406 -4.08918 0
M  V30 113 C 10.8646 -5.22532 -4.94321 0
M  V30 114 C 12.8906 -3.99705 -4.35878 0
M  V30 115 C 12.2526 -5.1748 -4.77906 0
M  V30 116 H 8.3516 -0.185226 -0.759747 0
M  V30 117 H 10.9356 -1.03114 -1.65153 0
M  V30 118 H 9.1066 0.143154 -3.88136 0
M  V30 119 H 10.8386 -0.0410128 -4.04679 0
M  V30 120 H 7.5936 -2.04777 -4.2704 0
M  V30 121 H 8.0176 -4.5656 -4.99882 0
M  V30 122 H 12.6596 -1.94165 -3.75579 0
M  V30 123 H 10.3776 -6.1301 -5.2654 0
M  V30 124 H 13.9636 -3.98758 -4.23655 0
M  V30 125 H 12.8436 -6.05478 -4.98363 0
M  V30 126 N 10.3467 1.47872 -0.545128 0
M  V30 127 C 11.5927 2.02793 -0.0166104 0
M  V30 128 C 11.9257 1.41987 1.32489 0
M  V30 129 O 11.2007 0.571045 1.85928 0
M  V30 130 C 11.4837 3.59989 0.0893294 0
M  V30 131 C 11.3367 4.3125 -1.27841 0
M  V30 132 C 12.6557 4.32606 0.808724 0
M  V30 133 H 9.7747 0.736962 -0.00751035 0
M  V30 134 H 12.4167 1.76433 -0.705085 0
M  V30 135 H 10.5667 3.82579 0.675681 0
M  V30 136 H 12.2387 4.20035 -1.90704 0
M  V30 137 H 10.4817 3.92076 -1.85632 0
M  V30 138 H 11.1527 5.39736 -1.15713 0
M  V30 139 H 13.6287 4.14936 0.310992 0
M  V30 140 H 12.5047 5.42251 0.851782 0
M  V30 141 H 12.7657 4.00963 1.86229 0
M  V30 142 N 11.8248 0.280983 1.55075 0
M  V30 143 C 12.7748 -0.618585 2.19448 0
M  V30 144 C 13.7588 -1.11401 1.16098 0
M  V30 145 O 14.9508 -1.0581 1.41891 0
M  V30 146 C 12.0798 -1.79951 2.92357 0
M  V30 147 C 11.1658 -1.321 4.03002 0
M  V30 148 N 11.5568 -0.559044 5.02701 0
M  V30 149 C 9.8548 -1.60346 4.16179 0
M  V30 150 C 10.5558 -0.306722 5.80891 0
M  V30 151 N 9.5318 -0.880825 5.36416 0
M  V30 152 H 13.3338 -0.0286638 2.93886 0
M  V30 153 H 10.8478 0.0848104 1.62178 0
M  V30 154 H 12.8448 -2.45531 3.36927 0
M  V30 155 H 11.5048 -2.39333 2.19431 0
M  V30 156 H 12.5158 -0.205827 5.17491 0
M  V30 157 H 9.1928 -2.20621 3.54447 0
M  V30 158 H 10.5828 0.30391 6.71212 0
M  V30 159 N 13.3029 -1.57598 0.00835791 0
M  V30 160 C 14.5489 -1.92046 -0.670055 0
M  V30 161 C 14.9039 -0.88351 -1.70915 0
M  V30 162 O 14.1969 0.103223 -1.91322 0
M  V30 163 C 14.3909 -3.3101 -1.34787 0
M  V30 164 C 14.2199 -4.48126 -0.375945 0
M  V30 165 C 12.9899 -5.05297 0.0166914 0
M  V30 166 C 15.1879 -5.1303 0.361272 0
M  V30 167 N 13.1699 -6.05931 0.985952 0
M  V30 168 C 14.5409 -6.08571 1.18495 0
M  V30 169 C 16.5959 -4.9609 0.42421 0
M  V30 170 C 15.2989 -6.88996 2.06584 0
M  V30 171 C 17.3249 -5.77107 1.29236 0
M  V30 172 C 16.6869 -6.72248 2.10386 0
M  V30 173 H 12.7859 -0.75096 -0.218136 0
M  V30 174 H 15.3699 -1.94572 0.0706669 0
M  V30 175 H 13.5409 -3.29342 -2.05884 0
M  V30 176 H 15.2729 -3.52864 -1.98164 0
M  V30 177 H 12.0279 -4.72279 -0.353435 0
M  V30 178 H 12.4519 -6.60932 1.4662 0
M  V30 179 H 17.0939 -4.22378 -0.188915 0
M  V30 180 H 14.8119 -7.62028 2.6896 0
M  V30 181 H 18.3979 -5.66038 1.34508 0
M  V30 182 H 17.2779 -7.33846 2.76476 0
M  V30 183 N 14.781 0.264519 -1.55364 0
M  V30 184 C 16.006 1.01726 -1.80739 0
M  V30 185 C 16.431 1.78836 -0.583044 0
M  V30 186 O 15.789 1.75167 0.467566 0
M  V30 187 C 15.837 1.94482 -3.03659 0
M  V30 188 O 14.941 3.03386 -2.7934 0
M  V30 189 H 14.282 0.290395 -0.597132 0
M  V30 190 H 16.812 0.290854 -2.02522 0
M  V30 191 H 16.822 2.36278 -3.32621 0
M  V30 192 H 15.497 1.37772 -3.92418 0
M  V30 193 H 14.074 2.65844 -2.61498 0
M  V30 194 N 16.2591 1.48442 0.529413 0
M  V30 195 C 17.1891 1.65902 1.64313 0
M  V30 196 C 18.1701 0.507897 1.6234 0
M  V30 197 O 19.3551 0.740503 1.79528 0
M  V30 198 C 16.4851 1.69911 3.02898 0
M  V30 199 C 15.4391 2.8453 3.19729 0
M  V30 200 C 14.7651 2.73629 4.59381 0
M  V30 201 C 16.0651 4.25821 3.02447 0
M  V30 202 H 17.7591 2.5914 1.49955 0
M  V30 203 H 15.3051 1.24709 0.719982 0
M  V30 204 H 17.2581 1.80715 3.80684 0
M  V30 205 H 15.9821 0.732524 3.18279 0
M  V30 206 H 14.6411 2.73283 2.44361 0
M  V30 207 H 14.2891 1.74938 4.71599 0
M  V30 208 H 13.9891 3.50541 4.71588 0
M  V30 209 H 15.5131 2.86401 5.39265 0
M  V30 210 H 16.9271 4.37898 3.70024 0
M  V30 211 H 15.3241 5.03735 3.26146 0
M  V30 212 H 16.3941 4.42244 1.98867 0
M  V30 213 N 17.7372 -0.778329 1.37039 0
M  V30 214 C 18.7002 -1.87301 1.32102 0
M  V30 215 C 19.7002 -1.59198 0.226405 0
M  V30 216 O 20.8902 -1.67403 0.481861 0
M  V30 217 C 18.0222 -3.24309 1.05055 0
M  V30 218 H 19.2152 -1.93093 2.29467 0
M  V30 219 H 16.7682 -0.977358 1.21973 0
M  V30 220 H 17.5032 -3.24196 0.0819373 0
M  V30 221 H 17.2882 -3.46098 1.84279 0
M  V30 222 H 18.7782 -4.04382 1.04234 0
M  V30 223 N 19.2153 -1.21501 -1.00376 0
M  V30 224 C 20.1453 -0.999478 -2.11028 0
M  V30 225 C 21.1263 0.0759671 -1.6993 0
M  V30 226 O 22.3113 -0.0841106 -1.94018 0
M  V30 227 C 19.4413 -0.564709 -3.42678 0
M  V30 228 C 18.3953 -1.58486 -3.97576 0
M  V30 229 C 17.7213 -1.00628 -5.25146 0
M  V30 230 C 19.0213 -2.97204 -4.29496 0
M  V30 231 H 20.7153 -1.92495 -2.29317 0
M  V30 232 H 18.2613 -0.92693 -1.102 0
M  V30 233 H 20.2143 -0.401091 -4.19487 0
M  V30 234 H 18.9383 0.396411 -3.24185 0
M  V30 235 H 17.5973 -1.73606 -3.22888 0
M  V30 236 H 17.2453 -0.0368439 -5.02987 0
M  V30 237 H 16.9453 -1.68771 -5.62841 0
M  V30 238 H 18.4693 -0.854015 -6.04598 0
M  V30 239 H 19.8833 -2.8552 -4.97143 0
M  V30 240 H 18.2803 -3.62372 -4.78338 0
M  V30 241 H 19.3503 -3.47956 -3.3772 0
M  V30 242 N 20.6934 1.19889 -1.02296 0
M  V30 243 C 21.6234 2.25141 -0.619174 0
M  V30 244 C 22.6044 1.66051 0.368915 0
M  V30 245 O 23.7894 1.92546 0.252941 0
M  V30 246 C 20.9194 3.4728 0.0368783 0
M  V30 247 C 19.8734 4.19005 -0.872865 0
M  V30 248 C 19.1994 5.34637 -0.0822402 0
M  V30 249 C 20.4994 4.74452 -2.18387 0
M  V30 250 H 22.1934 2.59171 -1.49903 0
M  V30 251 H 19.7394 1.24579 -0.722222 0
M  V30 252 H 21.6924 4.20098 0.330958 0
M  V30 253 H 20.4164 3.12433 0.95149 0
M  V30 254 H 19.0754 3.48061 -1.15105 0
M  V30 255 H 18.7234 4.96034 0.83422 0
M  V30 256 H 18.4234 5.83557 -0.688149 0
M  V30 257 H 19.9474 6.10255 0.205238 0
M  V30 258 H 21.3614 5.39055 -1.95172 0
M  V30 259 H 19.7584 5.33834 -2.74119 0
M  V30 260 H 20.8284 3.92844 -2.84257 0
M  V30 261 N 22.1715 0.800033 1.35784 0
M  V30 262 C 23.1015 0.220184 2.3246 0
M  V30 263 C 24.0825 -0.65073 1.57161 0
M  V30 264 O 25.2675 -0.582359 1.85263 0
M  V30 265 C 22.3975 -0.637353 3.41402 0
M  V30 266 C 21.3515 0.134531 4.27789 0
M  V30 267 C 20.6775 -0.844285 5.27992 0
M  V30 268 C 21.9775 1.32979 5.05088 0
M  V30 269 H 23.6715 1.02787 2.81203 0
M  V30 270 H 21.2175 0.495717 1.35199 0
M  V30 271 H 23.1705 -1.05302 4.08031 0
M  V30 272 H 21.8945 -1.47785 2.91251 0
M  V30 273 H 20.5535 0.531296 3.6273 0
M  V30 274 H 20.2015 -1.68011 4.74111 0
M  V30 275 H 19.9015 -0.332184 5.8666 0
M  V30 276 H 21.4255 -1.2583 5.97494 0
M  V30 277 H 22.8395 0.98934 5.64699 0
M  V30 278 H 21.2365 1.77593 5.7322 0
M  V30 279 H 22.3065 2.11978 4.36111 0
M  V30 280 N 23.6496 -1.47581 0.552962 0
M  V30 281 C 24.8796 -2.06575 0.0320091 0
M  V30 282 C 25.2876 -1.4067 -1.26525 0
M  V30 283 O 24.6306 -0.495808 -1.76883 0
M  V30 284 C 24.6926 -3.58705 -0.238913 0
M  V30 285 C 24.3566 -4.46625 0.968272 0
M  V30 286 C 25.3536 -4.85 1.87274 0
M  V30 287 C 23.0386 -4.88201 1.18175 0
M  V30 288 C 25.0326 -5.63745 2.9744 0
M  V30 289 C 22.7196 -5.66712 2.28651 0
M  V30 290 C 23.7176 -6.04394 3.18114 0
M  V30 291 O 23.4056 -6.81324 4.26676 0
M  V30 292 H 23.1376 -0.674763 0.0408689 0
M  V30 293 H 25.6916 -1.90634 0.764719 0
M  V30 294 H 23.9216 -3.72844 -1.02588 0
M  V30 295 H 25.6106 -3.99735 -0.704731 0
M  V30 296 H 26.3766 -4.53482 1.71984 0
M  V30 297 H 22.2556 -4.58339 0.494593 0
M  V30 298 H 25.7996 -5.93077 3.67296 0
M  V30 299 H 21.6966 -5.97642 2.43915 0
M  V30 300 H 22.4646 -6.99712 4.24671 0
M  V30 301 N 25.1277 -0.289203 -1.54924 0
M  V30 302 C 26.0577 0.58549 -2.2604 0
M  V30 303 C 27.0387 1.14753 -1.25562 0
M  V30 304 O 28.2237 1.17906 -1.54311 0
M  V30 305 C 25.3537 1.76305 -2.99222 0
M  V30 306 C 24.3077 1.33191 -4.06748 0
M  V30 307 C 23.6337 2.5937 -4.6758 0
M  V30 308 C 24.9337 0.471775 -5.20165 0
M  V30 309 H 26.6277 -0.00763532 -2.99399 0
M  V30 310 H 24.1737 -0.00511229 -1.43999 0
M  V30 311 H 26.1267 2.38097 -3.47689 0
M  V30 312 H 24.8507 2.38223 -2.23422 0
M  V30 313 H 23.5097 0.737121 -3.59113 0
M  V30 314 H 23.1577 3.19576 -3.88433 0
M  V30 315 H 22.8577 2.31228 -5.40192 0
M  V30 316 H 24.3817 3.21985 -5.18804 0
M  V30 317 H 25.7957 0.995056 -5.64599 0
M  V30 318 H 24.1927 0.284639 -5.99425 0
M  V30 319 H 25.2627 -0.506041 -4.82252 0
M  V30 320 N 26.6058 1.57591 -0.0167156 0
M  V30 321 C 27.5558 2.05953 0.978137 0
M  V30 322 C 28.5398 0.957532 1.29306 0
M  V30 323 O 29.7318 1.22119 1.28125 0
M  V30 324 C 26.8608 2.58006 2.26468 0
M  V30 325 C 25.9468 3.75113 1.97867 0
M  V30 326 N 26.3378 4.86187 1.39486 0
M  V30 327 C 24.6358 3.83363 2.27924 0
M  V30 328 C 25.3368 5.67502 1.27735 0
M  V30 329 N 24.3128 5.14023 1.76866 0
M  V30 330 H 28.1148 2.89236 0.521522 0
M  V30 331 H 25.6288 1.61301 0.188596 0
M  V30 332 H 27.6258 2.90937 2.98599 0
M  V30 333 H 26.2858 1.76148 2.72767 0
M  V30 334 H 27.2968 5.06695 1.07147 0
M  V30 335 H 23.9738 3.1239 2.76982 0
M  V30 336 H 25.3638 6.66791 0.826978 0
M  V30 337 N 28.0839 -0.256276 1.55502 0
M  V30 338 C 29.0339 -1.31981 1.85916 0
M  V30 339 C 30.0179 -1.43927 0.719296 0
M  V30 340 O 31.2099 -1.47326 0.981019 0
M  V30 341 C 28.3389 -2.67703 2.14918 0
M  V30 342 C 27.4249 -2.59801 3.35208 0
M  V30 343 N 27.8159 -2.21524 4.54709 0
M  V30 344 C 26.1139 -2.90832 3.38131 0
M  V30 345 C 26.8149 -2.24024 5.36832 0
M  V30 346 N 25.7909 -2.63158 4.75656 0
M  V30 347 H 29.5929 -1.01423 2.75845 0
M  V30 348 H 27.1069 -0.464911 1.55603 0
M  V30 349 H 29.1039 -3.44445 2.34869 0
M  V30 350 H 27.7639 -2.99137 1.26282 0
M  V30 351 H 28.7749 -1.93223 4.80505 0
M  V30 352 H 25.4519 -3.26867 2.59739 0
M  V30 353 H 26.8419 -1.9685 6.42417 0
M  V30 354 N 29.562 -1.4872 -0.521534 0
M  V30 355 C 30.525 -1.63379 -1.60748 0
M  V30 356 C 31.525 -0.50661 -1.52611 0
M  V30 357 O 32.715 -0.772601 -1.5613 0
M  V30 358 C 29.847 -1.61192 -3.00383 0
M  V30 359 H 31.04 -2.60217 -1.49087 0
M  V30 360 H 28.593 -1.37444 -0.744235 0
M  V30 361 H 29.328 -0.65863 -3.17541 0
M  V30 362 H 29.113 -2.43032 -3.07698 0
M  V30 363 H 30.603 -1.7466 -3.7932 0
M  V30 364 N 31.0401 0.771051 -1.3745 0
M  V30 365 C 31.9871 1.88435 -1.3327 0
M  V30 366 C 32.9571 1.64914 -0.198136 0
M  V30 367 O 34.1421 1.86821 -0.387606 0
M  V30 368 C 31.2821 3.25509 -1.14622 0
M  V30 369 C 30.3951 3.60979 -2.37314 0
M  V30 370 C 29.5301 4.87265 -2.11533 0
M  V30 371 C 28.5691 5.15469 -3.30088 0
M  V30 372 N 27.7061 6.32944 -3.03853 0
M  V30 373 H 32.5461 1.91344 -2.28455 0
M  V30 374 H 30.0831 0.935466 -1.13523 0
M  V30 375 H 32.0411 4.04582 -1.01831 0
M  V30 376 H 30.6711 3.21974 -0.230837 0
M  V30 377 H 29.7231 2.76885 -2.60842 0
M  V30 378 H 31.0351 3.77759 -3.25729 0
M  V30 379 H 30.1891 5.74244 -1.95777 0
M  V30 380 H 28.9281 4.7259 -1.20457 0
M  V30 381 H 27.9331 4.26966 -3.46382 0
M  V30 382 H 29.1581 5.32052 -4.22016 0
M  V30 383 H 27.1041 6.19625 -2.15407 0
M  V30 384 H 27.0211 6.50143 -3.85812 0
M  V30 385 H 28.2891 7.22857 -2.91716 0
M  V30 386 N 32.5182 1.22032 0.997298 0
M  V30 387 C 33.7642 1.05382 1.73972 0
M  V30 388 C 34.1192 -0.407419 1.88037 0
M  V30 389 O 33.4122 -1.29811 1.40924 0
M  V30 390 C 33.6062 1.69345 3.14733 0
M  V30 391 C 33.4352 3.21537 3.14395 0
M  V30 392 C 32.2052 3.9062 3.20537 0
M  V30 393 C 34.4032 4.18527 2.98897 0
M  V30 394 N 32.3852 5.29935 3.09906 0
M  V30 395 C 33.7562 5.44645 2.96247 0
M  V30 396 C 35.8112 4.09476 2.83255 0
M  V30 397 C 34.5142 6.62752 2.79557 0
M  V30 398 C 36.5402 5.27228 2.67926 0
M  V30 399 C 35.9022 6.52262 2.65959 0
M  V30 400 H 32.0012 0.440018 0.646458 0
M  V30 401 H 34.5852 1.54505 1.18475 0
M  V30 402 H 32.7562 1.22778 3.68484 0
M  V30 403 H 34.4882 1.45828 3.77513 0
M  V30 404 H 31.2432 3.41592 3.28043 0
M  V30 405 H 31.6672 6.02926 3.07912 0
M  V30 406 H 36.3092 3.13598 2.83577 0
M  V30 407 H 34.0272 7.58783 2.77982 0
M  V30 408 H 37.6132 5.22053 2.56812 0
M  V30 409 H 36.4932 7.41844 2.54239 0
M  V30 410 N 33.9963 -1.19345 1.0293 0
M  V30 411 C 35.2213 -1.93538 0.745511 0
M  V30 412 C 35.6463 -1.75007 -0.689511 0
M  V30 413 O 35.0043 -1.05265 -1.47611 0
M  V30 414 C 35.0523 -3.43336 1.10239 0
M  V30 415 O 34.1563 -4.11806 0.221289 0
M  V30 416 H 33.4973 -0.604193 0.275404 0
M  V30 417 H 36.0273 -1.5141 1.37609 0
M  V30 418 H 36.0373 -3.94004 1.05947 0
M  V30 419 H 34.7123 -3.56146 2.14786 0
M  V30 420 H 33.2893 -3.715 0.322842 0
M  V30 421 N 35.4744 -0.807222 -1.35358 0
M  V30 422 C 36.4064 -0.175717 -2.28525 0
M  V30 423 C 37.4194 0.625354 -1.5031 0
M  V30 424 O 38.6084 0.457611 -1.72535 0
M  V30 425 C 35.7084 0.773471 -3.29956 0
M  V30 426 C 34.8814 0.0186296 -4.37396 0
M  V30 427 C 33.9404 0.886395 -5.18681 0
M  V30 428 O 32.9664 0.337106 -5.68201 0
M  V30 429 N 34.1684 2.20839 -5.36852 0
M  V30 430 H 36.9334 -0.976091 -2.83359 0
M  V30 431 H 34.4944 -0.662737 -1.47714 0
M  V30 432 H 36.4864 1.35824 -3.81227 0
M  V30 433 H 35.0564 1.47465 -2.75632 0
M  V30 434 H 34.2764 -0.747349 -3.87051 0
M  V30 435 H 35.5644 -0.501577 -5.06322 0
M  V30 436 H 34.9624 2.67858 -4.98265 0
M  V30 437 H 33.5194 2.74237 -5.91301 0
M  V30 438 N 36.9525 1.47285 -0.560781 0
M  V30 439 C 37.9155 2.28535 0.174488 0
M  V30 440 C 38.9155 1.37153 0.839388 0
M  V30 441 O 40.1055 1.59748 0.694702 0
M  V30 442 C 37.2375 3.16934 1.25561 0
M  V30 443 H 38.4305 2.95012 -0.539262 0
M  V30 444 H 35.9835 1.53034 -0.317865 0
M  V30 445 H 36.7185 2.55157 2.00164 0
M  V30 446 H 36.5035 3.8419 0.783604 0
M  V30 447 H 37.9935 3.78143 1.77193 0
M  V30 448 N 38.4306 0.297415 1.54768 0
M  V30 449 C 39.3936 -0.567375 2.22066 0
M  V30 450 C 40.3936 -1.06409 1.20556 0
M  V30 451 O 41.5836 -0.960691 1.45315 0
M  V30 452 C 38.7156 -1.78517 2.90421 0
M  V30 453 H 39.9086 0.0205534 2.99893 0
M  V30 454 H 37.4616 0.0482163 1.56226 0
M  V30 455 H 38.1966 -2.41303 2.16664 0
M  V30 456 H 37.9816 -1.43669 3.64831 0
M  V30 457 H 39.4716 -2.39964 3.41771 0
M  V30 458 N 39.9087 -1.5758 0.0250728 0
M  V30 459 C 41.3197 -1.79476 -0.514323 0
M  V30 460 C 41.6707 -0.934956 -1.72491 0
M  V30 461 O 40.7957 -0.144245 -2.15919 0
M  V30 462 C 41.3907 -3.25503 -0.939842 0
M  V30 463 C 39.9497 -3.48408 -1.42438 0
M  V30 464 C 39.0967 -2.74583 -0.387201 0
M  V30 465 H 42.0477 -1.567 0.25113 0
M  V30 466 H 42.0687 -3.34992 -1.80445 0
M  V30 467 H 41.5807 -3.88056 -0.0585628 0
M  V30 468 H 39.6817 -2.91103 -2.32572 0
M  V30 469 H 39.7947 -4.57119 -1.43455 0
M  V30 470 H 38.1587 -2.39942 -0.854409 0
M  V30 471 H 38.9417 -3.39849 0.485543 0
M  V30 472 N 41.3868 0.248026 -1.55636 0
M  V30 473 C 42.3198 1.3334 -1.85191 0
M  V30 474 C 43.2978 1.46429 -0.706906 0
M  V30 475 O 44.4818 1.62662 -0.952544 0
M  V30 476 C 41.6088 2.70703 -2.03562 0
M  V30 477 C 40.6548 2.7477 -3.26196 0
M  V30 478 S 41.4878 2.31493 -4.82878 0
M  V30 479 C 42.6438 3.70783 -5.04253 0
M  V30 480 H 42.8768 1.08072 -2.76962 0
M  V30 481 H 40.4098 0.448952 -1.47729 0
M  V30 482 H 42.3678 3.49798 -2.1483 0
M  V30 483 H 41.0288 2.9321 -1.12635 0
M  V30 484 H 40.2218 3.75648 -3.36013 0
M  V30 485 H 39.8238 2.03719 -3.13647 0
M  V30 486 H 42.1158 4.6627 -4.91527 0
M  V30 487 H 43.0588 3.65901 -6.06236 0
M  V30 488 H 43.4668 3.63244 -4.32105 0
M  V30 489 N 42.8649 1.48995 0.513639 0
M  V30 490 C 43.8279 1.64229 1.59879 0
M  V30 491 C 44.8279 0.514696 1.5234 0
M  V30 492 O 46.0179 0.78087 1.55718 0
M  V30 493 C 43.1499 1.62783 2.99524 0
M  V30 494 H 44.3429 2.61004 1.47705 0
M  V30 495 H 41.8959 1.37837 0.736936 0
M  V30 496 H 42.6309 0.675461 3.17188 0
M  V30 497 H 42.4159 2.4466 3.06404 0
M  V30 498 H 43.9059 1.76669 3.78388 0
M  V30 499 N 44.343 -0.763751 1.37857 0
M  V30 500 C 45.253 -1.90817 1.36478 0
M  V30 501 C 46.269 -1.71997 0.263248 0
M  V30 502 O 47.445 -1.95095 0.499979 0
M  V30 503 C 44.51 -3.2605 1.17864 0
M  V30 504 C 43.571 -3.57467 2.3773 0
M  V30 505 C 42.804 -4.86249 2.19995 0
M  V30 506 O 43.027 -5.57884 1.18836 0
M  V30 507 O 41.961 -5.16911 3.08361 0
M  V30 508 H 45.787 -1.94933 2.32884 0
M  V30 509 H 43.372 -0.907619 1.1867 0
M  V30 510 H 45.254 -4.06924 1.09504 0
M  V30 511 H 43.929 -3.22769 0.245372 0
M  V30 512 H 42.836 -2.76796 2.51664 0
M  V30 513 H 44.169 -3.655 3.29652 0
M  V30 514 N 45.8211 -1.22559 -0.990812 0
M  V30 515 C 47.0691 -1.04933 -1.72724 0
M  V30 516 C 47.3901 0.416158 -1.90508 0
M  V30 517 O 46.6601 1.29918 -1.46622 0
M  V30 518 H 45.2401 -0.385296 -0.639965 0
M  V30 519 H 47.9021 -1.54105 -1.19322 0
M  V30 520 H 46.9981 -1.52886 -2.72089 0
M  V30 521 N 47.2992 1.18797 -1.03562 0
M  V30 522 C 48.5472 1.88278 -0.734569 0
M  V30 523 C 48.8682 1.8043 0.739586 0
M  V30 524 O 48.1382 1.21925 1.53333 0
M  V30 525 H 46.7182 0.696991 -0.268725 0
M  V30 526 H 49.3802 1.44192 -1.31129 0
M  V30 527 H 48.4762 2.94443 -1.03489 0
M  V30 528 N 48.7773 0.814389 1.34928 0
M  V30 529 C 50.0253 0.397636 1.9815 0
M  V30 530 C 50.3463 -1.04069 1.64908 0
M  V30 531 O 49.6163 -1.72121 0.93548 0
M  V30 532 H 48.1963 0.144043 0.732981 0
M  V30 533 H 50.8583 1.04195 1.6471 0
M  V30 534 H 49.9543 0.509688 3.0791 0
M  V30 535 N 50.2554 -1.46986 0.568584 0
M  V30 536 C 51.1874 -2.28233 -0.210337 0
M  V30 537 C 52.2004 -1.37682 -0.868767 0
M  V30 538 O 53.3894 -1.62406 -0.740705 0
M  V30 539 C 50.4894 -3.12293 -1.3163 0
M  V30 540 C 49.6624 -4.30878 -0.7525 0
M  V30 541 C 48.7214 -4.96445 -1.74439 0
M  V30 542 O 47.7474 -5.54482 -1.286 0
M  V30 543 N 48.9494 -4.92171 -3.07812 0
M  V30 544 H 51.7144 -2.95723 0.486648 0
M  V30 545 H 49.2754 -1.56742 0.405409 0
M  V30 546 H 51.2674 -3.53022 -1.97883 0
M  V30 547 H 49.8374 -2.46971 -1.91636 0
M  V30 548 H 49.0574 -3.94104 0.0871128 0
M  V30 549 H 50.3454 -5.07558 -0.35536 0
M  V30 550 H 49.7434 -4.46239 -3.47688 0
M  V30 551 H 48.3004 -5.36884 -3.69592 0
M  V30 552 N 51.7335 -0.305618 -1.54608 0
M  V30 553 C 52.6815 0.584119 -2.25146 0
M  V30 554 C 53.6755 1.13326 -1.25911 0
M  V30 555 O 54.8815 1.08337 -1.43747 0
M  V30 556 H 51.2565 0.206983 -0.722954 0
M  V30 557 H 53.2275 -0.033291 -2.98381 0
M  V30 558 C 51.9765 1.74225 -3.009 0
M  V30 559 H 51.2995 1.32892 -3.77067 0
M  V30 560 H 52.7395 2.34077 -3.53531 0
M  V30 561 C 51.1985 2.64914 -2.0814 0
M  V30 562 O 51.7285 3.66137 -1.65246 0
M  V30 563 N 49.9345 2.3275 -1.74 0
M  V30 564 H 49.4815 1.50479 -2.09078 0
M  V30 565 H 49.4395 2.93694 -1.12211 0
M  V30 566 N 53.2116 1.57565 -0.0334293 0
M  V30 567 C 54.1616 2.06978 0.956237 0
M  V30 568 C 55.1456 0.971193 1.28283 0
M  V30 569 O 56.3376 1.23471 1.26822 0
M  V30 570 C 53.4666 2.60393 2.23719 0
M  V30 571 C 52.5526 3.7719 1.93877 0
M  V30 572 N 52.9436 4.87639 1.34321 0
M  V30 573 C 51.2416 3.85758 2.23845 0
M  V30 574 C 51.9426 5.68825 1.21709 0
M  V30 575 N 50.9186 5.1587 1.71404 0
M  V30 576 H 54.7206 2.89773 0.490815 0
M  V30 577 H 52.2346 1.61492 0.171478 0
M  V30 578 H 54.2316 2.94088 2.95496 0
M  V30 579 H 52.8916 1.79031 2.70884 0
M  V30 580 H 53.9026 5.07803 1.01767 0
M  V30 581 H 50.5796 3.1531 2.73653 0
M  V30 582 H 51.9696 6.67631 0.75621 0
M  V30 583 N 54.6897 -0.239769 1.55765 0
M  V30 584 C 55.6397 -1.30002 1.87306 0
M  V30 585 C 56.6237 -1.43156 0.73452 0
M  V30 586 O 57.8157 -1.46277 0.99659 0
M  V30 587 C 54.9447 -2.65409 2.17745 0
M  V30 588 C 54.0307 -2.56231 3.37945 0
M  V30 589 N 54.4217 -2.16689 4.57033 0
M  V30 590 C 52.7197 -2.87229 3.41197 0
M  V30 591 C 53.4207 -2.18318 5.39177 0
M  V30 592 N 52.3967 -2.58098 4.78421 0
M  V30 593 H 56.1987 -0.984912 2.76906 0
M  V30 594 H 53.7127 -0.448381 1.56087 0
M  V30 595 H 55.7097 -3.41934 2.38509 0
M  V30 596 H 54.3697 -2.97781 1.29448 0
M  V30 597 H 55.3807 -1.88116 4.82528 0
M  V30 598 H 52.0577 -3.24094 2.63191 0
M  V30 599 H 53.4477 -1.90025 6.44469 0
M  V30 600 N 56.1678 -1.49265 -0.50573 0
M  V30 601 C 57.0778 -1.68312 -1.63427 0
M  V30 602 C 58.0938 -0.565682 -1.64548 0
M  V30 603 O 59.2698 -0.839801 -1.83055 0
M  V30 604 C 56.3348 -1.74107 -2.99813 0
M  V30 605 C 55.3958 -2.97653 -3.09356 0
M  V30 606 C 54.6288 -3.03163 -4.39236 0
M  V30 607 O 54.8518 -2.16396 -5.27758 0
M  V30 608 O 53.7858 -3.9558 -4.53652 0
M  V30 609 H 57.6118 -2.63907 -1.50289 0
M  V30 610 H 55.1968 -1.32951 -0.681502 0
M  V30 611 H 57.0788 -1.803 -3.80881 0
M  V30 612 H 55.7538 -0.816901 -3.13223 0
M  V30 613 H 54.6608 -2.96981 -2.27493 0
M  V30 614 H 55.9938 -3.89535 -3.00871 0
M  V30 615 N 57.6459 0.756429 -1.3826 0
M  V30 616 C 58.8919 1.51772 -1.34511 0
M  V30 617 C 59.2249 1.94089 0.0656691 0
M  V30 618 O 58.4999 1.65221 1.02626 0
M  V30 619 C 58.7829 2.77226 -2.29821 0
M  V30 620 C 58.6359 2.41065 -3.79747 0
M  V30 621 C 59.9549 3.79236 -2.23312 0
M  V30 622 H 57.0739 0.550578 -0.489931 0
M  V30 623 H 59.7159 0.866607 -1.69086 0
M  V30 624 H 57.8659 3.32784 -2.00467 0
M  V30 625 H 59.5379 1.91303 -4.19763 0
M  V30 626 H 57.7809 1.7356 -3.97567 0
M  V30 627 H 58.4519 3.3081 -4.41892 0
M  V30 628 H 60.9279 3.3321 -2.49219 0
M  V30 629 H 59.8039 4.64714 -2.92116 0
M  V30 630 H 60.0649 4.24615 -1.23102 0
M  V30 631 N 59.124 1.23083 0.984299 0
M  V30 632 C 60.37 1.06214 1.72761 0
M  V30 633 C 60.703 -0.400584 1.90024 0
M  V30 634 O 59.978 -1.29672 1.44967 0
M  V30 635 C 60.261 1.78375 3.12817 0
M  V30 636 C 60.114 3.32296 3.03149 0
M  V30 637 C 61.433 1.54309 4.12161 0
M  V30 638 H 58.552 0.387251 0.627061 0
M  V30 639 H 61.194 1.51536 1.14616 0
M  V30 640 H 59.344 1.39848 3.62457 0
M  V30 641 H 61.016 3.8032 2.61064 0
M  V30 642 H 59.259 3.6153 2.39747 0
M  V30 643 H 59.93 3.77972 4.02295 0
M  V30 644 H 62.406 1.87791 3.71314 0
M  V30 645 H 61.282 2.07281 5.08258 0
M  V30 646 H 61.543 0.477572 4.39513 0
M  V30 647 N 60.6021 -1.18246 1.0419 0
M  V30 648 C 61.5491 -2.2192 0.634037 0
M  V30 649 C 62.5191 -1.62179 -0.358765 0
M  V30 650 O 63.7041 -1.89122 -0.252466 0
M  V30 651 C 60.8441 -3.451 0.00445535 0
M  V30 652 C 59.9571 -4.19174 1.04487 0
M  V30 653 C 59.0921 -5.29813 0.383676 0
M  V30 654 C 58.1311 -5.9566 1.4091 0
M  V30 655 N 57.2681 -6.97834 0.772784 0
M  V30 656 H 62.1081 -2.56164 1.52263 0
M  V30 657 H 59.6451 -1.25843 0.761701 0
M  V30 658 H 61.6031 -4.15485 -0.377919 0
M  V30 659 H 60.2331 -3.11472 -0.847652 0
M  V30 660 H 59.2851 -3.47604 1.54518 0
M  V30 661 H 60.5971 -4.64267 1.82368 0
M  V30 662 H 59.7511 -6.06677 -0.0528366 0
M  V30 663 H 58.4901 -4.85825 -0.427208 0
M  V30 664 H 57.4951 -5.17535 1.85574 0
M  V30 665 H 58.7201 -6.4173 2.22171 0
M  V30 666 H 56.6661 -6.55998 -0.0177708 0
M  V30 667 H 56.5831 -7.41186 1.48928 0
M  V30 668 H 57.8511 -7.78665 0.36071 0
M  V30 669 N 62.0802 -0.821533 -1.34494 0
M  V30 670 C 63.3272 -0.408946 -1.98328 0
M  V30 671 C 63.6552 1.02764 -1.65136 0
M  V30 672 O 62.9102 1.73026 -0.914349 0
M  V30 673 C 63.2092 -0.556512 -3.53041 0
M  V30 674 C 62.8752 -1.95861 -4.0614 0
M  V30 675 C 61.5372 -2.34217 -4.20352 0
M  V30 676 C 63.8892 -2.87523 -4.34718 0
M  V30 677 C 61.2172 -3.63572 -4.6047 0
M  V30 678 C 63.5692 -4.1634 -4.76281 0
M  V30 679 C 62.2332 -4.54675 -4.88699 0
M  V30 680 H 61.5032 -0.149644 -0.725732 0
M  V30 681 H 64.1502 -1.04521 -1.6046 0
M  V30 682 H 62.4552 0.163148 -3.9146 0
M  V30 683 H 64.1522 -0.217826 -4.00408 0
M  V30 684 H 60.7422 -1.65066 -3.95539 0
M  V30 685 H 64.9262 -2.59133 -4.23277 0
M  V30 686 H 60.1822 -3.93101 -4.68275 0
M  V30 687 H 64.3562 -4.87455 -4.97354 0
M  V30 688 H 61.9832 -5.54959 -5.19542 0
M  V30 689 N 63.5583 1.46682 -0.576371 0
M  V30 690 C 64.4913 2.27243 0.208731 0
M  V30 691 C 65.4693 1.35238 0.902746 0
M  V30 692 O 66.6533 1.64641 0.917904 0
M  V30 693 C 63.7803 3.12802 1.29896 0
M  V30 694 C 62.8263 4.20524 0.711457 0
M  V30 695 S 63.6593 5.33548 -0.456781 0
M  V30 696 C 64.8153 6.22673 0.634798 0
M  V30 697 H 65.0483 2.93484 -0.474838 0
M  V30 698 H 62.5813 1.50069 -0.363118 0
M  V30 699 H 64.5393 3.62661 1.92321 0
M  V30 700 H 63.2003 2.45887 1.95444 0
M  V30 701 H 62.3933 4.80191 1.53076 0
M  V30 702 H 61.9953 3.73645 0.162999 0
M  V30 703 H 64.2873 6.60181 1.52209 0
M  V30 704 H 65.2303 7.0806 0.0750311 0
M  V30 705 H 65.6383 5.56684 0.936092 0
M  V30 706 N 65.0364 0.313813 1.54444 0
M  V30 707 C 66.3134 -0.345447 1.92525 0
M  V30 708 C 66.6934 -1.70667 1.24242 0
M  V30 709 O 66.0414 -2.25273 0.382654 0
M  V30 710 C 66.2514 -0.44737 3.46121 0
M  V30 711 C 67.5994 -0.712238 4.18584 0
M  V30 712 O 68.6234 -0.530678 3.52225 0
M  V30 713 O 67.4824 -1.06183 5.36085 0
M  V30 714 H 64.5764 -0.195407 0.803583 0
M  V30 715 H 67.1224 0.362813 1.65776 0
M  V30 716 H 65.8944 0.509043 3.87975 0
M  V30 717 H 65.5174 -1.20359 3.78945 0
M  V30 718 N 66.5145 -1.57545 0.0417849 0
M  V30 719 C 67.7605 -1.92601 -0.635021 0
M  V30 720 C 68.0935 -0.919627 -1.71045 0
M  V30 721 O 67.3685 0.0557892 -1.9442 0
M  V30 722 C 67.6515 -3.38085 -1.23979 0
M  V30 723 C 67.5045 -4.49467 -0.173057 0
M  V30 724 C 68.8235 -3.83776 -2.15416 0
M  V30 725 H 65.9425 -0.700397 -0.229374 0
M  V30 726 H 68.5845 -1.89728 0.101633 0
M  V30 727 H 66.7345 -3.40664 -1.86762 0
M  V30 728 H 68.4065 -4.59018 0.458312 0
M  V30 729 H 66.6495 -4.30909 0.499996 0
M  V30 730 H 67.3205 -5.48323 -0.636054 0
M  V30 731 H 69.7965 -3.83013 -1.62605 0
M  V30 732 H 68.6725 -4.8624 -2.54679 0
M  V30 733 H 68.9335 -3.19998 -3.05047 0
M  V30 734 N 67.9926 0.231505 -1.5589 0
M  V30 735 C 69.2226 0.973092 -1.82248 0
M  V30 736 C 69.6306 1.78845 -0.617328 0
M  V30 737 O 68.9736 1.78752 0.423499 0
M  V30 738 C 69.0356 1.94732 -3.02192 0
M  V30 739 C 68.6996 1.31743 -4.37599 0
M  V30 740 C 69.6966 0.712238 -5.14998 0
M  V30 741 C 67.3816 1.33218 -4.84312 0
M  V30 742 C 69.3756 0.130195 -6.37267 0
M  V30 743 C 67.0626 0.746286 -6.06526 0
M  V30 744 C 68.0606 0.146337 -6.82843 0
M  V30 745 O 67.7486 -0.430465 -8.02747 0
M  V30 746 H 67.4806 0.29125 -0.61004 0
M  V30 747 H 70.0346 0.254915 -2.03812 0
M  V30 748 H 68.2646 2.70422 -2.76422 0
M  V30 749 H 69.9536 2.55362 -3.15508 0
M  V30 750 H 70.7196 0.69324 -4.8002 0
M  V30 751 H 66.5986 1.78854 -4.24891 0
M  V30 752 H 70.1426 -0.33871 -6.96777 0
M  V30 753 H 66.0396 0.762663 -6.40979 0
M  V30 754 H 66.8076 -0.323818 -8.17859 0
M  V30 755 N 69.4707 1.49531 0.497807 0
M  V30 756 C 70.4027 1.62559 1.61578 0
M  V30 757 C 71.4157 0.508134 1.54667 0
M  V30 758 O 72.6047 0.780309 1.60541 0
M  V30 759 C 69.7047 1.56925 3.00379 0
M  V30 760 C 68.8777 2.84257 3.3244 0
M  V30 761 C 67.9367 2.71632 4.50669 0
M  V30 762 O 66.9627 3.4557 4.52294 0
M  V30 763 N 68.1647 1.83391 5.5077 0
M  V30 764 H 70.9297 2.58981 1.50828 0
M  V30 765 H 68.4907 1.4666 0.685743 0
M  V30 766 H 70.4827 1.46129 3.77397 0
M  V30 767 H 69.0527 0.683483 3.05037 0
M  V30 768 H 68.2727 3.09381 2.44289 0
M  V30 769 H 69.5607 3.68666 3.5066 0
M  V30 770 H 68.9587 1.22583 5.52259 0
M  V30 771 H 67.5157 1.78515 6.26878 0
M  V30 772 N 70.9488 -0.749086 1.3866 0
M  V30 773 C 72.3648 -1.05276 1.19955 0
M  V30 774 C 72.5648 -2.01435 0.05134 0
M  V30 775 O 71.6208 -2.45232 -0.60147 0
M  V30 776 C 72.9338 -1.62853 2.52783 0
M  V30 777 C 74.4818 -1.75002 2.59506 0
M  V30 778 C 74.9568 -2.35991 3.92521 0
M  V30 779 N 76.4478 -2.43416 3.94085 0
M  V30 780 C 77.1828 -2.91511 4.9377 0
M  V30 781 N 76.6788 -3.39608 6.03853 0
M  V30 782 N 78.4718 -2.90592 4.81157 0
M  V30 783 H 70.6228 -0.111066 2.12109 0
M  V30 784 H 72.8858 -0.111901 0.941373 0
M  V30 785 H 72.5918 -0.99664 3.37283 0
M  V30 786 H 72.4658 -2.61854 2.715 0
M  V30 787 H 74.8528 -2.37317 1.75398 0
M  V30 788 H 74.9338 -0.74693 2.44652 0
M  V30 789 H 74.5778 -1.74308 4.77053 0
M  V30 790 H 74.5078 -3.3695 4.04688 0
M  V30 791 H 76.9988 -2.09405 3.14576 0
M  V30 792 H 77.3118 -3.74775 6.75843 0
M  V30 793 H 75.6568 -3.37653 6.07466 0
M  V30 794 H 78.8478 -2.52332 3.94267 0
M  V30 795 H 79.0208 -3.27762 5.58996 0
M  V30 796 N 72.4269 -1.23603 -0.977757 0
M  V30 797 C 73.6519 -1.09735 -1.75991 0
M  V30 798 C 74.0769 0.346858 -1.84874 0
M  V30 799 O 73.4349 1.25093 -1.3123 0
M  V30 800 C 73.4829 -1.73051 -3.16363 0
M  V30 801 O 72.5869 -0.994452 -4.0023 0
M  V30 802 H 71.9279 -0.384476 -0.541364 0
M  V30 803 H 74.4579 -1.6371 -1.2272 0
M  V30 804 H 74.4679 -1.78398 -3.66931 0
M  V30 805 H 73.1429 -2.78137 -3.09213 0
M  V30 806 H 71.7199 -1.01812 -3.58732 0
M  V30 807 N 73.905 1.17692 -1.04816 0
M  V30 808 C 75.135 1.91508 -0.775128 0
M  V30 809 C 75.543 1.76844 0.67253 0
M  V30 810 O 74.886 1.10057 1.47082 0
M  V30 811 C 74.948 3.43167 -1.0713 0
M  V30 812 C 74.612 3.81612 -2.51438 0
M  V30 813 C 75.609 3.84772 -3.49638 0
M  V30 814 C 73.294 4.12687 -2.86348 0
M  V30 815 C 75.288 4.18469 -4.80794 0
M  V30 816 C 72.975 4.46053 -4.17708 0
M  V30 817 C 73.973 4.48921 -5.14741 0
M  V30 818 O 73.661 4.81504 -6.43746 0
M  V30 819 H 73.393 0.614575 -0.281555 0
M  V30 820 H 75.947 1.50206 -1.40098 0
M  V30 821 H 74.177 3.84745 -0.388342 0
M  V30 822 H 75.866 3.98239 -0.784883 0
M  V30 823 H 76.632 3.60893 -3.24008 0
M  V30 824 H 72.511 4.09627 -2.11486 0
M  V30 825 H 76.055 4.20623 -5.56527 0
M  V30 826 H 71.952 4.69393 -4.43103 0
M  V30 827 H 72.72 4.99377 -6.4851 0
M  V30 828 N 75.3831 0.828654 1.34056 0
M  V30 829 C 76.6231 0.425394 1.99924 0
M  V30 830 C 76.9871 -0.994294 1.64249 0
M  V30 831 O 78.1881 -1.50074 2.23005 0
M  V30 832 C 76.4591 0.628071 3.51838 0
M  V30 833 S 78.0181 0.318511 4.37642 0
M  V30 834 H 74.8361 0.160465 0.692656 0
M  V30 835 H 77.4381 1.07572 1.63244 0
M  V30 836 H 76.1421 1.66089 3.7529 0
M  V30 837 H 75.6731 -0.0367799 3.93383 0
M  V30 838 H 77.6881 -0.865632 4.88591 0
M  V30 839 N 76.8612 -1.46375 0.584142 0
M  V30 840 C 77.8112 -2.27371 -0.169232 0
M  V30 841 C 78.7952 -1.35955 -0.860523 0
M  V30 842 O 79.9872 -1.60119 -0.754382 0
M  V30 843 C 77.1162 -3.22334 -1.18134 0
M  V30 844 C 76.2022 -4.21235 -0.492088 0
M  V30 845 N 76.5932 -5.03766 0.453129 0
M  V30 846 C 74.8912 -4.39773 -0.742652 0
M  V30 847 C 75.5922 -5.75366 0.85609 0
M  V30 848 N 74.5682 -5.43214 0.204926 0
M  V30 849 H 78.3702 -2.88572 0.557097 0
M  V30 850 H 75.8842 -1.57242 0.406042 0
M  V30 851 H 77.8812 -3.79071 -1.73525 0
M  V30 852 H 76.5412 -2.62693 -1.90847 0
M  V30 853 H 77.5522 -5.11227 0.828723 0
M  V30 854 H 74.2292 -3.91279 -1.45625 0
M  V30 855 H 75.6192 -6.5172 1.63434 0
M  V30 856 N 78.3393 -0.321999 -1.54275 0
M  V30 857 C 79.7503 0.166384 -1.85957 0
M  V30 858 C 80.1013 1.51747 -1.24367 0
M  V30 859 O 79.2263 2.09317 -0.549124 0
M  V30 860 C 79.8213 0.308681 -3.37391 0
M  V30 861 C 78.3803 0.741286 -3.69028 0
M  V30 862 C 77.5273 -0.137937 -2.76957 0
M  V30 863 H 80.4783 -0.542335 -1.49146 0
M  V30 864 H 80.4993 1.13984 -3.63026 0
M  V30 865 H 80.0113 -0.674809 -3.82188 0
M  V30 866 H 78.1123 1.73458 -3.29762 0
M  V30 867 H 78.2253 0.546118 -4.75977 0
M  V30 868 H 76.5893 0.386251 -2.51754 0
M  V30 869 H 77.3723 -1.11816 -3.2458 0
M  V30 870 N 79.8174 1.5752 -0.0501392 0
M  V30 871 C 81.0664 1.91827 0.623328 0
M  V30 872 C 81.3794 0.930222 1.72065 0
M  V30 873 O 82.5854 1.1653 2.4522 0
M  V30 874 C 81.0414 3.40692 1.16003 0
M  V30 875 C 80.6494 4.479 0.0948811 0
M  V30 876 C 82.3934 3.84034 1.80881 0
M  V30 877 C 80.3004 5.87879 0.644411 0
M  V30 878 H 79.2304 0.715918 0.236596 0
M  V30 879 H 81.8814 1.83115 -0.118861 0
M  V30 880 H 80.2634 3.44405 1.9545 0
M  V30 881 H 81.4374 4.55775 -0.678675 0
M  V30 882 H 79.7524 4.13892 -0.45637 0
M  V30 883 H 82.3494 4.85984 2.22988 0
M  V30 884 H 82.6924 3.20225 2.6601 0
M  V30 885 H 83.2254 3.82833 1.0809 0
M  V30 886 H 79.9644 6.55282 -0.169229 0
M  V30 887 H 79.4844 5.83567 1.38598 0
M  V30 888 H 81.1634 6.37098 1.12763 0
M  V30 889 N 81.2955 -0.223234 1.56011 0
M  V30 890 C 82.2055 -1.29766 1.95443 0
M  V30 891 C 83.2215 -1.51373 0.858028 0
M  V30 892 O 84.3975 -1.64536 1.16146 0
M  V30 893 C 81.4625 -2.62772 2.26167 0
M  V30 894 C 80.5235 -2.49482 3.49367 0
M  V30 895 C 79.7565 -3.76145 3.78616 0
M  V30 896 O 79.9795 -4.79087 3.09568 0
M  V30 897 O 78.9135 -3.73358 4.72109 0
M  V30 898 H 82.7395 -0.99309 2.87004 0
M  V30 899 H 80.3245 -0.425958 1.43199 0
M  V30 900 H 82.2065 -3.41327 2.47131 0
M  V30 901 H 80.8815 -2.92913 1.37781 0
M  V30 902 H 79.7885 -1.69133 3.33684 0
M  V30 903 H 81.1215 -2.2428 4.38131 0
M  V30 904 N 82.7736 -1.49793 -0.48987 0
M  V30 905 C 84.0016 -1.63568 -1.26701 0
M  V30 906 C 84.4166 -0.311465 -1.86213 0
M  V30 907 O 83.7736 0.704416 -1.68357 0
M  V30 908 C 83.8246 -2.71284 -2.38929 0
M  V30 909 O 83.5456 -3.9857 -1.81861 0
M  V30 910 C 85.0466 -2.95864 -3.3012 0
M  V30 911 H 82.2666 -0.550342 -0.383881 0
M  V30 912 H 84.8106 -1.95898 -0.586864 0
M  V30 913 H 82.9656 -2.417 -3.02753 0
M  V30 914 H 83.3796 -4.57993 -2.55622 0
M  V30 915 H 84.8536 -3.74941 -4.05121 0
M  V30 916 H 85.3306 -2.06206 -3.87783 0
M  V30 917 H 85.9366 -3.26907 -2.72051 0
M  V30 918 N 84.2517 0.741722 -1.39055 0
M  V30 919 C 85.1817 1.869 -1.39966 0
M  V30 920 C 86.1627 1.6804 -0.26392 0
M  V30 921 O 87.3477 1.88458 -0.468755 0
M  V30 922 C 84.4777 3.24572 -1.23574 0
M  V30 923 C 83.4317 3.58056 -2.34477 0
M  V30 924 C 82.7577 4.94593 -2.0318 0
M  V30 925 C 84.0577 3.61716 -3.76774 0
M  V30 926 H 85.7517 1.86395 -2.34302 0
M  V30 927 H 83.2977 0.895361 -1.1278 0
M  V30 928 H 85.2507 4.031 -1.22834 0
M  V30 929 H 83.9747 3.25587 -0.257045 0
M  V30 930 H 82.6337 2.81854 -2.34423 0
M  V30 931 H 82.2817 4.92181 -1.03765 0
M  V30 932 H 81.9817 5.17964 -2.77465 0
M  V30 933 H 83.5057 5.75486 -2.04079 0
M  V30 934 H 84.9197 4.30335 -3.78794 0
M  V30 935 H 83.3167 3.96603 -4.50362 0
M  V30 936 H 84.3867 2.61672 -4.08235 0
M  V30 937 N 85.7298 1.2412 0.971189 0
M  V30 938 C 86.9758 1.08041 1.71625 0
M  V30 939 C 87.3088 -0.380407 1.90438 0
M  V30 940 O 86.5838 -1.28127 1.46334 0
M  V30 941 C 86.8668 1.81682 3.10908 0
M  V30 942 C 86.7198 3.35493 2.99608 0
M  V30 943 C 88.0388 1.58671 4.10501 0
M  V30 944 H 85.1578 0.39388 0.622919 0
M  V30 945 H 87.7998 1.52743 1.13003 0
M  V30 946 H 85.9498 1.43684 3.60953 0
M  V30 947 H 87.6218 3.83068 2.57015 0
M  V30 948 H 85.8648 3.64052 2.35899 0
M  V30 949 H 86.5358 3.82217 3.98264 0
M  V30 950 H 89.0118 1.91719 3.69301 0
M  V30 951 H 87.8878 2.1266 5.06031 0
M  V30 952 H 88.1488 0.524161 4.38982 0
M  V30 953 N 87.2079 -1.17134 1.05439 0
M  V30 954 C 88.4849 -1.83411 0.679699 0
M  V30 955 C 88.8649 -1.9368 -0.839726 0
M  V30 956 O 88.2129 -1.47325 -1.74664 0
M  V30 957 C 88.4229 -3.20918 1.37159 0
M  V30 958 C 89.7709 -3.96796 1.51123 0
M  V30 959 O 90.7949 -3.30406 1.3308 0
M  V30 960 O 89.6539 -5.15778 1.80651 0
M  V30 961 H 86.7479 -0.79154 0.239569 0
M  V30 962 H 89.2939 -1.24411 1.15413 0
M  V30 963 H 88.0659 -3.08428 2.40807 0
M  V30 964 H 87.6889 -3.87587 0.886674 0
M  V30 965 N 88.686 -0.835752 -1.33615 0
M  V30 966 C 89.935 -0.426289 -1.97144 0
M  V30 967 C 90.248 1.01912 -1.66953 0
M  V30 968 O 91.454 1.53311 -2.24072 0
M  V30 969 C 89.91 -0.711321 -3.52801 0
M  V30 970 C 89.518 -2.1712 -3.91871 0
M  V30 971 C 91.262 -0.368654 -4.22896 0
M  V30 972 C 89.169 -2.40044 -5.40493 0
M  V30 973 H 88.099 -0.15567 -0.737755 0
M  V30 974 H 90.75 -1.0239 -1.52278 0
M  V30 975 H 89.132 -0.0433766 -3.95976 0
M  V30 976 H 90.306 -2.87936 -3.59763 0
M  V30 977 H 88.621 -2.47654 -3.34749 0
M  V30 978 H 91.218 -0.517601 -5.32189 0
M  V30 979 H 91.561 0.688078 -4.10574 0
M  V30 980 H 92.094 -0.991702 -3.8524 0
M  V30 981 H 88.833 -3.44271 -5.57815 0
M  V30 982 H 88.353 -1.73785 -5.74072 0
M  V30 983 H 90.032 -2.23042 -6.0734 0
M  V30 984 N 90.1641 1.46063 -0.591896 0
M  V30 985 C 91.4111 2.02338 -0.0809991 0
M  V30 986 C 91.7391 1.46228 1.28249 0
M  V30 987 O 90.9941 0.620818 1.85592 0
M  V30 988 C 91.2931 3.57391 0.0249813 0
M  V30 989 C 90.9591 4.32583 -1.27211 0
M  V30 990 C 89.6211 4.52844 -1.62745 0
M  V30 991 C 91.9731 4.75687 -2.13005 0
M  V30 992 C 89.3011 5.13462 -2.83855 0
M  V30 993 C 91.6531 5.37644 -3.3335 0
M  V30 994 C 90.3171 5.5613 -3.69155 0
M  V30 995 H 89.5871 0.740407 -0.0296397 0
M  V30 996 H 92.2341 1.75321 -0.770374 0
M  V30 997 H 90.5391 3.83597 0.797537 0
M  V30 998 H 92.2361 3.98621 0.436184 0
M  V30 999 H 88.8261 4.17116 -0.985499 0
M  V30 1000 H 93.0101 4.59782 -1.86855 0
M  V30 1001 H 88.2661 5.25965 -3.11722 0
M  V30 1002 H 92.4401 5.7 -4.00092 0
M  V30 1003 H 90.0671 6.0287 -4.63089 0
M  V30 1004 N 91.6422 0.330177 1.54103 0
M  V30 1005 C 92.5742 -0.566902 2.22079 0
M  V30 1006 C 93.5872 -1.07462 1.22294 0
M  V30 1007 O 94.7762 -0.987065 1.48726 0
M  V30 1008 C 91.8762 -1.79138 2.87685 0
M  V30 1009 C 91.0492 -1.42123 4.13666 0
M  V30 1010 C 90.1082 -2.50394 4.62806 0
M  V30 1011 O 89.1342 -2.14261 5.27334 0
M  V30 1012 N 90.3362 -3.81433 4.37595 0
M  V30 1013 H 93.1012 0.0151844 2.99696 0
M  V30 1014 H 90.6622 0.153681 1.61169 0
M  V30 1015 H 92.6542 -2.50975 3.1748 0
M  V30 1016 H 91.2242 -2.28115 2.13734 0
M  V30 1017 H 90.4442 -0.534201 3.90564 0
M  V30 1018 H 91.7322 -1.14971 4.9564 0
M  V30 1019 H 91.1302 -4.13584 3.8596 0
M  V30 1020 H 89.6872 -4.4948 4.72029 0
M  V30 1021 N 93.1203 -1.57491 0.0584922 0
M  V30 1022 C 94.0303 -2.15448 -0.928414 0
M  V30 1023 C 95.0463 -1.11416 -1.3365 0
M  V30 1024 O 96.2223 -1.4362 -1.41193 0
M  V30 1025 C 93.2873 -2.69393 -2.18239 0
M  V30 1026 C 92.3483 -3.88249 -1.83196 0
M  V30 1027 C 91.5813 -4.39613 -3.02616 0
M  V30 1028 O 91.8043 -3.90023 -4.16219 0
M  V30 1029 O 90.7383 -5.31111 -2.83204 0
M  V30 1030 H 94.5643 -3.00112 -0.465483 0
M  V30 1031 H 92.1493 -1.48499 -0.163826 0
M  V30 1032 H 94.0313 -3.04026 -2.91798 0
M  V30 1033 H 92.7063 -1.87796 -2.63656 0
M  V30 1034 H 91.6133 -3.58492 -1.06931 0
M  V30 1035 H 92.9463 -4.71098 -1.42573 0
M  V30 1036 N 94.5984 0.214957 -1.56127 0
M  V30 1037 C 95.8284 0.953707 -1.8327 0
M  V30 1038 C 96.2364 1.78181 -0.636262 0
M  V30 1039 O 95.5794 1.79191 0.404516 0
M  V30 1040 C 95.6414 1.91516 -3.0424 0
M  V30 1041 C 95.3054 1.27094 -4.38972 0
M  V30 1042 C 96.3024 0.657575 -5.15725 0
M  V30 1043 C 93.9874 1.28073 -4.85698 0
M  V30 1044 C 95.9814 0.0625968 -6.37369 0
M  V30 1045 C 93.6684 0.681914 -6.07283 0
M  V30 1046 C 94.6664 0.0739046 -6.8296 0
M  V30 1047 O 94.3544 -0.515582 -8.02245 0
M  V30 1048 H 94.0864 0.284764 -0.613095 0
M  V30 1049 H 96.6404 0.233283 -2.04071 0
M  V30 1050 H 94.8704 2.67475 -2.79274 0
M  V30 1051 H 96.5594 2.52001 -3.18198 0
M  V30 1052 H 97.3254 0.642288 -4.80728 0
M  V30 1053 H 93.2044 1.74337 -4.26764 0
M  V30 1054 H 96.7484 -0.412593 -6.96379 0
M  V30 1055 H 92.6454 0.694636 -6.41752 0
M  V30 1056 H 93.4134 -0.410544 -8.1747 0
M  V30 1057 N 96.0765 1.50051 0.48192 0
M  V30 1058 C 97.4875 1.5348 1.06305 0
M  V30 1059 C 97.8385 0.331997 1.93371 0
M  V30 1060 O 96.9635 -0.556256 2.09129 0
M  V30 1061 C 97.5585 2.7813 1.93466 0
M  V30 1062 C 96.1175 2.84275 2.46707 0
M  V30 1063 C 95.2645 2.47637 1.24785 0
M  V30 1064 H 98.2155 1.56472 0.264995 0
M  V30 1065 H 98.2365 2.59372 2.78399 0
M  V30 1066 H 97.7485 3.65654 1.30072 0
M  V30 1067 H 95.8495 2.01077 3.13686 0
M  V30 1068 H 95.9625 3.8691 2.82555 0
M  V30 1069 H 94.3265 1.99835 1.57918 0
M  V30 1070 H 95.1095 3.37457 0.630694 0
M  V30 1071 N 97.5546 -0.734337 1.39446 0
M  V30 1072 C 98.8316 -1.48579 1.27215 0
M  V30 1073 C 99.2116 -2.1077 -0.117968 0
M  V30 1074 O 98.5596 -1.98646 -1.12924 0
M  V30 1075 C 98.7696 -2.53667 2.39696 0
M  V30 1076 C 100.118 -3.20031 2.79044 0
M  V30 1077 O 101.142 -2.6398 2.39151 0
M  V30 1078 O 100.001 -4.21455 3.47905 0
M  V30 1079 H 97.0946 -0.659816 0.49857 0
M  V30 1080 H 99.6406 -0.768106 1.51322 0
M  V30 1081 H 98.4126 -2.06096 3.32626 0
M  V30 1082 H 98.0356 -3.32994 2.17258 0
M  V30 1083 N 99.0327 -1.24633 -0.964593 0
M  V30 1084 C 99.9427 -1.05859 -2.09359 0
M  V30 1085 C 100.959 0.00148855 -1.74 0
M  V30 1086 O 102.135 -0.197346 -2.00431 0
M  V30 1087 C 99.1997 -0.668879 -3.40187 0
M  V30 1088 C 98.2607 -1.80578 -3.89474 0
M  V30 1089 C 97.4937 -1.43457 -5.14058 0
M  V30 1090 O 97.7167 -0.325775 -5.69469 0
M  V30 1091 O 96.6507 -2.2613 -5.57807 0
M  V30 1092 H 100.477 -2.00516 -2.28094 0
M  V30 1093 H 98.0617 -1.03481 -1.0776 0
M  V30 1094 H 99.9437 -0.463211 -4.18846 0
M  V30 1095 H 98.6187 0.248536 -3.22744 0
M  V30 1096 H 97.5257 -2.06623 -3.11862 0
M  V30 1097 H 98.8587 -2.70208 -4.11398 0
M  V30 1098 N 100.511 1.16574 -1.06058 0
M  V30 1099 C 101.76 1.86385 -0.770944 0
M  V30 1100 C 102.073 1.82448 0.705129 0
M  V30 1101 O 103.279 2.47815 1.10905 0
M  V30 1102 C 101.735 3.34466 -1.32893 0
M  V30 1103 C 101.343 3.46883 -2.83507 0
M  V30 1104 C 103.087 4.09548 -1.11672 0
M  V30 1105 C 100.994 4.89036 -3.32562 0
M  V30 1106 H 99.9238 0.698181 -0.284709 0
M  V30 1107 H 102.575 1.31583 -1.27899 0
M  V30 1108 H 100.957 3.88859 -0.748662 0
M  V30 1109 H 102.131 3.02663 -3.47465 0
M  V30 1110 H 100.446 2.85232 -3.03368 0
M  V30 1111 H 103.043 5.14434 -1.45814 0
M  V30 1112 H 103.386 4.16264 -0.0549535 0
M  V30 1113 H 103.919 3.61387 -1.66265 0
M  V30 1114 H 100.658 4.87499 -4.38207 0
M  V30 1115 H 100.178 5.3389 -2.73351 0
M  V30 1116 H 101.857 5.57843 -3.2775 0
M  V30 1117 N 101.989 0.842826 1.3317 0
M  V30 1118 C 102.899 0.281444 2.32906 0
M  V30 1119 C 103.915 -0.594587 1.63526 0
M  V30 1120 O 105.091 -0.49777 1.95152 0
M  V30 1121 C 102.156 -0.530929 3.42611 0
M  V30 1122 C 101.217 0.369843 4.27704 0
M  V30 1123 C 100.45 -0.403853 5.3217 0
M  V30 1124 O 100.673 -1.63513 5.46461 0
M  V30 1125 O 99.6069 0.224199 6.01482 0
M  V30 1126 H 103.433 1.10744 2.82789 0
M  V30 1127 H 101.018 0.60545 1.36582 0
M  V30 1128 H 102.9 -0.992437 4.09547 0
M  V30 1129 H 101.575 -1.33392 2.94938 0
M  V30 1130 H 100.482 0.879275 3.6362 0
M  V30 1131 H 101.815 1.13771 4.78871 0
M  V30 1132 N 103.467 -1.45747 0.599634 0
M  V30 1133 C 104.697 -2.06369 0.0977132 0
M  V30 1134 C 105.105 -1.44624 -1.21985 0
M  V30 1135 O 104.448 -0.551831 -1.75216 0
M  V30 1136 C 104.51 -3.59284 -0.124673 0
M  V30 1137 C 104.174 -4.43318 1.10987 0
M  V30 1138 C 105.171 -4.78796 2.02609 0
M  V30 1139 C 102.856 -4.84194 1.33647 0
M  V30 1140 C 104.85 -5.53997 3.15224 0
M  V30 1141 C 102.537 -5.5915 2.46565 0
M  V30 1142 C 103.535 -5.93968 3.37182 0
M  V30 1143 O 103.223 -6.67405 4.48136 0
M  V30 1144 H 102.955 -0.673122 0.0623153 0
M  V30 1145 H 105.509 -1.88104 0.824981 0
M  V30 1146 H 103.739 -3.75919 -0.906745 0
M  V30 1147 H 105.428 -4.01775 -0.577201 0
M  V30 1148 H 106.194 -4.47781 1.86325 0
M  V30 1149 H 102.073 -4.56534 0.64016 0
M  V30 1150 H 105.617 -5.81091 3.85978 0
M  V30 1151 H 101.514 -5.89579 2.62805 0
M  V30 1152 H 102.282 -6.85847 4.46717 0
M  V30 1153 N 104.945 -0.338344 -1.53925 0
M  V30 1154 C 106.194 0.260732 -2.00008 0
M  V30 1155 C 106.507 1.52073 -1.23017 0
M  V30 1156 O 107.713 2.19672 -1.5955 0
M  V30 1157 C 106.169 0.51515 -3.56194 0
M  V30 1158 C 105.777 -0.728645 -4.42035 0
M  V30 1159 C 107.521 1.07337 -4.10706 0
M  V30 1160 C 105.428 -0.445315 -5.89721 0
M  V30 1161 H 104.358 0.101205 -0.747177 0
M  V30 1162 H 107.009 -0.452866 -1.77824 0
M  V30 1163 H 105.391 1.28932 -3.74423 0
M  V30 1164 H 106.565 -1.50352 -4.35581 0
M  V30 1165 H 104.88 -1.20813 -3.98489 0
M  V30 1166 H 107.477 1.30022 -5.18651 0
M  V30 1167 H 107.82 2.0273 -3.63602 0
M  V30 1168 H 108.353 0.360034 -3.96167 0
M  V30 1169 H 105.092 -1.36883 -6.41049 0
M  V30 1170 H 104.612 0.291569 -5.99091 0
M  V30 1171 H 106.291 -0.0606218 -6.46972 0
M  V30 1172 N 106.423 1.57458 -0.0668435 0
M  V30 1173 C 107.67 1.93301 0.603406 0
M  V30 1174 C 107.998 0.946486 1.69917 0
M  V30 1175 O 107.253 -0.0387021 1.95662 0
M  V30 1176 C 107.552 3.35784 1.22409 0
M  V30 1177 C 107.218 4.50179 0.254955 0
M  V30 1178 C 105.88 4.81199 -0.0116746 0
M  V30 1179 C 108.232 5.19598 -0.408338 0
M  V30 1180 C 105.56 5.78978 -0.94877 0
M  V30 1181 C 107.912 6.18381 -1.33372 0
M  V30 1182 C 106.576 6.47821 -1.60887 0
M  V30 1183 H 105.846 0.707338 0.220802 0
M  V30 1184 H 108.493 1.91012 -0.136665 0
M  V30 1185 H 106.798 3.34515 2.03978 0
M  V30 1186 H 108.495 3.60804 1.74989 0
M  V30 1187 H 105.085 4.25983 0.472954 0
M  V30 1188 H 109.269 4.95832 -0.215456 0
M  V30 1189 H 104.525 6.00115 -1.16925 0
M  V30 1190 H 108.699 6.71277 -1.85367 0
M  V30 1191 H 106.326 7.23399 -2.33661 0
M  V30 1192 N 107.901 -0.206675 1.56239 0
M  V30 1193 C 108.848 -1.25617 1.93621 0
M  V30 1194 C 109.818 -1.45824 0.795274 0
M  V30 1195 O 111.003 -1.59148 1.05245 0
M  V30 1196 C 108.143 -2.59839 2.27107 0
M  V30 1197 C 107.256 -2.47308 3.54207 0
M  V30 1198 C 106.391 -3.74155 3.7707 0
M  V30 1199 C 105.43 -3.56407 4.97635 0
M  V30 1200 N 104.567 -4.75238 5.1681 0
M  V30 1201 H 109.407 -0.930383 2.83104 0
M  V30 1202 H 106.944 -0.448065 1.4011 0
M  V30 1203 H 108.902 -3.38021 2.44535 0
M  V30 1204 H 107.532 -2.90485 1.40778 0
M  V30 1205 H 106.584 -1.60483 3.4489 0
M  V30 1206 H 107.896 -2.30122 4.42544 0
M  V30 1207 H 107.05 -4.60778 3.94675 0
M  V30 1208 H 105.789 -3.94282 2.87042 0
M  V30 1209 H 104.794 -2.68168 4.79964 0
M  V30 1210 H 106.019 -3.37736 5.89161 0
M  V30 1211 H 103.965 -4.95651 4.29728 0
M  V30 1212 H 103.882 -4.60835 5.99306 0
M  V30 1213 H 105.15 -5.63246 5.38864 0
M  V30 1214 N 109.379 -1.50304 -0.473955 0
M  V30 1215 C 110.79 -1.54042 -1.0549 0
M  V30 1216 C 111.141 -0.342248 -1.93192 0
M  V30 1217 O 110.266 0.545157 -2.09421 0
M  V30 1218 C 110.861 -2.79152 -1.91989 0
M  V30 1219 C 109.42 -2.8558 -2.45196 0
M  V30 1220 C 108.567 -2.48295 -1.2347 0
M  V30 1221 H 111.518 -1.5661 -0.256693 0
M  V30 1222 H 111.539 -2.60845 -2.7702 0
M  V30 1223 H 111.051 -3.66339 -1.28131 0
M  V30 1224 H 109.152 -2.02738 -3.12615 0
M  V30 1225 H 109.265 -3.88403 -2.80499 0
M  V30 1226 H 107.629 -2.00669 -1.56856 0
M  V30 1227 H 108.412 -3.37787 -0.612789 0
M  V30 1228 N 110.857 0.726932 -1.39834 0
M  V30 1229 C 112.082 1.52121 -1.40976 0
M  V30 1230 C 112.507 1.88098 -0.00826029 0
M  V30 1231 O 111.865 1.52479 0.980807 0
M  V30 1232 C 111.913 2.78021 -2.29644 0
M  V30 1233 O 111.017 3.74272 -1.73188 0
M  V30 1234 H 110.358 0.45908 -0.479731 0
M  V30 1235 H 112.888 0.896207 -1.83927 0
M  V30 1236 H 112.898 3.26671 -2.44438 0
M  V30 1237 H 111.573 2.51169 -3.31492 0
M  V30 1238 H 110.15 3.33073 -1.6768 0
M  V30 1239 N 112.336 1.25143 0.95797 0
M  V30 1240 C 113.576 1.10893 1.71703 0
M  V30 1241 C 113.94 -0.34478 1.88879 0
M  V30 1242 O 115.141 -0.609014 2.6181 0
M  V30 1243 C 113.412 1.83889 3.06463 0
M  V30 1244 S 114.971 1.85491 3.97666 0
M  V30 1245 H 111.789 0.396428 0.590226 0
M  V30 1246 H 114.391 1.58618 1.14283 0
M  V30 1247 H 113.095 2.88756 2.9163 0
M  V30 1248 H 112.626 1.36538 3.68946 0
M  V30 1249 H 114.641 0.929553 4.87415 0
M  V30 1250 N 113.814 -1.1601 1.06675 0
M  V30 1251 C 115.06 -1.86909 0.786945 0
M  V30 1252 C 115.393 -1.81717 -0.685018 0
M  V30 1253 O 114.668 -1.23551 -1.50218 0
M  V30 1254 C 114.951 -3.36313 1.28707 0
M  V30 1255 C 114.804 -3.50175 2.82308 0
M  V30 1256 C 116.123 -4.3084 0.898071 0
M  V30 1257 H 113.242 -0.678677 0.287343 0
M  V30 1258 H 115.884 -1.36336 1.32334 0
M  V30 1259 H 114.034 -3.79513 0.830768 0
M  V30 1260 H 115.706 -3.15886 3.36175 0
M  V30 1261 H 113.949 -2.91959 3.20847 0
M  V30 1262 H 114.62 -4.55116 3.12368 0
M  V30 1263 H 117.096 -3.95561 1.29114 0
M  V30 1264 H 115.972 -5.33876 1.27543 0
M  V30 1265 H 116.233 -4.41662 -0.196651 0
M  V30 1266 N 115.292 -0.849877 -1.32721 0
M  V30 1267 C 116.703 -0.506188 -1.79707 0
M  V30 1268 C 117.054 0.975627 -1.70223 0
M  V30 1269 O 116.179 1.76078 -1.25799 0
M  V30 1270 C 116.774 -0.912044 -3.26293 0
M  V30 1271 C 115.333 -0.620326 -3.71253 0
M  V30 1272 C 114.48 -1.11439 -2.53922 0
M  V30 1273 H 117.431 -1.03754 -1.20087 0
M  V30 1274 H 117.452 -0.226493 -3.79825 0
M  V30 1275 H 116.964 -1.99057 -3.33164 0
M  V30 1276 H 115.065 0.447674 -3.69901 0
M  V30 1277 H 115.178 -1.18327 -4.64258 0
M  V30 1278 H 113.542 -0.534834 -2.49021 0
M  V30 1279 H 114.325 -2.19992 -2.6355 0
M  V30 1280 N 116.77 1.45427 -0.607355 0
M  V30 1281 C 117.7 2.3329 0.0989352 0
M  V30 1282 C 118.681 1.46816 0.859007 0
M  V30 1283 O 119.866 1.75588 0.829604 0
M  V30 1284 C 116.996 3.29518 1.09705 0
M  V30 1285 C 115.95 4.25626 0.450206 0
M  V30 1286 C 115.276 5.11542 1.55655 0
M  V30 1287 C 116.576 5.18505 -0.628455 0
M  V30 1288 H 118.27 2.92595 -0.634716 0
M  V30 1289 H 115.816 1.40696 -0.306681 0
M  V30 1290 H 117.769 3.89855 1.59971 0
M  V30 1291 H 116.493 2.68372 1.86129 0
M  V30 1292 H 115.152 3.66586 -0.0315886 0
M  V30 1293 H 114.8 4.46765 2.31107 0
M  V30 1294 H 114.5 5.76647 1.12925 0
M  V30 1295 H 116.024 5.74748 2.06148 0
M  V30 1296 H 117.438 5.72916 -0.209877 0
M  V30 1297 H 115.835 5.92085 -0.977489 0
M  V30 1298 H 116.905 4.60948 -1.50514 0
M  V30 1299 N 118.248 0.346503 1.53744 0
M  V30 1300 C 119.181 -0.552023 2.21423 0
M  V30 1301 C 120.159 -1.09798 1.19929 0
M  V30 1302 O 121.343 -1.1577 1.4876 0
M  V30 1303 C 118.47 -1.75972 2.89398 0
M  V30 1304 C 117.516 -1.34295 4.04805 0
M  V30 1305 S 118.349 -0.360263 5.34287 0
M  V30 1306 C 119.505 -1.57473 6.05767 0
M  V30 1307 H 119.738 0.0228119 2.97291 0
M  V30 1308 H 117.271 0.130579 1.53847 0
M  V30 1309 H 119.229 -2.45256 3.2918 0
M  V30 1310 H 117.89 -2.30578 2.1329 0
M  V30 1311 H 117.083 -2.24349 4.51313 0
M  V30 1312 H 116.685 -0.729555 3.66815 0
M  V30 1313 H 118.977 -2.50875 6.29339 0
M  V30 1314 H 119.92 -1.15138 6.98676 0
M  V30 1315 H 120.328 -1.77212 5.35963 0
M  V30 1316 N 119.726 -1.57421 0.075193 0
M  V30 1317 C 121.142 -1.57099 -0.281444 0
M  V30 1318 C 121.342 -1.08486 -1.69803 0
M  V30 1319 O 120.398 -0.752279 -2.41033 0
M  V30 1320 C 121.711 -3.00571 -0.0880041 0
M  V30 1321 C 123.259 -3.12605 -0.157281 0
M  V30 1322 C 123.734 -4.57999 0.0079207 0
M  V30 1323 N 125.225 -4.63176 -0.0475725 0
M  V30 1324 C 125.96 -5.73373 0.0557876 0
M  V30 1325 N 125.456 -6.92473 0.21286 0
M  V30 1326 N 127.249 -5.621 -0.00152098 0
M  V30 1327 H 119.4 -1.87335 1.00098 0
M  V30 1328 H 121.663 -0.86377 0.390646 0
M  V30 1329 H 121.369 -3.40262 0.889629 0
M  V30 1330 H 121.243 -3.67754 -0.838875 0
M  V30 1331 H 123.63 -2.72798 -1.1254 0
M  V30 1332 H 123.711 -2.48053 0.62475 0
M  V30 1333 H 123.355 -4.98496 0.972824 0
M  V30 1334 H 123.285 -5.20586 -0.793556 0
M  V30 1335 H 125.776 -3.7753 -0.167244 0
M  V30 1336 H 126.089 -7.72279 0.283781 0
M  V30 1337 H 124.434 -6.94556 0.248267 0
M  V30 1338 H 127.625 -4.67938 -0.122958 0
M  V30 1339 H 127.798 -6.47948 0.0824844 0
M  V30 1340 N 121.204 0.198386 -1.56346 0
M  V30 1341 C 122.444 0.92609 -1.82217 0
M  V30 1342 C 122.808 1.80584 -0.652195 0
M  V30 1343 O 124.009 2.56907 -0.790716 0
M  V30 1344 C 122.28 1.72354 -3.13096 0
M  V30 1345 S 123.839 2.50371 -3.6036 0
M  V30 1346 H 120.657 0.310677 -0.639532 0
M  V30 1347 H 123.259 0.189755 -1.94577 0
M  V30 1348 H 121.963 1.0678 -3.96265 0
M  V30 1349 H 121.494 2.50175 -3.03605 0
M  V30 1350 H 123.509 3.74488 -3.25535 0
M  V30 1351 N 122.682 1.50554 0.465978 0
M  V30 1352 C 123.93 1.61479 1.21528 0
M  V30 1353 C 124.251 0.319596 1.92363 0
M  V30 1354 O 123.521 -0.663194 1.84333 0
M  V30 1355 H 122.101 0.595055 0.451573 0
M  V30 1356 H 124.763 1.87355 0.53704 0
M  V30 1357 H 123.859 2.42846 1.96042 0
M  V30 1358 N 124.16 -0.719506 1.40217 0
M  V30 1359 C 125.408 -1.47641 1.3801 0
M  V30 1360 C 125.729 -1.94992 -0.018145 0
M  V30 1361 O 124.999 -1.70073 -0.972207 0
M  V30 1362 H 123.579 -0.547744 0.507923 0
M  V30 1363 H 126.241 -0.853187 1.75233 0
M  V30 1364 H 125.337 -2.35112 2.05253 0
M  V30 1365 N 125.638 -1.25649 -0.95132 0
M  V30 1366 C 126.878 -1.11802 -1.71113 0
M  V30 1367 C 127.242 0.334758 -1.89059 0
M  V30 1368 O 128.443 0.595121 -2.62129 0
M  V30 1369 C 126.714 -1.85512 -3.05483 0
M  V30 1370 S 128.273 -1.87597 -3.96677 0
M  V30 1371 H 125.091 -0.399552 -0.588115 0
M  V30 1372 H 127.693 -1.59222 -1.1344 0
M  V30 1373 H 126.397 -2.90299 -2.90094 0
M  V30 1374 H 125.928 -1.38493 -3.68216 0
M  V30 1375 H 127.943 -0.955389 -4.86916 0
M  V30 1376 N 127.117 1.15442 -1.07289 0
M  V30 1377 C 128.357 1.8788 -0.805012 0
M  V30 1378 C 128.721 1.80413 0.656907 0
M  V30 1379 O 129.922 2.47874 1.0398 0
M  V30 1380 C 128.193 3.3298 -1.29843 0
M  V30 1381 S 129.752 4.23158 -1.16114 0
M  V30 1382 H 126.57 0.64839 -0.291739 0
M  V30 1383 H 129.172 1.39285 -1.37186 0
M  V30 1384 H 127.876 3.35958 -2.35712 0
M  V30 1385 H 127.407 3.86629 -0.726767 0
M  V30 1386 H 129.422 4.96103 -0.0982778 0
M  V30 1387 N 128.595 0.856903 1.32268 0
M  V30 1388 C 129.543 0.291987 2.3076 0
M  V30 1389 C 130.537 -0.585857 1.58947 0
M  V30 1390 O 131.743 -0.47341 1.73663 0
M  V30 1391 H 128.118 0.075721 0.748178 0
M  V30 1392 H 130.089 1.13687 2.75895 0
M  V30 1393 C 128.838 -0.502869 3.44044 0
M  V30 1394 H 128.161 0.163328 3.99466 0
M  V30 1395 H 129.601 -0.863691 4.1511 0
M  V30 1396 C 128.06 -1.68898 2.91505 0
M  V30 1397 O 128.59 -2.78811 2.89184 0
M  V30 1398 N 126.796 -1.51679 2.47875 0
M  V30 1399 H 126.343 -0.622666 2.49961 0
M  V30 1400 H 126.301 -2.31184 2.13076 0
M  V30 1401 N 130.073 -1.45103 0.615059 0
M  V30 1402 C 131.35 -1.95549 0.0448276 0
M  V30 1403 C 131.73 -1.55737 -1.4251 0
M  V30 1404 O 131.078 -0.823556 -2.13143 0
M  V30 1405 C 131.288 -3.48098 0.250785 0
M  V30 1406 C 132.636 -4.24384 0.135509 0
M  V30 1407 O 133.66 -3.55738 0.181299 0
M  V30 1408 O 132.519 -5.46493 0.0268878 0
M  V30 1409 H 129.613 -0.8264 -0.0314845 0
M  V30 1410 H 132.159 -1.55232 0.685642 0
M  V30 1411 H 130.931 -3.7007 1.27139 0
M  V30 1412 H 130.554 -3.95323 -0.424937 0
M  V30 1413 N 131.551 -0.354651 -1.53558 0
M  V30 1414 C 132.461 0.50515 -2.29097 0
M  V30 1415 C 133.477 1.10223 -1.34636 0
M  V30 1416 O 134.653 1.11553 -1.67684 0
M  V30 1417 C 131.718 1.63479 -3.05738 0
M  V30 1418 C 130.779 1.06636 -4.15845 0
M  V30 1419 C 130.012 2.14217 -4.88822 0
M  V30 1420 O 130.235 3.35137 -4.61562 0
M  V30 1421 O 129.169 1.77887 -5.75013 0
M  V30 1422 H 132.995 -0.109237 -3.03503 0
M  V30 1423 H 130.58 -0.119357 -1.48922 0
M  V30 1424 H 132.462 2.2918 -3.5363 0
M  V30 1425 H 131.137 2.23478 -2.34178 0
M  V30 1426 H 130.044 0.373565 -3.7223 0
M  V30 1427 H 131.377 0.511081 -4.89539 0
M  V30 1428 N 133.029 1.57378 -0.0835403 0
M  V30 1429 C 134.277 1.93547 0.581718 0
M  V30 1430 C 134.598 0.96524 1.69435 0
M  V30 1431 O 133.868 0.0153369 1.95894 0
M  V30 1432 H 132.448 0.714521 0.217874 0
M  V30 1433 H 135.11 1.94366 -0.144158 0
M  V30 1434 H 134.206 2.95665 0.999423 0
M  V30 1435 N 134.507 -0.190092 1.56449 0
M  V30 1436 C 135.437 -1.23816 1.97969 0
M  V30 1437 C 136.418 -1.47201 0.852395 0
M  V30 1438 O 137.603 -1.58854 1.1171 0
M  V30 1439 C 134.733 -2.5813 2.3235 0
M  V30 1440 C 133.687 -2.49348 3.47864 0
M  V30 1441 C 133.013 -3.8798 3.67934 0
M  V30 1442 C 134.313 -2.01424 4.81898 0
M  V30 1443 H 136.007 -0.89311 2.85769 0
M  V30 1444 H 133.553 -0.428177 1.37487 0
M  V30 1445 H 135.506 -3.31637 2.59991 0
M  V30 1446 H 134.23 -2.94386 1.41438 0
M  V30 1447 H 132.889 -1.78297 3.20321 0
M  V30 1448 H 132.537 -4.21597 2.74344 0
M  V30 1449 H 132.237 -3.82978 4.45648 0
M  V30 1450 H 133.761 -4.63101 3.97957 0
M  V30 1451 H 135.175 -2.64693 5.08538 0
M  V30 1452 H 133.572 -2.07413 5.63116 0
M  V30 1453 H 134.642 -0.967677 4.75146 0
M  V30 1454 N 135.985 -1.50799 -0.457987 0
M  V30 1455 C 136.895 -1.73426 -1.57989 0
M  V30 1456 C 137.911 -0.617745 -1.62665 0
M  V30 1457 O 139.087 -0.897614 -1.80291 0
M  V30 1458 C 136.152 -1.83557 -2.94122 0
M  V30 1459 C 135.213 -3.07345 -2.99729 0
M  V30 1460 C 134.446 -3.16983 -4.29368 0
M  V30 1461 O 134.669 -2.33077 -5.20607 0
M  V30 1462 O 133.603 -4.09812 -4.40837 0
M  V30 1463 H 137.429 -2.68555 -1.41817 0
M  V30 1464 H 135.014 -1.35052 -0.638859 0
M  V30 1465 H 136.896 -1.92326 -3.74952 0
M  V30 1466 H 135.571 -0.916137 -3.10465 0
M  V30 1467 H 134.478 -3.04068 -2.1793 0
M  V30 1468 H 135.811 -3.9891 -2.88326 0
M  V30 1469 N 137.463 0.71206 -1.40597 0
M  V30 1470 C 138.703 1.48438 -1.40519 0
M  V30 1471 C 139.067 1.91998 -0.00767611 0
M  V30 1472 O 140.268 2.6854 0.118239 0
M  V30 1473 C 138.539 2.67514 -2.37004 0
M  V30 1474 S 140.098 3.56875 -2.55315 0
M  V30 1475 H 136.916 0.507457 -0.498005 0
M  V30 1476 H 139.518 0.832355 -1.76896 0
M  V30 1477 H 138.222 2.33689 -3.37368 0
M  V30 1478 H 137.753 3.37625 -2.01923 0
M  V30 1479 H 139.768 4.62081 -1.8082 0
M  V30 1480 N 138.941 1.26152 0.944643 0
M  V30 1481 C 140.187 1.11657 1.69294 0
M  V30 1482 C 140.52 -0.339926 1.91202 0
M  V30 1483 O 139.795 -1.24994 1.49019 0
M  V30 1484 C 140.078 1.88236 3.06984 0
M  V30 1485 C 139.931 3.41772 2.92424 0
M  V30 1486 C 141.25 1.67343 4.07043 0
M  V30 1487 H 138.369 0.407004 0.614424 0
M  V30 1488 H 141.011 1.55106 1.09737 0
M  V30 1489 H 139.161 1.51308 3.57824 0
M  V30 1490 H 140.833 3.88433 2.48832 0
M  V30 1491 H 139.076 3.68974 2.28124 0
M  V30 1492 H 139.747 3.90579 3.90067 0
M  V30 1493 H 142.223 1.99509 3.65151 0
M  V30 1494 H 141.099 2.23346 5.01406 0
M  V30 1495 H 141.36 0.617158 4.37771 0
M  V30 1496 N 140.419 -1.14872 1.07899 0
M  V30 1497 C 141.83 -1.67367 0.827363 0
M  V30 1498 C 142.181 -1.85236 -0.646693 0
M  V30 1499 O 141.306 -1.55974 -1.50004 0
M  V30 1500 C 141.901 -3.04016 1.49532 0
M  V30 1501 C 140.46 -3.53566 1.29106 0
M  V30 1502 C 139.607 -2.29161 1.56143 0
M  V30 1503 H 142.558 -0.990083 1.24028 0
M  V30 1504 H 142.579 -3.69219 0.919643 0
M  V30 1505 H 142.091 -2.90978 2.56814 0
M  V30 1506 H 140.192 -3.71835 0.238713 0
M  V30 1507 H 140.305 -4.34661 2.01511 0
M  V30 1508 H 138.669 -2.34978 0.982717 0
M  V30 1509 H 139.452 -2.18705 2.64619 0
M  V30 1510 N 141.898 -0.863906 -1.31812 0
M  V30 1511 C 143.126 -0.486111 -2.01108 0
M  V30 1512 C 143.541 0.919755 -1.64882 0
M  V30 1513 O 142.898 1.60162 -0.874893 0
M  V30 1514 C 142.949 -0.626435 -3.56031 0
M  V30 1515 O 142.67 -1.97693 -3.90959 0
M  V30 1516 C 144.171 -0.248857 -4.42601 0
M  V30 1517 H 141.391 -0.190052 -0.643523 0
M  V30 1518 H 143.935 -1.1634 -1.68182 0
M  V30 1519 H 142.09 0.00322717 -3.874 0
M  V30 1520 H 142.504 -1.98034 -4.85678 0
M  V30 1521 H 143.978 -0.398016 -5.50563 0
M  V30 1522 H 144.455 0.811489 -4.31638 0
M  V30 1523 H 145.061 -0.853971 -4.16638 0
M  V30 1524 N 143.376 1.44774 -0.622745 0
M  V30 1525 C 144.286 2.34433 0.0886031 0
M  V30 1526 C 145.302 1.52131 0.844529 0
M  V30 1527 O 146.478 1.84886 0.798691 0
M  V30 1528 C 143.543 3.29986 1.0635 0
M  V30 1529 C 142.604 4.28195 0.307873 0
M  V30 1530 C 141.837 5.19183 1.23633 0
M  V30 1531 O 142.06 5.13918 2.47476 0
M  V30 1532 O 140.994 5.97515 0.725189 0
M  V30 1533 H 144.82 2.96693 -0.648599 0
M  V30 1534 H 142.405 1.44408 -0.382957 0
M  V30 1535 H 144.287 3.88825 1.6246 0
M  V30 1536 H 142.962 2.70269 1.78146 0
M  V30 1537 H 141.869 3.72927 -0.296064 0
M  V30 1538 H 143.202 4.90808 -0.3699 0
M  V30 1539 N 144.854 0.36279 1.53368 0
M  V30 1540 C 145.764 -0.492994 2.29362 0
M  V30 1541 C 146.78 -1.09507 1.35219 0
M  V30 1542 O 147.956 -1.10662 1.68273 0
M  V30 1543 C 145.021 -1.61855 3.066 0
M  V30 1544 C 144.082 -1.04429 4.16405 0
M  V30 1545 C 143.315 -2.11621 4.89951 0
M  V30 1546 O 143.538 -3.32684 4.63333 0
M  V30 1547 O 142.472 -1.74835 5.75948 0
M  V30 1548 H 146.298 0.125331 3.03441 0
M  V30 1549 H 143.883 0.127253 1.48857 0
M  V30 1550 H 145.765 -2.27302 3.54841 0
M  V30 1551 H 144.44 -2.22233 2.3536 0
M  V30 1552 H 143.347 -0.353819 3.72423 0
M  V30 1553 H 144.68 -0.485113 4.89804 0
M  V30 1554 N 146.332 -1.57332 0.0918853 0
M  V30 1555 C 147.557 -1.98995 -0.584442 0
M  V30 1556 C 147.982 -0.970528 -1.61128 0
M  V30 1557 O 147.34 0.0613904 -1.81196 0
M  V30 1558 C 147.388 -3.39636 -1.21161 0
M  V30 1559 O 146.492 -3.40447 -2.32744 0
M  V30 1560 H 145.833 -0.647165 -0.148572 0
M  V30 1561 H 148.363 -2.03873 0.172347 0
M  V30 1562 H 148.373 -3.7726 -1.55367 0
M  V30 1563 H 147.048 -4.13356 -0.459313 0
M  V30 1564 H 145.625 -3.14614 -2.0018 0
M  V30 1565 N 147.81 0.181792 -1.56548 0
M  V30 1566 C 148.758 1.24461 -1.965 0
M  V30 1567 C 149.752 1.464 -0.852261 0
M  V30 1568 O 150.958 1.47103 -1.03733 0
M  V30 1569 H 147.333 0.418138 -0.625031 0
M  V30 1570 H 149.304 0.880714 -2.85107 0
M  V30 1571 C 148.053 2.57891 -2.33212 0
M  V30 1572 H 147.376 2.41829 -3.18369 0
M  V30 1573 H 148.816 3.3097 -2.65019 0
M  V30 1574 C 147.275 3.15871 -1.17163 0
M  V30 1575 O 147.805 3.9913 -0.453708 0
M  V30 1576 N 146.011 2.74808 -0.944936 0
M  V30 1577 H 145.558 2.07205 -1.53049 0
M  V30 1578 H 145.516 3.13939 -0.170286 0
M  V30 1579 N 149.288 1.51039 0.449983 0
M  V30 1580 C 150.537 1.62317 1.19733 0
M  V30 1581 C 150.85 0.339101 1.92638 0
M  V30 1582 O 152.056 0.331069 2.69474 0
M  V30 1583 C 150.512 2.86608 2.17678 0
M  V30 1584 C 150.12 4.21972 1.50479 0
M  V30 1585 C 151.864 3.07239 2.92924 0
M  V30 1586 C 149.771 5.37426 2.46834 0
M  V30 1587 H 148.701 0.604532 0.450619 0
M  V30 1588 H 151.352 1.77494 0.465625 0
M  V30 1589 H 149.734 2.65037 2.94231 0
M  V30 1590 H 150.908 4.53878 0.795716 0
M  V30 1591 H 149.223 4.07117 0.874344 0
M  V30 1592 H 151.82 3.90668 3.65079 0
M  V30 1593 H 152.163 2.19807 3.5354 0
M  V30 1594 H 152.696 3.29091 2.23481 0
M  V30 1595 H 149.435 6.27079 1.90926 0
M  V30 1596 H 148.955 5.09912 3.15832 0
M  V30 1597 H 150.634 5.68862 3.08228 0
M  V30 1598 N 150.766 -0.704594 1.40972 0
M  V30 1599 C 151.994 -1.49354 1.43182 0
M  V30 1600 C 152.409 -1.88768 0.0345508 0
M  V30 1601 O 151.766 -1.56184 -0.944081 0
M  V30 1602 C 151.817 -2.76187 2.33244 0
M  V30 1603 O 151.538 -2.38436 3.67532 0
M  V30 1604 C 153.039 -3.7 2.44162 0
M  V30 1605 H 150.259 -0.460559 0.487982 0
M  V30 1606 H 152.803 -0.868261 1.85153 0
M  V30 1607 H 150.958 -3.34974 1.94606 0
M  V30 1608 H 151.372 -3.20126 4.15475 0
M  V30 1609 H 152.846 -4.55803 3.11364 0
M  V30 1610 H 153.323 -4.13867 1.47006 0
M  V30 1611 H 153.929 -3.17121 2.83398 0
M  V30 1612 N 152.244 -1.26651 -0.937939 0
M  V30 1613 C 153.177 -1.02811 -2.03728 0
M  V30 1614 C 154.155 0.0481915 -1.62529 0
M  V30 1615 O 155.339 -0.0948839 -1.88261 0
M  V30 1616 C 152.466 -0.557517 -3.3408 0
M  V30 1617 C 151.512 -1.62686 -3.94253 0
M  V30 1618 S 152.345 -3.21667 -4.28125 0
M  V30 1619 C 153.501 -2.76384 -5.61572 0
M  V30 1620 H 153.734 -1.95891 -2.23638 0
M  V30 1621 H 151.267 -1.10367 -1.07974 0
M  V30 1622 H 153.225 -0.292674 -4.09455 0
M  V30 1623 H 151.886 0.353062 -3.12109 0
M  V30 1624 H 151.079 -1.24866 -4.88287 0
M  V30 1625 H 150.681 -1.84324 -3.25424 0
M  V30 1626 H 152.973 -2.2105 -6.40424 0
M  V30 1627 H 153.916 -3.69123 -6.0428 0
M  V30 1628 H 154.324 -2.15847 -5.21604 0
M  V30 1629 N 153.722 1.14298 -1.08507 0
M  V30 1630 C 154.654 2.1907 -0.673859 0
M  V30 1631 C 155.667 1.60381 0.279577 0
M  V30 1632 O 156.856 1.78374 0.0670754 0
M  V30 1633 C 153.956 3.38888 0.0290979 0
M  V30 1634 C 153.129 4.27103 -0.943494 0
M  V30 1635 C 152.188 5.25477 -0.275676 0
M  V30 1636 O 151.214 5.61709 -0.920401 0
M  V30 1637 N 152.416 5.7227 0.974013 0
M  V30 1638 H 155.181 2.54965 -1.57521 0
M  V30 1639 H 152.742 1.29528 -0.971287 0
M  V30 1640 H 154.734 4.01761 0.48683 0
M  V30 1641 H 153.304 3.01309 0.832555 0
M  V30 1642 H 152.524 3.61149 -1.58004 0
M  V30 1643 H 153.812 4.82905 -1.60251 0
M  V30 1644 H 153.21 5.44965 1.51755 0
M  V30 1645 H 151.767 6.37127 1.37522 0
M  V30 1646 N 155.201 0.870884 1.31352 0
M  V30 1647 C 156.45 0.478408 1.95944 0
M  V30 1648 C 156.763 -0.974493 1.69597 0
M  V30 1649 O 157.969 -1.47316 2.28058 0
M  V30 1650 C 156.425 0.804609 3.50791 0
M  V30 1651 C 156.033 2.27433 3.85977 0
M  V30 1652 C 157.777 0.480648 4.2177 0
M  V30 1653 C 155.684 2.5429 5.33939 0
M  V30 1654 H 154.614 0.175175 0.733369 0
M  V30 1655 H 157.265 1.06391 1.4951 0
M  V30 1656 H 155.647 0.148347 3.95722 0
M  V30 1657 H 156.821 2.97373 3.52002 0
M  V30 1658 H 155.136 2.56442 3.28065 0
M  V30 1659 H 157.733 0.658519 5.30629 0
M  V30 1660 H 158.076 -0.578979 4.12254 0
M  V30 1661 H 158.609 1.09349 3.82476 0
M  V30 1662 H 155.348 3.58939 5.48491 0
M  V30 1663 H 154.868 1.88945 5.69263 0
M  V30 1664 H 156.547 2.39066 6.01212 0
M  V30 1665 N 156.679 -1.44442 0.630414 0
M  V30 1666 C 157.612 -2.27862 -0.124247 0
M  V30 1667 C 158.59 -1.38495 -0.851931 0
M  V30 1668 O 159.774 -1.67935 -0.856166 0
M  V30 1669 C 156.901 -3.17407 -1.18197 0
M  V30 1670 C 155.947 -4.22875 -0.554892 0
M  V30 1671 S 156.78 -5.31485 0.654489 0
M  V30 1672 C 157.936 -6.246 -0.40326 0
M  V30 1673 H 158.169 -2.91519 0.583435 0
M  V30 1674 H 155.702 -1.48618 0.418565 0
M  V30 1675 H 157.66 -3.69549 -1.78728 0
M  V30 1676 H 156.321 -2.52971 -1.86184 0
M  V30 1677 H 155.514 -4.85542 -1.35148 0
M  V30 1678 H 155.116 -3.73992 -0.0242105 0
M  V30 1679 H 157.408 -6.65375 -1.27602 0
M  V30 1680 H 158.351 -7.07851 0.187813 0
M  V30 1681 H 158.759 -5.59775 -0.728837 0
M  V30 1682 N 158.157 -0.370918 -1.53173 0
M  V30 1683 C 159.573 -0.0200818 -1.59587 0
M  V30 1684 C 159.773 1.46279 -1.38581 0
M  V30 1685 O 158.829 2.22506 -1.19363 0
M  V30 1686 C 160.142 -0.4808 -2.96831 0
M  V30 1687 C 161.69 -0.435477 -3.09956 0
M  V30 1688 C 162.165 -0.872092 -4.4962 0
M  V30 1689 N 163.656 -0.827364 -4.55751 0
M  V30 1690 C 164.391 -1.13683 -5.62018 0
M  V30 1691 N 163.887 -1.51584 -6.76014 0
M  V30 1692 N 165.68 -1.05927 -5.52029 0
M  V30 1693 H 157.831 -1.33652 -1.65079 0
M  V30 1694 H 160.094 -0.546634 -0.774529 0
M  V30 1695 H 159.8 -1.51577 -3.1736 0
M  V30 1696 H 159.674 0.129796 -3.76977 0
M  V30 1697 H 162.061 0.590371 -2.89134 0
M  V30 1698 H 162.142 -1.08164 -2.31806 0
M  V30 1699 H 161.786 -1.89608 -4.71181 0
M  V30 1700 H 161.716 -0.203127 -5.26208 0
M  V30 1701 H 164.207 -0.548216 -3.73902 0
M  V30 1702 H 164.52 -1.73609 -7.53047 0
M  V30 1703 H 162.865 -1.55454 -6.77391 0
M  V30 1704 H 166.056 -0.762321 -4.61851 0
M  V30 1705 H 166.229 -1.30378 -6.34749 0
M  V30 1706 N 159.635 1.57281 -0.100228 0
M  V30 1707 C 160.884 1.93713 0.561984 0
M  V30 1708 C 161.197 0.984492 1.69018 0
M  V30 1709 O 162.403 1.24273 2.41389 0
M  V30 1710 C 160.859 3.4421 1.05106 0
M  V30 1711 C 160.467 4.47975 -0.0476628 0
M  V30 1712 C 162.211 3.89595 1.68571 0
M  V30 1713 C 160.118 5.89631 0.457055 0
M  V30 1714 H 159.048 0.723082 0.2137 0
M  V30 1715 H 161.699 1.82644 -0.177057 0
M  V30 1716 H 160.081 3.50449 1.84395 0
M  V30 1717 H 161.255 4.53385 -0.823333 0
M  V30 1718 H 159.57 4.1223 -0.587816 0
M  V30 1719 H 162.167 4.92832 2.07414 0
M  V30 1720 H 162.51 3.28526 2.55688 0
M  V30 1721 H 163.043 3.86078 0.958562 0
M  V30 1722 H 159.782 6.54411 -0.377616 0
M  V30 1723 H 159.302 5.87681 1.19962 0
M  V30 1724 H 160.981 6.40363 0.92437 0
M  V30 1725 N 161.113 -0.173488 1.56642 0
M  V30 1726 C 162.06 -1.21482 1.96242 0
M  V30 1727 C 163.03 -1.44104 0.826027 0
M  V30 1728 O 164.215 -1.5688 1.08597 0
M  V30 1729 C 161.355 -2.54964 2.32567 0
M  V30 1730 C 160.468 -2.39739 3.59373 0
M  V30 1731 C 159.603 -3.66072 3.84921 0
M  V30 1732 C 158.642 -3.45771 5.05083 0
M  V30 1733 N 157.779 -4.64169 5.26775 0
M  V30 1734 H 162.619 -0.870123 2.85014 0
M  V30 1735 H 160.156 -0.418245 1.41029 0
M  V30 1736 H 162.114 -3.32758 2.5165 0
M  V30 1737 H 160.744 -2.87433 1.46908 0
M  V30 1738 H 159.796 -1.53131 3.48217 0
M  V30 1739 H 161.108 -2.20683 4.47326 0
M  V30 1740 H 160.262 -4.52303 4.0436 0
M  V30 1741 H 159.001 -3.88105 2.9534 0
M  V30 1742 H 158.006 -2.57927 4.85545 0
M  V30 1743 H 159.231 -3.25163 5.96193 0
M  V30 1744 H 157.177 -4.86425 4.40144 0
M  V30 1745 H 157.094 -4.48019 6.08946 0
M  V30 1746 H 158.362 -5.51689 5.5069 0
M  V30 1747 N 162.591 -1.51276 -0.441967 0
M  V30 1748 C 164.002 -1.56244 -1.02199 0
M  V30 1749 C 164.353 -0.383149 -1.92422 0
M  V30 1750 O 163.478 0.500613 -2.1053 0
M  V30 1751 C 164.073 -2.83162 -1.86024 0
M  V30 1752 C 162.632 -2.90716 -2.39084 0
M  V30 1753 C 161.779 -2.50858 -1.18175 0
M  V30 1754 H 164.73 -1.5712 -0.223416 0
M  V30 1755 H 164.751 -2.66663 -2.71425 0
M  V30 1756 H 164.263 -3.68974 -1.20331 0
M  V30 1757 H 162.364 -2.09323 -3.08244 0
M  V30 1758 H 162.477 -3.94266 -2.72198 0
M  V30 1759 H 160.841 -2.03951 -1.52565 0
M  V30 1760 H 161.624 -3.3901 -0.541001 0
M  V30 1761 N 164.069 0.697108 -1.41344 0
M  V30 1762 C 165.019 1.80313 -1.39539 0
M  V30 1763 C 166.003 1.58618 -0.270001 0
M  V30 1764 O 167.195 1.69477 -0.510551 0
M  V30 1765 C 164.324 3.18606 -1.27848 0
M  V30 1766 C 163.41 3.46001 -2.45244 0
M  V30 1767 N 163.801 3.44103 -3.70711 0
M  V30 1768 C 162.099 3.76542 -2.39023 0
M  V30 1769 C 162.8 3.7036 -4.48563 0
M  V30 1770 N 161.776 3.90027 -3.78655 0
M  V30 1771 H 165.578 1.77207 -2.34468 0
M  V30 1772 H 163.092 0.897031 -1.35378 0
M  V30 1773 H 165.089 3.97833 -1.24637 0
M  V30 1774 H 163.749 3.22925 -0.339032 0
M  V30 1775 H 164.76 3.2452 -4.03618 0
M  V30 1776 H 161.437 3.88241 -1.53542 0
M  V30 1777 H 162.827 3.75042 -5.57488 0
M  V30 1778 N 165.547 1.27147 0.931209 0
M  V30 1779 C 166.479 1.05364 2.03546 0
M  V30 1780 C 167.492 0.0108438 1.62796 0
M  V30 1781 O 168.681 0.25202 1.76712 0
M  V30 1782 C 165.781 0.575566 3.33977 0
M  V30 1783 C 164.954 1.68985 4.03439 0
M  V30 1784 C 164.013 1.20813 5.12143 0
M  V30 1785 O 163.039 1.90712 5.363 0
M  V30 1786 N 164.241 0.0618851 5.80467 0
M  V30 1787 H 167.006 2.00454 2.22796 0
M  V30 1788 H 164.567 1.18666 1.10136 0
M  V30 1789 H 166.559 0.237264 4.04004 0
M  V30 1790 H 165.129 -0.282016 3.11325 0
M  V30 1791 H 164.349 2.19861 3.27192 0
M  V30 1792 H 165.637 2.4378 4.46597 0
M  V30 1793 H 165.035 -0.521621 5.6329 0
M  V30 1794 H 163.592 -0.217264 6.51438 0
M  V30 1795 N 167.025 -1.13721 1.09112 0
M  V30 1796 C 168.273 -1.84559 0.823562 0
M  V30 1797 C 168.594 -1.83754 -0.652658 0
M  V30 1798 O 167.864 -1.29102 -1.47342 0
M  V30 1799 H 166.444 -0.683376 0.301673 0
M  V30 1800 H 169.106 -1.37771 1.37859 0
M  V30 1801 H 168.202 -2.8917 1.17419 0
M  V30 1802 N 168.503 -0.877838 -1.30888 0
M  V30 1803 C 169.435 -0.296607 -2.27273 0
M  V30 1804 C 170.448 0.544799 -1.53414 0
M  V30 1805 O 171.637 0.365511 -1.74718 0
M  V30 1806 C 168.737 0.597481 -3.33592 0
M  V30 1807 C 167.91 -0.213251 -4.3688 0
M  V30 1808 C 166.969 0.610208 -5.2265 0
M  V30 1809 O 165.995 0.035441 -5.69189 0
M  V30 1810 N 167.197 1.92071 -5.47804 0
M  V30 1811 H 169.962 -1.12492 -2.77787 0
M  V30 1812 H 167.523 -0.740105 -1.43993 0
M  V30 1813 H 169.515 1.15425 -3.87891 0
M  V30 1814 H 168.085 1.32647 -2.83061 0
M  V30 1815 H 167.305 -0.951466 -3.82545 0
M  V30 1816 H 168.593 -0.769262 -5.02951 0
M  V30 1817 H 167.991 2.4107 -5.11763 0
M  V30 1818 H 166.548 2.42508 -6.05007 0
M  V30 1819 N 169.982 1.44106 -0.638065 0
M  V30 1820 C 170.932 2.27843 0.0847285 0
M  V30 1821 C 171.916 1.39055 0.809471 0
M  V30 1822 O 173.108 1.62808 0.694435 0
M  V30 1823 C 170.237 3.26497 1.06089 0
M  V30 1824 C 169.323 4.22772 0.33541 0
M  V30 1825 N 169.714 5.01737 -0.639787 0
M  V30 1826 C 168.012 4.42227 0.578921 0
M  V30 1827 C 168.713 5.71792 -1.06904 0
M  V30 1828 N 167.689 5.42079 -0.406395 0
M  V30 1829 H 171.491 2.86305 -0.663814 0
M  V30 1830 H 169.005 1.55627 -0.464122 0
M  V30 1831 H 171.002 3.8525 1.59337 0
M  V30 1832 H 169.662 2.69595 1.80966 0
M  V30 1833 H 170.673 5.07799 -1.01789 0
M  V30 1834 H 167.35 3.96415 1.31003 0
M  V30 1835 H 168.74 6.45205 -1.8751 0
M  V30 1836 N 171.46 0.379036 1.52974 0
M  V30 1837 C 172.709 -0.207612 2.00629 0
M  V30 1838 C 173.022 -1.48758 1.27006 0
M  V30 1839 O 174.228 -2.15365 1.65318 0
M  V30 1840 C 172.684 -0.42053 3.57435 0
M  V30 1841 C 172.292 0.845587 4.39948 0
M  V30 1842 C 174.036 -0.964102 4.13407 0
M  V30 1843 C 171.943 0.601513 5.88333 0
M  V30 1844 H 170.873 -0.0813591 0.749598 0
M  V30 1845 H 173.524 0.499853 1.76561 0
M  V30 1846 H 171.906 -1.18959 3.7771 0
M  V30 1847 H 173.08 1.61848 4.31442 0
M  V30 1848 H 171.395 1.31336 3.95145 0
M  V30 1849 H 173.992 -1.16225 5.21916 0
M  V30 1850 H 174.335 -1.93019 3.68849 0
M  V30 1851 H 174.868 -0.25487 3.96983 0
M  V30 1852 H 171.607 1.53831 6.37194 0
M  V30 1853 H 171.127 -0.132628 5.99653 0
M  V30 1854 H 172.806 0.232134 6.46583 0
M  V30 1855 N 172.938 -1.57226 0.108567 0
M  V30 1856 C 174.186 -1.94448 -0.550853 0
M  V30 1857 C 174.507 -0.992074 -1.67878 0
M  V30 1858 O 173.777 -0.0465 -1.95845 0
M  V30 1859 H 172.357 -0.717897 -0.206479 0
M  V30 1860 H 175.019 -1.94112 0.175062 0
M  V30 1861 H 174.115 -2.97218 -0.952259 0
M  V30 1862 N 174.416 0.165178 -1.56732 0
M  V30 1863 C 175.326 1.22423 -2.00125 0
M  V30 1864 C 176.342 1.48084 -0.913619 0
M  V30 1865 O 177.518 1.60112 -1.22172 0
M  V30 1866 C 174.583 2.54197 -2.35764 0
M  V30 1867 C 173.644 2.36343 -3.58386 0
M  V30 1868 C 172.877 3.61834 -3.92316 0
M  V30 1869 O 173.1 4.67267 -3.27135 0
M  V30 1870 O 172.034 3.55579 -4.85641 0
M  V30 1871 H 175.86 0.885886 -2.90492 0
M  V30 1872 H 173.445 0.372518 -1.44681 0
M  V30 1873 H 175.327 3.3192 -2.59629 0
M  V30 1874 H 174.002 2.87598 -1.48557 0
M  V30 1875 H 172.909 1.56632 -3.39731 0
M  V30 1876 H 174.242 2.07865 -4.46154 0
M  V30 1877 N 175.894 1.51508 0.433938 0
M  V30 1878 C 176.827 1.67756 1.54704 0
M  V30 1879 C 177.805 0.525127 1.53887 0
M  V30 1880 O 178.989 0.749393 1.72963 0
M  V30 1881 C 176.116 1.69424 2.9328 0
M  V30 1882 C 175.162 2.90673 3.12108 0
M  V30 1883 S 175.995 4.51431 2.88046 0
M  V30 1884 C 177.151 4.55849 4.28897 0
M  V30 1885 H 177.384 2.61904 1.40689 0
M  V30 1886 H 174.917 1.41235 0.62386 0
M  V30 1887 H 176.875 1.7107 3.73156 0
M  V30 1888 H 175.536 0.764464 3.04655 0
M  V30 1889 H 174.729 2.88251 4.13434 0
M  V30 1890 H 174.331 2.86786 2.40062 0
M  V30 1891 H 176.623 4.31699 5.22152 0
M  V30 1892 H 177.566 5.57676 4.36351 0
M  V30 1893 H 177.974 3.85137 4.12711 0
M  V30 1894 N 177.372 -0.689602 1.41712 0
M  V30 1895 C 178.597 -1.48329 1.44959 0
M  V30 1896 C 179.022 -1.8801 0.0581283 0
M  V30 1897 O 178.38 -1.55026 -0.940035 0
M  V30 1898 C 178.428 -2.71835 2.36935 0
M  V30 1899 O 177.532 -3.69549 1.8305 0
M  V30 1900 H 176.873 -0.446199 0.491734 0
M  V30 1901 H 179.403 -0.847127 1.86239 0
M  V30 1902 H 179.413 -3.20076 2.53013 0
M  V30 1903 H 178.088 -2.42291 3.38035 0
M  V30 1904 H 176.665 -3.2851 1.76452 0
M  V30 1905 N 178.85 -1.27639 -0.924453 0
M  V30 1906 C 180.097 -1.14167 -1.67249 0
M  V30 1907 C 180.425 0.311863 -1.91984 0
M  V30 1908 O 179.68 1.24425 -1.51053 0
M  V30 1909 C 179.979 -1.87407 -3.04325 0
M  V30 1910 C 179.645 -3.37249 -2.99289 0
M  V30 1911 C 178.307 -3.7812 -2.97622 0
M  V30 1912 C 180.659 -4.32845 -2.90336 0
M  V30 1913 C 177.987 -5.12944 -2.8479 0
M  V30 1914 C 180.339 -5.6773 -2.79045 0
M  V30 1915 C 179.003 -6.07889 -2.7573 0
M  V30 1916 H 178.273 -0.417766 -0.612007 0
M  V30 1917 H 180.92 -1.58286 -1.07786 0
M  V30 1918 H 179.225 -1.35805 -3.67511 0
M  V30 1919 H 180.922 -1.74408 -3.61086 0
M  V30 1920 H 177.512 -3.04748 -3.01374 0
M  V30 1921 H 181.696 -4.02239 -2.90719 0
M  V30 1922 H 176.952 -5.432 -2.80612 0
M  V30 1923 H 181.126 -6.41472 -2.71083 0
M  V30 1924 H 178.753 -7.12314 -2.65544 0
M  V30 1925 N 180.328 1.1314 -1.09713 0
M  V30 1926 C 181.258 2.20748 -0.761102 0
M  V30 1927 C 182.239 1.68061 0.262566 0
M  V30 1928 O 183.424 1.93765 0.129977 0
M  V30 1929 C 180.554 3.46812 -0.184054 0
M  V30 1930 C 179.508 4.12606 -1.13757 0
M  V30 1931 C 178.834 5.33031 -0.422083 0
M  V30 1932 C 180.134 4.59603 -2.48118 0
M  V30 1933 H 181.828 2.49113 -1.66082 0
M  V30 1934 H 179.374 1.19734 -0.799987 0
M  V30 1935 H 181.327 4.21353 0.0631215 0
M  V30 1936 H 180.051 3.17851 0.750868 0
M  V30 1937 H 178.71 3.40036 -1.37007 0
M  V30 1938 H 178.358 5.00335 0.517072 0
M  V30 1939 H 178.058 5.77999 -1.05788 0
M  V30 1940 H 179.582 6.10325 -0.183277 0
M  V30 1941 H 180.996 5.25552 -2.29059 0
M  V30 1942 H 179.393 5.15321 -3.07514 0
M  V30 1943 H 180.463 3.73971 -3.08665 0
M  V30 1944 N 181.806 0.884767 1.30421 0
M  V30 1945 C 182.738 0.308655 2.27112 0
M  V30 1946 C 183.751 -0.536655 1.53701 0
M  V30 1947 O 184.94 -0.35624 1.74909 0
M  V30 1948 C 182.04 -0.579782 3.33904 0
M  V30 1949 C 181.213 0.236417 4.36761 0
M  V30 1950 C 180.272 -0.582482 5.22966 0
M  V30 1951 O 179.298 -0.00525502 5.692 0
M  V30 1952 N 180.5 -1.89163 5.48815 0
M  V30 1953 H 183.265 1.13964 2.77186 0
M  V30 1954 H 180.826 0.747731 1.43599 0
M  V30 1955 H 182.818 -1.13366 3.88497 0
M  V30 1956 H 181.388 -1.31144 2.83761 0
M  V30 1957 H 180.608 0.97174 3.82035 0
M  V30 1958 H 181.896 0.795924 5.02536 0
M  V30 1959 H 181.294 -2.38352 5.13035 0
M  V30 1960 H 179.851 -2.39296 6.06284 0
M  V30 1961 N 183.284 -1.43765 0.645699 0
M  V30 1962 C 184.234 -2.27884 -0.0726442 0
M  V30 1963 C 185.218 -1.39483 -0.802086 0
M  V30 1964 O 186.41 -1.63174 -0.685791 0
M  V30 1965 C 183.539 -3.27055 -1.04356 0
M  V30 1966 C 182.625 -4.22944 -0.312985 0
M  V30 1967 N 183.016 -5.01391 0.666386 0
M  V30 1968 C 181.314 -4.42528 -0.55546 0
M  V30 1969 C 182.015 -5.71217 1.09935 0
M  V30 1970 N 180.991 -5.41856 0.435137 0
M  V30 1971 H 184.793 -2.85949 0.678988 0
M  V30 1972 H 182.307 -1.55378 0.472368 0
M  V30 1973 H 184.304 -3.86089 -1.57292 0
M  V30 1974 H 182.964 -2.70551 -1.79534 0
M  V30 1975 H 183.975 -5.07252 1.04481 0
M  V30 1976 H 180.652 -3.97104 -1.28899 0
M  V30 1977 H 182.042 -6.44202 1.90929 0
M  V30 1978 N 184.763 -0.387143 -1.52771 0
M  V30 1979 C 185.711 0.463953 -2.27926 0
M  V30 1980 C 186.705 1.06493 -1.31741 0
M  V30 1981 O 187.911 1.00565 -1.49287 0
M  V30 1982 H 184.286 0.16837 -0.732909 0
M  V30 1983 H 186.257 -0.19141 -2.97785 0
M  V30 1984 C 185.006 1.5803 -3.09713 0
M  V30 1985 H 184.329 1.12718 -3.83581 0
M  V30 1986 H 185.769 2.15008 -3.65442 0
M  V30 1987 C 184.228 2.53509 -2.2189 0
M  V30 1988 O 184.758 3.56863 -1.84422 0
M  V30 1989 N 182.964 2.23199 -1.86093 0
M  V30 1990 H 182.511 1.39185 -2.16761 0
M  V30 1991 H 182.469 2.87333 -1.27621 0
M  V30 1992 N 186.241 1.57166 -0.116904 0
M  V30 1993 C 187.188 2.15202 0.83408 0
M  V30 1994 C 188.158 1.07644 1.26499 0
M  V30 1995 O 189.343 1.35541 1.34288 0
M  V30 1996 C 186.483 2.75405 2.07957 0
M  V30 1997 C 185.596 3.97264 1.69721 0
M  V30 1998 C 184.731 4.45561 2.89221 0
M  V30 1999 C 183.77 5.59956 2.47215 0
M  V30 2000 N 182.907 6.03006 3.59622 0
M  V30 2001 H 187.747 2.96141 0.332335 0
M  V30 2002 H 185.284 1.46309 0.152349 0
M  V30 2003 H 187.242 3.08439 2.80929 0
M  V30 2004 H 185.872 1.97159 2.55594 0
M  V30 2005 H 184.924 3.70404 0.866316 0
M  V30 2006 H 186.236 4.80226 1.34849 0
M  V30 2007 H 185.39 4.80493 3.7042 0
M  V30 2008 H 184.129 3.61544 3.27318 0
M  V30 2009 H 183.134 5.2463 1.64448 0
M  V30 2010 H 184.359 6.45738 2.10238 0
M  V30 2011 H 182.305 5.21931 3.97396 0
M  V30 2012 H 182.222 6.80819 3.28667 0
M  V30 2013 H 183.49 6.42576 4.41267 0
M  V30 2014 N 187.719 -0.156864 1.56817 0
M  V30 2015 C 188.959 -0.877453 1.84608 0
M  V30 2016 C 189.323 -1.78791 0.699845 0
M  V30 2017 O 190.524 -2.5472 0.858553 0
M  V30 2018 C 188.795 -1.63992 3.17555 0
M  V30 2019 S 190.354 -2.40729 3.66872 0
M  V30 2020 H 187.172 -0.293612 0.647544 0
M  V30 2021 H 189.774 -0.138099 1.95012 0
M  V30 2022 H 188.478 -0.962363 3.98957 0
M  V30 2023 H 188.009 -2.42038 3.10131 0
M  V30 2024 H 190.024 -3.65725 3.3535 0
M  V30 2025 N 189.197 -1.51736 -0.425897 0
M  V30 2026 C 190.107 -1.76738 -1.54275 0
M  V30 2027 C 191.123 -0.65211 -1.61318 0
M  V30 2028 O 192.299 -0.935654 -1.78346 0
M  V30 2029 C 189.364 -1.89755 -2.90162 0
M  V30 2030 C 188.425 -3.13633 -2.93143 0
M  V30 2031 C 187.658 -3.2602 -4.22548 0
M  V30 2032 O 187.881 -2.44067 -5.15546 0
M  V30 2033 O 186.815 -4.19071 -4.32046 0
M  V30 2034 H 190.641 -2.71502 -1.36089 0
M  V30 2035 H 188.226 -1.36376 -0.610069 0
M  V30 2036 H 190.108 -2.00236 -3.70788 0
M  V30 2037 H 188.783 -0.981785 -3.08452 0
M  V30 2038 H 187.69 -3.08622 -2.11431 0
M  V30 2039 H 189.023 -4.04936 -2.798 0
M  V30 2040 N 190.675 0.682077 -1.42076 0
M  V30 2041 C 191.915 1.45424 -1.43636 0
M  V30 2042 C 192.279 1.91939 -0.0484001 0
M  V30 2043 O 193.48 2.6873 0.0612514 0
M  V30 2044 C 191.751 2.62427 -2.42625 0
M  V30 2045 S 193.31 3.51379 -2.62827 0
M  V30 2046 H 190.128 0.496779 -0.508657 0
M  V30 2047 H 192.73 0.794645 -1.78621 0
M  V30 2048 H 191.434 2.26481 -3.42249 0
M  V30 2049 H 190.965 3.33266 -2.09039 0
M  V30 2050 H 192.98 4.58141 -1.9058 0
M  V30 2051 N 192.153 1.28127 0.917671 0
M  V30 2052 C 193.569 1.05749 1.19538 0
M  V30 2053 C 193.769 -0.202633 2.00479 0
M  V30 2054 O 192.825 -0.905382 2.3571 0
M  V30 2055 C 194.138 2.30273 1.93378 0
M  V30 2056 C 195.686 2.35412 2.06277 0
M  V30 2057 C 196.161 3.59692 2.83524 0
M  V30 2058 N 197.652 3.60309 2.91087 0
M  V30 2059 C 198.387 4.53147 3.51348 0
M  V30 2060 N 197.883 5.563 4.12919 0
M  V30 2061 N 199.676 4.40751 3.48849 0
M  V30 2062 H 191.827 2.09024 0.377184 0
M  V30 2063 H 194.09 0.919798 0.22951 0
M  V30 2064 H 193.796 3.22055 1.41328 0
M  V30 2065 H 193.67 2.36378 2.93947 0
M  V30 2066 H 196.057 1.4413 2.57508 0
M  V30 2067 H 196.138 2.33304 1.04895 0
M  V30 2068 H 195.782 4.51316 2.32973 0
M  V30 2069 H 195.712 3.59054 3.85211 0
M  V30 2070 H 198.203 2.85714 2.47338 0
M  V30 2071 H 198.516 6.2329 4.56869 0
M  V30 2072 H 196.861 5.60131 4.11435 0
M  V30 2073 H 200.052 3.59367 2.99955 0
M  V30 2074 H 200.225 5.13291 3.9552 0
M  V30 2075 N 193.631 -1.12557 1.10312 0
M  V30 2076 C 195.042 -1.65574 0.862678 0
M  V30 2077 C 195.393 -1.86566 -0.607256 0
M  V30 2078 O 194.518 -1.59121 -1.46662 0
M  V30 2079 C 195.113 -3.00776 1.55947 0
M  V30 2080 C 193.672 -3.50748 1.36576 0
M  V30 2081 C 192.819 -2.25797 1.60968 0
M  V30 2082 H 195.77 -0.963552 1.26101 0
M  V30 2083 H 195.791 -3.67185 0.997753 0
M  V30 2084 H 195.303 -2.85465 2.62928 0
M  V30 2085 H 193.404 -3.71245 0.317531 0
M  V30 2086 H 193.517 -4.30289 2.10686 0
M  V30 2087 H 191.881 -2.32841 1.03234 0
M  V30 2088 H 192.664 -2.13043 2.69198 0
M  V30 2089 N 195.109 -0.891671 -1.2995 0
M  V30 2090 C 196.056 -0.361736 -2.27948 0
M  V30 2091 C 197.026 0.551761 -1.56668 0
M  V30 2092 O 198.211 0.478736 -1.84696 0
M  V30 2093 C 195.351 0.411825 -3.42634 0
M  V30 2094 C 194.464 -0.531651 -4.28716 0
M  V30 2095 C 193.599 0.258167 -5.30572 0
M  V30 2096 C 192.638 -0.680349 -6.08307 0
M  V30 2097 N 191.775 0.0745613 -7.0206 0
M  V30 2098 H 196.615 -1.20254 -2.72659 0
M  V30 2099 H 194.152 -0.604352 -1.34112 0
M  V30 2100 H 196.11 0.876304 -4.07893 0
M  V30 2101 H 194.74 1.21715 -2.98974 0
M  V30 2102 H 193.792 -1.11463 -3.63703 0
M  V30 2103 H 195.104 -1.25038 -4.82874 0
M  V30 2104 H 194.258 0.784204 -6.0161 0
M  V30 2105 H 192.997 1.01008 -4.77126 0
M  V30 2106 H 192.002 -1.21796 -5.3614 0
M  V30 2107 H 193.227 -1.43145 -6.63842 0
M  V30 2108 H 191.173 0.808883 -6.50994 0
M  V30 2109 H 191.09 -0.584409 -7.53738 0
M  V30 2110 H 192.358 0.581123 -7.77331 0
M  V30 2111 N 196.587 1.43421 -0.653314 0
M  V30 2112 C 197.534 2.30768 0.0382271 0
M  V30 2113 C 198.504 1.44755 0.814576 0
M  V30 2114 O 199.689 1.73624 0.791162 0
M  V30 2115 C 196.829 3.30336 0.998599 0
M  V30 2116 C 195.942 4.31448 0.218342 0
M  V30 2117 C 195.077 5.18098 1.17252 0
M  V30 2118 C 194.116 6.10902 0.382702 0
M  V30 2119 N 193.253 6.90176 1.28848 0
M  V30 2120 H 198.093 2.89357 -0.712511 0
M  V30 2121 H 195.63 1.42548 -0.363128 0
M  V30 2122 H 197.588 3.86572 1.56901 0
M  V30 2123 H 196.218 2.73397 1.71621 0
M  V30 2124 H 195.27 3.77506 -0.46836 0
M  V30 2125 H 196.582 4.97227 -0.395812 0
M  V30 2126 H 195.736 5.7896 1.81356 0
M  V30 2127 H 194.475 4.52444 1.82058 0
M  V30 2128 H 193.48 5.49128 -0.27169 0
M  V30 2129 H 194.705 6.78598 -0.260957 0
M  V30 2130 H 192.651 6.27171 1.92334 0
M  V30 2131 H 192.568 7.52478 0.728887 0
M  V30 2132 H 193.836 7.55543 1.91766 0
M  V30 2133 N 198.065 0.39524 1.52563 0
M  V30 2134 C 199.342 -0.242908 1.94086 0
M  V30 2135 C 199.722 -1.63841 1.33114 0
M  V30 2136 O 199.07 -2.22928 0.501529 0
M  V30 2137 C 199.28 -0.26327 3.48006 0
M  V30 2138 C 200.628 -0.489354 4.21771 0
M  V30 2139 O 201.652 -0.343226 3.54543 0
M  V30 2140 O 200.511 -0.776169 5.4096 0
M  V30 2141 H 197.605 -0.152536 0.812811 0
M  V30 2142 H 200.151 0.450178 1.6362 0
M  V30 2143 H 198.923 0.713985 3.84731 0
M  V30 2144 H 198.546 -1.00103 3.84792 0
M  V30 2145 N 199.544 -1.57102 0.125237 0
M  V30 2146 C 200.96 -1.57915 -0.231322 0
M  V30 2147 C 201.16 -1.13833 -1.66266 0
M  V30 2148 O 200.216 -0.828581 -2.38518 0
M  V30 2149 C 201.529 -3.00699 0.00766489 0
M  V30 2150 C 203.077 -3.12947 -0.0577483 0
M  V30 2151 C 203.552 -4.57742 0.153626 0
M  V30 2152 N 205.043 -4.63092 0.0998073 0
M  V30 2153 C 205.778 -5.72905 0.238174 0
M  V30 2154 N 205.274 -6.91445 0.433057 0
M  V30 2155 N 207.067 -5.6182 0.177308 0
M  V30 2156 H 199.218 -1.84055 1.06007 0
M  V30 2157 H 201.481 -0.850905 0.417929 0
M  V30 2158 H 201.187 -3.3726 0.997431 0
M  V30 2159 H 201.061 -3.70236 -0.721452 0
M  V30 2160 H 203.448 -2.7624 -1.03804 0
M  V30 2161 H 203.529 -2.4594 0.70335 0
M  V30 2162 H 203.173 -4.95149 1.13092 0
M  V30 2163 H 203.103 -5.22848 -0.627534 0
M  V30 2164 H 205.594 -3.77871 -0.047051 0
M  V30 2165 H 205.907 -7.70985 0.529332 0
M  V30 2166 H 204.252 -6.93415 0.469109 0
M  V30 2167 H 207.443 -4.68093 0.0259748 0
M  V30 2168 H 207.616 -6.47357 0.288582 0
M  V30 2169 N 201.022 0.148545 -1.56898 0
M  V30 2170 C 201.985 1.16736 -1.97244 0
M  V30 2171 C 202.985 1.35947 -0.858777 0
M  V30 2172 O 204.175 1.32966 -1.12542 0
M  V30 2173 C 201.307 2.52798 -2.28705 0
M  V30 2174 H 202.5 0.821279 -2.88435 0
M  V30 2175 H 200.053 0.391831 -1.51309 0
M  V30 2176 H 200.788 2.92381 -1.403 0
M  V30 2177 H 200.573 2.40216 -3.09901 0
M  V30 2178 H 202.063 3.26179 -2.60762 0
M  V30 2179 N 202.5 1.5196 0.417844 0
M  V30 2180 C 203.916 1.40569 0.755816 0
M  V30 2181 C 204.116 0.503316 1.95113 0
M  V30 2182 O 203.172 -0.0341925 2.52477 0
M  V30 2183 C 204.485 2.82947 1.01791 0
M  V30 2184 C 206.033 2.92231 1.12116 0
M  V30 2185 C 206.508 4.35559 1.41608 0
M  V30 2186 N 207.999 4.38753 1.48491 0
M  V30 2187 C 208.734 5.46705 1.7292 0
M  V30 2188 N 208.23 6.64788 1.95011 0
M  V30 2189 N 210.023 5.34209 1.74863 0
M  V30 2190 H 202.174 2.09168 -0.369098 0
M  V30 2191 H 204.437 0.942409 -0.102809 0
M  V30 2192 H 204.143 3.5106 0.212081 0
M  V30 2193 H 204.017 3.23462 1.94042 0
M  V30 2194 H 206.404 2.24304 1.9176 0
M  V30 2195 H 206.485 2.55185 0.177225 0
M  V30 2196 H 206.129 5.04042 0.624848 0
M  V30 2197 H 206.059 4.70133 2.37239 0
M  V30 2198 H 208.55 3.5363 1.33244 0
M  V30 2199 H 208.863 7.42845 2.13076 0
M  V30 2200 H 207.208 6.67869 1.92293 0
M  V30 2201 H 210.399 4.40937 1.57137 0
M  V30 2202 H 210.572 6.18415 1.93563 0
M  V30 2203 N 203.978 -0.674533 1.42435 0
M  V30 2204 C 204.91 -1.80005 1.41883 0
M  V30 2205 C 205.923 -1.59667 0.31787 0
M  V30 2206 O 207.112 -1.68781 0.580973 0
M  V30 2207 C 204.212 -3.17114 1.19549 0
M  V30 2208 C 203.385 -3.64299 2.42084 0
M  V30 2209 C 202.444 -4.80142 2.15291 0
M  V30 2210 O 201.47 -4.90673 2.88493 0
M  V30 2211 N 202.672 -5.68869 1.1562 0
M  V30 2212 H 205.437 -1.80964 2.38898 0
M  V30 2213 H 202.998 -0.857633 1.37318 0
M  V30 2214 H 204.99 -3.92267 0.995417 0
M  V30 2215 H 203.56 -3.11053 0.310569 0
M  V30 2216 H 202.78 -2.79822 2.77657 0
M  V30 2217 H 204.068 -3.92567 3.23679 0
M  V30 2218 H 203.466 -5.63012 0.550765 0
M  V30 2219 H 202.023 -6.43833 1.016 0
M  V30 2220 N 205.456 -1.28612 -0.910864 0
M  V30 2221 C 206.366 -1.14643 -2.0468 0
M  V30 2222 C 207.382 -0.0723121 -1.7385 0
M  V30 2223 O 208.558 -0.282178 -1.99413 0
M  V30 2224 C 205.623 -0.812561 -3.37044 0
M  V30 2225 C 204.684 -1.96935 -3.81465 0
M  V30 2226 C 203.917 -1.65131 -5.07511 0
M  V30 2227 O 204.14 -0.567013 -5.67575 0
M  V30 2228 O 203.074 -2.49585 -5.47714 0
M  V30 2229 H 206.9 -2.1001 -2.19384 0
M  V30 2230 H 204.485 -1.07958 -1.03274 0
M  V30 2231 H 206.367 -0.640441 -4.16505 0
M  V30 2232 H 205.042 0.111426 -3.23508 0
M  V30 2233 H 203.949 -2.19664 -3.02818 0
M  V30 2234 H 205.282 -2.87414 -3.99567 0
M  V30 2235 N 206.934 1.1197 -1.10907 0
M  V30 2236 C 207.881 2.17846 -0.762345 0
M  V30 2237 C 208.851 1.63995 0.263599 0
M  V30 2238 O 210.036 1.90273 0.141773 0
M  V30 2239 C 207.176 3.44487 -0.205651 0
M  V30 2240 C 206.289 4.12369 -1.28748 0
M  V30 2241 C 205.424 5.26674 -0.691919 0
M  V30 2242 C 204.463 5.86431 -1.75399 0
M  V30 2243 N 203.6 6.92142 -1.17833 0
M  V30 2244 H 208.44 2.46851 -1.6694 0
M  V30 2245 H 205.977 1.21188 -0.833776 0
M  V30 2246 H 207.935 4.16981 0.135037 0
M  V30 2247 H 206.565 3.15884 0.664613 0
M  V30 2248 H 205.617 3.38003 -1.74522 0
M  V30 2249 H 206.929 4.52844 -2.09125 0
M  V30 2250 H 206.083 6.05953 -0.300963 0
M  V30 2251 H 204.822 4.8749 0.143232 0
M  V30 2252 H 203.827 5.05835 -2.15432 0
M  V30 2253 H 205.052 6.27685 -2.59208 0
M  V30 2254 H 202.998 6.54985 -0.364725 0
M  V30 2255 H 202.915 7.31242 -1.91887 0
M  V30 2256 H 204.183 7.75237 -0.81408 0
M  V30 2257 N 208.412 0.89855 1.29475 0
M  V30 2258 C 209.359 0.373819 2.27753 0
M  V30 2259 C 210.329 -0.543444 1.56958 0
M  V30 2260 O 211.514 -0.468934 1.84948 0
M  V30 2261 C 208.654 -0.393648 3.42848 0
M  V30 2262 C 207.767 0.554379 4.28428 0
M  V30 2263 C 206.902 -0.230026 5.30702 0
M  V30 2264 C 205.941 0.712599 6.07938 0
M  V30 2265 N 205.078 -0.0373283 7.0209 0
M  V30 2266 H 209.918 1.21699 2.72017 0
M  V30 2267 H 207.455 0.611456 1.33789 0
M  V30 2268 H 209.413 -0.85466 4.08352 0
M  V30 2269 H 208.043 -1.20128 2.99615 0
M  V30 2270 H 207.095 1.13391 3.63107 0
M  V30 2271 H 208.407 1.27597 4.82204 0
M  V30 2272 H 207.561 -0.752288 6.02018 0
M  V30 2273 H 206.3 -0.984758 4.77654 0
M  V30 2274 H 205.305 1.24637 5.35486 0
M  V30 2275 H 206.53 1.46664 6.63074 0
M  V30 2276 H 204.476 -0.774348 6.51414 0
M  V30 2277 H 204.393 0.624374 7.53417 0
M  V30 2278 H 205.661 -0.539891 7.77628 0
M  V30 2279 N 209.89 -1.43072 0.660911 0
M  V30 2280 C 211.115 -2.06584 0.183805 0
M  V30 2281 C 211.54 -1.49257 -1.14472 0
M  V30 2282 O 210.898 -0.605528 -1.70889 0
M  V30 2283 C 210.946 -3.60418 0.114434 0
M  V30 2284 O 210.05 -4.01981 -0.921137 0
M  V30 2285 H 209.391 -0.656669 0.0983994 0
M  V30 2286 H 211.921 -1.83447 0.906006 0
M  V30 2287 H 211.931 -4.07946 -0.0663394 0
M  V30 2288 H 210.606 -4.01519 1.08422 0
M  V30 2289 H 209.183 -3.66029 -0.71253 0
M  V30 2290 N 211.368 -0.403325 -1.52352 0
M  V30 2291 C 212.614 0.174605 -2.02047 0
M  V30 2292 C 212.947 1.45282 -1.28867 0
M  V30 2293 O 212.222 1.90483 -0.393257 0
M  V30 2294 C 212.505 0.428238 -3.57545 0
M  V30 2295 C 212.358 -0.866248 -4.4138 0
M  V30 2296 C 213.677 1.21287 -4.23057 0
M  V30 2297 H 210.796 0.0619851 -0.734389 0
M  V30 2298 H 213.438 -0.53565 -1.82293 0
M  V30 2299 H 211.588 1.03327 -3.74507 0
M  V30 2300 H 213.26 -1.50265 -4.3614 0
M  V30 2301 H 211.503 -1.47851 -4.07827 0
M  V30 2302 H 212.174 -0.643249 -5.48239 0
M  V30 2303 H 214.65 0.700703 -4.10158 0
M  V30 2304 H 213.526 1.35909 -5.31808 0
M  V30 2305 H 213.787 2.23193 -3.81625 0
M  V30 2306 N 212.846 1.57033 -0.133567 0
M  V30 2307 C 214.262 1.58035 0.222944 0
M  V30 2308 C 214.462 1.14713 1.6566 0
M  V30 2309 O 213.518 0.841218 2.38075 0
M  V30 2310 C 214.831 3.00691 -0.0236116 0
M  V30 2311 C 216.379 3.12973 0.0411512 0
M  V30 2312 C 216.854 4.57654 -0.177899 0
M  V30 2313 N 218.345 4.63033 -0.124365 0
M  V30 2314 C 219.08 5.72771 -0.268553 0
M  V30 2315 N 218.576 6.91206 -0.46972 0
M  V30 2316 N 220.369 5.61718 -0.2071 0
M  V30 2317 H 212.52 1.8349 -1.06981 0
M  V30 2318 H 214.783 0.848677 -0.422436 0
M  V30 2319 H 214.489 3.36726 -1.0153 0
M  V30 2320 H 214.363 3.70614 0.701808 0
M  V30 2321 H 216.75 2.76787 1.02338 0
M  V30 2322 H 216.831 2.45564 -0.716383 0
M  V30 2323 H 216.475 4.94542 -1.15717 0
M  V30 2324 H 216.405 5.23173 0.599797 0
M  V30 2325 H 218.896 3.7789 0.027011 0
M  V30 2326 H 219.209 7.70693 -0.570212 0
M  V30 2327 H 217.554 6.93156 -0.505876 0
M  V30 2328 H 220.745 4.68072 -0.0507986 0
M  V30 2329 H 220.918 6.47195 -0.322909 0
M  V30 2330 N 214.325 -0.140222 1.56975 0
M  V30 2331 C 215.573 -0.850005 1.83356 0
M  V30 2332 C 215.894 -1.81399 0.71551 0
M  V30 2333 O 215.164 -1.94136 -0.262294 0
M  V30 2334 H 213.744 -0.316886 0.676456 0
M  V30 2335 H 216.406 -0.132608 1.94448 0
M  V30 2336 H 215.502 -1.40814 2.78528 0
M  V30 2337 N 215.803 -1.52179 -0.40978 0
M  V30 2338 C 216.75 -1.75475 -1.49924 0
M  V30 2339 C 217.72 -0.597175 -1.54994 0
M  V30 2340 O 218.905 -0.834655 -1.71575 0
M  V30 2341 C 216.045 -1.9107 -2.87378 0
M  V30 2342 C 215.158 -3.18717 -2.91622 0
M  V30 2343 C 214.293 -3.24747 -4.20372 0
M  V30 2344 C 213.332 -4.46598 -4.18588 0
M  V30 2345 N 212.469 -4.50025 -5.38908 0
M  V30 2346 H 217.309 -2.68458 -1.29361 0
M  V30 2347 H 214.846 -1.33024 -0.627934 0
M  V30 2348 H 216.804 -1.98096 -3.6717 0
M  V30 2349 H 215.434 -1.01469 -3.06437 0
M  V30 2350 H 214.486 -3.20866 -2.04326 0
M  V30 2351 H 215.798 -4.08544 -2.86169 0
M  V30 2352 H 214.952 -3.30841 -5.08556 0
M  V30 2353 H 213.691 -2.32857 -4.28519 0
M  V30 2354 H 212.696 -4.40652 -3.28794 0
M  V30 2355 H 213.921 -5.39783 -4.12081 0
M  V30 2356 H 211.867 -3.61017 -5.47725 0
M  V30 2357 H 211.784 -5.33697 -5.35447 0
M  V30 2358 H 213.052 -4.60347 -6.29048 0
M  V30 2359 N 217.281 0.66697 -1.42791 0
M  V30 2360 C 218.529 1.42417 -1.43394 0
M  V30 2361 C 218.85 1.94925 -0.0542373 0
M  V30 2362 O 218.12 1.73564 0.908415 0
M  V30 2363 H 216.7 0.528515 -0.527902 0
M  V30 2364 H 219.362 0.787562 -1.78279 0
M  V30 2365 H 218.458 2.27333 -2.13837 0
M  V30 2366 N 218.759 1.29093 0.90403 0
M  V30 2367 C 219.706 1.13853 2.00764 0
M  V30 2368 C 220.676 0.0330084 1.66067 0
M  V30 2369 O 221.861 0.199733 1.89752 0
M  V30 2370 C 219.001 0.816537 3.35301 0
M  V30 2371 C 218.114 2.00206 3.82807 0
M  V30 2372 C 217.249 1.61983 5.059 0
M  V30 2373 C 216.288 2.77143 5.45764 0
M  V30 2374 N 215.425 2.39346 6.60044 0
M  V30 2375 H 220.265 2.08276 2.13132 0
M  V30 2376 H 217.802 1.03648 1.04381 0
M  V30 2377 H 219.76 0.610557 4.12708 0
M  V30 2378 H 218.39 -0.090779 3.22672 0
M  V30 2379 H 217.442 2.31988 3.01473 0
M  V30 2380 H 218.754 2.86512 4.08304 0
M  V30 2381 H 217.908 1.37649 5.90879 0
M  V30 2382 H 216.647 0.728202 4.82233 0
M  V30 2383 H 215.652 3.02165 4.59322 0
M  V30 2384 H 216.877 3.66964 5.71414 0
M  V30 2385 H 214.823 1.52665 6.37989 0
M  V30 2386 H 214.74 3.19185 6.85315 0
M  V30 2387 H 216.008 2.1832 7.48303 0
M  V30 2388 N 220.237 -1.11381 1.11499 0
M  V30 2389 C 221.485 -1.8277 0.862524 0
M  V30 2390 C 221.806 -1.85097 -0.613534 0
M  V30 2391 O 221.076 -1.32198 -1.4457 0
M  V30 2392 H 219.656 -0.676823 0.316101 0
M  V30 2393 H 222.318 -1.34816 1.4075 0
M  V30 2394 H 221.414 -2.86614 1.23527 0
M  V30 2395 N 221.715 -0.905404 -1.28997 0
M  V30 2396 C 222.647 -0.344748 -2.26592 0
M  V30 2397 C 223.66 0.512135 -1.54535 0
M  V30 2398 O 224.849 0.328368 -1.75454 0
M  V30 2399 C 221.949 0.526587 -3.34784 0
M  V30 2400 C 221.122 -0.305871 -4.36329 0
M  V30 2401 C 220.181 0.499209 -5.23827 0
M  V30 2402 O 219.207 -0.0853004 -5.69136 0
M  V30 2403 N 220.409 1.80408 -5.51755 0
M  V30 2404 H 223.174 -1.18359 -2.75338 0
M  V30 2405 H 220.735 -0.770481 -1.42391 0
M  V30 2406 H 222.727 1.07171 -3.90252 0
M  V30 2407 H 221.297 1.26613 -2.85811 0
M  V30 2408 H 220.517 -1.0324 -3.80441 0
M  V30 2409 H 221.805 -0.875773 -5.01206 0
M  V30 2410 H 221.203 2.3016 -5.16762 0
M  V30 2411 H 219.76 2.29621 -6.10014 0
M  V30 2412 N 223.193 1.4272 -0.668489 0
M  V30 2413 C 224.14 2.30796 0.0137489 0
M  V30 2414 C 225.11 1.4561 0.799177 0
M  V30 2415 O 226.295 1.74453 0.772702 0
M  V30 2416 C 223.435 3.31377 0.963507 0
M  V30 2417 C 222.548 4.31655 0.172569 0
M  V30 2418 C 221.683 5.19312 1.1175 0
M  V30 2419 C 220.722 6.11274 0.317886 0
M  V30 2420 N 219.859 6.91504 1.2152 0
M  V30 2421 H 224.699 2.88585 -0.743161 0
M  V30 2422 H 222.236 1.42154 -0.378226 0
M  V30 2423 H 224.194 3.88214 1.52792 0
M  V30 2424 H 222.824 2.75202 1.68712 0
M  V30 2425 H 221.876 3.76988 -0.508374 0
M  V30 2426 H 223.188 4.96779 -0.448527 0
M  V30 2427 H 222.342 5.80851 1.75206 0
M  V30 2428 H 221.081 4.5435 1.77249 0
M  V30 2429 H 220.086 5.48809 -0.329918 0
M  V30 2430 H 221.311 6.78283 -0.332917 0
M  V30 2431 H 219.257 6.29176 1.85671 0
M  V30 2432 H 219.174 7.53209 0.649036 0
M  V30 2433 H 220.442 7.57535 1.83742 0
M  V30 2434 N 224.671 0.411399 1.52136 0
M  V30 2435 C 226.087 0.0623865 1.59478 0
M  V30 2436 C 226.287 -1.42554 1.4241 0
M  V30 2437 O 225.343 -2.19263 1.2522 0
M  V30 2438 C 226.656 0.559331 2.95452 0
M  V30 2439 C 228.204 0.517503 3.08692 0
M  V30 2440 C 228.679 0.990994 4.4715 0
M  V30 2441 N 230.17 0.947908 4.53397 0
M  V30 2442 C 230.905 1.28544 5.58806 0
M  V30 2443 N 230.401 1.69454 6.71757 0
M  V30 2444 N 232.194 1.20526 5.49026 0
M  V30 2445 H 224.345 1.37982 1.61477 0
M  V30 2446 H 226.608 0.566977 0.759764 0
M  V30 2447 H 226.314 1.59938 3.1323 0
M  V30 2448 H 226.188 -0.0298014 3.77188 0
M  V30 2449 H 228.575 -0.513505 2.90598 0
M  V30 2450 H 228.656 1.14272 2.28857 0
M  V30 2451 H 228.3 2.02034 4.65988 0
M  V30 2452 H 228.23 0.34257 5.25485 0
M  V30 2453 H 230.721 0.647157 3.72317 0
M  V30 2454 H 231.034 1.93513 7.48179 0
M  V30 2455 H 229.379 1.73359 6.73032 0
M  V30 2456 H 232.57 0.884505 4.59667 0
M  V30 2457 H 232.743 1.47161 6.31069 0
M  V30 2458 N 226.149 -1.5696 0.141893 0
M  V30 2459 C 227.096 -2.16501 -0.799737 0
M  V30 2460 C 228.066 -1.09643 -1.24771 0
M  V30 2461 O 229.251 -1.3766 -1.32115 0
M  V30 2462 C 226.391 -2.78679 -2.03549 0
M  V30 2463 C 225.504 -3.99914 -1.6338 0
M  V30 2464 C 224.639 -4.50106 -2.82096 0
M  V30 2465 C 223.678 -5.63819 -2.38275 0
M  V30 2466 N 222.815 -6.08651 -3.49983 0
M  V30 2467 H 227.655 -2.96632 -0.285179 0
M  V30 2468 H 225.192 -1.46533 -0.129053 0
M  V30 2469 H 227.15 -3.1287 -2.75986 0
M  V30 2470 H 225.78 -2.012 -2.52425 0
M  V30 2471 H 224.832 -3.71735 -0.807279 0
M  V30 2472 H 226.144 -4.82311 -1.27192 0
M  V30 2473 H 225.298 -4.86325 -3.62729 0
M  V30 2474 H 224.037 -3.66706 -3.21525 0
M  V30 2475 H 223.042 -5.2718 -1.56081 0
M  V30 2476 H 224.267 -6.49 -1.99938 0
M  V30 2477 H 222.213 -5.28188 -3.89042 0
M  V30 2478 H 222.13 -6.85961 -3.17794 0
M  V30 2479 H 223.398 -6.49515 -4.30988 0
M  V30 2480 N 227.627 0.131896 -1.57047 0
M  V30 2481 C 229.043 0.485031 -1.52051 0
M  V30 2482 C 229.243 1.82563 -0.85281 0
M  V30 2483 O 228.299 2.48817 -0.429694 0
M  V30 2484 C 229.612 0.481409 -2.96821 0
M  V30 2485 C 231.16 0.565868 -3.07842 0
M  V30 2486 C 231.635 0.592762 -4.54148 0
M  V30 2487 N 233.126 0.654564 -4.58552 0
M  V30 2488 C 233.861 0.696608 -5.69153 0
M  V30 2489 N 233.357 0.697078 -6.89284 0
M  V30 2490 N 235.15 0.738639 -5.57226 0
M  V30 2491 H 227.301 -0.746664 -1.98843 0
M  V30 2492 H 229.564 -0.273999 -0.90754 0
M  V30 2493 H 229.27 -0.435731 -3.4899 0
M  V30 2494 H 229.144 1.3139 -3.53577 0
M  V30 2495 H 231.531 1.47343 -2.55684 0
M  V30 2496 H 231.612 -0.29406 -2.54104 0
M  V30 2497 H 231.256 -0.310701 -5.06949 0
M  V30 2498 H 231.186 1.46939 -5.05684 0
M  V30 2499 H 233.677 0.660887 -3.72076 0
M  V30 2500 H 233.99 0.731426 -7.69331 0
M  V30 2501 H 232.335 0.66471 -6.91814 0
M  V30 2502 H 235.526 0.735545 -4.62285 0
M  V30 2503 H 235.699 0.767938 -6.43434 0
M  V30 2504 N 229.106 1.52395 0.401703 0
M  V30 2505 C 230.053 1.76268 1.48991 0
M  V30 2506 C 231.023 0.605386 1.54675 0
M  V30 2507 O 232.208 0.843742 1.7113 0
M  V30 2508 C 229.348 1.92592 2.86361 0
M  V30 2509 C 228.461 3.20259 2.89928 0
M  V30 2510 C 227.596 3.26972 4.18644 0
M  V30 2511 C 226.635 4.48812 4.16214 0
M  V30 2512 N 225.772 4.52877 5.36514 0
M  V30 2513 H 230.612 2.6914 1.27935 0
M  V30 2514 H 228.149 1.33355 0.620871 0
M  V30 2515 H 230.107 2.0004 3.66115 0
M  V30 2516 H 228.737 1.03093 3.05895 0
M  V30 2517 H 227.789 3.21945 2.02621 0
M  V30 2518 H 229.101 4.10056 2.83999 0
M  V30 2519 H 228.255 3.33533 5.06794 0
M  V30 2520 H 226.994 2.35126 4.27278 0
M  V30 2521 H 225.999 4.4239 3.26453 0
M  V30 2522 H 227.224 5.41961 4.09213 0
M  V30 2523 H 225.17 3.63917 5.45802 0
M  V30 2524 H 225.087 5.36529 5.32609 0
M  V30 2525 H 226.355 4.63676 6.26597 0
M  V30 2526 N 230.584 -0.659388 1.43143 0
M  V30 2527 C 231.531 -1.77249 1.47822 0
M  V30 2528 C 232.501 -1.62818 0.328558 0
M  V30 2529 O 233.686 -1.83151 0.534838 0
M  V30 2530 C 230.826 -3.15371 1.40126 0
M  V30 2531 C 229.939 -3.4098 2.65249 0
M  V30 2532 C 229.074 -4.68915 2.49584 0
M  V30 2533 C 228.113 -4.87608 3.70006 0
M  V30 2534 N 227.25 -6.06796 3.53189 0
M  V30 2535 H 232.09 -1.72584 2.42938 0
M  V30 2536 H 229.627 -0.842297 1.20598 0
M  V30 2537 H 231.585 -3.9521 1.33659 0
M  V30 2538 H 230.215 -3.19121 0.485964 0
M  V30 2539 H 229.267 -2.55282 2.8202 0
M  V30 2540 H 230.579 -3.50681 3.54717 0
M  V30 2541 H 229.733 -5.56871 2.4079 0
M  V30 2542 H 228.472 -4.61524 1.5763 0
M  V30 2543 H 227.477 -3.9809 3.79215 0
M  V30 2544 H 228.702 -4.96834 4.62961 0
M  V30 2545 H 226.648 -6.00549 2.63965 0
M  V30 2546 H 226.565 -6.17428 4.36255 0
M  V30 2547 H 227.833 -6.9739 3.48236 0
M  V30 2548 N 232.062 -1.29571 -0.897171 0
M  V30 2549 C 233.287 -1.20705 -1.68656 0
M  V30 2550 C 233.712 0.228582 -1.86706 0
M  V30 2551 O 233.07 1.16494 -1.3892 0
M  V30 2552 C 233.118 -1.9282 -3.04717 0
M  V30 2553 O 232.222 -1.24697 -3.93096 0
M  V30 2554 H 231.563 -0.418126 -0.515816 0
M  V30 2555 H 234.093 -1.71183 -1.12061 0
M  V30 2556 H 234.103 -2.01372 -3.54843 0
M  V30 2557 H 232.778 -2.97239 -2.90899 0
M  V30 2558 H 231.355 -1.2442 -3.51531 0
M  V30 2559 N 233.54 1.10788 -1.12088 0
M  V30 2560 C 234.956 1.34691 -0.856186 0
M  V30 2561 C 235.156 1.94791 0.515615 0
M  V30 2562 O 234.212 2.18524 1.26505 0
M  V30 2563 C 235.525 2.27208 -1.9697 0
M  V30 2564 C 237.073 2.40755 -2.00016 0
M  V30 2565 C 237.548 3.36598 -3.1059 0
M  V30 2566 N 239.039 3.44164 -3.10008 0
M  V30 2567 C 239.774 4.18284 -3.92206 0
M  V30 2568 N 239.27 4.95322 -4.84384 0
M  V30 2569 N 241.063 4.13865 -3.80357 0
M  V30 2570 H 233.214 0.70144 -2.00483 0
M  V30 2571 H 235.477 0.371405 -0.872217 0
M  V30 2572 H 235.183 1.90251 -2.958 0
M  V30 2573 H 235.057 3.27485 -1.87172 0
M  V30 2574 H 237.444 2.76982 -1.01808 0
M  V30 2575 H 237.525 1.40305 -2.13888 0
M  V30 2576 H 237.169 3.01096 -4.09028 0
M  V30 2577 H 237.099 4.36918 -2.93956 0
M  V30 2578 H 239.59 2.8922 -2.43228 0
M  V30 2579 H 239.903 5.49267 -5.43623 0
M  V30 2580 H 238.248 4.94459 -4.884 0
M  V30 2581 H 241.439 3.52773 -3.07683 0
M  V30 2582 H 241.612 4.71372 -4.44649 0
M  V30 2583 N 235.018 0.912232 1.28515 0
M  V30 2584 C 236.248 0.559604 1.98877 0
M  V30 2585 C 236.656 -0.863113 1.68366 0
M  V30 2586 O 235.999 -1.58304 0.931969 0
M  V30 2587 C 236.061 0.68703 3.52874 0
M  V30 2588 C 235.725 2.07901 4.06972 0
M  V30 2589 C 236.722 3.05157 4.20922 0
M  V30 2590 C 234.407 2.39178 4.417 0
M  V30 2591 C 236.401 4.31806 4.68852 0
M  V30 2592 C 234.088 3.66068 4.89324 0
M  V30 2593 C 235.086 4.62195 5.02856 0
M  V30 2594 O 234.774 5.86829 5.49442 0
M  V30 2595 H 234.506 0.212191 0.641834 0
M  V30 2596 H 237.06 1.22712 1.64715 0
M  V30 2597 H 235.29 -0.0375486 3.86682 0
M  V30 2598 H 236.979 0.341727 4.04459 0
M  V30 2599 H 237.745 2.82311 3.94367 0
M  V30 2600 H 233.624 1.65109 4.30418 0
M  V30 2601 H 237.168 5.06842 4.79329 0
M  V30 2602 H 233.065 3.88739 5.15318 0
M  V30 2603 H 233.833 5.89597 5.6773 0
M  V30 2604 N 236.496 -1.42363 0.676048 0
M  V30 2605 C 237.443 -2.308 -0.00150904 0
M  V30 2606 C 238.413 -1.46032 -0.791444 0
M  V30 2607 O 239.598 -1.74861 -0.76344 0
M  V30 2608 C 236.738 -3.31883 -0.945919 0
M  V30 2609 C 235.851 -4.31741 -0.149675 0
M  V30 2610 C 234.986 -5.19898 -1.08995 0
M  V30 2611 C 234.025 -6.11434 -0.285465 0
M  V30 2612 N 233.162 -6.92138 -1.17851 0
M  V30 2613 H 238.002 -2.88187 0.758455 0
M  V30 2614 H 235.539 -1.41952 0.38576 0
M  V30 2615 H 237.497 -3.89019 -1.50731 0
M  V30 2616 H 236.127 -2.76093 -1.6725 0
M  V30 2617 H 235.179 -3.76713 0.528359 0
M  V30 2618 H 236.491 -4.96534 0.474866 0
M  V30 2619 H 235.645 -5.81772 -1.72123 0
M  V30 2620 H 234.384 -4.55284 -1.74837 0
M  V30 2621 H 233.389 -5.48627 0.359018 0
M  V30 2622 H 234.614 -6.78097 0.368883 0
M  V30 2623 H 232.56 -6.30152 -1.82332 0
M  V30 2624 H 232.477 -7.53542 -0.609082 0
M  V30 2625 H 233.745 -7.58499 -1.79722 0
M  V30 2626 N 237.974 -0.419461 -1.51915 0
M  V30 2627 C 239.199 0.154572 -2.06823 0
M  V30 2628 C 239.624 1.3722 -1.28656 0
M  V30 2629 O 238.982 1.78461 -0.319583 0
M  V30 2630 C 239.03 0.473172 -3.57482 0
M  V30 2631 O 238.134 1.56255 -3.81652 0
M  V30 2632 H 237.475 0.0096924 -0.663929 0
M  V30 2633 H 240.005 -0.595642 -1.95738 0
M  V30 2634 H 240.015 0.728825 -4.01438 0
M  V30 2635 H 238.69 -0.416873 -4.13805 0
M  V30 2636 H 237.267 1.29825 -3.49571 0
M  V30 2637 N 239.452 1.56882 -0.150215 0
M  V30 2638 C 240.698 1.97299 0.494427 0
M  V30 2639 C 241.053 1.0338 1.62266 0
M  V30 2640 O 240.346 0.0694497 1.91474 0
M  V30 2641 C 240.54 3.41801 1.04437 0
M  V30 2642 C 240.369 4.49691 -0.0290451 0
M  V30 2643 C 239.139 5.03095 -0.47156 0
M  V30 2644 C 241.337 5.07693 -0.821703 0
M  V30 2645 N 239.319 5.94593 -1.52749 0
M  V30 2646 C 240.69 5.95431 -1.72805 0
M  V30 2647 C 242.745 4.90256 -0.869134 0
M  V30 2648 C 241.448 6.67599 -2.67777 0
M  V30 2649 C 243.474 5.63127 -1.8067 0
M  V30 2650 C 242.836 6.50576 -2.70057 0
M  V30 2651 H 238.935 0.76755 0.149639 0
M  V30 2652 H 241.519 1.93145 -0.24556 0
M  V30 2653 H 239.69 3.46541 1.75396 0
M  V30 2654 H 241.422 3.69272 1.6559 0
M  V30 2655 H 238.177 4.73543 -0.0732101 0
M  V30 2656 H 238.601 6.45047 -2.05531 0
M  V30 2657 H 243.243 4.22363 -0.192134 0
M  V30 2658 H 240.961 7.34717 -3.36476 0
M  V30 2659 H 244.547 5.51629 -1.84924 0
M  V30 2660 H 243.427 7.05974 -3.41424 0
M  V30 2661 N 240.93 -0.123565 1.57115 0
M  V30 2662 C 242.155 -0.850398 1.89164 0
M  V30 2663 C 242.58 -1.7286 0.741688 0
M  V30 2664 O 241.938 -1.78665 -0.307958 0
M  V30 2665 C 241.986 -1.66353 3.19936 0
M  V30 2666 O 241.09 -2.77004 3.0552 0
M  V30 2667 H 240.431 -0.235454 0.620852 0
M  V30 2668 H 242.961 -0.107335 2.04318 0
M  V30 2669 H 242.971 -2.05372 3.52543 0
M  V30 2670 H 241.646 -1.01881 4.03228 0
M  V30 2671 H 240.223 -2.41221 2.84371 0
M  V30 2672 N 242.408 -1.52605 -0.393616 0
M  V30 2673 C 243.654 -1.67672 -1.14079 0
M  V30 2674 C 243.987 -0.413121 -1.89755 0
M  V30 2675 O 243.262 0.588952 -1.85369 0
M  V30 2676 C 243.545 -2.9088 -2.12276 0
M  V30 2677 C 243.398 -4.27329 -1.40394 0
M  V30 2678 C 244.717 -3.09628 -3.12759 0
M  V30 2679 H 241.836 -0.610168 -0.413356 0
M  V30 2680 H 244.478 -1.85193 -0.424696 0
M  V30 2681 H 242.628 -2.76073 -2.73342 0
M  V30 2682 H 244.3 -4.53894 -0.82327 0
M  V30 2683 H 242.543 -4.2802 -0.705801 0
M  V30 2684 H 243.214 -5.09615 -2.12123 0
M  V30 2685 H 245.69 -3.23436 -2.61779 0
M  V30 2686 H 244.566 -3.97322 -3.78717 0
M  V30 2687 H 244.827 -2.23637 -3.81365 0
M  V30 2688 N 243.887 0.651787 -1.4349 0
M  V30 2689 C 245.117 1.43728 -1.48411 0
M  V30 2690 C 245.525 1.8893 -0.10103 0
M  V30 2691 O 244.868 1.60182 0.899307 0
M  V30 2692 C 244.93 2.70411 -2.36893 0
M  V30 2693 C 244.594 2.4714 -3.8441 0
M  V30 2694 C 245.591 2.10271 -4.75481 0
M  V30 2695 C 243.276 2.6142 -4.28912 0
M  V30 2696 C 245.27 1.87982 -6.0905 0
M  V30 2697 C 242.957 2.38746 -5.62533 0
M  V30 2698 C 243.955 2.02083 -6.5242 0
M  V30 2699 O 243.643 1.79647 -7.8357 0
M  V30 2700 H 243.375 0.447962 -0.506267 0
M  V30 2701 H 245.929 0.80624 -1.88915 0
M  V30 2702 H 244.159 3.36079 -1.91278 0
M  V30 2703 H 245.848 3.32364 -2.33 0
M  V30 2704 H 246.614 1.98814 -4.42378 0
M  V30 2705 H 242.493 2.88931 -3.59222 0
M  V30 2706 H 246.037 1.5929 -6.7917 0
M  V30 2707 H 241.934 2.49806 -5.95203 0
M  V30 2708 H 242.702 1.9406 -7.95162 0
M  V30 2709 N 245.365 1.30045 0.890287 0
M  V30 2710 C 246.611 1.18737 1.64406 0
M  V30 2711 C 246.944 -0.258525 1.92472 0
M  V30 2712 O 246.219 -1.18562 1.54186 0
M  V30 2713 C 246.502 2.01087 2.98724 0
M  V30 2714 C 246.355 3.53867 2.77665 0
M  V30 2715 C 247.674 1.84457 3.9958 0
M  V30 2716 H 244.793 0.432698 0.596608 0
M  V30 2717 H 247.435 1.5962 1.0306 0
M  V30 2718 H 245.585 1.66349 3.51084 0
M  V30 2719 H 247.257 3.98637 2.32133 0
M  V30 2720 H 245.5 3.78318 2.12269 0
M  V30 2721 H 246.171 4.06772 3.7315 0
M  V30 2722 H 248.647 2.14817 3.56361 0
M  V30 2723 H 247.523 2.44411 4.91482 0
M  V30 2724 H 247.784 0.802276 4.3476 0
M  V30 2725 N 246.843 -1.10192 1.12674 0
M  V30 2726 C 248.091 -1.81845 0.881861 0
M  V30 2727 C 248.412 -1.85737 -0.593867 0
M  V30 2728 O 247.682 -1.33724 -1.4316 0
M  V30 2729 H 246.262 -0.673432 0.323261 0
M  V30 2730 H 248.924 -1.33316 1.42172 0
M  V30 2731 H 248.02 -2.85288 1.2656 0
M  V30 2732 N 248.321 -0.919034 -1.28029 0
M  V30 2733 C 249.284 -0.416182 -2.2539 0
M  V30 2734 C 250.284 0.460438 -1.54067 0
M  V30 2735 O 251.474 0.262744 -1.72207 0
M  V30 2736 C 248.606 0.402707 -3.38513 0
M  V30 2737 H 249.799 -1.27629 -2.71387 0
M  V30 2738 H 247.352 -0.698919 -1.39803 0
M  V30 2739 H 248.087 1.282 -2.97885 0
M  V30 2740 H 247.872 -0.225698 -3.9145 0
M  V30 2741 H 249.362 0.745191 -4.10897 0
M  V30 2742 N 249.799 1.42003 -0.683588 0
M  V30 2743 C 251.215 1.55625 -0.353976 0
M  V30 2744 C 251.415 1.66151 1.14 0
M  V30 2745 O 250.471 1.63329 1.92561 0
M  V30 2746 C 251.784 2.80171 -1.092 0
M  V30 2747 C 253.332 2.93954 -1.07518 0
M  V30 2748 C 253.807 4.21372 -1.79471 0
M  V30 2749 N 255.298 4.28303 -1.76381 0
M  V30 2750 C 256.033 5.25729 -2.28904 0
M  V30 2751 N 255.529 6.29254 -2.89846 0
M  V30 2752 N 257.322 5.17586 -2.19228 0
M  V30 2753 H 249.473 1.33415 -1.6527 0
M  V30 2754 H 251.736 0.64282 -0.696769 0
M  V30 2755 H 251.442 2.78561 -2.14701 0
M  V30 2756 H 251.316 3.7133 -0.662862 0
M  V30 2757 H 253.703 2.95086 -0.028475 0
M  V30 2758 H 253.784 2.04002 -1.54328 0
M  V30 2759 H 253.428 4.21001 -2.84114 0
M  V30 2760 H 253.358 5.10275 -1.30104 0
M  V30 2761 H 255.849 3.54119 -1.31939 0
M  V30 2762 H 256.162 6.99964 -3.27522 0
M  V30 2763 H 254.507 6.29791 -2.93919 0
M  V30 2764 H 257.698 4.35631 -1.71299 0
M  V30 2765 H 257.871 5.93348 -2.60466 0
M  V30 2766 N 251.277 0.427512 1.51691 0
M  V30 2767 C 252.517 -0.141524 2.03909 0
M  V30 2768 C 252.881 -1.40811 1.30523 0
M  V30 2769 O 254.082 -2.05676 1.73063 0
M  V30 2770 C 252.353 -0.364962 3.55532 0
M  V30 2771 S 253.912 -0.898812 4.29496 0
M  V30 2772 H 250.73 -0.0364542 0.710065 0
M  V30 2773 H 253.332 0.584659 1.86553 0
M  V30 2774 H 252.036 0.56336 4.06515 0
M  V30 2775 H 251.567 -1.1185 3.77164 0
M  V30 2776 H 253.582 -2.17747 4.45871 0
M  V30 2777 N 252.755 -1.56801 0.158532 0
M  V30 2778 C 253.995 -1.98383 -0.49229 0
M  V30 2779 C 254.359 -1.04184 -1.61275 0
M  V30 2780 O 255.56 -1.34856 -2.32524 0
M  V30 2781 C 253.831 -3.4385 -0.974766 0
M  V30 2782 S 255.39 -4.07459 -1.62857 0
M  V30 2783 H 252.208 -0.693041 -0.158794 0
M  V30 2784 H 254.81 -1.93856 0.252974 0
M  V30 2785 H 253.514 -4.10131 -0.148688 0
M  V30 2786 H 253.045 -3.52115 -1.75438 0
M  V30 2787 H 255.06 -4.01458 -2.91627 0
M  V30 2788 N 254.233 0.115231 -1.57178 0
M  V30 2789 C 255.163 1.1423 -2.03651 0
M  V30 2790 C 256.144 1.42967 -0.921655 0
M  V30 2791 O 257.329 1.53343 -1.19162 0
M  V30 2792 C 254.459 2.4675 -2.44401 0
M  V30 2793 C 253.413 2.32467 -3.59365 0
M  V30 2794 C 252.739 3.69984 -3.86026 0
M  V30 2795 C 254.039 1.78203 -4.90959 0
M  V30 2796 H 255.733 0.755749 -2.89705 0
M  V30 2797 H 253.279 0.362093 -1.39373 0
M  V30 2798 H 255.232 3.18854 -2.75517 0
M  V30 2799 H 253.956 2.87302 -1.55322 0
M  V30 2800 H 252.615 1.62811 -3.28463 0
M  V30 2801 H 252.263 4.08028 -2.94147 0
M  V30 2802 H 251.963 3.61279 -4.63412 0
M  V30 2803 H 253.487 4.43587 -4.19599 0
M  V30 2804 H 254.901 2.40128 -5.20587 0
M  V30 2805 H 253.298 1.8031 -5.72371 0
M  V30 2806 H 254.368 0.739876 -4.79222 0
M  V30 2807 N 255.711 1.52812 0.385517 0
M  V30 2808 C 256.644 1.72592 1.49289 0
M  V30 2809 C 257.622 0.573819 1.52138 0
M  V30 2810 O 258.806 0.80404 1.70492 0
M  V30 2811 C 255.933 1.78669 2.87741 0
M  V30 2812 C 254.979 3.00455 3.02703 0
M  V30 2813 S 255.812 4.60366 2.73538 0
M  V30 2814 C 256.968 4.69263 4.14177 0
M  V30 2815 H 257.201 2.66248 1.32285 0
M  V30 2816 H 254.734 1.43148 0.578611 0
M  V30 2817 H 256.692 1.82855 3.67524 0
M  V30 2818 H 255.353 0.861 3.02069 0
M  V30 2819 H 254.546 3.01258 4.04054 0
M  V30 2820 H 254.148 2.94278 2.30817 0
M  V30 2821 H 256.44 4.48092 5.08153 0
M  V30 2822 H 257.383 5.71276 4.18388 0
M  V30 2823 H 257.791 3.98072 4.00249 0
M  V30 2824 N 257.189 -0.644168 1.43834 0
M  V30 2825 C 258.6 -1.22554 1.40845 0
M  V30 2826 C 258.951 -1.9585 0.117115 0
M  V30 2827 O 258.076 -2.01734 -0.783086 0
M  V30 2828 C 258.671 -2.22907 2.55143 0
M  V30 2829 C 257.23 -2.76501 2.5539 0
M  V30 2830 C 256.377 -1.51287 2.32396 0
M  V30 2831 H 259.328 -0.43563 1.52604 0
M  V30 2832 H 259.349 -3.05259 2.2715 0
M  V30 2833 H 258.861 -1.69533 3.49114 0
M  V30 2834 H 256.962 -3.33914 1.65324 0
M  V30 2835 H 257.075 -3.23429 3.53455 0
M  V30 2836 H 255.439 -1.78957 1.81236 0
M  V30 2837 H 256.222 -0.998336 3.28463 0
M  V30 2838 N 258.668 -1.30515 -0.883378 0
M  V30 2839 C 259.914 -1.20617 -1.63778 0
M  V30 2840 C 260.269 0.236469 -1.90941 0
M  V30 2841 O 259.562 1.16596 -1.52039 0
M  V30 2842 C 259.756 -1.96994 -2.98209 0
M  V30 2843 C 259.585 -3.48537 -2.84169 0
M  V30 2844 C 258.355 -4.17893 -2.84067 0
M  V30 2845 C 260.553 -4.43738 -2.60001 0
M  V30 2846 N 258.535 -5.55685 -2.60936 0
M  V30 2847 C 259.906 -5.69105 -2.46007 0
M  V30 2848 C 261.961 -4.33316 -2.45239 0
M  V30 2849 C 260.664 -6.8523 -2.18752 0
M  V30 2850 C 262.69 -5.4921 -2.19369 0
M  V30 2851 C 262.052 -6.73558 -2.06153 0
M  V30 2852 H 258.151 -0.496434 -0.604216 0
M  V30 2853 H 260.735 -1.64544 -1.04083 0
M  V30 2854 H 258.906 -1.55455 -3.55933 0
M  V30 2855 H 260.638 -1.79225 -3.62851 0
M  V30 2856 H 257.393 -3.69739 -2.95956 0
M  V30 2857 H 257.817 -6.28199 -2.52378 0
M  V30 2858 H 262.459 -3.37856 -2.54191 0
M  V30 2859 H 260.177 -7.80729 -2.08537 0
M  V30 2860 H 263.763 -5.43054 -2.08766 0
M  V30 2861 H 262.643 -7.61721 -1.86416 0
M  V30 2862 N 260.146 1.09593 -1.13257 0
M  V30 2863 C 261.371 1.8604 -0.916732 0
M  V30 2864 C 261.796 1.80504 0.529146 0
M  V30 2865 O 261.154 1.18127 1.37534 0
M  V30 2866 C 261.202 3.32017 -1.40703 0
M  V30 2867 O 260.306 4.08141 -0.591153 0
M  V30 2868 H 259.647 0.576943 -0.328683 0
M  V30 2869 H 262.177 1.38405 -1.50682 0
M  V30 2870 H 262.187 3.82865 -1.4099 0
M  V30 2871 H 260.862 3.35361 -2.45979 0
M  V30 2872 H 259.439 3.67084 -0.656005 0
M  V30 2873 N 261.624 0.925811 1.2754 0
M  V30 2874 C 262.554 0.440748 2.29303 0
M  V30 2875 C 263.535 -0.497971 1.62648 0
M  V30 2876 O 264.72 -0.403126 1.8997 0
M  V30 2877 C 261.85 -0.309048 3.45922 0
M  V30 2878 C 260.804 0.54166 4.24559 0
M  V30 2879 C 260.13 -0.337191 5.33636 0
M  V30 2880 C 261.43 1.80516 4.90114 0
M  V30 2881 H 263.124 1.29121 2.70126 0
M  V30 2882 H 260.67 0.622323 1.29858 0
M  V30 2883 H 262.623 -0.659315 4.1621 0
M  V30 2884 H 261.347 -1.19352 3.04011 0
M  V30 2885 H 260.006 0.874609 3.56014 0
M  V30 2886 H 259.654 -1.22056 4.87966 0
M  V30 2887 H 259.354 0.228497 5.87156 0
M  V30 2888 H 260.878 -0.683072 6.06767 0
M  V30 2889 H 262.292 1.52307 5.52698 0
M  V30 2890 H 260.689 2.3142 5.53683 0
M  V30 2891 H 261.759 2.52581 4.13921 0
M  V30 2892 N 263.102 -1.41638 0.69111 0
M  V30 2893 C 264.513 -1.84346 0.295517 0
M  V30 2894 C 264.864 -1.57833 -1.16547 0
M  V30 2895 O 263.989 -1.04648 -1.89414 0
M  V30 2896 C 264.584 -3.34636 0.529575 0
M  V30 2897 C 263.143 -3.7593 0.187944 0
M  V30 2898 C 262.29 -2.65082 0.814052 0
M  V30 2899 H 265.241 -1.31253 0.892092 0
M  V30 2900 H 265.262 -3.79903 -0.213148 0
M  V30 2901 H 264.774 -3.53901 1.59297 0
M  V30 2902 H 262.875 -3.62268 -0.871367 0
M  V30 2903 H 262.988 -4.74808 0.63985 0
M  V30 2904 H 261.352 -2.53528 0.244017 0
M  V30 2905 H 262.135 -2.87167 1.88123 0
M  V30 2906 N 264.58 -0.43555 -1.51462 0
M  V30 2907 C 265.828 0.131254 -2.01673 0
M  V30 2908 C 266.149 1.43368 -1.32177 0
M  V30 2909 O 265.419 1.90524 -0.455769 0
M  V30 2910 H 263.999 0.0514954 -0.745223 0
M  V30 2911 H 266.661 -0.577847 -1.86137 0
M  V30 2912 H 265.757 0.308446 -3.10572 0
M  V30 2913 N 266.058 1.56714 -0.166846 0
M  V30 2914 C 267.469 1.83378 0.350646 0
M  V30 2915 C 267.82 1.08646 1.63372 0
M  V30 2916 O 266.945 0.338058 2.13743 0
M  V30 2917 C 267.54 3.32643 0.642963 0
M  V30 2918 C 266.099 3.59818 1.10491 0
M  V30 2919 C 265.246 2.76954 0.138411 0
M  V30 2920 H 268.197 1.53803 -0.391193 0
M  V30 2921 H 268.218 3.49878 1.49551 0
M  V30 2922 H 267.73 3.87007 -0.291055 0
M  V30 2923 H 265.831 3.1086 2.05418 0
M  V30 2924 H 265.944 4.68178 1.01716 0
M  V30 2925 H 264.308 2.4666 0.634911 0
M  V30 2926 H 265.091 3.34097 -0.789549 0
M  V30 2927 N 267.536 -0.106894 1.57237 0
M  V30 2928 C 268.486 -1.1366 1.9765 0
M  V30 2929 C 269.47 -1.36416 0.853203 0
M  V30 2930 O 270.662 -1.37305 1.11697 0
M  V30 2931 C 267.791 -2.46 2.39455 0
M  V30 2932 C 266.877 -2.26668 3.58445 0
M  V30 2933 N 267.268 -1.77176 4.73754 0
M  V30 2934 C 265.566 -2.57279 3.64312 0
M  V30 2935 C 266.267 -1.71836 5.5574 0
M  V30 2936 N 265.243 -2.16623 4.98573 0
M  V30 2937 H 269.045 -0.74669 2.84256 0
M  V30 2938 H 266.559 -0.314483 1.59326 0
M  V30 2939 H 268.556 -3.2049 2.6663 0
M  V30 2940 H 267.216 -2.85738 1.54219 0
M  V30 2941 H 268.227 -1.46545 4.96734 0
M  V30 2942 H 264.904 -3.00622 2.89711 0
M  V30 2943 H 266.294 -1.34723 6.58255 0
M  V30 2944 N 269.014 -1.53014 -0.377408 0
M  V30 2945 C 270.425 -1.60438 -0.954798 0
M  V30 2946 C 270.776 -0.464418 -1.90624 0
M  V30 2947 O 269.901 0.41087 -2.12464 0
M  V30 2948 C 270.496 -2.90797 -1.73847 0
M  V30 2949 C 269.055 -3.00595 -2.26538 0
M  V30 2950 C 268.202 -2.55645 -1.07429 0
M  V30 2951 H 271.153 -1.57926 -0.156575 0
M  V30 2952 H 271.174 -2.77935 -2.5987 0
M  V30 2953 H 270.686 -3.73746 -1.04574 0
M  V30 2954 H 268.787 -2.22208 -2.99089 0
M  V30 2955 H 268.9 -4.05456 -2.5523 0
M  V30 2956 H 267.264 -2.10239 -1.43777 0
M  V30 2957 H 268.047 -3.41 -0.396728 0
M  V30 2958 N 270.492 0.636531 -1.44174 0
M  V30 2959 C 271.732 1.40781 -1.48189 0
M  V30 2960 C 272.096 1.91688 -0.10944 0
M  V30 2961 O 273.297 2.68789 -0.0242741 0
M  V30 2962 C 271.568 2.54575 -2.50851 0
M  V30 2963 S 273.127 3.4284 -2.73873 0
M  V30 2964 H 269.945 0.480345 -0.524204 0
M  V30 2965 H 272.547 0.737416 -1.81059 0
M  V30 2966 H 271.251 2.15478 -3.49281 0
M  V30 2967 H 270.782 3.26447 -2.19536 0
M  V30 2968 H 272.797 4.51846 -2.05059 0
M  V30 2969 N 271.97 1.30982 0.876444 0
M  V30 2970 C 273.218 1.20058 1.62575 0
M  V30 2971 C 273.539 -0.242947 1.93481 0
M  V30 2972 O 272.809 -1.1619 1.57724 0
M  V30 2973 H 271.389 0.44135 0.602677 0
M  V30 2974 H 274.051 1.64222 1.04962 0
M  V30 2975 H 273.147 1.76762 2.57219 0
M  V30 2976 N 273.449 -1.08991 1.13837 0
M  V30 2977 C 274.86 -1.62746 0.914917 0
M  V30 2978 C 275.211 -1.88403 -0.547594 0
M  V30 2979 O 274.336 -1.63706 -1.41525 0
M  V30 2980 C 274.931 -2.95662 1.65437 0
M  V30 2981 C 273.49 -3.46225 1.47666 0
M  V30 2982 C 272.637 -2.20562 1.6807 0
M  V30 2983 H 275.588 -0.922946 1.29102 0
M  V30 2984 H 275.609 -3.63825 1.11407 0
M  V30 2985 H 275.121 -2.76956 2.71877 0
M  V30 2986 H 273.222 -3.70046 0.435478 0
M  V30 2987 H 273.335 -4.23368 2.24268 0
M  V30 2988 H 271.699 -2.29439 1.10589 0
M  V30 2989 H 272.482 -2.0437 2.7584 0
M  V30 2990 N 274.927 -0.932562 -1.27047 0
M  V30 2991 C 276.167 -0.582919 -1.95912 0
M  V30 2992 C 276.531 0.860629 -1.71631 0
M  V30 2993 O 277.732 1.31878 -2.34225 0
M  V30 2994 C 276.003 -0.905673 -3.45734 0
M  V30 2995 S 277.562 -0.665277 -4.33727 0
M  V30 2996 H 274.38 -0.215 -0.677714 0
M  V30 2997 H 276.982 -1.20204 -1.54179 0
M  V30 2998 H 275.686 -1.95386 -3.60905 0
M  V30 2999 H 275.217 -0.275939 -3.92431 0
M  V30 3000 H 277.232 0.474635 -4.93925 0
M  V30 3001 N 276.405 1.4127 -0.698611 0
M  V30 3002 C 277.63 2.06024 -0.238512 0
M  V30 3003 C 278.055 1.5224 1.10475 0
M  V30 3004 O 277.413 0.650623 1.69223 0
M  V30 3005 C 277.461 3.59988 -0.209952 0
M  V30 3006 O 276.565 4.04282 0.814235 0
M  V30 3007 H 275.906 0.653829 -0.115775 0
M  V30 3008 H 278.436 1.8098 -0.954326 0
M  V30 3009 H 278.446 4.07979 -0.0418436 0
M  V30 3010 H 277.121 3.98503 -1.1903 0
M  V30 3011 H 275.698 3.6779 0.615234 0
M  V30 3012 N 277.883 0.443576 1.51229 0
M  V30 3013 C 278.793 -0.370721 2.31652 0
M  V30 3014 C 279.809 -1.02186 1.40833 0
M  V30 3015 O 280.985 -1.01586 1.73903 0
M  V30 3016 C 278.05 -1.45376 3.14749 0
M  V30 3017 C 277.111 -0.822099 4.21355 0
M  V30 3018 C 276.344 -1.85353 5.0048 0
M  V30 3019 O 276.567 -3.07656 4.80316 0
M  V30 3020 O 275.501 -1.4406 5.84406 0
M  V30 3021 H 279.327 0.286002 3.0235 0
M  V30 3022 H 276.912 0.20598 1.47973 0
M  V30 3023 H 278.794 -2.08173 3.66391 0
M  V30 3024 H 277.469 -2.09445 2.46809 0
M  V30 3025 H 276.376 -0.155909 3.73775 0
M  V30 3026 H 277.709 -0.224797 4.91686 0
M  V30 3027 N 279.361 -1.56624 0.175154 0
M  V30 3028 C 280.777 -1.58571 -0.180966 0
M  V30 3029 C 280.977 -1.19065 -1.6256 0
M  V30 3030 O 280.033 -0.904044 -2.35761 0
M  V30 3031 C 281.346 -3.00522 0.103326 0
M  V30 3032 C 282.894 -3.12972 0.0418426 0
M  V30 3033 C 283.369 -4.57022 0.299175 0
M  V30 3034 N 284.86 -4.62541 0.247086 0
M  V30 3035 C 285.595 -5.71857 0.420318 0
M  V30 3036 N 285.091 -6.89717 0.652816 0
M  V30 3037 N 286.884 -5.60972 0.355957 0
M  V30 3038 H 279.035 -1.80589 1.11809 0
M  V30 3039 H 281.298 -0.837178 0.444788 0
M  V30 3040 H 281.004 -3.33916 1.10422 0
M  V30 3041 H 280.878 -3.72344 -0.603299 0
M  V30 3042 H 283.265 -2.79403 -0.949636 0
M  V30 3043 H 283.346 -2.43578 0.781238 0
M  V30 3044 H 282.99 -4.913 1.28788 0
M  V30 3045 H 282.92 -5.24579 -0.460876 0
M  V30 3046 H 285.411 -3.77829 0.0731895 0
M  V30 3047 H 285.724 -7.68911 0.774347 0
M  V30 3048 H 284.069 -6.91572 0.689476 0
M  V30 3049 H 287.26 -4.67773 0.174882 0
M  V30 3050 H 287.433 -6.46111 0.494388 0
M  V30 3051 N 280.839 0.0985539 -1.57292 0
M  V30 3052 C 282.255 0.45267 -1.53046 0
M  V30 3053 C 282.455 1.80713 -0.891342 0
M  V30 3054 O 281.511 2.4785 -0.482375 0
M  V30 3055 C 282.824 0.418341 -2.97776 0
M  V30 3056 C 284.372 0.500443 -3.08973 0
M  V30 3057 C 284.847 0.496297 -4.55303 0
M  V30 3058 N 286.338 0.557151 -4.59837 0
M  V30 3059 C 287.073 0.575726 -5.70502 0
M  V30 3060 N 286.569 0.550714 -6.90608 0
M  V30 3061 N 288.362 0.620277 -5.58667 0
M  V30 3062 H 280.513 -0.788673 -1.97215 0
M  V30 3063 H 282.776 -0.293188 -0.901524 0
M  V30 3064 H 282.482 -0.509659 -3.47988 0
M  V30 3065 H 282.356 1.2386 -3.56284 0
M  V30 3066 H 284.743 1.41886 -2.58751 0
M  V30 3067 H 284.824 -0.347894 -2.53423 0
M  V30 3068 H 284.468 -0.418162 -5.06176 0
M  V30 3069 H 284.398 1.3618 -5.08687 0
M  V30 3070 H 286.889 0.581816 -3.73394 0
M  V30 3071 H 287.202 0.568075 -7.70709 0
M  V30 3072 H 285.547 0.517816 -6.93068 0
M  V30 3073 H 288.738 0.637322 -4.63741 0
M  V30 3074 H 288.911 0.631283 -6.44918 0
M  V30 3075 N 282.317 1.53212 0.369288 0
M  V30 3076 C 283.264 1.79388 1.45219 0
M  V30 3077 C 284.234 0.638059 1.53356 0
M  V30 3078 O 285.419 0.879852 1.69302 0
M  V30 3079 C 282.559 1.98623 2.82211 0
M  V30 3080 C 281.672 3.26337 2.8307 0
M  V30 3081 C 280.807 3.35779 4.11614 0
M  V30 3082 C 279.846 4.5754 4.06601 0
M  V30 3083 N 278.983 4.64155 5.26787 0
M  V30 3084 H 283.823 2.71794 1.22198 0
M  V30 3085 H 281.36 1.34642 0.592444 0
M  V30 3086 H 283.318 2.07761 3.61789 0
M  V30 3087 H 281.948 1.09558 3.03639 0
M  V30 3088 H 281 3.26171 1.95747 0
M  V30 3089 H 282.312 4.15988 2.75237 0
M  V30 3090 H 281.466 3.44208 4.99606 0
M  V30 3091 H 280.205 2.44137 4.22195 0
M  V30 3092 H 279.21 4.49215 3.16996 0
M  V30 3093 H 280.435 5.50519 3.97625 0
M  V30 3094 H 278.381 3.75413 5.3796 0
M  V30 3095 H 278.298 5.47706 5.21109 0
M  V30 3096 H 279.566 4.76863 6.16621 0
M  V30 3097 N 283.795 -0.628877 1.44509 0
M  V30 3098 C 284.745 -1.7345 1.47983 0
M  V30 3099 C 285.729 -1.5715 0.345373 0
M  V30 3100 O 286.921 -1.66848 0.590829 0
M  V30 3101 C 284.05 -3.12143 1.42904 0
M  V30 3102 C 283.136 -3.33906 2.61472 0
M  V30 3103 N 283.527 -3.26024 3.86706 0
M  V30 3104 C 281.825 -3.64709 2.56716 0
M  V30 3105 C 282.526 -3.48536 4.65722 0
M  V30 3106 N 281.502 -3.71517 3.96832 0
M  V30 3107 H 285.304 -1.65818 2.42655 0
M  V30 3108 H 282.818 -0.831419 1.39503 0
M  V30 3109 H 284.815 -3.91433 1.43476 0
M  V30 3110 H 283.475 -3.2094 0.492717 0
M  V30 3111 H 284.486 -3.04893 4.18641 0
M  V30 3112 H 281.163 -3.80473 1.71891 0
M  V30 3113 H 282.553 -3.48016 5.74747 0
M  V30 3114 N 285.273 -1.31445 -0.869486 0
M  V30 3115 C 286.203 -1.21727 -1.99261 0
M  V30 3116 C 287.184 -0.104359 -1.6978 0
M  V30 3117 O 288.369 -0.289038 -1.92037 0
M  V30 3118 C 285.499 -0.924317 -3.34774 0
M  V30 3119 C 284.453 -1.99685 -3.78563 0
M  V30 3120 C 283.779 -1.55658 -5.11541 0
M  V30 3121 C 285.079 -3.41003 -3.95619 0
M  V30 3122 H 286.773 -2.1569 -2.07649 0
M  V30 3123 H 284.319 -1.03839 -0.997675 0
M  V30 3124 H 286.272 -0.842934 -4.12883 0
M  V30 3125 H 284.996 0.0509793 -3.2656 0
M  V30 3126 H 283.655 -2.06813 -3.02694 0
M  V30 3127 H 283.303 -0.569132 -4.9977 0
M  V30 3128 H 283.003 -2.27409 -5.41811 0
M  V30 3129 H 284.527 -1.48928 -5.92159 0
M  V30 3130 H 285.941 -3.36547 -4.64122 0
M  V30 3131 H 284.338 -4.10975 -4.37286 0
M  V30 3132 H 285.408 -3.81754 -2.98985 0
M  V30 3133 N 286.751 1.08385 -1.14413 0
M  V30 3134 C 287.998 1.80776 -0.912482 0
M  V30 3135 C 288.326 1.86236 0.560934 0
M  V30 3136 O 287.581 1.33431 1.43159 0
M  V30 3137 C 287.88 3.26273 -1.45879 0
M  V30 3138 C 287.546 3.4093 -2.95089 0
M  V30 3139 C 286.208 3.44638 -3.35824 0
M  V30 3140 C 288.56 3.44591 -3.91033 0
M  V30 3141 C 285.888 3.49597 -4.71167 0
M  V30 3142 C 288.24 3.51086 -5.26233 0
M  V30 3143 C 286.904 3.53067 -5.6648 0
M  V30 3144 H 286.174 0.661507 -0.333901 0
M  V30 3145 H 288.821 1.27613 -1.42784 0
M  V30 3146 H 287.126 3.82146 -0.864376 0
M  V30 3147 H 288.823 3.80839 -1.2555 0
M  V30 3148 H 285.413 3.38736 -2.62594 0
M  V30 3149 H 289.597 3.40957 -3.60641 0
M  V30 3150 H 284.853 3.49424 -5.0171 0
M  V30 3151 H 289.027 3.52864 -6.00383 0
M  V30 3152 H 286.654 3.56662 -6.71339 0
M  V30 3153 N 288.23 0.939286 1.26551 0
M  V30 3154 C 289.476 0.586715 1.94128 0
M  V30 3155 C 289.809 -0.8717 1.73537 0
M  V30 3156 O 289.084 -1.62339 1.07127 0
M  V30 3157 C 289.367 0.927497 3.4795 0
M  V30 3158 C 289.22 2.44052 3.77834 0
M  V30 3159 C 290.539 0.441569 4.37879 0
M  V30 3160 H 287.658 0.21463 0.705055 0
M  V30 3161 H 290.3 1.17316 1.49455 0
M  V30 3162 H 288.45 0.428431 3.8613 0
M  V30 3163 H 290.122 3.01216 3.4938 0
M  V30 3164 H 288.365 2.8848 3.23978 0
M  V30 3165 H 289.036 2.62947 4.85348 0
M  V30 3166 H 291.512 0.869448 4.06915 0
M  V30 3167 H 290.388 0.708856 5.44304 0
M  V30 3168 H 290.649 -0.658467 4.37169 0
M  V30 3169 N 289.708 -1.40897 0.706093 0
M  V30 3170 C 290.64 -2.29199 0.00815776 0
M  V30 3171 C 291.653 -1.45336 -0.733582 0
M  V30 3172 O 292.842 -1.68727 -0.582537 0
M  V30 3173 C 289.942 -3.23417 -1.01265 0
M  V30 3174 C 289.115 -4.36089 -0.338387 0
M  V30 3175 C 288.174 -5.10811 -1.26326 0
M  V30 3176 O 287.2 -5.64215 -0.751651 0
M  V30 3177 N 288.402 -5.19269 -2.595 0
M  V30 3178 H 291.167 -2.89738 0.766297 0
M  V30 3179 H 288.728 -1.52164 0.55296 0
M  V30 3180 H 290.72 -3.70276 -1.63334 0
M  V30 3181 H 289.29 -2.64112 -1.67223 0
M  V30 3182 H 288.51 -3.91479 0.462352 0
M  V30 3183 H 289.798 -5.08634 0.130031 0
M  V30 3184 H 289.196 -4.77347 -3.03573 0
M  V30 3185 H 287.753 -5.69667 -3.16737 0
M  V30 3186 N 291.186 -0.45159 -1.50991 0
M  V30 3187 C 292.463 0.170707 -1.94854 0
M  V30 3188 C 292.843 1.58788 -1.39103 0
M  V30 3189 O 292.191 2.20913 -0.583921 0
M  V30 3190 C 292.401 0.133929 -3.48743 0
M  V30 3191 C 293.749 0.33248 -4.23296 0
M  V30 3192 O 294.773 0.211403 -3.55572 0
M  V30 3193 O 293.632 0.57486 -5.43468 0
M  V30 3194 H 290.726 0.122264 -0.817912 0
M  V30 3195 H 293.272 -0.510594 -1.61836 0
M  V30 3196 H 292.044 -0.856283 -3.81816 0
M  V30 3197 H 291.667 0.857529 -3.88242 0
M  V30 3198 N 292.664 1.56529 -0.183458 0
M  V30 3199 C 294.075 1.83739 0.331177 0
M  V30 3200 C 294.426 1.10373 1.62211 0
M  V30 3201 O 293.551 0.36071 2.13373 0
M  V30 3202 C 294.146 3.33306 0.607646 0
M  V30 3203 C 292.705 3.60969 1.06668 0
M  V30 3204 C 291.852 2.77086 0.109029 0
M  V30 3205 H 294.803 1.53379 -0.407484 0
M  V30 3206 H 294.824 3.51444 1.45832 0
M  V30 3207 H 294.336 3.86677 -0.332086 0
M  V30 3208 H 292.437 3.13021 2.0211 0
M  V30 3209 H 292.55 4.69231 0.967447 0
M  V30 3210 H 290.914 2.47319 0.608714 0
M  V30 3211 H 291.697 3.33241 -0.82494 0
M  V30 3212 N 294.142 -0.090211 1.57342 0
M  V30 3213 C 295.074 -1.13541 1.99101 0
M  V30 3214 C 296.087 -1.3604 0.894258 0
M  V30 3215 O 297.276 -1.34606 1.17233 0
M  V30 3216 C 294.376 -2.49001 2.29895 0
M  V30 3217 C 293.549 -2.46712 3.61182 0
M  V30 3218 C 292.608 -3.64136 3.79857 0
M  V30 3219 O 291.634 -3.46405 4.51655 0
M  V30 3220 N 292.836 -4.83802 3.20806 0
M  V30 3221 H 295.601 -0.779942 2.89373 0
M  V30 3222 H 293.162 -0.279125 1.59476 0
M  V30 3223 H 295.154 -3.26166 2.39578 0
M  V30 3224 H 293.724 -2.76619 1.45605 0
M  V30 3225 H 292.944 -1.55058 3.62423 0
M  V30 3226 H 294.232 -2.42265 4.4742 0
M  V30 3227 H 293.63 -5.01112 2.62494 0
M  V30 3228 H 292.187 -5.58543 3.35966 0
M  V30 3229 N 295.62 -1.53406 -0.361157 0
M  V30 3230 C 296.848 -1.73717 -1.12383 0
M  V30 3231 C 297.263 -0.468161 -1.82904 0
M  V30 3232 O 296.62 0.559198 -1.73722 0
M  V30 3233 C 296.671 -2.90558 -2.15078 0
M  V30 3234 O 296.392 -4.12549 -1.47428 0
M  V30 3235 C 297.893 -3.22777 -3.03858 0
M  V30 3236 H 295.113 -0.580896 -0.335858 0
M  V30 3237 H 297.657 -2.00167 -0.418728 0
M  V30 3238 H 295.812 -2.66489 -2.8118 0
M  V30 3239 H 296.226 -4.78009 -2.15887 0
M  V30 3240 H 297.7 -4.07927 -3.71887 0
M  V30 3241 H 298.177 -2.38329 -3.68912 0
M  V30 3242 H 298.783 -3.48787 -2.43367 0
M  V30 3243 N 297.098 0.621204 -1.44841 0
M  V30 3244 C 298.338 1.39201 -1.49674 0
M  V30 3245 C 298.702 1.91561 -0.129764 0
M  V30 3246 O 299.903 2.68748 -0.0527814 0
M  V30 3247 C 298.174 2.519 -2.53537 0
M  V30 3248 S 299.733 3.39916 -2.77494 0
M  V30 3249 H 296.551 0.474758 -0.529269 0
M  V30 3250 H 299.153 0.718171 -1.81831 0
M  V30 3251 H 297.857 2.11761 -3.51547 0
M  V30 3252 H 297.388 3.241 -2.22986 0
M  V30 3253 H 299.403 4.49646 -2.0984 0
M  V30 3254 N 298.576 1.31904 0.862503 0
M  V30 3255 C 299.523 1.20182 1.9704 0
M  V30 3256 C 300.493 0.0858247 1.65878 0
M  V30 3257 O 301.678 0.26 1.8902 0
M  V30 3258 C 298.818 0.922797 3.32533 0
M  V30 3259 C 297.931 2.12284 3.76244 0
M  V30 3260 C 297.066 1.77996 5.00491 0
M  V30 3261 C 296.105 2.94366 5.36671 0
M  V30 3262 N 295.242 2.60223 6.52095 0
M  V30 3263 H 300.082 2.14951 2.06398 0
M  V30 3264 H 297.619 1.06917 1.01031 0
M  V30 3265 H 299.577 0.741548 4.10557 0
M  V30 3266 H 298.207 0.0119227 3.22798 0
M  V30 3267 H 297.259 2.41461 2.9394 0
M  V30 3268 H 298.571 2.99357 3.98982 0
M  V30 3269 H 297.725 1.56377 5.862 0
M  V30 3270 H 296.464 0.881252 4.79672 0
M  V30 3271 H 295.469 3.16625 4.49476 0
M  V30 3272 H 296.694 3.84957 5.59451 0
M  V30 3273 H 294.64 1.72884 6.32809 0
M  V30 3274 H 294.557 3.40827 6.74814 0
M  V30 3275 H 295.825 2.42016 7.40978 0
M  V30 3276 N 300.054 -1.07777 1.14986 0
M  V30 3277 C 301.294 -1.81888 0.932527 0
M  V30 3278 C 301.658 -1.84509 -0.531064 0
M  V30 3279 O 302.859 -2.54448 -0.866577 0
M  V30 3280 C 301.13 -3.23244 1.52473 0
M  V30 3281 S 302.689 -4.14154 1.44989 0
M  V30 3282 H 299.507 -0.626752 0.335712 0
M  V30 3283 H 302.109 -1.29503 1.46455 0
M  V30 3284 H 300.813 -3.18922 2.58296 0
M  V30 3285 H 300.344 -3.80704 0.991381 0
M  V30 3286 H 302.359 -4.94247 0.439799 0
M  V30 3287 N 301.532 -0.945985 -1.26051 0
M  V30 3288 C 302.757 -0.612525 -1.98149 0
M  V30 3289 C 303.182 0.806623 -1.69927 0
M  V30 3290 O 302.54 1.54411 -0.950108 0
M  V30 3291 C 302.588 -0.866981 -3.50023 0
M  V30 3292 O 301.692 0.0585333 -4.12358 0
M  V30 3293 H 301.033 -0.23379 -0.621481 0
M  V30 3294 H 303.563 -1.27023 -1.60395 0
M  V30 3295 H 303.573 -0.789792 -4.00283 0
M  V30 3296 H 302.248 -1.90135 -3.69894 0
M  V30 3297 H 300.825 -0.0701241 -3.72834 0
M  V30 3298 N 303.011 1.40521 -0.713556 0
M  V30 3299 C 304.251 2.02783 -0.256584 0
M  V30 3300 C 304.615 1.55352 1.12827 0
M  V30 3301 O 305.816 2.09663 1.68211 0
M  V30 3302 C 304.087 3.5586 -0.331414 0
M  V30 3303 S 305.646 4.38773 0.0488703 0
M  V30 3304 H 302.464 0.703655 -0.101934 0
M  V30 3305 H 305.066 1.71674 -0.935325 0
M  V30 3306 H 303.77 3.87874 -1.34098 0
M  V30 3307 H 303.301 3.91695 0.365873 0
M  V30 3308 H 305.316 4.79633 1.2715 0
M  V30 3309 N 304.489 0.459591 1.5075 0
M  V30 3310 C 305.436 -0.340524 2.28274 0
M  V30 3311 C 306.406 -0.997371 1.32822 0
M  V30 3312 O 307.591 -1.01202 1.61749 0
M  V30 3313 C 304.731 -1.42317 3.14388 0
M  V30 3314 C 303.844 -0.782251 4.24859 0
M  V30 3315 C 302.979 -1.84182 4.98247 0
M  V30 3316 C 302.018 -1.18053 6.00608 0
M  V30 3317 N 301.155 -2.18244 6.67319 0
M  V30 3318 H 305.995 0.326899 2.96202 0
M  V30 3319 H 303.532 0.173057 1.46078 0
M  V30 3320 H 305.49 -2.06241 3.62658 0
M  V30 3321 H 304.12 -2.05992 2.4853 0
M  V30 3322 H 303.172 -0.0307404 3.80388 0
M  V30 3323 H 304.484 -0.259663 4.98124 0
M  V30 3324 H 303.638 -2.55714 5.50177 0
M  V30 3325 H 302.377 -2.39819 4.24662 0
M  V30 3326 H 301.382 -0.450776 5.47949 0
M  V30 3327 H 302.607 -0.631202 6.7616 0
M  V30 3328 H 300.553 -2.72919 5.96533 0
M  V30 3329 H 300.47 -1.70938 7.36421 0
M  V30 3330 H 301.738 -2.89191 7.23871 0
M  V30 3331 N 305.967 -1.56429 0.191757 0
M  V30 3332 C 306.915 -2.20273 -0.747174 0
M  V30 3333 C 307.909 -1.17288 -1.22229 0
M  V30 3334 O 309.115 -1.35441 -1.18557 0
M  V30 3335 H 305.49 -0.705885 -0.259289 0
M  V30 3336 H 307.461 -2.97826 -0.184963 0
M  V30 3337 C 306.21 -2.87356 -1.95759 0
M  V30 3338 H 305.533 -3.66341 -1.60106 0
M  V30 3339 H 306.973 -3.3547 -2.59299 0
M  V30 3340 C 305.432 -1.88213 -2.79423 0
M  V30 3341 O 305.962 -1.38033 -3.7724 0
M  V30 3342 N 304.168 -1.56516 -2.44849 0
M  V30 3343 H 303.715 -1.97516 -1.65364 0
M  V30 3344 H 303.673 -0.904369 -3.01112 0
M  V30 3345 N 307.445 0.0818655 -1.57387 0
M  V30 3346 C 308.673 0.796108 -1.9097 0
M  V30 3347 C 309.088 1.71626 -0.786757 0
M  V30 3348 O 308.445 1.80908 0.240513 0
M  V30 3349 C 308.496 1.59829 -3.24248 0
M  V30 3350 O 308.217 0.715131 -4.32224 0
M  V30 3351 C 309.718 2.41442 -3.7178 0
M  V30 3352 H 306.938 0.22691 -0.631469 0
M  V30 3353 H 309.482 0.0551439 -2.04426 0
M  V30 3354 H 307.637 2.29163 -3.12351 0
M  V30 3355 H 308.051 1.27205 -5.08841 0
M  V30 3356 H 309.525 2.932 -4.67694 0
M  V30 3357 H 310.002 3.2051 -3.00283 0
M  V30 3358 H 310.608 1.77283 -3.86589 0
M  V30 3359 N 308.923 1.53595 0.353017 0
M  V30 3360 C 310.2 1.61002 1.11075 0
M  V30 3361 C 310.58 0.425356 2.0677 0
M  V30 3362 O 309.928 -0.583267 2.2093 0
M  V30 3363 C 310.138 2.96631 1.83877 0
M  V30 3364 C 311.486 3.51653 2.37961 0
M  V30 3365 O 312.51 2.98743 1.93987 0
M  V30 3366 O 311.369 4.44177 3.18386 0
M  V30 3367 H 308.463 0.650825 0.510251 0
M  V30 3368 H 311.009 1.6594 0.35527 0
M  V30 3369 H 309.781 3.74293 1.14108 0
M  V30 3370 H 309.404 2.95242 2.66304 0
M  V30 3371 N 310.401 -0.613514 1.45168 0
M  V30 3372 C 311.626 -1.40437 1.52618 0
M  V30 3373 C 312.051 -1.87438 0.157707 0
M  V30 3374 O 311.409 -1.59791 -0.856537 0
M  V30 3375 C 311.457 -2.58894 2.51011 0
M  V30 3376 O 310.561 -3.59326 2.02382 0
M  V30 3377 H 309.902 -0.419506 0.514695 0
M  V30 3378 H 312.432 -0.747215 1.90467 0
M  V30 3379 H 312.442 -3.06214 2.69624 0
M  V30 3380 H 311.117 -2.24032 3.50403 0
M  V30 3381 H 309.694 -3.18695 1.93618 0
M  V30 3382 N 311.879 -1.3236 -0.855495 0
M  V30 3383 C 313.295 -1.11332 -1.14356 0
M  V30 3384 C 313.495 0.106751 -2.01217 0
M  V30 3385 O 312.551 0.791891 -2.39761 0
M  V30 3386 C 313.864 -2.39237 -1.82171 0
M  V30 3387 C 315.412 -2.44986 -1.9481 0
M  V30 3388 C 315.887 -3.7281 -2.66039 0
M  V30 3389 N 317.378 -3.73787 -2.73565 0
M  V30 3390 C 318.113 -4.69394 -3.29327 0
M  V30 3391 N 317.609 -5.75367 -3.85907 0
M  V30 3392 N 319.402 -4.56893 -3.27423 0
M  V30 3393 H 311.553 -2.10586 -0.277027 0
M  V30 3394 H 313.816 -0.929701 -0.185364 0
M  V30 3395 H 313.522 -3.28431 -1.25802 0
M  V30 3396 H 313.396 -2.50134 -2.82335 0
M  V30 3397 H 315.783 -1.56252 -2.50338 0
M  V30 3398 H 315.864 -2.38043 -0.936448 0
M  V30 3399 H 315.508 -4.61918 -2.11174 0
M  V30 3400 H 315.438 -3.77024 -3.67642 0
M  V30 3401 H 317.929 -2.97189 -2.33424 0
M  V30 3402 H 318.242 -6.44378 -4.26611 0
M  V30 3403 H 316.587 -5.79123 -3.84242 0
M  V30 3404 H 319.778 -3.73269 -2.82467 0
M  V30 3405 H 319.951 -5.31577 -3.7058 0
M  V30 3406 N 313.357 1.07166 -1.15556 0
M  V30 3407 C 314.597 1.81391 -0.94216 0
M  V30 3408 C 314.961 1.84788 0.521272 0
M  V30 3409 O 316.162 2.54904 0.85307 0
M  V30 3410 C 314.433 3.22431 -1.54185 0
M  V30 3411 S 315.992 4.13379 -1.47183 0
M  V30 3412 H 312.81 0.624963 -0.339031 0
M  V30 3413 H 315.412 1.28725 -1.4714 0
M  V30 3414 H 314.116 3.17548 -2.59984 0
M  V30 3415 H 313.647 3.80172 -1.01156 0
M  V30 3416 H 315.662 4.94007 -0.466004 0
M  V30 3417 N 314.835 0.952656 1.25548 0
M  V30 3418 C 315.782 0.47008 2.25962 0
M  V30 3419 C 316.752 -0.476384 1.59122 0
M  V30 3420 O 317.937 -0.39007 1.8677 0
M  V30 3421 C 315.077 -0.247881 3.44209 0
M  V30 3422 C 314.19 0.735591 4.25691 0
M  V30 3423 C 313.325 -0.0047306 5.312 0
M  V30 3424 C 312.364 0.969805 6.04368 0
M  V30 3425 N 311.501 0.260486 7.01617 0
M  V30 3426 H 316.341 1.33126 2.66611 0
M  V30 3427 H 313.878 0.66765 1.31076 0
M  V30 3428 H 315.836 -0.680695 4.1161 0
M  V30 3429 H 314.466 -1.07312 3.0444 0
M  V30 3430 H 313.518 1.28689 3.57971 0
M  V30 3431 H 314.83 1.47934 4.76358 0
M  V30 3432 H 313.984 -0.496275 6.04667 0
M  V30 3433 H 312.723 -0.781282 4.81401 0
M  V30 3434 H 311.728 1.47237 5.29718 0
M  V30 3435 H 312.953 1.74655 6.56256 0
M  V30 3436 H 310.899 -0.497364 6.54112 0
M  V30 3437 H 310.816 0.943362 7.50091 0
M  V30 3438 H 312.084 -0.209587 7.79218 0
M  V30 3439 N 316.313 -1.40141 0.720998 0
M  V30 3440 C 317.276 -2.29058 0.0805834 0
M  V30 3441 C 318.276 -1.45632 -0.681758 0
M  V30 3442 O 319.466 -1.6648 -0.512856 0
M  V30 3443 C 316.598 -3.28925 -0.895593 0
M  V30 3444 H 317.791 -2.87191 0.863793 0
M  V30 3445 H 315.344 -1.48553 0.485975 0
M  V30 3446 H 316.079 -2.75822 -1.70566 0
M  V30 3447 H 315.864 -3.90519 -0.351766 0
M  V30 3448 H 317.354 -3.95494 -1.34069 0
M  V30 3449 N 317.792 -0.46758 -1.50504 0
M  V30 3450 C 319.208 -0.121533 -1.59137 0
M  V30 3451 C 319.408 1.3717 -1.47603 0
M  V30 3452 O 318.464 2.14464 -1.33272 0
M  V30 3453 C 319.777 -0.6686 -2.93173 0
M  V30 3454 C 321.325 -0.631716 -3.06559 0
M  V30 3455 C 321.8 -1.15627 -4.43164 0
M  V30 3456 N 323.291 -1.11553 -4.49567 0
M  V30 3457 C 324.026 -1.49195 -5.5365 0
M  V30 3458 N 323.522 -1.94269 -6.65005 0
M  V30 3459 N 325.315 -1.4082 -5.44175 0
M  V30 3460 H 317.466 -1.4388 -1.56245 0
M  V30 3461 H 319.729 -0.594784 -0.738198 0
M  V30 3462 H 319.435 -1.71453 -3.07078 0
M  V30 3463 H 319.309 -0.11021 -3.77039 0
M  V30 3464 H 321.696 0.405297 -2.92304 0
M  V30 3465 H 321.777 -1.22687 -2.24458 0
M  V30 3466 H 321.421 -2.1919 -4.58168 0
M  V30 3467 H 321.351 -0.537365 -5.23851 0
M  V30 3468 H 323.842 -0.784895 -3.69659 0
M  V30 3469 H 324.155 -2.21148 -7.40482 0
M  V30 3470 H 322.5 -1.98219 -6.66134 0
M  V30 3471 H 325.691 -1.0545 -4.56068 0
M  V30 3472 H 325.864 -1.70481 -6.25172 0
M  V30 3473 N 319.27 1.56325 -0.20005 0
M  V30 3474 C 320.202 2.16555 0.750771 0
M  V30 3475 C 321.215 1.12871 1.1732 0
M  V30 3476 O 322.404 1.39943 1.10807 0
M  V30 3477 C 319.504 2.71684 2.02586 0
M  V30 3478 C 318.677 4.00321 1.76244 0
M  V30 3479 C 317.736 4.40227 2.88248 0
M  V30 3480 O 316.762 5.07552 2.57642 0
M  V30 3481 N 317.964 4.04138 4.16717 0
M  V30 3482 H 320.729 2.98772 0.235685 0
M  V30 3483 H 318.29 1.6189 -0.0182594 0
M  V30 3484 H 320.282 2.95363 2.76664 0
M  V30 3485 H 318.852 1.93893 2.45202 0
M  V30 3486 H 318.072 3.84723 0.85919 0
M  V30 3487 H 319.36 4.84279 1.56048 0
M  V30 3488 H 318.758 3.49993 4.44434 0
M  V30 3489 H 317.315 4.32756 4.87407 0
M  V30 3490 N 320.748 -0.0735177 1.57428 0
M  V30 3491 C 321.678 -1.0879 2.06608 0
M  V30 3492 C 322.659 -1.40473 0.959237 0
M  V30 3493 O 323.844 -1.5013 1.23185 0
M  V30 3494 C 320.974 -2.40183 2.50857 0
M  V30 3495 C 319.928 -2.22858 3.65402 0
M  V30 3496 C 319.254 -3.59619 3.957 0
M  V30 3497 C 320.554 -1.65123 4.95511 0
M  V30 3498 H 322.248 -0.678673 2.91607 0
M  V30 3499 H 319.794 -0.325013 1.40284 0
M  V30 3500 H 321.747 -3.11437 2.83874 0
M  V30 3501 H 320.471 -2.83083 1.62885 0
M  V30 3502 H 319.13 -1.54045 3.32664 0
M  V30 3503 H 318.778 -4.00086 3.04861 0
M  V30 3504 H 318.478 -3.48866 4.72828 0
M  V30 3505 H 320.002 -4.32306 4.31212 0
M  V30 3506 H 321.416 -2.26241 5.26771 0
M  V30 3507 H 319.813 -1.65071 5.7695 0
M  V30 3508 H 320.883 -0.612559 4.81015 0
M  V30 3509 N 322.226 -1.5378 -0.344866 0
M  V30 3510 C 323.136 -1.84667 -1.4469 0
M  V30 3511 C 324.152 -0.736704 -1.57635 0
M  V30 3512 O 325.328 -1.02888 -1.73136 0
M  V30 3513 C 322.393 -2.04869 -2.79696 0
M  V30 3514 C 321.454 -3.28731 -2.76106 0
M  V30 3515 C 320.687 -3.4796 -4.04673 0
M  V30 3516 O 320.91 -2.71052 -5.01883 0
M  V30 3517 O 319.844 -4.41383 -4.09224 0
M  V30 3518 H 323.67 -2.78334 -1.21506 0
M  V30 3519 H 321.255 -1.39418 -0.536921 0
M  V30 3520 H 323.137 -2.19609 -3.59652 0
M  V30 3521 H 321.812 -1.14391 -3.02814 0
M  V30 3522 H 320.719 -3.19396 -1.94774 0
M  V30 3523 H 322.052 -4.19198 -2.57941 0
M  V30 3524 N 323.704 0.605807 -1.45491 0
M  V30 3525 C 324.634 1.72709 -1.57143 0
M  V30 3526 C 325.615 1.6476 -0.422884 0
M  V30 3527 O 326.8 1.83132 -0.646247 0
M  V30 3528 C 323.93 3.11316 -1.53948 0
M  V30 3529 C 322.884 3.34077 -2.67537 0
M  V30 3530 C 322.21 4.72975 -2.49397 0
M  V30 3531 C 323.51 3.24158 -4.09535 0
M  V30 3532 H 325.204 1.63214 -2.51001 0
M  V30 3533 H 322.75 0.78379 -1.208 0
M  V30 3534 H 324.703 3.89557 -1.60696 0
M  V30 3535 H 323.427 3.21655 -0.566205 0
M  V30 3536 H 322.086 2.58227 -2.6022 0
M  V30 3537 H 321.734 4.8005 -1.50205 0
M  V30 3538 H 321.434 4.8916 -3.25571 0
M  V30 3539 H 322.958 5.53414 -2.58002 0
M  V30 3540 H 324.372 3.92271 -4.18086 0
M  V30 3541 H 322.769 3.51872 -4.86113 0
M  V30 3542 H 323.839 2.2157 -4.31317 0
M  V30 3543 N 325.182 1.32811 0.848464 0
M  V30 3544 C 326.13 1.22231 1.97895 0
M  V30 3545 C 327.124 0.125749 1.68933 0
M  V30 3546 O 328.33 0.289083 1.77663 0
M  V30 3547 H 324.705 0.379058 0.649476 0
M  V30 3548 H 326.676 2.17828 2.03945 0
M  V30 3549 C 325.425 0.968572 3.33937 0
M  V30 3550 H 324.748 1.80458 3.56756 0
M  V30 3551 H 326.188 0.934808 4.13567 0
M  V30 3552 C 324.647 -0.328628 3.35293 0
M  V30 3553 O 325.177 -1.33848 3.78745 0
M  V30 3554 N 323.383 -0.352788 2.88451 0
M  V30 3555 H 322.93 0.469541 2.53285 0
M  V30 3556 H 322.888 -1.22057 2.89741 0
M  V30 3557 N 326.66 -1.06551 1.16123 0
M  V30 3558 C 327.57 -2.17484 0.879662 0
M  V30 3559 C 328.586 -1.73377 -0.147104 0
M  V30 3560 O 329.762 -2.01379 0.0289128 0
M  V30 3561 C 326.827 -3.44591 0.381829 0
M  V30 3562 C 325.888 -4.0322 1.4735 0
M  V30 3563 C 325.121 -5.24261 0.999324 0
M  V30 3564 O 325.344 -5.70198 -0.151957 0
M  V30 3565 O 324.278 -5.74775 1.78653 0
M  V30 3566 H 328.104 -2.44075 1.80724 0
M  V30 3567 H 325.689 -1.16042 0.940992 0
M  V30 3568 H 327.571 -4.21254 0.111053 0
M  V30 3569 H 326.246 -3.19532 -0.51777 0
M  V30 3570 H 325.153 -3.2806 1.79798 0
M  V30 3571 H 326.486 -4.32568 2.34831 0
M  V30 3572 N 328.138 -0.959301 -1.25041 0
M  V30 3573 C 329.554 -0.664474 -1.4511 0
M  V30 3574 C 329.754 0.776481 -1.85938 0
M  V30 3575 O 328.81 1.55128 -1.99227 0
M  V30 3576 C 330.123 -1.64139 -2.5195 0
M  V30 3577 C 331.671 -1.65309 -2.65786 0
M  V30 3578 C 332.146 -2.61777 -3.75815 0
M  V30 3579 N 333.637 -2.60169 -3.83231 0
M  V30 3580 C 334.372 -3.31489 -4.6787 0
M  V30 3581 N 333.868 -4.12298 -5.56761 0
M  V30 3582 N 335.661 -3.20354 -4.61876 0
M  V30 3583 H 327.812 -1.89043 -0.968332 0
M  V30 3584 H 330.075 -0.813408 -0.4869 0
M  V30 3585 H 329.781 -2.67086 -2.28819 0
M  V30 3586 H 329.655 -1.40756 -3.49954 0
M  V30 3587 H 332.042 -0.630778 -2.8828 0
M  V30 3588 H 332.123 -1.92753 -1.68167 0
M  V30 3589 H 331.767 -3.64137 -3.54071 0
M  V30 3590 H 331.697 -2.31616 -4.72929 0
M  V30 3591 H 334.188 -2.01507 -3.19692 0
M  V30 3592 H 334.501 -4.63625 -6.18281 0
M  V30 3593 H 332.846 -4.16395 -5.56454 0
M  V30 3594 H 336.037 -2.56692 -3.91442 0
M  V30 3595 H 336.21 -3.76201 -5.27614 0
M  V30 3596 N 329.616 1.39756 -0.72842 0
M  V30 3597 C 330.844 2.04948 -0.283528 0
M  V30 3598 C 331.259 1.54908 1.0793 0
M  V30 3599 O 330.616 0.711135 1.68075 0
M  V30 3600 C 330.667 3.60498 -0.268957 0
M  V30 3601 O 330.388 4.08695 -1.57798 0
M  V30 3602 C 331.889 4.4288 0.192912 0
M  V30 3603 H 329.109 0.659243 -0.125056 0
M  V30 3604 H 331.653 1.78927 -0.990226 0
M  V30 3605 H 329.808 3.85444 0.388801 0
M  V30 3606 H 330.222 5.02977 -1.48709 0
M  V30 3607 H 331.696 5.51791 0.151952 0
M  V30 3608 H 332.173 4.21418 1.23708 0
M  V30 3609 H 332.779 4.23069 -0.435039 0
M  V30 3610 N 331.094 0.475555 1.50254 0
M  V30 3611 C 332.334 -0.0765802 2.04256 0
M  V30 3612 C 332.698 -1.36587 1.34937 0
M  V30 3613 O 333.899 -2.00066 1.79519 0
M  V30 3614 C 332.17 -0.251668 3.56513 0
M  V30 3615 S 333.729 -0.761716 4.32138 0
M  V30 3616 H 330.547 -0.0138456 0.710865 0
M  V30 3617 H 333.149 0.643714 1.84598 0
M  V30 3618 H 331.853 0.692404 4.04517 0
M  V30 3619 H 331.384 -0.997946 3.80532 0
M  V30 3620 H 333.399 -2.03451 4.52573 0
M  V30 3621 N 332.573 -1.56217 0.208337 0
M  V30 3622 C 333.989 -1.58919 -0.14729 0
M  V30 3623 C 334.189 -1.22486 -1.59998 0
M  V30 3624 O 333.245 -0.953849 -2.3379 0
M  V30 3625 C 334.558 -3.00236 0.167048 0
M  V30 3626 C 336.106 -3.12813 0.108219 0
M  V30 3627 C 336.581 -4.56284 0.396049 0
M  V30 3628 N 338.072 -4.61912 0.345142 0
M  V30 3629 C 338.807 -5.70837 0.541523 0
M  V30 3630 N 338.303 -6.88178 0.798968 0
M  V30 3631 N 340.096 -5.60091 0.474867 0
M  V30 3632 H 332.247 -1.78177 1.15614 0
M  V30 3633 H 334.51 -0.827555 0.462446 0
M  V30 3634 H 334.216 -3.31499 1.1748 0
M  V30 3635 H 334.09 -3.7354 -0.524184 0
M  V30 3636 H 336.477 -2.81354 -0.890157 0
M  V30 3637 H 336.558 -2.41866 0.832729 0
M  V30 3638 H 336.202 -4.88458 1.3918 0
M  V30 3639 H 336.132 -5.25439 -0.349502 0
M  V30 3640 H 338.623 -3.77589 0.153316 0
M  V30 3641 H 338.936 -7.67095 0.93727 0
M  V30 3642 H 337.281 -6.89953 0.836013 0
M  V30 3643 H 340.472 -4.67297 0.274064 0
M  V30 3644 H 340.645 -6.44917 0.631326 0
M  V30 3645 N 334.051 0.0651679 -1.57465 0
M  V30 3646 C 335.291 0.768329 -1.8941 0
M  V30 3647 C 335.655 1.74406 -0.802894 0
M  V30 3648 O 336.856 2.49281 -1.0056 0
M  V30 3649 C 335.127 1.45199 -3.26576 0
M  V30 3650 S 336.686 2.1893 -3.80283 0
M  V30 3651 H 333.504 0.255359 -0.663561 0
M  V30 3652 H 336.106 0.024167 -1.95485 0
M  V30 3653 H 334.81 0.728123 -4.03889 0
M  V30 3654 H 334.341 2.23545 -3.23715 0
M  V30 3655 H 336.356 3.45551 -3.56102 0
M  V30 3656 N 335.529 1.53961 0.336706 0
M  V30 3657 C 336.806 1.62171 1.09361 0
M  V30 3658 C 337.186 0.447263 2.06307 0
M  V30 3659 O 336.534 -0.559802 2.21537 0
M  V30 3660 C 336.744 2.98565 1.80721 0
M  V30 3661 C 338.092 3.54157 2.34218 0
M  V30 3662 O 339.116 3.00784 1.90807 0
M  V30 3663 O 337.975 4.47528 3.13657 0
M  V30 3664 H 335.069 0.6562 0.503319 0
M  V30 3665 H 337.615 1.66307 0.33765 0
M  V30 3666 H 336.387 3.75482 1.10132 0
M  V30 3667 H 336.01 2.9805 2.63158 0
M  V30 3668 N 337.007 -0.598083 1.45811 0
M  V30 3669 C 337.954 -1.7082 1.55207 0
M  V30 3670 C 338.924 -1.61278 0.39732 0
M  V30 3671 O 340.109 -1.80717 0.612038 0
M  V30 3672 C 337.249 -3.09144 1.53376 0
M  V30 3673 C 336.362 -3.29423 2.79472 0
M  V30 3674 C 335.497 -4.57907 2.69248 0
M  V30 3675 C 334.536 -4.71476 3.90354 0
M  V30 3676 N 333.673 -5.9127 3.78608 0
M  V30 3677 H 338.513 -1.62125 2.50039 0
M  V30 3678 H 336.05 -0.790389 1.24062 0
M  V30 3679 H 338.008 -3.89186 1.50301 0
M  V30 3680 H 336.638 -3.16773 0.620876 0
M  V30 3681 H 335.69 -2.43091 2.92594 0
M  V30 3682 H 337.002 -3.3532 3.69272 0
M  V30 3683 H 336.156 -5.46157 2.64192 0
M  V30 3684 H 334.895 -4.54423 1.77063 0
M  V30 3685 H 333.9 -3.81648 3.95759 0
M  V30 3686 H 335.125 -4.76751 4.83617 0
M  V30 3687 H 333.071 -5.88813 2.89199 0
M  V30 3688 H 332.988 -5.98369 4.6205 0
M  V30 3689 H 334.256 -6.81992 3.77501 0
M  V30 3690 N 338.485 -1.33259 -0.841409 0
M  V30 3691 C 339.896 -1.22066 -1.41269 0
M  V30 3692 C 340.247 0.161479 -1.95534 0
M  V30 3693 O 339.372 1.06094 -1.88608 0
M  V30 3694 C 339.967 -2.20996 -2.568 0
M  V30 3695 C 338.526 -2.13649 -3.09888 0
M  V30 3696 C 337.673 -2.08623 -1.82679 0
M  V30 3697 H 340.624 -1.44895 -0.647395 0
M  V30 3698 H 340.645 -1.81621 -3.34356 0
M  V30 3699 H 340.157 -3.2158 -2.17274 0
M  V30 3700 H 338.258 -1.16359 -3.53965 0
M  V30 3701 H 338.371 -3.04079 -3.70234 0
M  V30 3702 H 336.735 -1.54061 -2.02824 0
M  V30 3703 H 337.518 -3.1101 -1.45353 0
M  V30 3704 N 339.963 1.05934 -1.16686 0
M  V30 3705 C 341.379 1.30938 -0.912542 0
M  V30 3706 C 341.579 1.96803 0.432533 0
M  V30 3707 O 340.635 2.23693 1.17123 0
M  V30 3708 C 341.948 2.18649 -2.06429 0
M  V30 3709 C 343.496 2.32055 -2.10047 0
M  V30 3710 C 343.971 3.23122 -3.24586 0
M  V30 3711 N 345.462 3.30706 -3.24327 0
M  V30 3712 C 346.197 4.01273 -4.09594 0
M  V30 3713 N 345.693 4.74332 -5.04956 0
M  V30 3714 N 347.486 3.97361 -3.97569 0
M  V30 3715 H 339.637 0.615777 -2.03278 0
M  V30 3716 H 341.9 0.334077 -0.887185 0
M  V30 3717 H 341.606 1.77534 -3.03603 0
M  V30 3718 H 341.48 3.19252 -2.00894 0
M  V30 3719 H 343.867 2.72415 -1.13464 0
M  V30 3720 H 343.948 1.31107 -2.19647 0
M  V30 3721 H 343.592 2.83477 -4.2143 0
M  V30 3722 H 343.522 4.24057 -3.12223 0
M  V30 3723 H 346.013 2.78644 -2.55276 0
M  V30 3724 H 346.326 5.25716 -5.6643 0
M  V30 3725 H 344.671 4.733 -5.08933 0
M  V30 3726 H 347.862 3.39405 -3.22369 0
M  V30 3727 H 348.035 4.52089 -4.64241 0
M  V30 3728 N 341.441 0.965919 1.2453 0
M  V30 3729 C 342.857 0.67216 1.44756 0
M  V30 3730 C 343.057 -0.766609 1.86347 0
M  V30 3731 O 342.113 -1.5407 2.00047 0
M  V30 3732 C 343.426 1.65473 2.51076 0
M  V30 3733 C 344.974 1.66716 2.64905 0
M  V30 3734 C 345.449 2.63766 3.74421 0
M  V30 3735 N 346.94 2.62198 3.81846 0
M  V30 3736 C 347.675 3.33966 4.66106 0
M  V30 3737 N 347.171 4.15245 5.54566 0
M  V30 3738 N 348.964 3.22799 4.60171 0
M  V30 3739 H 341.115 1.89553 0.958293 0
M  V30 3740 H 343.378 0.815979 0.482579 0
M  V30 3741 H 343.084 2.68296 2.27399 0
M  V30 3742 H 342.958 1.4261 3.49202 0
M  V30 3743 H 345.345 0.646057 2.87941 0
M  V30 3744 H 345.426 1.93642 1.67142 0
M  V30 3745 H 345.07 3.6601 3.52135 0
M  V30 3746 H 345 2.34121 4.71694 0
M  V30 3747 H 347.491 2.032 3.18619 0
M  V30 3748 H 347.804 4.66898 6.15814 0
M  V30 3749 H 346.149 4.1934 5.54237 0
M  V30 3750 H 349.34 2.58764 3.90075 0
M  V30 3751 H 349.513 3.78994 5.25612 0
M  V30 3752 O 342.958 -1.35835 0.873561 0
M  V30 3753 H 343.649 -1.87797 0.474551 0
M  V30 END ATOM
M  V30 BEGIN BOND
M  V30 END BOND
M  V30 END CTAB
M  END
$$$$
