drugbank_target|P02941 Methyl-accepting chemotaxis protein II (DB02365)
 OpenBabel12092119543D

  0  0  0     0  0            999 V3000
M  V30 BEGIN CTAB
M  V30 COUNTS 8330 8374 0 0 0
M  V30 BEGIN ATOM
M  V30 1 H -0.908 1.98254 -0.117106 0
M  V30 2 N 0 1.576 0 0
M  V30 3 C 0.933 2.03868 1.02534 0
M  V30 4 C 1.911 0.928543 1.3348 0
M  V30 5 O 3.095 1.19667 1.45644 0
M  V30 6 C 0.222 2.43627 2.35294 0
M  V30 7 C -0.732 3.65373 2.2001 0
M  V30 8 S 0.101 5.13292 1.52614 0
M  V30 9 C 1.257 5.56322 2.86805 0
M  V30 10 H 1.49 2.90518 0.631377 0
M  V30 11 H -0.977 1.52953 0.210867 0
M  V30 12 H 0.981 2.67203 3.11629 0
M  V30 13 H -0.358 1.57376 2.7183 0
M  V30 14 H -1.165 3.90944 3.18086 0
M  V30 15 H -1.563 3.418 1.51819 0
M  V30 16 H 0.729 5.58782 3.83104 0
M  V30 17 H 1.672 6.56266 2.65933 0
M  V30 18 H 2.08 4.83886 2.90714 0
M  V30 19 N 1.4781 -0.272755 1.55222 0
M  V30 20 C 2.7251 -1.00433 1.7584 0
M  V30 21 C 3.0531 -1.86275 0.559629 0
M  V30 22 O 2.3081 -1.90269 -0.457857 0
M  V30 23 C 2.6071 -1.91642 3.01675 0
M  V30 24 C 2.2731 -1.21548 4.34208 0
M  V30 25 C 0.9351 -1.02166 4.70229 0
M  V30 26 C 3.2871 -0.716684 5.16249 0
M  V30 27 C 0.6151 -0.316334 5.85847 0
M  V30 28 C 2.9671 -0.0249476 6.32595 0
M  V30 29 C 1.6311 0.180579 6.67256 0
M  V30 30 H 0.9011 -0.367509 0.643443 0
M  V30 31 H 3.5481 -0.276596 1.89492 0
M  V30 32 H 1.8531 -2.71037 2.82924 0
M  V30 33 H 3.5501 -2.48369 3.14824 0
M  V30 34 H 0.1401 -1.37645 4.05896 0
M  V30 35 H 4.3241 -0.854047 4.88896 0
M  V30 36 H -0.4199 -0.146378 6.11225 0
M  V30 37 H 3.7541 0.369311 6.9542 0
M  V30 38 H 1.3811 0.729098 7.56696 0
M  V30 39 N 2.9562 -1.48159 -0.537278 0
M  V30 40 C 3.9042 -1.62573 -1.66352 0
M  V30 41 C 4.8982 -0.492366 -1.62087 0
M  V30 42 O 6.1042 -0.670847 -1.67032 0
M  V30 43 H 2.4792 -0.511992 -0.550789 0
M  V30 44 H 4.4502 -2.57176 -1.51337 0
M  V30 45 C 3.1992 -1.67583 -3.04649 0
M  V30 46 H 2.5222 -2.54151 -3.08622 0
M  V30 47 H 3.9622 -1.81713 -3.83088 0
M  V30 48 C 2.4212 -0.413039 -3.34358 0
M  V30 49 O 2.9512 0.477259 -3.98855 0
M  V30 50 N 1.1572 -0.286961 -2.8918 0
M  V30 51 H 0.7042 -1.01241 -2.36871 0
M  V30 52 H 0.6622 0.556963 -3.09427 0
M  V30 53 N 4.4343 0.785586 -1.36625 0
M  V30 54 C 5.8503 1.08419 -1.17122 0
M  V30 55 C 6.0503 2.015 0.00208491 0
M  V30 56 O 5.1063 2.43551 0.666278 0
M  V30 57 C 6.4193 1.69498 -2.48377 0
M  V30 58 C 7.9673 1.81821 -2.54775 0
M  V30 59 C 8.4423 2.46315 -3.86126 0
M  V30 60 N 9.9333 2.53779 -3.87492 0
M  V30 61 C 10.6683 3.045 -4.85868 0
M  V30 62 N 10.1643 3.55499 -5.94637 0
M  V30 63 N 11.9573 3.03247 -4.73284 0
M  V30 64 H 4.1083 0.167264 -2.1174 0
M  V30 65 H 6.3713 0.13682 -0.938075 0
M  V30 66 H 6.0773 1.08571 -3.34522 0
M  V30 67 H 5.9513 2.6896 -2.64462 0
M  V30 68 H 8.3383 2.41884 -1.69045 0
M  V30 69 H 8.4193 0.811532 -2.42586 0
M  V30 70 H 8.0633 1.86895 -4.72263 0
M  V30 71 H 7.9933 3.47561 -3.95612 0
M  V30 72 H 10.4843 2.17672 -3.08913 0
M  V30 73 H 10.7973 3.92562 -6.65669 0
M  V30 74 H 9.1423 3.5364 -5.98301 0
M  V30 75 H 12.3333 2.62696 -3.87438 0
M  V30 76 H 12.5063 3.42467 -5.50109 0
M  V30 77 N 5.9124 1.20967 1.01018 0
M  V30 78 C 7.1614 1.01796 1.74128 0
M  V30 79 C 7.4744 -0.449691 1.90361 0
M  V30 80 O 8.6804 -0.76068 2.60626 0
M  V30 81 C 7.1364 1.7727 3.13215 0
M  V30 82 C 6.7444 3.28171 3.04972 0
M  V30 83 C 8.4884 1.66489 3.90489 0
M  V30 84 C 6.3954 3.96156 4.39107 0
M  V30 85 H 5.3254 0.377276 0.652824 0
M  V30 86 H 7.9764 1.44651 1.12909 0
M  V30 87 H 6.3584 1.27205 3.75013 0
M  V30 88 H 7.5324 3.85499 2.52443 0
M  V30 89 H 5.8474 3.39437 2.41188 0
M  V30 90 H 8.4444 2.14617 4.89738 0
M  V30 91 H 8.7874 0.6222 4.11624 0
M  V30 92 H 9.3204 2.14003 3.35332 0
M  V30 93 H 6.0594 5.00604 4.23174 0
M  V30 94 H 5.5794 3.43617 4.91617 0
M  V30 95 H 7.2584 4.00774 5.07926 0
M  V30 96 N 7.3905 -1.2043 1.01659 0
M  V30 97 C 8.8065 -1.41852 0.731442 0
M  V30 98 C 9.0065 -1.89358 -0.688898 0
M  V30 99 O 8.0625 -2.06247 -1.45666 0
M  V30 100 C 9.3755 -2.44019 1.75714 0
M  V30 101 C 10.9235 -2.57785 1.77527 0
M  V30 102 C 11.3985 -3.63194 2.79023 0
M  V30 103 N 12.8895 -3.70678 2.77763 0
M  V30 104 C 13.6245 -4.51897 3.52954 0
M  V30 105 N 13.1205 -5.36921 4.37821 0
M  V30 106 N 14.9135 -4.4643 3.41551 0
M  V30 107 H 7.0645 -0.879093 1.93354 0
M  V30 108 H 9.3275 -0.448425 0.835236 0
M  V30 109 H 9.0335 -2.1611 2.77469 0
M  V30 110 H 8.9075 -3.43007 1.56927 0
M  V30 111 H 11.2945 -2.85023 0.764569 0
M  V30 112 H 11.3755 -1.58992 2.00387 0
M  V30 113 H 11.0195 -3.36699 3.80258 0
M  V30 114 H 10.9495 -4.61609 2.53425 0
M  V30 115 H 13.4405 -3.09944 2.16201 0
M  V30 116 H 13.7535 -5.95981 4.91962 0
M  V30 117 H 12.0985 -5.36424 4.41899 0
M  V30 118 H 15.2895 -3.79042 2.74672 0
M  V30 119 H 15.4625 -5.09491 4.00404 0
M  V30 120 N 8.8686 -0.792821 -1.36206 0
M  V30 121 C 10.1146 -0.36733 -1.99446 0
M  V30 122 C 10.4476 1.05917 -1.62774 0
M  V30 123 O 9.7226 1.7324 -0.88421 0
M  V30 124 C 10.0056 -0.535044 -3.56103 0
M  V30 125 C 9.8586 -2.00548 -4.02617 0
M  V30 126 C 11.1776 0.0478191 -4.40074 0
M  V30 127 H 8.2966 -0.134941 -0.724541 0
M  V30 128 H 10.9386 -0.999794 -1.61568 0
M  V30 129 H 9.0886 0.00336329 -3.885 0
M  V30 130 H 10.7606 -2.60521 -3.80692 0
M  V30 131 H 9.0036 -2.50686 -3.54032 0
M  V30 132 H 9.6746 -2.07377 -5.11565 0
M  V30 133 H 12.1506 -0.411822 -4.14057 0
M  V30 134 H 11.0266 -0.0995336 -5.4881 0
M  V30 135 H 11.2876 1.14025 -4.27142 0
M  V30 136 N 10.3467 1.47872 -0.545128 0
M  V30 137 C 11.5927 2.02793 -0.0166104 0
M  V30 138 C 11.9257 1.41987 1.32489 0
M  V30 139 O 11.2007 0.571045 1.85928 0
M  V30 140 C 11.4837 3.59989 0.0893294 0
M  V30 141 C 11.3367 4.3125 -1.27841 0
M  V30 142 C 12.6557 4.32606 0.808724 0
M  V30 143 H 9.7747 0.736962 -0.00751035 0
M  V30 144 H 12.4167 1.76433 -0.705085 0
M  V30 145 H 10.5667 3.82579 0.675681 0
M  V30 146 H 12.2387 4.20035 -1.90704 0
M  V30 147 H 10.4817 3.92076 -1.85632 0
M  V30 148 H 11.1527 5.39736 -1.15713 0
M  V30 149 H 13.6287 4.14936 0.310992 0
M  V30 150 H 12.5047 5.42251 0.851782 0
M  V30 151 H 12.7657 4.00963 1.86229 0
M  V30 152 N 11.8248 0.280983 1.55075 0
M  V30 153 C 13.0528 -0.337293 2.04132 0
M  V30 154 C 13.4678 -1.4903 1.15912 0
M  V30 155 O 12.8248 -1.81606 0.180459 0
M  V30 156 C 12.8758 -0.812706 3.52246 0
M  V30 157 O 12.5968 0.294387 4.3711 0
M  V30 158 C 14.0978 -1.4982 4.17216 0
M  V30 159 H 11.3178 -0.0761638 0.666663 0
M  V30 160 H 13.8618 0.414787 2.00249 0
M  V30 161 H 12.0168 -1.51486 3.56554 0
M  V30 162 H 12.4308 -0.0721325 5.2445 0
M  V30 163 H 13.9048 -1.7822 5.22438 0
M  V30 164 H 14.3818 -2.43168 3.65741 0
M  V30 165 H 14.9878 -0.839742 4.16927 0
M  V30 166 N 13.3029 -1.57598 0.00835791 0
M  V30 167 C 14.2359 -2.04409 -1.01451 0
M  V30 168 C 15.2139 -0.935609 -1.32985 0
M  V30 169 O 16.3979 -1.20437 -1.45007 0
M  V30 170 C 13.5249 -2.44872 -2.33999 0
M  V30 171 C 12.5709 -3.66535 -2.18069 0
M  V30 172 S 13.4039 -5.14095 -1.4989 0
M  V30 173 C 14.5599 -5.57835 -2.8385 0
M  V30 174 H 14.7929 -2.90849 -0.615961 0
M  V30 175 H 12.3259 -1.53063 -0.202752 0
M  V30 176 H 14.2839 -2.68852 -3.10208 0
M  V30 177 H 12.9449 -1.58815 -2.70992 0
M  V30 178 H 12.1379 -3.92626 -3.16008 0
M  V30 179 H 11.7399 -3.426 -1.50004 0
M  V30 180 H 14.0319 -5.60806 -3.80136 0
M  V30 181 H 14.9749 -6.57667 -2.62449 0
M  V30 182 H 15.3829 -4.85421 -2.88144 0
M  V30 183 N 14.781 0.264519 -1.55364 0
M  V30 184 C 15.711 1.33121 -1.91836 0
M  V30 185 C 16.692 1.51101 -0.781192 0
M  V30 186 O 17.877 1.64003 -1.04003 0
M  V30 187 C 15.007 2.68921 -2.19769 0
M  V30 188 C 13.961 2.65661 -3.35571 0
M  V30 189 C 13.287 4.05093 -3.49004 0
M  V30 190 C 14.587 2.24187 -4.71739 0
M  V30 191 H 16.281 1.02844 -2.81182 0
M  V30 192 H 13.827 0.493286 -1.35287 0
M  V30 193 H 15.78 3.43663 -2.43872 0
M  V30 194 H 14.504 3.00799 -1.27231 0
M  V30 195 H 13.163 1.93377 -3.1145 0
M  V30 196 H 12.811 4.34206 -2.53917 0
M  V30 197 H 12.511 4.03804 -4.26868 0
M  V30 198 H 14.035 4.81561 -3.75408 0
M  V30 199 H 15.449 2.88654 -4.9533 0
M  V30 200 H 13.846 2.34044 -5.52579 0
M  V30 201 H 14.916 1.19327 -4.69988 0
M  V30 202 N 16.2591 1.48442 0.529413 0
M  V30 203 C 17.1921 1.57577 1.65059 0
M  V30 204 C 18.1701 0.426198 1.56915 0
M  V30 205 O 19.3541 0.637877 1.77379 0
M  V30 206 C 16.4811 1.5043 3.03461 0
M  V30 207 C 15.5271 2.70235 3.29962 0
M  V30 208 S 16.3601 4.32198 3.16172 0
M  V30 209 C 17.5161 4.2765 4.57019 0
M  V30 210 H 17.7491 2.52427 1.5706 0
M  V30 211 H 15.2821 1.36982 0.712417 0
M  V30 212 H 17.2401 1.46992 3.8328 0
M  V30 213 H 15.9011 0.569167 3.089 0
M  V30 214 H 15.0941 2.61374 4.30929 0
M  V30 215 H 14.6961 2.70938 2.57815 0
M  V30 216 H 16.9881 3.97618 5.48549 0
M  V30 217 H 17.9311 5.28797 4.70934 0
M  V30 218 H 18.3391 3.5811 4.36368 0
M  V30 219 N 17.7372 -0.778329 1.37039 0
M  V30 220 C 18.6702 -1.8984 1.26633 0
M  V30 221 C 19.6482 -1.61923 0.148197 0
M  V30 222 O 20.8322 -1.85742 0.321265 0
M  V30 223 C 17.9592 -3.24916 0.956403 0
M  V30 224 C 17.0052 -3.71752 2.09051 0
M  V30 225 S 17.8382 -3.86201 3.70957 0
M  V30 226 C 18.9942 -5.24135 3.42101 0
M  V30 227 H 19.2272 -1.98377 2.21436 0
M  V30 228 H 16.7602 -0.938738 1.22585 0
M  V30 229 H 18.7182 -4.02936 0.784409 0
M  V30 230 H 17.3792 -3.14089 0.0259713 0
M  V30 231 H 16.5722 -4.69661 1.8285 0
M  V30 232 H 16.1742 -3.00815 2.2223 0
M  V30 233 H 18.4662 -6.09086 2.96682 0
M  V30 234 H 19.4092 -5.55346 4.39314 0
M  V30 235 H 19.8172 -4.91761 2.77185 0
M  V30 236 N 19.2153 -1.21501 -1.00376 0
M  V30 237 C 20.4613 -1.03452 -1.74429 0
M  V30 238 C 20.7943 0.430764 -1.89362 0
M  V30 239 O 20.0693 1.31962 -1.42886 0
M  V30 240 C 20.3523 -1.73375 -3.15615 0
M  V30 241 C 20.2053 -3.27431 -3.08397 0
M  V30 242 C 21.5243 -1.47732 -4.14564 0
M  V30 243 H 18.6433 -0.377226 -0.633143 0
M  V30 244 H 21.2853 -1.49693 -1.17013 0
M  V30 245 H 19.4353 -1.34064 -3.64636 0
M  V30 246 H 21.1073 -3.76119 -2.67081 0
M  V30 247 H 19.3503 -3.5767 -2.45468 0
M  V30 248 H 20.0213 -3.71524 -4.08258 0
M  V30 249 H 22.4973 -1.8186 -3.74254 0
M  V30 250 H 21.3733 -1.99169 -5.11491 0
M  V30 251 H 21.6343 -0.407589 -4.40217 0
M  V30 252 N 20.6934 1.19889 -1.02296 0
M  V30 253 C 21.6234 2.25141 -0.619174 0
M  V30 254 C 22.6044 1.66051 0.368915 0
M  V30 255 O 23.7894 1.92546 0.252941 0
M  V30 256 C 20.9194 3.4728 0.0368783 0
M  V30 257 C 19.8734 4.19005 -0.872865 0
M  V30 258 C 19.1994 5.34637 -0.0822402 0
M  V30 259 C 20.4994 4.74452 -2.18387 0
M  V30 260 H 22.1934 2.59171 -1.49903 0
M  V30 261 H 19.7394 1.24579 -0.722222 0
M  V30 262 H 21.6924 4.20098 0.330958 0
M  V30 263 H 20.4164 3.12433 0.95149 0
M  V30 264 H 19.0754 3.48061 -1.15105 0
M  V30 265 H 18.7234 4.96034 0.83422 0
M  V30 266 H 18.4234 5.83557 -0.688149 0
M  V30 267 H 19.9474 6.10255 0.205238 0
M  V30 268 H 21.3614 5.39055 -1.95172 0
M  V30 269 H 19.7584 5.33834 -2.74119 0
M  V30 270 H 20.8284 3.92844 -2.84257 0
M  V30 271 N 22.1715 0.800033 1.35784 0
M  V30 272 C 23.4195 0.376597 1.9856 0
M  V30 273 C 23.7405 -1.05812 1.63795 0
M  V30 274 O 23.0105 -1.73103 0.917171 0
M  V30 275 H 21.5905 0.136261 0.734467 0
M  V30 276 H 24.2525 1.02442 1.65806 0
M  V30 277 H 23.3485 0.477002 3.08433 0
M  V30 278 N 23.6496 -1.47581 0.552962 0
M  V30 279 C 24.8956 -2.02782 0.0273648 0
M  V30 280 C 25.2286 -1.42687 -1.31734 0
M  V30 281 O 24.5036 -0.580897 -1.85623 0
M  V30 282 C 24.7866 -3.60031 -0.0702371 0
M  V30 283 C 24.6396 -4.30566 1.30126 0
M  V30 284 C 25.9586 -4.33028 -0.785771 0
M  V30 285 H 23.0776 -0.736912 0.0114185 0
M  V30 286 H 25.7196 -1.76056 0.714432 0
M  V30 287 H 23.8696 -3.82932 -0.655382 0
M  V30 288 H 25.5416 -4.19018 1.92929 0
M  V30 289 H 23.7846 -3.91086 1.87709 0
M  V30 290 H 24.4556 -5.39114 1.18573 0
M  V30 291 H 26.9316 -4.15095 -0.288982 0
M  V30 292 H 25.8076 -5.42695 -0.823013 0
M  V30 293 H 26.0686 -4.01945 -1.841 0
M  V30 294 N 25.1277 -0.289203 -1.54924 0
M  V30 295 C 26.3747 0.323519 -1.99899 0
M  V30 296 C 26.7027 1.54797 -1.17762 0
M  V30 297 O 25.9577 1.94237 -0.238835 0
M  V30 298 C 26.2567 0.736119 -3.49737 0
M  V30 299 C 25.9227 -0.385276 -4.49251 0
M  V30 300 C 24.5847 -0.693156 -4.76181 0
M  V30 301 C 26.9367 -1.14021 -5.08575 0
M  V30 302 C 24.2647 -1.7593 -5.59701 0
M  V30 303 C 26.6167 -2.19619 -5.93254 0
M  V30 304 C 25.2807 -2.51026 -6.185 0
M  V30 305 H 24.5507 0.118384 -0.731482 0
M  V30 306 H 27.1977 -0.405847 -1.8715 0
M  V30 307 H 25.5027 1.54539 -3.60035 0
M  V30 308 H 27.1997 1.22118 -3.81953 0
M  V30 309 H 23.7897 -0.135202 -4.28387 0
M  V30 310 H 27.9737 -0.915611 -4.87781 0
M  V30 311 H 23.2297 -2.0075 -5.77503 0
M  V30 312 H 27.4037 -2.78581 -6.38252 0
M  V30 313 H 25.0307 -3.33772 -6.83008 0
M  V30 314 N 26.6058 1.57591 -0.0167156 0
M  V30 315 C 27.5688 2.08393 0.954204 0
M  V30 316 C 28.5688 0.996531 1.26198 0
M  V30 317 O 29.7588 1.25858 1.20438 0
M  V30 318 C 26.8908 2.5394 2.27436 0
M  V30 319 H 28.0838 2.95455 0.514451 0
M  V30 320 H 25.6368 1.54582 0.231089 0
M  V30 321 H 26.3718 1.70171 2.76066 0
M  V30 322 H 26.1568 3.33371 2.06412 0
M  V30 323 H 27.6468 2.93512 2.97053 0
M  V30 324 N 28.0839 -0.256276 1.55502 0
M  V30 325 C 29.0139 -1.32102 1.92539 0
M  V30 326 C 29.9949 -1.50684 0.789194 0
M  V30 327 O 31.1799 -1.63449 1.04872 0
M  V30 328 C 28.3099 -2.67752 2.21192 0
M  V30 329 C 27.2639 -2.63878 3.36975 0
M  V30 330 C 26.5899 -4.03236 3.51147 0
M  V30 331 C 27.8899 -2.21682 4.72921 0
M  V30 332 H 29.5839 -1.01351 2.81724 0
M  V30 333 H 27.1299 -0.486105 1.35547 0
M  V30 334 H 29.0829 -3.42365 2.45691 0
M  V30 335 H 27.8069 -3.0012 1.28824 0
M  V30 336 H 26.4659 -1.91722 3.12471 0
M  V30 337 H 26.1139 -4.32854 2.56216 0
M  V30 338 H 25.8139 -4.01535 4.29003 0
M  V30 339 H 27.3379 -4.79563 3.77957 0
M  V30 340 H 28.7519 -2.86023 4.96854 0
M  V30 341 H 27.1489 -2.3111 5.53812 0
M  V30 342 H 28.2189 -1.16833 4.70615 0
M  V30 343 N 29.562 -1.4872 -0.521534 0
M  V30 344 C 30.492 -1.66771 -1.63431 0
M  V30 345 C 31.473 -0.516499 -1.62069 0
M  V30 346 O 32.658 -0.750013 -1.79132 0
M  V30 347 C 29.788 -1.71515 -3.01993 0
M  V30 348 C 28.742 -2.86222 -3.18216 0
M  V30 349 C 28.068 -2.76061 -4.57924 0
M  V30 350 C 29.368 -4.27419 -3.00184 0
M  V30 351 H 31.062 -2.59932 -1.48579 0
M  V30 352 H 28.608 -1.25089 -0.713358 0
M  V30 353 H 30.561 -1.82731 -3.7972 0
M  V30 354 H 29.285 -0.749393 -3.17886 0
M  V30 355 H 27.944 -2.74575 -2.42908 0
M  V30 356 H 27.592 -1.77437 -4.70665 0
M  V30 357 H 27.292 -3.53037 -4.69722 0
M  V30 358 H 28.816 -2.89256 -5.37739 0
M  V30 359 H 30.23 -4.39855 -3.67697 0
M  V30 360 H 28.627 -5.05458 -3.2347 0
M  V30 361 H 29.697 -4.43293 -1.96518 0
M  V30 362 N 31.0401 0.771051 -1.3745 0
M  V30 363 C 31.9721 1.89352 -1.29146 0
M  V30 364 C 32.9851 1.61477 -0.207124 0
M  V30 365 O 34.1741 1.72382 -0.463324 0
M  V30 366 C 31.2741 3.24596 -0.974195 0
M  V30 367 C 30.4471 3.80111 -2.16413 0
M  V30 368 C 29.5061 4.93832 -1.81703 0
M  V30 369 O 28.5321 5.09382 -2.54006 0
M  V30 370 N 29.7341 5.75483 -0.761573 0
M  V30 371 H 32.4991 1.96991 -2.25864 0
M  V30 372 H 30.0601 0.950191 -1.31084 0
M  V30 373 H 32.0521 3.98193 -0.722828 0
M  V30 374 H 30.6221 3.12454 -0.0955527 0
M  V30 375 H 29.8421 2.98284 -2.57721 0
M  V30 376 H 31.1301 4.13932 -2.95867 0
M  V30 377 H 30.5281 5.65469 -0.161609 0
M  V30 378 H 29.0851 6.49302 -0.570064 0
M  V30 379 N 32.5182 1.22032 0.997298 0
M  V30 380 C 33.4482 1.01065 2.10495 0
M  V30 381 C 34.4292 -0.0669542 1.69968 0
M  V30 382 O 35.6142 0.0943987 1.9397 0
M  V30 383 C 32.7442 0.582874 3.42374 0
M  V30 384 C 31.6982 1.60592 3.96729 0
M  V30 385 C 31.0242 1.03412 5.24605 0
M  V30 386 C 32.3242 2.99478 4.27914 0
M  V30 387 H 34.0182 1.93708 2.28292 0
M  V30 388 H 31.5642 0.932761 1.09707 0
M  V30 389 H 33.5172 0.423332 4.19268 0
M  V30 390 H 32.2412 -0.379213 3.24391 0
M  V30 391 H 30.9002 1.75316 3.21963 0
M  V30 392 H 30.5482 0.063518 5.0296 0
M  V30 393 H 30.2482 1.71754 5.61938 0
M  V30 394 H 31.7722 0.886066 6.04137 0
M  V30 395 H 33.1862 2.88153 4.95622 0
M  V30 396 H 31.5832 3.64903 4.76409 0
M  V30 397 H 32.6532 3.49742 3.3587 0
M  V30 398 N 33.9963 -1.19345 1.0293 0
M  V30 399 C 35.2423 -1.89318 0.727083 0
M  V30 400 C 35.5753 -1.79446 -0.742483 0
M  V30 401 O 34.8503 -1.1871 -1.54072 0
M  V30 402 C 35.1333 -3.40238 1.17942 0
M  V30 403 C 34.9863 -3.58979 2.71024 0
M  V30 404 C 36.3053 -4.33479 0.760548 0
M  V30 405 H 33.4243 -0.687475 0.265606 0
M  V30 406 H 36.0663 -1.40477 1.2793 0
M  V30 407 H 34.2163 -3.81964 0.709608 0
M  V30 408 H 35.8883 -3.26421 3.25955 0
M  V30 409 H 34.1313 -3.02018 3.11396 0
M  V30 410 H 34.8023 -4.64823 2.9773 0
M  V30 411 H 37.2783 -3.99469 1.16464 0
M  V30 412 H 36.1543 -5.37664 1.10493 0
M  V30 413 H 36.4153 -4.40813 -0.337063 0
M  V30 414 N 35.4744 -0.807222 -1.35358 0
M  V30 415 C 36.6994 -0.399309 -2.0352 0
M  V30 416 C 37.1244 0.981986 -1.60433 0
M  V30 417 O 36.4824 1.63601 -0.781299 0
M  V30 418 C 36.5304 -0.491552 -3.57234 0
M  V30 419 O 35.6344 0.494754 -4.09421 0
M  V30 420 H 34.9754 -0.166682 -0.642739 0
M  V30 421 H 37.5054 -1.09328 -1.72941 0
M  V30 422 H 37.5154 -0.361588 -4.06395 0
M  V30 423 H 36.1904 -1.49907 -3.87944 0
M  V30 424 H 34.7674 0.324977 -3.71481 0
M  V30 425 N 36.9525 1.47285 -0.560781 0
M  V30 426 C 38.2005 2.02064 -0.0379868 0
M  V30 427 C 38.5215 1.43711 1.31803 0
M  V30 428 O 37.7915 0.61362 1.86042 0
M  V30 429 H 36.3715 0.746918 -0.0110531 0
M  V30 430 H 39.0335 1.80648 -0.731598 0
M  V30 431 H 38.1295 3.12064 0.0474463 0
M  V30 432 N 38.4306 0.297415 1.54768 0
M  V30 433 C 39.6786 -0.312295 1.99673 0
M  V30 434 C 39.9996 -1.54686 1.18732 0
M  V30 435 O 39.2696 -1.93854 0.282382 0
M  V30 436 H 37.8496 -0.118381 0.73756 0
M  V30 437 H 40.5116 0.407915 1.90583 0
M  V30 438 H 39.6076 -0.586813 3.06534 0
M  V30 439 N 39.9087 -1.5758 0.0250728 0
M  V30 440 C 40.8387 -2.13007 -0.956575 0
M  V30 441 C 41.8197 -1.0452 -1.342 0
M  V30 442 O 43.0047 -1.32332 -1.42133 0
M  V30 443 C 40.1347 -2.65386 -2.24026 0
M  V30 444 C 39.0887 -3.78623 -1.99571 0
M  V30 445 C 38.4147 -4.17414 -3.3417 0
M  V30 446 C 39.7147 -5.04867 -1.33814 0
M  V30 447 H 41.4087 -2.9528 -0.494991 0
M  V30 448 H 38.9547 -1.42042 -0.236651 0
M  V30 449 H 40.9077 -3.02794 -2.93076 0
M  V30 450 H 39.6317 -1.80268 -2.72343 0
M  V30 451 H 38.2907 -3.41646 -1.32941 0
M  V30 452 H 37.9387 -3.29284 -3.80238 0
M  V30 453 H 37.6387 -4.93719 -3.18615 0
M  V30 454 H 39.1627 -4.57402 -4.04495 0
M  V30 455 H 40.5767 -5.39888 -1.92857 0
M  V30 456 H 38.9737 -5.86144 -1.28669 0
M  V30 457 H 40.0437 -4.83904 -0.310561 0
M  V30 458 N 41.3868 0.248026 -1.55636 0
M  V30 459 C 42.3168 1.31079 -1.93237 0
M  V30 460 C 43.2978 1.50264 -0.797174 0
M  V30 461 O 44.4828 1.62891 -1.05737 0
M  V30 462 C 41.6128 2.66575 -2.22609 0
M  V30 463 C 40.5668 2.62087 -3.3837 0
M  V30 464 C 39.8928 4.01369 -3.53281 0
M  V30 465 C 41.1928 2.19171 -4.7409 0
M  V30 466 H 42.8868 0.998556 -2.82257 0
M  V30 467 H 40.4328 0.47891 -1.35803 0
M  V30 468 H 42.3858 3.41057 -2.47503 0
M  V30 469 H 41.1098 2.99432 -1.30414 0
M  V30 470 H 39.7688 1.90063 -3.13483 0
M  V30 471 H 39.4168 4.31489 -2.58508 0
M  V30 472 H 39.1168 3.99254 -4.31127 0
M  V30 473 H 40.6408 4.77552 -3.80495 0
M  V30 474 H 42.0548 2.83384 -4.98363 0
M  V30 475 H 40.4518 2.2817 -5.5503 0
M  V30 476 H 41.5218 1.14336 -4.71227 0
M  V30 477 N 42.8649 1.48995 0.513639 0
M  V30 478 C 44.1119 1.57843 1.26854 0
M  V30 479 C 44.4399 0.259501 1.92761 0
M  V30 480 O 43.6949 -0.75159 1.80692 0
M  V30 481 C 43.9939 2.67756 2.36731 0
M  V30 482 C 43.6599 4.09669 1.88368 0
M  V30 483 C 42.3219 4.48291 1.74896 0
M  V30 484 C 44.6739 4.98537 1.52021 0
M  V30 485 C 42.0019 5.73568 1.23438 0
M  V30 486 C 44.3539 6.24319 1.0202 0
M  V30 487 C 43.0179 6.61783 0.871778 0
M  V30 488 H 42.2879 0.577587 0.464192 0
M  V30 489 H 44.9349 1.82778 0.571366 0
M  V30 490 H 43.2399 2.36743 3.12185 0
M  V30 491 H 44.9369 2.71813 2.9482 0
M  V30 492 H 41.5269 3.79176 1.99808 0
M  V30 493 H 45.7109 4.69363 1.61281 0
M  V30 494 H 40.9669 6.01304 1.10648 0
M  V30 495 H 45.1409 6.92566 0.729722 0
M  V30 496 H 42.7679 7.5874 0.470852 0
M  V30 497 N 44.343 -0.763751 1.37857 0
M  V30 498 C 45.568 -1.55805 1.36893 0
M  V30 499 C 45.993 -1.88054 -0.0416135 0
M  V30 500 O 45.351 -1.49825 -1.02089 0
M  V30 501 C 45.399 -2.84012 2.22192 0
M  V30 502 O 44.503 -3.78732 1.63204 0
M  V30 503 H 43.844 -0.471638 0.46739 0
M  V30 504 H 46.374 -0.944657 1.81487 0
M  V30 505 H 46.384 -3.33037 2.35691 0
M  V30 506 H 45.059 -2.59869 3.24716 0
M  V30 507 H 43.636 -3.37402 1.58791 0
M  V30 508 N 45.8211 -1.22559 -0.990812 0
M  V30 509 C 47.0461 -1.07862 -1.77145 0
M  V30 510 C 47.4711 0.366447 -1.84496 0
M  V30 511 O 46.8291 1.26478 -1.29896 0
M  V30 512 C 46.8771 -1.69686 -3.18181 0
M  V30 513 O 45.9811 -0.951946 -4.01263 0
M  V30 514 H 45.3221 -0.378712 -0.545411 0
M  V30 515 H 47.8521 -1.62399 -1.2445 0
M  V30 516 H 47.8621 -1.74496 -3.68802 0
M  V30 517 H 46.5371 -2.74841 -3.12146 0
M  V30 518 H 45.1141 -0.980011 -3.59792 0
M  V30 519 N 47.2992 1.18797 -1.03562 0
M  V30 520 C 48.2292 2.24472 -0.643019 0
M  V30 521 C 49.2102 1.66433 0.351283 0
M  V30 522 O 50.3952 1.92803 0.232505 0
M  V30 523 C 47.5252 3.473 4.24935e-05 0
M  V30 524 C 46.4792 4.18055 -0.917257 0
M  V30 525 C 45.8052 5.34519 -0.138941 0
M  V30 526 C 47.1052 4.72109 -2.23407 0
M  V30 527 H 48.7992 2.57566 -1.52643 0
M  V30 528 H 46.3452 1.23806 -0.735394 0
M  V30 529 H 48.2982 4.20426 0.286383 0
M  V30 530 H 47.0222 3.13424 0.918299 0
M  V30 531 H 45.6812 3.46821 -1.1879 0
M  V30 532 H 45.3292 4.96891 0.781562 0
M  V30 533 H 45.0292 5.82794 -0.750005 0
M  V30 534 H 46.5532 6.10438 0.1405 0
M  V30 535 H 47.9672 5.36955 -2.00879 0
M  V30 536 H 46.3642 5.30897 -2.79765 0
M  V30 537 H 47.4342 3.89807 -2.88407 0
M  V30 538 N 48.7773 0.814389 1.34928 0
M  V30 539 C 49.7093 0.187834 2.28429 0
M  V30 540 C 50.7223 -0.617374 1.5064 0
M  V30 541 O 51.9113 -0.448454 1.72775 0
M  V30 542 C 49.0113 -0.755962 3.30361 0
M  V30 543 C 48.1843 0.00456686 4.374 0
M  V30 544 C 47.2433 -0.858876 5.19143 0
M  V30 545 O 46.2693 -0.306968 5.68372 0
M  V30 546 N 47.4713 -2.17988 5.38016 0
M  V30 547 H 50.2363 0.991105 2.82838 0
M  V30 548 H 47.7973 0.670561 1.4736 0
M  V30 549 H 49.7893 -1.338 3.81942 0
M  V30 550 H 48.3593 -1.46001 2.7641 0
M  V30 551 H 47.5793 0.767865 3.86649 0
M  V30 552 H 48.8673 0.528422 5.06049 0
M  V30 553 H 48.2653 -2.65212 4.99679 0
M  V30 554 H 46.8223 -2.71098 5.92747 0
M  V30 555 N 50.2554 -1.46986 0.568584 0
M  V30 556 C 51.2054 -2.27179 -0.193339 0
M  V30 557 C 52.1894 -1.35035 -0.874895 0
M  V30 558 O 53.3814 -1.5931 -0.771322 0
M  V30 559 C 50.5104 -3.21063 -1.21546 0
M  V30 560 C 49.5964 -4.2069 -0.536738 0
M  V30 561 N 49.9874 -5.04218 0.399673 0
M  V30 562 C 48.2854 -4.38961 -0.789254 0
M  V30 563 C 48.9864 -5.76242 0.795017 0
M  V30 564 N 47.9624 -5.434 0.1473 0
M  V30 565 H 51.7644 -2.89146 0.526458 0
M  V30 566 H 49.2784 -1.57664 0.389342 0
M  V30 567 H 51.2754 -3.77209 -1.77536 0
M  V30 568 H 49.9354 -2.60654 -1.93623 0
M  V30 569 H 50.9464 -5.12077 0.774454 0
M  V30 570 H 47.6234 -3.89713 -1.49767 0
M  V30 571 H 49.0134 -6.53417 1.56513 0
M  V30 572 N 51.7335 -0.305618 -1.54608 0
M  V30 573 C 52.6815 0.584119 -2.25146 0
M  V30 574 C 53.6755 1.13326 -1.25911 0
M  V30 575 O 54.8815 1.08337 -1.43747 0
M  V30 576 H 51.2565 0.206983 -0.722954 0
M  V30 577 H 53.2275 -0.033291 -2.98381 0
M  V30 578 C 51.9765 1.74225 -3.009 0
M  V30 579 H 51.2995 1.32892 -3.77067 0
M  V30 580 H 52.7395 2.34077 -3.53531 0
M  V30 581 C 51.1985 2.64914 -2.0814 0
M  V30 582 O 51.7285 3.66137 -1.65246 0
M  V30 583 N 49.9345 2.3275 -1.74 0
M  V30 584 H 49.4815 1.50479 -2.09078 0
M  V30 585 H 49.4395 2.93694 -1.12211 0
M  V30 586 N 53.2116 1.57565 -0.0334293 0
M  V30 587 C 54.1436 2.0739 0.975811 0
M  V30 588 C 55.1566 0.998166 1.2861 0
M  V30 589 O 56.3456 1.27426 1.25 0
M  V30 590 C 53.4456 2.4871 2.30209 0
M  V30 591 C 52.6186 3.79413 2.17634 0
M  V30 592 C 51.6776 4.07237 3.33233 0
M  V30 593 O 50.7036 4.77425 3.09927 0
M  V30 594 N 51.9056 3.5775 4.5716 0
M  V30 595 H 54.6706 2.94598 0.55066 0
M  V30 596 H 52.2316 1.61173 0.15323 0
M  V30 597 H 54.2236 2.64413 3.06378 0
M  V30 598 H 52.7936 1.66845 2.64351 0
M  V30 599 H 52.0136 3.73465 1.26165 0
M  V30 600 H 53.3016 4.65038 2.0644 0
M  V30 601 H 52.6996 3.00976 4.78989 0
M  V30 602 H 51.2566 3.78724 5.30482 0
M  V30 603 N 54.6897 -0.239769 1.55765 0
M  V30 604 C 55.6217 -1.32001 1.87372 0
M  V30 605 C 56.6347 -1.43944 0.760522 0
M  V30 606 O 57.8237 -1.45167 1.0387 0
M  V30 607 C 54.9237 -2.69779 2.05115 0
M  V30 608 C 54.0967 -2.80014 3.36022 0
M  V30 609 C 53.1557 -3.98684 3.4342 0
M  V30 610 O 52.1817 -3.87877 4.16582 0
M  V30 611 N 53.3837 -5.12176 2.73232 0
M  V30 612 H 56.1487 -1.0522 2.80622 0
M  V30 613 H 53.7097 -0.429857 1.56089 0
M  V30 614 H 55.7017 -3.47517 2.07399 0
M  V30 615 H 54.2717 -2.89237 1.18577 0
M  V30 616 H 53.4917 -1.88896 3.45994 0
M  V30 617 H 54.7797 -2.83808 4.22292 0
M  V30 618 H 54.1777 -5.2385 2.13536 0
M  V30 619 H 52.7347 -5.88022 2.81199 0
M  V30 620 N 56.1678 -1.49265 -0.50573 0
M  V30 621 C 57.4158 -1.582 -1.25766 0
M  V30 622 C 57.7368 -0.268482 -1.93143 0
M  V30 623 O 57.0068 0.711833 -1.8251 0
M  V30 624 H 55.5868 -0.582873 -0.467191 0
M  V30 625 H 58.2488 -1.85865 -0.586525 0
M  V30 626 H 57.3448 -2.37563 -2.02412 0
M  V30 627 N 57.6459 0.756429 -1.3826 0
M  V30 628 C 58.8929 1.51547 -1.34312 0
M  V30 629 C 59.2209 1.94382 0.0677144 0
M  V30 630 O 58.4759 1.65514 1.04421 0
M  V30 631 C 58.7749 2.78313 -2.24224 0
M  V30 632 C 58.4409 2.54455 -3.72241 0
M  V30 633 C 57.1029 2.47657 -4.12576 0
M  V30 634 C 59.4549 2.3354 -4.65949 0
M  V30 635 C 56.7829 2.17956 -5.44713 0
M  V30 636 C 59.1349 2.05359 -5.9834 0
M  V30 637 C 57.7989 1.97016 -6.37762 0
M  V30 638 H 57.0689 0.55455 -0.491482 0
M  V30 639 H 59.7159 0.870039 -1.70595 0
M  V30 640 H 58.0209 3.47492 -1.80987 0
M  V30 641 H 59.7179 3.36259 -2.18474 0
M  V30 642 H 56.3079 2.60616 -3.40261 0
M  V30 643 H 60.4919 2.37772 -4.35635 0
M  V30 644 H 55.7479 2.10003 -5.74203 0
M  V30 645 H 59.9219 1.88179 -6.70494 0
M  V30 646 H 57.5489 1.73766 -7.40074 0
M  V30 647 N 59.124 1.23083 0.984299 0
M  V30 648 C 60.37 1.06214 1.72761 0
M  V30 649 C 60.703 -0.400584 1.90024 0
M  V30 650 O 59.978 -1.29672 1.44967 0
M  V30 651 C 60.261 1.78375 3.12817 0
M  V30 652 C 60.114 3.32296 3.03149 0
M  V30 653 C 61.433 1.54309 4.12161 0
M  V30 654 H 58.552 0.387251 0.627061 0
M  V30 655 H 61.194 1.51536 1.14616 0
M  V30 656 H 59.344 1.39848 3.62457 0
M  V30 657 H 61.016 3.8032 2.61064 0
M  V30 658 H 59.259 3.6153 2.39747 0
M  V30 659 H 59.93 3.77972 4.02295 0
M  V30 660 H 62.406 1.87791 3.71314 0
M  V30 661 H 61.282 2.07281 5.08258 0
M  V30 662 H 61.543 0.477572 4.39513 0
M  V30 663 N 60.6021 -1.18246 1.0419 0
M  V30 664 C 61.8511 -1.87588 0.741194 0
M  V30 665 C 62.1641 -1.81303 -0.734066 0
M  V30 666 O 63.3701 -2.46019 -1.14834 0
M  V30 667 C 61.8261 -3.36538 1.27555 0
M  V30 668 C 61.4341 -3.51349 2.77953 0
M  V30 669 C 63.1781 -4.11273 1.05143 0
M  V30 670 C 61.0851 -4.94265 3.2474 0
M  V30 671 H 60.0151 -0.702622 0.273565 0
M  V30 672 H 62.6661 -1.33601 1.25789 0
M  V30 673 H 61.0481 -3.9 0.686703 0
M  V30 674 H 62.2221 -3.08153 3.42605 0
M  V30 675 H 60.5371 -2.90022 2.98791 0
M  V30 676 H 63.1341 -5.16689 1.37611 0
M  V30 677 H 63.4771 -4.16298 -0.0112774 0
M  V30 678 H 64.0101 -3.63987 1.60495 0
M  V30 679 H 60.7491 -4.94408 4.30396 0
M  V30 680 H 60.2691 -5.38172 2.64823 0
M  V30 681 H 61.9481 -5.62987 3.18834 0
M  V30 682 N 62.0802 -0.821533 -1.34494 0
M  V30 683 C 63.3052 -0.420873 -2.03085 0
M  V30 684 C 63.7302 0.964915 -1.61465 0
M  V30 685 O 63.0882 1.62763 -0.798607 0
M  V30 686 C 63.1362 -0.529414 -3.56693 0
M  V30 687 O 62.2402 0.451302 -4.09923 0
M  V30 688 H 61.5812 -0.173489 -0.640935 0
M  V30 689 H 64.1112 -1.11157 -1.71771 0
M  V30 690 H 64.1212 -0.404671 -4.05988 0
M  V30 691 H 62.7962 -1.54014 -3.86332 0
M  V30 692 H 61.3732 0.285558 -3.71805 0
M  V30 693 N 63.5583 1.46682 -0.576371 0
M  V30 694 C 64.5063 2.31953 0.17335 0
M  V30 695 C 65.5003 1.44098 0.89062 0
M  V30 696 O 66.7063 1.60759 0.809728 0
M  V30 697 H 63.0813 0.748273 0.0747727 0
M  V30 698 H 65.0523 2.93007 -0.564738 0
M  V30 699 C 63.8013 3.27142 1.17786 0
M  V30 700 H 63.1243 3.94719 0.635361 0
M  V30 701 H 64.5643 3.896 1.67296 0
M  V30 702 C 63.0233 2.52036 2.23561 0
M  V30 703 O 63.5533 2.27877 3.3081 0
M  V30 704 N 61.7593 2.12709 1.97998 0
M  V30 705 H 61.3063 2.32557 1.10792 0
M  V30 706 H 61.2643 1.62776 2.68982 0
M  V30 707 N 65.0364 0.313813 1.54444 0
M  V30 708 C 65.9464 -0.565714 2.27677 0
M  V30 709 C 66.9624 -1.13754 1.31666 0
M  V30 710 O 68.1384 -1.15959 1.64668 0
M  V30 711 C 65.2034 -1.71528 3.01296 0
M  V30 712 C 64.2644 -1.17624 4.12872 0
M  V30 713 C 63.4974 -2.27102 4.8297 0
M  V30 714 O 63.7204 -3.47256 4.52514 0
M  V30 715 O 62.6544 -1.9307 5.70094 0
M  V30 716 H 66.4804 0.0287296 3.03686 0
M  V30 717 H 64.0654 0.0798312 1.49187 0
M  V30 718 H 65.9474 -2.38476 3.4743 0
M  V30 719 H 64.6224 -2.29608 2.2817 0
M  V30 720 H 63.5294 -0.472124 3.71109 0
M  V30 721 H 64.8624 -0.640695 4.88012 0
M  V30 722 N 66.5145 -1.57545 0.0417849 0
M  V30 723 C 67.4445 -2.14009 -0.933929 0
M  V30 724 C 68.4255 -1.05938 -1.33083 0
M  V30 725 O 69.6105 -1.33833 -1.40721 0
M  V30 726 C 66.7405 -2.67747 -2.21199 0
M  V30 727 C 65.6945 -3.80718 -1.95544 0
M  V30 728 C 65.0205 -4.20935 -3.29724 0
M  V30 729 C 66.3205 -5.06258 -1.28452 0
M  V30 730 H 68.0145 -2.95788 -0.463645 0
M  V30 731 H 65.5605 -1.42285 -0.221573 0
M  V30 732 H 67.5135 -3.05886 -2.89848 0
M  V30 733 H 66.2375 -1.83147 -2.70416 0
M  V30 734 H 64.8965 -3.43037 -1.2931 0
M  V30 735 H 64.5445 -3.33298 -3.76724 0
M  V30 736 H 64.2445 -4.9707 -3.13361 0
M  V30 737 H 65.7685 -4.61666 -3.9962 0
M  V30 738 H 67.1825 -5.41903 -1.8712 0
M  V30 739 H 65.5795 -5.87475 -1.22445 0
M  V30 740 H 66.6495 -4.84207 -0.259219 0
M  V30 741 N 67.9926 0.231505 -1.5589 0
M  V30 742 C 69.4086 0.580748 -1.48659 0
M  V30 743 C 69.6086 1.87617 -0.73498 0
M  V30 744 O 68.6646 2.51046 -0.270586 0
M  V30 745 C 69.9776 0.669202 -2.93159 0
M  V30 746 C 71.5256 0.760499 -3.03621 0
M  V30 747 C 72.0006 0.880383 -4.49459 0
M  V30 748 N 73.4916 0.944861 -4.53461 0
M  V30 749 C 74.2266 1.05716 -5.63571 0
M  V30 750 N 73.7226 1.13403 -6.83456 0
M  V30 751 N 75.5156 1.09152 -5.514 0
M  V30 752 H 67.6666 -0.618695 -2.03189 0
M  V30 753 H 69.9296 -0.215728 -0.923128 0
M  V30 754 H 69.6356 -0.212904 -3.51055 0
M  V30 755 H 69.5096 1.5361 -3.44505 0
M  V30 756 H 71.8966 1.63305 -2.45796 0
M  V30 757 H 71.9776 -0.131864 -2.5546 0
M  V30 758 H 71.6216 0.0123284 -5.07899 0
M  V30 759 H 71.5516 1.78802 -4.95316 0
M  V30 760 H 74.0426 0.896176 -3.6712 0
M  V30 761 H 74.3556 1.21921 -7.63122 0
M  V30 762 H 72.7006 1.10333 -6.86186 0
M  V30 763 H 75.8916 1.02805 -4.56671 0
M  V30 764 H 76.0646 1.17558 -6.37247 0
M  V30 765 N 69.4707 1.49531 0.497807 0
M  V30 766 C 70.4027 1.62559 1.61578 0
M  V30 767 C 71.4157 0.508134 1.54667 0
M  V30 768 O 72.6047 0.780309 1.60541 0
M  V30 769 C 69.7047 1.56925 3.00379 0
M  V30 770 C 68.8777 2.84257 3.3244 0
M  V30 771 C 67.9367 2.71632 4.50669 0
M  V30 772 O 66.9627 3.4557 4.52294 0
M  V30 773 N 68.1647 1.83391 5.5077 0
M  V30 774 H 70.9297 2.58981 1.50828 0
M  V30 775 H 68.4907 1.4666 0.685743 0
M  V30 776 H 70.4827 1.46129 3.77397 0
M  V30 777 H 69.0527 0.683483 3.05037 0
M  V30 778 H 68.2727 3.09381 2.44289 0
M  V30 779 H 69.5607 3.68666 3.5066 0
M  V30 780 H 68.9587 1.22583 5.52259 0
M  V30 781 H 67.5157 1.78515 6.26878 0
M  V30 782 N 70.9488 -0.749086 1.3866 0
M  V30 783 C 71.8808 -1.87273 1.32142 0
M  V30 784 C 72.8938 -1.61127 0.232787 0
M  V30 785 O 74.0828 -1.71623 0.49069 0
M  V30 786 C 71.1828 -3.23005 1.02571 0
M  V30 787 C 70.3558 -3.7662 2.22433 0
M  V30 788 C 69.4148 -4.90879 1.89537 0
M  V30 789 O 68.4408 -5.05276 2.62078 0
M  V30 790 N 69.6428 -5.74198 0.853031 0
M  V30 791 H 72.4078 -1.93373 2.28969 0
M  V30 792 H 69.9688 -0.929216 1.32579 0
M  V30 793 H 71.9608 -3.96992 0.786085 0
M  V30 794 H 70.5308 -3.12262 0.145249 0
M  V30 795 H 69.7508 -2.94147 2.62434 0
M  V30 796 H 71.0388 -4.09173 3.02415 0
M  V30 797 H 70.4368 -5.6514 0.25155 0
M  V30 798 H 68.9938 -6.48313 0.67329 0
M  V30 799 N 72.4269 -1.23603 -0.977757 0
M  V30 800 C 73.3589 -0.977369 -2.07317 0
M  V30 801 C 74.3719 0.0495845 -1.62724 0
M  V30 802 O 75.5609 -0.186261 -1.77526 0
M  V30 803 C 72.6609 -0.451216 -3.35883 0
M  V30 804 C 71.8339 -1.53896 -4.09432 0
M  V30 805 C 70.8929 -1.01721 -5.16274 0
M  V30 806 O 69.9189 -1.70676 -5.43009 0
M  V30 807 N 71.1209 0.153594 -5.80297 0
M  V30 808 H 73.8859 -1.92047 -2.30082 0
M  V30 809 H 71.4469 -1.14497 -1.14465 0
M  V30 810 H 73.4389 -0.0871574 -4.04606 0
M  V30 811 H 72.0089 0.397368 -3.10064 0
M  V30 812 H 71.2289 -2.07566 -3.35127 0
M  V30 813 H 72.5169 -2.27037 -4.55337 0
M  V30 814 H 71.9149 0.730323 -5.60966 0
M  V30 815 H 70.4719 0.458892 -6.50183 0
M  V30 816 N 73.905 1.17692 -1.04816 0
M  V30 817 C 75.13 1.92327 -0.776207 0
M  V30 818 C 75.555 1.76082 0.661581 0
M  V30 819 O 74.913 1.076 1.45917 0
M  V30 820 C 74.961 3.41539 -1.15687 0
M  V30 821 O 74.065 4.11402 -0.286775 0
M  V30 822 H 73.406 0.599735 -0.284981 0
M  V30 823 H 75.936 1.49201 -1.4 0
M  V30 824 H 75.946 3.92269 -1.12202 0
M  V30 825 H 74.621 3.52684 -2.20425 0
M  V30 826 H 73.198 3.70939 -0.381903 0
M  V30 827 N 75.3831 0.828654 1.34056 0
M  V30 828 C 76.2931 0.256725 2.33191 0
M  V30 829 C 77.3091 -0.611898 1.62886 0
M  V30 830 O 78.4851 -0.51844 1.94613 0
M  V30 831 C 75.5501 -0.567238 3.42028 0
M  V30 832 C 74.6111 0.324458 4.28072 0
M  V30 833 C 73.8441 -0.460274 5.31712 0
M  V30 834 O 74.0671 -1.693 5.44696 0
M  V30 835 O 73.0011 0.160391 6.01686 0
M  V30 836 H 76.8271 1.07739 2.83947 0
M  V30 837 H 74.4121 0.59093 1.37217 0
M  V30 838 H 76.2941 -1.03582 4.08471 0
M  V30 839 H 74.9691 -1.36513 2.93506 0
M  V30 840 H 73.8761 0.840659 3.64532 0
M  V30 841 H 75.2091 1.08685 4.8005 0
M  V30 842 N 76.8612 -1.46375 0.584142 0
M  V30 843 C 77.7912 -2.33103 -0.136037 0
M  V30 844 C 78.7722 -1.45431 -0.882255 0
M  V30 845 O 79.9572 -1.74246 -0.857434 0
M  V30 846 C 77.0872 -3.27731 -1.14933 0
M  V30 847 C 76.0412 -4.24855 -0.517862 0
M  V30 848 C 75.3672 -5.09001 -1.63773 0
M  V30 849 C 76.6672 -5.19439 0.545886 0
M  V30 850 H 78.3612 -2.93568 0.588086 0
M  V30 851 H 75.9072 -1.41166 0.284259 0
M  V30 852 H 77.8602 -3.87261 -1.66153 0
M  V30 853 H 76.5842 -2.65377 -1.90375 0
M  V30 854 H 75.2432 -3.6659 -0.0267361 0
M  V30 855 H 74.8912 -4.43031 -2.38185 0
M  V30 856 H 74.5912 -5.74777 -1.22085 0
M  V30 857 H 76.1152 -5.71396 -2.15266 0
M  V30 858 H 77.5292 -5.73177 0.118704 0
M  V30 859 H 75.9262 -5.93566 0.88317 0
M  V30 860 H 76.9962 -4.63285 1.43162 0
M  V30 861 N 78.3393 -0.321999 -1.54275 0
M  V30 862 C 79.5673 0.283052 -2.04955 0
M  V30 863 C 79.9823 1.45904 -1.19823 0
M  V30 864 O 79.3393 1.81063 -0.228545 0
M  V30 865 C 79.3903 0.719028 -3.54277 0
M  V30 866 O 79.1113 -0.410175 -4.36176 0
M  V30 867 C 80.6123 1.38705 -4.21041 0
M  V30 868 H 77.8323 0.0584616 -0.668448 0
M  V30 869 H 80.3763 -0.467734 -1.99079 0
M  V30 870 H 78.5313 1.41979 -3.60445 0
M  V30 871 H 78.9453 -0.0669416 -5.24457 0
M  V30 872 H 80.4193 1.64306 -5.2698 0
M  V30 873 H 80.8963 2.33385 -3.72059 0
M  V30 874 H 81.5023 0.728906 -4.19007 0
M  V30 875 N 79.8174 1.5752 -0.0501392 0
M  V30 876 C 81.0424 1.97376 0.636997 0
M  V30 877 C 81.4674 0.927466 1.63645 0
M  V30 878 O 80.8254 -0.10941 1.8097 0
M  V30 879 C 80.8734 3.36304 1.30123 0
M  V30 880 O 79.9774 3.34156 2.41689 0
M  V30 881 H 79.3184 0.642998 0.165679 0
M  V30 882 H 81.8484 2.04258 -0.118233 0
M  V30 883 H 81.8584 3.73008 1.65315 0
M  V30 884 H 80.5334 4.11993 0.568746 0
M  V30 885 H 79.1104 3.09196 2.08451 0
M  V30 886 N 81.2955 -0.223234 1.56011 0
M  V30 887 C 82.5235 -0.964812 1.83027 0
M  V30 888 C 82.9385 -1.78013 0.62904 0
M  V30 889 O 82.2955 -1.78008 -0.402414 0
M  V30 890 C 82.3465 -1.88373 3.08542 0
M  V30 891 O 82.0675 -1.10137 4.2403 0
M  V30 892 C 83.5685 -2.73934 3.48533 0
M  V30 893 H 80.7885 -0.282842 0.608475 0
M  V30 894 H 83.3325 -0.238971 2.03099 0
M  V30 895 H 81.4875 -2.56354 2.9045 0
M  V30 896 H 81.9015 -1.72501 4.95322 0
M  V30 897 H 83.3755 -3.34117 4.39397 0
M  V30 898 H 83.8525 -3.46244 2.70207 0
M  V30 899 H 84.4585 -2.11369 3.69057 0
M  V30 900 N 82.7736 -1.49793 -0.48987 0
M  V30 901 C 84.0196 -1.61049 -1.24236 0
M  V30 902 C 84.3746 -0.298412 -1.90072 0
M  V30 903 O 83.6676 0.702262 -1.78266 0
M  V30 904 C 83.8616 -2.71488 -2.32441 0
M  V30 905 C 83.6906 -4.13308 -1.77218 0
M  V30 906 C 82.4606 -4.79955 -1.58023 0
M  V30 907 C 84.6586 -4.98176 -1.27772 0
M  V30 908 N 82.6406 -6.06052 -0.978465 0
M  V30 909 C 84.0116 -6.14843 -0.798 0
M  V30 910 C 86.0666 -4.84091 -1.16449 0
M  V30 911 C 84.7696 -7.18975 -0.216245 0
M  V30 912 C 86.7956 -5.88382 -0.596698 0
M  V30 913 C 86.1576 -7.04285 -0.127262 0
M  V30 914 H 82.2566 -0.643611 -0.444172 0
M  V30 915 H 84.8406 -1.86842 -0.54754 0
M  V30 916 H 83.0116 -2.47449 -2.99372 0
M  V30 917 H 84.7436 -2.72205 -2.99477 0
M  V30 918 H 81.4986 -4.36936 -1.82712 0
M  V30 919 H 81.9226 -6.73407 -0.696534 0
M  V30 920 H 86.5646 -3.94786 -1.5134 0
M  V30 921 H 84.2826 -8.0797 0.144903 0
M  V30 922 H 87.8686 -5.79545 -0.511716 0
M  V30 923 H 86.7486 -7.83606 0.30523 0
M  V30 924 N 84.2517 0.741722 -1.39055 0
M  V30 925 C 85.5287 1.49252 -1.26425 0
M  V30 926 C 85.9087 2.10705 0.129144 0
M  V30 927 O 85.2567 1.98045 1.13976 0
M  V30 928 C 85.4667 2.54934 -2.38347 0
M  V30 929 C 86.8147 3.21506 -2.77343 0
M  V30 930 O 87.8387 2.65245 -2.37747 0
M  V30 931 O 86.6977 4.23294 -3.45665 0
M  V30 932 H 83.7917 0.662451 -0.495064 0
M  V30 933 H 86.3377 0.776121 -1.50912 0
M  V30 934 H 85.1097 2.07857 -3.31529 0
M  V30 935 H 84.7327 3.34141 -2.15489 0
M  V30 936 N 85.7298 1.2412 0.971189 0
M  V30 937 C 86.6598 1.05508 2.08304 0
M  V30 938 C 87.6408 -0.0308864 1.70072 0
M  V30 939 O 88.8258 0.135521 1.93727 0
M  V30 940 C 85.9558 0.655365 3.4106 0
M  V30 941 C 84.9098 1.68971 3.93234 0
M  V30 942 C 84.2358 1.14516 5.22293 0
M  V30 943 C 85.5358 3.08487 4.21465 0
M  V30 944 H 87.2298 1.98507 2.24132 0
M  V30 945 H 84.7758 0.955821 1.07704 0
M  V30 946 H 86.7288 0.51217 4.18276 0
M  V30 947 H 85.4528 -0.31032 3.25122 0
M  V30 948 H 84.1118 1.82106 3.18171 0
M  V30 949 H 83.7598 0.170189 5.02712 0
M  V30 950 H 83.4598 1.83635 5.58168 0
M  V30 951 H 84.9838 1.01401 6.02121 0
M  V30 952 H 86.3978 2.98601 4.89398 0
M  V30 953 H 84.7948 3.74926 4.68562 0
M  V30 954 H 85.8648 3.56787 3.28376 0
M  V30 955 N 87.2079 -1.17134 1.05439 0
M  V30 956 C 88.1409 -2.2012 0.601855 0
M  V30 957 C 89.1189 -1.58314 -0.370854 0
M  V30 958 O 90.3029 -1.8638 -0.281882 0
M  V30 959 C 87.4299 -3.38491 -0.118868 0
M  V30 960 C 86.4759 -4.18752 0.809242 0
M  V30 961 S 87.3089 -4.83602 2.29977 0
M  V30 962 C 88.4649 -6.0536 1.59029 0
M  V30 963 H 88.6979 -2.58165 1.47438 0
M  V30 964 H 86.2309 -1.27788 0.866573 0
M  V30 965 H 88.1889 -4.07084 -0.528495 0
M  V30 966 H 86.8499 -2.98829 -0.967465 0
M  V30 967 H 86.0429 -5.03373 0.251379 0
M  V30 968 H 85.6449 -3.5561 1.15835 0
M  V30 969 H 87.9369 -6.71615 0.891017 0
M  V30 970 H 88.8799 -6.65679 2.41407 0
M  V30 971 H 89.2879 -5.54138 1.07663 0
M  V30 972 N 88.686 -0.835752 -1.33615 0
M  V30 973 C 89.616 -0.281739 -2.31794 0
M  V30 974 C 90.597 0.608833 -1.58831 0
M  V30 975 O 91.782 0.533035 -1.86741 0
M  V30 976 C 88.912 0.546612 -3.42971 0
M  V30 977 C 87.866 -0.247904 -4.27281 0
M  V30 978 C 87.192 0.704001 -5.30045 0
M  V30 979 C 88.492 -1.46324 -5.01385 0
M  V30 980 H 90.186 -1.10206 -2.78379 0
M  V30 981 H 87.732 -0.531388 -1.33837 0
M  V30 982 H 89.685 0.944467 -4.1068 0
M  V30 983 H 88.409 1.40011 -2.95067 0
M  V30 984 H 87.068 -0.627281 -3.61194 0
M  V30 985 H 86.716 1.55381 -4.78399 0
M  V30 986 H 86.416 0.176524 -5.87335 0
M  V30 987 H 87.94 1.09944 -6.0062 0
M  V30 988 H 89.354 -1.13871 -5.61877 0
M  V30 989 H 87.751 -1.92728 -5.6831 0
M  V30 990 H 88.821 -2.23467 -4.30338 0
M  V30 991 N 90.1641 1.46063 -0.591896 0
M  V30 992 C 91.0961 2.28539 0.174001 0
M  V30 993 C 92.1091 1.39047 0.846753 0
M  V30 994 O 93.2981 1.63564 0.714774 0
M  V30 995 C 90.3981 3.14347 1.26645 0
M  V30 996 C 89.5711 4.32021 0.683856 0
M  V30 997 C 88.6301 4.99157 1.66518 0
M  V30 998 O 87.6561 5.56458 1.19763 0
M  V30 999 N 88.8581 4.97005 2.99943 0
M  V30 1000 H 91.6231 2.94911 -0.533633 0
M  V30 1001 H 89.1841 1.56077 -0.430294 0
M  V30 1002 H 91.1761 3.56125 1.92242 0
M  V30 1003 H 89.7461 2.49988 1.87682 0
M  V30 1004 H 88.9661 3.93915 -0.1498 0
M  V30 1005 H 90.2541 5.08059 0.274567 0
M  V30 1006 H 89.6521 4.51714 3.40545 0
M  V30 1007 H 88.2091 5.42696 3.61004 0
M  V30 1008 N 91.6422 0.330177 1.54103 0
M  V30 1009 C 92.8702 -0.272179 2.05102 0
M  V30 1010 C 93.2852 -1.45267 1.20595 0
M  V30 1011 O 92.6422 -1.8094 0.238144 0
M  V30 1012 C 92.6932 -0.70023 3.54653 0
M  V30 1013 O 92.4142 0.433301 4.35952 0
M  V30 1014 C 93.9152 -1.3647 4.21771 0
M  V30 1015 H 91.1352 -0.0549159 0.668749 0
M  V30 1016 H 93.6792 0.478285 1.98828 0
M  V30 1017 H 91.8342 -1.40066 3.61193 0
M  V30 1018 H 92.2482 0.0947539 5.24414 0
M  V30 1019 H 93.7222 -1.61509 5.27843 0
M  V30 1020 H 94.1992 -2.31409 3.73292 0
M  V30 1021 H 94.8052 -0.706675 4.19388 0
M  V30 1022 N 93.1203 -1.57491 0.0584922 0
M  V30 1023 C 94.5363 -1.56792 -0.298091 0
M  V30 1024 C 94.7363 -1.06679 -1.70944 0
M  V30 1025 O 93.7923 -0.726672 -2.41818 0
M  V30 1026 C 95.1053 -3.00461 -0.119879 0
M  V30 1027 C 96.6533 -3.1242 -0.190428 0
M  V30 1028 C 97.1283 -4.57982 -0.0406567 0
M  V30 1029 N 98.6193 -4.63099 -0.0966958 0
M  V30 1030 C 99.3543 -5.734 -0.00502943 0
M  V30 1031 N 98.8503 -6.9266 0.139402 0
M  V30 1032 N 100.643 -5.62067 -0.0611391 0
M  V30 1033 H 92.7943 -1.88386 0.98105 0
M  V30 1034 H 95.0573 -0.867865 0.381463 0
M  V30 1035 H 94.7633 -3.41187 0.85349 0
M  V30 1036 H 94.6373 -3.66843 -0.877833 0
M  V30 1037 H 97.0243 -2.71589 -1.15427 0
M  V30 1038 H 97.1053 -2.48702 0.598405 0
M  V30 1039 H 96.7493 -4.995 0.919897 0
M  V30 1040 H 96.6793 -5.19715 -0.848727 0
M  V30 1041 H 99.1703 -3.77331 -0.207277 0
M  V30 1042 H 99.4833 -7.72536 0.201855 0
M  V30 1043 H 97.8283 -6.94781 0.174586 0
M  V30 1044 H 101.019 -4.67782 -0.172583 0
M  V30 1045 H 101.192 -6.47999 0.0137562 0
M  V30 1046 N 94.5984 0.214957 -1.56127 0
M  V30 1047 C 95.8474 0.936451 -1.78643 0
M  V30 1048 C 96.1604 1.85237 -0.628229 0
M  V30 1049 O 97.3664 2.613 -0.737186 0
M  V30 1050 C 95.8224 1.7154 -3.16389 0
M  V30 1051 C 95.4304 0.845299 -4.39953 0
M  V30 1052 C 97.1744 2.42772 -3.48227 0
M  V30 1053 C 95.0814 1.62198 -5.68723 0
M  V30 1054 H 94.0114 0.353401 -0.666051 0
M  V30 1055 H 96.6624 0.190169 -1.82512 0
M  V30 1056 H 95.0444 2.50484 -3.06715 0
M  V30 1057 H 96.2184 0.0959353 -4.607 0
M  V30 1058 H 94.5334 0.244789 -4.1568 0
M  V30 1059 H 97.1304 3.01394 -4.41663 0
M  V30 1060 H 97.4734 3.15984 -2.71035 0
M  V30 1061 H 98.0064 1.70813 -3.5926 0
M  V30 1062 H 94.7454 0.933011 -6.48826 0
M  V30 1063 H 94.2654 2.34579 -5.52026 0
M  V30 1064 H 95.9444 2.18095 -6.09133 0
M  V30 1065 N 96.0765 1.50051 0.48192 0
M  V30 1066 C 97.0245 1.68635 1.60203 0
M  V30 1067 C 98.0185 0.552184 1.60148 0
M  V30 1068 O 99.2245 0.732377 1.64427 0
M  V30 1069 H 95.5995 0.532081 0.531407 0
M  V30 1070 H 97.5705 2.62616 1.41688 0
M  V30 1071 C 96.3195 1.78775 2.9822 0
M  V30 1072 H 95.6425 2.6543 2.98976 0
M  V30 1073 H 97.0825 1.95806 3.7608 0
M  V30 1074 C 95.5415 0.536849 3.32595 0
M  V30 1075 O 96.0715 -0.328897 4.00351 0
M  V30 1076 N 94.2775 0.394091 2.87915 0
M  V30 1077 H 93.8245 1.09962 2.32951 0
M  V30 1078 H 93.7825 -0.441737 3.11281 0
M  V30 1079 N 97.5546 -0.734337 1.39446 0
M  V30 1080 C 98.4846 -1.86155 1.40955 0
M  V30 1081 C 99.4656 -1.67898 0.272827 0
M  V30 1082 O 100.651 -1.88207 0.478743 0
M  V30 1083 C 97.7806 -3.23912 1.25294 0
M  V30 1084 C 96.7346 -3.56808 2.36373 0
M  V30 1085 C 96.0606 -4.93508 2.058 0
M  V30 1086 C 97.3606 -3.59713 3.78687 0
M  V30 1087 H 99.0546 -1.8515 2.35287 0
M  V30 1088 H 96.6006 -0.889367 1.13253 0
M  V30 1089 H 98.5536 -4.02443 1.2497 0
M  V30 1090 H 97.2776 -3.25446 0.274308 0
M  V30 1091 H 95.9366 -2.80606 2.35914 0
M  V30 1092 H 95.5846 -4.91623 1.06374 0
M  V30 1093 H 95.2846 -5.16486 2.80208 0
M  V30 1094 H 96.8086 -5.74396 2.07128 0
M  V30 1095 H 98.2226 -4.2832 3.81071 0
M  V30 1096 H 96.6196 -3.94209 4.52459 0
M  V30 1097 H 97.6896 -2.59504 4.09617 0
M  V30 1098 N 99.0327 -1.24633 -0.964593 0
M  V30 1099 C 100.258 -1.11596 -1.74818 0
M  V30 1100 C 100.683 0.32723 -1.85232 0
M  V30 1101 O 100.041 1.23695 -1.32549 0
M  V30 1102 C 100.089 -1.76397 -3.1451 0
M  V30 1103 O 99.1927 -1.03685 -3.99153 0
M  V30 1104 H 98.5337 -0.390196 -0.537255 0
M  V30 1105 H 101.064 -1.65002 -1.20977 0
M  V30 1106 H 101.074 -1.8228 -3.65018 0
M  V30 1107 H 99.7487 -2.81401 -3.06246 0
M  V30 1108 H 98.3257 -1.05611 -3.57632 0
M  V30 1109 N 100.511 1.16574 -1.06058 0
M  V30 1110 C 101.927 1.3904 -0.783585 0
M  V30 1111 C 102.127 1.91784 0.618145 0
M  V30 1112 O 101.183 2.11511 1.37911 0
M  V30 1113 C 102.496 2.37329 -1.84649 0
M  V30 1114 C 104.044 2.51018 -1.86973 0
M  V30 1115 C 104.519 3.52588 -2.92311 0
M  V30 1116 N 106.01 3.60113 -2.91329 0
M  V30 1117 C 106.745 4.38486 -3.69482 0
M  V30 1118 N 106.241 5.20302 -4.57447 0
M  V30 1119 N 108.034 4.33446 -3.57885 0
M  V30 1120 H 100.185 0.806725 -1.96483 0
M  V30 1121 H 102.448 0.417117 -0.851303 0
M  V30 1122 H 102.154 2.05663 -2.85299 0
M  V30 1123 H 102.028 3.36946 -1.6955 0
M  V30 1124 H 104.415 2.81989 -0.869827 0
M  V30 1125 H 104.496 1.51445 -2.0615 0
M  V30 1126 H 104.14 3.22354 -3.92492 0
M  V30 1127 H 104.07 4.51886 -2.70383 0
M  V30 1128 H 106.561 3.01707 -2.27555 0
M  V30 1129 H 106.874 5.77311 -5.13743 0
M  V30 1130 H 105.219 5.19653 -4.61503 0
M  V30 1131 H 108.41 3.68586 -2.88551 0
M  V30 1132 H 108.583 4.94279 -4.19037 0
M  V30 1133 N 101.989 0.842826 1.3317 0
M  V30 1134 C 103.214 0.453129 2.02389 0
M  V30 1135 C 103.639 -0.939105 1.6298 0
M  V30 1136 O 102.997 -1.61472 0.8244 0
M  V30 1137 C 103.045 0.586094 3.55805 0
M  V30 1138 O 102.149 -0.386029 4.10589 0
M  V30 1139 H 101.49 0.183664 0.638094 0
M  V30 1140 H 104.02 1.13875 1.69981 0
M  V30 1141 H 104.03 0.469209 4.05293 0
M  V30 1142 H 102.705 1.6014 3.83833 0
M  V30 1143 H 101.282 -0.226371 3.72212 0
M  V30 1144 N 103.467 -1.45747 0.599634 0
M  V30 1145 C 104.43 -2.28917 -0.113835 0
M  V30 1146 C 105.43 -1.3933 -0.802729 0
M  V30 1147 O 106.62 -1.61534 -0.652103 0
M  V30 1148 C 103.752 -3.20152 -1.17114 0
M  V30 1149 H 104.945 -2.93478 0.617289 0
M  V30 1150 H 102.498 -1.52137 0.358327 0
M  V30 1151 H 103.233 -2.60374 -1.93329 0
M  V30 1152 H 103.018 -3.86133 -0.681468 0
M  V30 1153 H 104.508 -3.82708 -1.67105 0
M  V30 1154 N 104.945 -0.338344 -1.53925 0
M  V30 1155 C 105.908 0.508299 -2.23493 0
M  V30 1156 C 106.908 1.03175 -1.23335 0
M  V30 1157 O 108.098 0.921826 -1.47811 0
M  V30 1158 C 105.23 1.70754 -2.95052 0
M  V30 1159 H 106.423 -0.100058 -2.99733 0
M  V30 1160 H 103.976 -0.0896198 -1.56043 0
M  V30 1161 H 104.711 2.35474 -2.22986 0
M  V30 1162 H 104.496 1.33946 -3.68512 0
M  V30 1163 H 105.986 2.30818 -3.48013 0
M  V30 1164 N 106.423 1.57458 -0.0668435 0
M  V30 1165 C 107.839 1.56947 0.289772 0
M  V30 1166 C 108.039 1.07584 1.70376 0
M  V30 1167 O 107.095 0.739486 2.41429 0
M  V30 1168 C 108.408 3.0052 0.103943 0
M  V30 1169 C 109.956 3.12517 0.173857 0
M  V30 1170 C 110.431 4.57997 0.0163682 0
M  V30 1171 N 111.922 4.63144 0.0721352 0
M  V30 1172 C 112.657 5.73394 -0.0253794 0
M  V30 1173 N 112.153 6.92576 -0.176133 0
M  V30 1174 N 113.946 5.62091 0.0313305 0
M  V30 1175 H 106.097 1.87863 -0.991027 0
M  V30 1176 H 108.36 0.86583 -0.38606 0
M  V30 1177 H 108.066 3.40729 -0.871572 0
M  V30 1178 H 107.94 3.67304 0.858366 0
M  V30 1179 H 110.327 2.72197 1.13985 0
M  V30 1180 H 110.408 2.48381 -0.611586 0
M  V30 1181 H 110.052 4.99005 -0.946374 0
M  V30 1182 H 109.982 5.20158 0.821153 0
M  V30 1183 H 112.473 3.77436 0.187263 0
M  V30 1184 H 112.786 7.72418 -0.242821 0
M  V30 1185 H 111.131 6.94678 -0.211429 0
M  V30 1186 H 114.322 4.67867 0.147773 0
M  V30 1187 H 114.495 6.47982 -0.048121 0
M  V30 1188 N 107.901 -0.206675 1.56239 0
M  V30 1189 C 108.834 -1.28383 1.88661 0
M  V30 1190 C 109.812 -1.44504 0.745481 0
M  V30 1191 O 110.996 -1.60079 0.995336 0
M  V30 1192 C 108.123 -2.65211 2.10667 0
M  V30 1193 C 107.169 -2.66025 3.33366 0
M  V30 1194 S 108.002 -2.18609 4.88846 0
M  V30 1195 C 109.158 -3.57283 5.13906 0
M  V30 1196 H 109.391 -1.00691 2.7973 0
M  V30 1197 H 106.924 -0.409627 1.48867 0
M  V30 1198 H 108.882 -3.43979 2.24029 0
M  V30 1199 H 107.543 -2.90121 1.20369 0
M  V30 1200 H 106.736 -3.66607 3.45855 0
M  V30 1201 H 106.338 -1.95331 3.18938 0
M  V30 1202 H 108.63 -4.53074 5.03717 0
M  V30 1203 H 109.573 -3.49699 6.15724 0
M  V30 1204 H 109.981 -3.51659 4.41583 0
M  V30 1205 N 109.379 -1.50304 -0.473955 0
M  V30 1206 C 110.312 -1.63595 -1.59097 0
M  V30 1207 C 111.29 -0.484142 -1.55225 0
M  V30 1208 O 112.474 -0.703271 -1.7489 0
M  V30 1209 C 109.601 -1.61589 -2.97669 0
M  V30 1210 C 108.647 -2.82295 -3.19705 0
M  V30 1211 S 109.48 -4.43635 -2.99913 0
M  V30 1212 C 110.636 -4.44317 -4.40832 0
M  V30 1213 H 110.869 -2.58082 -1.47583 0
M  V30 1214 H 108.402 -1.39531 -0.661087 0
M  V30 1215 H 110.36 -1.61116 -3.7756 0
M  V30 1216 H 109.021 -0.683421 -3.06575 0
M  V30 1217 H 108.214 -2.77188 -4.20931 0
M  V30 1218 H 107.816 -2.8032 -2.47582 0
M  V30 1219 H 110.108 -4.17703 -5.33414 0
M  V30 1220 H 111.051 -5.45911 -4.50984 0
M  V30 1221 H 111.459 -3.74059 -4.22777 0
M  V30 1222 N 110.857 0.726932 -1.39834 0
M  V30 1223 C 111.79 1.8501 -1.33592 0
M  V30 1224 C 112.768 1.61262 -0.208191 0
M  V30 1225 O 113.952 1.84422 -0.389981 0
M  V30 1226 C 111.079 3.21143 -1.07633 0
M  V30 1227 C 110.125 3.63737 -2.22705 0
M  V30 1228 S 110.958 3.72167 -3.85035 0
M  V30 1229 C 112.114 5.11077 -3.61318 0
M  V30 1230 H 112.347 1.90022 -2.28646 0
M  V30 1231 H 109.88 0.892595 -1.25985 0
M  V30 1232 H 111.838 3.99747 -0.933415 0
M  V30 1233 H 110.499 3.13776 -0.142526 0
M  V30 1234 H 109.692 4.62551 -2.00155 0
M  V30 1235 H 109.294 2.9236 -2.33242 0
M  V30 1236 H 111.586 5.97656 -3.19083 0
M  V30 1237 H 112.529 5.38658 -4.59623 0
M  V30 1238 H 112.937 4.81135 -2.95245 0
M  V30 1239 N 112.336 1.25143 0.95797 0
M  V30 1240 C 113.613 1.00472 1.67823 0
M  V30 1241 C 113.993 -0.470056 2.058 0
M  V30 1242 O 113.341 -1.44663 1.76875 0
M  V30 1243 C 113.551 1.9372 2.90299 0
M  V30 1244 C 114.899 2.21371 3.62326 0
M  V30 1245 O 115.923 1.91451 3.00375 0
M  V30 1246 O 114.782 2.72231 4.7387 0
M  V30 1247 H 111.876 0.380752 0.734137 0
M  V30 1248 H 114.422 1.36283 1.01119 0
M  V30 1249 H 113.194 2.93316 2.59001 0
M  V30 1250 H 112.817 1.58286 3.64735 0
M  V30 1251 N 113.814 -1.1601 1.06675 0
M  V30 1252 C 114.777 -2.18724 0.685001 0
M  V30 1253 C 115.777 -1.58496 -0.271246 0
M  V30 1254 O 116.967 -1.74119 -0.0531156 0
M  V30 1255 C 114.099 -3.40899 0.00853648 0
M  V30 1256 H 115.292 -2.54011 1.59431 0
M  V30 1257 H 112.845 -1.30352 0.862441 0
M  V30 1258 H 113.58 -3.11173 -0.913337 0
M  V30 1259 H 113.365 -3.8587 0.696204 0
M  V30 1260 H 114.855 -4.16886 -0.24414 0
M  V30 1261 N 115.292 -0.849877 -1.32721 0
M  V30 1262 C 116.517 -0.463856 -2.02146 0
M  V30 1263 C 116.942 0.930449 -1.63476 0
M  V30 1264 O 116.3 1.61033 -0.832952 0
M  V30 1265 C 116.348 -0.604955 -3.55489 0
M  V30 1266 O 115.452 0.36425 -4.10788 0
M  V30 1267 H 114.793 -0.187046 -0.637111 0
M  V30 1268 H 117.323 -1.14775 -1.69375 0
M  V30 1269 H 117.333 -0.490696 -4.05038 0
M  V30 1270 H 116.008 -1.62174 -3.82978 0
M  V30 1271 H 114.585 0.206628 -3.72327 0
M  V30 1272 N 116.77 1.45427 -0.607355 0
M  V30 1273 C 117.718 2.32269 0.12411 0
M  V30 1274 C 118.712 1.45955 0.859854 0
M  V30 1275 O 119.918 1.6244 0.775447 0
M  V30 1276 H 116.293 0.749691 0.0588839 0
M  V30 1277 H 118.264 2.91743 -0.626762 0
M  V30 1278 C 117.013 3.29567 1.1082 0
M  V30 1279 H 116.336 3.95978 0.551492 0
M  V30 1280 H 117.776 3.93061 1.58995 0
M  V30 1281 C 116.235 2.56722 2.18164 0
M  V30 1282 O 116.765 2.34842 3.25902 0
M  V30 1283 N 114.971 2.16861 1.93442 0
M  V30 1284 H 114.518 2.34855 1.05834 0
M  V30 1285 H 114.476 1.68444 2.65469 0
M  V30 1286 N 118.248 0.346503 1.53744 0
M  V30 1287 C 119.18 -0.543316 2.22667 0
M  V30 1288 C 120.193 -1.06159 1.23427 0
M  V30 1289 O 121.382 -0.971235 1.49764 0
M  V30 1290 C 118.482 -1.76076 2.89569 0
M  V30 1291 C 117.655 -1.37727 4.15151 0
M  V30 1292 C 116.714 -2.45471 4.65436 0
M  V30 1293 O 115.74 -2.08655 5.29577 0
M  V30 1294 N 116.942 -3.7677 4.41616 0
M  V30 1295 H 119.707 0.0469703 2.99663 0
M  V30 1296 H 117.268 0.170766 1.60997 0
M  V30 1297 H 119.26 -2.47593 3.20125 0
M  V30 1298 H 117.83 -2.25835 2.16142 0
M  V30 1299 H 117.05 -0.492746 3.91108 0
M  V30 1300 H 118.338 -1.09708 4.96832 0
M  V30 1301 H 117.736 -4.09467 3.90325 0
M  V30 1302 H 116.293 -4.44448 4.7677 0
M  V30 1303 N 119.726 -1.57421 0.075193 0
M  V30 1304 C 120.658 -2.09904 -0.920483 0
M  V30 1305 C 121.671 -1.03191 -1.25918 0
M  V30 1306 O 122.86 -1.30695 -1.21577 0
M  V30 1307 C 119.96 -2.54726 -2.23534 0
M  V30 1308 C 119.133 -3.8505 -2.07498 0
M  V30 1309 C 118.192 -4.15929 -3.22319 0
M  V30 1310 O 117.218 -4.85474 -2.9716 0
M  V30 1311 N 118.42 -3.69745 -4.47514 0
M  V30 1312 H 121.185 -2.95954 -0.472359 0
M  V30 1313 H 118.746 -1.61523 -0.110444 0
M  V30 1314 H 120.738 -2.72443 -2.9926 0
M  V30 1315 H 119.308 -1.73795 -2.59835 0
M  V30 1316 H 118.528 -3.76679 -1.16219 0
M  V30 1317 H 119.816 -4.70348 -1.94038 0
M  V30 1318 H 119.214 -3.13569 -4.7084 0
M  V30 1319 H 117.771 -3.92655 -5.20255 0
M  V30 1320 N 121.204 0.198386 -1.56346 0
M  V30 1321 C 122.429 0.939682 -1.84891 0
M  V30 1322 C 122.854 1.76202 -0.658369 0
M  V30 1323 O 122.212 1.76993 0.392851 0
M  V30 1324 C 122.26 1.81428 -3.11635 0
M  V30 1325 O 121.364 2.91265 -2.91956 0
M  V30 1326 H 120.705 0.264807 -0.608912 0
M  V30 1327 H 123.235 0.204695 -2.03573 0
M  V30 1328 H 123.245 2.21958 -3.42343 0
M  V30 1329 H 121.92 1.21004 -3.97908 0
M  V30 1330 H 120.497 2.54514 -2.72538 0
M  V30 1331 N 122.682 1.50554 0.465978 0
M  V30 1332 C 123.907 1.65838 1.24549 0
M  V30 1333 C 124.332 0.343486 1.84937 0
M  V30 1334 O 123.69 -0.69324 1.67523 0
M  V30 1335 C 123.738 2.75533 2.32624 0
M  V30 1336 O 122.842 2.37142 3.37398 0
M  V30 1337 H 122.183 0.553893 0.366194 0
M  V30 1338 H 124.713 1.96959 0.553927 0
M  V30 1339 H 124.723 2.98763 2.77857 0
M  V30 1340 H 123.398 3.70962 1.88043 0
M  V30 1341 H 121.975 2.24377 2.97841 0
M  V30 1342 N 124.16 -0.719506 1.40217 0
M  V30 1343 C 125.123 -1.8153 1.39927 0
M  V30 1344 C 126.123 -1.58095 0.293723 0
M  V30 1345 O 127.313 -1.65209 0.552429 0
M  V30 1346 C 124.445 -3.19561 1.18716 0
M  V30 1347 H 125.638 -1.83186 2.37451 0
M  V30 1348 H 123.191 -0.924746 1.26008 0
M  V30 1349 H 123.926 -3.23557 0.219366 0
M  V30 1350 H 123.711 -3.3797 1.98793 0
M  V30 1351 H 125.201 -3.99598 1.21291 0
M  V30 1352 N 125.638 -1.25649 -0.95132 0
M  V30 1353 C 126.585 -1.06323 -2.04851 0
M  V30 1354 C 127.555 0.0286491 -1.66075 0
M  V30 1355 O 128.74 -0.12917 -1.90362 0
M  V30 1356 C 125.88 -0.691529 -3.381 0
M  V30 1357 C 124.993 -1.85861 -3.89974 0
M  V30 1358 C 124.128 -1.43096 -5.11563 0
M  V30 1359 C 123.167 -2.56696 -5.55674 0
M  V30 1360 N 122.304 -2.14684 -6.68472 0
M  V30 1361 H 127.144 -2.00222 -2.20715 0
M  V30 1362 H 124.681 -0.997027 -1.08156 0
M  V30 1363 H 126.639 -0.456963 -4.1469 0
M  V30 1364 H 125.269 0.210474 -3.22113 0
M  V30 1365 H 124.321 -2.20639 -3.09875 0
M  V30 1366 H 125.633 -2.71161 -4.18657 0
M  V30 1367 H 124.787 -1.15624 -5.9558 0
M  V30 1368 H 123.526 -0.548722 -4.84603 0
M  V30 1369 H 122.531 -2.84909 -4.7022 0
M  V30 1370 H 123.756 -3.45503 -5.8464 0
M  V30 1371 H 121.702 -1.28881 -6.43215 0
M  V30 1372 H 121.619 -2.9353 -6.96689 0
M  V30 1373 H 122.887 -1.90397 -7.5589 0
M  V30 1374 N 127.117 1.15442 -1.07289 0
M  V30 1375 C 128.345 1.90096 -0.81676 0
M  V30 1376 C 128.76 1.7798 0.629966 0
M  V30 1377 O 128.117 1.1313 1.43206 0
M  V30 1378 C 128.168 3.40466 -1.21512 0
M  V30 1379 O 127.889 3.52232 -2.60508 0
M  V30 1380 C 129.39 4.32145 -0.988198 0
M  V30 1381 H 126.61 0.602495 -0.295366 0
M  V30 1382 H 129.154 1.4627 -1.42918 0
M  V30 1383 H 127.309 3.81958 -0.647039 0
M  V30 1384 H 127.723 4.45549 -2.76742 0
M  V30 1385 H 129.197 5.36072 -1.31645 0
M  V30 1386 H 129.674 4.39135 0.0755063 0
M  V30 1387 H 130.28 3.96395 -1.54115 0
M  V30 1388 N 128.595 0.856903 1.32268 0
M  V30 1389 C 129.872 0.382583 1.91822 0
M  V30 1390 C 130.252 -1.13407 1.78051 0
M  V30 1391 O 129.6 -1.95673 1.18001 0
M  V30 1392 C 129.81 0.849446 3.38505 0
M  V30 1393 C 131.158 0.867936 4.15634 0
M  V30 1394 O 132.182 0.794232 3.47232 0
M  V30 1395 O 131.041 0.972286 5.37781 0
M  V30 1396 H 128.135 0.112014 0.819379 0
M  V30 1397 H 130.681 0.943952 1.41024 0
M  V30 1398 H 129.453 1.89267 3.42482 0
M  V30 1399 H 129.076 0.265652 3.96712 0
M  V30 1400 N 130.073 -1.45103 0.615059 0
M  V30 1401 C 131.003 -2.33339 -0.0865619 0
M  V30 1402 C 131.984 -1.4727 -0.851209 0
M  V30 1403 O 133.169 -1.76026 -0.820281 0
M  V30 1404 C 130.299 -3.30095 -1.07956 0
M  V30 1405 C 129.253 -4.25858 -0.427628 0
M  V30 1406 C 128.579 -5.12361 -1.5294 0
M  V30 1407 C 129.879 -5.18165 0.655944 0
M  V30 1408 H 131.573 -2.92254 0.650224 0
M  V30 1409 H 129.119 -1.40532 0.314138 0
M  V30 1410 H 131.072 -3.90698 -1.57901 0
M  V30 1411 H 129.796 -2.69355 -1.84703 0
M  V30 1412 H 128.455 -3.66564 0.0510292 0
M  V30 1413 H 128.103 -4.47984 -2.28734 0
M  V30 1414 H 127.803 -5.77238 -1.09865 0
M  V30 1415 H 129.327 -5.75833 -2.03098 0
M  V30 1416 H 130.741 -5.72796 0.240257 0
M  V30 1417 H 129.138 -5.91559 1.00888 0
M  V30 1418 H 130.208 -4.60144 1.52957 0
M  V30 1419 N 131.551 -0.354651 -1.53558 0
M  V30 1420 C 132.481 0.489091 -2.2832 0
M  V30 1421 C 133.462 1.09324 -1.30316 0
M  V30 1422 O 134.647 1.11255 -1.59173 0
M  V30 1423 C 131.777 1.63456 -3.0643 0
M  V30 1424 C 130.731 1.1582 -4.12031 0
M  V30 1425 C 130.057 2.39305 -4.7816 0
M  V30 1426 C 131.357 0.250731 -5.21698 0
M  V30 1427 H 133.051 -0.134614 -2.99097 0
M  V30 1428 H 130.597 -0.0661826 -1.43848 0
M  V30 1429 H 132.55 2.23136 -3.57475 0
M  V30 1430 H 131.274 2.28533 -2.33325 0
M  V30 1431 H 129.933 0.584146 -3.61916 0
M  V30 1432 H 129.581 3.02814 -4.01637 0
M  V30 1433 H 129.281 2.08109 -5.49513 0
M  V30 1434 H 130.805 2.99691 -5.31994 0
M  V30 1435 H 132.219 0.754695 -5.68311 0
M  V30 1436 H 130.616 0.0301468 -6.00092 0
M  V30 1437 H 131.686 -0.710125 -4.79672 0
M  V30 1438 N 133.029 1.57378 -0.0835403 0
M  V30 1439 C 133.961 2.10389 0.909338 0
M  V30 1440 C 134.974 1.03858 1.25369 0
M  V30 1441 O 136.163 1.31338 1.20882 0
M  V30 1442 C 133.263 2.55908 2.2218 0
M  V30 1443 C 132.436 3.86145 2.05453 0
M  V30 1444 C 131.495 4.17633 3.20108 0
M  V30 1445 O 130.521 4.87043 2.94581 0
M  V30 1446 N 131.723 3.72113 4.45547 0
M  V30 1447 H 134.488 2.962 0.456657 0
M  V30 1448 H 132.049 1.61579 0.101877 0
M  V30 1449 H 134.041 2.74027 2.97811 0
M  V30 1450 H 132.611 1.75171 2.58909 0
M  V30 1451 H 131.831 3.7729 1.1422 0
M  V30 1452 H 133.119 4.7137 1.91541 0
M  V30 1453 H 132.517 3.16062 4.69171 0
M  V30 1454 H 131.074 3.95409 5.18165 0
M  V30 1455 N 134.507 -0.190092 1.56449 0
M  V30 1456 C 135.455 -1.25501 1.95837 0
M  V30 1457 C 136.449 -1.4685 0.844485 0
M  V30 1458 O 137.655 -1.47651 1.02952 0
M  V30 1459 H 134.03 -0.421447 0.622805 0
M  V30 1460 H 136.001 -0.895821 2.84636 0
M  V30 1461 C 134.75 -2.59124 2.31841 0
M  V30 1462 H 134.073 -2.43514 3.17082 0
M  V30 1463 H 135.513 -3.32371 2.6326 0
M  V30 1464 C 133.972 -3.16488 1.15486 0
M  V30 1465 O 134.502 -3.99365 0.432535 0
M  V30 1466 N 132.708 -2.75305 0.930349 0
M  V30 1467 H 132.255 -2.08013 1.51948 0
M  V30 1468 H 132.213 -3.14024 0.153634 0
M  V30 1469 N 135.985 -1.50799 -0.457987 0
M  V30 1470 C 136.948 -1.7005 -1.53674 0
M  V30 1471 C 137.948 -0.570881 -1.50325 0
M  V30 1472 O 139.138 -0.838126 -1.52712 0
M  V30 1473 C 136.27 -1.73788 -2.93276 0
M  V30 1474 H 137.463 -2.66306 -1.37917 0
M  V30 1475 H 135.016 -1.40477 -0.685271 0
M  V30 1476 H 135.751 -0.792717 -3.14462 0
M  V30 1477 H 135.536 -2.55864 -2.97113 0
M  V30 1478 H 137.026 -1.90591 -3.71571 0
M  V30 1479 N 137.463 0.71206 -1.40597 0
M  V30 1480 C 138.41 1.82613 -1.41142 0
M  V30 1481 C 139.38 1.63925 -0.267903 0
M  V30 1482 O 140.565 1.85009 -0.466495 0
M  V30 1483 C 137.705 3.20354 -1.28324 0
M  V30 1484 C 136.818 3.50589 -2.52411 0
M  V30 1485 C 135.953 4.77855 -2.32009 0
M  V30 1486 C 134.992 5.01005 -3.51654 0
M  V30 1487 N 134.129 6.19487 -3.30425 0
M  V30 1488 H 138.969 1.81482 -2.36365 0
M  V30 1489 H 136.506 0.886475 -1.17388 0
M  V30 1490 H 138.464 3.99899 -1.18899 0
M  V30 1491 H 137.094 3.20705 -0.367189 0
M  V30 1492 H 136.146 2.65573 -2.72351 0
M  V30 1493 H 137.458 3.63604 -3.41458 0
M  V30 1494 H 136.612 5.65424 -2.19956 0
M  V30 1495 H 135.351 4.67056 -1.40392 0
M  V30 1496 H 134.356 4.1189 -3.64179 0
M  V30 1497 H 135.581 5.13674 -4.44202 0
M  V30 1498 H 133.527 6.09932 -2.41494 0
M  V30 1499 H 133.444 6.33194 -4.13039 0
M  V30 1500 H 134.712 7.09834 -3.22113 0
M  V30 1501 N 138.941 1.26152 0.944643 0
M  V30 1502 C 140.169 1.14259 1.72489 0
M  V30 1503 C 140.584 -0.302555 1.8636 0
M  V30 1504 O 139.941 -1.20741 1.36849 0
M  V30 1505 C 139.992 1.80266 3.13347 0
M  V30 1506 O 139.713 3.19133 3.00143 0
M  V30 1507 C 141.214 1.74283 4.07603 0
M  V30 1508 H 138.434 0.398051 0.540181 0
M  V30 1509 H 140.978 1.66706 1.18446 0
M  V30 1510 H 139.133 1.31766 3.64303 0
M  V30 1511 H 139.547 3.51744 3.89071 0
M  V30 1512 H 141.021 2.25111 5.04013 0
M  V30 1513 H 141.498 0.708631 4.33446 0
M  V30 1514 H 142.104 2.22319 3.62567 0
M  V30 1515 N 140.419 -1.14872 1.07899 0
M  V30 1516 C 141.647 -1.89661 0.82683 0
M  V30 1517 C 142.062 -1.78312 -0.620519 0
M  V30 1518 O 141.419 -1.13888 -1.42604 0
M  V30 1519 C 141.47 -3.39817 1.23316 0
M  V30 1520 O 141.191 -3.50845 2.62372 0
M  V30 1521 C 142.692 -4.31615 1.0111 0
M  V30 1522 H 139.912 -0.60092 0.298557 0
M  V30 1523 H 142.456 -1.4551 1.43691 0
M  V30 1524 H 140.611 -3.8161 0.667286 0
M  V30 1525 H 141.025 -4.44076 2.79101 0
M  V30 1526 H 142.499 -5.35367 1.34486 0
M  V30 1527 H 142.976 -4.39169 -0.0522168 0
M  V30 1528 H 143.582 -3.95572 1.56215 0
M  V30 1529 N 141.898 -0.863906 -1.31812 0
M  V30 1530 C 142.828 -0.330843 -2.31144 0
M  V30 1531 C 143.809 0.575005 -1.60087 0
M  V30 1532 O 144.994 0.493304 -1.8783 0
M  V30 1533 C 142.124 0.47374 -3.44054 0
M  V30 1534 C 141.078 -0.338481 -4.26659 0
M  V30 1535 C 140.404 0.591412 -5.31419 0
M  V30 1536 C 141.704 -1.56926 -4.98168 0
M  V30 1537 H 143.398 -1.16086 -2.75979 0
M  V30 1538 H 140.944 -0.559657 -1.32679 0
M  V30 1539 H 142.897 0.857143 -4.12591 0
M  V30 1540 H 141.621 1.33721 -2.9797 0
M  V30 1541 H 140.28 -0.703754 -3.59782 0
M  V30 1542 H 139.928 1.45199 -4.81587 0
M  V30 1543 H 139.628 0.0519022 -5.87577 0
M  V30 1544 H 141.152 0.97179 -6.02817 0
M  V30 1545 H 142.566 -1.25764 -5.59336 0
M  V30 1546 H 140.963 -2.04739 -5.64094 0
M  V30 1547 H 142.033 -2.32544 -4.25501 0
M  V30 1548 N 143.376 1.44774 -0.622745 0
M  V30 1549 C 144.339 2.29069 0.0774015 0
M  V30 1550 C 145.339 1.4059 0.780461 0
M  V30 1551 O 146.529 1.62551 0.626322 0
M  V30 1552 C 143.661 3.21974 1.12006 0
M  V30 1553 H 144.854 2.92459 -0.663901 0
M  V30 1554 H 142.407 1.51548 -0.382486 0
M  V30 1555 H 143.142 2.63417 1.89162 0
M  V30 1556 H 142.927 3.87168 0.619951 0
M  V30 1557 H 144.417 3.85318 1.60995 0
M  V30 1558 N 144.854 0.36279 1.53368 0
M  V30 1559 C 145.786 -0.519668 2.23231 0
M  V30 1560 C 146.799 -1.04844 1.24546 0
M  V30 1561 O 147.988 -0.955296 1.50786 0
M  V30 1562 C 145.088 -1.72995 2.9142 0
M  V30 1563 C 144.261 -1.33316 4.16588 0
M  V30 1564 C 143.32 -2.40521 4.68013 0
M  V30 1565 O 142.346 -2.03027 5.3176 0
M  V30 1566 N 143.548 -3.72065 4.45587 0
M  V30 1567 H 146.313 0.078751 2.99597 0
M  V30 1568 H 143.874 0.187833 1.60807 0
M  V30 1569 H 145.866 -2.44184 3.22733 0
M  V30 1570 H 144.436 -2.2353 2.18525 0
M  V30 1571 H 143.656 -0.451236 3.91609 0
M  V30 1572 H 144.944 -1.04432 4.97967 0
M  V30 1573 H 144.342 -4.05304 3.94646 0
M  V30 1574 H 142.899 -4.39366 4.81457 0
M  V30 1575 N 146.332 -1.57332 0.0918853 0
M  V30 1576 C 147.295 -2.12708 -0.85369 0
M  V30 1577 C 148.295 -1.05561 -1.213 0
M  V30 1578 O 149.485 -1.31461 -1.14296 0
M  V30 1579 C 146.617 -2.64503 -2.15061 0
M  V30 1580 H 147.81 -2.97573 -0.3729 0
M  V30 1581 H 145.363 -1.55509 -0.157072 0
M  V30 1582 H 146.098 -1.83149 -2.67632 0
M  V30 1583 H 145.883 -3.4284 -1.90272 0
M  V30 1584 H 147.373 -3.07351 -2.82711 0
M  V30 1585 N 147.81 0.181792 -1.56548 0
M  V30 1586 C 148.773 1.20894 -1.94724 0
M  V30 1587 C 149.773 1.37738 -0.829747 0
M  V30 1588 O 150.963 1.35323 -1.09697 0
M  V30 1589 C 148.095 2.57593 -2.23291 0
M  V30 1590 H 149.288 0.882275 -2.86629 0
M  V30 1591 H 146.841 0.423838 -1.50444 0
M  V30 1592 H 147.576 2.95291 -1.34067 0
M  V30 1593 H 147.361 2.46735 -3.04736 0
M  V30 1594 H 148.851 3.31637 -2.53785 0
M  V30 1595 N 149.288 1.51039 0.449983 0
M  V30 1596 C 150.251 1.70863 1.5277 0
M  V30 1597 C 151.251 0.578846 1.5002 0
M  V30 1598 O 152.441 0.846213 1.52266 0
M  V30 1599 C 149.573 1.75341 2.9235 0
M  V30 1600 H 150.766 2.67034 1.36502 0
M  V30 1601 H 148.319 1.40838 0.677812 0
M  V30 1602 H 149.054 0.809383 3.14037 0
M  V30 1603 H 148.839 2.57436 2.95752 0
M  V30 1604 H 150.329 1.92559 3.70555 0
M  V30 1605 N 150.766 -0.704594 1.40972 0
M  V30 1606 C 151.716 -1.81051 1.38581 0
M  V30 1607 C 152.7 -1.58759 0.261585 0
M  V30 1608 O 153.892 -1.69745 0.501556 0
M  V30 1609 C 151.021 -3.19279 1.26157 0
M  V30 1610 C 150.107 -3.47296 2.43405 0
M  V30 1611 N 150.498 -3.46064 3.68881 0
M  V30 1612 C 148.796 -3.77804 2.37023 0
M  V30 1613 C 149.497 -3.72733 4.46592 0
M  V30 1614 N 148.473 -3.9203 3.76581 0
M  V30 1615 H 152.275 -1.78448 2.33525 0
M  V30 1616 H 149.789 -0.904198 1.349 0
M  V30 1617 H 151.786 -3.98488 1.22526 0
M  V30 1618 H 150.446 -3.231 0.321902 0
M  V30 1619 H 151.457 -3.26656 4.01891 0
M  V30 1620 H 148.134 -3.8905 1.51481 0
M  V30 1621 H 149.524 -3.77993 5.55492 0
M  V30 1622 N 152.244 -1.26651 -0.937939 0
M  V30 1623 C 153.474 -1.15006 -1.71631 0
M  V30 1624 C 153.882 0.297026 -1.86854 0
M  V30 1625 O 153.225 1.21493 -1.37786 0
M  V30 1626 C 153.287 -1.74984 -3.14039 0
M  V30 1627 C 152.951 -3.24103 -3.2219 0
M  V30 1628 C 153.948 -4.20877 -3.05219 0
M  V30 1629 C 151.633 -3.64625 -3.45476 0
M  V30 1630 C 153.627 -5.56151 -3.11408 0
M  V30 1631 C 151.314 -5.00032 -3.513 0
M  V30 1632 C 152.312 -5.95604 -3.34282 0
M  V30 1633 O 152 -7.28545 -3.3982 0
M  V30 1634 H 151.732 -0.401183 -0.544085 0
M  V30 1635 H 154.286 -1.67832 -1.18413 0
M  V30 1636 H 152.516 -1.16624 -3.68695 0
M  V30 1637 H 154.205 -1.58199 -3.73802 0
M  V30 1638 H 154.971 -3.90908 -2.87081 0
M  V30 1639 H 150.85 -2.90718 -3.57777 0
M  V30 1640 H 154.394 -6.30727 -2.98043 0
M  V30 1641 H 150.291 -5.29659 -3.68959 0
M  V30 1642 H 151.059 -7.3686 -3.56343 0
M  V30 1643 N 153.722 1.14298 -1.08507 0
M  V30 1644 C 154.685 2.17607 -0.719711 0
M  V30 1645 C 155.685 1.58907 0.245997 0
M  V30 1646 O 156.875 1.74181 0.0254081 0
M  V30 1647 C 154.007 3.40842 -0.0627695 0
M  V30 1648 H 155.2 2.51443 -1.63452 0
M  V30 1649 H 152.753 1.28963 -0.88307 0
M  V30 1650 H 153.488 3.12587 0.863716 0
M  V30 1651 H 153.273 3.84713 -0.757504 0
M  V30 1652 H 154.763 4.17221 0.177786 0
M  V30 1653 N 155.201 0.870884 1.31352 0
M  V30 1654 C 156.149 0.316445 2.30437 0
M  V30 1655 C 157.143 -0.568965 1.59559 0
M  V30 1656 O 158.349 -0.454964 1.74155 0
M  V30 1657 H 154.724 0.0836521 0.747333 0
M  V30 1658 H 156.695 1.16606 2.74673 0
M  V30 1659 C 155.444 -0.46635 3.44558 0
M  V30 1660 H 154.767 0.205687 3.99271 0
M  V30 1661 H 156.207 -0.819614 4.16003 0
M  V30 1662 C 154.666 -1.65797 2.9328 0
M  V30 1663 O 155.196 -2.75728 2.92125 0
M  V30 1664 N 153.402 -1.49041 2.4947 0
M  V30 1665 H 152.949 -0.59612 2.50608 0
M  V30 1666 H 152.907 -2.28911 2.15516 0
M  V30 1667 N 156.679 -1.44442 0.630414 0
M  V30 1668 C 157.926 -2.02052 0.134617 0
M  V30 1669 C 158.254 -1.49576 -1.24327 0
M  V30 1670 O 157.509 -0.669806 -1.83881 0
M  V30 1671 C 157.808 -3.57332 0.0697835 0
M  V30 1672 C 157.474 -4.29058 1.38635 0
M  V30 1673 C 156.136 -4.4837 1.74694 0
M  V30 1674 C 158.488 -4.69872 2.25543 0
M  V30 1675 C 155.816 -5.05756 2.97369 0
M  V30 1676 C 158.168 -5.28616 3.47487 0
M  V30 1677 C 156.832 -5.46147 3.8377 0
M  V30 1678 H 156.102 -0.739361 0.0492598 0
M  V30 1679 H 158.749 -1.73217 0.816586 0
M  V30 1680 H 157.054 -3.85577 -0.695553 0
M  V30 1681 H 158.751 -3.99637 -0.330344 0
M  V30 1682 H 155.341 -4.14357 1.09574 0
M  V30 1683 H 159.525 -4.54666 1.98979 0
M  V30 1684 H 154.781 -5.17515 3.25558 0
M  V30 1685 H 158.955 -5.59192 4.15063 0
M  V30 1686 H 156.582 -5.9038 4.7891 0
M  V30 1687 N 158.157 -0.370918 -1.53173 0
M  V30 1688 C 159.104 0.473035 -2.259 0
M  V30 1689 C 160.074 1.07311 -1.26781 0
M  V30 1690 O 161.259 1.1046 -1.55574 0
M  V30 1691 C 158.399 1.60405 -3.05556 0
M  V30 1692 C 157.512 1.02863 -4.19575 0
M  V30 1693 C 156.647 2.12918 -4.86661 0
M  V30 1694 C 155.686 1.52869 -5.92704 0
M  V30 1695 N 154.823 2.56779 -6.53459 0
M  V30 1696 H 159.663 -0.153649 -2.97604 0
M  V30 1697 H 157.2 -0.0875946 -1.46839 0
M  V30 1698 H 159.158 2.27034 -3.50016 0
M  V30 1699 H 157.788 2.20131 -2.36097 0
M  V30 1700 H 156.84 0.252465 -3.79561 0
M  V30 1701 H 158.152 0.549642 -4.95762 0
M  V30 1702 H 157.306 2.87356 -5.34333 0
M  V30 1703 H 156.045 2.6417 -4.09958 0
M  V30 1704 H 155.05 0.769479 -5.44389 0
M  V30 1705 H 156.275 1.02435 -6.7133 0
M  V30 1706 H 154.221 3.07235 -5.79606 0
M  V30 1707 H 154.138 2.13583 -7.25202 0
M  V30 1708 H 155.406 3.30903 -7.05779 0
M  V30 1709 N 159.635 1.57281 -0.100228 0
M  V30 1710 C 160.583 2.15542 0.874328 0
M  V30 1711 C 161.577 1.09962 1.28859 0
M  V30 1712 O 162.783 1.28298 1.26252 0
M  V30 1713 H 159.158 0.689567 0.300003 0
M  V30 1714 H 161.129 2.96241 0.35829 0
M  V30 1715 C 159.878 2.75454 2.1218 0
M  V30 1716 H 159.201 3.56384 1.81193 0
M  V30 1717 H 160.641 3.19781 2.78417 0
M  V30 1718 C 159.1 1.71602 2.89921 0
M  V30 1719 O 159.63 1.15804 3.84646 0
M  V30 1720 N 157.836 1.41975 2.53558 0
M  V30 1721 H 157.383 1.87539 1.76598 0
M  V30 1722 H 157.341 0.727274 3.05873 0
M  V30 1723 N 161.113 -0.173488 1.56642 0
M  V30 1724 C 162.046 -1.24353 1.91342 0
M  V30 1725 C 163.024 -1.4289 0.775965 0
M  V30 1726 O 164.208 -1.57932 1.02907 0
M  V30 1727 C 161.335 -2.60683 2.16245 0
M  V30 1728 C 160.381 -2.58894 3.38934 0
M  V30 1729 S 161.214 -2.0819 4.93373 0
M  V30 1730 C 162.37 -3.46302 5.21369 0
M  V30 1731 H 162.603 -0.947345 2.81803 0
M  V30 1732 H 160.136 -0.377958 1.49703 0
M  V30 1733 H 162.094 -3.39149 2.31275 0
M  V30 1734 H 160.755 -2.87502 1.26496 0
M  V30 1735 H 159.948 -3.59188 3.53553 0
M  V30 1736 H 159.55 -1.88522 3.2301 0
M  V30 1737 H 161.842 -4.42287 5.13214 0
M  V30 1738 H 162.785 -3.3656 6.23003 0
M  V30 1739 H 163.193 -3.42214 4.48943 0
M  V30 1740 N 162.591 -1.51276 -0.441967 0
M  V30 1741 C 163.819 -1.67516 -1.21434 0
M  V30 1742 C 164.234 -0.37055 -1.85128 0
M  V30 1743 O 163.591 0.650498 -1.70513 0
M  V30 1744 C 163.642 -2.78748 -2.30177 0
M  V30 1745 O 163.363 -4.04154 -1.69089 0
M  V30 1746 C 164.864 -3.06217 -3.20541 0
M  V30 1747 H 162.084 -0.562276 -0.366178 0
M  V30 1748 H 164.628 -1.97666 -0.524244 0
M  V30 1749 H 162.783 -2.5121 -2.94911 0
M  V30 1750 H 163.197 -4.65894 -2.40922 0
M  V30 1751 H 164.671 -3.8764 -3.92987 0
M  V30 1752 H 165.148 -2.18439 -3.81026 0
M  V30 1753 H 165.754 -3.35397 -2.61513 0
M  V30 1754 N 164.069 0.697108 -1.41344 0
M  V30 1755 C 165.48 1.27697 -1.36199 0
M  V30 1756 C 165.831 1.9615 -0.0443463 0
M  V30 1757 O 164.956 1.98689 0.857419 0
M  V30 1758 C 165.551 2.32223 -2.46694 0
M  V30 1759 C 164.11 2.8579 -2.44952 0
M  V30 1760 C 163.257 1.59807 -2.26621 0
M  V30 1761 H 166.208 0.491968 -1.50882 0
M  V30 1762 H 166.229 3.1348 -2.15664 0
M  V30 1763 H 165.741 1.82373 -3.42581 0
M  V30 1764 H 163.842 3.3982 -1.52817 0
M  V30 1765 H 163.955 3.36325 -3.41207 0
M  V30 1766 H 162.319 1.8556 -1.7447 0
M  V30 1767 H 163.102 1.11956 -3.24532 0
M  V30 1768 N 165.547 1.27147 0.931209 0
M  V30 1769 C 166.477 1.12081 2.04842 0
M  V30 1770 C 167.458 0.0232364 1.70084 0
M  V30 1771 O 168.643 0.197085 1.93197 0
M  V30 1772 C 165.773 0.76354 3.38803 0
M  V30 1773 C 164.727 1.81396 3.87659 0
M  V30 1774 C 164.053 1.31075 5.18385 0
M  V30 1775 C 165.353 3.21739 4.11438 0
M  V30 1776 H 167.047 2.05537 2.17703 0
M  V30 1777 H 164.593 0.989603 1.04608 0
M  V30 1778 H 166.546 0.644982 4.16435 0
M  V30 1779 H 165.27 -0.206727 3.25945 0
M  V30 1780 H 163.929 1.92136 3.12217 0
M  V30 1781 H 163.577 0.330037 5.01916 0
M  V30 1782 H 163.277 2.013 5.52044 0
M  V30 1783 H 164.801 1.20506 5.98591 0
M  V30 1784 H 166.215 3.14019 4.79651 0
M  V30 1785 H 164.612 3.89644 4.56397 0
M  V30 1786 H 165.682 3.67054 3.16859 0
M  V30 1787 N 167.025 -1.13721 1.09112 0
M  V30 1788 C 168.436 -1.6648 0.845068 0
M  V30 1789 C 168.787 -1.85911 -0.62701 0
M  V30 1790 O 167.912 -1.57556 -1.48341 0
M  V30 1791 C 168.507 -3.02413 1.52748 0
M  V30 1792 C 167.066 -3.52176 1.32849 0
M  V30 1793 C 166.213 -2.27492 1.58564 0
M  V30 1794 H 169.164 -0.976872 1.25072 0
M  V30 1795 H 169.185 -3.68223 0.958752 0
M  V30 1796 H 168.697 -2.88238 2.59885 0
M  V30 1797 H 166.798 -3.7156 0.278137 0
M  V30 1798 H 166.911 -4.32499 2.0611 0
M  V30 1799 H 165.275 -2.33923 1.00758 0
M  V30 1800 H 166.058 -2.15886 2.66924 0
M  V30 1801 N 168.503 -0.877838 -1.30888 0
M  V30 1802 C 169.466 -0.344265 -2.266 0
M  V30 1803 C 170.466 0.50922 -1.52524 0
M  V30 1804 O 171.656 0.317398 -1.71284 0
M  V30 1805 C 168.788 0.510198 -3.37061 0
M  V30 1806 H 169.981 -1.1893 -2.7531 0
M  V30 1807 H 167.534 -0.654088 -1.41956 0
M  V30 1808 H 168.269 1.37612 -2.93655 0
M  V30 1809 H 168.054 -0.101047 -3.9197 0
M  V30 1810 H 169.544 0.875537 -4.08319 0
M  V30 1811 N 169.982 1.44106 -0.638065 0
M  V30 1812 C 170.915 2.27924 0.112161 0
M  V30 1813 C 171.893 1.38945 0.844574 0
M  V30 1814 O 173.077 1.68386 0.847248 0
M  V30 1815 C 170.204 3.18029 1.16512 0
M  V30 1816 C 169.25 4.23163 0.532458 0
M  V30 1817 S 170.083 5.31131 -0.682666 0
M  V30 1818 C 171.239 6.24805 0.37013 0
M  V30 1819 H 171.472 2.91205 -0.598887 0
M  V30 1820 H 169.005 1.48394 -0.426441 0
M  V30 1821 H 170.963 3.70492 1.76766 0
M  V30 1822 H 169.624 2.53955 1.8484 0
M  V30 1823 H 168.817 4.86252 1.32571 0
M  V30 1824 H 168.419 3.74 0.00437644 0
M  V30 1825 H 170.711 6.66042 1.24071 0
M  V30 1826 H 171.654 7.07741 -0.225349 0
M  V30 1827 H 172.062 5.60154 0.699141 0
M  V30 1828 N 171.46 0.379036 1.52974 0
M  V30 1829 C 172.423 -0.448865 2.24762 0
M  V30 1830 C 173.423 -0.998689 1.26027 0
M  V30 1831 O 174.613 -0.882313 1.50203 0
M  V30 1832 C 171.745 -1.62872 2.99476 0
M  V30 1833 H 172.938 0.179491 2.99362 0
M  V30 1834 H 170.491 0.13096 1.5575 0
M  V30 1835 H 171.226 -2.29479 2.29151 0
M  V30 1836 H 171.011 -1.24128 3.71934 0
M  V30 1837 H 172.501 -2.2151 3.5401 0
M  V30 1838 N 172.938 -1.57226 0.108567 0
M  V30 1839 C 173.848 -2.18292 -0.859401 0
M  V30 1840 C 174.864 -1.15612 -1.30038 0
M  V30 1841 O 176.04 -1.48039 -1.36552 0
M  V30 1842 C 173.105 -2.762 -2.09558 0
M  V30 1843 C 172.166 -3.93881 -1.70752 0
M  V30 1844 C 171.399 -4.49018 -2.88477 0
M  V30 1845 O 171.622 -4.03068 -4.036 0
M  V30 1846 O 170.556 -5.39852 -2.66164 0
M  V30 1847 H 174.382 -3.01441 -0.369769 0
M  V30 1848 H 171.967 -1.48945 -0.1165 0
M  V30 1849 H 173.849 -3.13156 -2.81978 0
M  V30 1850 H 172.524 -1.96089 -2.57548 0
M  V30 1851 H 171.431 -3.61713 -0.954714 0
M  V30 1852 H 172.764 -4.75396 -1.27513 0
M  V30 1853 N 174.416 0.165178 -1.56732 0
M  V30 1854 C 175.379 1.18822 -1.95995 0
M  V30 1855 C 176.379 1.3685 -0.84431 0
M  V30 1856 O 177.569 1.34152 -1.11126 0
M  V30 1857 C 174.701 2.5521 -2.26011 0
M  V30 1858 H 175.894 0.851825 -2.87548 0
M  V30 1859 H 173.447 0.407857 -1.50885 0
M  V30 1860 H 174.182 2.93852 -1.37191 0
M  V30 1861 H 173.967 2.43489 -3.07336 0
M  V30 1862 H 175.457 3.28927 -2.57288 0
M  V30 1863 N 175.894 1.51508 0.433938 0
M  V30 1864 C 177.119 1.68443 1.21003 0
M  V30 1865 C 177.544 0.382636 1.84167 0
M  V30 1866 O 176.902 -0.65755 1.68956 0
M  V30 1867 C 176.95 2.80405 2.26727 0
M  V30 1868 O 176.054 2.44245 3.32292 0
M  V30 1869 H 175.395 0.561536 0.354363 0
M  V30 1870 H 177.925 1.9809 0.512024 0
M  V30 1871 H 177.935 3.0459 2.71457 0
M  V30 1872 H 176.61 3.74867 1.80132 0
M  V30 1873 H 175.187 2.30644 2.93015 0
M  V30 1874 N 177.372 -0.689602 1.41712 0
M  V30 1875 C 178.335 -1.78521 1.43746 0
M  V30 1876 C 179.335 -1.57436 0.327191 0
M  V30 1877 O 180.525 -1.64 0.587348 0
M  V30 1878 C 177.657 -3.16971 1.25467 0
M  V30 1879 H 178.85 -1.78108 2.41283 0
M  V30 1880 H 176.403 -0.89781 1.27942 0
M  V30 1881 H 177.138 -3.23019 0.287948 0
M  V30 1882 H 176.923 -3.33678 2.05917 0
M  V30 1883 H 178.413 -3.96935 1.2974 0
M  V30 1884 N 178.85 -1.27639 -0.924453 0
M  V30 1885 C 179.798 -1.10485 -2.04685 0
M  V30 1886 C 180.792 -0.0270421 -1.69378 0
M  V30 1887 O 181.998 -0.185008 -1.79047 0
M  V30 1888 H 178.373 -0.340546 -0.670472 0
M  V30 1889 H 180.344 -2.05566 -2.16298 0
M  V30 1890 C 179.093 -0.772229 -3.39016 0
M  V30 1891 H 178.416 -1.59351 -3.66671 0
M  V30 1892 H 179.856 -0.692097 -4.18313 0
M  V30 1893 C 178.315 0.523554 -3.32807 0
M  V30 1894 O 178.845 1.55702 -3.70297 0
M  V30 1895 N 177.051 0.520363 -2.85903 0
M  V30 1896 H 176.598 -0.32107 -2.55591 0
M  V30 1897 H 176.556 1.38742 -2.82131 0
M  V30 1898 N 180.328 1.1314 -1.09713 0
M  V30 1899 C 181.574 1.84757 -0.836224 0
M  V30 1900 C 181.907 1.8347 0.636598 0
M  V30 1901 O 181.182 1.27491 1.46889 0
M  V30 1902 C 181.465 3.32782 -1.37578 0
M  V30 1903 C 181.318 3.42567 -2.91493 0
M  V30 1904 C 182.637 4.28307 -1.01198 0
M  V30 1905 H 179.756 0.67082 -0.305236 0
M  V30 1906 H 182.398 1.3278 -1.35903 0
M  V30 1907 H 180.548 3.77177 -0.931097 0
M  V30 1908 H 182.22 3.06862 -3.44432 0
M  V30 1909 H 180.463 2.83349 -3.28475 0
M  V30 1910 H 181.134 4.46674 -3.24324 0
M  V30 1911 H 183.61 3.91999 -1.39556 0
M  V30 1912 H 182.486 5.30307 -1.41653 0
M  V30 1913 H 182.747 4.42029 0.0794833 0
M  V30 1914 N 181.806 0.884767 1.30421 0
M  V30 1915 C 183.083 0.423185 1.90967 0
M  V30 1916 C 183.463 -1.09605 1.80416 0
M  V30 1917 O 182.811 -1.93126 1.22125 0
M  V30 1918 C 183.021 0.921056 3.36627 0
M  V30 1919 C 184.369 0.955903 4.137 0
M  V30 1920 O 185.393 0.867706 3.4547 0
M  V30 1921 O 184.252 1.08614 5.35598 0
M  V30 1922 H 181.346 0.129369 0.816819 0
M  V30 1923 H 183.892 0.973653 1.3899 0
M  V30 1924 H 182.664 1.96489 3.3839 0
M  V30 1925 H 182.287 0.349741 3.96059 0
M  V30 1926 N 183.284 -1.43765 0.645699 0
M  V30 1927 C 184.194 -2.34544 -0.0512957 0
M  V30 1928 C 185.21 -1.53455 -0.82022 0
M  V30 1929 O 186.386 -1.86133 -0.769176 0
M  V30 1930 C 183.451 -3.31636 -1.01087 0
M  V30 1931 C 182.512 -4.2863 -0.239712 0
M  V30 1932 C 181.745 -5.21084 -1.15358 0
M  V30 1933 O 181.968 -5.1779 -2.39269 0
M  V30 1934 O 180.902 -5.98593 -0.630038 0
M  V30 1935 H 184.728 -2.95624 0.695718 0
M  V30 1936 H 182.313 -1.43781 0.405882 0
M  V30 1937 H 184.195 -3.9136 -1.56254 0
M  V30 1938 H 182.87 -2.73069 -1.73824 0
M  V30 1939 H 181.777 -3.72408 0.355356 0
M  V30 1940 H 183.11 -4.90157 0.447936 0
M  V30 1941 N 184.763 -0.387143 -1.52771 0
M  V30 1942 C 185.71 0.449048 -2.26389 0
M  V30 1943 C 186.68 1.05961 -1.27912 0
M  V30 1944 O 187.865 1.08804 -1.56737 0
M  V30 1945 C 185.005 1.57155 -3.0724 0
M  V30 1946 C 184.118 0.984066 -4.20643 0
M  V30 1947 C 183.253 2.07745 -4.88892 0
M  V30 1948 C 182.292 1.46574 -5.94292 0
M  V30 1949 N 181.429 2.49834 -6.56146 0
M  V30 1950 H 186.269 -0.185205 -2.97424 0
M  V30 1951 H 183.806 -0.103164 -1.46738 0
M  V30 1952 H 185.764 2.23309 -3.52405 0
M  V30 1953 H 184.394 2.17615 -2.38419 0
M  V30 1954 H 183.446 0.212193 -3.79808 0
M  V30 1955 H 184.758 0.497029 -4.96318 0
M  V30 1956 H 183.912 2.81673 -5.3735 0
M  V30 1957 H 182.651 2.59807 -4.12737 0
M  V30 1958 H 181.656 0.711696 -5.45174 0
M  V30 1959 H 182.881 0.953088 -6.72379 0
M  V30 1960 H 180.827 3.0107 -5.82832 0
M  V30 1961 H 180.744 2.05879 -7.27427 0
M  V30 1962 H 182.012 3.23399 -7.09249 0
M  V30 1963 N 186.241 1.57166 -0.116904 0
M  V30 1964 C 187.471 1.99184 0.548586 0
M  V30 1965 C 187.879 0.995436 1.60897 0
M  V30 1966 O 187.222 -0.0201293 1.83689 0
M  V30 1967 C 187.284 3.37611 1.23526 0
M  V30 1968 C 186.948 4.55857 0.323077 0
M  V30 1969 C 187.945 5.18056 -0.437476 0
M  V30 1970 C 185.63 5.01751 0.234761 0
M  V30 1971 C 187.624 6.24536 -1.2741 0
M  V30 1972 C 185.311 6.08093 -0.605496 0
M  V30 1973 C 186.309 6.69352 -1.35856 0
M  V30 1974 O 185.997 7.7364 -2.18487 0
M  V30 1975 H 185.729 0.659148 0.149999 0
M  V30 1976 H 188.283 2.0443 -0.199428 0
M  V30 1977 H 186.513 3.29113 2.0303 0
M  V30 1978 H 188.202 3.63932 1.79745 0
M  V30 1979 H 188.968 4.83516 -0.379105 0
M  V30 1980 H 184.847 4.53817 0.810601 0
M  V30 1981 H 188.391 6.72281 -1.86237 0
M  V30 1982 H 184.288 6.42063 -0.665268 0
M  V30 1983 H 185.056 7.90727 -2.11406 0
M  V30 1984 N 187.719 -0.156864 1.56817 0
M  V30 1985 C 188.651 -1.21883 1.94106 0
M  V30 1986 C 189.664 -1.3971 0.835754 0
M  V30 1987 O 190.853 -1.39457 1.11418 0
M  V30 1988 C 187.953 -2.58527 2.19127 0
M  V30 1989 C 187.126 -2.61809 3.50393 0
M  V30 1990 C 186.185 -3.7992 3.64071 0
M  V30 1991 O 185.211 -3.65249 4.36557 0
M  V30 1992 N 186.413 -4.96973 2.99997 0
M  V30 1993 H 189.178 -0.901974 2.85805 0
M  V30 1994 H 186.739 -0.346513 1.58148 0
M  V30 1995 H 188.731 -3.36034 2.25529 0
M  V30 1996 H 187.301 -2.82545 1.33742 0
M  V30 1997 H 186.521 -1.7029 3.5552 0
M  V30 1998 H 187.809 -2.61024 4.36742 0
M  V30 1999 H 187.207 -5.11794 2.41004 0
M  V30 2000 H 185.764 -5.7229 3.11974 0
M  V30 2001 N 189.197 -1.51736 -0.425897 0
M  V30 2002 C 190.613 -1.40166 -0.76326 0
M  V30 2003 C 190.813 -0.492962 -1.95377 0
M  V30 2004 O 189.869 0.0475815 -2.52455 0
M  V30 2005 C 191.182 -2.82403 -1.03291 0
M  V30 2006 C 192.73 -2.91632 -1.13665 0
M  V30 2007 C 193.205 -4.34801 -1.43916 0
M  V30 2008 N 194.696 -4.3796 -1.50816 0
M  V30 2009 C 195.431 -5.4578 -1.75817 0
M  V30 2010 N 194.927 -6.63744 -1.98534 0
M  V30 2011 N 196.72 -5.33274 -1.77694 0
M  V30 2012 H 188.871 -2.09361 0.358 0
M  V30 2013 H 191.134 -0.942941 0.0978094 0
M  V30 2014 H 190.84 -3.50943 -0.230696 0
M  V30 2015 H 190.714 -3.22428 -1.95754 0
M  V30 2016 H 193.101 -2.23284 -1.92947 0
M  V30 2017 H 193.182 -2.55088 -0.190756 0
M  V30 2018 H 192.826 -5.03703 -0.65157 0
M  V30 2019 H 192.756 -4.68868 -2.39729 0
M  V30 2020 H 195.247 -3.52919 -1.35118 0
M  V30 2021 H 195.56 -7.41704 -2.17013 0
M  V30 2022 H 193.905 -6.66839 -1.95832 0
M  V30 2023 H 197.096 -4.40098 -1.59473 0
M  V30 2024 H 197.269 -6.1738 -1.9684 0
M  V30 2025 N 190.675 0.682077 -1.42076 0
M  V30 2026 C 191.905 1.46844 -1.45329 0
M  V30 2027 C 192.313 1.89102 -0.0609328 0
M  V30 2028 O 191.656 1.58238 0.933082 0
M  V30 2029 C 191.718 2.75375 -2.31104 0
M  V30 2030 C 191.382 2.55238 -3.79081 0
M  V30 2031 C 192.379 2.20309 -4.70914 0
M  V30 2032 C 190.064 2.70459 -4.2327 0
M  V30 2033 C 192.058 2.00859 -6.04925 0
M  V30 2034 C 189.745 2.50624 -5.57343 0
M  V30 2035 C 190.743 2.15876 -6.47986 0
M  V30 2036 O 190.431 1.96227 -7.79583 0
M  V30 2037 H 190.163 0.4586 -0.496651 0
M  V30 2038 H 192.717 0.846131 -1.87162 0
M  V30 2039 H 190.947 3.40061 -1.84107 0
M  V30 2040 H 192.636 3.37231 -2.25898 0
M  V30 2041 H 193.402 2.08153 -4.38061 0
M  V30 2042 H 189.281 2.96485 -3.53012 0
M  V30 2043 H 192.825 1.7366 -6.75639 0
M  V30 2044 H 188.722 2.62375 -5.89771 0
M  V30 2045 H 189.49 2.10883 -7.90867 0
M  V30 2046 N 192.153 1.28127 0.917671 0
M  V30 2047 C 193.085 1.07517 2.02417 0
M  V30 2048 C 194.098 0.0281099 1.62776 0
M  V30 2049 O 195.287 0.270748 1.76435 0
M  V30 2050 C 192.387 0.610957 3.33347 0
M  V30 2051 C 191.56 1.73255 4.01624 0
M  V30 2052 C 190.619 1.26238 5.10833 0
M  V30 2053 O 189.645 1.96389 5.34247 0
M  V30 2054 N 190.847 0.123448 5.80369 0
M  V30 2055 H 193.612 2.02806 2.20658 0
M  V30 2056 H 191.173 1.19827 1.08871 0
M  V30 2057 H 193.165 0.280101 4.0373 0
M  V30 2058 H 191.735 -0.24898 3.11607 0
M  V30 2059 H 190.955 2.23319 3.24842 0
M  V30 2060 H 192.243 2.48503 4.43986 0
M  V30 2061 H 191.641 -0.461847 5.63812 0
M  V30 2062 H 190.198 -0.148158 6.51632 0
M  V30 2063 N 193.631 -1.12557 1.10312 0
M  V30 2064 C 194.594 -2.16434 0.75424 0
M  V30 2065 C 195.594 -1.59278 -0.220685 0
M  V30 2066 O 196.784 -1.742 0.00230591 0
M  V30 2067 C 193.916 -3.40699 0.116987 0
M  V30 2068 H 195.109 -2.48811 1.67431 0
M  V30 2069 H 192.662 -1.27542 0.903475 0
M  V30 2070 H 193.397 -3.13921 -0.813877 0
M  V30 2071 H 193.182 -3.83459 0.818613 0
M  V30 2072 H 194.672 -4.17451 -0.111387 0
M  V30 2073 N 195.109 -0.891671 -1.2995 0
M  V30 2074 C 196.072 -0.36828 -2.26222 0
M  V30 2075 C 197.072 0.493014 -1.53056 0
M  V30 2076 O 198.262 0.299213 -1.71611 0
M  V30 2077 C 195.394 0.47442 -3.37583 0
M  V30 2078 H 196.587 -1.21844 -2.74033 0
M  V30 2079 H 194.14 -0.669107 -1.41254 0
M  V30 2080 H 194.875 1.34489 -2.95099 0
M  V30 2081 H 194.66 -0.142615 -3.91841 0
M  V30 2082 H 196.15 0.83218 -4.09224 0
M  V30 2083 N 196.587 1.43421 -0.653314 0
M  V30 2084 C 197.517 2.33487 0.0246656 0
M  V30 2085 C 198.498 1.49475 0.811863 0
M  V30 2086 O 199.683 1.78139 0.773322 0
M  V30 2087 C 196.813 3.32841 0.99166 0
M  V30 2088 C 195.767 4.26842 0.314568 0
M  V30 2089 C 195.093 5.16236 1.39302 0
M  V30 2090 C 196.393 5.16243 -0.793095 0
M  V30 2091 H 198.087 2.90427 -0.727481 0
M  V30 2092 H 195.633 1.39649 -0.351287 0
M  V30 2093 H 197.586 3.94747 1.47487 0
M  V30 2094 H 196.31 2.74158 1.77497 0
M  V30 2095 H 194.969 3.663 -0.148199 0
M  V30 2096 H 194.617 4.53891 2.16776 0
M  V30 2097 H 194.317 5.79948 0.945223 0
M  V30 2098 H 195.841 5.81015 1.87759 0
M  V30 2099 H 197.255 5.71958 -0.392039 0
M  V30 2100 H 195.652 5.88676 -1.16536 0
M  V30 2101 H 196.722 4.55927 -1.65103 0
M  V30 2102 N 198.065 0.39524 1.52563 0
M  V30 2103 C 199.028 -0.425001 2.25225 0
M  V30 2104 C 200.028 -0.985266 1.27079 0
M  V30 2105 O 201.218 -0.866332 1.5113 0
M  V30 2106 C 198.35 -1.59686 3.01186 0
M  V30 2107 H 199.543 0.211233 2.99155 0
M  V30 2108 H 197.096 0.147472 1.55603 0
M  V30 2109 H 197.831 -2.27035 2.31572 0
M  V30 2110 H 197.616 -1.20176 3.73229 0
M  V30 2111 H 199.106 -2.17743 3.5634 0
M  V30 2112 N 199.544 -1.57102 0.125237 0
M  V30 2113 C 200.454 -2.19191 -0.8362 0
M  V30 2114 C 201.47 -1.16985 -1.28805 0
M  V30 2115 O 202.646 -1.49479 -1.34974 0
M  V30 2116 C 199.711 -2.78407 -2.06617 0
M  V30 2117 C 198.772 -3.9567 -1.66565 0
M  V30 2118 C 198.005 -4.52052 -2.83698 0
M  V30 2119 O 198.228 -4.07326 -3.99302 0
M  V30 2120 O 197.162 -5.42645 -2.60423 0
M  V30 2121 H 200.988 -3.01816 -0.337776 0
M  V30 2122 H 198.573 -1.4906 -0.100695 0
M  V30 2123 H 200.455 -3.16129 -2.7864 0
M  V30 2124 H 199.13 -1.9881 -2.55453 0
M  V30 2125 H 198.037 -3.62705 -0.916296 0
M  V30 2126 H 199.37 -4.76722 -1.22464 0
M  V30 2127 N 201.022 0.148545 -1.56898 0
M  V30 2128 C 201.952 1.18524 -2.01182 0
M  V30 2129 C 202.933 1.4489 -0.891123 0
M  V30 2130 O 204.118 1.55836 -1.15882 0
M  V30 2131 C 201.248 2.51879 -2.39112 0
M  V30 2132 C 200.202 2.40038 -3.54353 0
M  V30 2133 C 199.528 3.78089 -3.78091 0
M  V30 2134 C 200.828 1.88577 -4.87069 0
M  V30 2135 H 202.522 0.817029 -2.88036 0
M  V30 2136 H 200.068 0.391575 -1.38574 0
M  V30 2137 H 202.021 3.24627 -2.68692 0
M  V30 2138 H 200.745 2.90532 -1.49193 0
M  V30 2139 H 199.404 1.69742 -3.24936 0
M  V30 2140 H 199.052 4.14175 -2.85426 0
M  V30 2141 H 198.752 3.71028 -4.55645 0
M  V30 2142 H 200.276 4.52387 -4.10095 0
M  V30 2143 H 201.69 2.51117 -5.15377 0
M  V30 2144 H 200.087 1.9241 -5.68417 0
M  V30 2145 H 201.157 0.84136 -4.77545 0
M  V30 2146 N 202.5 1.5196 0.417844 0
M  V30 2147 C 203.749 1.6482 1.16264 0
M  V30 2148 C 204.062 0.379886 1.91876 0
M  V30 2149 O 205.268 0.388154 2.68711 0
M  V30 2150 C 203.724 2.91161 2.1155 0
M  V30 2151 C 203.332 4.25068 1.41495 0
M  V30 2152 C 205.076 3.13383 2.86341 0
M  V30 2153 C 202.983 5.42541 2.35379 0
M  V30 2154 H 201.913 0.613954 0.437694 0
M  V30 2155 H 204.564 1.78442 0.427871 0
M  V30 2156 H 202.946 2.71218 2.88543 0
M  V30 2157 H 204.12 4.55463 0.699263 0
M  V30 2158 H 202.435 4.0888 0.787792 0
M  V30 2159 H 205.032 3.98324 3.5671 0
M  V30 2160 H 205.375 2.27256 3.48798 0
M  V30 2161 H 205.908 3.33757 2.1645 0
M  V30 2162 H 202.647 6.30987 1.77582 0
M  V30 2163 H 202.167 5.16497 3.04945 0
M  V30 2164 H 203.846 5.75272 2.96093 0
M  V30 2165 N 203.978 -0.674533 1.42435 0
M  V30 2166 C 204.91 -1.80005 1.41883 0
M  V30 2167 C 205.923 -1.59667 0.31787 0
M  V30 2168 O 207.112 -1.68781 0.580973 0
M  V30 2169 C 204.212 -3.17114 1.19549 0
M  V30 2170 C 203.385 -3.64299 2.42084 0
M  V30 2171 C 202.444 -4.80142 2.15291 0
M  V30 2172 O 201.47 -4.90673 2.88493 0
M  V30 2173 N 202.672 -5.68869 1.1562 0
M  V30 2174 H 205.437 -1.80964 2.38898 0
M  V30 2175 H 202.998 -0.857633 1.37318 0
M  V30 2176 H 204.99 -3.92267 0.995417 0
M  V30 2177 H 203.56 -3.11053 0.310569 0
M  V30 2178 H 202.78 -2.79822 2.77657 0
M  V30 2179 H 204.068 -3.92567 3.23679 0
M  V30 2180 H 203.466 -5.63012 0.550765 0
M  V30 2181 H 202.023 -6.43833 1.016 0
M  V30 2182 N 205.456 -1.28612 -0.910864 0
M  V30 2183 C 206.703 -1.15934 -1.66029 0
M  V30 2184 C 207.031 0.291483 -1.92303 0
M  V30 2185 O 206.286 1.22816 -1.52364 0
M  V30 2186 C 206.585 -1.90624 -3.0232 0
M  V30 2187 C 206.251 -3.40405 -2.95695 0
M  V30 2188 C 204.913 -3.81255 -2.93595 0
M  V30 2189 C 207.265 -4.359 -2.85728 0
M  V30 2190 C 204.593 -5.15936 -2.79334 0
M  V30 2191 C 206.945 -5.70657 -2.73007 0
M  V30 2192 C 205.609 -6.10779 -2.69267 0
M  V30 2193 H 204.879 -0.424234 -0.607541 0
M  V30 2194 H 207.526 -1.5942 -1.06101 0
M  V30 2195 H 205.831 -1.39696 -3.6605 0
M  V30 2196 H 207.528 -1.78228 -3.59215 0
M  V30 2197 H 204.118 -3.07927 -2.98125 0
M  V30 2198 H 208.302 -4.053 -2.86436 0
M  V30 2199 H 203.558 -5.46146 -2.74835 0
M  V30 2200 H 207.732 -6.44311 -2.64264 0
M  V30 2201 H 205.359 -7.1509 -2.57974 0
M  V30 2202 N 206.934 1.1197 -1.10907 0
M  V30 2203 C 207.864 2.19928 -0.784473 0
M  V30 2204 C 208.845 1.6833 0.244726 0
M  V30 2205 O 210.03 1.93892 0.109418 0
M  V30 2206 C 207.16 3.46597 -0.220827 0
M  V30 2207 C 206.114 4.11376 -1.18127 0
M  V30 2208 C 205.44 5.32554 -0.478594 0
M  V30 2209 C 206.74 4.56945 -2.52979 0
M  V30 2210 H 208.434 2.47337 -1.68715 0
M  V30 2211 H 205.98 1.18879 -0.812642 0
M  V30 2212 H 207.933 4.21396 0.0184278 0
M  V30 2213 H 206.657 3.1863 0.717113 0
M  V30 2214 H 205.316 3.38564 -1.40606 0
M  V30 2215 H 204.964 5.00856 0.463976 0
M  V30 2216 H 204.664 5.76844 -1.11912 0
M  V30 2217 H 206.188 6.10096 -0.248 0
M  V30 2218 H 207.602 5.23093 -2.3462 0
M  V30 2219 H 205.999 5.1203 -3.12962 0
M  V30 2220 H 207.069 3.70676 -3.12614 0
M  V30 2221 N 208.412 0.89855 1.29475 0
M  V30 2222 C 209.689 0.443416 1.90508 0
M  V30 2223 C 210.069 -1.07685 1.81569 0
M  V30 2224 O 209.417 -1.9182 1.24166 0
M  V30 2225 C 209.627 0.956708 3.35631 0
M  V30 2226 C 210.975 0.999728 4.12663 0
M  V30 2227 O 211.999 0.904299 3.4453 0
M  V30 2228 O 210.858 1.14289 5.34416 0
M  V30 2229 H 207.952 0.138025 0.815401 0
M  V30 2230 H 210.498 0.98834 1.37949 0
M  V30 2231 H 209.27 2.00067 3.36287 0
M  V30 2232 H 208.893 0.391728 3.95666 0
M  V30 2233 N 209.89 -1.43072 0.660911 0
M  V30 2234 C 210.838 -2.32569 -0.0378199 0
M  V30 2235 C 211.832 -1.49046 -0.805092 0
M  V30 2236 O 213.038 -1.65206 -0.714624 0
M  V30 2237 H 209.413 -0.75136 -0.031019 0
M  V30 2238 H 211.384 -2.89216 0.734609 0
M  V30 2239 C 210.133 -3.33453 -0.985124 0
M  V30 2240 H 209.456 -3.97752 -0.404147 0
M  V30 2241 H 210.896 -3.98691 -1.44297 0
M  V30 2242 C 209.355 -2.64642 -2.08486 0
M  V30 2243 O 209.885 -2.46776 -3.16961 0
M  V30 2244 N 208.091 -2.23891 -1.8526 0
M  V30 2245 H 207.638 -2.38621 -0.970449 0
M  V30 2246 H 207.596 -1.78181 -2.59034 0
M  V30 2247 N 211.368 -0.403325 -1.52352 0
M  V30 2248 C 212.616 0.174003 -2.0135 0
M  V30 2249 C 212.937 1.46139 -1.29106 0
M  V30 2250 O 212.207 1.91448 -0.415253 0
M  V30 2251 H 210.787 0.0672911 -0.743963 0
M  V30 2252 H 213.449 -0.538235 -1.87321 0
M  V30 2253 H 212.545 0.374254 -3.09848 0
M  V30 2254 N 212.846 1.57033 -0.133567 0
M  V30 2255 C 213.794 2.17348 0.828412 0
M  V30 2256 C 214.788 1.12671 1.26498 0
M  V30 2257 O 215.994 1.30947 1.23502 0
M  V30 2258 H 212.369 0.695775 0.285309 0
M  V30 2259 H 214.34 2.96935 0.295372 0
M  V30 2260 C 213.089 2.79893 2.06289 0
M  V30 2261 H 212.412 3.60147 1.73592 0
M  V30 2262 H 213.852 3.25615 2.71572 0
M  V30 2263 C 212.311 1.77713 2.86216 0
M  V30 2264 O 212.841 1.23937 3.82103 0
M  V30 2265 N 211.047 1.47321 2.50489 0
M  V30 2266 H 210.594 1.91243 1.7258 0
M  V30 2267 H 210.552 0.79199 3.04261 0
M  V30 2268 N 214.325 -0.140222 1.56975 0
M  V30 2269 C 215.258 -1.20266 1.93936 0
M  V30 2270 C 216.236 -1.41212 0.806099 0
M  V30 2271 O 217.42 -1.55713 1.06234 0
M  V30 2272 C 214.547 -2.56037 2.21726 0
M  V30 2273 C 213.593 -2.51646 3.44349 0
M  V30 2274 S 214.426 -1.97678 4.97678 0
M  V30 2275 C 215.582 -3.35165 5.28597 0
M  V30 2276 H 215.815 -0.887358 2.83749 0
M  V30 2277 H 213.348 -0.346119 1.50471 0
M  V30 2278 H 215.306 -3.34167 2.38416 0
M  V30 2279 H 213.967 -2.84755 1.32566 0
M  V30 2280 H 213.16 -3.51608 3.61092 0
M  V30 2281 H 212.762 -1.81628 3.26936 0
M  V30 2282 H 215.054 -4.31302 5.2248 0
M  V30 2283 H 215.997 -3.23269 6.30002 0
M  V30 2284 H 216.405 -3.32614 4.56101 0
M  V30 2285 N 215.803 -1.52179 -0.40978 0
M  V30 2286 C 217.08 -1.56769 -1.16974 0
M  V30 2287 C 217.46 -0.348322 -2.08206 0
M  V30 2288 O 216.808 0.664862 -2.18613 0
M  V30 2289 C 217.018 -2.89603 -1.9476 0
M  V30 2290 C 218.366 -3.42579 -2.50849 0
M  V30 2291 O 219.39 -2.91338 -2.04941 0
M  V30 2292 O 218.249 -4.32054 -3.34652 0
M  V30 2293 H 215.343 -0.631439 -0.534054 0
M  V30 2294 H 217.889 -1.64507 -0.416613 0
M  V30 2295 H 216.661 -3.698 -1.27921 0
M  V30 2296 H 216.284 -2.85155 -2.77079 0
M  V30 2297 N 217.281 0.66697 -1.42791 0
M  V30 2298 C 218.244 1.76211 -1.46568 0
M  V30 2299 C 219.244 1.56896 -0.352196 0
M  V30 2300 O 220.434 1.63044 -0.613364 0
M  V30 2301 C 217.566 3.14935 -1.30494 0
M  V30 2302 H 218.759 1.74247 -2.44086 0
M  V30 2303 H 216.312 0.877342 -1.29354 0
M  V30 2304 H 217.047 3.2252 -0.339301 0
M  V30 2305 H 216.832 3.30359 -2.11199 0
M  V30 2306 H 218.322 3.94821 -1.36038 0
M  V30 2307 N 218.759 1.29093 0.90403 0
M  V30 2308 C 219.989 1.19516 1.68522 0
M  V30 2309 C 220.397 -0.24738 1.87576 0
M  V30 2310 O 219.74 -1.17798 1.40959 0
M  V30 2311 C 219.802 1.83249 3.0929 0
M  V30 2312 C 219.466 3.32531 3.13484 0
M  V30 2313 C 220.463 4.28821 2.93953 0
M  V30 2314 C 218.148 3.73656 3.35688 0
M  V30 2315 C 220.142 5.64212 2.96553 0
M  V30 2316 C 217.829 5.0917 3.37919 0
M  V30 2317 C 218.827 6.04258 3.18373 0
M  V30 2318 O 218.515 7.37298 3.20385 0
M  V30 2319 H 218.247 0.415467 0.533257 0
M  V30 2320 H 220.801 1.70912 1.13922 0
M  V30 2321 H 219.031 1.26358 3.65473 0
M  V30 2322 H 220.72 1.68054 3.69476 0
M  V30 2323 H 221.486 3.98382 2.76616 0
M  V30 2324 H 217.365 3.00101 3.49943 0
M  V30 2325 H 220.909 6.38407 2.81216 0
M  V30 2326 H 216.806 5.39256 3.54787 0
M  V30 2327 H 217.574 7.46048 3.36681 0
M  V30 2328 N 220.237 -1.11381 1.11499 0
M  V30 2329 C 221.484 -1.83132 0.864231 0
M  V30 2330 C 221.812 -1.84683 -0.610114 0
M  V30 2331 O 221.067 -1.29589 -1.46646 0
M  V30 2332 C 221.366 -3.30026 1.37177 0
M  V30 2333 C 221.032 -3.48634 2.85946 0
M  V30 2334 C 219.694 -3.53421 3.26569 0
M  V30 2335 C 222.046 -3.54837 3.81759 0
M  V30 2336 C 219.374 -3.61967 4.61733 0
M  V30 2337 C 221.726 -3.64915 5.1674 0
M  V30 2338 C 220.39 -3.67962 5.5692 0
M  V30 2339 H 219.66 -0.670127 0.316245 0
M  V30 2340 H 222.307 -1.31354 1.3935 0
M  V30 2341 H 220.612 -3.84304 0.762753 0
M  V30 2342 H 222.309 -3.84034 1.15408 0
M  V30 2343 H 218.899 -3.45579 2.53521 0
M  V30 2344 H 223.083 -3.50399 3.51474 0
M  V30 2345 H 218.339 -3.62603 4.92269 0
M  V30 2346 H 222.513 -3.68658 5.90816 0
M  V30 2347 H 220.14 -3.74336 6.61647 0
M  V30 2348 N 221.715 -0.905404 -1.28997 0
M  V30 2349 C 222.678 -0.392253 -2.25819 0
M  V30 2350 C 223.678 0.476753 -1.5357 0
M  V30 2351 O 224.868 0.280994 -1.71919 0
M  V30 2352 C 222 0.438588 -3.38067 0
M  V30 2353 H 223.193 -1.24743 -2.72725 0
M  V30 2354 H 220.746 -0.684051 -1.40536 0
M  V30 2355 H 221.481 1.31352 -2.96508 0
M  V30 2356 H 221.266 -0.184167 -3.91667 0
M  V30 2357 H 222.756 0.78873 -4.10084 0
M  V30 2358 N 223.193 1.4272 -0.668489 0
M  V30 2359 C 224.125 2.2914 0.052613 0
M  V30 2360 C 225.138 1.43339 0.771857 0
M  V30 2361 O 226.327 1.67123 0.627067 0
M  V30 2362 C 223.427 3.20618 1.09804 0
M  V30 2363 C 222.6 4.35039 0.45389 0
M  V30 2364 C 221.659 5.07282 1.39825 0
M  V30 2365 O 220.685 5.62024 0.900978 0
M  V30 2366 N 221.887 5.12206 2.73176 0
M  V30 2367 H 224.652 2.91668 -0.689209 0
M  V30 2368 H 222.213 1.53577 -0.512422 0
M  V30 2369 H 224.205 3.65815 1.73094 0
M  V30 2370 H 222.775 2.59585 1.74167 0
M  V30 2371 H 221.995 3.92567 -0.358396 0
M  V30 2372 H 223.283 5.088 0.00486972 0
M  V30 2373 H 222.681 4.6913 3.16122 0
M  V30 2374 H 221.238 5.61069 3.31729 0
M  V30 2375 N 224.671 0.411399 1.52136 0
M  V30 2376 C 226.082 -0.0576826 1.86611 0
M  V30 2377 C 226.433 -1.44238 1.33003 0
M  V30 2378 O 225.558 -2.05759 0.670228 0
M  V30 2379 C 226.153 -0.111448 3.38617 0
M  V30 2380 C 224.712 -0.52487 3.72723 0
M  V30 2381 C 223.859 0.299176 2.75681 0
M  V30 2382 H 226.81 0.628368 1.4573 0
M  V30 2383 H 226.831 -0.926252 3.69054 0
M  V30 2384 H 226.343 0.896488 3.77604 0
M  V30 2385 H 224.444 -1.53936 3.39315 0
M  V30 2386 H 224.557 -0.267681 4.78352 0
M  V30 2387 H 222.921 -0.238814 2.53578 0
M  V30 2388 H 223.704 1.3055 3.17508 0
M  V30 2389 N 226.149 -1.5696 0.141893 0
M  V30 2390 C 227.377 -2.00322 -0.517579 0
M  V30 2391 C 227.792 -1.02193 -1.58752 0
M  V30 2392 O 227.149 -0.0181619 -1.82491 0
M  V30 2393 C 227.2 -3.43618 -1.12289 0
M  V30 2394 O 226.921 -4.37995 -0.0956929 0
M  V30 2395 C 228.422 -4.02231 -1.86347 0
M  V30 2396 H 225.642 -0.657243 -0.135177 0
M  V30 2397 H 228.186 -2.03146 0.234973 0
M  V30 2398 H 226.341 -3.41662 -1.82609 0
M  V30 2399 H 226.755 -5.21729 -0.538469 0
M  V30 2400 H 228.229 -5.04509 -2.23997 0
M  V30 2401 H 228.706 -3.42655 -2.74744 0
M  V30 2402 H 229.312 -4.07802 -1.20737 0
M  V30 2403 N 227.627 0.131896 -1.57047 0
M  V30 2404 C 228.559 1.1878 -1.9602 0
M  V30 2405 C 229.572 1.38363 -0.857875 0
M  V30 2406 O 230.761 1.37666 -1.13623 0
M  V30 2407 C 227.861 2.55008 -2.23213 0
M  V30 2408 C 227.034 2.56201 -3.54513 0
M  V30 2409 C 226.093 3.7408 -3.70069 0
M  V30 2410 O 225.119 3.58258 -4.42312 0
M  V30 2411 N 226.321 4.92137 -3.07866 0
M  V30 2412 H 229.086 0.85639 -2.87204 0
M  V30 2413 H 226.647 0.321309 -1.5868 0
M  V30 2414 H 228.639 3.32404 -2.30846 0
M  V30 2415 H 227.209 2.80382 -1.3822 0
M  V30 2416 H 226.429 1.64613 -3.58185 0
M  V30 2417 H 227.717 2.54043 -4.4084 0
M  V30 2418 H 227.115 5.07895 -2.49116 0
M  V30 2419 H 225.672 5.67254 -3.21039 0
M  V30 2420 N 229.106 1.52395 0.401703 0
M  V30 2421 C 230.354 1.66488 1.14569 0
M  V30 2422 C 230.675 0.400897 1.90835 0
M  V30 2423 O 229.945 -0.584415 1.8698 0
M  V30 2424 H 228.525 0.613672 0.425929 0
M  V30 2425 H 231.187 1.89464 0.457093 0
M  V30 2426 H 230.283 2.50942 1.85566 0
M  V30 2427 N 230.584 -0.659388 1.43143 0
M  V30 2428 C 231.517 -1.78425 1.42267 0
M  V30 2429 C 232.495 -1.60085 0.284894 0
M  V30 2430 O 233.679 -1.82351 0.477527 0
M  V30 2431 C 230.806 -3.15642 1.22833 0
M  V30 2432 C 229.852 -3.52698 2.39806 0
M  V30 2433 S 230.685 -3.53372 4.02353 0
M  V30 2434 C 231.841 -4.93256 3.85291 0
M  V30 2435 H 232.074 -1.78897 2.37452 0
M  V30 2436 H 229.607 -0.831469 1.301 0
M  V30 2437 H 231.565 -3.94838 1.12308 0
M  V30 2438 H 230.226 -3.12739 0.29207 0
M  V30 2439 H 229.419 -4.52475 2.21996 0
M  V30 2440 H 229.021 -2.80899 2.46925 0
M  V30 2441 H 231.313 -5.81751 3.47235 0
M  V30 2442 H 232.256 -5.16115 4.84799 0
M  V30 2443 H 232.664 -4.665 3.17865 0
M  V30 2444 N 232.062 -1.29571 -0.897171 0
M  V30 2445 C 232.994 -1.10724 -2.00681 0
M  V30 2446 C 234.007 -0.0540026 -1.6271 0
M  V30 2447 O 235.196 -0.298783 -1.75982 0
M  V30 2448 C 232.296 -0.663912 -3.32333 0
M  V30 2449 C 231.469 -1.79622 -3.98816 0
M  V30 2450 C 230.528 -1.34349 -5.0876 0
M  V30 2451 O 229.554 -2.04864 -5.31055 0
M  V30 2452 N 230.756 -0.215764 -5.80099 0
M  V30 2453 H 233.521 -2.06291 -2.17403 0
M  V30 2454 H 231.082 -1.21544 -1.06951 0
M  V30 2455 H 233.074 -0.344295 -4.03233 0
M  V30 2456 H 231.644 0.199375 -3.11964 0
M  V30 2457 H 230.864 -2.28459 -3.21248 0
M  V30 2458 H 232.152 -2.55535 -4.39976 0
M  V30 2459 H 231.55 0.372091 -5.64475 0
M  V30 2460 H 230.107 0.0444707 -6.51785 0
M  V30 2461 N 233.54 1.10788 -1.12088 0
M  V30 2462 C 234.488 2.19111 -0.780587 0
M  V30 2463 C 235.482 1.67818 0.230961 0
M  V30 2464 O 236.688 1.79777 0.0895427 0
M  V30 2465 H 233.063 0.714477 -0.234578 0
M  V30 2466 H 235.034 2.45055 -1.70266 0
M  V30 2467 C 233.783 3.46818 -0.24747 0
M  V30 2468 H 233.106 3.86646 -1.01712 0
M  V30 2469 H 234.546 4.23973 -0.0476291 0
M  V30 2470 C 233.005 3.20968 1.02378 0
M  V30 2471 O 233.535 3.42298 2.10226 0
M  V30 2472 N 231.741 2.74658 0.949271 0
M  V30 2473 H 231.288 2.57501 0.0715173 0
M  V30 2474 H 231.246 2.57739 1.80049 0
M  V30 2475 N 235.018 0.912232 1.28515 0
M  V30 2476 C 235.981 0.404223 2.25607 0
M  V30 2477 C 236.981 -0.468602 1.53821 0
M  V30 2478 O 238.171 -0.271873 1.72065 0
M  V30 2479 C 235.303 -0.420653 3.38295 0
M  V30 2480 H 236.496 1.26188 2.7206 0
M  V30 2481 H 234.049 0.691495 1.40171 0
M  V30 2482 H 234.784 -1.29777 2.97201 0
M  V30 2483 H 234.569 0.204935 3.91564 0
M  V30 2484 H 236.059 -0.766971 4.10496 0
M  V30 2485 N 236.496 -1.42363 0.676048 0
M  V30 2486 C 237.426 -2.33497 0.0124832 0
M  V30 2487 C 238.407 -1.50748 -0.787981 0
M  V30 2488 O 239.592 -1.79346 -0.744884 0
M  V30 2489 C 236.722 -3.34377 -0.938582 0
M  V30 2490 C 235.676 -4.27289 -0.246622 0
M  V30 2491 C 235.002 -5.18386 -1.31071 0
M  V30 2492 C 236.302 -5.14916 0.875125 0
M  V30 2493 H 237.996 -2.89233 0.773593 0
M  V30 2494 H 235.542 -1.39073 0.37346 0
M  V30 2495 H 237.495 -3.97044 -1.41188 0
M  V30 2496 H 236.219 -2.76947 -1.73113 0
M  V30 2497 H 234.878 -3.66018 0.206456 0
M  V30 2498 H 234.526 -4.57282 -2.09528 0
M  V30 2499 H 234.226 -5.81378 -0.852839 0
M  V30 2500 H 235.75 -5.83929 -1.78492 0
M  V30 2501 H 237.164 -5.71262 0.482983 0
M  V30 2502 H 235.561 -5.86747 1.25887 0
M  V30 2503 H 236.631 -4.53242 1.72335 0
M  V30 2504 N 237.974 -0.419461 -1.51915 0
M  V30 2505 C 239.222 0.152637 -2.01523 0
M  V30 2506 C 239.543 1.44762 -1.30649 0
M  V30 2507 O 238.813 1.90997 -0.435535 0
M  V30 2508 H 237.393 0.0593966 -0.744635 0
M  V30 2509 H 240.055 -0.558073 -1.86739 0
M  V30 2510 H 239.151 0.341369 -3.10227 0
M  V30 2511 N 239.452 1.56882 -0.150215 0
M  V30 2512 C 240.362 2.20494 0.801222 0
M  V30 2513 C 241.378 1.19019 1.26927 0
M  V30 2514 O 242.554 1.51607 1.32579 0
M  V30 2515 C 239.619 2.81659 2.02161 0
M  V30 2516 C 238.68 3.9827 1.60249 0
M  V30 2517 C 237.913 4.56508 2.7647 0
M  V30 2518 O 238.136 4.13627 3.92771 0
M  V30 2519 O 237.07 5.46719 2.51757 0
M  V30 2520 H 240.896 3.02315 0.289717 0
M  V30 2521 H 238.481 1.49202 0.0769684 0
M  V30 2522 H 240.363 3.20522 2.73576 0
M  V30 2523 H 239.038 2.02849 2.52258 0
M  V30 2524 H 237.945 3.64117 0.858477 0
M  V30 2525 H 239.278 4.78609 1.14864 0
M  V30 2526 N 240.93 -0.123565 1.57115 0
M  V30 2527 C 241.893 -1.13583 1.99076 0
M  V30 2528 C 242.893 -1.34564 0.880296 0
M  V30 2529 O 244.083 -1.31158 1.14644 0
M  V30 2530 C 241.215 -2.49128 2.32698 0
M  V30 2531 H 242.408 -0.775287 2.89706 0
M  V30 2532 H 239.961 -0.36771 1.51913 0
M  V30 2533 H 240.696 -2.90111 1.44934 0
M  V30 2534 H 240.481 -2.35255 3.13684 0
M  V30 2535 H 241.971 -3.2199 2.65918 0
M  V30 2536 N 242.408 -1.52605 -0.393616 0
M  V30 2537 C 243.338 -1.80022 -1.48709 0
M  V30 2538 C 244.319 -0.651995 -1.57108 0
M  V30 2539 O 245.504 -0.89913 -1.72132 0
M  V30 2540 C 242.634 -1.96492 -2.86371 0
M  V30 2541 C 241.588 -3.12161 -2.92813 0
M  V30 2542 C 240.914 -3.13877 -4.3288 0
M  V30 2543 C 242.214 -4.51322 -2.6288 0
M  V30 2544 H 243.908 -2.71589 -1.26015 0
M  V30 2545 H 241.454 -1.30684 -0.604778 0
M  V30 2546 H 243.407 -2.14255 -3.62867 0
M  V30 2547 H 242.131 -1.01611 -3.10391 0
M  V30 2548 H 240.79 -2.94173 -2.18764 0
M  V30 2549 H 240.438 -2.16687 -4.53933 0
M  V30 2550 H 240.138 -3.91576 -4.38112 0
M  V30 2551 H 241.662 -3.33789 -5.1129 0
M  V30 2552 H 243.076 -4.69435 -3.29096 0
M  V30 2553 H 241.473 -5.31053 -2.79468 0
M  V30 2554 H 242.543 -4.58353 -1.58242 0
M  V30 2555 N 243.887 0.651787 -1.4349 0
M  V30 2556 C 245.135 1.40888 -1.44897 0
M  V30 2557 C 245.456 1.94856 -0.0749086 0
M  V30 2558 O 244.726 1.74518 0.889956 0
M  V30 2559 H 243.306 0.522887 -0.533478 0
M  V30 2560 H 245.968 0.768609 -1.79104 0
M  V30 2561 H 245.064 2.25052 -2.16236 0
M  V30 2562 N 245.365 1.30045 0.890287 0
M  V30 2563 C 246.313 1.15873 2.01683 0
M  V30 2564 C 247.307 0.0719403 1.69247 0
M  V30 2565 O 248.513 0.232414 1.78493 0
M  V30 2566 H 244.888 0.358203 0.661207 0
M  V30 2567 H 246.859 2.11229 2.10772 0
M  V30 2568 C 245.608 0.861842 3.36849 0
M  V30 2569 H 244.931 1.69016 3.62317 0
M  V30 2570 H 246.371 0.802762 4.16331 0
M  V30 2571 C 244.83 -0.435132 3.34078 0
M  V30 2572 O 245.36 -1.4583 3.74295 0
M  V30 2573 N 243.566 -0.444377 2.87182 0
M  V30 2574 H 243.113 0.388723 2.5465 0
M  V30 2575 H 243.071 -1.31213 2.85711 0
M  V30 2576 N 246.843 -1.10192 1.12674 0
M  V30 2577 C 248.073 -1.85713 0.905213 0
M  V30 2578 C 248.481 -1.81056 -0.549108 0
M  V30 2579 O 247.824 -1.19927 -1.39151 0
M  V30 2580 C 247.886 -3.34972 1.30516 0
M  V30 2581 C 247.55 -3.63385 2.77129 0
M  V30 2582 C 248.547 -3.59772 3.75313 0
M  V30 2583 C 246.232 -3.91981 3.14096 0
M  V30 2584 C 248.226 -3.84354 5.08479 0
M  V30 2585 C 245.913 -4.16218 4.47443 0
M  V30 2586 C 246.911 -4.12395 5.44444 0
M  V30 2587 O 246.599 -4.36014 6.75387 0
M  V30 2588 H 246.331 -0.593719 0.323223 0
M  V30 2589 H 248.885 -1.40198 1.50112 0
M  V30 2590 H 247.115 -3.81156 0.652463 0
M  V30 2591 H 248.804 -3.91886 1.05736 0
M  V30 2592 H 249.57 -3.37716 3.48099 0
M  V30 2593 H 245.449 -3.94085 2.39202 0
M  V30 2594 H 248.993 -3.81285 5.84181 0
M  V30 2595 H 244.89 -4.37754 4.74386 0
M  V30 2596 H 245.658 -4.53516 6.8137 0
M  V30 2597 N 248.321 -0.919034 -1.28029 0
M  V30 2598 C 249.284 -0.416182 -2.2539 0
M  V30 2599 C 250.284 0.460438 -1.54067 0
M  V30 2600 O 251.474 0.262744 -1.72207 0
M  V30 2601 C 248.606 0.402707 -3.38513 0
M  V30 2602 H 249.799 -1.27629 -2.71387 0
M  V30 2603 H 247.352 -0.698919 -1.39803 0
M  V30 2604 H 248.087 1.282 -2.97885 0
M  V30 2605 H 247.872 -0.225698 -3.9145 0
M  V30 2606 H 249.362 0.745191 -4.10897 0
M  V30 2607 N 249.799 1.42003 -0.683588 0
M  V30 2608 C 251.215 1.55625 -0.353976 0
M  V30 2609 C 251.415 1.66151 1.14 0
M  V30 2610 O 250.471 1.63329 1.92561 0
M  V30 2611 C 251.784 2.80171 -1.092 0
M  V30 2612 C 253.332 2.93954 -1.07518 0
M  V30 2613 C 253.807 4.21372 -1.79471 0
M  V30 2614 N 255.298 4.28303 -1.76381 0
M  V30 2615 C 256.033 5.25729 -2.28904 0
M  V30 2616 N 255.529 6.29254 -2.89846 0
M  V30 2617 N 257.322 5.17586 -2.19228 0
M  V30 2618 H 249.473 1.33415 -1.6527 0
M  V30 2619 H 251.736 0.64282 -0.696769 0
M  V30 2620 H 251.442 2.78561 -2.14701 0
M  V30 2621 H 251.316 3.7133 -0.662862 0
M  V30 2622 H 253.703 2.95086 -0.028475 0
M  V30 2623 H 253.784 2.04002 -1.54328 0
M  V30 2624 H 253.428 4.21001 -2.84114 0
M  V30 2625 H 253.358 5.10275 -1.30104 0
M  V30 2626 H 255.849 3.54119 -1.31939 0
M  V30 2627 H 256.162 6.99964 -3.27522 0
M  V30 2628 H 254.507 6.29791 -2.93919 0
M  V30 2629 H 257.698 4.35631 -1.71299 0
M  V30 2630 H 257.871 5.93348 -2.60466 0
M  V30 2631 N 251.277 0.427512 1.51691 0
M  V30 2632 C 252.523 -0.142439 2.02299 0
M  V30 2633 C 252.856 -1.43214 1.31162 0
M  V30 2634 O 252.131 -1.89833 0.423511 0
M  V30 2635 C 252.414 -0.371301 3.58181 0
M  V30 2636 C 252.267 0.936358 4.39946 0
M  V30 2637 C 253.586 -1.14542 4.24933 0
M  V30 2638 H 250.705 -0.0502937 0.735282 0
M  V30 2639 H 253.347 0.564584 1.81418 0
M  V30 2640 H 251.497 -0.973559 3.76104 0
M  V30 2641 H 253.169 1.57184 4.33694 0
M  V30 2642 H 251.412 1.5432 4.05423 0
M  V30 2643 H 252.083 0.730388 5.47147 0
M  V30 2644 H 254.559 -0.635362 4.11221 0
M  V30 2645 H 253.435 -1.27431 5.33903 0
M  V30 2646 H 253.696 -2.17093 3.85127 0
M  V30 2647 N 252.755 -1.56801 0.158532 0
M  V30 2648 C 253.98 -2.01295 -0.499516 0
M  V30 2649 C 254.405 -1.03799 -1.56867 0
M  V30 2650 O 253.763 -0.0155162 -1.81293 0
M  V30 2651 C 253.811 -3.44469 -1.06647 0
M  V30 2652 O 252.915 -3.50012 -2.18095 0
M  V30 2653 H 252.256 -0.652884 -0.12099 0
M  V30 2654 H 254.786 -2.02958 0.258661 0
M  V30 2655 H 254.796 -3.8351 -1.39227 0
M  V30 2656 H 253.471 -4.14932 -0.283581 0
M  V30 2657 H 252.048 -3.22822 -1.86656 0
M  V30 2658 N 254.233 0.115231 -1.57178 0
M  V30 2659 C 255.143 1.15994 -2.03918 0
M  V30 2660 C 256.159 1.45103 -0.960268 0
M  V30 2661 O 257.335 1.56144 -1.27204 0
M  V30 2662 C 254.4 2.46568 -2.43732 0
M  V30 2663 C 253.461 2.24822 -3.65723 0
M  V30 2664 C 252.694 3.4917 -4.03629 0
M  V30 2665 O 252.917 4.56623 -3.41835 0
M  V30 2666 O 251.851 3.39949 -4.96708 0
M  V30 2667 H 255.677 0.793019 -2.93164 0
M  V30 2668 H 253.262 0.3263 -1.45793 0
M  V30 2669 H 255.144 3.23492 -2.70057 0
M  V30 2670 H 253.819 2.82726 -1.57631 0
M  V30 2671 H 252.726 1.45744 -3.44542 0
M  V30 2672 H 254.059 1.93566 -4.52541 0
M  V30 2673 N 255.711 1.52812 0.385517 0
M  V30 2674 C 256.659 1.78482 1.49155 0
M  V30 2675 C 257.653 0.652914 1.56312 0
M  V30 2676 O 258.859 0.835464 1.59436 0
M  V30 2677 H 255.234 0.5648 0.496493 0
M  V30 2678 H 257.205 2.71095 1.24699 0
M  V30 2679 C 255.954 1.97378 2.86247 0
M  V30 2680 H 255.277 2.83907 2.81491 0
M  V30 2681 H 256.717 2.19327 3.62866 0
M  V30 2682 C 255.176 0.74728 3.28508 0
M  V30 2683 O 255.706 -0.0736232 4.01633 0
M  V30 2684 N 253.912 0.576396 2.84826 0
M  V30 2685 H 253.459 1.24555 2.25486 0
M  V30 2686 H 253.417 -0.24288 3.1346 0
M  V30 2687 N 257.189 -0.644168 1.43834 0
M  V30 2688 C 258.119 -1.76814 1.52509 0
M  V30 2689 C 259.1 -1.65823 0.379052 0
M  V30 2690 O 260.285 -1.84781 0.597466 0
M  V30 2691 C 257.415 -3.15288 1.4564 0
M  V30 2692 C 256.369 -3.41053 2.58586 0
M  V30 2693 C 255.695 -4.79421 2.36769 0
M  V30 2694 C 256.995 -3.34902 4.00797 0
M  V30 2695 H 258.689 -1.69812 2.46586 0
M  V30 2696 H 256.235 -0.815542 1.1868 0
M  V30 2697 H 258.188 -3.93681 1.50311 0
M  V30 2698 H 256.912 -3.23043 0.480725 0
M  V30 2699 H 255.571 -2.65035 2.53282 0
M  V30 2700 H 255.219 -4.83863 1.37424 0
M  V30 2701 H 254.919 -4.9762 3.12487 0
M  V30 2702 H 256.443 -5.6006 2.43238 0
M  V30 2703 H 257.857 -4.03218 4.07539 0
M  V30 2704 H 256.254 -3.64637 4.76613 0
M  V30 2705 H 257.324 -2.32928 4.25291 0
M  V30 2706 N 258.668 -1.30515 -0.883378 0
M  V30 2707 C 259.898 -1.22182 -1.66599 0
M  V30 2708 C 260.306 0.217507 -1.87946 0
M  V30 2709 O 259.649 1.1554 -1.42815 0
M  V30 2710 C 259.711 -1.88146 -3.06335 0
M  V30 2711 C 259.375 -3.37476 -3.08154 0
M  V30 2712 C 260.372 -4.33443 -2.87094 0
M  V30 2713 C 258.057 -3.7895 -3.29701 0
M  V30 2714 C 260.051 -5.68858 -2.8754 0
M  V30 2715 C 257.738 -5.14482 -3.29776 0
M  V30 2716 C 258.736 -6.09246 -3.0872 0
M  V30 2717 O 258.424 -7.42302 -3.08615 0
M  V30 2718 H 258.156 -0.423898 -0.52658 0
M  V30 2719 H 260.71 -1.72703 -1.11188 0
M  V30 2720 H 258.94 -1.32157 -3.63416 0
M  V30 2721 H 260.629 -1.7391 -3.66756 0
M  V30 2722 H 261.395 -4.02733 -2.70243 0
M  V30 2723 H 257.274 -3.05631 -3.45124 0
M  V30 2724 H 260.818 -6.428 -2.71024 0
M  V30 2725 H 256.715 -5.44832 -3.46163 0
M  V30 2726 H 257.483 -7.5131 -3.24769 0
M  V30 2727 N 260.146 1.09593 -1.13257 0
M  V30 2728 C 261.562 1.33775 -0.870423 0
M  V30 2729 C 261.762 1.95327 0.494926 0
M  V30 2730 O 260.818 2.19853 1.2418 0
M  V30 2731 C 262.131 2.25106 -1.99369 0
M  V30 2732 C 263.679 2.3862 -2.02558 0
M  V30 2733 C 264.154 3.33285 -3.14142 0
M  V30 2734 N 265.645 3.40857 -3.13641 0
M  V30 2735 C 266.38 4.14101 -3.96621 0
M  V30 2736 N 265.876 4.90157 -4.8961 0
M  V30 2737 N 267.669 4.09808 -3.84726 0
M  V30 2738 H 259.82 0.680136 -2.01216 0
M  V30 2739 H 262.083 0.362133 -0.876107 0
M  V30 2740 H 261.789 1.87103 -2.97801 0
M  V30 2741 H 261.663 3.25481 -1.90635 0
M  V30 2742 H 264.05 2.75887 -1.0474 0
M  V30 2743 H 264.131 1.38028 -2.15364 0
M  V30 2744 H 263.775 2.96741 -4.12198 0
M  V30 2745 H 263.705 4.33776 -2.98574 0
M  V30 2746 H 266.196 2.86624 -2.46282 0
M  V30 2747 H 266.509 5.4347 -5.49418 0
M  V30 2748 H 264.854 4.89251 -4.93617 0
M  V30 2749 H 268.045 3.4949 -3.11408 0
M  V30 2750 H 268.218 4.66629 -4.49623 0
M  V30 2751 N 261.624 0.925811 1.2754 0
M  V30 2752 C 262.556 0.380753 2.26015 0
M  V30 2753 C 263.569 -0.487485 1.5533 0
M  V30 2754 O 264.758 -0.300413 1.75954 0
M  V30 2755 C 261.858 -0.473259 3.35579 0
M  V30 2756 C 261.031 0.375249 4.35787 0
M  V30 2757 C 260.09 -0.415809 5.24555 0
M  V30 2758 O 259.116 0.175834 5.68928 0
M  V30 2759 N 260.318 -1.71607 5.54555 0
M  V30 2760 H 263.083 1.22725 2.73421 0
M  V30 2761 H 260.644 0.793037 1.41147 0
M  V30 2762 H 262.636 -1.00949 3.91907 0
M  V30 2763 H 261.206 -1.2205 2.87789 0
M  V30 2764 H 260.426 1.09279 3.7875 0
M  V30 2765 H 261.714 0.955399 4.99749 0
M  V30 2766 H 261.112 -2.2191 5.20358 0
M  V30 2767 H 259.669 -2.19887 6.1359 0
M  V30 2768 N 263.102 -1.41638 0.69111 0
M  V30 2769 C 264.33 -2.05628 0.22909 0
M  V30 2770 C 264.745 -1.51992 -1.11999 0
M  V30 2771 O 264.102 -0.666322 -1.69901 0
M  V30 2772 C 264.153 -3.61084 0.173283 0
M  V30 2773 O 263.874 -4.12735 1.46907 0
M  V30 2774 C 265.375 -4.42213 -0.310266 0
M  V30 2775 H 262.595 -0.662327 0.107534 0
M  V30 2776 H 265.139 -1.81489 0.942438 0
M  V30 2777 H 263.294 -3.84278 -0.490858 0
M  V30 2778 H 263.708 -5.06743 1.35322 0
M  V30 2779 H 265.182 -5.51194 -0.298196 0
M  V30 2780 H 265.659 -4.1799 -1.34838 0
M  V30 2781 H 266.265 -4.24074 0.322716 0
M  V30 2782 N 264.58 -0.43555 -1.51462 0
M  V30 2783 C 265.827 0.131514 -2.02072 0
M  V30 2784 C 266.155 1.42868 -1.31981 0
M  V30 2785 O 265.41 1.91076 -0.422883 0
M  V30 2786 C 265.709 0.39942 -3.55161 0
M  V30 2787 C 265.375 -0.81172 -4.43533 0
M  V30 2788 C 264.037 -1.14387 -4.67407 0
M  V30 2789 C 266.389 -1.61976 -4.95392 0
M  V30 2790 C 263.717 -2.28477 -5.40384 0
M  V30 2791 C 266.069 -2.75164 -5.6962 0
M  V30 2792 C 264.733 -3.08835 -5.91758 0
M  V30 2793 H 264.003 0.0481244 -0.739436 0
M  V30 2794 H 266.65 -0.58238 -1.8243 0
M  V30 2795 H 264.955 1.19519 -3.73125 0
M  V30 2796 H 266.652 0.85157 -3.91854 0
M  V30 2797 H 263.242 -0.542898 -4.25148 0
M  V30 2798 H 267.426 -1.37637 -4.76833 0
M  V30 2799 H 262.682 -2.5488 -5.55739 0
M  V30 2800 H 266.856 -3.38147 -6.08793 0
M  V30 2801 H 264.483 -3.97353 -6.48086 0
M  V30 2802 N 266.058 1.56714 -0.166846 0
M  V30 2803 C 267.335 1.88412 0.525373 0
M  V30 2804 C 267.715 1.07602 1.81618 0
M  V30 2805 O 267.063 0.168621 2.27877 0
M  V30 2806 C 267.273 3.40363 0.771613 0
M  V30 2807 C 268.621 4.10007 1.1036 0
M  V30 2808 O 269.645 3.45655 0.860304 0
M  V30 2809 O 268.504 5.2369 1.56239 0
M  V30 2810 H 265.598 0.781587 0.270278 0
M  V30 2811 H 268.144 1.68458 -0.204946 0
M  V30 2812 H 266.916 3.91046 -0.141093 0
M  V30 2813 H 266.539 3.65914 1.55541 0
M  V30 2814 N 267.536 -0.106894 1.57237 0
M  V30 2815 C 268.468 -1.15646 1.97885 0
M  V30 2816 C 269.481 -1.36981 0.879779 0
M  V30 2817 O 270.67 -1.35841 1.15799 0
M  V30 2818 C 267.77 -2.51425 2.27241 0
M  V30 2819 C 266.943 -2.50529 3.58545 0
M  V30 2820 C 266.002 -3.68145 3.75973 0
M  V30 2821 O 265.028 -3.51176 4.47956 0
M  V30 2822 N 266.23 -4.87177 3.15656 0
M  V30 2823 H 268.995 -0.81059 2.8853 0
M  V30 2824 H 266.556 -0.296024 1.59171 0
M  V30 2825 H 268.548 -3.28689 2.36105 0
M  V30 2826 H 267.118 -2.78147 1.42663 0
M  V30 2827 H 266.338 -1.58894 3.60758 0
M  V30 2828 H 267.626 -2.46997 4.44826 0
M  V30 2829 H 267.024 -5.03868 2.57165 0
M  V30 2830 H 265.581 -5.62075 3.30023 0
M  V30 2831 N 269.014 -1.53014 -0.377408 0
M  V30 2832 C 270.239 -1.72818 -1.14668 0
M  V30 2833 C 270.664 -0.450725 -1.8262 0
M  V30 2834 O 270.022 0.59439 -1.7128 0
M  V30 2835 C 270.07 -2.88627 -2.16164 0
M  V30 2836 O 269.174 -2.56409 -3.22998 0
M  V30 2837 H 268.515 -0.574301 -0.333278 0
M  V30 2838 H 271.045 -1.99853 -0.438152 0
M  V30 2839 H 271.055 -3.14455 -2.59966 0
M  V30 2840 H 269.73 -3.81294 -1.66095 0
M  V30 2841 H 268.307 -2.4136 -2.84253 0
M  V30 2842 N 270.492 0.636531 -1.44174 0
M  V30 2843 C 271.455 1.73063 -1.50273 0
M  V30 2844 C 272.455 1.56113 -0.385397 0
M  V30 2845 O 273.645 1.61707 -0.64781 0
M  V30 2846 C 270.777 3.12096 -1.37145 0
M  V30 2847 H 271.97 1.69031 -2.47727 0
M  V30 2848 H 269.523 0.849706 -1.31186 0
M  V30 2849 H 270.258 3.21728 -0.407636 0
M  V30 2850 H 270.043 3.25805 -2.18159 0
M  V30 2851 H 271.533 3.91846 -1.44382 0
M  V30 2852 N 271.97 1.30982 0.876444 0
M  V30 2853 C 272.92 1.14688 1.97055 0
M  V30 2854 C 273.904 0.0596593 1.60789 0
M  V30 2855 O 275.096 0.283892 1.74708 0
M  V30 2856 C 272.225 0.849627 3.3262 0
M  V30 2857 C 271.311 1.97752 3.75173 0
M  V30 2858 N 271.702 3.22384 3.89746 0
M  V30 2859 C 270 1.8758 4.04635 0
M  V30 2860 C 270.701 3.96121 4.25985 0
M  V30 2861 N 269.677 3.24237 4.36315 0
M  V30 2862 H 273.479 2.09204 2.06424 0
M  V30 2863 H 270.993 1.22445 1.06682 0
M  V30 2864 H 272.99 0.713895 4.10742 0
M  V30 2865 H 271.65 -0.087376 3.24582 0
M  V30 2866 H 272.661 3.57575 3.74647 0
M  V30 2867 H 269.338 1.01303 4.05024 0
M  V30 2868 H 270.728 5.03491 4.44911 0
M  V30 2869 N 273.449 -1.08991 1.13837 0
M  V30 2870 C 274.726 -1.77863 0.813876 0
M  V30 2871 C 275.106 -1.99375 -0.693746 0
M  V30 2872 O 274.454 -1.59875 -1.63255 0
M  V30 2873 C 274.664 -3.0986 1.60586 0
M  V30 2874 C 276.012 -3.84493 1.8014 0
M  V30 2875 O 277.036 -3.19624 1.57222 0
M  V30 2876 O 275.895 -5.00957 2.18413 0
M  V30 2877 H 272.989 -0.771589 0.297624 0
M  V30 2878 H 275.535 -1.15507 1.24323 0
M  V30 2879 H 274.307 -2.89715 2.63022 0
M  V30 2880 H 273.93 -3.79942 1.17173 0
M  V30 2881 N 274.927 -0.932562 -1.27047 0
M  V30 2882 C 276.157 -0.591173 -1.97961 0
M  V30 2883 C 276.565 0.836219 -1.69717 0
M  V30 2884 O 275.908 1.56801 -0.957036 0
M  V30 2885 C 275.97 -0.743082 -3.51736 0
M  V30 2886 C 275.634 -2.1435 -4.03613 0
M  V30 2887 C 276.631 -3.11815 -4.16014 0
M  V30 2888 C 274.316 -2.46175 -4.37839 0
M  V30 2889 C 276.31 -4.39211 -4.61923 0
M  V30 2890 C 273.997 -3.73806 -4.83438 0
M  V30 2891 C 274.995 -4.70137 -4.95439 0
M  V30 2892 O 274.683 -5.95496 -5.40037 0
M  V30 2893 H 274.415 -0.222375 -0.638377 0
M  V30 2894 H 276.969 -1.25317 -1.62742 0
M  V30 2895 H 275.199 -0.0239739 -3.86693 0
M  V30 2896 H 276.888 -0.40603 -4.03864 0
M  V30 2897 H 277.654 -2.88549 -3.89826 0
M  V30 2898 H 273.533 -1.71936 -4.27737 0
M  V30 2899 H 277.077 -5.14404 -4.71205 0
M  V30 2900 H 272.974 -3.96888 -5.09068 0
M  V30 2901 H 273.742 -5.98554 -5.58279 0
M  V30 2902 N 276.405 1.4127 -0.698611 0
M  V30 2903 C 277.821 1.55241 -0.370462 0
M  V30 2904 C 278.021 1.67351 1.12231 0
M  V30 2905 O 277.077 1.65363 1.90818 0
M  V30 2906 C 278.39 2.78997 -1.12165 0
M  V30 2907 C 279.938 2.92797 -1.1063 0
M  V30 2908 C 280.413 4.19445 -1.8393 0
M  V30 2909 N 281.904 4.26409 -1.80914 0
M  V30 2910 C 282.639 5.23271 -2.34467 0
M  V30 2911 N 282.135 6.26145 -2.96504 0
M  V30 2912 N 283.928 5.15232 -2.24706 0
M  V30 2913 H 276.079 1.31654 -1.66676 0
M  V30 2914 H 278.342 0.635393 -0.703548 0
M  V30 2915 H 278.048 2.76268 -2.17644 0
M  V30 2916 H 277.922 3.70606 -0.702209 0
M  V30 2917 H 280.309 2.95039 -0.0597713 0
M  V30 2918 H 280.39 2.02353 -1.56483 0
M  V30 2919 H 280.034 4.17964 -2.88563 0
M  V30 2920 H 279.964 5.08866 -1.35509 0
M  V30 2921 H 282.455 3.527 -1.35687 0
M  V30 2922 H 282.768 6.96451 -3.34927 0
M  V30 2923 H 281.113 6.26638 -3.00583 0
M  V30 2924 H 284.304 4.33789 -1.7591 0
M  V30 2925 H 284.477 5.90552 -2.66745 0
M  V30 2926 N 277.883 0.443576 1.51229 0
M  V30 2927 C 279.13 -0.120796 2.02139 0
M  V30 2928 C 279.458 -1.42166 1.32736 0
M  V30 2929 O 278.713 -1.90849 0.43301 0
M  V30 2930 C 279.012 -0.380579 3.55368 0
M  V30 2931 C 278.678 0.83523 4.43097 0
M  V30 2932 C 277.34 1.16864 4.66794 0
M  V30 2933 C 279.692 1.64601 4.94526 0
M  V30 2934 C 277.02 2.31339 5.39165 0
M  V30 2935 C 279.372 2.78181 5.68153 0
M  V30 2936 C 278.036 3.11969 5.90112 0
M  V30 2937 H 277.306 -0.0442023 0.73968 0
M  V30 2938 H 279.953 0.592046 1.82118 0
M  V30 2939 H 278.258 -1.17538 3.73754 0
M  V30 2940 H 279.955 -0.830777 3.923 0
M  V30 2941 H 276.545 0.565437 4.24854 0
M  V30 2942 H 280.729 1.40163 4.76097 0
M  V30 2943 H 275.985 2.57823 5.5438 0
M  V30 2944 H 280.159 3.41371 6.06992 0
M  V30 2945 H 277.786 4.00784 6.45969 0
M  V30 2946 N 279.361 -1.56624 0.175154 0
M  V30 2947 C 280.324 -2.16934 -0.739738 0
M  V30 2948 C 281.324 -1.11842 -1.15533 0
M  V30 2949 O 282.514 -1.37335 -1.07167 0
M  V30 2950 C 279.646 -2.75531 -2.00738 0
M  V30 2951 H 280.839 -2.99131 -0.214639 0
M  V30 2952 H 278.392 -1.56123 -0.0744197 0
M  V30 2953 H 279.127 -1.97078 -2.57548 0
M  V30 2954 H 278.912 -3.52444 -1.71831 0
M  V30 2955 H 280.402 -3.21904 -2.66021 0
M  V30 2956 N 280.839 0.0985539 -1.57292 0
M  V30 2957 C 281.771 1.14595 -1.98496 0
M  V30 2958 C 282.784 1.36512 -0.887031 0
M  V30 2959 O 283.973 1.35225 -1.16518 0
M  V30 2960 C 281.073 2.50216 -2.28572 0
M  V30 2961 C 280.246 2.48624 -3.59868 0
M  V30 2962 C 279.305 3.66146 -3.7792 0
M  V30 2963 O 278.331 3.48795 -4.49812 0
M  V30 2964 N 279.533 4.85496 -3.18235 0
M  V30 2965 H 282.298 0.795277 -2.88956 0
M  V30 2966 H 279.859 0.287579 -1.59325 0
M  V30 2967 H 281.851 3.27432 -2.37845 0
M  V30 2968 H 280.421 2.77387 -1.44136 0
M  V30 2969 H 279.641 1.56978 -3.61596 0
M  V30 2970 H 280.929 2.44635 -4.46129 0
M  V30 2971 H 280.327 5.02497 -2.59833 0
M  V30 2972 H 278.884 5.60317 -3.32999 0
M  V30 2973 N 282.317 1.53212 0.369288 0
M  V30 2974 C 283.563 1.70413 1.11046 0
M  V30 2975 C 283.918 0.448509 1.87099 0
M  V30 2976 O 283.211 -0.558382 1.83283 0
M  V30 2977 C 283.405 2.89101 2.10132 0
M  V30 2978 C 283.234 4.26084 1.43814 0
M  V30 2979 C 282.004 4.90994 1.19384 0
M  V30 2980 C 284.202 5.06754 0.877802 0
M  V30 2981 N 282.184 6.11911 0.49377 0
M  V30 2982 C 283.555 6.1924 0.306891 0
M  V30 2983 C 285.61 4.91814 0.776129 0
M  V30 2984 C 284.313 7.1842 -0.355774 0
M  V30 2985 C 286.339 5.91263 0.127252 0
M  V30 2986 C 285.701 7.03069 -0.432801 0
M  V30 2987 H 281.8 0.676872 0.391623 0
M  V30 2988 H 284.384 1.90603 0.397334 0
M  V30 2989 H 282.555 2.70456 2.78761 0
M  V30 2990 H 284.287 2.95142 2.76899 0
M  V30 2991 H 281.042 4.50074 1.47413 0
M  V30 2992 H 281.466 6.76813 0.159207 0
M  V30 2993 H 286.108 4.05564 1.19489 0
M  V30 2994 H 283.826 8.04264 -0.786499 0
M  V30 2995 H 287.412 5.81779 0.0495613 0
M  V30 2996 H 286.292 7.78702 -0.926958 0
M  V30 2997 N 283.795 -0.628877 1.44509 0
M  V30 2998 C 284.727 -1.754 1.47538 0
M  V30 2999 C 285.74 -1.58575 0.368506 0
M  V30 3000 O 286.929 -1.66847 0.634376 0
M  V30 3001 C 284.029 -3.1315 1.29577 0
M  V30 3002 C 283.202 -3.56413 2.53551 0
M  V30 3003 C 282.261 -4.7305 2.30457 0
M  V30 3004 O 281.287 -4.81247 3.03957 0
M  V30 3005 N 282.489 -5.64903 1.3366 0
M  V30 3006 H 285.254 -1.73272 2.44534 0
M  V30 3007 H 282.815 -0.813512 1.39977 0
M  V30 3008 H 284.807 -3.88902 1.11971 0
M  V30 3009 H 283.377 -3.09908 0.409371 0
M  V30 3010 H 282.597 -2.70847 2.86419 0
M  V30 3011 H 283.885 -3.82071 3.36005 0
M  V30 3012 H 283.283 -5.60975 0.729604 0
M  V30 3013 H 281.84 -6.40275 1.22032 0
M  V30 3014 N 285.273 -1.31445 -0.869486 0
M  V30 3015 C 286.203 -1.21727 -1.99261 0
M  V30 3016 C 287.184 -0.104359 -1.6978 0
M  V30 3017 O 288.369 -0.289038 -1.92037 0
M  V30 3018 C 285.499 -0.924317 -3.34774 0
M  V30 3019 C 284.453 -1.99685 -3.78563 0
M  V30 3020 C 283.779 -1.55658 -5.11541 0
M  V30 3021 C 285.079 -3.41003 -3.95619 0
M  V30 3022 H 286.773 -2.1569 -2.07649 0
M  V30 3023 H 284.319 -1.03839 -0.997675 0
M  V30 3024 H 286.272 -0.842934 -4.12883 0
M  V30 3025 H 284.996 0.0509793 -3.2656 0
M  V30 3026 H 283.655 -2.06813 -3.02694 0
M  V30 3027 H 283.303 -0.569132 -4.9977 0
M  V30 3028 H 283.003 -2.27409 -5.41811 0
M  V30 3029 H 284.527 -1.48928 -5.92159 0
M  V30 3030 H 285.941 -3.36547 -4.64122 0
M  V30 3031 H 284.338 -4.10975 -4.37286 0
M  V30 3032 H 285.408 -3.81754 -2.98985 0
M  V30 3033 N 286.751 1.08385 -1.14413 0
M  V30 3034 C 287.999 1.80419 -0.910679 0
M  V30 3035 C 288.32 1.86658 0.564243 0
M  V30 3036 O 287.59 1.35985 1.41014 0
M  V30 3037 H 286.17 0.668204 -0.333934 0
M  V30 3038 H 288.832 1.31037 -1.44275 0
M  V30 3039 H 287.928 2.83238 -1.31082 0
M  V30 3040 N 288.23 0.939286 1.26551 0
M  V30 3041 C 289.476 0.586715 1.94128 0
M  V30 3042 C 289.809 -0.8717 1.73537 0
M  V30 3043 O 289.084 -1.62339 1.07127 0
M  V30 3044 C 289.367 0.927497 3.4795 0
M  V30 3045 C 289.22 2.44052 3.77834 0
M  V30 3046 C 290.539 0.441569 4.37879 0
M  V30 3047 H 287.658 0.21463 0.705055 0
M  V30 3048 H 290.3 1.17316 1.49455 0
M  V30 3049 H 288.45 0.428431 3.8613 0
M  V30 3050 H 290.122 3.01216 3.4938 0
M  V30 3051 H 288.365 2.8848 3.23978 0
M  V30 3052 H 289.036 2.62947 4.85348 0
M  V30 3053 H 291.512 0.869448 4.06915 0
M  V30 3054 H 290.388 0.708856 5.44304 0
M  V30 3055 H 290.649 -0.658467 4.37169 0
M  V30 3056 N 289.708 -1.40897 0.706093 0
M  V30 3057 C 290.638 -2.33418 0.0620085 0
M  V30 3058 C 291.619 -1.52385 -0.755827 0
M  V30 3059 O 292.804 -1.80886 -0.706674 0
M  V30 3060 C 289.934 -3.36293 -0.867445 0
M  V30 3061 C 288.888 -4.27716 -0.155932 0
M  V30 3062 C 288.214 -5.2105 -1.20046 0
M  V30 3063 C 289.514 -5.12944 0.984149 0
M  V30 3064 H 291.208 -2.87527 0.83477 0
M  V30 3065 H 288.754 -1.38249 0.402875 0
M  V30 3066 H 290.707 -3.99949 -1.32735 0
M  V30 3067 H 289.431 -2.80556 -1.67199 0
M  V30 3068 H 288.09 -3.65498 0.284047 0
M  V30 3069 H 287.738 -4.61624 -1.99781 0
M  V30 3070 H 287.438 -5.83056 -0.729328 0
M  V30 3071 H 288.962 -5.87584 -1.66066 0
M  V30 3072 H 290.376 -5.70109 0.604048 0
M  V30 3073 H 288.773 -5.83945 1.38304 0
M  V30 3074 H 289.843 -4.49485 1.81911 0
M  V30 3075 N 291.186 -0.45159 -1.50991 0
M  V30 3076 C 292.149 0.341117 -2.26647 0
M  V30 3077 C 293.149 0.937422 -1.30649 0
M  V30 3078 O 294.339 0.809644 -1.54241 0
M  V30 3079 C 291.471 1.48398 -3.06905 0
M  V30 3080 H 292.664 -0.322117 -2.98165 0
M  V30 3081 H 290.217 -0.205122 -1.54948 0
M  V30 3082 H 290.952 2.18284 -2.39838 0
M  V30 3083 H 290.737 1.06241 -3.77432 0
M  V30 3084 H 292.227 2.04367 -3.64176 0
M  V30 3085 N 292.664 1.56529 -0.183458 0
M  V30 3086 C 293.91 1.97537 0.459036 0
M  V30 3087 C 294.243 1.06989 1.62071 0
M  V30 3088 O 293.518 0.11948 1.94133 0
M  V30 3089 C 293.801 3.47874 0.930368 0
M  V30 3090 C 293.654 4.492 -0.232317 0
M  V30 3091 C 294.973 4.01612 1.79989 0
M  V30 3092 H 292.092 0.718204 0.165383 0
M  V30 3093 H 294.734 1.88042 -0.272038 0
M  V30 3094 H 292.884 3.56095 1.55333 0
M  V30 3095 H 294.556 4.53027 -0.86972 0
M  V30 3096 H 292.799 4.24657 -0.885928 0
M  V30 3097 H 293.47 5.51823 0.139796 0
M  V30 3098 H 295.946 3.96097 1.27461 0
M  V30 3099 H 294.822 5.07195 2.09867 0
M  V30 3100 H 295.083 3.46163 2.74998 0
M  V30 3101 N 294.142 -0.090211 1.57342 0
M  V30 3102 C 295.388 -0.793982 1.86611 0
M  V30 3103 C 295.721 -1.78142 0.773252 0
M  V30 3104 O 294.996 -1.93271 -0.218304 0
M  V30 3105 C 295.279 -1.51839 3.26523 0
M  V30 3106 C 295.132 -0.548609 4.46442 0
M  V30 3107 C 296.451 -2.46779 3.64401 0
M  V30 3108 H 293.57 -0.287186 0.678744 0
M  V30 3109 H 296.212 -0.0575076 1.89913 0
M  V30 3110 H 294.362 -2.14617 3.23839 0
M  V30 3111 H 296.034 0.0725513 4.61243 0
M  V30 3112 H 294.277 0.137614 4.33582 0
M  V30 3113 H 294.948 -1.09271 5.41076 0
M  V30 3114 H 297.424 -1.94089 3.68061 0
M  V30 3115 H 296.3 -2.94479 4.63221 0
M  V30 3116 H 296.561 -3.30758 2.93346 0
M  V30 3117 N 295.62 -1.53406 -0.361157 0
M  V30 3118 C 296.55 -1.83136 -1.44857 0
M  V30 3119 C 297.531 -0.685174 -1.5569 0
M  V30 3120 O 298.716 -0.93544 -1.70186 0
M  V30 3121 C 295.846 -2.02522 -2.82138 0
M  V30 3122 C 294.8 -3.18302 -2.86126 0
M  V30 3123 C 294.126 -3.22989 -4.26125 0
M  V30 3124 C 295.426 -4.56796 -2.53248 0
M  V30 3125 H 297.12 -2.74201 -1.20226 0
M  V30 3126 H 294.666 -1.31938 -0.576922 0
M  V30 3127 H 296.619 -2.21904 -3.58241 0
M  V30 3128 H 295.343 -1.08172 -3.08166 0
M  V30 3129 H 294.002 -2.98747 -2.12475 0
M  V30 3130 H 293.65 -2.26267 -4.49235 0
M  V30 3131 H 293.35 -4.00781 -4.29708 0
M  V30 3132 H 294.874 -3.44559 -5.04094 0
M  V30 3133 H 296.288 -4.7631 -3.19064 0
M  V30 3134 H 294.685 -5.36862 -2.68141 0
M  V30 3135 H 295.755 -4.61606 -1.48484 0
M  V30 3136 N 297.098 0.621204 -1.44841 0
M  V30 3137 C 298.344 1.3826 -1.48365 0
M  V30 3138 C 298.677 1.93831 -0.119624 0
M  V30 3139 O 297.952 1.74251 0.864111 0
M  V30 3140 C 298.235 2.54058 -2.55199 0
M  V30 3141 C 298.088 2.03772 -4.00995 0
M  V30 3142 C 299.407 3.56225 -2.58442 0
M  V30 3143 H 296.526 0.501374 -0.540179 0
M  V30 3144 H 299.168 0.7015 -1.76576 0
M  V30 3145 H 297.318 3.12162 -2.31274 0
M  V30 3146 H 298.99 1.50423 -4.36086 0
M  V30 3147 H 297.233 1.34876 -4.12299 0
M  V30 3148 H 297.904 2.87185 -4.71411 0
M  V30 3149 H 300.38 3.07939 -2.79844 0
M  V30 3150 H 299.256 4.34756 -3.3508 0
M  V30 3151 H 299.517 4.10949 -1.63013 0
M  V30 3152 N 298.576 1.31904 0.862503 0
M  V30 3153 C 299.506 1.22782 1.98612 0
M  V30 3154 C 300.487 0.113362 1.69722 0
M  V30 3155 O 301.672 0.299218 1.91881 0
M  V30 3156 C 298.802 0.942058 3.34279 0
M  V30 3157 C 297.756 2.0169 3.77499 0
M  V30 3158 C 297.082 1.58369 5.10709 0
M  V30 3159 C 298.382 3.43096 3.93805 0
M  V30 3160 H 300.076 2.16788 2.06502 0
M  V30 3161 H 297.622 1.04366 0.992154 0
M  V30 3162 H 299.575 0.864818 4.1243 0
M  V30 3163 H 298.299 -0.0336603 3.26583 0
M  V30 3164 H 296.958 2.08416 3.01593 0
M  V30 3165 H 296.606 0.595628 4.99461 0
M  V30 3166 H 296.306 2.30279 5.40597 0
M  V30 3167 H 297.83 1.52067 5.91361 0
M  V30 3168 H 299.244 3.39003 4.62331 0
M  V30 3169 H 297.641 4.13288 4.35101 0
M  V30 3170 H 298.711 3.83334 2.96957 0
M  V30 3171 N 300.054 -1.07777 1.14986 0
M  V30 3172 C 301.303 -1.79669 0.916617 0
M  V30 3173 C 301.616 -1.87474 -0.557917 0
M  V30 3174 O 302.822 -2.55845 -0.908617 0
M  V30 3175 C 301.278 -3.22848 1.59051 0
M  V30 3176 C 300.886 -3.23257 3.10176 0
M  V30 3177 C 302.63 -3.99379 1.43864 0
M  V30 3178 C 300.537 -4.61063 3.70372 0
M  V30 3179 H 299.467 -0.673349 0.33929 0
M  V30 3180 H 302.118 -1.21003 1.37951 0
M  V30 3181 H 300.5 -3.8168 1.0553 0
M  V30 3182 H 301.674 -2.74095 3.70417 0
M  V30 3183 H 299.989 -2.60222 3.25074 0
M  V30 3184 H 302.586 -5.0122 1.86232 0
M  V30 3185 H 302.929 -4.14511 0.385564 0
M  V30 3186 H 303.462 -3.47032 1.94457 0
M  V30 3187 H 300.201 -4.51135 4.7556 0
M  V30 3188 H 299.721 -5.1048 3.14913 0
M  V30 3189 H 301.4 -5.30034 3.71043 0
M  V30 3190 N 301.532 -0.945985 -1.26051 0
M  V30 3191 C 302.462 -0.477172 -2.28572 0
M  V30 3192 C 303.443 0.472032 -1.63419 0
M  V30 3193 O 304.628 0.372853 -1.90587 0
M  V30 3194 C 301.758 0.253975 -3.4637 0
M  V30 3195 C 300.712 -0.609135 -4.23643 0
M  V30 3196 C 300.038 0.252252 -5.34105 0
M  V30 3197 C 301.338 -1.8829 -4.8718 0
M  V30 3198 H 303.032 -1.33402 -2.68038 0
M  V30 3199 H 300.578 -0.642904 -1.28852 0
M  V30 3200 H 302.531 0.593016 -4.17207 0
M  V30 3201 H 301.255 1.145 -3.05871 0
M  V30 3202 H 299.914 -0.931138 -3.54578 0
M  V30 3203 H 299.562 1.14278 -4.89846 0
M  V30 3204 H 299.262 -0.32188 -5.86718 0
M  V30 3205 H 300.786 0.586454 -6.07777 0
M  V30 3206 H 302.2 -1.61081 -5.50205 0
M  V30 3207 H 300.597 -2.40199 -5.49931 0
M  V30 3208 H 301.667 -2.59134 -4.09851 0
M  V30 3209 N 303.011 1.40521 -0.713556 0
M  V30 3210 C 303.944 2.28198 -0.00881422 0
M  V30 3211 C 304.922 1.43227 0.769735 0
M  V30 3212 O 306.106 1.72641 0.756799 0
M  V30 3213 C 303.233 3.23758 0.994899 0
M  V30 3214 C 302.279 4.25391 0.3074 0
M  V30 3215 S 303.112 5.26765 -0.963247 0
M  V30 3216 C 304.268 6.25888 0.0384143 0
M  V30 3217 H 304.501 2.87622 -0.752407 0
M  V30 3218 H 302.034 1.45925 -0.504502 0
M  V30 3219 H 303.992 3.79341 1.56879 0
M  V30 3220 H 302.653 2.63396 1.71118 0
M  V30 3221 H 301.846 4.92596 1.0661 0
M  V30 3222 H 301.448 3.73497 -0.193879 0
M  V30 3223 H 303.74 6.71683 0.885912 0
M  V30 3224 H 304.683 7.05552 -0.60019 0
M  V30 3225 H 305.091 5.63072 0.401233 0
M  V30 3226 N 304.489 0.459591 1.5075 0
M  V30 3227 C 305.735 -0.0994966 2.02556 0
M  V30 3228 C 306.068 -1.40399 1.3417 0
M  V30 3229 O 305.343 -1.88892 0.463683 0
M  V30 3230 C 305.626 -0.295242 3.58888 0
M  V30 3231 C 305.479 1.02947 4.37861 0
M  V30 3232 C 306.798 -1.05502 4.27267 0
M  V30 3233 H 303.917 -0.034686 0.736183 0
M  V30 3234 H 306.559 0.602938 1.8018 0
M  V30 3235 H 304.709 -0.893563 3.78084 0
M  V30 3236 H 306.381 1.66348 4.30263 0
M  V30 3237 H 304.624 1.62885 4.02058 0
M  V30 3238 H 305.295 0.846281 5.45474 0
M  V30 3239 H 307.771 -0.547993 4.12476 0
M  V30 3240 H 306.647 -1.16077 5.36486 0
M  V30 3241 H 306.908 -2.08875 3.89645 0
M  V30 3242 N 305.967 -1.56429 0.191757 0
M  V30 3243 C 307.213 -1.97777 -0.448554 0
M  V30 3244 C 307.546 -1.07847 -1.61501 0
M  V30 3245 O 306.821 -0.129774 -1.94067 0
M  V30 3246 C 307.104 -3.48362 -0.911906 0
M  V30 3247 C 306.957 -4.4907 0.256136 0
M  V30 3248 C 308.276 -4.02561 -1.77857 0
M  V30 3249 H 305.395 -0.719071 -0.161572 0
M  V30 3250 H 308.037 -1.87896 0.282007 0
M  V30 3251 H 306.187 -3.56914 -1.53442 0
M  V30 3252 H 307.859 -4.5256 0.893733 0
M  V30 3253 H 306.102 -4.24181 0.908436 0
M  V30 3254 H 306.773 -5.51889 -0.11053 0
M  V30 3255 H 309.249 -3.96767 -1.25359 0
M  V30 3256 H 308.125 -5.08301 -2.07174 0
M  V30 3257 H 308.386 -3.47616 -2.73158 0
M  V30 3258 N 307.445 0.0818655 -1.57387 0
M  V30 3259 C 308.691 0.778884 -1.87896 0
M  V30 3260 C 309.046 1.75692 -0.784229 0
M  V30 3261 O 308.339 1.90417 0.212567 0
M  V30 3262 C 308.533 1.53513 -3.22752 0
M  V30 3263 C 308.362 0.631838 -4.45239 0
M  V30 3264 C 307.132 0.272571 -5.04564 0
M  V30 3265 C 309.33 -0.0670191 -5.14256 0
M  V30 3266 N 307.312 -0.637498 -6.10581 0
M  V30 3267 C 308.683 -0.834653 -6.14356 0
M  V30 3268 C 310.738 -0.139551 -4.97704 0
M  V30 3269 C 309.441 -1.66806 -6.99691 0
M  V30 3270 C 311.467 -0.959903 -5.83558 0
M  V30 3271 C 310.829 -1.71561 -6.83188 0
M  V30 3272 H 306.928 0.260764 -0.737242 0
M  V30 3273 H 309.512 0.0408227 -1.94657 0
M  V30 3274 H 307.683 2.24398 -3.17018 0
M  V30 3275 H 309.415 2.18038 -3.40942 0
M  V30 3276 H 306.17 0.62319 -4.69482 0
M  V30 3277 H 306.594 -1.08548 -6.68241 0
M  V30 3278 H 311.236 0.430376 -4.20604 0
M  V30 3279 H 308.954 -2.249 -7.76174 0
M  V30 3280 H 312.54 -1.01887 -5.72809 0
M  V30 3281 H 311.42 -2.34017 -7.48469 0
M  V30 3282 N 308.923 1.53595 0.353017 0
M  V30 3283 C 310.17 1.70385 1.09431 0
M  V30 3284 C 310.498 0.462113 1.88931 0
M  V30 3285 O 309.753 -0.556074 1.87633 0
M  V30 3286 C 310.052 2.91313 2.07054 0
M  V30 3287 C 309.718 4.27308 1.43939 0
M  V30 3288 C 308.38 4.64287 1.26454 0
M  V30 3289 C 310.732 5.11829 0.983883 0
M  V30 3290 C 308.06 5.83412 0.620226 0
M  V30 3291 C 310.412 6.31611 0.353516 0
M  V30 3292 C 309.076 6.67293 0.166272 0
M  V30 3293 H 308.346 0.623484 0.400436 0
M  V30 3294 H 310.993 1.87799 0.374655 0
M  V30 3295 H 309.298 2.68463 2.85368 0
M  V30 3296 H 310.995 3.01497 2.64387 0
M  V30 3297 H 307.585 3.98198 1.58543 0
M  V30 3298 H 311.769 4.838 1.10685 0
M  V30 3299 H 307.025 6.09639 0.463681 0
M  V30 3300 H 311.199 6.964 -0.00757555 0
M  V30 3301 H 308.826 7.59461 -0.335047 0
M  V30 3302 N 310.401 -0.613514 1.45168 0
M  V30 3303 C 311.649 -1.36997 1.48581 0
M  V30 3304 C 311.97 -1.94589 0.126545 0
M  V30 3305 O 311.24 -1.76816 -0.843372 0
M  V30 3306 H 309.82 -0.508558 0.547154 0
M  V30 3307 H 312.482 -0.720853 1.81079 0
M  V30 3308 H 311.578 -2.1924 2.22127 0
M  V30 3309 N 311.879 -1.3236 -0.855495 0
M  V30 3310 C 313.128 -1.22226 -1.60448 0
M  V30 3311 C 313.441 0.214733 -1.94418 0
M  V30 3312 O 314.647 0.437917 -2.67945 0
M  V30 3313 C 313.103 -2.14063 -2.89318 0
M  V30 3314 C 312.711 -3.62839 -2.62777 0
M  V30 3315 C 314.455 -2.12764 -3.67331 0
M  V30 3316 C 312.362 -4.4664 -3.87643 0
M  V30 3317 H 311.292 -0.453904 -0.602069 0
M  V30 3318 H 313.943 -1.57314 -0.944698 0
M  V30 3319 H 312.325 -1.71889 -3.5675 0
M  V30 3320 H 313.499 -4.1335 -2.03662 0
M  V30 3321 H 311.814 -3.66261 -1.98096 0
M  V30 3322 H 314.411 -2.72611 -4.59987 0
M  V30 3323 H 314.754 -1.11841 -4.00995 0
M  V30 3324 H 315.287 -2.53214 -3.06802 0
M  V30 3325 H 312.026 -5.48373 -3.5912 0
M  V30 3326 H 311.546 -4.0088 -4.46156 0
M  V30 3327 H 313.225 -4.59597 -4.55389 0
M  V30 3328 N 313.357 1.07166 -1.15556 0
M  V30 3329 C 314.773 1.31899 -0.898603 0
M  V30 3330 C 314.973 1.96333 0.453383 0
M  V30 3331 O 314.029 2.22438 1.19489 0
M  V30 3332 C 315.342 2.20826 -2.04099 0
M  V30 3333 C 316.89 2.34269 -2.07574 0
M  V30 3334 C 317.365 3.26546 -3.21141 0
M  V30 3335 N 318.856 3.34127 -3.20801 0
M  V30 3336 C 319.591 4.05595 -4.05315 0
M  V30 3337 N 319.087 4.79661 -4.99897 0
M  V30 3338 N 320.88 4.01555 -3.93332 0
M  V30 3339 H 313.031 0.637302 -2.02613 0
M  V30 3340 H 315.294 0.343468 -0.883591 0
M  V30 3341 H 315 1.80744 -3.01703 0
M  V30 3342 H 314.874 3.21364 -1.97496 0
M  V30 3343 H 317.261 2.73603 -1.10568 0
M  V30 3344 H 317.342 1.33429 -2.18244 0
M  V30 3345 H 316.986 2.87931 -4.184 0
M  V30 3346 H 316.916 4.27345 -3.07708 0
M  V30 3347 H 319.407 2.81336 -2.52306 0
M  V30 3348 H 319.72 5.31694 -5.60822 0
M  V30 3349 H 318.065 4.78671 -5.03884 0
M  V30 3350 H 321.256 3.42806 -3.18751 0
M  V30 3351 H 321.429 4.56987 -4.5942 0
M  V30 3352 N 314.835 0.952656 1.25548 0
M  V30 3353 C 315.785 0.442033 2.23674 0
M  V30 3354 C 316.769 -0.467632 1.53955 0
M  V30 3355 O 317.961 -0.301006 1.74422 0
M  V30 3356 C 315.09 -0.280816 3.4215 0
M  V30 3357 C 314.176 0.646803 4.19139 0
M  V30 3358 N 314.567 1.77759 4.73535 0
M  V30 3359 C 312.865 0.454617 4.43677 0
M  V30 3360 C 313.566 2.35658 5.31827 0
M  V30 3361 N 312.542 1.64333 5.18166 0
M  V30 3362 H 316.344 1.30505 2.63336 0
M  V30 3363 H 313.858 0.809904 1.40763 0
M  V30 3364 H 315.855 -0.663747 4.11582 0
M  V30 3365 H 314.515 -1.14046 3.04012 0
M  V30 3366 H 315.526 2.15949 4.7073 0
M  V30 3367 H 312.203 -0.362312 4.15925 0
M  V30 3368 H 313.593 3.30998 5.84713 0
M  V30 3369 N 316.313 -1.40141 0.720998 0
M  V30 3370 C 317.276 -2.29058 0.0805834 0
M  V30 3371 C 318.276 -1.45632 -0.681758 0
M  V30 3372 O 319.466 -1.6648 -0.512856 0
M  V30 3373 C 316.598 -3.28925 -0.895593 0
M  V30 3374 H 317.791 -2.87191 0.863793 0
M  V30 3375 H 315.344 -1.48553 0.485975 0
M  V30 3376 H 316.079 -2.75822 -1.70566 0
M  V30 3377 H 315.864 -3.90519 -0.351766 0
M  V30 3378 H 317.354 -3.95494 -1.34069 0
M  V30 3379 N 317.792 -0.46758 -1.50504 0
M  V30 3380 C 318.722 0.318381 -2.31319 0
M  V30 3381 C 319.703 0.993564 -1.38066 0
M  V30 3382 O 320.888 0.991411 -1.66987 0
M  V30 3383 C 318.018 1.40275 -3.17711 0
M  V30 3384 C 316.972 0.849373 -4.19487 0
M  V30 3385 C 316.298 2.03177 -4.94594 0
M  V30 3386 C 317.598 -0.136942 -5.2212 0
M  V30 3387 H 319.292 -0.356106 -2.97275 0
M  V30 3388 H 316.838 -0.172703 -1.42961 0
M  V30 3389 H 318.791 1.96004 -3.73042 0
M  V30 3390 H 317.515 2.10596 -2.49634 0
M  V30 3391 H 316.174 0.314076 -3.65252 0
M  V30 3392 H 315.822 2.72187 -4.22993 0
M  V30 3393 H 315.522 1.66774 -5.63436 0
M  V30 3394 H 317.046 2.59403 -5.52759 0
M  V30 3395 H 318.46 0.331056 -5.72343 0
M  V30 3396 H 316.857 -0.41507 -5.98663 0
M  V30 3397 H 317.927 -1.06398 -4.73083 0
M  V30 3398 N 319.27 1.56325 -0.20005 0
M  V30 3399 C 320.2 2.22318 0.713916 0
M  V30 3400 C 321.181 1.18788 1.21752 0
M  V30 3401 O 322.366 1.47309 1.26545 0
M  V30 3402 C 319.496 2.88639 1.93144 0
M  V30 3403 C 318.45 3.98457 1.56255 0
M  V30 3404 C 317.776 4.51967 2.85709 0
M  V30 3405 C 319.076 5.16612 0.768747 0
M  V30 3406 H 320.77 2.98952 0.163755 0
M  V30 3407 H 318.316 1.43792 0.0773219 0
M  V30 3408 H 320.269 3.33491 2.57608 0
M  V30 3409 H 318.993 2.09419 2.50621 0
M  V30 3410 H 317.652 3.54305 0.941471 0
M  V30 3411 H 317.3 3.69503 3.41287 0
M  V30 3412 H 317 5.26071 2.6177 0
M  V30 3413 H 318.524 4.99523 3.51154 0
M  V30 3414 H 319.938 5.57977 1.3166 0
M  V30 3415 H 318.335 5.96812 0.627286 0
M  V30 3416 H 319.405 4.84358 -0.229168 0
M  V30 3417 N 320.748 -0.0735177 1.57428 0
M  V30 3418 C 321.696 -1.10628 2.04607 0
M  V30 3419 C 322.69 -1.40181 0.951088 0
M  V30 3420 O 323.896 -1.39608 1.1362 0
M  V30 3421 H 320.271 -0.374088 0.652351 0
M  V30 3422 H 322.242 -0.682218 2.90497 0
M  V30 3423 C 320.991 -2.41212 2.50423 0
M  V30 3424 H 320.314 -2.19322 3.34272 0
M  V30 3425 H 321.754 -3.11927 2.87189 0
M  V30 3426 C 320.213 -3.0705 1.38644 0
M  V30 3427 O 320.743 -3.95056 0.727582 0
M  V30 3428 N 318.949 -2.67645 1.132 0
M  V30 3429 H 318.496 -1.96169 1.66959 0
M  V30 3430 H 318.454 -3.1202 0.386147 0
M  V30 3431 N 322.226 -1.5378 -0.344866 0
M  V30 3432 C 323.637 -1.62428 -0.920552 0
M  V30 3433 C 323.988 -0.504747 -1.89596 0
M  V30 3434 O 323.113 0.365711 -2.13287 0
M  V30 3435 C 323.708 -2.94419 -1.67639 0
M  V30 3436 C 322.267 -3.05333 -2.20111 0
M  V30 3437 C 321.414 -2.57866 -1.01982 0
M  V30 3438 H 324.365 -1.58222 -0.123042 0
M  V30 3439 H 324.386 -2.83384 -2.53917 0
M  V30 3440 H 323.898 -3.7588 -0.966224 0
M  V30 3441 H 321.999 -2.28502 -2.94308 0
M  V30 3442 H 322.112 -4.10778 -2.46573 0
M  V30 3443 H 320.476 -2.13241 -1.39285 0
M  V30 3444 H 321.259 -3.41765 -0.324308 0
M  V30 3445 N 323.704 0.605807 -1.45491 0
M  V30 3446 C 324.634 1.72709 -1.57143 0
M  V30 3447 C 325.615 1.6476 -0.422884 0
M  V30 3448 O 326.8 1.83132 -0.646247 0
M  V30 3449 C 323.93 3.11316 -1.53948 0
M  V30 3450 C 322.884 3.34077 -2.67537 0
M  V30 3451 C 322.21 4.72975 -2.49397 0
M  V30 3452 C 323.51 3.24158 -4.09535 0
M  V30 3453 H 325.204 1.63214 -2.51001 0
M  V30 3454 H 322.75 0.78379 -1.208 0
M  V30 3455 H 324.703 3.89557 -1.60696 0
M  V30 3456 H 323.427 3.21655 -0.566205 0
M  V30 3457 H 322.086 2.58227 -2.6022 0
M  V30 3458 H 321.734 4.8005 -1.50205 0
M  V30 3459 H 321.434 4.8916 -3.25571 0
M  V30 3460 H 322.958 5.53414 -2.58002 0
M  V30 3461 H 324.372 3.92271 -4.18086 0
M  V30 3462 H 322.769 3.51872 -4.86113 0
M  V30 3463 H 323.839 2.2157 -4.31317 0
M  V30 3464 N 325.182 1.32811 0.848464 0
M  V30 3465 C 326.145 1.22194 1.9391 0
M  V30 3466 C 327.145 0.143404 1.60159 0
M  V30 3467 O 328.335 0.394253 1.6968 0
M  V30 3468 C 325.467 0.88067 3.29328 0
M  V30 3469 H 326.66 2.19127 2.04752 0
M  V30 3470 H 324.213 1.16731 1.0394 0
M  V30 3471 H 324.948 -0.0865776 3.24184 0
M  V30 3472 H 324.733 1.66052 3.55203 0
M  V30 3473 H 326.223 0.830871 4.09251 0
M  V30 3474 N 326.66 -1.06551 1.16123 0
M  V30 3475 C 328.076 -1.3142 0.905585 0
M  V30 3476 C 328.276 -1.96571 -0.442964 0
M  V30 3477 O 327.332 -2.23068 -1.18308 0
M  V30 3478 C 328.645 -2.19741 2.05267 0
M  V30 3479 C 330.193 -2.33165 2.08813 0
M  V30 3480 C 330.668 -3.24838 3.22868 0
M  V30 3481 N 332.159 -3.32421 3.22568 0
M  V30 3482 C 332.894 -4.0344 4.0746 0
M  V30 3483 N 332.39 -4.77003 5.02434 0
M  V30 3484 N 334.183 -3.99464 3.95456 0
M  V30 3485 H 326.334 -0.626548 2.02949 0
M  V30 3486 H 328.597 -0.338777 0.8854 0
M  V30 3487 H 328.303 -1.79142 3.02657 0
M  V30 3488 H 328.177 -3.20313 1.99198 0
M  V30 3489 H 330.564 -2.73013 1.12018 0
M  V30 3490 H 330.645 -1.3227 2.18948 0
M  V30 3491 H 330.289 -2.85708 4.19921 0
M  V30 3492 H 330.219 -4.25707 3.0997 0
M  V30 3493 H 332.71 -2.79994 2.53795 0
M  V30 3494 H 333.023 -5.28712 5.63634 0
M  V30 3495 H 331.368 -4.75992 5.06415 0
M  V30 3496 H 334.559 -3.4111 3.20564 0
M  V30 3497 H 334.732 -4.54544 4.61837 0
M  V30 3498 N 328.138 -0.959301 -1.25041 0
M  V30 3499 C 329.384 -0.617525 -1.9317 0
M  V30 3500 C 329.717 0.843981 -1.74902 0
M  V30 3501 O 328.992 1.60615 -1.09696 0
M  V30 3502 C 329.275 -0.982736 -3.46431 0
M  V30 3503 C 329.128 -2.50032 -3.73904 0
M  V30 3504 C 330.447 -0.511176 -4.37121 0
M  V30 3505 H 327.566 -0.22582 -0.701552 0
M  V30 3506 H 330.208 -1.19679 -1.4757 0
M  V30 3507 H 328.358 -0.489806 -3.854 0
M  V30 3508 H 330.03 -3.06737 -3.44544 0
M  V30 3509 H 328.273 -2.93598 -3.19348 0
M  V30 3510 H 328.944 -2.70635 -4.81103 0
M  V30 3511 H 331.42 -0.934075 -4.0548 0
M  V30 3512 H 330.296 -0.795361 -5.43107 0
M  V30 3513 H 330.557 0.588834 -4.38161 0
M  V30 3514 N 329.616 1.39756 -0.72842 0
M  V30 3515 C 330.865 1.99879 -0.270407 0
M  V30 3516 C 331.178 1.58449 1.14688 0
M  V30 3517 O 332.384 2.11362 1.70407 0
M  V30 3518 C 330.84 3.57292 -0.43252 0
M  V30 3519 C 330.448 4.07688 -1.85727 0
M  V30 3520 C 332.192 4.24485 -0.0359507 0
M  V30 3521 C 330.099 5.5765 -1.96928 0
M  V30 3522 H 329.029 0.747689 -0.0973472 0
M  V30 3523 H 331.68 1.59837 -0.901355 0
M  V30 3524 H 330.062 3.95097 0.267219 0
M  V30 3525 H 331.236 3.81231 -2.58843 0
M  V30 3526 H 329.551 3.53135 -2.20646 0
M  V30 3527 H 332.148 5.34609 -0.0987484 0
M  V30 3528 H 332.491 4.03915 1.00787 0
M  V30 3529 H 333.024 3.9183 -0.686604 0
M  V30 3530 H 329.763 5.8309 -2.99476 0
M  V30 3531 H 329.283 5.8593 -1.28241 0
M  V30 3532 H 330.962 6.22957 -1.74737 0
M  V30 3533 N 331.094 0.475555 1.50254 0
M  V30 3534 C 332.322 -0.0754493 2.06762 0
M  V30 3535 C 332.737 -1.33111 1.33891 0
M  V30 3536 O 332.094 -1.77846 0.40952 0
M  V30 3537 C 332.145 -0.359008 3.59713 0
M  V30 3538 O 331.866 0.846851 4.29837 0
M  V30 3539 C 333.367 -0.956484 4.32858 0
M  V30 3540 H 330.587 0.00907525 0.670939 0
M  V30 3541 H 333.131 0.665618 1.93364 0
M  V30 3542 H 331.286 -1.05001 3.72899 0
M  V30 3543 H 331.7 0.594162 5.21124 0
M  V30 3544 H 333.174 -1.10463 5.40834 0
M  V30 3545 H 333.651 -1.94775 3.93649 0
M  V30 3546 H 334.257 -0.303723 4.24214 0
M  V30 3547 N 332.573 -1.56217 0.208337 0
M  V30 3548 C 333.523 -2.16324 -0.720281 0
M  V30 3549 C 334.507 -1.10775 -1.16695 0
M  V30 3550 O 335.699 -1.36801 -1.12314 0
M  V30 3551 C 332.828 -2.83644 -1.93393 0
M  V30 3552 C 331.914 -3.96401 -1.50755 0
M  V30 3553 N 332.305 -4.99546 -0.792937 0
M  V30 3554 C 330.603 -4.08246 -1.79585 0
M  V30 3555 C 331.304 -5.78828 -0.577364 0
M  V30 3556 N 330.28 -5.31723 -1.1301 0
M  V30 3557 H 334.082 -2.93432 -0.165725 0
M  V30 3558 H 331.596 -1.62397 0.00906463 0
M  V30 3559 H 333.593 -3.25107 -2.60981 0
M  V30 3560 H 332.253 -2.08027 -2.49308 0
M  V30 3561 H 333.264 -5.15967 -0.447004 0
M  V30 3562 H 329.941 -3.4377 -2.36915 0
M  V30 3563 H 331.331 -6.71899 -0.00952956 0
M  V30 3564 N 334.051 0.0651679 -1.57465 0
M  V30 3565 C 335.3 0.761916 -1.86756 0
M  V30 3566 C 335.613 1.78406 -0.801925 0
M  V30 3567 O 336.819 2.53084 -0.982885 0
M  V30 3568 C 335.275 1.40603 -3.31299 0
M  V30 3569 C 334.883 0.422115 -4.46007 0
M  V30 3570 C 336.627 2.08476 -3.69781 0
M  V30 3571 C 334.534 1.07252 -5.81593 0
M  V30 3572 H 333.464 0.288308 -0.696702 0
M  V30 3573 H 336.115 0.015344 -1.83494 0
M  V30 3574 H 334.497 2.20109 -3.29193 0
M  V30 3575 H 335.671 -0.343613 -4.59517 0
M  V30 3576 H 333.986 -0.152527 -4.16121 0
M  V30 3577 H 336.583 2.57925 -4.68379 0
M  V30 3578 H 336.926 2.88712 -2.99919 0
M  V30 3579 H 337.459 1.35792 -3.73905 0
M  V30 3580 H 334.198 0.310342 -6.54765 0
M  V30 3581 H 333.718 1.80895 -5.71872 0
M  V30 3582 H 335.397 1.59043 -6.27148 0
M  V30 3583 N 335.529 1.53961 0.336706 0
M  V30 3584 C 336.945 1.44378 0.680241 0
M  V30 3585 C 337.145 0.606034 1.9217 0
M  V30 3586 O 336.201 0.099688 2.52303 0
M  V30 3587 C 337.514 2.87945 0.8665 0
M  V30 3588 C 339.062 2.97763 0.964682 0
M  V30 3589 C 339.537 4.42453 1.18321 0
M  V30 3590 N 341.028 4.46008 1.25025 0
M  V30 3591 C 341.763 5.55102 1.43697 0
M  V30 3592 N 341.259 6.7419 1.59498 0
M  V30 3593 N 343.052 5.42727 1.463 0
M  V30 3594 H 335.203 2.06918 -0.479455 0
M  V30 3595 H 337.466 0.935634 -0.152619 0
M  V30 3596 H 337.172 3.51691 0.0256937 0
M  V30 3597 H 337.046 3.33293 1.76623 0
M  V30 3598 H 339.433 2.34153 1.796 0
M  V30 3599 H 339.514 2.55766 0.041708 0
M  V30 3600 H 339.158 5.06645 0.356788 0
M  V30 3601 H 339.088 4.82048 2.11985 0
M  V30 3602 H 341.579 3.60196 1.14312 0
M  V30 3603 H 341.892 7.53095 1.734 0
M  V30 3604 H 340.237 6.77123 1.56621 0
M  V30 3605 H 343.428 4.48647 1.33543 0
M  V30 3606 H 343.601 6.27806 1.6051 0
M  V30 3607 N 337.007 -0.598083 1.45811 0
M  V30 3608 C 337.917 -1.73632 1.57763 0
M  V30 3609 C 338.933 -1.67763 0.461676 0
M  V30 3610 O 340.109 -1.87949 0.723685 0
M  V30 3611 C 337.174 -3.10114 1.55018 0
M  V30 3612 C 336.235 -3.27364 2.77726 0
M  V30 3613 C 335.468 -4.57334 2.75102 0
M  V30 3614 O 335.691 -5.40258 1.8297 0
M  V30 3615 O 334.625 -4.77502 3.66437 0
M  V30 3616 H 338.451 -1.66498 2.53992 0
M  V30 3617 H 336.036 -0.763308 1.28429 0
M  V30 3618 H 337.918 -3.9141 1.56129 0
M  V30 3619 H 336.593 -3.17718 0.619431 0
M  V30 3620 H 335.5 -2.45619 2.82174 0
M  V30 3621 H 336.833 -3.24641 3.69958 0
M  V30 3622 N 338.485 -1.33259 -0.841409 0
M  V30 3623 C 339.734 -1.23921 -1.59143 0
M  V30 3624 C 340.047 0.1941 -1.94635 0
M  V30 3625 O 341.253 0.409474 -2.68394 0
M  V30 3626 C 339.709 -2.17119 -2.87032 0
M  V30 3627 C 339.317 -3.65606 -2.58914 0
M  V30 3628 C 341.061 -2.16648 -3.65053 0
M  V30 3629 C 338.968 -4.50726 -3.82884 0
M  V30 3630 H 337.898 -0.460264 -0.597221 0
M  V30 3631 H 340.549 -1.58307 -0.927959 0
M  V30 3632 H 338.931 -1.75663 -3.54906 0
M  V30 3633 H 340.105 -4.15487 -1.99267 0
M  V30 3634 H 338.42 -3.68341 -1.942 0
M  V30 3635 H 341.017 -2.77474 -4.57069 0
M  V30 3636 H 341.36 -1.16088 -3.99787 0
M  V30 3637 H 341.893 -2.56453 -3.041 0
M  V30 3638 H 338.632 -5.52151 -3.53283 0
M  V30 3639 H 338.152 -4.0559 -4.41879 0
M  V30 3640 H 339.831 -4.64401 -4.50489 0
M  V30 3641 N 339.963 1.05934 -1.16686 0
M  V30 3642 C 340.926 2.11669 -0.879144 0
M  V30 3643 C 341.926 1.60294 0.127445 0
M  V30 3644 O 343.116 1.7389 -0.103865 0
M  V30 3645 C 340.248 3.39438 -0.315425 0
M  V30 3646 H 341.441 2.38626 -1.81653 0
M  V30 3647 H 338.994 1.22058 -0.976299 0
M  V30 3648 H 339.729 3.18132 0.629468 0
M  V30 3649 H 339.514 3.78034 -1.04079 0
M  V30 3650 H 341.004 4.17391 -0.132189 0
M  V30 3651 N 341.441 0.965919 1.2453 0
M  V30 3652 C 342.666 0.643971 1.97149 0
M  V30 3653 C 343.091 -0.779487 1.71189 0
M  V30 3654 O 342.449 -1.5288 0.974553 0
M  V30 3655 C 342.497 0.922557 3.48599 0
M  V30 3656 O 341.601 0.00707672 4.12399 0
M  V30 3657 H 340.942 0.243647 0.617683 0
M  V30 3658 H 343.472 1.29558 1.58353 0
M  V30 3659 H 343.482 0.853373 3.98976 0
M  V30 3660 H 342.157 1.95996 3.66822 0
M  V30 3661 H 340.734 0.12943 3.72675 0
M  V30 3662 N 342.919 -1.39368 0.735821 0
M  V30 3663 C 344.167 -2.00101 0.283562 0
M  V30 3664 C 344.488 -1.5868 -1.13338 0
M  V30 3665 O 343.758 -0.835423 -1.77193 0
M  V30 3666 H 342.338 -0.740024 0.101851 0
M  V30 3667 H 345 -1.70404 0.945962 0
M  V30 3668 H 344.096 -3.10323 0.332604 0
M  V30 3669 N 344.397 -0.483516 -1.5 0
M  V30 3670 C 345.674 0.129337 -1.95172 0
M  V30 3671 C 346.054 1.55802 -1.4244 0
M  V30 3672 O 345.402 2.19625 -0.630649 0
M  V30 3673 C 345.612 0.0599251 -3.48949 0
M  V30 3674 C 346.96 0.242617 -4.23906 0
M  V30 3675 O 347.984 0.135933 -3.55941 0
M  V30 3676 O 346.843 0.459454 -5.44565 0
M  V30 3677 H 343.937 0.104887 -0.820322 0
M  V30 3678 H 346.483 -0.544807 -1.60717 0
M  V30 3679 H 345.255 -0.937079 -3.79914 0
M  V30 3680 H 344.878 0.774984 -3.89974 0
M  V30 3681 N 345.875 1.56104 -0.216619 0
M  V30 3682 C 346.805 2.23063 0.690296 0
M  V30 3683 C 347.786 1.20072 1.20485 0
M  V30 3684 O 348.971 1.48643 1.24976 0
M  V30 3685 C 346.101 2.90672 1.90072 0
M  V30 3686 C 345.055 4.00092 1.5202 0
M  V30 3687 C 344.381 4.54972 2.80899 0
M  V30 3688 C 345.681 5.17398 0.71391 0
M  V30 3689 H 347.375 2.99109 0.132038 0
M  V30 3690 H 344.921 1.43866 0.0620664 0
M  V30 3691 H 346.874 3.36204 2.54057 0
M  V30 3692 H 345.598 2.12066 2.48386 0
M  V30 3693 H 344.257 3.55283 0.903839 0
M  V30 3694 H 343.905 3.73102 3.37348 0
M  V30 3695 H 343.605 5.28817 2.56176 0
M  V30 3696 H 345.129 5.0322 3.45836 0
M  V30 3697 H 346.543 5.59342 1.25735 0
M  V30 3698 H 344.94 5.97444 0.563951 0
M  V30 3699 H 346.01 4.84088 -0.280527 0
M  V30 3700 N 347.353 -0.0568162 1.57498 0
M  V30 3701 C 348.581 -0.765626 1.92213 0
M  V30 3702 C 348.996 -1.70353 0.813961 0
M  V30 3703 O 348.353 -1.81268 -0.211701 0
M  V30 3704 C 348.404 -1.5465 3.2675 0
M  V30 3705 O 348.125 -0.646278 4.33307 0
M  V30 3706 C 349.626 -2.35497 3.75574 0
M  V30 3707 H 346.846 -0.216835 0.634999 0
M  V30 3708 H 349.39 -0.0226146 2.04487 0
M  V30 3709 H 347.545 -2.24165 3.15957 0
M  V30 3710 H 347.959 -1.19093 5.108 0
M  V30 3711 H 349.433 -2.85722 4.72299 0
M  V30 3712 H 349.91 -3.15692 3.05344 0
M  V30 3713 H 350.516 -1.7111 3.8936 0
M  V30 3714 N 348.832 -1.54138 -0.328536 0
M  V30 3715 C 349.779 -1.83176 -1.40411 0
M  V30 3716 C 350.749 -0.678494 -1.5161 0
M  V30 3717 O 351.934 -0.92443 -1.6691 0
M  V30 3718 C 349.074 -2.06035 -2.76846 0
M  V30 3719 C 348.187 -3.33727 -2.74318 0
M  V30 3720 C 347.322 -3.46574 -4.02567 0
M  V30 3721 C 346.361 -4.68159 -3.94327 0
M  V30 3722 N 345.498 -4.77959 -5.14296 0
M  V30 3723 H 350.338 -2.74938 -1.14948 0
M  V30 3724 H 347.875 -1.36166 -0.556538 0
M  V30 3725 H 349.833 -2.1728 -3.56153 0
M  V30 3726 H 348.463 -1.1757 -3.00628 0
M  V30 3727 H 347.515 -3.31246 -1.8703 0
M  V30 3728 H 348.827 -4.23139 -2.64111 0
M  V30 3729 H 347.981 -3.57333 -4.90304 0
M  V30 3730 H 346.72 -2.55245 -4.15574 0
M  V30 3731 H 345.725 -4.57461 -3.04974 0
M  V30 3732 H 346.95 -5.60868 -3.82889 0
M  V30 3733 H 344.896 -3.89544 -5.27818 0
M  V30 3734 H 344.813 -5.6133 -5.06404 0
M  V30 3735 H 346.081 -4.93044 -6.03761 0
M  V30 3736 N 350.31 0.590341 -1.46126 0
M  V30 3737 C 351.538 1.37504 -1.54597 0
M  V30 3738 C 351.953 1.87897 -0.184447 0
M  V30 3739 O 351.31 1.63192 0.816984 0
M  V30 3740 C 351.361 2.56779 -2.54454 0
M  V30 3741 O 351.082 2.08476 -3.85317 0
M  V30 3742 C 352.583 3.49427 -2.72792 0
M  V30 3743 H 349.803 0.420325 -0.523037 0
M  V30 3744 H 352.347 0.718383 -1.91467 0
M  V30 3745 H 350.502 3.1845 -2.20609 0
M  V30 3746 H 350.916 2.86097 -4.396 0
M  V30 3747 H 352.39 4.29619 -3.466 0
M  V30 3748 H 352.867 4.00876 -1.79429 0
M  V30 3749 H 353.473 2.93598 -3.07702 0
M  V30 3750 N 351.788 1.33704 0.83433 0
M  V30 3751 C 352.718 1.26967 1.95963 0
M  V30 3752 C 353.699 0.149337 1.69443 0
M  V30 3753 O 354.884 0.339852 1.91203 0
M  V30 3754 C 352.014 1.01275 3.32206 0
M  V30 3755 C 350.968 2.09652 3.73136 0
M  V30 3756 C 350.294 1.69166 5.07235 0
M  V30 3757 C 351.594 3.51372 3.86439 0
M  V30 3758 H 353.288 2.2112 2.01857 0
M  V30 3759 H 350.834 1.06447 0.969793 0
M  V30 3760 H 352.787 0.952106 4.10503 0
M  V30 3761 H 351.511 0.0356203 3.26581 0
M  V30 3762 H 350.17 2.14766 2.97104 0
M  V30 3763 H 349.818 0.701437 4.98085 0
M  V30 3764 H 349.518 2.41694 5.35591 0
M  V30 3765 H 351.042 1.64576 5.88003 0
M  V30 3766 H 352.456 3.48734 4.55036 0
M  V30 3767 H 350.853 4.22425 4.26236 0
M  V30 3768 H 351.923 3.89546 2.88759 0
M  V30 3769 N 353.266 -1.05314 1.17247 0
M  V30 3770 C 354.494 -1.81971 0.984593 0
M  V30 3771 C 354.909 -1.82929 -0.467166 0
M  V30 3772 O 354.266 -1.25564 -1.32438 0
M  V30 3773 C 354.317 -3.28143 1.51672 0
M  V30 3774 O 354.038 -3.27347 2.91163 0
M  V30 3775 C 355.539 -4.21493 1.37326 0
M  V30 3776 H 352.759 -0.573455 0.348411 0
M  V30 3777 H 355.303 -1.32808 1.55506 0
M  V30 3778 H 353.458 -3.74582 0.988302 0
M  V30 3779 H 353.872 -4.18824 3.15732 0
M  V30 3780 H 355.346 -5.22043 1.79375 0
M  V30 3781 H 355.823 -4.38031 0.320169 0
M  V30 3782 H 356.429 -3.80909 1.89178 0
M  V30 3783 N 354.744 -0.972509 -1.24016 0
M  V30 3784 C 355.99 -0.637978 -1.92504 0
M  V30 3785 C 356.323 0.825383 -1.75787 0
M  V30 3786 O 355.598 1.59442 -1.11393 0
M  V30 3787 C 355.881 -1.01942 -3.45369 0
M  V30 3788 C 355.734 -2.53983 -3.71231 0
M  V30 3789 C 357.053 -0.55751 -4.36555 0
M  V30 3790 H 354.172 -0.233248 -0.699117 0
M  V30 3791 H 356.814 -1.21238 -1.46292 0
M  V30 3792 H 354.964 -0.530656 -3.84859 0
M  V30 3793 H 356.636 -3.10374 -3.41271 0
M  V30 3794 H 354.879 -2.96968 -3.16216 0
M  V30 3795 H 355.55 -2.75723 -4.78206 0
M  V30 3796 H 358.026 -0.977029 -4.04467 0
M  V30 3797 H 356.902 -0.85292 -5.42233 0
M  V30 3798 H 357.163 0.542328 -4.38761 0
M  V30 3799 N 356.222 1.38976 -0.743202 0
M  V30 3800 C 357.447 2.05161 -0.303936 0
M  V30 3801 C 357.872 1.55677 1.05576 0
M  V30 3802 O 357.23 0.704131 1.67068 0
M  V30 3803 C 357.278 3.59138 -0.324373 0
M  V30 3804 O 356.382 4.06668 0.685204 0
M  V30 3805 H 355.723 0.649815 -0.136518 0
M  V30 3806 H 358.253 1.77852 -1.01142 0
M  V30 3807 H 358.263 4.07639 -0.171618 0
M  V30 3808 H 356.938 3.94515 -1.31647 0
M  V30 3809 H 355.515 3.69561 0.497913 0
M  V30 3810 N 357.7 0.491464 1.49741 0
M  V30 3811 C 358.948 -0.0563141 2.02022 0
M  V30 3812 C 359.269 -1.38363 1.37407 0
M  V30 3813 O 358.539 -1.88702 0.526166 0
M  V30 3814 H 357.119 -0.0238014 0.746621 0
M  V30 3815 H 359.781 0.646533 1.83864 0
M  V30 3816 H 358.877 -0.192967 3.11503 0
M  V30 3817 N 359.178 -1.55987 0.224894 0
M  V30 3818 C 360.594 -1.59066 -0.130426 0
M  V30 3819 C 360.794 -1.24176 -1.5869 0
M  V30 3820 O 359.85 -0.978592 -2.32766 0
M  V30 3821 C 361.163 -3.00042 0.198883 0
M  V30 3822 C 362.711 -3.1268 0.141391 0
M  V30 3823 C 363.186 -4.55839 0.444422 0
M  V30 3824 N 364.677 -4.6152 0.394115 0
M  V30 3825 C 365.412 -5.70231 0.602038 0
M  V30 3826 N 364.908 -6.87291 0.871914 0
M  V30 3827 N 366.701 -5.59555 0.534245 0
M  V30 3828 H 358.852 -1.76941 1.17497 0
M  V30 3829 H 361.115 -0.822604 0.471197 0
M  V30 3830 H 360.821 -3.30234 1.2099 0
M  V30 3831 H 360.695 -3.74075 -0.484535 0
M  V30 3832 H 363.082 -2.82283 -0.860265 0
M  V30 3833 H 363.163 -2.40969 0.858335 0
M  V30 3834 H 362.807 -4.86954 1.44353 0
M  V30 3835 H 362.737 -5.2578 -0.293752 0
M  V30 3836 H 365.228 -3.77405 0.193356 0
M  V30 3837 H 365.541 -7.66058 1.01858 0
M  V30 3838 H 363.886 -6.89028 0.909145 0
M  V30 3839 H 367.077 -4.6698 0.323612 0
M  V30 3840 H 367.25 -6.44211 0.699693 0
M  V30 3841 N 360.656 0.0484629 -1.57525 0
M  V30 3842 C 361.604 1.07359 -2.06341 0
M  V30 3843 C 362.598 1.3865 -0.973269 0
M  V30 3844 O 363.804 1.37783 -1.15827 0
M  V30 3845 H 360.179 0.363662 -0.65822 0
M  V30 3846 H 362.15 0.635916 -2.91545 0
M  V30 3847 C 360.899 2.37198 -2.54229 0
M  V30 3848 H 360.222 2.13977 -3.37719 0
M  V30 3849 H 361.662 3.07319 -2.92115 0
M  V30 3850 C 360.121 3.04805 -1.43511 0
M  V30 3851 O 360.651 3.93848 -0.79034 0
M  V30 3852 N 358.857 2.65811 -1.17444 0
M  V30 3853 H 358.404 1.93488 -1.70059 0
M  V30 3854 H 358.362 3.11366 -0.435737 0
M  V30 3855 N 362.134 1.5431 0.320358 0
M  V30 3856 C 363.044 1.86946 1.41734 0
M  V30 3857 C 364.06 0.761689 1.56443 0
M  V30 3858 O 365.236 1.05629 1.71477 0
M  V30 3859 C 362.301 2.09293 2.76401 0
M  V30 3860 C 361.362 3.33082 2.70841 0
M  V30 3861 C 360.595 3.54353 3.99086 0
M  V30 3862 O 360.818 2.79002 4.97508 0
M  V30 3863 O 359.752 4.47838 4.0215 0
M  V30 3864 H 363.578 2.80232 1.17062 0
M  V30 3865 H 361.163 1.40255 0.514673 0
M  V30 3866 H 363.045 2.25303 3.56113 0
M  V30 3867 H 361.72 1.19194 3.00956 0
M  V30 3868 H 360.627 3.22454 1.89668 0
M  V30 3869 H 361.96 4.23249 2.5124 0
M  V30 3870 N 363.613 -0.582584 1.46437 0
M  V30 3871 C 364.862 -1.337 1.5102 0
M  V30 3872 C 365.175 -1.94891 0.166359 0
M  V30 3873 O 366.381 -2.71351 0.0899954 0
M  V30 3874 C 364.837 -2.42315 2.66104 0
M  V30 3875 C 364.445 -1.87427 4.06909 0
M  V30 3876 C 366.189 -3.19099 2.79958 0
M  V30 3877 C 364.096 -2.93672 5.13333 0
M  V30 3878 H 363.026 -0.502619 0.562041 0
M  V30 3879 H 365.677 -0.621701 1.72647 0
M  V30 3880 H 364.059 -3.16645 2.37807 0
M  V30 3881 H 365.233 -1.19639 4.44998 0
M  V30 3882 H 363.548 -1.2331 3.97723 0
M  V30 3883 H 366.145 -3.9839 3.56636 0
M  V30 3884 H 366.488 -3.71695 1.87479 0
M  V30 3885 H 367.021 -2.51875 3.07902 0
M  V30 3886 H 363.76 -2.45962 6.07604 0
M  V30 3887 H 363.28 -3.59948 4.79789 0
M  V30 3888 H 364.959 -3.5762 5.39182 0
M  V30 3889 N 365.091 -1.34144 -0.827227 0
M  V30 3890 C 366.339 -1.26009 -1.58007 0
M  V30 3891 C 366.66 0.170971 -1.94249 0
M  V30 3892 O 365.93 1.10256 -1.61927 0
M  V30 3893 H 364.51 -0.463414 -0.585881 0
M  V30 3894 H 367.172 -1.68005 -0.987951 0
M  V30 3895 H 366.268 -1.86187 -2.50481 0
M  V30 3896 N 366.569 1.04691 -1.17803 0
M  V30 3897 C 367.479 2.16057 -0.914151 0
M  V30 3898 C 368.495 1.73589 0.119503 0
M  V30 3899 O 369.671 2.01308 -0.0609468 0
M  V30 3900 C 366.736 3.4394 -0.436603 0
M  V30 3901 C 365.797 4.00825 -1.53746 0
M  V30 3902 C 365.03 5.22604 -1.0826 0
M  V30 3903 O 365.253 5.70367 0.0612244 0
M  V30 3904 O 364.187 5.7186 -1.87775 0
M  V30 3905 H 368.013 2.41169 -1.84584 0
M  V30 3906 H 365.598 1.1453 -0.959334 0
M  V30 3907 H 367.48 4.21024 -0.178057 0
M  V30 3908 H 366.155 3.20316 0.466869 0
M  V30 3909 H 365.062 3.25158 -1.84995 0
M  V30 3910 H 366.395 4.28778 -2.41683 0
M  V30 3911 N 368.047 0.979072 1.23499 0
M  V30 3912 C 368.977 0.537606 2.27227 0
M  V30 3913 C 369.958 -0.428539 1.64613 0
M  V30 3914 O 371.143 -0.322191 1.91509 0
M  V30 3915 C 368.273 -0.162052 3.46922 0
M  V30 3916 C 367.227 0.721242 4.21879 0
M  V30 3917 C 366.553 -0.110555 5.34586 0
M  V30 3918 C 367.853 2.01141 4.82016 0
M  V30 3919 H 369.547 1.40462 2.64406 0
M  V30 3920 H 367.093 0.67684 1.27102 0
M  V30 3921 H 369.046 -0.482192 4.18632 0
M  V30 3922 H 367.77 -1.06351 3.08799 0
M  V30 3923 H 366.429 1.02482 3.51984 0
M  V30 3924 H 366.077 -1.0125 4.92704 0
M  V30 3925 H 365.777 0.477325 5.85658 0
M  V30 3926 H 367.301 -0.425107 6.09118 0
M  V30 3927 H 368.715 1.75612 5.45741 0
M  V30 3928 H 367.112 2.54695 5.43369 0
M  V30 3929 H 368.182 2.69909 4.02836 0
M  V30 3930 N 369.525 -1.3858 0.750561 0
M  V30 3931 C 370.488 -2.28836 0.129152 0
M  V30 3932 C 371.488 -1.47045 -0.650714 0
M  V30 3933 O 372.678 -1.6753 -0.477428 0
M  V30 3934 C 369.81 -3.30751 -0.825622 0
M  V30 3935 H 371.003 -2.85294 0.924516 0
M  V30 3936 H 368.556 -1.47489 0.517376 0
M  V30 3937 H 369.291 -2.79378 -1.64677 0
M  V30 3938 H 369.076 -3.91177 -0.268852 0
M  V30 3939 H 370.566 -3.98249 -1.2565 0
M  V30 3940 N 371.003 -0.499398 -1.49478 0
M  V30 3941 C 372.251 0.0455996 -2.02049 0
M  V30 3942 C 372.572 1.37633 -1.38138 0
M  V30 3943 O 371.842 1.8842 -0.536166 0
M  V30 3944 H 370.422 0.0198416 -0.746736 0
M  V30 3945 H 373.084 -0.656274 -1.83519 0
M  V30 3946 H 372.18 0.176445 -3.11601 0
M  V30 3947 N 372.481 1.55866 -0.233164 0
M  V30 3948 C 373.709 2.02998 0.399905 0
M  V30 3949 C 374.124 1.11274 1.52524 0
M  V30 3950 O 373.481 0.124528 1.82075 0
M  V30 3951 C 373.532 3.4958 0.920639 0
M  V30 3952 O 373.253 4.37808 -0.159834 0
M  V30 3953 C 374.754 4.12411 1.62578 0
M  V30 3954 H 371.974 0.664006 0.0966281 0
M  V30 3955 H 374.518 2.0143 -0.353013 0
M  V30 3956 H 372.673 3.51727 1.62379 0
M  V30 3957 H 373.087 5.23981 0.23337 0
M  V30 3958 H 374.561 5.16711 1.94201 0
M  V30 3959 H 375.038 3.5809 2.54299 0
M  V30 3960 H 375.644 4.14148 0.967553 0
M  V30 3961 N 373.959 -0.0401083 1.57549 0
M  V30 3962 C 375.205 -0.734211 1.89043 0
M  V30 3963 C 375.538 -1.75591 0.829535 0
M  V30 3964 O 374.813 -1.93868 -0.156706 0
M  V30 3965 C 375.096 -1.41374 3.31188 0
M  V30 3966 C 374.949 -0.406299 4.47961 0
M  V30 3967 C 376.268 -2.35061 3.72068 0
M  V30 3968 H 373.387 -0.265447 0.687537 0
M  V30 3969 H 376.029 0.00294087 1.9 0
M  V30 3970 H 374.179 -2.04206 3.30503 0
M  V30 3971 H 375.851 0.219255 4.60779 0
M  V30 3972 H 374.094 0.275485 4.32924 0
M  V30 3973 H 374.765 -0.920022 5.44279 0
M  V30 3974 H 377.241 -1.82282 3.74049 0
M  V30 3975 H 376.117 -2.79593 4.72355 0
M  V30 3976 H 376.378 -3.21258 3.0372 0
M  V30 3977 N 375.437 -1.54477 -0.31217 0
M  V30 3978 C 376.347 -1.87695 -1.4074 0
M  V30 3979 C 377.363 -0.769975 -1.56036 0
M  V30 3980 O 378.539 -1.06537 -1.70915 0
M  V30 3981 C 375.604 -2.10755 -2.75287 0
M  V30 3982 C 374.665 -3.34514 -2.69071 0
M  V30 3983 C 373.898 -3.56465 -3.97201 0
M  V30 3984 O 374.121 -2.81637 -4.96021 0
M  V30 3985 O 373.055 -4.49964 -3.9977 0
M  V30 3986 H 376.881 -2.80849 -1.15574 0
M  V30 3987 H 374.466 -1.40526 -0.507228 0
M  V30 3988 H 376.348 -2.27188 -3.54913 0
M  V30 3989 H 375.023 -1.20788 -3.0032 0
M  V30 3990 H 373.93 -3.23456 -1.87955 0
M  V30 3991 H 375.263 -4.24575 -2.48992 0
M  V30 3992 N 376.915 0.57481 -1.46744 0
M  V30 3993 C 377.865 1.67838 -1.54319 0
M  V30 3994 C 378.849 1.55759 -0.40346 0
M  V30 3995 O 380.041 1.6454 -0.652347 0
M  V30 3996 C 377.17 3.06624 -1.5439 0
M  V30 3997 C 376.256 3.23971 -2.73685 0
M  V30 3998 N 376.647 3.11447 -3.9854 0
M  V30 3999 C 374.945 3.5493 -2.70075 0
M  V30 4000 C 375.646 3.31011 -4.78337 0
M  V30 4001 N 374.622 3.56533 -4.10348 0
M  V30 4002 H 378.424 1.56698 -2.48642 0
M  V30 4003 H 375.938 0.779071 -1.42493 0
M  V30 4004 H 377.935 3.85839 -1.57905 0
M  V30 4005 H 376.595 3.1889 -0.611493 0
M  V30 4006 H 377.606 2.89145 -4.29669 0
M  V30 4007 H 374.283 3.73832 -1.85893 0
M  V30 4008 H 375.673 3.26445 -5.87268 0
M  V30 4009 N 378.394 1.34581 0.820102 0
M  V30 4010 C 379.327 1.20735 1.93644 0
M  V30 4011 C 380.305 0.0983343 1.62302 0
M  V30 4012 O 381.489 0.263997 1.86642 0
M  V30 4013 C 378.616 0.856037 3.27704 0
M  V30 4014 C 377.662 1.97521 3.78005 0
M  V30 4015 S 378.495 3.58906 3.97425 0
M  V30 4016 C 379.651 3.25822 5.34407 0
M  V30 4017 H 379.884 2.15231 2.05093 0
M  V30 4018 H 377.417 1.1964 0.97599 0
M  V30 4019 H 379.375 0.660133 4.05157 0
M  V30 4020 H 378.036 -0.0706253 3.14021 0
M  V30 4021 H 377.229 1.68321 4.75062 0
M  V30 4022 H 376.831 2.12875 3.07507 0
M  V30 4023 H 379.123 2.77812 6.17922 0
M  V30 4024 H 380.066 4.22029 5.68592 0
M  V30 4025 H 380.474 2.61932 5.00052 0
M  V30 4026 N 379.872 -1.04064 1.18357 0
M  V30 4027 C 380.804 -2.12114 0.868358 0
M  V30 4028 C 381.817 -1.62247 -0.134045 0
M  V30 4029 O 383.006 -1.78253 0.0937933 0
M  V30 4030 C 380.106 -3.37773 0.276132 0
M  V30 4031 C 379.279 -4.16874 1.3242 0
M  V30 4032 C 378.338 -5.20861 0.747662 0
M  V30 4033 O 377.364 -5.51141 1.42239 0
M  V30 4034 N 378.566 -5.78715 -0.454823 0
M  V30 4035 H 381.331 -2.39748 1.79836 0
M  V30 4036 H 378.892 -1.20258 1.08396 0
M  V30 4037 H 380.884 -4.04513 -0.123133 0
M  V30 4038 H 379.454 -3.07581 -0.557895 0
M  V30 4039 H 378.674 -3.45456 1.89878 0
M  V30 4040 H 379.962 -4.66516 2.03078 0
M  V30 4041 H 379.36 -5.56415 -1.02073 0
M  V30 4042 H 377.917 -6.46921 -0.79601 0
M  V30 4043 N 381.35 -0.985608 -1.22978 0
M  V30 4044 C 382.766 -0.695104 -1.43668 0
M  V30 4045 C 382.966 0.736866 -1.87543 0
M  V30 4046 O 382.022 1.50868 -2.02473 0
M  V30 4047 C 383.335 -1.69447 -2.48412 0
M  V30 4048 C 384.883 -1.70909 -2.62219 0
M  V30 4049 C 385.358 -2.6969 -3.70178 0
M  V30 4050 N 386.849 -2.6824 -3.77626 0
M  V30 4051 C 387.584 -3.41339 -4.60733 0
M  V30 4052 N 387.08 -4.24015 -5.4789 0
M  V30 4053 N 388.873 -3.30079 -4.54977 0
M  V30 4054 H 381.024 -1.91054 -0.928016 0
M  V30 4055 H 383.287 -0.823553 -0.469536 0
M  V30 4056 H 382.993 -2.7188 -2.23102 0
M  V30 4057 H 382.867 -1.48147 -3.46889 0
M  V30 4058 H 385.254 -0.691785 -2.86877 0
M  V30 4059 H 385.335 -1.96276 -1.6404 0
M  V30 4060 H 384.979 -3.71566 -3.46268 0
M  V30 4061 H 384.909 -2.41595 -4.67909 0
M  V30 4062 H 387.4 -2.08243 -3.15346 0
M  V30 4063 H 387.713 -4.76636 -6.08308 0
M  V30 4064 H 386.058 -4.28104 -5.47496 0
M  V30 4065 H 389.249 -2.64937 -3.85909 0
M  V30 4066 H 389.422 -3.87308 -5.19516 0
M  V30 4067 N 382.828 1.3818 -0.7579 0
M  V30 4068 C 384.053 2.04827 -0.325679 0
M  V30 4069 C 384.478 1.56788 1.03919 0
M  V30 4070 O 383.836 0.721811 1.66312 0
M  V30 4071 C 383.884 3.58774 -0.362447 0
M  V30 4072 O 382.988 4.07372 0.642033 0
M  V30 4073 H 382.329 0.64833 -0.143402 0
M  V30 4074 H 384.859 1.7677 -1.03023 0
M  V30 4075 H 384.869 4.07434 -0.214844 0
M  V30 4076 H 383.544 3.93096 -1.35824 0
M  V30 4077 H 382.121 3.70068 0.458688 0
M  V30 4078 N 384.306 0.507319 1.49211 0
M  V30 4079 C 385.236 -0.256939 2.32082 0
M  V30 4080 C 386.217 -0.956609 1.40652 0
M  V30 4081 O 387.402 -0.946788 1.69557 0
M  V30 4082 C 384.532 -1.31802 3.21318 0
M  V30 4083 C 383.486 -0.737855 4.21592 0
M  V30 4084 C 382.812 -1.89992 4.99807 0
M  V30 4085 C 384.112 0.275325 5.21574 0
M  V30 4086 H 385.806 0.434798 2.96226 0
M  V30 4087 H 383.352 0.210546 1.42452 0
M  V30 4088 H 385.305 -1.86045 3.78107 0
M  V30 4089 H 384.029 -2.03903 2.5513 0
M  V30 4090 H 382.688 -0.217126 3.65956 0
M  V30 4091 H 382.336 -2.60877 4.30061 0
M  V30 4092 H 382.036 -1.51777 5.6766 0
M  V30 4093 H 383.56 -2.44657 5.59442 0
M  V30 4094 H 384.974 -0.179193 5.7302 0
M  V30 4095 H 383.371 0.573649 5.97352 0
M  V30 4096 H 384.441 1.18903 4.70096 0
M  V30 4097 N 385.784 -1.5574 0.241426 0
M  V30 4098 C 387.033 -1.97986 -0.385295 0
M  V30 4099 C 387.346 -1.13267 -1.59468 0
M  V30 4100 O 388.552 -1.45501 -2.2922 0
M  V30 4101 C 387.008 -3.52275 -0.736884 0
M  V30 4102 C 386.616 -4.45726 0.450796 0
M  V30 4103 C 388.36 -4.03189 -1.3281 0
M  V30 4104 C 386.267 -5.91352 0.0756662 0
M  V30 4105 H 385.197 -0.739386 -0.147731 0
M  V30 4106 H 387.848 -1.80308 0.340779 0
M  V30 4107 H 386.23 -3.65628 -1.52094 0
M  V30 4108 H 387.404 -4.44131 1.22819 0
M  V30 4109 H 385.719 -4.05264 0.956573 0
M  V30 4110 H 388.316 -5.09505 -1.62201 0
M  V30 4111 H 388.659 -3.50212 -2.25071 0
M  V30 4112 H 389.192 -3.93141 -0.607069 0
M  V30 4113 H 385.931 -6.48354 0.965272 0
M  V30 4114 H 385.451 -5.96095 -0.665635 0
M  V30 4115 H 387.13 -6.46084 -0.344075 0
M  V30 4116 N 387.262 0.0317525 -1.57568 0
M  V30 4117 C 388.539 0.758366 -1.803 0
M  V30 4118 C 388.919 1.93718 -0.838845 0
M  V30 4119 O 388.267 2.28187 0.119571 0
M  V30 4120 C 388.477 1.19392 -3.27943 0
M  V30 4121 C 389.825 1.61094 -3.92854 0
M  V30 4122 O 390.849 1.28857 -3.32076 0
M  V30 4123 O 389.708 2.20918 -4.99858 0
M  V30 4124 H 386.802 0.366514 -0.741348 0
M  V30 4125 H 389.348 0.00873765 -1.69698 0
M  V30 4126 H 388.12 0.352275 -3.89711 0
M  V30 4127 H 387.743 2.00365 -3.43424 0
M  V30 4128 N 388.74 1.54641 0.303973 0
M  V30 4129 C 389.968 1.77768 1.05858 0
M  V30 4130 C 390.383 0.535722 1.8104 0
M  V30 4131 O 389.74 -0.494337 1.75677 0
M  V30 4132 C 389.791 2.9834 2.04146 0
M  V30 4133 O 389.512 4.17736 1.32015 0
M  V30 4134 C 391.013 3.33832 2.91669 0
M  V30 4135 H 388.233 0.592961 0.314067 0
M  V30 4136 H 390.777 2.01583 0.344149 0
M  V30 4137 H 388.932 2.76742 2.71096 0
M  V30 4138 H 389.346 4.85693 1.97998 0
M  V30 4139 H 390.82 4.21448 3.56491 0
M  V30 4140 H 391.297 2.51857 3.59812 0
M  V30 4141 H 391.903 3.57579 2.30254 0
M  V30 4142 N 390.218 -0.567019 1.47046 0
M  V30 4143 C 391.464 -1.32658 1.53394 0
M  V30 4144 C 391.797 -1.93254 0.19148 0
M  V30 4145 O 391.072 -1.77338 -0.798844 0
M  V30 4146 C 391.355 -2.44412 2.64452 0
M  V30 4147 C 391.208 -1.88749 4.08282 0
M  V30 4148 C 392.527 -3.46387 2.71485 0
M  V30 4149 H 389.646 -0.48098 0.558415 0
M  V30 4150 H 392.288 -0.635481 1.79058 0
M  V30 4151 H 390.438 -3.03363 2.427 0
M  V30 4152 H 392.11 -1.34134 4.41368 0
M  V30 4153 H 390.353 -1.19481 4.17021 0
M  V30 4154 H 391.024 -2.69491 4.81745 0
M  V30 4155 H 393.5 -2.9734 2.91081 0
M  V30 4156 H 392.376 -4.2202 3.50985 0
M  V30 4157 H 392.637 -4.04616 1.78153 0
M  V30 4158 N 391.696 -1.35014 -0.812953 0
M  V30 4159 C 392.924 -1.31031 -1.6012 0
M  V30 4160 C 393.339 0.113558 -1.88458 0
M  V30 4161 O 392.696 1.06363 -1.48301 0
M  V30 4162 C 392.747 -2.10872 -2.93624 0
M  V30 4163 O 392.468 -3.47706 -2.66518 0
M  V30 4164 C 393.969 -2.14401 -3.88004 0
M  V30 4165 H 391.189 -0.45037 -0.497401 0
M  V30 4166 H 393.733 -1.77775 -1.01076 0
M  V30 4167 H 391.888 -1.67744 -3.492 0
M  V30 4168 H 392.302 -3.89097 -3.51715 0
M  V30 4169 H 393.776 -2.74669 -4.78812 0
M  V30 4170 H 394.253 -1.14105 -4.24119 0
M  V30 4171 H 394.859 -2.57662 -3.38364 0
M  V30 4172 N 393.175 1.03435 -1.18907 0
M  V30 4173 C 394.107 2.1165 -0.879595 0
M  V30 4174 C 395.12 1.62316 0.125439 0
M  V30 4175 O 396.309 1.78201 -0.103245 0
M  V30 4176 C 393.409 3.37622 -0.294042 0
M  V30 4177 C 392.582 4.16166 -1.34629 0
M  V30 4178 C 391.641 5.20457 -0.775274 0
M  V30 4179 O 390.667 5.50379 -1.4516 0
M  V30 4180 N 391.869 5.78949 0.424126 0
M  V30 4181 H 394.634 2.38791 -1.81105 0
M  V30 4182 H 392.195 1.19681 -1.09032 0
M  V30 4183 H 394.187 4.04572 0.101679 0
M  V30 4184 H 392.757 3.07873 0.541575 0
M  V30 4185 H 391.977 3.44444 -1.91707 0
M  V30 4186 H 393.265 4.65432 -2.05549 0
M  V30 4187 H 392.663 5.56948 0.991209 0
M  V30 4188 H 391.22 6.47334 0.761691 0
M  V30 4189 N 394.653 0.992116 1.22453 0
M  V30 4190 C 395.899 0.668523 1.91464 0
M  V30 4191 C 396.232 -0.797313 1.77078 0
M  V30 4192 O 395.507 -1.5765 1.13916 0
M  V30 4193 C 395.79 1.07424 3.43703 0
M  V30 4194 C 395.643 2.59857 3.67143 0
M  V30 4195 C 396.962 0.626891 4.35612 0
M  V30 4196 H 394.081 0.244341 0.695318 0
M  V30 4197 H 396.723 1.2355 1.44345 0
M  V30 4198 H 394.873 0.591816 3.83966 0
M  V30 4199 H 396.545 3.15764 3.3629 0
M  V30 4200 H 394.788 3.01961 3.11451 0
M  V30 4201 H 395.459 2.83296 4.73759 0
M  V30 4202 H 397.935 1.04125 4.02861 0
M  V30 4203 H 396.811 0.939076 5.40807 0
M  V30 4204 H 397.072 -0.472457 4.39568 0
M  V30 4205 N 396.131 -1.37776 0.765217 0
M  V30 4206 C 397.547 -1.53297 0.444108 0
M  V30 4207 C 397.747 -1.72515 -1.04119 0
M  V30 4208 O 396.803 -1.74278 -1.82711 0
M  V30 4209 C 398.116 -2.73328 1.25349 0
M  V30 4210 C 399.664 -2.87185 1.24473 0
M  V30 4211 C 400.139 -4.10191 2.03733 0
M  V30 4212 N 401.63 -4.17291 2.01053 0
M  V30 4213 C 402.365 -5.11488 2.59166 0
M  V30 4214 N 401.861 -6.11285 3.26041 0
M  V30 4215 N 403.654 -5.03924 2.49032 0
M  V30 4216 H 395.805 -1.23552 1.72768 0
M  V30 4217 H 398.068 -0.601103 0.733062 0
M  V30 4218 H 397.774 -2.6557 2.30577 0
M  V30 4219 H 397.648 -3.66834 0.87823 0
M  V30 4220 H 400.035 -2.94418 0.20047 0
M  V30 4221 H 400.116 -1.94657 1.65959 0
M  V30 4222 H 399.76 -4.0372 3.08176 0
M  V30 4223 H 399.69 -5.01821 1.59633 0
M  V30 4224 H 402.181 -3.45825 1.5236 0
M  V30 4225 H 402.494 -6.79678 3.67774 0
M  V30 4226 H 400.839 -6.11583 3.30138 0
M  V30 4227 H 404.03 -4.24902 1.96407 0
M  V30 4228 H 404.203 -5.77152 2.94617 0
M  V30 4229 N 397.609 -0.515225 -1.4894 0
M  V30 4230 C 398.519 0.259774 -2.33157 0
M  V30 4231 C 399.535 0.953501 -1.45548 0
M  V30 4232 O 400.711 0.931735 -1.78552 0
M  V30 4233 C 397.776 1.30193 -3.21326 0
M  V30 4234 C 396.837 0.620129 -4.24797 0
M  V30 4235 C 396.07 1.61263 -5.08753 0
M  V30 4236 O 396.293 2.84389 -4.94448 0
M  V30 4237 O 395.227 1.16013 -5.90614 0
M  V30 4238 H 399.053 -0.429932 -3.00641 0
M  V30 4239 H 396.638 -0.276346 -1.46822 0
M  V30 4240 H 398.52 1.90455 -3.75905 0
M  V30 4241 H 397.195 1.97431 -2.56521 0
M  V30 4242 H 396.102 -0.0226019 -3.74093 0
M  V30 4243 H 397.435 -0.0100493 -4.92199 0
M  V30 4244 N 399.087 1.5561 -0.249682 0
M  V30 4245 C 400.335 1.98618 0.373548 0
M  V30 4246 C 400.656 1.13919 1.58264 0
M  V30 4247 O 399.926 0.222637 1.94631 0
M  V30 4248 H 398.506 0.733571 0.141006 0
M  V30 4249 H 401.168 1.91748 -0.349117 0
M  V30 4250 H 400.264 3.04584 0.680796 0
M  V30 4251 N 400.565 -0.0233959 1.57583 0
M  V30 4252 C 401.79 -0.728376 1.94189 0
M  V30 4253 C 402.215 -1.67793 0.850119 0
M  V30 4254 O 401.573 -1.80262 -0.19371 0
M  V30 4255 C 401.621 -1.45669 3.29868 0
M  V30 4256 O 400.725 -2.57013 3.22518 0
M  V30 4257 H 400.066 -0.195493 0.63457 0
M  V30 4258 H 402.596 0.0228214 2.04587 0
M  V30 4259 H 402.606 -1.82535 3.6489 0
M  V30 4260 H 401.281 -0.760314 4.08891 0
M  V30 4261 H 399.858 -2.22648 2.99136 0
M  V30 4262 N 402.043 -1.548 -0.295768 0
M  V30 4263 C 403.32 -1.65014 -1.05023 0
M  V30 4264 C 403.7 -0.501805 -2.05049 0
M  V30 4265 O 403.048 0.500869 -2.22943 0
M  V30 4266 C 403.258 -3.03252 -1.72741 0
M  V30 4267 C 404.606 -3.60242 -2.24746 0
M  V30 4268 O 405.63 -3.05737 -1.82765 0
M  V30 4269 O 404.489 -4.55687 -3.01681 0
M  V30 4270 H 401.583 -0.669314 -0.485744 0
M  V30 4271 H 404.129 -1.67144 -0.293438 0
M  V30 4272 H 402.901 -3.7827 -1.00138 0
M  V30 4273 H 402.524 -3.04922 -2.55163 0
M  V30 4274 N 403.521 0.559213 -1.47345 0
M  V30 4275 C 404.484 1.64854 -1.59235 0
M  V30 4276 C 405.484 1.53851 -0.467607 0
M  V30 4277 O 406.674 1.58045 -0.732617 0
M  V30 4278 C 403.806 3.04388 -1.53496 0
M  V30 4279 H 404.999 1.55662 -2.56339 0
M  V30 4280 H 402.552 0.778973 -1.35505 0
M  V30 4281 H 403.287 3.19115 -0.577604 0
M  V30 4282 H 403.072 3.13783 -2.35123 0
M  V30 4283 H 404.562 3.83642 -1.6495 0
M  V30 4284 N 404.999 1.35443 0.805782 0
M  V30 4285 C 406.248 1.28097 1.55801 0
M  V30 4286 C 406.561 -0.142428 1.95081 0
M  V30 4287 O 407.767 -0.33817 2.69386 0
M  V30 4288 C 406.223 2.24653 2.81174 0
M  V30 4289 C 405.831 3.72342 2.49129 0
M  V30 4290 C 407.575 2.2625 3.59181 0
M  V30 4291 C 405.482 4.60719 3.70799 0
M  V30 4292 H 404.412 0.475937 0.584808 0
M  V30 4293 H 407.063 1.60712 0.885661 0
M  V30 4294 H 405.445 1.85011 3.50124 0
M  V30 4295 H 406.619 4.20624 1.88181 0
M  V30 4296 H 404.934 3.73361 1.84366 0
M  V30 4297 H 407.531 2.89495 4.49552 0
M  V30 4298 H 407.874 1.26647 3.96568 0
M  V30 4299 H 408.407 2.64426 2.97193 0
M  V30 4300 H 405.146 5.61324 3.3852 0
M  V30 4301 H 404.666 4.17163 4.3097 0
M  V30 4302 H 406.345 4.76182 4.38018 0
M  V30 4303 N 406.477 -1.02803 1.19454 0
M  V30 4304 C 407.707 -1.79581 1.02149 0
M  V30 4305 C 408.115 -1.84182 -0.432851 0
M  V30 4306 O 407.458 -1.28534 -1.31243 0
M  V30 4307 C 407.52 -3.25993 1.51554 0
M  V30 4308 C 407.184 -3.45025 2.99678 0
M  V30 4309 C 408.181 -3.35175 3.97434 0
M  V30 4310 C 405.866 -3.71212 3.38389 0
M  V30 4311 C 407.86 -3.51238 5.31893 0
M  V30 4312 C 405.547 -3.8692 4.73008 0
M  V30 4313 C 406.545 -3.76936 5.69569 0
M  V30 4314 O 406.233 -3.92179 7.01748 0
M  V30 4315 H 405.965 -0.571962 0.360327 0
M  V30 4316 H 408.519 -1.30367 1.58725 0
M  V30 4317 H 406.749 -3.76235 0.893543 0
M  V30 4318 H 408.438 -3.84368 1.30444 0
M  V30 4319 H 409.204 -3.14895 3.68872 0
M  V30 4320 H 405.083 -3.78075 2.6378 0
M  V30 4321 H 408.627 -3.43362 6.07247 0
M  V30 4322 H 404.524 -4.06699 5.01265 0
M  V30 4323 H 405.292 -4.09265 7.08833 0
M  V30 4324 N 407.956 -0.998596 -1.21925 0
M  V30 4325 C 409.181 -0.696015 -1.95372 0
M  V30 4326 C 409.606 0.733826 -1.73195 0
M  V30 4327 O 408.964 1.50242 -1.01474 0
M  V30 4328 C 409.012 -1.01466 -3.4603 0
M  V30 4329 O 408.116 -0.116415 -4.12236 0
M  V30 4330 H 407.457 -0.259938 -0.611006 0
M  V30 4331 H 409.987 -1.33711 -1.54863 0
M  V30 4332 H 409.997 -0.958855 -3.96573 0
M  V30 4333 H 408.672 -2.05653 -3.61497 0
M  V30 4334 H 407.249 -0.228193 -3.72201 0
M  V30 4335 N 409.434 1.37368 -0.772513 0
M  V30 4336 C 410.682 1.99279 -0.336516 0
M  V30 4337 C 411.003 1.6163 1.09091 0
M  V30 4338 O 410.273 0.882109 1.74916 0
M  V30 4339 H 408.853 0.737063 -0.121435 0
M  V30 4340 H 411.515 1.67836 -0.990809 0
M  V30 4341 H 410.611 3.09332 -0.414763 0
M  V30 4342 N 410.912 0.523116 1.48665 0
M  V30 4343 C 412.14 -0.0096312 2.06898 0
M  V30 4344 C 412.555 -1.28784 1.38059 0
M  V30 4345 O 411.912 -1.76453 0.465893 0
M  V30 4346 C 411.963 -0.244386 3.60673 0
M  V30 4347 O 411.684 0.983172 4.26925 0
M  V30 4348 C 413.185 -0.818289 4.35682 0
M  V30 4349 H 410.405 0.0304161 0.67031 0
M  V30 4350 H 412.949 0.726799 1.91149 0
M  V30 4351 H 411.104 -0.930847 3.76051 0
M  V30 4352 H 411.518 0.759653 5.1897 0
M  V30 4353 H 412.992 -0.93201 5.44075 0
M  V30 4354 H 413.469 -1.82153 3.99646 0
M  V30 4355 H 414.075 -0.168609 4.24966 0
M  V30 4356 N 412.39 -1.55475 0.257931 0
M  V30 4357 C 413.615 -2.04064 -0.370488 0
M  V30 4358 C 414.04 -1.13565 -1.49948 0
M  V30 4359 O 413.398 -0.130781 -1.80828 0
M  V30 4360 C 413.446 -3.50554 -0.845237 0
M  V30 4361 O 412.55 -3.63173 -1.95394 0
M  V30 4362 H 411.891 -0.659257 -0.0792243 0
M  V30 4363 H 414.421 -2.00903 0.387212 0
M  V30 4364 H 414.431 -3.91588 -1.14555 0
M  V30 4365 H 413.106 -4.15896 -0.0191259 0
M  V30 4366 H 411.683 -3.34039 -1.65748 0
M  V30 4367 N 413.868 0.0150385 -1.57593 0
M  V30 4368 C 414.778 1.02791 -2.10882 0
M  V30 4369 C 415.794 1.38702 -1.0506 0
M  V30 4370 O 416.97 1.47739 -1.36877 0
M  V30 4371 C 414.035 2.30568 -2.58919 0
M  V30 4372 C 413.096 2.01108 -3.79281 0
M  V30 4373 C 412.329 3.22794 -4.25018 0
M  V30 4374 O 412.552 4.33959 -3.70183 0
M  V30 4375 O 411.486 3.07672 -5.17322 0
M  V30 4376 H 415.312 0.604973 -2.97613 0
M  V30 4377 H 412.897 0.23292 -1.47573 0
M  V30 4378 H 414.779 3.05662 -2.90084 0
M  V30 4379 H 413.454 2.72129 -1.75293 0
M  V30 4380 H 412.361 1.23537 -3.53114 0
M  V30 4381 H 413.694 1.64394 -4.63935 0
M  V30 4382 N 415.346 1.54954 0.287554 0
M  V30 4383 C 416.595 1.74081 1.01877 0
M  V30 4384 C 416.908 0.541135 1.87966 0
M  V30 4385 O 418.114 0.614491 2.64455 0
M  V30 4386 C 416.57 3.08042 1.86113 0
M  V30 4387 C 416.178 4.35531 1.04961 0
M  V30 4388 C 417.922 3.36523 2.58752 0
M  V30 4389 C 415.829 5.60538 1.88551 0
M  V30 4390 H 414.759 0.64884 0.384087 0
M  V30 4391 H 417.41 1.81426 0.275101 0
M  V30 4392 H 415.792 2.94696 2.64519 0
M  V30 4393 H 416.966 4.59751 0.31074 0
M  V30 4394 H 415.281 4.14085 0.43843 0
M  V30 4395 H 417.878 4.27122 3.21668 0
M  V30 4396 H 418.221 2.56 3.28283 0
M  V30 4397 H 418.754 3.50901 1.87386 0
M  V30 4398 H 415.493 6.43767 1.23466 0
M  V30 4399 H 415.013 5.40483 2.60074 0
M  V30 4400 H 416.692 5.98297 2.46273 0
M  V30 4401 N 416.824 -0.551391 1.4764 0
M  V30 4402 C 417.787 -1.64007 1.60107 0
M  V30 4403 C 418.787 -1.53601 0.47576 0
M  V30 4404 O 419.977 -1.57655 0.740988 0
M  V30 4405 C 417.109 -3.03569 1.55108 0
M  V30 4406 H 418.302 -1.543 2.57161 0
M  V30 4407 H 415.855 -0.771776 1.35917 0
M  V30 4408 H 416.59 -3.18804 0.594519 0
M  V30 4409 H 416.375 -3.12532 2.36783 0
M  V30 4410 H 417.865 -3.82762 1.66982 0
M  V30 4411 N 418.302 -1.35869 -0.798587 0
M  V30 4412 C 419.265 -1.29307 -1.89242 0
M  V30 4413 C 420.265 -0.202747 -1.59517 0
M  V30 4414 O 421.455 -0.456957 -1.681 0
M  V30 4415 C 418.587 -1.00229 -3.25833 0
M  V30 4416 H 419.78 -2.26576 -1.96478 0
M  V30 4417 H 417.333 -1.20509 -0.995358 0
M  V30 4418 H 418.068 -0.033801 -3.24282 0
M  V30 4419 H 417.853 -1.79121 -3.48795 0
M  V30 4420 H 419.343 -0.98219 -4.05885 0
M  V30 4421 N 419.78 1.02168 -1.19998 0
M  V30 4422 C 421.028 1.75338 -1.00504 0
M  V30 4423 C 421.349 1.89387 0.464506 0
M  V30 4424 O 420.619 1.43268 1.33608 0
M  V30 4425 H 419.199 0.649564 -0.368885 0
M  V30 4426 H 421.861 1.23205 -1.51018 0
M  V30 4427 H 420.957 2.75892 -1.45912 0
M  V30 4428 N 421.258 1.00505 1.21394 0
M  V30 4429 C 422.206 0.558623 2.25792 0
M  V30 4430 C 423.2 -0.396848 1.64686 0
M  V30 4431 O 424.406 -0.268035 1.77993 0
M  V30 4432 H 420.781 0.1623 0.734277 0
M  V30 4433 H 422.752 1.4503 2.60785 0
M  V30 4434 C 421.501 -0.0989574 3.47559 0
M  V30 4435 H 420.824 0.627225 3.94849 0
M  V30 4436 H 422.264 -0.3746 4.22342 0
M  V30 4437 C 420.723 -1.33817 3.09184 0
M  V30 4438 O 421.253 -2.43252 3.19674 0
M  V30 4439 N 419.459 -1.21793 2.63846 0
M  V30 4440 H 419.006 -0.32746 2.5551 0
M  V30 4441 H 418.964 -2.04809 2.38539 0
M  V30 4442 N 422.737 -1.36956 0.779787 0
M  V30 4443 C 423.965 -2.03755 0.359398 0
M  V30 4444 C 424.38 -1.58807 -1.02106 0
M  V30 4445 O 423.737 -0.773024 -1.6532 0
M  V30 4446 C 423.788 -3.59251 0.402568 0
M  V30 4447 O 423.509 -4.02557 1.72858 0
M  V30 4448 C 425.01 -4.43291 -0.0284068 0
M  V30 4449 H 422.23 -0.654148 0.149437 0
M  V30 4450 H 424.774 -1.75128 1.05595 0
M  V30 4451 H 422.929 -3.86621 -0.245478 0
M  V30 4452 H 423.343 -4.97111 1.67275 0
M  V30 4453 H 424.817 -5.51975 0.0529466 0
M  V30 4454 H 425.294 -4.25719 -1.07982 0
M  V30 4455 H 425.9 -4.21163 0.591758 0
M  V30 4456 N 424.215 -0.530993 -1.48385 0
M  V30 4457 C 425.492 0.0671788 -1.95485 0
M  V30 4458 C 425.872 1.51191 -1.47324 0
M  V30 4459 O 425.22 2.17507 -0.700202 0
M  V30 4460 C 425.43 -0.0511206 -3.48963 0
M  V30 4461 C 426.778 0.107632 -4.24464 0
M  V30 4462 O 427.802 0.0226248 -3.56193 0
M  V30 4463 O 426.661 0.285972 -5.45751 0
M  V30 4464 H 423.755 0.0787365 -0.823243 0
M  V30 4465 H 426.301 -0.595662 -1.58902 0
M  V30 4466 H 425.073 -1.05747 -3.7674 0
M  V30 4467 H 424.696 0.650525 -3.92242 0
M  V30 4468 N 425.693 1.55336 -0.266172 0
M  V30 4469 C 426.623 2.25146 0.618981 0
M  V30 4470 C 427.604 1.23845 1.16604 0
M  V30 4471 O 428.789 1.52544 1.20183 0
M  V30 4472 C 425.919 2.96572 1.80728 0
M  V30 4473 C 424.873 4.04726 1.39215 0
M  V30 4474 C 424.199 4.63678 2.66283 0
M  V30 4475 C 425.499 5.19407 0.548942 0
M  V30 4476 H 427.193 2.99377 0.0368116 0
M  V30 4477 H 424.739 1.43991 0.0162651 0
M  V30 4478 H 426.692 3.44116 2.43232 0
M  V30 4479 H 425.416 2.19861 2.41514 0
M  V30 4480 H 424.075 3.57979 0.790351 0
M  V30 4481 H 423.723 3.83646 3.25308 0
M  V30 4482 H 423.423 5.367 2.39222 0
M  V30 4483 H 424.947 5.13967 3.29651 0
M  V30 4484 H 426.361 5.63059 1.07876 0
M  V30 4485 H 424.758 5.98936 0.373593 0
M  V30 4486 H 425.828 4.8295 -0.434394 0
M  V30 4487 N 427.171 -0.0066808 1.57599 0
M  V30 4488 C 428.396 -0.707738 1.94951 0
M  V30 4489 C 428.821 -1.66882 0.867868 0
M  V30 4490 O 428.179 -1.80457 -0.17458 0
M  V30 4491 C 428.227 -1.42162 3.31394 0
M  V30 4492 O 427.331 -2.53578 3.25226 0
M  V30 4493 H 426.672 -0.188752 0.636607 0
M  V30 4494 H 429.202 0.0445193 2.04552 0
M  V30 4495 H 429.212 -1.78655 3.66806 0
M  V30 4496 H 427.887 -0.716903 4.09675 0
M  V30 4497 H 426.464 -2.19463 3.01481 0
M  V30 4498 N 428.649 -1.55105 -0.279332 0
M  V30 4499 C 429.874 -1.7976 -1.03446 0
M  V30 4500 C 430.299 -0.565952 -1.79384 0
M  V30 4501 O 429.657 0.484259 -1.74713 0
M  V30 4502 C 429.705 -3.0179 -1.97371 0
M  V30 4503 O 428.809 -2.76432 -3.06038 0
M  V30 4504 H 428.15 -0.594334 -0.29608 0
M  V30 4505 H 430.68 -2.02235 -0.310165 0
M  V30 4506 H 430.69 -3.30351 -2.39441 0
M  V30 4507 H 429.365 -3.91085 -1.4151 0
M  V30 4508 H 427.942 -2.58949 -2.68328 0
M  V30 4509 N 430.127 0.543554 -1.4793 0
M  V30 4510 C 431.543 0.870806 -1.3375 0
M  V30 4511 C 431.743 1.9864 -0.338261 0
M  V30 4512 O 430.799 2.51305 0.245371 0
M  V30 4513 C 432.112 1.25114 -2.73435 0
M  V30 4514 C 433.66 1.3618 -2.81823 0
M  V30 4515 C 434.135 1.77563 -4.22179 0
M  V30 4516 N 435.626 1.8469 -4.24787 0
M  V30 4517 C 436.361 2.18067 -5.30315 0
M  V30 4518 N 435.857 2.49963 -6.46135 0
M  V30 4519 N 437.65 2.18958 -5.17701 0
M  V30 4520 H 429.801 -0.19275 -2.11524 0
M  V30 4521 H 432.064 -0.0235777 -0.947707 0
M  V30 4522 H 431.77 0.50514 -3.48053 0
M  V30 4523 H 431.644 2.20431 -3.06088 0
M  V30 4524 H 434.031 2.09859 -2.07468 0
M  V30 4525 H 434.112 0.390169 -2.52807 0
M  V30 4526 H 433.756 1.04449 -4.97044 0
M  V30 4527 H 433.686 2.75753 -4.48629 0
M  V30 4528 H 436.177 1.62372 -3.41239 0
M  V30 4529 H 436.49 2.74497 -7.22406 0
M  V30 4530 H 434.835 2.47513 -6.49432 0
M  V30 4531 H 438.026 1.93488 -4.2624 0
M  V30 4532 H 438.199 2.44639 -6.00047 0
M  V30 4533 N 431.605 1.3629 0.791371 0
M  V30 4534 C 432.833 1.33562 1.58016 0
M  V30 4535 C 433.248 -0.0835616 1.88615 0
M  V30 4536 O 432.605 -1.0399 1.49974 0
M  V30 4537 C 432.656 2.15517 2.90232 0
M  V30 4538 O 432.377 3.51902 2.60953 0
M  V30 4539 C 433.878 2.20546 3.84544 0
M  V30 4540 H 431.098 0.458226 0.490173 0
M  V30 4541 H 433.642 1.79361 0.982345 0
M  V30 4542 H 431.797 1.73278 3.46487 0
M  V30 4543 H 432.211 3.94644 3.4548 0
M  V30 4544 H 433.685 2.82252 4.74382 0
M  V30 4545 H 434.162 1.20838 4.2225 0
M  V30 4546 H 434.768 2.63013 3.34222 0
M  V30 4547 N 433.083 -1.0153 1.20538 0
M  V30 4548 C 433.993 -2.13557 0.971113 0
M  V30 4549 C 435.009 -1.73845 -0.0734366 0
M  V30 4550 O 436.185 -2.01075 0.114299 0
M  V30 4551 C 433.25 -3.42661 0.527639 0
M  V30 4552 C 432.311 -3.96608 1.64319 0
M  V30 4553 C 431.544 -5.1955 1.22078 0
M  V30 4554 O 431.767 -5.70329 0.0900198 0
M  V30 4555 O 430.701 -5.66681 2.02871 0
M  V30 4556 H 434.527 -2.3619 1.90913 0
M  V30 4557 H 432.112 -1.11946 0.989362 0
M  V30 4558 H 433.994 -4.20404 0.289621 0
M  V30 4559 H 432.669 -3.21441 -0.381779 0
M  V30 4560 H 431.576 -3.20139 1.93551 0
M  V30 4561 H 432.909 -4.22219 2.52966 0
M  V30 4562 N 434.561 -1.01147 -1.20859 0
M  V30 4563 C 435.493 -0.535546 -2.22855 0
M  V30 4564 C 436.506 0.379323 -1.58319 0
M  V30 4565 O 437.695 0.178489 -1.77605 0
M  V30 4566 C 434.795 0.240962 -3.38042 0
M  V30 4567 C 433.968 -0.674562 -4.32167 0
M  V30 4568 C 433.027 0.053467 -5.26173 0
M  V30 4569 O 432.053 -0.567339 -5.66366 0
M  V30 4570 N 433.255 1.32997 -5.65059 0
M  V30 4571 H 436.02 -1.41268 -2.64317 0
M  V30 4572 H 433.581 -0.888386 -1.35349 0
M  V30 4573 H 435.573 0.737115 -3.97931 0
M  V30 4574 H 434.143 1.01935 -2.95513 0
M  V30 4575 H 433.363 -1.35111 -3.70322 0
M  V30 4576 H 434.651 -1.2974 -4.91981 0
M  V30 4577 H 434.049 1.85536 -5.34409 0
M  V30 4578 H 432.606 1.77095 -6.2728 0
M  V30 4579 N 436.039 1.36541 -0.78704 0
M  V30 4580 C 436.971 2.28761 -0.141773 0
M  V30 4581 C 437.984 1.49365 0.647599 0
M  V30 4582 O 439.173 1.71836 0.483173 0
M  V30 4583 C 436.273 3.28771 0.822368 0
M  V30 4584 C 435.446 4.3732 0.0835594 0
M  V30 4585 C 434.505 5.17307 0.963296 0
M  V30 4586 O 433.531 5.67638 0.421419 0
M  V30 4587 N 434.733 5.33515 2.28784 0
M  V30 4588 H 437.498 2.84777 -0.933919 0
M  V30 4589 H 435.059 1.48682 -0.640735 0
M  V30 4590 H 437.051 3.79169 1.41468 0
M  V30 4591 H 435.621 2.73412 1.5154 0
M  V30 4592 H 434.841 3.88118 -0.689809 0
M  V30 4593 H 436.129 5.0701 -0.426358 0
M  V30 4594 H 435.527 4.94234 2.75226 0
M  V30 4595 H 434.084 5.87165 2.82985 0
M  V30 4596 N 437.518 0.538854 1.48102 0
M  V30 4597 C 438.481 -0.208395 2.28251 0
M  V30 4598 C 439.481 -0.859656 1.35892 0
M  V30 4599 O 440.671 -0.71834 1.58699 0
M  V30 4600 C 437.803 -1.30252 3.15035 0
M  V30 4601 H 438.996 0.495407 2.9578 0
M  V30 4602 H 436.549 0.295112 1.53489 0
M  V30 4603 H 437.284 -2.0393 2.52157 0
M  V30 4604 H 437.069 -0.840551 3.82985 0
M  V30 4605 H 438.559 -1.82787 3.75471 0
M  V30 4606 N 438.996 -1.55193 0.274407 0
M  V30 4607 C 440.221 -2.04446 -0.348824 0
M  V30 4608 C 440.646 -1.15149 -1.48735 0
M  V30 4609 O 440.004 -0.149952 -1.80679 0
M  V30 4610 C 440.052 -3.51431 -0.808009 0
M  V30 4611 O 439.156 -3.65225 -1.91531 0
M  V30 4612 H 438.497 -0.66006 -0.0722276 0
M  V30 4613 H 441.027 -2.00481 0.408498 0
M  V30 4614 H 441.037 -3.92781 -1.10395 0
M  V30 4615 H 439.712 -4.15892 0.0249865 0
M  V30 4616 H 438.289 -3.35778 -1.62196 0
M  V30 4617 N 440.474 -0.00167713 -1.576 0
M  V30 4618 C 441.437 0.974046 -2.07473 0
M  V30 4619 C 442.437 1.27143 -0.984444 0
M  V30 4620 O 443.627 1.21633 -1.24703 0
M  V30 4621 C 440.759 2.29849 -2.51759 0
M  V30 4622 H 441.952 0.54262 -2.9495 0
M  V30 4623 H 439.505 0.245829 -1.54355 0
M  V30 4624 H 440.24 2.77677 -1.67529 0
M  V30 4625 H 440.025 2.09584 -3.31386 0
M  V30 4626 H 441.515 2.9984 -2.90664 0
M  V30 4627 N 441.952 1.55251 0.271103 0
M  V30 4628 C 442.882 1.9127 1.33933 0
M  V30 4629 C 443.863 0.77478 1.5143 0
M  V30 4630 O 445.048 1.03307 1.64442 0
M  V30 4631 C 442.178 2.18627 2.69851 0
M  V30 4632 C 441.132 3.34442 2.67081 0
M  V30 4633 C 440.458 3.47284 4.06569 0
M  V30 4634 C 441.758 4.70784 2.26185 0
M  V30 4635 H 443.452 2.80744 1.04035 0
M  V30 4636 H 440.998 1.35077 0.499017 0
M  V30 4637 H 442.951 2.42413 3.44694 0
M  V30 4638 H 441.675 1.25955 3.01335 0
M  V30 4639 H 440.334 3.10627 1.94695 0
M  V30 4640 H 439.982 2.52074 4.35279 0
M  V30 4641 H 439.682 4.25152 4.0561 0
M  V30 4642 H 441.206 3.73363 4.83148 0
M  V30 4643 H 442.62 4.94102 2.90751 0
M  V30 4644 H 441.017 5.51582 2.36384 0
M  V30 4645 H 442.087 4.69478 1.21319 0
M  V30 4646 N 443.43 -0.535701 1.48216 0
M  V30 4647 C 444.34 -1.66785 1.64985 0
M  V30 4648 C 445.356 -1.65654 0.532414 0
M  V30 4649 O 446.532 -1.8471 0.80275 0
M  V30 4650 C 443.597 -3.0326 1.68031 0
M  V30 4651 C 442.658 -3.1529 2.9136 0
M  V30 4652 C 441.891 -4.45255 2.94252 0
M  V30 4653 O 442.114 -5.32011 2.05719 0
M  V30 4654 O 441.048 -4.6153 3.86359 0
M  V30 4655 H 444.874 -1.55576 2.60825 0
M  V30 4656 H 442.459 -0.70815 1.31551 0
M  V30 4657 H 444.341 -3.84436 1.72589 0
M  V30 4658 H 443.016 -3.14805 0.753628 0
M  V30 4659 H 441.923 -2.3343 2.92337 0
M  V30 4660 H 443.256 -3.08658 3.83394 0
M  V30 4661 N 444.908 -1.36708 -0.784132 0
M  V30 4662 C 445.818 -1.3363 -1.92822 0
M  V30 4663 C 446.834 -0.237686 -1.72369 0
M  V30 4664 O 448.01 -0.470962 -1.95816 0
M  V30 4665 C 445.075 -1.13011 -3.27764 0
M  V30 4666 C 444.136 -2.32397 -3.60957 0
M  V30 4667 C 443.369 -2.12752 -4.89461 0
M  V30 4668 O 443.592 -1.10541 -5.59586 0
M  V30 4669 O 442.526 -3.00653 -5.21432 0
M  V30 4670 H 446.352 -2.29964 -1.98369 0
M  V30 4671 H 443.937 -1.1731 -0.925136 0
M  V30 4672 H 445.819 -1.03451 -4.08504 0
M  V30 4673 H 444.494 -0.19743 -3.23097 0
M  V30 4674 H 443.401 -2.47527 -2.80502 0
M  V30 4675 H 444.734 -3.2419 -3.70354 0
M  V30 4676 N 446.386 1.0089 -1.21074 0
M  V30 4677 C 447.614 1.78191 -1.05145 0
M  V30 4678 C 448.029 1.84537 0.398952 0
M  V30 4679 O 447.386 1.30393 1.27687 0
M  V30 4680 C 447.437 3.22288 -1.63746 0
M  V30 4681 O 447.158 3.16315 -3.03111 0
M  V30 4682 C 448.659 4.16106 -1.52875 0
M  V30 4683 H 445.879 0.560129 -0.369454 0
M  V30 4684 H 448.423 1.26945 -1.60328 0
M  V30 4685 H 446.578 3.70655 -1.12664 0
M  V30 4686 H 446.992 4.06817 -3.31059 0
M  V30 4687 H 448.466 5.15026 -1.98626 0
M  V30 4688 H 448.943 4.36541 -0.482521 0
M  V30 4689 H 449.549 3.73625 -2.03185 0
M  V30 4690 N 447.864 1.01787 1.20321 0
M  V30 4691 C 448.827 0.593972 2.2137 0
M  V30 4692 C 449.827 -0.336553 1.57239 0
M  V30 4693 O 451.017 -0.125069 1.7375 0
M  V30 4694 C 448.149 -0.132433 3.40643 0
M  V30 4695 H 449.342 1.48791 2.60387 0
M  V30 4696 H 446.895 0.807803 1.33807 0
M  V30 4697 H 447.63 -1.04123 3.0713 0
M  V30 4698 H 447.415 0.53605 3.88418 0
M  V30 4699 H 448.905 -0.416314 4.1552 0
M  V30 4700 N 449.342 -1.36122 0.79427 0
M  V30 4701 C 450.305 -2.28309 0.201889 0
M  V30 4702 C 451.305 -1.49041 -0.603603 0
M  V30 4703 O 452.495 -1.68964 -0.423888 0
M  V30 4704 C 449.627 -3.3321 -0.719978 0
M  V30 4705 H 450.82 -2.82208 1.01481 0
M  V30 4706 H 448.373 -1.45768 0.564037 0
M  V30 4707 H 449.108 -2.84475 -1.55706 0
M  V30 4708 H 448.893 -3.91835 -0.144266 0
M  V30 4709 H 450.383 -4.02044 -1.12916 0
M  V30 4710 N 450.82 -0.546701 -1.47814 0
M  V30 4711 C 452.045 -0.021268 -2.07389 0
M  V30 4712 C 452.47 1.25822 -1.39822 0
M  V30 4713 O 451.828 1.75111 -0.46968 0
M  V30 4714 C 451.876 0.168502 -3.60206 0
M  V30 4715 O 450.98 1.23347 -3.93522 0
M  V30 4716 H 450.321 -0.0466108 -0.662362 0
M  V30 4717 H 452.851 -0.759387 -1.89985 0
M  V30 4718 H 452.861 0.385982 -4.0617 0
M  V30 4719 H 451.536 -0.766075 -4.08784 0
M  V30 4720 H 450.113 0.997319 -3.59316 0
M  V30 4721 N 452.299 1.55045 -0.282633 0
M  V30 4722 C 453.232 2.18951 0.64311 0
M  V30 4723 C 454.21 1.15287 1.14664 0
M  V30 4724 O 455.394 1.43846 1.21822 0
M  V30 4725 C 452.521 2.81874 1.87789 0
M  V30 4726 C 451.567 3.98906 1.50919 0
M  V30 4727 S 452.4 5.3234 0.580884 0
M  V30 4728 C 453.556 5.98737 1.82387 0
M  V30 4729 H 453.789 2.97131 0.100138 0
M  V30 4730 H 451.322 1.54255 -0.0668514 0
M  V30 4731 H 453.28 3.18757 2.58658 0
M  V30 4732 H 451.941 2.03573 2.392 0
M  V30 4733 H 451.134 4.4165 2.42819 0
M  V30 4734 H 450.736 3.63485 0.88061 0
M  V30 4735 H 453.028 6.18427 2.76684 0
M  V30 4736 H 453.971 6.93318 1.4393 0
M  V30 4737 H 454.379 5.28177 1.99223 0
M  V30 4738 N 453.777 0.010035 1.57597 0
M  V30 4739 C 454.687 -0.994226 2.12491 0
M  V30 4740 C 455.703 -1.37013 1.07254 0
M  V30 4741 O 456.879 -1.45542 1.3921 0
M  V30 4742 C 453.944 -2.2642 2.62555 0
M  V30 4743 C 453.005 -1.95049 3.82432 0
M  V30 4744 C 452.238 -3.15991 4.30099 0
M  V30 4745 O 452.461 -4.28015 3.7704 0
M  V30 4746 O 451.395 -2.99403 5.22151 0
M  V30 4747 H 455.221 -0.557549 2.98538 0
M  V30 4748 H 452.806 -0.209413 1.47925 0
M  V30 4749 H 454.688 -3.01009 2.9491 0
M  V30 4750 H 453.363 -2.69306 1.796 0
M  V30 4751 H 452.27 -1.17904 3.55034 0
M  V30 4752 H 453.603 -1.56992 4.66491 0
M  V30 4753 N 455.255 -1.55392 -0.262866 0
M  V30 4754 C 456.187 -1.85392 -1.34768 0
M  V30 4755 C 457.2 -0.739069 -1.45057 0
M  V30 4756 O 458.389 -1.01703 -1.46693 0
M  V30 4757 C 455.489 -2.01088 -2.72795 0
M  V30 4758 C 454.662 -3.31828 -2.84972 0
M  V30 4759 C 453.721 -3.37464 -4.03738 0
M  V30 4760 O 452.747 -4.10778 -3.94018 0
M  V30 4761 N 453.949 -2.65599 -5.16176 0
M  V30 4762 H 456.714 -2.79029 -1.09375 0
M  V30 4763 H 454.275 -1.55434 -0.452981 0
M  V30 4764 H 456.267 -2.02217 -3.50557 0
M  V30 4765 H 454.837 -1.1427 -2.90966 0
M  V30 4766 H 454.057 -3.43152 -1.94012 0
M  V30 4767 H 455.345 -4.18032 -2.90045 0
M  V30 4768 H 454.743 -2.05736 -5.26962 0
M  V30 4769 H 453.3 -2.72439 -5.92132 0
M  V30 4770 N 456.733 0.527833 -1.48498 0
M  V30 4771 C 457.663 1.64136 -1.66077 0
M  V30 4772 C 458.644 1.62286 -0.509625 0
M  V30 4773 O 459.829 1.79449 -0.742413 0
M  V30 4774 C 456.959 3.02717 -1.70234 0
M  V30 4775 C 455.913 3.19426 -2.8487 0
M  V30 4776 C 455.239 4.5909 -2.74118 0
M  V30 4777 C 456.539 3.01993 -4.26142 0
M  V30 4778 H 458.233 1.4968 -2.593 0
M  V30 4779 H 455.779 0.718654 -1.24785 0
M  V30 4780 H 457.732 3.80491 -1.8112 0
M  V30 4781 H 456.456 3.18201 -0.735911 0
M  V30 4782 H 455.115 2.4407 -2.73542 0
M  V30 4783 H 454.763 4.71413 -1.7544 0
M  V30 4784 H 454.463 4.71214 -3.51042 0
M  V30 4785 H 455.987 5.3896 -2.86974 0
M  V30 4786 H 457.401 3.69558 -4.38292 0
M  V30 4787 H 455.798 3.2561 -5.04082 0
M  V30 4788 H 456.868 1.98396 -4.42456 0
M  V30 4789 N 458.211 1.37122 0.776871 0
M  V30 4790 C 459.439 1.3523 1.5659 0
M  V30 4791 C 459.854 -0.0635518 1.88693 0
M  V30 4792 O 459.211 -1.02394 1.51069 0
M  V30 4793 C 459.262 2.18583 2.8793 0
M  V30 4794 O 458.983 3.5465 2.57206 0
M  V30 4795 C 460.484 2.24612 3.82183 0
M  V30 4796 H 457.704 0.4634 0.485285 0
M  V30 4797 H 460.248 1.80392 0.963266 0
M  V30 4798 H 458.403 1.76943 3.4463 0
M  V30 4799 H 458.817 3.98286 3.41275 0
M  V30 4800 H 460.291 2.87267 4.71361 0
M  V30 4801 H 460.768 1.25309 4.20944 0
M  V30 4802 H 461.374 2.66543 3.31414 0
M  V30 4803 N 459.689 -1.00246 1.21608 0
M  V30 4804 C 460.652 -2.07233 0.979133 0
M  V30 4805 C 461.652 -1.6072 -0.0508219 0
M  V30 4806 O 462.842 -1.73196 0.186712 0
M  V30 4807 C 459.974 -3.37546 0.477016 0
M  V30 4808 H 461.167 -2.29687 1.92831 0
M  V30 4809 H 458.72 -1.17261 1.03342 0
M  V30 4810 H 459.455 -3.20773 -0.476966 0
M  V30 4811 H 459.24 -3.72638 1.21997 0
M  V30 4812 H 460.73 -4.16285 0.331181 0
M  V30 4813 N 461.167 -1.02423 -1.1978 0
M  V30 4814 C 462.395 -0.737456 -1.93311 0
M  V30 4815 C 462.81 0.703023 -1.75223 0
M  V30 4816 O 462.167 1.47761 -1.07112 0
M  V30 4817 C 462.218 -1.0733 -3.45199 0
M  V30 4818 O 461.939 -2.4572 -3.62702 0
M  V30 4819 C 463.44 -0.80866 -4.35862 0
M  V30 4820 H 460.66 -0.2702 -0.614193 0
M  V30 4821 H 463.204 -1.36747 -1.52054 0
M  V30 4822 H 461.359 -0.488545 -3.84307 0
M  V30 4823 H 461.773 -2.58081 -4.56612 0
M  V30 4824 H 463.247 -1.09365 -5.41057 0
M  V30 4825 H 463.724 0.257025 -4.38447 0
M  V30 4826 H 464.33 -1.37592 -4.02428 0
M  V30 4827 N 462.645 1.35699 -0.801477 0
M  V30 4828 C 463.891 1.99208 -0.380022 0
M  V30 4829 C 464.224 1.63445 1.04878 0
M  V30 4830 O 463.499 0.895223 1.72673 0
M  V30 4831 C 463.782 3.55755 -0.557708 0
M  V30 4832 C 463.635 4.01332 -2.03107 0
M  V30 4833 C 464.954 4.40096 0.0197968 0
M  V30 4834 H 462.073 0.723667 -0.139552 0
M  V30 4835 H 464.715 1.60928 -1.01006 0
M  V30 4836 H 462.865 3.88494 -0.0213741 0
M  V30 4837 H 464.537 3.79026 -2.62939 0
M  V30 4838 H 462.78 3.52429 -2.52936 0
M  V30 4839 H 463.451 5.10234 -2.1063 0
M  V30 4840 H 465.927 4.13786 -0.438179 0
M  V30 4841 H 464.803 5.48735 -0.134477 0
M  V30 4842 H 465.064 4.2786 1.11303 0
M  V30 4843 N 464.123 0.554532 1.47522 0
M  V30 4844 C 465.07 -0.19466 2.29978 0
M  V30 4845 C 466.04 -0.910882 1.38896 0
M  V30 4846 O 467.225 -0.907102 1.67858 0
M  V30 4847 C 464.365 -1.22035 3.22802 0
M  V30 4848 C 463.478 -0.510474 4.28973 0
M  V30 4849 C 462.613 -1.52123 5.08952 0
M  V30 4850 C 461.652 -0.796173 6.069 0
M  V30 4851 N 460.789 -1.75363 6.79847 0
M  V30 4852 H 465.629 0.51461 2.93523 0
M  V30 4853 H 463.166 0.265607 1.44682 0
M  V30 4854 H 465.124 -1.8276 3.7504 0
M  V30 4855 H 463.754 -1.89769 2.61127 0
M  V30 4856 H 462.806 0.211234 3.79813 0
M  V30 4857 H 464.118 0.0576503 4.98767 0
M  V30 4858 H 463.272 -2.20207 5.65326 0
M  V30 4859 H 462.011 -2.12327 4.39054 0
M  V30 4860 H 461.016 -0.101388 5.49707 0
M  V30 4861 H 462.241 -0.199911 6.78806 0
M  V30 4862 H 460.187 -2.3443 6.12682 0
M  V30 4863 H 460.104 -1.23759 7.45801 0
M  V30 4864 H 461.372 -2.4257 7.40797 0
M  V30 4865 N 465.601 -1.54893 0.290851 0
M  V30 4866 C 466.533 -2.20564 -0.623236 0
M  V30 4867 C 467.546 -1.19519 -1.1054 0
M  V30 4868 O 468.735 -1.46165 -1.02459 0
M  V30 4869 C 465.835 -2.83033 -1.86401 0
M  V30 4870 C 465.008 -4.09916 -1.52604 0
M  V30 4871 C 464.067 -4.56284 -2.62091 0
M  V30 4872 O 463.093 -5.2171 -2.27612 0
M  V30 4873 N 464.295 -4.27746 -3.92446 0
M  V30 4874 H 467.06 -2.99638 -0.0610915 0
M  V30 4875 H 464.621 -1.61508 0.112615 0
M  V30 4876 H 466.613 -3.1099 -2.58973 0
M  V30 4877 H 465.183 -2.0786 -2.33481 0
M  V30 4878 H 464.403 -3.89078 -0.633424 0
M  V30 4879 H 465.691 -4.92554 -1.27547 0
M  V30 4880 H 465.089 -3.7531 -4.23272 0
M  V30 4881 H 463.646 -4.60437 -4.61347 0
M  V30 4882 N 467.08 -0.0183926 -1.57589 0
M  V30 4883 C 468.028 0.985111 -2.10709 0
M  V30 4884 C 469.022 1.34397 -1.0312 0
M  V30 4885 O 470.228 1.32746 -1.21567 0
M  V30 4886 H 466.603 0.335418 -0.673052 0
M  V30 4887 H 468.574 0.511689 -2.9398 0
M  V30 4888 C 467.323 2.26202 -2.64061 0
M  V30 4889 H 466.646 1.9946 -3.4649 0
M  V30 4890 H 468.086 2.94652 -3.04887 0
M  V30 4891 C 466.545 2.98444 -1.5631 0
M  V30 4892 O 467.075 3.90142 -0.956674 0
M  V30 4893 N 465.281 2.6059 -1.28612 0
M  V30 4894 H 464.828 1.86101 -1.78112 0
M  V30 4895 H 464.786 3.09238 -0.567406 0
M  V30 4896 N 468.558 1.5553 0.254621 0
M  V30 4897 C 469.521 1.88872 1.29846 0
M  V30 4898 C 470.521 0.764591 1.41459 0
M  V30 4899 O 471.711 1.03265 1.40293 0
M  V30 4900 C 468.843 2.11032 2.67728 0
M  V30 4901 H 470.036 2.82201 1.01502 0
M  V30 4902 H 467.589 1.48303 0.493556 0
M  V30 4903 H 468.324 1.20146 3.01223 0
M  V30 4904 H 468.109 2.92895 2.60682 0
M  V30 4905 H 469.599 2.38038 3.43115 0
M  V30 4906 N 470.036 -0.519951 1.48776 0
M  V30 4907 C 471.313 -1.28123 1.47797 0
M  V30 4908 C 471.693 -2.10196 0.195157 0
M  V30 4909 O 471.041 -2.13167 -0.822925 0
M  V30 4910 C 471.251 -2.15413 2.74587 0
M  V30 4911 C 472.599 -2.75225 3.23321 0
M  V30 4912 O 473.623 -2.25694 2.75574 0
M  V30 4913 O 472.482 -3.65346 4.06429 0
M  V30 4914 H 469.576 -0.578793 0.590701 0
M  V30 4915 H 472.122 -0.535779 1.6102 0
M  V30 4916 H 470.894 -1.54617 3.59457 0
M  V30 4917 H 470.517 -2.97186 2.64132 0
M  V30 4918 N 471.514 -1.37532 -0.769588 0
M  V30 4919 C 472.462 -1.33561 -1.90432 0
M  V30 4920 C 473.456 -0.224027 -1.67912 0
M  V30 4921 O 474.662 -0.392174 -1.75676 0
M  V30 4922 H 471.037 -0.416279 -0.626271 0
M  V30 4923 H 473.008 -2.29348 -1.90899 0
M  V30 4924 C 471.757 -1.16162 -3.27722 0
M  V30 4925 H 471.08 -2.00951 -3.45628 0
M  V30 4926 H 472.52 -1.17434 -4.07413 0
M  V30 4927 C 470.979 0.132583 -3.36639 0
M  V30 4928 O 471.509 1.11539 -3.85904 0
M  V30 4929 N 469.715 0.184013 -2.90017 0
M  V30 4930 H 469.262 -0.616415 -2.50116 0
M  V30 4931 H 469.22 1.04956 -2.96364 0
M  V30 4932 N 472.992 0.995999 -1.22138 0
M  V30 4933 C 473.955 2.06711 -0.990109 0
M  V30 4934 C 474.955 1.60744 0.0422978 0
M  V30 4935 O 476.145 1.73095 -0.195895 0
M  V30 4936 C 473.277 3.37288 -0.49491 0
M  V30 4937 H 474.47 2.28661 -1.94047 0
M  V30 4938 H 472.023 1.16711 -1.03963 0
M  V30 4939 H 472.758 3.21022 0.459948 0
M  V30 4940 H 472.543 3.71986 -1.23971 0
M  V30 4941 H 474.033 4.16103 -0.353253 0
M  V30 4942 N 474.47 1.03057 1.19235 0
M  V30 4943 C 475.886 0.747947 1.40989 0
M  V30 4944 C 476.086 -0.666752 1.90149 0
M  V30 4945 O 475.142 -1.43249 2.07933 0
M  V30 4946 C 476.455 1.7855 2.41951 0
M  V30 4947 C 478.003 1.80524 2.55695 0
M  V30 4948 C 478.478 2.83243 3.59913 0
M  V30 4949 N 479.969 2.8207 3.67411 0
M  V30 4950 C 480.704 3.58204 4.47747 0
M  V30 4951 N 480.2 4.44057 5.31775 0
M  V30 4952 N 481.993 3.46738 4.42413 0
M  V30 4953 H 474.144 1.94367 0.856468 0
M  V30 4954 H 476.407 0.840412 0.438647 0
M  V30 4955 H 476.113 2.79973 2.12857 0
M  V30 4956 H 475.987 1.6092 3.41152 0
M  V30 4957 H 478.374 0.79778 2.84112 0
M  V30 4958 H 478.455 2.02229 1.56643 0
M  V30 4959 H 478.099 3.84161 3.32239 0
M  V30 4960 H 478.029 2.58795 4.5862 0
M  V30 4961 H 480.52 2.19803 3.074 0
M  V30 4962 H 480.833 4.98884 5.90199 0
M  V30 4963 H 479.178 4.48129 5.3123 0
M  V30 4964 H 482.369 2.79077 3.75811 0
M  V30 4965 H 482.542 4.06322 5.04783 0
M  V30 4966 N 475.948 -1.35272 0.808662 0
M  V30 4967 C 476.88 -2.28507 0.178149 0
M  V30 4968 C 477.893 -1.50377 -0.623754 0
M  V30 4969 O 479.082 -1.72583 -0.455774 0
M  V30 4970 C 476.182 -3.30038 -0.769959 0
M  V30 4971 C 475.355 -4.37398 -0.0139749 0
M  V30 4972 C 474.414 -5.18775 -0.880875 0
M  V30 4973 O 473.44 -5.68236 -0.331059 0
M  V30 4974 N 474.642 -5.37087 -2.20267 0
M  V30 4975 H 477.407 -2.83255 0.979106 0
M  V30 4976 H 474.968 -1.47643 0.664308 0
M  V30 4977 H 476.96 -3.81371 -1.35418 0
M  V30 4978 H 475.53 -2.75789 -1.47171 0
M  V30 4979 H 474.75 -3.86971 0.751468 0
M  V30 4980 H 476.038 -5.06268 0.506965 0
M  V30 4981 H 475.436 -4.9855 -2.67328 0
M  V30 4982 H 473.993 -5.91593 -2.73608 0
M  V30 4983 N 477.426 -0.562348 -1.47226 0
M  V30 4984 C 478.389 0.172056 -2.28553 0
M  V30 4985 C 479.389 0.837928 -1.37242 0
M  V30 4986 O 480.579 0.693001 -1.59822 0
M  V30 4987 C 477.711 1.25223 -3.17068 0
M  V30 4988 H 478.904 -0.542401 -2.94954 0
M  V30 4989 H 476.457 -0.319493 -1.53 0
M  V30 4990 H 477.192 1.99892 -2.55369 0
M  V30 4991 H 476.977 0.779515 -3.84273 0
M  V30 4992 H 478.467 1.76791 -3.78332 0
M  V30 4993 N 478.904 1.54736 -0.299062 0
M  V30 4994 C 480.129 2.04975 0.316254 0
M  V30 4995 C 480.554 1.17501 1.46885 0
M  V30 4996 O 479.912 0.178678 1.80417 0
M  V30 4997 C 479.96 3.52672 0.751997 0
M  V30 4998 O 479.064 3.68226 1.85697 0
M  V30 4999 H 478.405 0.661126 0.0617175 0
M  V30 5000 H 480.935 1.99805 -0.440341 0
M  V30 5001 H 480.945 3.94488 1.04133 0
M  V30 5002 H 479.62 4.158 -0.0911482 0
M  V30 5003 H 478.197 3.38316 1.56834 0
M  V30 5004 N 480.382 0.0267497 1.57577 0
M  V30 5005 C 481.314 -0.984594 2.06974 0
M  V30 5006 C 482.327 -1.29032 0.992705 0
M  V30 5007 O 483.516 -1.25539 1.26895 0
M  V30 5008 C 480.616 -2.31262 2.47732 0
M  V30 5009 C 479.789 -2.1924 3.78487 0
M  V30 5010 C 478.848 -3.34956 4.05821 0
M  V30 5011 O 477.874 -3.11948 4.76106 0
M  V30 5012 N 479.076 -4.58672 3.55809 0
M  V30 5013 H 481.841 -0.563143 2.94362 0
M  V30 5014 H 479.402 -0.160061 1.61107 0
M  V30 5015 H 481.394 -3.07496 2.63112 0
M  V30 5016 H 479.964 -2.65056 1.65723 0
M  V30 5017 H 479.184 -1.27747 3.72927 0
M  V30 5018 H 480.472 -2.08409 4.64158 0
M  V30 5019 H 479.87 -4.8026 2.98942 0
M  V30 5020 H 478.427 -5.32083 3.76472 0
M  V30 5021 N 481.861 -1.55662 -0.24637 0
M  V30 5022 C 482.791 -1.93377 -1.30873 0
M  V30 5023 C 483.772 -0.798773 -1.50179 0
M  V30 5024 O 484.957 -1.0591 -1.62778 0
M  V30 5025 C 482.087 -2.22893 -2.66338 0
M  V30 5026 C 481.041 -3.38649 -2.61727 0
M  V30 5027 C 480.367 -3.53708 -4.00992 0
M  V30 5028 C 481.667 -4.74323 -2.18666 0
M  V30 5029 H 483.361 -2.82363 -0.995552 0
M  V30 5030 H 480.907 -1.35854 -0.477464 0
M  V30 5031 H 482.86 -2.47866 -3.40794 0
M  V30 5032 H 481.584 -1.30733 -2.99293 0
M  V30 5033 H 480.243 -3.13685 -1.89729 0
M  V30 5034 H 479.891 -2.58967 -4.31214 0
M  V30 5035 H 479.591 -4.31551 -3.98795 0
M  V30 5036 H 481.115 -3.81003 -4.77147 0
M  V30 5037 H 482.529 -4.98665 -2.82854 0
M  V30 5038 H 480.926 -5.55273 -2.27579 0
M  V30 5039 H 481.996 -4.71349 -1.13834 0
M  V30 5040 N 483.339 0.512053 -1.4905 0
M  V30 5041 C 484.302 1.59704 -1.64399 0
M  V30 5042 C 485.302 1.52285 -0.516317 0
M  V30 5043 O 486.492 1.55635 -0.782527 0
M  V30 5044 C 483.624 2.9935 -1.63102 0
M  V30 5045 H 484.817 1.47428 -2.61161 0
M  V30 5046 H 482.37 0.735469 -1.37915 0
M  V30 5047 H 483.105 3.17116 -0.678836 0
M  V30 5048 H 482.89 3.06144 -2.44986 0
M  V30 5049 H 484.38 3.782 -1.77072 0
M  V30 5050 N 484.817 1.37938 0.762283 0
M  V30 5051 C 485.749 1.30349 1.88525 0
M  V30 5052 C 486.762 0.217402 1.61342 0
M  V30 5053 O 487.951 0.474291 1.72084 0
M  V30 5054 C 485.051 0.994844 3.23969 0
M  V30 5055 C 484.224 2.18829 3.78725 0
M  V30 5056 C 483.283 1.84844 4.92665 0
M  V30 5057 O 482.309 2.57244 5.07754 0
M  V30 5058 N 483.511 0.798201 5.74986 0
M  V30 5059 H 486.276 2.27114 1.95549 0
M  V30 5060 H 483.837 1.31686 0.941825 0
M  V30 5061 H 485.829 0.748168 3.97724 0
M  V30 5062 H 484.399 0.115446 3.12387 0
M  V30 5063 H 483.619 2.59615 2.96637 0
M  V30 5064 H 484.907 2.98497 4.1204 0
M  V30 5065 H 484.305 0.197611 5.65355 0
M  V30 5066 H 482.862 0.611396 6.48926 0
M  V30 5067 N 486.295 -0.989507 1.22664 0
M  V30 5068 C 487.52 -1.77031 1.08051 0
M  V30 5069 C 487.945 -1.84535 -0.364483 0
M  V30 5070 O 487.303 -1.3003 -1.2634 0
M  V30 5071 C 487.351 -3.18 1.70024 0
M  V30 5072 O 486.455 -4.01161 0.956216 0
M  V30 5073 H 485.796 -0.545008 0.379292 0
M  V30 5074 H 488.326 -1.24277 1.62531 0
M  V30 5075 H 488.336 -3.68616 1.74888 0
M  V30 5076 H 487.011 -3.11853 2.75174 0
M  V30 5077 H 485.588 -3.59687 0.98384 0
M  V30 5078 N 487.773 -1.03688 -1.18687 0
M  V30 5079 C 488.736 -0.629115 -2.20397 0
M  V30 5080 C 489.736 0.311495 -1.57754 0
M  V30 5081 O 490.926 0.0974107 -1.73927 0
M  V30 5082 C 488.058 0.0782231 -3.4081 0
M  V30 5083 H 489.251 -1.52915 -2.57987 0
M  V30 5084 H 486.804 -0.828988 -1.32505 0
M  V30 5085 H 487.539 0.992233 -3.08748 0
M  V30 5086 H 487.324 -0.597776 -3.87517 0
M  V30 5087 H 488.814 0.350156 -4.16129 0
M  V30 5088 N 489.251 1.34841 -0.815825 0
M  V30 5089 C 490.476 2.03261 -0.41226 0
M  V30 5090 C 490.901 1.61055 0.971751 0
M  V30 5091 O 490.259 0.7917 1.63101 0
M  V30 5092 C 490.307 3.56914 -0.514289 0
M  V30 5093 O 489.411 4.09728 0.468675 0
M  V30 5094 H 488.752 0.641664 -0.170771 0
M  V30 5095 H 491.282 1.72241 -1.10427 0
M  V30 5096 H 491.292 4.06156 -0.387457 0
M  V30 5097 H 489.967 3.86982 -1.52375 0
M  V30 5098 H 488.544 3.71681 0.301316 0
M  V30 5099 N 490.729 0.570148 1.46925 0
M  V30 5100 C 491.639 -0.173061 2.33961 0
M  V30 5101 C 492.655 -0.898825 1.48987 0
M  V30 5102 O 493.831 -0.864825 1.81887 0
M  V30 5103 C 490.896 -1.18177 3.25937 0
M  V30 5104 C 489.957 -0.462041 4.26806 0
M  V30 5105 C 489.19 -1.4227 5.14388 0
M  V30 5106 O 489.413 -2.65842 5.04662 0
M  V30 5107 O 488.347 -0.940127 5.94513 0
M  V30 5108 H 492.173 0.541216 2.98839 0
M  V30 5109 H 489.758 0.330647 1.45695 0
M  V30 5110 H 491.64 -1.76372 3.82715 0
M  V30 5111 H 490.315 -1.87774 2.63671 0
M  V30 5112 H 489.222 0.161429 3.73752 0
M  V30 5113 H 490.555 0.192719 4.91823 0
M  V30 5114 N 492.207 -1.54576 0.307264 0
M  V30 5115 C 493.435 -2.04675 -0.302597 0
M  V30 5116 C 493.85 -1.18425 -1.47041 0
M  V30 5117 O 493.207 -0.211257 -1.81273 0
M  V30 5118 C 493.258 -3.53575 -0.752801 0
M  V30 5119 O 492.979 -4.36547 0.368536 0
M  V30 5120 C 494.48 -4.19699 -1.42717 0
M  V30 5121 H 491.7 -0.66786 -0.0648374 0
M  V30 5122 H 494.244 -1.99516 0.448716 0
M  V30 5123 H 492.399 -3.59074 -1.45412 0
M  V30 5124 H 492.813 -5.24497 0.0168937 0
M  V30 5125 H 494.287 -5.25388 -1.69327 0
M  V30 5126 H 494.764 -3.69815 -2.36925 0
M  V30 5127 H 495.37 -4.18293 -0.768856 0
M  V30 5128 N 493.685 -0.035106 -1.57561 0
M  V30 5129 C 494.648 0.929819 -2.09492 0
M  V30 5130 C 495.648 1.25026 -1.01119 0
M  V30 5131 O 496.838 1.18961 -1.27255 0
M  V30 5132 C 493.97 2.24457 -2.56577 0
M  V30 5133 H 495.163 0.479935 -2.96035 0
M  V30 5134 H 492.716 0.213033 -1.54841 0
M  V30 5135 H 493.451 2.74061 -1.73382 0
M  V30 5136 H 493.236 2.02508 -3.35757 0
M  V30 5137 H 494.726 2.93607 -2.96959 0
M  V30 5138 N 495.163 1.55791 0.238111 0
M  V30 5139 C 496.579 1.48411 0.587045 0
M  V30 5140 C 496.779 0.72702 1.87927 0
M  V30 5141 O 495.835 0.259942 2.51158 0
M  V30 5142 C 497.148 2.92873 0.681623 0
M  V30 5143 C 498.696 3.03295 0.773363 0
M  V30 5144 C 499.171 4.49082 0.899428 0
M  V30 5145 N 500.662 4.53056 0.964075 0
M  V30 5146 C 501.397 5.63117 1.08104 0
M  V30 5147 N 500.893 6.82969 1.16299 0
M  V30 5148 N 502.686 5.50933 1.11488 0
M  V30 5149 H 494.837 2.0345 -0.610076 0
M  V30 5150 H 497.1 0.924034 -0.211813 0
M  V30 5151 H 496.806 3.51142 -0.19802 0
M  V30 5152 H 496.68 3.43851 1.55069 0
M  V30 5153 H 499.067 2.45101 1.64346 0
M  V30 5154 H 499.148 2.55513 -0.121034 0
M  V30 5155 H 498.792 5.07889 0.0338586 0
M  V30 5156 H 498.722 4.94553 1.809 0
M  V30 5157 H 501.213 3.66737 0.91173 0
M  V30 5158 H 501.526 7.62598 1.25155 0
M  V30 5159 H 499.871 6.85712 1.13241 0
M  V30 5160 H 503.062 4.56231 1.0474 0
M  V30 5161 H 503.235 6.36743 1.20259 0
M  V30 5162 N 496.642 -0.504142 1.49319 0
M  V30 5163 C 497.592 -1.60284 1.62151 0
M  V30 5164 C 498.576 -1.53657 0.477315 0
M  V30 5165 O 499.768 -1.6124 0.730108 0
M  V30 5166 C 496.897 -2.98909 1.68844 0
M  V30 5167 C 495.983 -3.10544 2.8883 0
M  V30 5168 N 496.374 -2.92078 4.12946 0
M  V30 5169 C 494.672 -3.4164 2.86702 0
M  V30 5170 C 495.373 -3.07812 4.93585 0
M  V30 5171 N 494.349 -3.36549 4.26891 0
M  V30 5172 H 498.151 -1.44656 2.55835 0
M  V30 5173 H 495.665 -0.710198 1.46048 0
M  V30 5174 H 497.662 -3.77865 1.76134 0
M  V30 5175 H 496.322 -3.15609 0.762943 0
M  V30 5176 H 497.333 -2.68316 4.42975 0
M  V30 5177 H 494.01 -3.64537 2.03517 0
M  V30 5178 H 495.4 -2.98054 6.02174 0
M  V30 5179 N 498.12 -1.38341 -0.754957 0
M  V30 5180 C 499.368 -1.34208 -1.51105 0
M  V30 5181 C 499.689 0.0677634 -1.94882 0
M  V30 5182 O 498.959 1.01517 -1.67544 0
M  V30 5183 H 497.539 -0.493819 -0.560493 0
M  V30 5184 H 500.201 -1.73005 -0.897507 0
M  V30 5185 H 499.297 -1.99203 -2.4026 0
M  V30 5186 N 499.598 0.982988 -1.23187 0
M  V30 5187 C 500.846 1.72052 -1.06031 0
M  V30 5188 C 501.167 1.90769 0.404019 0
M  V30 5189 O 500.437 1.47446 1.28982 0
M  V30 5190 H 499.017 0.637499 -0.389363 0
M  V30 5191 H 501.679 1.18338 -1.54862 0
M  V30 5192 H 500.775 2.7111 -1.54615 0
M  V30 5193 N 501.076 1.04316 1.18135 0
M  V30 5194 C 502.023 0.636398 2.21853 0
M  V30 5195 C 502.993 -0.357039 1.62217 0
M  V30 5196 O 504.178 -0.250453 1.89149 0
M  V30 5197 C 501.318 0.00812779 3.45099 0
M  V30 5198 C 500.431 1.04933 4.19062 0
M  V30 5199 C 499.566 0.389313 5.29771 0
M  V30 5200 C 498.605 1.41544 5.9551 0
M  V30 5201 N 497.742 0.78021 6.97751 0
M  V30 5202 H 502.582 1.52536 2.56002 0
M  V30 5203 H 500.119 0.76304 1.25762 0
M  V30 5204 H 502.077 -0.373497 4.15525 0
M  V30 5205 H 500.707 -0.844336 3.11562 0
M  V30 5206 H 499.759 1.54888 3.47439 0
M  V30 5207 H 501.071 1.82862 4.64072 0
M  V30 5208 H 500.225 -0.0463805 6.06682 0
M  V30 5209 H 498.964 -0.422038 4.8587 0
M  V30 5210 H 497.969 1.86124 5.17337 0
M  V30 5211 H 499.194 2.22854 6.41493 0
M  V30 5212 H 497.14 -0.0107899 6.55999 0
M  V30 5213 H 497.057 1.49716 7.41027 0
M  V30 5214 H 498.325 0.368996 7.78626 0
M  V30 5215 N 502.554 -1.34406 0.822964 0
M  V30 5216 C 503.8 -1.98578 0.411666 0
M  V30 5217 C 504.133 -1.65093 -1.02264 0
M  V30 5218 O 503.408 -0.92258 -1.71227 0
M  V30 5219 C 503.691 -3.54823 0.614235 0
M  V30 5220 C 503.544 -3.9805 2.09466 0
M  V30 5221 C 504.863 -4.40071 0.050221 0
M  V30 5222 H 501.982 -0.721355 0.151047 0
M  V30 5223 H 504.624 -1.59301 1.03554 0
M  V30 5224 H 502.774 -3.88411 0.0831774 0
M  V30 5225 H 504.446 -3.74795 2.68936 0
M  V30 5226 H 502.689 -3.4836 2.5851 0
M  V30 5227 H 503.36 -5.06819 2.18721 0
M  V30 5228 H 505.836 -4.13037 0.503953 0
M  V30 5229 H 504.712 -5.48452 0.221759 0
M  V30 5230 H 504.973 -4.29576 -1.04482 0
M  V30 5231 N 504.032 -0.577932 -1.46621 0
M  V30 5232 C 505.278 -0.0617793 -2.02706 0
M  V30 5233 C 505.611 1.29294 -1.44903 0
M  V30 5234 O 504.886 1.8461 -0.61232 0
M  V30 5235 C 505.169 0.00911824 -3.60099 0
M  V30 5236 C 505.022 -1.37416 -4.28295 0
M  V30 5237 C 506.341 0.712159 -4.343 0
M  V30 5238 H 503.46 -0.0239246 -0.736612 0
M  V30 5239 H 506.102 -0.744211 -1.74818 0
M  V30 5240 H 504.252 0.590292 -3.83989 0
M  V30 5241 H 505.924 -2.00013 -4.15683 0
M  V30 5242 H 504.167 -1.94319 -3.87843 0
M  V30 5243 H 504.838 -1.27707 -5.37024 0
M  V30 5244 H 507.314 0.218486 -4.15526 0
M  V30 5245 H 506.19 0.730782 -5.44014 0
M  V30 5246 H 506.451 1.77251 -4.05012 0
M  V30 5247 N 505.51 1.54411 -0.315457 0
M  V30 5248 C 506.787 1.92562 0.343398 0
M  V30 5249 C 507.167 1.24423 1.70535 0
M  V30 5250 O 506.515 0.385051 2.25232 0
M  V30 5251 C 506.725 3.46168 0.443687 0
M  V30 5252 C 508.073 4.18659 0.707783 0
M  V30 5253 O 509.097 3.52281 0.52693 0
M  V30 5254 O 507.956 5.36198 1.05612 0
M  V30 5255 H 505.05 0.80379 0.194552 0
M  V30 5256 H 507.596 1.65738 -0.364577 0
M  V30 5257 H 506.368 3.8792 -0.513172 0
M  V30 5258 H 505.991 3.79073 1.19956 0
M  V30 5259 N 506.988 0.0434614 1.5754 0
M  V30 5260 C 508.236 -0.630786 1.92004 0
M  V30 5261 C 508.557 -1.71836 0.921807 0
M  V30 5262 O 507.827 -1.9587 -0.034522 0
M  V30 5263 H 506.407 -0.235988 0.708745 0
M  V30 5264 H 509.069 0.0946462 1.9467 0
M  V30 5265 H 508.165 -1.07434 2.93026 0
M  V30 5266 N 508.466 -1.55915 -0.229846 0
M  V30 5267 C 509.712 -1.78807 -0.956868 0
M  V30 5268 C 510.045 -0.611687 -1.84315 0
M  V30 5269 O 509.32 0.389398 -1.90562 0
M  V30 5270 C 509.603 -3.11718 -1.80288 0
M  V30 5271 C 509.456 -4.3979 -0.943649 0
M  V30 5272 C 510.775 -3.40999 -2.78222 0
M  V30 5273 H 507.894 -0.6505 -0.346437 0
M  V30 5274 H 510.536 -1.88648 -0.226252 0
M  V30 5275 H 508.686 -3.03459 -2.42579 0
M  V30 5276 H 510.358 -4.60059 -0.338121 0
M  V30 5277 H 508.601 -4.33086 -0.248705 0
M  V30 5278 H 509.272 -5.29208 -1.5698 0
M  V30 5279 H 511.748 -3.49332 -2.26067 0
M  V30 5280 H 510.624 -4.35183 -3.34526 0
M  V30 5281 H 510.885 -2.62754 -3.55546 0
M  V30 5282 N 509.944 0.496216 -1.49584 0
M  V30 5283 C 511.19 1.25189 -1.59548 0
M  V30 5284 C 511.523 1.9212 -0.283466 0
M  V30 5285 O 510.798 1.80947 0.713324 0
M  V30 5286 C 511.081 2.31516 -2.75812 0
M  V30 5287 C 510.934 1.69054 -4.16822 0
M  V30 5288 C 512.253 3.3304 -2.87702 0
M  V30 5289 H 509.372 0.45379 -0.580727 0
M  V30 5290 H 512.014 0.549327 -1.81886 0
M  V30 5291 H 510.164 2.91438 -2.56897 0
M  V30 5292 H 511.836 1.12923 -4.47265 0
M  V30 5293 H 510.079 0.994485 -4.22247 0
M  V30 5294 H 510.75 2.462 -4.94054 0
M  V30 5295 H 513.226 2.83114 -3.04936 0
M  V30 5296 H 512.102 4.04794 -3.7072 0
M  V30 5297 H 512.363 3.95655 -1.97255 0
M  V30 5298 N 511.423 1.38739 0.74761 0
M  V30 5299 C 512.371 1.36573 1.88283 0
M  V30 5300 C 513.365 0.250712 1.67534 0
M  V30 5301 O 514.571 0.420073 1.7503 0
M  V30 5302 H 510.946 0.42619 0.619569 0
M  V30 5303 H 512.917 2.32356 1.87226 0
M  V30 5304 C 511.666 1.21361 3.25832 0
M  V30 5305 H 510.989 2.06424 3.42388 0
M  V30 5306 H 512.429 1.23901 4.05493 0
M  V30 5307 C 510.888 -0.0790099 3.36807 0
M  V30 5308 O 511.418 -1.05385 3.8763 0
M  V30 5309 N 509.624 -0.13785 2.90273 0
M  V30 5310 H 509.171 0.656128 2.49104 0
M  V30 5311 H 509.129 -1.00228 2.97996 0
M  V30 5312 N 512.901 -0.976442 1.23707 0
M  V30 5313 C 514.129 -1.75341 1.09833 0
M  V30 5314 C 514.544 -1.8553 -0.349885 0
M  V30 5315 O 513.901 -1.33732 -1.24185 0
M  V30 5316 C 513.952 -3.17833 1.72233 0
M  V30 5317 O 513.673 -3.08167 3.11391 0
M  V30 5318 C 515.174 -4.11906 1.63853 0
M  V30 5319 H 512.394 -0.550137 0.384175 0
M  V30 5320 H 514.938 -1.2265 1.63638 0
M  V30 5321 H 513.093 -3.67538 1.22452 0
M  V30 5322 H 513.507 -3.97897 3.41729 0
M  V30 5323 H 514.981 -5.09579 2.12211 0
M  V30 5324 H 515.458 -4.35109 0.598092 0
M  V30 5325 H 516.064 -3.68107 2.13019 0
M  V30 5326 N 514.379 -1.04941 -1.1758 0
M  V30 5327 C 515.312 -0.592518 -2.20373 0
M  V30 5328 C 516.29 0.377561 -1.58156 0
M  V30 5329 O 517.474 0.28978 -1.86259 0
M  V30 5330 C 514.601 0.133215 -3.38438 0
M  V30 5331 C 513.647 -0.791484 -4.19092 0
M  V30 5332 S 514.48 -2.27925 -4.84572 0
M  V30 5333 C 515.636 -1.56462 -6.06028 0
M  V30 5334 H 515.869 -1.46342 -2.58788 0
M  V30 5335 H 513.402 -0.861148 -1.28155 0
M  V30 5336 H 515.36 0.545746 -4.06856 0
M  V30 5337 H 514.021 0.980124 -2.98416 0
M  V30 5338 H 513.214 -0.230039 -5.03475 0
M  V30 5339 H 512.816 -1.14326 -3.56098 0
M  V30 5340 H 515.108 -0.862539 -6.71987 0
M  V30 5341 H 516.051 -2.38583 -6.66696 0
M  V30 5342 H 516.459 -1.05313 -5.5459 0
M  V30 5343 N 515.857 1.33968 -0.830081 0
M  V30 5344 C 516.807 2.26845 -0.229242 0
M  V30 5345 C 517.791 1.48862 0.610659 0
M  V30 5346 O 518.983 1.70808 0.464067 0
M  V30 5347 C 516.112 3.3798 0.602057 0
M  V30 5348 C 515.198 4.23369 -0.248866 0
M  V30 5349 N 515.589 4.88182 -1.32334 0
M  V30 5350 C 513.887 4.45987 -0.0344077 0
M  V30 5351 C 514.588 5.51671 -1.84482 0
M  V30 5352 N 513.564 5.31348 -1.14762 0
M  V30 5353 H 517.366 2.74464 -1.05104 0
M  V30 5354 H 514.88 1.4777 -0.673623 0
M  V30 5355 H 516.877 4.03494 1.04873 0
M  V30 5356 H 515.537 2.9191 1.42193 0
M  V30 5357 H 516.548 4.88988 -1.70619 0
M  V30 5358 H 513.225 4.10658 0.752727 0
M  V30 5359 H 514.615 6.13308 -2.74413 0
M  V30 5360 N 517.335 0.585699 1.46312 0
M  V30 5361 C 518.245 -0.148236 2.34131 0
M  V30 5362 C 519.261 -0.882972 1.49932 0
M  V30 5363 O 520.437 -0.845484 1.82794 0
M  V30 5364 C 517.502 -1.14714 3.27172 0
M  V30 5365 C 516.563 -0.416746 4.27272 0
M  V30 5366 C 515.796 -1.36806 5.15868 0
M  V30 5367 O 516.019 -2.60475 5.07454 0
M  V30 5368 O 514.953 -0.877018 5.95476 0
M  V30 5369 H 518.779 0.572882 2.98248 0
M  V30 5370 H 516.364 0.346082 1.45336 0
M  V30 5371 H 518.246 -1.72303 3.84564 0
M  V30 5372 H 516.921 -1.84967 2.65648 0
M  V30 5373 H 515.828 0.201061 3.73559 0
M  V30 5374 H 517.161 0.244872 4.9159 0
M  V30 5375 N 518.813 -1.54241 0.323641 0
M  V30 5376 C 520.062 -1.9975 -0.279806 0
M  V30 5377 C 520.375 -1.2156 -1.5324 0
M  V30 5378 O 521.581 -1.57447 -2.21185 0
M  V30 5379 C 520.037 -3.55686 -0.549115 0
M  V30 5380 C 519.645 -4.4271 0.686432 0
M  V30 5381 C 521.389 -4.09663 -1.11251 0
M  V30 5382 C 519.296 -5.90119 0.389022 0
M  V30 5383 H 518.226 -0.746177 -0.10833 0
M  V30 5384 H 520.877 -1.78248 0.435877 0
M  V30 5385 H 519.259 -3.73176 -1.32499 0
M  V30 5386 H 520.433 -4.36996 1.46188 0
M  V30 5387 H 518.748 -3.99623 1.17005 0
M  V30 5388 H 521.345 -5.17386 -1.34965 0
M  V30 5389 H 521.688 -3.61651 -2.06191 0
M  V30 5390 H 522.221 -3.95806 -0.39782 0
M  V30 5391 H 518.96 -6.42326 1.30759 0
M  V30 5392 H 518.48 -5.98785 -0.348722 0
M  V30 5393 H 520.159 -6.47 -0.0011164 0
M  V30 5394 N 520.291 -0.0518155 -1.57515 0
M  V30 5395 C 521.254 0.907547 -2.10467 0
M  V30 5396 C 522.254 1.23947 -1.02439 0
M  V30 5397 O 523.444 1.17604 -1.2851 0
M  V30 5398 C 520.576 2.21723 -2.58944 0
M  V30 5399 H 521.769 0.44851 -2.96527 0
M  V30 5400 H 519.322 0.196598 -1.55059 0
M  V30 5401 H 520.057 2.72206 -1.76279 0
M  V30 5402 H 519.842 1.98935 -3.37886 0
M  V30 5403 H 521.332 2.90441 -3.00056 0
M  V30 5404 N 521.769 1.56035 0.221574 0
M  V30 5405 C 523.046 1.69837 0.970301 0
M  V30 5406 C 523.426 0.599065 2.02421 0
M  V30 5407 O 522.774 -0.393929 2.25079 0
M  V30 5408 C 522.984 3.11148 1.58076 0
M  V30 5409 C 524.332 3.70555 2.07302 0
M  V30 5410 O 525.356 3.14109 1.6797 0
M  V30 5411 O 524.215 4.69562 2.79596 0
M  V30 5412 H 521.309 0.691727 0.453257 0
M  V30 5413 H 523.855 1.68353 0.213358 0
M  V30 5414 H 522.627 3.82617 0.819759 0
M  V30 5415 H 522.25 3.16749 2.40324 0
M  V30 5416 N 523.247 -0.488276 1.49845 0
M  V30 5417 C 524.472 -1.26997 1.63971 0
M  V30 5418 C 524.897 -1.85427 0.315994 0
M  V30 5419 O 524.255 -1.66475 -0.718032 0
M  V30 5420 C 524.303 -2.36689 2.72049 0
M  V30 5421 O 523.407 -3.40882 2.32107 0
M  V30 5422 H 522.748 -0.374376 0.548396 0
M  V30 5423 H 525.278 -0.583104 1.96115 0
M  V30 5424 H 525.288 -2.82262 2.94605 0
M  V30 5425 H 523.963 -1.93529 3.68129 0
M  V30 5426 H 522.54 -3.01139 2.19931 0
M  V30 5427 N 524.725 -1.39134 -0.740242 0
M  V30 5428 C 525.95 -1.39518 -1.53459 0
M  V30 5429 C 526.375 0.00968883 -1.88098 0
M  V30 5430 O 525.733 0.995312 -1.51536 0
M  V30 5431 C 525.781 -2.26981 -2.802 0
M  V30 5432 O 524.885 -1.69609 -3.75908 0
M  V30 5433 H 524.226 -0.475328 -0.463637 0
M  V30 5434 H 526.756 -1.83064 -0.913717 0
M  V30 5435 H 526.766 -2.41309 -3.28989 0
M  V30 5436 H 525.441 -3.29081 -2.5432 0
M  V30 5437 H 524.018 -1.64495 -3.34658 0
M  V30 5438 N 526.204 0.969867 -1.24223 0
M  V30 5439 C 527.151 2.06407 -1.0327 0
M  V30 5440 C 528.121 1.66014 0.0533 0
M  V30 5441 O 529.306 1.90533 -0.100896 0
M  V30 5442 C 526.446 3.3909 -0.641262 0
M  V30 5443 C 525.559 3.9269 -1.80051 0
M  V30 5444 C 524.694 5.13631 -1.35486 0
M  V30 5445 C 523.733 5.59423 -2.48419 0
M  V30 5446 N 522.87 6.71586 -2.04737 0
M  V30 5447 H 527.71 2.23663 -1.96923 0
M  V30 5448 H 525.247 1.09624 -0.980862 0
M  V30 5449 H 527.205 4.15323 -0.395351 0
M  V30 5450 H 525.835 3.21765 0.258269 0
M  V30 5451 H 524.887 3.13116 -2.16014 0
M  V30 5452 H 526.199 4.22636 -2.64916 0
M  V30 5453 H 525.353 5.97231 -1.0677 0
M  V30 5454 H 524.092 4.85364 -0.476722 0
M  V30 5455 H 523.097 4.74398 -2.77897 0
M  V30 5456 H 524.322 5.89705 -3.36786 0
M  V30 5457 H 522.268 6.45058 -1.19318 0
M  V30 5458 H 522.185 7.0097 -2.83156 0
M  V30 5459 H 523.453 7.58633 -1.79154 0
M  V30 5460 N 527.682 1.05563 1.17022 0
M  V30 5461 C 528.629 0.659893 2.21165 0
M  V30 5462 C 529.599 -0.339813 1.62587 0
M  V30 5463 O 530.784 -0.230378 1.89404 0
M  V30 5464 C 527.924 0.0447297 3.45071 0
M  V30 5465 C 527.037 1.09372 4.17926 0
M  V30 5466 C 526.172 0.445481 5.29329 0
M  V30 5467 C 525.211 1.47852 5.93975 0
M  V30 5468 N 524.348 0.854172 6.96885 0
M  V30 5469 H 529.188 1.55243 2.54369 0
M  V30 5470 H 526.725 0.776336 1.24946 0
M  V30 5471 H 528.683 -0.329404 4.15898 0
M  V30 5472 H 527.313 -0.811244 3.1244 0
M  V30 5473 H 526.365 1.58564 3.45777 0
M  V30 5474 H 527.677 1.87773 4.62107 0
M  V30 5475 H 526.831 0.0179688 6.06697 0
M  V30 5476 H 525.57 -0.370481 4.86291 0
M  V30 5477 H 524.575 1.91601 5.15334 0
M  V30 5478 H 525.8 2.29645 6.39093 0
M  V30 5479 H 523.746 0.0587882 6.55974 0
M  V30 5480 H 523.663 1.57567 7.39397 0
M  V30 5481 H 524.931 0.451559 7.78191 0
M  V30 5482 N 529.16 -1.33526 0.837174 0
M  V30 5483 C 530.409 -1.97098 0.428387 0
M  V30 5484 C 530.722 -1.67062 -1.01734 0
M  V30 5485 O 531.928 -2.24235 -1.53072 0
M  V30 5486 C 530.384 -3.52725 0.715075 0
M  V30 5487 C 529.992 -3.9164 2.17537 0
M  V30 5488 C 531.736 -4.22857 0.373154 0
M  V30 5489 C 529.643 -5.40237 2.40619 0
M  V30 5490 H 528.573 -0.737589 0.156455 0
M  V30 5491 H 531.224 -1.52169 1.02552 0
M  V30 5492 H 529.606 -3.95971 0.0475904 0
M  V30 5493 H 530.78 -3.59456 2.88319 0
M  V30 5494 H 529.095 -3.34485 2.4801 0
M  V30 5495 H 531.692 -5.32133 0.523264 0
M  V30 5496 H 532.035 -4.10647 -0.683708 0
M  V30 5497 H 532.568 -3.85135 0.995801 0
M  V30 5498 H 529.307 -5.57449 3.44864 0
M  V30 5499 H 528.827 -5.73887 1.74396 0
M  V30 5500 H 530.506 -6.07102 2.23688 0
M  V30 5501 N 530.638 -0.59345 -1.46 0
M  V30 5502 C 531.601 0.123538 -2.28867 0
M  V30 5503 C 532.601 0.808628 -1.38989 0
M  V30 5504 O 533.791 0.658945 -1.61256 0
M  V30 5505 C 530.923 1.1847 -3.19653 0
M  V30 5506 H 532.116 -0.604843 -2.93737 0
M  V30 5507 H 529.669 -0.351875 -1.52288 0
M  V30 5508 H 530.404 1.94431 -2.59552 0
M  V30 5509 H 530.189 0.69783 -3.8584 0
M  V30 5510 H 531.679 1.68726 -3.81997 0
M  V30 5511 N 532.116 1.54067 -0.331816 0
M  V30 5512 C 533.393 1.92915 0.322955 0
M  V30 5513 C 533.773 1.26225 1.69205 0
M  V30 5514 O 533.121 0.408919 2.24811 0
M  V30 5515 C 533.331 3.46619 0.406946 0
M  V30 5516 C 534.679 4.19386 0.663339 0
M  V30 5517 O 535.703 3.5282 0.489536 0
M  V30 5518 O 534.562 5.37288 0.999193 0
M  V30 5519 H 531.656 0.805808 0.186016 0
M  V30 5520 H 534.202 1.65342 -0.382135 0
M  V30 5521 H 532.974 3.87354 -0.554287 0
M  V30 5522 H 532.597 3.80324 1.15929 0
M  V30 5523 N 533.594 0.0601682 1.57485 0
M  V30 5524 C 534.843 -0.611101 1.9222 0
M  V30 5525 C 535.156 -1.71469 0.941159 0
M  V30 5526 O 536.362 -2.44473 1.18089 0
M  V30 5527 C 534.818 -1.13832 3.41424 0
M  V30 5528 C 534.426 -0.0663596 4.47951 0
M  V30 5529 C 536.17 -1.78432 3.85178 0
M  V30 5530 C 534.077 -0.606965 5.88277 0
M  V30 5531 H 533.007 -0.232033 0.71741 0
M  V30 5532 H 535.658 0.130518 1.83035 0
M  V30 5533 H 534.04 -1.93254 3.45643 0
M  V30 5534 H 535.214 0.707682 4.55333 0
M  V30 5535 H 533.529 0.482715 4.13593 0
M  V30 5536 H 536.126 -2.1989 4.87394 0
M  V30 5537 H 536.469 -2.63966 3.21913 0
M  V30 5538 H 537.002 -1.05651 3.83514 0
M  V30 5539 H 533.741 0.21095 6.5516 0
M  V30 5540 H 533.261 -1.34879 5.84438 0
M  V30 5541 H 534.94 -1.08704 6.37803 0
M  V30 5542 N 535.072 -1.5615 -0.213296 0
M  V30 5543 C 536.321 -1.78743 -0.93455 0
M  V30 5544 C 536.634 -0.630199 -1.8517 0
M  V30 5545 O 537.84 -0.739966 -2.61222 0
M  V30 5546 C 536.296 -3.16571 -1.71203 0
M  V30 5547 C 535.904 -4.40043 -0.840617 0
M  V30 5548 C 537.648 -3.48485 -2.42401 0
M  V30 5549 C 535.555 -5.68895 -1.61592 0
M  V30 5550 H 534.485 -0.666426 -0.352692 0
M  V30 5551 H 537.136 -1.82532 -0.188227 0
M  V30 5552 H 535.518 -3.06981 -2.50157 0
M  V30 5553 H 536.692 -4.6071 -0.0910326 0
M  V30 5554 H 535.007 -4.15706 -0.240365 0
M  V30 5555 H 537.604 -4.41983 -3.00924 0
M  V30 5556 H 537.947 -2.71371 -3.15695 0
M  V30 5557 H 538.48 -3.59442 -1.7043 0
M  V30 5558 H 535.219 -6.48925 -0.926106 0
M  V30 5559 H 534.739 -5.52275 -2.33991 0
M  V30 5560 H 536.418 -6.09365 -2.17447 0
M  V30 5561 N 536.55 0.480323 -1.50102 0
M  V30 5562 C 537.775 1.26126 -1.64642 0
M  V30 5563 C 538.2 1.85257 -0.325823 0
M  V30 5564 O 537.558 1.66854 0.709194 0
M  V30 5565 C 537.606 2.35243 -2.73301 0
M  V30 5566 O 536.71 3.39646 -2.33911 0
M  V30 5567 H 536.051 0.371463 -0.550374 0
M  V30 5568 H 538.581 0.572696 -1.96421 0
M  V30 5569 H 538.591 2.80695 -2.96098 0
M  V30 5570 H 537.266 1.91574 -3.6915 0
M  V30 5571 H 535.843 2.99969 -2.21525 0
M  V30 5572 N 538.028 1.39524 0.732853 0
M  V30 5573 C 539.274 1.37068 1.49467 0
M  V30 5574 C 539.607 -0.0327166 1.94172 0
M  V30 5575 O 538.882 -0.998071 1.66939 0
M  V30 5576 C 539.165 2.34494 2.73285 0
M  V30 5577 C 539.018 3.83784 2.34585 0
M  V30 5578 C 540.337 2.29717 3.75391 0
M  V30 5579 H 537.456 0.499206 0.542183 0
M  V30 5580 H 540.098 1.70532 0.837783 0
M  V30 5581 H 538.248 2.06087 3.29333 0
M  V30 5582 H 539.92 4.22949 1.84151 0
M  V30 5583 H 538.163 4.00455 1.66787 0
M  V30 5584 H 538.834 4.47444 3.23262 0
M  V30 5585 H 541.31 2.54839 3.28932 0
M  V30 5586 H 540.186 2.99962 4.59689 0
M  V30 5587 H 540.447 1.30291 4.22465 0
M  V30 5588 N 539.506 -0.963266 1.24736 0
M  V30 5589 C 540.755 -1.70115 1.08369 0
M  V30 5590 C 541.068 -1.91939 -0.376688 0
M  V30 5591 O 542.274 -2.6334 -0.660624 0
M  V30 5592 C 540.73 -3.06218 1.89099 0
M  V30 5593 C 540.338 -2.92221 3.39574 0
M  V30 5594 C 542.082 -3.83848 1.81275 0
M  V30 5595 C 539.989 -4.23662 4.12631 0
M  V30 5596 H 538.919 -0.637944 0.401924 0
M  V30 5597 H 541.57 -1.07304 1.48856 0
M  V30 5598 H 539.952 -3.69884 1.41429 0
M  V30 5599 H 541.126 -2.37541 3.94856 0
M  V30 5600 H 539.441 -2.28054 3.48397 0
M  V30 5601 H 542.038 -4.81188 2.33158 0
M  V30 5602 H 542.381 -4.08949 0.778895 0
M  V30 5603 H 542.914 -3.26918 2.26649 0
M  V30 5604 H 539.653 -4.03753 5.16395 0
M  V30 5605 H 539.173 -4.78141 3.62135 0
M  V30 5606 H 540.852 -4.92256 4.19873 0
M  V30 5607 N 540.985 -1.06182 -1.16461 0
M  V30 5608 C 542.262 -0.691364 -1.82974 0
M  V30 5609 C 542.642 0.827377 -1.9421 0
M  V30 5610 O 541.99 1.73723 -1.48434 0
M  V30 5611 C 542.2 -1.39199 -3.20038 0
M  V30 5612 C 543.548 -1.53647 -3.95825 0
M  V30 5613 O 544.572 -1.35181 -3.29552 0
M  V30 5614 O 543.431 -1.83932 -5.14618 0
M  V30 5615 H 540.525 -0.244605 -0.789998 0
M  V30 5616 H 543.071 -1.16203 -1.23673 0
M  V30 5617 H 541.843 -2.42766 -3.06888 0
M  V30 5618 H 541.466 -0.911335 -3.87015 0
M  V30 5619 N 542.463 1.3308 -0.844243 0
M  V30 5620 C 543.711 1.97215 -0.441676 0
M  V30 5621 C 544.032 1.67185 1.0037 0
M  V30 5622 O 543.302 0.973588 1.69994 0
M  V30 5623 H 541.882 0.72959 -0.160335 0
M  V30 5624 H 544.544 1.62348 -1.07838 0
M  V30 5625 H 543.64 3.06698 -0.57815 0
M  V30 5626 N 543.941 0.601185 1.45683 0
M  V30 5627 C 545.19 0.0914953 2.01492 0
M  V30 5628 C 545.503 -1.28331 1.47616 0
M  V30 5629 O 546.709 -1.88537 1.95362 0
M  V30 5630 C 545.165 0.11291 3.59723 0
M  V30 5631 C 544.773 1.48717 4.22596 0
M  V30 5632 C 546.517 -0.341871 4.23121 0
M  V30 5633 C 544.424 1.46531 5.7296 0
M  V30 5634 H 543.354 0.0304365 0.753385 0
M  V30 5635 H 546.005 0.755568 1.67223 0
M  V30 5636 H 544.387 -0.617692 3.91153 0
M  V30 5637 H 545.561 2.23897 4.02749 0
M  V30 5638 H 543.876 1.88351 3.71366 0
M  V30 5639 H 546.473 -0.377304 5.33367 0
M  V30 5640 H 546.816 -1.36325 3.93346 0
M  V30 5641 H 547.349 0.335256 3.96385 0
M  V30 5642 H 544.088 2.46408 6.07423 0
M  V30 5643 H 543.608 0.755997 5.95017 0
M  V30 5644 H 545.287 1.18618 6.36034 0
M  V30 5645 N 545.419 -1.53889 0.339982 0
M  V30 5646 C 546.382 -2.23547 -0.50592 0
M  V30 5647 C 547.382 -1.23445 -1.03044 0
M  V30 5648 O 548.572 -1.47909 -0.920253 0
M  V30 5649 C 545.704 -2.95234 -1.7044 0
M  V30 5650 H 546.897 -2.99722 0.103247 0
M  V30 5651 H 544.45 -1.56033 0.0912804 0
M  V30 5652 H 545.185 -2.23236 -2.35236 0
M  V30 5653 H 544.97 -3.68654 -1.33553 0
M  V30 5654 H 546.46 -3.48258 -2.30447 0
M  V30 5655 N 546.897 -0.0685191 -1.57451 0
M  V30 5656 C 548.144 0.601348 -1.93365 0
M  V30 5657 C 548.472 1.69816 -0.948294 0
M  V30 5658 O 547.727 1.95666 0.0366199 0
M  V30 5659 C 548.026 1.22051 -3.35914 0
M  V30 5660 C 547.692 0.250165 -4.50205 0
M  V30 5661 C 546.354 -0.0167954 -4.81197 0
M  V30 5662 C 548.706 -0.413867 -5.19554 0
M  V30 5663 C 546.034 -0.95493 -5.78876 0
M  V30 5664 C 548.386 -1.3403 -6.18238 0
M  V30 5665 C 547.05 -1.61576 -6.47649 0
M  V30 5666 H 546.32 0.220049 -0.707573 0
M  V30 5667 H 548.967 -0.138697 -1.90997 0
M  V30 5668 H 547.272 2.03622 -3.34732 0
M  V30 5669 H 548.969 1.74605 -3.6099 0
M  V30 5670 H 545.559 0.468421 -4.26033 0
M  V30 5671 H 549.743 -0.220733 -4.95809 0
M  V30 5672 H 544.999 -1.17563 -5.99991 0
M  V30 5673 H 549.173 -1.86081 -6.71079 0
M  V30 5674 H 546.8 -2.34431 -7.2315 0
M  V30 5675 N 548.375 1.56261 0.205012 0
M  V30 5676 C 549.307 1.90266 1.27795 0
M  V30 5677 C 550.32 0.792397 1.42214 0
M  V30 5678 O 551.509 1.07077 1.42817 0
M  V30 5679 C 548.609 2.11074 2.65143 0
M  V30 5680 C 547.782 3.42176 2.7246 0
M  V30 5681 C 546.841 3.52216 3.90936 0
M  V30 5682 O 545.867 4.25119 3.78501 0
M  V30 5683 N 547.069 2.84573 5.05963 0
M  V30 5684 H 549.834 2.82896 0.989434 0
M  V30 5685 H 547.395 1.57008 0.394981 0
M  V30 5686 H 549.387 2.15089 3.4281 0
M  V30 5687 H 547.957 1.2499 2.86524 0
M  V30 5688 H 547.177 3.50116 1.81142 0
M  V30 5689 H 548.465 4.28509 2.74331 0
M  V30 5690 H 547.863 2.25152 5.18963 0
M  V30 5691 H 546.42 2.94228 5.81613 0
M  V30 5692 N 549.853 -0.472356 1.50355 0
M  V30 5693 C 551.081 -1.24784 1.65035 0
M  V30 5694 C 551.496 -1.85837 0.333176 0
M  V30 5695 O 550.853 -1.69168 -0.68472 0
M  V30 5696 C 550.904 -2.35747 2.74054 0
M  V30 5697 O 550.625 -1.77197 4.00665 0
M  V30 5698 C 552.126 -3.26645 2.99696 0
M  V30 5699 H 549.346 -0.377432 0.554785 0
M  V30 5700 H 551.89 -0.563962 1.9657 0
M  V30 5701 H 550.045 -2.99912 2.45217 0
M  V30 5702 H 550.459 -2.5026 4.60945 0
M  V30 5703 H 551.933 -4.00718 3.79644 0
M  V30 5704 H 552.41 -3.8535 2.10718 0
M  V30 5705 H 553.016 -2.68218 3.3006 0
M  V30 5706 N 551.331 -1.39911 -0.725443 0
M  V30 5707 C 552.279 -1.39552 -1.86086 0
M  V30 5708 C 553.273 -0.277334 -1.67114 0
M  V30 5709 O 554.479 -0.447865 -1.74339 0
M  V30 5710 H 550.854 -0.435993 -0.612711 0
M  V30 5711 H 552.825 -2.35305 -1.83505 0
M  V30 5712 C 551.574 -1.26529 -3.2386 0
M  V30 5713 H 550.897 -2.11845 -3.3906 0
M  V30 5714 H 552.337 -1.30336 -4.03471 0
M  V30 5715 C 550.796 0.0254168 -3.3689 0
M  V30 5716 O 551.326 0.992048 -3.89257 0
M  V30 5717 N 549.532 0.0916528 -2.90455 0
M  V30 5718 H 549.079 -0.695675 -2.48028 0
M  V30 5719 H 549.037 0.954745 -2.99553 0
M  V30 5720 N 552.809 0.956637 -1.25245 0
M  V30 5721 C 554.058 1.69537 -1.0927 0
M  V30 5722 C 554.371 1.92136 0.366503 0
M  V30 5723 O 555.577 2.63687 0.64665 0
M  V30 5724 C 554.033 3.05211 -1.9072 0
M  V30 5725 C 553.641 2.90416 -3.41119 0
M  V30 5726 C 555.385 3.82882 -1.83308 0
M  V30 5727 C 553.292 4.21468 -4.14872 0
M  V30 5728 H 552.222 0.635804 -0.405302 0
M  V30 5729 H 554.873 1.06513 -1.49423 0
M  V30 5730 H 553.255 3.69128 -1.43389 0
M  V30 5731 H 554.429 2.35444 -3.9611 0
M  V30 5732 H 552.744 2.26203 -3.49602 0
M  V30 5733 H 555.341 4.79944 -2.35706 0
M  V30 5734 H 555.684 4.0853 -0.800572 0
M  V30 5735 H 556.217 3.25711 -2.28379 0
M  V30 5736 H 552.956 4.01009 -5.18529 0
M  V30 5737 H 552.476 4.76213 -3.64665 0
M  V30 5738 H 554.155 4.90022 -4.22478 0
M  V30 5739 N 554.287 1.06798 1.15896 0
M  V30 5740 C 555.217 0.704677 2.22613 0
M  V30 5741 C 556.198 -0.305252 1.67339 0
M  V30 5742 O 557.383 -0.179247 1.93371 0
M  V30 5743 C 554.513 0.0957325 3.47168 0
M  V30 5744 C 553.467 1.0322 4.15367 0
M  V30 5745 C 552.793 0.286293 5.33933 0
M  V30 5746 C 554.093 2.36341 4.65768 0
M  V30 5747 H 555.787 1.59688 2.53259 0
M  V30 5748 H 553.333 0.769257 1.21731 0
M  V30 5749 H 555.286 -0.170333 4.21056 0
M  V30 5750 H 554.01 -0.831516 3.15838 0
M  V30 5751 H 552.669 1.28309 3.43413 0
M  V30 5752 H 552.317 -0.644237 4.98857 0
M  V30 5753 H 552.017 0.910436 5.80504 0
M  V30 5754 H 553.541 0.0278938 6.10594 0
M  V30 5755 H 554.955 2.1561 5.31211 0
M  V30 5756 H 553.352 2.94299 5.2298 0
M  V30 5757 H 554.422 2.99047 3.81705 0
M  V30 5758 N 555.766 -1.3263 0.851289 0
M  V30 5759 C 556.729 -2.27247 0.298541 0
M  V30 5760 C 557.729 -1.51467 -0.539847 0
M  V30 5761 O 558.919 -1.7061 -0.351843 0
M  V30 5762 C 556.051 -3.35964 -0.578004 0
M  V30 5763 H 557.244 -2.7765 1.13359 0
M  V30 5764 H 554.797 -1.43245 0.625354 0
M  V30 5765 H 555.532 -2.90823 -1.435 0
M  V30 5766 H 555.317 -3.92094 0.0220539 0
M  V30 5767 H 556.807 -4.06472 -0.957626 0
M  V30 5768 N 557.244 -0.608902 -1.45362 0
M  V30 5769 C 558.174 0.0964526 -2.33301 0
M  V30 5770 C 559.155 0.857444 -1.46908 0
M  V30 5771 O 560.34 0.827735 -1.75676 0
M  V30 5772 C 557.47 1.09354 -3.29635 0
M  V30 5773 C 556.424 0.445676 -4.25673 0
M  V30 5774 C 555.75 1.5511 -5.11708 0
M  V30 5775 C 557.05 -0.633972 -5.18438 0
M  V30 5776 H 558.744 -0.637829 -2.92527 0
M  V30 5777 H 556.29 -0.308178 -1.40664 0
M  V30 5778 H 558.243 1.59556 -3.90025 0
M  V30 5779 H 556.967 1.85843 -2.6857 0
M  V30 5780 H 555.626 -0.0354897 -3.66583 0
M  V30 5781 H 555.274 2.30631 -4.4701 0
M  V30 5782 H 554.974 1.12311 -5.76767 0
M  V30 5783 H 556.498 2.05537 -5.74967 0
M  V30 5784 H 557.912 -0.215974 -5.72893 0
M  V30 5785 H 556.309 -0.983789 -5.91981 0
M  V30 5786 H 557.379 -1.51005 -4.60788 0
M  V30 5787 N 558.722 1.53707 -0.348139 0
M  V30 5788 C 559.67 2.26671 0.521808 0
M  V30 5789 C 560.664 1.28988 1.09811 0
M  V30 5790 O 561.87 1.4668 1.04332 0
M  V30 5791 H 558.245 0.728387 0.186968 0
M  V30 5792 H 560.216 2.98176 -0.115563 0
M  V30 5793 C 558.965 3.05591 1.6586 0
M  V30 5794 H 558.288 3.80589 1.22443 0
M  V30 5795 H 559.728 3.59851 2.24239 0
M  V30 5796 C 558.187 2.15366 2.59073 0
M  V30 5797 O 558.717 1.7528 3.61441 0
M  V30 5798 N 556.923 1.80352 2.27863 0
M  V30 5799 H 556.47 2.13149 1.44656 0
M  V30 5800 H 556.428 1.20268 2.90488 0
M  V30 5801 N 560.2 0.0768682 1.57412 0
M  V30 5802 C 561.163 -0.873949 2.11884 0
M  V30 5803 C 562.163 -1.22301 1.04398 0
M  V30 5804 O 563.353 -1.15545 1.30365 0
M  V30 5805 C 560.485 -2.17575 2.62438 0
M  V30 5806 H 561.678 -0.401278 2.97203 0
M  V30 5807 H 559.231 -0.171904 1.55352 0
M  V30 5808 H 559.966 -2.69368 1.80587 0
M  V30 5809 H 559.751 -1.93534 3.41009 0
M  V30 5810 H 561.241 -2.85631 3.04639 0
M  V30 5811 N 561.678 -1.56367 -0.196722 0
M  V30 5812 C 562.641 -1.93561 -1.22746 0
M  V30 5813 C 563.641 -0.816566 -1.38524 0
M  V30 5814 O 564.831 -1.084 -1.36363 0
M  V30 5815 C 561.963 -2.20823 -2.59712 0
M  V30 5816 H 563.156 -2.85774 -0.909586 0
M  V30 5817 H 560.709 -1.50032 -0.438174 0
M  V30 5818 H 561.444 -1.31243 -2.96557 0
M  V30 5819 H 561.229 -3.02368 -2.49632 0
M  V30 5820 H 562.719 -2.50608 -3.34044 0
M  V30 5821 N 563.156 0.464375 -1.50603 0
M  V30 5822 C 564.402 1.21776 -1.62168 0
M  V30 5823 C 564.735 1.91476 -0.324154 0
M  V30 5824 O 564.01 1.8242 0.674782 0
M  V30 5825 C 564.293 2.25614 -2.80661 0
M  V30 5826 C 564.146 1.60175 -4.20314 0
M  V30 5827 C 565.465 3.26862 -2.94702 0
M  V30 5828 H 562.584 0.44137 -0.590222 0
M  V30 5829 H 565.226 0.510623 -1.8301 0
M  V30 5830 H 563.376 2.85923 -2.63021 0
M  V30 5831 H 565.048 1.03411 -4.4956 0
M  V30 5832 H 563.291 0.904697 -4.24261 0
M  V30 5833 H 563.962 2.35665 -4.99165 0
M  V30 5834 H 566.438 2.76582 -3.10872 0
M  V30 5835 H 565.314 3.96839 -3.79223 0
M  V30 5836 H 565.575 3.91382 -2.05603 0
M  V30 5837 N 564.634 1.40294 0.718013 0
M  V30 5838 C 565.544 1.42678 1.86226 0
M  V30 5839 C 566.56 0.319655 1.71039 0
M  V30 5840 O 567.736 0.563852 1.93346 0
M  V30 5841 C 564.801 1.2852 3.21999 0
M  V30 5842 C 563.862 2.49354 3.49458 0
M  V30 5843 C 563.095 2.35863 4.78753 0
M  V30 5844 O 563.318 1.37114 5.53675 0
M  V30 5845 O 562.252 3.25189 5.06494 0
M  V30 5846 H 566.078 2.39167 1.87171 0
M  V30 5847 H 563.663 1.2159 0.868112 0
M  V30 5848 H 565.545 1.22824 4.03103 0
M  V30 5849 H 564.22 0.351359 3.21787 0
M  V30 5850 H 563.127 2.60628 2.68373 0
M  V30 5851 H 564.46 3.41491 3.54464 0
M  V30 5852 N 566.112 -0.949982 1.2575 0
M  V30 5853 C 567.075 -2.02894 1.06615 0
M  V30 5854 C 568.075 -1.60791 0.0173905 0
M  V30 5855 O 569.265 -1.72249 0.260003 0
M  V30 5856 C 566.397 -3.35219 0.619751 0
M  V30 5857 H 567.59 -2.21302 2.02399 0
M  V30 5858 H 565.143 -1.12772 1.08223 0
M  V30 5859 H 565.878 -3.22508 -0.340486 0
M  V30 5860 H 565.663 -3.67129 1.37692 0
M  V30 5861 H 567.153 -4.14505 0.507443 0
M  V30 5862 N 567.59 -1.07411 -1.15328 0
M  V30 5863 C 568.553 -0.698914 -2.18284 0
M  V30 5864 C 569.553 0.261149 -1.58665 0
M  V30 5865 O 570.743 0.0420277 -1.74149 0
M  V30 5866 C 567.875 -0.0302427 -3.40887 0
M  V30 5867 H 569.068 -1.61045 -2.52991 0
M  V30 5868 H 566.621 -0.870724 -1.298 0
M  V30 5869 H 567.356 0.893505 -3.11748 0
M  V30 5870 H 567.141 -0.720759 -3.85419 0
M  V30 5871 H 568.631 0.21759 -4.17033 0
M  V30 5872 N 569.068 1.32177 -0.85831 0
M  V30 5873 C 570.484 1.49873 -0.548656 0
M  V30 5874 C 570.684 1.79278 0.919874 0
M  V30 5875 O 569.74 1.86451 1.70271 0
M  V30 5876 C 571.053 2.64043 -1.4388 0
M  V30 5877 C 572.601 2.77928 -1.43961 0
M  V30 5878 C 573.076 3.95182 -2.31506 0
M  V30 5879 N 574.567 4.0245 -2.29321 0
M  V30 5880 C 575.302 4.9242 -2.93786 0
M  V30 5881 N 574.798 5.87373 -3.67376 0
M  V30 5882 N 576.591 4.85572 -2.83155 0
M  V30 5883 H 568.742 1.11357 -1.80868 0
M  V30 5884 H 571.005 0.549175 -0.772729 0
M  V30 5885 H 570.711 2.49055 -2.48324 0
M  V30 5886 H 570.585 3.59912 -1.12885 0
M  V30 5887 H 572.972 2.92338 -0.402813 0
M  V30 5888 H 573.053 1.82762 -1.78974 0
M  V30 5889 H 572.697 3.81531 -3.35256 0
M  V30 5890 H 572.627 4.89633 -1.93823 0
M  V30 5891 H 575.118 3.34507 -1.75822 0
M  V30 5892 H 575.431 6.52728 -4.13722 0
M  V30 5893 H 573.776 5.87388 -3.71484 0
M  V30 5894 H 576.967 4.10363 -2.25211 0
M  V30 5895 H 577.14 5.55486 -3.33676 0
M  V30 5896 N 570.547 0.616602 1.45037 0
M  V30 5897 C 571.51 -0.0871112 2.29034 0
M  V30 5898 C 572.51 -0.786414 1.40258 0
M  V30 5899 O 573.7 -0.633207 1.62284 0
M  V30 5900 C 570.832 -1.13369 3.21497 0
M  V30 5901 H 572.025 0.651497 2.92738 0
M  V30 5902 H 569.578 0.376058 1.51709 0
M  V30 5903 H 570.313 -1.90277 2.62612 0
M  V30 5904 H 570.098 -0.636358 3.86902 0
M  V30 5905 H 571.588 -1.62627 3.84633 0
M  V30 5906 N 572.025 -1.5352 0.356285 0
M  V30 5907 C 573.273 -2.00719 -0.235837 0
M  V30 5908 C 573.594 -1.24551 -1.5004 0
M  V30 5909 O 572.864 -0.356185 -1.92635 0
M  V30 5910 H 571.444 -0.741542 -0.0901366 0
M  V30 5911 H 574.106 -1.88887 0.480378 0
M  V30 5912 H 573.202 -3.08551 -0.469357 0
M  V30 5913 N 573.503 -0.0852151 -1.57369 0
M  V30 5914 C 574.413 0.891712 -2.16992 0
M  V30 5915 C 575.429 1.3174 -1.13669 0
M  V30 5916 O 576.605 1.38735 -1.45995 0
M  V30 5917 C 573.67 2.13635 -2.73059 0
M  V30 5918 C 572.731 1.7658 -3.91303 0
M  V30 5919 C 571.964 2.95111 -4.44686 0
M  V30 5920 O 572.187 4.09539 -3.97032 0
M  V30 5921 O 571.121 2.74149 -5.35841 0
M  V30 5922 H 574.947 0.414477 -3.00858 0
M  V30 5923 H 572.532 0.138598 -1.48756 0
M  V30 5924 H 574.414 2.86595 -3.08935 0
M  V30 5925 H 573.089 2.6043 -1.92244 0
M  V30 5926 H 571.996 1.00831 -3.60255 0
M  V30 5927 H 573.329 1.34557 -4.7345 0
M  V30 5928 N 574.981 1.5647 0.188427 0
M  V30 5929 C 575.913 1.91611 1.25769 0
M  V30 5930 C 576.926 0.807436 1.41366 0
M  V30 5931 O 578.115 1.08586 1.41673 0
M  V30 5932 C 575.215 2.13874 2.6289 0
M  V30 5933 C 574.388 3.45047 2.68815 0
M  V30 5934 C 573.447 3.56342 3.87178 0
M  V30 5935 O 572.473 4.29109 3.73971 0
M  V30 5936 N 573.675 2.89924 5.02916 0
M  V30 5937 H 576.44 2.8393 0.959373 0
M  V30 5938 H 574.001 1.57418 0.378306 0
M  V30 5939 H 575.993 2.18713 3.4051 0
M  V30 5940 H 574.563 1.28022 2.85183 0
M  V30 5941 H 573.783 3.52017 1.77419 0
M  V30 5942 H 575.071 4.31395 2.6977 0
M  V30 5943 H 574.469 2.30644 5.16546 0
M  V30 5944 H 573.026 3.0038 5.78459 0
M  V30 5945 N 576.459 -0.456382 1.50847 0
M  V30 5946 C 577.707 -1.20497 1.62249 0
M  V30 5947 C 578.028 -1.92156 0.331839 0
M  V30 5948 O 577.298 -1.84751 -0.651443 0
M  V30 5949 H 575.878 -0.447775 0.597918 0
M  V30 5950 H 578.54 -0.525099 1.87693 0
M  V30 5951 H 577.636 -1.94492 2.44089 0
M  V30 5952 N 577.937 -1.40673 -0.710563 0
M  V30 5953 C 579.353 -1.22813 -1.01928 0
M  V30 5954 C 579.553 -0.10687 -2.01216 0
M  V30 5955 O 578.609 0.533614 -2.46797 0
M  V30 5956 C 579.922 -2.57178 -1.5582 0
M  V30 5957 C 581.47 -2.64233 -1.67779 0
M  V30 5958 C 581.945 -3.98879 -2.25076 0
M  V30 5959 N 583.436 -4.00647 -2.32456 0
M  V30 5960 C 584.171 -5.01621 -2.77784 0
M  V30 5961 N 583.667 -6.12989 -3.22826 0
M  V30 5962 N 585.46 -4.88988 -2.77213 0
M  V30 5963 H 577.611 -2.12335 -0.05253 0
M  V30 5964 H 579.874 -0.9441 -0.085898 0
M  V30 5965 H 579.58 -3.39903 -0.903249 0
M  V30 5966 H 579.454 -2.78618 -2.54267 0
M  V30 5967 H 581.841 -1.81876 -2.3239 0
M  V30 5968 H 581.922 -2.46619 -0.679178 0
M  V30 5969 H 581.566 -4.81678 -1.61086 0
M  V30 5970 H 581.496 -4.13826 -3.25661 0
M  V30 5971 H 583.987 -3.20231 -2.0065 0
M  V30 5972 H 584.3 -6.85921 -3.55995 0
M  V30 5973 H 582.645 -6.16547 -3.20773 0
M  V30 5974 H 585.836 -4.01075 -2.41363 0
M  V30 5975 H 586.009 -5.67822 -3.12221 0
M  V30 5976 N 579.415 0.9433 -1.26252 0
M  V30 5977 C 580.663 1.68592 -1.11451 0
M  V30 5978 C 580.984 1.91957 0.343123 0
M  V30 5979 O 580.254 1.51475 1.24226 0
M  V30 5980 H 578.834 0.624789 -0.409448 0
M  V30 5981 H 581.496 1.13351 -1.58548 0
M  V30 5982 H 580.592 2.66054 -1.63162 0
M  V30 5983 N 580.893 1.08022 1.14757 0
M  V30 5984 C 582.14 0.807509 1.85703 0
M  V30 5985 C 582.468 -0.666617 1.8272 0
M  V30 5986 O 581.723 -1.50562 1.25018 0
M  V30 5987 C 582.022 1.26964 3.34088 0
M  V30 5988 C 581.688 2.7509 3.57262 0
M  V30 5989 C 580.35 3.15547 3.63296 0
M  V30 5990 C 582.702 3.70667 3.66409 0
M  V30 5991 C 580.03 4.50384 3.75994 0
M  V30 5992 C 582.382 5.05274 3.80632 0
M  V30 5993 C 581.046 5.45342 3.84913 0
M  V30 5994 H 580.316 0.295488 0.679535 0
M  V30 5995 H 582.963 1.35245 1.35577 0
M  V30 5996 H 581.268 0.644216 3.86467 0
M  V30 5997 H 582.965 1.03544 3.87401 0
M  V30 5998 H 579.555 2.42775 3.53212 0
M  V30 5999 H 583.739 3.40533 3.61041 0
M  V30 6000 H 578.995 4.80886 3.77569 0
M  V30 6001 H 583.169 5.79201 3.86652 0
M  V30 6002 H 580.796 6.49823 3.94505 0
M  V30 6003 N 582.371 -1.3172 0.865308 0
M  V30 6004 C 583.334 -2.26918 0.322627 0
M  V30 6005 C 584.334 -1.52031 -0.523751 0
M  V30 6006 O 585.524 -1.70973 -0.333727 0
M  V30 6007 C 582.656 -3.36558 -0.542338 0
M  V30 6008 H 583.849 -2.76432 1.16298 0
M  V30 6009 H 581.402 -1.42573 0.640512 0
M  V30 6010 H 582.137 -2.92329 -1.40407 0
M  V30 6011 H 581.922 -3.92048 0.0636395 0
M  V30 6012 H 583.412 -4.07465 -0.91446 0
M  V30 6013 N 583.85 -0.624285 -1.44708 0
M  V30 6014 C 585.096 -0.126237 -2.02407 0
M  V30 6015 C 585.428 1.24618 -1.48943 0
M  V30 6016 O 584.704 1.82569 -0.670742 0
M  V30 6017 C 584.986 -0.105449 -3.59946 0
M  V30 6018 C 584.84 -1.50972 -4.23707 0
M  V30 6019 C 586.159 0.573629 -4.36346 0
M  V30 6020 H 583.278 -0.0473472 -0.735478 0
M  V30 6021 H 585.92 -0.799452 -1.72362 0
M  V30 6022 H 584.07 0.46783 -3.85673 0
M  V30 6023 H 585.742 -2.13136 -4.0911 0
M  V30 6024 H 583.985 -2.0656 -3.81465 0
M  V30 6025 H 584.656 -1.44727 -5.32689 0
M  V30 6026 H 587.132 0.0861787 -4.16011 0
M  V30 6027 H 586.008 0.557338 -5.46063 0
M  V30 6028 H 586.269 1.64276 -4.10446 0
M  V30 6029 N 585.328 1.53329 -0.364422 0
M  V30 6030 C 586.574 2.01537 0.225969 0
M  V30 6031 C 586.907 1.25128 1.48515 0
M  V30 6032 O 586.182 0.344653 1.91422 0
M  V30 6033 C 586.465 3.56339 0.519092 0
M  V30 6034 C 586.318 4.43441 -0.753639 0
M  V30 6035 C 587.637 4.19833 1.32015 0
M  V30 6036 H 584.756 0.732573 0.0806548 0
M  V30 6037 H 587.398 1.83597 -0.489084 0
M  V30 6038 H 585.548 3.71756 1.12825 0
M  V30 6039 H 587.22 4.39823 -1.39116 0
M  V30 6040 H 585.463 4.11457 -1.37424 0
M  V30 6041 H 586.134 5.49699 -0.503517 0
M  V30 6042 H 588.61 4.08242 0.804859 0
M  V30 6043 H 587.486 5.28177 1.49399 0
M  V30 6044 H 587.747 3.75821 2.32832 0
M  V30 6045 N 586.806 0.0935595 1.57322 0
M  V30 6046 C 587.769 -0.851426 2.12799 0
M  V30 6047 C 588.769 -1.21187 1.0569 0
M  V30 6048 O 589.959 -1.14156 1.31583 0
M  V30 6049 C 587.091 -2.14779 2.64731 0
M  V30 6050 H 588.284 -0.369733 2.97612 0
M  V30 6051 H 585.837 -0.155417 1.55525 0
M  V30 6052 H 586.572 -2.67437 1.83434 0
M  V30 6053 H 586.357 -1.89907 3.43042 0
M  V30 6054 H 587.847 -2.82383 3.07651 0
M  V30 6055 N 588.284 -1.56567 -0.180126 0
M  V30 6056 C 589.532 -1.81133 -0.896392 0
M  V30 6057 C 589.853 -0.669114 -1.83161 0
M  V30 6058 O 589.123 0.311616 -1.93406 0
M  V30 6059 H 587.703 -0.668172 -0.333999 0
M  V30 6060 H 590.365 -1.94048 -0.182051 0
M  V30 6061 H 589.461 -2.74854 -1.47857 0
M  V30 6062 N 589.762 0.448376 -1.51087 0
M  V30 6063 C 590.672 1.56882 -1.74428 0
M  V30 6064 C 591.688 1.62268 -0.62809 0
M  V30 6065 O 592.864 1.79716 -0.909075 0
M  V30 6066 C 589.929 2.92947 -1.85426 0
M  V30 6067 C 588.99 2.97766 -3.09247 0
M  V30 6068 C 588.223 4.27341 -3.19711 0
M  V30 6069 O 588.446 5.19112 -2.36387 0
M  V30 6070 O 587.38 4.38219 -4.12611 0
M  V30 6071 H 591.206 1.40104 -2.69452 0
M  V30 6072 H 588.791 0.630247 -1.35456 0
M  V30 6073 H 590.673 3.73719 -1.94709 0
M  V30 6074 H 589.348 3.09876 -0.935887 0
M  V30 6075 H 588.255 2.15989 -3.0545 0
M  V30 6076 H 589.588 2.8578 -4.00738 0
M  V30 6077 N 591.24 1.41047 0.703093 0
M  V30 6078 C 592.486 1.40207 1.46526 0
M  V30 6079 C 592.819 0.00847763 1.94198 0
M  V30 6080 O 592.094 -0.962437 1.69019 0
M  V30 6081 C 592.377 2.40238 2.6825 0
M  V30 6082 C 592.23 3.88674 2.26391 0
M  V30 6083 C 593.549 2.37627 3.70434 0
M  V30 6084 H 590.668 0.510594 0.531472 0
M  V30 6085 H 593.31 1.72271 0.801422 0
M  V30 6086 H 591.46 2.13026 3.24888 0
M  V30 6087 H 593.132 4.2676 1.75138 0
M  V30 6088 H 591.375 4.03903 1.58255 0
M  V30 6089 H 592.046 4.542 3.13698 0
M  V30 6090 H 594.522 2.61759 3.23452 0
M  V30 6091 H 593.398 3.09645 4.53223 0
M  V30 6092 H 593.659 1.39223 4.19606 0
M  V30 6093 N 592.718 -0.936591 1.26751 0
M  V30 6094 C 594.134 -1.21095 1.03963 0
M  V30 6095 C 594.334 -2.00156 -0.232372 0
M  V30 6096 O 593.39 -2.3434 -0.940274 0
M  V30 6097 C 594.703 -1.96775 2.27377 0
M  V30 6098 C 596.251 -2.09749 2.32324 0
M  V30 6099 C 596.726 -2.88832 3.55443 0
M  V30 6100 N 598.217 -2.96404 3.55948 0
M  V30 6101 C 598.952 -3.58036 4.47881 0
M  V30 6102 N 598.448 -4.21132 5.50109 0
M  V30 6103 N 600.241 -3.55353 4.35523 0
M  V30 6104 H 592.392 -0.408173 2.08441 0
M  V30 6105 H 594.655 -0.243139 0.91629 0
M  V30 6106 H 594.361 -1.46094 3.19921 0
M  V30 6107 H 594.235 -2.97424 2.31989 0
M  V30 6108 H 596.622 -2.5962 1.40291 0
M  V30 6109 H 596.703 -1.08347 2.31721 0
M  V30 6110 H 596.347 -2.39647 4.47808 0
M  V30 6111 H 596.277 -3.90499 3.53296 0
M  V30 6112 H 598.768 -2.51552 2.82011 0
M  V30 6113 H 599.081 -4.66071 6.16439 0
M  V30 6114 H 597.426 -4.19705 5.53961 0
M  V30 6115 H 600.617 -3.05256 3.54875 0
M  V30 6116 H 600.79 -4.03097 5.07363 0
M  V30 6117 N 594.196 -1.08629 -1.14182 0
M  V30 6118 C 595.144 -0.71284 -2.21408 0
M  V30 6119 C 596.138 0.282457 -1.67029 0
M  V30 6120 O 597.344 0.144783 -1.79417 0
M  V30 6121 H 593.719 -0.212497 -0.721352 0
M  V30 6122 H 595.69 -1.6265 -2.50175 0
M  V30 6123 C 594.439 -0.140704 -3.47415 0
M  V30 6124 H 593.762 -0.897739 -3.8959 0
M  V30 6125 H 595.202 0.0827677 -4.23919 0
M  V30 6126 C 593.661 1.122 -3.17668 0
M  V30 6127 O 594.191 2.20652 -3.35672 0
M  V30 6128 N 592.397 1.03328 -2.71609 0
M  V30 6129 H 591.944 0.150666 -2.57159 0
M  V30 6130 H 591.902 1.8789 -2.52081 0
M  V30 6131 N 595.674 1.31259 -0.872281 0
M  V30 6132 C 596.604 2.30929 -0.345554 0
M  V30 6133 C 597.585 1.60449 0.5648 0
M  V30 6134 O 598.77 1.8814 0.481335 0
M  V30 6135 C 595.9 3.44348 0.451823 0
M  V30 6136 C 594.854 4.26435 -0.365641 0
M  V30 6137 C 594.18 5.31785 0.557562 0
M  V30 6138 C 595.48 4.97159 -1.60095 0
M  V30 6139 H 597.174 2.75234 -1.17841 0
M  V30 6140 H 594.72 1.3232 -0.568094 0
M  V30 6141 H 596.673 4.13128 0.830854 0
M  V30 6142 H 595.397 2.98816 1.31821 0
M  V30 6143 H 594.056 3.59326 -0.726649 0
M  V30 6144 H 593.704 4.82502 1.4213 0
M  V30 6145 H 593.404 5.87598 0.0144878 0
M  V30 6146 H 594.928 6.03424 0.933387 0
M  V30 6147 H 596.342 5.58523 -1.29323 0
M  V30 6148 H 594.739 5.62779 -2.08327 0
M  V30 6149 H 595.809 4.24012 -2.35249 0
M  V30 6150 N 597.152 0.631951 1.44375 0
M  V30 6151 C 598.115 -0.0628142 2.29114 0
M  V30 6152 C 599.115 -0.771494 1.41084 0
M  V30 6153 O 600.305 -0.615959 1.62947 0
M  V30 6154 C 597.437 -1.09953 3.22681 0
M  V30 6155 H 598.63 0.682509 2.92031 0
M  V30 6156 H 596.183 0.392128 1.51301 0
M  V30 6157 H 596.918 -1.87481 2.64616 0
M  V30 6158 H 596.703 -0.595286 3.87555 0
M  V30 6159 H 598.193 -1.58538 3.86336 0
M  V30 6160 N 598.631 -1.53133 0.372548 0
M  V30 6161 C 599.856 -2.0625 -0.218098 0
M  V30 6162 C 600.281 -1.24375 -1.41111 0
M  V30 6163 O 599.639 -0.264554 -1.79359 0
M  V30 6164 C 599.687 -3.55858 -0.582876 0
M  V30 6165 O 598.791 -3.76667 -1.67917 0
M  V30 6166 H 598.132 -0.663317 -0.030104 0
M  V30 6167 H 600.662 -1.97477 0.535169 0
M  V30 6168 H 600.672 -3.99007 -0.851925 0
M  V30 6169 H 599.347 -4.14892 0.289428 0
M  V30 6170 H 597.924 -3.45413 -1.40513 0
M  V30 6171 N 600.109 -0.101901 -1.5727 0
M  V30 6172 C 601.525 0.254739 -1.57554 0
M  V30 6173 C 601.725 1.67937 -1.11352 0
M  V30 6174 O 600.781 2.39722 -0.793081 0
M  V30 6175 C 602.094 0.036975 -3.00677 0
M  V30 6176 C 603.642 0.104199 -3.12827 0
M  V30 6177 C 604.117 -0.0856565 -4.5792 0
M  V30 6178 N 605.608 -0.0310498 -4.6319 0
M  V30 6179 C 606.343 -0.153099 -5.73196 0
M  V30 6180 N 605.839 -0.330364 -6.92012 0
M  V30 6181 N 607.632 -0.0938854 -5.62022 0
M  V30 6182 H 599.783 -1.03263 -1.85609 0
M  V30 6183 H 602.046 -0.405251 -0.857016 0
M  V30 6184 H 601.752 -0.947254 -3.38703 0
M  V30 6185 H 601.626 0.776335 -3.69124 0
M  V30 6186 H 604.013 1.07894 -2.74669 0
M  V30 6187 H 604.094 -0.666762 -2.46957 0
M  V30 6188 H 603.738 -1.05729 -4.96773 0
M  V30 6189 H 603.668 0.705082 -5.21858 0
M  V30 6190 H 606.159 0.103141 -3.77759 0
M  V30 6191 H 606.472 -0.41482 -7.71686 0
M  V30 6192 H 604.817 -0.366119 -6.94035 0
M  V30 6193 H 608.008 0.0435168 -4.6808 0
M  V30 6194 H 608.181 -0.19245 -6.47714 0
M  V30 6195 N 601.587 1.56661 0.17182 0
M  V30 6196 C 602.812 1.86459 0.908165 0
M  V30 6197 C 603.237 0.688181 1.75059 0
M  V30 6198 O 602.595 -0.362753 1.77634 0
M  V30 6199 C 602.643 3.14669 1.76112 0
M  V30 6200 O 601.747 2.96858 2.86268 0
M  V30 6201 H 601.088 0.613318 0.254434 0
M  V30 6202 H 603.618 2.03892 0.170113 0
M  V30 6203 H 603.628 3.46061 2.16115 0
M  V30 6204 H 602.303 3.99905 1.14233 0
M  V30 6205 H 600.88 2.76819 2.49852 0
M  V30 6206 N 603.065 -0.440357 1.51323 0
M  V30 6207 C 604.028 -1.51679 1.71832 0
M  V30 6208 C 605.028 -1.49648 0.588386 0
M  V30 6209 O 606.218 -1.51724 0.855891 0
M  V30 6210 C 603.35 -2.91228 1.77199 0
M  V30 6211 H 604.543 -1.34799 2.67898 0
M  V30 6212 H 602.096 -0.66883 1.41267 0
M  V30 6213 H 602.831 -3.13516 0.829363 0
M  V30 6214 H 602.616 -2.94107 2.59314 0
M  V30 6215 H 604.106 -3.69321 1.94915 0
M  V30 6216 N 604.543 -1.41418 -0.695603 0
M  V30 6217 C 605.475 -1.39195 -1.82092 0
M  V30 6218 C 606.488 -0.294132 -1.60121 0
M  V30 6219 O 607.677 -0.555854 -1.69625 0
M  V30 6220 C 604.777 -1.14828 -3.18854 0
M  V30 6221 C 603.95 -2.36649 -3.67853 0
M  V30 6222 C 603.009 -2.08139 -4.83285 0
M  V30 6223 O 602.035 -2.81177 -4.94902 0
M  V30 6224 N 603.237 -1.07162 -5.70523 0
M  V30 6225 H 606.002 -2.36185 -1.84491 0
M  V30 6226 H 603.563 -1.3603 -0.877923 0
M  V30 6227 H 605.555 -0.937075 -3.93702 0
M  V30 6228 H 604.125 -0.264358 -3.1148 0
M  V30 6229 H 603.345 -2.73472 -2.83913 0
M  V30 6230 H 604.633 -3.17816 -3.97329 0
M  V30 6231 H 604.031 -0.467124 -5.63768 0
M  V30 6232 H 602.588 -0.920311 -6.4527 0
M  V30 6233 N 606.021 0.929856 -1.27246 0
M  V30 6234 C 606.984 2.01172 -1.09829 0
M  V30 6235 C 607.984 1.60743 -0.0429687 0
M  V30 6236 O 609.174 1.71813 -0.287373 0
M  V30 6237 C 606.306 3.34191 -0.673003 0
M  V30 6238 H 607.499 2.18054 -2.05895 0
M  V30 6239 H 605.052 1.11036 -1.10003 0
M  V30 6240 H 605.787 3.23009 0.289134 0
M  V30 6241 H 605.572 3.64892 -1.43515 0
M  V30 6242 H 607.062 4.13646 -0.573323 0
M  V30 6243 N 607.499 1.09233 1.13605 0
M  V30 6244 C 608.462 0.733553 2.17144 0
M  V30 6245 C 609.462 -0.235873 1.59061 0
M  V30 6246 O 610.652 -0.0143167 1.74194 0
M  V30 6247 C 607.784 0.084471 3.40795 0
M  V30 6248 H 608.977 1.65049 2.50397 0
M  V30 6249 H 606.53 0.891264 1.28399 0
M  V30 6250 H 607.265 -0.843795 3.1313 0
M  V30 6251 H 607.05 0.781985 3.84223 0
M  V30 6252 H 608.54 -0.151216 4.17326 0
M  V30 6253 N 608.977 -1.30795 0.87923 0
M  V30 6254 C 609.924 -2.28282 0.339968 0
M  V30 6255 C 610.894 -1.56134 -0.566685 0
M  V30 6256 O 612.079 -1.84231 -0.496338 0
M  V30 6257 C 609.219 -3.42225 -0.444501 0
M  V30 6258 C 608.332 -4.29204 0.490717 0
M  V30 6259 C 607.467 -5.30302 -0.308784 0
M  V30 6260 C 606.506 -6.08929 0.622272 0
M  V30 6261 N 605.643 -7.01957 -0.14155 0
M  V30 6262 H 610.483 -2.73794 1.17647 0
M  V30 6263 H 608.02 -1.34682 0.591527 0
M  V30 6264 H 609.978 -4.07038 -0.915186 0
M  V30 6265 H 608.608 -2.97799 -1.24562 0
M  V30 6266 H 607.66 -3.6475 1.07988 0
M  V30 6267 H 608.972 -4.84045 1.20425 0
M  V30 6268 H 608.126 -6.00835 -0.841575 0
M  V30 6269 H 606.865 -4.7614 -1.05556 0
M  V30 6270 H 605.87 -5.37278 1.16674 0
M  V30 6271 H 607.095 -6.65178 1.36804 0
M  V30 6272 H 605.041 -6.50192 -0.870966 0
M  V30 6273 H 604.958 -7.54261 0.51246 0
M  V30 6274 H 606.226 -7.76741 -0.655271 0
M  V30 6275 N 610.455 -0.639598 -1.44038 0
M  V30 6276 C 611.365 0.0612377 -2.3452 0
M  V30 6277 C 612.381 0.826717 -1.53106 0
M  V30 6278 O 613.557 0.777059 -1.85806 0
M  V30 6279 C 610.622 1.02492 -3.31204 0
M  V30 6280 C 609.683 0.25788 -4.28525 0
M  V30 6281 C 608.916 1.17566 -5.2059 0
M  V30 6282 O 609.139 2.41461 -5.16771 0
M  V30 6283 O 608.073 0.655407 -5.98321 0
M  V30 6284 H 611.899 -0.68318 -2.95916 0
M  V30 6285 H 609.484 -0.399784 -1.43952 0
M  V30 6286 H 611.366 1.57911 -3.90694 0
M  V30 6287 H 610.041 1.7498 -2.7233 0
M  V30 6288 H 608.948 -0.339566 -3.72556 0
M  V30 6289 H 610.281 -0.427154 -4.90343 0
M  V30 6290 N 611.933 1.52934 -0.380664 0
M  V30 6291 C 613.182 2.00651 0.205477 0
M  V30 6292 C 613.495 1.27164 1.48623 0
M  V30 6293 O 614.701 1.65547 2.15189 0
M  V30 6294 C 613.157 3.57479 0.416726 0
M  V30 6295 C 612.765 4.39857 -0.850268 0
M  V30 6296 C 614.509 4.13509 0.959702 0
M  V30 6297 C 612.416 5.88269 -0.607773 0
M  V30 6298 H 611.346 0.749684 0.0805614 0
M  V30 6299 H 613.997 1.76508 -0.501732 0
M  V30 6300 H 612.379 3.77836 1.18557 0
M  V30 6301 H 613.553 4.31269 -1.62307 0
M  V30 6302 H 611.868 3.95005 -1.31756 0
M  V30 6303 H 614.465 5.22039 1.15669 0
M  V30 6304 H 614.808 3.69054 1.92626 0
M  V30 6305 H 615.341 3.9701 0.250645 0
M  V30 6306 H 612.08 6.3703 -1.54509 0
M  V30 6307 H 611.6 5.99667 0.126247 0
M  V30 6308 H 613.279 6.46558 -0.239014 0
M  V30 6309 N 613.412 0.11024 1.57214 0
M  V30 6310 C 614.359 -0.843195 2.14846 0
M  V30 6311 C 615.329 -1.26954 1.07107 0
M  V30 6312 O 616.514 -1.34861 1.34971 0
M  V30 6313 C 613.654 -2.09123 2.74521 0
M  V30 6314 C 612.767 -1.71404 3.96541 0
M  V30 6315 C 611.902 -2.91107 4.44331 0
M  V30 6316 C 610.941 -2.49586 5.58903 0
M  V30 6317 N 610.078 -3.62175 6.01477 0
M  V30 6318 H 614.918 -0.344886 2.95998 0
M  V30 6319 H 612.455 -0.15855 1.46243 0
M  V30 6320 H 614.413 -2.82234 3.07246 0
M  V30 6321 H 613.043 -2.56427 1.96074 0
M  V30 6322 H 612.095 -0.88201 3.70033 0
M  V30 6323 H 613.407 -1.36884 4.7965 0
M  V30 6324 H 612.561 -3.72454 4.78919 0
M  V30 6325 H 611.3 -3.28848 3.60153 0
M  V30 6326 H 610.305 -1.6667 5.23929 0
M  V30 6327 H 611.53 -2.12973 6.4484 0
M  V30 6328 H 609.476 -3.99605 5.20242 0
M  V30 6329 H 609.393 -3.3155 6.79419 0
M  V30 6330 H 610.661 -4.43987 6.407 0
M  V30 6331 N 614.89 -1.56749 -0.16351 0
M  V30 6332 C 615.853 -1.96121 -1.18613 0
M  V30 6333 C 616.853 -0.845765 -1.36761 0
M  V30 6334 O 618.043 -1.11268 -1.34033 0
M  V30 6335 C 615.175 -2.26282 -2.54969 0
M  V30 6336 H 616.368 -2.87639 -0.848764 0
M  V30 6337 H 613.921 -1.50928 -0.406251 0
M  V30 6338 H 614.656 -1.37504 -2.93706 0
M  V30 6339 H 614.441 -3.07595 -2.43162 0
M  V30 6340 H 615.931 -2.57638 -3.28653 0
M  V30 6341 N 616.368 0.432326 -1.51554 0
M  V30 6342 C 617.298 1.53242 -1.76179 0
M  V30 6343 C 618.279 1.58717 -0.611801 0
M  V30 6344 O 619.464 1.74364 -0.855033 0
M  V30 6345 C 616.594 2.91278 -1.89141 0
M  V30 6346 C 615.548 3.00663 -3.04608 0
M  V30 6347 C 614.874 4.40728 -3.02759 0
M  V30 6348 C 616.174 2.74281 -4.44485 0
M  V30 6349 H 617.868 1.32886 -2.68294 0
M  V30 6350 H 615.414 0.637841 -1.29103 0
M  V30 6351 H 617.367 3.68203 -2.04951 0
M  V30 6352 H 616.091 3.12877 -0.936785 0
M  V30 6353 H 614.75 2.26179 -2.88511 0
M  V30 6354 H 614.398 4.59301 -2.05065 0
M  V30 6355 H 614.098 4.47936 -3.80299 0
M  V30 6356 H 615.622 5.19619 -3.20669 0
M  V30 6357 H 617.036 3.40936 -4.60907 0
M  V30 6358 H 615.433 2.92893 -5.23769 0
M  V30 6359 H 616.503 1.69856 -4.54177 0
M  V30 6360 N 617.846 1.41785 0.688094 0
M  V30 6361 C 619.095 1.4084 1.44385 0
M  V30 6362 C 619.408 0.0234166 1.95586 0
M  V30 6363 O 620.614 -0.108647 2.71283 0
M  V30 6364 C 619.07 2.47675 2.61123 0
M  V30 6365 C 618.678 3.92116 2.16677 0
M  V30 6366 C 620.422 2.55877 3.38714 0
M  V30 6367 C 618.329 4.90487 3.30419 0
M  V30 6368 H 617.259 0.523787 0.542368 0
M  V30 6369 H 619.91 1.6764 0.74627 0
M  V30 6370 H 618.292 2.14018 3.33185 0
M  V30 6371 H 619.466 4.35059 1.51856 0
M  V30 6372 H 617.781 3.87642 1.5206 0
M  V30 6373 H 620.378 3.26553 4.234 0
M  V30 6374 H 620.721 1.59801 3.84408 0
M  V30 6375 H 621.254 2.88662 2.73714 0
M  V30 6376 H 617.993 5.87994 2.89729 0
M  V30 6377 H 617.513 4.52187 3.94065 0
M  V30 6378 H 619.192 5.11591 3.96085 0
M  V30 6379 N 619.324 -0.923095 1.27737 0
M  V30 6380 C 620.234 -2.05765 1.12685 0
M  V30 6381 C 621.25 -1.73911 0.0557197 0
M  V30 6382 O 622.426 -1.99674 0.263137 0
M  V30 6383 C 619.491 -3.37804 0.780363 0
M  V30 6384 C 618.552 -3.83326 1.93286 0
M  V30 6385 C 617.785 -5.09064 1.60281 0
M  V30 6386 O 618.008 -5.6809 0.512828 0
M  V30 6387 O 616.942 -5.50071 2.44347 0
M  V30 6388 H 620.768 -2.21378 2.07907 0
M  V30 6389 H 618.353 -1.04299 1.06968 0
M  V30 6390 H 620.235 -4.17097 0.600668 0
M  V30 6391 H 618.91 -3.23387 -0.142291 0
M  V30 6392 H 617.817 -3.049 2.16764 0
M  V30 6393 H 619.15 -4.02292 2.83588 0
M  V30 6394 N 620.802 -1.09834 -1.13024 0
M  V30 6395 C 622.079 -0.749225 -1.80682 0
M  V30 6396 C 622.459 0.765171 -1.96744 0
M  V30 6397 O 621.807 1.68912 -1.53886 0
M  V30 6398 C 622.017 -1.49311 -3.15448 0
M  V30 6399 C 623.365 -1.66162 -3.90737 0
M  V30 6400 O 624.389 -1.45597 -3.25085 0
M  V30 6401 O 623.248 -2.00211 -5.08505 0
M  V30 6402 H 620.342 -0.269614 -0.781817 0
M  V30 6403 H 622.888 -1.20078 -1.19914 0
M  V30 6404 H 621.66 -2.52407 -2.99009 0
M  V30 6405 H 621.283 -1.034 -3.8392 0
M  V30 6406 N 622.28 1.30327 -0.886154 0
M  V30 6407 C 623.505 2.0079 -0.519425 0
M  V30 6408 C 623.93 1.65979 0.885013 0
M  V30 6409 O 623.288 0.877043 1.58675 0
M  V30 6410 C 623.336 3.53686 -0.702758 0
M  V30 6411 O 622.44 4.11637 0.250828 0
M  V30 6412 H 621.781 0.63171 -0.204544 0
M  V30 6413 H 624.311 1.66145 -1.19402 0
M  V30 6414 H 624.321 4.03531 -0.602207 0
M  V30 6415 H 622.996 3.78361 -1.72673 0
M  V30 6416 H 621.573 3.72755 0.103873 0
M  V30 6417 N 623.758 0.647228 1.43697 0
M  V30 6418 C 625.004 0.158422 2.0218 0
M  V30 6419 C 625.337 -1.22233 1.50907 0
M  V30 6420 O 624.612 -1.81478 0.699702 0
M  V30 6421 C 624.895 0.1627 3.59732 0
M  V30 6422 C 624.748 1.57694 4.21251 0
M  V30 6423 C 626.067 -0.504138 4.37203 0
M  V30 6424 H 623.186 0.059042 0.734631 0
M  V30 6425 H 625.828 0.826772 1.71069 0
M  V30 6426 H 623.978 -0.406414 3.86368 0
M  V30 6427 H 625.65 2.19618 4.05667 0
M  V30 6428 H 623.893 2.12603 3.7813 0
M  V30 6429 H 624.564 1.53183 5.3032 0
M  V30 6430 H 627.04 -0.0199841 4.16095 0
M  V30 6431 H 625.916 -0.470394 5.46881 0
M  V30 6432 H 626.177 -1.57726 4.13007 0
M  V30 6433 N 625.236 -1.5273 0.388769 0
M  V30 6434 C 626.461 -2.0647 -0.19621 0
M  V30 6435 C 626.886 -1.25865 -1.39784 0
M  V30 6436 O 626.244 -0.283562 -1.79069 0
M  V30 6437 C 626.292 -3.56456 -0.5451 0
M  V30 6438 O 625.396 -3.78426 -1.63912 0
M  V30 6439 H 624.737 -0.663599 -0.023067 0
M  V30 6440 H 627.267 -1.96898 0.556084 0
M  V30 6441 H 627.277 -3.99888 -0.809557 0
M  V30 6442 H 625.952 -4.14561 0.333417 0
M  V30 6443 H 624.529 -3.46884 -1.36842 0
M  V30 6444 N 626.714 -0.118576 -1.57153 0
M  V30 6445 C 628.13 0.238014 -1.57815 0
M  V30 6446 C 628.33 1.66747 -1.13127 0
M  V30 6447 O 627.386 2.38867 -0.818462 0
M  V30 6448 C 628.699 0.00508207 -3.007 0
M  V30 6449 C 630.247 0.0710139 -3.12919 0
M  V30 6450 C 630.722 -0.13422 -4.57803 0
M  V30 6451 N 632.213 -0.0801755 -4.63131 0
M  V30 6452 C 632.948 -0.213885 -5.73001 0
M  V30 6453 N 632.444 -0.403742 -6.91623 0
M  V30 6454 N 634.237 -0.15349 -5.6189 0
M  V30 6455 H 626.388 -1.05226 -1.84503 0
M  V30 6456 H 628.651 -0.414318 -0.852669 0
M  V30 6457 H 628.357 -0.983125 -3.3768 0
M  V30 6458 H 628.231 0.73714 -3.69927 0
M  V30 6459 H 630.618 1.04975 -2.75798 0
M  V30 6460 H 630.699 -0.692918 -2.46236 0
M  V30 6461 H 630.343 -1.10992 -4.95624 0
M  V30 6462 H 630.273 0.649692 -5.22577 0
M  V30 6463 H 632.764 0.0630689 -3.77847 0
M  V30 6464 H 633.077 -0.496645 -7.71202 0
M  V30 6465 H 631.422 -0.43971 -6.93608 0
M  V30 6466 H 634.613 -0.00613174 -4.681 0
M  V30 6467 H 634.786 -0.261138 -6.47474 0
M  V30 6468 N 628.193 1.56834 0.155195 0
M  V30 6469 C 629.439 1.83169 0.870467 0
M  V30 6470 C 629.772 0.698929 1.81187 0
M  V30 6471 O 629.047 -0.298035 1.92203 0
M  V30 6472 C 629.33 3.19965 1.65211 0
M  V30 6473 C 629.183 4.43792 0.732744 0
M  V30 6474 C 630.502 3.53885 2.61636 0
M  V30 6475 H 627.621 0.666288 0.315006 0
M  V30 6476 H 630.263 1.89513 0.135988 0
M  V30 6477 H 628.413 3.14687 2.27825 0
M  V30 6478 H 630.085 4.61148 0.118236 0
M  V30 6479 H 628.328 4.3378 0.0417906 0
M  V30 6480 H 628.999 5.36095 1.31552 0
M  V30 6481 H 631.475 3.5972 2.09143 0
M  V30 6482 H 630.351 4.50648 3.13381 0
M  V30 6483 H 630.612 2.79418 3.42605 0
M  V30 6484 N 629.671 -0.424282 1.51781 0
M  V30 6485 C 630.948 -1.18464 1.55646 0
M  V30 6486 C 631.328 -2.08529 0.328438 0
M  V30 6487 O 630.676 -2.17969 -0.685693 0
M  V30 6488 C 630.886 -1.97514 2.87731 0
M  V30 6489 C 632.234 -2.54106 3.40169 0
M  V30 6490 O 633.258 -2.07711 2.89369 0
M  V30 6491 O 632.117 -3.38759 4.28841 0
M  V30 6492 H 629.211 -0.540055 0.626314 0
M  V30 6493 H 631.757 -0.432291 1.64102 0
M  V30 6494 H 630.529 -1.31444 3.68562 0
M  V30 6495 H 630.152 -2.79787 2.82498 0
M  V30 6496 N 631.149 -1.42148 -0.680565 0
M  V30 6497 C 632.377 -1.45696 -1.46902 0
M  V30 6498 C 632.792 -0.0665858 -1.88683 0
M  V30 6499 O 632.149 0.917436 -1.57764 0
M  V30 6500 C 632.2 -2.37898 -2.72188 0
M  V30 6501 O 631.921 -3.71526 -2.32163 0
M  V30 6502 C 633.422 -2.50407 -3.65802 0
M  V30 6503 H 630.642 -0.495729 -0.45221 0
M  V30 6504 H 633.186 -1.866 -0.836709 0
M  V30 6505 H 631.341 -2.00263 -3.31622 0
M  V30 6506 H 631.755 -4.20849 -3.13027 0
M  V30 6507 H 633.229 -3.19056 -4.50452 0
M  V30 6508 H 633.706 -1.5401 -4.11312 0
M  V30 6509 H 634.312 -2.8874 -3.12265 0
M  V30 6510 N 632.627 0.916307 -1.28225 0
M  V30 6511 C 633.875 1.6619 -1.15002 0
M  V30 6512 C 634.196 1.92642 0.302329 0
M  V30 6513 O 633.466 1.54076 1.20985 0
M  V30 6514 H 632.046 0.615964 -0.422608 0
M  V30 6515 H 634.708 1.09963 -1.60917 0
M  V30 6516 H 633.804 2.62533 -1.68769 0
M  V30 6517 N 634.105 1.10431 1.1244 0
M  V30 6518 C 635.33 0.869089 1.88313 0
M  V30 6519 C 635.755 -0.574912 1.79099 0
M  V30 6520 O 635.113 -1.40496 1.14589 0
M  V30 6521 C 635.161 1.32208 3.3549 0
M  V30 6522 O 634.265 0.487092 4.09513 0
M  V30 6523 H 633.606 0.313894 0.585121 0
M  V30 6524 H 636.136 1.47111 1.42195 0
M  V30 6525 H 636.146 1.31201 3.86329 0
M  V30 6526 H 634.821 2.37364 3.41513 0
M  V30 6527 H 633.398 0.562372 3.68635 0
M  V30 6528 N 635.583 -1.29855 0.893053 0
M  V30 6529 C 636.829 -1.96116 0.516349 0
M  V30 6530 C 637.162 -1.70281 -0.933695 0
M  V30 6531 O 636.437 -1.01205 -1.66096 0
M  V30 6532 C 636.72 -3.51068 0.801455 0
M  V30 6533 C 636.573 -3.86387 2.30272 0
M  V30 6534 C 637.892 -4.39186 0.283423 0
M  V30 6535 H 635.011 -0.712335 0.189072 0
M  V30 6536 H 637.653 -1.53587 1.11852 0
M  V30 6537 H 635.803 -3.87424 0.288949 0
M  V30 6538 H 637.475 -3.60012 2.88425 0
M  V30 6539 H 635.718 -3.34167 2.76613 0
M  V30 6540 H 636.389 -4.94512 2.45279 0
M  V30 6541 H 638.865 -4.09785 0.722187 0
M  V30 6542 H 637.741 -5.46505 0.512169 0
M  V30 6543 H 638.002 -4.34511 -0.815643 0
M  V30 6544 N 637.061 -0.65484 -1.43351 0
M  V30 6545 C 637.991 0.0221809 -2.33489 0
M  V30 6546 C 638.972 0.810272 -1.49561 0
M  V30 6547 O 640.157 0.771426 -1.78221 0
M  V30 6548 C 637.287 0.988117 -3.32947 0
M  V30 6549 C 636.241 0.310026 -4.26876 0
M  V30 6550 C 635.567 1.38752 -5.16384 0
M  V30 6551 C 636.867 -0.798589 -5.16159 0
M  V30 6552 H 638.561 -0.730571 -2.9035 0
M  V30 6553 H 636.107 -0.352773 -1.39612 0
M  V30 6554 H 638.06 1.47067 -3.94904 0
M  V30 6555 H 636.784 1.77205 -2.74346 0
M  V30 6556 H 635.443 -0.152097 -3.66284 0
M  V30 6557 H 635.091 2.16293 -4.54121 0
M  V30 6558 H 634.791 0.939051 -5.80048 0
M  V30 6559 H 636.315 1.87141 -5.81215 0
M  V30 6560 H 637.729 -0.398126 -5.71916 0
M  V30 6561 H 636.126 -1.17163 -5.88552 0
M  V30 6562 H 637.196 -1.65588 -4.55751 0
M  V30 6563 N 638.539 1.52521 -0.396863 0
M  V30 6564 C 639.785 2.01971 0.183169 0
M  V30 6565 C 640.118 1.2825 1.45827 0
M  V30 6566 O 639.393 0.385179 1.90648 0
M  V30 6567 C 639.676 3.5736 0.443391 0
M  V30 6568 C 639.529 4.41743 -0.84753 0
M  V30 6569 C 640.848 4.22539 1.2308 0
M  V30 6570 H 637.967 0.734119 0.0650976 0
M  V30 6571 H 640.609 1.82519 -0.527918 0
M  V30 6572 H 638.759 3.74066 1.04914 0
M  V30 6573 H 640.431 4.36773 -1.48414 0
M  V30 6574 H 638.674 4.0845 -1.4612 0
M  V30 6575 H 639.345 5.48507 -0.620003 0
M  V30 6576 H 641.821 4.09857 0.718084 0
M  V30 6577 H 640.697 5.31227 1.38162 0
M  V30 6578 H 640.958 3.80675 2.24808 0
M  V30 6579 N 640.017 0.126909 1.57088 0
M  V30 6580 C 640.927 -0.833867 2.1928 0
M  V30 6581 C 641.943 -1.2868 1.17122 0
M  V30 6582 O 643.119 -1.34815 1.49622 0
M  V30 6583 C 640.184 -2.0632 2.78627 0
M  V30 6584 C 639.245 -1.66143 3.95847 0
M  V30 6585 C 638.478 -2.83217 4.52354 0
M  V30 6586 O 638.701 -3.98868 4.0775 0
M  V30 6587 O 637.635 -2.59846 5.42922 0
M  V30 6588 H 641.461 -0.334564 3.01852 0
M  V30 6589 H 639.046 -0.0991091 1.49071 0
M  V30 6590 H 640.928 -2.78304 3.16425 0
M  V30 6591 H 639.603 -2.55242 1.99082 0
M  V30 6592 H 638.51 -0.912435 3.62802 0
M  V30 6593 H 639.843 -1.21957 4.76852 0
M  V30 6594 N 641.495 -1.56914 -0.146875 0
M  V30 6595 C 642.72 -1.87881 -0.878386 0
M  V30 6596 C 643.145 -0.715945 -1.73942 0
M  V30 6597 O 642.503 0.334447 -1.78189 0
M  V30 6598 C 642.551 -3.17431 -1.71084 0
M  V30 6599 O 641.655 -3.01374 -2.81509 0
M  V30 6600 H 640.996 -0.617289 -0.244644 0
M  V30 6601 H 643.526 -2.04136 -0.137654 0
M  V30 6602 H 643.536 -3.49455 -2.10582 0
M  V30 6603 H 642.211 -4.01671 -1.07856 0
M  V30 6604 H 640.788 -2.80758 -2.45416 0
M  V30 6605 N 642.974 0.416227 -1.52004 0
M  V30 6606 C 643.937 1.48926 -1.74223 0
M  V30 6607 C 644.937 1.48693 -0.612119 0
M  V30 6608 O 646.127 1.50343 -0.879921 0
M  V30 6609 C 643.259 2.88372 -1.81809 0
M  V30 6610 H 644.452 1.3052 -2.70008 0
M  V30 6611 H 642.005 0.646271 -1.42313 0
M  V30 6612 H 642.74 3.12157 -0.879135 0
M  V30 6613 H 642.525 2.89944 -2.6396 0
M  V30 6614 H 644.015 3.66173 -2.00766 0
M  V30 6615 N 644.452 1.42507 0.673017 0
M  V30 6616 C 645.7 1.42789 1.43023 0
M  V30 6617 C 646.021 0.0459738 1.94946 0
M  V30 6618 O 645.291 -0.915765 1.73178 0
M  V30 6619 H 643.871 0.525657 0.530748 0
M  V30 6620 H 646.533 1.77944 0.795113 0
M  V30 6621 H 645.629 2.12872 2.28237 0
M  V30 6622 N 645.93 -0.909495 1.28709 0
M  V30 6623 C 646.84 -2.04558 1.14861 0
M  V30 6624 C 647.856 -1.73842 0.0741621 0
M  V30 6625 O 649.032 -1.99383 0.2843 0
M  V30 6626 C 646.097 -3.36957 0.816148 0
M  V30 6627 C 645.158 -3.81255 1.97341 0
M  V30 6628 C 644.391 -5.07335 1.65671 0
M  V30 6629 O 644.614 -5.67514 0.573053 0
M  V30 6630 O 643.548 -5.47449 2.50167 0
M  V30 6631 H 647.374 -2.19161 2.10243 0
M  V30 6632 H 644.959 -1.03159 1.08068 0
M  V30 6633 H 646.841 -4.16436 0.644873 0
M  V30 6634 H 645.516 -3.2352 -0.107983 0
M  V30 6635 H 644.423 -3.02584 2.19986 0
M  V30 6636 H 645.756 -3.99261 2.87839 0
M  V30 6637 N 647.408 -1.11026 -1.11852 0
M  V30 6638 C 648.636 -0.878818 -1.87308 0
M  V30 6639 C 649.051 0.57111 -1.79955 0
M  V30 6640 O 648.408 1.39409 -1.17777 0
M  V30 6641 C 648.459 -1.3264 -3.36287 0
M  V30 6642 O 648.18 -2.71948 -3.43476 0
M  V30 6643 C 649.681 -1.12974 -4.28663 0
M  V30 6644 H 646.901 -0.315015 -0.592458 0
M  V30 6645 H 649.445 -1.47649 -1.41492 0
M  V30 6646 H 647.6 -0.772269 -3.79625 0
M  V30 6647 H 648.014 -2.91241 -4.3621 0
M  V30 6648 H 649.488 -1.49198 -5.31454 0
M  V30 6649 H 649.965 -0.0689127 -4.39146 0
M  V30 6650 H 650.571 -1.67064 -3.91113 0
M  V30 6651 N 648.886 1.2938 -0.899927 0
M  V30 6652 C 649.819 2.25911 -0.322386 0
M  V30 6653 C 650.797 1.52447 0.565567 0
M  V30 6654 O 651.981 1.81404 0.512324 0
M  V30 6655 C 649.108 3.3436 0.540455 0
M  V30 6656 C 648.154 4.25579 -0.280211 0
M  V30 6657 S 648.987 5.08526 -1.67814 0
M  V30 6658 C 650.143 6.20476 -0.822224 0
M  V30 6659 H 650.376 2.7455 -1.1406 0
M  V30 6660 H 647.909 1.37606 -0.700285 0
M  V30 6661 H 649.867 3.97303 1.0325 0
M  V30 6662 H 648.528 2.84416 1.33291 0
M  V30 6663 H 647.721 5.02574 0.378915 0
M  V30 6664 H 647.323 3.67287 -0.705405 0
M  V30 6665 H 649.615 6.77485 -0.0457138 0
M  V30 6666 H 650.558 6.90606 -1.56426 0
M  V30 6667 H 650.966 5.63243 -0.37651 0
M  V30 6668 N 650.364 0.662433 1.43002 0
M  V30 6669 C 651.592 0.187615 2.06048 0
M  V30 6670 C 652.007 -1.15039 1.49705 0
M  V30 6671 O 651.364 -1.71209 0.631956 0
M  V30 6672 C 651.415 0.100498 3.6136 0
M  V30 6673 O 651.136 1.38562 4.15611 0
M  V30 6674 C 652.637 -0.399298 4.41498 0
M  V30 6675 H 649.857 0.0941675 0.664359 0
M  V30 6676 H 652.401 0.905681 1.83351 0
M  V30 6677 H 650.556 -0.568181 3.83211 0
M  V30 6678 H 650.97 1.25084 5.09366 0
M  V30 6679 H 652.444 -0.409187 5.50481 0
M  V30 6680 H 652.921 -1.43232 4.15188 0
M  V30 6681 H 653.527 0.23721 4.24638 0
M  V30 6682 N 651.842 -1.52309 0.404946 0
M  V30 6683 C 653.119 -1.94237 -0.230544 0
M  V30 6684 C 653.499 -1.34154 -1.6299 0
M  V30 6685 O 652.847 -0.515713 -2.22604 0
M  V30 6686 C 653.057 -3.48166 -0.241106 0
M  V30 6687 C 654.405 -4.22074 -0.462488 0
M  V30 6688 O 655.429 -3.54754 -0.320644 0
M  V30 6689 O 654.288 -5.41443 -0.741708 0
M  V30 6690 H 651.382 -0.813766 -0.147358 0
M  V30 6691 H 653.928 -1.6333 0.460587 0
M  V30 6692 H 652.7 -3.84269 0.738467 0
M  V30 6693 H 652.323 -3.85422 -0.97651 0
M  V30 6694 N 653.32 -0.135238 -1.57019 0
M  V30 6695 C 654.569 0.518694 -1.94917 0
M  V30 6696 C 654.882 1.66783 -1.0219 0
M  V30 6697 O 656.088 2.38561 -1.29619 0
M  V30 6698 C 654.544 0.974123 -3.46466 0
M  V30 6699 C 654.152 -0.147439 -4.47757 0
M  V30 6700 C 655.896 1.59851 -3.93253 0
M  V30 6701 C 653.803 0.325599 -5.90503 0
M  V30 6702 H 652.733 0.19754 -0.727663 0
M  V30 6703 H 655.384 -0.217698 -1.82204 0
M  V30 6704 H 653.766 1.76542 -3.5447 0
M  V30 6705 H 654.94 -0.924122 -4.51438 0
M  V30 6706 H 653.255 -0.679496 -4.10818 0
M  V30 6707 H 655.852 1.96385 -4.9733 0
M  V30 6708 H 656.195 2.48306 -3.3414 0
M  V30 6709 H 656.728 0.872323 -3.88118 0
M  V30 6710 H 653.467 -0.523295 -6.53408 0
M  V30 6711 H 652.987 1.06841 -5.90208 0
M  V30 6712 H 654.666 0.781498 -6.42263 0
M  V30 6713 N 654.798 1.5699 0.138552 0
M  V30 6714 C 656.044 1.84081 0.85099 0
M  V30 6715 C 656.377 0.718107 1.80435 0
M  V30 6716 O 655.652 -0.277633 1.92508 0
M  V30 6717 C 655.935 3.21699 1.61808 0
M  V30 6718 C 655.788 4.44544 0.685633 0
M  V30 6719 C 657.107 3.5664 2.57868 0
M  V30 6720 H 654.226 0.669592 0.307922 0
M  V30 6721 H 656.868 1.89646 0.11588 0
M  V30 6722 H 655.018 3.17086 2.24474 0
M  V30 6723 H 656.69 4.61248 0.0693179 0
M  V30 6724 H 654.933 4.338 -0.00421993 0
M  V30 6725 H 655.604 5.3746 1.25858 0
M  V30 6726 H 658.08 3.61918 2.05316 0
M  V30 6727 H 656.956 4.53946 3.08584 0
M  V30 6728 H 657.217 2.83036 3.39622 0
M  V30 6729 N 656.276 -0.40816 1.52223 0
M  V30 6730 C 657.224 -1.51788 1.76248 0
M  V30 6731 C 658.218 -1.57264 0.629638 0
M  V30 6732 O 659.424 -1.60659 0.811704 0
M  V30 6733 H 655.799 -0.504823 0.557367 0
M  V30 6734 H 657.77 -1.2871 2.69214 0
M  V30 6735 C 656.519 -2.89145 1.93107 0
M  V30 6736 H 655.842 -2.85674 2.79697 0
M  V30 6737 H 657.282 -3.66082 2.13916 0
M  V30 6738 C 655.741 -3.29581 0.698431 0
M  V30 6739 O 656.271 -4.01479 -0.133238 0
M  V30 6740 N 654.477 -2.85651 0.53405 0
M  V30 6741 H 654.024 -2.2731 1.21194 0
M  V30 6742 H 653.982 -3.13065 -0.289387 0
M  V30 6743 N 657.755 -1.42862 -0.66545 0
M  V30 6744 C 658.718 -1.46756 -1.76055 0
M  V30 6745 C 659.718 -0.353866 -1.56858 0
M  V30 6746 O 660.908 -0.615099 -1.62979 0
M  V30 6747 C 658.04 -1.30829 -3.14796 0
M  V30 6748 H 659.233 -2.44271 -1.73987 0
M  V30 6749 H 656.786 -1.29447 -0.875965 0
M  V30 6750 H 657.521 -0.342733 -3.22484 0
M  V30 6751 H 657.306 -2.11551 -3.30134 0
M  V30 6752 H 658.796 -1.36458 -3.94676 0
M  V30 6753 N 659.233 0.902656 -1.29189 0
M  V30 6754 C 660.479 1.65532 -1.17163 0
M  V30 6755 C 660.812 1.92216 0.276879 0
M  V30 6756 O 660.087 1.53048 1.20027 0
M  V30 6757 C 660.37 3.00629 -1.98228 0
M  V30 6758 C 660.223 2.81029 -3.51202 0
M  V30 6759 C 661.542 4.01321 -1.80635 0
M  V30 6760 H 658.661 0.60071 -0.426985 0
M  V30 6761 H 661.303 1.04578 -1.5863 0
M  V30 6762 H 659.453 3.52656 -1.62991 0
M  V30 6763 H 661.125 2.35927 -3.96404 0
M  V30 6764 H 659.368 2.1587 -3.76275 0
M  V30 6765 H 660.039 3.77014 -4.03192 0
M  V30 6766 H 662.515 3.58394 -2.11406 0
M  V30 6767 H 661.391 4.93792 -2.3971 0
M  V30 6768 H 661.652 4.35505 -0.760754 0
M  V30 6769 N 660.711 1.11618 1.11262 0
M  V30 6770 C 661.939 0.888739 1.8684 0
M  V30 6771 C 662.354 -0.561558 1.80255 0
M  V30 6772 O 661.711 -1.38782 1.18515 0
M  V30 6773 C 661.762 1.34422 3.35579 0
M  V30 6774 O 661.483 2.73766 3.42029 0
M  V30 6775 C 662.984 1.15246 4.28058 0
M  V30 6776 H 660.204 0.318152 0.590779 0
M  V30 6777 H 662.748 1.48398 1.40707 0
M  V30 6778 H 660.903 0.79239 3.7921 0
M  V30 6779 H 661.317 2.9355 4.34659 0
M  V30 6780 H 662.791 1.52015 5.30656 0
M  V30 6781 H 663.268 0.0922007 4.39103 0
M  V30 6782 H 663.874 1.69136 3.90222 0
M  V30 6783 N 662.189 -1.289 0.906776 0
M  V30 6784 C 663.605 -1.47733 0.603902 0
M  V30 6785 C 663.805 -1.82568 -0.852702 0
M  V30 6786 O 662.861 -1.92642 -1.63234 0
M  V30 6787 C 664.174 -2.58522 1.53581 0
M  V30 6788 C 665.722 -2.72394 1.54177 0
M  V30 6789 C 666.197 -3.86318 2.46013 0
M  V30 6790 N 667.688 -3.93661 2.441 0
M  V30 6791 C 668.423 -4.81177 3.11859 0
M  V30 6792 N 667.919 -5.73333 3.88923 0
M  V30 6793 N 669.712 -4.74728 3.00981 0
M  V30 6794 H 661.863 -1.04567 1.84877 0
M  V30 6795 H 664.126 -0.520118 0.792579 0
M  V30 6796 H 663.832 -2.39667 2.57396 0
M  V30 6797 H 663.706 -3.55475 1.26165 0
M  V30 6798 H 666.093 -2.90641 0.511034 0
M  V30 6799 H 666.174 -1.75993 1.85634 0
M  V30 6800 H 665.818 -3.68826 3.49185 0
M  V30 6801 H 665.748 -4.82102 2.11862 0
M  V30 6802 H 668.239 -3.27751 1.88115 0
M  V30 6803 H 668.552 -6.36923 4.37663 0
M  V30 6804 H 666.897 -5.73196 3.93029 0
M  V30 6805 H 670.088 -4.01722 2.40286 0
M  V30 6806 H 670.261 -5.42719 3.54062 0
M  V30 6807 N 663.667 -0.670007 -1.42649 0
M  V30 6808 C 664.913 -0.190568 -2.01903 0
M  V30 6809 C 665.246 1.19817 -1.52832 0
M  V30 6810 O 664.521 1.80342 -0.728485 0
M  V30 6811 C 664.804 -0.21991 -3.59428 0
M  V30 6812 C 664.657 -1.64376 -4.18689 0
M  V30 6813 C 665.976 0.434519 -4.3795 0
M  V30 6814 H 663.095 -0.0707219 -0.733599 0
M  V30 6815 H 665.737 -0.853883 -1.69732 0
M  V30 6816 H 663.887 0.344894 -3.86966 0
M  V30 6817 H 665.559 -2.26044 -4.02122 0
M  V30 6818 H 663.802 -2.18591 -3.747 0
M  V30 6819 H 664.473 -1.61601 -5.27815 0
M  V30 6820 H 666.949 -0.0462156 -4.16074 0
M  V30 6821 H 665.825 0.38333 -5.4756 0
M  V30 6822 H 666.086 1.51135 -4.15464 0
M  V30 6823 N 665.145 1.52092 -0.413018 0
M  V30 6824 C 666.373 2.06274 0.160881 0
M  V30 6825 C 666.788 1.28273 1.38533 0
M  V30 6826 O 666.145 0.33563 1.79387 0
M  V30 6827 C 666.196 3.57921 0.507443 0
M  V30 6828 O 665.917 4.32971 -0.668388 0
M  V30 6829 C 667.418 4.28533 1.13465 0
M  V30 6830 H 664.638 0.67074 0.0186759 0
M  V30 6831 H 667.182 1.95951 -0.585092 0
M  V30 6832 H 665.337 3.68238 1.20331 0
M  V30 6833 H 665.751 5.23135 -0.378169 0
M  V30 6834 H 667.225 5.35804 1.32732 0
M  V30 6835 H 667.702 3.85258 2.10886 0
M  V30 6836 H 668.308 4.22595 0.478876 0
M  V30 6837 N 666.623 0.143563 1.56945 0
M  V30 6838 C 667.9 -0.553285 1.87612 0
M  V30 6839 C 668.28 -1.83195 1.04894 0
M  V30 6840 O 667.628 -2.28102 0.134773 0
M  V30 6841 C 667.838 -0.822055 3.3918 0
M  V30 6842 C 669.186 -1.16435 4.08324 0
M  V30 6843 O 670.21 -0.911522 3.4434 0
M  V30 6844 O 669.069 -1.63996 5.21313 0
M  V30 6845 H 666.163 -0.281851 0.777489 0
M  V30 6846 H 668.709 0.179916 1.68744 0
M  V30 6847 H 667.481 0.0830265 3.91212 0
M  V30 6848 H 667.104 -1.60956 3.63564 0
M  V30 6849 N 668.101 -1.57061 -0.130224 0
M  V30 6850 C 669.35 -1.83446 -0.838488 0
M  V30 6851 C 669.663 -0.727468 -1.81569 0
M  V30 6852 O 670.869 -0.877394 -2.56932 0
M  V30 6853 C 669.325 -3.25201 -1.54182 0
M  V30 6854 C 668.933 -4.4388 -0.606178 0
M  V30 6855 C 670.677 -3.60844 -2.23588 0
M  V30 6856 C 668.584 -5.76661 -1.31209 0
M  V30 6857 H 667.514 -0.684185 -0.316871 0
M  V30 6858 H 670.165 -1.83273 -0.0912059 0
M  V30 6859 H 668.547 -3.1981 -2.33533 0
M  V30 6860 H 669.721 -4.60545 0.153308 0
M  V30 6861 H 668.036 -4.16395 -0.0196705 0
M  V30 6862 H 670.633 -4.57313 -2.77072 0
M  V30 6863 H 670.976 -2.87724 -3.00867 0
M  V30 6864 H 671.509 -3.67971 -1.51137 0
M  V30 6865 H 668.248 -6.52922 -0.580823 0
M  V30 6866 H 667.768 -5.63902 -2.04387 0
M  V30 6867 H 669.447 -6.20035 -1.8484 0
M  V30 6868 N 669.579 0.400081 -1.52437 0
M  V30 6869 C 670.512 1.50929 -1.7116 0
M  V30 6870 C 671.49 1.52679 -0.559275 0
M  V30 6871 O 672.674 1.71251 -0.787735 0
M  V30 6872 C 669.801 2.89433 -1.75915 0
M  V30 6873 C 668.847 3.05556 -2.97553 0
M  V30 6874 S 669.68 2.77919 -4.57735 0
M  V30 6875 C 670.836 4.18636 -4.6529 0
M  V30 6876 H 671.069 1.3482 -2.64973 0
M  V30 6877 H 668.602 0.592245 -1.4259 0
M  V30 6878 H 670.56 3.69253 -1.7934 0
M  V30 6879 H 669.221 3.02877 -0.832137 0
M  V30 6880 H 668.414 4.0691 -2.97388 0
M  V30 6881 H 668.016 2.33615 -2.92062 0
M  V30 6882 H 670.308 5.12406 -4.43223 0
M  V30 6883 H 671.251 4.23821 -5.67258 0
M  V30 6884 H 671.659 4.04029 -3.94234 0
M  V30 6885 N 671.057 1.43213 0.657864 0
M  V30 6886 C 672.305 1.44298 1.41501 0
M  V30 6887 C 672.626 0.0666478 1.94886 0
M  V30 6888 O 671.896 -0.897345 1.74139 0
M  V30 6889 H 670.476 0.531257 0.525143 0
M  V30 6890 H 673.138 1.78777 0.776195 0
M  V30 6891 H 672.234 2.1528 2.25966 0
M  V30 6892 N 672.536 -0.895792 1.29666 0
M  V30 6893 C 673.446 -2.03329 1.17024 0
M  V30 6894 C 674.462 -1.73753 0.0925962 0
M  V30 6895 O 675.638 -1.99071 0.305431 0
M  V30 6896 C 672.703 -3.36072 0.851841 0
M  V30 6897 C 671.764 -3.7914 2.01373 0
M  V30 6898 C 670.997 -5.05549 1.71043 0
M  V30 6899 O 671.22 -5.66874 0.633213 0
M  V30 6900 O 670.154 -5.44764 2.5596 0
M  V30 6901 H 673.98 -2.16918 2.12556 0
M  V30 6902 H 671.565 -1.02007 1.09156 0
M  V30 6903 H 673.447 -4.15729 0.689006 0
M  V30 6904 H 672.122 -3.23616 -0.0736634 0
M  V30 6905 H 671.029 -3.00233 2.23183 0
M  V30 6906 H 672.362 -3.96186 2.92058 0
M  V30 6907 N 674.014 -1.12206 -1.10668 0
M  V30 6908 C 675.263 -0.870595 -1.81944 0
M  V30 6909 C 675.576 0.605447 -1.85994 0
M  V30 6910 O 676.782 0.973433 -2.53449 0
M  V30 6911 C 675.238 -1.50783 -3.26791 0
M  V30 6912 C 674.846 -3.01849 -3.31046 0
M  V30 6913 C 676.59 -1.33653 -4.02911 0
M  V30 6914 C 674.497 -3.58518 -4.70339 0
M  V30 6915 H 673.427 -0.322043 -0.681765 0
M  V30 6916 H 676.078 -1.34827 -1.24475 0
M  V30 6917 H 674.46 -0.957825 -3.84242 0
M  V30 6918 H 675.634 -3.63321 -2.83433 0
M  V30 6919 H 673.949 -3.18346 -2.68411 0
M  V30 6920 H 676.546 -1.73416 -5.05797 0
M  V30 6921 H 676.889 -0.279949 -4.15358 0
M  V30 6922 H 677.422 -1.85562 -3.51868 0
M  V30 6923 H 674.161 -4.63925 -4.63091 0
M  V30 6924 H 673.681 -3.01819 -5.18329 0
M  V30 6925 H 675.36 -3.57434 -5.39305 0
M  V30 6926 N 675.492 1.28418 -0.913599 0
M  V30 6927 C 676.455 2.25564 -0.406624 0
M  V30 6928 C 677.455 1.5387 0.466965 0
M  V30 6929 O 678.645 1.72094 0.270042 0
M  V30 6930 C 675.777 3.38339 0.417053 0
M  V30 6931 H 676.97 2.71926 -1.26477 0
M  V30 6932 H 674.523 1.40098 -0.692986 0
M  V30 6933 H 675.258 2.97339 1.29461 0
M  V30 6934 H 675.043 3.91542 -0.209102 0
M  V30 6935 H 676.533 4.10578 0.762602 0
M  V30 6936 N 676.97 0.677563 1.42291 0
M  V30 6937 C 678.195 0.207901 2.06355 0
M  V30 6938 C 678.62 -1.12723 1.50583 0
M  V30 6939 O 677.978 -1.70171 0.62543 0
M  V30 6940 C 678.026 0.156489 3.6026 0
M  V30 6941 O 677.13 -0.874162 4.03029 0
M  V30 6942 H 676.471 0.106056 0.655475 0
M  V30 6943 H 679.001 0.927354 1.82377 0
M  V30 6944 H 679.011 -0.0187258 4.07996 0
M  V30 6945 H 677.686 1.13101 4.00226 0
M  V30 6946 H 676.263 -0.669764 3.66836 0
M  V30 6947 N 678.448 -1.51871 0.421078 0
M  V30 6948 C 679.411 -2.25914 -0.386712 0
M  V30 6949 C 680.411 -1.28733 -0.963555 0
M  V30 6950 O 681.601 -1.52579 -0.840556 0
M  V30 6951 C 678.733 -3.03853 -1.54551 0
M  V30 6952 H 679.926 -2.98754 0.261978 0
M  V30 6953 H 677.479 -1.5533 0.173862 0
M  V30 6954 H 678.214 -2.35392 -2.23072 0
M  V30 6955 H 677.999 -3.75215 -1.13824 0
M  V30 6956 H 679.489 -3.59984 -2.11663 0
M  V30 6957 N 679.926 -0.151884 -1.56866 0
M  V30 6958 C 681.151 0.508044 -2.01081 0
M  V30 6959 C 681.576 1.57306 -1.03134 0
M  V30 6960 O 680.934 1.81298 -0.0078309 0
M  V30 6961 C 680.982 1.08106 -3.44014 0
M  V30 6962 O 680.086 2.19577 -3.49084 0
M  V30 6963 H 679.427 0.123757 -0.652365 0
M  V30 6964 H 681.957 -0.250055 -2.03066 0
M  V30 6965 H 681.967 1.40851 -3.82916 0
M  V30 6966 H 680.642 0.301168 -4.14808 0
M  V30 6967 H 679.219 1.88023 -3.22027 0
M  V30 6968 N 681.404 1.57128 0.121893 0
M  V30 6969 C 682.681 1.75664 0.860327 0
M  V30 6970 C 683.061 0.726585 1.98202 0
M  V30 6971 O 682.409 -0.24999 2.27128 0
M  V30 6972 C 682.619 3.20571 1.37968 0
M  V30 6973 C 683.967 3.82988 1.83317 0
M  V30 6974 O 684.991 3.24156 1.47654 0
M  V30 6975 O 683.85 4.86393 2.49168 0
M  V30 6976 H 680.944 0.719153 0.408348 0
M  V30 6977 H 683.49 1.6937 0.105859 0
M  V30 6978 H 682.262 3.87056 0.57477 0
M  V30 6979 H 681.885 3.31392 2.19694 0
M  V30 6980 N 682.882 -0.391992 1.52647 0
M  V30 6981 C 683.792 -1.503 1.80131 0
M  V30 6982 C 684.808 -1.59825 0.687882 0
M  V30 6983 O 685.984 -1.76218 0.975149 0
M  V30 6984 C 683.049 -2.85863 1.96171 0
M  V30 6985 C 682.11 -2.86084 3.20085 0
M  V30 6986 C 681.343 -4.15181 3.35351 0
M  V30 6987 O 681.566 -5.09981 2.55491 0
M  V30 6988 O 680.5 -4.22603 4.28591 0
M  V30 6989 H 684.326 -1.30007 2.74466 0
M  V30 6990 H 681.911 -0.579539 1.37701 0
M  V30 6991 H 683.793 -3.66236 2.08445 0
M  V30 6992 H 682.468 -3.06189 1.05025 0
M  V30 6993 H 681.375 -2.04504 3.13256 0
M  V30 6994 H 682.708 -2.7071 4.11068 0
M  V30 6995 N 684.36 -1.4356 -0.65026 0
M  V30 6996 C 685.292 -1.44918 -1.77571 0
M  V30 6997 C 686.305 -0.344925 -1.59104 0
M  V30 6998 O 687.494 -0.609537 -1.6777 0
M  V30 6999 C 684.594 -1.24914 -3.15039 0
M  V30 7000 C 683.767 -2.48232 -3.60138 0
M  V30 7001 C 682.826 -2.23409 -4.76419 0
M  V30 7002 O 681.852 -2.9678 -4.85706 0
M  V30 7003 N 683.054 -1.25259 -5.66825 0
M  V30 7004 H 685.819 -2.41935 -1.76883 0
M  V30 7005 H 683.38 -1.38754 -0.834202 0
M  V30 7006 H 685.372 -1.06185 -3.90521 0
M  V30 7007 H 683.942 -0.363319 -3.10481 0
M  V30 7008 H 683.162 -2.82366 -2.75069 0
M  V30 7009 H 684.45 -3.30296 -3.87017 0
M  V30 7010 H 683.848 -0.646246 -5.61997 0
M  V30 7011 H 682.405 -1.12513 -6.42016 0
M  V30 7012 N 685.838 0.888903 -1.30139 0
M  V30 7013 C 687.063 1.67884 -1.21777 0
M  V30 7014 C 687.488 1.86848 0.216689 0
M  V30 7015 O 686.846 1.39659 1.15608 0
M  V30 7016 C 686.894 3.03483 -1.94757 0
M  V30 7017 O 685.998 3.92294 -1.27198 0
M  V30 7018 H 685.339 0.513144 -0.421402 0
M  V30 7019 H 687.869 1.10968 -1.71893 0
M  V30 7020 H 687.879 3.53553 -2.03627 0
M  V30 7021 H 686.554 2.89 -2.99085 0
M  V30 7022 H 685.131 3.50732 -1.26655 0
M  V30 7023 N 687.317 1.12792 1.10072 0
M  V30 7024 C 688.733 0.864745 1.34143 0
M  V30 7025 C 688.933 -0.503201 1.95116 0
M  V30 7026 O 687.989 -1.25111 2.19325 0
M  V30 7027 C 689.302 1.98413 2.25949 0
M  V30 7028 C 690.85 2.01545 2.39476 0
M  V30 7029 C 691.325 3.12727 3.34613 0
M  V30 7030 N 692.816 3.12194 3.42183 0
M  V30 7031 C 693.551 3.94862 4.15779 0
M  V30 7032 N 693.047 4.87528 4.92228 0
M  V30 7033 N 694.84 3.82985 4.11435 0
M  V30 7034 H 686.991 2.00926 0.68866 0
M  V30 7035 H 689.254 0.874564 0.365844 0
M  V30 7036 H 688.96 2.97005 1.88364 0
M  V30 7037 H 688.834 1.89254 3.26287 0
M  V30 7038 H 691.221 1.0357 2.76328 0
M  V30 7039 H 691.302 2.14777 1.3894 0
M  V30 7040 H 690.946 4.10936 2.98486 0
M  V30 7041 H 690.876 2.96732 4.35037 0
M  V30 7042 H 693.367 2.45065 2.87666 0
M  V30 7043 H 693.68 5.47109 5.45794 0
M  V30 7044 H 692.025 4.91539 4.9134 0
M  V30 7045 H 695.216 3.09923 3.50807 0
M  V30 7046 H 695.389 4.47641 4.68531 0
M  V30 7047 N 688.795 -1.27931 0.920396 0
M  V30 7048 C 690.043 -1.94304 0.555906 0
M  V30 7049 C 690.364 -1.72753 -0.904519 0
M  V30 7050 O 689.634 -1.07104 -1.64029 0
M  V30 7051 H 688.214 -0.719001 0.202599 0
M  V30 7052 H 690.876 -1.55785 1.1712 0
M  V30 7053 H 689.972 -3.02806 0.755981 0
M  V30 7054 N 690.273 -0.685099 -1.4193 0
M  V30 7055 C 691.522 -0.208816 -2.00616 0
M  V30 7056 C 691.835 1.19506 -1.54847 0
M  V30 7057 O 693.041 1.76826 -2.06021 0
M  V30 7058 C 691.497 -0.322446 -3.58453 0
M  V30 7059 C 691.105 -1.73102 -4.13206 0
M  V30 7060 C 692.849 0.0945979 -4.24395 0
M  V30 7061 C 690.756 -1.79687 -5.63442 0
M  V30 7062 H 689.686 -0.0743092 -0.750329 0
M  V30 7063 H 692.337 -0.851778 -1.62533 0
M  V30 7064 H 690.719 0.388588 -3.94089 0
M  V30 7065 H 691.893 -2.46997 -3.8901 0
M  V30 7066 H 690.208 -2.09682 -3.59753 0
M  V30 7067 H 692.805 0.0656937 -5.3466 0
M  V30 7068 H 693.148 1.1316 -4.00625 0
M  V30 7069 H 693.681 -0.56579 -3.93756 0
M  V30 7070 H 690.42 -2.81404 -5.92024 0
M  V30 7071 H 689.94 -1.10162 -5.89597 0
M  V30 7072 H 691.619 -1.55498 -6.28036 0
M  V30 7073 N 691.751 1.51645 -0.429126 0
M  V30 7074 C 693.028 1.94579 0.199614 0
M  V30 7075 C 693.408 1.3673 1.60836 0
M  V30 7076 O 692.756 0.551062 2.21756 0
M  V30 7077 C 692.966 3.48506 0.185685 0
M  V30 7078 C 694.314 4.22756 0.395282 0
M  V30 7079 O 695.338 3.55219 0.264165 0
M  V30 7080 O 694.197 5.42555 0.655475 0
M  V30 7081 H 691.291 0.816007 0.134393 0
M  V30 7082 H 693.837 1.62577 -0.486513 0
M  V30 7083 H 692.609 3.83045 -0.799508 0
M  V30 7084 H 692.232 3.86927 0.91507 0
M  V30 7085 N 693.229 0.160201 1.56784 0
M  V30 7086 C 694.161 -0.80564 2.14574 0
M  V30 7087 C 695.174 -1.20154 1.09849 0
M  V30 7088 O 696.363 -1.14333 1.37078 0
M  V30 7089 C 693.463 -2.09434 2.6644 0
M  V30 7090 C 692.636 -1.86375 3.95706 0
M  V30 7091 C 691.695 -2.99358 4.32749 0
M  V30 7092 O 690.721 -2.70475 5.00831 0
M  V30 7093 N 691.923 -4.26867 3.93402 0
M  V30 7094 H 694.688 -0.311644 2.98075 0
M  V30 7095 H 692.249 -0.0229465 1.61884 0
M  V30 7096 H 694.241 -2.84091 2.88226 0
M  V30 7097 H 692.811 -2.50057 1.8759 0
M  V30 7098 H 692.031 -0.956821 3.82412 0
M  V30 7099 H 693.319 -1.68322 4.80151 0
M  V30 7100 H 692.717 -4.53197 3.38569 0
M  V30 7101 H 691.274 -4.98263 4.20211 0
M  V30 7102 N 694.707 -1.5719 -0.113559 0
M  V30 7103 C 695.953 -1.85412 -0.821597 0
M  V30 7104 C 696.286 -0.746722 -1.7927 0
M  V30 7105 O 695.561 0.246971 -1.92926 0
M  V30 7106 C 695.844 -3.24233 -1.56669 0
M  V30 7107 C 695.697 -4.45578 -0.614823 0
M  V30 7108 C 697.016 -3.60697 -2.52161 0
M  V30 7109 H 694.135 -0.674406 -0.29723 0
M  V30 7110 H 696.777 -1.89807 -0.085694 0
M  V30 7111 H 694.927 -3.20617 -2.19401 0
M  V30 7112 H 696.599 -4.613 0.00407137 0
M  V30 7113 H 694.842 -4.33738 0.0732332 0
M  V30 7114 H 695.513 -5.39395 -1.17292 0
M  V30 7115 H 697.989 -3.65139 -1.99532 0
M  V30 7116 H 696.865 -4.58798 -3.01323 0
M  V30 7117 H 697.126 -2.88403 -3.35076 0
M  V30 7118 N 696.185 0.383891 -1.52853 0
M  V30 7119 C 697.148 1.45197 -1.77343 0
M  V30 7120 C 698.148 1.47362 -0.643522 0
M  V30 7121 O 699.338 1.48443 -0.911613 0
M  V30 7122 C 696.47 2.8445 -1.87885 0
M  V30 7123 H 697.663 1.24764 -2.72716 0
M  V30 7124 H 695.216 0.615939 -1.43652 0
M  V30 7125 H 695.951 3.10222 -0.94515 0
M  V30 7126 H 695.736 2.8428 -2.70051 0
M  V30 7127 H 697.226 3.61832 -2.08488 0
M  V30 7128 N 697.663 1.43903 0.642637 0
M  V30 7129 C 698.593 1.52697 1.76652 0
M  V30 7130 C 699.574 0.380816 1.65782 0
M  V30 7131 O 700.759 0.599432 1.84717 0
M  V30 7132 C 697.889 1.45975 3.15133 0
M  V30 7133 C 696.843 2.58949 3.40778 0
M  V30 7134 C 696.169 2.37279 4.79169 0
M  V30 7135 C 697.469 4.01153 3.34475 0
M  V30 7136 H 699.163 2.46766 1.69549 0
M  V30 7137 H 696.709 1.18767 0.814279 0
M  V30 7138 H 698.662 1.5073 3.93521 0
M  V30 7139 H 697.386 0.484162 3.22991 0
M  V30 7140 H 696.045 2.53564 2.64765 0
M  V30 7141 H 695.693 1.37939 4.83717 0
M  V30 7142 H 695.393 3.13016 4.97287 0
M  V30 7143 H 696.917 2.43834 5.59801 0
M  V30 7144 H 698.331 4.07968 4.02784 0
M  V30 7145 H 696.728 4.77001 3.64129 0
M  V30 7146 H 697.798 4.25539 2.32475 0
M  V30 7147 N 699.141 -0.881989 1.30609 0
M  V30 7148 C 700.104 -1.96957 1.1722 0
M  V30 7149 C 701.104 -1.60472 0.102598 0
M  V30 7150 O 702.294 -1.70628 0.350943 0
M  V30 7151 C 699.426 -3.31463 0.796572 0
M  V30 7152 H 700.619 -2.10262 2.13846 0
M  V30 7153 H 698.172 -1.06877 1.14048 0
M  V30 7154 H 698.907 -3.23859 -0.169053 0
M  V30 7155 H 698.692 -3.59314 1.56959 0
M  V30 7156 H 700.182 -4.11233 0.72645 0
M  V30 7157 N 700.619 -1.13374 -1.09472 0
M  V30 7158 C 701.865 -0.896516 -1.81908 0
M  V30 7159 C 702.198 0.575933 -1.85463 0
M  V30 7160 O 701.473 1.42618 -1.32251 0
M  V30 7161 C 701.756 -1.48445 -3.28079 0
M  V30 7162 C 701.609 -3.02598 -3.32798 0
M  V30 7163 C 702.928 -1.15226 -4.24748 0
M  V30 7164 H 700.047 -0.327127 -0.660422 0
M  V30 7165 H 702.689 -1.40195 -1.2824 0
M  V30 7166 H 700.839 -1.0546 -3.73912 0
M  V30 7167 H 702.511 -3.54335 -2.95372 0
M  V30 7168 H 700.754 -3.37613 -2.72397 0
M  V30 7169 H 701.425 -3.38835 -4.3577 0
M  V30 7170 H 703.901 -1.52369 -3.87199 0
M  V30 7171 H 702.777 -1.59012 -5.25363 0
M  V30 7172 H 703.038 -0.0658891 -4.42051 0
M  V30 7173 N 702.098 1.27442 -0.927168 0
M  V30 7174 C 703.323 1.99036 -0.583042 0
M  V30 7175 C 703.748 1.68711 0.83176 0
M  V30 7176 O 703.106 0.927081 1.55804 0
M  V30 7177 C 703.154 3.51271 -0.814925 0
M  V30 7178 O 702.258 4.12226 0.119742 0
M  V30 7179 H 701.599 0.624883 -0.224538 0
M  V30 7180 H 704.129 1.62263 -1.24628 0
M  V30 7181 H 704.139 4.01411 -0.730282 0
M  V30 7182 H 702.814 3.72676 -1.84623 0
M  V30 7183 H 701.391 3.72897 -0.0147688 0
M  V30 7184 N 703.576 0.692616 1.41565 0
M  V30 7185 C 704.486 0.0258451 2.34586 0
M  V30 7186 C 705.502 -0.769324 1.56069 0
M  V30 7187 O 706.678 -0.707563 1.88562 0
M  V30 7188 C 703.743 -0.901289 3.3478 0
M  V30 7189 C 702.804 -0.0986579 4.29187 0
M  V30 7190 C 702.037 -0.981634 5.24595 0
M  V30 7191 O 702.26 -2.22115 5.25377 0
M  V30 7192 O 701.194 -0.432892 6.00341 0
M  V30 7193 H 705.02 0.792537 2.93177 0
M  V30 7194 H 702.605 0.452935 1.42369 0
M  V30 7195 H 704.487 -1.43302 3.96286 0
M  V30 7196 H 703.162 -1.64752 2.78637 0
M  V30 7197 H 702.069 0.477604 3.71039 0
M  V30 7198 H 703.402 0.608848 4.8842 0
M  V30 7199 N 705.054 -1.51416 0.437162 0
M  V30 7200 C 705.987 -2.24309 -0.419602 0
M  V30 7201 C 706.965 -1.26236 -1.02485 0
M  V30 7202 O 708.149 -1.5537 -1.06735 0
M  V30 7203 C 705.276 -2.99335 -1.58482 0
M  V30 7204 C 704.322 -4.12064 -1.10027 0
M  V30 7205 S 705.155 -5.35483 -0.0424476 0
M  V30 7206 C 706.311 -6.14047 -1.21234 0
M  V30 7207 H 706.544 -2.96632 0.199259 0
M  V30 7208 H 704.077 -1.528 0.22168 0
M  V30 7209 H 706.035 -3.43159 -2.25282 0
M  V30 7210 H 704.696 -2.26602 -2.17509 0
M  V30 7211 H 703.889 -4.63836 -1.97161 0
M  V30 7212 H 703.491 -3.70499 -0.510507 0
M  V30 7213 H 705.783 -6.43123 -2.13072 0
M  V30 7214 H 706.726 -7.04279 -0.734582 0
M  V30 7215 H 707.134 -5.45538 -1.45082 0
M  V30 7216 N 706.532 -0.168513 -1.56696 0
M  V30 7217 C 707.809 0.523367 -1.88468 0
M  V30 7218 C 708.189 1.81503 -1.07796 0
M  V30 7219 O 707.537 2.27859 -0.171045 0
M  V30 7220 C 707.747 0.767991 -3.40445 0
M  V30 7221 C 709.095 1.09924 -4.10124 0
M  V30 7222 O 710.119 0.856625 -3.45746 0
M  V30 7223 O 708.978 1.55681 -5.23856 0
M  V30 7224 H 706.072 0.269447 -0.781874 0
M  V30 7225 H 708.618 -0.206739 -1.68436 0
M  V30 7226 H 707.39 -0.145254 -3.9103 0
M  V30 7227 H 707.013 1.55151 -3.66079 0
M  V30 7228 N 708.01 1.57248 0.105221 0
M  V30 7229 C 709.426 1.52853 0.459153 0
M  V30 7230 C 709.626 0.883674 1.8109 0
M  V30 7231 O 708.682 0.471864 2.48052 0
M  V30 7232 C 709.995 2.97596 0.43096 0
M  V30 7233 C 711.543 3.08758 0.513536 0
M  V30 7234 C 712.018 4.55089 0.515593 0
M  V30 7235 N 713.509 4.59597 0.576639 0
M  V30 7236 C 714.244 5.70253 0.599904 0
M  V30 7237 N 713.74 6.90368 0.579985 0
M  V30 7238 N 715.533 5.58399 0.643953 0
M  V30 7239 H 707.684 1.97547 -0.780306 0
M  V30 7240 H 709.947 0.902758 -0.289363 0
M  V30 7241 H 709.653 3.48201 -0.494903 0
M  V30 7242 H 709.527 3.55756 1.2537 0
M  V30 7243 H 711.914 2.58148 1.42982 0
M  V30 7244 H 711.995 2.53568 -0.337148 0
M  V30 7245 H 711.639 5.06348 -0.396701 0
M  V30 7246 H 711.569 5.08105 1.38335 0
M  V30 7247 H 714.06 3.73144 0.597639 0
M  V30 7248 H 714.373 7.70462 0.600741 0
M  V30 7249 H 712.718 6.92843 0.547191 0
M  V30 7250 H 715.909 4.63467 0.656975 0
M  V30 7251 H 716.082 6.44644 0.658616 0
M  V30 7252 N 709.488 -0.375779 1.53054 0
M  V30 7253 C 710.734 -1.12114 1.68992 0
M  V30 7254 C 711.067 -1.8926 0.435238 0
M  V30 7255 O 710.342 -1.86044 -0.567278 0
M  V30 7256 C 710.625 -2.08867 2.93337 0
M  V30 7257 C 710.478 -1.35397 4.28938 0
M  V30 7258 C 711.797 -3.09124 3.13257 0
M  V30 7259 H 708.916 -0.406207 0.614951 0
M  V30 7260 H 711.558 -0.403054 1.85676 0
M  V30 7261 H 709.708 -2.70102 2.79244 0
M  V30 7262 H 711.38 -0.770242 4.54824 0
M  V30 7263 H 709.623 -0.655801 4.28814 0
M  V30 7264 H 710.294 -2.06161 5.12056 0
M  V30 7265 H 712.77 -2.57987 3.26469 0
M  V30 7266 H 711.646 -3.74054 4.01715 0
M  V30 7267 H 711.907 -3.78729 2.28072 0
M  V30 7268 N 710.966 -1.44241 -0.634997 0
M  V30 7269 C 712.194 -1.50296 -1.42193 0
M  V30 7270 C 712.609 -0.12658 -1.88375 0
M  V30 7271 O 711.966 0.86678 -1.60603 0
M  V30 7272 C 712.017 -2.46437 -2.64482 0
M  V30 7273 O 711.738 -3.78724 -2.20226 0
M  V30 7274 C 713.239 -2.61918 -3.57651 0
M  V30 7275 H 710.459 -0.509865 -0.43621 0
M  V30 7276 H 713.003 -1.89167 -0.776921 0
M  V30 7277 H 711.158 -2.10712 -3.25083 0
M  V30 7278 H 711.572 -4.30595 -2.9948 0
M  V30 7279 H 713.046 -3.33225 -4.40074 0
M  V30 7280 H 713.523 -1.67017 -4.06204 0
M  V30 7281 H 714.129 -2.98528 -3.02921 0
M  V30 7282 N 712.444 0.87505 -1.31075 0
M  V30 7283 C 713.376 1.98773 -1.14114 0
M  V30 7284 C 714.389 1.62595 -0.0816119 0
M  V30 7285 O 715.578 1.75449 -0.32861 0
M  V30 7286 C 712.678 3.31159 -0.720224 0
M  V30 7287 C 711.851 3.9571 -1.86366 0
M  V30 7288 C 710.91 5.06407 -1.42965 0
M  V30 7289 O 709.936 5.27501 -2.13848 0
M  V30 7290 N 711.138 5.79649 -0.314194 0
M  V30 7291 H 713.903 2.1387 -2.09951 0
M  V30 7292 H 711.464 1.04873 -1.23342 0
M  V30 7293 H 713.456 4.0259 -0.412687 0
M  V30 7294 H 712.026 3.12257 0.146396 0
M  V30 7295 H 711.246 3.17324 -2.33879 0
M  V30 7296 H 712.534 4.35576 -2.62966 0
M  V30 7297 H 711.932 5.65025 0.276228 0
M  V30 7298 H 710.489 6.51766 -0.0661641 0
M  V30 7299 N 713.922 1.13953 1.08869 0
M  V30 7300 C 714.854 0.779906 2.15523 0
M  V30 7301 C 715.867 -0.20102 1.61554 0
M  V30 7302 O 717.056 0.0200049 1.78489 0
M  V30 7303 C 714.156 0.136226 3.38626 0
M  V30 7304 C 713.329 1.15069 4.21993 0
M  V30 7305 C 712.388 0.531645 5.23507 0
M  V30 7306 O 711.414 1.19327 5.56552 0
M  V30 7307 N 712.616 -0.693734 5.7634 0
M  V30 7308 H 715.381 1.69769 2.46979 0
M  V30 7309 H 712.942 1.03331 1.24637 0
M  V30 7310 H 714.934 -0.290295 4.03658 0
M  V30 7311 H 713.504 -0.684603 3.05011 0
M  V30 7312 H 712.724 1.75431 3.53012 0
M  V30 7313 H 714.012 1.83614 4.74514 0
M  V30 7314 H 713.41 -1.24994 5.51718 0
M  V30 7315 H 711.967 -1.06283 6.43076 0
M  V30 7316 N 715.4 -1.26948 0.933913 0
M  V30 7317 C 716.348 -2.2862 0.428463 0
M  V30 7318 C 717.342 -1.62144 -0.490464 0
M  V30 7319 O 718.548 -1.76167 -0.36948 0
M  V30 7320 H 714.923 -0.742363 0.120003 0
M  V30 7321 H 716.894 -2.68659 1.29865 0
M  V30 7322 C 715.643 -3.46423 -0.29774 0
M  V30 7323 H 714.966 -3.97792 0.400183 0
M  V30 7324 H 716.406 -4.19505 -0.615736 0
M  V30 7325 C 714.865 -3.01017 -1.51295 0
M  V30 7326 O 715.395 -3.05226 -2.61151 0
M  V30 7327 N 713.601 -2.56442 -1.36696 0
M  V30 7328 H 713.148 -2.53217 -0.473178 0
M  V30 7329 H 713.106 -2.26424 -2.18127 0
M  V30 7330 N 716.879 -0.700114 -1.41195 0
M  V30 7331 C 717.842 -0.0465706 -2.29153 0
M  V30 7332 C 718.842 0.703302 -1.44604 0
M  V30 7333 O 720.032 0.537513 -1.657 0
M  V30 7334 C 717.164 0.944324 -3.2756 0
M  V30 7335 H 718.357 -0.821064 -2.88442 0
M  V30 7336 H 715.91 -0.463869 -1.49258 0
M  V30 7337 H 716.645 1.74642 -2.73259 0
M  V30 7338 H 716.43 0.409701 -3.89954 0
M  V30 7339 H 717.92 1.39925 -3.9346 0
M  V30 7340 N 718.357 1.51182 -0.445186 0
M  V30 7341 C 719.582 2.07056 0.119445 0
M  V30 7342 C 720.007 1.30966 1.35016 0
M  V30 7343 O 719.365 0.349827 1.77893 0
M  V30 7344 C 719.413 3.58234 0.412428 0
M  V30 7345 O 718.517 3.84249 1.49754 0
M  V30 7346 H 717.858 0.663998 -0.00157797 0
M  V30 7347 H 720.388 1.94699 -0.628779 0
M  V30 7348 H 720.398 4.02617 0.660583 0
M  V30 7349 H 719.073 4.13038 -0.487049 0
M  V30 7350 H 717.65 3.51724 1.23873 0
M  V30 7351 N 719.835 0.176821 1.56605 0
M  V30 7352 C 720.765 -0.746841 2.21234 0
M  V30 7353 C 721.746 -1.23502 1.16967 0
M  V30 7354 O 722.931 -1.28718 1.45414 0
M  V30 7355 C 720.061 -1.97407 2.8574 0
M  V30 7356 C 719.015 -1.62153 3.96094 0
M  V30 7357 C 718.341 -2.92387 4.47676 0
M  V30 7358 C 719.641 -0.845353 5.15413 0
M  V30 7359 H 721.335 -0.208116 2.98676 0
M  V30 7360 H 718.881 -0.0986594 1.43662 0
M  V30 7361 H 720.834 -2.62531 3.2963 0
M  V30 7362 H 719.558 -2.53703 2.05676 0
M  V30 7363 H 718.217 -0.993964 3.52868 0
M  V30 7364 H 717.865 -3.46734 3.64396 0
M  V30 7365 H 717.565 -2.69551 5.22127 0
M  V30 7366 H 719.089 -3.5853 4.94255 0
M  V30 7367 H 720.503 -1.39929 5.55961 0
M  V30 7368 H 718.9 -0.715814 5.95815 0
M  V30 7369 H 719.97 0.157239 4.84645 0
M  V30 7370 N 721.313 -1.57302 -0.09688 0
M  V30 7371 C 722.559 -1.86273 -0.801885 0
M  V30 7372 C 722.892 -0.765694 -1.78468 0
M  V30 7373 O 722.167 0.226495 -1.93177 0
M  V30 7374 C 722.45 -3.25876 -1.53221 0
M  V30 7375 C 722.303 -4.46205 -0.567529 0
M  V30 7376 C 723.622 -3.63352 -2.48321 0
M  V30 7377 H 720.741 -0.67752 -0.29006 0
M  V30 7378 H 723.383 -1.89887 -0.0655577 0
M  V30 7379 H 721.533 -3.22926 -2.15988 0
M  V30 7380 H 723.205 -4.6127 0.0529982 0
M  V30 7381 H 721.448 -4.33636 0.119233 0
M  V30 7382 H 722.119 -5.40608 -1.11564 0
M  V30 7383 H 724.595 -3.67234 -1.95648 0
M  V30 7384 H 723.471 -4.61968 -2.9644 0
M  V30 7385 H 723.732 -2.91941 -3.31998 0
M  V30 7386 N 722.791 0.367657 -1.53252 0
M  V30 7387 C 723.723 1.47032 -1.75824 0
M  V30 7388 C 724.736 1.49736 -0.63898 0
M  V30 7389 O 725.925 1.53253 -0.915193 0
M  V30 7390 C 723.025 2.85805 -1.82122 0
M  V30 7391 C 722.198 3.06822 -3.11736 0
M  V30 7392 C 721.257 4.25698 -3.09302 0
M  V30 7393 O 720.283 4.20972 -3.83107 0
M  V30 7394 N 721.485 5.33002 -2.29977 0
M  V30 7395 H 724.25 1.28048 -2.70968 0
M  V30 7396 H 721.811 0.557363 -1.52004 0
M  V30 7397 H 723.803 3.63465 -1.77975 0
M  V30 7398 H 722.373 2.98046 -0.942716 0
M  V30 7399 H 721.593 2.1684 -3.29202 0
M  V30 7400 H 722.881 3.17731 -3.97397 0
M  V30 7401 H 722.279 5.39703 -1.69521 0
M  V30 7402 H 720.836 6.09247 -2.3165 0
M  V30 7403 N 724.269 1.44576 0.627338 0
M  V30 7404 C 725.179 1.54232 1.76776 0
M  V30 7405 C 726.195 0.427782 1.6866 0
M  V30 7406 O 727.371 0.685671 1.89369 0
M  V30 7407 C 724.436 1.48738 3.13174 0
M  V30 7408 C 723.497 2.71074 3.32893 0
M  V30 7409 C 722.73 2.65832 4.62784 0
M  V30 7410 O 722.953 1.72048 5.43834 0
M  V30 7411 O 721.887 3.56742 4.84787 0
M  V30 7412 H 725.713 2.50586 1.71582 0
M  V30 7413 H 723.298 1.26865 0.789028 0
M  V30 7414 H 725.18 1.48211 3.94476 0
M  V30 7415 H 723.855 0.555292 3.18902 0
M  V30 7416 H 722.762 2.77168 2.51254 0
M  V30 7417 H 724.095 3.63342 3.32029 0
M  V30 7418 N 725.747 -0.868086 1.31537 0
M  V30 7419 C 726.972 -1.65926 1.24432 0
M  V30 7420 C 727.397 -1.87169 -0.186936 0
M  V30 7421 O 726.755 -1.4148 -1.13371 0
M  V30 7422 C 726.803 -3.00347 1.9956 0
M  V30 7423 O 725.907 -3.90221 1.33422 0
M  V30 7424 H 725.248 -0.506375 0.429512 0
M  V30 7425 H 727.778 -1.0822 1.73637 0
M  V30 7426 H 727.788 -3.50269 2.09226 0
M  V30 7427 H 726.463 -2.84205 3.03645 0
M  V30 7428 H 725.04 -3.48672 1.32219 0
M  V30 7429 N 727.225 -1.14528 -1.08264 0
M  V30 7430 C 728.188 -0.83632 -2.13397 0
M  V30 7431 C 729.188 0.159715 -1.60005 0
M  V30 7432 O 730.378 -0.0688098 -1.74064 0
M  V30 7433 C 727.51 -0.246973 -3.40004 0
M  V30 7434 H 728.703 -1.76808 -2.42237 0
M  V30 7435 H 726.256 -0.951509 -1.24 0
M  V30 7436 H 726.991 0.693436 -3.168 0
M  V30 7437 H 726.776 -0.964412 -3.80055 0
M  V30 7438 H 728.266 -0.0480679 -4.17572 0
M  V30 7439 N 728.703 1.26451 -0.940633 0
M  V30 7440 C 729.666 2.24651 -0.454378 0
M  V30 7441 C 730.666 1.54826 0.434222 0
M  V30 7442 O 731.856 1.72628 0.233477 0
M  V30 7443 C 728.988 3.39148 0.345192 0
M  V30 7444 H 730.181 2.69182 -1.32217 0
M  V30 7445 H 727.734 1.38596 -0.722547 0
M  V30 7446 H 728.469 3.00018 1.23125 0
M  V30 7447 H 728.254 3.9101 -0.292107 0
M  V30 7448 H 729.744 4.12103 0.675341 0
M  V30 7449 N 730.181 0.707592 1.40822 0
M  V30 7450 C 731.144 0.0587224 2.29125 0
M  V30 7451 C 732.144 -0.695624 1.44975 0
M  V30 7452 O 733.334 -0.528718 1.65983 0
M  V30 7453 C 730.466 -0.926939 3.28056 0
M  V30 7454 H 731.659 0.836349 2.88002 0
M  V30 7455 H 729.212 0.471778 1.4901 0
M  V30 7456 H 729.947 -1.7319 2.74182 0
M  V30 7457 H 729.732 -0.389015 3.90165 0
M  V30 7458 H 731.222 -1.37837 3.94196 0
M  V30 7459 N 731.66 -1.50943 0.453197 0
M  V30 7460 C 732.623 -2.26684 -0.338705 0
M  V30 7461 C 733.623 -1.30748 -0.936032 0
M  V30 7462 O 734.813 -1.54327 -0.808002 0
M  V30 7463 C 731.945 -3.07063 -1.48071 0
M  V30 7464 H 733.138 -2.98131 0.325289 0
M  V30 7465 H 730.691 -1.54926 0.206771 0
M  V30 7466 H 731.426 -2.4007 -2.18029 0
M  V30 7467 H 731.211 -3.77545 -1.0584 0
M  V30 7468 H 732.701 -3.64393 -2.0398 0
M  V30 7469 N 733.138 -0.185124 -1.56509 0
M  V30 7470 C 734.101 0.72591 -2.17401 0
M  V30 7471 C 735.101 1.14819 -1.12575 0
M  V30 7472 O 736.291 1.0629 -1.38015 0
M  V30 7473 C 733.423 1.98979 -2.76803 0
M  V30 7474 H 734.616 0.195588 -2.99262 0
M  V30 7475 H 732.169 0.0644772 -1.56167 0
M  V30 7476 H 732.904 2.56287 -1.98714 0
M  V30 7477 H 732.689 1.69583 -3.53531 0
M  V30 7478 H 734.179 2.63966 -3.23592 0
M  V30 7479 N 734.616 1.57351 0.0885366 0
M  V30 7480 C 735.579 2.01557 1.09121 0
M  V30 7481 C 736.579 0.910052 1.3257 0
M  V30 7482 O 737.769 1.17537 1.28572 0
M  V30 7483 C 734.901 2.38189 2.43883 0
M  V30 7484 H 736.094 2.91361 0.710562 0
M  V30 7485 H 733.647 1.52694 0.333779 0
M  V30 7486 H 734.382 1.5136 2.86811 0
M  V30 7487 H 734.167 3.18846 2.28209 0
M  V30 7488 H 735.657 2.73025 3.15986 0
M  V30 7489 N 736.094 -0.359525 1.53444 0
M  V30 7490 C 737.024 -1.44662 1.8329 0
M  V30 7491 C 738.005 -1.55617 0.68683 0
M  V30 7492 O 739.19 -1.70086 0.93725 0
M  V30 7493 C 736.32 -2.81923 2.02822 0
M  V30 7494 C 735.274 -2.85787 3.18606 0
M  V30 7495 C 734.6 -4.25781 3.23442 0
M  V30 7496 C 735.9 -2.52762 4.57065 0
M  V30 7497 H 737.594 -1.19934 2.74329 0
M  V30 7498 H 735.14 -0.575517 1.31999 0
M  V30 7499 H 737.093 -3.58005 2.22285 0
M  V30 7500 H 735.817 -3.08051 1.085 0
M  V30 7501 H 734.476 -2.12157 2.98973 0
M  V30 7502 H 734.124 -4.48994 2.26745 0
M  V30 7503 H 733.824 -4.29281 4.01238 0
M  V30 7504 H 735.348 -5.03727 3.45096 0
M  V30 7505 H 736.762 -3.18557 4.76649 0
M  V30 7506 H 735.159 -2.67569 5.37147 0
M  V30 7507 H 736.229 -1.47993 4.61764 0
M  V30 7508 N 737.572 -1.44907 -0.619662 0
M  V30 7509 C 738.482 -1.55168 -1.75955 0
M  V30 7510 C 739.498 -0.43672 -1.6843 0
M  V30 7511 O 740.674 -0.695704 -1.89002 0
M  V30 7512 C 737.739 -1.50397 -3.12381 0
M  V30 7513 C 736.8 -2.72835 -3.31451 0
M  V30 7514 C 736.033 -2.68283 -4.61368 0
M  V30 7515 O 736.256 -1.74929 -5.42914 0
M  V30 7516 O 735.19 -3.59308 -4.82889 0
M  V30 7517 H 739.016 -2.51493 -1.7025 0
M  V30 7518 H 736.601 -1.27282 -0.782289 0
M  V30 7519 H 738.483 -1.50301 -3.93685 0
M  V30 7520 H 737.158 -0.572197 -3.18603 0
M  V30 7521 H 736.065 -2.78496 -2.49781 0
M  V30 7522 H 737.398 -3.65098 -3.30098 0
M  V30 7523 N 739.05 0.861098 -1.31996 0
M  V30 7524 C 739.96 2.00154 -1.22374 0
M  V30 7525 C 740.976 1.73447 -0.138631 0
M  V30 7526 O 742.152 1.98191 -0.358104 0
M  V30 7527 C 739.217 3.33696 -0.940645 0
M  V30 7528 C 738.278 3.73668 -2.11355 0
M  V30 7529 C 737.511 5.00837 -1.84386 0
M  V30 7530 O 737.734 5.64996 -0.783287 0
M  V30 7531 O 736.668 5.37787 -2.70313 0
M  V30 7532 H 740.494 2.11207 -2.18233 0
M  V30 7533 H 738.079 0.990768 -1.11822 0
M  V30 7534 H 739.961 4.13756 -0.798987 0
M  V30 7535 H 738.636 3.23698 -0.0121636 0
M  V30 7536 H 737.543 2.94211 -2.31065 0
M  V30 7537 H 738.876 3.88303 -3.02459 0
M  V30 7538 N 740.528 1.15101 1.07655 0
M  V30 7539 C 741.46 0.802722 2.14684 0
M  V30 7540 C 742.473 -0.183874 1.61758 0
M  V30 7541 O 743.662 0.0389349 1.78458 0
M  V30 7542 C 740.762 0.172135 3.38463 0
M  V30 7543 C 739.935 1.19538 4.20749 0
M  V30 7544 C 738.994 0.58714 5.22914 0
M  V30 7545 O 738.02 1.25224 5.55255 0
M  V30 7546 N 739.222 -0.632566 5.77043 0
M  V30 7547 H 741.987 1.72379 2.45164 0
M  V30 7548 H 739.548 1.04647 1.23534 0
M  V30 7549 H 741.54 -0.247465 4.03943 0
M  V30 7550 H 740.11 -0.652214 3.0572 0
M  V30 7551 H 739.33 1.79165 3.51132 0
M  V30 7552 H 740.618 1.88636 4.7254 0
M  V30 7553 H 740.016 -1.19135 5.53013 0
M  V30 7554 H 738.573 -0.994566 6.44167 0
M  V30 7555 N 742.006 -1.2595 0.947325 0
M  V30 7556 C 742.969 -2.24407 0.466285 0
M  V30 7557 C 743.969 -1.55054 -0.426005 0
M  V30 7558 O 745.159 -1.7275 -0.224319 0
M  V30 7559 C 742.291 -3.39326 -0.327201 0
M  V30 7560 H 743.484 -2.68477 1.33642 0
M  V30 7561 H 741.037 -1.38211 0.729887 0
M  V30 7562 H 741.772 -3.00667 -1.21532 0
M  V30 7563 H 741.557 -3.9085 0.312839 0
M  V30 7564 H 743.047 -4.12455 -0.653477 0
M  V30 7565 N 743.484 -0.715051 -1.40445 0
M  V30 7566 C 744.709 -0.26254 -2.05732 0
M  V30 7567 C 745.134 1.08691 -1.53519 0
M  V30 7568 O 744.492 1.68453 -0.670328 0
M  V30 7569 C 744.54 -0.25195 -3.59719 0
M  V30 7570 O 743.644 0.766998 -4.05205 0
M  V30 7571 H 742.985 -0.123398 -0.652433 0
M  V30 7572 H 745.515 -0.975382 -1.79854 0
M  V30 7573 H 745.525 -0.0894537 -4.07902 0
M  V30 7574 H 744.2 -1.23672 -3.97087 0
M  V30 7575 H 742.777 0.572269 -3.68483 0
M  V30 7576 N 744.962 1.50701 -0.461195 0
M  V30 7577 C 746.378 1.59187 -0.114786 0
M  V30 7578 C 746.578 1.4702 1.37794 0
M  V30 7579 O 745.634 1.32361 2.15027 0
M  V30 7580 C 746.947 2.93453 -0.656167 0
M  V30 7581 C 748.495 3.06824 -0.618715 0
M  V30 7582 C 748.97 4.4365 -1.13747 0
M  V30 7583 N 750.461 4.50035 -1.09646 0
M  V30 7584 C 751.196 5.54278 -1.46846 0
M  V30 7585 N 750.692 6.65822 -1.91448 0
M  V30 7586 N 752.485 5.44767 -1.38512 0
M  V30 7587 H 744.636 1.56853 -1.43216 0
M  V30 7588 H 746.899 0.740712 -0.59165 0
M  V30 7589 H 746.605 3.07802 -1.7015 0
M  V30 7590 H 746.479 3.77082 -0.0942261 0
M  V30 7591 H 748.866 2.92129 0.417685 0
M  V30 7592 H 748.947 2.24976 -1.21734 0
M  V30 7593 H 748.591 4.59093 -2.17245 0
M  V30 7594 H 748.521 5.24074 -0.515153 0
M  V30 7595 H 751.012 3.69988 -0.769217 0
M  V30 7596 H 751.325 7.41413 -2.18007 0
M  V30 7597 H 749.67 6.66968 -1.95393 0
M  V30 7598 H 752.861 4.56511 -1.03516 0
M  V30 7599 H 753.034 6.25889 -1.6783 0
M  V30 7600 N 746.441 0.193421 1.56409 0
M  V30 7601 C 747.371 -0.723334 2.22014 0
M  V30 7602 C 748.352 -1.22254 1.1827 0
M  V30 7603 O 749.537 -1.27168 1.46771 0
M  V30 7604 C 746.667 -1.94366 2.87818 0
M  V30 7605 C 745.621 -1.57943 3.97791 0
M  V30 7606 C 744.947 -2.87623 4.50752 0
M  V30 7607 C 746.247 -0.790639 5.16281 0
M  V30 7608 H 747.941 -0.176426 2.9888 0
M  V30 7609 H 745.487 -0.0834166 1.43758 0
M  V30 7610 H 747.44 -2.5902 3.32396 0
M  V30 7611 H 746.164 -2.51507 2.08355 0
M  V30 7612 H 744.823 -0.956482 3.53903 0
M  V30 7613 H 744.471 -3.4285 3.68053 0
M  V30 7614 H 744.171 -2.63998 5.24956 0
M  V30 7615 H 745.695 -3.53268 4.9803 0
M  V30 7616 H 747.109 -1.34024 5.57414 0
M  V30 7617 H 745.506 -0.65258 5.96541 0
M  V30 7618 H 746.576 0.208633 4.84451 0
M  V30 7619 N 747.919 -1.57396 -0.0801906 0
M  V30 7620 C 749.147 -1.91055 -0.794075 0
M  V30 7621 C 749.562 -0.788583 -1.71542 0
M  V30 7622 O 748.919 0.238587 -1.80934 0
M  V30 7623 C 748.97 -3.24418 -1.59484 0
M  V30 7624 O 748.691 -4.323 -0.710532 0
M  V30 7625 C 750.192 -3.72037 -2.41046 0
M  V30 7626 H 747.412 -0.63171 -0.226238 0
M  V30 7627 H 749.956 -2.04431 -0.0529685 0
M  V30 7628 H 748.111 -3.12595 -2.2883 0
M  V30 7629 H 748.525 -5.08976 -1.26663 0
M  V30 7630 H 749.999 -4.68006 -2.92702 0
M  V30 7631 H 750.476 -3.00624 -3.2019 0
M  V30 7632 H 751.082 -3.86777 -1.76871 0
M  V30 7633 N 749.397 0.351382 -1.53633 0
M  V30 7634 C 750.329 1.45159 -1.77374 0
M  V30 7635 C 751.342 1.4905 -0.654826 0
M  V30 7636 O 752.531 1.52274 -0.931396 0
M  V30 7637 C 749.631 2.83858 -1.85143 0
M  V30 7638 C 748.804 3.03498 -3.14972 0
M  V30 7639 C 747.863 4.22393 -3.138 0
M  V30 7640 O 746.889 4.16885 -3.87551 0
M  V30 7641 N 748.091 5.30533 -2.35617 0
M  V30 7642 H 750.856 1.25167 -2.72311 0
M  V30 7643 H 748.417 0.54121 -1.52586 0
M  V30 7644 H 750.409 3.61557 -1.8182 0
M  V30 7645 H 748.979 2.9703 -0.974275 0
M  V30 7646 H 748.199 2.13336 -3.31484 0
M  V30 7647 H 749.487 3.13498 -4.00745 0
M  V30 7648 H 748.885 5.37875 -1.75235 0
M  V30 7649 H 747.442 6.06756 -2.38098 0
M  V30 7650 N 750.875 1.45233 0.611969 0
M  V30 7651 C 751.838 1.53189 1.70487 0
M  V30 7652 C 752.838 0.411839 1.55437 0
M  V30 7653 O 754.028 0.675164 1.60584 0
M  V30 7654 C 751.16 1.42422 3.09723 0
M  V30 7655 H 752.353 2.5056 1.64802 0
M  V30 7656 H 749.906 1.32609 0.827318 0
M  V30 7657 H 750.641 0.462185 3.2099 0
M  V30 7658 H 750.426 2.23658 3.22055 0
M  V30 7659 H 751.916 1.51012 3.89339 0
M  V30 7660 N 752.353 -0.854086 1.3245 0
M  V30 7661 C 753.599 -1.61069 1.23225 0
M  V30 7662 C 753.932 -1.93111 -0.205349 0
M  V30 7663 O 753.207 -1.57397 -1.14265 0
M  V30 7664 C 753.49 -2.93065 2.09249 0
M  V30 7665 C 753.343 -2.67801 3.6139 0
M  V30 7666 C 754.662 -3.94341 1.95406 0
M  V30 7667 H 751.781 -0.584449 0.448986 0
M  V30 7668 H 754.423 -0.986189 1.62402 0
M  V30 7669 H 752.573 -3.46364 1.75967 0
M  V30 7670 H 754.245 -2.21052 4.04887 0
M  V30 7671 H 752.488 -2.01756 3.84027 0
M  V30 7672 H 753.159 -3.6179 4.16907 0
M  V30 7673 H 755.635 -3.50301 2.24562 0
M  V30 7674 H 754.511 -4.84555 2.57872 0
M  V30 7675 H 754.772 -4.32382 0.921865 0
M  V30 7676 N 753.831 -1.1567 -1.07043 0
M  V30 7677 C 755.056 -0.957946 -1.83952 0
M  V30 7678 C 755.481 0.488807 -1.81638 0
M  V30 7679 O 754.839 1.34869 -1.21162 0
M  V30 7680 C 754.887 -1.48064 -3.288 0
M  V30 7681 O 753.991 -0.681921 -4.06723 0
M  V30 7682 H 753.332 -0.341453 -0.569479 0
M  V30 7683 H 755.862 -1.53728 -1.35015 0
M  V30 7684 H 755.872 -1.49484 -3.7963 0
M  V30 7685 H 754.547 -2.53388 -3.29799 0
M  V30 7686 H 753.124 -0.737612 -3.65532 0
M  V30 7687 N 755.309 1.25446 -0.953992 0
M  V30 7688 C 756.272 2.24156 -0.478179 0
M  V30 7689 C 757.272 1.55278 0.417776 0
M  V30 7690 O 758.462 1.72866 0.215155 0
M  V30 7691 C 755.594 3.39495 0.309202 0
M  V30 7692 H 756.787 2.67764 -1.35064 0
M  V30 7693 H 754.34 1.37822 -0.737206 0
M  V30 7694 H 755.075 3.01307 1.19936 0
M  V30 7695 H 754.86 3.90679 -0.333562 0
M  V30 7696 H 756.35 4.12796 0.631594 0
M  V30 7697 N 756.787 0.722489 1.40064 0
M  V30 7698 C 758.034 0.264979 2.00759 0
M  V30 7699 C 758.362 -1.14395 1.57302 0
M  V30 7700 O 757.617 -1.79165 0.787298 0
M  V30 7701 C 757.916 0.300682 3.56133 0
M  V30 7702 C 757.582 1.66087 4.19197 0
M  V30 7703 C 756.244 2.03319 4.36136 0
M  V30 7704 C 758.596 2.55452 4.54306 0
M  V30 7705 C 755.924 3.29448 4.8547 0
M  V30 7706 C 758.276 3.8094 5.05042 0
M  V30 7707 C 756.94 4.1828 5.2019 0
M  V30 7708 H 756.21 0.0969625 0.734629 0
M  V30 7709 H 758.857 0.926877 1.67575 0
M  V30 7710 H 757.162 -0.44479 3.89267 0
M  V30 7711 H 758.859 -0.0712542 4.00937 0
M  V30 7712 H 755.449 1.36137 4.06405 0
M  V30 7713 H 759.633 2.27961 4.40849 0
M  V30 7714 H 754.889 3.58338 4.95382 0
M  V30 7715 H 759.063 4.50351 5.31184 0
M  V30 7716 H 756.69 5.16081 5.58179 0
M  V30 7717 N 758.265 -1.50454 0.469181 0
M  V30 7718 C 759.681 -1.59124 0.123226 0
M  V30 7719 C 759.881 -1.47749 -1.37013 0
M  V30 7720 O 758.937 -1.335 -2.14322 0
M  V30 7721 C 760.25 -2.93101 0.67172 0
M  V30 7722 C 761.798 -3.06491 0.634978 0
M  V30 7723 C 762.273 -4.43041 1.16098 0
M  V30 7724 N 763.764 -4.49448 1.12031 0
M  V30 7725 C 764.499 -5.53491 1.49784 0
M  V30 7726 N 763.995 -6.64798 1.94976 0
M  V30 7727 N 765.788 -5.44025 1.41399 0
M  V30 7728 H 757.939 -1.56091 1.44046 0
M  V30 7729 H 760.202 -0.737564 0.59557 0
M  V30 7730 H 759.908 -3.06895 1.7178 0
M  V30 7731 H 759.782 -3.77027 0.114222 0
M  V30 7732 H 762.169 -2.92346 -0.402187 0
M  V30 7733 H 762.25 -2.24328 1.22926 0
M  V30 7734 H 761.894 -4.57935 2.19677 0
M  V30 7735 H 761.824 -5.23794 0.542939 0
M  V30 7736 H 764.315 -3.69575 0.788828 0
M  V30 7737 H 764.628 -7.40246 2.21936 0
M  V30 7738 H 762.973 -6.65923 1.98927 0
M  V30 7739 H 766.164 -4.55955 1.05935 0
M  V30 7740 H 766.337 -6.2499 1.71147 0
M  V30 7741 N 759.743 -0.201713 -1.56304 0
M  V30 7742 C 760.673 0.71155 -2.22394 0
M  V30 7743 C 761.654 1.21625 -1.18917 0
M  V30 7744 O 762.839 1.26388 -1.47444 0
M  V30 7745 C 759.969 1.92837 -2.88845 0
M  V30 7746 C 758.923 1.55831 -3.98623 0
M  V30 7747 C 758.249 2.85228 -4.52271 0
M  V30 7748 C 759.549 0.763249 -5.16693 0
M  V30 7749 H 761.243 0.160573 -2.98969 0
M  V30 7750 H 758.789 0.0757916 -1.438 0
M  V30 7751 H 760.742 2.57253 -3.33764 0
M  V30 7752 H 759.466 2.50398 -2.09686 0
M  V30 7753 H 758.125 0.9377 -3.54405 0
M  V30 7754 H 757.773 3.40893 -3.69866 0
M  V30 7755 H 757.473 2.6121 -5.26349 0
M  V30 7756 H 758.997 3.50622 -4.99897 0
M  V30 7757 H 760.411 1.31066 -5.58117 0
M  V30 7758 H 758.808 0.620935 -5.96879 0
M  V30 7759 H 759.878 -0.234322 -4.84334 0
M  V30 7760 N 761.222 1.57436 0.0718424 0
M  V30 7761 C 762.185 2.02703 1.06977 0
M  V30 7762 C 763.185 0.924062 1.31597 0
M  V30 7763 O 764.375 1.18894 1.27318 0
M  V30 7764 C 761.507 2.40763 2.41342 0
M  V30 7765 H 762.7 2.92098 0.679619 0
M  V30 7766 H 760.253 1.5304 0.317565 0
M  V30 7767 H 760.988 1.54394 2.8519 0
M  V30 7768 H 760.773 3.21249 2.24814 0
M  V30 7769 H 762.263 2.76361 3.13073 0
M  V30 7770 N 762.7 -0.34323 1.53817 0
M  V30 7771 C 763.925 -1.1079 1.75329 0
M  V30 7772 C 764.35 -1.81571 0.491293 0
M  V30 7773 O 763.708 -1.72561 -0.556089 0
M  V30 7774 C 763.756 -2.09681 2.9337 0
M  V30 7775 O 762.86 -3.17207 2.63541 0
M  V30 7776 H 762.201 -0.320402 0.581583 0
M  V30 7777 H 764.731 -0.393525 2.0078 0
M  V30 7778 H 764.741 -2.52897 3.20168 0
M  V30 7779 H 763.416 -1.5756 3.84899 0
M  V30 7780 H 761.993 -2.78806 2.47632 0
M  V30 7781 N 764.178 -1.45556 -0.604258 0
M  V30 7782 C 765.594 -1.30035 -0.925368 0
M  V30 7783 C 765.794 -0.255833 -1.99869 0
M  V30 7784 O 764.85 0.349076 -2.50075 0
M  V30 7785 C 766.163 -2.68028 -1.36314 0
M  V30 7786 C 767.711 -2.75951 -1.47717 0
M  V30 7787 C 768.186 -4.14476 -1.94868 0
M  V30 7788 N 769.677 -4.16787 -2.02097 0
M  V30 7789 C 770.412 -5.20845 -2.39809 0
M  V30 7790 N 769.908 -6.35246 -2.76467 0
M  V30 7791 N 771.701 -5.08204 -2.40177 0
M  V30 7792 H 763.852 -2.1214 0.10512 0
M  V30 7793 H 766.115 -0.947871 -0.0156303 0
M  V30 7794 H 765.821 -3.45667 -0.648628 0
M  V30 7795 H 765.695 -2.96711 -2.329 0
M  V30 7796 H 768.082 -1.98613 -2.18258 0
M  V30 7797 H 768.163 -2.50977 -0.494371 0
M  V30 7798 H 767.807 -4.923 -1.24912 0
M  V30 7799 H 767.737 -4.36843 -2.94068 0
M  V30 7800 H 770.228 -3.34233 -1.76343 0
M  V30 7801 H 770.541 -7.10438 -3.04134 0
M  V30 7802 H 768.886 -6.38642 -2.74155 0
M  V30 7803 H 772.077 -4.17874 -2.10947 0
M  V30 7804 H 772.25 -5.89417 -2.69242 0
M  V30 7805 N 765.656 0.84705 -1.32902 0
M  V30 7806 C 767.067 1.41785 -1.21466 0
M  V30 7807 C 767.418 1.95464 0.169767 0
M  V30 7808 O 766.543 1.88157 1.06892 0
M  V30 7809 C 767.138 2.57734 -2.19906 0
M  V30 7810 C 765.697 3.10791 -2.12334 0
M  V30 7811 C 764.844 1.83562 -2.07847 0
M  V30 7812 H 767.795 0.653532 -1.44619 0
M  V30 7813 H 767.816 3.35123 -1.80202 0
M  V30 7814 H 767.328 2.18635 -3.20656 0
M  V30 7815 H 765.429 3.54455 -1.14858 0
M  V30 7816 H 765.542 3.71519 -3.02506 0
M  V30 7817 H 763.906 2.03475 -1.53199 0
M  V30 7818 H 764.689 1.4667 -3.10392 0
M  V30 7819 N 767.134 1.16236 1.06428 0
M  V30 7820 C 768.064 0.890807 2.1584 0
M  V30 7821 C 769.045 -0.162333 1.69324 0
M  V30 7822 O 770.23 -0.0147191 1.94194 0
M  V30 7823 C 767.36 0.389615 3.45108 0
M  V30 7824 C 766.314 1.38051 4.05125 0
M  V30 7825 C 765.64 0.737773 5.29586 0
M  V30 7826 C 766.94 2.74965 4.44062 0
M  V30 7827 H 768.634 1.80577 2.38814 0
M  V30 7828 H 766.18 0.869657 1.14774 0
M  V30 7829 H 768.133 0.187127 4.20984 0
M  V30 7830 H 766.857 -0.560851 3.21748 0
M  V30 7831 H 765.516 1.56952 3.31303 0
M  V30 7832 H 765.164 -0.219135 5.02522 0
M  V30 7833 H 764.864 1.39914 5.70699 0
M  V30 7834 H 766.388 0.545275 6.0816 0
M  V30 7835 H 767.802 2.59855 5.11027 0
M  V30 7836 H 766.199 3.37563 4.96156 0
M  V30 7837 H 767.269 3.30321 3.54987 0
M  V30 7838 N 768.612 -1.24939 0.960631 0
M  V30 7839 C 769.575 -2.239 0.49006 0
M  V30 7840 C 770.575 -1.55497 -0.409535 0
M  V30 7841 O 771.765 -1.72978 -0.205984 0
M  V30 7842 C 768.897 -3.39654 -0.291193 0
M  V30 7843 H 770.09 -2.67044 1.36482 0
M  V30 7844 H 767.643 -1.37429 0.744505 0
M  V30 7845 H 768.378 -3.01939 -1.18336 0
M  V30 7846 H 768.163 -3.90496 0.354276 0
M  V30 7847 H 769.653 -4.13125 -0.609693 0
M  V30 7848 N 770.09 -0.729906 -1.39679 0
M  V30 7849 C 771.336 -0.27603 -2.00913 0
M  V30 7850 C 771.669 1.13227 -1.57776 0
M  V30 7851 O 770.944 1.7709 -0.804319 0
M  V30 7852 C 771.227 -0.372157 -3.58172 0
M  V30 7853 C 771.08 -1.81986 -4.11341 0
M  V30 7854 C 772.399 0.248378 -4.39399 0
M  V30 7855 H 769.518 -0.101773 -0.729939 0
M  V30 7856 H 772.16 -0.925104 -1.65957 0
M  V30 7857 H 770.31 0.180459 -3.88081 0
M  V30 7858 H 771.982 -2.42896 -3.92172 0
M  V30 7859 H 770.225 -2.34287 -3.65092 0
M  V30 7860 H 770.896 -1.83842 -5.20486 0
M  V30 7861 H 773.372 -0.222645 -4.15504 0
M  V30 7862 H 772.248 0.150746 -5.48693 0
M  V30 7863 H 772.509 1.33378 -4.21501 0
M  V30 7864 N 771.568 1.50203 -0.477153 0
M  V30 7865 C 772.516 2.30278 0.327826 0
M  V30 7866 C 773.51 1.37831 0.984839 0
M  V30 7867 O 774.716 1.54994 0.915251 0
M  V30 7868 H 771.091 0.741612 0.124564 0
M  V30 7869 H 773.062 2.96124 -0.367853 0
M  V30 7870 C 771.811 3.18548 1.39365 0
M  V30 7871 H 771.134 3.89596 0.897475 0
M  V30 7872 H 772.574 3.77561 1.92934 0
M  V30 7873 C 771.033 2.36548 2.39889 0
M  V30 7874 O 771.563 2.05282 3.45286 0
M  V30 7875 N 769.769 1.99015 2.11758 0
M  V30 7876 H 769.316 2.24641 1.26071 0
M  V30 7877 H 769.274 1.44454 2.7925 0
M  V30 7878 N 773.046 0.209999 1.56195 0
M  V30 7879 C 773.993 -0.704854 2.19774 0
M  V30 7880 C 774.963 -1.19886 1.14964 0
M  V30 7881 O 776.148 -1.26005 1.43274 0
M  V30 7882 C 773.288 -1.91241 2.87265 0
M  V30 7883 C 772.401 -1.45838 4.06639 0
M  V30 7884 C 771.536 -2.6226 4.61945 0
M  V30 7885 C 770.575 -2.13537 5.73645 0
M  V30 7886 N 769.712 -3.2319 6.23292 0
M  V30 7887 H 774.552 -0.155944 2.97592 0
M  V30 7888 H 772.089 -0.0652235 1.46955 0
M  V30 7889 H 774.047 -2.62123 3.24573 0
M  V30 7890 H 772.677 -2.43439 2.11985 0
M  V30 7891 H 771.729 -0.644897 3.74894 0
M  V30 7892 H 773.041 -1.06103 4.87384 0
M  V30 7893 H 772.195 -3.41243 5.01636 0
M  V30 7894 H 770.934 -3.05278 3.80338 0
M  V30 7895 H 769.939 -1.33013 5.33468 0
M  V30 7896 H 771.164 -1.71533 6.57079 0
M  V30 7897 H 769.11 -3.65711 5.44602 0
M  V30 7898 H 769.027 -2.8767 6.99129 0
M  V30 7899 H 770.295 -4.02342 6.67639 0
M  V30 7900 N 774.524 -1.57472 -0.0634922 0
M  V30 7901 C 775.935 -1.76303 -0.614337 0
M  V30 7902 C 776.286 -0.836578 -1.77471 0
M  V30 7903 O 775.411 -0.0227184 -2.16388 0
M  V30 7904 C 776.006 -3.19709 -1.12122 0
M  V30 7905 C 774.565 -3.39856 -1.61786 0
M  V30 7906 C 773.712 -2.71975 -0.540845 0
M  V30 7907 H 776.663 -1.57864 0.162702 0
M  V30 7908 H 776.684 -3.24326 -1.98979 0
M  V30 7909 H 776.196 -3.87114 -0.276472 0
M  V30 7910 H 774.297 -2.77578 -2.48558 0
M  V30 7911 H 774.41 -4.48338 -1.68908 0
M  V30 7912 H 772.774 -2.34763 -0.987854 0
M  V30 7913 H 773.557 -3.4204 0.293856 0
M  V30 7914 N 776.003 0.335068 -1.53997 0
M  V30 7915 C 776.913 1.43511 -1.85585 0
M  V30 7916 C 777.929 1.57162 -0.746726 0
M  V30 7917 O 779.105 1.72477 -1.03988 0
M  V30 7918 C 776.17 2.78386 -2.06646 0
M  V30 7919 C 775.231 2.74007 -3.30483 0
M  V30 7920 C 774.464 4.02449 -3.50529 0
M  V30 7921 O 774.687 5.00147 -2.74242 0
M  V30 7922 O 773.621 4.06405 -4.4398 0
M  V30 7923 H 777.447 1.19731 -2.79102 0
M  V30 7924 H 775.032 0.528033 -1.39758 0
M  V30 7925 H 776.914 3.58247 -2.21894 0
M  V30 7926 H 775.589 3.0208 -1.16317 0
M  V30 7927 H 774.496 1.92736 -3.2063 0
M  V30 7928 H 775.829 2.55267 -4.20832 0
M  V30 7929 N 777.481 1.45874 0.596531 0
M  V30 7930 C 778.414 1.49889 1.72071 0
M  V30 7931 C 779.392 0.354224 1.58695 0
M  V30 7932 O 780.576 0.556355 1.80103 0
M  V30 7933 C 777.703 1.3644 3.10003 0
M  V30 7934 C 776.749 2.54913 3.41938 0
M  V30 7935 S 777.582 4.17336 3.35545 0
M  V30 7936 C 778.738 4.06372 4.76039 0
M  V30 7937 H 778.971 2.45005 1.68404 0
M  V30 7938 H 776.504 1.33592 0.77412 0
M  V30 7939 H 778.462 1.29368 3.89582 0
M  V30 7940 H 777.123 0.427762 3.11174 0
M  V30 7941 H 776.316 2.41458 4.42396 0
M  V30 7942 H 775.918 2.58904 2.69898 0
M  V30 7943 H 778.21 3.72199 5.66105 0
M  V30 7944 H 779.153 5.0678 4.9455 0
M  V30 7945 H 779.561 3.37846 4.52239 0
M  V30 7946 N 778.959 -0.83999 1.33349 0
M  V30 7947 C 780.375 -1.13049 1.12659 0
M  V30 7948 C 780.575 -2.01328 -0.0832613 0
M  V30 7949 O 779.631 -2.40669 -0.763856 0
M  V30 7950 C 780.944 -1.79366 2.41347 0
M  V30 7951 C 782.492 -1.91937 2.47243 0
M  V30 7952 C 782.967 -2.6167 3.75889 0
M  V30 7953 N 784.458 -2.69184 3.76954 0
M  V30 7954 C 785.193 -3.23827 4.73206 0
M  V30 7955 N 784.689 -3.79166 5.79832 0
M  V30 7956 N 786.482 -3.22068 4.60683 0
M  V30 7957 H 778.633 -0.252432 2.10895 0
M  V30 7958 H 780.896 -0.174501 0.931801 0
M  V30 7959 H 780.602 -1.2196 3.29877 0
M  V30 7960 H 780.476 -2.79396 2.53412 0
M  V30 7961 H 782.863 -2.48498 1.59163 0
M  V30 7962 H 782.944 -0.908604 2.39119 0
M  V30 7963 H 782.588 -2.05769 4.64351 0
M  V30 7964 H 782.518 -3.63217 3.81289 0
M  V30 7965 H 785.009 -2.2994 2.99893 0
M  V30 7966 H 785.322 -4.19061 6.49313 0
M  V30 7967 H 783.667 -3.77457 5.83568 0
M  V30 7968 H 786.858 -2.78092 3.7654 0
M  V30 7969 H 787.031 -3.64351 5.35866 0
M  V30 7970 N 780.437 -1.16799 -1.0581 0
M  V30 7971 C 781.367 -0.902241 -2.15364 0
M  V30 7972 C 782.348 0.153351 -1.69407 0
M  V30 7973 O 783.533 0.00442032 -1.94199 0
M  V30 7974 C 780.663 -0.407911 -3.44896 0
M  V30 7975 C 779.617 -1.40197 -4.04387 0
M  V30 7976 C 778.943 -0.765848 -5.29187 0
M  V30 7977 C 780.243 -2.77316 -4.42598 0
M  V30 7978 H 781.937 -1.81841 -2.37853 0
M  V30 7979 H 779.483 -0.875731 -1.14311 0
M  V30 7980 H 781.436 -0.20945 -4.20879 0
M  V30 7981 H 780.16 0.54378 -3.22041 0
M  V30 7982 H 778.819 -1.58707 -3.30466 0
M  V30 7983 H 778.467 0.192482 -5.02632 0
M  V30 7984 H 778.167 -1.42939 -5.69949 0
M  V30 7985 H 779.691 -0.577519 -6.07863 0
M  V30 7986 H 781.105 -2.62561 -5.09642 0
M  V30 7987 H 779.502 -3.4019 -4.94359 0
M  V30 7988 H 780.572 -3.32199 -3.53231 0
M  V30 7989 N 781.915 1.24427 -0.967243 0
M  V30 7990 C 783.14 1.9708 -0.646069 0
M  V30 7991 C 783.565 1.71272 0.777665 0
M  V30 7992 O 782.923 0.976179 1.52776 0
M  V30 7993 C 782.971 3.48501 -0.926266 0
M  V30 7994 O 782.075 4.12398 -0.0114653 0
M  V30 7995 H 781.416 0.617423 -0.244304 0
M  V30 7996 H 783.946 1.58215 -1.29727 0
M  V30 7997 H 783.956 3.98885 -0.857619 0
M  V30 7998 H 782.631 3.66613 -1.96386 0
M  V30 7999 H 781.208 3.72661 -0.133396 0
M  V30 8000 N 783.393 0.737304 1.3929 0
M  V30 8001 C 784.639 0.286681 2.00763 0
M  V30 8002 C 784.972 -1.12388 1.58375 0
M  V30 8003 O 784.247 -1.76661 0.813699 0
M  V30 8004 C 784.53 0.391147 3.57969 0
M  V30 8005 C 784.383 1.84165 4.1037 0
M  V30 8006 C 785.702 -0.225072 4.39524 0
M  V30 8007 H 782.821 0.105642 0.729389 0
M  V30 8008 H 785.463 0.933892 1.65464 0
M  V30 8009 H 783.613 -0.159875 3.88171 0
M  V30 8010 H 785.285 2.44972 3.90879 0
M  V30 8011 H 783.528 2.3622 3.63844 0
M  V30 8012 H 784.199 1.866 5.19504 0
M  V30 8013 H 786.675 0.244677 4.1538 0
M  V30 8014 H 785.551 -0.121646 5.48765 0
M  V30 8015 H 785.812 -1.31141 4.22202 0
M  V30 8016 N 784.871 -1.49948 0.485112 0
M  V30 8017 C 785.819 -2.30449 -0.315609 0
M  V30 8018 C 786.813 -1.38351 -0.977516 0
M  V30 8019 O 788.019 -1.55477 -0.907019 0
M  V30 8020 H 784.394 -0.742262 -0.120629 0
M  V30 8021 H 786.365 -2.95925 0.383552 0
M  V30 8022 C 785.114 -3.19283 -1.37673 0
M  V30 8023 H 784.437 -3.90067 -0.876801 0
M  V30 8024 H 785.877 -3.78579 -1.90929 0
M  V30 8025 C 784.336 -2.37817 -2.38631 0
M  V30 8026 O 784.866 -2.0711 -3.44192 0
M  V30 8027 N 783.072 -2.00135 -2.107 0
M  V30 8028 H 782.619 -2.25307 -1.24878 0
M  V30 8029 H 782.577 -1.45933 -2.7848 0
M  V30 8030 N 786.349 -0.21828 -1.56081 0
M  V30 8031 C 787.312 0.679633 -2.18892 0
M  V30 8032 C 788.312 1.12405 -1.14986 0
M  V30 8033 O 789.502 1.03339 -1.40238 0
M  V30 8034 C 786.634 1.93063 -2.80962 0
M  V30 8035 H 787.827 0.132066 -2.99609 0
M  V30 8036 H 785.38 0.0313374 -1.56269 0
M  V30 8037 H 786.115 2.52015 -2.04106 0
M  V30 8038 H 785.9 1.62046 -3.57048 0
M  V30 8039 H 787.39 2.57043 -3.29118 0
M  V30 8040 N 787.827 1.57504 0.0551401 0
M  V30 8041 C 788.759 2.0158 1.09078 0
M  V30 8042 C 789.772 0.92434 1.34014 0
M  V30 8043 O 790.961 1.20202 1.31961 0
M  V30 8044 C 788.061 2.35385 2.43818 0
M  V30 8045 C 787.234 3.66588 2.38605 0
M  V30 8046 C 786.293 3.87874 3.55585 0
M  V30 8047 O 785.319 4.59259 3.36258 0
M  V30 8048 N 786.521 3.31503 4.76536 0
M  V30 8049 H 789.286 2.91039 0.71529 0
M  V30 8050 H 786.847 1.60058 0.243532 0
M  V30 8051 H 788.839 2.46784 3.20749 0
M  V30 8052 H 787.409 1.51731 2.73307 0
M  V30 8053 H 786.629 3.65787 1.46947 0
M  V30 8054 H 787.917 4.52706 2.32239 0
M  V30 8055 H 787.315 2.73592 4.9514 0
M  V30 8056 H 785.872 3.48324 5.50921 0
M  V30 8057 N 789.305 -0.326896 1.54172 0
M  V30 8058 C 790.53 -1.08924 1.76494 0
M  V30 8059 C 790.955 -1.81039 0.510523 0
M  V30 8060 O 790.313 -1.73141 -0.537756 0
M  V30 8061 C 790.361 -2.06558 2.95578 0
M  V30 8062 O 789.465 -3.14394 2.6689 0
M  V30 8063 H 788.806 -0.314216 0.584948 0
M  V30 8064 H 791.336 -0.372207 2.01186 0
M  V30 8065 H 791.346 -2.49487 3.22832 0
M  V30 8066 H 790.021 -1.53469 3.86549 0
M  V30 8067 H 788.598 -2.76164 2.50576 0
M  V30 8068 N 790.784 -1.46188 -0.588786 0
M  V30 8069 C 792.032 -1.50885 -1.34455 0
M  V30 8070 C 792.353 -0.159555 -1.94346 0
M  V30 8071 O 791.623 0.813239 -1.78222 0
M  V30 8072 H 790.203 -0.555707 -0.499198 0
M  V30 8073 H 792.865 -1.82277 -0.690014 0
M  V30 8074 H 791.961 -2.25816 -2.15438 0
M  V30 8075 N 792.262 0.832906 -1.33792 0
M  V30 8076 C 793.21 1.96455 -1.24532 0
M  V30 8077 C 794.204 1.68774 -0.145455 0
M  V30 8078 O 795.41 1.77314 -0.309797 0
M  V30 8079 H 791.785 0.645008 -0.386611 0
M  V30 8080 H 793.756 2.01389 -2.20193 0
M  V30 8081 C 792.505 3.32784 -1.00748 0
M  V30 8082 H 791.828 3.54626 -1.84609 0
M  V30 8083 H 793.268 4.12447 -0.98301 0
M  V30 8084 C 791.727 3.35654 0.289475 0
M  V30 8085 O 792.257 3.80281 1.29419 0
M  V30 8086 N 790.463 2.88843 0.3191 0
M  V30 8087 H 790.01 2.52719 -0.499069 0
M  V30 8088 H 789.968 2.91145 1.18667 0
M  V30 8089 N 793.74 1.17359 1.05189 0
M  V30 8090 C 794.968 0.986529 1.81866 0
M  V30 8091 C 795.383 -0.46522 1.82979 0
M  V30 8092 O 794.74 -1.32305 1.25705 0
M  V30 8093 C 794.791 1.52021 3.27982 0
M  V30 8094 O 794.512 2.91511 3.27037 0
M  V30 8095 C 796.013 1.37774 4.21347 0
M  V30 8096 H 793.233 0.349021 0.573084 0
M  V30 8097 H 795.777 1.55648 1.32643 0
M  V30 8098 H 793.932 0.992287 3.74476 0
M  V30 8099 H 794.346 3.16178 4.18488 0
M  V30 8100 H 795.82 1.7993 5.21852 0
M  V30 8101 H 796.297 0.32483 4.37997 0
M  V30 8102 H 796.903 1.89583 3.80708 0
M  V30 8103 N 795.218 -1.23913 0.973828 0
M  V30 8104 C 796.629 -1.73992 0.677021 0
M  V30 8105 C 796.98 -1.78833 -0.807036 0
M  V30 8106 O 796.105 -1.42183 -1.63135 0
M  V30 8107 C 796.7 -3.15985 1.22226 0
M  V30 8108 C 795.259 -3.63547 0.975228 0
M  V30 8109 C 794.406 -2.42001 1.35392 0
M  V30 8110 H 797.357 -1.09529 1.14844 0
M  V30 8111 H 797.378 -3.75875 0.591489 0
M  V30 8112 H 796.89 -3.12429 2.30238 0
M  V30 8113 H 794.991 -3.72493 -0.0891047 0
M  V30 8114 H 795.104 -4.50693 1.62518 0
M  V30 8115 H 793.468 -2.42708 0.772334 0
M  V30 8116 H 794.251 -2.41122 2.44367 0
M  V30 8117 N 796.696 -0.74468 -1.38897 0
M  V30 8118 C 797.628 -0.0713608 -2.29089 0
M  V30 8119 C 798.641 0.693224 -1.47303 0
M  V30 8120 O 799.83 0.535785 -1.70269 0
M  V30 8121 C 796.93 0.923078 -3.26087 0
M  V30 8122 C 796.103 0.217998 -4.36856 0
M  V30 8123 C 795.162 1.12192 -5.14101 0
M  V30 8124 O 794.188 0.595771 -5.66073 0
M  V30 8125 N 795.39 2.45082 -5.26227 0
M  V30 8126 H 798.155 -0.845906 -2.87514 0
M  V30 8127 H 795.716 -0.594712 -1.50581 0
M  V30 8128 H 797.708 1.53061 -3.74639 0
M  V30 8129 H 796.278 1.59876 -2.68623 0
M  V30 8130 H 795.498 -0.570134 -3.90055 0
M  V30 8131 H 796.786 -0.270248 -5.08082 0
M  V30 8132 H 796.184 2.90294 -4.85537 0
M  V30 8133 H 794.741 3.00907 -5.78185 0
M  V30 8134 N 798.174 1.49689 -0.493057 0
M  V30 8135 C 799.399 2.07331 0.0535114 0
M  V30 8136 C 799.824 1.35196 1.30781 0
M  V30 8137 O 799.182 0.406246 1.7669 0
M  V30 8138 C 799.23 3.59364 0.29825 0
M  V30 8139 O 798.334 3.88819 1.37454 0
M  V30 8140 H 797.675 0.663612 -0.0227018 0
M  V30 8141 H 800.205 1.926 -0.690402 0
M  V30 8142 H 800.215 4.04515 0.532159 0
M  V30 8143 H 798.89 4.1128 -0.618207 0
M  V30 8144 H 797.467 3.55487 1.12621 0
M  V30 8145 N 799.652 0.226554 1.55963 0
M  V30 8146 C 800.582 -0.676079 2.23498 0
M  V30 8147 C 801.563 -1.19718 1.20837 0
M  V30 8148 O 802.748 -1.24027 1.49436 0
M  V30 8149 C 799.878 -1.88217 2.91876 0
M  V30 8150 C 798.832 -1.4947 4.01052 0
M  V30 8151 C 798.158 -2.77997 4.56751 0
M  V30 8152 C 799.458 -0.680951 5.17842 0
M  V30 8153 H 801.152 -0.112989 2.99187 0
M  V30 8154 H 798.698 -0.0529046 1.43903 0
M  V30 8155 H 800.651 -2.51911 3.37815 0
M  V30 8156 H 799.375 -2.47031 2.13643 0
M  V30 8157 H 798.034 -0.881199 3.55852 0
M  V30 8158 H 797.682 -3.34966 3.75243 0
M  V30 8159 H 797.382 -2.52803 5.30438 0
M  V30 8160 H 798.906 -3.42625 5.05411 0
M  V30 8161 H 800.32 -1.22171 5.60131 0
M  V30 8162 H 798.717 -0.525898 5.97791 0
M  V30 8163 H 799.787 0.311346 4.83899 0
M  V30 8164 N 801.13 -1.57531 -0.0467866 0
M  V30 8165 C 802.093 -2.04379 -1.03738 0
M  V30 8166 C 803.093 -0.944881 -1.3011 0
M  V30 8167 O 804.283 -1.20904 -1.25411 0
M  V30 8168 C 801.415 -2.44572 -2.37482 0
M  V30 8169 H 802.608 -2.93142 -0.633063 0
M  V30 8170 H 800.161 -1.53526 -0.293177 0
M  V30 8171 H 800.896 -1.58911 -2.82697 0
M  V30 8172 H 800.681 -3.24785 -2.19675 0
M  V30 8173 H 802.171 -2.81307 -3.08636 0
M  V30 8174 N 802.608 0.318715 -1.54344 0
M  V30 8175 C 803.571 1.37545 -1.83342 0
M  V30 8176 C 804.571 1.445 -0.705444 0
M  V30 8177 O 805.761 1.44443 -0.973752 0
M  V30 8178 C 802.893 2.76225 -1.99781 0
M  V30 8179 H 804.086 1.13084 -2.77762 0
M  V30 8180 H 801.639 0.554457 -1.46135 0
M  V30 8181 H 802.374 3.05934 -1.07588 0
M  V30 8182 H 802.159 2.7257 -2.81865 0
M  V30 8183 H 803.649 3.52664 -2.23647 0
M  V30 8184 N 804.086 1.46499 0.581025 0
M  V30 8185 C 805.502 1.31491 0.904563 0
M  V30 8186 C 805.702 0.287598 1.99437 0
M  V30 8187 O 804.758 -0.309247 2.50599 0
M  V30 8188 C 806.071 2.70163 1.32032 0
M  V30 8189 C 807.619 2.78266 1.43308 0
M  V30 8190 C 808.094 4.17524 1.8825 0
M  V30 8191 N 809.585 4.19949 1.9544 0
M  V30 8192 C 810.32 5.24594 2.31493 0
M  V30 8193 N 809.816 6.39564 2.66326 0
M  V30 8194 N 811.609 5.11961 2.32062 0
M  V30 8195 H 803.76 2.11946 -0.138856 0
M  V30 8196 H 806.023 0.948 0.000548528 0
M  V30 8197 H 805.729 3.46655 0.593554 0
M  V30 8198 H 805.603 3.00379 2.2815 0
M  V30 8199 H 807.99 2.02061 2.15071 0
M  V30 8200 H 808.071 2.51732 0.45438 0
M  V30 8201 H 807.715 4.94225 1.17065 0
M  V30 8202 H 807.645 4.41466 2.87081 0
M  V30 8203 H 810.136 3.36996 1.71004 0
M  V30 8204 H 810.449 7.15187 2.92793 0
M  V30 8205 H 808.794 6.42923 2.6396 0
M  V30 8206 H 811.985 4.21177 2.04272 0
M  V30 8207 H 812.158 5.93626 2.5983 0
M  V30 8208 N 805.565 -0.825799 1.34232 0
M  V30 8209 C 806.842 -1.56741 1.17011 0
M  V30 8210 C 807.222 -2.09512 -0.258425 0
M  V30 8211 O 806.57 -1.90664 -1.25935 0
M  V30 8212 C 806.78 -2.69104 2.22225 0
M  V30 8213 C 808.128 -3.37947 2.57055 0
M  V30 8214 O 809.152 -2.79358 2.20992 0
M  V30 8215 O 808.011 -4.43743 3.1899 0
M  V30 8216 H 805.105 -0.69163 0.453405 0
M  V30 8217 H 807.651 -0.867422 1.45856 0
M  V30 8218 H 806.423 -2.27844 3.18124 0
M  V30 8219 H 806.046 -3.46756 1.94541 0
M  V30 8220 N 807.043 -1.17915 -1.04565 0
M  V30 8221 C 808.32 -0.881187 -1.74627 0
M  V30 8222 C 808.7 0.617123 -2.01878 0
M  V30 8223 O 808.048 1.57032 -1.65991 0
M  V30 8224 C 808.258 -1.72299 -3.03503 0
M  V30 8225 C 809.606 -1.94688 -3.77335 0
M  V30 8226 O 810.63 -1.6931 -3.13389 0
M  V30 8227 O 809.489 -2.37379 -4.92253 0
M  V30 8228 H 806.583 -0.326864 -0.759664 0
M  V30 8229 H 809.129 -1.28642 -1.10676 0
M  V30 8230 H 807.901 -2.73891 -2.79462 0
M  V30 8231 H 807.524 -1.31593 -3.75192 0
M  V30 8232 N 808.521 1.23394 -0.980386 0
M  V30 8233 C 809.484 2.23092 -0.525619 0
M  V30 8234 C 810.484 1.56129 0.384745 0
M  V30 8235 O 811.674 1.73284 0.178439 0
M  V30 8236 C 808.806 3.40074 0.23712 0
M  V30 8237 H 809.999 2.64839 -1.40714 0
M  V30 8238 H 807.552 1.36227 -0.766275 0
M  V30 8239 H 808.287 3.03783 1.13518 0
M  V30 8240 H 808.072 3.89883 -0.416356 0
M  V30 8241 H 809.562 4.14043 0.543892 0
M  V30 8242 N 809.999 0.752036 1.385 0
M  V30 8243 C 810.947 0.112634 2.32327 0
M  V30 8244 C 811.941 -0.707037 1.53939 0
M  V30 8245 O 813.147 -0.606309 1.69481 0
M  V30 8246 H 809.522 0.0176275 0.751793 0
M  V30 8247 H 811.493 0.920074 2.83861 0
M  V30 8248 C 810.242 -0.767458 3.39124 0
M  V30 8249 H 809.565 -0.146122 3.99533 0
M  V30 8250 H 811.005 -1.18216 4.07187 0
M  V30 8251 C 809.464 -1.90938 2.77568 0
M  V30 8252 O 809.994 -3.00342 2.66754 0
M  V30 8253 N 808.2 -1.70396 2.35401 0
M  V30 8254 H 807.747 -0.81413 2.44397 0
M  V30 8255 H 807.705 -2.46972 1.94557 0
M  V30 8256 N 811.477 -1.49425 0.500989 0
M  V30 8257 C 812.723 -2.03369 -0.0355945 0
M  V30 8258 C 813.078 -1.37387 -1.34694 0
M  V30 8259 O 812.371 -0.500516 -1.84947 0
M  V30 8260 C 812.565 -3.56562 -0.24463 0
M  V30 8261 C 812.394 -4.37392 1.04491 0
M  V30 8262 C 811.164 -4.7941 1.59669 0
M  V30 8263 C 813.362 -4.75974 1.94817 0
M  V30 8264 N 811.344 -5.44668 2.83214 0
M  V30 8265 C 812.715 -5.4095 3.0294 0
M  V30 8266 C 814.77 -4.57915 1.95495 0
M  V30 8267 C 813.473 -5.89779 4.11768 0
M  V30 8268 C 815.499 -5.07705 3.03298 0
M  V30 8269 C 814.861 -5.72682 4.1014 0
M  V30 8270 H 810.96 -0.781507 0.0277547 0
M  V30 8271 H 813.544 -1.82594 0.675844 0
M  V30 8272 H 811.715 -3.77221 -0.925126 0
M  V30 8273 H 813.447 -3.97147 -0.778219 0
M  V30 8274 H 810.202 -4.59629 1.14185 0
M  V30 8275 H 810.626 -5.81884 3.46035 0
M  V30 8276 H 815.268 -4.07085 1.14199 0
M  V30 8277 H 812.986 -6.3963 4.93862 0
M  V30 8278 H 816.572 -4.95542 3.04843 0
M  V30 8279 H 815.452 -6.10512 4.92184 0
M  V30 8280 N 812.955 -0.234822 -1.55841 0
M  V30 8281 C 813.865 0.680828 -2.24504 0
M  V30 8282 C 814.881 1.20306 -1.25708 0
M  V30 8283 O 816.057 1.24188 -1.58554 0
M  V30 8284 C 813.122 1.86636 -2.92178 0
M  V30 8285 C 812.183 1.3848 -4.06352 0
M  V30 8286 C 811.416 2.51382 -4.70789 0
M  V30 8287 O 811.639 3.69831 -4.34259 0
M  V30 8288 O 810.573 2.21828 -5.59532 0
M  V30 8289 H 814.399 0.12583 -3.03439 0
M  V30 8290 H 811.984 -0.00381817 -1.494 0
M  V30 8291 H 813.866 2.55845 -3.34845 0
M  V30 8292 H 812.541 2.40921 -2.16192 0
M  V30 8293 H 811.448 0.660341 -3.68226 0
M  V30 8294 H 812.781 0.888177 -4.8412 0
M  V30 8295 N 814.433 1.57553 0.0384317 0
M  V30 8296 C 815.661 1.93093 0.743141 0
M  V30 8297 C 816.076 0.833787 1.69391 0
M  V30 8298 O 815.433 -0.190532 1.81503 0
M  V30 8299 C 815.484 3.28533 1.50826 0
M  V30 8300 O 815.205 4.34032 0.595665 0
M  V30 8301 C 816.706 3.78297 2.31098 0
M  V30 8302 H 813.926 0.637486 0.20941 0
M  V30 8303 H 816.47 2.045 -0.00125154 0
M  V30 8304 H 814.625 3.18552 2.20462 0
M  V30 8305 H 815.039 5.12155 1.13124 0
M  V30 8306 H 816.513 4.75602 2.80191 0
M  V30 8307 H 816.99 3.09008 3.12107 0
M  V30 8308 H 817.596 3.91331 1.66555 0
M  V30 8309 N 815.911 -0.310526 1.54511 0
M  V30 8310 C 817.158 -1.04691 1.73338 0
M  V30 8311 C 817.486 -1.87584 0.514038 0
M  V30 8312 O 816.741 -1.89096 -0.504119 0
M  V30 8313 C 817.04 -1.98942 2.96912 0
M  V30 8314 C 816.706 -1.321 4.31115 0
M  V30 8315 C 815.368 -1.13603 4.67598 0
M  V30 8316 C 817.72 -0.842362 5.14348 0
M  V30 8317 C 815.048 -0.459102 5.84901 0
M  V30 8318 C 817.4 -0.179202 6.32346 0
M  V30 8319 C 816.064 0.0178111 6.67498 0
M  V30 8320 H 815.334 -0.38309 0.634289 0
M  V30 8321 H 817.981 -0.322723 1.88761 0
M  V30 8322 H 816.286 -2.77856 2.76231 0
M  V30 8323 H 817.983 -2.55972 3.08674 0
M  V30 8324 H 814.573 -1.47502 4.02419 0
M  V30 8325 H 818.757 -0.973013 4.86668 0
M  V30 8326 H 814.013 -0.295385 6.10686 0
M  V30 8327 H 818.187 0.199619 6.96114 0
M  V30 8328 H 815.814 0.544356 7.58249 0
M  V30 8329 O 817.428 -1.54915 -0.456448 0
M  V30 8330 H 818.119 -1.58706 -1.11049 0
M  V30 END ATOM
M  V30 BEGIN BOND
M  V30 END BOND
M  V30 END CTAB
M  END
$$$$
