drugbank_target|Q96SL4 Glutathione peroxidase 7 (DB00143; DB03310)
 OpenBabel12092120083D

  0  0  0     0  0            999 V3000
M  V30 BEGIN CTAB
M  V30 COUNTS 2955 2994 0 0 0
M  V30 BEGIN ATOM
M  V30 1 H -0.908 1.98254 -0.117106 0
M  V30 2 N 0 1.576 0 0
M  V30 3 C 0.933 2.03868 1.02534 0
M  V30 4 C 1.911 0.928543 1.3348 0
M  V30 5 O 3.095 1.19667 1.45644 0
M  V30 6 C 0.222 2.43627 2.35294 0
M  V30 7 C -0.732 3.65373 2.2001 0
M  V30 8 S 0.101 5.13292 1.52614 0
M  V30 9 C 1.257 5.56322 2.86805 0
M  V30 10 H 1.49 2.90518 0.631377 0
M  V30 11 H -0.977 1.52953 0.210867 0
M  V30 12 H 0.981 2.67203 3.11629 0
M  V30 13 H -0.358 1.57376 2.7183 0
M  V30 14 H -1.165 3.90944 3.18086 0
M  V30 15 H -1.563 3.418 1.51819 0
M  V30 16 H 0.729 5.58782 3.83104 0
M  V30 17 H 1.672 6.56266 2.65933 0
M  V30 18 H 2.08 4.83886 2.90714 0
M  V30 19 N 1.4781 -0.272755 1.55222 0
M  V30 20 C 2.7241 -1.00581 1.761 0
M  V30 21 C 3.0571 -1.85932 0.560625 0
M  V30 22 O 2.3321 -1.89416 -0.441801 0
M  V30 23 C 2.6151 -1.88816 3.06628 0
M  V30 24 C 2.4681 -1.06457 4.37021 0
M  V30 25 C 3.7871 -2.8752 3.33197 0
M  V30 26 H 0.9061 -0.364244 0.640699 0
M  V30 27 H 3.5481 -0.278189 1.87952 0
M  V30 28 H 1.6981 -2.50856 2.96654 0
M  V30 29 H 3.3701 -0.464863 4.58952 0
M  V30 30 H 1.6131 -0.368043 4.32236 0
M  V30 31 H 2.2841 -1.71514 5.24678 0
M  V30 32 H 4.7601 -2.35615 3.42965 0
M  V30 33 H 3.6361 -3.46399 4.25792 0
M  V30 34 H 3.8971 -3.62657 2.52849 0
M  V30 35 N 2.9562 -1.48159 -0.537278 0
M  V30 36 C 3.9192 -1.61665 -1.62472 0
M  V30 37 C 4.9192 -0.490395 -1.5314 0
M  V30 38 O 6.1092 -0.755998 -1.5694 0
M  V30 39 C 3.2412 -1.57997 -3.02076 0
M  V30 40 H 4.4342 -2.58621 -1.51839 0
M  V30 41 H 1.9872 -1.36647 -0.758771 0
M  V30 42 H 2.7222 -0.624913 -3.18222 0
M  V30 43 H 2.5072 -2.39755 -3.10258 0
M  V30 44 H 3.9972 -1.70627 -3.81151 0
M  V30 45 N 4.4343 0.785586 -1.36625 0
M  V30 46 C 5.3973 1.87999 -1.31107 0
M  V30 47 C 6.3973 1.59316 -0.217959 0
M  V30 48 O 7.5873 1.67656 -0.472977 0
M  V30 49 C 4.7193 3.24861 -1.03334 0
M  V30 50 H 5.9123 1.94307 -2.2844 0
M  V30 51 H 3.4653 0.983813 -1.21453 0
M  V30 52 H 4.2003 3.24235 -0.0647432 0
M  V30 53 H 3.9853 3.4707 -1.82441 0
M  V30 54 H 5.4753 4.04929 -1.02088 0
M  V30 55 N 5.9124 1.20967 1.01018 0
M  V30 56 C 7.1404 1.04956 1.78303 0
M  V30 57 C 7.5554 -0.400915 1.84494 0
M  V30 58 O 6.9124 -1.27826 1.30257 0
M  V30 59 C 6.9634 1.63403 3.22462 0
M  V30 60 O 6.6844 3.02775 3.16637 0
M  V30 61 C 8.1854 1.52432 4.16268 0
M  V30 62 H 5.4054 0.368858 0.560522 0
M  V30 63 H 7.9494 1.60193 1.27116 0
M  V30 64 H 6.1044 1.1227 3.70775 0
M  V30 65 H 6.5184 3.30626 4.07169 0
M  V30 66 H 7.9924 1.98078 5.15237 0
M  V30 67 H 8.4694 0.477875 4.36592 0
M  V30 68 H 9.0754 2.02787 3.73841 0
M  V30 69 N 7.3905 -1.2043 1.01659 0
M  V30 70 C 8.6365 -1.90079 0.706963 0
M  V30 71 C 8.9695 -1.78648 -0.761474 0
M  V30 72 O 8.2445 -1.17069 -1.55323 0
M  V30 73 C 8.5275 -3.41469 1.14327 0
M  V30 74 C 8.3805 -3.61833 2.67201 0
M  V30 75 C 9.6995 -4.34261 0.714529 0
M  V30 76 H 6.8185 -0.690254 0.2583 0
M  V30 77 H 9.4605 -1.41826 1.26433 0
M  V30 78 H 7.6105 -3.82696 0.669056 0
M  V30 79 H 9.2825 -3.2986 3.22475 0
M  V30 80 H 7.5255 -3.05304 3.08175 0
M  V30 81 H 8.1965 -4.67955 2.92783 0
M  V30 82 H 10.6725 -4.00682 1.12221 0
M  V30 83 H 9.5485 -5.38806 1.04784 0
M  V30 84 H 9.8095 -4.40431 -0.383799 0
M  V30 85 N 8.8686 -0.792821 -1.36206 0
M  V30 86 C 9.8316 -0.199459 -2.2833 0
M  V30 87 C 10.8316 0.605189 -1.48977 0
M  V30 88 O 12.0216 0.425685 -1.68919 0
M  V30 89 C 9.1536 0.723523 -3.33134 0
M  V30 90 H 10.3466 -1.01181 -2.82316 0
M  V30 91 H 7.8996 -0.562485 -1.45828 0
M  V30 92 H 8.6346 1.56008 -2.84309 0
M  V30 93 H 8.4196 0.148436 -3.91819 0
M  V30 94 H 9.9096 1.13344 -4.01924 0
M  V30 95 N 10.3467 1.47872 -0.545128 0
M  V30 96 C 11.3097 2.28337 0.198717 0
M  V30 97 C 12.3097 1.36255 0.853888 0
M  V30 98 O 13.4997 1.59003 0.711606 0
M  V30 99 C 10.6317 3.15585 1.28915 0
M  V30 100 H 11.8247 2.95567 -0.507941 0
M  V30 101 H 9.3777 1.53362 -0.301616 0
M  V30 102 H 10.1127 2.53019 2.02859 0
M  V30 103 H 9.8977 3.83337 0.824309 0
M  V30 104 H 11.3877 3.76243 1.81194 0
M  V30 105 N 11.8248 0.280983 1.55075 0
M  V30 106 C 12.7878 -0.590896 2.21452 0
M  V30 107 C 13.7878 -1.07682 1.19421 0
M  V30 108 O 14.9778 -0.97605 1.44288 0
M  V30 109 C 12.1098 -1.81587 2.88511 0
M  V30 110 H 13.3028 -0.0112554 2.99898 0
M  V30 111 H 10.8558 0.0316438 1.56268 0
M  V30 112 H 11.5908 -2.43587 2.14093 0
M  V30 113 H 11.3758 -1.4753 3.63287 0
M  V30 114 H 12.8658 -2.43575 3.39206 0
M  V30 115 N 13.3029 -1.57598 0.00835791 0
M  V30 116 C 14.5489 -1.92046 -0.670055 0
M  V30 117 C 14.9039 -0.88351 -1.70915 0
M  V30 118 O 14.1969 0.103223 -1.91322 0
M  V30 119 C 14.3909 -3.3101 -1.34787 0
M  V30 120 C 14.2199 -4.48126 -0.375945 0
M  V30 121 C 12.9899 -5.05297 0.0166914 0
M  V30 122 C 15.1879 -5.1303 0.361272 0
M  V30 123 N 13.1699 -6.05931 0.985952 0
M  V30 124 C 14.5409 -6.08571 1.18495 0
M  V30 125 C 16.5959 -4.9609 0.42421 0
M  V30 126 C 15.2989 -6.88996 2.06584 0
M  V30 127 C 17.3249 -5.77107 1.29236 0
M  V30 128 C 16.6869 -6.72248 2.10386 0
M  V30 129 H 12.7859 -0.75096 -0.218136 0
M  V30 130 H 15.3699 -1.94572 0.0706669 0
M  V30 131 H 13.5409 -3.29342 -2.05884 0
M  V30 132 H 15.2729 -3.52864 -1.98164 0
M  V30 133 H 12.0279 -4.72279 -0.353435 0
M  V30 134 H 12.4519 -6.60932 1.4662 0
M  V30 135 H 17.0939 -4.22378 -0.188915 0
M  V30 136 H 14.8119 -7.62028 2.6896 0
M  V30 137 H 18.3979 -5.66038 1.34508 0
M  V30 138 H 17.2779 -7.33846 2.76476 0
M  V30 139 N 14.781 0.264519 -1.55364 0
M  V30 140 C 15.711 1.33121 -1.91836 0
M  V30 141 C 16.692 1.51101 -0.781192 0
M  V30 142 O 17.877 1.64003 -1.04003 0
M  V30 143 C 15.007 2.68921 -2.19769 0
M  V30 144 C 13.961 2.65661 -3.35571 0
M  V30 145 C 13.287 4.05093 -3.49004 0
M  V30 146 C 14.587 2.24187 -4.71739 0
M  V30 147 H 16.281 1.02844 -2.81182 0
M  V30 148 H 13.827 0.493286 -1.35287 0
M  V30 149 H 15.78 3.43663 -2.43872 0
M  V30 150 H 14.504 3.00799 -1.27231 0
M  V30 151 H 13.163 1.93377 -3.1145 0
M  V30 152 H 12.811 4.34206 -2.53917 0
M  V30 153 H 12.511 4.03804 -4.26868 0
M  V30 154 H 14.035 4.81561 -3.75408 0
M  V30 155 H 15.449 2.88654 -4.9533 0
M  V30 156 H 13.846 2.34044 -5.52579 0
M  V30 157 H 14.916 1.19327 -4.69988 0
M  V30 158 N 16.2591 1.48442 0.529413 0
M  V30 159 C 17.1891 1.65902 1.64313 0
M  V30 160 C 18.1701 0.507897 1.6234 0
M  V30 161 O 19.3551 0.740503 1.79528 0
M  V30 162 C 16.4851 1.69911 3.02898 0
M  V30 163 C 15.4391 2.8453 3.19729 0
M  V30 164 C 14.7651 2.73629 4.59381 0
M  V30 165 C 16.0651 4.25821 3.02447 0
M  V30 166 H 17.7591 2.5914 1.49955 0
M  V30 167 H 15.3051 1.24709 0.719982 0
M  V30 168 H 17.2581 1.80715 3.80684 0
M  V30 169 H 15.9821 0.732524 3.18279 0
M  V30 170 H 14.6411 2.73283 2.44361 0
M  V30 171 H 14.2891 1.74938 4.71599 0
M  V30 172 H 13.9891 3.50541 4.71588 0
M  V30 173 H 15.5131 2.86401 5.39265 0
M  V30 174 H 16.9271 4.37898 3.70024 0
M  V30 175 H 15.3241 5.03735 3.26146 0
M  V30 176 H 16.3941 4.42244 1.98867 0
M  V30 177 N 17.7372 -0.778329 1.37039 0
M  V30 178 C 18.6672 -1.90546 1.34962 0
M  V30 179 C 19.6482 -1.68681 0.219274 0
M  V30 180 O 20.8332 -1.89634 0.418624 0
M  V30 181 C 17.9632 -3.27734 1.14925 0
M  V30 182 C 16.9172 -3.64147 2.24902 0
M  V30 183 C 16.2432 -4.99806 1.89996 0
M  V30 184 C 17.5432 -3.71579 3.67051 0
M  V30 185 H 19.2372 -1.92541 2.29277 0
M  V30 186 H 16.7832 -0.924948 1.10366 0
M  V30 187 H 18.7362 -4.06215 1.12104 0
M  V30 188 H 17.4602 -3.26154 0.170631 0
M  V30 189 H 16.1192 -2.8797 2.26868 0
M  V30 190 H 15.7672 -4.94759 0.906796 0
M  V30 191 H 15.4672 -5.25139 2.63634 0
M  V30 192 H 16.9912 -5.80694 1.88749 0
M  V30 193 H 18.4052 -4.40227 3.67251 0
M  V30 194 H 16.8022 -4.08405 4.39688 0
M  V30 195 H 17.8722 -2.72404 4.01154 0
M  V30 196 N 19.2153 -1.21501 -1.00376 0
M  V30 197 C 20.4613 -1.04457 -1.74529 0
M  V30 198 C 20.8163 0.417386 -1.87818 0
M  V30 199 O 20.1093 1.30556 -1.40234 0
M  V30 200 C 20.3033 -1.67673 -3.15627 0
M  V30 201 C 20.1323 -3.19865 -3.16096 0
M  V30 202 C 18.9023 -3.88915 -3.22604 0
M  V30 203 C 21.1003 -4.16936 -3.01112 0
M  V30 204 N 19.0823 -5.28284 -3.12712 0
M  V30 205 C 20.4533 -5.43066 -2.99131 0
M  V30 206 C 22.5083 -4.07968 -2.85423 0
M  V30 207 C 21.2113 -6.6126 -2.83068 0
M  V30 208 C 23.2373 -5.258 -2.70718 0
M  V30 209 C 22.5993 -6.50842 -2.69414 0
M  V30 210 H 18.6983 -0.436584 -0.648782 0
M  V30 211 H 21.2823 -1.53875 -1.19293 0
M  V30 212 H 19.4533 -1.20822 -3.6913 0
M  V30 213 H 21.1853 -1.43824 -3.78281 0
M  V30 214 H 17.9403 -3.39847 -3.2985 0
M  V30 215 H 18.3643 -6.01284 -3.11105 0
M  V30 216 H 23.0063 -3.1209 -2.85236 0
M  V30 217 H 20.7243 -7.57298 -2.82002 0
M  V30 218 H 24.3103 -5.20683 -2.59577 0
M  V30 219 H 23.1903 -7.40485 -2.5817 0
M  V30 220 N 20.6934 1.19889 -1.02296 0
M  V30 221 C 21.6564 2.21116 -0.603351 0
M  V30 222 C 22.6564 1.5738 0.329884 0
M  V30 223 O 23.8464 1.73802 0.117702 0
M  V30 224 C 20.9784 3.40696 0.117992 0
M  V30 225 H 22.1714 2.59754 -1.49893 0
M  V30 226 H 19.7244 1.33463 -0.813468 0
M  V30 227 H 20.4594 3.07569 1.0282 0
M  V30 228 H 20.2444 3.88188 -0.552511 0
M  V30 229 H 21.7344 4.15692 0.398696 0
M  V30 230 N 22.1715 0.800033 1.35784 0
M  V30 231 C 23.1345 0.211565 2.28221 0
M  V30 232 C 24.1345 -0.59728 1.49296 0
M  V30 233 O 25.3245 -0.416721 1.69142 0
M  V30 234 C 22.4565 -0.705846 3.33513 0
M  V30 235 H 23.6495 1.02677 2.81776 0
M  V30 236 H 21.2025 0.570211 1.45528 0
M  V30 237 H 21.9375 -1.54498 2.85133 0
M  V30 238 H 21.7225 -0.127655 3.91892 0
M  V30 239 H 23.2125 -1.11211 4.02519 0
M  V30 240 N 23.6496 -1.47581 0.552962 0
M  V30 241 C 24.6126 -2.28439 -0.186605 0
M  V30 242 C 25.6126 -1.36706 -0.84665 0
M  V30 243 O 26.8026 -1.59378 -0.703164 0
M  V30 244 C 23.9346 -3.16264 -1.2724 0
M  V30 245 H 25.1276 -2.95294 0.523609 0
M  V30 246 H 22.6806 -1.532 0.309745 0
M  V30 247 H 23.4156 -2.54091 -2.01514 0
M  V30 248 H 23.2006 -3.83769 -0.803968 0
M  V30 249 H 24.6906 -3.77198 -1.79196 0
M  V30 250 N 25.1277 -0.289203 -1.54924 0
M  V30 251 C 26.3677 0.324536 -2.01807 0
M  V30 252 C 26.7317 1.5199 -1.17316 0
M  V30 253 O 27.9327 2.20422 -1.53843 0
M  V30 254 C 26.2037 0.683578 -3.50802 0
M  V30 255 S 27.7627 1.28185 -4.19659 0
M  V30 256 H 24.5807 0.100236 -0.703899 0
M  V30 257 H 27.1827 -0.414325 -1.91059 0
M  V30 258 H 25.8867 -0.195073 -4.09936 0
M  V30 259 H 25.4177 1.45354 -3.65562 0
M  V30 260 H 27.4327 2.57006 -4.24456 0
M  V30 261 N 26.6058 1.57591 -0.0167156 0
M  V30 262 C 27.5688 2.08393 0.954204 0
M  V30 263 C 28.5688 0.996531 1.26198 0
M  V30 264 O 29.7588 1.25858 1.20438 0
M  V30 265 C 26.8908 2.5394 2.27436 0
M  V30 266 H 28.0838 2.95455 0.514451 0
M  V30 267 H 25.6368 1.54582 0.231089 0
M  V30 268 H 26.3718 1.70171 2.76066 0
M  V30 269 H 26.1568 3.33371 2.06412 0
M  V30 270 H 27.6468 2.93512 2.97053 0
M  V30 271 N 28.0839 -0.256276 1.55502 0
M  V30 272 C 29.0159 -1.33981 1.85962 0
M  V30 273 C 30.0289 -1.44743 0.745212 0
M  V30 274 O 31.2179 -1.4626 1.02324 0
M  V30 275 C 28.3179 -2.7194 2.02242 0
M  V30 276 C 27.4909 -2.83562 3.33033 0
M  V30 277 C 26.5499 -4.02304 3.39172 0
M  V30 278 O 25.5759 -3.92273 4.12444 0
M  V30 279 N 26.7779 -5.15045 2.67784 0
M  V30 280 H 29.5429 -1.08191 2.7949 0
M  V30 281 H 27.1039 -0.446388 1.55624 0
M  V30 282 H 29.0959 -3.49697 2.03701 0
M  V30 283 H 27.6659 -2.90479 1.15502 0
M  V30 284 H 26.8859 -1.92555 3.43971 0
M  V30 285 H 28.1739 -2.88271 4.19258 0
M  V30 286 H 27.5719 -5.26085 2.07968 0
M  V30 287 H 26.1289 -5.90972 2.74947 0
M  V30 288 N 29.562 -1.4872 -0.521534 0
M  V30 289 C 30.494 -1.59968 -1.64143 0
M  V30 290 C 31.507 -0.483463 -1.55456 0
M  V30 291 O 32.696 -0.75467 -1.61762 0
M  V30 292 C 29.796 -1.52127 -3.02838 0
M  V30 293 C 28.969 -2.78932 -3.36921 0
M  V30 294 C 28.028 -2.64428 -4.54933 0
M  V30 295 O 27.054 -3.38331 -4.57735 0
M  V30 296 N 28.256 -1.74606 -5.53618 0
M  V30 297 H 31.021 -2.56548 -1.54929 0
M  V30 298 H 28.582 -1.45551 -0.708988 0
M  V30 299 H 30.574 -1.40106 -3.79674 0
M  V30 300 H 29.144 -0.634868 -3.06085 0
M  V30 301 H 28.364 -3.05455 -2.4918 0
M  V30 302 H 29.652 -3.63041 -3.56481 0
M  V30 303 H 29.05 -1.13782 -5.54139 0
M  V30 304 H 27.607 -1.6852 -6.29638 0
M  V30 305 N 31.0401 0.771051 -1.3745 0
M  V30 306 C 31.9501 1.91538 -1.35464 0
M  V30 307 C 32.9661 1.72134 -0.254123 0
M  V30 308 O 34.1421 1.95358 -0.489626 0
M  V30 309 C 31.2071 3.26671 -1.16134 0
M  V30 310 C 30.2681 3.58723 -2.35831 0
M  V30 311 C 29.5011 4.87409 -2.17413 0
M  V30 312 O 29.7241 5.58506 -1.15876 0
M  V30 313 O 28.6581 5.18539 -3.05615 0
M  V30 314 H 32.4841 1.96165 -2.31847 0
M  V30 315 H 30.0691 0.9139 -1.18187 0
M  V30 316 H 31.9511 4.07499 -1.07345 0
M  V30 317 H 30.6261 3.22894 -0.228251 0
M  V30 318 H 29.5331 2.78127 -2.50192 0
M  V30 319 H 30.8661 3.67243 -3.27709 0
M  V30 320 N 32.5182 1.22032 0.997298 0
M  V30 321 C 33.4502 0.944263 2.08845 0
M  V30 322 C 34.4632 -0.0754663 1.62625 0
M  V30 323 O 35.6522 0.157994 1.77799 0
M  V30 324 C 32.7522 0.397723 3.36558 0
M  V30 325 C 31.9252 1.47362 4.11829 0
M  V30 326 C 30.9842 0.934951 5.17827 0
M  V30 327 O 30.0102 1.62016 5.45655 0
M  V30 328 N 31.2122 -0.245895 5.79979 0
M  V30 329 H 33.9772 1.88363 2.33109 0
M  V30 330 H 31.5382 1.12661 1.16272 0
M  V30 331 H 33.5302 0.0227771 4.04694 0
M  V30 332 H 32.1002 -0.446646 3.09393 0
M  V30 333 H 31.3202 2.02208 3.38386 0
M  V30 334 H 32.6082 2.19764 4.58891 0
M  V30 335 H 32.0062 -0.819475 5.59733 0
M  V30 336 H 30.5632 -0.562272 6.4937 0
M  V30 337 N 33.9963 -1.19345 1.0293 0
M  V30 338 C 35.2733 -1.84811 0.640642 0
M  V30 339 C 35.6533 -1.91855 -0.88062 0
M  V30 340 O 35.0013 -1.43587 -1.7775 0
M  V30 341 C 35.2113 -3.23755 1.30321 0
M  V30 342 C 36.5593 -3.99912 1.42673 0
M  V30 343 O 37.5833 -3.33155 1.26041 0
M  V30 344 O 36.4423 -5.19494 1.6967 0
M  V30 345 H 33.5363 -0.796443 0.222726 0
M  V30 346 H 36.0823 -1.26831 1.12748 0
M  V30 347 H 34.8543 -3.13466 2.34211 0
M  V30 348 H 34.4773 -3.89381 0.804261 0
M  V30 349 N 35.4744 -0.807222 -1.35358 0
M  V30 350 C 36.7214 -0.387888 -1.9875 0
M  V30 351 C 37.0494 1.04509 -1.64037 0
M  V30 352 O 36.3044 1.73986 -0.895946 0
M  V30 353 C 36.6034 -0.519036 -3.53611 0
M  V30 354 C 36.2694 -1.91542 -4.08194 0
M  V30 355 C 34.9314 -2.29745 -4.22813 0
M  V30 356 C 37.2834 -2.82896 -4.37744 0
M  V30 357 C 34.6114 -3.58668 -4.643 0
M  V30 358 C 36.9634 -4.11265 -4.8067 0
M  V30 359 C 35.6274 -4.49466 -4.93494 0
M  V30 360 H 34.8974 -0.141938 -0.727279 0
M  V30 361 H 37.5444 -1.02814 -1.6156 0
M  V30 362 H 35.8494 0.204658 -3.91265 0
M  V30 363 H 37.5464 -0.175345 -4.00616 0
M  V30 364 H 34.1364 -1.60862 -3.97268 0
M  V30 365 H 38.3204 -2.54629 -4.26002 0
M  V30 366 H 33.5764 -3.88113 -4.72418 0
M  V30 367 H 37.7504 -4.82153 -5.02496 0
M  V30 368 H 35.3774 -5.49418 -5.25399 0
M  V30 369 N 36.9525 1.47285 -0.560781 0
M  V30 370 C 38.1825 2.06555 -0.0429638 0
M  V30 371 C 38.5905 1.41339 1.25777 0
M  V30 372 O 37.9335 0.505182 1.76617 0
M  V30 373 C 37.9955 3.58827 0.219887 0
M  V30 374 C 37.6595 4.46105 -0.991944 0
M  V30 375 C 38.6565 4.84 -1.89843 0
M  V30 376 C 36.3415 4.87567 -1.20762 0
M  V30 377 C 38.3355 5.6216 -3.00425 0
M  V30 378 C 36.0225 5.65491 -2.31653 0
M  V30 379 C 37.0205 6.02699 -3.21315 0
M  V30 380 O 36.7085 6.79052 -4.30283 0
M  V30 381 H 36.4405 0.674537 -0.0444468 0
M  V30 382 H 38.9945 1.90225 -0.774818 0
M  V30 383 H 37.2245 3.73383 1.00609 0
M  V30 384 H 38.9135 4.00103 0.683522 0
M  V30 385 H 39.6795 4.52564 -1.74387 0
M  V30 386 H 35.5585 4.5807 -0.518893 0
M  V30 387 H 39.1025 5.9112 -3.70436 0
M  V30 388 H 34.9995 5.9634 -2.47081 0
M  V30 389 H 35.7675 6.9745 -4.28376 0
M  V30 390 N 38.4306 0.297415 1.54768 0
M  V30 391 C 39.7076 -0.365847 1.92148 0
M  V30 392 C 40.0876 -1.71975 1.22424 0
M  V30 393 O 39.4356 -2.25666 0.358739 0
M  V30 394 C 39.6456 -0.484056 3.45627 0
M  V30 395 C 40.9936 -0.756594 4.17805 0
M  V30 396 O 42.0176 -0.568007 3.51642 0
M  V30 397 O 40.8766 -1.11863 5.34929 0
M  V30 398 H 37.9706 -0.203919 0.801465 0
M  V30 399 H 40.5166 0.34521 1.66152 0
M  V30 400 H 39.2886 0.467865 3.88493 0
M  V30 401 H 38.9116 -1.24372 3.77647 0
M  V30 402 N 39.9087 -1.5758 0.0250728 0
M  V30 403 C 41.1557 -1.91633 -0.654444 0
M  V30 404 C 41.4837 -0.901103 -1.72367 0
M  V30 405 O 40.7387 0.0905647 -1.9549 0
M  V30 406 C 41.0377 -3.32421 -1.31268 0
M  V30 407 C 40.7037 -4.49344 -0.374223 0
M  V30 408 C 39.3657 -4.8106 -0.115911 0
M  V30 409 C 41.7177 -5.20498 0.270432 0
M  V30 410 C 39.0457 -5.8129 0.79493 0
M  V30 411 C 41.3977 -6.21699 1.1693 0
M  V30 412 C 40.0617 -6.51859 1.43655 0
M  V30 413 H 39.3317 -0.701236 -0.239478 0
M  V30 414 H 41.9787 -1.91307 0.0859734 0
M  V30 415 H 40.2837 -3.28989 -2.12775 0
M  V30 416 H 41.9807 -3.56038 -1.84494 0
M  V30 417 H 38.5707 -4.24579 -0.58573 0
M  V30 418 H 42.7547 -4.96229 0.0839194 0
M  V30 419 H 38.0107 -6.03005 1.00973 0
M  V30 420 H 42.1847 -6.75955 1.67504 0
M  V30 421 H 39.8117 -7.2934 2.144 0
M  V30 422 N 41.3868 0.248026 -1.55636 0
M  V30 423 C 42.3338 1.30707 -1.90222 0
M  V30 424 C 43.3038 1.47881 -0.756332 0
M  V30 425 O 44.4888 1.61883 -1.00988 0
M  V30 426 C 41.6288 2.65769 -2.20138 0
M  V30 427 C 40.7418 2.56612 -3.47526 0
M  V30 428 C 39.8768 3.8402 -3.67017 0
M  V30 429 C 38.9158 3.69476 -4.8801 0
M  V30 430 N 38.0528 4.88774 -5.04029 0
M  V30 431 H 42.8928 1.00512 -2.80538 0
M  V30 432 H 40.4298 0.485055 -1.38873 0
M  V30 433 H 42.3878 3.44386 -2.35487 0
M  V30 434 H 41.0178 2.94115 -1.33027 0
M  V30 435 H 40.0698 1.69571 -3.40514 0
M  V30 436 H 41.3818 2.41774 -4.36287 0
M  V30 437 H 40.5358 4.7108 -3.8232 0
M  V30 438 H 39.2748 4.01754 -2.76487 0
M  V30 439 H 38.2798 2.80799 -4.72686 0
M  V30 440 H 39.5048 3.53238 -5.8 0
M  V30 441 H 37.4508 5.0687 -4.16435 0
M  V30 442 H 37.3678 4.76562 -5.86877 0
M  V30 443 H 38.6358 5.77335 -5.23741 0
M  V30 444 N 42.8649 1.48995 0.513639 0
M  V30 445 C 43.8279 1.64229 1.59879 0
M  V30 446 C 44.8279 0.514696 1.5234 0
M  V30 447 O 46.0179 0.78087 1.55718 0
M  V30 448 C 43.1499 1.62783 2.99524 0
M  V30 449 H 44.3429 2.61004 1.47705 0
M  V30 450 H 41.8959 1.37837 0.736936 0
M  V30 451 H 42.6309 0.675461 3.17188 0
M  V30 452 H 42.4159 2.4466 3.06404 0
M  V30 453 H 43.9059 1.76669 3.78388 0
M  V30 454 N 44.343 -0.763751 1.37857 0
M  V30 455 C 45.589 -1.52483 1.33704 0
M  V30 456 C 45.922 -1.94051 -0.0759612 0
M  V30 457 O 45.197 -1.64675 -1.03501 0
M  V30 458 C 45.48 -2.78441 2.28348 0
M  V30 459 C 45.333 -2.43075 3.78463 0
M  V30 460 C 46.652 -3.80415 2.21298 0
M  V30 461 H 43.771 -0.553169 0.487005 0
M  V30 462 H 46.413 -0.875562 1.68624 0
M  V30 463 H 44.563 -3.33842 1.987 0
M  V30 464 H 46.235 -1.93527 4.18742 0
M  V30 465 H 44.478 -1.75666 3.96641 0
M  V30 466 H 45.149 -3.33149 4.40132 0
M  V30 467 H 47.625 -3.34527 2.47449 0
M  V30 468 H 46.501 -4.66257 2.89647 0
M  V30 469 H 46.762 -4.25262 1.20849 0
M  V30 470 N 45.8211 -1.22559 -0.990812 0
M  V30 471 C 46.7691 -0.994798 -2.10253 0
M  V30 472 C 47.7631 0.0627798 -1.69284 0
M  V30 473 O 48.9691 -0.0898392 -1.79776 0
M  V30 474 H 45.3441 -0.304527 -0.687581 0
M  V30 475 H 47.3151 -1.93812 -2.26891 0
M  V30 476 C 46.0641 -0.591439 -3.42633 0
M  V30 477 H 45.3871 -1.3969 -3.74602 0
M  V30 478 H 46.8271 -0.469385 -4.21394 0
M  V30 479 C 45.2861 0.699232 -3.29564 0
M  V30 480 O 45.8161 1.75112 -3.61523 0
M  V30 481 N 44.0221 0.671182 -2.82743 0
M  V30 482 H 43.5691 -0.185136 -2.56934 0
M  V30 483 H 43.5271 1.53502 -2.7438 0
M  V30 484 N 47.2992 1.18797 -1.03562 0
M  V30 485 C 48.5482 1.87978 -0.731235 0
M  V30 486 C 48.8612 1.80911 0.743671 0
M  V30 487 O 50.0672 2.45407 1.16137 0
M  V30 488 C 48.5232 3.3721 -1.25768 0
M  V30 489 C 48.1312 3.52818 -2.76085 0
M  V30 490 C 49.8752 4.11825 -1.0296 0
M  V30 491 C 47.7822 4.9598 -3.22114 0
M  V30 492 H 46.7122 0.704063 -0.269835 0
M  V30 493 H 49.3632 1.34266 -1.25079 0
M  V30 494 H 47.7452 3.90359 -0.666011 0
M  V30 495 H 48.9192 3.09965 -3.40966 0
M  V30 496 H 47.2342 2.91602 -2.97249 0
M  V30 497 H 49.8312 5.17411 -1.34869 0
M  V30 498 H 50.1742 4.16287 0.0333546 0
M  V30 499 H 50.7072 3.64833 -1.58562 0
M  V30 500 H 47.4462 4.96684 -4.27768 0
M  V30 501 H 46.9662 5.39569 -2.61965 0
M  V30 502 H 48.6452 5.6467 -3.15844 0
M  V30 503 N 48.7773 0.814389 1.34928 0
M  V30 504 C 50.1933 0.499084 1.51596 0
M  V30 505 C 50.3933 -0.978319 1.76157 0
M  V30 506 O 49.4493 -1.76309 1.80752 0
M  V30 507 C 50.7623 1.35121 2.68631 0
M  V30 508 C 52.3103 1.34746 2.82511 0
M  V30 509 C 52.7853 2.18388 4.0258 0
M  V30 510 N 54.2763 2.15966 4.09772 0
M  V30 511 C 55.0113 2.77437 5.01813 0
M  V30 512 N 54.5073 3.47866 5.99134 0
M  V30 513 N 56.3003 2.67037 4.94619 0
M  V30 514 H 48.4513 1.7711 1.17243 0
M  V30 515 H 50.7143 0.754256 0.574284 0
M  V30 516 H 50.4203 2.40001 2.57085 0
M  V30 517 H 50.2943 1.00991 3.63429 0
M  V30 518 H 52.6813 0.30648 2.93504 0
M  V30 519 H 52.7623 1.72869 1.88547 0
M  V30 520 H 52.4063 3.2253 3.92347 0
M  V30 521 H 52.3363 1.77621 4.9574 0
M  V30 522 H 54.8273 1.64729 3.40107 0
M  V30 523 H 55.1403 3.92038 6.65977 0
M  V30 524 H 53.4853 3.51972 5.99284 0
M  V30 525 H 56.6763 2.11597 4.17546 0
M  V30 526 H 56.8493 3.15232 5.66156 0
M  V30 527 N 50.2554 -1.46986 0.568584 0
M  V30 528 C 51.5034 -2.02041 0.0487022 0
M  V30 529 C 51.8244 -1.44408 -1.31039 0
M  V30 530 O 51.0944 -0.623477 -1.85714 0
M  V30 531 H 49.6744 -0.746849 0.015014 0
M  V30 532 H 52.3364 -1.80257 0.741168 0
M  V30 533 H 51.4324 -3.12085 -0.0308961 0
M  V30 534 N 51.7335 -0.305618 -1.54608 0
M  V30 535 C 52.6805 0.568421 -2.23691 0
M  V30 536 C 53.6505 1.12592 -1.22116 0
M  V30 537 O 54.8355 1.16959 -1.50749 0
M  V30 538 C 51.9755 1.7322 -2.98477 0
M  V30 539 C 51.0885 1.20566 -4.14835 0
M  V30 540 C 50.2235 2.33368 -4.77193 0
M  V30 541 C 49.2625 1.7787 -5.85686 0
M  V30 542 N 48.3995 2.84263 -6.4198 0
M  V30 543 H 53.2395 -0.0272867 -2.97988 0
M  V30 544 H 50.7765 -0.0252363 -1.47078 0
M  V30 545 H 52.7345 2.41675 -3.40072 0
M  V30 546 H 51.3645 2.29947 -2.26548 0
M  V30 547 H 50.4165 0.413223 -3.78149 0
M  V30 548 H 51.7285 0.759417 -4.92985 0
M  V30 549 H 50.8825 3.09761 -5.21664 0
M  V30 550 H 49.6215 2.8132 -3.98385 0
M  V30 551 H 48.6265 0.99968 -5.40635 0
M  V30 552 H 49.8515 1.30816 -6.66381 0
M  V30 553 H 47.7975 3.31541 -5.66053 0
M  V30 554 H 47.7145 2.44149 -7.15491 0
M  V30 555 H 48.9825 3.6054 -6.91109 0
M  V30 556 N 53.2116 1.57565 -0.0334293 0
M  V30 557 C 54.1416 2.13511 0.945265 0
M  V30 558 C 55.1226 1.05231 1.33643 0
M  V30 559 O 56.3076 1.33084 1.41429 0
M  V30 560 C 53.4376 2.6657 2.22616 0
M  V30 561 C 52.3916 3.79676 1.97561 0
M  V30 562 C 51.7176 4.1918 3.31952 0
M  V30 563 C 53.0176 5.0557 1.31135 0
M  V30 564 H 54.7116 2.95538 0.479325 0
M  V30 565 H 52.2576 1.42166 0.229115 0
M  V30 566 H 54.2106 3.04344 2.91466 0
M  V30 567 H 52.9346 1.8171 2.71384 0
M  V30 568 H 51.5936 3.42347 1.31127 0
M  V30 569 H 51.2416 3.31296 3.78487 0
M  V30 570 H 50.9416 4.95402 3.15992 0
M  V30 571 H 52.4656 4.59541 4.02063 0
M  V30 572 H 53.8796 5.40903 1.89992 0
M  V30 573 H 52.2766 5.86818 1.25559 0
M  V30 574 H 53.3466 4.84062 0.284894 0
M  V30 575 N 54.6897 -0.239769 1.55765 0
M  V30 576 C 55.9357 -0.968234 1.78194 0
M  V30 577 C 56.2687 -1.84701 0.599938 0
M  V30 578 O 55.5437 -1.9031 -0.401524 0
M  V30 579 C 55.8267 -1.8227 3.10564 0
M  V30 580 C 55.6797 -0.971633 4.3918 0
M  V30 581 C 56.9987 -2.80388 3.39221 0
M  V30 582 H 54.1177 -0.350572 0.648281 0
M  V30 583 H 56.7597 -0.238259 1.885 0
M  V30 584 H 54.9097 -2.44507 3.01908 0
M  V30 585 H 56.5817 -0.367408 4.59835 0
M  V30 586 H 54.8247 -0.276276 4.32919 0
M  V30 587 H 55.4957 -1.60346 5.28198 0
M  V30 588 H 57.9717 -2.28287 3.47885 0
M  V30 589 H 56.8477 -3.3729 4.33044 0
M  V30 590 H 57.1087 -3.57212 2.60484 0
M  V30 591 N 56.1678 -1.49265 -0.50573 0
M  V30 592 C 57.3928 -1.62478 -1.28902 0
M  V30 593 C 57.8178 -0.294332 -1.85783 0
M  V30 594 O 57.1758 0.737412 -1.65626 0
M  V30 595 C 57.2238 -2.69268 -2.39848 0
M  V30 596 O 56.3278 -2.28113 -3.43567 0
M  V30 597 H 55.6688 -0.54399 -0.380751 0
M  V30 598 H 58.1988 -1.95421 -0.605952 0
M  V30 599 H 58.2088 -2.91291 -2.85681 0
M  V30 600 H 56.8838 -3.65846 -1.97812 0
M  V30 601 H 55.4608 -2.16401 -3.03685 0
M  V30 602 N 57.6459 0.756429 -1.3826 0
M  V30 603 C 58.5759 1.88374 -1.37976 0
M  V30 604 C 59.5569 1.68311 -0.246082 0
M  V30 605 O 60.7419 1.88944 -0.44874 0
M  V30 606 C 57.8719 3.25864 -1.20125 0
M  V30 607 C 56.8259 3.60523 -2.30666 0
M  V30 608 C 56.1519 4.9672 -1.97923 0
M  V30 609 C 57.4519 3.65692 -3.72916 0
M  V30 610 H 59.1459 1.88869 -2.32312 0
M  V30 611 H 56.6919 0.907272 -1.11824 0
M  V30 612 H 58.6449 4.0438 -1.18552 0
M  V30 613 H 57.3689 3.25841 -0.222498 0
M  V30 614 H 56.0279 2.84324 -2.3142 0
M  V30 615 H 55.6759 4.93253 -0.985393 0
M  V30 616 H 55.3759 5.20878 -2.71955 0
M  V30 617 H 56.8999 5.77618 -1.97964 0
M  V30 618 H 58.3139 4.34328 -3.74208 0
M  V30 619 H 56.7109 4.01358 -4.4613 0
M  V30 620 H 57.7809 2.65987 -4.05436 0
M  V30 621 N 59.124 1.23083 0.984299 0
M  V30 622 C 60.034 1.02515 2.11016 0
M  V30 623 C 61.05 -0.0291702 1.73976 0
M  V30 624 O 62.226 0.165434 2.00719 0
M  V30 625 C 59.291 0.614673 3.41208 0
M  V30 626 C 58.352 1.74359 3.92297 0
M  V30 627 C 57.585 1.35261 5.16275 0
M  V30 628 O 57.808 0.235136 5.69915 0
M  V30 629 O 56.742 2.17227 5.61334 0
M  V30 630 H 60.568 1.96862 2.31255 0
M  V30 631 H 58.153 1.01753 1.09392 0
M  V30 632 H 60.035 0.396518 4.1953 0
M  V30 633 H 58.71 -0.299851 3.22308 0
M  V30 634 H 57.617 2.01635 3.1511 0
M  V30 635 H 58.95 2.63629 4.15645 0
M  V30 636 N 60.6021 -1.18246 1.0419 0
M  V30 637 C 61.5491 -2.2192 0.634037 0
M  V30 638 C 62.5191 -1.62179 -0.358765 0
M  V30 639 O 63.7041 -1.89122 -0.252466 0
M  V30 640 C 60.8441 -3.451 0.00445535 0
M  V30 641 C 59.9571 -4.19174 1.04487 0
M  V30 642 C 59.0921 -5.29813 0.383676 0
M  V30 643 C 58.1311 -5.9566 1.4091 0
M  V30 644 N 57.2681 -6.97834 0.772784 0
M  V30 645 H 62.1081 -2.56164 1.52263 0
M  V30 646 H 59.6451 -1.25843 0.761701 0
M  V30 647 H 61.6031 -4.15485 -0.377919 0
M  V30 648 H 60.2331 -3.11472 -0.847652 0
M  V30 649 H 59.2851 -3.47604 1.54518 0
M  V30 650 H 60.5971 -4.64267 1.82368 0
M  V30 651 H 59.7511 -6.06677 -0.0528366 0
M  V30 652 H 58.4901 -4.85825 -0.427208 0
M  V30 653 H 57.4951 -5.17535 1.85574 0
M  V30 654 H 58.7201 -6.4173 2.22171 0
M  V30 655 H 56.6661 -6.55998 -0.0177708 0
M  V30 656 H 56.5831 -7.41186 1.48928 0
M  V30 657 H 57.8511 -7.78665 0.36071 0
M  V30 658 N 62.0802 -0.821533 -1.34494 0
M  V30 659 C 63.3102 -0.421272 -2.02259 0
M  V30 660 C 63.7182 0.977047 -1.6202 0
M  V30 661 O 63.0612 1.64348 -0.820703 0
M  V30 662 C 63.1232 -0.44231 -3.56769 0
M  V30 663 C 62.7872 -1.79372 -4.20327 0
M  V30 664 C 63.7842 -2.75435 -4.40944 0
M  V30 665 C 61.4692 -2.08182 -4.57127 0
M  V30 666 C 63.4632 -3.98482 -4.97484 0
M  V30 667 C 61.1502 -3.31489 -5.13379 0
M  V30 668 C 62.1482 -4.26457 -5.33501 0
M  V30 669 O 61.8362 -5.47585 -5.88562 0
M  V30 670 H 61.5682 -0.167473 -0.654927 0
M  V30 671 H 64.1222 -1.11073 -1.72777 0
M  V30 672 H 62.3522 0.303836 -3.85505 0
M  V30 673 H 64.0412 -0.0622925 -4.05852 0
M  V30 674 H 64.8072 -2.54473 -4.12878 0
M  V30 675 H 60.6862 -1.35066 -4.4077 0
M  V30 676 H 64.2302 -4.72618 -5.13106 0
M  V30 677 H 60.1272 -3.52316 -5.40873 0
M  V30 678 H 60.8952 -5.49086 -6.06998 0
M  V30 679 N 63.5583 1.46682 -0.576371 0
M  V30 680 C 64.9743 1.57822 -0.237562 0
M  V30 681 C 65.1743 1.57237 1.26011 0
M  V30 682 O 64.2303 1.48596 2.04146 0
M  V30 683 C 65.5433 2.87499 -0.881168 0
M  V30 684 C 67.0913 3.01119 -0.85417 0
M  V30 685 C 67.5663 4.33524 -1.4772 0
M  V30 686 N 69.0573 4.40207 -1.44125 0
M  V30 687 C 69.7923 5.4126 -1.89276 0
M  V30 688 N 69.2883 6.49021 -2.42371 0
M  V30 689 N 71.0813 5.32422 -1.80231 0
M  V30 690 H 63.2323 1.45306 -1.54919 0
M  V30 691 H 65.4953 0.692733 -0.647167 0
M  V30 692 H 65.2013 2.9372 -1.93447 0
M  V30 693 H 65.0753 3.75224 -0.385592 0
M  V30 694 H 67.4623 2.94485 0.190491 0
M  V30 695 H 67.5433 2.14887 -1.3877 0
M  V30 696 H 67.1873 4.40916 -2.52103 0
M  V30 697 H 67.1173 5.1852 -0.918947 0
M  V30 698 H 69.6083 3.62931 -1.05307 0
M  V30 699 H 69.9213 7.2233 -2.74698 0
M  V30 700 H 68.2663 6.49858 -2.46393 0
M  V30 701 H 71.4573 4.47137 -1.38514 0
M  V30 702 H 71.6303 6.11034 -2.15735 0
M  V30 703 N 65.0364 0.313813 1.54444 0
M  V30 704 C 66.2844 -0.291099 1.99993 0
M  V30 705 C 66.6054 -1.53418 1.20366 0
M  V30 706 O 65.8754 -1.93544 0.302927 0
M  V30 707 H 64.4554 -0.110552 0.738774 0
M  V30 708 H 67.1174 0.428106 1.9014 0
M  V30 709 H 66.2134 -0.554268 3.07139 0
M  V30 710 N 66.5145 -1.57545 0.0417849 0
M  V30 711 C 67.7395 -1.97035 -0.647455 0
M  V30 712 C 68.1645 -0.918775 -1.64135 0
M  V30 713 O 67.5225 0.119006 -1.80909 0
M  V30 714 C 67.5705 -3.35609 -1.31905 0
M  V30 715 O 66.6745 -3.3287 -2.43457 0
M  V30 716 H 66.0155 -0.64211 -0.169086 0
M  V30 717 H 68.5455 -2.04318 0.107399 0
M  V30 718 H 68.5555 -3.72126 -1.67291 0
M  V30 719 H 67.2305 -4.11685 -0.590586 0
M  V30 720 H 65.8075 -3.08087 -2.10088 0
M  V30 721 N 67.9926 0.231505 -1.5589 0
M  V30 722 C 69.2386 0.95877 -1.78705 0
M  V30 723 C 69.5716 1.8438 -0.609725 0
M  V30 724 O 68.8466 1.90521 0.391426 0
M  V30 725 C 69.1296 1.8062 -3.11526 0
M  V30 726 C 68.9826 0.948328 -4.39689 0
M  V30 727 C 70.3016 2.78585 -3.40703 0
M  V30 728 H 67.4206 0.347129 -0.650131 0
M  V30 729 H 70.0626 0.228259 -1.88624 0
M  V30 730 H 68.2126 2.42902 -3.03201 0
M  V30 731 H 69.8846 0.343016 -4.60023 0
M  V30 732 H 68.1276 0.253314 -4.3306 0
M  V30 733 H 68.7986 1.57543 -5.29041 0
M  V30 734 H 71.2746 2.26439 -3.49091 0
M  V30 735 H 70.1506 3.34988 -4.34826 0
M  V30 736 H 70.4116 3.55825 -2.62375 0
M  V30 737 N 69.4707 1.49531 0.497807 0
M  V30 738 C 70.6957 1.63159 1.28039 0
M  V30 739 C 71.1207 0.30418 1.85624 0
M  V30 740 O 70.4787 -0.728618 1.66015 0
M  V30 741 C 70.5267 2.70537 2.38416 0
M  V30 742 O 69.6307 2.29931 3.42353 0
M  V30 743 H 68.9717 0.546001 0.377861 0
M  V30 744 H 71.5017 1.9574 0.59558 0
M  V30 745 H 71.5117 2.92802 2.84132 0
M  V30 746 H 70.1867 3.6689 1.95869 0
M  V30 747 H 68.7637 2.18009 3.02533 0
M  V30 748 N 70.9488 -0.749086 1.3866 0
M  V30 749 C 71.8788 -1.8764 1.38973 0
M  V30 750 C 72.8598 -1.68178 0.255004 0
M  V30 751 O 74.0448 -1.88704 0.458754 0
M  V30 752 C 71.1748 -3.25222 1.21851 0
M  V30 753 C 70.1288 -3.59295 2.32575 0
M  V30 754 C 69.4548 -4.95663 2.00555 0
M  V30 755 C 70.7548 -3.63709 3.7485 0
M  V30 756 H 72.4488 -1.87635 2.3331 0
M  V30 757 H 69.9948 -0.901329 1.12303 0
M  V30 758 H 71.9478 -4.03746 1.20695 0
M  V30 759 H 70.6718 -3.25719 0.239775 0
M  V30 760 H 69.3308 -2.83093 2.32925 0
M  V30 761 H 68.9788 -4.92724 1.01154 0
M  V30 762 H 68.6788 -5.19429 2.74714 0
M  V30 763 H 70.2028 -5.7656 2.01024 0
M  V30 764 H 71.6168 -4.32338 3.76506 0
M  V30 765 H 70.0138 -3.98986 4.48252 0
M  V30 766 H 71.0838 -2.63834 4.06841 0
M  V30 767 N 72.4269 -1.23603 -0.977757 0
M  V30 768 C 73.6729 -1.07129 -1.72195 0
M  V30 769 C 74.0059 0.390501 -1.90233 0
M  V30 770 O 73.2809 1.28902 -1.45653 0
M  V30 771 C 73.5639 -1.80031 -3.11867 0
M  V30 772 C 73.4169 -3.33899 -3.01383 0
M  V30 773 C 74.7359 -1.56492 -4.11337 0
M  V30 774 H 71.8549 -0.390571 -0.624999 0
M  V30 775 H 74.4969 -1.52142 -1.13811 0
M  V30 776 H 72.6469 -1.41768 -3.6171 0
M  V30 777 H 74.3189 -3.81699 -2.59043 0
M  V30 778 H 72.5619 -3.62796 -2.37827 0
M  V30 779 H 73.2329 -3.801 -4.00285 0
M  V30 780 H 75.7089 -1.89757 -3.70313 0
M  V30 781 H 74.5849 -2.09973 -5.07151 0
M  V30 782 H 74.8459 -0.500874 -4.39254 0
M  V30 783 N 73.905 1.17692 -1.04816 0
M  V30 784 C 75.151 1.88137 -0.75711 0
M  V30 785 C 75.484 1.80604 0.713841 0
M  V30 786 O 74.759 1.21146 1.52164 0
M  V30 787 C 75.042 3.38318 -1.2334 0
M  V30 788 C 74.895 3.54622 -2.76701 0
M  V30 789 C 76.214 4.32214 -0.829415 0
M  V30 790 H 73.333 0.683163 -0.27651 0
M  V30 791 H 75.975 1.38424 -1.30149 0
M  V30 792 H 74.125 3.80787 -0.770286 0
M  V30 793 H 75.797 3.21194 -3.31107 0
M  V30 794 H 74.04 2.97026 -3.16161 0
M  V30 795 H 74.711 4.60028 -3.05088 0
M  V30 796 H 77.187 3.97565 -1.22805 0
M  V30 797 H 76.063 5.35838 -1.19033 0
M  V30 798 H 76.324 4.41294 0.266891 0
M  V30 799 N 75.3831 0.828654 1.34056 0
M  V30 800 C 76.3311 0.242973 2.31327 0
M  V30 801 C 77.3251 -0.61944 1.57668 0
M  V30 802 O 78.5311 -0.51014 1.7262 0
M  V30 803 H 74.9061 0.059834 0.749616 0
M  V30 804 H 76.8771 1.07809 2.78244 0
M  V30 805 C 75.6261 -0.575733 3.429 0
M  V30 806 H 74.9491 0.0785582 3.99723 0
M  V30 807 H 76.3891 -0.951547 4.13185 0
M  V30 808 C 74.8481 -1.75044 2.87856 0
M  V30 809 O 75.3781 -2.84882 2.83205 0
M  V30 810 N 73.5841 -1.56903 2.44602 0
M  V30 811 H 73.1311 -0.675547 2.48584 0
M  V30 812 H 73.0891 -2.35652 2.08124 0
M  V30 813 N 76.8612 -1.46375 0.584142 0
M  V30 814 C 78.1072 -2.02678 0.0703716 0
M  V30 815 C 78.4402 -1.4545 -1.28678 0
M  V30 816 O 77.7152 -0.62014 -1.84349 0
M  V30 817 C 77.9982 -3.60099 0.00614674 0
M  V30 818 C 77.8512 -4.27709 1.3923 0
M  V30 819 C 79.1702 -4.34598 -0.693742 0
M  V30 820 H 76.2892 -0.736504 0.027047 0
M  V30 821 H 78.9312 -1.74501 0.751615 0
M  V30 822 H 77.0812 -3.84236 -0.574009 0
M  V30 823 H 78.7532 -4.14832 2.01773 0
M  V30 824 H 76.9962 -3.87016 1.95962 0
M  V30 825 H 77.6672 -5.36478 1.29982 0
M  V30 826 H 80.1432 -4.15615 -0.200869 0
M  V30 827 H 79.0192 -5.44318 -0.707714 0
M  V30 828 H 79.2802 -4.05759 -1.75533 0
M  V30 829 N 78.3393 -0.321999 -1.54275 0
M  V30 830 C 79.3023 0.531975 -2.22941 0
M  V30 831 C 80.3023 1.04478 -1.22234 0
M  V30 832 O 81.4923 0.937452 -1.46825 0
M  V30 833 C 78.6243 1.73874 -2.93224 0
M  V30 834 H 79.8173 -0.0682612 -2.99822 0
M  V30 835 H 77.3703 -0.0730644 -1.56129 0
M  V30 836 H 78.1053 2.37825 -2.20476 0
M  V30 837 H 77.8903 1.37847 -3.6707 0
M  V30 838 H 79.3803 2.34496 -3.45545 0
M  V30 839 N 79.8174 1.5752 -0.0501392 0
M  V30 840 C 81.0424 1.97376 0.636997 0
M  V30 841 C 81.4674 0.927466 1.63645 0
M  V30 842 O 80.8254 -0.10941 1.8097 0
M  V30 843 C 80.8734 3.36304 1.30123 0
M  V30 844 O 79.9774 3.34156 2.41689 0
M  V30 845 H 79.3184 0.642998 0.165679 0
M  V30 846 H 81.8484 2.04258 -0.118233 0
M  V30 847 H 81.8584 3.73008 1.65315 0
M  V30 848 H 80.5334 4.11993 0.568746 0
M  V30 849 H 79.1104 3.09196 2.08451 0
M  V30 850 N 81.2955 -0.223234 1.56011 0
M  V30 851 C 82.2055 -1.29766 1.95443 0
M  V30 852 C 83.2215 -1.51373 0.858028 0
M  V30 853 O 84.3975 -1.64536 1.16146 0
M  V30 854 C 81.4625 -2.62772 2.26167 0
M  V30 855 C 80.5235 -2.49482 3.49367 0
M  V30 856 C 79.7565 -3.76145 3.78616 0
M  V30 857 O 79.9795 -4.79087 3.09568 0
M  V30 858 O 78.9135 -3.73358 4.72109 0
M  V30 859 H 82.7395 -0.99309 2.87004 0
M  V30 860 H 80.3245 -0.425958 1.43199 0
M  V30 861 H 82.2065 -3.41327 2.47131 0
M  V30 862 H 80.8815 -2.92913 1.37781 0
M  V30 863 H 79.7885 -1.69133 3.33684 0
M  V30 864 H 81.1215 -2.2428 4.38131 0
M  V30 865 N 82.7736 -1.49793 -0.48987 0
M  V30 866 C 84.0136 -1.61466 -1.25332 0
M  V30 867 C 84.3776 -0.299688 -1.89647 0
M  V30 868 O 85.5786 -0.291687 -2.67213 0
M  V30 869 C 83.8496 -2.74944 -2.28343 0
M  V30 870 S 85.4086 -3.06637 -3.13878 0
M  V30 871 H 82.2266 -0.569411 -0.425784 0
M  V30 872 H 84.8286 -1.875 -0.553541 0
M  V30 873 H 83.5326 -3.68994 -1.79643 0
M  V30 874 H 83.0636 -2.50938 -3.02975 0
M  V30 875 H 85.0786 -2.49015 -4.29192 0
M  V30 876 N 84.2517 0.741722 -1.39055 0
M  V30 877 C 85.4997 1.49818 -1.35643 0
M  V30 878 C 85.8207 1.94938 0.0491642 0
M  V30 879 O 85.0907 1.68505 0.999141 0
M  V30 880 H 83.6707 0.555755 -0.499144 0
M  V30 881 H 86.3327 0.880957 -1.73854 0
M  V30 882 H 85.4287 2.38348 -2.01486 0
M  V30 883 N 85.7298 1.2412 0.971189 0
M  V30 884 C 86.9768 1.07881 1.71371 0
M  V30 885 C 87.3048 -0.382901 1.90694 0
M  V30 886 O 86.5598 -1.29945 1.46331 0
M  V30 887 C 86.8588 1.75983 3.11071 0
M  V30 888 C 86.5248 3.25909 3.11599 0
M  V30 889 C 85.1868 3.66813 3.11451 0
M  V30 890 C 87.5388 4.21771 3.062 0
M  V30 891 C 84.8668 5.02021 3.03631 0
M  V30 892 C 87.2188 5.56982 2.99923 0
M  V30 893 C 85.8828 5.97237 2.98102 0
M  V30 894 H 85.1528 0.394764 0.62709 0
M  V30 895 H 87.7998 1.54176 1.13587 0
M  V30 896 H 86.1048 1.22072 3.72298 0
M  V30 897 H 87.8018 1.60887 3.6731 0
M  V30 898 H 84.3918 2.93353 3.12477 0
M  V30 899 H 88.5758 3.91172 3.05447 0
M  V30 900 H 83.8318 5.32411 3.0058 0
M  V30 901 H 88.0058 6.30969 2.94704 0
M  V30 902 H 85.6328 7.01967 2.91798 0
M  V30 903 N 87.2079 -1.17134 1.05439 0
M  V30 904 C 88.4359 -1.91372 0.786414 0
M  V30 905 C 88.8509 -1.76955 -0.658202 0
M  V30 906 O 88.2079 -1.10838 -1.44987 0
M  V30 907 C 88.2589 -3.42356 1.1608 0
M  V30 908 O 87.9799 -3.56332 2.54871 0
M  V30 909 C 89.4809 -4.33663 0.919322 0
M  V30 910 H 86.7009 -0.607118 0.285743 0
M  V30 911 H 89.2449 -1.48525 1.40572 0
M  V30 912 H 87.3999 -3.82939 0.586191 0
M  V30 913 H 87.8139 -4.49896 2.69618 0
M  V30 914 H 89.2879 -5.38099 1.231 0
M  V30 915 H 89.7649 -4.38959 -0.145359 0
M  V30 916 H 90.3709 -3.98796 1.47789 0
M  V30 917 N 88.686 -0.835752 -1.33615 0
M  V30 918 C 89.963 -0.352017 -1.92406 0
M  V30 919 C 90.343 1.16225 -1.76224 0
M  V30 920 O 89.691 1.97526 -1.14873 0
M  V30 921 C 89.901 -0.795485 -3.39813 0
M  V30 922 C 91.249 -0.801703 -4.16963 0
M  V30 923 O 92.273 -0.738889 -3.48452 0
M  V30 924 O 91.132 -0.886607 -5.3926 0
M  V30 925 H 88.226 -0.0989641 -0.821057 0
M  V30 926 H 90.772 -0.921397 -1.42507 0
M  V30 927 H 89.544 -1.83795 -3.45449 0
M  V30 928 H 89.167 -0.202505 -3.97084 0
M  V30 929 N 90.1641 1.46063 -0.591896 0
M  V30 930 C 91.0961 2.28539 0.174001 0
M  V30 931 C 92.1091 1.39047 0.846753 0
M  V30 932 O 93.2981 1.63564 0.714774 0
M  V30 933 C 90.3981 3.14347 1.26645 0
M  V30 934 C 89.5711 4.32021 0.683856 0
M  V30 935 C 88.6301 4.99157 1.66518 0
M  V30 936 O 87.6561 5.56458 1.19763 0
M  V30 937 N 88.8581 4.97005 2.99943 0
M  V30 938 H 91.6231 2.94911 -0.533633 0
M  V30 939 H 89.1841 1.56077 -0.430294 0
M  V30 940 H 91.1761 3.56125 1.92242 0
M  V30 941 H 89.7461 2.49988 1.87682 0
M  V30 942 H 88.9661 3.93915 -0.1498 0
M  V30 943 H 90.2541 5.08059 0.274567 0
M  V30 944 H 89.6521 4.51714 3.40545 0
M  V30 945 H 88.2091 5.42696 3.61004 0
M  V30 946 N 91.6422 0.330177 1.54103 0
M  V30 947 C 92.5922 -0.548456 2.21305 0
M  V30 948 C 93.5762 -1.07651 1.19583 0
M  V30 949 O 94.7682 -1.01243 1.45186 0
M  V30 950 C 91.8972 -1.70559 2.97934 0
M  V30 951 C 90.9832 -1.19212 4.07 0
M  V30 952 N 91.3742 -0.398831 5.04225 0
M  V30 953 C 89.6722 -1.47024 4.2107 0
M  V30 954 C 90.3732 -0.121761 5.81573 0
M  V30 955 N 89.3492 -0.709722 5.38947 0
M  V30 956 H 93.1512 0.0648483 2.93828 0
M  V30 957 H 90.6652 0.136363 1.61826 0
M  V30 958 H 92.6622 -2.34688 3.44568 0
M  V30 959 H 91.3222 -2.32231 2.26934 0
M  V30 960 H 92.3332 -0.0410869 5.17884 0
M  V30 961 H 89.0102 -2.09232 3.61287 0
M  V30 962 H 90.4002 0.517298 6.69906 0
M  V30 963 N 93.1203 -1.57491 0.0584922 0
M  V30 964 C 94.3503 -1.9701 -0.622134 0
M  V30 965 C 94.7583 -0.935034 -1.6448 0
M  V30 966 O 94.1013 0.0882904 -1.83488 0
M  V30 967 C 94.1633 -3.32794 -1.35972 0
M  V30 968 C 93.8273 -4.54343 -0.492043 0
M  V30 969 C 94.8243 -5.19323 0.244901 0
M  V30 970 C 92.5093 -5.00534 -0.420821 0
M  V30 971 C 94.5033 -6.28835 1.04143 0
M  V30 972 C 92.1903 -6.09921 0.379389 0
M  V30 973 C 93.1883 -6.73933 1.10919 0
M  V30 974 O 92.8763 -7.81216 1.89623 0
M  V30 975 H 92.6083 -0.653127 -0.174359 0
M  V30 976 H 95.1623 -2.05029 0.123418 0
M  V30 977 H 93.3923 -3.21351 -2.15105 0
M  V30 978 H 95.0813 -3.5701 -1.93129 0
M  V30 979 H 95.8473 -4.8459 0.19939 0
M  V30 980 H 91.7263 -4.50496 -0.978474 0
M  V30 981 H 95.2703 -6.7873 1.61157 0
M  V30 982 H 91.1673 -6.44089 0.426512 0
M  V30 983 H 91.9353 -7.98029 1.81913 0
M  V30 984 N 94.5984 0.214957 -1.56127 0
M  V30 985 C 96.0144 0.564948 -1.49267 0
M  V30 986 C 96.2144 1.86827 -0.754838 0
M  V30 987 O 95.2704 2.50745 -0.297198 0
M  V30 988 C 96.5834 0.638071 -2.93852 0
M  V30 989 C 98.1314 0.728253 -3.0441 0
M  V30 990 C 98.6064 0.832663 -4.50367 0
M  V30 991 N 100.097 0.896712 -4.54437 0
M  V30 992 C 100.832 0.997324 -5.6466 0
M  V30 993 N 100.328 1.06147 -6.8462 0
M  V30 994 N 102.121 1.03297 -5.52527 0
M  V30 995 H 94.2724 -0.640211 -2.02522 0
M  V30 996 H 96.5354 -0.225507 -0.920788 0
M  V30 997 H 96.2414 -0.250126 -3.50809 0
M  V30 998 H 96.1154 1.49947 -3.46115 0
M  V30 999 H 98.5024 1.60689 -2.47514 0
M  V30 1000 H 98.5834 -0.158952 -2.55306 0
M  V30 1001 H 98.2274 -0.0415417 -5.07883 0
M  V30 1002 H 98.1574 1.73538 -4.97184 0
M  V30 1003 H 100.648 0.857188 -3.6805 0
M  V30 1004 H 100.961 1.1382 -7.64372 0
M  V30 1005 H 99.3064 1.03049 -6.87318 0
M  V30 1006 H 102.497 0.979558 -4.57736 0
M  V30 1007 H 102.67 1.10793 -6.38458 0
M  V30 1008 N 96.0765 1.50051 0.48192 0
M  V30 1009 C 97.0395 1.67584 1.5636 0
M  V30 1010 C 98.0395 0.546894 1.51214 0
M  V30 1011 O 99.2295 0.813725 1.54026 0
M  V30 1012 C 96.3615 1.691 2.96003 0
M  V30 1013 H 97.5545 2.64078 1.42136 0
M  V30 1014 H 95.1075 1.39369 0.707533 0
M  V30 1015 H 95.8425 0.742589 3.15684 0
M  V30 1016 H 95.6275 2.51105 3.01146 0
M  V30 1017 H 97.1175 1.84656 3.74556 0
M  V30 1018 N 97.5546 -0.734337 1.39446 0
M  V30 1019 C 98.4846 -1.86155 1.40955 0
M  V30 1020 C 99.4656 -1.67898 0.272827 0
M  V30 1021 O 100.651 -1.88207 0.478743 0
M  V30 1022 C 97.7806 -3.23912 1.25294 0
M  V30 1023 C 96.7346 -3.56808 2.36373 0
M  V30 1024 C 96.0606 -4.93508 2.058 0
M  V30 1025 C 97.3606 -3.59713 3.78687 0
M  V30 1026 H 99.0546 -1.8515 2.35287 0
M  V30 1027 H 96.6006 -0.889367 1.13253 0
M  V30 1028 H 98.5536 -4.02443 1.2497 0
M  V30 1029 H 97.2776 -3.25446 0.274308 0
M  V30 1030 H 95.9366 -2.80606 2.35914 0
M  V30 1031 H 95.5846 -4.91623 1.06374 0
M  V30 1032 H 95.2846 -5.16486 2.80208 0
M  V30 1033 H 96.8086 -5.74396 2.07128 0
M  V30 1034 H 98.2226 -4.2832 3.81071 0
M  V30 1035 H 96.6196 -3.94209 4.52459 0
M  V30 1036 H 97.6896 -2.59504 4.09617 0
M  V30 1037 N 99.0327 -1.24633 -0.964593 0
M  V30 1038 C 99.9647 -0.999302 -2.06268 0
M  V30 1039 C 100.978 0.0323226 -1.62768 0
M  V30 1040 O 102.167 -0.205079 -1.77318 0
M  V30 1041 C 99.2667 -0.486816 -3.35385 0
M  V30 1042 C 98.4397 -1.5823 -4.07777 0
M  V30 1043 C 97.4987 -1.07191 -5.15166 0
M  V30 1044 O 96.5247 -1.76426 -5.41168 0
M  V30 1045 N 97.7267 0.0920373 -5.80427 0
M  V30 1046 H 100.492 -1.94477 -2.28033 0
M  V30 1047 H 98.0527 -1.15704 -1.13244 0
M  V30 1048 H 100.045 -0.130066 -4.04491 0
M  V30 1049 H 98.6147 0.364459 -3.10468 0
M  V30 1050 H 97.8347 -2.11109 -3.32906 0
M  V30 1051 H 99.1227 -2.31854 -4.52903 0
M  V30 1052 H 98.5207 0.670784 -5.61709 0
M  V30 1053 H 97.0777 0.389905 -6.50633 0
M  V30 1054 N 100.511 1.16574 -1.06058 0
M  V30 1055 C 101.443 2.2045 -0.627239 0
M  V30 1056 C 102.456 1.59752 0.313534 0
M  V30 1057 O 103.645 1.78192 0.104896 0
M  V30 1058 C 100.745 3.3875 0.100974 0
M  V30 1059 C 99.9178 4.29008 -0.852687 0
M  V30 1060 C 98.9768 5.25944 -0.164152 0
M  V30 1061 O 98.0028 5.63535 -0.801047 0
M  V30 1062 N 99.2048 5.70075 1.09518 0
M  V30 1063 H 101.97 2.58249 -1.52077 0
M  V30 1064 H 99.5308 1.3156 -0.943594 0
M  V30 1065 H 101.523 4.00638 0.57194 0
M  V30 1066 H 100.093 2.99476 0.89628 0
M  V30 1067 H 99.3128 3.64419 -1.50308 0
M  V30 1068 H 100.601 4.86195 -1.49972 0
M  V30 1069 H 99.9988 5.41624 1.6328 0
M  V30 1070 H 98.5558 6.34067 1.51006 0
M  V30 1071 N 101.989 0.842826 1.3317 0
M  V30 1072 C 102.919 0.294028 2.31641 0
M  V30 1073 C 103.9 -0.600401 1.59151 0
M  V30 1074 O 105.085 -0.523124 1.87022 0
M  V30 1075 C 102.215 -0.528416 3.43257 0
M  V30 1076 C 101.169 0.27056 4.27144 0
M  V30 1077 C 100.495 -0.675881 5.30411 0
M  V30 1078 C 101.795 1.48981 5.00602 0
M  V30 1079 H 103.489 1.11681 2.77791 0
M  V30 1080 H 101.035 0.538478 1.33553 0
M  V30 1081 H 102.988 -0.922674 4.11175 0
M  V30 1082 H 101.712 -1.38445 2.95805 0
M  V30 1083 H 100.371 0.646427 3.60856 0
M  V30 1084 H 100.019 -1.52842 4.79216 0
M  V30 1085 H 99.7189 -0.145374 5.8742 0
M  V30 1086 H 101.243 -1.06757 6.01195 0
M  V30 1087 H 102.657 1.16849 5.61266 0
M  V30 1088 H 101.054 1.95739 5.6728 0
M  V30 1089 H 102.124 2.25746 4.29147 0
M  V30 1090 N 103.467 -1.45747 0.599634 0
M  V30 1091 C 104.399 -2.28628 -0.161879 0
M  V30 1092 C 105.412 -1.39494 -0.839367 0
M  V30 1093 O 106.601 -1.63941 -0.706089 0
M  V30 1094 C 103.701 -3.15014 -1.24976 0
M  V30 1095 C 102.874 -4.32378 -0.660935 0
M  V30 1096 C 101.933 -5.00033 -1.63869 0
M  V30 1097 O 100.959 -5.57085 -1.1681 0
M  V30 1098 N 102.161 -4.98589 -2.97303 0
M  V30 1099 H 104.926 -2.94624 0.549265 0
M  V30 1100 H 102.487 -1.55847 0.438565 0
M  V30 1101 H 104.479 -3.5714 -1.9035 0
M  V30 1102 H 103.049 -2.5098 -1.86354 0
M  V30 1103 H 102.269 -3.9383 0.170688 0
M  V30 1104 H 103.557 -5.08197 -0.247619 0
M  V30 1105 H 102.955 -4.53514 -3.38145 0
M  V30 1106 H 101.512 -5.44603 -3.58121 0
M  V30 1107 N 104.945 -0.338344 -1.53925 0
M  V30 1108 C 106.361 0.0137736 -1.59594 0
M  V30 1109 C 106.561 1.49186 -1.35447 0
M  V30 1110 O 105.617 2.24987 -1.14616 0
M  V30 1111 C 106.93 -0.41773 -2.97784 0
M  V30 1112 C 108.478 -0.369633 -3.1081 0
M  V30 1113 C 108.953 -0.776524 -4.51369 0
M  V30 1114 N 110.444 -0.730506 -4.57403 0
M  V30 1115 C 111.179 -1.01736 -5.64303 0
M  V30 1116 N 110.675 -1.3721 -6.79077 0
M  V30 1117 N 112.468 -0.941942 -5.54151 0
M  V30 1118 H 104.619 -1.3012 -1.67876 0
M  V30 1119 H 106.882 -0.530082 -0.78595 0
M  V30 1120 H 106.588 -1.44811 -3.20504 0
M  V30 1121 H 106.462 0.209729 -3.76616 0
M  V30 1122 H 108.849 0.651568 -2.87817 0
M  V30 1123 H 108.93 -1.03223 -2.34049 0
M  V30 1124 H 108.574 -1.79571 -4.75096 0
M  V30 1125 H 108.504 -0.0914649 -5.26521 0
M  V30 1126 H 110.995 -0.468783 -3.74981 0
M  V30 1127 H 111.308 -1.57597 -7.5656 0
M  V30 1128 H 109.653 -1.4105 -6.80536 0
M  V30 1129 H 112.844 -0.664184 -4.63364 0
M  V30 1130 H 113.017 -1.16884 -6.37371 0
M  V30 1131 N 106.423 1.57458 -0.0668435 0
M  V30 1132 C 107.7 1.8469 0.644132 0
M  V30 1133 C 108.08 0.958343 1.88093 0
M  V30 1134 O 107.428 0.0233579 2.28488 0
M  V30 1135 C 107.638 3.34767 0.986509 0
M  V30 1136 C 108.986 4.02159 1.36212 0
M  V30 1137 O 110.01 3.39484 1.07839 0
M  V30 1138 O 108.869 5.12694 1.89227 0
M  V30 1139 H 105.963 0.762816 0.319437 0
M  V30 1140 H 108.509 1.6942 -0.0973986 0
M  V30 1141 H 107.281 3.91151 0.107883 0
M  V30 1142 H 106.904 3.55281 1.78497 0
M  V30 1143 N 107.901 -0.206675 1.56239 0
M  V30 1144 C 108.831 -1.25909 1.96645 0
M  V30 1145 C 109.812 -1.48097 0.836734 0
M  V30 1146 O 110.997 -1.6003 1.10019 0
M  V30 1147 C 108.127 -2.6058 2.29599 0
M  V30 1148 C 107.081 -2.53024 3.452 0
M  V30 1149 C 106.407 -3.91861 3.63798 0
M  V30 1150 C 107.707 -2.06524 4.79734 0
M  V30 1151 H 109.401 -0.923369 2.84806 0
M  V30 1152 H 106.947 -0.442735 1.37025 0
M  V30 1153 H 108.9 -3.34375 2.56459 0
M  V30 1154 H 107.624 -2.95869 1.38307 0
M  V30 1155 H 106.283 -1.81684 3.18412 0
M  V30 1156 H 105.931 -4.24483 2.69857 0
M  V30 1157 H 105.631 -3.87683 4.4156 0
M  V30 1158 H 107.155 -4.67296 3.93022 0
M  V30 1159 H 108.569 -2.70072 5.05702 0
M  V30 1160 H 106.966 -2.13374 5.60885 0
M  V30 1161 H 108.036 -1.01802 4.74093 0
M  V30 1162 N 109.379 -1.50304 -0.473955 0
M  V30 1163 C 110.627 -1.60832 -1.22382 0
M  V30 1164 C 110.948 -0.30939 -1.9253 0
M  V30 1165 O 110.218 0.67296 -1.83978 0
M  V30 1166 H 108.798 -0.592652 -0.454723 0
M  V30 1167 H 111.46 -1.87068 -0.546968 0
M  V30 1168 H 110.556 -2.41803 -1.97327 0
M  V30 1169 N 110.857 0.726932 -1.39834 0
M  V30 1170 C 112.268 1.30558 -1.3346 0
M  V30 1171 C 112.619 1.962 -0.00273003 0
M  V30 1172 O 111.744 1.96826 0.899371 0
M  V30 1173 C 112.339 2.37404 -2.41713 0
M  V30 1174 C 110.898 2.90921 -2.38835 0
M  V30 1175 C 110.045 1.64578 -2.2318 0
M  V30 1176 H 112.996 0.523862 -1.49804 0
M  V30 1177 H 113.017 3.17984 -2.08966 0
M  V30 1178 H 112.529 1.89599 -3.38635 0
M  V30 1179 H 110.63 3.42985 -1.45575 0
M  V30 1180 H 110.743 3.43487 -3.33997 0
M  V30 1181 H 109.107 1.89219 -1.70494 0
M  V30 1182 H 109.89 1.18814 -3.22084 0
M  V30 1183 N 112.336 1.25143 0.95797 0
M  V30 1184 C 113.286 1.01924 2.0395 0
M  V30 1185 C 114.27 -0.0427175 1.60843 0
M  V30 1186 O 115.462 0.17221 1.7616 0
M  V30 1187 C 112.591 0.636373 3.3735 0
M  V30 1188 C 111.677 1.73492 3.8699 0
M  V30 1189 N 112.068 2.96945 4.0946 0
M  V30 1190 C 110.366 1.61467 4.15746 0
M  V30 1191 C 111.067 3.68228 4.50315 0
M  V30 1192 N 110.043 2.95833 4.56053 0
M  V30 1193 H 113.845 1.95653 2.19311 0
M  V30 1194 H 111.359 1.15413 1.14253 0
M  V30 1195 H 113.356 0.451233 4.14451 0
M  V30 1196 H 112.016 -0.293621 3.2337 0
M  V30 1197 H 113.027 3.33025 3.96629 0
M  V30 1198 H 109.704 0.753394 4.10646 0
M  V30 1199 H 111.094 4.74178 4.76031 0
M  V30 1200 N 113.814 -1.1601 1.06675 0
M  V30 1201 C 114.764 -2.18512 0.650888 0
M  V30 1202 C 115.748 -1.57677 -0.320441 0
M  V30 1203 O 116.94 -1.76482 -0.135266 0
M  V30 1204 C 114.069 -3.43273 0.0429255 0
M  V30 1205 C 113.155 -4.11176 1.03898 0
M  V30 1206 N 113.546 -4.54672 2.216 0
M  V30 1207 C 111.844 -4.37417 0.870779 0
M  V30 1208 C 112.545 -5.07248 2.84736 0
M  V30 1209 N 111.521 -5.0037 2.12441 0
M  V30 1210 H 115.323 -2.49863 1.54745 0
M  V30 1211 H 112.837 -1.32503 0.938975 0
M  V30 1212 H 114.834 -4.16006 -0.272857 0
M  V30 1213 H 113.494 -3.13408 -0.84884 0
M  V30 1214 H 114.505 -4.4828 2.59356 0
M  V30 1215 H 111.182 -4.17488 0.0313293 0
M  V30 1216 H 112.572 -5.50912 3.84636 0
M  V30 1217 N 115.292 -0.849877 -1.32721 0
M  V30 1218 C 116.539 -0.450923 -1.97416 0
M  V30 1219 C 116.867 0.992376 -1.67279 0
M  V30 1220 O 116.122 1.71048 -0.950845 0
M  V30 1221 C 116.421 -0.631272 -3.51781 0
M  V30 1222 C 116.087 -2.04432 -4.01894 0
M  V30 1223 C 114.749 -2.4308 -4.1529 0
M  V30 1224 C 117.101 -2.96679 -4.28522 0
M  V30 1225 C 114.429 -3.73257 -4.52654 0
M  V30 1226 C 116.781 -4.26349 -4.67343 0
M  V30 1227 C 115.445 -4.64939 -4.78945 0
M  V30 1228 H 114.715 -0.165004 -0.722395 0
M  V30 1229 H 117.362 -1.07901 -1.58207 0
M  V30 1230 H 115.667 0.0800767 -3.91718 0
M  V30 1231 H 117.364 -0.302709 -3.99856 0
M  V30 1232 H 113.954 -1.73419 -3.91949 0
M  V30 1233 H 118.138 -2.68054 -4.17685 0
M  V30 1234 H 113.394 -4.02946 -4.59831 0
M  V30 1235 H 117.568 -4.97895 -4.86902 0
M  V30 1236 H 115.195 -5.65855 -5.07654 0
M  V30 1237 N 116.77 1.45427 -0.607355 0
M  V30 1238 C 117.718 2.32269 0.12411 0
M  V30 1239 C 118.712 1.45955 0.859854 0
M  V30 1240 O 119.918 1.6244 0.775447 0
M  V30 1241 H 116.293 0.749691 0.0588839 0
M  V30 1242 H 118.264 2.91743 -0.626762 0
M  V30 1243 C 117.013 3.29567 1.1082 0
M  V30 1244 H 116.336 3.95978 0.551492 0
M  V30 1245 H 117.776 3.93061 1.58995 0
M  V30 1246 C 116.235 2.56722 2.18164 0
M  V30 1247 O 116.765 2.34842 3.25902 0
M  V30 1248 N 114.971 2.16861 1.93442 0
M  V30 1249 H 114.518 2.34855 1.05834 0
M  V30 1250 H 114.476 1.68444 2.65469 0
M  V30 1251 N 118.248 0.346503 1.53744 0
M  V30 1252 C 119.494 -0.249473 2.0126 0
M  V30 1253 C 119.827 -1.49965 1.23386 0
M  V30 1254 O 119.102 -1.91811 0.32229 0
M  V30 1255 C 119.385 -0.560643 3.55709 0
M  V30 1256 C 119.238 0.701836 4.44291 0
M  V30 1257 C 120.557 -1.36905 4.18264 0
M  V30 1258 H 117.676 -0.0891987 0.731582 0
M  V30 1259 H 120.318 0.467624 1.84156 0
M  V30 1260 H 118.468 -1.17156 3.70414 0
M  V30 1261 H 120.14 1.33974 4.41417 0
M  V30 1262 H 118.383 1.32612 4.13033 0
M  V30 1263 H 119.054 0.43933 5.50249 0
M  V30 1264 H 121.53 -0.852448 4.07275 0
M  V30 1265 H 120.406 -1.55553 5.26398 0
M  V30 1266 H 120.667 -2.37203 3.73078 0
M  V30 1267 N 119.726 -1.57421 0.075193 0
M  V30 1268 C 120.656 -2.15942 -0.888324 0
M  V30 1269 C 121.637 -1.08737 -1.30806 0
M  V30 1270 O 122.822 -1.36787 -1.37851 0
M  V30 1271 C 119.952 -2.72379 -2.1547 0
M  V30 1272 C 118.906 -3.8478 -1.87425 0
M  V30 1273 C 118.232 -4.27834 -3.20721 0
M  V30 1274 C 119.532 -5.08869 -1.17684 0
M  V30 1275 H 121.226 -2.96705 -0.400799 0
M  V30 1276 H 118.772 -1.42723 -0.191342 0
M  V30 1277 H 120.725 -3.11965 -2.83295 0
M  V30 1278 H 119.449 -1.88841 -2.6647 0
M  V30 1279 H 118.108 -3.45703 -1.22004 0
M  V30 1280 H 117.756 -3.41214 -3.6957 0
M  V30 1281 H 117.456 -5.03605 -3.02746 0
M  V30 1282 H 118.98 -4.70039 -3.89738 0
M  V30 1283 H 120.394 -5.4575 -1.75584 0
M  V30 1284 H 118.791 -5.8994 -1.09956 0
M  V30 1285 H 119.861 -4.84648 -0.156453 0
M  V30 1286 N 121.204 0.198386 -1.56346 0
M  V30 1287 C 122.167 1.22952 -1.93431 0
M  V30 1288 C 123.167 1.38611 -0.815092 0
M  V30 1289 O 124.357 1.36479 -1.08255 0
M  V30 1290 C 121.489 2.59946 -2.20546 0
M  V30 1291 H 122.682 0.912626 -2.85677 0
M  V30 1292 H 120.235 0.43977 -1.49986 0
M  V30 1293 H 120.97 2.96696 -1.30927 0
M  V30 1294 H 120.755 2.49953 -3.02102 0
M  V30 1295 H 122.245 3.3431 -2.50253 0
M  V30 1296 N 122.682 1.50554 0.465978 0
M  V30 1297 C 123.929 1.61798 1.21768 0
M  V30 1298 C 124.257 0.320696 1.91838 0
M  V30 1299 O 123.512 -0.693724 1.82992 0
M  V30 1300 C 123.811 2.75152 2.28093 0
M  V30 1301 C 123.477 4.15454 1.75239 0
M  V30 1302 C 122.139 4.53628 1.60546 0
M  V30 1303 C 124.491 5.03121 1.36083 0
M  V30 1304 C 121.819 5.77204 1.05128 0
M  V30 1305 C 124.171 6.27249 0.821056 0
M  V30 1306 C 122.835 6.64221 0.660795 0
M  V30 1307 H 122.105 0.592063 0.445582 0
M  V30 1308 H 124.752 1.84503 0.512927 0
M  V30 1309 H 123.057 2.46556 3.04496 0
M  V30 1310 H 124.754 2.81055 2.86023 0
M  V30 1311 H 121.344 3.85341 1.87644 0
M  V30 1312 H 125.528 4.74257 1.46267 0
M  V30 1313 H 120.784 6.0452 0.91462 0
M  V30 1314 H 124.958 6.94537 0.509018 0
M  V30 1315 H 122.585 7.59854 0.229226 0
M  V30 1316 N 124.16 -0.719506 1.40217 0
M  V30 1317 C 125.571 -1.29848 1.34151 0
M  V30 1318 C 125.922 -1.96196 0.0131349 0
M  V30 1319 O 125.047 -1.973 -0.88892 0
M  V30 1320 C 125.642 -2.36118 2.42968 0
M  V30 1321 C 124.201 -2.8965 2.40374 0
M  V30 1322 C 123.348 -1.63393 2.24049 0
M  V30 1323 H 126.299 -0.51591 1.5008 0
M  V30 1324 H 126.32 -3.16871 2.10649 0
M  V30 1325 H 125.832 -1.878 3.39636 0
M  V30 1326 H 123.933 -3.42208 1.47392 0
M  V30 1327 H 124.046 -3.4171 3.35814 0
M  V30 1328 H 122.41 -1.88312 1.71495 0
M  V30 1329 H 123.193 -1.17104 3.2271 0
M  V30 1330 N 125.638 -1.25649 -0.95132 0
M  V30 1331 C 126.878 -1.11802 -1.71113 0
M  V30 1332 C 127.242 0.334758 -1.89059 0
M  V30 1333 O 128.443 0.595121 -2.62129 0
M  V30 1334 C 126.714 -1.85512 -3.05483 0
M  V30 1335 S 128.273 -1.87597 -3.96677 0
M  V30 1336 H 125.091 -0.399552 -0.588115 0
M  V30 1337 H 127.693 -1.59222 -1.1344 0
M  V30 1338 H 126.397 -2.90299 -2.90094 0
M  V30 1339 H 125.928 -1.38493 -3.68216 0
M  V30 1340 H 127.943 -0.955389 -4.86916 0
M  V30 1341 N 127.117 1.15442 -1.07289 0
M  V30 1342 C 128.065 2.22225 -0.686952 0
M  V30 1343 C 129.059 1.66688 0.30193 0
M  V30 1344 O 130.265 1.79236 0.165712 0
M  V30 1345 H 126.64 0.723783 -0.204064 0
M  V30 1346 H 128.611 2.52056 -1.5972 0
M  V30 1347 C 127.36 3.47556 -0.100149 0
M  V30 1348 H 126.683 3.90612 -0.852211 0
M  V30 1349 H 128.123 4.23794 0.132235 0
M  V30 1350 C 126.582 3.16337 1.159 0
M  V30 1351 O 127.112 3.33074 2.24555 0
M  V30 1352 N 125.318 2.70385 1.06491 0
M  V30 1353 H 124.865 2.56966 0.180668 0
M  V30 1354 H 124.823 2.49871 1.90819 0
M  V30 1355 N 128.595 0.856903 1.32268 0
M  V30 1356 C 129.527 0.260412 2.27716 0
M  V30 1357 C 130.54 -0.569137 1.52528 0
M  V30 1358 O 131.729 -0.39326 1.74114 0
M  V30 1359 C 128.829 -0.650477 3.32599 0
M  V30 1360 C 128.002 0.14372 4.37164 0
M  V30 1361 C 127.061 -0.69328 5.21613 0
M  V30 1362 O 126.087 -0.12599 5.69061 0
M  V30 1363 N 127.289 -2.00761 5.44679 0
M  V30 1364 H 130.054 1.08059 2.79541 0
M  V30 1365 H 127.615 0.717103 1.45152 0
M  V30 1366 H 129.607 -1.21581 3.86005 0
M  V30 1367 H 128.177 -1.37133 2.80915 0
M  V30 1368 H 127.397 0.890486 3.8401 0
M  V30 1369 H 128.685 0.68915 5.04111 0
M  V30 1370 H 128.083 -2.49181 5.07863 0
M  V30 1371 H 126.64 -2.52103 6.01072 0
M  V30 1372 N 130.073 -1.45103 0.615059 0
M  V30 1373 C 131.32 -2.02183 0.113179 0
M  V30 1374 C 131.648 -1.48249 -1.25906 0
M  V30 1375 O 130.903 -0.650265 -1.84581 0
M  V30 1376 C 131.202 -3.57386 0.0318797 0
M  V30 1377 C 130.868 -4.30505 1.34077 0
M  V30 1378 C 129.53 -4.50197 1.69929 0
M  V30 1379 C 131.882 -4.72238 2.20546 0
M  V30 1380 C 129.21 -5.08881 2.91988 0
M  V30 1381 C 131.562 -5.32272 3.41861 0
M  V30 1382 C 130.226 -5.50187 3.77956 0
M  V30 1383 H 129.496 -0.739842 0.0414151 0
M  V30 1384 H 132.143 -1.74073 0.798168 0
M  V30 1385 H 130.448 -3.84817 -0.736409 0
M  V30 1386 H 132.145 -3.99264 -0.372712 0
M  V30 1387 H 128.735 -4.15496 1.05173 0
M  V30 1388 H 132.919 -4.56751 1.94146 0
M  V30 1389 H 128.175 -5.20939 3.2005 0
M  V30 1390 H 132.349 -5.63563 4.09109 0
M  V30 1391 H 129.976 -5.95427 4.72622 0
M  V30 1392 N 131.551 -0.354651 -1.53558 0
M  V30 1393 C 132.799 0.237972 -2.00694 0
M  V30 1394 C 133.12 1.50173 -1.24391 0
M  V30 1395 O 132.39 1.92673 -0.354135 0
M  V30 1396 H 130.97 0.0909256 -0.741446 0
M  V30 1397 H 133.632 -0.478368 -1.88938 0
M  V30 1398 H 132.728 0.47264 -3.085 0
M  V30 1399 N 133.029 1.57378 -0.0835403 0
M  V30 1400 C 133.961 2.10389 0.909338 0
M  V30 1401 C 134.974 1.03858 1.25369 0
M  V30 1402 O 136.163 1.31338 1.20882 0
M  V30 1403 C 133.263 2.55908 2.2218 0
M  V30 1404 C 132.436 3.86145 2.05453 0
M  V30 1405 C 131.495 4.17633 3.20108 0
M  V30 1406 O 130.521 4.87043 2.94581 0
M  V30 1407 N 131.723 3.72113 4.45547 0
M  V30 1408 H 134.488 2.962 0.456657 0
M  V30 1409 H 132.049 1.61579 0.101877 0
M  V30 1410 H 134.041 2.74027 2.97811 0
M  V30 1411 H 132.611 1.75171 2.58909 0
M  V30 1412 H 131.831 3.7729 1.1422 0
M  V30 1413 H 133.119 4.7137 1.91541 0
M  V30 1414 H 132.517 3.16062 4.69171 0
M  V30 1415 H 131.074 3.95409 5.18165 0
M  V30 1416 N 134.507 -0.190092 1.56449 0
M  V30 1417 C 135.439 -1.25973 1.91477 0
M  V30 1418 C 136.452 -1.41452 0.805931 0
M  V30 1419 O 137.641 -1.41789 1.08435 0
M  V30 1420 C 134.741 -2.63117 2.13594 0
M  V30 1421 C 133.914 -2.69182 3.4476 0
M  V30 1422 C 132.973 -3.87557 3.5593 0
M  V30 1423 O 131.999 -3.74427 4.28711 0
M  V30 1424 N 133.201 -5.03224 2.89388 0
M  V30 1425 H 135.966 -0.962394 2.83828 0
M  V30 1426 H 133.527 -0.379981 1.57378 0
M  V30 1427 H 135.519 -3.40742 2.1835 0
M  V30 1428 H 134.089 -2.85319 1.27719 0
M  V30 1429 H 133.309 -1.77793 3.51828 0
M  V30 1430 H 134.597 -2.70229 4.31107 0
M  V30 1431 H 133.995 -5.16791 2.30094 0
M  V30 1432 H 132.552 -5.78778 2.99764 0
M  V30 1433 N 135.985 -1.50799 -0.457987 0
M  V30 1434 C 136.895 -1.73426 -1.57989 0
M  V30 1435 C 137.911 -0.617745 -1.62665 0
M  V30 1436 O 139.087 -0.897614 -1.80291 0
M  V30 1437 C 136.152 -1.83557 -2.94122 0
M  V30 1438 C 135.213 -3.07345 -2.99729 0
M  V30 1439 C 134.446 -3.16983 -4.29368 0
M  V30 1440 O 134.669 -2.33077 -5.20607 0
M  V30 1441 O 133.603 -4.09812 -4.40837 0
M  V30 1442 H 137.429 -2.68555 -1.41817 0
M  V30 1443 H 135.014 -1.35052 -0.638859 0
M  V30 1444 H 136.896 -1.92326 -3.74952 0
M  V30 1445 H 135.571 -0.916137 -3.10465 0
M  V30 1446 H 134.478 -3.04068 -2.1793 0
M  V30 1447 H 135.811 -3.9891 -2.88326 0
M  V30 1448 N 137.463 0.71206 -1.40597 0
M  V30 1449 C 138.874 1.29135 -1.34837 0
M  V30 1450 C 139.225 1.96186 -0.0235395 0
M  V30 1451 O 138.35 1.97768 0.878444 0
M  V30 1452 C 138.945 2.34827 -2.44217 0
M  V30 1453 C 137.504 2.88371 -2.41907 0
M  V30 1454 C 136.651 1.62202 -2.24913 0
M  V30 1455 H 139.602 0.507944 -1.50352 0
M  V30 1456 H 139.623 3.15749 -2.12327 0
M  V30 1457 H 139.135 1.85996 -3.40627 0
M  V30 1458 H 137.236 3.41422 -1.49204 0
M  V30 1459 H 137.349 3.39925 -3.37621 0
M  V30 1460 H 135.713 1.874 -1.72492 0
M  V30 1461 H 136.496 1.15391 -3.23326 0
M  V30 1462 N 138.941 1.26152 0.944643 0
M  V30 1463 C 140.218 1.02247 1.66748 0
M  V30 1464 C 140.598 -0.448202 2.06287 0
M  V30 1465 O 139.946 -1.42779 1.78399 0
M  V30 1466 C 140.156 1.96788 2.88228 0
M  V30 1467 C 141.504 2.25201 3.59958 0
M  V30 1468 O 142.528 1.94626 2.98327 0
M  V30 1469 O 141.387 2.77242 4.70956 0
M  V30 1470 H 138.481 0.388517 0.730057 0
M  V30 1471 H 141.027 1.37348 0.99668 0
M  V30 1472 H 139.799 2.96047 2.55875 0
M  V30 1473 H 139.422 1.62145 3.63035 0
M  V30 1474 N 140.419 -1.14872 1.07899 0
M  V30 1475 C 141.644 -1.90202 0.826926 0
M  V30 1476 C 142.069 -1.77774 -0.614664 0
M  V30 1477 O 141.427 -1.11431 -1.43013 0
M  V30 1478 C 141.475 -3.38352 1.24702 0
M  V30 1479 O 140.579 -4.10497 0.39575 0
M  V30 1480 H 139.92 -0.591968 0.300782 0
M  V30 1481 H 142.45 -1.45437 1.43907 0
M  V30 1482 H 142.46 -3.89156 1.22563 0
M  V30 1483 H 141.135 -3.46715 2.29698 0
M  V30 1484 H 139.712 -3.69796 0.480117 0
M  V30 1485 N 141.898 -0.863906 -1.31812 0
M  V30 1486 C 142.846 -0.30422 -2.30602 0
M  V30 1487 C 143.84 0.577419 -1.59255 0
M  V30 1488 O 145.046 0.464194 -1.73912 0
M  V30 1489 H 141.421 -0.0796877 -0.747766 0
M  V30 1490 H 143.392 -1.15148 -2.75288 0
M  V30 1491 C 142.141 0.484617 -3.44306 0
M  V30 1492 H 141.464 -0.18451 -3.99374 0
M  V30 1493 H 142.904 0.841664 -4.15562 0
M  V30 1494 C 141.363 1.6735 -2.92396 0
M  V30 1495 O 141.893 2.77273 -2.90659 0
M  V30 1496 N 140.099 1.50362 -2.48676 0
M  V30 1497 H 139.646 0.609402 -2.50288 0
M  V30 1498 H 139.604 2.30051 -2.14299 0
M  V30 1499 N 143.376 1.44774 -0.622745 0
M  V30 1500 C 144.323 2.30635 0.0871679 0
M  V30 1501 C 145.293 1.42994 0.845097 0
M  V30 1502 O 146.478 1.71907 0.827812 0
M  V30 1503 C 143.618 3.28144 1.06844 0
M  V30 1504 C 142.731 4.30888 0.309809 0
M  V30 1505 C 141.866 5.15494 1.28215 0
M  V30 1506 C 140.905 6.09953 0.512198 0
M  V30 1507 N 140.042 6.87287 1.43458 0
M  V30 1508 H 144.882 2.90803 -0.650974 0
M  V30 1509 H 142.419 1.43286 -0.33281 0
M  V30 1510 H 144.377 3.83157 1.65066 0
M  V30 1511 H 143.007 2.69695 1.77382 0
M  V30 1512 H 142.059 3.78414 -0.388181 0
M  V30 1513 H 143.371 4.97955 -0.290254 0
M  V30 1514 H 142.525 5.74983 1.93596 0
M  V30 1515 H 141.264 4.48481 1.91614 0
M  V30 1516 H 140.269 5.49581 -0.155151 0
M  V30 1517 H 141.494 6.78999 -0.116958 0
M  V30 1518 H 139.44 6.2295 2.05594 0
M  V30 1519 H 139.357 7.50763 0.888335 0
M  V30 1520 H 140.625 7.51306 2.07749 0
M  V30 1521 N 144.854 0.36279 1.53368 0
M  V30 1522 C 145.764 -0.492994 2.29362 0
M  V30 1523 C 146.78 -1.09507 1.35219 0
M  V30 1524 O 147.956 -1.10662 1.68273 0
M  V30 1525 C 145.021 -1.61855 3.066 0
M  V30 1526 C 144.082 -1.04429 4.16405 0
M  V30 1527 C 143.315 -2.11621 4.89951 0
M  V30 1528 O 143.538 -3.32684 4.63333 0
M  V30 1529 O 142.472 -1.74835 5.75948 0
M  V30 1530 H 146.298 0.125331 3.03441 0
M  V30 1531 H 143.883 0.127253 1.48857 0
M  V30 1532 H 145.765 -2.27302 3.54841 0
M  V30 1533 H 144.44 -2.22233 2.3536 0
M  V30 1534 H 143.347 -0.353819 3.72423 0
M  V30 1535 H 144.68 -0.485113 4.89804 0
M  V30 1536 N 146.332 -1.57332 0.0918853 0
M  V30 1537 C 147.581 -1.93412 -0.572249 0
M  V30 1538 C 147.894 -0.975515 -1.69538 0
M  V30 1539 O 149.1 -1.22991 -2.42045 0
M  V30 1540 C 147.556 -3.43648 -1.0693 0
M  V30 1541 C 147.164 -4.47994 0.0239049 0
M  V30 1542 C 148.908 -3.88695 -1.70635 0
M  V30 1543 C 146.815 -5.89381 -0.488319 0
M  V30 1544 H 145.745 -0.721939 -0.217532 0
M  V30 1545 H 148.396 -1.82735 0.167369 0
M  V30 1546 H 146.778 -3.49466 -1.8625 0
M  V30 1547 H 147.952 -4.53815 0.799277 0
M  V30 1548 H 146.267 -4.12536 0.565946 0
M  V30 1549 H 148.864 -4.91725 -2.10025 0
M  V30 1550 H 149.207 -3.27166 -2.57426 0
M  V30 1551 H 149.74 -3.85564 -0.979023 0
M  V30 1552 H 146.479 -6.54602 0.342906 0
M  V30 1553 H 145.999 -5.87037 -1.23077 0
M  V30 1554 H 147.678 -6.39863 -0.958317 0
M  V30 1555 N 147.81 0.181792 -1.56548 0
M  V30 1556 C 148.72 1.24538 -1.98815 0
M  V30 1557 C 149.736 1.49045 -0.897861 0
M  V30 1558 O 150.912 1.61399 -1.20467 0
M  V30 1559 C 147.977 2.56683 -2.33055 0
M  V30 1560 C 147.038 2.40131 -3.55859 0
M  V30 1561 C 146.271 3.65975 -3.88456 0
M  V30 1562 O 146.494 4.70711 -3.22161 0
M  V30 1563 O 145.428 3.6071 -4.81842 0
M  V30 1564 H 149.254 0.916647 -2.89536 0
M  V30 1565 H 146.839 0.387842 -1.44278 0
M  V30 1566 H 148.721 3.34655 -2.56094 0
M  V30 1567 H 147.396 2.89157 -1.45498 0
M  V30 1568 H 146.303 1.60226 -3.38051 0
M  V30 1569 H 147.636 2.12585 -4.43924 0
M  V30 1570 N 149.288 1.51039 0.449983 0
M  V30 1571 C 150.513 1.6715 1.22783 0
M  V30 1572 C 150.938 0.363081 1.84563 0
M  V30 1573 O 150.296 -0.675433 1.68249 0
M  V30 1574 C 150.344 2.77985 2.29689 0
M  V30 1575 O 149.448 2.40707 3.34864 0
M  V30 1576 H 148.789 0.557746 0.360299 0
M  V30 1577 H 151.319 1.97535 0.533005 0
M  V30 1578 H 151.329 3.01693 2.74673 0
M  V30 1579 H 150.004 3.72935 1.84098 0
M  V30 1580 H 148.581 2.27523 2.95445 0
M  V30 1581 N 150.766 -0.704594 1.40972 0
M  V30 1582 C 152.013 -1.46458 1.39844 0
M  V30 1583 C 152.341 -1.94499 0.00447594 0
M  V30 1584 O 151.596 -1.69275 -0.982057 0
M  V30 1585 C 151.895 -2.698 2.34399 0
M  V30 1586 C 151.561 -2.40464 3.81429 0
M  V30 1587 C 150.223 -2.32174 4.21484 0
M  V30 1588 C 152.575 -2.16086 4.74296 0
M  V30 1589 C 149.903 -1.97589 5.52427 0
M  V30 1590 C 152.255 -1.83011 6.05549 0
M  V30 1591 C 150.919 -1.7321 6.44635 0
M  V30 1592 H 150.189 -0.535927 0.511725 0
M  V30 1593 H 152.836 -0.806124 1.73706 0
M  V30 1594 H 151.141 -3.40536 1.93759 0
M  V30 1595 H 152.838 -3.27919 2.30804 0
M  V30 1596 H 149.428 -2.47808 3.49699 0
M  V30 1597 H 153.612 -2.2144 4.4416 0
M  V30 1598 H 148.868 -1.88547 5.81601 0
M  V30 1599 H 153.042 -1.63164 6.77016 0
M  V30 1600 H 150.669 -1.46179 7.46013 0
M  V30 1601 N 152.244 -1.26651 -0.937939 0
M  V30 1602 C 153.207 -1.08546 -2.01867 0
M  V30 1603 C 154.207 -0.0327327 -1.60767 0
M  V30 1604 O 155.397 -0.276427 -1.71993 0
M  V30 1605 C 152.529 -0.651711 -3.34613 0
M  V30 1606 H 153.722 -2.04502 -2.1936 0
M  V30 1607 H 151.275 -1.09294 -1.11734 0
M  V30 1608 H 152.01 0.309696 -3.22818 0
M  V30 1609 H 151.795 -1.41189 -3.65798 0
M  V30 1610 H 153.285 -0.546973 -4.14002 0
M  V30 1611 N 153.722 1.14298 -1.08507 0
M  V30 1612 C 155.138 1.37347 -0.812901 0
M  V30 1613 C 155.338 1.93052 0.577325 0
M  V30 1614 O 154.394 2.14389 1.33393 0
M  V30 1615 C 155.707 2.33359 -1.89642 0
M  V30 1616 C 157.255 2.46996 -1.92255 0
M  V30 1617 C 157.73 3.46309 -2.99724 0
M  V30 1618 N 159.221 3.53853 -2.98902 0
M  V30 1619 C 159.956 4.3055 -3.787 0
M  V30 1620 N 159.452 5.10482 -4.6838 0
M  V30 1621 N 161.245 4.25757 -3.66998 0
M  V30 1622 H 153.396 0.764867 -1.9815 0
M  V30 1623 H 155.659 0.398966 -0.859959 0
M  V30 1624 H 155.365 1.99565 -2.89597 0
M  V30 1625 H 155.239 3.33274 -1.76659 0
M  V30 1626 H 157.626 2.80081 -0.929445 0
M  V30 1627 H 157.707 1.47039 -2.09316 0
M  V30 1628 H 157.351 3.13957 -3.99241 0
M  V30 1629 H 157.281 4.46049 -2.79907 0
M  V30 1630 H 159.772 2.96812 -2.33904 0
M  V30 1631 H 160.085 5.66284 -5.25873 0
M  V30 1632 H 158.43 5.09747 -4.72422 0
M  V30 1633 H 161.621 3.62383 -2.96304 0
M  V30 1634 H 161.794 4.85279 -4.29427 0
M  V30 1635 N 155.201 0.870884 1.31352 0
M  V30 1636 C 156.617 0.562932 1.49343 0
M  V30 1637 C 156.817 -0.902725 1.80148 0
M  V30 1638 O 155.873 -1.68484 1.88067 0
M  V30 1639 C 157.186 1.46393 2.62659 0
M  V30 1640 C 158.734 1.46607 2.76542 0
M  V30 1641 C 159.209 2.35266 3.92955 0
M  V30 1642 N 160.7 2.33151 4.00243 0
M  V30 1643 C 161.435 2.98471 4.89594 0
M  V30 1644 N 160.931 3.72964 5.8384 0
M  V30 1645 N 162.724 2.87775 4.82848 0
M  V30 1646 H 154.875 1.81923 1.09626 0
M  V30 1647 H 157.138 0.777934 0.541777 0
M  V30 1648 H 156.844 2.50689 2.46674 0
M  V30 1649 H 156.718 1.16314 3.58819 0
M  V30 1650 H 159.105 0.43069 2.9194 0
M  V30 1651 H 159.186 1.8071 1.81046 0
M  V30 1652 H 158.83 3.38881 3.78315 0
M  V30 1653 H 158.76 1.98487 4.87761 0
M  V30 1654 H 161.251 1.79006 3.32814 0
M  V30 1655 H 161.564 4.19932 6.4875 0
M  V30 1656 H 159.909 3.77073 5.83816 0
M  V30 1657 H 163.1 2.29116 4.08195 0
M  V30 1658 H 163.273 3.38961 5.52277 0
M  V30 1659 N 156.679 -1.44442 0.630414 0
M  V30 1660 C 157.907 -2.06414 0.141671 0
M  V30 1661 C 158.322 -1.47105 -1.18345 0
M  V30 1662 O 157.679 -0.593662 -1.72574 0
M  V30 1663 C 157.73 -3.61494 0.0199784 0
M  V30 1664 O 157.451 -4.18594 1.29269 0
M  V30 1665 C 158.952 -4.40499 -0.497544 0
M  V30 1666 H 156.172 -0.666292 0.0793452 0
M  V30 1667 H 158.716 -1.85323 0.864614 0
M  V30 1668 H 156.871 -3.8185 -0.653402 0
M  V30 1669 H 157.285 -5.12026 1.13707 0
M  V30 1670 H 158.759 -5.49433 -0.531708 0
M  V30 1671 H 159.236 -4.11895 -1.52445 0
M  V30 1672 H 159.842 -4.25061 0.142562 0
M  V30 1673 N 158.157 -0.370918 -1.53173 0
M  V30 1674 C 159.387 0.217389 -2.05453 0
M  V30 1675 C 159.795 1.42568 -1.24382 0
M  V30 1676 O 159.138 1.81571 -0.278839 0
M  V30 1677 C 159.2 0.669827 -3.53205 0
M  V30 1678 C 158.864 -0.4225 -4.55043 0
M  V30 1679 C 159.861 -1.27407 -5.04047 0
M  V30 1680 C 157.546 -0.58427 -4.9889 0
M  V30 1681 C 159.54 -2.27271 -5.95505 0
M  V30 1682 C 157.227 -1.58627 -5.90153 0
M  V30 1683 C 158.225 -2.42892 -6.38351 0
M  V30 1684 O 157.913 -3.41382 -7.27814 0
M  V30 1685 H 157.645 0.0408171 -0.674767 0
M  V30 1686 H 160.199 -0.5292 -1.98466 0
M  V30 1687 H 158.429 1.4681 -3.57748 0
M  V30 1688 H 160.118 1.18173 -3.88317 0
M  V30 1689 H 160.884 -1.16031 -4.70916 0
M  V30 1690 H 156.763 0.061851 -4.60959 0
M  V30 1691 H 160.307 -2.93079 -6.33049 0
M  V30 1692 H 156.204 -1.70048 -6.22699 0
M  V30 1693 H 156.972 -3.37173 -7.45826 0
M  V30 1694 N 159.635 1.57281 -0.100228 0
M  V30 1695 C 160.86 1.99302 0.573881 0
M  V30 1696 C 161.285 0.979059 1.60611 0
M  V30 1697 O 160.643 -0.0517803 1.81226 0
M  V30 1698 C 160.691 3.40274 1.19358 0
M  V30 1699 O 159.795 3.41676 2.30935 0
M  V30 1700 H 159.136 0.647944 0.145138 0
M  V30 1701 H 161.666 2.03779 -0.183156 0
M  V30 1702 H 161.676 3.78078 1.53365 0
M  V30 1703 H 160.351 4.13594 0.437385 0
M  V30 1704 H 158.928 3.15672 1.98509 0
M  V30 1705 N 161.113 -0.173488 1.56642 0
M  V30 1706 C 162.359 -0.891784 1.8214 0
M  V30 1707 C 162.692 -1.8199 0.677736 0
M  V30 1708 O 161.967 -1.91842 -0.320446 0
M  V30 1709 C 162.25 -1.68933 3.18015 0
M  V30 1710 C 162.103 -0.784487 4.42906 0
M  V30 1711 C 163.422 -2.65748 3.50808 0
M  V30 1712 H 160.541 -0.322761 0.662567 0
M  V30 1713 H 163.183 -0.158095 1.89341 0
M  V30 1714 H 161.333 -2.31482 3.12007 0
M  V30 1715 H 163.005 -0.172046 4.60979 0
M  V30 1716 H 161.248 -0.0924117 4.33702 0
M  V30 1717 H 161.919 -1.37799 5.34524 0
M  V30 1718 H 164.395 -2.13327 3.57255 0
M  V30 1719 H 163.271 -3.18619 4.4696 0
M  V30 1720 H 163.532 -3.45842 2.75401 0
M  V30 1721 N 162.591 -1.51276 -0.441967 0
M  V30 1722 C 163.816 -1.67799 -1.21895 0
M  V30 1723 C 164.241 -0.372864 -1.84367 0
M  V30 1724 O 163.599 0.666501 -1.68604 0
M  V30 1725 C 163.647 -2.79199 -2.28211 0
M  V30 1726 O 162.751 -2.42479 -3.33583 0
M  V30 1727 H 162.092 -0.559649 -0.357336 0
M  V30 1728 H 164.622 -1.97815 -0.522522 0
M  V30 1729 H 164.632 -3.03146 -2.73069 0
M  V30 1730 H 163.307 -3.73906 -1.82118 0
M  V30 1731 H 161.884 -2.29087 -2.94234 0
M  V30 1732 N 164.069 0.697108 -1.41344 0
M  V30 1733 C 165.316 1.45714 -1.40619 0
M  V30 1734 C 165.644 1.94494 -0.0147907 0
M  V30 1735 O 164.899 1.69794 0.973066 0
M  V30 1736 C 165.198 2.68553 -2.35826 0
M  V30 1737 C 164.864 2.38438 -3.82698 0
M  V30 1738 C 163.526 2.29936 -4.22709 0
M  V30 1739 C 165.878 2.13567 -4.75435 0
M  V30 1740 C 163.206 1.94656 -5.53467 0
M  V30 1741 C 165.558 1.79797 -6.06511 0
M  V30 1742 C 164.222 1.69789 -6.45545 0
M  V30 1743 H 163.492 0.533206 -0.51456 0
M  V30 1744 H 166.139 0.796901 -1.74131 0
M  V30 1745 H 164.444 3.39503 -1.95563 0
M  V30 1746 H 166.141 3.2669 -2.32539 0
M  V30 1747 H 162.731 2.4595 -3.51008 0
M  V30 1748 H 166.915 2.19082 -4.45328 0
M  V30 1749 H 162.171 1.8546 -5.82593 0
M  V30 1750 H 166.345 1.59572 -6.77872 0
M  V30 1751 H 163.972 1.4222 -7.46778 0
M  V30 1752 N 165.547 1.27147 0.931209 0
M  V30 1753 C 166.958 1.12044 1.49342 0
M  V30 1754 C 167.309 -0.295795 1.93957 0
M  V30 1755 O 166.434 -1.18835 1.80852 0
M  V30 1756 C 167.029 2.02781 2.71414 0
M  V30 1757 C 165.588 1.91794 3.2387 0
M  V30 1758 C 164.735 1.95543 1.96617 0
M  V30 1759 H 167.686 1.40091 0.745672 0
M  V30 1760 H 167.707 1.58156 3.46074 0
M  V30 1761 H 167.219 3.05848 2.38911 0
M  V30 1762 H 165.32 0.916992 3.6114 0
M  V30 1763 H 165.433 2.77852 3.90302 0
M  V30 1764 H 163.797 1.39722 2.12955 0
M  V30 1765 H 164.58 3.00259 1.66432 0
M  V30 1766 N 167.025 -1.13721 1.09112 0
M  V30 1767 C 167.958 -2.18094 0.67158 0
M  V30 1768 C 168.936 -1.59414 -0.320299 0
M  V30 1769 O 170.12 -1.87183 -0.222444 0
M  V30 1770 C 167.247 -3.38698 -0.0111189 0
M  V30 1771 C 166.293 -4.15966 0.942055 0
M  V30 1772 S 167.126 -4.7604 2.45246 0
M  V30 1773 C 168.282 -5.99994 1.78208 0
M  V30 1774 H 168.515 -2.53344 1.55577 0
M  V30 1775 H 166.048 -1.24967 0.906789 0
M  V30 1776 H 168.006 -4.08559 -0.398716 0
M  V30 1777 H 166.667 -3.01756 -0.871905 0
M  V30 1778 H 165.86 -5.02318 0.411396 0
M  V30 1779 H 165.462 -3.51745 1.2709 0
M  V30 1780 H 167.754 -6.68441 1.10424 0
M  V30 1781 H 168.697 -6.57662 2.62463 0
M  V30 1782 H 169.105 -5.50432 1.25238 0
M  V30 1783 N 168.503 -0.877838 -1.30888 0
M  V30 1784 C 169.75 -0.492696 -1.96415 0
M  V30 1785 C 170.078 0.956671 -1.69346 0
M  V30 1786 O 169.333 1.68993 -0.986913 0
M  V30 1787 C 169.632 -0.705748 -3.50363 0
M  V30 1788 C 169.298 -2.1291 -3.97467 0
M  V30 1789 C 167.96 -2.51834 -4.1004 0
M  V30 1790 C 170.312 -3.05702 -4.22132 0
M  V30 1791 C 167.64 -3.82775 -4.44635 0
M  V30 1792 C 169.992 -4.36166 -4.58194 0
M  V30 1793 C 168.656 -4.74993 -4.68975 0
M  V30 1794 H 167.926 -0.18029 -0.718733 0
M  V30 1795 H 170.573 -1.11233 -1.55883 0
M  V30 1796 H 168.878 -0.00303058 -3.918 0
M  V30 1797 H 170.575 -0.387456 -3.99124 0
M  V30 1798 H 167.165 -1.81694 -3.88182 0
M  V30 1799 H 171.349 -2.76853 -4.11906 0
M  V30 1800 H 166.605 -4.12609 -4.51181 0
M  V30 1801 H 170.779 -5.08111 -4.76231 0
M  V30 1802 H 168.406 -5.76495 -4.95537 0
M  V30 1803 N 169.982 1.44106 -0.638065 0
M  V30 1804 C 171.207 2.0685 -0.150916 0
M  V30 1805 C 171.632 1.47417 1.16833 0
M  V30 1806 O 170.99 0.578264 1.71831 0
M  V30 1807 C 171.038 3.60555 -0.05708 0
M  V30 1808 O 170.142 4.00465 0.984972 0
M  V30 1809 H 169.483 0.658151 -0.0879399 0
M  V30 1810 H 172.013 1.84865 -0.876707 0
M  V30 1811 H 172.023 4.07789 0.131232 0
M  V30 1812 H 170.698 4.03193 -1.02021 0
M  V30 1813 H 169.275 3.64849 0.770672 0
M  V30 1814 N 171.46 0.379036 1.52974 0
M  V30 1815 C 172.407 -0.461048 2.26148 0
M  V30 1816 C 173.377 -1.06637 1.27349 0
M  V30 1817 O 174.562 -1.09633 1.56157 0
M  V30 1818 C 171.702 -1.58782 3.06402 0
M  V30 1819 C 170.815 -1.00636 4.20115 0
M  V30 1820 C 169.95 -2.10334 4.87784 0
M  V30 1821 C 168.989 -1.49724 5.93506 0
M  V30 1822 N 168.126 -2.5331 6.54812 0
M  V30 1823 H 172.966 0.169429 2.97518 0
M  V30 1824 H 170.503 0.0953806 1.4679 0
M  V30 1825 H 172.461 -2.25174 3.51215 0
M  V30 1826 H 171.091 -2.18876 2.37261 0
M  V30 1827 H 170.143 -0.232332 3.7969 0
M  V30 1828 H 171.455 -0.523343 4.96047 0
M  V30 1829 H 170.609 -2.84519 5.35849 0
M  V30 1830 H 169.348 -2.61992 4.11353 0
M  V30 1831 H 168.353 -0.740598 5.44789 0
M  V30 1832 H 169.578 -0.988732 6.71864 0
M  V30 1833 H 167.524 -3.04156 5.81227 0
M  V30 1834 H 167.441 -2.09734 7.26325 0
M  V30 1835 H 168.709 -3.27155 7.07524 0
M  V30 1836 N 172.938 -1.57226 0.108567 0
M  V30 1837 C 174.187 -1.94008 -0.551703 0
M  V30 1838 C 174.5 -0.993442 -1.68494 0
M  V30 1839 O 175.706 -1.25551 -2.40726 0
M  V30 1840 C 174.162 -3.44763 -1.03279 0
M  V30 1841 C 173.77 -4.47943 0.0714193 0
M  V30 1842 C 175.514 -3.90483 -1.66503 0
M  V30 1843 C 173.421 -5.89865 -0.425779 0
M  V30 1844 H 172.351 -0.724206 -0.209863 0
M  V30 1845 H 175.002 -1.82547 0.186741 0
M  V30 1846 H 173.384 -3.51422 -1.82533 0
M  V30 1847 H 174.558 -4.52942 0.847365 0
M  V30 1848 H 172.873 -4.11913 0.609669 0
M  V30 1849 H 175.47 -4.93925 -2.04798 0
M  V30 1850 H 175.813 -3.29877 -2.53942 0
M  V30 1851 H 176.346 -3.86581 -0.938074 0
M  V30 1852 H 173.085 -6.54202 0.412316 0
M  V30 1853 H 172.605 -5.88309 -1.16843 0
M  V30 1854 H 174.284 -6.40844 -0.890397 0
M  V30 1855 N 174.416 0.165178 -1.56732 0
M  V30 1856 C 175.379 1.18822 -1.95995 0
M  V30 1857 C 176.379 1.3685 -0.84431 0
M  V30 1858 O 177.569 1.34152 -1.11126 0
M  V30 1859 C 174.701 2.5521 -2.26011 0
M  V30 1860 H 175.894 0.851825 -2.87548 0
M  V30 1861 H 173.447 0.407857 -1.50885 0
M  V30 1862 H 174.182 2.93852 -1.37191 0
M  V30 1863 H 173.967 2.43489 -3.07336 0
M  V30 1864 H 175.457 3.28927 -2.57288 0
M  V30 1865 N 175.894 1.51508 0.433938 0
M  V30 1866 C 177.14 1.64588 1.18484 0
M  V30 1867 C 177.473 0.362666 1.90784 0
M  V30 1868 O 176.748 -0.637892 1.83742 0
M  V30 1869 C 177.031 2.85149 2.19913 0
M  V30 1870 C 176.884 4.23456 1.51674 0
M  V30 1871 C 178.203 3.01227 3.20858 0
M  V30 1872 H 175.322 0.598994 0.429389 0
M  V30 1873 H 177.964 1.84002 0.473647 0
M  V30 1874 H 176.114 2.68729 2.80566 0
M  V30 1875 H 177.786 4.51552 0.943322 0
M  V30 1876 H 176.029 4.25998 0.819035 0
M  V30 1877 H 176.7 5.03812 2.2556 0
M  V30 1878 H 179.176 3.16382 2.70263 0
M  V30 1879 H 178.052 3.87141 3.89118 0
M  V30 1880 H 178.313 2.13447 3.8716 0
M  V30 1881 N 177.372 -0.689602 1.41712 0
M  V30 1882 C 178.6 -1.47827 1.44758 0
M  V30 1883 C 179.015 -1.88721 0.0545703 0
M  V30 1884 O 178.372 -1.57176 -0.927463 0
M  V30 1885 C 178.423 -2.73698 2.3616 0
M  V30 1886 O 178.144 -2.34524 3.7004 0
M  V30 1887 C 179.645 -3.67389 2.48072 0
M  V30 1888 H 176.865 -0.455357 0.49284 0
M  V30 1889 H 179.409 -0.848574 1.86063 0
M  V30 1890 H 177.564 -3.32891 1.98148 0
M  V30 1891 H 177.978 -3.15701 4.18847 0
M  V30 1892 H 179.452 -4.52475 3.16181 0
M  V30 1893 H 179.929 -4.12284 1.51388 0
M  V30 1894 H 180.535 -3.14097 2.86746 0
M  V30 1895 N 178.85 -1.27639 -0.924453 0
M  V30 1896 C 180.098 -1.13941 -1.66918 0
M  V30 1897 C 180.419 0.314589 -1.92446 0
M  V30 1898 O 179.689 1.21964 -1.53303 0
M  V30 1899 H 178.269 -0.418678 -0.618642 0
M  V30 1900 H 180.931 -1.60213 -1.10985 0
M  V30 1901 H 180.027 -1.67094 -2.63602 0
M  V30 1902 N 180.328 1.1314 -1.09713 0
M  V30 1903 C 181.556 1.88321 -0.856898 0
M  V30 1904 C 181.971 1.79276 0.592073 0
M  V30 1905 O 181.328 1.16142 1.40774 0
M  V30 1906 C 181.379 3.37812 -1.28706 0
M  V30 1907 O 181.1 3.46627 -2.67921 0
M  V30 1908 C 182.601 4.29952 -1.07964 0
M  V30 1909 H 179.821 0.596094 -0.308079 0
M  V30 1910 H 182.365 1.43205 -1.45988 0
M  V30 1911 H 180.52 3.805 -0.727912 0
M  V30 1912 H 180.934 4.39579 -2.8613 0
M  V30 1913 H 182.408 5.33159 -1.42986 0
M  V30 1914 H 182.885 4.39196 -0.0176577 0
M  V30 1915 H 183.491 3.93036 -1.62489 0
M  V30 1916 N 181.806 0.884767 1.30421 0
M  V30 1917 C 183.054 0.502112 1.95763 0
M  V30 1918 C 183.375 -0.951815 1.70192 0
M  V30 1919 O 182.645 -1.6692 1.0254 0
M  V30 1920 H 181.225 0.182694 0.724315 0
M  V30 1921 H 183.887 1.1278 1.58955 0
M  V30 1922 H 182.983 0.672188 3.04775 0
M  V30 1923 N 183.284 -1.43765 0.645699 0
M  V30 1924 C 184.247 -2.29163 -0.0409488 0
M  V30 1925 C 185.247 -1.41813 -0.757996 0
M  V30 1926 O 186.437 -1.63527 -0.600382 0
M  V30 1927 C 183.569 -3.23716 -1.06869 0
M  V30 1928 H 184.762 -2.91366 0.710345 0
M  V30 1929 H 182.315 -1.5092 0.406547 0
M  V30 1930 H 183.05 -2.66393 -1.84947 0
M  V30 1931 H 182.835 -3.88105 -0.558277 0
M  V30 1932 H 184.325 -3.87831 -1.54845 0
M  V30 1933 N 184.763 -0.387143 -1.52771 0
M  V30 1934 C 185.713 0.465942 -2.23188 0
M  V30 1935 C 186.697 1.03138 -1.23496 0
M  V30 1936 O 187.889 0.957845 -1.48843 0
M  V30 1937 C 185.018 1.59384 -3.04059 0
M  V30 1938 C 184.104 1.04024 -4.11144 0
M  V30 1939 N 184.495 0.211416 -5.05358 0
M  V30 1940 C 182.793 1.31295 -4.26237 0
M  V30 1941 C 183.494 -0.0941698 -5.81624 0
M  V30 1942 N 182.47 0.509207 -5.4121 0
M  V30 1943 H 186.272 -0.173856 -2.93385 0
M  V30 1944 H 183.786 -0.19633 -1.61209 0
M  V30 1945 H 185.783 2.21738 -3.53041 0
M  V30 1946 H 184.443 2.23648 -2.35397 0
M  V30 1947 H 185.454 -0.151151 -5.17679 0
M  V30 1948 H 182.131 1.95679 -3.68803 0
M  V30 1949 H 183.521 -0.765572 -6.67524 0
M  V30 1950 N 186.241 1.57166 -0.116904 0
M  V30 1951 C 187.652 1.82169 0.408809 0
M  V30 1952 C 188.003 1.03393 1.66746 0
M  V30 1953 O 187.128 0.269886 2.1471 0
M  V30 1954 C 187.723 3.30429 0.748466 0
M  V30 1955 C 186.282 3.5612 1.21882 0
M  V30 1956 C 185.429 2.76374 0.226452 0
M  V30 1957 H 188.38 1.5497 -0.342063 0
M  V30 1958 H 188.401 3.44943 1.60607 0
M  V30 1959 H 187.913 3.87737 -0.167784 0
M  V30 1960 H 186.014 3.04168 2.15204 0
M  V30 1961 H 186.127 4.64705 1.16559 0
M  V30 1962 H 184.491 2.44515 0.713063 0
M  V30 1963 H 185.274 3.3644 -0.682859 0
M  V30 1964 N 187.719 -0.156864 1.56817 0
M  V30 1965 C 188.682 -1.17781 1.96622 0
M  V30 1966 C 189.682 -1.36401 0.851555 0
M  V30 1967 O 190.872 -1.33561 1.11836 0
M  V30 1968 C 188.004 -2.54008 2.27361 0
M  V30 1969 H 189.197 -0.836564 2.87996 0
M  V30 1970 H 186.75 -0.39985 1.51099 0
M  V30 1971 H 187.485 -2.9312 1.38748 0
M  V30 1972 H 187.27 -2.41856 3.08623 0
M  V30 1973 H 188.76 -3.27558 2.59029 0
M  V30 1974 N 189.197 -1.51736 -0.425897 0
M  V30 1975 C 190.444 -1.6497 -1.17436 0
M  V30 1976 C 190.772 -0.371445 -1.9092 0
M  V30 1977 O 190.027 0.644963 -1.84767 0
M  V30 1978 C 190.326 -2.81103 -2.20717 0
M  V30 1979 C 189.992 -4.19954 -1.64162 0
M  V30 1980 C 188.654 -4.57725 -1.48462 0
M  V30 1981 C 191.006 -5.06552 -1.22696 0
M  V30 1982 C 188.334 -5.79789 -0.897873 0
M  V30 1983 C 190.686 -6.29205 -0.654464 0
M  V30 1984 C 189.35 -6.6574 -0.484456 0
M  V30 1985 H 188.62 -0.603668 -0.429727 0
M  V30 1986 H 191.267 -1.85798 -0.463829 0
M  V30 1987 H 189.572 -2.54542 -2.97852 0
M  V30 1988 H 191.269 -2.8854 -2.78471 0
M  V30 1989 H 187.859 -3.90181 -1.77361 0
M  V30 1990 H 192.043 -4.77968 -1.33642 0
M  V30 1991 H 187.299 -6.06733 -0.75402 0
M  V30 1992 H 191.473 -6.95643 -0.324694 0
M  V30 1993 H 189.1 -7.60195 -0.0276833 0
M  V30 1994 N 190.675 0.682077 -1.42076 0
M  V30 1995 C 191.622 1.79578 -1.44984 0
M  V30 1996 C 192.592 1.6332 -0.302614 0
M  V30 1997 O 193.777 1.83978 -0.505633 0
M  V30 1998 C 190.917 3.1756 -1.35091 0
M  V30 1999 C 190.03 3.45156 -2.59791 0
M  V30 2000 C 189.165 4.72826 -2.42093 0
M  V30 2001 C 188.204 4.93433 -3.62202 0
M  V30 2002 N 187.341 6.12338 -3.43491 0
M  V30 2003 H 192.181 1.76427 -2.40161 0
M  V30 2004 H 189.718 0.861376 -1.19242 0
M  V30 2005 H 191.676 3.97287 -1.27354 0
M  V30 2006 H 190.306 3.19854 -0.435133 0
M  V30 2007 H 189.358 2.59736 -2.77923 0
M  V30 2008 H 190.67 3.5628 -3.49094 0
M  V30 2009 H 189.824 5.60631 -2.319 0
M  V30 2010 H 188.563 4.63973 -1.50268 0
M  V30 2011 H 187.568 4.04073 -3.72834 0
M  V30 2012 H 188.793 5.04136 -4.54998 0
M  V30 2013 H 186.739 6.04672 -2.54377 0
M  V30 2014 H 186.656 6.2429 -4.26377 0
M  V30 2015 H 187.924 7.02841 -3.37097 0
M  V30 2016 N 192.153 1.28127 0.917671 0
M  V30 2017 C 193.383 1.17722 1.6978 0
M  V30 2018 C 193.791 -0.267261 1.87303 0
M  V30 2019 O 193.134 -1.19286 1.39702 0
M  V30 2020 C 193.196 1.79958 3.11216 0
M  V30 2021 C 192.86 3.29187 3.16993 0
M  V30 2022 C 193.857 4.25679 2.98485 0
M  V30 2023 C 191.542 3.70075 3.39632 0
M  V30 2024 C 193.536 5.61035 3.02521 0
M  V30 2025 C 191.223 5.05557 3.433 0
M  V30 2026 C 192.221 6.00847 3.24764 0
M  V30 2027 O 191.909 7.33859 3.28187 0
M  V30 2028 H 191.641 0.409788 0.537634 0
M  V30 2029 H 194.195 1.69694 1.15728 0
M  V30 2030 H 192.425 1.22475 3.66793 0
M  V30 2031 H 194.114 1.64125 3.71238 0
M  V30 2032 H 194.88 3.95426 2.80826 0
M  V30 2033 H 190.759 2.96373 3.53106 0
M  V30 2034 H 194.303 6.35388 2.87971 0
M  V30 2035 H 190.2 5.35462 3.60486 0
M  V30 2036 H 190.968 7.42436 3.44575 0
M  V30 2037 N 193.631 -1.12557 1.10312 0
M  V30 2038 C 194.561 -2.20341 0.772798 0
M  V30 2039 C 195.542 -1.68198 -0.25365 0
M  V30 2040 O 196.727 -1.93831 -0.119699 0
M  V30 2041 C 193.857 -3.46709 0.202443 0
M  V30 2042 C 192.811 -4.11996 1.15943 0
M  V30 2043 C 192.137 -5.328 0.450345 0
M  V30 2044 C 193.437 -4.5828 2.50552 0
M  V30 2045 H 195.131 -2.48229 1.674 0
M  V30 2046 H 192.677 -1.19308 0.806326 0
M  V30 2047 H 194.63 -4.2138 -0.0407752 0
M  V30 2048 H 193.354 -3.18245 -0.734001 0
M  V30 2049 H 192.013 -3.39305 1.38808 0
M  V30 2050 H 191.661 -5.00602 -0.490531 0
M  V30 2051 H 191.361 -5.7743 1.08851 0
M  V30 2052 H 192.885 -6.10219 0.215642 0
M  V30 2053 H 194.299 -5.2433 2.31843 0
M  V30 2054 H 192.696 -5.13683 3.10242 0
M  V30 2055 H 193.766 -3.72329 3.10643 0
M  V30 2056 N 195.109 -0.891671 -1.2995 0
M  V30 2057 C 196.072 -0.36828 -2.26222 0
M  V30 2058 C 197.072 0.493014 -1.53056 0
M  V30 2059 O 198.262 0.299213 -1.71611 0
M  V30 2060 C 195.394 0.47442 -3.37583 0
M  V30 2061 H 196.587 -1.21844 -2.74033 0
M  V30 2062 H 194.14 -0.669107 -1.41254 0
M  V30 2063 H 194.875 1.34489 -2.95099 0
M  V30 2064 H 194.66 -0.142615 -3.91841 0
M  V30 2065 H 196.15 0.83218 -4.09224 0
M  V30 2066 N 196.587 1.43421 -0.653314 0
M  V30 2067 C 197.519 2.29071 0.0769134 0
M  V30 2068 C 198.532 1.42513 0.787017 0
M  V30 2069 O 199.721 1.66449 0.644757 0
M  V30 2070 C 196.821 3.19436 1.13199 0
M  V30 2071 C 195.994 4.34533 0.500006 0
M  V30 2072 C 195.053 5.05771 1.45198 0
M  V30 2073 O 194.079 5.61037 0.960538 0
M  V30 2074 N 195.281 5.0928 2.78594 0
M  V30 2075 H 198.046 2.92382 -0.658235 0
M  V30 2076 H 195.607 1.54112 -0.496104 0
M  V30 2077 H 197.599 3.63958 1.76964 0
M  V30 2078 H 196.169 2.57724 1.7691 0
M  V30 2079 H 195.389 3.92925 -0.316738 0
M  V30 2080 H 196.677 5.08766 0.0588345 0
M  V30 2081 H 196.075 4.65751 3.2108 0
M  V30 2082 H 194.632 5.57519 3.37662 0
M  V30 2083 N 198.065 0.39524 1.52563 0
M  V30 2084 C 199.293 -0.184943 2.06072 0
M  V30 2085 C 199.708 -1.40021 1.26647 0
M  V30 2086 O 199.065 -1.79767 0.314672 0
M  V30 2087 C 199.116 -0.549179 3.57304 0
M  V30 2088 O 198.837 0.617813 4.33722 0
M  V30 2089 C 200.338 -1.18459 4.2718 0
M  V30 2090 H 197.558 -0.0265025 0.670476 0
M  V30 2091 H 200.102 0.562184 1.96621 0
M  V30 2092 H 198.257 -1.2462 3.66809 0
M  V30 2093 H 198.671 0.317091 5.23541 0
M  V30 2094 H 200.145 -1.38976 5.34219 0
M  V30 2095 H 200.622 -2.15368 3.82771 0
M  V30 2096 H 201.228 -0.528163 4.22008 0
M  V30 2097 N 199.544 -1.57102 0.125237 0
M  V30 2098 C 200.769 -2.0019 -0.542101 0
M  V30 2099 C 201.194 -1.00449 -1.59034 0
M  V30 2100 O 200.552 0.0229423 -1.81285 0
M  V30 2101 C 200.6 -3.42129 -1.13929 0
M  V30 2102 O 199.704 -3.45307 -2.2547 0
M  V30 2103 H 199.045 -0.650171 -0.134812 0
M  V30 2104 H 201.575 -2.03461 0.215553 0
M  V30 2105 H 201.585 -3.80471 -1.4733 0
M  V30 2106 H 200.26 -4.14237 -0.371531 0
M  V30 2107 H 198.837 -3.1879 -1.93462 0
M  V30 2108 N 201.022 0.148545 -1.56898 0
M  V30 2109 C 202.27 0.859717 -1.82902 0
M  V30 2110 C 202.591 1.81775 -0.70588 0
M  V30 2111 O 201.861 1.93994 0.272586 0
M  V30 2112 H 200.441 0.320469 -0.674766 0
M  V30 2113 H 203.103 0.142918 -1.94375 0
M  V30 2114 H 202.199 1.4229 -2.77777 0
M  V30 2115 N 202.5 1.5196 0.417844 0
M  V30 2116 C 203.447 1.74678 1.50852 0
M  V30 2117 C 204.417 0.588947 1.55308 0
M  V30 2118 O 205.602 0.825544 1.72016 0
M  V30 2119 C 202.742 1.89544 2.88387 0
M  V30 2120 C 201.855 3.17166 2.93309 0
M  V30 2121 C 200.99 3.22513 4.22088 0
M  V30 2122 C 200.029 4.44372 4.20951 0
M  V30 2123 N 199.166 4.47161 5.41287 0
M  V30 2124 H 204.006 2.67768 1.30783 0
M  V30 2125 H 201.543 1.32689 0.63498 0
M  V30 2126 H 203.501 1.96146 3.68216 0
M  V30 2127 H 202.131 0.998424 3.06971 0
M  V30 2128 H 201.183 3.19778 2.06024 0
M  V30 2129 H 202.495 4.07021 2.88332 0
M  V30 2130 H 201.649 3.28139 5.10303 0
M  V30 2131 H 200.388 2.30581 4.29748 0
M  V30 2132 H 199.393 4.38902 3.31127 0
M  V30 2133 H 200.618 5.3759 4.14938 0
M  V30 2134 H 198.564 3.58108 5.49632 0
M  V30 2135 H 198.481 5.3085 5.3827 0
M  V30 2136 H 199.749 4.57005 6.3148 0
M  V30 2137 N 203.978 -0.674533 1.42435 0
M  V30 2138 C 204.888 -1.81751 1.48337 0
M  V30 2139 C 205.904 -1.69975 0.372099 0
M  V30 2140 O 207.08 -1.91521 0.62304 0
M  V30 2141 C 204.145 -3.17895 1.38361 0
M  V30 2142 C 203.206 -3.41625 2.59982 0
M  V30 2143 C 202.439 -4.71274 2.50473 0
M  V30 2144 O 202.662 -5.49197 1.54075 0
M  V30 2145 O 201.596 -4.96254 3.4061 0
M  V30 2146 H 205.422 -1.79728 2.44809 0
M  V30 2147 H 203.007 -0.830312 1.24202 0
M  V30 2148 H 204.889 -3.99136 1.35161 0
M  V30 2149 H 203.564 -3.20555 0.450144 0
M  V30 2150 H 202.471 -2.60231 2.68757 0
M  V30 2151 H 203.804 -3.43796 3.52229 0
M  V30 2152 N 205.456 -1.28612 -0.910864 0
M  V30 2153 C 206.867 -1.14406 -1.47541 0
M  V30 2154 C 207.218 0.264901 -1.94403 0
M  V30 2155 O 206.343 1.15942 -1.82719 0
M  V30 2156 C 206.938 -2.07073 -2.68153 0
M  V30 2157 C 205.497 -1.96923 -3.20778 0
M  V30 2158 C 204.644 -1.98646 -1.93481 0
M  V30 2159 H 207.595 -1.41259 -0.723291 0
M  V30 2160 H 207.616 -1.63642 -3.43514 0
M  V30 2161 H 207.128 -3.09611 -2.34015 0
M  V30 2162 H 205.229 -0.97433 -3.59635 0
M  V30 2163 H 205.342 -2.84026 -3.85832 0
M  V30 2164 H 203.706 -1.43093 -2.10705 0
M  V30 2165 H 204.489 -3.02868 -1.61634 0
M  V30 2166 N 206.934 1.1197 -1.10907 0
M  V30 2167 C 208.162 1.87402 -0.876824 0
M  V30 2168 C 208.577 1.79894 0.573025 0
M  V30 2169 O 207.934 1.17629 1.39534 0
M  V30 2170 C 207.985 3.36428 -1.32282 0
M  V30 2171 O 207.706 3.43765 -2.71582 0
M  V30 2172 C 209.207 4.28783 -1.12518 0
M  V30 2173 H 206.427 0.592793 -0.314384 0
M  V30 2174 H 208.971 1.41649 -1.47499 0
M  V30 2175 H 207.126 3.79706 -0.768229 0
M  V30 2176 H 207.54 4.3652 -2.90776 0
M  V30 2177 H 209.014 5.31613 -1.48633 0
M  V30 2178 H 209.491 4.39153 -0.0642394 0
M  V30 2179 H 210.097 3.91291 -1.66648 0
M  V30 2180 N 208.412 0.89855 1.29475 0
M  V30 2181 C 209.658 0.534065 1.96263 0
M  V30 2182 C 210.013 -0.909415 1.69551 0
M  V30 2183 O 209.306 -1.63596 0.997349 0
M  V30 2184 C 209.5 0.761398 3.49195 0
M  V30 2185 C 209.329 2.22542 3.90775 0
M  V30 2186 C 208.099 2.87264 4.15701 0
M  V30 2187 C 210.297 3.20051 4.02581 0
M  V30 2188 N 208.279 4.24121 4.4384 0
M  V30 2189 C 209.65 4.42023 4.34759 0
M  V30 2190 C 211.705 3.15657 3.85052 0
M  V30 2191 C 210.408 5.60161 4.51235 0
M  V30 2192 C 212.434 4.33078 4.02737 0
M  V30 2193 C 211.796 5.5382 4.35273 0
M  V30 2194 H 207.895 0.245013 0.742625 0
M  V30 2195 H 210.479 1.15912 1.56437 0
M  V30 2196 H 208.65 0.165732 3.88046 0
M  V30 2197 H 210.382 0.362462 4.03074 0
M  V30 2198 H 207.137 2.38064 4.09417 0
M  V30 2199 H 207.561 4.94839 4.6202 0
M  V30 2200 H 212.203 2.23396 3.58962 0
M  V30 2201 H 209.921 6.52913 4.76162 0
M  V30 2202 H 213.507 4.31163 3.90628 0
M  V30 2203 H 212.387 6.43166 4.48672 0
M  V30 2204 N 209.89 -1.43072 0.660911 0
M  V30 2205 C 210.838 -2.32569 -0.0378199 0
M  V30 2206 C 211.832 -1.49046 -0.805092 0
M  V30 2207 O 213.038 -1.65206 -0.714624 0
M  V30 2208 H 209.413 -0.75136 -0.031019 0
M  V30 2209 H 211.384 -2.89216 0.734609 0
M  V30 2210 C 210.133 -3.33453 -0.985124 0
M  V30 2211 H 209.456 -3.97752 -0.404147 0
M  V30 2212 H 210.896 -3.98691 -1.44297 0
M  V30 2213 C 209.355 -2.64642 -2.08486 0
M  V30 2214 O 209.885 -2.46776 -3.16961 0
M  V30 2215 N 208.091 -2.23891 -1.8526 0
M  V30 2216 H 207.638 -2.38621 -0.970449 0
M  V30 2217 H 207.596 -1.78181 -2.59034 0
M  V30 2218 N 211.368 -0.403325 -1.52352 0
M  V30 2219 C 212.615 0.174347 -2.01748 0
M  V30 2220 C 212.943 1.45636 -1.2892 0
M  V30 2221 O 212.198 1.9193 -0.382258 0
M  V30 2222 C 212.497 0.474665 -3.54234 0
M  V30 2223 C 212.163 -0.717458 -4.45155 0
M  V30 2224 C 210.825 -1.04447 -4.69728 0
M  V30 2225 C 213.177 -1.51432 -4.98716 0
M  V30 2226 C 210.505 -2.16963 -5.45109 0
M  V30 2227 C 212.857 -2.6302 -5.75329 0
M  V30 2228 C 211.521 -2.96213 -5.98175 0
M  V30 2229 H 210.791 0.0637981 -0.738248 0
M  V30 2230 H 213.438 -0.543553 -1.83624 0
M  V30 2231 H 211.743 1.27406 -3.70506 0
M  V30 2232 H 213.44 0.934496 -3.89959 0
M  V30 2233 H 210.03 -0.452596 -4.26204 0
M  V30 2234 H 214.214 -1.27491 -4.79645 0
M  V30 2235 H 209.47 -2.43034 -5.61021 0
M  V30 2236 H 213.644 -3.25158 -6.15829 0
M  V30 2237 H 211.271 -3.83516 -6.56368 0
M  V30 2238 N 212.846 1.57033 -0.133567 0
M  V30 2239 C 214.092 1.96764 0.515326 0
M  V30 2240 C 214.447 1.01653 1.63353 0
M  V30 2241 O 213.74 0.0491374 1.91537 0
M  V30 2242 C 213.934 3.40674 1.08057 0
M  V30 2243 C 213.763 4.49696 0.0186522 0
M  V30 2244 C 212.533 5.03567 -0.418174 0
M  V30 2245 C 214.731 5.08536 -0.767809 0
M  V30 2246 N 212.713 5.9618 -1.46434 0
M  V30 2247 C 214.084 5.97231 -1.6648 0
M  V30 2248 C 216.139 4.9115 -0.817087 0
M  V30 2249 C 214.842 6.70401 -2.60681 0
M  V30 2250 C 216.868 5.65012 -1.74687 0
M  V30 2251 C 216.23 6.53403 -2.63141 0
M  V30 2252 H 212.329 0.765919 0.157771 0
M  V30 2253 H 214.913 1.93395 -0.22506 0
M  V30 2254 H 213.084 3.44662 1.79061 0
M  V30 2255 H 214.816 3.67495 1.69497 0
M  V30 2256 H 211.571 4.73594 -0.0229803 0
M  V30 2257 H 211.995 6.47191 -1.98678 0
M  V30 2258 H 216.637 4.22543 -0.147326 0
M  V30 2259 H 214.355 7.38245 -3.28664 0
M  V30 2260 H 217.941 5.53559 -1.79063 0
M  V30 2261 H 216.821 7.09556 -3.33917 0
M  V30 2262 N 214.325 -0.140222 1.56975 0
M  V30 2263 C 215.272 -1.17292 1.98774 0
M  V30 2264 C 216.242 -1.4232 0.856408 0
M  V30 2265 O 217.427 -1.54541 1.119 0
M  V30 2266 C 214.567 -2.49973 2.37923 0
M  V30 2267 C 213.68 -2.32062 3.64378 0
M  V30 2268 C 212.815 -3.57825 3.926 0
M  V30 2269 C 211.854 -3.3498 5.12303 0
M  V30 2270 N 210.991 -4.52891 5.36502 0
M  V30 2271 H 215.831 -0.809472 2.86795 0
M  V30 2272 H 213.368 -0.388237 1.41884 0
M  V30 2273 H 215.326 -3.27346 2.58652 0
M  V30 2274 H 213.956 -2.84252 1.52972 0
M  V30 2275 H 213.008 -1.45711 3.51387 0
M  V30 2276 H 214.32 -2.11145 4.51906 0
M  V30 2277 H 213.474 -4.43624 4.13863 0
M  V30 2278 H 212.213 -3.81753 3.03506 0
M  V30 2279 H 211.218 -2.4757 4.90906 0
M  V30 2280 H 212.443 -3.12444 6.02956 0
M  V30 2281 H 210.389 -4.76979 4.50363 0
M  V30 2282 H 210.306 -4.35001 6.18312 0
M  V30 2283 H 211.574 -5.39884 5.62268 0
M  V30 2284 N 215.803 -1.52179 -0.40978 0
M  V30 2285 C 217.033 -1.69807 -1.17682 0
M  V30 2286 C 217.441 -0.406908 -1.84773 0
M  V30 2287 O 216.784 0.626863 -1.72673 0
M  V30 2288 C 216.846 -2.77712 -2.2829 0
M  V30 2289 C 216.51 -4.19481 -1.81341 0
M  V30 2290 C 217.507 -5.03345 -1.30154 0
M  V30 2291 C 215.192 -4.65713 -1.88194 0
M  V30 2292 C 217.186 -6.31511 -0.864416 0
M  V30 2293 C 214.873 -5.93869 -1.44093 0
M  V30 2294 C 215.871 -6.76597 -0.933023 0
M  V30 2295 O 215.559 -8.02354 -0.49838 0
M  V30 2296 H 215.291 -0.572372 -0.359675 0
M  V30 2297 H 217.845 -1.99511 -0.488311 0
M  V30 2298 H 216.075 -2.43383 -3.00502 0
M  V30 2299 H 217.764 -2.83946 -2.90051 0
M  V30 2300 H 218.53 -4.68819 -1.24232 0
M  V30 2301 H 214.409 -4.01424 -2.26671 0
M  V30 2302 H 217.953 -6.96033 -0.467286 0
M  V30 2303 H 213.85 -6.27903 -1.49694 0
M  V30 2304 H 214.618 -8.16135 -0.621747 0
M  V30 2305 N 217.281 0.66697 -1.42791 0
M  V30 2306 C 218.211 1.79218 -1.49677 0
M  V30 2307 C 219.192 1.66405 -0.352623 0
M  V30 2308 O 220.377 1.85708 -0.567993 0
M  V30 2309 C 217.507 3.17565 -1.40605 0
M  V30 2310 C 216.461 3.45124 -2.53127 0
M  V30 2311 C 215.787 4.83127 -2.29112 0
M  V30 2312 C 217.087 3.41236 -3.95418 0
M  V30 2313 H 218.781 1.73713 -2.43853 0
M  V30 2314 H 216.327 0.83432 -1.17367 0
M  V30 2315 H 218.28 3.96022 -1.44029 0
M  V30 2316 H 217.004 3.23767 -0.429271 0
M  V30 2317 H 215.663 2.69031 -2.49034 0
M  V30 2318 H 215.311 4.85988 -1.29709 0
M  V30 2319 H 215.011 5.02528 -3.04531 0
M  V30 2320 H 216.535 5.63859 -2.34297 0
M  V30 2321 H 217.949 4.09651 -4.01073 0
M  V30 2322 H 216.346 3.72173 -4.70752 0
M  V30 2323 H 217.416 2.39665 -4.21532 0
M  V30 2324 N 218.759 1.29093 0.90403 0
M  V30 2325 C 220.005 1.16986 1.65656 0
M  V30 2326 C 220.338 -0.278925 1.92186 0
M  V30 2327 O 219.613 -1.2019 1.5292 0
M  V30 2328 C 219.896 1.97908 3.0084 0
M  V30 2329 C 219.749 3.50903 2.81403 0
M  V30 2330 C 221.068 1.80208 4.01513 0
M  V30 2331 H 218.187 0.426346 0.601164 0
M  V30 2332 H 220.829 1.58518 1.04747 0
M  V30 2333 H 218.979 1.62616 3.52829 0
M  V30 2334 H 220.651 3.96153 2.36348 0
M  V30 2335 H 218.894 3.76045 2.1627 0
M  V30 2336 H 219.565 4.02791 3.77443 0
M  V30 2337 H 222.041 2.11025 3.58619 0
M  V30 2338 H 220.917 2.39184 4.94047 0
M  V30 2339 H 221.178 0.756119 4.35586 0
M  V30 2340 N 220.237 -1.11381 1.11499 0
M  V30 2341 C 221.2 -2.15622 0.777153 0
M  V30 2342 C 222.2 -1.59504 -0.203779 0
M  V30 2343 O 223.39 -1.74188 0.020782 0
M  V30 2344 C 220.522 -3.40556 0.153116 0
M  V30 2345 H 221.715 -2.47021 1.70061 0
M  V30 2346 H 219.268 -1.26577 0.916952 0
M  V30 2347 H 220.003 -3.14767 -0.780536 0
M  V30 2348 H 219.788 -3.8257 0.859238 0
M  V30 2349 H 221.278 -4.17546 -0.0671044 0
M  V30 2350 N 221.715 -0.905404 -1.28997 0
M  V30 2351 C 223.126 -0.581953 -1.77398 0
M  V30 2352 C 223.477 0.902552 -1.74208 0
M  V30 2353 O 222.602 1.70584 -1.33154 0
M  V30 2354 C 223.197 -1.04961 -3.22131 0
M  V30 2355 C 221.756 -0.777229 -3.68288 0
M  V30 2356 C 220.903 -1.22109 -2.48967 0
M  V30 2357 H 223.854 -1.08754 -1.15578 0
M  V30 2358 H 223.875 -0.387387 -3.78523 0
M  V30 2359 H 223.387 -2.13008 -3.24421 0
M  V30 2360 H 221.488 0.290383 -3.71467 0
M  V30 2361 H 221.601 -1.37911 -4.58822 0
M  V30 2362 H 219.965 -0.639971 -2.46529 0
M  V30 2363 H 220.748 -2.30972 -2.53982 0
M  V30 2364 N 223.193 1.4272 -0.668489 0
M  V30 2365 C 224.47 1.95248 -0.117373 0
M  V30 2366 C 224.85 1.60919 1.36632 0
M  V30 2367 O 224.198 0.902095 2.09939 0
M  V30 2368 C 224.408 3.46927 -0.379806 0
M  V30 2369 C 225.756 4.23588 -0.292923 0
M  V30 2370 O 226.78 3.5482 -0.313204 0
M  V30 2371 O 225.639 5.46017 -0.229697 0
M  V30 2372 H 222.733 0.827 0.00079152 0
M  V30 2373 H 225.279 1.52581 -0.742783 0
M  V30 2374 H 224.051 3.65096 -1.40786 0
M  V30 2375 H 223.674 3.96627 0.277923 0
M  V30 2376 N 224.671 0.411399 1.52136 0
M  V30 2377 C 225.919 -0.163322 2.01439 0
M  V30 2378 C 226.24 -1.45453 1.29879 0
M  V30 2379 O 225.51 -1.91225 0.4254 0
M  V30 2380 H 224.09 -0.0633447 0.744309 0
M  V30 2381 H 226.752 0.548161 1.87033 0
M  V30 2382 H 225.848 -0.357817 3.10042 0
M  V30 2383 N 226.149 -1.5696 0.141893 0
M  V30 2384 C 227.096 -2.16501 -0.799737 0
M  V30 2385 C 228.066 -1.09643 -1.24771 0
M  V30 2386 O 229.251 -1.3766 -1.32115 0
M  V30 2387 C 226.391 -2.78679 -2.03549 0
M  V30 2388 C 225.504 -3.99914 -1.6338 0
M  V30 2389 C 224.639 -4.50106 -2.82096 0
M  V30 2390 C 223.678 -5.63819 -2.38275 0
M  V30 2391 N 222.815 -6.08651 -3.49983 0
M  V30 2392 H 227.655 -2.96632 -0.285179 0
M  V30 2393 H 225.192 -1.46533 -0.129053 0
M  V30 2394 H 227.15 -3.1287 -2.75986 0
M  V30 2395 H 225.78 -2.012 -2.52425 0
M  V30 2396 H 224.832 -3.71735 -0.807279 0
M  V30 2397 H 226.144 -4.82311 -1.27192 0
M  V30 2398 H 225.298 -4.86325 -3.62729 0
M  V30 2399 H 224.037 -3.66706 -3.21525 0
M  V30 2400 H 223.042 -5.2718 -1.56081 0
M  V30 2401 H 224.267 -6.49 -1.99938 0
M  V30 2402 H 222.213 -5.28188 -3.89042 0
M  V30 2403 H 222.13 -6.85961 -3.17794 0
M  V30 2404 H 223.398 -6.49515 -4.30988 0
M  V30 2405 N 227.627 0.131896 -1.57047 0
M  V30 2406 C 228.873 0.843179 -1.84441 0
M  V30 2407 C 229.206 1.80129 -0.725749 0
M  V30 2408 O 228.481 1.92624 0.269469 0
M  V30 2409 C 228.764 1.60442 -3.22382 0
M  V30 2410 C 228.617 0.666782 -4.4483 0
M  V30 2411 C 229.936 2.56354 -3.5773 0
M  V30 2412 H 227.055 0.305081 -0.670891 0
M  V30 2413 H 229.697 0.107839 -1.89694 0
M  V30 2414 H 227.847 2.23128 -3.18035 0
M  V30 2415 H 229.519 0.0497646 -4.61273 0
M  V30 2416 H 227.762 -0.022609 -4.33794 0
M  V30 2417 H 228.433 1.23579 -5.37989 0
M  V30 2418 H 230.909 2.0378 -3.62785 0
M  V30 2419 H 229.785 3.06657 -4.5525 0
M  V30 2420 H 230.046 3.38419 -2.84473 0
M  V30 2421 N 229.106 1.52395 0.401703 0
M  V30 2422 C 230.352 1.67065 1.14966 0
M  V30 2423 C 230.685 0.403052 1.89971 0
M  V30 2424 O 229.96 -0.598774 1.85054 0
M  V30 2425 C 230.243 2.8975 2.13815 0
M  V30 2426 C 230.096 4.26578 1.42658 0
M  V30 2427 C 231.415 3.07965 3.14397 0
M  V30 2428 H 228.534 0.607968 0.416587 0
M  V30 2429 H 231.176 1.84965 0.434511 0
M  V30 2430 H 229.326 2.74619 2.74803 0
M  V30 2431 H 230.998 4.53451 0.847329 0
M  V30 2432 H 229.241 4.27639 0.72849 0
M  V30 2433 H 229.912 5.08483 2.14823 0
M  V30 2434 H 232.388 3.22043 2.63491 0
M  V30 2435 H 231.264 3.95308 3.80819 0
M  V30 2436 H 231.525 2.21611 3.82545 0
M  V30 2437 N 230.584 -0.659388 1.43143 0
M  V30 2438 C 231.832 -1.41654 1.44147 0
M  V30 2439 C 232.153 -1.94893 0.0645739 0
M  V30 2440 O 231.423 -1.74044 -0.899198 0
M  V30 2441 H 230.003 -0.525708 0.530697 0
M  V30 2442 H 232.665 -0.778097 1.78694 0
M  V30 2443 H 231.761 -2.26195 2.1504 0
M  V30 2444 N 232.062 -1.29571 -0.897171 0
M  V30 2445 C 233.025 -1.14913 -1.98312 0
M  V30 2446 C 234.025 -0.0838629 -1.60581 0
M  V30 2447 O 235.215 -0.331006 -1.71026 0
M  V30 2448 C 232.347 -0.757835 -3.3237 0
M  V30 2449 H 233.54 -2.11377 -2.12743 0
M  V30 2450 H 231.093 -1.12793 -1.08201 0
M  V30 2451 H 231.828 0.206837 -3.2364 0
M  V30 2452 H 231.613 -1.52755 -3.61121 0
M  V30 2453 H 233.103 -0.678408 -4.12053 0
M  V30 2454 N 233.54 1.10788 -1.12088 0
M  V30 2455 C 234.786 1.8313 -0.885148 0
M  V30 2456 C 235.141 1.8336 0.582839 0
M  V30 2457 O 234.434 1.28062 1.42516 0
M  V30 2458 C 234.628 3.29294 -1.38926 0
M  V30 2459 C 234.457 3.43302 -2.90472 0
M  V30 2460 C 233.227 3.55928 -3.58669 0
M  V30 2461 C 235.425 3.37014 -3.88492 0
M  V30 2462 N 233.407 3.58475 -4.98366 0
M  V30 2463 C 234.778 3.46263 -5.14298 0
M  V30 2464 C 236.833 3.20589 -3.80955 0
M  V30 2465 C 235.536 3.4078 -6.33452 0
M  V30 2466 C 237.562 3.16427 -4.99628 0
M  V30 2467 C 236.924 3.26253 -6.2429 0
M  V30 2468 H 233.023 0.685054 -0.377128 0
M  V30 2469 H 235.607 1.3251 -1.4265 0
M  V30 2470 H 233.778 3.78416 -0.874999 0
M  V30 2471 H 235.51 3.89578 -1.09596 0
M  V30 2472 H 232.265 3.58779 -3.09151 0
M  V30 2473 H 232.689 3.6337 -5.71219 0
M  V30 2474 H 237.331 3.11873 -2.85474 0
M  V30 2475 H 235.049 3.48263 -7.29204 0
M  V30 2476 H 238.635 3.04874 -4.95523 0
M  V30 2477 H 237.515 3.2303 -7.14578 0
M  V30 2478 N 235.018 0.912232 1.28515 0
M  V30 2479 C 236.295 0.463597 1.90027 0
M  V30 2480 C 236.675 -1.05753 1.82701 0
M  V30 2481 O 236.023 -1.90492 1.26194 0
M  V30 2482 C 236.233 0.992253 3.34597 0
M  V30 2483 C 237.581 1.04344 4.11579 0
M  V30 2484 O 238.605 0.94079 3.43551 0
M  V30 2485 O 237.464 1.1995 5.33174 0
M  V30 2486 H 234.558 0.146666 0.813891 0
M  V30 2487 H 237.104 1.00292 1.36893 0
M  V30 2488 H 235.876 2.03623 3.34146 0
M  V30 2489 H 235.499 0.433672 3.95228 0
M  V30 2490 N 236.496 -1.42363 0.676048 0
M  V30 2491 C 237.907 -1.84649 0.275948 0
M  V30 2492 C 238.258 -1.56588 -1.18214 0
M  V30 2493 O 237.383 -1.02634 -1.90513 0
M  V30 2494 C 237.978 -3.35178 0.494053 0
M  V30 2495 C 236.537 -3.76109 0.148061 0
M  V30 2496 C 235.684 -2.65931 0.785891 0
M  V30 2497 H 238.635 -1.32192 0.878121 0
M  V30 2498 H 238.656 -3.79655 -0.25343 0
M  V30 2499 H 238.168 -3.55571 1.55535 0
M  V30 2500 H 236.269 -3.61323 -0.909742 0
M  V30 2501 H 236.382 -4.7546 0.589454 0
M  V30 2502 H 234.746 -2.53773 0.217113 0
M  V30 2503 H 235.529 -2.89146 1.85067 0
M  V30 2504 N 237.974 -0.419461 -1.51915 0
M  V30 2505 C 239.202 0.152136 -2.0634 0
M  V30 2506 C 239.617 1.37988 -1.28859 0
M  V30 2507 O 238.974 1.79243 -0.343232 0
M  V30 2508 C 239.025 0.492266 -3.58133 0
M  V30 2509 O 238.746 -0.686736 -4.32684 0
M  V30 2510 C 240.247 1.11648 -4.2901 0
M  V30 2511 H 237.467 0.0158325 -0.670813 0
M  V30 2512 H 240.011 -0.593394 -1.95702 0
M  V30 2513 H 238.166 1.18769 -3.68745 0
M  V30 2514 H 238.58 -0.400341 -5.2297 0
M  V30 2515 H 240.054 1.3046 -5.36362 0
M  V30 2516 H 240.531 2.09251 -3.86148 0
M  V30 2517 H 241.137 0.460958 -4.22795 0
M  V30 2518 N 239.452 1.56882 -0.150215 0
M  V30 2519 C 240.698 1.96518 0.500834 0
M  V30 2520 C 241.031 1.03527 1.64304 0
M  V30 2521 O 240.306 0.0782751 1.94342 0
M  V30 2522 C 240.589 3.45822 1.00395 0
M  V30 2523 C 240.442 4.49591 -0.136983 0
M  V30 2524 C 241.761 3.97704 1.88467 0
M  V30 2525 H 238.88 0.714535 0.18058 0
M  V30 2526 H 241.522 1.88577 -0.232091 0
M  V30 2527 H 239.672 3.5272 1.62851 0
M  V30 2528 H 241.344 4.5477 -0.77343 0
M  V30 2529 H 239.587 4.26441 -0.795652 0
M  V30 2530 H 240.258 5.51402 0.256815 0
M  V30 2531 H 242.734 3.93304 1.35834 0
M  V30 2532 H 241.61 5.0263 2.20578 0
M  V30 2533 H 241.871 3.40252 2.82279 0
M  V30 2534 N 240.93 -0.123565 1.57115 0
M  V30 2535 C 242.155 -0.850398 1.89164 0
M  V30 2536 C 242.58 -1.7286 0.741688 0
M  V30 2537 O 241.938 -1.78665 -0.307958 0
M  V30 2538 C 241.986 -1.66353 3.19936 0
M  V30 2539 O 241.09 -2.77004 3.0552 0
M  V30 2540 H 240.431 -0.235454 0.620852 0
M  V30 2541 H 242.961 -0.107335 2.04318 0
M  V30 2542 H 242.971 -2.05372 3.52543 0
M  V30 2543 H 241.646 -1.01881 4.03228 0
M  V30 2544 H 240.223 -2.41221 2.84371 0
M  V30 2545 N 242.408 -1.52605 -0.393616 0
M  V30 2546 C 243.654 -1.67672 -1.14079 0
M  V30 2547 C 243.987 -0.413121 -1.89755 0
M  V30 2548 O 243.262 0.588952 -1.85369 0
M  V30 2549 C 243.545 -2.9088 -2.12276 0
M  V30 2550 C 243.398 -4.27329 -1.40394 0
M  V30 2551 C 244.717 -3.09628 -3.12759 0
M  V30 2552 H 241.836 -0.610168 -0.413356 0
M  V30 2553 H 244.478 -1.85193 -0.424696 0
M  V30 2554 H 242.628 -2.76073 -2.73342 0
M  V30 2555 H 244.3 -4.53894 -0.82327 0
M  V30 2556 H 242.543 -4.2802 -0.705801 0
M  V30 2557 H 243.214 -5.09615 -2.12123 0
M  V30 2558 H 245.69 -3.23436 -2.61779 0
M  V30 2559 H 244.566 -3.97322 -3.78717 0
M  V30 2560 H 244.827 -2.23637 -3.81365 0
M  V30 2561 N 243.887 0.651787 -1.4349 0
M  V30 2562 C 244.797 1.79368 -1.5121 0
M  V30 2563 C 245.813 1.69361 -0.399093 0
M  V30 2564 O 246.989 1.90505 -0.653431 0
M  V30 2565 C 244.054 3.15653 -1.43401 0
M  V30 2566 C 243.115 3.37446 -2.65384 0
M  V30 2567 C 242.348 4.67229 -2.57939 0
M  V30 2568 O 242.571 5.46676 -1.62792 0
M  V30 2569 O 241.505 4.90773 -3.48462 0
M  V30 2570 H 245.331 1.7581 -2.47638 0
M  V30 2571 H 242.916 0.810447 -1.25507 0
M  V30 2572 H 244.798 3.96935 -1.41494 0
M  V30 2573 H 243.473 3.19798 -0.501085 0
M  V30 2574 H 242.38 2.55923 -2.72863 0
M  V30 2575 H 243.713 3.38148 -3.57654 0
M  V30 2576 N 245.365 1.30045 0.890287 0
M  V30 2577 C 246.275 1.17885 2.02831 0
M  V30 2578 C 247.291 0.0999609 1.73713 0
M  V30 2579 O 248.467 0.313867 1.98939 0
M  V30 2580 C 245.532 0.866079 3.35708 0
M  V30 2581 C 244.593 2.02979 3.78283 0
M  V30 2582 C 243.826 1.73184 5.0482 0
M  V30 2583 O 244.049 0.657237 5.66601 0
M  V30 2584 O 242.983 2.58267 5.43674 0
M  V30 2585 H 246.809 2.13474 2.16015 0
M  V30 2586 H 244.394 1.09587 1.01543 0
M  V30 2587 H 246.276 0.706623 4.15433 0
M  V30 2588 H 244.951 -0.0599443 3.23644 0
M  V30 2589 H 243.858 2.24454 2.99285 0
M  V30 2590 H 245.191 2.93734 3.94944 0
M  V30 2591 N 246.843 -1.10192 1.12674 0
M  V30 2592 C 248.089 -1.82475 0.884915 0
M  V30 2593 C 248.422 -1.85093 -0.58773 0
M  V30 2594 O 247.697 -1.3134 -1.43457 0
M  V30 2595 C 247.98 -3.29018 1.46353 0
M  V30 2596 C 247.833 -3.34718 3.00473 0
M  V30 2597 C 249.152 -4.25473 1.12519 0
M  V30 2598 H 246.271 -0.662492 0.322915 0
M  V30 2599 H 248.913 -1.2913 1.39375 0
M  V30 2600 H 247.063 -3.74576 1.03077 0
M  V30 2601 H 248.735 -2.97622 3.52447 0
M  V30 2602 H 246.978 -2.74541 3.35872 0
M  V30 2603 H 247.649 -4.37918 3.36053 0
M  V30 2604 H 250.125 -3.88161 1.499 0
M  V30 2605 H 249.001 -5.26365 1.55663 0
M  V30 2606 H 249.262 -4.42084 0.0377407 0
M  V30 2607 N 248.321 -0.919034 -1.28029 0
M  V30 2608 C 249.737 -0.617972 -1.4715 0
M  V30 2609 C 249.937 0.835242 -1.83374 0
M  V30 2610 O 248.993 1.61388 -1.94191 0
M  V30 2611 C 250.306 -1.56041 -2.57044 0
M  V30 2612 C 251.854 -1.56769 -2.7091 0
M  V30 2613 C 252.329 -2.49688 -3.83953 0
M  V30 2614 N 253.82 -2.47845 -3.91314 0
M  V30 2615 C 254.555 -3.16437 -4.78179 0
M  V30 2616 N 254.051 -3.94376 -5.69596 0
M  V30 2617 N 255.844 -3.05498 -4.71834 0
M  V30 2618 H 247.995 -1.85866 -1.02798 0
M  V30 2619 H 250.258 -0.797506 -0.512531 0
M  V30 2620 H 249.964 -2.59671 -2.372 0
M  V30 2621 H 249.838 -1.29551 -3.54255 0
M  V30 2622 H 252.225 -0.538745 -2.90141 0
M  V30 2623 H 252.306 -1.87305 -1.74214 0
M  V30 2624 H 251.95 -3.52688 -3.65477 0
M  V30 2625 H 251.88 -2.16453 -4.80058 0
M  V30 2626 H 254.371 -1.91234 -3.25941 0
M  V30 2627 H 254.684 -4.43721 -6.32718 0
M  V30 2628 H 253.029 -3.98481 -5.69419 0
M  V30 2629 H 256.22 -2.44108 -3.99411 0
M  V30 2630 H 256.393 -3.59225 -5.39316 0
M  V30 2631 N 249.799 1.42003 -0.683588 0
M  V30 2632 C 251.21 1.84501 -0.285736 0
M  V30 2633 C 251.561 1.57213 1.17382 0
M  V30 2634 O 250.686 1.03642 1.89966 0
M  V30 2635 C 251.281 3.34912 -0.511821 0
M  V30 2636 C 249.84 3.76025 -0.168005 0
M  V30 2637 C 248.987 2.6551 -0.799983 0
M  V30 2638 H 251.938 1.31724 -0.885119 0
M  V30 2639 H 251.959 3.79784 0.233292 0
M  V30 2640 H 251.471 3.54741 -1.57418 0
M  V30 2641 H 249.572 3.61801 0.890567 0
M  V30 2642 H 249.685 4.75141 -0.614661 0
M  V30 2643 H 248.049 2.53654 -0.230568 0
M  V30 2644 H 248.832 2.8816 -1.86597 0
M  V30 2645 N 251.277 0.427512 1.51691 0
M  V30 2646 C 252.209 -0.424521 2.25234 0
M  V30 2647 C 253.222 -0.994671 1.2888 0
M  V30 2648 O 254.411 -0.890483 1.54702 0
M  V30 2649 C 251.511 -1.60479 2.98496 0
M  V30 2650 C 250.684 -1.15527 4.21868 0
M  V30 2651 C 249.743 -2.20454 4.77793 0
M  V30 2652 O 248.769 -1.8029 5.39893 0
M  V30 2653 N 249.971 -3.52831 4.60967 0
M  V30 2654 H 252.736 0.205749 2.98993 0
M  V30 2655 H 250.297 0.255867 1.59865 0
M  V30 2656 H 252.289 -2.30276 3.32799 0
M  V30 2657 H 250.859 -2.14061 2.27809 0
M  V30 2658 H 250.079 -0.284736 3.9317 0
M  V30 2659 H 251.367 -0.832173 5.01949 0
M  V30 2660 H 250.765 -3.88201 4.11481 0
M  V30 2661 H 249.322 -4.18551 4.99658 0
M  V30 2662 N 252.755 -1.56801 0.158532 0
M  V30 2663 C 254.004 -1.95665 -0.489702 0
M  V30 2664 C 254.317 -1.04654 -1.65248 0
M  V30 2665 O 255.523 -1.33146 -2.3661 0
M  V30 2666 C 253.979 -3.47874 -0.922582 0
M  V30 2667 C 253.587 -4.47489 0.213893 0
M  V30 2668 C 255.331 -3.95583 -1.53996 0
M  V30 2669 C 253.238 -5.90921 -0.237903 0
M  V30 2670 H 252.168 -0.730516 -0.186716 0
M  V30 2671 H 254.819 -1.81861 0.244722 0
M  V30 2672 H 253.201 -3.57051 -1.71261 0
M  V30 2673 H 254.375 -4.50017 0.991036 0
M  V30 2674 H 252.69 -4.09764 0.740407 0
M  V30 2675 H 255.287 -5.0019 -1.8898 0
M  V30 2676 H 255.63 -3.37789 -2.43319 0
M  V30 2677 H 256.163 -3.8937 -0.814611 0
M  V30 2678 H 252.902 -6.52559 0.620236 0
M  V30 2679 H 252.422 -5.91729 -0.980676 0
M  V30 2680 H 254.101 -6.43352 -0.686067 0
M  V30 2681 N 254.233 0.115231 -1.57178 0
M  V30 2682 C 255.461 0.836437 -1.89239 0
M  V30 2683 C 255.876 1.73256 -0.750175 0
M  V30 2684 O 255.233 1.80357 0.278832 0
M  V30 2685 C 255.284 1.66671 -3.20785 0
M  V30 2686 O 255.005 0.806652 -4.3061 0
M  V30 2687 C 256.506 2.49274 -3.66575 0
M  V30 2688 H 253.726 0.240253 -0.626514 0
M  V30 2689 H 256.27 0.0984932 -2.04263 0
M  V30 2690 H 254.425 2.35737 -3.0742 0
M  V30 2691 H 254.839 1.37969 -5.06028 0
M  V30 2692 H 256.313 3.03055 -4.6137 0
M  V30 2693 H 256.79 3.26807 -2.93417 0
M  V30 2694 H 257.396 1.85443 -3.82741 0
M  V30 2695 N 255.711 1.52812 0.385517 0
M  V30 2696 C 256.674 1.77188 1.45386 0
M  V30 2697 C 257.674 0.641953 1.4743 0
M  V30 2698 O 258.864 0.910033 1.4854 0
M  V30 2699 C 255.996 1.87582 2.8465 0
M  V30 2700 H 257.189 2.72583 1.25054 0
M  V30 2701 H 254.742 1.43586 0.617467 0
M  V30 2702 H 255.477 0.941849 3.10322 0
M  V30 2703 H 255.262 2.69748 2.84567 0
M  V30 2704 H 256.752 2.08102 3.62054 0
M  V30 2705 N 257.189 -0.644168 1.43834 0
M  V30 2706 C 258.119 -1.76814 1.52509 0
M  V30 2707 C 259.1 -1.65823 0.379052 0
M  V30 2708 O 260.285 -1.84781 0.597466 0
M  V30 2709 C 257.415 -3.15288 1.4564 0
M  V30 2710 C 256.369 -3.41053 2.58586 0
M  V30 2711 C 255.695 -4.79421 2.36769 0
M  V30 2712 C 256.995 -3.34902 4.00797 0
M  V30 2713 H 258.689 -1.69812 2.46586 0
M  V30 2714 H 256.235 -0.815542 1.1868 0
M  V30 2715 H 258.188 -3.93681 1.50311 0
M  V30 2716 H 256.912 -3.23043 0.480725 0
M  V30 2717 H 255.571 -2.65035 2.53282 0
M  V30 2718 H 255.219 -4.83863 1.37424 0
M  V30 2719 H 254.919 -4.9762 3.12487 0
M  V30 2720 H 256.443 -5.6006 2.43238 0
M  V30 2721 H 257.857 -4.03218 4.07539 0
M  V30 2722 H 256.254 -3.64637 4.76613 0
M  V30 2723 H 257.324 -2.32928 4.25291 0
M  V30 2724 N 258.668 -1.30515 -0.883378 0
M  V30 2725 C 259.914 -1.19607 -1.63774 0
M  V30 2726 C 260.247 0.248314 -1.92606 0
M  V30 2727 O 259.522 1.17742 -1.54813 0
M  V30 2728 C 259.805 -2.02669 -2.97653 0
M  V30 2729 C 259.658 -3.55335 -2.75784 0
M  V30 2730 C 260.977 -1.86573 -3.98596 0
M  V30 2731 H 258.096 -0.435856 -0.594305 0
M  V30 2732 H 260.738 -1.60165 -1.02212 0
M  V30 2733 H 258.888 -1.68208 -3.50197 0
M  V30 2734 H 260.56 -3.99863 -2.30016 0
M  V30 2735 H 258.803 -3.79438 -2.1026 0
M  V30 2736 H 259.474 -4.08745 -3.70988 0
M  V30 2737 H 261.95 -2.16703 -3.55217 0
M  V30 2738 H 260.826 -2.47014 -4.90179 0
M  V30 2739 H 261.087 -0.825321 -4.34328 0
M  V30 2740 N 260.146 1.09593 -1.13257 0
M  V30 2741 C 261.562 1.33775 -0.870423 0
M  V30 2742 C 261.762 1.95327 0.494926 0
M  V30 2743 O 260.818 2.19853 1.2418 0
M  V30 2744 C 262.131 2.25106 -1.99369 0
M  V30 2745 C 263.679 2.3862 -2.02558 0
M  V30 2746 C 264.154 3.33285 -3.14142 0
M  V30 2747 N 265.645 3.40857 -3.13641 0
M  V30 2748 C 266.38 4.14101 -3.96621 0
M  V30 2749 N 265.876 4.90157 -4.8961 0
M  V30 2750 N 267.669 4.09808 -3.84726 0
M  V30 2751 H 259.82 0.680136 -2.01216 0
M  V30 2752 H 262.083 0.362133 -0.876107 0
M  V30 2753 H 261.789 1.87103 -2.97801 0
M  V30 2754 H 261.663 3.25481 -1.90635 0
M  V30 2755 H 264.05 2.75887 -1.0474 0
M  V30 2756 H 264.131 1.38028 -2.15364 0
M  V30 2757 H 263.775 2.96741 -4.12198 0
M  V30 2758 H 263.705 4.33776 -2.98574 0
M  V30 2759 H 266.196 2.86624 -2.46282 0
M  V30 2760 H 266.509 5.4347 -5.49418 0
M  V30 2761 H 264.854 4.89251 -4.93617 0
M  V30 2762 H 268.045 3.4949 -3.11408 0
M  V30 2763 H 268.218 4.66629 -4.49623 0
M  V30 2764 N 261.624 0.925811 1.2754 0
M  V30 2765 C 262.571 0.422045 2.26908 0
M  V30 2766 C 263.541 -0.510029 1.58076 0
M  V30 2767 O 264.726 -0.429599 1.85901 0
M  V30 2768 C 261.866 -0.320837 3.43605 0
M  V30 2769 C 260.979 0.64513 4.27156 0
M  V30 2770 C 260.114 -0.117405 5.3107 0
M  V30 2771 C 259.153 0.841391 6.0629 0
M  V30 2772 N 258.29 0.111604 7.02011 0
M  V30 2773 H 263.13 1.27441 2.69375 0
M  V30 2774 H 260.667 0.639697 1.32462 0
M  V30 2775 H 262.625 -0.76785 4.10073 0
M  V30 2776 H 261.255 -1.13745 3.02096 0
M  V30 2777 H 260.307 1.21067 3.6062 0
M  V30 2778 H 261.619 1.37797 4.79389 0
M  V30 2779 H 260.773 -0.624422 6.03478 0
M  V30 2780 H 259.512 -0.883219 4.79636 0
M  V30 2781 H 258.517 1.35967 5.32722 0
M  V30 2782 H 259.742 1.60696 6.59813 0
M  V30 2783 H 257.688 -0.635999 6.5291 0
M  V30 2784 H 257.605 0.784044 7.51923 0
M  V30 2785 H 258.873 -0.374823 7.78598 0
M  V30 2786 N 263.102 -1.41638 0.69111 0
M  V30 2787 C 264.032 -2.3347 0.037248 0
M  V30 2788 C 265.013 -1.51575 -0.771947 0
M  V30 2789 O 266.198 -1.80126 -0.72582 0
M  V30 2790 C 263.328 -3.35354 -0.903064 0
M  V30 2791 C 262.282 -4.27526 -0.201288 0
M  V30 2792 C 261.608 -5.19747 -1.25565 0
M  V30 2793 C 262.908 -5.13959 0.929689 0
M  V30 2794 H 264.602 -2.88397 0.804227 0
M  V30 2795 H 262.148 -1.38669 0.388189 0
M  V30 2796 H 264.101 -3.98519 -1.36969 0
M  V30 2797 H 262.825 -2.78767 -1.70166 0
M  V30 2798 H 261.484 -3.65779 0.245265 0
M  V30 2799 H 261.132 -4.59479 -2.04666 0
M  V30 2800 H 260.832 -5.8225 -0.791128 0
M  V30 2801 H 262.356 -5.85789 -1.72288 0
M  V30 2802 H 263.77 -5.70718 0.543546 0
M  V30 2803 H 262.167 -5.85379 1.32103 0
M  V30 2804 H 263.237 -4.51389 1.77133 0
M  V30 2805 N 264.58 -0.43555 -1.51462 0
M  V30 2806 C 265.829 0.133007 -2.01261 0
M  V30 2807 C 266.142 1.43942 -1.32439 0
M  V30 2808 O 267.348 2.09081 -1.73198 0
M  V30 2809 C 265.804 0.287581 -3.58749 0
M  V30 2810 C 265.412 -1.00829 -4.36506 0
M  V30 2811 C 267.156 0.810004 -4.167 0
M  V30 2812 C 265.063 -0.819454 -5.85695 0
M  V30 2813 H 263.993 0.0534822 -0.752101 0
M  V30 2814 H 266.644 -0.565038 -1.74584 0
M  V30 2815 H 265.026 1.04859 -3.81865 0
M  V30 2816 H 266.2 -1.77749 -4.25138 0
M  V30 2817 H 264.515 -1.45911 -3.89999 0
M  V30 2818 H 267.112 0.967743 -5.2587 0
M  V30 2819 H 267.455 1.79196 -3.75758 0
M  V30 2820 H 267.988 0.107357 -3.97655 0
M  V30 2821 H 264.727 -1.77374 -6.31046 0
M  V30 2822 H 264.247 -0.0900208 -5.99732 0
M  V30 2823 H 265.926 -0.471949 -6.45276 0
M  V30 2824 N 266.058 1.56714 -0.166846 0
M  V30 2825 C 266.988 2.20754 0.760913 0
M  V30 2826 C 267.969 1.16178 1.24244 0
M  V30 2827 O 269.154 1.44592 1.29641 0
M  V30 2828 C 266.284 2.84478 1.99223 0
M  V30 2829 C 265.238 3.95053 1.64672 0
M  V30 2830 C 264.564 4.45805 2.95232 0
M  V30 2831 C 265.864 5.14865 0.878155 0
M  V30 2832 H 267.558 2.98537 0.22713 0
M  V30 2833 H 265.104 1.43596 0.107805 0
M  V30 2834 H 267.057 3.27951 2.64624 0
M  V30 2835 H 265.781 2.04056 2.55007 0
M  V30 2836 H 264.44 3.52228 1.01641 0
M  V30 2837 H 264.088 3.62181 3.49047 0
M  V30 2838 H 263.788 5.204 2.7287 0
M  V30 2839 H 265.312 4.91962 3.6167 0
M  V30 2840 H 266.726 5.55059 1.43466 0
M  V30 2841 H 265.123 5.95348 0.753738 0
M  V30 2842 H 266.193 4.84735 -0.126377 0
M  V30 2843 N 267.536 -0.106894 1.57237 0
M  V30 2844 C 268.466 -1.13148 2.04254 0
M  V30 2845 C 269.447 -1.42476 0.929224 0
M  V30 2846 O 270.632 -1.52709 1.19973 0
M  V30 2847 C 267.762 -2.4545 2.45706 0
M  V30 2848 C 266.716 -2.30558 3.60592 0
M  V30 2849 C 266.042 -3.67931 3.87983 0
M  V30 2850 C 267.342 -1.75597 4.91897 0
M  V30 2851 H 269.036 -0.740374 2.90101 0
M  V30 2852 H 266.582 -0.354696 1.39563 0
M  V30 2853 H 268.535 -3.17389 2.77205 0
M  V30 2854 H 267.259 -2.86475 1.56843 0
M  V30 2855 H 265.918 -1.61067 3.29322 0
M  V30 2856 H 265.566 -4.06462 2.96306 0
M  V30 2857 H 265.266 -3.58817 4.65322 0
M  V30 2858 H 266.79 -4.41356 4.21945 0
M  V30 2859 H 268.204 -2.37364 5.21854 0
M  V30 2860 H 266.601 -1.77272 5.73319 0
M  V30 2861 H 267.671 -0.714451 4.79608 0
M  V30 2862 N 269.014 -1.53014 -0.377408 0
M  V30 2863 C 269.961 -1.78616 -1.46168 0
M  V30 2864 C 270.931 -0.629917 -1.53692 0
M  V30 2865 O 272.116 -0.870861 -1.69766 0
M  V30 2866 C 269.256 -1.97123 -2.8326 0
M  V30 2867 C 268.369 -3.24831 -2.84796 0
M  V30 2868 C 267.504 -3.33591 -4.13389 0
M  V30 2869 C 266.543 -4.55377 -4.09021 0
M  V30 2870 N 265.68 -4.61355 -5.29241 0
M  V30 2871 H 270.52 -2.71142 -1.23637 0
M  V30 2872 H 268.057 -1.34326 -0.599577 0
M  V30 2873 H 270.015 -2.05839 -3.62886 0
M  V30 2874 H 268.645 -1.07946 -3.04216 0
M  V30 2875 H 267.697 -3.25128 -1.97474 0
M  V30 2876 H 269.009 -4.14523 -2.77439 0
M  V30 2877 H 268.163 -3.41554 -5.01424 0
M  V30 2878 H 266.902 -2.41894 -4.23484 0
M  V30 2879 H 265.907 -4.47527 -3.19373 0
M  V30 2880 H 267.132 -5.48402 -4.00539 0
M  V30 2881 H 265.078 -3.72554 -5.39944 0
M  V30 2882 H 264.995 -5.44935 -5.24006 0
M  V30 2883 H 266.263 -4.73586 -6.19141 0
M  V30 2884 N 270.492 0.636531 -1.44174 0
M  V30 2885 C 271.908 0.954104 -1.27941 0
M  V30 2886 C 272.108 2.0039 -0.211248 0
M  V30 2887 O 271.164 2.49236 0.404695 0
M  V30 2888 C 272.477 1.4225 -2.64925 0
M  V30 2889 C 274.025 1.53827 -2.72592 0
M  V30 2890 C 274.5 2.04053 -4.10032 0
M  V30 2891 N 275.991 2.11331 -4.12182 0
M  V30 2892 C 276.726 2.51352 -5.15374 0
M  V30 2893 N 276.222 2.90549 -6.2893 0
M  V30 2894 N 278.015 2.51438 -5.02728 0
M  V30 2895 H 270.166 -0.0578386 -2.12321 0
M  V30 2896 H 272.429 0.0367406 -0.947288 0
M  V30 2897 H 272.135 0.725466 -3.44136 0
M  V30 2898 H 272.009 2.39451 -2.9145 0
M  V30 2899 H 274.396 2.22628 -1.93702 0
M  V30 2900 H 274.477 0.550154 -2.49814 0
M  V30 2901 H 274.121 1.35848 -4.89395 0
M  V30 2902 H 274.051 3.03726 -4.30184 0
M  V30 2903 H 276.542 1.83745 -3.30222 0
M  V30 2904 H 276.855 3.19884 -7.03487 0
M  V30 2905 H 275.2 2.88313 -6.32377 0
M  V30 2906 H 278.391 2.20203 -4.13072 0
M  V30 2907 H 278.564 2.82304 -5.83274 0
M  V30 2908 N 271.97 1.30982 0.876444 0
M  V30 2909 C 272.88 1.2003 2.01569 0
M  V30 2910 C 273.896 0.11838 1.73597 0
M  V30 2911 O 275.072 0.33495 1.98595 0
M  V30 2912 C 272.137 0.901637 3.34771 0
M  V30 2913 C 271.198 2.06979 3.76109 0
M  V30 2914 C 270.431 1.78529 5.02954 0
M  V30 2915 O 270.654 0.717296 5.65872 0
M  V30 2916 O 269.588 2.64019 5.40905 0
M  V30 2917 H 273.414 2.15753 2.13739 0
M  V30 2918 H 270.999 1.10658 1.00375 0
M  V30 2919 H 272.881 0.750645 4.1466 0
M  V30 2920 H 271.556 -0.0256141 3.2369 0
M  V30 2921 H 270.463 2.27616 2.96887 0
M  V30 2922 H 271.796 2.97907 3.91807 0
M  V30 2923 N 273.449 -1.08991 1.13837 0
M  V30 2924 C 274.726 -1.77863 0.813876 0
M  V30 2925 C 275.106 -1.99375 -0.693746 0
M  V30 2926 O 274.454 -1.59875 -1.63255 0
M  V30 2927 C 274.664 -3.0986 1.60586 0
M  V30 2928 C 276.012 -3.84493 1.8014 0
M  V30 2929 O 277.036 -3.19624 1.57222 0
M  V30 2930 O 275.895 -5.00957 2.18413 0
M  V30 2931 H 272.989 -0.771589 0.297624 0
M  V30 2932 H 275.535 -1.15507 1.24323 0
M  V30 2933 H 274.307 -2.89715 2.63022 0
M  V30 2934 H 273.93 -3.79942 1.17173 0
M  V30 2935 N 274.927 -0.932562 -1.27047 0
M  V30 2936 C 275.857 -0.452902 -2.29066 0
M  V30 2937 C 276.838 0.489338 -1.62909 0
M  V30 2938 O 278.023 0.393046 -1.90181 0
M  V30 2939 C 275.153 0.290698 -3.46081 0
M  V30 2940 C 274.107 -0.564168 -4.24265 0
M  V30 2941 C 273.433 0.308886 -5.33807 0
M  V30 2942 C 274.733 -1.83112 -4.89149 0
M  V30 2943 H 276.427 -1.30552 -2.69437 0
M  V30 2944 H 273.973 -0.629201 -1.29526 0
M  V30 2945 H 275.926 0.637233 -4.16554 0
M  V30 2946 H 274.65 1.17738 -3.0464 0
M  V30 2947 H 273.309 -0.893477 -3.55545 0
M  V30 2948 H 272.957 1.19467 -4.88607 0
M  V30 2949 H 272.657 -0.259633 -5.87026 0
M  V30 2950 H 274.181 0.650884 -6.07121 0
M  V30 2951 H 275.595 -1.55236 -5.51883 0
M  V30 2952 H 273.992 -2.34353 -5.52448 0
M  V30 2953 H 275.062 -2.54772 -4.12576 0
M  V30 2954 O 276.444 1.38103 -0.83724 0
M  V30 2955 H 277.135 1.88989 -0.424593 0
M  V30 END ATOM
M  V30 BEGIN BOND
M  V30 END BOND
M  V30 END CTAB
M  END
$$$$
