drugbank_target|Q15637 Splicing factor 1 (DB11638)
 OpenBabel12092121093D

  0  0  0     0  0            999 V3000
M  V30 BEGIN CTAB
M  V30 COUNTS 9509 9686 0 0 0
M  V30 BEGIN ATOM
M  V30 1 H -0.908 1.98254 -0.117106 0
M  V30 2 N 0 1.576 0 0
M  V30 3 C 0.933 2.03868 1.02534 0
M  V30 4 C 1.911 0.928543 1.3348 0
M  V30 5 O 3.095 1.19667 1.45644 0
M  V30 6 C 0.222 2.43627 2.35294 0
M  V30 7 C -0.732 3.65373 2.2001 0
M  V30 8 S 0.101 5.13292 1.52614 0
M  V30 9 C 1.257 5.56322 2.86805 0
M  V30 10 H 1.49 2.90518 0.631377 0
M  V30 11 H -0.977 1.52953 0.210867 0
M  V30 12 H 0.981 2.67203 3.11629 0
M  V30 13 H -0.358 1.57376 2.7183 0
M  V30 14 H -1.165 3.90944 3.18086 0
M  V30 15 H -1.563 3.418 1.51819 0
M  V30 16 H 0.729 5.58782 3.83104 0
M  V30 17 H 1.672 6.56266 2.65933 0
M  V30 18 H 2.08 4.83886 2.90714 0
M  V30 19 N 1.4781 -0.272755 1.55222 0
M  V30 20 C 2.4411 -1.32041 1.87344 0
M  V30 21 C 3.4411 -1.42342 0.74803 0
M  V30 22 O 4.6311 -1.41488 1.0162 0
M  V30 23 C 1.7631 -2.70173 2.07893 0
M  V30 24 H 2.9561 -1.04789 2.80997 0
M  V30 25 H 0.5091 -0.51083 1.47717 0
M  V30 26 H 1.2441 -3.02605 1.16622 0
M  V30 27 H 1.0291 -2.64082 2.89833 0
M  V30 28 H 2.5191 -3.45869 2.34017 0
M  V30 29 N 2.9562 -1.48159 -0.537278 0
M  V30 30 C 4.1842 -1.59454 -1.31841 0
M  V30 31 C 4.5992 -0.252065 -1.8711 0
M  V30 32 O 3.9562 0.757621 -1.66031 0
M  V30 33 C 4.0072 -2.63546 -2.47439 0
M  V30 34 O 3.7282 -3.92583 -1.94449 0
M  V30 35 C 5.2292 -2.85212 -3.39366 0
M  V30 36 H 2.4492 -0.53785 -0.401196 0
M  V30 37 H 4.9932 -1.93932 -0.648891 0
M  V30 38 H 3.1482 -2.31946 -3.1029 0
M  V30 39 H 3.5622 -4.49629 -2.70063 0
M  V30 40 H 5.0362 -3.61863 -4.16844 0
M  V30 41 H 5.5132 -1.93765 -3.94147 0
M  V30 42 H 6.1192 -3.18086 -2.82314 0
M  V30 43 N 4.4343 0.785586 -1.36625 0
M  V30 44 C 5.6823 1.54057 -1.30808 0
M  V30 45 C 6.0033 1.94683 0.111157 0
M  V30 46 O 5.2733 1.65241 1.05224 0
M  V30 47 H 3.8533 0.571354 -0.481211 0
M  V30 48 H 6.5153 0.935821 -1.70963 0
M  V30 49 H 5.6113 2.44637 -1.93801 0
M  V30 50 N 5.9124 1.20967 1.01018 0
M  V30 51 C 6.8754 0.965918 2.07853 0
M  V30 52 C 7.8754 -0.0610545 1.60684 0
M  V30 53 O 9.0654 0.175681 1.73312 0
M  V30 54 C 6.1974 0.455513 3.37843 0
M  V30 55 H 7.3904 1.91365 2.3091 0
M  V30 56 H 4.9434 1.02594 1.17916 0
M  V30 57 H 5.6784 -0.497381 3.20463 0
M  V30 58 H 5.4634 1.19622 3.73407 0
M  V30 59 H 6.9534 0.304667 4.16487 0
M  V30 60 N 7.3905 -1.2043 1.01659 0
M  V30 61 C 8.3385 -2.25249 0.580143 0
M  V30 62 C 9.3325 -1.65057 -0.381115 0
M  V30 63 O 10.5385 -1.78241 -0.251039 0
M  V30 64 H 6.9135 -0.732695 0.169299 0
M  V30 65 H 8.8845 -2.59389 1.47512 0
M  V30 66 C 7.6335 -3.47638 -0.065788 0
M  V30 67 H 6.9565 -3.94233 0.664874 0
M  V30 68 H 8.3965 -4.2268 -0.334282 0
M  V30 69 C 6.8555 -3.10447 -1.3086 0
M  V30 70 O 7.3855 -3.21981 -2.4019 0
M  V30 71 N 5.5915 -2.64996 -1.1927 0
M  V30 72 H 5.1385 -2.55811 -0.303064 0
M  V30 73 H 5.0965 -2.40482 -2.02523 0
M  V30 74 N 8.8686 -0.792821 -1.36206 0
M  V30 75 C 9.8316 -0.199459 -2.2833 0
M  V30 76 C 10.8316 0.605189 -1.48977 0
M  V30 77 O 12.0216 0.425685 -1.68919 0
M  V30 78 C 9.1536 0.723523 -3.33134 0
M  V30 79 H 10.3466 -1.01181 -2.82316 0
M  V30 80 H 7.8996 -0.562485 -1.45828 0
M  V30 81 H 8.6346 1.56008 -2.84309 0
M  V30 82 H 8.4196 0.148436 -3.91819 0
M  V30 83 H 9.9096 1.13344 -4.01924 0
M  V30 84 N 10.3467 1.47872 -0.545128 0
M  V30 85 C 11.5747 2.06889 -0.021084 0
M  V30 86 C 11.9897 1.39955 1.2672 0
M  V30 87 O 11.3467 0.492036 1.75742 0
M  V30 88 C 11.3977 3.60996 0.190817 0
M  V30 89 O 11.1187 4.25419 -1.04644 0
M  V30 90 C 12.6197 4.36849 0.753521 0
M  V30 91 H 9.8397 0.669785 -0.0403635 0
M  V30 92 H 12.3837 1.90049 -0.755095 0
M  V30 93 H 10.5387 3.77391 0.87492 0
M  V30 94 H 10.9527 5.17785 -0.836611 0
M  V30 95 H 12.4267 5.45399 0.851139 0
M  V30 96 H 12.9037 4.02306 1.762 0
M  V30 97 H 13.5097 4.25169 0.105503 0
M  V30 98 N 11.8248 0.280983 1.55075 0
M  V30 99 C 13.2358 -0.215629 1.85451 0
M  V30 100 C 13.5868 -1.54991 1.203 0
M  V30 101 O 12.7118 -2.10699 0.493435 0
M  V30 102 C 13.3068 -0.398026 3.36454 0
M  V30 103 C 11.8658 -0.838866 3.66933 0
M  V30 104 C 11.0128 0.064458 2.77225 0
M  V30 105 H 13.9638 0.502601 1.50531 0
M  V30 106 H 13.9848 -1.23569 3.59876 0
M  V30 107 H 13.4968 0.573241 3.83843 0
M  V30 108 H 11.5978 -1.8214 3.25048 0
M  V30 109 H 11.7108 -0.672123 4.74362 0
M  V30 110 H 10.0748 -0.452863 2.50642 0
M  V30 111 H 10.8578 1.03172 3.2743 0
M  V30 112 N 13.3029 -1.57598 0.00835791 0
M  V30 113 C 14.2329 -2.1198 -0.979113 0
M  V30 114 C 15.2139 -1.03091 -1.35301 0
M  V30 115 O 16.3989 -1.30818 -1.43528 0
M  V30 116 C 13.5289 -2.62995 -2.26828 0
M  V30 117 C 12.4829 -3.76485 -2.03576 0
M  V30 118 C 11.8089 -4.13846 -3.38579 0
M  V30 119 C 13.1089 -5.0342 -1.39161 0
M  V30 120 H 14.8029 -2.94738 -0.526281 0
M  V30 121 H 12.3489 -1.41783 -0.251704 0
M  V30 122 H 14.3019 -2.99669 -2.96271 0
M  V30 123 H 13.0259 -1.7737 -2.7424 0
M  V30 124 H 11.6849 -3.40217 -1.36557 0
M  V30 125 H 11.3329 -3.25232 -3.83709 0
M  V30 126 H 11.0329 -4.90312 -3.23834 0
M  V30 127 H 12.5569 -4.53086 -4.09323 0
M  V30 128 H 13.9709 -5.37812 -1.98573 0
M  V30 129 H 12.3679 -5.84746 -1.34878 0
M  V30 130 H 13.4379 -4.83548 -0.361868 0
M  V30 131 N 14.781 0.264519 -1.55364 0
M  V30 132 C 16.058 1.01677 -1.67096 0
M  V30 133 C 16.438 2.03996 -0.543015 0
M  V30 134 O 15.786 2.23907 0.45585 0
M  V30 135 C 15.996 1.66596 -3.0667 0
M  V30 136 C 17.344 2.17442 -3.64697 0
M  V30 137 O 18.368 1.76568 -3.09358 0
M  V30 138 O 17.227 2.92439 -4.61673 0
M  V30 139 H 14.321 0.472161 -0.678965 0
M  V30 140 H 16.867 0.259703 -1.67701 0
M  V30 141 H 15.639 0.924962 -3.80211 0
M  V30 142 H 15.262 2.48968 -3.10001 0
M  V30 143 N 16.2591 1.48442 0.529413 0
M  V30 144 C 17.5061 1.56488 1.28521 0
M  V30 145 C 17.8341 0.239042 1.93025 0
M  V30 146 O 17.0891 -0.770713 1.79885 0
M  V30 147 C 17.3881 2.6523 2.39558 0
M  V30 148 C 17.0541 4.07648 1.92702 0
M  V30 149 C 15.7161 4.46411 1.79641 0
M  V30 150 C 18.0681 4.96896 1.573 0
M  V30 151 C 15.3961 5.72226 1.29514 0
M  V30 152 C 17.7481 6.23202 1.08636 0
M  V30 153 C 16.4121 6.60821 0.941919 0
M  V30 154 H 15.6821 0.572631 0.470292 0
M  V30 155 H 18.3291 1.82161 0.59072 0
M  V30 156 H 16.6341 2.33419 3.14679 0
M  V30 157 H 18.3311 2.68671 2.97686 0
M  V30 158 H 14.9211 3.77036 2.03819 0
M  V30 159 H 19.1051 4.67626 1.66251 0
M  V30 160 H 14.3611 6.00097 1.17019 0
M  V30 161 H 18.5351 6.91753 0.803136 0
M  V30 162 H 16.1621 7.58198 0.5513 0
M  V30 163 N 17.7372 -0.778329 1.37039 0
M  V30 164 C 19.1482 -1.35421 1.28523 0
M  V30 165 C 19.4992 -1.96075 -0.0700901 0
M  V30 166 O 18.6242 -1.93352 -0.971801 0
M  V30 167 C 19.2192 -2.46211 2.32735 0
M  V30 168 C 17.7782 -2.99585 2.27873 0
M  V30 169 C 16.9252 -1.72748 2.16918 0
M  V30 170 H 19.8762 -0.5791 1.47757 0
M  V30 171 H 19.8972 -3.2552 1.9702 0
M  V30 172 H 19.4092 -2.02036 3.31365 0
M  V30 173 H 17.5102 -3.48152 1.32745 0
M  V30 174 H 17.6232 -3.55646 3.21018 0
M  V30 175 H 15.9872 -1.95416 1.63354 0
M  V30 176 H 16.7702 -1.30686 3.17452 0
M  V30 177 N 19.2153 -1.21501 -1.00376 0
M  V30 178 C 20.4403 -1.05977 -1.78279 0
M  V30 179 C 20.8653 0.385994 -1.84097 0
M  V30 180 O 20.2233 1.27849 -1.28547 0
M  V30 181 C 20.2713 -1.66302 -3.19963 0
M  V30 182 O 19.3753 -0.909333 -4.0225 0
M  V30 183 H 18.7163 -0.372906 -0.549397 0
M  V30 184 H 21.2463 -1.6107 -1.26165 0
M  V30 185 H 21.2563 -1.70574 -3.70632 0
M  V30 186 H 19.9313 -2.71515 -3.15043 0
M  V30 187 H 18.5083 -0.941795 -3.60811 0
M  V30 188 N 20.6934 1.19889 -1.02296 0
M  V30 189 C 21.6404 2.22901 -0.598651 0
M  V30 190 C 22.6104 1.61588 0.384521 0
M  V30 191 O 23.7954 1.88697 0.282522 0
M  V30 192 C 20.9354 3.45063 0.0504476 0
M  V30 193 C 20.0484 4.20783 -0.978053 0
M  V30 194 C 19.1834 5.30356 -0.299338 0
M  V30 195 C 18.2224 5.97826 -1.31416 0
M  V30 196 N 17.3594 6.98975 -0.661667 0
M  V30 197 H 22.1994 2.58554 -1.48169 0
M  V30 198 H 19.7364 1.27039 -0.741584 0
M  V30 199 H 21.6944 4.14831 0.443971 0
M  V30 200 H 20.3244 3.10084 0.897097 0
M  V30 201 H 19.3764 3.50018 -1.48969 0
M  V30 202 H 20.6884 4.67109 -1.74958 0
M  V30 203 H 19.8424 6.06516 0.149347 0
M  V30 204 H 18.5814 4.85084 0.504445 0
M  V30 205 H 17.5864 5.20422 -1.77317 0
M  V30 206 H 18.8114 6.45183 -2.11933 0
M  V30 207 H 16.7574 6.55886 0.122132 0
M  V30 208 H 16.6744 7.43461 -1.37117 0
M  V30 209 H 17.9424 7.7914 -0.236785 0
M  V30 210 N 22.1715 0.800033 1.35784 0
M  V30 211 C 23.1185 0.203848 2.29898 0
M  V30 212 C 24.0885 -0.658375 1.52495 0
M  V30 213 O 25.2735 -0.604832 1.8096 0
M  V30 214 C 22.4135 -0.64688 3.38983 0
M  V30 215 C 21.5265 0.235054 4.3136 0
M  V30 216 C 20.6615 -0.623054 5.27533 0
M  V30 217 C 19.7005 0.259682 6.11549 0
M  V30 218 N 18.8375 -0.558019 6.99879 0
M  V30 219 H 23.6775 1.01186 2.80295 0
M  V30 220 H 21.2145 0.51053 1.37957 0
M  V30 221 H 23.1725 -1.15521 4.00887 0
M  V30 222 H 21.8025 -1.42021 2.89879 0
M  V30 223 H 20.8545 0.861438 3.70518 0
M  V30 224 H 22.1665 0.914768 4.9034 0
M  V30 225 H 21.3205 -1.19678 5.94779 0
M  V30 226 H 20.0595 -1.33636 4.69034 0
M  V30 227 H 19.0645 0.845726 5.43256 0
M  V30 228 H 20.2895 0.970748 6.72126 0
M  V30 229 H 18.2355 -1.25542 6.43875 0
M  V30 230 H 18.1525 0.0637872 7.55973 0
M  V30 231 H 19.4205 -1.11523 7.71481 0
M  V30 232 N 23.6496 -1.47581 0.552962 0
M  V30 233 C 25.0656 -1.5818 0.212424 0
M  V30 234 C 25.2656 -1.55213 -1.28496 0
M  V30 235 O 24.3216 -1.45329 -2.06484 0
M  V30 236 C 25.6346 -2.88865 0.835318 0
M  V30 237 C 27.1826 -3.0244 0.806156 0
M  V30 238 C 27.6576 -4.35819 1.40804 0
M  V30 239 N 29.1486 -4.42444 1.37103 0
M  V30 240 C 29.8836 -5.44202 1.80641 0
M  V30 241 N 29.3796 -6.52795 2.32015 0
M  V30 242 N 31.1726 -5.35222 1.71738 0
M  V30 243 H 23.3236 -1.47753 1.52587 0
M  V30 244 H 25.5866 -0.702941 0.636064 0
M  V30 245 H 25.2926 -2.9676 1.88749 0
M  V30 246 H 25.1666 -3.7579 0.325848 0
M  V30 247 H 27.5536 -2.94144 -0.237317 0
M  V30 248 H 27.6346 -2.17068 1.35334 0
M  V30 249 H 27.2786 -4.44871 2.45056 0
M  V30 250 H 27.2086 -5.19916 0.836338 0
M  V30 251 H 29.6996 -3.6456 0.995202 0
M  V30 252 H 30.0126 -7.26609 2.63171 0
M  V30 253 H 28.3576 -6.53696 2.36023 0
M  V30 254 H 31.5486 -4.49284 1.31382 0
M  V30 255 H 31.7216 -6.14389 2.05987 0
M  V30 256 N 25.1277 -0.289203 -1.54924 0
M  V30 257 C 26.0747 0.592115 -2.23075 0
M  V30 258 C 27.0447 1.13881 -1.20915 0
M  V30 259 O 28.2297 1.18551 -1.495 0
M  V30 260 C 25.3697 1.76376 -2.96623 0
M  V30 261 C 24.4827 1.24959 -4.13533 0
M  V30 262 C 23.6177 2.38416 -4.74691 0
M  V30 263 C 22.6567 1.84072 -5.83767 0
M  V30 264 N 21.7937 2.91057 -6.38929 0
M  V30 265 H 26.6337 0.00432038 -2.98 0
M  V30 266 H 24.1707 -0.00963529 -1.47097 0
M  V30 267 H 26.1287 2.45268 -3.3749 0
M  V30 268 H 24.7587 2.32337 -2.24097 0
M  V30 269 H 23.8107 0.453307 -3.77689 0
M  V30 270 H 25.1227 0.811662 -4.92152 0
M  V30 271 H 24.2767 3.15276 -5.18349 0
M  V30 272 H 23.0157 2.8553 -3.95378 0
M  V30 273 H 22.0207 1.05697 -5.39545 0
M  V30 274 H 23.2457 1.37877 -6.64956 0
M  V30 275 H 21.1917 3.37526 -5.62505 0
M  V30 276 H 21.1087 2.51724 -7.12861 0
M  V30 277 H 22.3767 3.6785 -6.87246 0
M  V30 278 N 26.6058 1.57591 -0.0167156 0
M  V30 279 C 28.0218 1.55946 0.339557 0
M  V30 280 C 28.2218 1.02109 1.73713 0
M  V30 281 O 27.2778 0.662303 2.43659 0
M  V30 282 C 28.5908 3.00037 0.199499 0
M  V30 283 C 30.1388 3.11805 0.273193 0
M  V30 284 C 30.6138 4.57713 0.162068 0
M  V30 285 N 32.1048 4.6268 0.219444 0
M  V30 286 C 32.8398 5.73185 0.157054 0
M  V30 287 N 32.3358 6.92786 0.0442936 0
M  V30 288 N 34.1288 5.61707 0.21014 0
M  V30 289 H 26.2798 1.90921 -0.930758 0
M  V30 290 H 28.5428 0.877674 -0.358319 0
M  V30 291 H 28.2488 3.4333 -0.76273 0
M  V30 292 H 28.1228 3.64387 0.974786 0
M  V30 293 H 30.5098 2.68433 1.22587 0
M  V30 294 H 30.5908 2.50201 -0.532256 0
M  V30 295 H 30.2348 5.01763 -0.78714 0
M  V30 296 H 30.1648 5.17283 0.986222 0
M  V30 297 H 32.6558 3.76649 0.307246 0
M  V30 298 H 32.9688 7.728 0.00304069 0
M  V30 299 H 31.3138 6.94999 0.00968457 0
M  V30 300 H 34.5048 4.6716 0.296546 0
M  V30 301 H 34.6778 6.47807 0.158054 0
M  V30 302 N 28.0839 -0.256276 1.55502 0
M  V30 303 C 29.3089 -1.00766 1.81276 0
M  V30 304 C 29.7339 -1.78524 0.59252 0
M  V30 305 O 29.0919 -1.75413 -0.45827 0
M  V30 306 C 29.1399 -1.92869 3.04687 0
M  V30 307 O 28.2439 -3.019 2.80945 0
M  V30 308 H 27.5849 -0.287224 0.598664 0
M  V30 309 H 30.1149 -0.280109 2.02674 0
M  V30 310 H 30.1249 -2.34511 3.33869 0
M  V30 311 H 28.7999 -1.35689 3.93143 0
M  V30 312 H 27.3769 -2.64454 2.62904 0
M  V30 313 N 29.562 -1.4872 -0.521534 0
M  V30 314 C 30.978 -1.35028 -0.850855 0
M  V30 315 C 31.178 -0.367712 -1.98116 0
M  V30 316 O 30.234 0.208037 -2.51642 0
M  V30 317 C 31.547 -2.75263 -1.21041 0
M  V30 318 C 33.095 -2.83813 -1.31981 0
M  V30 319 C 33.57 -4.24769 -1.71276 0
M  V30 320 N 35.061 -4.27482 -1.78363 0
M  V30 321 C 35.796 -5.33494 -2.1017 0
M  V30 322 N 35.292 -6.49775 -2.40343 0
M  V30 323 N 37.085 -5.20894 -2.11248 0
M  V30 324 H 29.236 -2.11214 0.22413 0
M  V30 325 H 31.499 -0.947252 0.0376439 0
M  V30 326 H 31.205 -3.48765 -0.453415 0
M  V30 327 H 31.079 -3.09327 -2.15863 0
M  V30 328 H 33.466 -2.10561 -2.06756 0
M  V30 329 H 33.547 -2.53358 -0.352596 0
M  V30 330 H 33.191 -4.9854 -0.970588 0
M  V30 331 H 33.121 -4.52673 -2.69062 0
M  V30 332 H 35.612 -3.43611 -1.57288 0
M  V30 333 H 35.925 -7.26402 -2.63743 0
M  V30 334 H 34.27 -6.53035 -2.37844 0
M  V30 335 H 37.461 -4.29065 -1.87139 0
M  V30 336 H 37.634 -6.03612 -2.35704 0
M  V30 337 N 31.0401 0.771051 -1.3745 0
M  V30 338 C 32.2861 1.53109 -1.339 0
M  V30 339 C 32.6411 1.9225 0.0758401 0
M  V30 340 O 31.9341 1.61264 1.03463 0
M  V30 341 C 32.1281 2.80676 -2.2126 0
M  V30 342 C 31.9571 2.54003 -3.71096 0
M  V30 343 C 30.7271 2.48097 -4.402 0
M  V30 344 C 32.9251 2.21953 -4.63941 0
M  V30 345 N 30.9071 2.13515 -5.75573 0
M  V30 346 C 32.2781 1.97516 -5.87697 0
M  V30 347 C 34.3331 2.08114 -4.5232 0
M  V30 348 C 33.0361 1.60638 -7.01133 0
M  V30 349 C 35.0621 1.72636 -5.65642 0
M  V30 350 C 34.4241 1.4906 -6.88448 0
M  V30 351 H 30.5231 0.56055 -0.54526 0
M  V30 352 H 33.1071 0.899472 -1.72678 0
M  V30 353 H 31.2781 3.41674 -1.84698 0
M  V30 354 H 33.0101 3.46578 -2.08963 0
M  V30 355 H 29.7651 2.63974 -3.93211 0
M  V30 356 H 30.1891 1.98919 -6.47117 0
M  V30 357 H 34.8311 2.25024 -3.57944 0
M  V30 358 H 32.5491 1.42467 -7.95443 0
M  V30 359 H 36.1351 1.62586 -5.58621 0
M  V30 360 H 35.0151 1.22014 -7.7465 0
M  V30 361 N 32.5182 1.22032 0.997298 0
M  V30 362 C 33.4662 0.983634 2.10778 0
M  V30 363 C 34.4602 -0.0717564 1.69248 0
M  V30 364 O 35.6662 0.080304 1.79821 0
M  V30 365 H 32.0412 0.300877 0.689186 0
M  V30 366 H 34.0122 1.92606 2.27916 0
M  V30 367 C 32.7612 0.57326 3.42942 0
M  V30 368 H 32.0842 1.37702 3.75338 0
M  V30 369 H 33.5242 0.447031 4.21637 0
M  V30 370 C 31.9832 -0.7167 3.29188 0
M  V30 371 O 32.5132 -1.77027 3.60589 0
M  V30 372 N 30.7192 -0.686167 2.82383 0
M  V30 373 H 30.2662 0.171507 2.57028 0
M  V30 374 H 30.2242 -1.54955 2.73562 0
M  V30 375 N 33.9963 -1.19345 1.0293 0
M  V30 376 C 34.9283 -2.22036 0.56857 0
M  V30 377 C 35.9413 -1.58865 -0.355779 0
M  V30 378 O 37.1303 -1.77851 -0.152103 0
M  V30 379 C 34.2303 -3.38363 -0.190752 0
M  V30 380 C 33.4033 -4.31118 0.738643 0
M  V30 381 C 32.4623 -5.26194 0.0246497 0
M  V30 382 O 31.4883 -5.65461 0.651354 0
M  V30 383 N 32.6903 -5.66971 -1.24594 0
M  V30 384 H 35.4553 -2.6219 1.45177 0
M  V30 385 H 33.0163 -1.34015 0.908381 0
M  V30 386 H 35.0083 -3.98981 -0.677961 0
M  V30 387 H 33.5783 -2.96994 -0.975366 0
M  V30 388 H 32.7983 -3.68276 1.40593 0
M  V30 389 H 34.0863 -4.90001 1.37029 0
M  V30 390 H 33.4843 -5.37104 -1.77583 0
M  V30 391 H 32.0413 -6.2984 -1.67764 0
M  V30 392 N 35.4744 -0.807222 -1.35358 0
M  V30 393 C 36.7514 -0.311126 -1.9311 0
M  V30 394 C 37.1314 1.19937 -1.73719 0
M  V30 395 O 36.4794 1.99918 -1.10657 0
M  V30 396 C 36.6894 -0.723226 -3.41424 0
M  V30 397 C 38.0374 -0.713078 -4.18569 0
M  V30 398 O 39.0614 -0.664811 -3.49941 0
M  V30 399 O 37.9204 -0.772022 -5.41019 0
M  V30 400 H 35.0144 -0.081526 -0.822972 0
M  V30 401 H 37.5604 -0.890962 -1.4443 0
M  V30 402 H 36.3324 -1.76426 -3.4927 0
M  V30 403 H 35.9554 -0.118232 -3.97424 0
M  V30 404 N 36.9525 1.47285 -0.560781 0
M  V30 405 C 38.1805 2.06855 -0.0430262 0
M  V30 406 C 38.5955 1.41291 1.25229 0
M  V30 407 O 37.9525 0.510648 1.7521 0
M  V30 408 C 38.0035 3.61178 0.152518 0
M  V30 409 O 37.7245 4.24285 -1.0915 0
M  V30 410 C 39.2255 4.37624 0.707145 0
M  V30 411 H 36.4455 0.669319 -0.0474652 0
M  V30 412 H 38.9895 1.89237 -0.77521 0
M  V30 413 H 37.1445 3.78298 0.834843 0
M  V30 414 H 37.5585 5.16868 -0.891482 0
M  V30 415 H 39.0325 5.46271 0.793244 0
M  V30 416 H 39.5095 4.04152 1.71923 0
M  V30 417 H 40.1155 4.25257 0.0604027 0
M  V30 418 N 38.4306 0.297415 1.54768 0
M  V30 419 C 39.3636 -0.622188 2.19554 0
M  V30 420 C 40.3416 -1.13558 1.16376 0
M  V30 421 O 41.5256 -1.20444 1.45002 0
M  V30 422 C 38.6526 -1.8509 2.83653 0
M  V30 423 C 37.6986 -1.47106 4.00328 0
M  V30 424 S 38.5316 -0.53006 5.3287 0
M  V30 425 C 39.6876 -1.76665 6.0045 0
M  V30 426 H 39.9206 -0.0717806 2.97213 0
M  V30 427 H 37.4536 0.0815678 1.54184 0
M  V30 428 H 39.4116 -2.55605 3.21211 0
M  V30 429 H 38.0726 -2.37247 2.05846 0
M  V30 430 H 37.2656 -2.38594 4.43947 0
M  V30 431 H 36.8676 -0.845885 3.64309 0
M  V30 432 H 39.1596 -2.7077 6.21039 0
M  V30 433 H 40.1026 -1.37308 6.9466 0
M  V30 434 H 40.5106 -1.94174 5.30054 0
M  V30 435 N 39.9087 -1.5758 0.0250728 0
M  V30 436 C 40.8187 -2.1343 -0.973905 0
M  V30 437 C 41.8347 -1.08556 -1.35984 0
M  V30 438 O 43.0107 -1.40592 -1.44207 0
M  V30 439 C 40.0757 -2.64703 -2.23904 0
M  V30 440 C 39.1367 -3.84276 -1.91391 0
M  V30 441 C 38.3697 -4.33095 -3.11873 0
M  V30 442 O 38.5927 -3.81107 -4.24398 0
M  V30 443 O 37.5267 -5.24984 -2.94406 0
M  V30 444 H 41.3527 -2.99057 -0.529036 0
M  V30 445 H 38.9377 -1.48118 -0.195288 0
M  V30 446 H 40.8197 -2.97769 -2.98181 0
M  V30 447 H 39.4947 -1.82161 -2.6758 0
M  V30 448 H 38.4017 -3.56143 -1.14511 0
M  V30 449 H 39.7347 -4.67968 -1.52534 0
M  V30 450 N 41.3868 0.248026 -1.55636 0
M  V30 451 C 42.3188 1.32993 -1.8667 0
M  V30 452 C 43.3318 1.44345 -0.752877 0
M  V30 453 O 44.5208 1.45715 -1.03098 0
M  V30 454 C 41.6208 2.70863 -2.03682 0
M  V30 455 C 40.7938 2.81792 -3.34532 0
M  V30 456 C 39.8528 4.005 -3.41301 0
M  V30 457 O 38.8788 3.9008 -4.14519 0
M  V30 458 N 40.0808 5.13618 -2.70512 0
M  V30 459 H 42.8458 1.06707 -2.8006 0
M  V30 460 H 40.4068 0.438129 -1.55859 0
M  V30 461 H 42.3988 3.48612 -2.05553 0
M  V30 462 H 40.9688 2.89862 -1.17041 0
M  V30 463 H 40.1888 1.90729 -3.44987 0
M  V30 464 H 41.4768 2.86043 -4.20781 0
M  V30 465 H 40.8748 5.24975 -2.10755 0
M  V30 466 H 39.4318 5.89505 -2.78077 0
M  V30 467 N 42.8649 1.48995 0.513639 0
M  V30 468 C 43.8119 1.6473 1.61656 0
M  V30 469 C 44.7819 0.488984 1.58739 0
M  V30 470 O 45.9669 0.714478 1.76918 0
M  V30 471 C 43.1069 1.7082 2.99858 0
M  V30 472 C 42.2199 2.9787 3.12885 0
M  V30 473 C 41.3549 2.95017 4.41744 0
M  V30 474 C 40.3939 4.16702 4.48359 0
M  V30 475 N 39.5309 4.11832 5.68629 0
M  V30 476 H 44.3709 2.58909 1.47547 0
M  V30 477 H 41.9079 1.28382 0.71808 0
M  V30 478 H 43.8659 1.72331 3.79944 0
M  V30 479 H 42.4959 0.801181 3.12699 0
M  V30 480 H 41.5479 3.06029 2.25944 0
M  V30 481 H 42.8599 3.8786 3.13633 0
M  V30 482 H 42.0139 2.95021 5.30139 0
M  V30 483 H 40.7529 2.02784 4.43542 0
M  V30 484 H 39.7579 4.16955 3.58369 0
M  V30 485 H 40.9829 5.10113 4.48287 0
M  V30 486 H 38.9289 3.22428 5.71293 0
M  V30 487 H 38.8459 4.95543 5.7094 0
M  V30 488 H 40.1139 4.1592 6.59266 0
M  V30 489 N 44.343 -0.763751 1.37857 0
M  V30 490 C 45.571 -1.55293 1.36718 0
M  V30 491 C 45.986 -1.88745 -0.0455434 0
M  V30 492 O 45.343 -1.52039 -1.00947 0
M  V30 493 C 45.394 -2.85831 2.2132 0
M  V30 494 O 45.115 -2.5381 3.57089 0
M  V30 495 C 46.616 -3.80023 2.28249 0
M  V30 496 H 43.836 -0.480841 0.468009 0
M  V30 497 H 46.38 -0.946009 1.81303 0
M  V30 498 H 44.535 -3.42926 1.80223 0
M  V30 499 H 44.949 -3.37459 4.01524 0
M  V30 500 H 46.423 -4.68599 2.91752 0
M  V30 501 H 46.9 -4.1973 1.2932 0
M  V30 502 H 47.506 -3.28855 2.69693 0
M  V30 503 N 45.8211 -1.22559 -0.990812 0
M  V30 504 C 47.0671 -1.05297 -1.73322 0
M  V30 505 C 47.4001 0.410655 -1.89808 0
M  V30 506 O 46.6751 1.30439 -1.44277 0
M  V30 507 C 46.9581 -1.76713 -3.13759 0
M  V30 508 C 46.8111 -3.30684 -3.04907 0
M  V30 509 C 48.1301 -1.52121 -4.12974 0
M  V30 510 H 45.2491 -0.38392 -0.629106 0
M  V30 511 H 47.8911 -1.50926 -1.15418 0
M  V30 512 H 46.0411 -1.37924 -3.63193 0
M  V30 513 H 47.7131 -3.7893 -2.63077 0
M  V30 514 H 45.9561 -3.60253 -2.41661 0
M  V30 515 H 46.6271 -3.75833 -4.04294 0
M  V30 516 H 49.1031 -1.85819 -3.72304 0
M  V30 517 H 47.9791 -2.04582 -5.0935 0
M  V30 518 H 48.2401 -0.454257 -4.3976 0
M  V30 519 N 47.2992 1.18797 -1.03562 0
M  V30 520 C 48.5482 1.87978 -0.731235 0
M  V30 521 C 48.8612 1.80911 0.743671 0
M  V30 522 O 50.0672 2.45407 1.16137 0
M  V30 523 C 48.5232 3.3721 -1.25768 0
M  V30 524 C 48.1312 3.52818 -2.76085 0
M  V30 525 C 49.8752 4.11825 -1.0296 0
M  V30 526 C 47.7822 4.9598 -3.22114 0
M  V30 527 H 46.7122 0.704063 -0.269835 0
M  V30 528 H 49.3632 1.34266 -1.25079 0
M  V30 529 H 47.7452 3.90359 -0.666011 0
M  V30 530 H 48.9192 3.09965 -3.40966 0
M  V30 531 H 47.2342 2.91602 -2.97249 0
M  V30 532 H 49.8312 5.17411 -1.34869 0
M  V30 533 H 50.1742 4.16287 0.0333546 0
M  V30 534 H 50.7072 3.64833 -1.58562 0
M  V30 535 H 47.4462 4.96684 -4.27768 0
M  V30 536 H 46.9662 5.39569 -2.61965 0
M  V30 537 H 48.6452 5.6467 -3.15844 0
M  V30 538 N 48.7773 0.814389 1.34928 0
M  V30 539 C 50.1883 0.458364 1.80986 0
M  V30 540 C 50.5393 -1.02042 1.67577 0
M  V30 541 O 49.6643 -1.79352 1.21086 0
M  V30 542 C 50.2593 0.825212 3.28597 0
M  V30 543 C 48.8183 0.521677 3.72767 0
M  V30 544 C 47.9653 1.04668 2.56788 0
M  V30 545 H 50.9163 1.00533 1.22795 0
M  V30 546 H 50.9373 0.12571 3.80292 0
M  V30 547 H 50.4493 1.90154 3.38324 0
M  V30 548 H 48.5503 -0.545589 3.68584 0
M  V30 549 H 48.6633 1.05977 4.67232 0
M  V30 550 H 47.0273 0.468622 2.50352 0
M  V30 551 H 47.8103 2.12927 2.6929 0
M  V30 552 N 50.2554 -1.46986 0.568584 0
M  V30 553 C 51.5034 -2.02041 0.0487022 0
M  V30 554 C 51.8244 -1.44408 -1.31039 0
M  V30 555 O 51.0944 -0.623477 -1.85714 0
M  V30 556 H 49.6744 -0.746849 0.015014 0
M  V30 557 H 52.3364 -1.80257 0.741168 0
M  V30 558 H 51.4324 -3.12085 -0.0308961 0
M  V30 559 N 51.7335 -0.305618 -1.54608 0
M  V30 560 C 52.6665 0.610536 -2.19881 0
M  V30 561 C 53.6445 1.1294 -1.16976 0
M  V30 562 O 54.8285 1.19673 -1.45638 0
M  V30 563 C 51.9555 1.83583 -2.84631 0
M  V30 564 C 51.0015 1.4498 -4.01102 0
M  V30 565 S 51.8345 0.501793 -5.33144 0
M  V30 566 C 52.9905 1.73478 -6.01379 0
M  V30 567 H 53.2235 0.0560177 -2.97247 0
M  V30 568 H 50.7565 -0.0897434 -1.54139 0
M  V30 569 H 52.7145 2.53898 -3.22562 0
M  V30 570 H 51.3755 2.36152 -2.07102 0
M  V30 571 H 50.5685 2.36236 -4.45206 0
M  V30 572 H 50.1705 0.826553 -3.64752 0
M  V30 573 H 52.4625 2.67473 -6.22467 0
M  V30 574 H 53.4055 1.33622 -6.95378 0
M  V30 575 H 53.8135 1.9136 -5.31076 0
M  V30 576 N 53.2116 1.57565 -0.0334293 0
M  V30 577 C 54.6226 1.79746 0.504798 0
M  V30 578 C 54.9736 0.944091 1.71992 0
M  V30 579 O 54.0986 0.155694 2.15839 0
M  V30 580 C 54.6936 3.25997 0.922567 0
M  V30 581 C 53.2526 3.49159 1.40588 0
M  V30 582 C 52.3996 2.74785 0.372633 0
M  V30 583 H 55.3506 1.56565 -0.259436 0
M  V30 584 H 55.3716 3.35945 1.78666 0
M  V30 585 H 54.8836 3.88081 0.0379825 0
M  V30 586 H 52.9846 2.92332 2.31025 0
M  V30 587 H 53.0976 4.57873 1.41028 0
M  V30 588 H 51.4616 2.40391 0.841672 0
M  V30 589 H 52.2446 3.39587 -0.503559 0
M  V30 590 N 54.6897 -0.239769 1.55765 0
M  V30 591 C 55.9177 -0.98417 1.81994 0
M  V30 592 C 56.3327 -1.7867 0.610124 0
M  V30 593 O 55.6897 -1.77571 -0.421271 0
M  V30 594 C 55.7407 -1.91635 3.06526 0
M  V30 595 O 55.4617 -1.14629 4.22838 0
M  V30 596 C 56.9627 -2.77616 3.45607 0
M  V30 597 H 54.1827 -0.28928 0.605441 0
M  V30 598 H 56.7267 -0.260499 2.02834 0
M  V30 599 H 54.8817 -2.5942 2.87715 0
M  V30 600 H 55.2957 -1.77745 4.93464 0
M  V30 601 H 56.7697 -3.38759 4.35828 0
M  V30 602 H 57.2467 -3.4909 2.6652 0
M  V30 603 H 57.8527 -2.15271 3.66795 0
M  V30 604 N 56.1678 -1.49265 -0.50573 0
M  V30 605 C 57.4138 -1.58748 -1.26202 0
M  V30 606 C 57.7468 -0.271227 -1.92297 0
M  V30 607 O 57.0218 0.724831 -1.80489 0
M  V30 608 C 57.3048 -2.74332 -2.33268 0
M  V30 609 C 57.1578 -4.15737 -1.71705 0
M  V30 610 C 58.4768 -2.85576 -3.34865 0
M  V30 611 H 55.5958 -0.577826 -0.457478 0
M  V30 612 H 58.2378 -1.81532 -0.560897 0
M  V30 613 H 56.3878 -2.55036 -2.93068 0
M  V30 614 H 58.0598 -4.46537 -1.15769 0
M  V30 615 H 56.3028 -4.21605 -1.02135 0
M  V30 616 H 56.9738 -4.92477 -2.49341 0
M  V30 617 H 59.4498 -3.03127 -2.8505 0
M  V30 618 H 58.3258 -3.68135 -4.07146 0
M  V30 619 H 58.5868 -1.94732 -3.96903 0
M  V30 620 N 57.6459 0.756429 -1.3826 0
M  V30 621 C 58.8949 1.51082 -1.3363 0
M  V30 622 C 59.2079 1.95467 0.0720068 0
M  V30 623 O 60.4139 2.7043 0.240834 0
M  V30 624 C 58.8699 2.72893 -2.34644 0
M  V30 625 C 58.4779 2.35544 -3.81081 0
M  V30 626 C 60.2219 3.50791 -2.39052 0
M  V30 627 C 58.1289 3.53948 -4.73787 0
M  V30 628 H 57.0589 0.56727 -0.49671 0
M  V30 629 H 59.7099 0.827147 -1.638 0
M  V30 630 H 58.0919 3.43227 -1.97513 0
M  V30 631 H 59.2659 1.72894 -4.27135 0
M  V30 632 H 57.5809 1.70786 -3.79764 0
M  V30 633 H 60.1779 4.38823 -3.05513 0
M  V30 634 H 60.5209 3.91745 -1.40861 0
M  V30 635 H 61.0539 2.87467 -2.74968 0
M  V30 636 H 57.7929 3.18064 -5.73163 0
M  V30 637 H 57.3129 4.15651 -4.32428 0
M  V30 638 H 58.9919 4.20566 -4.91663 0
M  V30 639 N 59.124 1.23083 0.984299 0
M  V30 640 C 60.535 1.05609 1.5396 0
M  V30 641 C 60.886 -0.377793 1.92528 0
M  V30 642 O 60.011 -1.26398 1.75649 0
M  V30 643 C 60.606 1.91087 2.7977 0
M  V30 644 C 59.165 1.77885 3.31713 0
M  V30 645 C 58.312 1.87028 2.04733 0
M  V30 646 H 61.263 1.36802 0.804419 0
M  V30 647 H 61.284 1.43336 3.5247 0
M  V30 648 H 60.796 2.9544 2.51668 0
M  V30 649 H 58.897 0.762995 3.64704 0
M  V30 650 H 59.01 2.61047 4.01735 0
M  V30 651 H 57.374 1.30565 2.18689 0
M  V30 652 H 58.157 2.92929 1.79017 0
M  V30 653 N 60.6021 -1.18246 1.0419 0
M  V30 654 C 62.0131 -1.69914 0.773698 0
M  V30 655 C 62.3641 -1.83085 -0.705297 0
M  V30 656 O 61.4891 -1.51123 -1.5489 0
M  V30 657 C 62.0841 -3.08619 1.39784 0
M  V30 658 C 60.6431 -3.57494 1.17792 0
M  V30 659 C 59.7901 -2.34013 1.48773 0
M  V30 660 H 62.7411 -1.02904 1.20816 0
M  V30 661 H 62.7621 -3.71958 0.801714 0
M  V30 662 H 62.2741 -2.99001 2.47426 0
M  V30 663 H 60.3751 -3.72406 0.120295 0
M  V30 664 H 60.4881 -4.40852 1.87581 0
M  V30 665 H 58.8521 -2.37986 0.907463 0
M  V30 666 H 59.6351 -2.27013 2.57527 0
M  V30 667 N 62.0802 -0.821533 -1.34494 0
M  V30 668 C 63.3282 -0.408139 -1.97936 0
M  V30 669 C 63.6492 1.03193 -1.65457 0
M  V30 670 O 62.9192 1.71622 -0.944595 0
M  V30 671 H 61.4992 -0.147928 -0.732206 0
M  V30 672 H 64.1612 -1.05067 -1.64155 0
M  V30 673 H 63.2572 -0.52601 -3.07635 0
M  V30 674 N 63.5583 1.46682 -0.576371 0
M  V30 675 C 64.4883 2.33028 0.148397 0
M  V30 676 C 65.4693 1.44961 0.889956 0
M  V30 677 O 66.6543 1.73789 0.866662 0
M  V30 678 C 63.7843 3.27117 1.1667 0
M  V30 679 C 62.7383 4.24575 0.540386 0
M  V30 680 C 62.0643 5.08126 1.6647 0
M  V30 681 C 63.3643 5.19722 -0.518331 0
M  V30 682 H 65.0583 2.93875 -0.572509 0
M  V30 683 H 62.6043 1.41315 -0.276768 0
M  V30 684 H 64.5573 3.86374 1.68204 0
M  V30 685 H 63.2813 2.64364 1.9178 0
M  V30 686 H 61.9403 3.66571 0.0461769 0
M  V30 687 H 61.5883 4.41762 2.40531 0
M  V30 688 H 61.2883 5.74122 1.25131 0
M  V30 689 H 62.8123 5.70246 2.18293 0
M  V30 690 H 64.2263 5.73232 -0.0883058 0
M  V30 691 H 62.6233 5.94026 -0.851679 0
M  V30 692 H 63.6933 4.64037 -1.40703 0
M  V30 693 N 65.0364 0.313813 1.54444 0
M  V30 694 C 66.2644 -0.293918 2.04802 0
M  V30 695 C 66.6794 -1.46537 1.19047 0
M  V30 696 O 66.0364 -1.81182 0.218939 0
M  V30 697 C 66.0874 -0.737806 3.53891 0
M  V30 698 O 65.8084 0.387038 4.36387 0
M  V30 699 C 67.3094 -1.40936 4.203 0
M  V30 700 H 64.5294 -0.0620057 0.668129 0
M  V30 701 H 67.0734 0.457169 1.99324 0
M  V30 702 H 65.2284 -1.43889 3.59687 0
M  V30 703 H 65.6424 0.0391274 5.24485 0
M  V30 704 H 67.1164 -1.67099 5.26101 0
M  V30 705 H 67.5934 -2.35355 3.70816 0
M  V30 706 H 68.1994 -0.751117 4.18615 0
M  V30 707 N 66.5145 -1.57545 0.0417849 0
M  V30 708 C 67.9305 -1.56467 -0.314704 0
M  V30 709 C 68.1305 -1.04859 -1.72066 0
M  V30 710 O 67.1865 -0.700983 -2.42575 0
M  V30 711 C 68.4995 -3.00317 -0.15174 0
M  V30 712 C 70.0475 -3.12201 -0.223553 0
M  V30 713 C 70.5225 -4.57913 -0.0892295 0
M  V30 714 N 72.0135 -4.6297 -0.145808 0
M  V30 715 C 72.7485 -5.73362 -0.0658459 0
M  V30 716 N 72.2445 -6.92769 0.0659282 0
M  V30 717 N 74.0375 -5.6197 -0.12075 0
M  V30 718 H 66.1885 -1.89416 0.961014 0
M  V30 719 H 68.4515 -0.871862 0.372237 0
M  V30 720 H 68.1575 -3.42073 0.817254 0
M  V30 721 H 68.0315 -3.65892 -0.916692 0
M  V30 722 H 70.4185 -2.70349 -1.18301 0
M  V30 723 H 70.4995 -2.49323 0.571994 0
M  V30 724 H 70.1435 -5.00448 0.866867 0
M  V30 725 H 70.0735 -5.18786 -0.903802 0
M  V30 726 H 72.5645 -3.7709 -0.247286 0
M  V30 727 H 72.8775 -7.72707 0.119905 0
M  V30 728 H 71.2225 -6.94927 0.100885 0
M  V30 729 H 74.4135 -4.67572 -0.222187 0
M  V30 730 H 74.5865 -6.47977 -0.0549735 0
M  V30 731 N 67.9926 0.231505 -1.5589 0
M  V30 732 C 68.9026 1.308 -1.94752 0
M  V30 733 C 69.9186 1.51826 -0.849989 0
M  V30 734 O 71.0946 1.6515 -1.15271 0
M  V30 735 C 68.1596 2.63968 -2.24771 0
M  V30 736 C 67.2206 2.51331 -3.48039 0
M  V30 737 C 66.4536 3.78148 -3.76616 0
M  V30 738 O 66.6766 4.80722 -3.07022 0
M  V30 739 O 65.6106 3.75857 -4.70123 0
M  V30 740 H 69.4366 1.0083 -2.86474 0
M  V30 741 H 67.0216 0.433547 -1.42971 0
M  V30 742 H 68.9036 3.42633 -2.45318 0
M  V30 743 H 67.5786 2.9364 -1.36225 0
M  V30 744 H 66.4856 1.709 -3.32782 0
M  V30 745 H 67.8186 2.26601 -4.36936 0
M  V30 746 N 69.4707 1.49531 0.497807 0
M  V30 747 C 70.4027 1.62559 1.61578 0
M  V30 748 C 71.4157 0.508134 1.54667 0
M  V30 749 O 72.6047 0.780309 1.60541 0
M  V30 750 C 69.7047 1.56925 3.00379 0
M  V30 751 C 68.8777 2.84257 3.3244 0
M  V30 752 C 67.9367 2.71632 4.50669 0
M  V30 753 O 66.9627 3.4557 4.52294 0
M  V30 754 N 68.1647 1.83391 5.5077 0
M  V30 755 H 70.9297 2.58981 1.50828 0
M  V30 756 H 68.4907 1.4666 0.685743 0
M  V30 757 H 70.4827 1.46129 3.77397 0
M  V30 758 H 69.0527 0.683483 3.05037 0
M  V30 759 H 68.2727 3.09381 2.44289 0
M  V30 760 H 69.5607 3.68666 3.5066 0
M  V30 761 H 68.9587 1.22583 5.52259 0
M  V30 762 H 67.5157 1.78515 6.26878 0
M  V30 763 N 70.9488 -0.749086 1.3866 0
M  V30 764 C 71.8588 -1.89358 1.38494 0
M  V30 765 C 72.8748 -1.71708 0.281476 0
M  V30 766 O 74.0508 -1.94554 0.520643 0
M  V30 767 C 71.1158 -3.24782 1.21316 0
M  V30 768 C 70.1768 -3.54926 2.41508 0
M  V30 769 C 69.4098 -4.83888 2.2514 0
M  V30 770 O 69.6328 -5.56592 1.24746 0
M  V30 771 O 68.5668 -5.13612 3.13826 0
M  V30 772 H 72.3928 -1.92452 2.34938 0
M  V30 773 H 69.9778 -0.894981 1.19626 0
M  V30 774 H 71.8598 -4.05739 1.13814 0
M  V30 775 H 70.5348 -3.2249 0.279592 0
M  V30 776 H 69.4418 -2.74112 2.54585 0
M  V30 777 H 70.7748 -3.61983 3.3351 0
M  V30 778 N 72.4269 -1.23603 -0.977757 0
M  V30 779 C 73.8429 -0.999251 -1.24447 0
M  V30 780 C 74.0429 0.298053 -1.99283 0
M  V30 781 O 73.0989 1.01681 -2.31122 0
M  V30 782 C 74.4119 -2.20784 -2.04144 0
M  V30 783 C 75.9599 -2.25303 -2.17273 0
M  V30 784 C 76.4349 -3.45755 -3.00362 0
M  V30 785 N 77.9259 -3.4601 -3.07947 0
M  V30 786 C 78.6609 -4.35868 -3.72568 0
M  V30 787 N 78.1569 -5.35966 -4.38991 0
M  V30 788 N 79.9499 -4.23605 -3.6948 0
M  V30 789 H 72.1009 -2.06986 -0.476483 0
M  V30 790 H 74.3639 -0.907801 -0.273134 0
M  V30 791 H 74.0699 -3.14945 -1.56533 0
M  V30 792 H 73.9439 -2.22085 -3.04891 0
M  V30 793 H 76.3309 -1.3168 -2.64092 0
M  V30 794 H 76.4119 -2.28033 -1.15907 0
M  V30 795 H 76.0559 -4.39687 -2.5424 0
M  V30 796 H 75.9859 -3.40266 -4.01904 0
M  V30 797 H 78.4769 -2.73588 -2.60688 0
M  V30 798 H 78.7899 -6.00783 -4.86086 0
M  V30 799 H 77.1349 -5.39863 -4.37691 0
M  V30 800 H 80.3259 -3.44647 -3.16759 0
M  V30 801 H 80.4989 -4.93836 -4.1956 0
M  V30 802 N 73.905 1.17692 -1.04816 0
M  V30 803 C 74.868 2.19787 -0.650117 0
M  V30 804 C 75.868 1.58044 0.296427 0
M  V30 805 O 77.058 1.74012 0.0808097 0
M  V30 806 C 74.19 3.40869 0.0456987 0
M  V30 807 H 75.383 2.56516 -1.5537 0
M  V30 808 H 72.936 1.31708 -0.841594 0
M  V30 809 H 73.671 3.09681 0.962726 0
M  V30 810 H 73.456 3.86928 -0.634727 0
M  V30 811 H 74.946 4.16445 0.310432 0
M  V30 812 N 75.3831 0.828654 1.34056 0
M  V30 813 C 76.6131 0.431993 2.02033 0
M  V30 814 C 77.0211 -0.96844 1.62536 0
M  V30 815 O 76.3641 -1.6391 0.829408 0
M  V30 816 C 76.4261 0.461224 3.56529 0
M  V30 817 C 76.0901 1.81599 4.1937 0
M  V30 818 C 77.0871 2.7777 4.39477 0
M  V30 819 C 74.7721 2.10604 4.56017 0
M  V30 820 C 76.7661 4.01115 4.95364 0
M  V30 821 C 74.4531 3.34207 5.11614 0
M  V30 822 C 75.4511 4.2928 5.31232 0
M  V30 823 O 75.1391 5.50699 5.8565 0
M  V30 824 H 74.8711 0.170943 0.654029 0
M  V30 825 H 77.4251 1.11988 1.72185 0
M  V30 826 H 75.6551 -0.283388 3.8566 0
M  V30 827 H 77.3441 0.0838149 4.05813 0
M  V30 828 H 78.1101 2.56659 4.11523 0
M  V30 829 H 73.9891 1.37402 4.40047 0
M  V30 830 H 77.5331 4.75333 5.10592 0
M  V30 831 H 73.4301 3.55179 5.38997 0
M  V30 832 H 74.1981 5.52298 6.04077 0
M  V30 833 N 76.8612 -1.46375 0.584142 0
M  V30 834 C 78.1102 -2.01585 0.0679741 0
M  V30 835 C 78.4232 -1.46109 -1.30045 0
M  V30 836 O 79.6292 -1.93148 -1.90804 0
M  V30 837 C 78.0852 -3.5983 0.0709207 0
M  V30 838 C 77.6932 -4.24303 1.43775 0
M  V30 839 C 79.4372 -4.22693 -0.391228 0
M  V30 840 C 77.3442 -5.74631 1.39834 0
M  V30 841 H 76.2742 -0.753689 0.0216421 0
M  V30 842 H 78.9252 -1.68093 0.736001 0
M  V30 843 H 77.3072 -3.90405 -0.663299 0
M  V30 844 H 78.4812 -4.05335 2.19181 0
M  V30 845 H 76.7962 -3.73539 1.84004 0
M  V30 846 H 79.3932 -5.3289 -0.439524 0
M  V30 847 H 79.7362 -3.91728 -1.40906 0
M  V30 848 H 80.2692 -3.96749 0.288974 0
M  V30 849 H 77.0082 -6.10258 2.39303 0
M  V30 850 H 76.5282 -5.95858 0.686505 0
M  V30 851 H 78.2072 -6.37375 1.11187 0
M  V30 852 N 78.3393 -0.321999 -1.54275 0
M  V30 853 C 79.5853 0.281461 -2.00837 0
M  V30 854 C 79.9183 1.51909 -1.20985 0
M  V30 855 O 79.1933 1.923 -0.291733 0
M  V30 856 C 79.4763 0.617162 -3.54772 0
M  V30 857 C 79.3293 -0.631064 -4.45351 0
M  V30 858 C 80.6483 1.43542 -4.16033 0
M  V30 859 H 77.7673 0.100826 -0.730071 0
M  V30 860 H 80.4093 -0.438268 -1.84876 0
M  V30 861 H 78.5593 1.23034 -3.68504 0
M  V30 862 H 80.2313 -1.26934 -4.43492 0
M  V30 863 H 78.4743 -1.26025 -4.15091 0
M  V30 864 H 79.1453 -0.351735 -5.50878 0
M  V30 865 H 81.6213 0.917134 -4.05867 0
M  V30 866 H 80.4973 1.63907 -5.23856 0
M  V30 867 H 80.7583 2.43108 -3.69257 0
M  V30 868 N 79.8174 1.5752 -0.0501392 0
M  V30 869 C 80.7494 2.08413 0.95376 0
M  V30 870 C 81.7624 1.01175 1.27544 0
M  V30 871 O 82.9514 1.28744 1.23641 0
M  V30 872 C 80.0514 2.51138 2.27559 0
M  V30 873 C 79.2244 3.817 2.13598 0
M  V30 874 C 78.2834 4.10749 3.28895 0
M  V30 875 O 77.3094 4.80685 3.04845 0
M  V30 876 N 78.5114 3.62579 4.5334 0
M  V30 877 H 81.2764 2.95165 0.519383 0
M  V30 878 H 78.8374 1.61327 0.136127 0
M  V30 879 H 80.8294 2.67648 3.03557 0
M  V30 880 H 79.3994 1.6964 2.62567 0
M  V30 881 H 78.6194 3.74782 1.22197 0
M  V30 882 H 79.9074 4.67201 2.01496 0
M  V30 883 H 79.3054 3.06039 4.75769 0
M  V30 884 H 77.8624 3.84329 5.26436 0
M  V30 885 N 81.2955 -0.223234 1.56011 0
M  V30 886 C 82.2255 -1.27988 1.95298 0
M  V30 887 C 83.2065 -1.48976 0.820979 0
M  V30 888 O 84.3915 -1.61188 1.08315 0
M  V30 889 C 81.5215 -2.63 2.26822 0
M  V30 890 C 80.4755 -2.56671 3.42497 0
M  V30 891 C 79.8015 -3.95697 3.59622 0
M  V30 892 C 81.1015 -2.11601 4.77517 0
M  V30 893 H 82.7955 -0.953525 2.8381 0
M  V30 894 H 80.3415 -0.457244 1.36548 0
M  V30 895 H 82.2945 -3.37077 2.52898 0
M  V30 896 H 81.0185 -2.9732 1.35161 0
M  V30 897 H 79.6775 -1.85051 3.16467 0
M  V30 898 H 79.3255 -4.27322 2.6534 0
M  V30 899 H 79.0255 -3.92345 4.37424 0
M  V30 900 H 80.5495 -4.71438 3.88044 0
M  V30 901 H 81.9635 -2.7542 5.02809 0
M  V30 902 H 80.3605 -2.19311 5.5859 0
M  V30 903 H 81.4305 -1.06824 4.72987 0
M  V30 904 N 82.7736 -1.49793 -0.48987 0
M  V30 905 C 83.7056 -1.63413 -1.60713 0
M  V30 906 C 84.7186 -0.516329 -1.54395 0
M  V30 907 O 85.9076 -0.788812 -1.60125 0
M  V30 908 C 83.0076 -1.58516 -2.99543 0
M  V30 909 C 82.1806 -2.86016 -3.30928 0
M  V30 910 C 81.2396 -2.74018 -4.49222 0
M  V30 911 O 80.2656 -3.47964 -4.50455 0
M  V30 912 N 81.4676 -1.86309 -5.4979 0
M  V30 913 H 84.2326 -2.59777 -1.49452 0
M  V30 914 H 81.7936 -1.47022 -0.677955 0
M  V30 915 H 83.7856 -1.48128 -3.76617 0
M  V30 916 H 82.3556 -0.69965 -3.0467 0
M  V30 917 H 81.5756 -3.10672 -2.42645 0
M  V30 918 H 82.8636 -3.70521 -3.487 0
M  V30 919 H 82.2616 -1.2551 -5.51601 0
M  V30 920 H 80.8186 -1.81837 -6.25922 0
M  V30 921 N 84.2517 0.741722 -1.39055 0
M  V30 922 C 85.5007 1.49656 -1.35225 0
M  V30 923 C 85.8137 1.95533 0.0512708 0
M  V30 924 O 87.0197 2.7067 0.212138 0
M  V30 925 C 85.4757 2.70389 -2.37525 0
M  V30 926 C 85.0837 2.31489 -3.83558 0
M  V30 927 C 86.8277 3.48236 -2.42759 0
M  V30 928 C 84.7347 3.48903 -4.77515 0
M  V30 929 H 83.6647 0.56197 -0.502699 0
M  V30 930 H 86.3157 0.809727 -1.64668 0
M  V30 931 H 84.6977 3.41113 -2.01142 0
M  V30 932 H 85.8717 1.68354 -4.28945 0
M  V30 933 H 84.1867 1.66749 -3.81554 0
M  V30 934 H 86.7837 4.35558 -3.1015 0
M  V30 935 H 87.1267 3.90229 -1.45008 0
M  V30 936 H 87.6597 2.84535 -2.78002 0
M  V30 937 H 84.3987 3.11966 -5.76504 0
M  V30 938 H 83.9187 4.11041 -4.36813 0
M  V30 939 H 85.5977 4.15328 -4.96096 0
M  V30 940 N 85.7298 1.2412 0.971189 0
M  V30 941 C 86.6398 1.04747 2.09917 0
M  V30 942 C 87.6558 -0.0107162 1.73997 0
M  V30 943 O 88.8318 0.186714 2.00533 0
M  V30 944 C 85.8968 0.650828 3.40537 0
M  V30 945 C 84.9578 1.7851 3.90426 0
M  V30 946 C 84.1908 1.40729 5.14812 0
M  V30 947 O 84.4138 0.29557 5.69634 0
M  V30 948 O 83.3478 2.23168 5.58999 0
M  V30 949 H 87.1738 1.99304 2.29154 0
M  V30 950 H 84.7588 1.02908 1.08307 0
M  V30 951 H 86.6408 0.440992 4.19086 0
M  V30 952 H 85.3158 -0.265649 3.22608 0
M  V30 953 H 84.2228 2.04966 3.12953 0
M  V30 954 H 85.5558 2.68023 4.12825 0
M  V30 955 N 87.2079 -1.17134 1.05439 0
M  V30 956 C 88.4849 -1.83411 0.679699 0
M  V30 957 C 88.8649 -1.9368 -0.839726 0
M  V30 958 O 88.2129 -1.47325 -1.74664 0
M  V30 959 C 88.4229 -3.20918 1.37159 0
M  V30 960 C 89.7709 -3.96796 1.51123 0
M  V30 961 O 90.7949 -3.30406 1.3308 0
M  V30 962 O 89.6539 -5.15778 1.80651 0
M  V30 963 H 86.7479 -0.79154 0.239569 0
M  V30 964 H 89.2939 -1.24411 1.15413 0
M  V30 965 H 88.0659 -3.08428 2.40807 0
M  V30 966 H 87.6889 -3.87587 0.886674 0
M  V30 967 N 88.686 -0.835752 -1.33615 0
M  V30 968 C 89.616 -0.281739 -2.31794 0
M  V30 969 C 90.597 0.608833 -1.58831 0
M  V30 970 O 91.782 0.533035 -1.86741 0
M  V30 971 C 88.912 0.546612 -3.42971 0
M  V30 972 C 87.866 -0.247904 -4.27281 0
M  V30 973 C 87.192 0.704001 -5.30045 0
M  V30 974 C 88.492 -1.46324 -5.01385 0
M  V30 975 H 90.186 -1.10206 -2.78379 0
M  V30 976 H 87.732 -0.531388 -1.33837 0
M  V30 977 H 89.685 0.944467 -4.1068 0
M  V30 978 H 88.409 1.40011 -2.95067 0
M  V30 979 H 87.068 -0.627281 -3.61194 0
M  V30 980 H 86.716 1.55381 -4.78399 0
M  V30 981 H 86.416 0.176524 -5.87335 0
M  V30 982 H 87.94 1.09944 -6.0062 0
M  V30 983 H 89.354 -1.13871 -5.61877 0
M  V30 984 H 87.751 -1.92728 -5.6831 0
M  V30 985 H 88.821 -2.23467 -4.30338 0
M  V30 986 N 90.1641 1.46063 -0.591896 0
M  V30 987 C 91.3921 2.06717 -0.0868936 0
M  V30 988 C 91.8071 1.43916 1.22203 0
M  V30 989 O 91.1641 0.547698 1.74088 0
M  V30 990 C 91.2151 3.6142 0.0758725 0
M  V30 991 O 90.9361 4.21874 -1.18126 0
M  V30 992 C 92.4371 4.39025 0.61416 0
M  V30 993 H 89.6571 0.668162 -0.0616518 0
M  V30 994 H 92.2011 1.8755 -0.815175 0
M  V30 995 H 90.3561 3.79983 0.754413 0
M  V30 996 H 90.7701 5.14861 -1.00092 0
M  V30 997 H 92.2441 5.4783 0.677193 0
M  V30 998 H 92.7211 4.07708 1.63312 0
M  V30 999 H 93.3271 4.2529 -0.0298142 0
M  V30 1000 N 91.6422 0.330177 1.54103 0
M  V30 1001 C 93.0582 -0.0222371 1.59585 0
M  V30 1002 C 93.2582 -1.49902 1.34654 0
M  V30 1003 O 92.3142 -2.25592 1.13421 0
M  V30 1004 C 93.6272 0.401932 2.98002 0
M  V30 1005 C 95.1752 0.353145 3.11001 0
M  V30 1006 C 95.6502 0.752576 4.51775 0
M  V30 1007 N 97.1412 0.706239 4.57784 0
M  V30 1008 C 97.8762 0.987417 5.64834 0
M  V30 1009 N 97.3722 1.33607 6.79795 0
M  V30 1010 N 99.1652 0.91254 5.54643 0
M  V30 1011 H 91.3162 1.29228 1.68564 0
M  V30 1012 H 93.5792 0.525906 0.78875 0
M  V30 1013 H 93.2852 1.4311 3.21267 0
M  V30 1014 H 93.1592 -0.229699 3.765 0
M  V30 1015 H 95.5462 -0.666822 2.87467 0
M  V30 1016 H 95.6272 1.0198 2.34593 0
M  V30 1017 H 95.2712 1.77049 4.76042 0
M  V30 1018 H 95.2012 0.0635409 5.26562 0
M  V30 1019 H 97.6922 0.44889 3.75224 0
M  V30 1020 H 98.0052 1.53582 7.57385 0
M  V30 1021 H 96.3502 1.37439 6.81275 0
M  V30 1022 H 99.5412 0.639601 4.6371 0
M  V30 1023 H 99.7142 1.13503 6.37982 0
M  V30 1024 N 93.1203 -1.57491 0.0584922 0
M  V30 1025 C 94.0673 -2.11958 -0.913376 0
M  V30 1026 C 95.0373 -1.02875 -1.30407 0
M  V30 1027 O 96.2223 -1.30464 -1.39226 0
M  V30 1028 C 93.3623 -2.67497 -2.18035 0
M  V30 1029 C 92.4753 -3.90691 -1.84349 0
M  V30 1030 C 91.6103 -4.3452 -3.05559 0
M  V30 1031 C 90.6493 -5.50395 -2.67827 0
M  V30 1032 N 89.7863 -5.89244 -3.81754 0
M  V30 1033 H 94.6263 -2.94704 -0.442017 0
M  V30 1034 H 92.1633 -1.45643 -0.206545 0
M  V30 1035 H 94.1213 -2.978 -2.92183 0
M  V30 1036 H 92.7513 -1.87537 -2.62735 0
M  V30 1037 H 91.8033 -3.66934 -1.00319 0
M  V30 1038 H 93.1153 -4.7489 -1.5258 0
M  V30 1039 H 92.2693 -4.66414 -3.87998 0
M  V30 1040 H 91.0083 -3.49147 -3.40511 0
M  V30 1041 H 90.0133 -5.18165 -1.83806 0
M  V30 1042 H 91.2383 -6.3749 -2.34059 0
M  V30 1043 H 89.1843 -5.06823 -4.16493 0
M  V30 1044 H 89.1013 -6.68151 -3.53708 0
M  V30 1045 H 90.3693 -6.25756 -4.64811 0
M  V30 1046 N 94.5984 0.214957 -1.56127 0
M  V30 1047 C 95.5284 1.2695 -1.95974 0
M  V30 1048 C 96.5094 1.48539 -0.828868 0
M  V30 1049 O 97.6944 1.60611 -1.09168 0
M  V30 1050 C 94.8244 2.61794 -2.28214 0
M  V30 1051 C 93.7784 2.54851 -3.43853 0
M  V30 1052 C 93.1044 3.93785 -3.61715 0
M  V30 1053 C 94.4044 2.09065 -4.78632 0
M  V30 1054 H 96.0984 0.93846 -2.84312 0
M  V30 1055 H 93.6444 0.449996 -1.36788 0
M  V30 1056 H 95.5974 3.35731 -2.54682 0
M  V30 1057 H 94.3214 2.96599 -1.36736 0
M  V30 1058 H 92.9804 1.8337 -3.17444 0
M  V30 1059 H 92.6284 4.25908 -2.67602 0
M  V30 1060 H 92.3284 3.90019 -4.39498 0
M  V30 1061 H 93.8524 4.69374 -3.90539 0
M  V30 1062 H 95.2664 2.7275 -5.04262 0
M  V30 1063 H 93.6634 2.16346 -5.59745 0
M  V30 1064 H 94.7334 1.04315 -4.73547 0
M  V30 1065 N 96.0765 1.50051 0.48192 0
M  V30 1066 C 97.4925 1.37237 0.814756 0
M  V30 1067 C 97.6925 0.420109 1.97072 0
M  V30 1068 O 96.7485 -0.141246 2.52105 0
M  V30 1069 C 98.0615 2.78375 1.13701 0
M  V30 1070 C 99.6095 2.87213 1.2441 0
M  V30 1071 C 100.084 4.29161 1.59954 0
M  V30 1072 N 101.575 4.32061 1.66967 0
M  V30 1073 C 102.31 5.38879 1.95952 0
M  V30 1074 N 101.806 6.55918 2.23031 0
M  V30 1075 N 103.599 5.26312 1.97363 0
M  V30 1076 H 95.7505 2.10546 -0.28005 0
M  V30 1077 H 98.0135 0.945921 -0.0627454 0
M  V30 1078 H 97.7195 3.49845 0.360787 0
M  V30 1079 H 97.5935 3.14941 2.07586 0
M  V30 1080 H 99.9805 2.15969 2.01101 0
M  V30 1081 H 100.061 2.54204 0.285299 0
M  V30 1082 H 99.7055 5.00938 0.838067 0
M  V30 1083 H 99.6355 4.59648 2.56966 0
M  V30 1084 H 102.126 3.47661 1.48123 0
M  V30 1085 H 102.439 7.33139 2.44391 0
M  V30 1086 H 100.784 6.59112 2.20447 0
M  V30 1087 H 103.975 4.33876 1.75697 0
M  V30 1088 H 104.148 6.09649 2.19618 0
M  V30 1089 N 97.5546 -0.734337 1.39446 0
M  V30 1090 C 98.7826 -1.52358 1.39981 0
M  V30 1091 C 99.1976 -1.88799 -0.0054975 0
M  V30 1092 O 98.5546 -1.54146 -0.976998 0
M  V30 1093 C 98.6056 -2.81072 2.27333 0
M  V30 1094 O 98.3266 -2.46178 3.62392 0
M  V30 1095 C 99.8276 -3.75096 2.36259 0
M  V30 1096 H 97.0476 -0.470806 0.478103 0
M  V30 1097 H 99.5916 -0.907339 1.83269 0
M  V30 1098 H 97.7466 -3.39026 1.87457 0
M  V30 1099 H 98.1606 -3.28866 4.08592 0
M  V30 1100 H 99.6346 -4.62305 3.01626 0
M  V30 1101 H 100.112 -4.16892 1.38194 0
M  V30 1102 H 100.718 -3.23061 2.76608 0
M  V30 1103 N 99.0327 -1.24633 -0.964593 0
M  V30 1104 C 100.281 -1.08573 -1.70459 0
M  V30 1105 C 100.602 0.375655 -1.91347 0
M  V30 1106 O 99.8717 1.26779 -1.49345 0
M  V30 1107 H 98.4517 -0.398784 -0.631649 0
M  V30 1108 H 101.114 -1.56601 -1.16026 0
M  V30 1109 H 100.21 -1.58623 -2.68785 0
M  V30 1110 N 100.511 1.16574 -1.06058 0
M  V30 1111 C 101.788 1.83048 -0.689416 0
M  V30 1112 C 102.168 1.94122 0.829443 0
M  V30 1113 O 101.516 1.48249 1.7388 0
M  V30 1114 C 101.726 3.20186 -1.38859 0
M  V30 1115 C 103.074 3.95989 -1.53226 0
M  V30 1116 O 104.098 3.29696 -1.3483 0
M  V30 1117 O 102.957 5.14813 -1.83384 0
M  V30 1118 H 100.051 0.790258 -0.243764 0
M  V30 1119 H 102.597 1.23797 -1.16071 0
M  V30 1120 H 101.369 3.07146 -2.4244 0
M  V30 1121 H 100.992 3.87112 -0.907216 0
M  V30 1122 N 101.989 0.842826 1.3317 0
M  V30 1123 C 102.919 0.294028 2.31641 0
M  V30 1124 C 103.9 -0.600401 1.59151 0
M  V30 1125 O 105.085 -0.523124 1.87022 0
M  V30 1126 C 102.215 -0.528416 3.43257 0
M  V30 1127 C 101.169 0.27056 4.27144 0
M  V30 1128 C 100.495 -0.675881 5.30411 0
M  V30 1129 C 101.795 1.48981 5.00602 0
M  V30 1130 H 103.489 1.11681 2.77791 0
M  V30 1131 H 101.035 0.538478 1.33553 0
M  V30 1132 H 102.988 -0.922674 4.11175 0
M  V30 1133 H 101.712 -1.38445 2.95805 0
M  V30 1134 H 100.371 0.646427 3.60856 0
M  V30 1135 H 100.019 -1.52842 4.79216 0
M  V30 1136 H 99.7189 -0.145374 5.8742 0
M  V30 1137 H 101.243 -1.06757 6.01195 0
M  V30 1138 H 102.657 1.16849 5.61266 0
M  V30 1139 H 101.054 1.95739 5.6728 0
M  V30 1140 H 102.124 2.25746 4.29147 0
M  V30 1141 N 103.467 -1.45747 0.599634 0
M  V30 1142 C 104.715 -2.01893 0.0915472 0
M  V30 1143 C 105.036 -1.47155 -1.27946 0
M  V30 1144 O 104.306 -0.66273 -1.84349 0
M  V30 1145 H 102.886 -0.746363 0.0308524 0
M  V30 1146 H 105.548 -1.78645 0.779237 0
M  V30 1147 H 104.644 -3.1208 0.0353086 0
M  V30 1148 N 104.945 -0.338344 -1.53925 0
M  V30 1149 C 106.194 0.260732 -2.00008 0
M  V30 1150 C 106.507 1.52073 -1.23017 0
M  V30 1151 O 107.713 2.19672 -1.5955 0
M  V30 1152 C 106.169 0.51515 -3.56194 0
M  V30 1153 C 105.777 -0.728645 -4.42035 0
M  V30 1154 C 107.521 1.07337 -4.10706 0
M  V30 1155 C 105.428 -0.445315 -5.89721 0
M  V30 1156 H 104.358 0.101205 -0.747177 0
M  V30 1157 H 107.009 -0.452866 -1.77824 0
M  V30 1158 H 105.391 1.28932 -3.74423 0
M  V30 1159 H 106.565 -1.50352 -4.35581 0
M  V30 1160 H 104.88 -1.20813 -3.98489 0
M  V30 1161 H 107.477 1.30022 -5.18651 0
M  V30 1162 H 107.82 2.0273 -3.63602 0
M  V30 1163 H 108.353 0.360034 -3.96167 0
M  V30 1164 H 105.092 -1.36883 -6.41049 0
M  V30 1165 H 104.612 0.291569 -5.99091 0
M  V30 1166 H 106.291 -0.0606218 -6.46972 0
M  V30 1167 N 106.423 1.57458 -0.0668435 0
M  V30 1168 C 107.834 1.80776 0.466558 0
M  V30 1169 C 108.185 0.980361 1.69951 0
M  V30 1170 O 107.31 0.201441 2.1546 0
M  V30 1171 C 107.905 3.27881 0.85321 0
M  V30 1172 C 106.464 3.52062 1.3315 0
M  V30 1173 C 105.611 2.75513 0.314264 0
M  V30 1174 H 108.562 1.5598 -0.292588 0
M  V30 1175 H 108.583 3.39659 1.715 0
M  V30 1176 H 108.095 3.88075 -0.0443439 0
M  V30 1177 H 106.196 2.97167 2.24772 0
M  V30 1178 H 106.309 4.60762 1.31285 0
M  V30 1179 H 104.673 2.42123 0.790492 0
M  V30 1180 H 105.456 3.38442 -0.575477 0
M  V30 1181 N 107.901 -0.206675 1.56239 0
M  V30 1182 C 109.312 -0.772383 1.69974 0
M  V30 1183 C 109.663 -1.84353 0.671436 0
M  V30 1184 O 108.788 -2.15695 -0.174491 0
M  V30 1185 C 109.383 -1.40779 3.08167 0
M  V30 1186 C 107.942 -1.92072 3.23706 0
M  V30 1187 C 107.089 -0.786347 2.65917 0
M  V30 1188 H 110.04 0.0182223 1.5869 0
M  V30 1189 H 110.061 -2.27696 3.04852 0
M  V30 1190 H 109.573 -0.627958 3.82986 0
M  V30 1191 H 107.674 -2.7281 2.53782 0
M  V30 1192 H 107.787 -2.09046 4.31087 0
M  V30 1193 H 106.151 -1.1976 2.24788 0
M  V30 1194 H 106.934 -0.0189416 3.43295 0
M  V30 1195 N 109.379 -1.50304 -0.473955 0
M  V30 1196 C 110.327 -1.69482 -1.59307 0
M  V30 1197 C 111.321 -0.560669 -1.59853 0
M  V30 1198 O 112.527 -0.741087 -1.64036 0
M  V30 1199 H 108.902 -0.534892 -0.528578 0
M  V30 1200 H 110.873 -2.63364 -1.40293 0
M  V30 1201 C 109.622 -1.80354 -2.97267 0
M  V30 1202 H 108.945 -2.67012 -2.97564 0
M  V30 1203 H 110.385 -1.97798 -3.75036 0
M  V30 1204 C 108.844 -0.55448 -3.32306 0
M  V30 1205 O 109.374 0.307661 -4.0052 0
M  V30 1206 N 107.58 -0.409354 -2.87702 0
M  V30 1207 H 107.127 -1.11196 -2.32364 0
M  V30 1208 H 107.085 0.425223 -3.11511 0
M  V30 1209 N 110.857 0.726932 -1.39834 0
M  V30 1210 C 112.268 1.30558 -1.3346 0
M  V30 1211 C 112.619 1.962 -0.00273003 0
M  V30 1212 O 111.744 1.96826 0.899371 0
M  V30 1213 C 112.339 2.37404 -2.41713 0
M  V30 1214 C 110.898 2.90921 -2.38835 0
M  V30 1215 C 110.045 1.64578 -2.2318 0
M  V30 1216 H 112.996 0.523862 -1.49804 0
M  V30 1217 H 113.017 3.17984 -2.08966 0
M  V30 1218 H 112.529 1.89599 -3.38635 0
M  V30 1219 H 110.63 3.42985 -1.45575 0
M  V30 1220 H 110.743 3.43487 -3.33997 0
M  V30 1221 H 109.107 1.89219 -1.70494 0
M  V30 1222 H 109.89 1.18814 -3.22084 0
M  V30 1223 N 112.336 1.25143 0.95797 0
M  V30 1224 C 113.246 1.06968 2.08794 0
M  V30 1225 C 114.262 0.00773911 1.73998 0
M  V30 1226 O 115.438 0.207972 2.00323 0
M  V30 1227 C 112.503 0.68691 3.39827 0
M  V30 1228 C 111.564 1.82641 3.88511 0
M  V30 1229 C 110.797 1.46181 5.1329 0
M  V30 1230 O 111.02 0.355971 5.69288 0
M  V30 1231 O 109.954 2.29085 5.566 0
M  V30 1232 H 113.78 2.01723 2.27027 0
M  V30 1233 H 111.365 1.04051 1.07209 0
M  V30 1234 H 113.247 0.485417 4.18595 0
M  V30 1235 H 111.922 -0.231417 3.22872 0
M  V30 1236 H 110.829 2.08274 3.10762 0
M  V30 1237 H 112.162 2.72386 4.09959 0
M  V30 1238 N 113.814 -1.1601 1.06675 0
M  V30 1239 C 115.091 -1.82679 0.699114 0
M  V30 1240 C 115.471 -1.94559 -0.819137 0
M  V30 1241 O 114.819 -1.49169 -1.73092 0
M  V30 1242 C 115.029 -3.19445 1.40555 0
M  V30 1243 C 116.377 -3.95171 1.55323 0
M  V30 1244 O 117.401 -3.28976 1.36577 0
M  V30 1245 O 116.26 -5.13833 1.86112 0
M  V30 1246 H 113.354 -0.788954 0.247951 0
M  V30 1247 H 115.9 -1.23179 1.16726 0
M  V30 1248 H 114.672 -3.05856 2.44065 0
M  V30 1249 H 114.295 -3.86625 0.927733 0
M  V30 1250 N 115.292 -0.849877 -1.32721 0
M  V30 1251 C 116.708 -0.539102 -1.50219 0
M  V30 1252 C 116.908 0.931271 -1.78689 0
M  V30 1253 O 115.964 1.71455 -1.85363 0
M  V30 1254 C 117.277 -1.42196 -2.64954 0
M  V30 1255 C 118.825 -1.42189 -2.78839 0
M  V30 1256 C 119.3 -2.28985 -3.96648 0
M  V30 1257 N 120.791 -2.26754 -4.03902 0
M  V30 1258 C 121.526 -2.90644 -4.94281 0
M  V30 1259 N 121.022 -3.63629 -5.897 0
M  V30 1260 N 122.815 -2.80057 -4.87365 0
M  V30 1261 H 114.966 -1.80156 -1.12506 0
M  V30 1262 H 117.229 -0.769217 -0.554085 0
M  V30 1263 H 116.935 -2.46733 -2.50631 0
M  V30 1264 H 116.809 -1.10591 -3.60624 0
M  V30 1265 H 119.196 -0.38419 -2.92588 0
M  V30 1266 H 119.277 -1.77807 -1.83898 0
M  V30 1267 H 118.921 -3.32819 -3.83658 0
M  V30 1268 H 118.851 -1.90702 -4.90857 0
M  V30 1269 H 121.342 -1.73688 -3.3562 0
M  V30 1270 H 121.655 -4.09558 -6.55349 0
M  V30 1271 H 120 -3.67737 -5.89741 0
M  V30 1272 H 123.191 -2.22593 -4.11789 0
M  V30 1273 H 123.364 -3.30132 -5.57599 0
M  V30 1274 N 116.77 1.45427 -0.607355 0
M  V30 1275 C 117.995 2.07124 -0.107006 0
M  V30 1276 C 118.42 1.44906 1.19933 0
M  V30 1277 O 117.778 0.541687 1.73019 0
M  V30 1278 C 117.826 3.60595 0.0194119 0
M  V30 1279 O 116.93 3.98285 1.0697 0
M  V30 1280 H 116.271 0.659868 -0.0739597 0
M  V30 1281 H 118.801 1.86683 -0.837297 0
M  V30 1282 H 118.811 4.07419 0.2177 0
M  V30 1283 H 117.486 4.05266 -0.934453 0
M  V30 1284 H 116.063 3.63133 0.847889 0
M  V30 1285 N 118.248 0.346503 1.53744 0
M  V30 1286 C 119.659 -0.136779 1.86198 0
M  V30 1287 C 120.01 -1.49749 1.26766 0
M  V30 1288 O 119.135 -2.08417 0.582355 0
M  V30 1289 C 119.73 -0.254966 3.37839 0
M  V30 1290 C 118.289 -0.682482 3.70161 0
M  V30 1291 C 117.436 0.181981 2.76702 0
M  V30 1292 H 120.387 0.565994 1.48264 0
M  V30 1293 H 120.408 -1.08195 3.64793 0
M  V30 1294 H 119.92 0.735526 3.81066 0
M  V30 1295 H 118.021 -1.68189 3.3248 0
M  V30 1296 H 118.134 -0.470326 4.76786 0
M  V30 1297 H 116.498 -0.34615 2.52337 0
M  V30 1298 H 117.281 1.16966 3.2276 0
M  V30 1299 N 119.726 -1.57421 0.075193 0
M  V30 1300 C 120.951 -1.98364 -0.605515 0
M  V30 1301 C 121.376 -0.953383 -1.62149 0
M  V30 1302 O 120.734 0.0806053 -1.81121 0
M  V30 1303 C 120.782 -3.38332 -1.24756 0
M  V30 1304 O 119.886 -3.37959 -2.36342 0
M  V30 1305 H 119.227 -0.645553 -0.155428 0
M  V30 1306 H 121.757 -2.04044 0.150714 0
M  V30 1307 H 121.767 -3.75591 -1.5936 0
M  V30 1308 H 120.442 -4.12846 -0.503129 0
M  V30 1309 H 119.019 -3.12474 -2.03506 0
M  V30 1310 N 121.204 0.198386 -1.56346 0
M  V30 1311 C 122.615 0.763358 -1.70381 0
M  V30 1312 C 122.966 1.83995 -0.681203 0
M  V30 1313 O 122.091 2.15785 0.16305 0
M  V30 1314 C 122.686 1.39143 -3.08909 0
M  V30 1315 C 121.245 1.90352 -3.2472 0
M  V30 1316 C 120.392 0.772233 -2.6633 0
M  V30 1317 H 123.343 -0.0266377 -1.58678 0
M  V30 1318 H 123.364 2.26076 -3.06055 0
M  V30 1319 H 122.876 0.607638 -3.83314 0
M  V30 1320 H 120.977 2.71461 -2.55225 0
M  V30 1321 H 121.09 2.06757 -4.3219 0
M  V30 1322 H 119.454 1.18566 -2.2542 0
M  V30 1323 H 120.237 0.00073556 -3.433 0
M  V30 1324 N 122.682 1.50554 0.465978 0
M  V30 1325 C 123.592 1.72585 1.58907 0
M  V30 1326 C 124.608 0.60911 1.6299 0
M  V30 1327 O 125.784 0.88804 1.80765 0
M  V30 1328 C 122.849 1.81995 2.95091 0
M  V30 1329 C 121.91 3.05751 3.01355 0
M  V30 1330 C 121.143 3.14702 4.31043 0
M  V30 1331 O 121.366 2.30313 5.21835 0
M  V30 1332 O 120.3 4.07468 4.43005 0
M  V30 1333 H 124.126 2.67799 1.43239 0
M  V30 1334 H 121.711 1.34711 0.646013 0
M  V30 1335 H 123.593 1.90335 3.75966 0
M  V30 1336 H 122.268 0.899659 3.10947 0
M  V30 1337 H 121.175 3.02908 2.19539 0
M  V30 1338 H 122.508 3.97375 2.90437 0
M  V30 1339 N 124.16 -0.719506 1.40217 0
M  V30 1340 C 125.571 -1.29848 1.34151 0
M  V30 1341 C 125.922 -1.96196 0.0131349 0
M  V30 1342 O 125.047 -1.973 -0.88892 0
M  V30 1343 C 125.642 -2.36118 2.42968 0
M  V30 1344 C 124.201 -2.8965 2.40374 0
M  V30 1345 C 123.348 -1.63393 2.24049 0
M  V30 1346 H 126.299 -0.51591 1.5008 0
M  V30 1347 H 126.32 -3.16871 2.10649 0
M  V30 1348 H 125.832 -1.878 3.39636 0
M  V30 1349 H 123.933 -3.42208 1.47392 0
M  V30 1350 H 124.046 -3.4171 3.35814 0
M  V30 1351 H 122.41 -1.88312 1.71495 0
M  V30 1352 H 123.193 -1.17104 3.2271 0
M  V30 1353 N 125.638 -1.25649 -0.95132 0
M  V30 1354 C 126.887 -1.09988 -1.69073 0
M  V30 1355 C 127.2 0.358355 -1.92289 0
M  V30 1356 O 128.406 0.635466 -2.63958 0
M  V30 1357 C 126.862 -1.92012 -3.044 0
M  V30 1358 C 126.47 -3.42347 -2.88968 0
M  V30 1359 C 128.214 -1.8493 -3.82101 0
M  V30 1360 C 126.121 -4.16655 -4.19705 0
M  V30 1361 H 125.051 -0.407993 -0.63408 0
M  V30 1362 H 127.702 -1.49873 -1.05879 0
M  V30 1363 H 126.084 -1.44952 -3.68517 0
M  V30 1364 H 127.258 -3.97104 -2.33762 0
M  V30 1365 H 125.573 -3.50557 -2.24719 0
M  V30 1366 H 128.17 -2.37739 -4.78941 0
M  V30 1367 H 128.513 -0.817883 -4.08187 0
M  V30 1368 H 129.046 -2.29758 -3.2474 0
M  V30 1369 H 125.785 -5.20224 -3.98807 0
M  V30 1370 H 125.305 -3.66681 -4.74663 0
M  V30 1371 H 126.984 -4.24551 -4.88227 0
M  V30 1372 N 127.117 1.15442 -1.07289 0
M  V30 1373 C 128.347 1.89821 -0.815576 0
M  V30 1374 C 128.755 1.7823 0.634867 0
M  V30 1375 O 128.098 1.13152 1.44715 0
M  V30 1376 C 128.16 3.40817 -1.14385 0
M  V30 1377 C 127.824 3.76193 -2.59476 0
M  V30 1378 C 128.821 3.77269 -3.57721 0
M  V30 1379 C 126.506 4.0652 -2.95037 0
M  V30 1380 C 128.5 4.08176 -4.89562 0
M  V30 1381 C 126.187 4.37092 -4.27076 0
M  V30 1382 C 127.185 4.37902 -5.24148 0
M  V30 1383 O 126.873 4.67741 -6.53815 0
M  V30 1384 H 126.605 0.608465 -0.294528 0
M  V30 1385 H 129.159 1.472 -1.43252 0
M  V30 1386 H 127.389 3.83835 -0.469865 0
M  V30 1387 H 129.078 3.96485 -0.869179 0
M  V30 1388 H 129.844 3.5394 -3.3159 0
M  V30 1389 H 125.723 4.05049 -2.20128 0
M  V30 1390 H 129.267 4.08723 -5.65324 0
M  V30 1391 H 125.164 4.59889 -4.5296 0
M  V30 1392 H 125.932 4.85509 -6.58957 0
M  V30 1393 N 128.595 0.856903 1.32268 0
M  V30 1394 C 129.543 0.291987 2.3076 0
M  V30 1395 C 130.537 -0.585857 1.58947 0
M  V30 1396 O 131.743 -0.47341 1.73663 0
M  V30 1397 H 128.118 0.075721 0.748178 0
M  V30 1398 H 130.089 1.13687 2.75895 0
M  V30 1399 C 128.838 -0.502869 3.44044 0
M  V30 1400 H 128.161 0.163328 3.99466 0
M  V30 1401 H 129.601 -0.863691 4.1511 0
M  V30 1402 C 128.06 -1.68898 2.91505 0
M  V30 1403 O 128.59 -2.78811 2.89184 0
M  V30 1404 N 126.796 -1.51679 2.47875 0
M  V30 1405 H 126.343 -0.622666 2.49961 0
M  V30 1406 H 126.301 -2.31184 2.13076 0
M  V30 1407 N 130.073 -1.45103 0.615059 0
M  V30 1408 C 131.298 -2.07064 0.117988 0
M  V30 1409 C 131.723 -1.4554 -1.19163 0
M  V30 1410 O 131.081 -0.550855 -1.72729 0
M  V30 1411 C 131.129 -3.606 -0.000288387 0
M  V30 1412 O 130.233 -3.98847 -1.04856 0
M  V30 1413 H 129.574 -0.659467 0.0774581 0
M  V30 1414 H 132.104 -1.86236 0.847186 0
M  V30 1415 H 132.114 -4.07529 -0.196091 0
M  V30 1416 H 130.789 -4.04765 0.955932 0
M  V30 1417 H 129.366 -3.63577 -0.828619 0
M  V30 1418 N 131.551 -0.354651 -1.53558 0
M  V30 1419 C 132.461 0.50515 -2.29097 0
M  V30 1420 C 133.477 1.10223 -1.34636 0
M  V30 1421 O 134.653 1.11553 -1.67684 0
M  V30 1422 C 131.718 1.63479 -3.05738 0
M  V30 1423 C 130.779 1.06636 -4.15845 0
M  V30 1424 C 130.012 2.14217 -4.88822 0
M  V30 1425 O 130.235 3.35137 -4.61562 0
M  V30 1426 O 129.169 1.77887 -5.75013 0
M  V30 1427 H 132.995 -0.109237 -3.03503 0
M  V30 1428 H 130.58 -0.119357 -1.48922 0
M  V30 1429 H 132.462 2.2918 -3.5363 0
M  V30 1430 H 131.137 2.23478 -2.34178 0
M  V30 1431 H 130.044 0.373565 -3.7223 0
M  V30 1432 H 131.377 0.511081 -4.89539 0
M  V30 1433 N 133.029 1.57378 -0.0835403 0
M  V30 1434 C 134.277 1.93547 0.581718 0
M  V30 1435 C 134.598 0.96524 1.69435 0
M  V30 1436 O 133.868 0.0153369 1.95894 0
M  V30 1437 H 132.448 0.714521 0.217874 0
M  V30 1438 H 135.11 1.94366 -0.144158 0
M  V30 1439 H 134.206 2.95665 0.999423 0
M  V30 1440 N 134.507 -0.190092 1.56449 0
M  V30 1441 C 135.454 -1.23557 1.94942 0
M  V30 1442 C 136.424 -1.44972 0.810696 0
M  V30 1443 O 137.609 -1.58023 1.06927 0
M  V30 1444 C 134.749 -2.57416 2.2985 0
M  V30 1445 C 133.862 -2.43537 3.5681 0
M  V30 1446 C 132.997 -3.70134 3.81017 0
M  V30 1447 C 132.036 -3.51109 5.01387 0
M  V30 1448 N 131.173 -4.6973 5.21822 0
M  V30 1449 H 136.013 -0.900304 2.84075 0
M  V30 1450 H 133.55 -0.43318 1.40577 0
M  V30 1451 H 135.508 -3.35409 2.48106 0
M  V30 1452 H 134.138 -2.88975 1.43852 0
M  V30 1453 H 133.19 -1.56816 3.46573 0
M  V30 1454 H 134.502 -2.25415 4.4496 0
M  V30 1455 H 133.656 -4.56566 3.9954 0
M  V30 1456 H 132.395 -3.91215 2.91207 0
M  V30 1457 H 131.4 -2.63063 4.82782 0
M  V30 1458 H 132.625 -3.31468 5.9271 0
M  V30 1459 H 130.571 -4.91065 4.34961 0
M  V30 1460 H 130.488 -4.54452 6.0416 0
M  V30 1461 H 131.756 -5.57499 5.44808 0
M  V30 1462 N 135.985 -1.50799 -0.457987 0
M  V30 1463 C 137.401 -1.38515 -0.792819 0
M  V30 1464 C 137.601 -0.451409 -1.96379 0
M  V30 1465 O 136.657 0.10112 -2.52297 0
M  V30 1466 C 137.97 -2.80149 -1.09258 0
M  V30 1467 C 139.518 -2.89156 -1.19825 0
M  V30 1468 C 139.993 -4.31651 -1.53106 0
M  V30 1469 N 141.484 -4.34662 -1.60072 0
M  V30 1470 C 142.219 -5.41928 -1.87354 0
M  V30 1471 N 141.715 -6.59384 -2.12568 0
M  V30 1472 N 143.508 -5.29385 -1.88965 0
M  V30 1473 H 135.659 -2.10073 0.313511 0
M  V30 1474 H 137.922 -0.944803 0.0777862 0
M  V30 1475 H 137.628 -3.50374 -0.305084 0
M  V30 1476 H 137.502 -3.18204 -2.02549 0
M  V30 1477 H 139.889 -2.19141 -1.97639 0
M  V30 1478 H 139.97 -2.54626 -0.244821 0
M  V30 1479 H 139.614 -5.02208 -0.758266 0
M  V30 1480 H 139.544 -4.63678 -2.49621 0
M  V30 1481 H 142.035 -3.49973 -1.42573 0
M  V30 1482 H 142.348 -7.36934 -2.32696 0
M  V30 1483 H 140.693 -6.62535 -2.09933 0
M  V30 1484 H 143.884 -4.36616 -1.68772 0
M  V30 1485 H 144.057 -6.13066 -2.09891 0
M  V30 1486 N 137.463 0.71206 -1.40597 0
M  V30 1487 C 138.393 1.83889 -1.43899 0
M  V30 1488 C 139.374 1.67442 -0.299504 0
M  V30 1489 O 140.559 1.87421 -0.508624 0
M  V30 1490 C 137.689 3.21877 -1.30431 0
M  V30 1491 C 136.643 3.53002 -2.42019 0
M  V30 1492 C 135.969 4.90172 -2.13626 0
M  V30 1493 C 137.269 3.53643 -3.84362 0
M  V30 1494 H 138.963 1.81383 -2.38203 0
M  V30 1495 H 136.509 0.871237 -1.14654 0
M  V30 1496 H 138.462 4.00404 -1.31357 0
M  V30 1497 H 137.186 3.24968 -0.326049 0
M  V30 1498 H 135.845 2.76818 -2.40349 0
M  V30 1499 H 135.493 4.89869 -1.14182 0
M  V30 1500 H 135.193 5.11962 -2.88389 0
M  V30 1501 H 136.717 5.71028 -2.1624 0
M  V30 1502 H 138.131 4.22203 -3.87837 0
M  V30 1503 H 136.528 3.86961 -4.58673 0
M  V30 1504 H 137.598 2.52954 -4.13693 0
M  V30 1505 N 138.941 1.26152 0.944643 0
M  V30 1506 C 139.889 1.07215 2.06417 0
M  V30 1507 C 140.883 9.2007e-05 1.694 0
M  V30 1508 O 142.089 0.1565 1.79318 0
M  V30 1509 H 138.464 0.329837 0.675805 0
M  V30 1510 H 140.435 2.02099 2.19541 0
M  V30 1511 C 139.184 0.718197 3.40202 0
M  V30 1512 H 138.507 1.53497 3.69159 0
M  V30 1513 H 139.947 0.625459 4.19361 0
M  V30 1514 C 138.406 -0.576435 3.31932 0
M  V30 1515 O 138.936 -1.61574 3.67773 0
M  V30 1516 N 137.142 -0.565781 2.85039 0
M  V30 1517 H 136.689 0.280367 2.5607 0
M  V30 1518 H 136.647 -1.43213 2.79888 0
M  V30 1519 N 140.419 -1.14872 1.07899 0
M  V30 1520 C 141.647 -1.89661 0.82683 0
M  V30 1521 C 142.062 -1.78312 -0.620519 0
M  V30 1522 O 141.419 -1.13888 -1.42604 0
M  V30 1523 C 141.47 -3.39817 1.23316 0
M  V30 1524 O 141.191 -3.50845 2.62372 0
M  V30 1525 C 142.692 -4.31615 1.0111 0
M  V30 1526 H 139.912 -0.60092 0.298557 0
M  V30 1527 H 142.456 -1.4551 1.43691 0
M  V30 1528 H 140.611 -3.8161 0.667286 0
M  V30 1529 H 141.025 -4.44076 2.79101 0
M  V30 1530 H 142.499 -5.35367 1.34486 0
M  V30 1531 H 142.976 -4.39169 -0.0522168 0
M  V30 1532 H 143.582 -3.95572 1.56215 0
M  V30 1533 N 141.898 -0.863906 -1.31812 0
M  V30 1534 C 143.314 -0.555004 -1.49639 0
M  V30 1535 C 143.514 0.912266 -1.79666 0
M  V30 1536 O 142.57 1.69479 -1.87171 0
M  V30 1537 C 143.883 -1.44998 -2.63431 0
M  V30 1538 C 145.431 -1.45138 -2.77316 0
M  V30 1539 C 145.906 -2.33179 -3.94197 0
M  V30 1540 N 147.397 -2.31025 -4.01474 0
M  V30 1541 C 148.132 -2.95871 -4.9117 0
M  V30 1542 N 147.628 -3.69863 -5.8581 0
M  V30 1543 N 149.421 -2.85211 -4.84367 0
M  V30 1544 H 141.572 -1.81339 -1.10589 0
M  V30 1545 H 143.835 -0.77505 -0.545895 0
M  V30 1546 H 143.541 -2.49377 -2.48 0
M  V30 1547 H 143.415 -1.14409 -3.59431 0
M  V30 1548 H 145.802 -0.415201 -2.92164 0
M  V30 1549 H 145.883 -1.79747 -1.82001 0
M  V30 1550 H 145.527 -3.3687 -3.80107 0
M  V30 1551 H 145.457 -1.95897 -4.88807 0
M  V30 1552 H 147.948 -1.77238 -3.33759 0
M  V30 1553 H 148.261 -4.16486 -6.50968 0
M  V30 1554 H 146.606 -3.73971 -5.85808 0
M  V30 1555 H 149.797 -2.26948 -4.09405 0
M  V30 1556 H 149.97 -3.36027 -5.54066 0
M  V30 1557 N 143.376 1.44774 -0.622745 0
M  V30 1558 C 144.286 2.34433 0.0886031 0
M  V30 1559 C 145.302 1.52131 0.844529 0
M  V30 1560 O 146.478 1.84886 0.798691 0
M  V30 1561 C 143.543 3.29986 1.0635 0
M  V30 1562 C 142.604 4.28195 0.307873 0
M  V30 1563 C 141.837 5.19183 1.23633 0
M  V30 1564 O 142.06 5.13918 2.47476 0
M  V30 1565 O 140.994 5.97515 0.725189 0
M  V30 1566 H 144.82 2.96693 -0.648599 0
M  V30 1567 H 142.405 1.44408 -0.382957 0
M  V30 1568 H 144.287 3.88825 1.6246 0
M  V30 1569 H 142.962 2.70269 1.78146 0
M  V30 1570 H 141.869 3.72927 -0.296064 0
M  V30 1571 H 143.202 4.90808 -0.3699 0
M  V30 1572 N 144.854 0.36279 1.53368 0
M  V30 1573 C 146.101 -0.227776 2.01215 0
M  V30 1574 C 146.429 -1.49003 1.25014 0
M  V30 1575 O 145.684 -1.92876 0.331236 0
M  V30 1576 C 145.983 -0.568417 3.52851 0
M  V30 1577 C 145.649 0.59918 4.46901 0
M  V30 1578 C 144.311 0.919559 4.72332 0
M  V30 1579 C 146.663 1.38156 5.02556 0
M  V30 1580 C 143.991 2.02434 5.5067 0
M  V30 1581 C 146.343 2.47674 5.821 0
M  V30 1582 C 145.007 2.8025 6.05819 0
M  V30 1583 H 144.277 -0.083349 0.736297 0
M  V30 1584 H 146.924 0.494677 1.85001 0
M  V30 1585 H 145.229 -1.37185 3.66998 0
M  V30 1586 H 146.926 -1.03756 3.87344 0
M  V30 1587 H 143.516 0.339437 4.27254 0
M  V30 1588 H 147.7 1.14729 4.82857 0
M  V30 1589 H 142.956 2.28075 5.67267 0
M  V30 1590 H 147.13 3.08716 6.24234 0
M  V30 1591 H 144.757 3.65979 6.66306 0
M  V30 1592 N 146.332 -1.57332 0.0918853 0
M  V30 1593 C 147.748 -1.57389 -0.264766 0
M  V30 1594 C 147.948 -1.10281 -1.68643 0
M  V30 1595 O 147.004 -0.777801 -2.40222 0
M  V30 1596 C 148.317 -3.00648 -0.0561195 0
M  V30 1597 C 149.865 -3.12754 -0.124116 0
M  V30 1598 C 150.34 -4.57965 0.0564972 0
M  V30 1599 N 151.831 -4.632 0.00155611 0
M  V30 1600 C 152.566 -5.73281 0.116598 0
M  V30 1601 N 152.062 -6.92208 0.286294 0
M  V30 1602 N 153.855 -5.6207 0.0580973 0
M  V30 1603 H 146.006 -1.86262 1.02079 0
M  V30 1604 H 148.269 -0.859579 0.399786 0
M  V30 1605 H 147.975 -3.393 0.925669 0
M  V30 1606 H 147.849 -3.68623 -0.799823 0
M  V30 1607 H 150.236 -2.73976 -1.09641 0
M  V30 1608 H 150.317 -2.47377 0.651024 0
M  V30 1609 H 149.961 -4.97436 1.02564 0
M  V30 1610 H 149.891 -5.21399 -0.738297 0
M  V30 1611 H 152.382 -3.77686 -0.127192 0
M  V30 1612 H 152.695 -7.71934 0.365676 0
M  V30 1613 H 151.04 -6.94254 0.32192 0
M  V30 1614 H 154.231 -4.68043 -0.0733204 0
M  V30 1615 H 154.404 -6.47824 0.151203 0
M  V30 1616 N 147.81 0.181792 -1.56548 0
M  V30 1617 C 149.038 0.915947 -1.85521 0
M  V30 1618 C 149.453 1.76282 -0.676016 0
M  V30 1619 O 148.81 1.79012 0.355077 0
M  V30 1620 C 148.861 1.80126 -3.13427 0
M  V30 1621 O 148.582 0.988562 -4.26801 0
M  V30 1622 C 150.083 2.64597 -3.55673 0
M  V30 1623 H 147.303 0.26661 -0.61576 0
M  V30 1624 H 149.847 0.185039 -2.03661 0
M  V30 1625 H 148.002 2.48563 -2.97145 0
M  V30 1626 H 148.416 1.59308 -4.99721 0
M  V30 1627 H 149.89 3.2235 -4.48101 0
M  V30 1628 H 150.367 3.38958 -2.79292 0
M  V30 1629 H 150.973 2.0151 -3.74532 0
M  V30 1630 N 149.288 1.51039 0.449983 0
M  V30 1631 C 150.704 1.38934 0.785462 0
M  V30 1632 C 150.904 0.461817 1.96136 0
M  V30 1633 O 149.96 -0.0877389 2.52348 0
M  V30 1634 C 151.273 2.80724 1.0777 0
M  V30 1635 C 152.821 2.89787 1.1829 0
M  V30 1636 C 153.296 4.32457 1.50815 0
M  V30 1637 N 154.787 4.35505 1.57764 0
M  V30 1638 C 155.522 5.42914 1.84477 0
M  V30 1639 N 155.018 6.60502 2.09068 0
M  V30 1640 N 156.811 5.3038 1.86155 0
M  V30 1641 H 148.962 2.09904 -0.324647 0
M  V30 1642 H 151.225 0.944378 -0.0827957 0
M  V30 1643 H 150.931 3.50531 0.286498 0
M  V30 1644 H 150.805 3.19273 2.00859 0
M  V30 1645 H 153.192 2.20186 1.96474 0
M  V30 1646 H 153.273 2.54752 0.231314 0
M  V30 1647 H 152.917 5.02603 0.731622 0
M  V30 1648 H 152.847 4.64995 2.47158 0
M  V30 1649 H 155.338 3.50724 1.40715 0
M  V30 1650 H 155.651 7.38158 2.28785 0
M  V30 1651 H 153.996 6.63639 2.06416 0
M  V30 1652 H 157.187 4.37505 1.66454 0
M  V30 1653 H 157.36 6.1417 2.06637 0
M  V30 1654 N 150.766 -0.704594 1.40972 0
M  V30 1655 C 151.713 -1.81862 1.42109 0
M  V30 1656 C 152.683 -1.63781 0.276593 0
M  V30 1657 O 153.868 -1.84759 0.4763 0
M  V30 1658 C 151.008 -3.19669 1.30022 0
M  V30 1659 C 150.121 -3.49246 2.54267 0
M  V30 1660 C 149.256 -4.76618 2.3454 0
M  V30 1661 C 148.295 -4.99133 3.54306 0
M  V30 1662 N 147.432 -6.17726 3.33706 0
M  V30 1663 H 152.272 -1.80226 2.37324 0
M  V30 1664 H 149.809 -0.880238 1.17857 0
M  V30 1665 H 151.767 -3.99263 1.21018 0
M  V30 1666 H 150.397 -3.20506 0.384192 0
M  V30 1667 H 149.449 -2.64125 2.73756 0
M  V30 1668 H 150.761 -3.61788 3.43381 0
M  V30 1669 H 149.915 -5.64249 2.22952 0
M  V30 1670 H 148.654 -4.66305 1.42867 0
M  V30 1671 H 147.659 -4.09953 3.66359 0
M  V30 1672 H 148.884 -5.11311 4.4692 0
M  V30 1673 H 146.83 -6.08642 2.44725 0
M  V30 1674 H 146.747 -6.30995 4.16391 0
M  V30 1675 H 148.015 -7.08115 3.25873 0
M  V30 1676 N 152.244 -1.26651 -0.937939 0
M  V30 1677 C 153.191 -1.0849 -2.03712 0
M  V30 1678 C 154.161 0.011033 -1.66096 0
M  V30 1679 O 155.346 -0.149353 -1.90215 0
M  V30 1680 C 152.486 -0.72735 -3.37348 0
M  V30 1681 C 151.599 -1.89986 -3.87981 0
M  V30 1682 C 150.734 -1.48513 -5.10017 0
M  V30 1683 C 149.773 -2.62575 -5.5292 0
M  V30 1684 N 148.91 -2.21762 -6.66158 0
M  V30 1685 H 153.75 -2.02551 -2.18579 0
M  V30 1686 H 151.287 -1.00844 -1.07093 0
M  V30 1687 H 153.245 -0.50092 -4.14182 0
M  V30 1688 H 151.875 0.176298 -3.22318 0
M  V30 1689 H 150.927 -2.23913 -3.07518 0
M  V30 1690 H 152.239 -2.75586 -4.15757 0
M  V30 1691 H 151.393 -1.21934 -5.94321 0
M  V30 1692 H 150.132 -0.60009 -4.83994 0
M  V30 1693 H 149.137 -2.8988 -4.67172 0
M  V30 1694 H 150.362 -3.51685 -5.80943 0
M  V30 1695 H 148.308 -1.35696 -6.41812 0
M  V30 1696 H 148.225 -3.00903 -6.93537 0
M  V30 1697 H 149.493 -1.98403 -7.53828 0
M  V30 1698 N 153.722 1.14298 -1.08507 0
M  V30 1699 C 154.652 2.21542 -0.737646 0
M  V30 1700 C 155.633 1.67773 0.280377 0
M  V30 1701 O 156.818 1.93616 0.150521 0
M  V30 1702 C 153.948 3.46988 -0.147259 0
M  V30 1703 C 152.902 4.13789 -1.09374 0
M  V30 1704 C 152.228 5.33449 -0.365524 0
M  V30 1705 C 153.528 4.62208 -2.4323 0
M  V30 1706 H 155.222 2.5086 -1.6343 0
M  V30 1707 H 152.768 1.20576 -0.787243 0
M  V30 1708 H 154.721 4.21262 0.107808 0
M  V30 1709 H 153.445 3.17037 0.784538 0
M  V30 1710 H 152.104 3.4147 -1.33393 0
M  V30 1711 H 151.752 4.99759 0.57011 0
M  V30 1712 H 151.452 5.79088 -0.996512 0
M  V30 1713 H 152.976 6.10485 -0.118534 0
M  V30 1714 H 154.39 5.27952 -2.23472 0
M  V30 1715 H 152.787 5.18553 -3.02031 0
M  V30 1716 H 153.857 3.77224 -3.04681 0
M  V30 1717 N 155.201 0.870884 1.31352 0
M  V30 1718 C 156.111 0.330783 2.32256 0
M  V30 1719 C 157.127 -0.559767 1.6475 0
M  V30 1720 O 158.303 -0.456263 1.96164 0
M  V30 1721 C 155.368 -0.458137 3.4366 0
M  V30 1722 C 154.429 0.460482 4.26823 0
M  V30 1723 C 153.662 -0.290881 5.32907 0
M  V30 1724 O 153.885 -1.51885 5.49806 0
M  V30 1725 O 152.819 0.351732 6.00871 0
M  V30 1726 H 156.645 1.16718 2.80376 0
M  V30 1727 H 154.23 0.634285 1.35267 0
M  V30 1728 H 156.112 -0.905343 4.1156 0
M  V30 1729 H 154.787 -1.27106 2.97701 0
M  V30 1730 H 153.694 0.956207 3.61673 0
M  V30 1731 H 155.027 1.23903 4.7635 0
M  V30 1732 N 156.679 -1.44442 0.630414 0
M  V30 1733 C 157.589 -2.34476 -0.0761693 0
M  V30 1734 C 158.605 -1.52576 -0.836449 0
M  V30 1735 O 159.781 -1.85307 -0.788874 0
M  V30 1736 C 156.846 -3.30545 -1.04599 0
M  V30 1737 C 155.907 -4.28352 -0.28516 0
M  V30 1738 C 155.14 -5.19831 -1.20878 0
M  V30 1739 O 155.363 -5.15223 -2.44747 0
M  V30 1740 O 154.297 -5.97892 -0.693491 0
M  V30 1741 H 158.123 -2.96345 0.664324 0
M  V30 1742 H 155.708 -1.44203 0.39061 0
M  V30 1743 H 157.59 -3.89681 -1.60396 0
M  V30 1744 H 156.265 -2.7121 -1.76711 0
M  V30 1745 H 155.172 -3.72764 0.315837 0
M  V30 1746 H 156.505 -4.90605 0.395924 0
M  V30 1747 N 158.157 -0.370918 -1.53173 0
M  V30 1748 C 159.067 0.480823 -2.2962 0
M  V30 1749 C 160.083 1.08789 -1.35798 0
M  V30 1750 O 161.259 1.09768 -1.68858 0
M  V30 1751 C 158.324 1.60227 -3.07454 0
M  V30 1752 C 157.385 1.0222 -4.16953 0
M  V30 1753 C 156.618 2.0902 -4.91066 0
M  V30 1754 O 156.841 3.30222 -4.65091 0
M  V30 1755 O 155.775 1.71778 -5.76867 0
M  V30 1756 H 159.601 -0.141421 -3.03371 0
M  V30 1757 H 157.186 -0.135146 -1.48787 0
M  V30 1758 H 159.068 2.25417 -3.56041 0
M  V30 1759 H 157.743 2.20982 -2.36535 0
M  V30 1760 H 156.65 0.334064 -3.72605 0
M  V30 1761 H 157.983 0.459131 -4.90054 0
M  V30 1762 N 159.635 1.57281 -0.100228 0
M  V30 1763 C 161.051 1.57527 0.256416 0
M  V30 1764 C 161.251 1.11173 1.68056 0
M  V30 1765 O 160.307 0.79053 2.39806 0
M  V30 1766 C 161.62 3.00673 0.0401747 0
M  V30 1767 C 163.168 3.12815 0.107528 0
M  V30 1768 C 163.643 4.57929 -0.0807834 0
M  V30 1769 N 165.134 4.63193 -0.0261207 0
M  V30 1770 C 165.869 5.73212 -0.146999 0
M  V30 1771 N 165.365 6.92047 -0.322999 0
M  V30 1772 N 167.158 5.62031 -0.0879044 0
M  V30 1773 H 159.309 1.85718 -1.03065 0
M  V30 1774 H 161.572 0.857446 -0.404339 0
M  V30 1775 H 161.278 3.38804 -0.943649 0
M  V30 1776 H 161.152 3.69042 0.780262 0
M  V30 1777 H 163.539 2.74554 1.08186 0
M  V30 1778 H 163.62 2.47028 -0.664134 0
M  V30 1779 H 163.264 4.96886 -1.05201 0
M  V30 1780 H 163.194 5.21783 0.710635 0
M  V30 1781 H 165.685 3.77748 0.107161 0
M  V30 1782 H 165.998 7.7173 -0.406608 0
M  V30 1783 H 164.343 6.94074 -0.358733 0
M  V30 1784 H 167.534 4.68075 0.048498 0
M  V30 1785 H 167.707 6.47734 -0.185557 0
M  V30 1786 N 161.113 -0.173488 1.56642 0
M  V30 1787 C 162.063 -1.21941 1.92651 0
M  V30 1788 C 163.047 -1.39912 0.794577 0
M  V30 1789 O 164.239 -1.41919 1.05773 0
M  V30 1790 C 161.368 -2.55935 2.28806 0
M  V30 1791 C 160.454 -2.41667 3.48508 0
M  V30 1792 N 160.845 -1.9711 4.65813 0
M  V30 1793 C 159.143 -2.72499 3.53072 0
M  V30 1794 C 159.844 -1.95253 5.47952 0
M  V30 1795 N 158.82 -2.37575 4.88937 0
M  V30 1796 H 162.622 -0.866581 2.80834 0
M  V30 1797 H 160.136 -0.381776 1.57849 0
M  V30 1798 H 162.133 -3.31511 2.52797 0
M  V30 1799 H 160.793 -2.92022 1.41961 0
M  V30 1800 H 161.804 -1.67481 4.90072 0
M  V30 1801 H 158.481 -3.12639 2.767 0
M  V30 1802 H 159.871 -1.6252 6.51948 0
M  V30 1803 N 162.591 -1.51276 -0.441967 0
M  V30 1804 C 163.539 -1.72823 -1.55676 0
M  V30 1805 C 164.533 -0.59445 -1.58627 0
M  V30 1806 O 165.739 -0.775715 -1.62427 0
M  V30 1807 H 162.114 -0.545983 -0.517113 0
M  V30 1808 H 164.085 -2.6628 -1.34675 0
M  V30 1809 C 162.834 -1.86619 -2.93375 0
M  V30 1810 H 162.157 -2.73264 -2.91834 0
M  V30 1811 H 163.597 -2.05709 -3.70756 0
M  V30 1812 C 162.056 -0.624842 -3.31055 0
M  V30 1813 O 162.586 0.222636 -4.01083 0
M  V30 1814 N 160.792 -0.470288 -2.86769 0
M  V30 1815 H 160.339 -1.161 -2.29953 0
M  V30 1816 H 160.297 0.359051 -3.12343 0
M  V30 1817 N 164.069 0.697108 -1.41344 0
M  V30 1818 C 164.999 1.82353 -1.45841 0
M  V30 1819 C 165.98 1.67115 -0.317247 0
M  V30 1820 O 167.165 1.86871 -0.528474 0
M  V30 1821 C 164.295 3.20476 -1.33838 0
M  V30 1822 C 163.249 3.50415 -2.4575 0
M  V30 1823 C 162.575 4.87878 -2.18813 0
M  V30 1824 C 163.875 3.49546 -3.88091 0
M  V30 1825 H 165.569 1.78846 -2.40113 0
M  V30 1826 H 163.115 0.859028 -1.15571 0
M  V30 1827 H 165.068 3.98988 -1.35596 0
M  V30 1828 H 163.792 3.24604 -0.360498 0
M  V30 1829 H 162.451 2.74253 -2.43271 0
M  V30 1830 H 162.099 4.8863 -1.19371 0
M  V30 1831 H 161.799 5.08875 -2.93803 0
M  V30 1832 H 163.323 5.68702 -2.22284 0
M  V30 1833 H 164.737 4.18066 -3.92293 0
M  V30 1834 H 163.134 3.82075 -4.62751 0
M  V30 1835 H 164.204 2.48552 -4.16353 0
M  V30 1836 N 165.547 1.27147 0.931209 0
M  V30 1837 C 166.796 1.12664 1.67302 0
M  V30 1838 C 167.109 -0.327718 1.92835 0
M  V30 1839 O 168.315 -0.593392 2.64936 0
M  V30 1840 C 166.771 1.9683 3.01307 0
M  V30 1841 C 166.379 3.46901 2.83485 0
M  V30 1842 C 168.123 1.90985 3.79111 0
M  V30 1843 C 166.03 4.23279 4.13024 0
M  V30 1844 H 164.96 0.41803 0.627509 0
M  V30 1845 H 167.611 1.51539 1.03481 0
M  V30 1846 H 165.993 1.50797 3.66164 0
M  V30 1847 H 167.167 4.00773 2.27415 0
M  V30 1848 H 165.482 3.54088 2.19113 0
M  V30 1849 H 168.079 2.45328 4.75098 0
M  V30 1850 H 168.422 0.882718 4.06834 0
M  V30 1851 H 168.955 2.34895 3.21044 0
M  V30 1852 H 165.694 5.26503 3.90481 0
M  V30 1853 H 165.214 3.74186 4.6877 0
M  V30 1854 H 166.893 4.32265 4.81411 0
M  V30 1855 N 167.025 -1.13721 1.09112 0
M  V30 1856 C 168.253 -1.88773 0.846899 0
M  V30 1857 C 168.668 -1.7896 -0.601572 0
M  V30 1858 O 168.025 -1.15394 -1.41388 0
M  V30 1859 C 168.076 -3.3849 1.26913 0
M  V30 1860 O 167.797 -3.48043 2.66079 0
M  V30 1861 C 169.298 -4.30518 1.05682 0
M  V30 1862 H 166.518 -0.59772 0.304914 0
M  V30 1863 H 169.062 -1.43977 1.45227 0
M  V30 1864 H 167.217 -3.80881 0.707723 0
M  V30 1865 H 167.631 -4.4109 2.83795 0
M  V30 1866 H 169.105 -5.3391 1.40156 0
M  V30 1867 H 169.582 -4.392 -0.00563416 0
M  V30 1868 H 170.188 -3.93893 1.60402 0
M  V30 1869 N 168.503 -0.877838 -1.30888 0
M  V30 1870 C 169.413 -0.343096 -2.32078 0
M  V30 1871 C 170.429 0.551022 -1.65045 0
M  V30 1872 O 171.605 0.445854 -1.96403 0
M  V30 1873 C 168.67 0.439905 -3.43898 0
M  V30 1874 C 167.731 -0.483111 -4.26573 0
M  V30 1875 C 166.964 0.262616 -5.33053 0
M  V30 1876 O 167.187 1.48967 -5.50604 0
M  V30 1877 O 166.121 -0.383593 -6.00676 0
M  V30 1878 H 169.947 -1.18203 -2.79753 0
M  V30 1879 H 167.532 -0.64145 -1.34929 0
M  V30 1880 H 169.414 0.883504 -4.12034 0
M  V30 1881 H 168.089 1.25526 -2.98371 0
M  V30 1882 H 166.996 -0.975374 -3.61161 0
M  V30 1883 H 168.329 -1.26427 -4.75686 0
M  V30 1884 N 169.982 1.44106 -0.638065 0
M  V30 1885 C 170.915 2.27924 0.112161 0
M  V30 1886 C 171.893 1.38945 0.844574 0
M  V30 1887 O 173.077 1.68386 0.847248 0
M  V30 1888 C 170.204 3.18029 1.16512 0
M  V30 1889 C 169.25 4.23163 0.532458 0
M  V30 1890 S 170.083 5.31131 -0.682666 0
M  V30 1891 C 171.239 6.24805 0.37013 0
M  V30 1892 H 171.472 2.91205 -0.598887 0
M  V30 1893 H 169.005 1.48394 -0.426441 0
M  V30 1894 H 170.963 3.70492 1.76766 0
M  V30 1895 H 169.624 2.53955 1.8484 0
M  V30 1896 H 168.817 4.86252 1.32571 0
M  V30 1897 H 168.419 3.74 0.00437644 0
M  V30 1898 H 170.711 6.66042 1.24071 0
M  V30 1899 H 171.654 7.07741 -0.225349 0
M  V30 1900 H 172.062 5.60154 0.699141 0
M  V30 1901 N 171.46 0.379036 1.52974 0
M  V30 1902 C 172.706 -0.206727 2.01744 0
M  V30 1903 C 173.039 -1.47314 1.26539 0
M  V30 1904 O 172.314 -1.91084 0.362903 0
M  V30 1905 C 172.597 -0.485066 3.56818 0
M  V30 1906 C 172.45 0.795919 4.42702 0
M  V30 1907 C 173.769 -1.28003 4.21074 0
M  V30 1908 H 170.888 -0.0736607 0.73331 0
M  V30 1909 H 173.53 0.506581 1.83122 0
M  V30 1910 H 171.68 -1.09272 3.72816 0
M  V30 1911 H 173.352 1.43307 4.38476 0
M  V30 1912 H 171.595 1.41344 4.10127 0
M  V30 1913 H 172.266 0.555947 5.49193 0
M  V30 1914 H 174.742 -0.765867 4.08991 0
M  V30 1915 H 173.618 -1.44352 5.29579 0
M  V30 1916 H 173.879 -2.29236 3.78026 0
M  V30 1917 N 172.938 -1.57226 0.108567 0
M  V30 1918 C 173.901 -2.13602 -0.831082 0
M  V30 1919 C 174.901 -1.06841 -1.20173 0
M  V30 1920 O 176.091 -1.32666 -1.12895 0
M  V30 1921 C 173.223 -2.66769 -2.12243 0
M  V30 1922 H 174.416 -2.97951 -0.341317 0
M  V30 1923 H 171.969 -1.55667 -0.14057 0
M  V30 1924 H 172.704 -1.85977 -2.65675 0
M  V30 1925 H 172.489 -3.44839 -1.86625 0
M  V30 1926 H 173.979 -3.10332 -2.79435 0
M  V30 1927 N 174.416 0.165178 -1.56732 0
M  V30 1928 C 175.346 1.20651 -1.99914 0
M  V30 1929 C 176.327 1.45827 -0.875705 0
M  V30 1930 O 177.512 1.57057 -1.14223 0
M  V30 1931 C 174.642 2.54401 -2.36427 0
M  V30 1932 C 173.596 2.43782 -3.51787 0
M  V30 1933 C 172.922 3.82078 -3.7406 0
M  V30 1934 C 174.222 1.93732 -4.85041 0
M  V30 1935 H 175.916 0.847534 -2.87154 0
M  V30 1936 H 173.462 0.40625 -1.38151 0
M  V30 1937 H 175.415 3.27458 -2.65234 0
M  V30 1938 H 174.139 2.92098 -1.46103 0
M  V30 1939 H 172.798 1.73178 -3.23117 0
M  V30 1940 H 172.446 4.17179 -2.81017 0
M  V30 1941 H 172.146 3.7584 -4.51684 0
M  V30 1942 H 173.67 4.56712 -4.05274 0
M  V30 1943 H 175.084 2.56569 -5.12684 0
M  V30 1944 H 173.481 1.98428 -5.66345 0
M  V30 1945 H 174.551 0.891962 -4.76626 0
M  V30 1946 N 175.894 1.51508 0.433938 0
M  V30 1947 C 176.842 1.73646 1.54757 0
M  V30 1948 C 177.836 0.602854 1.5831 0
M  V30 1949 O 179.042 0.784318 1.62014 0
M  V30 1950 H 175.417 0.548718 0.51421 0
M  V30 1951 H 177.388 2.66991 1.33261 0
M  V30 1952 C 176.137 1.88172 2.92381 0
M  V30 1953 H 175.46 2.74808 2.90381 0
M  V30 1954 H 176.9 2.07672 3.6966 0
M  V30 1955 C 175.359 0.64239 3.30719 0
M  V30 1956 O 175.889 -0.201362 4.01195 0
M  V30 1957 N 174.095 0.485489 2.86516 0
M  V30 1958 H 173.642 1.17318 2.29334 0
M  V30 1959 H 173.6 -0.342482 3.12529 0
M  V30 1960 N 177.372 -0.689602 1.41712 0
M  V30 1961 C 178.783 -1.26973 1.36875 0
M  V30 1962 C 179.134 -1.96124 0.054748 0
M  V30 1963 O 178.259 -1.99141 -0.84687 0
M  V30 1964 C 178.854 -2.30912 2.47922 0
M  V30 1965 C 177.413 -2.84486 2.46464 0
M  V30 1966 C 176.56 -1.58603 2.27465 0
M  V30 1967 H 179.511 -0.48396 1.51141 0
M  V30 1968 H 179.532 -3.12331 2.17323 0
M  V30 1969 H 179.044 -1.80554 3.43543 0
M  V30 1970 H 177.145 -3.39005 1.54617 0
M  V30 1971 H 177.258 -3.34511 3.42986 0
M  V30 1972 H 175.622 -1.84632 1.75451 0
M  V30 1973 H 176.405 -1.10233 3.25121 0
M  V30 1974 N 178.85 -1.27639 -0.924453 0
M  V30 1975 C 180.127 -1.04887 -1.651 0
M  V30 1976 C 180.507 0.415327 -2.06974 0
M  V30 1977 O 179.855 1.39923 -1.80648 0
M  V30 1978 C 180.065 -2.01348 -2.85061 0
M  V30 1979 C 181.413 -2.30899 -3.56329 0
M  V30 1980 O 182.437 -1.99348 -2.95193 0
M  V30 1981 O 181.296 -2.84699 -4.66485 0
M  V30 1982 H 178.39 -0.400083 -0.723784 0
M  V30 1983 H 180.936 -1.38916 -0.974703 0
M  V30 1984 H 179.708 -3.0008 -2.51133 0
M  V30 1985 H 179.331 -1.679 -3.6041 0
M  V30 1986 N 180.328 1.1314 -1.09713 0
M  V30 1987 C 181.575 1.84484 -0.834987 0
M  V30 1988 C 181.903 1.83689 0.639418 0
M  V30 1989 O 181.158 1.2724 1.4869 0
M  V30 1990 C 181.457 3.32167 -1.3191 0
M  V30 1991 C 181.123 3.53139 -2.80363 0
M  V30 1992 C 179.785 3.58571 -3.20905 0
M  V30 1993 C 182.137 3.60866 -3.76065 0
M  V30 1994 C 179.465 3.69267 -4.55916 0
M  V30 1995 C 181.817 3.73089 -5.10869 0
M  V30 1996 C 180.481 3.76775 -5.50996 0
M  V30 1997 H 179.751 0.675073 -0.305544 0
M  V30 1998 H 182.398 1.33554 -1.37243 0
M  V30 1999 H 180.703 3.85469 -0.701517 0
M  V30 2000 H 182.4 3.85821 -1.09284 0
M  V30 2001 H 178.99 3.49569 -2.47991 0
M  V30 2002 H 183.174 3.55946 -3.45855 0
M  V30 2003 H 178.43 3.70388 -4.86438 0
M  V30 2004 H 182.604 3.78011 -5.84877 0
M  V30 2005 H 180.231 3.84815 -6.55608 0
M  V30 2006 N 181.806 0.884767 1.30421 0
M  V30 2007 C 182.753 0.349642 2.28136 0
M  V30 2008 C 183.723 -0.560061 1.56373 0
M  V30 2009 O 184.908 -0.488524 1.8444 0
M  V30 2010 C 182.048 -0.42999 3.42411 0
M  V30 2011 C 181.161 0.508907 4.28992 0
M  V30 2012 C 180.296 -0.286301 5.30428 0
M  V30 2013 C 179.335 0.648079 6.08659 0
M  V30 2014 N 178.472 -0.111792 7.02011 0
M  V30 2015 H 183.312 1.18807 2.73293 0
M  V30 2016 H 180.849 0.597231 1.3443 0
M  V30 2017 H 182.807 -0.897923 4.07423 0
M  V30 2018 H 181.437 -1.23299 2.98324 0
M  V30 2019 H 180.489 1.09533 3.64289 0
M  V30 2020 H 181.801 1.22475 4.8353 0
M  V30 2021 H 180.955 -0.816098 6.01186 0
M  V30 2022 H 179.694 -1.03536 4.76583 0
M  V30 2023 H 178.699 1.18951 5.36778 0
M  V30 2024 H 179.924 1.39623 6.64592 0
M  V30 2025 H 177.87 -0.843395 6.50556 0
M  V30 2026 H 177.787 0.544429 7.54037 0
M  V30 2027 H 179.055 -0.622339 7.77012 0
M  V30 2028 N 183.284 -1.43765 0.645699 0
M  V30 2029 C 184.695 -1.85193 0.236719 0
M  V30 2030 C 185.046 -1.54045 -1.21509 0
M  V30 2031 O 184.171 -0.985694 -1.92647 0
M  V30 2032 C 184.766 -3.36151 0.422845 0
M  V30 2033 C 183.325 -3.76338 0.0682492 0
M  V30 2034 C 182.472 -2.67538 0.729306 0
M  V30 2035 H 185.423 -1.34025 0.849883 0
M  V30 2036 H 185.444 -3.79032 -0.333904 0
M  V30 2037 H 184.956 -3.5879 1.47958 0
M  V30 2038 H 183.057 -3.59312 -0.986179 0
M  V30 2039 H 183.17 -4.76603 0.488469 0
M  V30 2040 H 181.534 -2.54176 0.163235 0
M  V30 2041 H 182.317 -2.93006 1.78892 0
M  V30 2042 N 184.763 -0.387143 -1.52771 0
M  V30 2043 C 186.174 0.0873634 -1.86495 0
M  V30 2044 C 186.525 1.46336 -1.30691 0
M  V30 2045 O 185.65 2.068 -0.637409 0
M  V30 2046 C 186.245 0.165305 -3.38396 0
M  V30 2047 C 184.804 0.584101 -3.7184 0
M  V30 2048 C 183.951 -0.255279 -2.76122 0
M  V30 2049 H 186.902 -0.605104 -1.46711 0
M  V30 2050 H 186.923 0.984848 -3.67534 0
M  V30 2051 H 186.435 -0.836301 -3.78982 0
M  V30 2052 H 184.536 1.59315 -3.36823 0
M  V30 2053 H 184.649 0.343749 -4.77865 0
M  V30 2054 H 183.013 0.279126 -2.53166 0
M  V30 2055 H 183.796 -1.25482 -3.19545 0
M  V30 2056 N 186.241 1.57166 -0.116904 0
M  V30 2057 C 187.204 2.14039 0.819742 0
M  V30 2058 C 188.204 1.07477 1.19605 0
M  V30 2059 O 189.394 1.33263 1.1219 0
M  V30 2060 C 186.526 2.67891 2.10826 0
M  V30 2061 H 187.719 2.98128 0.325511 0
M  V30 2062 H 185.272 1.55739 0.132312 0
M  V30 2063 H 186.007 1.87384 2.64685 0
M  V30 2064 H 185.792 3.45823 1.84793 0
M  V30 2065 H 187.282 3.11809 2.77785 0
M  V30 2066 N 187.719 -0.156864 1.56817 0
M  V30 2067 C 188.996 -0.899244 1.73704 0
M  V30 2068 C 189.376 -1.99771 0.682254 0
M  V30 2069 O 188.724 -2.26515 -0.300522 0
M  V30 2070 C 188.934 -1.45075 3.17418 0
M  V30 2071 C 190.282 -1.91802 3.7881 0
M  V30 2072 O 191.306 -1.54838 3.20786 0
M  V30 2073 O 190.165 -2.5994 4.80722 0
M  V30 2074 H 187.259 -0.424267 0.709878 0
M  V30 2075 H 189.805 -0.143561 1.69092 0
M  V30 2076 H 188.577 -0.660846 3.85679 0
M  V30 2077 H 188.2 -2.27021 3.26416 0
M  V30 2078 N 189.197 -1.51736 -0.425897 0
M  V30 2079 C 190.427 -1.68549 -1.19476 0
M  V30 2080 C 190.835 -0.387288 -1.85194 0
M  V30 2081 O 190.178 0.645142 -1.71999 0
M  V30 2082 C 190.24 -2.75275 -2.31223 0
M  V30 2083 C 189.904 -4.17534 -1.8578 0
M  V30 2084 C 190.901 -5.01936 -1.35485 0
M  V30 2085 C 188.586 -4.6369 -1.93123 0
M  V30 2086 C 190.58 -6.30559 -0.931347 0
M  V30 2087 C 188.267 -5.92307 -1.50384 0
M  V30 2088 C 189.265 -6.75569 -1.00473 0
M  V30 2089 O 188.953 -8.0178 -0.583452 0
M  V30 2090 H 188.685 -0.568525 -0.365725 0
M  V30 2091 H 191.239 -1.98982 -0.509444 0
M  V30 2092 H 189.469 -2.40182 -3.03067 0
M  V30 2093 H 191.158 -2.80853 -2.93047 0
M  V30 2094 H 191.924 -4.67475 -1.29197 0
M  V30 2095 H 187.803 -3.98997 -2.30916 0
M  V30 2096 H 191.347 -6.95498 -0.541084 0
M  V30 2097 H 187.244 -6.2628 -1.56346 0
M  V30 2098 H 188.012 -8.1543 -0.708275 0
M  V30 2099 N 190.675 0.682077 -1.42076 0
M  V30 2100 C 191.622 1.79578 -1.44984 0
M  V30 2101 C 192.592 1.6332 -0.302614 0
M  V30 2102 O 193.777 1.83978 -0.505633 0
M  V30 2103 C 190.917 3.1756 -1.35091 0
M  V30 2104 C 190.03 3.45156 -2.59791 0
M  V30 2105 C 189.165 4.72826 -2.42093 0
M  V30 2106 C 188.204 4.93433 -3.62202 0
M  V30 2107 N 187.341 6.12338 -3.43491 0
M  V30 2108 H 192.181 1.76427 -2.40161 0
M  V30 2109 H 189.718 0.861376 -1.19242 0
M  V30 2110 H 191.676 3.97287 -1.27354 0
M  V30 2111 H 190.306 3.19854 -0.435133 0
M  V30 2112 H 189.358 2.59736 -2.77923 0
M  V30 2113 H 190.67 3.5628 -3.49094 0
M  V30 2114 H 189.824 5.60631 -2.319 0
M  V30 2115 H 188.563 4.63973 -1.50268 0
M  V30 2116 H 187.568 4.04073 -3.72834 0
M  V30 2117 H 188.793 5.04136 -4.54998 0
M  V30 2118 H 186.739 6.04672 -2.54377 0
M  V30 2119 H 186.656 6.2429 -4.26377 0
M  V30 2120 H 187.924 7.02841 -3.37097 0
M  V30 2121 N 192.153 1.28127 0.917671 0
M  V30 2122 C 193.564 1.13622 1.48145 0
M  V30 2123 C 193.915 -0.275207 1.9426 0
M  V30 2124 O 193.04 -1.1691 1.82102 0
M  V30 2125 C 193.635 2.05648 2.69248 0
M  V30 2126 C 192.194 1.95219 3.21818 0
M  V30 2127 C 191.341 1.97618 1.94532 0
M  V30 2128 H 194.292 1.40874 0.730772 0
M  V30 2129 H 194.313 1.61818 3.44377 0
M  V30 2130 H 193.825 3.08365 2.35653 0
M  V30 2131 H 191.926 0.955244 3.60147 0
M  V30 2132 H 192.039 2.81976 3.87333 0
M  V30 2133 H 190.403 1.41973 2.11461 0
M  V30 2134 H 191.186 3.02007 1.63238 0
M  V30 2135 N 193.631 -1.12557 1.10312 0
M  V30 2136 C 195.042 -1.65574 0.862678 0
M  V30 2137 C 195.393 -1.86566 -0.607256 0
M  V30 2138 O 194.518 -1.59121 -1.46662 0
M  V30 2139 C 195.113 -3.00776 1.55947 0
M  V30 2140 C 193.672 -3.50748 1.36576 0
M  V30 2141 C 192.819 -2.25797 1.60968 0
M  V30 2142 H 195.77 -0.963552 1.26101 0
M  V30 2143 H 195.791 -3.67185 0.997753 0
M  V30 2144 H 195.303 -2.85465 2.62928 0
M  V30 2145 H 193.404 -3.71245 0.317531 0
M  V30 2146 H 193.517 -4.30289 2.10686 0
M  V30 2147 H 191.881 -2.32841 1.03234 0
M  V30 2148 H 192.664 -2.13043 2.69198 0
M  V30 2149 N 195.109 -0.891671 -1.2995 0
M  V30 2150 C 196.072 -0.36828 -2.26222 0
M  V30 2151 C 197.072 0.493014 -1.53056 0
M  V30 2152 O 198.262 0.299213 -1.71611 0
M  V30 2153 C 195.394 0.47442 -3.37583 0
M  V30 2154 H 196.587 -1.21844 -2.74033 0
M  V30 2155 H 194.14 -0.669107 -1.41254 0
M  V30 2156 H 194.875 1.34489 -2.95099 0
M  V30 2157 H 194.66 -0.142615 -3.91841 0
M  V30 2158 H 196.15 0.83218 -4.09224 0
M  V30 2159 N 196.587 1.43421 -0.653314 0
M  V30 2160 C 197.815 2.06163 -0.174491 0
M  V30 2161 C 198.23 1.48969 1.1599 0
M  V30 2162 O 197.587 0.621042 1.71608 0
M  V30 2163 C 197.638 3.61417 -0.0774865 0
M  V30 2164 O 197.359 4.16485 -1.35912 0
M  V30 2165 C 198.86 4.41235 0.427402 0
M  V30 2166 H 196.08 0.664946 -0.0899353 0
M  V30 2167 H 198.624 1.83924 -0.893988 0
M  V30 2168 H 196.779 3.82841 0.59257 0
M  V30 2169 H 197.193 5.10153 -1.21839 0
M  V30 2170 H 198.667 5.5021 0.44423 0
M  V30 2171 H 199.144 4.14268 1.45873 0
M  V30 2172 H 199.75 4.2478 -0.210167 0
M  V30 2173 N 198.065 0.39524 1.52563 0
M  V30 2174 C 199.481 0.0454682 1.59535 0
M  V30 2175 C 199.681 -1.44056 1.4089 0
M  V30 2176 O 198.737 -2.20579 1.22888 0
M  V30 2177 C 200.05 0.527963 2.96029 0
M  V30 2178 C 201.598 0.484733 3.09224 0
M  V30 2179 C 202.073 0.943512 4.48176 0
M  V30 2180 N 203.564 0.899765 4.54377 0
M  V30 2181 C 204.299 1.22609 5.60138 0
M  V30 2182 N 203.795 1.62319 6.73516 0
M  V30 2183 N 205.588 1.14696 5.50274 0
M  V30 2184 H 197.739 1.36261 1.62931 0
M  V30 2185 H 200.002 0.558887 0.765735 0
M  V30 2186 H 199.708 1.56607 3.14908 0
M  V30 2187 H 199.582 -0.0698056 3.77135 0
M  V30 2188 H 201.969 -0.544298 2.90037 0
M  V30 2189 H 202.05 1.11838 2.30056 0
M  V30 2190 H 201.694 1.9708 4.68104 0
M  V30 2191 H 201.624 0.286817 5.25818 0
M  V30 2192 H 204.115 0.607632 3.72983 0
M  V30 2193 H 204.428 1.85567 7.5019 0
M  V30 2194 H 202.773 1.66211 6.74833 0
M  V30 2195 H 205.964 0.835701 4.6058 0
M  V30 2196 H 206.137 1.40459 6.32594 0
M  V30 2197 N 199.544 -1.57102 0.125237 0
M  V30 2198 C 200.79 -1.95697 -0.532035 0
M  V30 2199 C 201.123 -1.009 -1.6593 0
M  V30 2200 O 200.398 -0.047347 -1.94442 0
M  V30 2201 C 200.681 -3.44181 -1.05884 0
M  V30 2202 C 200.534 -4.49752 0.0654392 0
M  V30 2203 C 201.853 -3.94655 -1.9477 0
M  V30 2204 H 198.972 -0.711571 -0.191925 0
M  V30 2205 H 201.614 -1.88923 0.20206 0
M  V30 2206 H 199.764 -3.50085 -1.68442 0
M  V30 2207 H 201.436 -4.55943 0.700982 0
M  V30 2208 H 199.679 -4.27653 0.727709 0
M  V30 2209 H 200.35 -5.50924 -0.344505 0
M  V30 2210 H 202.826 -3.91094 -1.42074 0
M  V30 2211 H 201.702 -4.99057 -2.28546 0
M  V30 2212 H 201.963 -3.35718 -2.87656 0
M  V30 2213 N 201.022 0.148545 -1.56898 0
M  V30 2214 C 202.247 0.880385 -1.87787 0
M  V30 2215 C 202.672 1.74018 -0.714093 0
M  V30 2216 O 202.03 1.78153 0.336343 0
M  V30 2217 C 202.078 1.71422 -3.17249 0
M  V30 2218 O 201.182 2.8183 -3.01074 0
M  V30 2219 H 200.523 0.245301 -0.617028 0
M  V30 2220 H 203.053 0.139826 -2.04122 0
M  V30 2221 H 203.063 2.10954 -3.49231 0
M  V30 2222 H 201.738 1.08284 -4.01556 0
M  V30 2223 H 200.315 2.45715 -2.80497 0
M  V30 2224 N 202.5 1.5196 0.417844 0
M  V30 2225 C 203.777 1.56146 1.17803 0
M  V30 2226 C 204.157 0.337275 2.08388 0
M  V30 2227 O 203.505 -0.676447 2.18258 0
M  V30 2228 C 203.715 2.88566 1.96293 0
M  V30 2229 C 205.063 3.41244 2.52662 0
M  V30 2230 O 206.087 2.90247 2.06483 0
M  V30 2231 O 204.946 4.30273 3.36938 0
M  V30 2232 H 202.04 0.628598 0.537395 0
M  V30 2233 H 204.586 1.64283 0.425331 0
M  V30 2234 H 203.358 3.69116 1.2988 0
M  V30 2235 H 202.981 2.83681 2.78587 0
M  V30 2236 N 203.978 -0.674533 1.42435 0
M  V30 2237 C 204.925 -1.78807 1.45934 0
M  V30 2238 C 205.895 -1.63157 0.311271 0
M  V30 2239 O 207.08 -1.83707 0.515383 0
M  V30 2240 C 204.22 -3.16839 1.36773 0
M  V30 2241 C 203.333 -3.43774 2.61617 0
M  V30 2242 C 202.468 -4.71536 2.44597 0
M  V30 2243 C 201.507 -4.91505 3.64814 0
M  V30 2244 N 200.644 -6.10508 3.46734 0
M  V30 2245 H 205.484 -1.75151 2.41093 0
M  V30 2246 H 203.021 -0.85504 1.19697 0
M  V30 2247 H 204.979 -3.96606 1.29459 0
M  V30 2248 H 203.609 -3.19619 0.452089 0
M  V30 2249 H 202.661 -2.58259 2.79297 0
M  V30 2250 H 203.973 -3.54423 3.50978 0
M  V30 2251 H 203.127 -5.59393 2.3487 0
M  V30 2252 H 201.866 -4.6317 1.52726 0
M  V30 2253 H 200.871 -4.0209 3.74972 0
M  V30 2254 H 202.096 -5.01716 4.57665 0
M  V30 2255 H 200.042 -6.03315 2.5758 0
M  V30 2256 H 199.959 -6.2202 4.29682 0
M  V30 2257 H 201.227 -7.01044 3.40819 0
M  V30 2258 N 205.456 -1.28612 -0.910864 0
M  V30 2259 C 206.702 -1.16106 -1.66274 0
M  V30 2260 C 207.035 0.289113 -1.92036 0
M  V30 2261 O 206.31 1.21 -1.52281 0
M  V30 2262 C 206.593 -1.96309 -3.01885 0
M  V30 2263 C 206.446 -3.49405 -2.8326 0
M  V30 2264 C 207.765 -1.78076 -4.02463 0
M  V30 2265 H 204.884 -0.423152 -0.603417 0
M  V30 2266 H 207.526 -1.57961 -1.05586 0
M  V30 2267 H 205.676 -1.60742 -3.53687 0
M  V30 2268 H 207.348 -3.94894 -2.38446 0
M  V30 2269 H 205.591 -3.74893 -2.18261 0
M  V30 2270 H 206.262 -4.00784 -3.79574 0
M  V30 2271 H 208.738 -2.0912 -3.59733 0
M  V30 2272 H 207.614 -2.36561 -4.95308 0
M  V30 2273 H 207.875 -0.733008 -4.35981 0
M  V30 2274 N 206.934 1.1197 -1.10907 0
M  V30 2275 C 207.867 2.16998 -0.706192 0
M  V30 2276 C 208.845 1.59903 0.294897 0
M  V30 2277 O 210.029 1.87513 0.192636 0
M  V30 2278 C 207.156 3.38673 -0.0427664 0
M  V30 2279 C 206.202 4.14414 -1.00811 0
M  V30 2280 S 207.035 4.72079 -2.52789 0
M  V30 2281 C 208.191 5.97083 -1.87731 0
M  V30 2282 H 208.424 2.50837 -1.59587 0
M  V30 2283 H 205.957 1.23508 -0.926555 0
M  V30 2284 H 207.915 4.09142 0.333668 0
M  V30 2285 H 206.576 3.03105 0.823788 0
M  V30 2286 H 205.769 5.016 -0.491259 0
M  V30 2287 H 205.371 3.49678 -1.3267 0
M  V30 2288 H 207.663 6.66599 -1.21044 0
M  V30 2289 H 208.606 6.53403 -2.72892 0
M  V30 2290 H 209.014 5.4837 -1.33979 0
M  V30 2291 N 208.412 0.89855 1.29475 0
M  V30 2292 C 209.661 0.519863 1.94885 0
M  V30 2293 C 209.974 -0.9383 1.71625 0
M  V30 2294 O 211.18 -1.42445 2.31131 0
M  V30 2295 C 209.636 0.878836 3.49005 0
M  V30 2296 C 209.244 2.35569 3.81066 0
M  V30 2297 C 210.988 0.570004 4.20656 0
M  V30 2298 C 208.895 2.65558 5.28425 0
M  V30 2299 H 207.825 0.190692 0.729488 0
M  V30 2300 H 210.476 1.09539 1.47219 0
M  V30 2301 H 208.858 0.232253 3.95318 0
M  V30 2302 H 210.032 3.04773 3.45616 0
M  V30 2303 H 208.347 2.63343 3.22552 0
M  V30 2304 H 210.944 0.770925 5.29113 0
M  V30 2305 H 211.287 -0.491404 4.1339 0
M  V30 2306 H 211.82 1.17438 3.8007 0
M  V30 2307 H 208.559 3.70493 5.40754 0
M  V30 2308 H 208.079 2.00977 5.65127 0
M  V30 2309 H 209.758 2.51765 5.96006 0
M  V30 2310 N 209.89 -1.43072 0.660911 0
M  V30 2311 C 211.301 -1.84932 0.256348 0
M  V30 2312 C 211.652 -1.55325 -1.19868 0
M  V30 2313 O 210.777 -1.00607 -1.91591 0
M  V30 2314 C 211.372 -3.35684 0.458475 0
M  V30 2315 C 209.931 -3.76245 0.108161 0
M  V30 2316 C 209.078 -2.66749 0.757641 0
M  V30 2317 H 212.029 -1.33116 0.864051 0
M  V30 2318 H 212.05 -3.79365 -0.293683 0
M  V30 2319 H 211.562 -3.572 1.51755 0
M  V30 2320 H 209.663 -3.60338 -0.948014 0
M  V30 2321 H 209.776 -4.76058 0.538992 0
M  V30 2322 H 208.14 -2.53989 0.190185 0
M  V30 2323 H 208.923 -2.91092 1.81989 0
M  V30 2324 N 211.368 -0.403325 -1.52352 0
M  V30 2325 C 212.3 0.4603 -2.2453 0
M  V30 2326 C 213.313 1.01505 -1.27282 0
M  V30 2327 O 214.502 0.914982 -1.53266 0
M  V30 2328 C 211.602 1.65208 -2.95905 0
M  V30 2329 C 210.775 1.22224 -4.19976 0
M  V30 2330 C 209.834 2.28028 -4.74226 0
M  V30 2331 O 208.86 1.88857 -5.36956 0
M  V30 2332 N 210.062 3.6012 -4.55295 0
M  V30 2333 H 212.827 -0.158156 -2.99282 0
M  V30 2334 H 210.388 -0.230402 -1.60252 0
M  V30 2335 H 212.38 2.35541 -3.29093 0
M  V30 2336 H 210.95 2.17658 -2.24374 0
M  V30 2337 H 210.17 0.34725 -3.92668 0
M  V30 2338 H 211.458 0.911924 -5.00561 0
M  V30 2339 H 210.856 3.94698 -4.05253 0
M  V30 2340 H 209.413 4.26447 -4.92936 0
M  V30 2341 N 212.846 1.57033 -0.133567 0
M  V30 2342 C 214.123 1.87256 0.56522 0
M  V30 2343 C 214.503 1.03726 1.83859 0
M  V30 2344 O 213.851 0.120247 2.28183 0
M  V30 2345 C 214.061 3.3865 0.843636 0
M  V30 2346 C 215.409 4.07574 1.19032 0
M  V30 2347 O 216.433 3.43752 0.933429 0
M  V30 2348 O 215.292 5.20259 1.67312 0
M  V30 2349 H 212.386 0.775678 0.286796 0
M  V30 2350 H 214.932 1.68855 -0.169168 0
M  V30 2351 H 213.704 3.91257 -0.0581149 0
M  V30 2352 H 213.327 3.62532 1.63268 0
M  V30 2353 N 214.325 -0.140222 1.56975 0
M  V30 2354 C 215.235 -1.19223 2.02047 0
M  V30 2355 C 216.251 -1.46612 0.937062 0
M  V30 2356 O 217.427 -1.58148 1.24704 0
M  V30 2357 C 214.492 -2.50414 2.39778 0
M  V30 2358 C 213.553 -2.30612 3.621 0
M  V30 2359 C 212.786 -3.55547 3.98023 0
M  V30 2360 O 213.009 -4.62004 3.34528 0
M  V30 2361 O 211.943 -3.47808 4.91237 0
M  V30 2362 H 215.769 -0.839559 2.91865 0
M  V30 2363 H 213.354 -0.349453 1.45256 0
M  V30 2364 H 215.236 -3.27747 2.64877 0
M  V30 2365 H 213.911 -2.85198 1.53114 0
M  V30 2366 H 212.818 -1.51207 3.4218 0
M  V30 2367 H 214.151 -2.00741 4.49404 0
M  V30 2368 N 215.803 -1.52179 -0.40978 0
M  V30 2369 C 217.033 -1.69807 -1.17682 0
M  V30 2370 C 217.441 -0.406908 -1.84773 0
M  V30 2371 O 216.784 0.626863 -1.72673 0
M  V30 2372 C 216.846 -2.77712 -2.2829 0
M  V30 2373 C 216.51 -4.19481 -1.81341 0
M  V30 2374 C 217.507 -5.03345 -1.30154 0
M  V30 2375 C 215.192 -4.65713 -1.88194 0
M  V30 2376 C 217.186 -6.31511 -0.864416 0
M  V30 2377 C 214.873 -5.93869 -1.44093 0
M  V30 2378 C 215.871 -6.76597 -0.933023 0
M  V30 2379 O 215.559 -8.02354 -0.49838 0
M  V30 2380 H 215.291 -0.572372 -0.359675 0
M  V30 2381 H 217.845 -1.99511 -0.488311 0
M  V30 2382 H 216.075 -2.43383 -3.00502 0
M  V30 2383 H 217.764 -2.83946 -2.90051 0
M  V30 2384 H 218.53 -4.68819 -1.24232 0
M  V30 2385 H 214.409 -4.01424 -2.26671 0
M  V30 2386 H 217.953 -6.96033 -0.467286 0
M  V30 2387 H 213.85 -6.27903 -1.49694 0
M  V30 2388 H 214.618 -8.16135 -0.621747 0
M  V30 2389 N 217.281 0.66697 -1.42791 0
M  V30 2390 C 218.692 1.2478 -1.38877 0
M  V30 2391 C 219.043 1.96012 -0.0859426 0
M  V30 2392 O 218.168 2.00463 0.815081 0
M  V30 2393 C 218.763 2.26938 -2.51564 0
M  V30 2394 C 217.322 2.80529 -2.50959 0
M  V30 2395 C 216.469 1.54965 -2.29959 0
M  V30 2396 H 219.42 0.459853 -1.51892 0
M  V30 2397 H 219.441 3.08834 -2.22265 0
M  V30 2398 H 218.953 1.75065 -3.46372 0
M  V30 2399 H 217.054 3.36502 -1.59991 0
M  V30 2400 H 217.167 3.29012 -3.48265 0
M  V30 2401 H 215.531 1.81817 -1.78366 0
M  V30 2402 H 216.314 1.05047 -3.26833 0
M  V30 2403 N 218.759 1.29093 0.90403 0
M  V30 2404 C 219.669 1.15727 2.0407 0
M  V30 2405 C 220.685 0.0815308 1.73809 0
M  V30 2406 O 221.861 0.292749 1.99261 0
M  V30 2407 C 218.926 0.830424 3.36608 0
M  V30 2408 C 217.987 1.98955 3.80415 0
M  V30 2409 C 217.22 1.6782 5.06628 0
M  V30 2410 O 217.443 0.597105 5.67266 0
M  V30 2411 O 216.377 2.52486 5.46383 0
M  V30 2412 H 220.203 2.11171 2.18267 0
M  V30 2413 H 217.788 1.08504 1.027 0
M  V30 2414 H 219.67 0.662521 4.16159 0
M  V30 2415 H 218.345 -0.0942678 3.23563 0
M  V30 2416 H 217.252 2.21267 3.01648 0
M  V30 2417 H 218.585 2.89529 3.98037 0
M  V30 2418 N 220.237 -1.11381 1.11499 0
M  V30 2419 C 221.486 -1.82494 0.858993 0
M  V30 2420 C 221.799 -1.85605 -0.617278 0
M  V30 2421 O 223.005 -2.52824 -0.989552 0
M  V30 2422 C 221.461 -3.27745 1.48699 0
M  V30 2423 C 221.069 -3.32961 2.99735 0
M  V30 2424 C 222.813 -4.03754 1.31085 0
M  V30 2425 C 220.72 -4.72612 3.55516 0
M  V30 2426 H 219.65 -0.683802 0.317696 0
M  V30 2427 H 222.301 -1.25331 1.34031 0
M  V30 2428 H 220.683 -3.84844 0.933339 0
M  V30 2429 H 221.857 -2.85741 3.61509 0
M  V30 2430 H 220.172 -2.70433 3.16631 0
M  V30 2431 H 222.769 -5.06891 1.70192 0
M  V30 2432 H 223.112 -4.15527 0.253496 0
M  V30 2433 H 223.645 -3.53043 1.83318 0
M  V30 2434 H 220.384 -4.66036 4.60967 0
M  V30 2435 H 219.904 -5.2024 2.98513 0
M  V30 2436 H 221.583 -5.4157 3.53992 0
M  V30 2437 N 221.715 -0.905404 -1.28997 0
M  V30 2438 C 222.663 -0.377431 -2.29517 0
M  V30 2439 C 223.657 0.526461 -1.61012 0
M  V30 2440 O 224.863 0.40863 -1.753 0
M  V30 2441 H 221.238 -0.103437 -0.744852 0
M  V30 2442 H 223.209 -1.23848 -2.71485 0
M  V30 2443 C 221.958 0.374833 -3.45674 0
M  V30 2444 H 221.281 -0.311474 -3.98585 0
M  V30 2445 H 222.721 0.70903 -4.1803 0
M  V30 2446 C 221.18 1.57963 -2.97572 0
M  V30 2447 O 221.71 2.67886 -2.99333 0
M  V30 2448 N 219.916 1.42375 -2.53333 0
M  V30 2449 H 219.463 0.529466 -2.521 0
M  V30 2450 H 219.421 2.23117 -2.21509 0
M  V30 2451 N 223.193 1.4272 -0.668489 0
M  V30 2452 C 224.44 2.01624 -0.18814 0
M  V30 2453 C 224.768 1.5282 1.20317 0
M  V30 2454 O 224.023 0.718323 1.8204 0
M  V30 2455 C 224.322 3.57021 -0.164499 0
M  V30 2456 C 223.988 4.25232 -1.49962 0
M  V30 2457 C 222.65 4.4358 -1.8652 0
M  V30 2458 C 225.002 4.63727 -2.37921 0
M  V30 2459 C 222.33 4.97694 -3.10674 0
M  V30 2460 C 224.682 5.19218 -3.6138 0
M  V30 2461 C 223.346 5.3578 -3.98115 0
M  V30 2462 H 222.616 0.737795 -0.0688454 0
M  V30 2463 H 225.263 1.70991 -0.862225 0
M  V30 2464 H 223.568 3.87285 0.593079 0
M  V30 2465 H 225.265 4.00372 0.224271 0
M  V30 2466 H 221.855 4.11306 -1.20522 0
M  V30 2467 H 226.039 4.4923 -2.10964 0
M  V30 2468 H 221.295 5.08702 -3.39164 0
M  V30 2469 H 225.469 5.4799 -4.29743 0
M  V30 2470 H 223.096 5.77475 -4.94395 0
M  V30 2471 N 224.671 0.411399 1.52136 0
M  V30 2472 C 225.917 -0.163888 2.02137 0
M  V30 2473 C 226.25 -1.44597 1.29636 0
M  V30 2474 O 225.525 -1.90272 0.403353 0
M  V30 2475 C 225.808 -0.40927 3.57767 0
M  V30 2476 C 225.661 0.889643 4.40914 0
M  V30 2477 C 226.98 -1.19042 4.23694 0
M  V30 2478 H 224.099 -0.0580896 0.734707 0
M  V30 2479 H 226.741 0.54531 1.82007 0
M  V30 2480 H 224.891 -1.0134 3.7505 0
M  V30 2481 H 226.563 1.52575 4.35337 0
M  V30 2482 H 224.806 1.50011 4.07037 0
M  V30 2483 H 225.477 0.672314 5.4789 0
M  V30 2484 H 227.953 -0.678942 4.10524 0
M  V30 2485 H 226.829 -1.33086 5.32522 0
M  V30 2486 H 227.09 -2.21166 3.82803 0
M  V30 2487 N 226.149 -1.5696 0.141893 0
M  V30 2488 C 227.397 -1.95573 -0.509484 0
M  V30 2489 C 227.718 -1.02746 -1.65736 0
M  V30 2490 O 226.988 -0.0880311 -1.95702 0
M  V30 2491 H 225.568 -0.722115 -0.191205 0
M  V30 2492 H 228.23 -1.93697 0.216196 0
M  V30 2493 H 227.326 -2.99171 -0.889 0
M  V30 2494 N 227.627 0.131896 -1.57047 0
M  V30 2495 C 228.557 1.16384 -2.02428 0
M  V30 2496 C 229.538 1.43936 -0.90644 0
M  V30 2497 O 230.723 1.54599 -1.17528 0
M  V30 2498 C 227.853 2.49328 -2.4177 0
M  V30 2499 C 226.807 2.36266 -3.56879 0
M  V30 2500 C 226.133 3.74057 -3.8208 0
M  V30 2501 C 227.433 1.834 -4.89042 0
M  V30 2502 H 229.127 0.786433 -2.88887 0
M  V30 2503 H 226.673 0.376855 -1.38981 0
M  V30 2504 H 228.626 3.21759 -2.7212 0
M  V30 2505 H 227.35 2.88934 -1.52266 0
M  V30 2506 H 226.009 1.66286 -3.26718 0
M  V30 2507 H 225.657 4.11125 -2.89803 0
M  V30 2508 H 225.357 3.66174 -4.59554 0
M  V30 2509 H 226.881 4.48012 -4.1487 0
M  V30 2510 H 228.295 2.45636 -5.18011 0
M  V30 2511 H 226.692 1.8637 -5.70426 0
M  V30 2512 H 227.762 0.790662 -4.7841 0
M  V30 2513 N 229.106 1.52395 0.401703 0
M  V30 2514 C 230.036 1.79231 1.49661 0
M  V30 2515 C 231.017 0.643654 1.57452 0
M  V30 2516 O 232.202 0.889989 1.72606 0
M  V30 2517 C 229.332 1.94971 2.87409 0
M  V30 2518 C 228.286 3.10604 2.94465 0
M  V30 2519 C 227.612 3.11577 4.34538 0
M  V30 2520 C 228.912 4.49921 2.6527 0
M  V30 2521 H 230.606 2.70917 1.27454 0
M  V30 2522 H 228.152 1.30362 0.6117 0
M  V30 2523 H 230.105 2.12328 3.63999 0
M  V30 2524 H 228.829 0.999632 3.10926 0
M  V30 2525 H 227.488 2.93009 2.20321 0
M  V30 2526 H 227.136 2.14277 4.55076 0
M  V30 2527 H 226.836 3.89247 4.40183 0
M  V30 2528 H 228.36 3.31073 5.13053 0
M  V30 2529 H 229.774 4.67683 3.31581 0
M  V30 2530 H 228.171 5.29564 2.82281 0
M  V30 2531 H 229.241 4.57507 1.60671 0
M  V30 2532 N 230.584 -0.659388 1.43143 0
M  V30 2533 C 231.833 -1.41518 1.43721 0
M  V30 2534 C 232.146 -1.95499 0.0628176 0
M  V30 2535 O 233.352 -2.71446 -0.0539683 0
M  V30 2536 C 231.808 -2.5608 2.52885 0
M  V30 2537 C 231.416 -2.08733 3.96402 0
M  V30 2538 C 233.16 -3.3349 2.62649 0
M  V30 2539 C 231.067 -3.20469 4.97045 0
M  V30 2540 H 229.997 -0.531705 0.534608 0
M  V30 2541 H 232.648 -0.712343 1.69109 0
M  V30 2542 H 231.03 -3.28805 2.20688 0
M  V30 2543 H 232.204 -1.43059 4.3803 0
M  V30 2544 H 230.519 -1.44219 3.90627 0
M  V30 2545 H 233.116 -4.16734 3.35017 0
M  V30 2546 H 233.459 -3.8111 1.67513 0
M  V30 2547 H 233.992 -2.67842 2.94118 0
M  V30 2548 H 230.731 -2.77824 5.93712 0
M  V30 2549 H 230.251 -3.84874 4.60034 0
M  V30 2550 H 231.93 -3.85698 5.19467 0
M  V30 2551 N 232.062 -1.29571 -0.897171 0
M  V30 2552 C 233.31 -1.17456 -1.64464 0
M  V30 2553 C 233.631 0.273698 -1.9307 0
M  V30 2554 O 232.901 1.18684 -1.55855 0
M  V30 2555 H 231.481 -0.431706 -0.609622 0
M  V30 2556 H 234.143 -1.62531 -1.07562 0
M  V30 2557 H 233.239 -1.72648 -2.59998 0
M  V30 2558 N 233.54 1.10788 -1.12088 0
M  V30 2559 C 234.951 1.64181 -0.88891 0
M  V30 2560 C 235.302 1.87508 0.577498 0
M  V30 2561 O 234.427 1.61434 1.44112 0
M  V30 2562 C 235.022 2.98257 -1.60712 0
M  V30 2563 C 233.581 3.4853 -1.42139 0
M  V30 2564 C 232.728 2.23208 -1.6454 0
M  V30 2565 H 235.679 0.943368 -1.27618 0
M  V30 2566 H 235.7 3.65552 -1.05604 0
M  V30 2567 H 235.212 2.81246 -2.67436 0
M  V30 2568 H 233.313 3.70692 -0.376552 0
M  V30 2569 H 233.426 4.26882 -2.17505 0
M  V30 2570 H 231.79 2.31169 -1.06925 0
M  V30 2571 H 232.573 2.08733 -2.72554 0
M  V30 2572 N 235.018 0.912232 1.28515 0
M  V30 2573 C 236.434 0.610159 1.47476 0
M  V30 2574 C 236.634 -0.844955 1.82928 0
M  V30 2575 O 235.69 -1.62416 1.93332 0
M  V30 2576 C 237.003 1.54675 2.57868 0
M  V30 2577 C 238.551 1.55331 2.71738 0
M  V30 2578 C 239.026 2.47649 3.85272 0
M  V30 2579 N 240.517 2.45767 3.92623 0
M  V30 2580 C 241.252 3.13896 4.79851 0
M  V30 2581 N 240.748 3.9135 5.71679 0
M  V30 2582 N 242.541 3.02991 4.73448 0
M  V30 2583 H 234.692 1.85318 1.03783 0
M  V30 2584 H 236.955 0.794777 0.516753 0
M  V30 2585 H 236.661 2.5841 2.38574 0
M  V30 2586 H 236.535 1.27671 3.54937 0
M  V30 2587 H 238.922 0.52335 2.90422 0
M  V30 2588 H 239.003 1.86378 1.75205 0
M  V30 2589 H 238.647 3.50745 3.67342 0
M  V30 2590 H 238.577 2.13904 4.81199 0
M  V30 2591 H 241.068 1.89503 3.26951 0
M  V30 2592 H 241.381 4.40359 6.35062 0
M  V30 2593 H 239.726 3.95455 5.71524 0
M  V30 2594 H 242.917 2.41987 4.007 0
M  V30 2595 H 243.09 3.5636 5.41213 0
M  V30 2596 N 236.496 -1.42363 0.676048 0
M  V30 2597 C 237.744 -2.01123 0.198437 0
M  V30 2598 C 238.065 -1.53731 -1.19966 0
M  V30 2599 O 237.335 -0.759518 -1.80577 0
M  V30 2600 H 235.915 -0.743678 0.0703721 0
M  V30 2601 H 238.577 -1.74263 0.872837 0
M  V30 2602 H 237.673 -3.11454 0.200686 0
M  V30 2603 N 237.974 -0.419461 -1.51915 0
M  V30 2604 C 238.922 0.415502 -2.28859 0
M  V30 2605 C 239.916 1.03674 -1.3397 0
M  V30 2606 O 241.122 0.973757 -1.51387 0
M  V30 2607 H 237.497 0.152786 -0.736315 0
M  V30 2608 H 239.468 -0.254531 -2.97312 0
M  V30 2609 C 238.217 1.51425 -3.12995 0
M  V30 2610 H 237.54 1.04556 -3.85886 0
M  V30 2611 H 238.98 2.07208 -3.6992 0
M  V30 2612 C 237.439 2.48745 -2.27217 0
M  V30 2613 O 237.969 3.52871 -1.9195 0
M  V30 2614 N 236.175 2.19202 -1.90785 0
M  V30 2615 H 235.722 1.34556 -2.19664 0
M  V30 2616 H 235.68 2.84561 -1.33687 0
M  V30 2617 N 239.452 1.56882 -0.150215 0
M  V30 2618 C 240.68 2.00593 0.506948 0
M  V30 2619 C 241.095 1.03033 1.58208 0
M  V30 2620 O 240.452 0.0278396 1.82479 0
M  V30 2621 C 240.503 3.44209 1.10465 0
M  V30 2622 O 240.224 4.3804 0.0724636 0
M  V30 2623 C 241.725 4.03214 1.84211 0
M  V30 2624 H 238.945 0.65795 0.13169 0
M  V30 2625 H 241.489 2.03018 -0.245743 0
M  V30 2626 H 239.644 3.42625 1.80795 0
M  V30 2627 H 240.058 5.22007 0.510793 0
M  V30 2628 H 241.532 5.0569 2.21318 0
M  V30 2629 H 242.009 3.44107 2.72923 0
M  V30 2630 H 242.615 4.08437 1.18572 0
M  V30 2631 N 240.93 -0.123565 1.57115 0
M  V30 2632 C 241.86 -1.15309 2.03042 0
M  V30 2633 C 242.841 -1.43454 0.914061 0
M  V30 2634 O 244.026 -1.53973 1.18347 0
M  V30 2635 C 241.156 -2.48043 2.43089 0
M  V30 2636 C 240.11 -2.3437 3.58127 0
M  V30 2637 C 239.436 -3.72026 3.84059 0
M  V30 2638 C 240.736 -1.80804 4.90007 0
M  V30 2639 H 242.43 -0.771102 2.893 0
M  V30 2640 H 239.976 -0.369479 1.39179 0
M  V30 2641 H 241.929 -3.20311 2.73823 0
M  V30 2642 H 240.653 -2.88122 1.53796 0
M  V30 2643 H 239.312 -1.64551 3.27595 0
M  V30 2644 H 238.96 -4.09582 2.91979 0
M  V30 2645 H 238.66 -3.63732 4.6149 0
M  V30 2646 H 240.184 -4.45806 4.1724 0
M  V30 2647 H 241.598 -2.42886 5.19307 0
M  V30 2648 H 239.995 -1.83343 5.71407 0
M  V30 2649 H 241.065 -0.76528 4.78823 0
M  V30 2650 N 242.408 -1.52605 -0.393616 0
M  V30 2651 C 243.355 -1.77055 -1.48054 0
M  V30 2652 C 244.325 -0.61358 -1.54352 0
M  V30 2653 O 245.51 -0.852806 -1.70681 0
M  V30 2654 C 242.65 -1.94108 -2.85335 0
M  V30 2655 C 241.763 -3.21792 -2.88226 0
M  V30 2656 C 240.898 -3.29188 -4.16904 0
M  V30 2657 C 239.937 -4.51013 -4.13828 0
M  V30 2658 N 239.074 -4.55716 -5.34105 0
M  V30 2659 H 243.914 -2.69815 -1.26506 0
M  V30 2660 H 241.451 -1.33683 -0.61379 0
M  V30 2661 H 243.409 -2.01979 -3.65049 0
M  V30 2662 H 242.039 -1.04713 -3.05344 0
M  V30 2663 H 241.091 -3.23015 -2.00911 0
M  V30 2664 H 242.403 -4.11557 -2.8182 0
M  V30 2665 H 241.557 -3.36216 -5.05018 0
M  V30 2666 H 240.296 -2.37389 -4.26026 0
M  V30 2667 H 239.301 -4.44115 -3.24102 0
M  V30 2668 H 240.526 -5.44123 -4.06333 0
M  V30 2669 H 238.472 -3.66807 -5.43865 0
M  V30 2670 H 238.389 -5.39346 -5.29756 0
M  V30 2671 H 239.657 -4.66993 -6.2413 0
M  V30 2672 N 243.887 0.651787 -1.4349 0
M  V30 2673 C 244.835 1.78586 -1.49029 0
M  V30 2674 C 245.829 1.65448 -0.363767 0
M  V30 2675 O 247.035 1.71777 -0.537821 0
M  V30 2676 H 243.41 0.589236 -0.467231 0
M  V30 2677 H 245.381 1.71035 -2.44519 0
M  V30 2678 C 244.13 3.16851 -1.43181 0
M  V30 2679 H 243.453 3.27598 -2.29171 0
M  V30 2680 H 244.893 3.96156 -1.51118 0
M  V30 2681 C 243.352 3.36568 -0.149616 0
M  V30 2682 O 243.882 3.93885 0.788509 0
M  V30 2683 N 242.088 2.90539 -0.0593484 0
M  V30 2684 H 241.635 2.4408 -0.823575 0
M  V30 2685 H 241.593 3.04108 0.797853 0
M  V30 2686 N 245.365 1.30045 0.890287 0
M  V30 2687 C 246.614 1.17929 1.63633 0
M  V30 2688 C 246.927 -0.266204 1.9378 0
M  V30 2689 O 248.133 -0.508804 2.6669 0
M  V30 2690 C 246.589 2.06317 2.94892 0
M  V30 2691 C 246.197 3.55745 2.72305 0
M  V30 2692 C 247.941 2.0295 3.72843 0
M  V30 2693 C 245.848 4.36205 3.99348 0
M  V30 2694 H 244.778 0.437782 0.613892 0
M  V30 2695 H 247.429 1.54754 0.986075 0
M  V30 2696 H 245.811 1.6237 3.61182 0
M  V30 2697 H 246.985 4.07805 2.1455 0
M  V30 2698 H 245.3 3.6088 2.07737 0
M  V30 2699 H 247.897 2.60319 4.67053 0
M  V30 2700 H 248.24 1.0117 4.0382 0
M  V30 2701 H 248.773 2.4499 3.13408 0
M  V30 2702 H 245.512 5.38659 3.73533 0
M  V30 2703 H 245.032 3.8891 4.56628 0
M  V30 2704 H 246.711 4.47362 4.67415 0
M  V30 2705 N 246.843 -1.10192 1.12674 0
M  V30 2706 C 247.753 -2.20172 0.810026 0
M  V30 2707 C 248.769 -1.72821 -0.202188 0
M  V30 2708 O 249.945 -2.01369 -0.0351691 0
M  V30 2709 C 247.01 -3.45631 0.272007 0
M  V30 2710 C 246.071 -4.07704 1.34447 0
M  V30 2711 C 245.304 -5.27175 0.832029 0
M  V30 2712 O 245.527 -5.69425 -0.333284 0
M  V30 2713 O 244.461 -5.80168 1.60277 0
M  V30 2714 H 248.287 -2.49701 1.72867 0
M  V30 2715 H 245.872 -1.18977 0.903597 0
M  V30 2716 H 247.754 -4.21394 -0.0230219 0
M  V30 2717 H 246.429 -3.17723 -0.619164 0
M  V30 2718 H 245.336 -3.33614 1.6927 0
M  V30 2719 H 246.669 -4.3982 2.2095 0
M  V30 2720 N 248.321 -0.919034 -1.28029 0
M  V30 2721 C 249.268 -0.410005 -2.27129 0
M  V30 2722 C 250.238 0.518405 -1.57803 0
M  V30 2723 O 251.423 0.439451 -1.8567 0
M  V30 2724 C 248.563 0.339054 -3.4343 0
M  V30 2725 C 247.676 -0.622468 -4.27492 0
M  V30 2726 C 246.811 0.145567 -5.31001 0
M  V30 2727 C 245.85 -0.809226 -6.06727 0
M  V30 2728 N 244.987 -0.0743728 -7.02061 0
M  V30 2729 H 249.827 -1.26011 -2.70047 0
M  V30 2730 H 247.364 -0.632663 -1.328 0
M  V30 2731 H 249.322 0.789586 -4.0966 0
M  V30 2732 H 247.952 1.15346 -3.01488 0
M  V30 2733 H 247.004 -1.19153 -3.61257 0
M  V30 2734 H 248.316 -1.35252 -4.80113 0
M  V30 2735 H 247.47 0.656417 -6.03139 0
M  V30 2736 H 246.209 0.908643 -4.79161 0
M  V30 2737 H 245.214 -1.3314 -5.33436 0
M  V30 2738 H 246.439 -1.57194 -6.60656 0
M  V30 2739 H 244.385 0.670616 -6.52563 0
M  V30 2740 H 244.302 -0.744157 -7.52329 0
M  V30 2741 H 245.57 0.416109 -7.78389 0
M  V30 2742 N 249.799 1.42003 -0.683588 0
M  V30 2743 C 250.709 2.34597 -0.0109075 0
M  V30 2744 C 251.725 1.55576 0.779245 0
M  V30 2745 O 252.901 1.88107 0.719555 0
M  V30 2746 C 249.966 3.34199 0.922588 0
M  V30 2747 C 249.027 4.29115 0.125984 0
M  V30 2748 C 248.26 5.23959 1.01502 0
M  V30 2749 O 248.483 5.23952 2.25456 0
M  V30 2750 O 247.417 6.00053 0.47111 0
M  V30 2751 H 251.243 2.93675 -0.773853 0
M  V30 2752 H 248.828 1.42654 -0.443861 0
M  V30 2753 H 250.71 3.95365 1.45823 0
M  V30 2754 H 249.385 2.77582 1.66523 0
M  V30 2755 H 248.292 3.71335 -0.453969 0
M  V30 2756 H 249.625 4.88798 -0.577736 0
M  V30 2757 N 251.277 0.427512 1.51691 0
M  V30 2758 C 252.517 -0.141524 2.03909 0
M  V30 2759 C 252.881 -1.40811 1.30523 0
M  V30 2760 O 254.082 -2.05676 1.73063 0
M  V30 2761 C 252.353 -0.364962 3.55532 0
M  V30 2762 S 253.912 -0.898812 4.29496 0
M  V30 2763 H 250.73 -0.0364542 0.710065 0
M  V30 2764 H 253.332 0.584659 1.86553 0
M  V30 2765 H 252.036 0.56336 4.06515 0
M  V30 2766 H 251.567 -1.1185 3.77164 0
M  V30 2767 H 253.582 -2.17747 4.45871 0
M  V30 2768 N 252.755 -1.56801 0.158532 0
M  V30 2769 C 253.703 -2.18638 -0.793729 0
M  V30 2770 C 254.697 -1.14669 -1.24689 0
M  V30 2771 O 255.903 -1.32895 -1.21403 0
M  V30 2772 H 252.278 -0.700226 -0.274204 0
M  V30 2773 H 254.249 -2.97367 -0.248095 0
M  V30 2774 C 252.998 -2.83139 -2.0181 0
M  V30 2775 H 252.321 -3.62863 -1.67841 0
M  V30 2776 H 253.761 -3.29894 -2.66357 0
M  V30 2777 C 252.22 -1.82244 -2.83353 0
M  V30 2778 O 252.75 -1.3 -3.80083 0
M  V30 2779 N 250.956 -1.51288 -2.48114 0
M  V30 2780 H 250.503 -1.93964 -1.69516 0
M  V30 2781 H 250.461 -0.840296 -3.02963 0
M  V30 2782 N 254.233 0.115231 -1.57178 0
M  V30 2783 C 255.196 1.12526 -1.99676 0
M  V30 2784 C 256.196 1.34095 -0.88742 0
M  V30 2785 O 257.386 1.30548 -1.15337 0
M  V30 2786 C 254.518 2.4789 -2.34015 0
M  V30 2787 H 255.711 0.759912 -2.90113 0
M  V30 2788 H 253.264 0.359648 -1.52106 0
M  V30 2789 H 253.999 2.89339 -1.4647 0
M  V30 2790 H 253.784 2.33588 -3.14927 0
M  V30 2791 H 255.274 3.20575 -2.67622 0
M  V30 2792 N 255.711 1.52812 0.385517 0
M  V30 2793 C 256.658 1.77838 1.47113 0
M  V30 2794 C 257.628 0.621757 1.54024 0
M  V30 2795 O 258.813 0.861846 1.70226 0
M  V30 2796 C 255.953 1.95618 2.84302 0
M  V30 2797 C 255.066 3.23316 2.86515 0
M  V30 2798 C 254.201 3.31394 4.15152 0
M  V30 2799 C 253.24 4.53201 4.1143 0
M  V30 2800 N 252.377 4.58542 5.3168 0
M  V30 2801 H 257.217 2.70482 1.25073 0
M  V30 2802 H 254.754 1.34006 0.606692 0
M  V30 2803 H 256.712 2.03912 3.63972 0
M  V30 2804 H 255.342 1.06331 3.04784 0
M  V30 2805 H 254.394 3.24076 1.99195 0
M  V30 2806 H 255.706 4.13045 2.79634 0
M  V30 2807 H 254.86 3.3889 5.03228 0
M  V30 2808 H 253.599 2.39645 4.24761 0
M  V30 2809 H 252.604 4.45827 3.21742 0
M  V30 2810 H 253.829 5.46271 4.03442 0
M  V30 2811 H 251.775 3.69686 5.41912 0
M  V30 2812 H 251.692 5.42148 5.26889 0
M  V30 2813 H 252.96 4.70296 6.21644 0
M  V30 2814 N 257.189 -0.644168 1.43834 0
M  V30 2815 C 258.438 -1.39985 1.45214 0
M  V30 2816 C 258.751 -1.95421 0.0835494 0
M  V30 2817 O 259.957 -2.71488 -0.0251748 0
M  V30 2818 C 258.413 -2.53384 2.55587 0
M  V30 2819 C 258.021 -2.04517 3.98594 0
M  V30 2820 C 259.765 -3.30685 2.66172 0
M  V30 2821 C 257.672 -3.1518 5.00416 0
M  V30 2822 H 256.602 -0.526005 0.540218 0
M  V30 2823 H 259.253 -0.694367 1.69855 0
M  V30 2824 H 257.635 -3.26446 2.24163 0
M  V30 2825 H 258.809 -1.38405 4.39523 0
M  V30 2826 H 257.124 -1.40068 3.92135 0
M  V30 2827 H 259.721 -4.13158 3.39418 0
M  V30 2828 H 260.064 -3.79312 1.71546 0
M  V30 2829 H 260.597 -2.64708 2.96942 0
M  V30 2830 H 257.336 -2.71511 5.96625 0
M  V30 2831 H 256.856 -3.79974 4.64091 0
M  V30 2832 H 258.535 -3.80166 5.23529 0
M  V30 2833 N 258.668 -1.30515 -0.883378 0
M  V30 2834 C 259.601 -1.11359 -1.99184 0
M  V30 2835 C 260.579 -0.0207858 -1.62587 0
M  V30 2836 O 261.763 -0.174646 -1.87689 0
M  V30 2837 C 258.89 -0.69871 -3.31415 0
M  V30 2838 C 257.936 -1.79261 -3.86998 0
M  V30 2839 S 258.769 -3.39536 -4.14096 0
M  V30 2840 C 259.925 -2.99954 -5.49344 0
M  V30 2841 H 260.158 -2.052 -2.15128 0
M  V30 2842 H 257.691 -1.14847 -1.03196 0
M  V30 2843 H 259.649 -0.466075 -4.07846 0
M  V30 2844 H 258.31 0.220368 -3.13326 0
M  V30 2845 H 257.503 -1.45464 -4.82552 0
M  V30 2846 H 257.105 -1.97961 -3.17313 0
M  V30 2847 H 259.397 -2.48013 -6.30473 0
M  V30 2848 H 260.34 -3.9442 -5.8808 0
M  V30 2849 H 260.748 -2.37775 -5.1198 0
M  V30 2850 N 260.146 1.09593 -1.13257 0
M  V30 2851 C 261.395 1.81105 -0.887917 0
M  V30 2852 C 261.708 1.86563 0.587672 0
M  V30 2853 O 262.914 2.54367 0.949204 0
M  V30 2854 C 261.37 3.25338 -1.53895 0
M  V30 2855 C 260.978 3.28151 -3.04994 0
M  V30 2856 C 262.722 4.01617 -1.37492 0
M  V30 2857 C 260.629 4.66897 -3.6299 0
M  V30 2858 H 259.559 0.678661 -0.328534 0
M  V30 2859 H 262.21 1.23183 -1.36008 0
M  V30 2860 H 260.592 3.8331 -0.994446 0
M  V30 2861 H 261.766 2.79953 -3.66009 0
M  V30 2862 H 260.081 2.65361 -3.20893 0
M  V30 2863 H 262.678 5.04119 -1.78235 0
M  V30 2864 H 263.021 4.15072 -0.31957 0
M  V30 2865 H 263.554 3.50082 -1.88912 0
M  V30 2866 H 260.293 4.58643 -4.68323 0
M  V30 2867 H 259.813 5.15426 -3.06752 0
M  V30 2868 H 261.492 5.3587 -3.62563 0
M  V30 2869 N 261.624 0.925811 1.2754 0
M  V30 2870 C 263.04 0.625767 1.46821 0
M  V30 2871 C 263.24 -0.825506 1.83814 0
M  V30 2872 O 262.296 -1.60356 1.95044 0
M  V30 2873 C 263.609 1.57402 2.56213 0
M  V30 2874 C 265.157 1.58204 2.70075 0
M  V30 2875 C 265.632 2.51721 3.82623 0
M  V30 2876 N 267.123 2.49917 3.89994 0
M  V30 2877 C 267.858 3.18968 4.76494 0
M  V30 2878 N 267.354 3.97391 5.67496 0
M  V30 2879 N 269.147 3.07996 4.70208 0
M  V30 2880 H 261.298 1.86409 1.01811 0
M  V30 2881 H 263.561 0.800213 0.508295 0
M  V30 2882 H 263.267 2.60925 2.35819 0
M  V30 2883 H 263.141 1.31428 3.53563 0
M  V30 2884 H 265.528 0.554124 2.89851 0
M  V30 2885 H 265.609 1.88226 1.73218 0
M  V30 2886 H 265.253 3.54622 3.63601 0
M  V30 2887 H 265.183 2.18996 4.78903 0
M  V30 2888 H 267.674 1.9296 3.24923 0
M  V30 2889 H 267.987 4.4707 6.30356 0
M  V30 2890 H 266.332 4.01495 5.67298 0
M  V30 2891 H 269.523 2.46223 3.9811 0
M  V30 2892 H 269.696 3.6208 5.37403 0
M  V30 2893 N 263.102 -1.41638 0.69111 0
M  V30 2894 C 264.35 -2.00902 0.219758 0
M  V30 2895 C 264.671 -1.54994 -1.18329 0
M  V30 2896 O 263.941 -0.778628 -1.79762 0
M  V30 2897 H 262.521 -0.74289 0.0782558 0
M  V30 2898 H 265.183 -1.73327 0.891271 0
M  V30 2899 H 264.279 -3.11224 0.233708 0
M  V30 2900 N 264.58 -0.43555 -1.51462 0
M  V30 2901 C 265.527 0.376797 -2.27703 0
M  V30 2902 C 266.497 1.01838 -1.31219 0
M  V30 2903 O 267.682 1.03762 -1.60119 0
M  V30 2904 C 264.822 1.47301 -3.12084 0
M  V30 2905 C 263.935 0.849744 -4.2356 0
M  V30 2906 C 263.07 1.92086 -4.95254 0
M  V30 2907 C 262.109 1.27593 -5.98654 0
M  V30 2908 N 261.246 2.28833 -6.63762 0
M  V30 2909 H 266.086 -0.279734 -2.96684 0
M  V30 2910 H 263.623 -0.149795 -1.46335 0
M  V30 2911 H 265.581 2.11984 -3.59331 0
M  V30 2912 H 264.211 2.0992 -2.45221 0
M  V30 2913 H 263.263 0.0912529 -3.80291 0
M  V30 2914 H 264.575 0.338878 -4.97648 0
M  V30 2915 H 263.729 2.64435 -5.46039 0
M  V30 2916 H 262.468 2.46545 -4.20793 0
M  V30 2917 H 261.473 0.537893 -5.47162 0
M  V30 2918 H 262.698 0.738693 -6.7507 0
M  V30 2919 H 260.644 2.82375 -5.92115 0
M  V30 2920 H 260.561 1.82632 -7.33608 0
M  V30 2921 H 261.829 3.00671 -7.19178 0
M  V30 2922 N 266.058 1.56714 -0.166846 0
M  V30 2923 C 267.306 1.96358 0.478305 0
M  V30 2924 C 267.627 1.0537 1.6408 0
M  V30 2925 O 266.897 0.119154 1.95537 0
M  V30 2926 H 265.477 0.725065 0.179692 0
M  V30 2927 H 268.139 1.93329 -0.246985 0
M  V30 2928 H 267.235 3.00547 0.841292 0
M  V30 2929 N 267.536 -0.106894 1.57237 0
M  V30 2930 C 268.761 -0.830287 1.90055 0
M  V30 2931 C 269.186 -1.72064 0.75998 0
M  V30 2932 O 268.544 -1.78982 -0.288991 0
M  V30 2933 C 268.592 -1.6295 3.21683 0
M  V30 2934 O 267.696 -2.73748 3.08441 0
M  V30 2935 H 267.037 -0.228855 0.623315 0
M  V30 2936 H 269.567 -0.085658 2.04421 0
M  V30 2937 H 269.577 -2.01621 3.54701 0
M  V30 2938 H 268.252 -0.975989 4.04286 0
M  V30 2939 H 266.829 -2.38192 2.86913 0
M  V30 2940 N 269.014 -1.53014 -0.377408 0
M  V30 2941 C 270.26 -1.68872 -1.12294 0
M  V30 2942 C 270.593 -0.433224 -1.89306 0
M  V30 2943 O 269.868 0.569258 -1.85983 0
M  V30 2944 C 270.151 -2.93115 -2.09179 0
M  V30 2945 C 270.004 -4.28794 -1.35853 0
M  V30 2946 C 271.323 -3.12928 -3.09458 0
M  V30 2947 H 268.442 -0.614518 -0.406862 0
M  V30 2948 H 271.084 -1.85633 -0.40503 0
M  V30 2949 H 269.234 -2.78956 -2.70399 0
M  V30 2950 H 270.906 -4.54742 -0.775082 0
M  V30 2951 H 269.149 -4.28744 -0.660364 0
M  V30 2952 H 269.82 -5.11837 -2.06706 0
M  V30 2953 H 272.296 -3.26194 -2.58334 0
M  V30 2954 H 271.172 -4.01316 -3.74482 0
M  V30 2955 H 271.433 -2.27669 -3.78971 0
M  V30 2956 N 270.492 0.636531 -1.44174 0
M  V30 2957 C 271.439 1.74875 -1.50624 0
M  V30 2958 C 272.409 1.62275 -0.35442 0
M  V30 2959 O 273.594 1.82276 -0.563908 0
M  V30 2960 C 270.734 3.13102 -1.45125 0
M  V30 2961 C 269.847 3.36717 -2.7064 0
M  V30 2962 C 268.982 4.64885 -2.57013 0
M  V30 2963 C 268.021 4.8166 -3.77717 0
M  V30 2964 N 267.158 6.01101 -3.62798 0
M  V30 2965 H 271.998 1.68697 -2.45653 0
M  V30 2966 H 269.535 0.823004 -1.21922 0
M  V30 2967 H 271.493 3.93034 -1.39929 0
M  V30 2968 H 270.123 3.18308 -0.536671 0
M  V30 2969 H 269.175 2.50763 -2.86046 0
M  V30 2970 H 270.487 3.44993 -3.60252 0
M  V30 2971 H 269.641 5.52969 -2.49619 0
M  V30 2972 H 268.38 4.58957 -1.64953 0
M  V30 2973 H 267.385 3.92007 -3.85501 0
M  V30 2974 H 268.61 4.89406 -4.70807 0
M  V30 2975 H 266.556 5.96273 -2.73486 0
M  V30 2976 H 266.473 6.10409 -4.46023 0
M  V30 2977 H 267.741 6.91761 -3.59286 0
M  V30 2978 N 271.97 1.30982 0.876444 0
M  V30 2979 C 272.88 1.2003 2.01569 0
M  V30 2980 C 273.896 0.11838 1.73597 0
M  V30 2981 O 275.072 0.33495 1.98595 0
M  V30 2982 C 272.137 0.901637 3.34771 0
M  V30 2983 C 271.198 2.06979 3.76109 0
M  V30 2984 C 270.431 1.78529 5.02954 0
M  V30 2985 O 270.654 0.717296 5.65872 0
M  V30 2986 O 269.588 2.64019 5.40905 0
M  V30 2987 H 273.414 2.15753 2.13739 0
M  V30 2988 H 270.999 1.10658 1.00375 0
M  V30 2989 H 272.881 0.750645 4.1466 0
M  V30 2990 H 271.556 -0.0256141 3.2369 0
M  V30 2991 H 270.463 2.27616 2.96887 0
M  V30 2992 H 271.796 2.97907 3.91807 0
M  V30 2993 N 273.449 -1.08991 1.13837 0
M  V30 2994 C 274.697 -1.80899 0.901098 0
M  V30 2995 C 275.018 -1.86356 -0.574134 0
M  V30 2996 O 274.288 -1.35235 -1.41733 0
M  V30 2997 H 272.868 -0.669966 0.330386 0
M  V30 2998 H 275.53 -1.318 1.43578 0
M  V30 2999 H 274.626 -2.83929 1.29578 0
M  V30 3000 N 274.927 -0.932562 -1.27047 0
M  V30 3001 C 275.874 -0.434072 -2.26681 0
M  V30 3002 C 276.844 0.501639 -1.58344 0
M  V30 3003 O 278.029 0.419734 -1.86126 0
M  V30 3004 C 275.169 0.30261 -3.43771 0
M  V30 3005 C 274.282 -0.667774 -4.26808 0
M  V30 3006 C 273.417 0.0892393 -5.31125 0
M  V30 3007 C 272.456 -0.873532 -6.05835 0
M  V30 3008 N 271.593 -0.148832 -7.01942 0
M  V30 3009 H 276.433 -1.28868 -2.68695 0
M  V30 3010 H 273.97 -0.646713 -1.32121 0
M  V30 3011 H 275.928 0.746092 -4.10474 0
M  V30 3012 H 274.558 1.12142 -3.02695 0
M  V30 3013 H 273.61 -1.22978 -3.59973 0
M  V30 3014 H 274.922 -1.40337 -4.78651 0
M  V30 3015 H 274.076 0.592409 -6.03801 0
M  V30 3016 H 272.815 0.85777 -4.80097 0
M  V30 3017 H 271.82 -1.38791 -5.31994 0
M  V30 3018 H 273.045 -1.64193 -6.58952 0
M  V30 3019 H 270.991 0.601365 -6.53238 0
M  V30 3020 H 270.908 -0.82391 -7.51497 0
M  V30 3021 H 272.176 0.333527 -7.78786 0
M  V30 3022 N 276.405 1.4127 -0.698611 0
M  V30 3023 C 277.651 2.01478 -0.231207 0
M  V30 3024 C 277.984 1.55215 1.16713 0
M  V30 3025 O 277.259 0.764672 1.78838 0
M  V30 3026 C 277.542 3.58912 -0.292281 0
M  V30 3027 C 277.395 4.15293 -1.72778 0
M  V30 3028 C 278.714 4.38736 0.346194 0
M  V30 3029 H 275.833 0.732025 -0.0854878 0
M  V30 3030 H 278.475 1.67977 -0.887906 0
M  V30 3031 H 276.625 3.87582 0.26686 0
M  V30 3032 H 278.297 3.97486 -2.341 0
M  V30 3033 H 276.54 3.7022 -2.26096 0
M  V30 3034 H 277.211 5.24452 -1.72202 0
M  V30 3035 H 279.687 4.15897 -0.130035 0
M  V30 3036 H 278.563 5.48221 0.272932 0
M  V30 3037 H 278.824 4.18425 1.42734 0
M  V30 3038 N 277.883 0.443576 1.51229 0
M  V30 3039 C 279.131 -0.120557 2.0174 0
M  V30 3040 C 279.452 -1.42665 1.32935 0
M  V30 3041 O 278.722 -1.9028 0.465866 0
M  V30 3042 H 277.302 -0.0475426 0.745486 0
M  V30 3043 H 279.964 0.587711 1.85828 0
M  V30 3044 H 279.06 -0.291972 3.10731 0
M  V30 3045 N 279.361 -1.56624 0.175154 0
M  V30 3046 C 280.777 -1.58571 -0.180966 0
M  V30 3047 C 280.977 -1.19065 -1.6256 0
M  V30 3048 O 280.033 -0.904044 -2.35761 0
M  V30 3049 C 281.346 -3.00522 0.103326 0
M  V30 3050 C 282.894 -3.12972 0.0418426 0
M  V30 3051 C 283.369 -4.57022 0.299175 0
M  V30 3052 N 284.86 -4.62541 0.247086 0
M  V30 3053 C 285.595 -5.71857 0.420318 0
M  V30 3054 N 285.091 -6.89717 0.652816 0
M  V30 3055 N 286.884 -5.60972 0.355957 0
M  V30 3056 H 279.035 -1.80589 1.11809 0
M  V30 3057 H 281.298 -0.837178 0.444788 0
M  V30 3058 H 281.004 -3.33916 1.10422 0
M  V30 3059 H 280.878 -3.72344 -0.603299 0
M  V30 3060 H 283.265 -2.79403 -0.949636 0
M  V30 3061 H 283.346 -2.43578 0.781238 0
M  V30 3062 H 282.99 -4.913 1.28788 0
M  V30 3063 H 282.92 -5.24579 -0.460876 0
M  V30 3064 H 285.411 -3.77829 0.0731895 0
M  V30 3065 H 285.724 -7.68911 0.774347 0
M  V30 3066 H 284.069 -6.91572 0.689476 0
M  V30 3067 H 287.26 -4.67773 0.174882 0
M  V30 3068 H 287.433 -6.46111 0.494388 0
M  V30 3069 N 280.839 0.0985539 -1.57292 0
M  V30 3070 C 281.786 1.11981 -2.01814 0
M  V30 3071 C 282.756 1.39999 -0.89384 0
M  V30 3072 O 283.941 1.5152 -1.15958 0
M  V30 3073 C 281.081 2.43577 -2.44467 0
M  V30 3074 C 280.194 2.2232 -3.70402 0
M  V30 3075 C 279.329 3.4729 -4.01949 0
M  V30 3076 C 278.368 3.2128 -5.21005 0
M  V30 3077 N 277.505 4.38507 -5.48321 0
M  V30 3078 H 282.345 0.733149 -2.88841 0
M  V30 3079 H 279.882 0.350482 -1.42864 0
M  V30 3080 H 281.84 3.20373 -2.6724 0
M  V30 3081 H 280.47 2.80097 -1.60455 0
M  V30 3082 H 279.522 1.36343 -3.55126 0
M  V30 3083 H 280.834 1.99089 -4.57345 0
M  V30 3084 H 279.988 4.32495 -4.25479 0
M  V30 3085 H 278.727 3.73572 -3.13521 0
M  V30 3086 H 277.732 2.34468 -4.97298 0
M  V30 3087 H 278.957 2.96348 -6.11028 0
M  V30 3088 H 276.903 4.64871 -4.62851 0
M  V30 3089 H 276.82 4.18455 -6.29628 0
M  V30 3090 H 278.088 5.24787 -5.76385 0
M  V30 3091 N 282.317 1.53212 0.369288 0
M  V30 3092 C 283.594 1.59815 1.12776 0
M  V30 3093 C 283.974 0.403402 2.0721 0
M  V30 3094 O 283.322 -0.606667 2.20299 0
M  V30 3095 C 283.532 2.94664 1.87013 0
M  V30 3096 C 284.88 3.49109 2.41677 0
M  V30 3097 O 285.904 2.96669 1.97144 0
M  V30 3098 O 284.763 4.40775 3.23079 0
M  V30 3099 H 281.857 0.645376 0.517125 0
M  V30 3100 H 284.403 1.65553 0.37285 0
M  V30 3101 H 283.175 3.73061 1.18071 0
M  V30 3102 H 282.798 2.92401 2.69421 0
M  V30 3103 N 283.795 -0.628877 1.44509 0
M  V30 3104 C 285.043 -1.38565 1.4712 0
M  V30 3105 C 285.364 -1.94712 0.105899 0
M  V30 3106 O 284.634 -1.75912 -0.862079 0
M  V30 3107 H 283.214 -0.514333 0.541729 0
M  V30 3108 H 285.876 -0.740018 1.80305 0
M  V30 3109 H 284.972 -2.21583 2.19789 0
M  V30 3110 N 285.273 -1.31445 -0.869486 0
M  V30 3111 C 286.205 -1.14955 -1.98287 0
M  V30 3112 C 287.218 -0.0885037 -1.62559 0
M  V30 3113 O 288.407 -0.336044 -1.75308 0
M  V30 3114 C 285.507 -0.734255 -3.3085 0
M  V30 3115 C 284.68 -1.88042 -3.94917 0
M  V30 3116 C 283.739 -1.4511 -5.05796 0
M  V30 3117 O 282.765 -2.16082 -5.2659 0
M  V30 3118 N 283.967 -0.338763 -5.79511 0
M  V30 3119 H 286.732 -2.10856 -2.12979 0
M  V30 3120 H 284.293 -1.23786 -1.04349 0
M  V30 3121 H 286.285 -0.42975 -4.02412 0
M  V30 3122 H 284.855 0.133158 -3.12316 0
M  V30 3123 H 284.075 -2.35222 -3.1633 0
M  V30 3124 H 285.363 -2.6481 -4.34457 0
M  V30 3125 H 284.761 0.252274 -5.65137 0
M  V30 3126 H 283.318 -0.0937925 -6.51733 0
M  V30 3127 N 286.751 1.08385 -1.14413 0
M  V30 3128 C 287.684 2.14642 -0.774871 0
M  V30 3129 C 288.662 1.60761 0.243876 0
M  V30 3130 O 289.846 1.88031 0.132883 0
M  V30 3131 C 286.973 3.38366 -0.150491 0
M  V30 3132 C 286.019 4.10997 -1.13945 0
M  V30 3133 S 286.852 4.63797 -2.67679 0
M  V30 3134 C 288.008 5.90808 -2.06631 0
M  V30 3135 H 288.241 2.45633 -1.67487 0
M  V30 3136 H 285.774 1.20498 -0.96538 0
M  V30 3137 H 287.732 4.09996 0.203334 0
M  V30 3138 H 286.393 3.05572 0.72694 0
M  V30 3139 H 285.586 4.99783 -0.65059 0
M  V30 3140 H 285.188 3.4528 -1.43727 0
M  V30 3141 H 287.48 6.62411 -1.4219 0
M  V30 3142 H 288.423 6.4439 -2.93542 0
M  V30 3143 H 288.831 5.4383 -1.51357 0
M  V30 3144 N 288.23 0.939286 1.26551 0
M  V30 3145 C 289.16 0.465044 2.28822 0
M  V30 3146 C 290.141 -0.480692 1.63167 0
M  V30 3147 O 291.326 -0.382955 1.90387 0
M  V30 3148 C 288.456 -0.27234 3.46231 0
M  V30 3149 C 287.41 0.58666 4.2396 0
M  V30 3150 C 286.736 -0.280573 5.33963 0
M  V30 3151 C 288.036 1.85704 4.88171 0
M  V30 3152 H 289.73 1.31979 2.68741 0
M  V30 3153 H 287.276 0.636061 1.29191 0
M  V30 3154 H 289.229 -0.615133 4.16886 0
M  V30 3155 H 287.953 -1.16121 3.0526 0
M  V30 3156 H 286.612 0.91232 3.55067 0
M  V30 3157 H 286.26 -1.16874 4.89234 0
M  V30 3158 H 285.96 0.29076 5.8688 0
M  V30 3159 H 287.484 -0.618678 6.07458 0
M  V30 3160 H 288.898 1.58161 5.51052 0
M  V30 3161 H 287.295 2.37279 5.51197 0
M  V30 3162 H 288.365 2.56957 4.11219 0
M  V30 3163 N 289.708 -1.40897 0.706093 0
M  V30 3164 C 291.119 -1.84023 0.315052 0
M  V30 3165 C 291.47 -1.5906 -1.14866 0
M  V30 3166 O 290.595 -1.06651 -1.88293 0
M  V30 3167 C 291.19 -3.34055 0.565038 0
M  V30 3168 C 289.749 -3.7571 0.227806 0
M  V30 3169 C 288.896 -2.64204 0.842122 0
M  V30 3170 H 291.847 -1.303 0.905963 0
M  V30 3171 H 291.868 -3.80107 -0.172843 0
M  V30 3172 H 291.38 -3.52192 1.63042 0
M  V30 3173 H 289.481 -3.63172 -0.832895 0
M  V30 3174 H 289.594 -4.74103 0.690174 0
M  V30 3175 H 287.958 -2.53255 0.270893 0
M  V30 3176 H 288.741 -2.85155 1.91158 0
M  V30 3177 N 291.186 -0.45159 -1.50991 0
M  V30 3178 C 292.434 0.109857 -2.01801 0
M  V30 3179 C 292.755 1.41958 -1.3369 0
M  V30 3180 O 292.025 1.9003 -0.475951 0
M  V30 3181 H 290.605 0.0435884 -0.745727 0
M  V30 3182 H 293.267 -0.597557 -1.85514 0
M  V30 3183 H 292.363 0.275489 -3.10882 0
M  V30 3184 N 292.664 1.56529 -0.183458 0
M  V30 3185 C 293.574 2.22144 0.754272 0
M  V30 3186 C 294.59 1.21684 1.24374 0
M  V30 3187 O 295.766 1.54385 1.29333 0
M  V30 3188 C 292.831 2.85884 1.96141 0
M  V30 3189 C 291.892 4.01579 1.51765 0
M  V30 3190 C 291.125 4.6227 2.66725 0
M  V30 3191 O 291.348 4.21865 3.83909 0
M  V30 3192 O 290.282 5.51936 2.40104 0
M  V30 3193 H 294.108 3.02861 0.225527 0
M  V30 3194 H 291.693 1.49331 0.0453032 0
M  V30 3195 H 293.575 3.26253 2.66715 0
M  V30 3196 H 292.25 2.08154 2.47899 0
M  V30 3197 H 291.157 3.65856 0.781049 0
M  V30 3198 H 292.49 4.80938 1.04686 0
M  V30 3199 N 294.142 -0.090211 1.57342 0
M  V30 3200 C 295.419 -0.824761 1.77361 0
M  V30 3201 C 295.799 -1.96698 0.76637 0
M  V30 3202 O 295.147 -2.27586 -0.204179 0
M  V30 3203 C 295.357 -1.31481 3.23286 0
M  V30 3204 C 296.705 -1.75563 3.86604 0
M  V30 3205 O 297.729 -1.41093 3.27065 0
M  V30 3206 O 296.588 -2.39317 4.91314 0
M  V30 3207 H 293.682 -0.393776 0.727234 0
M  V30 3208 H 296.228 -0.0717138 1.69548 0
M  V30 3209 H 295 -0.496671 3.88135 0
M  V30 3210 H 294.623 -2.12973 3.35751 0
M  V30 3211 N 295.62 -1.53406 -0.361157 0
M  V30 3212 C 296.53 -1.83122 -1.4664 0
M  V30 3213 C 297.546 -0.719943 -1.58407 0
M  V30 3214 O 298.722 -1.01046 -1.74218 0
M  V30 3215 C 295.787 -2.01891 -2.81853 0
M  V30 3216 C 294.848 -3.25784 -2.79577 0
M  V30 3217 C 294.081 -3.43648 -4.0834 0
M  V30 3218 O 294.304 -2.65714 -5.0473 0
M  V30 3219 O 293.238 -4.37018 -4.13883 0
M  V30 3220 H 297.064 -2.7703 -1.24451 0
M  V30 3221 H 294.649 -1.38841 -0.551678 0
M  V30 3222 H 296.531 -2.15782 -3.61962 0
M  V30 3223 H 295.206 -1.11173 -3.0401 0
M  V30 3224 H 294.113 -3.17312 -1.98151 0
M  V30 3225 H 295.446 -4.16439 -2.62373 0
M  V30 3226 N 297.098 0.621204 -1.44841 0
M  V30 3227 C 298.509 1.20298 -1.42777 0
M  V30 3228 C 298.86 1.95639 -0.148259 0
M  V30 3229 O 297.985 2.02955 0.750892 0
M  V30 3230 C 298.58 2.1882 -2.58657 0
M  V30 3231 C 297.139 2.72403 -2.59756 0
M  V30 3232 C 296.286 1.4757 -2.34773 0
M  V30 3233 H 299.237 0.411297 -1.53278 0
M  V30 3234 H 299.258 3.01607 -2.31977 0
M  V30 3235 H 298.77 1.63957 -3.51766 0
M  V30 3236 H 296.871 3.31242 -1.70615 0
M  V30 3237 H 296.984 3.17765 -3.58556 0
M  V30 3238 H 295.348 1.76051 -1.8406 0
M  V30 3239 H 296.131 0.945954 -3.3001 0
M  V30 3240 N 298.576 1.31904 0.862503 0
M  V30 3241 C 299.506 1.22782 1.98612 0
M  V30 3242 C 300.487 0.113362 1.69722 0
M  V30 3243 O 301.672 0.299218 1.91881 0
M  V30 3244 C 298.802 0.942058 3.34279 0
M  V30 3245 C 297.756 2.0169 3.77499 0
M  V30 3246 C 297.082 1.58369 5.10709 0
M  V30 3247 C 298.382 3.43096 3.93805 0
M  V30 3248 H 300.076 2.16788 2.06502 0
M  V30 3249 H 297.622 1.04366 0.992154 0
M  V30 3250 H 299.575 0.864818 4.1243 0
M  V30 3251 H 298.299 -0.0336603 3.26583 0
M  V30 3252 H 296.958 2.08416 3.01593 0
M  V30 3253 H 296.606 0.595628 4.99461 0
M  V30 3254 H 296.306 2.30279 5.40597 0
M  V30 3255 H 297.83 1.52067 5.91361 0
M  V30 3256 H 299.244 3.39003 4.62331 0
M  V30 3257 H 297.641 4.13288 4.35101 0
M  V30 3258 H 298.711 3.83334 2.96957 0
M  V30 3259 N 300.054 -1.07777 1.14986 0
M  V30 3260 C 301.004 -2.13082 0.811181 0
M  V30 3261 C 301.988 -1.59619 -0.202597 0
M  V30 3262 O 303.18 -1.77 -0.00398275 0
M  V30 3263 C 300.309 -3.42009 0.297439 0
M  V30 3264 C 299.395 -4.02337 1.34112 0
M  V30 3265 N 299.786 -4.36982 2.54716 0
M  V30 3266 C 298.084 -4.29752 1.19285 0
M  V30 3267 C 298.785 -4.84729 3.21578 0
M  V30 3268 N 297.761 -4.83233 2.48972 0
M  V30 3269 H 301.563 -2.37696 1.72853 0
M  V30 3270 H 299.077 -1.25173 1.03468 0
M  V30 3271 H 301.074 -4.16884 0.0364777 0
M  V30 3272 H 299.734 -3.18841 -0.614022 0
M  V30 3273 H 300.745 -4.27807 2.91894 0
M  V30 3274 H 297.422 -4.16106 0.340926 0
M  V30 3275 H 298.812 -5.20863 4.24442 0
M  V30 3276 N 301.532 -0.945985 -1.26051 0
M  V30 3277 C 302.495 -0.463897 -2.24456 0
M  V30 3278 C 303.495 0.427655 -1.55009 0
M  V30 3279 O 304.685 0.226157 -1.72726 0
M  V30 3280 C 301.817 0.330812 -3.39291 0
M  V30 3281 H 303.01 -1.33357 -2.68619 0
M  V30 3282 H 300.563 -0.728416 -1.38289 0
M  V30 3283 H 301.298 1.21852 -3.00537 0
M  V30 3284 H 301.083 -0.308679 -3.90883 0
M  V30 3285 H 302.573 0.657865 -4.12386 0
M  V30 3286 N 303.011 1.40521 -0.713556 0
M  V30 3287 C 303.941 2.33381 -0.0743864 0
M  V30 3288 C 304.922 1.52784 0.747735 0
M  V30 3289 O 306.107 1.81258 0.697071 0
M  V30 3290 C 303.237 3.36748 0.849598 0
M  V30 3291 C 302.191 4.27793 0.133247 0
M  V30 3292 C 301.517 5.21679 1.17281 0
M  V30 3293 C 302.817 5.12415 -1.01134 0
M  V30 3294 H 304.511 2.87081 -0.850007 0
M  V30 3295 H 302.057 1.38034 -0.410201 0
M  V30 3296 H 304.01 4.00648 1.30612 0
M  V30 3297 H 302.734 2.81439 1.65709 0
M  V30 3298 H 301.393 3.65342 -0.303426 0
M  V30 3299 H 301.041 4.62677 1.9733 0
M  V30 3300 H 300.741 5.83435 0.698397 0
M  V30 3301 H 302.265 5.88456 1.62947 0
M  V30 3302 H 303.679 5.69781 -0.634274 0
M  V30 3303 H 302.076 5.83203 -1.41399 0
M  V30 3304 H 303.146 4.48514 -1.84292 0
M  V30 3305 N 304.489 0.459591 1.5075 0
M  V30 3306 C 305.735 -0.0994966 2.02556 0
M  V30 3307 C 306.068 -1.40399 1.3417 0
M  V30 3308 O 305.343 -1.88892 0.463683 0
M  V30 3309 C 305.626 -0.295242 3.58888 0
M  V30 3310 C 305.479 1.02947 4.37861 0
M  V30 3311 C 306.798 -1.05502 4.27267 0
M  V30 3312 H 303.917 -0.034686 0.736183 0
M  V30 3313 H 306.559 0.602938 1.8018 0
M  V30 3314 H 304.709 -0.893563 3.78084 0
M  V30 3315 H 306.381 1.66348 4.30263 0
M  V30 3316 H 304.624 1.62885 4.02058 0
M  V30 3317 H 305.295 0.846281 5.45474 0
M  V30 3318 H 307.771 -0.547993 4.12476 0
M  V30 3319 H 306.647 -1.16077 5.36486 0
M  V30 3320 H 306.908 -2.08875 3.89645 0
M  V30 3321 N 305.967 -1.56429 0.191757 0
M  V30 3322 C 307.195 -2.01867 -0.453586 0
M  V30 3323 C 307.61 -1.07191 -1.5542 0
M  V30 3324 O 306.967 -0.0762108 -1.82341 0
M  V30 3325 C 307.018 -3.47017 -1.013 0
M  V30 3326 O 306.739 -4.38078 0.0437005 0
M  V30 3327 C 308.24 -4.07956 -1.73456 0
M  V30 3328 H 305.46 -0.661211 -0.114199 0
M  V30 3329 H 308.004 -2.02295 0.299483 0
M  V30 3330 H 306.159 -3.47298 -1.71647 0
M  V30 3331 H 306.573 -5.23178 -0.372212 0
M  V30 3332 H 308.047 -5.1138 -2.07833 0
M  V30 3333 H 308.524 -3.51222 -2.63704 0
M  V30 3334 H 309.13 -4.11437 -1.07702 0
M  V30 3335 N 307.445 0.0818655 -1.57387 0
M  V30 3336 C 308.408 1.08265 -2.02018 0
M  V30 3337 C 309.408 1.32183 -0.915664 0
M  V30 3338 O 310.598 1.28073 -1.18081 0
M  V30 3339 C 307.73 2.42871 -2.39221 0
M  V30 3340 H 308.923 0.698204 -2.91659 0
M  V30 3341 H 306.476 0.327303 -1.52835 0
M  V30 3342 H 307.211 2.86167 -1.52575 0
M  V30 3343 H 306.996 2.26855 -3.19811 0
M  V30 3344 H 308.486 3.14826 -2.74362 0
M  V30 3345 N 308.923 1.53595 0.353017 0
M  V30 3346 C 309.871 1.81605 1.45335 0
M  V30 3347 C 310.865 0.685923 1.54892 0
M  V30 3348 O 312.071 0.869095 1.57628 0
M  V30 3349 H 308.446 0.575204 0.484401 0
M  V30 3350 H 310.417 2.73679 1.18921 0
M  V30 3351 C 309.166 2.03406 2.81995 0
M  V30 3352 H 308.489 2.89814 2.75405 0
M  V30 3353 H 309.929 2.26975 3.58132 0
M  V30 3354 C 308.388 0.816794 3.26849 0
M  V30 3355 O 308.918 0.0115856 4.01698 0
M  V30 3356 N 307.124 0.636682 2.8354 0
M  V30 3357 H 306.671 1.2931 2.22793 0
M  V30 3358 H 306.629 -0.176336 3.13905 0
M  V30 3359 N 310.401 -0.613514 1.45168 0
M  V30 3360 C 311.629 -1.39946 1.5239 0
M  V30 3361 C 312.044 -1.88167 0.154531 0
M  V30 3362 O 311.401 -1.61872 -0.842843 0
M  V30 3363 C 311.452 -2.60795 2.50337 0
M  V30 3364 O 311.173 -2.1458 3.81952 0
M  V30 3365 C 312.674 -3.53723 2.67198 0
M  V30 3366 H 309.894 -0.428593 0.516284 0
M  V30 3367 H 312.438 -0.748753 1.903 0
M  V30 3368 H 310.593 -3.21919 2.15515 0
M  V30 3369 H 311.007 -2.93055 4.34993 0
M  V30 3370 H 312.481 -4.35079 3.39721 0
M  V30 3371 H 312.958 -4.0368 1.73029 0
M  V30 3372 H 313.564 -2.98456 3.02992 0
M  V30 3373 N 311.879 -1.3236 -0.855495 0
M  V30 3374 C 312.812 -1.15559 -1.96777 0
M  V30 3375 C 313.79 -0.0552681 -1.62506 0
M  V30 3376 O 314.974 -0.214419 -1.87277 0
M  V30 3377 C 312.101 -0.768851 -3.29858 0
M  V30 3378 C 311.147 -1.87429 -3.83109 0
M  V30 3379 S 311.98 -3.48243 -4.06801 0
M  V30 3380 C 313.136 -3.11539 -5.42858 0
M  V30 3381 H 313.369 -2.09717 -2.10727 0
M  V30 3382 H 310.902 -1.17011 -1.00737 0
M  V30 3383 H 312.86 -0.55248 -4.06765 0
M  V30 3384 H 311.521 0.153857 -3.13723 0
M  V30 3385 H 310.714 -1.55667 -4.79358 0
M  V30 3386 H 310.316 -2.04647 -3.13042 0
M  V30 3387 H 312.608 -2.61331 -6.2507 0
M  V30 3388 H 313.551 -4.06806 -5.79582 0
M  V30 3389 H 313.959 -2.48582 -5.06821 0
M  V30 3390 N 313.357 1.07166 -1.15556 0
M  V30 3391 C 314.267 2.17947 -0.868116 0
M  V30 3392 C 315.283 1.73297 0.156297 0
M  V30 3393 O 316.459 2.01392 -0.0182327 0
M  V30 3394 C 313.524 3.44789 -0.36355 0
M  V30 3395 C 312.585 4.03996 -1.45209 0
M  V30 3396 C 311.818 5.24783 -0.971508 0
M  V30 3397 O 312.041 5.70109 0.182194 0
M  V30 3398 O 310.975 5.75715 -1.75603 0
M  V30 3399 H 314.801 2.4503 -1.79427 0
M  V30 3400 H 312.386 1.16539 -0.934824 0
M  V30 3401 H 314.268 4.21307 -0.0887113 0
M  V30 3402 H 312.943 3.19253 0.534708 0
M  V30 3403 H 311.85 3.29009 -1.78056 0
M  V30 3404 H 313.183 4.33808 -2.32533 0
M  V30 3405 N 314.835 0.952656 1.25548 0
M  V30 3406 C 315.783 0.462354 2.27958 0
M  V30 3407 C 316.777 -0.46634 1.62855 0
M  V30 3408 O 317.983 -0.343287 1.76696 0
M  V30 3409 H 314.358 0.13101 0.7405 0
M  V30 3410 H 316.329 1.33839 2.66702 0
M  V30 3411 C 315.078 -0.24628 3.46827 0
M  V30 3412 H 314.401 0.459192 3.97154 0
M  V30 3413 H 315.841 -0.553393 4.20373 0
M  V30 3414 C 314.3 -1.4681 3.0323 0
M  V30 3415 O 314.83 -2.56591 3.09069 0
M  V30 3416 N 313.036 -1.32874 2.58443 0
M  V30 3417 H 312.583 -0.435536 2.53891 0
M  V30 3418 H 312.541 -2.14742 2.29637 0
M  V30 3419 N 316.313 -1.40141 0.720998 0
M  V30 3420 C 317.559 -2.01084 0.263231 0
M  V30 3421 C 317.892 -1.57052 -1.14229 0
M  V30 3422 O 317.167 -0.793027 -1.77599 0
M  V30 3423 C 317.45 -3.58401 0.349344 0
M  V30 3424 C 317.303 -4.12491 1.79363 0
M  V30 3425 C 318.622 -4.39231 -0.276351 0
M  V30 3426 H 315.741 -0.730572 0.0971228 0
M  V30 3427 H 318.383 -1.66543 0.914518 0
M  V30 3428 H 316.533 -3.87958 -0.205165 0
M  V30 3429 H 318.205 -3.93711 2.40394 0
M  V30 3430 H 316.448 -3.66576 2.31958 0
M  V30 3431 H 317.119 -5.21646 1.80524 0
M  V30 3432 H 319.595 -4.15637 0.196184 0
M  V30 3433 H 318.471 -5.48586 -0.185681 0
M  V30 3434 H 318.732 -4.20643 -1.36059 0
M  V30 3435 N 317.792 -0.46758 -1.50504 0
M  V30 3436 C 318.739 0.328413 -2.28452 0
M  V30 3437 C 319.709 0.990313 -1.33349 0
M  V30 3438 O 320.894 1.00343 -1.62284 0
M  V30 3439 C 318.034 1.40648 -3.15138 0
M  V30 3440 C 317.147 0.759709 -4.25267 0
M  V30 3441 C 316.282 1.81537 -4.99217 0
M  V30 3442 C 315.321 1.14866 -6.01226 0
M  V30 3443 N 314.458 2.14702 -6.68467 0
M  V30 3444 H 319.298 -0.342603 -2.96024 0
M  V30 3445 H 316.835 -0.180801 -1.45985 0
M  V30 3446 H 318.793 2.04315 -3.63746 0
M  V30 3447 H 317.423 2.04671 -2.49619 0
M  V30 3448 H 316.475 0.0105671 -3.80399 0
M  V30 3449 H 317.787 0.233243 -4.98254 0
M  V30 3450 H 316.941 2.52793 -5.51526 0
M  V30 3451 H 315.68 2.37564 -4.25928 0
M  V30 3452 H 314.685 0.42171 -5.4818 0
M  V30 3453 H 315.91 0.595334 -6.76485 0
M  V30 3454 H 313.856 2.69752 -5.97972 0
M  V30 3455 H 313.773 1.6703 -7.37317 0
M  V30 3456 H 315.041 2.85348 -7.25394 0
M  V30 3457 N 319.27 1.56325 -0.20005 0
M  V30 3458 C 320.217 2.1932 0.718833 0
M  V30 3459 C 321.187 1.14198 1.20615 0
M  V30 3460 O 322.372 1.42469 1.26914 0
M  V30 3461 C 319.512 2.86041 1.93066 0
M  V30 3462 C 318.625 4.05702 1.48425 0
M  V30 3463 C 317.76 4.60266 2.65196 0
M  V30 3464 C 316.799 5.72273 2.17185 0
M  V30 3465 N 315.936 6.21221 3.27152 0
M  V30 3466 H 320.776 2.97486 0.17489 0
M  V30 3467 H 318.313 1.46911 0.0745794 0
M  V30 3468 H 320.271 3.22897 2.64184 0
M  V30 3469 H 318.901 2.1043 2.44783 0
M  V30 3470 H 317.953 3.74475 0.668755 0
M  V30 3471 H 319.265 4.86699 1.09204 0
M  V30 3472 H 318.419 4.99453 3.4443 0
M  V30 3473 H 317.158 3.78386 3.07693 0
M  V30 3474 H 316.163 5.3261 1.36407 0
M  V30 3475 H 317.388 6.55974 1.75713 0
M  V30 3476 H 315.334 5.42263 3.69171 0
M  V30 3477 H 315.251 6.97284 2.92116 0
M  V30 3478 H 316.519 6.65063 4.06585 0
M  V30 3479 N 320.748 -0.0735177 1.57428 0
M  V30 3480 C 321.711 -1.07192 2.02589 0
M  V30 3481 C 322.711 -1.31695 0.922661 0
M  V30 3482 O 323.901 -1.27445 1.18758 0
M  V30 3483 C 321.033 -2.41599 2.40506 0
M  V30 3484 H 322.226 -0.682727 2.92025 0
M  V30 3485 H 319.779 -0.319193 1.53006 0
M  V30 3486 H 320.514 -2.85354 1.5409 0
M  V30 3487 H 320.299 -2.25156 3.21009 0
M  V30 3488 H 321.789 -3.13367 2.76027 0
M  V30 3489 N 322.226 -1.5378 -0.344866 0
M  V30 3490 C 323.472 -1.71216 -1.08687 0
M  V30 3491 C 323.805 -0.473281 -1.88345 0
M  V30 3492 O 323.08 0.52968 -1.87149 0
M  V30 3493 C 323.363 -2.97486 -2.02914 0
M  V30 3494 C 323.216 -4.31579 -1.26727 0
M  V30 3495 C 324.535 -3.19422 -3.0275 0
M  V30 3496 H 321.654 -0.62301 -0.393735 0
M  V30 3497 H 324.296 -1.8645 -0.365563 0
M  V30 3498 H 322.446 -2.84629 -2.64421 0
M  V30 3499 H 324.118 -4.56284 -0.67845 0
M  V30 3500 H 322.361 -4.30049 -0.569273 0
M  V30 3501 H 323.032 -5.16106 -1.95803 0
M  V30 3502 H 325.508 -3.316 -2.51357 0
M  V30 3503 H 324.384 -4.09169 -3.65885 0
M  V30 3504 H 324.645 -2.35656 -3.74057 0
M  V30 3505 N 323.704 0.605807 -1.45491 0
M  V30 3506 C 324.614 1.74466 -1.56839 0
M  V30 3507 C 325.63 1.68006 -0.452772 0
M  V30 3508 O 326.806 1.8833 -0.713708 0
M  V30 3509 C 323.871 3.10931 -1.53371 0
M  V30 3510 C 322.932 3.28832 -2.75986 0
M  V30 3511 C 322.165 4.58787 -2.72673 0
M  V30 3512 O 322.388 5.4122 -1.80102 0
M  V30 3513 O 321.322 4.79438 -3.63899 0
M  V30 3514 H 325.148 1.67843 -2.53106 0
M  V30 3515 H 322.733 0.770108 -1.28022 0
M  V30 3516 H 324.615 3.92233 -1.54051 0
M  V30 3517 H 323.29 3.18042 -0.602572 0
M  V30 3518 H 322.197 2.47112 -2.80867 0
M  V30 3519 H 323.53 3.26599 -3.68231 0
M  V30 3520 N 325.182 1.32811 0.848464 0
M  V30 3521 C 326.114 1.18095 1.96433 0
M  V30 3522 C 327.127 0.114354 1.62398 0
M  V30 3523 O 328.316 0.363892 1.74751 0
M  V30 3524 C 325.416 0.786798 3.2964 0
M  V30 3525 C 324.589 1.943 3.91875 0
M  V30 3526 C 323.648 1.53138 5.03423 0
M  V30 3527 O 322.674 2.24432 5.23086 0
M  V30 3528 N 323.876 0.430915 5.78898 0
M  V30 3529 H 326.641 2.14218 2.09597 0
M  V30 3530 H 324.202 1.2543 1.02367 0
M  V30 3531 H 326.194 0.493715 4.01677 0
M  V30 3532 H 324.764 -0.0834541 3.12489 0
M  V30 3533 H 323.984 2.40224 3.12547 0
M  V30 3534 H 325.272 2.71689 4.30189 0
M  V30 3535 H 324.67 -0.162333 5.65467 0
M  V30 3536 H 323.227 0.197466 6.51501 0
M  V30 3537 N 326.66 -1.06551 1.16123 0
M  V30 3538 C 327.909 -1.78687 0.935622 0
M  V30 3539 C 328.222 -1.88056 -0.538001 0
M  V30 3540 O 329.428 -2.56794 -0.88143 0
M  V30 3541 C 327.884 -3.21143 1.62466 0
M  V30 3542 C 327.492 -3.19949 3.13587 0
M  V30 3543 C 329.236 -3.9783 1.48092 0
M  V30 3544 C 327.143 -4.57108 3.75241 0
M  V30 3545 H 326.073 -0.669712 0.346412 0
M  V30 3546 H 328.724 -1.19534 1.39226 0
M  V30 3547 H 327.106 -3.80539 1.09572 0
M  V30 3548 H 328.28 -2.70151 3.73303 0
M  V30 3549 H 326.595 -2.5676 3.27816 0
M  V30 3550 H 329.192 -4.99217 1.91538 0
M  V30 3551 H 329.535 -4.14078 0.429507 0
M  V30 3552 H 330.068 -3.4495 1.98127 0
M  V30 3553 H 326.807 -4.46065 4.80319 0
M  V30 3554 H 326.327 -5.07111 3.20309 0
M  V30 3555 H 328.006 -5.26069 3.76644 0
M  V30 3556 N 328.138 -0.959301 -1.25041 0
M  V30 3557 C 329.554 -0.664474 -1.4511 0
M  V30 3558 C 329.754 0.776481 -1.85938 0
M  V30 3559 O 328.81 1.55128 -1.99227 0
M  V30 3560 C 330.123 -1.64139 -2.5195 0
M  V30 3561 C 331.671 -1.65309 -2.65786 0
M  V30 3562 C 332.146 -2.61777 -3.75815 0
M  V30 3563 N 333.637 -2.60169 -3.83231 0
M  V30 3564 C 334.372 -3.31489 -4.6787 0
M  V30 3565 N 333.868 -4.12298 -5.56761 0
M  V30 3566 N 335.661 -3.20354 -4.61876 0
M  V30 3567 H 327.812 -1.89043 -0.968332 0
M  V30 3568 H 330.075 -0.813408 -0.4869 0
M  V30 3569 H 329.781 -2.67086 -2.28819 0
M  V30 3570 H 329.655 -1.40756 -3.49954 0
M  V30 3571 H 332.042 -0.630778 -2.8828 0
M  V30 3572 H 332.123 -1.92753 -1.68167 0
M  V30 3573 H 331.767 -3.64137 -3.54071 0
M  V30 3574 H 331.697 -2.31616 -4.72929 0
M  V30 3575 H 334.188 -2.01507 -3.19692 0
M  V30 3576 H 334.501 -4.63625 -6.18281 0
M  V30 3577 H 332.846 -4.16395 -5.56454 0
M  V30 3578 H 336.037 -2.56692 -3.91442 0
M  V30 3579 H 336.21 -3.76201 -5.27614 0
M  V30 3580 N 329.616 1.39756 -0.72842 0
M  V30 3581 C 330.564 2.32485 -0.0731849 0
M  V30 3582 C 331.558 1.52717 0.733063 0
M  V30 3583 O 332.764 1.68428 0.634988 0
M  V30 3584 H 329.139 0.751984 -0.00486469 0
M  V30 3585 H 331.11 2.85382 -0.871761 0
M  V30 3586 C 329.859 3.37773 0.824908 0
M  V30 3587 H 329.182 3.99227 0.213915 0
M  V30 3588 H 330.622 4.05121 1.25111 0
M  V30 3589 C 329.081 2.74287 1.95622 0
M  V30 3590 O 329.611 2.61618 3.04826 0
M  V30 3591 N 327.817 2.32475 1.74367 0
M  V30 3592 H 327.364 2.4298 0.855494 0
M  V30 3593 H 327.322 1.90337 2.50238 0
M  V30 3594 N 331.094 0.475555 1.50254 0
M  V30 3595 C 332.343 -0.0795996 2.01543 0
M  V30 3596 C 332.656 -1.4038 1.36209 0
M  V30 3597 O 333.862 -2.04415 1.7868 0
M  V30 3598 C 332.318 -0.192363 3.59386 0
M  V30 3599 C 331.926 1.12367 4.33679 0
M  V30 3600 C 333.67 -0.699238 4.18701 0
M  V30 3601 C 331.577 0.974453 5.83317 0
M  V30 3602 H 330.507 -0.0335228 0.753254 0
M  V30 3603 H 333.158 0.611128 1.73025 0
M  V30 3604 H 331.54 -0.946974 3.84511 0
M  V30 3605 H 332.714 1.88958 4.20276 0
M  V30 3606 H 331.029 1.562 3.85993 0
M  V30 3607 H 333.626 -0.827978 5.28251 0
M  V30 3608 H 333.969 -1.69171 3.80377 0
M  V30 3609 H 334.502 -0.00188807 3.978 0
M  V30 3610 H 331.241 1.94042 6.26121 0
M  V30 3611 H 330.761 0.248998 5.99283 0
M  V30 3612 H 332.44 0.642867 6.43798 0
M  V30 3613 N 332.573 -1.56217 0.208337 0
M  V30 3614 C 333.503 -2.22694 -0.702116 0
M  V30 3615 C 334.484 -1.19432 -1.2112 0
M  V30 3616 O 335.669 -1.47978 -1.25762 0
M  V30 3617 C 332.799 -2.8966 -1.9161 0
M  V30 3618 C 331.753 -3.9928 -1.5414 0
M  V30 3619 C 331.079 -4.53476 -2.83308 0
M  V30 3620 C 332.379 -5.17012 -0.741339 0
M  V30 3621 H 334.073 -2.99034 -0.147898 0
M  V30 3622 H 331.619 -1.43831 -0.0696951 0
M  V30 3623 H 333.572 -3.34852 -2.55836 0
M  V30 3624 H 332.296 -2.10746 -2.49507 0
M  V30 3625 H 330.955 -3.54799 -0.922668 0
M  V30 3626 H 330.603 -3.71308 -3.39322 0
M  V30 3627 H 330.303 -5.27451 -2.58976 0
M  V30 3628 H 331.827 -5.01378 -3.485 0
M  V30 3629 H 333.241 -5.58667 -1.28699 0
M  V30 3630 H 331.638 -5.97137 -0.595627 0
M  V30 3631 H 332.708 -4.8423 0.254851 0
M  V30 3632 N 334.051 0.0651679 -1.57465 0
M  V30 3633 C 334.998 1.07675 -2.04144 0
M  V30 3634 C 335.968 1.38071 -0.923335 0
M  V30 3635 O 337.153 1.49026 -1.19146 0
M  V30 3636 C 334.293 2.38337 -2.49579 0
M  V30 3637 C 333.406 2.14413 -3.75035 0
M  V30 3638 C 332.541 3.38686 -4.09225 0
M  V30 3639 C 331.58 3.10156 -5.27702 0
M  V30 3640 N 330.717 4.26778 -5.57499 0
M  V30 3641 H 335.557 0.671716 -2.90331 0
M  V30 3642 H 333.094 0.3201 -1.43575 0
M  V30 3643 H 335.052 3.14632 -2.73975 0
M  V30 3644 H 333.682 2.7663 -1.6636 0
M  V30 3645 H 332.734 1.2878 -3.57939 0
M  V30 3646 H 334.046 1.89344 -4.61466 0
M  V30 3647 H 333.2 4.23373 -4.34558 0
M  V30 3648 H 331.939 3.66837 -3.21374 0
M  V30 3649 H 330.944 2.23866 -5.02159 0
M  V30 3650 H 332.169 2.8332 -6.17176 0
M  V30 3651 H 330.115 4.54948 -4.72608 0
M  V30 3652 H 330.032 4.05005 -6.38362 0
M  V30 3653 H 331.3 5.12443 -5.87386 0
M  V30 3654 N 335.529 1.53961 0.336706 0
M  V30 3655 C 336.461 1.78751 1.4346 0
M  V30 3656 C 337.474 0.669019 1.48418 0
M  V30 3657 O 338.663 0.945884 1.51378 0
M  V30 3658 C 335.763 1.87844 2.82078 0
M  V30 3659 C 334.936 3.17854 3.00479 0
M  V30 3660 C 333.995 3.17816 4.19379 0
M  V30 3661 O 333.021 3.91511 4.13168 0
M  V30 3662 N 334.223 2.40669 5.2826 0
M  V30 3663 H 336.988 2.73493 1.22563 0
M  V30 3664 H 334.549 1.53096 0.526625 0
M  V30 3665 H 336.541 1.85261 3.59806 0
M  V30 3666 H 335.111 1.00257 2.96086 0
M  V30 3667 H 334.331 3.33504 2.10163 0
M  V30 3668 H 335.619 4.03718 3.0966 0
M  V30 3669 H 335.017 1.8036 5.36178 0
M  V30 3670 H 333.574 2.43877 6.04456 0
M  V30 3671 N 337.007 -0.598083 1.45811 0
M  V30 3672 C 338.255 -1.35413 1.50026 0
M  V30 3673 C 338.576 -1.94444 0.147177 0
M  V30 3674 O 337.846 -1.77701 -0.824571 0
M  V30 3675 H 336.426 -0.502727 0.552517 0
M  V30 3676 H 339.088 -0.701606 1.81834 0
M  V30 3677 H 338.184 -2.16871 2.2444 0
M  V30 3678 N 338.485 -1.33259 -0.841409 0
M  V30 3679 C 339.734 -1.23921 -1.59143 0
M  V30 3680 C 340.047 0.1941 -1.94635 0
M  V30 3681 O 341.253 0.409474 -2.68394 0
M  V30 3682 C 339.709 -2.17119 -2.87032 0
M  V30 3683 C 339.317 -3.65606 -2.58914 0
M  V30 3684 C 341.061 -2.16648 -3.65053 0
M  V30 3685 C 338.968 -4.50726 -3.82884 0
M  V30 3686 H 337.898 -0.460264 -0.597221 0
M  V30 3687 H 340.549 -1.58307 -0.927959 0
M  V30 3688 H 338.931 -1.75663 -3.54906 0
M  V30 3689 H 340.105 -4.15487 -1.99267 0
M  V30 3690 H 338.42 -3.68341 -1.942 0
M  V30 3691 H 341.017 -2.77474 -4.57069 0
M  V30 3692 H 341.36 -1.16088 -3.99787 0
M  V30 3693 H 341.893 -2.56453 -3.041 0
M  V30 3694 H 338.632 -5.52151 -3.53283 0
M  V30 3695 H 338.152 -4.0559 -4.41879 0
M  V30 3696 H 339.831 -4.64401 -4.50489 0
M  V30 3697 N 339.963 1.05934 -1.16686 0
M  V30 3698 C 340.873 2.17014 -0.891183 0
M  V30 3699 C 341.889 1.73453 0.137907 0
M  V30 3700 O 343.065 2.01361 -0.039592 0
M  V30 3701 C 340.13 3.44384 -0.400099 0
M  V30 3702 C 339.191 4.02433 -1.49486 0
M  V30 3703 C 338.424 5.23723 -1.02711 0
M  V30 3704 O 338.647 5.7027 0.121716 0
M  V30 3705 O 337.581 5.7382 -1.81699 0
M  V30 3706 H 341.407 2.43113 -1.82015 0
M  V30 3707 H 338.992 1.15541 -0.947132 0
M  V30 3708 H 340.874 4.21189 -0.133392 0
M  V30 3709 H 339.549 3.19802 0.500817 0
M  V30 3710 H 338.456 3.27102 -1.81535 0
M  V30 3711 H 339.789 4.31317 -2.37121 0
M  V30 3712 N 341.441 0.965919 1.2453 0
M  V30 3713 C 342.669 0.644385 1.96609 0
M  V30 3714 C 343.084 -0.785823 1.71669 0
M  V30 3715 O 342.441 -1.52703 0.999399 0
M  V30 3716 C 342.492 0.907375 3.49927 0
M  V30 3717 O 342.213 2.28136 3.74013 0
M  V30 3718 C 343.714 0.599784 4.39224 0
M  V30 3719 H 340.934 0.240588 0.626385 0
M  V30 3720 H 343.478 1.29337 1.58405 0
M  V30 3721 H 341.633 0.304631 3.862 0
M  V30 3722 H 342.047 2.36002 4.68405 0
M  V30 3723 H 343.521 0.834263 5.45659 0
M  V30 3724 H 343.998 -0.465921 4.36722 0
M  V30 3725 H 344.604 1.18235 4.08535 0
M  V30 3726 N 342.919 -1.39368 0.735821 0
M  V30 3727 C 344.33 -1.83313 0.354015 0
M  V30 3728 C 344.681 -1.61461 -1.11466 0
M  V30 3729 O 343.806 -1.10621 -1.85989 0
M  V30 3730 C 344.401 -3.32781 0.635769 0
M  V30 3731 C 342.96 -3.75142 0.307448 0
M  V30 3732 C 342.107 -2.62358 0.897974 0
M  V30 3733 H 345.058 -1.28349 0.933398 0
M  V30 3734 H 345.079 -3.80388 -0.0921773 0
M  V30 3735 H 344.591 -3.48654 1.70476 0
M  V30 3736 H 342.692 -3.64857 -0.755674 0
M  V30 3737 H 342.805 -4.72532 0.790583 0
M  V30 3738 H 341.169 -2.52624 0.324551 0
M  V30 3739 H 341.952 -2.81036 1.97164 0
M  V30 3740 N 344.397 -0.483516 -1.5 0
M  V30 3741 C 345.307 0.309172 -2.32554 0
M  V30 3742 C 346.323 0.984159 -1.43493 0
M  V30 3743 O 347.499 0.969399 -1.76535 0
M  V30 3744 C 344.564 1.36979 -3.18493 0
M  V30 3745 C 343.625 0.710095 -4.23387 0
M  V30 3746 C 342.858 1.72018 -5.05218 0
M  V30 3747 O 343.081 2.94813 -4.88305 0
M  V30 3748 O 342.015 1.28515 -5.8802 0
M  V30 3749 H 345.841 -0.366064 -3.01486 0
M  V30 3750 H 343.426 -0.24514 -1.47375 0
M  V30 3751 H 345.308 1.98385 -3.71781 0
M  V30 3752 H 343.983 2.02828 -2.52275 0
M  V30 3753 H 342.89 0.0567539 -3.74057 0
M  V30 3754 H 344.223 0.0943557 -4.9211 0
M  V30 3755 N 345.875 1.56104 -0.216619 0
M  V30 3756 C 347.152 1.89988 0.465165 0
M  V30 3757 C 347.532 1.13326 1.78102 0
M  V30 3758 O 346.88 0.241033 2.27225 0
M  V30 3759 C 347.09 3.42646 0.662939 0
M  V30 3760 C 348.438 4.13311 0.972602 0
M  V30 3761 O 349.462 3.48217 0.749901 0
M  V30 3762 O 348.321 5.28396 1.39499 0
M  V30 3763 H 345.415 0.78979 0.245276 0
M  V30 3764 H 347.961 1.67721 -0.258436 0
M  V30 3765 H 346.733 3.90399 -0.26543 0
M  V30 3766 H 346.356 3.70677 1.43821 0
M  V30 3767 N 347.353 -0.0568162 1.57498 0
M  V30 3768 C 348.285 -1.09292 2.01464 0
M  V30 3769 C 349.298 -1.34112 0.922913 0
M  V30 3770 O 350.487 -1.32089 1.20062 0
M  V30 3771 C 347.587 -2.44068 2.35125 0
M  V30 3772 C 346.76 -2.38995 3.66333 0
M  V30 3773 C 345.819 -3.55997 3.87495 0
M  V30 3774 O 344.845 -3.36746 4.58901 0
M  V30 3775 N 346.047 -4.76888 3.30996 0
M  V30 3776 H 348.812 -0.718386 2.90963 0
M  V30 3777 H 346.373 -0.245235 1.60032 0
M  V30 3778 H 348.365 -3.21011 2.46443 0
M  V30 3779 H 346.935 -2.73468 1.5144 0
M  V30 3780 H 346.155 -1.47336 3.65631 0
M  V30 3781 H 347.443 -2.3272 4.52458 0
M  V30 3782 H 346.841 -4.95431 2.73065 0
M  V30 3783 H 345.398 -5.51291 3.47738 0
M  V30 3784 N 348.832 -1.54138 -0.328536 0
M  V30 3785 C 349.78 -1.83894 -1.42428 0
M  V30 3786 C 350.774 -0.710478 -1.53781 0
M  V30 3787 O 351.98 -0.894062 -1.56226 0
M  V30 3788 H 348.355 -0.582837 -0.475189 0
M  V30 3789 H 350.326 -2.75537 -1.14552 0
M  V30 3790 C 349.075 -2.07866 -2.78724 0
M  V30 3791 H 348.398 -2.94158 -2.7076 0
M  V30 3792 H 349.838 -2.32644 -3.54476 0
M  V30 3793 C 348.297 -0.868689 -3.25508 0
M  V30 3794 O 348.827 -0.0754908 -4.01629 0
M  V30 3795 N 347.033 -0.681711 -2.82491 0
M  V30 3796 H 346.58 -1.32838 -2.20708 0
M  V30 3797 H 346.538 0.126374 -3.14146 0
M  V30 3798 N 350.31 0.590341 -1.46126 0
M  V30 3799 C 351.587 1.35029 -1.41515 0
M  V30 3800 C 351.967 2.10888 -0.0946472 0
M  V30 3801 O 351.315 2.08998 0.923693 0
M  V30 3802 C 351.525 2.28269 -2.63997 0
M  V30 3803 C 352.873 2.90338 -3.09821 0
M  V30 3804 O 353.897 2.38585 -2.64492 0
M  V30 3805 O 352.756 3.84321 -3.88535 0
M  V30 3806 H 349.85 0.606317 -0.562413 0
M  V30 3807 H 352.396 0.611994 -1.58281 0
M  V30 3808 H 351.168 1.71591 -3.51671 0
M  V30 3809 H 350.791 3.0945 -2.49652 0
M  V30 3810 N 351.788 1.33704 0.83433 0
M  V30 3811 C 352.718 1.26967 1.95963 0
M  V30 3812 C 353.699 0.149337 1.69443 0
M  V30 3813 O 354.884 0.339852 1.91203 0
M  V30 3814 C 352.014 1.01275 3.32206 0
M  V30 3815 C 350.968 2.09652 3.73136 0
M  V30 3816 C 350.294 1.69166 5.07235 0
M  V30 3817 C 351.594 3.51372 3.86439 0
M  V30 3818 H 353.288 2.2112 2.01857 0
M  V30 3819 H 350.834 1.06447 0.969793 0
M  V30 3820 H 352.787 0.952106 4.10503 0
M  V30 3821 H 351.511 0.0356203 3.26581 0
M  V30 3822 H 350.17 2.14766 2.97104 0
M  V30 3823 H 349.818 0.701437 4.98085 0
M  V30 3824 H 349.518 2.41694 5.35591 0
M  V30 3825 H 351.042 1.64576 5.88003 0
M  V30 3826 H 352.456 3.48734 4.55036 0
M  V30 3827 H 350.853 4.22425 4.26236 0
M  V30 3828 H 351.923 3.89546 2.88759 0
M  V30 3829 N 353.266 -1.05314 1.17247 0
M  V30 3830 C 354.682 -1.30452 0.919473 0
M  V30 3831 C 354.882 -1.9703 -0.42209 0
M  V30 3832 O 353.938 -2.24311 -1.15935 0
M  V30 3833 C 355.251 -2.17551 2.07586 0
M  V30 3834 C 356.799 -2.30937 2.11275 0
M  V30 3835 C 357.274 -3.21396 3.26296 0
M  V30 3836 N 358.765 -3.28981 3.26076 0
M  V30 3837 C 359.5 -3.99095 4.11716 0
M  V30 3838 N 358.996 -4.71648 5.07465 0
M  V30 3839 N 360.789 -3.95247 3.9967 0
M  V30 3840 H 352.94 -0.604988 2.03602 0
M  V30 3841 H 355.203 -0.329368 0.888944 0
M  V30 3842 H 354.909 -1.75921 3.0454 0
M  V30 3843 H 354.783 -3.18182 2.02584 0
M  V30 3844 H 357.17 -2.71809 1.14907 0
M  V30 3845 H 357.251 -1.2994 2.20339 0
M  V30 3846 H 356.895 -2.81238 4.22927 0
M  V30 3847 H 356.825 -4.22395 3.14467 0
M  V30 3848 H 359.316 -2.77286 2.5675 0
M  V30 3849 H 359.629 -5.22705 5.6921 0
M  V30 3850 H 357.974 -4.70594 5.11435 0
M  V30 3851 H 361.165 -3.37691 3.24164 0
M  V30 3852 H 361.338 -4.4962 4.66632 0
M  V30 3853 N 354.744 -0.972509 -1.24016 0
M  V30 3854 C 355.691 -0.505969 -2.25186 0
M  V30 3855 C 356.661 0.451009 -1.5986 0
M  V30 3856 O 357.846 0.360307 -1.87367 0
M  V30 3857 C 354.986 0.193089 -3.44559 0
M  V30 3858 C 354.099 -0.803222 -4.24467 0
M  V30 3859 C 353.234 -0.0797793 -5.3114 0
M  V30 3860 C 352.273 -1.06583 -6.02749 0
M  V30 3861 N 351.41 -0.372074 -7.01113 0
M  V30 3862 H 356.25 -1.37351 -2.64459 0
M  V30 3863 H 353.787 -0.688419 -1.29997 0
M  V30 3864 H 355.745 0.615125 -4.1264 0
M  V30 3865 H 354.375 1.02455 -3.06109 0
M  V30 3866 H 353.427 -1.34368 -3.55878 0
M  V30 3867 H 354.739 -1.55494 -4.73944 0
M  V30 3868 H 353.893 0.400015 -6.0538 0
M  V30 3869 H 352.632 0.704597 -4.82583 0
M  V30 3870 H 351.637 -1.55645 -5.27309 0
M  V30 3871 H 352.862 -1.85074 -6.53395 0
M  V30 3872 H 350.808 0.393238 -6.5482 0
M  V30 3873 H 350.725 -1.06258 -7.48495 0
M  V30 3874 H 351.993 0.0855932 -7.79453 0
M  V30 3875 N 356.222 1.38976 -0.743202 0
M  V30 3876 C 357.155 2.28128 -0.0572165 0
M  V30 3877 C 358.133 1.44827 0.739182 0
M  V30 3878 O 359.317 1.74207 0.720009 0
M  V30 3879 C 356.444 3.25796 0.926001 0
M  V30 3880 C 355.49 4.25947 0.217099 0
M  V30 3881 S 356.323 5.24604 -1.07477 0
M  V30 3882 C 357.479 6.25829 -0.0943545 0
M  V30 3883 H 357.712 2.85961 -0.813246 0
M  V30 3884 H 355.245 1.44822 -0.535341 0
M  V30 3885 H 357.203 3.82583 1.48797 0
M  V30 3886 H 355.864 2.66966 1.65493 0
M  V30 3887 H 355.057 4.94746 0.961372 0
M  V30 3888 H 354.659 3.73002 -0.273059 0
M  V30 3889 H 356.951 6.73411 0.743239 0
M  V30 3890 H 357.894 7.0412 -0.749713 0
M  V30 3891 H 358.302 5.63797 0.281706 0
M  V30 3892 N 357.7 0.491464 1.49741 0
M  V30 3893 C 358.632 -0.328609 2.26832 0
M  V30 3894 C 359.645 -0.939113 1.32983 0
M  V30 3895 O 360.834 -0.824067 1.58339 0
M  V30 3896 C 357.934 -1.47675 3.05033 0
M  V30 3897 C 357.107 -0.975305 4.26388 0
M  V30 3898 C 356.166 -1.99991 4.86714 0
M  V30 3899 O 355.192 -1.57229 5.47054 0
M  V30 3900 N 356.394 -3.32962 4.75517 0
M  V30 3901 H 359.159 0.332377 2.97851 0
M  V30 3902 H 356.72 0.323441 1.58636 0
M  V30 3903 H 358.712 -2.15954 3.42266 0
M  V30 3904 H 357.282 -2.04206 2.36683 0
M  V30 3905 H 356.502 -0.117723 3.94024 0
M  V30 3906 H 357.79 -0.618531 5.05026 0
M  V30 3907 H 357.188 -3.70399 4.27576 0
M  V30 3908 H 355.745 -3.96982 5.16961 0
M  V30 3909 N 359.178 -1.55987 0.224894 0
M  V30 3910 C 360.108 -2.23426 -0.678457 0
M  V30 3911 C 361.089 -1.20709 -1.19847 0
M  V30 3912 O 362.274 -1.49304 -1.24186 0
M  V30 3913 C 359.404 -2.91676 -1.88527 0
M  V30 3914 C 358.358 -4.00893 -1.49896 0
M  V30 3915 C 357.684 -4.56455 -2.78483 0
M  V30 3916 C 358.984 -5.17769 -0.686461 0
M  V30 3917 H 360.678 -2.99175 -0.116173 0
M  V30 3918 H 358.224 -1.43897 -0.054436 0
M  V30 3919 H 360.177 -3.37547 -2.5227 0
M  V30 3920 H 358.901 -2.1338 -2.47258 0
M  V30 3921 H 357.56 -3.55758 -0.884985 0
M  V30 3922 H 357.208 -3.74886 -3.35365 0
M  V30 3923 H 356.908 -5.30169 -2.53368 0
M  V30 3924 H 358.432 -5.05047 -3.43162 0
M  V30 3925 H 359.846 -5.60001 -1.22767 0
M  V30 3926 H 358.243 -5.97735 -0.532259 0
M  V30 3927 H 359.313 -4.83932 0.306196 0
M  V30 3928 N 360.656 0.0484629 -1.57525 0
M  V30 3929 C 362.072 0.40375 -1.54409 0
M  V30 3930 C 362.272 1.77786 -0.948384 0
M  V30 3931 O 361.328 2.46189 -0.560983 0
M  V30 3932 C 362.641 0.323394 -2.98956 0
M  V30 3933 C 364.189 0.401892 -3.10409 0
M  V30 3934 C 364.664 0.351195 -4.56652 0
M  V30 3935 N 366.155 0.410576 -4.61377 0
M  V30 3936 C 366.89 0.393933 -5.72045 0
M  V30 3937 N 366.386 0.330724 -6.9201 0
M  V30 3938 N 368.179 0.442227 -5.60358 0
M  V30 3939 H 360.33 -0.851016 -1.94606 0
M  V30 3940 H 362.593 -0.321721 -0.89174 0
M  V30 3941 H 362.299 -0.62011 -3.4619 0
M  V30 3942 H 362.173 1.12463 -3.60044 0
M  V30 3943 H 364.56 1.33582 -2.63134 0
M  V30 3944 H 364.641 -0.428342 -2.52188 0
M  V30 3945 H 364.285 -0.578987 -5.04589 0
M  V30 3946 H 364.215 1.19928 -5.12762 0
M  V30 3947 H 366.706 0.462729 -3.75056 0
M  V30 3948 H 367.019 0.322592 -7.72126 0
M  V30 3949 H 365.364 0.29706 -6.94365 0
M  V30 3950 H 368.555 0.489464 -4.65534 0
M  V30 3951 H 368.728 0.425788 -6.466 0
M  V30 3952 N 362.134 1.5431 0.320358 0
M  V30 3953 C 363.044 1.86946 1.41734 0
M  V30 3954 C 364.06 0.761689 1.56443 0
M  V30 3955 O 365.236 1.05629 1.71477 0
M  V30 3956 C 362.301 2.09293 2.76401 0
M  V30 3957 C 361.362 3.33082 2.70841 0
M  V30 3958 C 360.595 3.54353 3.99086 0
M  V30 3959 O 360.818 2.79002 4.97508 0
M  V30 3960 O 359.752 4.47838 4.0215 0
M  V30 3961 H 363.578 2.80232 1.17062 0
M  V30 3962 H 361.163 1.40255 0.514673 0
M  V30 3963 H 363.045 2.25303 3.56113 0
M  V30 3964 H 361.72 1.19194 3.00956 0
M  V30 3965 H 360.627 3.22454 1.89668 0
M  V30 3966 H 361.96 4.23249 2.5124 0
M  V30 3967 N 363.613 -0.582584 1.46437 0
M  V30 3968 C 364.543 -1.70187 1.59871 0
M  V30 3969 C 365.524 -1.64066 0.449042 0
M  V30 3970 O 366.709 -1.82081 0.6753 0
M  V30 3971 C 363.839 -3.08827 1.58881 0
M  V30 3972 C 362.793 -3.29779 2.72819 0
M  V30 3973 C 362.119 -4.68947 2.5689 0
M  V30 3974 C 363.419 -3.17601 4.1464 0
M  V30 3975 H 365.113 -1.592 2.53566 0
M  V30 3976 H 362.659 -0.764472 1.22032 0
M  V30 3977 H 364.612 -3.86951 1.66873 0
M  V30 3978 H 363.336 -3.20713 0.617306 0
M  V30 3979 H 361.995 -2.54054 2.64296 0
M  V30 3980 H 361.643 -4.77599 1.57823 0
M  V30 3981 H 361.343 -4.83919 3.33312 0
M  V30 3982 H 362.867 -5.4924 2.66773 0
M  V30 3983 H 364.281 -3.8557 4.24274 0
M  V30 3984 H 362.678 -3.44094 4.9165 0
M  V30 3985 H 363.748 -2.14681 4.34788 0
M  V30 3986 N 365.091 -1.34144 -0.827227 0
M  V30 3987 C 366.054 -1.25264 -1.91942 0
M  V30 3988 C 367.054 -0.168866 -1.59911 0
M  V30 3989 O 368.244 -0.421198 -1.69031 0
M  V30 3990 C 365.376 -0.932952 -3.27885 0
M  V30 3991 H 366.569 -2.22357 -2.0124 0
M  V30 3992 H 364.122 -1.1837 -1.0207 0
M  V30 3993 H 364.857 0.0349917 -3.24281 0
M  V30 3994 H 364.642 -1.71682 -3.52516 0
M  V30 3995 H 366.132 -0.895874 -4.07877 0
M  V30 3996 N 366.569 1.04691 -1.17803 0
M  V30 3997 C 367.985 1.29963 -0.926379 0
M  V30 3998 C 368.185 1.97251 0.411635 0
M  V30 3999 O 367.241 2.24922 1.14744 0
M  V30 4000 C 368.554 2.16447 -2.08737 0
M  V30 4001 C 370.102 2.29814 -2.12496 0
M  V30 4002 C 370.577 3.19661 -3.27995 0
M  V30 4003 N 372.068 3.27247 -3.27816 0
M  V30 4004 C 372.803 3.96906 -4.13827 0
M  V30 4005 N 372.299 4.6895 -5.09959 0
M  V30 4006 N 374.092 3.93122 -4.01761 0
M  V30 4007 H 366.243 0.594182 -2.0392 0
M  V30 4008 H 368.506 0.324649 -0.890678 0
M  V30 4009 H 368.212 1.74304 -3.05469 0
M  V30 4010 H 368.086 3.17103 -2.04268 0
M  V30 4011 H 370.473 2.71196 -1.16347 0
M  V30 4012 H 370.554 1.2877 -2.21025 0
M  V30 4013 H 370.198 2.78991 -4.24413 0
M  V30 4014 H 370.128 4.20722 -3.16703 0
M  V30 4015 H 372.619 2.75921 -2.58217 0
M  V30 4016 H 372.932 5.19679 -5.71974 0
M  V30 4017 H 371.277 4.67875 -5.13924 0
M  V30 4018 H 374.468 3.35967 -3.2595 0
M  V30 4019 H 374.641 4.47139 -4.6901 0
M  V30 4020 N 368.047 0.979072 1.23499 0
M  V30 4021 C 368.977 0.537606 2.27227 0
M  V30 4022 C 369.958 -0.428539 1.64613 0
M  V30 4023 O 371.143 -0.322191 1.91509 0
M  V30 4024 C 368.273 -0.162052 3.46922 0
M  V30 4025 C 367.227 0.721242 4.21879 0
M  V30 4026 C 366.553 -0.110555 5.34586 0
M  V30 4027 C 367.853 2.01141 4.82016 0
M  V30 4028 H 369.547 1.40462 2.64406 0
M  V30 4029 H 367.093 0.67684 1.27102 0
M  V30 4030 H 369.046 -0.482192 4.18632 0
M  V30 4031 H 367.77 -1.06351 3.08799 0
M  V30 4032 H 366.429 1.02482 3.51984 0
M  V30 4033 H 366.077 -1.0125 4.92704 0
M  V30 4034 H 365.777 0.477325 5.85658 0
M  V30 4035 H 367.301 -0.425107 6.09118 0
M  V30 4036 H 368.715 1.75612 5.45741 0
M  V30 4037 H 367.112 2.54695 5.43369 0
M  V30 4038 H 368.182 2.69909 4.02836 0
M  V30 4039 N 369.525 -1.3858 0.750561 0
M  V30 4040 C 370.473 -2.32339 0.110162 0
M  V30 4041 C 371.467 -1.53864 -0.708674 0
M  V30 4042 O 372.673 -1.69417 -0.608112 0
M  V30 4043 H 369.048 -0.751812 0.0168275 0
M  V30 4044 H 371.019 -2.83959 0.917053 0
M  V30 4045 C 369.768 -3.39043 -0.771067 0
M  V30 4046 H 369.091 -3.99517 -0.150374 0
M  V30 4047 H 370.531 -4.07061 -1.1865 0
M  V30 4048 C 368.99 -2.77365 -1.91234 0
M  V30 4049 O 369.52 -2.66434 -3.00626 0
M  V30 4050 N 367.726 -2.35219 -1.70646 0
M  V30 4051 H 367.273 -2.4431 -0.81673 0
M  V30 4052 H 367.231 -1.94294 -2.47178 0
M  V30 4053 N 371.003 -0.499398 -1.49478 0
M  V30 4054 C 372.251 0.0455996 -2.02049 0
M  V30 4055 C 372.572 1.37633 -1.38138 0
M  V30 4056 O 371.842 1.8842 -0.536166 0
M  V30 4057 H 370.422 0.0198416 -0.746736 0
M  V30 4058 H 373.084 -0.656274 -1.83519 0
M  V30 4059 H 372.18 0.176445 -3.11601 0
M  V30 4060 N 372.481 1.55866 -0.233164 0
M  V30 4061 C 373.709 2.02998 0.399905 0
M  V30 4062 C 374.124 1.11274 1.52524 0
M  V30 4063 O 373.481 0.124528 1.82075 0
M  V30 4064 C 373.532 3.4958 0.920639 0
M  V30 4065 O 373.253 4.37808 -0.159834 0
M  V30 4066 C 374.754 4.12411 1.62578 0
M  V30 4067 H 371.974 0.664006 0.0966281 0
M  V30 4068 H 374.518 2.0143 -0.353013 0
M  V30 4069 H 372.673 3.51727 1.62379 0
M  V30 4070 H 373.087 5.23981 0.23337 0
M  V30 4071 H 374.561 5.16711 1.94201 0
M  V30 4072 H 375.038 3.5809 2.54299 0
M  V30 4073 H 375.644 4.14148 0.967553 0
M  V30 4074 N 373.959 -0.0401083 1.57549 0
M  V30 4075 C 374.889 -1.04384 2.08869 0
M  V30 4076 C 375.87 -1.38407 0.988817 0
M  V30 4077 O 377.055 -1.47483 1.26342 0
M  V30 4078 C 374.185 -2.34808 2.55895 0
M  V30 4079 C 373.139 -2.15057 3.70047 0
M  V30 4080 C 372.465 -3.51145 4.03239 0
M  V30 4081 C 373.765 -1.54576 4.98902 0
M  V30 4082 H 375.459 -0.616666 2.92981 0
M  V30 4083 H 373.005 -0.295184 1.40942 0
M  V30 4084 H 374.958 -3.05346 2.90417 0
M  V30 4085 H 373.682 -2.79565 1.68853 0
M  V30 4086 H 372.341 -1.46954 3.35857 0
M  V30 4087 H 371.989 -3.93529 3.13279 0
M  V30 4088 H 371.689 -3.38758 4.80122 0
M  V30 4089 H 373.213 -4.23062 4.40285 0
M  V30 4090 H 374.627 -2.15017 5.31451 0
M  V30 4091 H 373.024 -1.52796 5.80322 0
M  V30 4092 H 374.094 -0.51039 4.82206 0
M  V30 4093 N 375.437 -1.54477 -0.31217 0
M  V30 4094 C 376.853 -1.45442 -0.657185 0
M  V30 4095 C 377.053 -0.63653 -1.91182 0
M  V30 4096 O 376.109 -0.139815 -2.52113 0
M  V30 4097 C 377.422 -2.89287 -0.82058 0
M  V30 4098 C 378.97 -2.9926 -0.917188 0
M  V30 4099 C 379.445 -4.44279 -1.11267 0
M  V30 4100 N 380.936 -4.4794 -1.17914 0
M  V30 4101 C 381.671 -5.57318 -1.34848 0
M  V30 4102 N 381.167 -6.76642 -1.48752 0
M  V30 4103 N 382.96 -5.44986 -1.37647 0
M  V30 4104 H 375.111 -2.06129 0.512313 0
M  V30 4105 H 377.374 -0.933088 0.167485 0
M  V30 4106 H 377.08 -3.51687 0.0302604 0
M  V30 4107 H 376.954 -3.36061 -1.71298 0
M  V30 4108 H 379.341 -2.36981 -1.75852 0
M  V30 4109 H 379.422 -2.558 -0.00101257 0
M  V30 4110 H 379.066 -5.07149 -0.27614 0
M  V30 4111 H 378.996 -4.85359 -2.04289 0
M  V30 4112 H 381.487 -3.61969 -1.08567 0
M  V30 4113 H 381.8 -7.55758 -1.61397 0
M  V30 4114 H 380.145 -6.79529 -1.45828 0
M  V30 4115 H 383.336 -4.50715 -1.26388 0
M  V30 4116 H 383.509 -6.3028 -1.50501 0
M  V30 4117 N 376.915 0.57481 -1.46744 0
M  V30 4118 C 377.825 1.711 -1.60505 0
M  V30 4119 C 378.841 1.67008 -0.488307 0
M  V30 4120 O 380.017 1.86774 -0.753495 0
M  V30 4121 C 377.082 3.07608 -1.59932 0
M  V30 4122 C 376.143 3.22904 -2.82898 0
M  V30 4123 C 375.376 4.529 -2.82343 0
M  V30 4124 O 375.599 5.37278 -1.91542 0
M  V30 4125 O 374.533 4.71611 -3.73987 0
M  V30 4126 H 378.359 1.62436 -2.56609 0
M  V30 4127 H 375.944 0.742779 -1.29627 0
M  V30 4128 H 377.826 3.88877 -1.62336 0
M  V30 4129 H 376.501 3.16692 -0.669898 0
M  V30 4130 H 375.408 2.41099 -2.86046 0
M  V30 4131 H 376.741 3.18715 -3.75076 0
M  V30 4132 N 378.394 1.34581 0.820102 0
M  V30 4133 C 379.671 1.17675 1.56244 0
M  V30 4134 C 380.051 -0.249541 2.0962 0
M  V30 4135 O 379.399 -1.25125 1.91196 0
M  V30 4136 C 379.609 2.23364 2.6816 0
M  V30 4137 C 380.957 2.58485 3.36854 0
M  V30 4138 O 381.981 2.22175 2.78418 0
M  V30 4139 O 380.84 3.20868 4.42386 0
M  V30 4140 H 377.934 0.456333 0.689702 0
M  V30 4141 H 380.48 1.46222 0.861231 0
M  V30 4142 H 379.252 3.19087 2.26493 0
M  V30 4143 H 378.875 1.96009 3.45928 0
M  V30 4144 N 379.872 -1.04064 1.18357 0
M  V30 4145 C 381.149 -1.74252 0.888581 0
M  V30 4146 C 381.529 -2.02138 -0.60856 0
M  V30 4147 O 380.877 -1.66656 -1.56327 0
M  V30 4148 C 381.087 -3.0277 1.73584 0
M  V30 4149 C 382.435 -3.76506 1.96286 0
M  V30 4150 O 383.459 -3.12668 1.70637 0
M  V30 4151 O 382.318 -4.91243 2.39464 0
M  V30 4152 H 379.412 -0.758271 0.330082 0
M  V30 4153 H 381.958 -1.1013 1.2911 0
M  V30 4154 H 380.73 -2.78299 2.75073 0
M  V30 4155 H 380.353 -3.74631 1.33183 0
M  V30 4156 N 381.35 -0.985608 -1.22978 0
M  V30 4157 C 382.298 -0.522631 -2.26652 0
M  V30 4158 C 383.292 0.422998 -1.64034 0
M  V30 4159 O 384.498 0.296319 -1.77544 0
M  V30 4160 H 380.873 -0.150597 -0.736766 0
M  V30 4161 H 382.844 -1.40863 -2.63059 0
M  V30 4162 C 381.593 0.154238 -3.47358 0
M  V30 4163 H 380.916 -0.564329 -3.95797 0
M  V30 4164 H 382.356 0.441744 -4.21693 0
M  V30 4165 C 380.815 1.38719 -3.07016 0
M  V30 4166 O 381.345 2.48307 -3.15764 0
M  V30 4167 N 379.551 1.25975 -2.61875 0
M  V30 4168 H 379.098 0.368068 -2.54957 0
M  V30 4169 H 379.056 2.08578 -2.3525 0
M  V30 4170 N 382.828 1.3818 -0.7579 0
M  V30 4171 C 384.244 1.5353 -0.435972 0
M  V30 4172 C 384.444 1.71961 1.05032 0
M  V30 4173 O 383.5 1.73307 1.83633 0
M  V30 4174 C 384.813 2.73989 -1.23898 0
M  V30 4175 C 386.361 2.87841 -1.22949 0
M  V30 4176 C 386.836 4.11266 -2.01554 0
M  V30 4177 N 388.327 4.18352 -1.98837 0
M  V30 4178 C 389.062 5.12856 -2.5645 0
M  V30 4179 N 388.558 6.13005 -3.22794 0
M  V30 4180 N 390.351 5.05238 -2.46356 0
M  V30 4181 H 382.502 1.24467 -1.7211 0
M  V30 4182 H 384.765 0.604982 -0.729864 0
M  V30 4183 H 384.471 2.66789 -2.29165 0
M  V30 4184 H 384.345 3.67294 -0.858764 0
M  V30 4185 H 386.732 2.9452 -0.184854 0
M  V30 4186 H 386.813 1.95534 -1.64924 0
M  V30 4187 H 386.457 4.05349 -3.06031 0
M  V30 4188 H 386.387 5.02661 -1.5697 0
M  V30 4189 H 388.878 3.46628 -1.50524 0
M  V30 4190 H 389.191 6.81619 -3.64165 0
M  V30 4191 H 387.536 6.13325 -3.2689 0
M  V30 4192 H 390.727 4.25938 -1.9415 0
M  V30 4193 H 390.9 5.78707 -2.91552 0
M  V30 4194 N 384.306 0.507319 1.49211 0
M  V30 4195 C 385.555 -0.0368315 2.01666 0
M  V30 4196 C 385.868 -1.37459 1.39156 0
M  V30 4197 O 387.074 -2.00579 1.82976 0
M  V30 4198 C 385.53 -0.116089 3.59713 0
M  V30 4199 C 385.138 1.2154 4.31198 0
M  V30 4200 C 386.882 -0.610268 4.2009 0
M  V30 4201 C 384.789 1.09796 5.81119 0
M  V30 4202 H 383.719 -0.0175376 0.753796 0
M  V30 4203 H 386.37 0.647691 1.71689 0
M  V30 4204 H 384.752 -0.8652 3.86433 0
M  V30 4205 H 385.926 1.9783 4.16173 0
M  V30 4206 H 384.241 1.64352 3.82593 0
M  V30 4207 H 386.838 -0.715742 5.29888 0
M  V30 4208 H 387.181 -1.61064 3.8388 0
M  V30 4209 H 387.714 0.0824916 3.97714 0
M  V30 4210 H 384.453 2.0728 6.21864 0
M  V30 4211 H 383.973 0.376058 5.9862 0
M  V30 4212 H 385.652 0.779281 6.4229 0
M  V30 4213 N 385.784 -1.5574 0.241426 0
M  V30 4214 C 386.714 -2.24133 -0.654722 0
M  V30 4215 C 387.695 -1.21974 -1.1856 0
M  V30 4216 O 388.88 -1.50612 -1.22595 0
M  V30 4217 C 386.01 -2.93659 -1.85423 0
M  V30 4218 C 384.964 -4.0246 -1.45636 0
M  V30 4219 C 384.29 -4.59383 -2.73626 0
M  V30 4220 C 385.59 -5.18468 -0.631506 0
M  V30 4221 H 387.284 -2.99281 -0.0844353 0
M  V30 4222 H 384.83 -1.43947 -0.0391707 0
M  V30 4223 H 386.783 -3.40203 -2.48676 0
M  V30 4224 H 385.507 -2.15991 -2.44981 0
M  V30 4225 H 384.166 -3.56676 -0.847202 0
M  V30 4226 H 383.814 -3.78422 -3.3137 0
M  V30 4227 H 383.514 -5.32826 -2.4773 0
M  V30 4228 H 385.038 -5.08658 -3.37786 0
M  V30 4229 H 386.452 -5.61272 -1.1682 0
M  V30 4230 H 384.849 -5.98266 -0.468831 0
M  V30 4231 H 385.919 -4.8358 0.357506 0
M  V30 4232 N 387.262 0.0317525 -1.57568 0
M  V30 4233 C 388.678 0.38735 -1.54828 0
M  V30 4234 C 388.878 1.7677 -0.967187 0
M  V30 4235 O 387.934 2.45581 -0.587063 0
M  V30 4236 C 389.247 0.291667 -2.99282 0
M  V30 4237 C 390.795 0.368946 -3.10818 0
M  V30 4238 C 391.27 0.302741 -4.56998 0
M  V30 4239 N 392.761 0.361617 -4.61786 0
M  V30 4240 C 393.496 0.333238 -5.72431 0
M  V30 4241 N 392.992 0.257308 -6.92322 0
M  V30 4242 N 394.785 0.382769 -5.60795 0
M  V30 4243 H 386.936 -0.871609 -1.93692 0
M  V30 4244 H 389.199 -0.331161 -0.888277 0
M  V30 4245 H 388.905 -0.656794 -3.45513 0
M  V30 4246 H 388.779 1.08638 -3.61217 0
M  V30 4247 H 391.166 1.30784 -2.64536 0
M  V30 4248 H 391.247 -0.455066 -2.5172 0
M  V30 4249 H 390.891 -0.632473 -5.03947 0
M  V30 4250 H 390.821 1.14482 -5.14005 0
M  V30 4251 H 393.312 0.422923 -3.75526 0
M  V30 4252 H 393.625 0.24068 -7.72425 0
M  V30 4253 H 391.97 0.223396 -6.94641 0
M  V30 4254 H 395.161 0.44006 -4.66027 0
M  V30 4255 H 395.334 0.357184 -6.47015 0
M  V30 4256 N 388.74 1.54641 0.303973 0
M  V30 4257 C 390.151 1.64811 0.877163 0
M  V30 4258 C 390.502 0.554838 1.88191 0
M  V30 4259 O 389.627 -0.309033 2.14182 0
M  V30 4260 C 390.222 2.9876 1.59775 0
M  V30 4261 C 388.781 3.11061 2.11938 0
M  V30 4262 C 387.928 2.60479 0.951097 0
M  V30 4263 H 390.879 1.58493 0.0810486 0
M  V30 4264 H 390.9 2.90017 2.46314 0
M  V30 4265 H 390.412 3.7831 0.866226 0
M  V30 4266 H 388.513 2.36225 2.88146 0
M  V30 4267 H 388.626 4.17171 2.35595 0
M  V30 4268 H 386.99 2.16859 1.33583 0
M  V30 4269 H 387.773 3.42504 0.233581 0
M  V30 4270 N 390.218 -0.567019 1.47046 0
M  V30 4271 C 391.464 -1.32434 1.54379 0
M  V30 4272 C 391.819 -1.91365 0.199276 0
M  V30 4273 O 391.112 -1.74378 -0.793915 0
M  V30 4274 C 391.306 -2.4623 2.59047 0
M  V30 4275 C 391.135 -1.98448 4.03545 0
M  V30 4276 C 389.905 -1.82741 4.71098 0
M  V30 4277 C 392.103 -1.53477 4.90866 0
M  V30 4278 N 390.085 -1.29196 6.00151 0
M  V30 4279 C 391.456 -1.1163 6.09868 0
M  V30 4280 C 393.511 -1.41438 4.77388 0
M  V30 4281 C 392.214 -0.589425 7.16881 0
M  V30 4282 C 394.24 -0.901528 5.84488 0
M  V30 4283 C 393.602 -0.492932 7.02673 0
M  V30 4284 H 389.701 -0.477005 0.61967 0
M  V30 4285 H 392.285 -0.643856 1.83746 0
M  V30 4286 H 390.456 -3.11821 2.31564 0
M  V30 4287 H 392.188 -3.13213 2.56281 0
M  V30 4288 H 388.943 -2.05162 4.26855 0
M  V30 4289 H 389.367 -1.0454 6.6888 0
M  V30 4290 H 394.009 -1.71643 3.86392 0
M  V30 4291 H 391.727 -0.274994 8.07632 0
M  V30 4292 H 395.313 -0.812071 5.76105 0
M  V30 4293 H 394.193 -0.102227 7.84133 0
M  V30 4294 N 391.696 -1.35014 -0.812953 0
M  V30 4295 C 392.628 -1.23262 -1.93233 0
M  V30 4296 C 393.641 -0.157371 -1.62038 0
M  V30 4297 O 394.83 -0.410096 -1.73725 0
M  V30 4298 C 391.93 -0.87392 -3.27438 0
M  V30 4299 C 391.103 -2.04622 -3.86586 0
M  V30 4300 C 390.162 -1.66432 -4.99186 0
M  V30 4301 O 389.188 -2.38222 -5.16951 0
M  V30 4302 N 390.39 -0.584248 -5.77552 0
M  V30 4303 H 393.155 -2.19699 -2.03844 0
M  V30 4304 H 390.716 -1.281 -0.99005 0
M  V30 4305 H 392.708 -0.600039 -4.00227 0
M  V30 4306 H 391.278 0.00057392 -3.126 0
M  V30 4307 H 390.498 -2.48427 -3.06068 0
M  V30 4308 H 391.786 -2.82999 -4.22835 0
M  V30 4309 H 391.184 0.0123526 -5.65699 0
M  V30 4310 H 389.741 -0.37013 -6.50748 0
M  V30 4311 N 393.175 1.03435 -1.18907 0
M  V30 4312 C 394.4 1.80919 -1.01406 0
M  V30 4313 C 394.825 1.83055 0.432721 0
M  V30 4314 O 394.183 1.25252 1.31079 0
M  V30 4315 C 394.231 3.24091 -1.58105 0
M  V30 4316 O 393.335 4.04434 -0.806669 0
M  V30 4317 H 392.676 0.558709 -0.358803 0
M  V30 4318 H 395.206 1.30223 -1.57807 0
M  V30 4319 H 395.216 3.74853 -1.61087 0
M  V30 4320 H 393.891 3.21851 -2.6341 0
M  V30 4321 H 392.468 3.63091 -0.849666 0
M  V30 4322 N 394.653 0.992116 1.22453 0
M  V30 4323 C 395.878 0.685644 1.95739 0
M  V30 4324 C 396.303 -0.743 1.72804 0
M  V30 4325 O 395.661 -1.50778 1.00676 0
M  V30 4326 C 395.709 0.996293 3.46564 0
M  V30 4327 O 394.813 0.0945512 4.12292 0
M  V30 4328 H 394.154 0.256694 0.612376 0
M  V30 4329 H 396.684 1.32888 1.5557 0
M  V30 4330 H 396.694 0.93781 3.97076 0
M  V30 4331 H 395.369 2.03733 3.62582 0
M  V30 4332 H 393.946 0.208451 3.72317 0
M  V30 4333 N 396.131 -1.37776 0.765217 0
M  V30 4334 C 397.041 -2.34135 0.147666 0
M  V30 4335 C 398.057 -1.59854 -0.687215 0
M  V30 4336 O 399.233 -1.91983 -0.608659 0
M  V30 4337 C 396.298 -3.3901 -0.72617 0
M  V30 4338 C 395.359 -4.2912 0.124417 0
M  V30 4339 C 394.592 -5.28986 -0.707807 0
M  V30 4340 O 394.815 -5.36205 -1.94525 0
M  V30 4341 O 393.749 -6.01779 -0.12046 0
M  V30 4342 H 397.575 -2.88664 0.943758 0
M  V30 4343 H 395.16 -1.39824 0.526277 0
M  V30 4344 H 397.042 -4.03195 -1.22524 0
M  V30 4345 H 395.717 -2.86819 -1.50056 0
M  V30 4346 H 394.624 -3.68057 0.669696 0
M  V30 4347 H 395.957 -4.84598 0.861736 0
M  V30 4348 N 397.609 -0.515225 -1.4894 0
M  V30 4349 C 398.837 0.0206034 -2.0689 0
M  V30 4350 C 399.252 1.29514 -1.37374 0
M  V30 4351 O 398.609 1.76698 -0.456529 0
M  V30 4352 C 398.66 0.26351 -3.60538 0
M  V30 4353 O 398.381 -0.960517 -4.27441 0
M  V30 4354 C 399.882 0.841383 -4.35242 0
M  V30 4355 H 397.102 -0.0268608 -0.670462 0
M  V30 4356 H 399.646 -0.716651 -1.91532 0
M  V30 4357 H 397.801 0.950777 -3.75552 0
M  V30 4358 H 398.215 -0.73212 -5.19365 0
M  V30 4359 H 399.689 0.96085 -5.43573 0
M  V30 4360 H 400.166 1.8427 -3.98674 0
M  V30 4361 H 400.772 0.191143 -4.2487 0
M  V30 4362 N 399.087 1.5561 -0.249682 0
M  V30 4363 C 400.503 1.59254 0.105103 0
M  V30 4364 C 400.703 1.26685 1.56694 0
M  V30 4365 O 399.759 1.0155 2.31179 0
M  V30 4366 C 401.072 2.99687 -0.246592 0
M  V30 4367 C 402.62 3.12416 -0.191118 0
M  V30 4368 C 403.095 4.55074 -0.516885 0
M  V30 4369 N 404.586 4.60835 -0.467489 0
M  V30 4370 C 405.321 5.69201 -0.69268 0
M  V30 4371 N 404.817 6.85817 -0.981146 0
M  V30 4372 N 406.61 5.58635 -0.623198 0
M  V30 4373 H 398.761 1.75049 -1.20298 0
M  V30 4374 H 401.024 0.815003 -0.484225 0
M  V30 4375 H 400.73 3.28267 -1.26228 0
M  V30 4376 H 400.604 3.74798 0.424962 0
M  V30 4377 H 402.991 2.83615 0.815247 0
M  V30 4378 H 403.072 2.39573 -0.896563 0
M  V30 4379 H 402.716 4.84596 -1.52082 0
M  V30 4380 H 402.646 5.26181 0.210068 0
M  V30 4381 H 405.137 3.7705 -0.253373 0
M  V30 4382 H 405.45 7.64341 -1.14032 0
M  V30 4383 H 403.795 6.87494 -1.01865 0
M  V30 4384 H 406.986 4.66406 -0.397863 0
M  V30 4385 H 407.159 6.43017 -0.802093 0
M  V30 4386 N 400.565 -0.0233959 1.57583 0
M  V30 4387 C 401.79 -0.728376 1.94189 0
M  V30 4388 C 402.215 -1.67793 0.850119 0
M  V30 4389 O 401.573 -1.80262 -0.19371 0
M  V30 4390 C 401.621 -1.45669 3.29868 0
M  V30 4391 O 400.725 -2.57013 3.22518 0
M  V30 4392 H 400.066 -0.195493 0.63457 0
M  V30 4393 H 402.596 0.0228214 2.04587 0
M  V30 4394 H 402.606 -1.82535 3.6489 0
M  V30 4395 H 401.281 -0.760314 4.08891 0
M  V30 4396 H 399.858 -2.22648 2.99136 0
M  V30 4397 N 402.043 -1.548 -0.295768 0
M  V30 4398 C 403.292 -1.73538 -1.02798 0
M  V30 4399 C 403.605 -0.531159 -1.8825 0
M  V30 4400 O 404.811 -0.600458 -2.64777 0
M  V30 4401 C 403.267 -3.07051 -1.87744 0
M  V30 4402 C 402.875 -4.34968 -1.07269 0
M  V30 4403 C 404.619 -3.35146 -2.60533 0
M  V30 4404 C 402.526 -5.5953 -1.91521 0
M  V30 4405 H 401.456 -0.646794 -0.387522 0
M  V30 4406 H 404.107 -1.81278 -0.284718 0
M  V30 4407 H 402.489 -2.93289 -2.66078 0
M  V30 4408 H 403.663 -4.5958 -0.335117 0
M  V30 4409 H 401.978 -4.13847 -0.460384 0
M  V30 4410 H 404.575 -4.2541 -3.23929 0
M  V30 4411 H 404.918 -2.54255 -3.29636 0
M  V30 4412 H 405.451 -3.49902 -1.89244 0
M  V30 4413 H 402.19 -6.43103 -1.26878 0
M  V30 4414 H 401.71 -5.39096 -2.62937 0
M  V30 4415 H 403.389 -5.96982 -2.49442 0
M  V30 4416 N 403.521 0.559213 -1.47345 0
M  V30 4417 C 404.749 1.34194 -1.57479 0
M  V30 4418 C 405.164 1.87463 -0.224261 0
M  V30 4419 O 404.521 1.64888 0.782185 0
M  V30 4420 C 404.572 2.51324 -2.59843 0
M  V30 4421 O 404.293 2.00256 -3.89653 0
M  V30 4422 C 405.794 3.43563 -2.80142 0
M  V30 4423 H 403.014 0.409136 -0.531835 0
M  V30 4424 H 405.558 0.677609 -1.92947 0
M  V30 4425 H 403.713 3.13699 -2.27314 0
M  V30 4426 H 404.127 2.76708 -4.4557 0
M  V30 4427 H 405.601 4.2217 -3.55635 0
M  V30 4428 H 406.078 3.9698 -1.87892 0
M  V30 4429 H 406.684 2.87005 -3.1386 0
M  V30 4430 N 404.999 1.35443 0.805782 0
M  V30 4431 C 405.947 1.28465 1.93906 0
M  V30 4432 C 406.941 0.17943 1.68447 0
M  V30 4433 O 408.147 0.345459 1.76654 0
M  V30 4434 H 404.522 0.399528 0.637088 0
M  V30 4435 H 406.493 2.24206 1.96912 0
M  V30 4436 C 405.242 1.07432 3.30687 0
M  V30 4437 H 404.565 1.91716 3.50835 0
M  V30 4438 H 406.005 1.06591 4.10383 0
M  V30 4439 C 404.464 -0.22179 3.36169 0
M  V30 4440 O 404.994 -1.21731 3.82811 0
M  V30 4441 N 403.2 -0.260841 2.89427 0
M  V30 4442 H 402.747 0.549884 2.51663 0
M  V30 4443 H 402.705 -1.12777 2.93477 0
M  V30 4444 N 406.477 -1.02803 1.19454 0
M  V30 4445 C 407.705 -1.79841 1.02297 0
M  V30 4446 C 408.12 -1.83879 -0.428259 0
M  V30 4447 O 407.477 -1.28345 -1.29745 0
M  V30 4448 C 407.528 -3.24852 1.58598 0
M  V30 4449 O 407.249 -3.21097 2.98041 0
M  V30 4450 C 408.75 -4.18485 1.46236 0
M  V30 4451 H 405.97 -0.565936 0.360496 0
M  V30 4452 H 408.514 -1.2948 1.58288 0
M  V30 4453 H 406.669 -3.72401 1.06753 0
M  V30 4454 H 407.083 -4.12033 3.24545 0
M  V30 4455 H 408.557 -5.18121 1.90407 0
M  V30 4456 H 409.034 -4.37254 0.41301 0
M  V30 4457 H 409.64 -3.76811 1.97215 0
M  V30 4458 N 407.956 -0.998596 -1.21925 0
M  V30 4459 C 409.184 -0.696286 -1.94832 0
M  V30 4460 C 409.599 0.740032 -1.73692 0
M  V30 4461 O 408.956 1.5 -1.03953 0
M  V30 4462 C 409.007 -0.999833 -3.47398 0
M  V30 4463 O 408.728 -2.37972 -3.67833 0
M  V30 4464 C 410.229 -0.716025 -4.37479 0
M  V30 4465 H 407.449 -0.257111 -0.619786 0
M  V30 4466 H 409.993 -1.33491 -1.54921 0
M  V30 4467 H 408.148 -0.406918 -3.85257 0
M  V30 4468 H 408.562 -2.48338 -4.61983 0
M  V30 4469 H 410.036 -0.978642 -5.43256 0
M  V30 4470 H 410.513 0.349968 -4.37803 0
M  V30 4471 H 411.119 -1.29025 -4.05256 0
M  V30 4472 N 409.434 1.37368 -0.772513 0
M  V30 4473 C 410.68 1.99969 -0.337681 0
M  V30 4474 C 411.013 1.61184 1.08321 0
M  V30 4475 O 410.288 0.858395 1.74533 0
M  V30 4476 C 410.571 3.56858 -0.482121 0
M  V30 4477 C 410.424 4.0555 -1.94549 0
M  V30 4478 C 411.743 4.39955 0.113143 0
M  V30 4479 H 408.862 0.726464 -0.124171 0
M  V30 4480 H 411.504 1.63034 -0.975699 0
M  V30 4481 H 409.654 3.88452 0.0610361 0
M  V30 4482 H 411.326 3.84518 -2.54841 0
M  V30 4483 H 409.569 3.57715 -2.45403 0
M  V30 4484 H 410.24 5.14587 -1.9976 0
M  V30 4485 H 412.716 4.14623 -0.35031 0
M  V30 4486 H 411.592 5.48897 -0.0180514 0
M  V30 4487 H 411.853 4.25403 1.20354 0
M  V30 4488 N 410.912 0.523116 1.48665 0
M  V30 4489 C 412.152 -0.0115588 2.04397 0
M  V30 4490 C 412.516 -1.32225 1.39214 0
M  V30 4491 O 413.717 -1.94253 1.85793 0
M  V30 4492 C 411.988 -0.138119 3.57133 0
M  V30 4493 S 413.547 -0.623849 4.34343 0
M  V30 4494 H 410.365 0.00877706 0.710946 0
M  V30 4495 H 412.967 0.702116 1.82457 0
M  V30 4496 H 411.671 0.820748 4.02109 0
M  V30 4497 H 411.202 -0.876377 3.83514 0
M  V30 4498 H 413.217 -1.8895 4.58816 0
M  V30 4499 N 412.39 -1.55475 0.257931 0
M  V30 4500 C 413.618 -2.03609 -0.367559 0
M  V30 4501 C 414.033 -1.13687 -1.50734 0
M  V30 4502 O 413.39 -0.153479 -1.81853 0
M  V30 4503 C 413.441 -3.51001 -0.864908 0
M  V30 4504 O 413.162 -4.37499 0.229465 0
M  V30 4505 C 414.663 -4.14946 -1.55997 0
M  V30 4506 H 411.883 -0.665459 -0.0860521 0
M  V30 4507 H 414.427 -2.00843 0.385014 0
M  V30 4508 H 412.582 -3.54266 -1.56762 0
M  V30 4509 H 412.996 -5.24286 -0.14998 0
M  V30 4510 H 414.47 -5.19735 -1.85956 0
M  V30 4511 H 414.947 -3.6209 -2.4857 0
M  V30 4512 H 415.553 -4.15635 -0.901543 0
M  V30 4513 N 413.868 0.0150385 -1.57593 0
M  V30 4514 C 414.815 1.01126 -2.07466 0
M  V30 4515 C 415.785 1.35064 -0.966794 0
M  V30 4516 O 416.97 1.4516 -1.23827 0
M  V30 4517 C 414.11 2.30276 -2.57035 0
M  V30 4518 C 413.223 2.02373 -3.81666 0
M  V30 4519 C 412.358 3.25496 -4.19793 0
M  V30 4520 C 411.397 2.93211 -5.37303 0
M  V30 4521 N 410.534 4.08826 -5.70794 0
M  V30 4522 H 415.374 0.57901 -2.92321 0
M  V30 4523 H 412.911 0.27426 -1.44521 0
M  V30 4524 H 414.869 3.05757 -2.83846 0
M  V30 4525 H 413.499 2.71197 -1.75077 0
M  V30 4526 H 412.551 1.17327 -3.61854 0
M  V30 4527 H 413.863 1.74567 -4.67256 0
M  V30 4528 H 413.017 4.09333 -4.47807 0
M  V30 4529 H 411.756 3.56428 -3.32882 0
M  V30 4530 H 410.761 2.07777 -5.09027 0
M  V30 4531 H 411.986 2.63542 -6.25877 0
M  V30 4532 H 409.932 4.39682 -4.86842 0
M  V30 4533 H 409.849 3.84491 -6.50924 0
M  V30 4534 H 411.117 4.93496 -6.03392 0
M  V30 4535 N 415.346 1.54954 0.287554 0
M  V30 4536 C 416.586 1.76617 1.02887 0
M  V30 4537 C 416.95 0.547759 1.84021 0
M  V30 4538 O 418.151 0.642365 2.61012 0
M  V30 4539 C 416.422 3.02717 1.89993 0
M  V30 4540 S 417.981 3.45438 2.70588 0
M  V30 4541 H 414.799 0.6207 0.346775 0
M  V30 4542 H 417.401 1.93172 0.30082 0
M  V30 4543 H 416.105 3.89503 1.29287 0
M  V30 4544 H 415.636 2.88787 2.67144 0
M  V30 4545 H 417.651 3.03566 3.92508 0
M  V30 4546 N 416.824 -0.551391 1.4764 0
M  V30 4547 C 418.072 -1.30572 1.54258 0
M  V30 4548 C 418.393 -1.93877 0.208963 0
M  V30 4549 O 417.663 -1.80234 -0.767619 0
M  V30 4550 H 416.243 -0.484894 0.568231 0
M  V30 4551 H 418.905 -0.643402 1.83974 0
M  V30 4552 H 418.001 -2.09621 2.31226 0
M  V30 4553 N 418.302 -1.35869 -0.798587 0
M  V30 4554 C 419.55 -1.29332 -1.55298 0
M  V30 4555 C 419.871 0.129729 -1.94568 0
M  V30 4556 O 419.141 1.06796 -1.6423 0
M  V30 4557 H 417.721 -0.475737 -0.57592 0
M  V30 4558 H 420.383 -1.70062 -0.952093 0
M  V30 4559 H 419.479 -1.91458 -2.46476 0
M  V30 4560 N 419.78 1.02168 -1.19998 0
M  V30 4561 C 420.743 2.08765 -0.94604 0
M  V30 4562 C 421.743 1.60618 0.0763846 0
M  V30 4563 O 422.933 1.73472 -0.159135 0
M  V30 4564 C 420.065 3.38262 -0.423255 0
M  V30 4565 H 421.258 2.32726 -1.89153 0
M  V30 4566 H 418.811 1.1889 -1.01464 0
M  V30 4567 H 419.546 3.19974 0.527938 0
M  V30 4568 H 419.331 3.74532 -1.16053 0
M  V30 4569 H 420.821 4.16759 -0.264911 0
M  V30 4570 N 421.258 1.00505 1.21394 0
M  V30 4571 C 422.506 0.686415 1.90086 0
M  V30 4572 C 422.827 -0.785264 1.7849 0
M  V30 4573 O 422.097 -1.56387 1.17983 0
M  V30 4574 H 420.677 0.2509 0.703604 0
M  V30 4575 H 423.339 1.27417 1.47482 0
M  V30 4576 H 422.435 0.959621 2.96981 0
M  V30 4577 N 422.737 -1.36956 0.779787 0
M  V30 4578 C 423.687 -2.27539 0.144892 0
M  V30 4579 C 424.671 -1.46493 -0.665488 0
M  V30 4580 O 425.863 -1.68968 -0.527141 0
M  V30 4581 C 422.992 -3.35512 -0.727082 0
M  V30 4582 C 422.078 -4.24001 0.0915642 0
M  V30 4583 N 422.469 -4.92757 1.14125 0
M  V30 4584 C 420.767 -4.45807 -0.131141 0
M  V30 4585 C 421.468 -5.58138 1.6388 0
M  V30 4586 N 420.444 -5.35241 0.94962 0
M  V30 4587 H 424.246 -2.78176 0.948446 0
M  V30 4588 H 421.76 -1.50169 0.618315 0
M  V30 4589 H 423.757 -3.99324 -1.19776 0
M  V30 4590 H 422.417 -2.86431 -1.52929 0
M  V30 4591 H 423.428 -4.94984 1.52353 0
M  V30 4592 H 420.105 -4.07582 -0.904621 0
M  V30 4593 H 421.495 -6.23071 2.51461 0
M  V30 4594 N 424.215 -0.530993 -1.48385 0
M  V30 4595 C 425.464 0.00474348 -2.01699 0
M  V30 4596 C 425.777 1.35227 -1.41325 0
M  V30 4597 O 426.983 1.97643 -1.86144 0
M  V30 4598 C 425.439 0.0588473 -3.59852 0
M  V30 4599 C 425.047 -1.28385 -4.2921 0
M  V30 4600 C 426.791 0.543358 -4.21008 0
M  V30 4601 C 424.698 -1.19028 -5.79298 0
M  V30 4602 H 423.628 0.00554317 -0.75398 0
M  V30 4603 H 426.279 -0.674924 -1.70637 0
M  V30 4604 H 424.661 0.803612 -3.8776 0
M  V30 4605 H 425.835 -2.04426 -4.12973 0
M  V30 4606 H 424.15 -1.70418 -3.7993 0
M  V30 4607 H 426.747 0.631351 -5.3096 0
M  V30 4608 H 427.09 1.54937 -3.86394 0
M  V30 4609 H 427.623 -0.145754 -3.97533 0
M  V30 4610 H 424.362 -2.17147 -6.18488 0
M  V30 4611 H 423.882 -0.471246 -5.97946 0
M  V30 4612 H 425.561 -0.881365 -6.40969 0
M  V30 4613 N 425.693 1.55336 -0.266172 0
M  V30 4614 C 426.656 2.20878 0.612001 0
M  V30 4615 C 427.656 1.18388 1.08816 0
M  V30 4616 O 428.846 1.4335 0.989774 0
M  V30 4617 C 425.978 2.86765 1.84332 0
M  V30 4618 H 427.171 2.99873 0.0398718 0
M  V30 4619 H 424.724 1.56291 -0.0167309 0
M  V30 4620 H 425.459 2.11759 2.45619 0
M  V30 4621 H 425.244 3.61862 1.5099 0
M  V30 4622 H 426.734 3.36867 2.46801 0
M  V30 4623 N 427.171 -0.0066808 1.57599 0
M  V30 4624 C 428.396 -0.707738 1.94951 0
M  V30 4625 C 428.821 -1.66882 0.867868 0
M  V30 4626 O 428.179 -1.80457 -0.17458 0
M  V30 4627 C 428.227 -1.42162 3.31394 0
M  V30 4628 O 427.331 -2.53578 3.25226 0
M  V30 4629 H 426.672 -0.188752 0.636607 0
M  V30 4630 H 429.202 0.0445193 2.04552 0
M  V30 4631 H 429.212 -1.78655 3.66806 0
M  V30 4632 H 427.887 -0.716903 4.09675 0
M  V30 4633 H 426.464 -2.19463 3.01481 0
M  V30 4634 N 428.649 -1.55105 -0.279332 0
M  V30 4635 C 429.926 -1.66119 -1.03267 0
M  V30 4636 C 430.306 -0.523525 -2.04505 0
M  V30 4637 O 429.654 0.477194 -2.23462 0
M  V30 4638 C 429.864 -3.05067 -1.69515 0
M  V30 4639 C 431.212 -3.62606 -2.20912 0
M  V30 4640 O 432.236 -3.07659 -1.79512 0
M  V30 4641 O 431.095 -4.58861 -2.96831 0
M  V30 4642 H 428.189 -0.674429 -0.478618 0
M  V30 4643 H 430.735 -1.67446 -0.275694 0
M  V30 4644 H 429.507 -3.79311 -0.9612 0
M  V30 4645 H 429.13 -3.07611 -2.51915 0
M  V30 4646 N 430.127 0.543554 -1.4793 0
M  V30 4647 C 431.367 1.31072 -1.56843 0
M  V30 4648 C 431.731 1.90604 -0.231124 0
M  V30 4649 O 432.932 2.68091 -0.195165 0
M  V30 4650 C 431.203 2.38106 -2.66533 0
M  V30 4651 S 432.762 3.24729 -2.95122 0
M  V30 4652 H 429.58 0.446035 -0.553691 0
M  V30 4653 H 432.182 0.620777 -1.85382 0
M  V30 4654 H 430.886 1.92828 -3.62278 0
M  V30 4655 H 430.417 3.11824 -2.39852 0
M  V30 4656 H 432.432 4.37891 -2.3338 0
M  V30 4657 N 431.605 1.3629 0.791371 0
M  V30 4658 C 432.552 1.30458 1.90393 0
M  V30 4659 C 433.522 0.173632 1.6519 0
M  V30 4660 O 434.707 0.35983 1.87376 0
M  V30 4661 C 431.847 1.09777 3.27174 0
M  V30 4662 C 430.96 2.31929 3.64462 0
M  V30 4663 C 430.095 2.04276 4.90352 0
M  V30 4664 C 429.134 3.224 5.20312 0
M  V30 4665 N 428.271 2.94424 6.37385 0
M  V30 4666 H 433.111 2.25589 1.94714 0
M  V30 4667 H 430.648 1.12122 0.952216 0
M  V30 4668 H 432.606 0.958133 4.06049 0
M  V30 4669 H 431.236 0.183014 3.22281 0
M  V30 4670 H 430.288 2.56703 2.80727 0
M  V30 4671 H 431.6 3.20085 3.82553 0
M  V30 4672 H 430.754 1.87231 5.77087 0
M  V30 4673 H 429.493 1.13428 4.74326 0
M  V30 4674 H 428.498 3.40005 4.32061 0
M  V30 4675 H 429.723 4.14071 5.38258 0
M  V30 4676 H 427.669 2.06185 6.22755 0
M  V30 4677 H 427.586 3.76118 6.55798 0
M  V30 4678 H 428.854 2.80953 7.27108 0
M  V30 4679 N 433.083 -1.0153 1.20538 0
M  V30 4680 C 434.33 -1.75149 1.01633 0
M  V30 4681 C 434.658 -1.89189 -0.451399 0
M  V30 4682 O 433.913 -1.41551 -1.35136 0
M  V30 4683 C 434.212 -3.17213 1.64654 0
M  V30 4684 C 433.878 -3.23146 3.14464 0
M  V30 4685 C 432.54 -3.24472 3.55347 0
M  V30 4686 C 434.892 -3.21207 4.10458 0
M  V30 4687 C 432.22 -3.21532 4.90748 0
M  V30 4688 C 434.572 -3.19808 5.45807 0
M  V30 4689 C 433.236 -3.19439 5.86102 0
M  V30 4690 H 432.506 -0.640914 0.3719 0
M  V30 4691 H 435.153 -1.19071 1.49981 0
M  V30 4692 H 433.458 -3.76457 1.08571 0
M  V30 4693 H 435.155 -3.72871 1.4754 0
M  V30 4694 H 431.745 -3.2285 2.81897 0
M  V30 4695 H 435.929 -3.19351 3.79906 0
M  V30 4696 H 431.185 -3.19578 5.21229 0
M  V30 4697 H 435.359 -3.1726 6.19935 0
M  V30 4698 H 432.986 -3.16915 6.90991 0
M  V30 4699 N 434.561 -1.01147 -1.20859 0
M  V30 4700 C 435.493 -0.535546 -2.22855 0
M  V30 4701 C 436.506 0.379323 -1.58319 0
M  V30 4702 O 437.695 0.178489 -1.77605 0
M  V30 4703 C 434.795 0.240962 -3.38042 0
M  V30 4704 C 433.968 -0.674562 -4.32167 0
M  V30 4705 C 433.027 0.053467 -5.26173 0
M  V30 4706 O 432.053 -0.567339 -5.66366 0
M  V30 4707 N 433.255 1.32997 -5.65059 0
M  V30 4708 H 436.02 -1.41268 -2.64317 0
M  V30 4709 H 433.581 -0.888386 -1.35349 0
M  V30 4710 H 435.573 0.737115 -3.97931 0
M  V30 4711 H 434.143 1.01935 -2.95513 0
M  V30 4712 H 433.363 -1.35111 -3.70322 0
M  V30 4713 H 434.651 -1.2974 -4.91981 0
M  V30 4714 H 434.049 1.85536 -5.34409 0
M  V30 4715 H 432.606 1.77095 -6.2728 0
M  V30 4716 N 436.039 1.36541 -0.78704 0
M  V30 4717 C 437.455 1.52571 -0.46844 0
M  V30 4718 C 437.655 1.7415 1.01361 0
M  V30 4719 O 436.711 1.77163 1.79915 0
M  V30 4720 C 438.024 2.71299 -1.29682 0
M  V30 4721 C 439.572 2.85169 -1.29027 0
M  V30 4722 C 440.047 4.06898 -2.10233 0
M  V30 4723 N 441.538 4.1404 -2.07666 0
M  V30 4724 C 442.273 5.07301 -2.67271 0
M  V30 4725 N 441.769 6.06021 -3.35724 0
M  V30 4726 N 443.562 4.99898 -2.57018 0
M  V30 4727 H 435.713 1.20788 -1.74711 0
M  V30 4728 H 437.976 0.589364 -0.742532 0
M  V30 4729 H 437.682 2.61868 -2.34773 0
M  V30 4730 H 437.556 3.6539 -0.936479 0
M  V30 4731 H 439.943 2.94062 -0.247284 0
M  V30 4732 H 440.024 1.91992 -1.69035 0
M  V30 4733 H 439.668 3.98766 -3.1456 0
M  V30 4734 H 439.598 4.99218 -1.67597 0
M  V30 4735 H 442.089 3.43357 -1.57843 0
M  V30 4736 H 442.402 6.73741 -3.78541 0
M  V30 4737 H 440.747 6.06253 -3.39826 0
M  V30 4738 H 443.938 4.21724 -2.03142 0
M  V30 4739 H 444.111 5.72392 -3.03761 0
M  V30 4740 N 437.518 0.538854 1.48102 0
M  V30 4741 C 438.929 0.100679 1.86428 0
M  V30 4742 C 439.28 -1.32447 1.44749 0
M  V30 4743 O 438.405 -1.99339 0.842199 0
M  V30 4744 C 439 0.175933 3.38343 0
M  V30 4745 C 437.559 -0.207098 3.7583 0
M  V30 4746 C 436.706 0.531741 2.72154 0
M  V30 4747 H 439.657 0.749614 1.3988 0
M  V30 4748 H 439.678 -0.610144 3.75576 0
M  V30 4749 H 439.19 1.21328 3.68648 0
M  V30 4750 H 437.291 -1.24626 3.5114 0
M  V30 4751 H 437.404 0.138687 4.78899 0
M  V30 4752 H 435.768 -0.0230462 2.5469 0
M  V30 4753 H 436.551 1.56989 3.05302 0
M  V30 4754 N 438.996 -1.55193 0.274407 0
M  V30 4755 C 440.244 -1.99187 -0.341902 0
M  V30 4756 C 440.565 -1.16422 -1.56431 0
M  V30 4757 O 439.835 -0.253573 -1.94252 0
M  V30 4758 H 438.415 -0.735721 -0.129317 0
M  V30 4759 H 441.077 -1.91168 0.379578 0
M  V30 4760 H 440.173 -3.05629 -0.632253 0
M  V30 4761 N 440.474 -0.00167713 -1.576 0
M  V30 4762 C 441.751 0.719951 -1.81868 0
M  V30 4763 C 442.131 1.91895 -0.879747 0
M  V30 4764 O 441.479 2.28389 0.0711423 0
M  V30 4765 C 441.689 1.12409 -3.30402 0
M  V30 4766 C 443.037 1.52724 -3.96182 0
M  V30 4767 O 444.061 1.21784 -3.34734 0
M  V30 4768 O 442.92 2.10265 -5.04431 0
M  V30 4769 H 440.014 0.350707 -0.748955 0
M  V30 4770 H 442.56 -0.0272597 -1.69678 0
M  V30 4771 H 441.332 0.269532 -3.90371 0
M  V30 4772 H 440.955 1.93035 -3.47596 0
M  V30 4773 N 441.952 1.55251 0.271103 0
M  V30 4774 C 443.363 1.66635 0.842007 0
M  V30 4775 C 443.714 0.594631 1.86972 0
M  V30 4776 O 442.839 -0.263532 2.14789 0
M  V30 4777 C 443.434 3.02082 1.53401 0
M  V30 4778 C 441.993 3.15487 2.05293 0
M  V30 4779 C 441.14 2.62438 0.895631 0
M  V30 4780 H 444.091 1.58629 0.0474117 0
M  V30 4781 H 444.112 2.95176 2.40107 0
M  V30 4782 H 443.624 3.80062 0.785786 0
M  V30 4783 H 441.725 2.42284 2.83071 0
M  V30 4784 H 441.838 4.22075 2.26693 0
M  V30 4785 H 440.202 2.19644 1.28953 0
M  V30 4786 H 440.985 3.42923 0.160878 0
M  V30 4787 N 443.43 -0.535701 1.48216 0
M  V30 4788 C 444.362 -1.65662 1.58394 0
M  V30 4789 C 445.375 -1.5591 0.468607 0
M  V30 4790 O 446.564 -1.62475 0.7392 0
M  V30 4791 C 443.664 -3.04276 1.4923 0
M  V30 4792 C 442.837 -3.39567 2.75705 0
M  V30 4793 C 441.896 -4.57436 2.60075 0
M  V30 4794 O 440.922 -4.60942 3.33948 0
M  V30 4795 N 442.124 -5.55259 1.69315 0
M  V30 4796 H 444.889 -1.5737 2.55058 0
M  V30 4797 H 442.45 -0.722845 1.44867 0
M  V30 4798 H 444.442 -3.80994 1.36477 0
M  V30 4799 H 443.012 -3.06677 0.605632 0
M  V30 4800 H 442.232 -2.52083 3.03064 0
M  V30 4801 H 443.52 -3.59929 3.59623 0
M  V30 4802 H 442.918 -5.552 1.08489 0
M  V30 4803 H 441.475 -6.31218 1.62504 0
M  V30 4804 N 444.908 -1.36708 -0.784132 0
M  V30 4805 C 446.133 -1.34565 -1.5782 0
M  V30 4806 C 446.558 0.0695257 -1.87971 0
M  V30 4807 O 445.916 1.04302 -1.48293 0
M  V30 4808 C 445.964 -2.17952 -2.87279 0
M  V30 4809 O 445.068 -1.57563 -3.81114 0
M  V30 4810 H 444.409 -0.460337 -0.478524 0
M  V30 4811 H 446.939 -1.80064 -0.971495 0
M  V30 4812 H 446.949 -2.30721 -3.365 0
M  V30 4813 H 445.624 -3.20823 -2.64661 0
M  V30 4814 H 444.201 -1.53764 -3.39722 0
M  V30 4815 N 446.386 1.0089 -1.21074 0
M  V30 4816 C 447.349 2.0775 -0.968129 0
M  V30 4817 C 448.349 1.6069 0.0593445 0
M  V30 4818 O 449.539 1.73293 -0.177525 0
M  V30 4819 C 446.671 3.37794 -0.459108 0
M  V30 4820 H 447.864 2.30707 -1.9161 0
M  V30 4821 H 445.417 1.17807 -1.02719 0
M  V30 4822 H 446.152 3.20516 0.49397 0
M  V30 4823 H 445.937 3.7328 -1.20019 0
M  V30 4824 H 447.427 4.16454 -0.309099 0
M  V30 4825 N 447.864 1.01787 1.20321 0
M  V30 4826 C 448.796 0.547357 2.22568 0
M  V30 4827 C 449.809 -0.370922 1.58518 0
M  V30 4828 O 450.998 -0.169067 1.77698 0
M  V30 4829 C 448.098 -0.223031 3.38165 0
M  V30 4830 C 447.271 0.697472 4.31803 0
M  V30 4831 C 446.33 -0.025562 5.26194 0
M  V30 4832 O 445.356 0.597367 5.66057 0
M  V30 4833 N 446.558 -1.29999 5.65757 0
M  V30 4834 H 449.323 1.42668 2.63564 0
M  V30 4835 H 446.884 0.895552 1.34876 0
M  V30 4836 H 448.876 -0.716002 3.98316 0
M  V30 4837 H 447.446 -1.00366 2.9605 0
M  V30 4838 H 446.666 1.37073 3.69601 0
M  V30 4839 H 447.954 1.32347 4.91286 0
M  V30 4840 H 447.352 -1.827 5.35385 0
M  V30 4841 H 445.909 -1.73766 6.28211 0
M  V30 4842 N 449.342 -1.36122 0.79427 0
M  V30 4843 C 450.619 -1.93398 0.292685 0
M  V30 4844 C 450.999 -1.72567 -1.21589 0
M  V30 4845 O 450.347 -1.08745 -2.00965 0
M  V30 4846 C 450.557 -3.42099 0.690614 0
M  V30 4847 C 451.905 -4.19231 0.673105 0
M  V30 4848 O 452.929 -3.50559 0.631389 0
M  V30 4849 O 451.788 -5.41732 0.720362 0
M  V30 4850 H 448.882 -0.823712 0.0736693 0
M  V30 4851 H 451.428 -1.45273 0.87714 0
M  V30 4852 H 450.2 -3.50938 1.73085 0
M  V30 4853 H 449.823 -3.97519 0.0803036 0
M  V30 4854 N 450.82 -0.546701 -1.47814 0
M  V30 4855 C 451.767 0.206854 -2.29871 0
M  V30 4856 C 452.737 0.918235 -1.38411 0
M  V30 4857 O 453.922 0.915991 -1.67375 0
M  V30 4858 C 451.062 1.23746 -3.22151 0
M  V30 4859 C 450.175 0.533216 -4.28697 0
M  V30 4860 C 449.31 1.5482 -5.08138 0
M  V30 4861 C 448.349 0.828347 -6.06469 0
M  V30 4862 N 447.486 1.78966 -6.78908 0
M  V30 4863 H 452.326 -0.499037 -2.93792 0
M  V30 4864 H 449.863 -0.25793 -1.44821 0
M  V30 4865 H 451.821 1.84746 -3.74065 0
M  V30 4866 H 450.451 1.91151 -2.60117 0
M  V30 4867 H 449.503 -0.191089 -3.7992 0
M  V30 4868 H 450.815 -0.0311987 -4.9879 0
M  V30 4869 H 449.969 2.23202 -5.6415 0
M  V30 4870 H 448.708 2.14652 -4.37922 0
M  V30 4871 H 447.713 0.130539 -5.49645 0
M  V30 4872 H 448.938 0.235907 -6.7869 0
M  V30 4873 H 446.884 2.37675 -6.1143 0
M  V30 4874 H 446.801 1.27712 -7.45135 0
M  V30 4875 H 448.069 2.46496 -7.395 0
M  V30 4876 N 452.299 1.55045 -0.282633 0
M  V30 4877 C 453.262 2.21515 0.588539 0
M  V30 4878 C 454.262 1.19535 1.07554 0
M  V30 4879 O 455.452 1.44391 0.974514 0
M  V30 4880 C 452.584 2.88704 1.8128 0
M  V30 4881 H 453.777 2.99899 0.00806397 0
M  V30 4882 H 451.33 1.56265 -0.0333067 0
M  V30 4883 H 452.065 2.14352 2.43359 0
M  V30 4884 H 451.85 3.63443 1.47144 0
M  V30 4885 H 453.34 3.39465 2.43214 0
M  V30 4886 N 453.777 0.010035 1.57597 0
M  V30 4887 C 455.193 -0.346164 1.55801 0
M  V30 4888 C 455.393 -1.74144 1.01371 0
M  V30 4889 O 454.449 -2.43938 0.651968 0
M  V30 4890 C 455.762 -0.212216 2.9995 0
M  V30 4891 C 457.31 -0.286409 3.11687 0
M  V30 4892 C 457.785 -0.18147 4.5764 0
M  V30 4893 N 459.276 -0.239056 4.62583 0
M  V30 4894 C 460.011 -0.181351 5.73113 0
M  V30 4895 N 459.507 -0.073661 6.92761 0
M  V30 4896 N 461.3 -0.233949 5.61613 0
M  V30 4897 H 453.451 0.922657 1.91313 0
M  V30 4898 H 455.714 0.354595 0.879185 0
M  V30 4899 H 455.42 0.748169 3.4365 0
M  V30 4900 H 455.294 -0.990224 3.6397 0
M  V30 4901 H 457.681 -1.23724 2.67911 0
M  V30 4902 H 457.762 0.521645 2.50425 0
M  V30 4903 H 457.406 0.765863 5.02093 0
M  V30 4904 H 457.336 -1.00814 5.1686 0
M  V30 4905 H 459.827 -0.32321 3.76515 0
M  V30 4906 H 460.14 -0.0358003 7.72792 0
M  V30 4907 H 458.485 -0.0391461 6.94989 0
M  V30 4908 H 461.676 -0.316347 4.6703 0
M  V30 4909 H 461.849 -0.185514 6.47734 0
M  V30 4910 N 455.255 -1.55392 -0.262866 0
M  V30 4911 C 456.188 -1.8391 -1.35101 0
M  V30 4912 C 457.166 -0.692901 -1.47097 0
M  V30 4913 O 458.35 -0.936979 -1.63563 0
M  V30 4914 C 455.477 -2.00969 -2.72634 0
M  V30 4915 C 454.523 -3.23559 -2.7787 0
M  V30 4916 S 455.356 -4.80647 -2.3609 0
M  V30 4917 C 456.512 -5.00692 -3.75578 0
M  V30 4918 H 456.745 -2.75918 -1.1071 0
M  V30 4919 H 454.278 -1.47294 -0.463029 0
M  V30 4920 H 456.236 -2.11482 -3.51832 0
M  V30 4921 H 454.897 -1.09832 -2.94272 0
M  V30 4922 H 454.09 -3.32413 -3.78837 0
M  V30 4923 H 453.692 -3.11689 -2.06702 0
M  V30 4924 H 455.984 -4.87055 -4.70939 0
M  V30 4925 H 456.927 -6.02717 -3.71669 0
M  V30 4926 H 457.335 -4.28619 -3.6735 0
M  V30 4927 N 456.733 0.527833 -1.48498 0
M  V30 4928 C 458.01 1.28905 -1.47115 0
M  V30 4929 C 458.39 2.10297 -0.184007 0
M  V30 4930 O 457.738 2.12728 0.834218 0
M  V30 4931 C 457.948 2.16866 -2.73441 0
M  V30 4932 C 459.296 2.76936 -3.21857 0
M  V30 4933 O 460.32 2.27152 -2.74373 0
M  V30 4934 O 459.179 3.67496 -4.04486 0
M  V30 4935 H 456.273 0.581918 -0.587623 0
M  V30 4936 H 458.819 0.544311 -1.60734 0
M  V30 4937 H 457.591 1.56521 -3.58632 0
M  V30 4938 H 457.214 2.98583 -2.62553 0
M  V30 4939 N 458.211 1.37122 0.776871 0
M  V30 4940 C 459.158 1.3247 1.88998 0
M  V30 4941 C 460.128 0.191143 1.64997 0
M  V30 4942 O 461.313 0.379683 1.86984 0
M  V30 4943 C 458.453 1.13241 3.25992 0
M  V30 4944 C 457.566 2.35782 3.61982 0
M  V30 4945 C 456.701 2.09465 4.88158 0
M  V30 4946 C 455.74 3.279 5.16864 0
M  V30 4947 N 454.877 3.01167 6.34226 0
M  V30 4948 H 459.717 2.27642 1.9231 0
M  V30 4949 H 457.254 1.13125 0.94027 0
M  V30 4950 H 459.212 1.00115 4.0501 0
M  V30 4951 H 457.842 0.217186 3.22069 0
M  V30 4952 H 456.894 2.59666 2.77989 0
M  V30 4953 H 458.206 3.24125 3.79137 0
M  V30 4954 H 457.36 1.93341 5.75069 0
M  V30 4955 H 456.099 1.18452 4.73097 0
M  V30 4956 H 455.104 3.44569 4.2843 0
M  V30 4957 H 456.329 4.19757 5.33836 0
M  V30 4958 H 454.275 2.12779 6.20533 0
M  V30 4959 H 454.192 3.83052 6.51772 0
M  V30 4960 H 455.46 2.88649 7.24087 0
M  V30 4961 N 459.689 -1.00246 1.21608 0
M  V30 4962 C 460.599 -2.12515 0.993709 0
M  V30 4963 C 461.615 -1.73913 -0.0549939 0
M  V30 4964 O 462.791 -2.00943 0.135619 0
M  V30 4965 C 459.856 -3.42083 0.563953 0
M  V30 4966 C 458.917 -3.94843 1.68516 0
M  V30 4967 C 458.15 -5.18226 1.27582 0
M  V30 4968 O 458.373 -5.70201 0.150506 0
M  V30 4969 O 457.307 -5.64497 2.0887 0
M  V30 4970 H 461.133 -2.34152 1.93407 0
M  V30 4971 H 458.718 -1.10891 1.00118 0
M  V30 4972 H 460.6 -4.20073 0.334194 0
M  V30 4973 H 459.275 -3.21828 -0.347665 0
M  V30 4974 H 458.182 -3.18068 1.96935 0
M  V30 4975 H 459.515 -4.19512 2.5743 0
M  V30 4976 N 461.167 -1.02423 -1.1978 0
M  V30 4977 C 462.397 -0.736387 -1.93031 0
M  V30 4978 C 462.805 0.708023 -1.75453 0
M  V30 4979 O 462.148 1.4927 -1.07071 0
M  V30 4980 C 462.21 -1.00194 -3.45255 0
M  V30 4981 C 461.874 -2.43698 -3.86601 0
M  V30 4982 C 462.871 -3.41814 -3.91738 0
M  V30 4983 C 460.556 -2.77975 -4.18372 0
M  V30 4984 C 462.55 -4.72265 -4.28071 0
M  V30 4985 C 460.237 -4.08636 -4.54378 0
M  V30 4986 C 461.235 -5.05592 -4.59201 0
M  V30 4987 O 460.923 -6.33914 -4.94376 0
M  V30 4988 H 460.655 -0.269116 -0.620123 0
M  V30 4989 H 463.209 -1.37043 -1.52998 0
M  V30 4990 H 461.439 -0.310747 -3.85449 0
M  V30 4991 H 463.128 -0.704488 -3.9974 0
M  V30 4992 H 463.894 -3.16671 -3.67348 0
M  V30 4993 H 459.773 -2.0319 -4.13805 0
M  V30 4994 H 463.317 -5.4794 -4.3175 0
M  V30 4995 H 459.214 -4.33556 -4.78226 0
M  V30 4996 H 459.982 -6.38317 -5.12341 0
M  V30 4997 N 462.645 1.35699 -0.801477 0
M  V30 4998 C 463.575 2.32436 -0.222658 0
M  V30 4999 C 464.556 1.5723 0.649057 0
M  V30 5000 O 465.741 1.85324 0.580387 0
M  V30 5001 C 462.871 3.41469 0.633719 0
M  V30 5002 C 461.825 4.27774 -0.139083 0
M  V30 5003 C 461.151 5.28082 0.838666 0
M  V30 5004 C 462.451 5.04946 -1.33517 0
M  V30 5005 H 464.145 2.81094 -1.03086 0
M  V30 5006 H 461.691 1.35146 -0.497155 0
M  V30 5007 H 463.644 4.08143 1.04868 0
M  V30 5008 H 462.368 2.91408 1.47475 0
M  V30 5009 H 461.027 3.62673 -0.535156 0
M  V30 5010 H 460.675 4.7429 1.67506 0
M  V30 5011 H 460.375 5.86695 0.32594 0
M  V30 5012 H 461.899 5.97628 1.25194 0
M  V30 5013 H 463.313 5.64593 -0.995349 0
M  V30 5014 H 461.71 5.7303 -1.78202 0
M  V30 5015 H 462.78 4.35886 -2.12442 0
M  V30 5016 N 464.123 0.554532 1.47522 0
M  V30 5017 C 465.348 0.0322661 2.07375 0
M  V30 5018 C 465.773 -1.25079 1.40488 0
M  V30 5019 O 465.131 -1.74859 0.47896 0
M  V30 5020 C 465.179 -0.149397 3.6029 0
M  V30 5021 O 464.283 -1.21259 3.9417 0
M  V30 5022 H 463.624 0.0501228 0.662106 0
M  V30 5023 H 466.154 0.769452 1.8958 0
M  V30 5024 H 466.164 -0.364437 4.06369 0
M  V30 5025 H 464.839 0.787743 4.08372 0
M  V30 5026 H 463.416 -0.97825 3.5984 0
M  V30 5027 N 465.601 -1.54893 0.290851 0
M  V30 5028 C 466.531 -2.26103 -0.583084 0
M  V30 5029 C 467.512 -1.25684 -1.14619 0
M  V30 5030 O 468.697 -1.54436 -1.17741 0
M  V30 5031 C 465.827 -2.99409 -1.75987 0
M  V30 5032 C 464.781 -4.0689 -1.32758 0
M  V30 5033 C 464.107 -4.67856 -2.58872 0
M  V30 5034 C 465.407 -5.20215 -0.46624 0
M  V30 5035 H 467.101 -2.99398 0.0108214 0
M  V30 5036 H 464.647 -1.43998 0.00664468 0
M  V30 5037 H 466.6 -3.47943 -2.37727 0
M  V30 5038 H 465.324 -2.23675 -2.37985 0
M  V30 5039 H 463.983 -3.59191 -0.733299 0
M  V30 5040 H 463.631 -3.88772 -3.19163 0
M  V30 5041 H 463.331 -5.40438 -2.30653 0
M  V30 5042 H 464.855 -5.19147 -3.21433 0
M  V30 5043 H 466.269 -5.64704 -0.989047 0
M  V30 5044 H 464.666 -5.99455 -0.27826 0
M  V30 5045 H 465.736 -4.82198 0.511173 0
M  V30 5046 N 467.08 -0.0183926 -1.57589 0
M  V30 5047 C 468.013 1.00148 -2.0505 0
M  V30 5048 C 468.991 1.32387 -0.944058 0
M  V30 5049 O 470.175 1.44237 -1.21358 0
M  V30 5050 C 467.302 2.32435 -2.46357 0
M  V30 5051 C 466.348 2.15731 -3.67916 0
M  V30 5052 S 467.181 1.46613 -5.15039 0
M  V30 5053 C 468.337 2.80293 -5.59631 0
M  V30 5054 H 468.57 0.597429 -2.91235 0
M  V30 5055 H 466.103 0.193002 -1.53189 0
M  V30 5056 H 468.061 3.0849 -2.70822 0
M  V30 5057 H 466.722 2.69975 -1.60537 0
M  V30 5058 H 465.915 3.13502 -3.9463 0
M  V30 5059 H 465.517 1.4782 -3.43548 0
M  V30 5060 H 467.809 3.76557 -5.63215 0
M  V30 5061 H 468.752 2.58256 -6.59325 0
M  V30 5062 H 469.16 2.85047 -4.87246 0
M  V30 5063 N 468.558 1.5553 0.254621 0
M  V30 5064 C 469.521 1.88872 1.29846 0
M  V30 5065 C 470.521 0.764591 1.41459 0
M  V30 5066 O 471.711 1.03265 1.40293 0
M  V30 5067 C 468.843 2.11032 2.67728 0
M  V30 5068 H 470.036 2.82201 1.01502 0
M  V30 5069 H 467.589 1.48303 0.493556 0
M  V30 5070 H 468.324 1.20146 3.01223 0
M  V30 5071 H 468.109 2.92895 2.60682 0
M  V30 5072 H 469.599 2.38038 3.43115 0
M  V30 5073 N 470.036 -0.519951 1.48776 0
M  V30 5074 C 470.946 -1.65025 1.66745 0
M  V30 5075 C 471.962 -1.6508 0.549954 0
M  V30 5076 O 473.138 -1.83848 0.822295 0
M  V30 5077 C 470.203 -3.0146 1.71238 0
M  V30 5078 C 469.264 -3.12182 2.94688 0
M  V30 5079 C 468.497 -4.42109 2.98958 0
M  V30 5080 O 468.72 -5.29799 2.1135 0
M  V30 5081 O 467.654 -4.57406 3.91233 0
M  V30 5082 H 471.48 -1.52801 2.62461 0
M  V30 5083 H 469.065 -0.694157 1.32294 0
M  V30 5084 H 470.947 -3.82584 1.76657 0
M  V30 5085 H 469.622 -3.13988 0.786975 0
M  V30 5086 H 468.529 -2.30316 2.94797 0
M  V30 5087 H 469.862 -3.04574 3.86646 0
M  V30 5088 N 471.514 -1.37532 -0.769588 0
M  V30 5089 C 472.444 -1.36172 -1.89682 0
M  V30 5090 C 473.425 -0.23001 -1.68538 0
M  V30 5091 O 474.61 -0.43069 -1.89364 0
M  V30 5092 C 471.74 -1.1701 -3.26995 0
M  V30 5093 C 470.694 -2.27216 -3.62708 0
M  V30 5094 C 470.02 -1.93174 -4.98586 0
M  V30 5095 C 471.32 -3.6941 -3.69234 0
M  V30 5096 H 473.014 -2.30499 -1.91078 0
M  V30 5097 H 470.56 -1.10953 -0.917902 0
M  V30 5098 H 472.513 -1.14688 -4.05493 0
M  V30 5099 H 471.237 -0.191395 -3.26039 0
M  V30 5100 H 469.896 -2.28697 -2.86519 0
M  V30 5101 H 469.544 -0.938281 -4.94171 0
M  V30 5102 H 469.244 -2.66973 -5.23449 0
M  V30 5103 H 470.768 -1.92443 -5.79481 0
M  V30 5104 H 472.182 -3.70047 -4.37879 0
M  V30 5105 H 470.579 -4.4228 -4.05597 0
M  V30 5106 H 471.649 -4.0288 -2.69844 0
M  V30 5107 N 472.992 0.995999 -1.22138 0
M  V30 5108 C 474.24 1.73167 -1.042 0
M  V30 5109 C 474.561 1.90329 0.42423 0
M  V30 5110 O 473.831 1.4607 1.30539 0
M  V30 5111 H 472.411 0.641593 -0.38258 0
M  V30 5112 H 475.073 1.19974 -1.53598 0
M  V30 5113 H 474.169 2.72734 -1.51731 0
M  V30 5114 N 474.47 1.03057 1.19235 0
M  V30 5115 C 475.38 0.622922 2.26179 0
M  V30 5116 C 476.396 -0.346113 1.70523 0
M  V30 5117 O 477.572 -0.203572 2.00369 0
M  V30 5118 C 474.637 -0.0182063 3.46695 0
M  V30 5119 C 473.698 0.998546 4.17526 0
M  V30 5120 C 472.931 0.387917 5.32288 0
M  V30 5121 O 473.154 -0.808668 5.64639 0
M  V30 5122 O 472.088 1.1116 5.91546 0
M  V30 5123 H 475.914 1.51363 2.63292 0
M  V30 5124 H 473.499 0.800856 1.26122 0
M  V30 5125 H 475.381 -0.375606 4.19723 0
M  V30 5126 H 474.056 -0.882895 3.11427 0
M  V30 5127 H 472.963 1.40756 3.4661 0
M  V30 5128 H 474.296 1.83366 4.56769 0
M  V30 5129 N 475.948 -1.35272 0.808662 0
M  V30 5130 C 476.911 -2.28082 0.226093 0
M  V30 5131 C 477.911 -1.49673 -0.587762 0
M  V30 5132 O 479.101 -1.69404 -0.405943 0
M  V30 5133 C 476.233 -3.33955 -0.684596 0
M  V30 5134 H 477.426 -2.81116 1.04469 0
M  V30 5135 H 474.979 -1.45162 0.579466 0
M  V30 5136 H 475.714 -2.86111 -1.5268 0
M  V30 5137 H 475.499 -3.91965 -0.102699 0
M  V30 5138 H 476.989 -4.03219 -1.08646 0
M  V30 5139 N 477.426 -0.562348 -1.47226 0
M  V30 5140 C 478.837 -0.130325 -1.86245 0
M  V30 5141 C 479.188 1.30128 -1.46838 0
M  V30 5142 O 478.313 1.97974 -0.873805 0
M  V30 5143 C 478.908 -0.229738 -3.3802 0
M  V30 5144 C 477.467 0.14728 -3.76112 0
M  V30 5145 C 476.614 -0.574971 -2.71274 0
M  V30 5146 H 479.565 -0.771773 -1.3867 0
M  V30 5147 H 479.586 0.550316 -3.76499 0
M  V30 5148 H 479.098 -1.27178 -3.66671 0
M  V30 5149 H 477.199 1.19023 -3.53078 0
M  V30 5150 H 477.312 -0.214858 -4.78618 0
M  V30 5151 H 475.676 -0.0174756 -2.54694 0
M  V30 5152 H 476.459 -1.61827 -3.02766 0
M  V30 5153 N 478.904 1.54736 -0.299062 0
M  V30 5154 C 480.15 2.00397 0.311244 0
M  V30 5155 C 480.483 1.18716 1.53688 0
M  V30 5156 O 479.758 0.263154 1.92712 0
M  V30 5157 C 480.041 3.53817 0.669761 0
M  V30 5158 C 479.894 4.46239 -0.564882 0
M  V30 5159 C 481.213 4.13856 1.49702 0
M  V30 5160 H 478.332 0.728493 0.111653 0
M  V30 5161 H 480.974 1.85506 -0.410774 0
M  V30 5162 H 479.124 3.66637 1.28491 0
M  V30 5163 H 480.796 4.45328 -1.20337 0
M  V30 5164 H 479.039 4.16916 -1.19849 0
M  V30 5165 H 479.71 5.5134 -0.269918 0
M  V30 5166 H 482.186 4.04461 0.977284 0
M  V30 5167 H 481.062 5.21365 1.71666 0
M  V30 5168 H 481.323 3.65608 2.48563 0
M  V30 5169 N 480.382 0.0267497 1.57577 0
M  V30 5170 C 481.793 -0.512413 1.79531 0
M  V30 5171 C 482.144 -1.72391 0.936791 0
M  V30 5172 O 481.269 -2.15903 0.146543 0
M  V30 5173 C 481.864 -0.936378 3.25603 0
M  V30 5174 C 480.423 -1.42067 3.4856 0
M  V30 5175 C 479.57 -0.384278 2.74624 0
M  V30 5176 H 482.521 0.252797 1.56674 0
M  V30 5177 H 482.542 -1.80088 3.35184 0
M  V30 5178 H 482.054 -0.0544332 3.88062 0
M  V30 5179 H 480.155 -2.32262 2.9135 0
M  V30 5180 H 480.268 -1.42968 4.57271 0
M  V30 5181 H 478.632 -0.851855 2.40032 0
M  V30 5182 H 479.415 0.489159 3.39797 0
M  V30 5183 N 481.861 -1.55662 -0.24637 0
M  V30 5184 C 482.824 -1.89558 -1.28842 0
M  V30 5185 C 483.824 -0.772082 -1.41052 0
M  V30 5186 O 485.014 -1.04007 -1.39743 0
M  V30 5187 C 482.146 -2.12449 -2.66605 0
M  V30 5188 H 483.339 -2.82735 -1.00004 0
M  V30 5189 H 480.892 -1.48562 -0.485684 0
M  V30 5190 H 481.627 -1.21742 -3.00582 0
M  V30 5191 H 481.412 -2.94273 -2.59125 0
M  V30 5192 H 482.902 -2.39854 -3.41847 0
M  V30 5193 N 483.339 0.512053 -1.4905 0
M  V30 5194 C 484.564 1.2959 -1.6193 0
M  V30 5195 C 484.989 1.85906 -0.286454 0
M  V30 5196 O 484.347 1.65312 0.744426 0
M  V30 5197 C 484.395 2.40987 -2.68249 0
M  V30 5198 O 483.499 3.44531 -2.26654 0
M  V30 5199 H 482.84 0.383053 -0.542371 0
M  V30 5200 H 485.37 0.614231 -1.95162 0
M  V30 5201 H 485.38 2.86913 -2.90078 0
M  V30 5202 H 484.055 1.99361 -3.65004 0
M  V30 5203 H 482.632 3.046 -2.15112 0
M  V30 5204 N 484.817 1.37938 0.762283 0
M  V30 5205 C 486.063 1.33866 1.52341 0
M  V30 5206 C 486.396 -0.0738961 1.94059 0
M  V30 5207 O 485.671 -1.03326 1.64785 0
M  V30 5208 C 485.954 2.28644 2.78197 0
M  V30 5209 C 485.807 3.78722 2.42672 0
M  V30 5210 C 487.126 2.21702 3.80179 0
M  V30 5211 H 484.245 0.487593 0.55265 0
M  V30 5212 H 486.887 1.68717 0.873767 0
M  V30 5213 H 485.037 1.99055 3.33631 0
M  V30 5214 H 486.709 4.18948 1.93081 0
M  V30 5215 H 484.952 3.96827 1.75244 0
M  V30 5216 H 485.623 4.40486 3.3268 0
M  V30 5217 H 488.099 2.47805 3.34263 0
M  V30 5218 H 486.975 2.90143 4.65949 0
M  V30 5219 H 487.236 1.21301 4.25133 0
M  V30 5220 N 486.295 -0.989507 1.22664 0
M  V30 5221 C 487.543 -1.72612 1.05117 0
M  V30 5222 C 487.864 -1.90552 -0.414131 0
M  V30 5223 O 487.134 -1.4676 -1.29762 0
M  V30 5224 H 485.714 -0.639555 0.385977 0
M  V30 5225 H 488.376 -1.19158 1.54232 0
M  V30 5226 H 487.472 -2.71926 1.53175 0
M  V30 5227 N 487.773 -1.03688 -1.18687 0
M  V30 5228 C 488.998 -0.757819 -1.93059 0
M  V30 5229 C 489.423 0.678353 -1.75442 0
M  V30 5230 O 488.781 1.46938 -1.06203 0
M  V30 5231 C 488.829 -1.12423 -3.42627 0
M  V30 5232 O 487.933 -0.247505 -4.11657 0
M  V30 5233 H 487.274 -0.279245 -0.602427 0
M  V30 5234 H 489.804 -1.3857 -1.5053 0
M  V30 5235 H 489.814 -1.08454 -3.93322 0
M  V30 5236 H 488.489 -2.17049 -3.54771 0
M  V30 5237 H 487.066 -0.34649 -3.71287 0
M  V30 5238 N 489.251 1.34841 -0.815825 0
M  V30 5239 C 490.479 2.0273 -0.413294 0
M  V30 5240 C 490.894 1.61459 0.978599 0
M  V30 5241 O 490.251 0.816584 1.63212 0
M  V30 5242 C 490.302 3.58058 -0.497676 0
M  V30 5243 O 490.023 3.97832 -1.8347 0
M  V30 5244 C 491.524 4.4321 -0.0891339 0
M  V30 5245 H 488.744 0.649956 -0.166728 0
M  V30 5246 H 491.288 1.72267 -1.10201 0
M  V30 5247 H 489.443 3.87136 0.142886 0
M  V30 5248 H 489.857 4.92501 -1.80396 0
M  V30 5249 H 491.331 5.5164 -0.199274 0
M  V30 5250 H 491.808 4.28432 0.966571 0
M  V30 5251 H 492.414 4.19446 -0.703214 0
M  V30 5252 N 490.729 0.570148 1.46925 0
M  V30 5253 C 491.954 0.0542592 2.07329 0
M  V30 5254 C 492.379 -1.23582 1.41806 0
M  V30 5255 O 491.737 -1.74341 0.497479 0
M  V30 5256 C 491.785 -0.111175 3.60429 0
M  V30 5257 O 490.889 -1.17071 3.95434 0
M  V30 5258 H 490.23 0.0571425 0.661537 0
M  V30 5259 H 492.76 0.789516 1.88753 0
M  V30 5260 H 492.77 -0.321315 4.06733 0
M  V30 5261 H 491.445 0.831012 4.07513 0
M  V30 5262 H 490.022 -0.940029 3.60857 0
M  V30 5263 N 492.207 -1.54576 0.307264 0
M  V30 5264 C 493.455 -1.99867 -0.299574 0
M  V30 5265 C 493.776 -1.19714 -1.53927 0
M  V30 5266 O 493.046 -0.29472 -1.9367 0
M  V30 5267 H 491.626 -0.738299 -0.113683 0
M  V30 5268 H 494.288 -1.9032 0.420042 0
M  V30 5269 H 493.384 -3.06901 -0.567283 0
M  V30 5270 N 493.685 -0.035106 -1.57561 0
M  V30 5271 C 495.096 0.502885 -1.798 0
M  V30 5272 C 495.447 1.71892 -0.945921 0
M  V30 5273 O 494.572 2.15822 -0.157991 0
M  V30 5274 C 495.167 0.919097 -3.26095 0
M  V30 5275 C 493.726 1.40216 -3.49308 0
M  V30 5276 C 492.873 0.369709 -2.74824 0
M  V30 5277 H 495.824 -0.261102 -1.56537 0
M  V30 5278 H 495.845 1.78308 -3.36135 0
M  V30 5279 H 495.357 0.0338526 -3.88085 0
M  V30 5280 H 493.458 2.30714 -2.92578 0
M  V30 5281 H 493.571 1.40541 -4.58023 0
M  V30 5282 H 491.935 0.839113 -2.40481 0
M  V30 5283 H 492.718 -0.507173 -3.39533 0
M  V30 5284 N 495.163 1.55791 0.238111 0
M  V30 5285 C 496.126 1.90239 1.27835 0
M  V30 5286 C 497.126 0.779552 1.4064 0
M  V30 5287 O 498.316 1.04747 1.3919 0
M  V30 5288 C 495.448 2.13859 2.65475 0
M  V30 5289 H 496.641 2.83262 0.985034 0
M  V30 5290 H 494.194 1.48818 0.477799 0
M  V30 5291 H 494.929 1.23334 2.99932 0
M  V30 5292 H 494.714 2.95643 2.57561 0
M  V30 5293 H 496.204 2.41664 3.40571 0
M  V30 5294 N 496.642 -0.504142 1.49319 0
M  V30 5295 C 497.87 -1.28256 1.62351 0
M  V30 5296 C 498.285 -1.86502 0.293682 0
M  V30 5297 O 497.642 -1.67678 -0.720449 0
M  V30 5298 C 497.693 -2.41507 2.68992 0
M  V30 5299 O 497.414 -1.85656 3.96817 0
M  V30 5300 C 498.915 -3.32929 2.927 0
M  V30 5301 H 496.135 -0.389115 0.546654 0
M  V30 5302 H 498.679 -0.605531 1.95329 0
M  V30 5303 H 496.834 -3.05046 2.38801 0
M  V30 5304 H 497.248 -2.59981 4.55533 0
M  V30 5305 H 498.722 -4.0868 3.71058 0
M  V30 5306 H 499.199 -3.89733 2.02496 0
M  V30 5307 H 499.805 -2.75158 3.24296 0
M  V30 5308 N 498.12 -1.38341 -0.754957 0
M  V30 5309 C 499.348 -1.37704 -1.54419 0
M  V30 5310 C 499.763 0.0335243 -1.8877 0
M  V30 5311 O 499.12 0.999773 -1.52679 0
M  V30 5312 C 499.171 -2.23136 -2.84416 0
M  V30 5313 O 498.892 -3.58697 -2.51531 0
M  V30 5314 C 500.393 -2.30664 -3.78562 0
M  V30 5315 H 497.613 -0.471061 -0.477852 0
M  V30 5316 H 500.157 -1.81902 -0.934446 0
M  V30 5317 H 498.312 -1.82403 -3.41772 0
M  V30 5318 H 498.726 -4.03665 -3.34896 0
M  V30 5319 H 500.2 -2.9473 -4.66732 0
M  V30 5320 H 500.677 -1.3199 -4.18898 0
M  V30 5321 H 501.283 -2.71781 -3.27131 0
M  V30 5322 N 499.598 0.982988 -1.23187 0
M  V30 5323 C 501.009 1.53847 -1.05773 0
M  V30 5324 C 501.36 1.92568 0.375744 0
M  V30 5325 O 500.485 1.75783 1.26211 0
M  V30 5326 C 501.08 2.79567 -1.91384 0
M  V30 5327 C 499.639 3.31524 -1.78238 0
M  V30 5328 C 498.786 2.04534 -1.87246 0
M  V30 5329 H 501.737 0.802962 -1.36888 0
M  V30 5330 H 501.758 3.52317 -1.43711 0
M  V30 5331 H 501.27 2.51353 -2.95708 0
M  V30 5332 H 499.371 3.64623 -0.766875 0
M  V30 5333 H 499.484 4.01457 -2.61475 0
M  V30 5334 H 497.848 2.1855 -1.30797 0
M  V30 5335 H 498.631 1.78706 -2.9312 0
M  V30 5336 N 501.076 1.04316 1.18135 0
M  V30 5337 C 502.006 0.657299 2.24058 0
M  V30 5338 C 502.987 -0.340678 1.66654 0
M  V30 5339 O 504.172 -0.220223 1.92947 0
M  V30 5340 C 501.302 0.0220715 3.47293 0
M  V30 5341 C 500.256 0.943857 4.17463 0
M  V30 5342 C 499.582 0.172973 5.3442 0
M  V30 5343 C 500.882 2.26409 4.70677 0
M  V30 5344 H 502.576 1.5428 2.56589 0
M  V30 5345 H 500.122 0.743263 1.23335 0
M  V30 5346 H 502.075 -0.259607 4.206 0
M  V30 5347 H 500.799 -0.898323 3.14003 0
M  V30 5348 H 499.458 1.20996 3.46057 0
M  V30 5349 H 499.106 -0.749907 4.97379 0
M  V30 5350 H 498.806 0.787098 5.82304 0
M  V30 5351 H 500.33 -0.101628 6.10515 0
M  V30 5352 H 501.744 2.04294 5.35665 0
M  V30 5353 H 500.141 2.8314 5.29105 0
M  V30 5354 H 501.211 2.90883 3.87962 0
M  V30 5355 N 502.554 -1.34406 0.822964 0
M  V30 5356 C 503.517 -2.2783 0.250271 0
M  V30 5357 C 504.517 -1.50288 -0.571854 0
M  V30 5358 O 505.707 -1.69825 -0.387952 0
M  V30 5359 C 502.839 -3.34663 -0.649137 0
M  V30 5360 H 504.032 -2.79992 1.07444 0
M  V30 5361 H 501.585 -1.44539 0.594829 0
M  V30 5362 H 502.32 -2.87714 -1.49637 0
M  V30 5363 H 502.105 -3.92052 -0.0611199 0
M  V30 5364 H 503.595 -4.04349 -1.04363 0
M  V30 5365 N 504.032 -0.577932 -1.46621 0
M  V30 5366 C 505.257 -0.0652536 -2.07297 0
M  V30 5367 C 505.682 1.22828 -1.4246 0
M  V30 5368 O 505.04 1.74075 -0.506718 0
M  V30 5369 C 505.088 0.0920589 -3.60482 0
M  V30 5370 O 504.192 1.14972 -3.96049 0
M  V30 5371 H 503.533 -0.06065 -0.661224 0
M  V30 5372 H 506.063 -0.799515 -1.88332 0
M  V30 5373 H 506.073 0.299741 -4.06897 0
M  V30 5374 H 504.748 -0.852612 -4.07067 0
M  V30 5375 H 503.325 0.920879 -3.61351 0
M  V30 5376 N 505.51 1.54411 -0.315457 0
M  V30 5377 C 506.473 2.22713 0.54142 0
M  V30 5378 C 507.473 1.2179 1.04995 0
M  V30 5379 O 508.663 1.46426 0.943667 0
M  V30 5380 C 505.795 2.92485 1.75116 0
M  V30 5381 H 506.988 2.99849 -0.0555508 0
M  V30 5382 H 504.541 1.56159 -0.0664453 0
M  V30 5383 H 505.276 2.19466 2.38758 0
M  V30 5384 H 505.061 3.66483 1.39401 0
M  V30 5385 H 506.551 3.44548 2.35959 0
M  V30 5386 N 506.988 0.0434614 1.5754 0
M  V30 5387 C 508.399 -0.493343 1.80064 0
M  V30 5388 C 508.75 -1.71388 0.955023 0
M  V30 5389 O 507.875 -2.15736 0.169434 0
M  V30 5390 C 508.47 -0.90179 3.26578 0
M  V30 5391 C 507.029 -1.38362 3.50047 0
M  V30 5392 C 506.176 -0.355129 2.75017 0
M  V30 5393 H 509.127 0.2694 1.56397 0
M  V30 5394 H 509.148 -1.76523 3.37075 0
M  V30 5395 H 508.66 -0.013271 3.88098 0
M  V30 5396 H 506.761 -2.29159 2.93798 0
M  V30 5397 H 506.874 -1.3811 4.58762 0
M  V30 5398 H 505.238 -0.826348 2.40922 0
M  V30 5399 H 506.021 0.525172 3.39259 0
M  V30 5400 N 508.466 -1.55915 -0.229846 0
M  V30 5401 C 509.882 -1.48721 -0.579166 0
M  V30 5402 C 510.082 -0.736976 -1.87539 0
M  V30 5403 O 509.138 -0.273258 -2.51017 0
M  V30 5404 C 510.451 -2.9323 -0.666082 0
M  V30 5405 C 511.999 -3.03701 -0.757267 0
M  V30 5406 C 512.474 -4.49552 -0.8756 0
M  V30 5407 N 513.965 -4.53561 -0.940035 0
M  V30 5408 C 514.7 -5.63683 -1.05116 0
M  V30 5409 N 514.196 -6.83576 -1.12675 0
M  V30 5410 N 515.989 -5.51516 -1.08565 0
M  V30 5411 H 508.14 -2.03123 0.620857 0
M  V30 5412 H 510.403 -0.922898 0.21671 0
M  V30 5413 H 510.109 -3.51032 0.21664 0
M  V30 5414 H 509.983 -3.44668 -1.53243 0
M  V30 5415 H 512.37 -2.45969 -1.63043 0
M  V30 5416 H 512.451 -2.55446 0.134583 0
M  V30 5417 H 512.095 -5.079 -0.00692351 0
M  V30 5418 H 512.025 -4.95506 -1.78274 0
M  V30 5419 H 514.516 -3.67215 -0.892269 0
M  V30 5420 H 514.829 -7.63251 -1.21109 0
M  V30 5421 H 513.174 -6.86303 -1.09603 0
M  V30 5422 H 516.365 -4.5678 -1.02319 0
M  V30 5423 H 516.538 -6.37372 -1.1688 0
M  V30 5424 N 509.944 0.496216 -1.49584 0
M  V30 5425 C 511.355 1.07765 -1.52459 0
M  V30 5426 C 511.706 1.93679 -0.31353 0
M  V30 5427 O 510.831 2.08588 0.576186 0
M  V30 5428 C 511.426 1.96111 -2.76271 0
M  V30 5429 C 509.985 2.49409 -2.81908 0
M  V30 5430 C 509.132 1.27142 -2.46435 0
M  V30 5431 H 512.083 0.279914 -1.56212 0
M  V30 5432 H 512.104 2.80862 -2.56704 0
M  V30 5433 H 511.616 1.33555 -3.64396 0
M  V30 5434 H 509.717 3.1559 -1.98074 0
M  V30 5435 H 509.83 2.86234 -3.84196 0
M  V30 5436 H 508.194 1.59818 -1.98319 0
M  V30 5437 H 508.977 0.662866 -3.3684 0
M  V30 5438 N 511.423 1.38739 0.74761 0
M  V30 5439 C 512.386 1.36241 1.84312 0
M  V30 5440 C 513.386 0.261811 1.58654 0
M  V30 5441 O 514.576 0.519031 1.66288 0
M  V30 5442 C 511.708 1.12253 3.21888 0
M  V30 5443 H 512.901 2.33712 1.87933 0
M  V30 5444 H 510.454 1.2412 0.949946 0
M  V30 5445 H 511.189 0.154133 3.23934 0
M  V30 5446 H 510.974 1.91943 3.41907 0
M  V30 5447 H 512.464 1.13215 4.0196 0
M  V30 5448 N 512.901 -0.976442 1.23707 0
M  V30 5449 C 513.864 -2.0511 1.02287 0
M  V30 5450 C 514.864 -1.60791 -0.0167195 0
M  V30 5451 O 516.054 -1.72761 0.223408 0
M  V30 5452 C 513.186 -3.36458 0.548507 0
M  V30 5453 H 514.379 -2.25545 1.9766 0
M  V30 5454 H 511.932 -1.15042 1.05806 0
M  V30 5455 H 512.667 -3.21713 -0.408818 0
M  V30 5456 H 512.452 -3.69967 1.29874 0
M  V30 5457 H 513.942 -4.15489 0.419406 0
M  V30 5458 N 514.379 -1.04941 -1.1758 0
M  V30 5459 C 515.79 -0.784501 -1.69418 0
M  V30 5460 C 516.141 0.693625 -1.8353 0
M  V30 5461 O 515.266 1.53925 -1.52106 0
M  V30 5462 C 515.861 -1.41746 -3.07723 0
M  V30 5463 C 514.42 -1.20066 -3.56737 0
M  V30 5464 C 513.567 -1.5026 -2.33061 0
M  V30 5465 H 516.518 -1.21469 -1.02133 0
M  V30 5466 H 516.539 -0.825381 -3.7144 0
M  V30 5467 H 516.051 -2.49325 -2.9742 0
M  V30 5468 H 514.152 -0.144006 -3.72322 0
M  V30 5469 H 514.265 -1.90384 -4.39648 0
M  V30 5470 H 512.629 -0.922598 -2.37403 0
M  V30 5471 H 513.412 -2.58967 -2.25368 0
M  V30 5472 N 515.857 1.33968 -0.830081 0
M  V30 5473 C 516.82 2.27694 -0.26235 0
M  V30 5474 C 517.82 1.50589 0.563876 0
M  V30 5475 O 519.01 1.70028 0.378941 0
M  V30 5476 C 516.142 3.35002 0.63138 0
M  V30 5477 H 517.335 2.79419 -1.08928 0
M  V30 5478 H 514.888 1.44221 -0.602486 0
M  V30 5479 H 515.623 2.88504 1.48109 0
M  V30 5480 H 515.408 3.92079 0.0403276 0
M  V30 5481 H 516.898 4.04897 1.02217 0
M  V30 5482 N 517.335 0.585699 1.46312 0
M  V30 5483 C 518.283 -0.158577 2.32059 0
M  V30 5484 C 519.277 -0.881427 1.44662 0
M  V30 5485 O 520.483 -0.799476 1.61271 0
M  V30 5486 H 516.858 -0.0700066 0.748734 0
M  V30 5487 H 518.829 0.583383 2.92642 0
M  V30 5488 C 517.578 -1.15701 3.27885 0
M  V30 5489 H 516.901 -0.610215 3.95116 0
M  V30 5490 H 518.341 -1.64812 3.90657 0
M  V30 5491 C 516.8 -2.21951 2.53455 0
M  V30 5492 O 517.33 -3.29352 2.29978 0
M  V30 5493 N 515.536 -1.9664 2.13965 0
M  V30 5494 H 515.083 -1.09309 2.33258 0
M  V30 5495 H 515.041 -2.6794 1.64485 0
M  V30 5496 N 518.813 -1.54241 0.323641 0
M  V30 5497 C 519.761 -2.25813 -0.557804 0
M  V30 5498 C 520.755 -1.27225 -1.11849 0
M  V30 5499 O 521.961 -1.45001 -1.06652 0
M  V30 5500 H 518.336 -0.72532 -0.198532 0
M  V30 5501 H 520.307 -2.98322 0.0681112 0
M  V30 5502 C 519.056 -3.02913 -1.70701 0
M  V30 5503 H 518.379 -3.78593 -1.28482 0
M  V30 5504 H 519.819 -3.56238 -2.29935 0
M  V30 5505 C 518.278 -2.11217 -2.62467 0
M  V30 5506 O 518.808 -1.69508 -3.64184 0
M  V30 5507 N 517.014 -1.76704 -2.30703 0
M  V30 5508 H 516.561 -2.1082 -1.48029 0
M  V30 5509 H 516.519 -1.15631 -2.92364 0
M  V30 5510 N 520.291 -0.0518155 -1.57515 0
M  V30 5511 C 521.702 0.483787 -1.80323 0
M  V30 5512 C 522.053 1.70879 -0.964099 0
M  V30 5513 O 521.178 2.15643 -0.180872 0
M  V30 5514 C 521.773 0.884459 -3.27052 0
M  V30 5515 C 520.332 1.36504 -3.50776 0
M  V30 5516 C 519.479 0.340539 -2.75201 0
M  V30 5517 H 522.43 -0.277691 -1.56252 0
M  V30 5518 H 522.451 1.74733 -3.38007 0
M  V30 5519 H 521.963 -0.00731093 -3.88099 0
M  V30 5520 H 520.064 2.27598 -2.95009 0
M  V30 5521 H 520.177 1.35675 -4.59488 0
M  V30 5522 H 518.541 0.81356 -2.41357 0
M  V30 5523 H 519.324 -0.543156 -3.38976 0
M  V30 5524 N 521.769 1.56035 0.221574 0
M  V30 5525 C 523.18 1.69229 0.788567 0
M  V30 5526 C 523.531 0.653814 1.84986 0
M  V30 5527 O 522.656 -0.195065 2.15519 0
M  V30 5528 C 523.251 3.06809 1.43713 0
M  V30 5529 C 521.81 3.21858 1.95152 0
M  V30 5530 C 520.957 2.65155 0.811685 0
M  V30 5531 H 523.908 1.587 -0.00307894 0
M  V30 5532 H 523.929 3.02666 2.30594 0
M  V30 5533 H 523.441 3.82369 0.664475 0
M  V30 5534 H 521.542 2.51167 2.7522 0
M  V30 5535 H 521.655 4.29073 2.1315 0
M  V30 5536 H 520.019 2.23635 1.21899 0
M  V30 5537 H 520.802 3.43261 0.0516987 0
M  V30 5538 N 523.247 -0.488276 1.49845 0
M  V30 5539 C 524.658 -1.06955 1.53028 0
M  V30 5540 C 525.009 -1.9351 0.323797 0
M  V30 5541 O 524.134 -2.08891 -0.565116 0
M  V30 5542 C 524.729 -1.94643 2.77307 0
M  V30 5543 C 523.288 -2.4791 2.83227 0
M  V30 5544 C 522.435 -1.25833 2.47106 0
M  V30 5545 H 525.386 -0.271626 1.56358 0
M  V30 5546 H 525.407 -2.79496 2.5819 0
M  V30 5547 H 524.919 -1.31621 3.65099 0
M  V30 5548 H 523.02 -3.14535 1.99745 0
M  V30 5549 H 523.133 -2.84193 3.85709 0
M  V30 5550 H 521.497 -1.58764 1.99163 0
M  V30 5551 H 522.28 -0.644993 3.37186 0
M  V30 5552 N 524.725 -1.39134 -0.740242 0
M  V30 5553 C 526.136 -1.32208 -1.31825 0
M  V30 5554 C 526.487 0.0159919 -1.96193 0
M  V30 5555 O 525.612 0.918111 -1.95958 0
M  V30 5556 C 526.207 -2.39436 -2.39699 0
M  V30 5557 C 524.766 -2.36048 -2.93187 0
M  V30 5558 C 523.913 -2.21599 -1.66701 0
M  V30 5559 H 526.864 -1.49298 -0.538133 0
M  V30 5560 H 526.885 -2.05922 -3.19963 0
M  V30 5561 H 526.397 -3.36811 -1.92821 0
M  V30 5562 H 524.498 -1.42295 -3.44359 0
M  V30 5563 H 524.611 -3.30704 -3.46658 0
M  V30 5564 H 522.975 -1.68681 -1.90837 0
M  V30 5565 H 523.758 -3.20936 -1.21882 0
M  V30 5566 N 526.204 0.969867 -1.24223 0
M  V30 5567 C 527.429 1.75289 -1.10853 0
M  V30 5568 C 527.854 1.85091 0.335079 0
M  V30 5569 O 527.212 1.32024 1.24255 0
M  V30 5570 C 527.26 3.15255 -1.75062 0
M  V30 5571 O 526.364 3.99589 -1.01992 0
M  V30 5572 H 525.705 0.538904 -0.387915 0
M  V30 5573 H 528.235 1.21675 -1.64488 0
M  V30 5574 H 528.245 3.65787 -1.80731 0
M  V30 5575 H 526.92 3.07436 -2.801 0
M  V30 5576 H 525.497 3.58077 -1.04094 0
M  V30 5577 N 527.682 1.05563 1.17022 0
M  V30 5578 C 528.612 0.681026 2.23348 0
M  V30 5579 C 529.593 -0.322983 1.67005 0
M  V30 5580 O 530.778 -0.199746 1.9317 0
M  V30 5581 C 527.908 0.0589053 3.4725 0
M  V30 5582 C 526.862 0.988082 4.16438 0
M  V30 5583 C 526.188 0.229646 5.34207 0
M  V30 5584 C 527.488 2.31388 4.68249 0
M  V30 5585 H 529.182 1.56993 2.54938 0
M  V30 5586 H 526.728 0.756302 1.2254 0
M  V30 5587 H 528.681 -0.214982 4.20851 0
M  V30 5588 H 527.405 -0.864968 3.14938 0
M  V30 5589 H 526.064 1.24659 3.44754 0
M  V30 5590 H 525.712 -0.697111 4.98146 0
M  V30 5591 H 525.412 0.848815 5.81437 0
M  V30 5592 H 526.936 -0.0368694 6.10589 0
M  V30 5593 H 528.35 2.09964 5.33468 0
M  V30 5594 H 526.747 2.88736 5.26072 0
M  V30 5595 H 527.817 2.94982 3.84855 0
M  V30 5596 N 529.16 -1.33526 0.837174 0
M  V30 5597 C 530.093 -2.27192 0.214233 0
M  V30 5598 C 531.071 -1.49575 -0.637657 0
M  V30 5599 O 532.255 -1.78753 -0.598291 0
M  V30 5600 C 529.382 -3.31401 -0.699367 0
M  V30 5601 C 528.428 -4.26431 0.0768429 0
M  V30 5602 S 529.261 -5.15954 1.4336 0
M  V30 5603 C 530.417 -6.23692 0.525251 0
M  V30 5604 H 530.65 -2.79679 1.00831 0
M  V30 5605 H 528.183 -1.4079 0.633834 0
M  V30 5606 H 530.141 -3.91924 -1.22088 0
M  V30 5607 H 528.802 -2.77732 -1.46709 0
M  V30 5608 H 527.995 -5.00193 -0.618268 0
M  V30 5609 H 527.597 -3.70235 0.529364 0
M  V30 5610 H 529.889 -6.76931 -0.277575 0
M  V30 5611 H 530.832 -6.97283 1.23299 0
M  V30 5612 H 531.24 -5.64398 0.107351 0
M  V30 5613 N 530.638 -0.59345 -1.46 0
M  V30 5614 C 531.863 -0.0872365 -2.07216 0
M  V30 5615 C 532.288 1.2131 -1.43755 0
M  V30 5616 O 531.646 1.73528 -0.525152 0
M  V30 5617 C 531.694 0.0538197 -3.6056 0
M  V30 5618 O 530.798 1.10765 -3.97247 0
M  V30 5619 H 530.139 -0.0676598 -0.660544 0
M  V30 5620 H 532.669 -0.819445 -1.87473 0
M  V30 5621 H 532.679 0.256567 -4.07193 0
M  V30 5622 H 531.354 -0.895739 -4.0614 0
M  V30 5623 H 529.931 0.882501 -3.62307 0
M  V30 5624 N 532.116 1.54067 -0.331816 0
M  V30 5625 C 533.344 2.05131 0.269996 0
M  V30 5626 C 533.759 1.20749 1.45138 0
M  V30 5627 O 533.116 0.240069 1.80914 0
M  V30 5628 C 533.167 3.54728 0.696456 0
M  V30 5629 O 532.888 4.35906 -0.43794 0
M  V30 5630 C 534.389 4.21916 1.36021 0
M  V30 5631 H 531.609 0.668807 0.0542042 0
M  V30 5632 H 534.153 1.98777 -0.4804 0
M  V30 5633 H 532.308 3.61342 1.39681 0
M  V30 5634 H 532.722 5.24404 -0.100334 0
M  V30 5635 H 534.196 5.28015 1.60947 0
M  V30 5636 H 534.673 3.73538 2.31011 0
M  V30 5637 H 535.279 4.19463 0.702212 0
M  V30 5638 N 533.594 0.0601682 1.57485 0
M  V30 5639 C 534.822 -0.620937 1.97363 0
M  V30 5640 C 535.237 -1.63846 0.938082 0
M  V30 5641 O 534.594 -1.82339 -0.0766578 0
M  V30 5642 C 534.645 -1.29987 3.37321 0
M  V30 5643 O 534.366 -0.323081 4.36907 0
M  V30 5644 C 535.867 -2.06989 3.92008 0
M  V30 5645 H 533.087 -0.169135 0.649334 0
M  V30 5646 H 535.631 0.129132 2.04092 0
M  V30 5647 H 533.786 -2.0011 3.31715 0
M  V30 5648 H 534.2 -0.808754 5.18227 0
M  V30 5649 H 535.674 -2.49901 4.92192 0
M  V30 5650 H 536.151 -2.92173 3.2792 0
M  V30 5651 H 536.757 -1.41757 4.0098 0
M  V30 5652 N 535.072 -1.5615 -0.213296 0
M  V30 5653 C 536.004 -1.89586 -1.28802 0
M  V30 5654 C 537.017 -0.784844 -1.42633 0
M  V30 5655 O 538.206 -1.06319 -1.43383 0
M  V30 5656 C 535.306 -2.09665 -2.66259 0
M  V30 5657 C 534.479 -3.40726 -2.7427 0
M  V30 5658 C 533.538 -3.50137 -3.92798 0
M  V30 5659 O 532.564 -4.23105 -3.8075 0
M  V30 5660 N 533.766 -2.81886 -5.07465 0
M  V30 5661 H 536.531 -2.82368 -1.00442 0
M  V30 5662 H 534.092 -1.56796 -0.403302 0
M  V30 5663 H 536.084 -2.13268 -3.43946 0
M  V30 5664 H 534.654 -1.23469 -2.87183 0
M  V30 5665 H 533.874 -3.4915 -1.82997 0
M  V30 5666 H 535.162 -4.27048 -2.76599 0
M  V30 5667 H 534.56 -2.22397 -5.2015 0
M  V30 5668 H 533.117 -2.91139 -5.83165 0
M  V30 5669 N 536.55 0.480323 -1.50102 0
M  V30 5670 C 537.775 1.26126 -1.64642 0
M  V30 5671 C 538.2 1.85257 -0.325823 0
M  V30 5672 O 537.558 1.66854 0.709194 0
M  V30 5673 C 537.606 2.35243 -2.73301 0
M  V30 5674 O 536.71 3.39646 -2.33911 0
M  V30 5675 H 536.051 0.371463 -0.550374 0
M  V30 5676 H 538.581 0.572696 -1.96421 0
M  V30 5677 H 538.591 2.80695 -2.96098 0
M  V30 5678 H 537.266 1.91574 -3.6915 0
M  V30 5679 H 535.843 2.99969 -2.21525 0
M  V30 5680 N 538.028 1.39524 0.732853 0
M  V30 5681 C 539.444 1.21176 1.03868 0
M  V30 5682 C 539.644 0.0748448 2.01361 0
M  V30 5683 O 538.7 -0.57281 2.45917 0
M  V30 5684 C 540.013 2.54667 1.59892 0
M  V30 5685 C 541.561 2.6153 1.71962 0
M  V30 5686 C 542.036 3.95248 2.31394 0
M  V30 5687 N 543.527 3.96899 2.38801 0
M  V30 5688 C 544.262 4.97138 2.85729 0
M  V30 5689 N 543.758 6.07775 3.32537 0
M  V30 5690 N 545.551 4.84516 2.84957 0
M  V30 5691 H 537.702 2.12225 0.086304 0
M  V30 5692 H 539.965 0.942614 0.100907 0
M  V30 5693 H 539.671 3.38423 0.95721 0
M  V30 5694 H 539.545 2.74538 2.58668 0
M  V30 5695 H 541.932 1.78156 2.35254 0
M  V30 5696 H 542.013 2.45507 0.718327 0
M  V30 5697 H 541.657 4.79054 1.68729 0
M  V30 5698 H 541.587 4.08593 3.32204 0
M  V30 5699 H 544.078 3.16998 2.05719 0
M  V30 5700 H 544.391 6.8017 3.66862 0
M  V30 5701 H 542.736 6.11366 3.30541 0
M  V30 5702 H 545.927 3.97185 2.47713 0
M  V30 5703 H 546.1 5.62783 3.21215 0
M  V30 5704 N 539.506 -0.963266 1.24736 0
M  V30 5705 C 540.917 -1.52145 1.08207 0
M  V30 5706 C 541.268 -1.93142 -0.345061 0
M  V30 5707 O 540.393 -1.77769 -1.23399 0
M  V30 5708 C 540.988 -2.76486 1.95808 0
M  V30 5709 C 539.547 -3.28646 1.8349 0
M  V30 5710 C 538.694 -2.01529 1.90476 0
M  V30 5711 H 541.645 -0.781083 1.38148 0
M  V30 5712 H 541.666 -3.49986 1.49297 0
M  V30 5713 H 541.178 -2.46617 2.99669 0
M  V30 5714 H 539.279 -3.63357 0.824787 0
M  V30 5715 H 539.392 -3.97246 2.67829 0
M  V30 5716 H 537.756 -2.16442 1.34258 0
M  V30 5717 H 538.539 -1.7402 2.95926 0
M  V30 5718 N 540.985 -1.06182 -1.16461 0
M  V30 5719 C 542.396 -0.802426 -1.68576 0
M  V30 5720 C 542.747 0.67412 -1.84255 0
M  V30 5721 O 541.872 1.52303 -1.5373 0
M  V30 5722 C 542.467 -1.45002 -3.06202 0
M  V30 5723 C 541.026 -1.23843 -3.55443 0
M  V30 5724 C 540.173 -1.52724 -2.31454 0
M  V30 5725 H 543.124 -1.22545 -1.00839 0
M  V30 5726 H 543.145 -0.864731 -3.70544 0
M  V30 5727 H 542.657 -2.52466 -2.94759 0
M  V30 5728 H 540.758 -0.183487 -3.72148 0
M  V30 5729 H 540.871 -1.95036 -4.37604 0
M  V30 5730 H 539.235 -0.947726 -2.36411 0
M  V30 5731 H 540.018 -2.61343 -2.22609 0
M  V30 5732 N 542.463 1.3308 -0.844243 0
M  V30 5733 C 543.709 1.98304 -0.452453 0
M  V30 5734 C 544.064 1.65645 0.978746 0
M  V30 5735 O 543.357 0.928849 1.6758 0
M  V30 5736 C 543.551 3.52045 -0.616354 0
M  V30 5737 C 543.38 3.99643 -2.06193 0
M  V30 5738 C 542.15 4.27224 -2.69829 0
M  V30 5739 C 544.348 4.15471 -3.03131 0
M  V30 5740 N 542.33 4.60998 -4.05406 0
M  V30 5741 C 543.701 4.52665 -4.23668 0
M  V30 5742 C 545.756 3.97776 -2.99465 0
M  V30 5743 C 544.459 4.74011 -5.41023 0
M  V30 5744 C 546.485 4.20301 -4.16055 0
M  V30 5745 C 545.847 4.57801 -5.35348 0
M  V30 5746 H 541.946 0.752122 -0.214096 0
M  V30 5747 H 544.53 1.61096 -1.09344 0
M  V30 5748 H 542.701 3.884 -0.00513205 0
M  V30 5749 H 544.433 4.04228 -0.19548 0
M  V30 5750 H 541.188 4.18911 -2.20931 0
M  V30 5751 H 541.612 4.82087 -4.75312 0
M  V30 5752 H 546.254 3.67893 -2.08362 0
M  V30 5753 H 543.972 5.02753 -6.32665 0
M  V30 5754 H 547.558 4.08122 -4.14641 0
M  V30 5755 H 546.438 4.74884 -6.24063 0
M  V30 5756 N 543.941 0.601185 1.45683 0
M  V30 5757 C 544.874 -0.17013 2.27565 0
M  V30 5758 C 545.852 -0.879661 1.36751 0
M  V30 5759 O 547.036 -0.889827 1.66176 0
M  V30 5760 C 544.163 -1.24568 3.14961 0
M  V30 5761 C 543.209 -0.639978 4.21671 0
M  V30 5762 S 544.042 0.547275 5.32696 0
M  V30 5763 C 545.198 -0.529019 6.2366 0
M  V30 5764 H 545.431 0.524583 2.92635 0
M  V30 5765 H 542.964 0.388537 1.49431 0
M  V30 5766 H 544.922 -1.86138 3.65873 0
M  V30 5767 H 543.583 -1.91243 2.49169 0
M  V30 5768 H 542.776 -1.44903 4.8272 0
M  V30 5769 H 542.378 -0.0995558 3.73867 0
M  V30 5770 H 544.67 -1.40981 6.62669 0
M  V30 5771 H 545.613 0.0451599 7.08086 0
M  V30 5772 H 546.021 -0.84147 5.58193 0
M  V30 5773 N 545.419 -1.53889 0.339982 0
M  V30 5774 C 546.367 -2.26391 -0.533822 0
M  V30 5775 C 547.361 -1.28404 -1.10493 0
M  V30 5776 O 548.567 -1.46124 -1.05108 0
M  V30 5777 H 544.942 -0.727385 -0.190828 0
M  V30 5778 H 546.913 -2.98233 0.0997484 0
M  V30 5779 C 545.662 -3.04707 -1.67479 0
M  V30 5780 H 544.985 -3.79934 -1.2446 0
M  V30 5781 H 546.425 -3.58657 -2.26144 0
M  V30 5782 C 544.884 -2.13989 -2.60212 0
M  V30 5783 O 545.414 -1.73361 -3.62366 0
M  V30 5784 N 543.62 -1.79141 -2.28816 0
M  V30 5785 H 543.167 -2.12378 -1.45785 0
M  V30 5786 H 543.125 -1.18725 -2.91121 0
M  V30 5787 N 546.897 -0.0685191 -1.57451 0
M  V30 5788 C 548.122 0.613919 -1.98106 0
M  V30 5789 C 548.547 1.62551 -0.946501 0
M  V30 5790 O 547.905 1.81085 0.0882824 0
M  V30 5791 C 547.953 1.26189 -3.378 0
M  V30 5792 O 547.057 2.37773 -3.36954 0
M  V30 5793 H 546.398 0.158163 -0.644888 0
M  V30 5794 H 548.928 -0.142063 -2.04106 0
M  V30 5795 H 548.938 1.60951 -3.74912 0
M  V30 5796 H 547.613 0.520625 -4.12629 0
M  V30 5797 H 546.19 2.04829 -3.11608 0
M  V30 5798 N 548.375 1.56261 0.205012 0
M  V30 5799 C 549.623 1.79684 0.925096 0
M  V30 5800 C 549.944 0.63989 1.84202 0
M  V30 5801 O 549.214 -0.342345 1.92885 0
M  V30 5802 H 547.794 0.662774 0.344587 0
M  V30 5803 H 550.456 1.93734 0.212899 0
M  V30 5804 H 549.552 2.72467 1.52211 0
M  V30 5805 N 549.853 -0.472356 1.50355 0
M  V30 5806 C 551.264 -1.05326 1.54154 0
M  V30 5807 C 551.615 -1.93155 0.344303 0
M  V30 5808 O 550.74 -2.09479 -0.542928 0
M  V30 5809 C 551.335 -1.91691 2.79356 0
M  V30 5810 C 549.894 -2.44892 2.8584 0
M  V30 5811 C 549.041 -1.23205 2.48426 0
M  V30 5812 H 551.992 -0.255027 1.56637 0
M  V30 5813 H 552.013 -2.76742 2.6114 0
M  V30 5814 H 551.525 -1.27741 3.66475 0
M  V30 5815 H 549.626 -3.12399 2.0307 0
M  V30 5816 H 549.739 -2.80086 3.88701 0
M  V30 5817 H 548.103 -1.56643 2.00836 0
M  V30 5818 H 548.886 -0.609194 3.37852 0
M  V30 5819 N 551.331 -1.39911 -0.725443 0
M  V30 5820 C 552.556 -1.41137 -1.5197 0
M  V30 5821 C 552.981 -0.010262 -1.88097 0
M  V30 5822 O 552.339 0.979184 -1.52583 0
M  V30 5823 C 552.387 -2.2994 -2.77777 0
M  V30 5824 O 551.491 -1.73586 -3.74088 0
M  V30 5825 H 550.832 -0.480219 -0.458569 0
M  V30 5826 H 553.362 -1.84023 -0.894249 0
M  V30 5827 H 553.372 -2.44785 -3.26411 0
M  V30 5828 H 552.047 -3.31759 -2.50816 0
M  V30 5829 H 550.624 -1.68035 -3.32894 0
M  V30 5830 N 552.809 0.956637 -1.25245 0
M  V30 5831 C 553.719 2.0868 -1.0719 0
M  V30 5832 C 554.735 1.73997 -0.00959074 0
M  V30 5833 O 555.911 2.00301 -0.210104 0
M  V30 5834 C 552.976 3.39754 -0.690526 0
M  V30 5835 C 552.037 3.88316 -1.83055 0
M  V30 5836 C 551.27 5.13134 -1.46728 0
M  V30 5837 O 551.493 5.6925 -0.362029 0
M  V30 5838 O 550.427 5.56356 -2.29677 0
M  V30 5839 H 554.253 2.26813 -2.01965 0
M  V30 5840 H 551.838 1.07098 -1.04165 0
M  V30 5841 H 553.72 4.18543 -0.489871 0
M  V30 5842 H 552.395 3.22896 0.227981 0
M  V30 5843 H 551.302 3.1054 -2.08604 0
M  V30 5844 H 552.635 4.09669 -2.72822 0
M  V30 5845 N 554.287 1.06798 1.15896 0
M  V30 5846 C 555.512 0.808739 1.90982 0
M  V30 5847 C 555.937 -0.6316 1.77179 0
M  V30 5848 O 555.295 -1.4407 1.10061 0
M  V30 5849 C 555.343 1.21468 3.39526 0
M  V30 5850 O 554.447 0.356562 4.10856 0
M  V30 5851 H 553.788 0.29512 0.594811 0
M  V30 5852 H 556.318 1.42513 1.46804 0
M  V30 5853 H 556.328 1.18844 3.90308 0
M  V30 5854 H 555.003 2.26379 3.48891 0
M  V30 5855 H 553.58 0.444808 3.70238 0
M  V30 5856 N 555.766 -1.3263 0.851289 0
M  V30 5857 C 557.182 -1.50162 0.5407 0
M  V30 5858 C 557.382 -1.78788 -0.929369 0
M  V30 5859 O 556.438 -1.85545 -1.71258 0
M  V30 5860 C 557.751 -2.64803 1.42478 0
M  V30 5861 C 559.299 -2.78688 1.42485 0
M  V30 5862 C 559.774 -3.96405 2.29407 0
M  V30 5863 N 561.265 -4.0366 2.27184 0
M  V30 5864 C 562 -4.93971 2.9117 0
M  V30 5865 N 561.496 -5.89313 3.64256 0
M  V30 5866 N 563.289 -4.87066 2.80576 0
M  V30 5867 H 555.44 -1.12315 1.80275 0
M  V30 5868 H 557.703 -0.553266 0.769806 0
M  V30 5869 H 557.409 -2.50368 2.46999 0
M  V30 5870 H 557.283 -3.60506 1.10974 0
M  V30 5871 H 559.67 -2.92547 0.387304 0
M  V30 5872 H 559.751 -1.83708 1.78002 0
M  V30 5873 H 559.395 -3.83304 3.33228 0
M  V30 5874 H 559.325 -4.90654 1.91224 0
M  V30 5875 H 561.816 -3.35435 1.74045 0
M  V30 5876 H 562.129 -6.54913 4.10255 0
M  V30 5877 H 560.474 -5.8935 3.68364 0
M  V30 5878 H 563.665 -4.11552 2.23031 0
M  V30 5879 H 563.838 -5.57248 3.30725 0
M  V30 5880 N 557.244 -0.608902 -1.45362 0
M  V30 5881 C 558.655 -0.189511 -1.85736 0
M  V30 5882 C 559.006 1.2539 -1.50903 0
M  V30 5883 O 558.131 1.95094 -0.936347 0
M  V30 5884 C 558.726 -0.33716 -3.37118 0
M  V30 5885 C 557.285 0.0275487 -3.7639 0
M  V30 5886 C 556.432 -0.660983 -2.69307 0
M  V30 5887 H 559.383 -0.815499 -1.36144 0
M  V30 5888 H 559.404 0.430257 -3.7806 0
M  V30 5889 H 558.916 -1.38779 -3.62439 0
M  V30 5890 H 557.017 1.0773 -3.56686 0
M  V30 5891 H 557.13 -0.367018 -4.77692 0
M  V30 5892 H 555.494 -0.0984958 -2.54509 0
M  V30 5893 H 556.277 -1.71377 -2.97464 0
M  V30 5894 N 558.722 1.53707 -0.348139 0
M  V30 5895 C 559.952 2.05108 0.247864 0
M  V30 5896 C 560.36 1.22252 1.44399 0
M  V30 5897 O 559.703 0.251853 1.81965 0
M  V30 5898 C 559.765 3.52171 0.722187 0
M  V30 5899 C 559.429 4.5562 -0.354902 0
M  V30 5900 C 560.426 5.05883 -1.19911 0
M  V30 5901 C 558.111 4.99703 -0.510145 0
M  V30 5902 C 560.105 5.98814 -2.18406 0
M  V30 5903 C 557.792 5.92443 -1.49848 0
M  V30 5904 C 558.79 6.41887 -2.33389 0
M  V30 5905 O 558.478 7.32802 -3.3054 0
M  V30 5906 H 558.21 0.674086 0.0508296 0
M  V30 5907 H 560.764 1.99229 -0.49968 0
M  V30 5908 H 558.994 3.55529 1.52105 0
M  V30 5909 H 560.683 3.8652 1.23925 0
M  V30 5910 H 561.449 4.72586 -1.09028 0
M  V30 5911 H 557.328 4.60816 0.130274 0
M  V30 5912 H 560.872 6.3733 -2.83649 0
M  V30 5913 H 556.769 6.25155 -1.60786 0
M  V30 5914 H 557.537 7.50749 -3.26064 0
M  V30 5915 N 560.2 0.0768682 1.57412 0
M  V30 5916 C 561.15 -0.898795 2.09537 0
M  V30 5917 C 562.134 -1.25556 1.0062 0
M  V30 5918 O 563.326 -1.23369 1.26921 0
M  V30 5919 C 560.455 -2.16453 2.66464 0
M  V30 5920 C 559.541 -1.83401 3.82393 0
M  V30 5921 N 559.932 -1.20823 4.91157 0
M  V30 5922 C 558.23 -2.13121 3.91785 0
M  V30 5923 C 558.931 -1.05976 5.71965 0
M  V30 5924 N 557.907 -1.57113 5.204 0
M  V30 5925 H 561.709 -0.410718 2.91016 0
M  V30 5926 H 559.223 -0.126878 1.61904 0
M  V30 5927 H 561.22 -2.87274 3.02125 0
M  V30 5928 H 559.88 -2.65844 1.86433 0
M  V30 5929 H 560.891 -0.877249 5.10416 0
M  V30 5930 H 557.568 -2.64854 3.22736 0
M  V30 5931 H 558.958 -0.571809 6.69462 0
M  V30 5932 N 561.678 -1.56367 -0.196722 0
M  V30 5933 C 562.926 -1.80172 -0.915554 0
M  V30 5934 C 563.247 -0.649649 -1.8386 0
M  V30 5935 O 562.517 0.332111 -1.93064 0
M  V30 5936 H 561.097 -0.664592 -0.341067 0
M  V30 5937 H 563.759 -1.93844 -0.202622 0
M  V30 5938 H 562.855 -2.7327 -1.50764 0
M  V30 5939 N 563.156 0.464375 -1.50603 0
M  V30 5940 C 564.089 1.58052 -1.64605 0
M  V30 5941 C 565.067 1.54914 -0.494016 0
M  V30 5942 O 566.251 1.74438 -0.714393 0
M  V30 5943 C 563.378 2.96634 -1.63481 0
M  V30 5944 C 562.424 3.17901 -2.84325 0
M  V30 5945 S 563.257 2.97083 -4.45536 0
M  V30 5946 C 564.413 4.37994 -4.47115 0
M  V30 5947 H 564.646 1.45937 -2.59017 0
M  V30 5948 H 562.179 0.652189 -1.39949 0
M  V30 5949 H 564.137 3.76527 -1.63517 0
M  V30 5950 H 562.798 3.06134 -0.702928 0
M  V30 5951 H 561.991 4.19158 -2.79862 0
M  V30 5952 H 561.593 2.45792 -2.81891 0
M  V30 5953 H 563.885 5.30743 -4.21091 0
M  V30 5954 H 564.828 4.47499 -5.48772 0
M  V30 5955 H 565.236 4.20386 -3.76743 0
M  V30 5956 N 564.634 1.40294 0.718013 0
M  V30 5957 C 565.584 1.36847 1.82365 0
M  V30 5958 C 566.568 0.246424 1.59002 0
M  V30 5959 O 567.76 0.485336 1.70216 0
M  V30 5960 C 564.889 1.23105 3.20469 0
M  V30 5961 C 563.975 2.4008 3.49603 0
M  V30 5962 N 564.366 3.65562 3.49568 0
M  V30 5963 C 562.664 2.33407 3.80049 0
M  V30 5964 C 563.365 4.43015 3.76978 0
M  V30 5965 N 562.341 3.72823 3.95606 0
M  V30 5966 H 566.143 2.31811 1.80668 0
M  V30 5967 H 563.657 1.34031 0.91703 0
M  V30 5968 H 565.654 1.18718 3.9964 0
M  V30 5969 H 564.314 0.291056 3.23393 0
M  V30 5970 H 565.325 3.98756 3.30476 0
M  V30 5971 H 562.002 1.47762 3.90478 0
M  V30 5972 H 563.392 5.51859 3.83276 0
M  V30 5973 N 566.112 -0.949982 1.2575 0
M  V30 5974 C 567.36 -1.6918 1.10555 0
M  V30 5975 C 567.681 -1.91773 -0.353298 0
M  V30 5976 O 566.951 -1.50814 -1.25027 0
M  V30 5977 H 565.531 -0.626952 0.406129 0
M  V30 5978 H 568.193 -1.1419 1.57945 0
M  V30 5979 H 567.289 -2.66915 1.61749 0
M  V30 5980 N 567.59 -1.07411 -1.15328 0
M  V30 5981 C 568.838 -0.796073 -1.85761 0
M  V30 5982 C 569.159 0.679864 -1.82764 0
M  V30 5983 O 568.429 1.49242 -1.269 0
M  V30 5984 H 567.009 -0.291495 -0.687779 0
M  V30 5985 H 569.671 -1.35799 -1.39802 0
M  V30 5986 H 568.767 -1.13114 -2.90881 0
M  V30 5987 N 569.068 1.32177 -0.85831 0
M  V30 5988 C 570.316 1.96735 -0.462568 0
M  V30 5989 C 570.637 1.6824 0.985911 0
M  V30 5990 O 569.907 0.991564 1.68952 0
M  V30 5991 H 568.487 0.727849 -0.168064 0
M  V30 5992 H 571.149 1.61195 -1.09554 0
M  V30 5993 H 570.245 3.06068 -0.610647 0
M  V30 5994 N 570.547 0.616602 1.45037 0
M  V30 5995 C 571.958 0.199359 1.85633 0
M  V30 5996 C 572.309 -1.24588 1.51566 0
M  V30 5997 O 571.434 -1.94594 0.94668 0
M  V30 5998 C 572.029 0.355033 3.36935 0
M  V30 5999 C 570.588 -0.00758748 3.76399 0
M  V30 6000 C 569.735 0.675256 2.68953 0
M  V30 6001 H 572.686 0.822708 1.3571 0
M  V30 6002 H 572.707 -0.410201 3.78282 0
M  V30 6003 H 572.219 1.40699 3.61698 0
M  V30 6004 H 570.32 -1.05837 3.57252 0
M  V30 6005 H 570.433 0.392346 4.77491 0
M  V30 6006 H 568.797 0.111992 2.54454 0
M  V30 6007 H 569.58 1.72952 2.96551 0
M  V30 6008 N 572.025 -1.5352 0.356285 0
M  V30 6009 C 573.273 -2.00719 -0.235837 0
M  V30 6010 C 573.594 -1.24551 -1.5004 0
M  V30 6011 O 572.864 -0.356185 -1.92635 0
M  V30 6012 H 571.444 -0.741542 -0.0901366 0
M  V30 6013 H 574.106 -1.88887 0.480378 0
M  V30 6014 H 573.202 -3.08551 -0.469357 0
M  V30 6015 N 573.503 -0.0852151 -1.57369 0
M  V30 6016 C 574.751 0.579658 -1.93609 0
M  V30 6017 C 575.072 1.69332 -0.967043 0
M  V30 6018 O 574.342 1.95892 -0.0174215 0
M  V30 6019 H 572.922 0.217113 -0.714752 0
M  V30 6020 H 575.584 -0.146226 -1.94351 0
M  V30 6021 H 574.68 0.996276 -2.95771 0
M  V30 6022 N 574.981 1.5647 0.188427 0
M  V30 6023 C 576.392 1.70864 0.752494 0
M  V30 6024 C 576.743 0.692905 1.83557 0
M  V30 6025 O 575.868 -0.149307 2.15884 0
M  V30 6026 C 576.463 3.09789 1.37173 0
M  V30 6027 C 575.022 3.25925 1.88281 0
M  V30 6028 C 574.169 2.66817 0.755259 0
M  V30 6029 H 577.12 1.58657 -0.0367408 0
M  V30 6030 H 577.141 3.07489 2.24122 0
M  V30 6031 H 576.653 3.83693 0.583219 0
M  V30 6032 H 574.754 2.56948 2.6983 0
M  V30 6033 H 574.867 4.33498 2.04001 0
M  V30 6034 H 573.231 2.2617 1.17128 0
M  V30 6035 H 574.014 3.43294 -0.0211237 0
M  V30 6036 N 576.459 -0.456382 1.50847 0
M  V30 6037 C 577.707 -1.20497 1.62249 0
M  V30 6038 C 578.028 -1.92156 0.331839 0
M  V30 6039 O 577.298 -1.84751 -0.651443 0
M  V30 6040 H 575.878 -0.447775 0.597918 0
M  V30 6041 H 578.54 -0.525099 1.87693 0
M  V30 6042 H 577.636 -1.94492 2.44089 0
M  V30 6043 N 577.937 -1.40673 -0.710563 0
M  V30 6044 C 579.185 -1.38947 -1.46759 0
M  V30 6045 C 579.506 0.00572879 -1.94999 0
M  V30 6046 O 578.776 0.961358 -1.70689 0
M  V30 6047 H 577.356 -0.5114 -0.544499 0
M  V30 6048 H 580.018 -1.75773 -0.842012 0
M  V30 6049 H 579.114 -2.06745 -2.33801 0
M  V30 6050 N 579.415 0.9433 -1.26252 0
M  V30 6051 C 580.663 1.68592 -1.11451 0
M  V30 6052 C 580.984 1.91957 0.343123 0
M  V30 6053 O 580.254 1.51475 1.24226 0
M  V30 6054 H 578.834 0.624789 -0.409448 0
M  V30 6055 H 581.496 1.13351 -1.58548 0
M  V30 6056 H 580.592 2.66054 -1.63162 0
M  V30 6057 N 580.893 1.08022 1.14757 0
M  V30 6058 C 582.304 0.829144 1.67279 0
M  V30 6059 C 582.655 -0.644721 1.85305 0
M  V30 6060 O 581.78 -1.49838 1.56133 0
M  V30 6061 C 582.375 1.49855 3.03857 0
M  V30 6062 C 580.934 1.29482 3.53428 0
M  V30 6063 C 580.081 1.56386 2.28995 0
M  V30 6064 H 583.032 1.24134 0.988762 0
M  V30 6065 H 583.053 0.923572 3.69121 0
M  V30 6066 H 582.565 2.57123 2.90705 0
M  V30 6067 H 580.666 0.242669 3.71809 0
M  V30 6068 H 580.779 2.01974 4.34446 0
M  V30 6069 H 579.143 0.985217 2.34874 0
M  V30 6070 H 579.926 2.64851 2.18423 0
M  V30 6071 N 582.371 -1.3172 0.865308 0
M  V30 6072 C 583.321 -2.26157 0.289305 0
M  V30 6073 C 584.305 -1.50428 -0.570977 0
M  V30 6074 O 585.497 -1.71978 -0.418617 0
M  V30 6075 C 582.626 -3.39457 -0.512237 0
M  V30 6076 C 581.712 -4.22561 0.361028 0
M  V30 6077 N 582.103 -4.84501 1.45231 0
M  V30 6078 C 580.401 -4.45739 0.152641 0
M  V30 6079 C 581.102 -5.46586 1.99043 0
M  V30 6080 N 580.078 -5.28119 1.28809 0
M  V30 6081 H 583.88 -2.71581 1.12344 0
M  V30 6082 H 581.394 -1.45932 0.712565 0
M  V30 6083 H 583.391 -4.06133 -0.941379 0
M  V30 6084 H 582.051 -2.95577 -1.34404 0
M  V30 6085 H 583.062 -4.84293 1.83524 0
M  V30 6086 H 579.739 -4.1251 -0.643583 0
M  V30 6087 H 581.129 -6.05817 2.90577 0
M  V30 6088 N 583.85 -0.624285 -1.44708 0
M  V30 6089 C 585.075 -0.131171 -2.06985 0
M  V30 6090 C 585.5 1.18234 -1.46295 0
M  V30 6091 O 584.858 1.72375 -0.561842 0
M  V30 6092 C 584.906 -0.0226724 -3.60593 0
M  V30 6093 O 584.01 1.02314 -3.99507 0
M  V30 6094 H 583.351 -0.0816556 -0.65896 0
M  V30 6095 H 585.88 -0.859027 -1.85693 0
M  V30 6096 H 585.891 0.170138 -4.07645 0
M  V30 6097 H 584.566 -0.981685 -4.04148 0
M  V30 6098 H 583.143 0.805452 -3.64097 0
M  V30 6099 N 585.328 1.53329 -0.364422 0
M  V30 6100 C 586.575 2.01239 0.225634 0
M  V30 6101 C 586.903 1.25172 1.48869 0
M  V30 6102 O 586.158 0.333289 1.92841 0
M  V30 6103 C 586.457 3.52911 0.564661 0
M  V30 6104 C 586.123 4.46837 -0.603936 0
M  V30 6105 C 584.785 4.72234 -0.924585 0
M  V30 6106 C 587.137 5.02409 -1.38691 0
M  V30 6107 C 584.465 5.50454 -2.0302 0
M  V30 6108 C 586.817 5.81836 -2.48293 0
M  V30 6109 C 585.481 6.0552 -2.80894 0
M  V30 6110 H 584.751 0.736386 0.0825654 0
M  V30 6111 H 587.398 1.84948 -0.496645 0
M  V30 6112 H 585.703 3.67144 1.36794 0
M  V30 6113 H 587.4 3.87455 1.03344 0
M  V30 6114 H 583.99 4.27217 -0.343983 0
M  V30 6115 H 588.174 4.82735 -1.15243 0
M  V30 6116 H 583.43 5.67024 -2.28678 0
M  V30 6117 H 587.604 6.23905 -3.0938 0
M  V30 6118 H 585.231 6.65916 -3.66688 0
M  V30 6119 N 586.806 0.0935595 1.57322 0
M  V30 6120 C 588.217 -0.435807 1.81542 0
M  V30 6121 C 588.568 -1.68263 1.00907 0
M  V30 6122 O 587.693 -2.15087 0.237983 0
M  V30 6123 C 588.288 -0.797436 3.29282 0
M  V30 6124 C 586.847 -1.27155 3.54272 0
M  V30 6125 C 585.994 -0.267455 2.76007 0
M  V30 6126 H 588.945 0.31902 1.5546 0
M  V30 6127 H 588.966 -1.6571 3.42521 0
M  V30 6128 H 588.478 0.110206 3.87943 0
M  V30 6129 H 586.579 -2.19696 3.00939 0
M  V30 6130 H 586.692 -1.23445 4.62923 0
M  V30 6131 H 585.056 -0.749282 2.43429 0
M  V30 6132 H 585.839 0.632839 3.37417 0
M  V30 6133 N 588.284 -1.56567 -0.180126 0
M  V30 6134 C 589.234 -1.92132 -1.22756 0
M  V30 6135 C 590.218 -0.788639 -1.40247 0
M  V30 6136 O 591.41 -1.05171 -1.42366 0
M  V30 6137 C 588.539 -2.27719 -2.56902 0
M  V30 6138 C 587.625 -3.47481 -2.43142 0
M  V30 6139 N 588.016 -4.64973 -1.99082 0
M  V30 6140 C 586.314 -3.51914 -2.73994 0
M  V30 6141 C 587.015 -5.47119 -1.97574 0
M  V30 6142 N 585.991 -4.87925 -2.39645 0
M  V30 6143 H 589.793 -2.80464 -0.878478 0
M  V30 6144 H 587.307 -1.57686 -0.388463 0
M  V30 6145 H 589.304 -2.51389 -3.32579 0
M  V30 6146 H 587.964 -1.40722 -2.92621 0
M  V30 6147 H 588.975 -4.89358 -1.69557 0
M  V30 6148 H 585.652 -2.75372 -3.13809 0
M  V30 6149 H 587.042 -6.51254 -1.65282 0
M  V30 6150 N 589.762 0.448376 -1.51087 0
M  V30 6151 C 591.173 1.0286 -1.5581 0
M  V30 6152 C 591.524 1.92583 -0.374989 0
M  V30 6153 O 590.649 2.10316 0.509533 0
M  V30 6154 C 591.244 1.87223 -2.8237 0
M  V30 6155 C 589.803 2.40314 -2.897 0
M  V30 6156 C 588.95 1.19238 -2.50355 0
M  V30 6157 H 591.901 0.230075 -1.57023 0
M  V30 6158 H 591.922 2.72553 -2.6551 0
M  V30 6159 H 591.434 1.21894 -3.68461 0
M  V30 6160 H 589.535 3.09129 -2.08014 0
M  V30 6161 H 589.648 2.73866 -3.93108 0
M  V30 6162 H 588.012 1.53428 -2.03303 0
M  V30 6163 H 588.795 0.555367 -3.38778 0
M  V30 6164 N 591.24 1.41047 0.703093 0
M  V30 6165 C 592.17 1.45067 1.82969 0
M  V30 6166 C 593.151 0.31016 1.67248 0
M  V30 6167 O 594.336 0.520548 1.87093 0
M  V30 6168 C 591.466 1.32478 3.2104 0
M  V30 6169 C 590.42 2.44262 3.51454 0
M  V30 6170 C 589.746 2.16742 4.88801 0
M  V30 6171 C 591.046 3.86606 3.51189 0
M  V30 6172 H 592.74 2.39353 1.79863 0
M  V30 6173 H 590.286 1.15206 0.863919 0
M  V30 6174 H 592.239 1.33904 3.99559 0
M  V30 6175 H 590.963 0.346735 3.24754 0
M  V30 6176 H 589.622 2.42107 2.75282 0
M  V30 6177 H 589.27 1.17299 4.89132 0
M  V30 6178 H 588.97 2.91643 5.10116 0
M  V30 6179 H 590.494 2.19872 5.69639 0
M  V30 6180 H 591.908 3.90517 4.19725 0
M  V30 6181 H 590.305 4.61128 3.84033 0
M  V30 6182 H 591.375 4.15296 2.50315 0
M  V30 6183 N 592.718 -0.936591 1.26751 0
M  V30 6184 C 594.129 -1.49816 1.1141 0
M  V30 6185 C 594.48 -1.9383 -0.304015 0
M  V30 6186 O 593.605 -1.80346 -1.196 0
M  V30 6187 C 594.2 -2.72271 2.01629 0
M  V30 6188 C 592.759 -3.2468 1.9042 0
M  V30 6189 C 591.906 -1.97444 1.94708 0
M  V30 6190 H 594.857 -0.751604 1.39773 0
M  V30 6191 H 594.878 -3.46741 1.56688 0
M  V30 6192 H 594.39 -2.40205 3.04833 0
M  V30 6193 H 592.491 -3.61525 0.901674 0
M  V30 6194 H 592.604 -3.91476 2.76195 0
M  V30 6195 H 590.968 -2.13545 1.38818 0
M  V30 6196 H 591.751 -1.67703 2.9955 0
M  V30 6197 N 594.196 -1.08629 -1.14182 0
M  V30 6198 C 595.421 -0.83902 -1.89671 0
M  V30 6199 C 595.846 0.603332 -1.78161 0
M  V30 6200 O 595.204 1.42301 -1.12339 0
M  V30 6201 C 595.252 -1.26854 -3.37551 0
M  V30 6202 O 594.356 -0.42188 -4.10236 0
M  V30 6203 H 593.697 -0.304545 -0.590041 0
M  V30 6204 H 596.227 -1.4483 -1.44518 0
M  V30 6205 H 596.237 -1.25038 -3.88368 0
M  V30 6206 H 594.912 -2.31901 -3.45246 0
M  V30 6207 H 593.489 -0.503654 -3.69483 0
M  V30 6208 N 595.674 1.31259 -0.872281 0
M  V30 6209 C 596.604 2.30929 -0.345554 0
M  V30 6210 C 597.585 1.60449 0.5648 0
M  V30 6211 O 598.77 1.8814 0.481335 0
M  V30 6212 C 595.9 3.44348 0.451823 0
M  V30 6213 C 594.854 4.26435 -0.365641 0
M  V30 6214 C 594.18 5.31785 0.557562 0
M  V30 6215 C 595.48 4.97159 -1.60095 0
M  V30 6216 H 597.174 2.75234 -1.17841 0
M  V30 6217 H 594.72 1.3232 -0.568094 0
M  V30 6218 H 596.673 4.13128 0.830854 0
M  V30 6219 H 595.397 2.98816 1.31821 0
M  V30 6220 H 594.056 3.59326 -0.726649 0
M  V30 6221 H 593.704 4.82502 1.4213 0
M  V30 6222 H 593.404 5.87598 0.0144878 0
M  V30 6223 H 594.928 6.03424 0.933387 0
M  V30 6224 H 596.342 5.58523 -1.29323 0
M  V30 6225 H 594.739 5.62779 -2.08327 0
M  V30 6226 H 595.809 4.24012 -2.35249 0
M  V30 6227 N 597.152 0.631951 1.44375 0
M  V30 6228 C 598.38 0.143867 2.06399 0
M  V30 6229 C 598.795 -1.18188 1.47231 0
M  V30 6230 O 598.152 -1.72511 0.595498 0
M  V30 6231 C 598.203 0.0238253 3.61492 0
M  V30 6232 O 597.924 1.29715 4.18456 0
M  V30 6233 C 599.425 -0.492856 4.40552 0
M  V30 6234 H 596.645 0.0800542 0.666207 0
M  V30 6235 H 599.189 0.866586 1.85231 0
M  V30 6236 H 597.344 -0.649338 3.81919 0
M  V30 6237 H 597.758 1.14252 5.11905 0
M  V30 6238 H 599.232 -0.525861 5.49489 0
M  V30 6239 H 599.709 -1.52006 4.12057 0
M  V30 6240 H 600.315 0.147085 4.25046 0
M  V30 6241 N 598.631 -1.53133 0.372548 0
M  V30 6242 C 599.879 -2.00958 -0.214534 0
M  V30 6243 C 600.2 -1.26135 -1.48711 0
M  V30 6244 O 599.47 -0.376597 -1.92246 0
M  V30 6245 H 598.05 -0.742456 -0.0822664 0
M  V30 6246 H 600.712 -1.88367 0.500385 0
M  V30 6247 H 599.808 -3.09031 -0.436605 0
M  V30 6248 N 600.109 -0.101901 -1.5727 0
M  V30 6249 C 601.357 0.559091 -1.94213 0
M  V30 6250 C 601.678 1.68297 -0.984948 0
M  V30 6251 O 600.948 1.95863 -0.0381975 0
M  V30 6252 H 599.528 0.20952 -0.717015 0
M  V30 6253 H 602.19 -0.166831 -1.94185 0
M  V30 6254 H 601.286 0.96485 -2.96811 0
M  V30 6255 N 601.587 1.56661 0.17182 0
M  V30 6256 C 602.537 1.92781 1.21736 0
M  V30 6257 C 603.521 0.796065 1.39827 0
M  V30 6258 O 604.713 1.05924 1.41806 0
M  V30 6259 C 601.842 2.29079 2.55691 0
M  V30 6260 C 600.928 3.48765 2.41296 0
M  V30 6261 N 601.319 4.66022 1.96614 0
M  V30 6262 C 599.617 3.53362 2.72124 0
M  V30 6263 C 600.318 5.48159 1.94669 0
M  V30 6264 N 599.294 4.89189 2.37054 0
M  V30 6265 H 603.096 2.80926 0.863592 0
M  V30 6266 H 600.61 1.57889 0.380096 0
M  V30 6267 H 602.607 2.5315 3.31241 0
M  V30 6268 H 601.267 1.42272 2.91871 0
M  V30 6269 H 602.278 4.9025 1.66959 0
M  V30 6270 H 598.955 2.77033 3.12345 0
M  V30 6271 H 600.345 6.52121 1.61826 0
M  V30 6272 N 603.065 -0.440357 1.51323 0
M  V30 6273 C 604.313 -1.18769 1.63518 0
M  V30 6274 C 604.634 -1.91793 0.352201 0
M  V30 6275 O 603.904 -1.85432 -0.631811 0
M  V30 6276 H 602.484 -0.441408 0.602634 0
M  V30 6277 H 605.146 -0.505162 1.8824 0
M  V30 6278 H 604.242 -1.91892 2.46138 0
M  V30 6279 N 604.543 -1.41418 -0.695603 0
M  V30 6280 C 605.791 -1.40496 -1.45277 0
M  V30 6281 C 606.112 -0.0149538 -1.94994 0
M  V30 6282 O 605.382 0.9432 -1.71699 0
M  V30 6283 H 603.962 -0.517147 -0.539044 0
M  V30 6284 H 606.624 -1.76656 -0.823321 0
M  V30 6285 H 605.72 -2.09214 -2.31595 0
M  V30 6286 N 606.021 0.929856 -1.27246 0
M  V30 6287 C 606.971 2.01629 -1.06442 0
M  V30 6288 C 607.955 1.60899 0.00687842 0
M  V30 6289 O 609.147 1.75733 -0.211407 0
M  V30 6290 C 606.276 3.35849 -0.711361 0
M  V30 6291 C 605.362 3.8303 -1.82069 0
M  V30 6292 N 605.753 4.02743 -3.05993 0
M  V30 6293 C 604.051 4.12046 -1.70687 0
M  V30 6294 C 604.752 4.42001 -3.78167 0
M  V30 6295 N 603.728 4.4935 -3.05918 0
M  V30 6296 H 607.53 2.14898 -2.00489 0
M  V30 6297 H 605.044 1.11654 -1.17929 0
M  V30 6298 H 607.041 4.13343 -0.543442 0
M  V30 6299 H 605.701 3.23944 0.221517 0
M  V30 6300 H 606.712 3.89112 -3.41778 0
M  V30 6301 H 603.389 4.08866 -0.844681 0
M  V30 6302 H 604.779 4.6535 -4.84664 0
M  V30 6303 N 607.499 1.09233 1.13605 0
M  V30 6304 C 608.91 0.846839 1.6639 0
M  V30 6305 C 609.261 -0.625031 1.85978 0
M  V30 6306 O 608.386 -1.48173 1.57714 0
M  V30 6307 C 608.981 1.5307 3.0225 0
M  V30 6308 C 607.54 1.33223 3.52035 0
M  V30 6309 C 606.687 1.58806 2.27323 0
M  V30 6310 H 609.638 1.25175 0.975541 0
M  V30 6311 H 609.659 0.96267 3.68121 0
M  V30 6312 H 609.171 2.60192 2.87961 0
M  V30 6313 H 607.272 0.282091 3.71531 0
M  V30 6314 H 607.385 2.0657 4.32279 0
M  V30 6315 H 605.749 1.01007 2.33815 0
M  V30 6316 H 606.532 2.67153 2.15602 0
M  V30 6317 N 608.977 -1.30795 0.87923 0
M  V30 6318 C 609.91 -2.26396 0.286404 0
M  V30 6319 C 610.888 -1.51528 -0.589748 0
M  V30 6320 O 612.072 -1.80566 -0.541119 0
M  V30 6321 C 609.199 -3.33458 -0.593581 0
M  V30 6322 C 608.245 -4.2597 0.21247 0
M  V30 6323 S 609.078 -5.11132 1.59702 0
M  V30 6324 C 610.234 -6.21705 0.723408 0
M  V30 6325 H 610.467 -2.7633 1.09677 0
M  V30 6326 H 608 -1.38703 0.678305 0
M  V30 6327 H 609.958 -3.9561 -1.09557 0
M  V30 6328 H 608.619 -2.82259 -1.37799 0
M  V30 6329 H 607.812 -5.01907 -0.458822 0
M  V30 6330 H 607.414 -3.68363 0.646883 0
M  V30 6331 H 609.706 -6.77472 -0.0620739 0
M  V30 6332 H 610.649 -6.93007 1.4542 0
M  V30 6333 H 611.057 -5.63771 0.286855 0
M  V30 6334 N 610.455 -0.639598 -1.44038 0
M  V30 6335 C 611.387 0.0987684 -2.28987 0
M  V30 6336 C 612.4 0.80058 -1.41755 0
M  V30 6337 O 613.589 0.660611 -1.65826 0
M  V30 6338 C 610.689 1.16242 -3.18341 0
M  V30 6339 C 609.862 0.541447 -4.34036 0
M  V30 6340 C 608.921 1.50017 -5.04362 0
M  V30 6341 O 607.947 1.01403 -5.60095 0
M  V30 6342 N 609.149 2.83441 -5.06598 0
M  V30 6343 H 611.914 -0.630305 -2.92997 0
M  V30 6344 H 609.475 -0.481376 -1.54578 0
M  V30 6345 H 611.467 1.80429 -3.62253 0
M  V30 6346 H 610.037 1.79362 -2.56024 0
M  V30 6347 H 609.257 -0.27923 -3.9321 0
M  V30 6348 H 610.545 0.107379 -5.08687 0
M  V30 6349 H 609.943 3.2551 -4.62666 0
M  V30 6350 H 608.5 3.42966 -5.54272 0
M  V30 6351 N 611.933 1.52934 -0.380664 0
M  V30 6352 C 612.883 2.22989 0.475399 0
M  V30 6353 C 613.867 1.23058 1.03661 0
M  V30 6354 O 615.059 1.48436 0.964146 0
M  V30 6355 C 612.188 3.0338 1.60671 0
M  V30 6356 C 611.274 4.107 1.05766 0
M  V30 6357 N 611.665 5.05264 0.232837 0
M  V30 6358 C 609.963 4.25676 1.33101 0
M  V30 6359 C 610.664 5.81658 -0.0695134 0
M  V30 6360 N 609.64 5.40989 0.532144 0
M  V30 6361 H 613.442 2.93456 -0.161418 0
M  V30 6362 H 610.956 1.61291 -0.189495 0
M  V30 6363 H 612.953 3.52098 2.23232 0
M  V30 6364 H 611.613 2.34446 2.24644 0
M  V30 6365 H 612.624 5.17739 -0.129204 0
M  V30 6366 H 609.301 3.6797 1.97241 0
M  V30 6367 H 610.691 6.67843 -0.737269 0
M  V30 6368 N 613.412 0.11024 1.57214 0
M  V30 6369 C 614.36 -0.860586 2.16094 0
M  V30 6370 C 615.354 -1.28156 1.1078 0
M  V30 6371 O 616.56 -1.25433 1.29099 0
M  V30 6372 H 612.935 -0.295606 0.691463 0
M  V30 6373 H 614.906 -0.33942 2.96463 0
M  V30 6374 C 613.655 -2.10421 2.768 0
M  V30 6375 H 612.978 -1.7892 3.5753 0
M  V30 6376 H 614.418 -2.76375 3.21547 0
M  V30 6377 C 612.877 -2.88823 1.73444 0
M  V30 6378 O 613.407 -3.839 1.18251 0
M  V30 6379 N 611.613 -2.52649 1.43586 0
M  V30 6380 H 611.16 -1.754 1.8866 0
M  V30 6381 H 611.118 -3.05403 0.746735 0
M  V30 6382 N 614.89 -1.56749 -0.16351 0
M  V30 6383 C 616.301 -1.72039 -0.725216 0
M  V30 6384 C 616.652 -0.72202 -1.82432 0
M  V30 6385 O 615.777 0.114942 -2.16095 0
M  V30 6386 C 616.372 -3.11932 -1.32227 0
M  V30 6387 C 614.931 -3.28879 -1.83072 0
M  V30 6388 C 614.078 -2.67984 -0.712716 0
M  V30 6389 H 617.029 -1.58579 0.0619772 0
M  V30 6390 H 617.05 -3.11015 -2.19202 0
M  V30 6391 H 616.562 -3.84572 -0.522103 0
M  V30 6392 H 614.663 -2.61209 -2.65708 0
M  V30 6393 H 614.776 -4.36688 -1.97079 0
M  V30 6394 H 613.14 -2.28005 -1.13515 0
M  V30 6395 H 613.923 -3.43216 0.0757361 0
M  V30 6396 N 616.368 0.432326 -1.51554 0
M  V30 6397 C 617.316 1.54572 -1.73811 0
M  V30 6398 C 618.31 1.58246 -0.604539 0
M  V30 6399 O 619.516 1.6193 -0.786041 0
M  V30 6400 H 615.891 0.513626 -0.549265 0
M  V30 6401 H 617.862 1.32977 -2.67132 0
M  V30 6402 C 616.611 2.92181 -1.88483 0
M  V30 6403 H 615.934 2.90088 -2.75116 0
M  V30 6404 H 617.374 3.69439 -2.08065 0
M  V30 6405 C 615.833 3.3065 -0.645909 0
M  V30 6406 O 616.363 4.01216 0.197093 0
M  V30 6407 N 614.569 2.86464 -0.488538 0
M  V30 6408 H 614.116 2.29209 -1.17562 0
M  V30 6409 H 614.074 3.12565 0.339156 0
M  V30 6410 N 617.846 1.41785 0.688094 0
M  V30 6411 C 619.094 1.41264 1.4453 0
M  V30 6412 C 619.415 0.0252946 1.94984 0
M  V30 6413 O 618.685 -0.934081 1.72197 0
M  V30 6414 H 617.265 0.519998 0.536294 0
M  V30 6415 H 619.927 1.7709 0.813941 0
M  V30 6416 H 619.023 2.10439 2.30482 0
M  V30 6417 N 619.324 -0.923095 1.27737 0
M  V30 6418 C 620.735 -1.48626 1.12993 0
M  V30 6419 C 621.086 -1.94142 -0.283439 0
M  V30 6420 O 620.211 -1.81605 -1.17681 0
M  V30 6421 C 620.806 -2.70117 2.04505 0
M  V30 6422 C 619.365 -3.22642 1.93853 0
M  V30 6423 C 618.512 -1.95368 1.96791 0
M  V30 6424 H 621.463 -0.736737 1.40563 0
M  V30 6425 H 621.484 -3.4506 1.60356 0
M  V30 6426 H 620.996 -2.36959 3.07363 0
M  V30 6427 H 619.097 -3.60549 0.939968 0
M  V30 6428 H 619.21 -3.88525 2.80331 0
M  V30 6429 H 617.574 -2.12061 1.41076 0
M  V30 6430 H 618.357 -1.64517 3.01312 0
M  V30 6431 N 620.802 -1.09834 -1.13024 0
M  V30 6432 C 622.213 -0.855651 -1.65938 0
M  V30 6433 C 622.564 0.615159 -1.86307 0
M  V30 6434 O 621.689 1.47335 -1.58497 0
M  V30 6435 C 622.284 -1.5467 -3.01434 0
M  V30 6436 C 620.843 -1.35088 -3.51323 0
M  V30 6437 C 619.99 -1.6001 -2.26478 0
M  V30 6438 H 622.941 -1.25691 -0.968889 0
M  V30 6439 H 622.962 -0.982179 -3.67605 0
M  V30 6440 H 622.474 -2.61715 -2.86578 0
M  V30 6441 H 620.575 -0.30179 -3.71376 0
M  V30 6442 H 620.688 -2.0886 -4.31178 0
M  V30 6443 H 619.052 -1.02246 -2.33276 0
M  V30 6444 H 619.835 -2.68293 -2.14182 0
M  V30 6445 N 622.28 1.30327 -0.886154 0
M  V30 6446 C 623.691 1.78243 -0.555554 0
M  V30 6447 C 624.042 1.72849 0.928314 0
M  V30 6448 O 623.167 1.30607 1.72542 0
M  V30 6449 C 623.762 3.23654 -1.00168 0
M  V30 6450 C 622.321 3.69401 -0.722471 0
M  V30 6451 C 621.468 2.50753 -1.18399 0
M  V30 6452 H 624.419 1.1718 -1.07026 0
M  V30 6453 H 624.44 3.79056 -0.331152 0
M  V30 6454 H 623.952 3.27548 -2.08169 0
M  V30 6455 H 622.053 3.70995 0.345496 0
M  V30 6456 H 622.166 4.60818 -1.31085 0
M  V30 6457 H 620.53 2.47452 -0.603303 0
M  V30 6458 H 621.313 2.57383 -2.27176 0
M  V30 6459 N 623.758 0.647228 1.43697 0
M  V30 6460 C 625.169 0.238689 1.85168 0
M  V30 6461 C 625.52 -1.21345 1.54175 0
M  V30 6462 O 624.645 -1.92542 0.987743 0
M  V30 6463 C 625.24 0.426422 3.36106 0
M  V30 6464 C 623.799 0.0722541 3.76331 0
M  V30 6465 C 622.946 0.732153 2.6746 0
M  V30 6466 H 625.897 0.851309 1.33934 0
M  V30 6467 H 625.918 -0.32987 3.79067 0
M  V30 6468 H 625.43 1.48339 3.58632 0
M  V30 6469 H 623.531 -0.982355 3.59417 0
M  V30 6470 H 623.644 0.493541 4.76551 0
M  V30 6471 H 622.008 0.16594 2.54159 0
M  V30 6472 H 622.791 1.79204 2.92816 0
M  V30 6473 N 625.236 -1.5273 0.388769 0
M  V30 6474 C 626.482 -2.02545 -0.186351 0
M  V30 6475 C 626.837 -1.27017 -1.44514 0
M  V30 6476 O 626.13 -0.361948 -1.8815 0
M  V30 6477 C 626.324 -3.53765 -0.508445 0
M  V30 6478 C 626.153 -4.43938 0.71758 0
M  V30 6479 C 624.923 -4.89933 1.23668 0
M  V30 6480 C 627.121 -4.89113 1.58974 0
M  V30 6481 N 625.103 -5.64176 2.42031 0
M  V30 6482 C 626.474 -5.61931 2.61979 0
M  V30 6483 C 628.529 -4.71155 1.60989 0
M  V30 6484 C 627.232 -6.18698 3.66886 0
M  V30 6485 C 629.258 -5.28804 2.64803 0
M  V30 6486 C 628.62 -6.01527 3.6653 0
M  V30 6487 H 624.719 -0.781413 -0.0302921 0
M  V30 6488 H 627.303 -1.87104 0.538539 0
M  V30 6489 H 625.474 -3.6932 -1.20239 0
M  V30 6490 H 627.206 -3.9028 -1.07067 0
M  V30 6491 H 623.961 -4.66833 0.797763 0
M  V30 6492 H 624.385 -6.05949 3.01919 0
M  V30 6493 H 629.027 -4.14435 0.836881 0
M  V30 6494 H 626.745 -6.74501 4.45055 0
M  V30 6495 H 630.331 -5.1679 2.67245 0
M  V30 6496 H 629.211 -6.45339 4.45542 0
M  V30 6497 N 626.714 -0.118576 -1.57153 0
M  V30 6498 C 627.647 0.869046 -2.11004 0
M  V30 6499 C 628.625 1.26115 -1.02634 0
M  V30 6500 O 629.809 1.36228 -1.30285 0
M  V30 6501 C 626.936 2.16297 -2.6064 0
M  V30 6502 C 625.982 1.91896 -3.80891 0
M  V30 6503 S 626.815 1.13562 -5.2332 0
M  V30 6504 C 627.971 2.44135 -5.76324 0
M  V30 6505 H 628.204 0.411005 -2.94445 0
M  V30 6506 H 625.737 0.0951891 -1.54106 0
M  V30 6507 H 627.695 2.90642 -2.89892 0
M  V30 6508 H 626.356 2.59219 -1.77382 0
M  V30 6509 H 625.549 2.8777 -4.13768 0
M  V30 6510 H 625.151 1.25672 -3.52253 0
M  V30 6511 H 627.443 3.39976 -5.86022 0
M  V30 6512 H 628.386 2.15803 -6.74414 0
M  V30 6513 H 628.794 2.53483 -5.04387 0
M  V30 6514 N 628.193 1.56834 0.155195 0
M  V30 6515 C 629.125 1.94235 1.21677 0
M  V30 6516 C 630.138 0.83724 1.39621 0
M  V30 6517 O 631.327 1.11567 1.39338 0
M  V30 6518 C 628.427 2.19402 2.58294 0
M  V30 6519 C 627.6 3.50671 2.61436 0
M  V30 6520 C 626.659 3.64475 3.79532 0
M  V30 6521 O 625.685 4.36945 3.64784 0
M  V30 6522 N 626.887 3.00526 4.96653 0
M  V30 6523 H 629.652 2.85901 0.898932 0
M  V30 6524 H 627.213 1.58185 0.34483 0
M  V30 6525 H 629.205 2.25886 3.35794 0
M  V30 6526 H 627.775 1.34042 2.82403 0
M  V30 6527 H 626.995 3.55702 1.69912 0
M  V30 6528 H 628.283 4.3702 2.60559 0
M  V30 6529 H 627.681 2.41549 5.11538 0
M  V30 6530 H 626.238 3.12583 5.71958 0
M  V30 6531 N 629.671 -0.424282 1.51781 0
M  V30 6532 C 631.082 -1.00368 1.57427 0
M  V30 6533 C 631.433 -1.91962 0.40558 0
M  V30 6534 O 630.558 -2.111 -0.47601 0
M  V30 6535 C 631.153 -1.82707 2.85313 0
M  V30 6536 C 629.712 -2.35675 2.93487 0
M  V30 6537 C 628.859 -1.1524 2.5222 0
M  V30 6538 H 631.81 -0.205064 1.5737 0
M  V30 6539 H 631.831 -2.68294 2.69812 0
M  V30 6540 H 631.343 -1.16017 3.70353 0
M  V30 6541 H 629.444 -3.05781 2.12906 0
M  V30 6542 H 629.557 -2.67578 3.97415 0
M  V30 6543 H 627.921 -1.50174 2.05718 0
M  V30 6544 H 628.704 -0.5014 3.39619 0
M  V30 6545 N 631.149 -1.42148 -0.680565 0
M  V30 6546 C 632.56 -1.3768 -1.26099 0
M  V30 6547 C 632.911 -0.0672348 -1.96085 0
M  V30 6548 O 632.036 0.834172 -1.99676 0
M  V30 6549 C 632.631 -2.49387 -2.29328 0
M  V30 6550 C 631.19 -2.4827 -2.82911 0
M  V30 6551 C 630.337 -2.2847 -1.57152 0
M  V30 6552 H 633.288 -1.51446 -0.474326 0
M  V30 6553 H 633.309 -2.19307 -3.10941 0
M  V30 6554 H 632.821 -3.44686 -1.78363 0
M  V30 6555 H 630.922 -1.56773 -3.38013 0
M  V30 6556 H 631.035 -3.45109 -3.3232 0
M  V30 6557 H 629.399 -1.76623 -1.83511 0
M  V30 6558 H 630.182 -3.25816 -1.0816 0
M  V30 6559 N 632.627 0.916307 -1.28225 0
M  V30 6560 C 634.038 1.48024 -1.13779 0
M  V30 6561 C 634.389 1.94289 0.273139 0
M  V30 6562 O 633.514 1.82226 1.16716 0
M  V30 6563 C 634.109 2.69029 -2.05935 0
M  V30 6564 C 632.668 3.2161 -1.95561 0
M  V30 6565 C 631.815 1.94321 -1.97825 0
M  V30 6566 H 634.766 0.729272 -1.40951 0
M  V30 6567 H 634.787 3.44204 -1.62184 0
M  V30 6568 H 634.299 2.35325 -3.08616 0
M  V30 6569 H 632.4 3.60045 -0.959076 0
M  V30 6570 H 632.513 3.87032 -2.82388 0
M  V30 6571 H 630.877 2.1131 -1.42198 0
M  V30 6572 H 631.66 1.62917 -3.0218 0
M  V30 6573 N 634.105 1.10431 1.1244 0
M  V30 6574 C 635.516 0.864439 1.65482 0
M  V30 6575 C 635.867 -0.60527 1.8663 0
M  V30 6576 O 634.992 -1.46492 1.59276 0
M  V30 6577 C 635.587 1.56267 3.0061 0
M  V30 6578 C 634.146 1.3695 3.50602 0
M  V30 6579 C 633.293 1.61209 2.25626 0
M  V30 6580 H 636.244 1.26203 0.962209 0
M  V30 6581 H 636.265 1.00166 3.67079 0
M  V30 6582 H 635.777 2.63231 2.85186 0
M  V30 6583 H 633.878 0.321481 3.71211 0
M  V30 6584 H 633.991 2.11143 4.30064 0
M  V30 6585 H 632.355 1.03482 2.32731 0
M  V30 6586 H 633.138 2.69425 2.12756 0
M  V30 6587 N 635.583 -1.29855 0.893053 0
M  V30 6588 C 636.994 -1.77946 0.564998 0
M  V30 6589 C 637.345 -1.73339 -0.919134 0
M  V30 6590 O 636.47 -1.3152 -1.71847 0
M  V30 6591 C 637.065 -3.23118 1.01883 0
M  V30 6592 C 635.624 -3.69013 0.742051 0
M  V30 6593 C 634.771 -2.50121 1.19727 0
M  V30 6594 H 637.722 -1.16611 1.07646 0
M  V30 6595 H 637.743 -3.78875 0.351249 0
M  V30 6596 H 637.255 -3.26439 2.09903 0
M  V30 6597 H 635.356 -3.71173 -0.325816 0
M  V30 6598 H 635.469 -4.60117 1.33527 0
M  V30 6599 H 633.833 -2.47128 0.616418 0
M  V30 6600 H 634.616 -2.56174 2.28538 0
M  V30 6601 N 637.061 -0.65484 -1.43351 0
M  V30 6602 C 637.994 0.0855537 -2.2804 0
M  V30 6603 C 638.972 0.828301 -1.39921 0
M  V30 6604 O 640.156 0.827539 -1.69364 0
M  V30 6605 C 637.283 1.12792 -3.19368 0
M  V30 6606 C 636.329 0.483037 -4.23756 0
M  V30 6607 S 637.162 -0.744605 -5.30298 0
M  V30 6608 C 638.318 0.297187 -6.25194 0
M  V30 6609 H 638.551 -0.632831 -2.90487 0
M  V30 6610 H 636.084 -0.44373 -1.47886 0
M  V30 6611 H 638.042 1.7243 -3.72529 0
M  V30 6612 H 636.703 1.81863 -2.56095 0
M  V30 6613 H 635.896 1.26888 -4.87766 0
M  V30 6614 H 635.498 -0.0392713 -3.73979 0
M  V30 6615 H 637.79 1.1629 -6.67445 0
M  V30 6616 H 638.733 -0.30793 -7.0743 0
M  V30 6617 H 639.141 0.633721 -5.60932 0
M  V30 6618 N 638.539 1.52521 -0.396863 0
M  V30 6619 C 639.487 2.28217 0.44943 0
M  V30 6620 C 640.481 1.32416 1.05652 0
M  V30 6621 O 641.687 1.49925 0.996124 0
M  V30 6622 H 638.062 0.733966 0.1637 0
M  V30 6623 H 640.033 2.97658 -0.210367 0
M  V30 6624 C 638.782 3.10713 1.56054 0
M  V30 6625 H 638.105 3.84291 1.10273 0
M  V30 6626 H 639.545 3.66803 2.12677 0
M  V30 6627 C 638.004 2.23499 2.52091 0
M  V30 6628 O 638.534 1.8669 3.55682 0
M  V30 6629 N 636.74 1.8751 2.2201 0
M  V30 6630 H 636.287 2.17643 1.37802 0
M  V30 6631 H 636.245 1.29448 2.86514 0
M  V30 6632 N 640.017 0.126909 1.57088 0
M  V30 6633 C 640.949 -0.850973 2.12817 0
M  V30 6634 C 641.962 -1.22457 1.07276 0
M  V30 6635 O 643.151 -1.17215 1.34622 0
M  V30 6636 C 640.251 -2.15039 2.61938 0
M  V30 6637 C 639.424 -1.94726 3.91664 0
M  V30 6638 C 638.483 -3.0847 4.26301 0
M  V30 6639 O 637.509 -2.81038 4.94981 0
M  V30 6640 N 638.711 -4.35116 3.84259 0
M  V30 6641 H 641.476 -0.3748 2.97347 0
M  V30 6642 H 639.037 -0.0572793 1.61799 0
M  V30 6643 H 641.029 -2.90141 2.82135 0
M  V30 6644 H 639.599 -2.5398 1.82244 0
M  V30 6645 H 638.819 -1.03772 3.80296 0
M  V30 6646 H 640.107 -1.78469 4.76473 0
M  V30 6647 H 639.505 -4.60276 3.2888 0
M  V30 6648 H 638.062 -5.07064 4.09548 0
M  V30 6649 N 641.495 -1.56914 -0.146875 0
M  V30 6650 C 642.743 -1.82994 -0.85777 0
M  V30 6651 C 643.064 -0.707814 -1.817 0
M  V30 6652 O 642.334 0.270521 -1.94023 0
M  V30 6653 H 640.914 -0.675106 -0.319751 0
M  V30 6654 H 643.576 -1.9439 -0.140849 0
M  V30 6655 H 642.672 -2.77928 -1.41994 0
M  V30 6656 N 642.974 0.416227 -1.52004 0
M  V30 6657 C 644.385 0.995319 -1.57957 0
M  V30 6658 C 644.736 1.91744 -0.415754 0
M  V30 6659 O 643.861 2.11349 0.464808 0
M  V30 6660 C 644.456 1.81191 -2.86278 0
M  V30 6661 C 643.015 2.34115 -2.94732 0
M  V30 6662 C 642.162 1.139 -2.52828 0
M  V30 6663 H 645.113 0.196716 -1.57476 0
M  V30 6664 H 645.134 2.66859 -2.71231 0
M  V30 6665 H 644.646 1.14051 -3.70963 0
M  V30 6666 H 642.747 3.04647 -2.14525 0
M  V30 6667 H 642.86 2.65466 -3.98829 0
M  V30 6668 H 641.224 1.49081 -2.06511 0
M  V30 6669 H 642.007 0.483383 -3.3988 0
M  V30 6670 N 644.452 1.42507 0.673017 0
M  V30 6671 C 645.402 1.4258 1.77919 0
M  V30 6672 C 646.386 0.296885 1.58137 0
M  V30 6673 O 647.578 0.539243 1.68586 0
M  V30 6674 C 644.707 1.33238 3.1639 0
M  V30 6675 C 643.793 2.51081 3.41788 0
M  V30 6676 N 644.184 3.76498 3.37761 0
M  V30 6677 C 642.482 2.4538 3.72431 0
M  V30 6678 C 643.183 4.54784 3.62693 0
M  V30 6679 N 642.159 3.8522 3.83544 0
M  V30 6680 H 645.961 2.37442 1.73201 0
M  V30 6681 H 643.475 1.36881 0.873924 0
M  V30 6682 H 645.472 1.31372 3.9566 0
M  V30 6683 H 644.132 0.393794 3.22303 0
M  V30 6684 H 645.143 4.09068 3.17622 0
M  V30 6685 H 641.82 1.60109 3.85579 0
M  V30 6686 H 643.21 5.63774 3.65525 0
M  V30 6687 N 645.93 -0.909495 1.28709 0
M  V30 6688 C 647.341 -1.47419 1.14563 0
M  V30 6689 C 647.692 -1.94432 -0.262832 0
M  V30 6690 O 646.817 -1.82842 -1.15748 0
M  V30 6691 C 647.412 -2.67933 2.07358 0
M  V30 6692 C 645.971 -3.20568 1.97264 0
M  V30 6693 C 645.118 -1.93269 1.98852 0
M  V30 6694 H 648.069 -0.721787 1.41336 0
M  V30 6695 H 648.09 -3.43339 1.64007 0
M  V30 6696 H 647.602 -2.33685 3.09859 0
M  V30 6697 H 645.703 -3.59531 0.978157 0
M  V30 6698 H 645.816 -3.85529 2.84436 0
M  V30 6699 H 644.18 -2.10553 1.43317 0
M  V30 6700 H 644.963 -1.61312 3.0304 0
M  V30 6701 N 647.408 -1.11026 -1.11852 0
M  V30 6702 C 648.819 -0.873203 -1.65021 0
M  V30 6703 C 649.17 0.595364 -1.86949 0
M  V30 6704 O 648.295 1.45645 -1.60051 0
M  V30 6705 C 648.89 -1.57859 -2.99777 0
M  V30 6706 C 647.449 -1.38807 -3.49871 0
M  V30 6707 C 646.596 -1.62403 -2.24768 0
M  V30 6708 H 649.547 -1.26712 -0.955503 0
M  V30 6709 H 649.568 -1.02111 -3.66543 0
M  V30 6710 H 649.08 -2.6474 -2.83786 0
M  V30 6711 H 647.181 -0.341163 -3.71035 0
M  V30 6712 H 647.294 -2.13421 -4.28938 0
M  V30 6713 H 645.658 -1.04714 -2.32179 0
M  V30 6714 H 646.441 -2.70549 -2.11324 0
M  V30 6715 N 648.886 1.2938 -0.899927 0
M  V30 6716 C 650.134 1.95164 -0.524924 0
M  V30 6717 C 650.455 1.71292 0.931888 0
M  V30 6718 O 649.725 1.04481 1.65712 0
M  V30 6719 H 648.305 0.722133 -0.191135 0
M  V30 6720 H 650.967 1.57628 -1.14627 0
M  V30 6721 H 650.063 3.0397 -0.707711 0
M  V30 6722 N 650.364 0.662433 1.43002 0
M  V30 6723 C 651.314 -0.0460442 2.27954 0
M  V30 6724 C 652.298 -0.785753 1.40409 0
M  V30 6725 O 653.49 -0.666701 1.63964 0
M  V30 6726 C 650.619 -1.00532 3.2825 0
M  V30 6727 C 649.705 -0.263604 4.2328 0
M  V30 6728 N 650.096 0.724855 5.00579 0
M  V30 6729 C 648.394 -0.503778 4.43146 0
M  V30 6730 C 649.095 1.16594 5.69895 0
M  V30 6731 N 648.071 0.498345 5.41311 0
M  V30 6732 H 651.873 0.712314 2.85137 0
M  V30 6733 H 649.387 0.490469 1.54817 0
M  V30 6734 H 651.384 -1.52775 3.87899 0
M  V30 6735 H 650.044 -1.76364 2.72628 0
M  V30 6736 H 651.055 1.10393 5.05998 0
M  V30 6737 H 647.732 -1.24255 3.98581 0
M  V30 6738 H 649.122 1.98434 6.4193 0
M  V30 6739 N 651.842 -1.52309 0.404946 0
M  V30 6740 C 652.792 -2.23717 -0.439864 0
M  V30 6741 C 653.776 -1.24692 -1.0169 0
M  V30 6742 O 654.968 -1.49951 -0.940409 0
M  V30 6743 C 652.097 -3.05898 -1.55825 0
M  V30 6744 C 651.183 -4.12331 -0.992188 0
M  V30 6745 N 651.574 -5.0557 -0.152424 0
M  V30 6746 C 649.872 -4.2774 -1.26312 0
M  V30 6747 C 650.573 -5.81474 0.162041 0
M  V30 6748 N 649.549 -5.41767 -0.44601 0
M  V30 6749 H 653.351 -2.93162 0.208084 0
M  V30 6750 H 650.865 -1.60969 0.215131 0
M  V30 6751 H 652.862 -3.55605 -2.17603 0
M  V30 6752 H 651.522 -2.37991 -2.20886 0
M  V30 6753 H 652.533 -5.17468 0.211556 0
M  V30 6754 H 649.21 -3.71062 -1.91362 0
M  V30 6755 H 650.6 -6.66585 0.843423 0
M  V30 6756 N 653.32 -0.135238 -1.57019 0
M  V30 6757 C 654.568 0.51777 -1.95355 0
M  V30 6758 C 654.889 1.6617 -1.02042 0
M  V30 6759 O 654.159 1.95738 -0.0797343 0
M  V30 6760 H 652.739 0.194264 -0.721298 0
M  V30 6761 H 655.401 -0.207983 -1.93787 0
M  V30 6762 H 654.497 0.901675 -2.98791 0
M  V30 6763 N 654.798 1.5699 0.138552 0
M  V30 6764 C 656.209 1.73171 0.697754 0
M  V30 6765 C 656.56 0.750952 1.8126 0
M  V30 6766 O 655.685 -0.080549 2.1625 0
M  V30 6767 C 656.28 3.13996 1.27248 0
M  V30 6768 C 654.839 3.3175 1.77816 0
M  V30 6769 C 653.986 2.69084 0.669991 0
M  V30 6770 H 656.937 1.5846 -0.0871979 0
M  V30 6771 H 656.958 3.14463 2.14227 0
M  V30 6772 H 656.47 3.85354 0.460855 0
M  V30 6773 H 654.571 2.65403 2.61519 0
M  V30 6774 H 654.684 4.39768 1.90107 0
M  V30 6775 H 653.048 2.29782 1.09874 0
M  V30 6776 H 653.831 3.43053 -0.130329 0
M  V30 6777 N 656.276 -0.40816 1.52223 0
M  V30 6778 C 657.687 -0.986929 1.58482 0
M  V30 6779 C 658.038 -1.91521 0.425917 0
M  V30 6780 O 657.163 -2.11593 -0.453593 0
M  V30 6781 C 657.758 -1.7967 2.87235 0
M  V30 6782 C 656.317 -2.32549 2.9597 0
M  V30 6783 C 655.464 -1.12558 2.53428 0
M  V30 6784 H 658.415 -0.188362 1.57578 0
M  V30 6785 H 658.436 -2.65417 2.72642 0
M  V30 6786 H 657.948 -1.12082 3.71563 0
M  V30 6787 H 656.049 -3.03505 2.16137 0
M  V30 6788 H 656.162 -2.63348 4.00231 0
M  V30 6789 H 654.526 -1.47984 2.07299 0
M  V30 6790 H 655.309 -0.465351 3.40131 0
M  V30 6791 N 657.755 -1.42862 -0.66545 0
M  V30 6792 C 659.166 -1.3901 -1.24632 0
M  V30 6793 C 659.517 -0.0880285 -1.96002 0
M  V30 6794 O 658.642 0.812947 -2.0055 0
M  V30 6795 C 659.237 -2.51806 -2.2667 0
M  V30 6796 C 657.796 -2.51257 -2.80262 0
M  V30 6797 C 656.943 -2.30124 -1.5472 0
M  V30 6798 H 659.894 -1.5194 -0.458237 0
M  V30 6799 H 659.915 -2.22593 -3.08598 0
M  V30 6800 H 659.427 -3.46558 -1.74697 0
M  V30 6801 H 657.528 -1.60349 -3.36332 0
M  V30 6802 H 657.641 -3.48614 -3.28641 0
M  V30 6803 H 656.005 -1.7856 -1.81627 0
M  V30 6804 H 656.788 -3.26945 -1.04699 0
M  V30 6805 N 659.233 0.902656 -1.29189 0
M  V30 6806 C 660.166 2.00816 -1.0839 0
M  V30 6807 C 661.144 1.626 0.00335266 0
M  V30 6808 O 662.328 1.87928 -0.146765 0
M  V30 6809 C 659.455 3.32415 -0.649435 0
M  V30 6810 C 658.501 3.89617 -1.73496 0
M  V30 6811 S 659.334 4.19091 -3.33351 0
M  V30 6812 C 660.49 5.53736 -2.91766 0
M  V30 6813 H 660.723 2.18151 -2.01984 0
M  V30 6814 H 658.256 1.0489 -1.13303 0
M  V30 6815 H 660.214 4.08492 -0.405479 0
M  V30 6816 H 658.875 3.12964 0.266857 0
M  V30 6817 H 658.068 4.84658 -1.38284 0
M  V30 6818 H 657.67 3.20217 -1.93229 0
M  V30 6819 H 659.962 6.34085 -2.38627 0
M  V30 6820 H 660.905 5.93871 -3.85647 0
M  V30 6821 H 661.313 5.15453 -2.30149 0
M  V30 6822 N 660.711 1.11618 1.11262 0
M  V30 6823 C 661.988 0.777876 1.79467 0
M  V30 6824 C 662.368 -0.733774 1.97937 0
M  V30 6825 O 661.716 -1.66443 1.56554 0
M  V30 6826 C 661.926 1.5431 3.13032 0
M  V30 6827 C 663.274 1.72357 3.88044 0
M  V30 6828 O 664.298 1.5075 3.22727 0
M  V30 6829 O 663.157 2.08276 5.05256 0
M  V30 6830 H 660.251 0.282018 0.777428 0
M  V30 6831 H 662.797 1.21971 1.17988 0
M  V30 6832 H 661.569 2.57132 2.94956 0
M  V30 6833 H 661.192 1.09495 3.82226 0
M  V30 6834 N 662.189 -1.289 0.906776 0
M  V30 6835 C 663.121 -2.26556 0.347159 0
M  V30 6836 C 664.134 -1.54589 -0.51049 0
M  V30 6837 O 665.323 -1.75489 -0.326501 0
M  V30 6838 C 662.423 -3.3484 -0.523024 0
M  V30 6839 C 661.596 -4.36296 0.310515 0
M  V30 6840 C 660.655 -5.23879 -0.493634 0
M  V30 6841 O 659.681 -5.69127 0.0913569 0
M  V30 6842 N 660.883 -5.51946 -1.7982 0
M  V30 6843 H 663.648 -2.75212 1.18652 0
M  V30 6844 H 661.209 -1.42309 0.771996 0
M  V30 6845 H 663.201 -3.90366 -1.06756 0
M  V30 6846 H 661.771 -2.85946 -1.26309 0
M  V30 6847 H 660.991 -3.80331 1.03644 0
M  V30 6848 H 662.279 -5.01113 0.881106 0
M  V30 6849 H 661.677 -5.17006 -2.2961 0
M  V30 6850 H 660.234 -6.10258 -2.28971 0
M  V30 6851 N 663.667 -0.670007 -1.42649 0
M  V30 6852 C 664.897 -0.198252 -2.05647 0
M  V30 6853 C 665.305 1.14786 -1.50402 0
M  V30 6854 O 664.648 1.72316 -0.636634 0
M  V30 6855 C 664.71 -0.0507132 -3.59464 0
M  V30 6856 C 664.374 -1.32478 -4.37377 0
M  V30 6857 C 665.371 -2.2572 -4.68344 0
M  V30 6858 C 663.056 -1.57104 -4.77099 0
M  V30 6859 C 665.05 -3.4187 -5.37963 0
M  V30 6860 C 662.737 -2.73543 -5.46459 0
M  V30 6861 C 663.735 -3.65751 -5.76815 0
M  V30 6862 O 663.423 -4.80154 -6.44753 0
M  V30 6863 H 663.155 -0.0950721 -0.669281 0
M  V30 6864 H 665.709 -0.915745 -1.83857 0
M  V30 6865 H 663.939 0.722314 -3.79894 0
M  V30 6866 H 665.628 0.380552 -4.04112 0
M  V30 6867 H 666.394 -2.07943 -4.38161 0
M  V30 6868 H 662.273 -0.862069 -4.52868 0
M  V30 6869 H 665.817 -4.13861 -5.61574 0
M  V30 6870 H 661.714 -2.91248 -5.7606 0
M  V30 6871 H 662.482 -4.79637 -6.63243 0
M  V30 6872 N 665.145 1.52092 -0.413018 0
M  V30 6873 C 666.075 2.30021 0.401567 0
M  V30 6874 C 667.056 1.34395 1.04269 0
M  V30 6875 O 668.241 1.63304 1.05097 0
M  V30 6876 C 665.371 3.12447 1.51638 0
M  V30 6877 C 664.325 4.16153 1.00005 0
M  V30 6878 C 663.651 4.86948 2.20875 0
M  V30 6879 C 664.951 5.22275 0.0513757 0
M  V30 6880 H 666.645 2.98365 -0.248704 0
M  V30 6881 H 664.191 1.4349 -0.121052 0
M  V30 6882 H 666.144 3.65733 2.09326 0
M  V30 6883 H 664.868 2.41879 2.19458 0
M  V30 6884 H 663.527 3.63882 0.445549 0
M  V30 6885 H 663.175 4.12905 2.8726 0
M  V30 6886 H 662.875 5.57057 1.86978 0
M  V30 6887 H 664.399 5.43048 2.79162 0
M  V30 6888 H 665.813 5.70778 0.537176 0
M  V30 6889 H 664.21 5.9977 -0.198977 0
M  V30 6890 H 665.28 4.76611 -0.892736 0
M  V30 6891 N 666.623 0.143563 1.56945 0
M  V30 6892 C 667.871 -0.507402 1.95627 0
M  V30 6893 C 668.192 -1.65626 1.02922 0
M  V30 6894 O 667.462 -1.95693 0.0901136 0
M  V30 6895 H 666.042 -0.190436 0.722318 0
M  V30 6896 H 668.704 0.218257 1.93674 0
M  V30 6897 H 667.8 -0.885816 2.99265 0
M  V30 6898 N 668.101 -1.57061 -0.130224 0
M  V30 6899 C 669.326 -1.88802 -0.858409 0
M  V30 6900 C 669.751 -0.734353 -1.73173 0
M  V30 6901 O 669.109 0.315529 -1.78533 0
M  V30 6902 C 669.157 -3.19228 -1.67708 0
M  V30 6903 O 668.261 -3.04343 -2.78297 0
M  V30 6904 H 667.602 -0.619849 -0.238083 0
M  V30 6905 H 670.132 -2.04271 -0.115995 0
M  V30 6906 H 670.142 -3.51669 -2.06864 0
M  V30 6907 H 668.817 -4.02793 -1.0359 0
M  V30 6908 H 667.394 -2.83346 -2.42425 0
M  V30 6909 N 669.579 0.400081 -1.52437 0
M  V30 6910 C 670.807 1.16768 -1.70801 0
M  V30 6911 C 671.222 1.84036 -0.421462 0
M  V30 6912 O 670.579 1.72242 0.603228 0
M  V30 6913 C 670.63 2.22403 -2.8499 0
M  V30 6914 O 670.351 1.57879 -4.08663 0
M  V30 6915 C 671.852 3.11974 -3.1494 0
M  V30 6916 H 669.072 0.350533 -0.57216 0
M  V30 6917 H 671.616 0.469534 -1.99037 0
M  V30 6918 H 669.771 2.87871 -2.59247 0
M  V30 6919 H 670.185 2.27982 -4.7236 0
M  V30 6920 H 671.659 3.82148 -3.9833 0
M  V30 6921 H 672.136 3.74858 -2.28863 0
M  V30 6922 H 672.742 2.52165 -3.42481 0
M  V30 6923 N 671.057 1.43213 0.657864 0
M  V30 6924 C 672.468 1.39669 1.23893 0
M  V30 6925 C 672.819 0.0984217 1.95953 0
M  V30 6926 O 671.944 -0.8023 2.00978 0
M  V30 6927 C 672.539 2.53004 2.25332 0
M  V30 6928 C 671.098 2.5274 2.78926 0
M  V30 6929 C 670.245 2.30941 1.53497 0
M  V30 6930 H 673.196 1.52181 0.450172 0
M  V30 6931 H 673.217 2.24226 3.07413 0
M  V30 6932 H 672.729 3.4748 1.72856 0
M  V30 6933 H 670.83 1.6213 3.35477 0
M  V30 6934 H 670.943 3.50352 3.26787 0
M  V30 6935 H 669.307 1.7952 1.80678 0
M  V30 6936 H 670.09 3.27496 1.02963 0
M  V30 6937 N 672.536 -0.895792 1.29666 0
M  V30 6938 C 673.782 -1.64908 1.18039 0
M  V30 6939 C 674.115 -1.9236 -0.266682 0
M  V30 6940 O 673.39 -1.53682 -1.19214 0
M  V30 6941 C 673.673 -2.99574 1.99819 0
M  V30 6942 C 673.526 -2.79163 3.52687 0
M  V30 6943 C 674.845 -4.00358 1.82761 0
M  V30 6944 H 671.964 -0.598437 0.430165 0
M  V30 6945 H 674.606 -1.03736 1.59182 0
M  V30 6946 H 672.756 -3.51786 1.64859 0
M  V30 6947 H 674.428 -2.33821 3.9765 0
M  V30 6948 H 672.671 -2.13871 3.77414 0
M  V30 6949 H 673.342 -3.74871 4.05186 0
M  V30 6950 H 675.818 -3.57268 2.13304 0
M  V30 6951 H 674.694 -4.92514 2.42325 0
M  V30 6952 H 674.955 -4.35096 0.783839 0
M  V30 6953 N 674.014 -1.12206 -1.10668 0
M  V30 6954 C 675.262 -0.874144 -1.82217 0
M  V30 6955 C 675.583 0.601736 -1.85484 0
M  V30 6956 O 674.853 1.43725 -1.33116 0
M  V30 6957 H 673.433 -0.320404 -0.674797 0
M  V30 6958 H 676.095 -1.41606 -1.33917 0
M  V30 6959 H 675.191 -1.25349 -2.85822 0
M  V30 6960 N 675.492 1.28418 -0.913599 0
M  V30 6961 C 676.717 1.99643 -0.561899 0
M  V30 6962 C 677.142 1.67819 0.849608 0
M  V30 6963 O 676.5 0.910503 1.56779 0
M  V30 6964 C 676.548 3.52116 -0.777622 0
M  V30 6965 O 675.652 4.12076 0.163457 0
M  V30 6966 H 674.993 0.627229 -0.217898 0
M  V30 6967 H 677.523 1.63575 -1.229 0
M  V30 6968 H 677.533 4.02163 -0.687666 0
M  V30 6969 H 676.208 3.74613 -1.8066 0
M  V30 6970 H 674.785 3.72892 0.0247827 0
M  V30 6971 N 676.97 0.677563 1.42291 0
M  V30 6972 C 678.218 0.200578 2.01102 0
M  V30 6973 C 678.539 -1.19803 1.53858 0
M  V30 6974 O 677.809 -1.80496 0.761439 0
M  V30 6975 H 676.389 0.0711634 0.743603 0
M  V30 6976 H 679.051 0.874691 1.7417 0
M  V30 6977 H 678.147 0.204 3.11433 0
M  V30 6978 N 678.448 -1.51871 0.421078 0
M  V30 6979 C 679.694 -2.02237 -0.151014 0
M  V30 6980 C 680.027 -1.30554 -1.43768 0
M  V30 6981 O 679.302 -0.41546 -1.90011 0
M  V30 6982 C 679.585 -3.5802 -0.386482 0
M  V30 6983 C 679.438 -4.40339 0.9177 0
M  V30 6984 C 680.757 -4.24444 -1.16342 0
M  V30 6985 H 677.876 -0.735062 -0.0534102 0
M  V30 6986 H 680.518 -1.81656 0.556888 0
M  V30 6987 H 678.668 -3.75688 -0.989494 0
M  V30 6988 H 680.34 -4.34357 1.55344 0
M  V30 6989 H 678.583 -4.06073 1.526 0
M  V30 6990 H 679.254 -5.47451 0.707187 0
M  V30 6991 H 681.73 -4.10948 -0.652788 0
M  V30 6992 H 680.606 -5.33358 -1.29693 0
M  V30 6993 H 680.867 -3.84204 -2.18724 0
M  V30 6994 N 679.926 -0.151884 -1.56866 0
M  V30 6995 C 681.156 0.504081 -2.00356 0
M  V30 6996 C 681.564 1.58639 -1.03103 0
M  V30 6997 O 680.907 1.83688 -0.0207931 0
M  V30 6998 C 680.969 1.15975 -3.40279 0
M  V30 6999 C 680.633 0.221453 -4.56463 0
M  V30 7000 C 681.63 -0.552766 -5.16953 0
M  V30 7001 C 679.315 0.122936 -5.0215 0
M  V30 7002 C 681.309 -1.4129 -6.21543 0
M  V30 7003 C 678.996 -0.740801 -6.06593 0
M  V30 7004 C 679.994 -1.50732 -6.6616 0
M  V30 7005 O 679.682 -2.35666 -7.68581 0
M  V30 7006 H 679.414 0.135279 -0.662326 0
M  V30 7007 H 681.968 -0.244916 -2.03935 0
M  V30 7008 H 680.198 1.95649 -3.33554 0
M  V30 7009 H 681.887 1.71594 -3.67846 0
M  V30 7010 H 682.653 -0.486716 -4.82552 0
M  V30 7011 H 678.532 0.70931 -4.5551 0
M  V30 7012 H 682.076 -2.01166 -6.67966 0
M  V30 7013 H 677.973 -0.808125 -6.40421 0
M  V30 7014 H 678.741 -2.28967 -7.85822 0
M  V30 7015 N 681.404 1.57128 0.121893 0
M  V30 7016 C 682.82 1.52357 0.47534 0
M  V30 7017 C 683.02 0.864417 1.82017 0
M  V30 7018 O 682.076 0.445529 2.48538 0
M  V30 7019 C 683.389 2.97122 0.4625 0
M  V30 7020 C 684.937 3.08196 0.546255 0
M  V30 7021 C 685.412 4.54516 0.563833 0
M  V30 7022 N 686.903 4.58959 0.625353 0
M  V30 7023 C 687.638 5.69585 0.660354 0
M  V30 7024 N 687.134 6.89714 0.653175 0
M  V30 7025 N 688.927 5.57685 0.703143 0
M  V30 7026 H 681.078 1.98364 -0.75931 0
M  V30 7027 H 683.341 0.905777 -0.279772 0
M  V30 7028 H 683.047 3.48706 -0.457943 0
M  V30 7029 H 682.921 3.54406 1.29136 0
M  V30 7030 H 685.308 2.56617 1.45712 0
M  V30 7031 H 685.389 2.53912 -0.310234 0
M  V30 7032 H 685.033 5.06741 -0.342974 0
M  V30 7033 H 684.963 5.06609 1.43716 0
M  V30 7034 H 687.454 3.72489 0.637182 0
M  V30 7035 H 687.767 7.69781 0.682425 0
M  V30 7036 H 686.112 6.92223 0.620646 0
M  V30 7037 H 689.303 4.62744 0.706095 0
M  V30 7038 H 689.476 6.43909 0.726952 0
M  V30 7039 N 682.882 -0.391992 1.52647 0
M  V30 7040 C 683.812 -1.48517 1.8018 0
M  V30 7041 C 684.793 -1.57039 0.653667 0
M  V30 7042 O 685.978 -1.72036 0.900962 0
M  V30 7043 C 683.108 -2.86161 1.96797 0
M  V30 7044 C 682.062 -2.92481 3.12472 0
M  V30 7045 C 681.388 -4.32546 3.14338 0
M  V30 7046 C 682.688 -2.624 4.51601 0
M  V30 7047 H 684.382 -1.25726 2.71723 0
M  V30 7048 H 681.928 -0.603387 1.30749 0
M  V30 7049 H 683.881 -3.62639 2.14641 0
M  V30 7050 H 682.605 -3.10283 1.01941 0
M  V30 7051 H 681.264 -2.18451 2.94406 0
M  V30 7052 H 680.912 -4.53703 2.1717 0
M  V30 7053 H 680.612 -4.37695 3.92042 0
M  V30 7054 H 682.136 -5.10934 3.34333 0
M  V30 7055 H 683.55 -3.28596 4.69785 0
M  V30 7056 H 681.947 -2.78903 5.3135 0
M  V30 7057 H 683.017 -1.57754 4.58521 0
M  V30 7058 N 684.36 -1.4356 -0.65026 0
M  V30 7059 C 685.31 -1.45392 -1.75628 0
M  V30 7060 C 686.294 -0.322006 -1.57645 0
M  V30 7061 O 687.486 -0.565996 -1.67707 0
M  V30 7062 C 684.615 -1.38254 -3.1423 0
M  V30 7063 C 683.701 -2.56487 -3.3775 0
M  V30 7064 N 684.092 -3.81824 -3.31729 0
M  V30 7065 C 682.39 -2.51274 -3.6848 0
M  V30 7066 C 683.091 -4.60497 -3.55412 0
M  V30 7067 N 682.067 -3.91274 -3.77367 0
M  V30 7068 H 685.869 -2.40167 -1.69402 0
M  V30 7069 H 683.383 -1.38254 -0.852037 0
M  V30 7070 H 685.38 -1.3765 -3.9352 0
M  V30 7071 H 684.04 -0.445019 -3.21636 0
M  V30 7072 H 685.051 -4.14069 -3.11074 0
M  V30 7073 H 681.728 -1.66223 -3.82983 0
M  V30 7074 H 683.118 -5.69518 -3.5651 0
M  V30 7075 N 685.838 0.888903 -1.30139 0
M  V30 7076 C 686.77 1.99972 -1.11999 0
M  V30 7077 C 687.783 1.62673 -0.0643619 0
M  V30 7078 O 688.972 1.75788 -0.309983 0
M  V30 7079 C 686.072 3.31904 -0.685059 0
M  V30 7080 C 685.245 3.97665 -1.82158 0
M  V30 7081 C 684.304 5.07894 -1.37585 0
M  V30 7082 O 683.33 5.2974 -2.08241 0
M  V30 7083 N 684.532 5.7995 -0.252697 0
M  V30 7084 H 687.297 2.16085 -2.07671 0
M  V30 7085 H 684.858 1.06175 -1.22223 0
M  V30 7086 H 686.85 4.03005 -0.369964 0
M  V30 7087 H 685.42 3.12084 0.179507 0
M  V30 7088 H 684.64 3.19787 -2.305 0
M  V30 7089 H 685.928 4.3834 -2.58332 0
M  V30 7090 H 685.326 5.647 0.336141 0
M  V30 7091 H 683.883 6.518 0.00296813 0
M  V30 7092 N 687.317 1.12792 1.10072 0
M  V30 7093 C 688.565 0.883796 1.81751 0
M  V30 7094 C 688.886 -0.591891 1.858 0
M  V30 7095 O 688.156 -1.43017 1.33876 0
M  V30 7096 H 686.736 0.323978 0.673088 0
M  V30 7097 H 689.398 1.42314 1.33164 0
M  V30 7098 H 688.494 1.26863 2.85153 0
M  V30 7099 N 688.795 -1.27931 0.920396 0
M  V30 7100 C 689.742 -2.27085 0.412422 0
M  V30 7101 C 690.712 -1.57858 -0.516725 0
M  V30 7102 O 691.897 -1.85717 -0.437475 0
M  V30 7103 C 689.037 -3.43466 -0.335399 0
M  V30 7104 C 688.15 -4.27425 0.627017 0
M  V30 7105 C 687.285 -5.31016 -0.139916 0
M  V30 7106 C 686.324 -6.06641 0.815683 0
M  V30 7107 N 685.461 -7.02052 0.0818439 0
M  V30 7108 H 690.301 -2.69913 1.26298 0
M  V30 7109 H 687.838 -1.32732 0.634076 0
M  V30 7110 H 689.796 -4.09744 -0.785226 0
M  V30 7111 H 688.426 -3.01611 -1.15025 0
M  V30 7112 H 687.478 -3.6113 1.19537 0
M  V30 7113 H 688.79 -4.79969 1.35763 0
M  V30 7114 H 687.944 -6.03208 -0.649998 0
M  V30 7115 H 686.683 -4.79257 -0.903543 0
M  V30 7116 H 685.688 -5.33294 1.33708 0
M  V30 7117 H 686.913 -6.60489 1.57897 0
M  V30 7118 H 684.859 -6.52634 -0.663671 0
M  V30 7119 H 684.776 -7.52249 0.752163 0
M  V30 7120 H 686.044 -7.78432 -0.407825 0
M  V30 7121 N 690.273 -0.685099 -1.4193 0
M  V30 7122 C 691.521 -0.21124 -2.00993 0
M  V30 7123 C 691.842 1.18985 -1.54491 0
M  V30 7124 O 691.112 1.8009 -0.771 0
M  V30 7125 H 689.692 -0.0751059 -0.743215 0
M  V30 7126 H 692.354 -0.883915 -1.73704 0
M  V30 7127 H 691.45 -0.220513 -3.1132 0
M  V30 7128 N 691.751 1.51645 -0.429126 0
M  V30 7129 C 692.684 2.24083 0.431492 0
M  V30 7130 C 693.662 1.25691 1.03153 0
M  V30 7131 O 694.846 1.54802 1.07557 0
M  V30 7132 C 691.973 2.9849 1.60067 0
M  V30 7133 C 691.019 4.11474 1.12211 0
M  V30 7134 S 691.852 5.35453 0.0708449 0
M  V30 7135 C 693.008 6.13395 1.24488 0
M  V30 7136 H 693.241 2.96733 -0.183525 0
M  V30 7137 H 690.774 1.52916 -0.213574 0
M  V30 7138 H 692.732 3.4196 2.27099 0
M  V30 7139 H 691.393 2.25445 2.18708 0
M  V30 7140 H 690.586 4.62784 1.99618 0
M  V30 7141 H 690.188 3.70223 0.530149 0
M  V30 7142 H 692.48 6.41984 2.16479 0
M  V30 7143 H 693.423 7.0388 0.771921 0
M  V30 7144 H 693.831 5.44761 1.47973 0
M  V30 7145 N 693.229 0.160201 1.56784 0
M  V30 7146 C 694.162 -0.812797 2.13234 0
M  V30 7147 C 695.14 -1.2335 1.05942 0
M  V30 7148 O 696.324 -1.32725 1.33852 0
M  V30 7149 C 693.451 -2.09311 2.66283 0
M  V30 7150 C 692.497 -1.8173 3.85845 0
M  V30 7151 S 693.33 -0.996473 5.26147 0
M  V30 7152 C 694.486 -2.28769 5.82594 0
M  V30 7153 H 694.719 -0.332794 2.95432 0
M  V30 7154 H 692.252 -0.0542971 1.54304 0
M  V30 7155 H 694.21 -2.82854 2.97496 0
M  V30 7156 H 692.871 -2.54425 1.84192 0
M  V30 7157 H 692.064 -2.76699 4.21253 0
M  V30 7158 H 691.666 -1.16289 3.55462 0
M  V30 7159 H 693.958 -3.24319 5.9483 0
M  V30 7160 H 694.901 -1.97846 6.79899 0
M  V30 7161 H 695.309 -2.40021 5.10931 0
M  V30 7162 N 694.707 -1.5719 -0.113559 0
M  V30 7163 C 696.118 -1.74259 -0.670116 0
M  V30 7164 C 696.469 -0.779694 -1.80042 0
M  V30 7165 O 695.594 0.0461353 -2.16351 0
M  V30 7166 C 696.189 -3.15981 -1.22236 0
M  V30 7167 C 694.748 -3.34537 -1.72516 0
M  V30 7168 C 693.895 -2.70116 -0.627098 0
M  V30 7169 H 696.846 -1.58301 0.112396 0
M  V30 7170 H 696.867 -3.17832 -2.09197 0
M  V30 7171 H 696.379 -3.86038 -0.39949 0
M  V30 7172 H 694.48 -2.6953 -2.57263 0
M  V30 7173 H 694.593 -4.42737 -1.83086 0
M  V30 7174 H 692.957 -2.31501 -1.06204 0
M  V30 7175 H 693.74 -3.42802 0.184889 0
M  V30 7176 N 696.185 0.383891 -1.52853 0
M  V30 7177 C 697.596 0.961591 -1.60032 0
M  V30 7178 C 697.947 1.90819 -0.456333 0
M  V30 7179 O 697.072 2.12288 0.419873 0
M  V30 7180 C 697.667 1.75078 -2.90057 0
M  V30 7181 C 696.226 2.2781 -2.99632 0
M  V30 7182 C 695.373 1.08512 -2.55187 0
M  V30 7183 H 698.324 0.163269 -1.57858 0
M  V30 7184 H 698.345 2.61046 -2.7683 0
M  V30 7185 H 697.857 1.06157 -3.73299 0
M  V30 7186 H 695.958 3.00028 -2.20939 0
M  V30 7187 H 696.071 2.56947 -4.0437 0
M  V30 7188 H 694.435 1.44667 -2.09627 0
M  V30 7189 H 695.218 0.41118 -3.40829 0
M  V30 7190 N 697.663 1.43903 0.642637 0
M  V30 7191 C 699.074 1.40975 1.22404 0
M  V30 7192 C 699.425 0.1192 1.95838 0
M  V30 7193 O 698.55 -0.780939 2.01818 0
M  V30 7194 C 699.145 2.5538 2.22636 0
M  V30 7195 C 697.704 2.55684 2.76229 0
M  V30 7196 C 696.851 2.32556 1.51039 0
M  V30 7197 H 699.802 1.5265 0.434006 0
M  V30 7198 H 699.823 2.27474 3.05017 0
M  V30 7199 H 699.335 3.49294 1.69161 0
M  V30 7200 H 697.436 1.65679 3.33738 0
M  V30 7201 H 697.549 3.53799 3.23053 0
M  V30 7202 H 695.913 1.81427 1.78764 0
M  V30 7203 H 696.696 3.28569 0.99484 0
M  V30 7204 N 699.141 -0.881989 1.30609 0
M  V30 7205 C 700.552 -1.44956 1.17664 0
M  V30 7206 C 700.903 -1.94945 -0.221531 0
M  V30 7207 O 700.028 -1.85257 -1.11844 0
M  V30 7208 C 700.623 -2.63474 2.12995 0
M  V30 7209 C 699.182 -3.16312 2.04019 0
M  V30 7210 C 698.329 -1.89008 2.02907 0
M  V30 7211 H 701.28 -0.691645 1.42835 0
M  V30 7212 H 701.301 -3.39783 1.71253 0
M  V30 7213 H 700.813 -2.2706 3.14746 0
M  V30 7214 H 698.914 -3.57376 1.0542 0
M  V30 7215 H 699.027 -3.79409 2.9255 0
M  V30 7216 H 697.391 -2.07465 1.47751 0
M  V30 7217 H 698.174 -1.54848 3.06394 0
M  V30 7218 N 700.619 -1.13374 -1.09472 0
M  V30 7219 C 701.552 -0.754354 -2.15371 0
M  V30 7220 C 702.53 0.259205 -1.60521 0
M  V30 7221 O 703.714 0.150819 -1.87896 0
M  V30 7222 C 700.841 -0.118197 -3.38494 0
M  V30 7223 C 699.887 -1.10017 -4.12066 0
M  V30 7224 S 700.72 -2.63242 -4.6633 0
M  V30 7225 C 701.876 -2.00984 -5.92753 0
M  V30 7226 H 702.109 -1.65135 -2.4722 0
M  V30 7227 H 699.642 -0.953838 -1.21414 0
M  V30 7228 H 701.6 0.242447 -4.09783 0
M  V30 7229 H 700.261 0.756065 -3.04865 0
M  V30 7230 H 699.454 -0.60287 -5.00381 0
M  V30 7231 H 699.056 -1.40426 -3.46636 0
M  V30 7232 H 701.348 -1.35863 -6.63738 0
M  V30 7233 H 702.291 -2.8738 -6.47162 0
M  V30 7234 H 702.699 -1.46161 -5.4525 0
M  V30 7235 N 702.098 1.27442 -0.927168 0
M  V30 7236 C 703.346 1.94007 -0.566203 0
M  V30 7237 C 703.667 1.7323 0.895345 0
M  V30 7238 O 702.937 1.07973 1.63459 0
M  V30 7239 H 701.517 0.717917 -0.206409 0
M  V30 7240 H 704.179 1.55161 -1.17945 0
M  V30 7241 H 703.275 3.02401 -0.772028 0
M  V30 7242 N 703.576 0.692616 1.41565 0
M  V30 7243 C 704.509 -0.025063 2.28186 0
M  V30 7244 C 705.487 -0.790912 1.42068 0
M  V30 7245 O 706.671 -0.782344 1.71498 0
M  V30 7246 C 703.798 -1.04285 3.22246 0
M  V30 7247 C 702.844 -0.370515 4.24888 0
M  V30 7248 S 703.677 0.884942 5.28137 0
M  V30 7249 C 704.833 -0.131324 6.25762 0
M  V30 7250 H 705.066 0.709626 2.88707 0
M  V30 7251 H 702.599 0.482783 1.46658 0
M  V30 7252 H 704.557 -1.62493 3.7697 0
M  V30 7253 H 703.218 -1.7501 2.60827 0
M  V30 7254 H 702.411 -1.13911 4.90959 0
M  V30 7255 H 702.013 0.138411 3.73744 0
M  V30 7256 H 704.305 -0.985527 6.70294 0
M  V30 7257 H 705.248 0.495384 7.06365 0
M  V30 7258 H 705.656 -0.484777 5.62415 0
M  V30 7259 N 705.054 -1.51416 0.437162 0
M  V30 7260 C 705.987 -2.24309 -0.419602 0
M  V30 7261 C 706.965 -1.26236 -1.02485 0
M  V30 7262 O 708.149 -1.5537 -1.06735 0
M  V30 7263 C 705.276 -2.99335 -1.58482 0
M  V30 7264 C 704.322 -4.12064 -1.10027 0
M  V30 7265 S 705.155 -5.35483 -0.0424476 0
M  V30 7266 C 706.311 -6.14047 -1.21234 0
M  V30 7267 H 706.544 -2.96632 0.199259 0
M  V30 7268 H 704.077 -1.528 0.22168 0
M  V30 7269 H 706.035 -3.43159 -2.25282 0
M  V30 7270 H 704.696 -2.26602 -2.17509 0
M  V30 7271 H 703.889 -4.63836 -1.97161 0
M  V30 7272 H 703.491 -3.70499 -0.510507 0
M  V30 7273 H 705.783 -6.43123 -2.13072 0
M  V30 7274 H 706.726 -7.04279 -0.734582 0
M  V30 7275 H 707.134 -5.45538 -1.45082 0
M  V30 7276 N 706.532 -0.168513 -1.56696 0
M  V30 7277 C 707.943 0.348694 -1.83415 0
M  V30 7278 C 708.294 1.63257 -1.0882 0
M  V30 7279 O 707.419 2.13707 -0.340333 0
M  V30 7280 C 708.014 0.639423 -3.32711 0
M  V30 7281 C 706.573 1.10108 -3.59935 0
M  V30 7282 C 705.72 0.135464 -2.76969 0
M  V30 7283 H 708.671 -0.392829 -1.53761 0
M  V30 7284 H 708.692 1.49179 -3.50037 0
M  V30 7285 H 708.204 -0.295173 -3.86976 0
M  V30 7286 H 706.305 2.05088 -3.11079 0
M  V30 7287 H 706.418 1.01218 -4.68286 0
M  V30 7288 H 704.782 0.632286 -2.46727 0
M  V30 7289 H 705.565 -0.793104 -3.34013 0
M  V30 7290 N 708.01 1.57248 0.105221 0
M  V30 7291 C 709.421 1.74612 0.660865 0
M  V30 7292 C 709.772 0.789231 1.79626 0
M  V30 7293 O 708.897 -0.0346611 2.16372 0
M  V30 7294 C 709.492 3.16624 1.20559 0
M  V30 7295 C 708.051 3.35447 1.7074 0
M  V30 7296 C 707.198 2.70445 0.612764 0
M  V30 7297 H 710.149 1.5824 -0.12079 0
M  V30 7298 H 710.17 3.18937 2.07508 0
M  V30 7299 H 709.682 3.86245 0.379012 0
M  V30 7300 H 707.783 2.7089 2.5583 0
M  V30 7301 H 707.896 4.43702 1.80736 0
M  V30 7302 H 706.26 2.32061 1.04975 0
M  V30 7303 H 707.043 3.42699 -0.203066 0
M  V30 7304 N 709.488 -0.375779 1.53054 0
M  V30 7305 C 710.899 -0.95309 1.6054 0
M  V30 7306 C 711.25 -1.90575 0.466446 0
M  V30 7307 O 710.375 -2.12507 -0.408609 0
M  V30 7308 C 710.97 -1.73537 2.90982 0
M  V30 7309 C 709.529 -2.26218 3.00836 0
M  V30 7310 C 708.676 -1.07157 2.55759 0
M  V30 7311 H 711.627 -0.154895 1.57942 0
M  V30 7312 H 711.648 -2.59574 2.78211 0
M  V30 7313 H 711.16 -1.04176 3.73857 0
M  V30 7314 H 709.261 -2.98852 2.22527 0
M  V30 7315 H 709.374 -2.54799 4.05727 0
M  V30 7316 H 707.738 -1.43553 2.10391 0
M  V30 7317 H 708.521 -0.393099 3.41042 0
M  V30 7318 N 710.966 -1.44241 -0.634997 0
M  V30 7319 C 712.377 -1.41622 -1.21655 0
M  V30 7320 C 712.728 -0.129584 -1.95772 0
M  V30 7321 O 711.853 0.770225 -2.02229 0
M  V30 7322 C 712.448 -2.56557 -2.21278 0
M  V30 7323 C 711.007 -2.57145 -2.7487 0
M  V30 7324 C 710.154 -2.33354 -1.49804 0
M  V30 7325 H 713.105 -1.52878 -0.425905 0
M  V30 7326 H 713.126 -2.29089 -3.03807 0
M  V30 7327 H 712.638 -3.50186 -1.67306 0
M  V30 7328 H 710.739 -1.67447 -3.32855 0
M  V30 7329 H 710.852 -3.55507 -3.21172 0
M  V30 7330 H 709.216 -1.82372 -1.77799 0
M  V30 7331 H 709.999 -3.29092 -0.977402 0
M  V30 7332 N 712.444 0.87505 -1.31075 0
M  V30 7333 C 713.855 1.4433 -1.18431 0
M  V30 7334 C 714.206 1.9506 0.211189 0
M  V30 7335 O 713.331 1.85847 1.10859 0
M  V30 7336 C 713.926 2.62341 -2.14389 0
M  V30 7337 C 712.485 3.15225 -2.05694 0
M  V30 7338 C 711.632 1.87929 -2.03907 0
M  V30 7339 H 714.583 0.684061 -1.432 0
M  V30 7340 H 714.604 3.3887 -1.73053 0
M  V30 7341 H 714.116 2.25388 -3.15946 0
M  V30 7342 H 712.217 3.56812 -1.07314 0
M  V30 7343 H 712.33 3.77853 -2.94558 0
M  V30 7344 H 710.694 2.06679 -1.48849 0
M  V30 7345 H 711.477 1.53221 -3.07211 0
M  V30 7346 N 713.922 1.13953 1.08869 0
M  V30 7347 C 715.333 0.916649 1.62648 0
M  V30 7348 C 715.684 -0.545589 1.88462 0
M  V30 7349 O 714.809 -1.41351 1.63856 0
M  V30 7350 C 715.404 1.65751 2.95486 0
M  V30 7351 C 713.963 1.48034 3.46068 0
M  V30 7352 C 713.11 1.68305 2.20383 0
M  V30 7353 H 716.061 1.292 0.921572 0
M  V30 7354 H 716.082 1.11794 3.63707 0
M  V30 7355 H 715.594 2.72171 2.76667 0
M  V30 7356 H 713.695 0.439416 3.7 0
M  V30 7357 H 713.808 2.24719 4.23129 0
M  V30 7358 H 712.172 1.10833 2.29321 0
M  V30 7359 H 712.955 2.76057 2.04077 0
M  V30 7360 N 715.4 -1.26948 0.933913 0
M  V30 7361 C 716.811 -1.76058 0.621324 0
M  V30 7362 C 717.162 -1.76175 -0.863522 0
M  V30 7363 O 716.287 -1.36921 -1.67576 0
M  V30 7364 C 716.882 -3.19713 1.12111 0
M  V30 7365 C 715.441 -3.66465 0.859074 0
M  V30 7366 C 714.588 -2.46186 1.27624 0
M  V30 7367 H 717.539 -1.13127 1.11301 0
M  V30 7368 H 717.56 -3.77566 0.471608 0
M  V30 7369 H 717.072 -3.19596 2.20182 0
M  V30 7370 H 715.173 -3.72021 -0.207566 0
M  V30 7371 H 715.286 -4.55636 1.48098 0
M  V30 7372 H 713.65 -2.45042 0.694727 0
M  V30 7373 H 714.433 -2.48774 2.36572 0
M  V30 7374 N 716.879 -0.700114 -1.41195 0
M  V30 7375 C 718.104 -0.240704 -2.05998 0
M  V30 7376 C 718.529 1.10313 -1.52357 0
M  V30 7377 O 717.887 1.69154 -0.652424 0
M  V30 7378 C 717.935 -0.213783 -3.59966 0
M  V30 7379 O 717.039 0.809933 -4.04368 0
M  V30 7380 H 716.38 -0.116471 -0.653705 0
M  V30 7381 H 718.91 -0.956251 -1.80878 0
M  V30 7382 H 718.92 -0.0461852 -4.07974 0
M  V30 7383 H 717.595 -1.19454 -3.98376 0
M  V30 7384 H 716.172 0.611319 -3.67855 0
M  V30 7385 N 718.357 1.51182 -0.445186 0
M  V30 7386 C 719.605 2.01753 0.11841 0
M  V30 7387 C 719.926 1.33087 1.42523 0
M  V30 7388 O 719.196 0.467891 1.9023 0
M  V30 7389 H 717.776 0.745536 0.0467492 0
M  V30 7390 H 720.438 1.85765 -0.589688 0
M  V30 7391 H 719.534 3.10762 0.288665 0
M  V30 7392 N 719.835 0.176821 1.56605 0
M  V30 7393 C 720.767 -0.782836 2.15417 0
M  V30 7394 C 721.78 -1.18982 1.11117 0
M  V30 7395 O 722.969 -1.12872 1.38283 0
M  V30 7396 C 720.069 -2.06596 2.68647 0
M  V30 7397 C 719.242 -1.82167 3.9766 0
M  V30 7398 C 718.301 -2.94751 4.35899 0
M  V30 7399 O 717.327 -2.65148 5.03672 0
M  V30 7400 N 718.529 -4.2267 3.97907 0
M  V30 7401 H 721.294 -0.280012 2.98389 0
M  V30 7402 H 718.855 -0.00577529 1.61899 0
M  V30 7403 H 720.847 -2.81018 2.91223 0
M  V30 7404 H 719.417 -2.48054 1.90232 0
M  V30 7405 H 718.637 -0.916208 3.83405 0
M  V30 7406 H 719.925 -1.6322 4.81909 0
M  V30 7407 H 719.323 -4.4958 3.43357 0
M  V30 7408 H 717.88 -4.93778 4.25472 0
M  V30 7409 N 721.313 -1.57302 -0.09688 0
M  V30 7410 C 722.724 -1.7496 -0.651595 0
M  V30 7411 C 723.075 -0.798746 -1.79205 0
M  V30 7412 O 722.2 0.0231858 -2.16388 0
M  V30 7413 C 722.795 -3.17259 -1.18878 0
M  V30 7414 C 721.354 -3.36348 -1.68958 0
M  V30 7415 C 720.501 -2.70766 -0.598413 0
M  V30 7416 H 723.452 -1.58173 0.12918 0
M  V30 7417 H 723.473 -3.20033 -2.05814 0
M  V30 7418 H 722.985 -3.8644 -0.358523 0
M  V30 7419 H 721.086 -2.72243 -2.5439 0
M  V30 7420 H 721.199 -4.44654 -1.7838 0
M  V30 7421 H 719.563 -2.32615 -1.03743 0
M  V30 7422 H 720.346 -3.42586 0.221238 0
M  V30 7423 N 722.791 0.367657 -1.53252 0
M  V30 7424 C 724.202 0.944563 -1.61043 0
M  V30 7425 C 724.553 1.90325 -0.476546 0
M  V30 7426 O 723.678 2.12721 0.397333 0
M  V30 7427 C 724.273 1.71992 -2.91898 0
M  V30 7428 C 722.832 2.2462 -3.02031 0
M  V30 7429 C 721.979 1.05799 -2.56324 0
M  V30 7430 H 724.93 0.146516 -1.58022 0
M  V30 7431 H 724.951 2.58095 -2.79584 0
M  V30 7432 H 724.463 1.02192 -3.74404 0
M  V30 7433 H 722.564 2.97668 -2.24108 0
M  V30 7434 H 722.677 2.52644 -4.07073 0
M  V30 7435 H 721.041 1.42435 -2.1115 0
M  V30 7436 H 721.824 0.375008 -3.41246 0
M  V30 7437 N 724.269 1.44576 0.627338 0
M  V30 7438 C 725.68 1.42266 1.20902 0
M  V30 7439 C 726.031 0.139964 1.957 0
M  V30 7440 O 725.156 -0.759489 2.02634 0
M  V30 7441 C 725.751 2.57727 2.19914 0
M  V30 7442 C 724.31 2.58599 2.73502 0
M  V30 7443 C 723.457 2.34145 1.48564 0
M  V30 7444 H 726.408 1.53102 0.417791 0
M  V30 7445 H 726.429 2.30697 3.02588 0
M  V30 7446 H 725.941 3.51068 1.65447 0
M  V30 7447 H 724.042 1.6921 3.31962 0
M  V30 7448 H 724.155 3.57205 3.19282 0
M  V30 7449 H 722.519 1.83313 1.76829 0
M  V30 7450 H 723.302 3.29606 0.959935 0
M  V30 7451 N 725.747 -0.868086 1.31537 0
M  V30 7452 C 727.158 -1.437 1.19195 0
M  V30 7453 C 727.509 -1.95169 -0.200842 0
M  V30 7454 O 726.634 -1.86432 -1.09872 0
M  V30 7455 C 727.229 -2.612 2.15778 0
M  V30 7456 C 725.788 -3.1413 2.07363 0
M  V30 7457 C 724.935 -1.86845 2.049 0
M  V30 7458 H 727.886 -0.676457 1.43561 0
M  V30 7459 H 727.907 -3.37948 1.74847 0
M  V30 7460 H 727.419 -2.23709 3.17137 0
M  V30 7461 H 725.52 -3.56238 1.09204 0
M  V30 7462 H 725.633 -3.76285 2.96557 0
M  V30 7463 H 723.997 -2.05886 1.49943 0
M  V30 7464 H 724.78 -1.51589 3.08019 0
M  V30 7465 N 727.225 -1.14528 -1.08264 0
M  V30 7466 C 728.636 -0.925261 -1.6216 0
M  V30 7467 C 728.987 0.535587 -1.88748 0
M  V30 7468 O 728.112 1.4048 -1.64604 0
M  V30 7469 C 728.707 -1.67316 -2.94603 0
M  V30 7470 C 727.266 -1.49868 -3.45278 0
M  V30 7471 C 726.413 -1.69471 -2.19487 0
M  V30 7472 H 729.364 -1.29687 -0.914707 0
M  V30 7473 H 729.385 -1.13721 -3.63109 0
M  V30 7474 H 728.897 -2.73635 -2.75219 0
M  V30 7475 H 726.998 -0.459032 -3.69762 0
M  V30 7476 H 727.111 -2.2696 -4.21931 0
M  V30 7477 H 725.475 -1.12048 -2.2873 0
M  V30 7478 H 726.258 -2.77136 -2.0261 0
M  V30 7479 N 728.703 1.26451 -0.940633 0
M  V30 7480 C 729.928 1.98407 -0.60412 0
M  V30 7481 C 730.353 1.69584 0.81382 0
M  V30 7482 O 729.711 0.943553 1.54812 0
M  V30 7483 C 729.759 3.50387 -0.852136 0
M  V30 7484 O 728.863 4.1233 0.076013 0
M  V30 7485 H 728.204 0.622466 -0.231153 0
M  V30 7486 H 730.734 1.60932 -1.26342 0
M  V30 7487 H 730.744 4.00614 -0.772816 0
M  V30 7488 H 729.419 3.70696 -1.88566 0
M  V30 7489 H 727.996 3.7286 -0.0543187 0
M  V30 7490 N 730.181 0.707592 1.40822 0
M  V30 7491 C 731.429 0.243189 2.00632 0
M  V30 7492 C 731.75 -1.16512 1.56365 0
M  V30 7493 O 731.02 -1.78841 0.799553 0
M  V30 7494 H 729.6 0.0869203 0.741926 0
M  V30 7495 H 732.262 0.911438 1.72275 0
M  V30 7496 H 731.358 0.270014 3.1093 0
M  V30 7497 N 731.66 -1.50943 0.453197 0
M  V30 7498 C 733.071 -1.86699 -0.00619892 0
M  V30 7499 C 733.422 -1.3693 -1.40515 0
M  V30 7500 O 732.547 -0.726715 -2.03833 0
M  V30 7501 C 733.142 -3.38795 -0.018025 0
M  V30 7502 C 731.701 -3.74028 -0.421885 0
M  V30 7503 C 730.848 -2.74752 0.375087 0
M  V30 7504 H 733.799 -1.43942 0.668317 0
M  V30 7505 H 733.82 -3.71468 -0.824125 0
M  V30 7506 H 733.332 -3.74988 1.00028 0
M  V30 7507 H 731.433 -3.43431 -1.44521 0
M  V30 7508 H 731.546 -4.78908 -0.135664 0
M  V30 7509 H 729.91 -2.5414 -0.168794 0
M  V30 7510 H 730.693 -3.13787 1.39256 0
M  V30 7511 N 733.138 -0.185124 -1.56509 0
M  V30 7512 C 734.068 0.735098 -2.21627 0
M  V30 7513 C 735.049 1.2288 -1.1762 0
M  V30 7514 O 736.234 1.27945 -1.46095 0
M  V30 7515 C 733.364 1.95889 -2.86783 0
M  V30 7516 C 732.318 1.6005 -3.96948 0
M  V30 7517 C 731.644 2.90009 -4.4922 0
M  V30 7518 C 732.944 0.818008 -5.15855 0
M  V30 7519 H 734.638 0.192274 -2.98782 0
M  V30 7520 H 732.184 0.0910393 -1.43712 0
M  V30 7521 H 734.137 2.60779 -3.31017 0
M  V30 7522 H 732.861 2.52608 -2.07018 0
M  V30 7523 H 731.52 0.975237 -3.5339 0
M  V30 7524 H 731.168 3.44797 -3.6623 0
M  V30 7525 H 730.868 2.66778 -5.23549 0
M  V30 7526 H 732.392 3.55904 -4.9615 0
M  V30 7527 H 733.806 1.36979 -5.56695 0
M  V30 7528 H 732.203 0.684207 -5.96187 0
M  V30 7529 H 733.273 -0.182939 -4.84555 0
M  V30 7530 N 734.616 1.57351 0.0885366 0
M  V30 7531 C 736.027 1.75303 0.642308 0
M  V30 7532 C 736.378 0.808238 1.78779 0
M  V30 7533 O 735.503 -0.01171 2.16397 0
M  V30 7534 C 736.098 3.17885 1.17194 0
M  V30 7535 C 734.657 3.37239 1.67172 0
M  V30 7536 C 733.804 2.7108 0.584045 0
M  V30 7537 H 736.755 1.58103 -0.137567 0
M  V30 7538 H 736.776 3.2112 2.04114 0
M  V30 7539 H 736.288 3.86625 0.338024 0
M  V30 7540 H 734.389 2.73588 2.52943 0
M  V30 7541 H 734.502 4.45594 1.76019 0
M  V30 7542 H 732.866 2.33161 1.02508 0
M  V30 7543 H 733.649 3.42464 -0.239403 0
M  V30 7544 N 736.094 -0.359525 1.53444 0
M  V30 7545 C 737.505 -0.936009 1.61542 0
M  V30 7546 C 737.856 -1.90069 0.486633 0
M  V30 7547 O 736.981 -2.12929 -0.386047 0
M  V30 7548 C 737.576 -1.70441 2.92806 0
M  V30 7549 C 736.135 -2.23015 3.03218 0
M  V30 7550 C 735.282 -1.04438 2.56881 0
M  V30 7551 H 738.233 -0.138134 1.58098 0
M  V30 7552 H 738.254 -2.56609 2.80948 0
M  V30 7553 H 737.766 -1.00205 3.74941 0
M  V30 7554 H 735.867 -2.96475 2.25684 0
M  V30 7555 H 735.98 -2.50481 4.08407 0
M  V30 7556 H 734.344 -1.41314 2.11902 0
M  V30 7557 H 735.127 -0.356905 3.4144 0
M  V30 7558 N 737.572 -1.44907 -0.619662 0
M  V30 7559 C 738.818 -1.49504 -1.37914 0
M  V30 7560 C 739.173 -0.130158 -1.91959 0
M  V30 7561 O 738.466 0.856263 -1.71402 0
M  V30 7562 C 738.66 -2.50002 -2.55409 0
M  V30 7563 C 738.489 -3.96128 -2.12867 0
M  V30 7564 C 737.259 -4.64204 -1.99606 0
M  V30 7565 C 739.457 -4.85014 -1.71074 0
M  V30 7566 N 737.439 -5.95104 -1.50748 0
M  V30 7567 C 738.81 -6.05447 -1.33544 0
M  V30 7568 C 740.865 -4.71979 -1.58557 0
M  V30 7569 C 739.568 -7.1429 -0.847484 0
M  V30 7570 C 741.594 -5.80858 -1.11165 0
M  V30 7571 C 740.956 -7.00439 -0.745932 0
M  V30 7572 H 737.055 -0.60207 -0.499034 0
M  V30 7573 H 739.639 -1.81305 -0.70968 0
M  V30 7574 H 737.81 -2.20172 -3.19967 0
M  V30 7575 H 739.542 -2.44823 -3.22248 0
M  V30 7576 H 736.297 -4.19182 -2.20417 0
M  V30 7577 H 736.721 -6.64676 -1.28585 0
M  V30 7578 H 741.363 -3.79953 -1.85461 0
M  V30 7579 H 739.081 -8.06116 -0.565974 0
M  V30 7580 H 742.667 -5.72803 -1.01923 0
M  V30 7581 H 741.547 -7.83255 -0.384848 0
M  V30 7582 N 739.05 0.861098 -1.31996 0
M  V30 7583 C 739.982 1.97551 -1.16216 0
M  V30 7584 C 740.995 1.625 -0.0988527 0
M  V30 7585 O 742.184 1.75091 -0.3472 0
M  V30 7586 C 739.284 3.30376 -0.755307 0
M  V30 7587 C 738.457 3.93711 -1.90552 0
M  V30 7588 C 737.516 5.04862 -1.48328 0
M  V30 7589 O 736.542 5.25204 -2.19431 0
M  V30 7590 N 737.744 5.79283 -0.375656 0
M  V30 7591 H 740.509 2.11632 -2.12208 0
M  V30 7592 H 738.07 1.03559 -1.24448 0
M  V30 7593 H 740.062 4.0213 -0.455364 0
M  V30 7594 H 738.632 3.12395 0.113269 0
M  V30 7595 H 737.852 3.14825 -2.37231 0
M  V30 7596 H 739.14 4.32762 -2.67571 0
M  V30 7597 H 738.538 5.65286 0.216284 0
M  V30 7598 H 737.095 6.5166 -0.135289 0
M  V30 7599 N 740.528 1.15101 1.07655 0
M  V30 7600 C 741.46 0.802722 2.14684 0
M  V30 7601 C 742.473 -0.183874 1.61758 0
M  V30 7602 O 743.662 0.0389349 1.78458 0
M  V30 7603 C 740.762 0.172135 3.38463 0
M  V30 7604 C 739.935 1.19538 4.20749 0
M  V30 7605 C 738.994 0.58714 5.22914 0
M  V30 7606 O 738.02 1.25224 5.55255 0
M  V30 7607 N 739.222 -0.632566 5.77043 0
M  V30 7608 H 741.987 1.72379 2.45164 0
M  V30 7609 H 739.548 1.04647 1.23534 0
M  V30 7610 H 741.54 -0.247465 4.03943 0
M  V30 7611 H 740.11 -0.652214 3.0572 0
M  V30 7612 H 739.33 1.79165 3.51132 0
M  V30 7613 H 740.618 1.88636 4.7254 0
M  V30 7614 H 740.016 -1.19135 5.53013 0
M  V30 7615 H 738.573 -0.994566 6.44167 0
M  V30 7616 N 742.006 -1.2595 0.947325 0
M  V30 7617 C 742.938 -2.25336 0.41906 0
M  V30 7618 C 743.951 -1.56135 -0.461051 0
M  V30 7619 O 745.14 -1.76438 -0.270505 0
M  V30 7620 C 742.24 -3.36334 -0.416233 0
M  V30 7621 C 741.413 -4.35088 0.449162 0
M  V30 7622 C 740.472 -5.25185 -0.326716 0
M  V30 7623 O 739.498 -5.68548 0.272374 0
M  V30 7624 N 740.7 -5.57388 -1.6217 0
M  V30 7625 H 743.465 -2.71298 1.27348 0
M  V30 7626 H 741.026 -1.39781 0.81688 0
M  V30 7627 H 743.018 -3.93564 -0.942826 0
M  V30 7628 H 741.588 -2.89819 -1.17148 0
M  V30 7629 H 740.808 -3.76841 1.15692 0
M  V30 7630 H 742.096 -4.98056 1.04008 0
M  V30 7631 H 741.494 -5.2405 -2.13046 0
M  V30 7632 H 740.051 -6.17234 -2.0944 0
M  V30 7633 N 743.484 -0.715051 -1.40445 0
M  V30 7634 C 744.416 -0.0227516 -2.29189 0
M  V30 7635 C 745.429 0.724313 -1.458 0
M  V30 7636 O 746.618 0.571781 -1.69094 0
M  V30 7637 C 743.718 0.992038 -3.24055 0
M  V30 7638 C 742.891 0.310613 -4.36296 0
M  V30 7639 C 741.95 1.23071 -5.11605 0
M  V30 7640 O 740.976 0.71571 -5.64682 0
M  V30 7641 N 742.178 2.56188 -5.2091 0
M  V30 7642 H 744.943 -0.78473 -2.89244 0
M  V30 7643 H 742.504 -0.562637 -1.51809 0
M  V30 7644 H 744.496 1.60973 -3.71308 0
M  V30 7645 H 743.066 1.65538 -2.65171 0
M  V30 7646 H 742.286 -0.487269 -3.91177 0
M  V30 7647 H 743.574 -0.162415 -5.08541 0
M  V30 7648 H 742.972 3.00527 -4.7927 0
M  V30 7649 H 741.529 3.13103 -5.71673 0
M  V30 7650 N 744.962 1.50701 -0.461195 0
M  V30 7651 C 745.894 2.26124 0.374244 0
M  V30 7652 C 746.907 1.31064 0.965715 0
M  V30 7653 O 748.096 1.56647 0.855801 0
M  V30 7654 C 745.196 3.01996 1.5379 0
M  V30 7655 C 744.369 4.24336 1.06101 0
M  V30 7656 C 743.428 4.82585 2.09756 0
M  V30 7657 O 742.454 5.43775 1.68219 0
M  V30 7658 N 743.656 4.68712 3.42475 0
M  V30 7659 H 746.421 2.9846 -0.2723 0
M  V30 7660 H 743.982 1.59256 -0.291415 0
M  V30 7661 H 745.974 3.37846 2.22806 0
M  V30 7662 H 744.544 2.32521 2.08933 0
M  V30 7663 H 743.764 3.93707 0.197085 0
M  V30 7664 H 745.052 5.03678 0.720156 0
M  V30 7665 H 744.45 4.20026 3.78938 0
M  V30 7666 H 743.007 5.08858 4.07317 0
M  V30 7667 N 746.441 0.193421 1.56409 0
M  V30 7668 C 747.373 -0.759944 2.16235 0
M  V30 7669 C 748.386 -1.17797 1.12373 0
M  V30 7670 O 749.575 -1.11399 1.39472 0
M  V30 7671 C 746.675 -2.03735 2.70823 0
M  V30 7672 C 745.848 -1.77939 3.9957 0
M  V30 7673 C 744.907 -2.90111 4.39001 0
M  V30 7674 O 743.933 -2.59791 5.06456 0
M  V30 7675 N 745.135 -4.18426 4.02368 0
M  V30 7676 H 747.9 -0.248348 2.98669 0
M  V30 7677 H 745.461 0.0113966 1.61896 0
M  V30 7678 H 747.453 -2.77914 2.94187 0
M  V30 7679 H 746.023 -2.46022 1.92852 0
M  V30 7680 H 745.243 -0.875491 3.84355 0
M  V30 7681 H 746.531 -1.58099 4.83614 0
M  V30 7682 H 745.929 -4.45913 3.48106 0
M  V30 7683 H 744.486 -4.89237 4.30686 0
M  V30 7684 N 747.919 -1.57396 -0.0801906 0
M  V30 7685 C 749.33 -1.75642 -0.633002 0
M  V30 7686 C 749.681 -0.817708 -1.78348 0
M  V30 7687 O 748.806 0.000233743 -2.164 0
M  V30 7688 C 749.401 -3.18502 -1.15507 0
M  V30 7689 C 747.96 -3.38121 -1.65381 0
M  V30 7690 C 747.107 -2.71386 -0.569661 0
M  V30 7691 H 750.058 -1.58027 0.145949 0
M  V30 7692 H 750.079 -3.22198 -2.02408 0
M  V30 7693 H 749.591 -3.86799 -0.317515 0
M  V30 7694 H 747.692 -2.74926 -2.51488 0
M  V30 7695 H 747.805 -4.46521 -1.73654 0
M  V30 7696 H 746.169 -2.33702 -1.0127 0
M  V30 7697 H 746.952 -3.42332 0.257561 0
M  V30 7698 N 749.397 0.351382 -1.53633 0
M  V30 7699 C 750.808 0.927429 -1.62036 0
M  V30 7700 C 751.159 1.89809 -0.496706 0
M  V30 7701 O 750.284 2.1313 0.374749 0
M  V30 7702 C 750.879 1.68886 -2.93706 0
M  V30 7703 C 749.438 2.21404 -3.04397 0
M  V30 7704 C 748.585 1.03075 -2.57431 0
M  V30 7705 H 751.536 0.129748 -1.58169 0
M  V30 7706 H 751.557 2.55116 -2.82305 0
M  V30 7707 H 751.069 0.982149 -3.75467 0
M  V30 7708 H 749.17 2.95274 -2.27253 0
M  V30 7709 H 749.283 2.48312 -4.09729 0
M  V30 7710 H 747.647 1.40188 -2.12649 0
M  V30 7711 H 748.43 0.338793 -3.41624 0
M  V30 7712 N 750.875 1.45233 0.611969 0
M  V30 7713 C 752.286 1.4354 1.19387 0
M  V30 7714 C 752.637 0.160713 1.95541 0
M  V30 7715 O 751.762 -0.737954 2.03429 0
M  V30 7716 C 752.357 2.60045 2.17169 0
M  V30 7717 C 750.916 2.61486 2.70744 0
M  V30 7718 C 750.063 2.35708 1.46072 0
M  V30 7719 H 753.014 1.53536 0.401529 0
M  V30 7720 H 753.035 2.33893 3.00124 0
M  V30 7721 H 752.547 3.52803 1.61714 0
M  V30 7722 H 750.648 1.72721 3.30149 0
M  V30 7723 H 750.761 3.60572 3.15476 0
M  V30 7724 H 749.125 1.85178 1.74875 0
M  V30 7725 H 749.908 3.30606 0.924922 0
M  V30 7726 N 752.353 -0.854086 1.3245 0
M  V30 7727 C 753.764 -1.42427 1.20712 0
M  V30 7728 C 754.115 -1.95371 -0.18013 0
M  V30 7729 O 753.24 -1.87587 -1.07889 0
M  V30 7730 C 753.835 -2.58897 2.18536 0
M  V30 7731 C 752.394 -3.11913 2.10683 0
M  V30 7732 C 751.541 -1.84661 2.06871 0
M  V30 7733 H 754.492 -0.661192 1.4427 0
M  V30 7734 H 754.513 -3.36074 1.78422 0
M  V30 7735 H 754.025 -2.20333 3.19492 0
M  V30 7736 H 752.126 -3.55059 1.12977 0
M  V30 7737 H 752.239 -3.73119 3.00532 0
M  V30 7738 H 750.603 -2.04285 1.52118 0
M  V30 7739 H 751.386 -1.48314 3.09609 0
M  V30 7740 N 753.831 -1.1567 -1.07043 0
M  V30 7741 C 755.242 -0.942408 -1.61169 0
M  V30 7742 C 755.593 0.515537 -1.89306 0
M  V30 7743 O 754.718 1.38726 -1.66084 0
M  V30 7744 C 755.313 -1.70431 -2.92812 0
M  V30 7745 C 753.872 -1.53521 -3.43669 0
M  V30 7746 C 753.019 -1.7179 -2.17678 0
M  V30 7747 H 755.97 -1.3065 -0.9009 0
M  V30 7748 H 755.991 -1.17566 -3.61882 0
M  V30 7749 H 755.503 -2.76538 -2.72302 0
M  V30 7750 H 753.604 -0.498224 -3.69254 0
M  V30 7751 H 753.717 -2.31422 -4.19501 0
M  V30 7752 H 752.081 -1.14468 -2.27529 0
M  V30 7753 H 752.864 -2.79269 -1.99659 0
M  V30 7754 N 755.309 1.25446 -0.953992 0
M  V30 7755 C 756.72 1.75047 -0.649255 0
M  V30 7756 C 757.071 1.77527 0.835385 0
M  V30 7757 O 756.196 1.39569 1.65377 0
M  V30 7758 C 756.791 3.17889 -1.17183 0
M  V30 7759 C 755.35 3.65052 -0.917267 0
M  V30 7760 C 754.497 2.44124 -1.31525 0
M  V30 7761 H 757.448 1.11342 -1.13087 0
M  V30 7762 H 757.469 3.76768 -0.531616 0
M  V30 7763 H 756.981 3.16052 -2.25239 0
M  V30 7764 H 755.082 3.72305 0.148354 0
M  V30 7765 H 755.195 4.53222 -1.55328 0
M  V30 7766 H 753.559 2.43906 -0.733624 0
M  V30 7767 H 754.342 2.44979 -2.405 0
M  V30 7768 N 756.787 0.722489 1.40064 0
M  V30 7769 C 758.198 0.336507 1.83642 0
M  V30 7770 C 758.549 -1.13002 1.6039 0
M  V30 7771 O 757.674 -1.87036 1.08842 0
M  V30 7772 C 758.269 0.603985 3.33373 0
M  V30 7773 C 756.828 0.271637 3.75419 0
M  V30 7774 C 755.975 0.872898 2.63203 0
M  V30 7775 H 758.926 0.921108 1.29233 0
M  V30 7776 H 758.947 -0.128471 3.80283 0
M  V30 7777 H 758.459 1.67141 3.50265 0
M  V30 7778 H 756.56 -0.790455 3.64119 0
M  V30 7779 H 756.673 0.745457 4.73265 0
M  V30 7780 H 755.037 0.300431 2.52922 0
M  V30 7781 H 755.82 1.94473 2.82905 0
M  V30 7782 N 758.265 -1.50454 0.469181 0
M  V30 7783 C 759.49 -2.0722 -0.0864892 0
M  V30 7784 C 759.915 -1.33098 -1.32916 0
M  V30 7785 O 759.273 -0.378084 -1.77314 0
M  V30 7786 C 759.321 -3.58845 -0.355384 0
M  V30 7787 O 758.425 -3.86583 -1.43622 0
M  V30 7788 H 757.766 -0.663889 0.0121414 0
M  V30 7789 H 760.296 -1.93674 0.659674 0
M  V30 7790 H 760.306 -4.03617 -0.596447 0
M  V30 7791 H 758.981 -4.12211 0.552698 0
M  V30 7792 H 757.558 -3.5365 -1.18262 0
M  V30 7793 N 759.743 -0.201713 -1.56304 0
M  V30 7794 C 760.968 0.443815 -2.02596 0
M  V30 7795 C 761.393 1.53945 -1.08086 0
M  V30 7796 O 760.751 1.81182 -0.0655056 0
M  V30 7797 C 760.799 0.971066 -3.47279 0
M  V30 7798 O 759.903 2.0836 -3.55893 0
M  V30 7799 H 759.244 0.10294 -0.655972 0
M  V30 7800 H 761.774 -0.314533 -2.02168 0
M  V30 7801 H 761.784 1.28598 -3.87204 0
M  V30 7802 H 760.459 0.169048 -4.15556 0
M  V30 7803 H 759.036 1.77683 -3.27846 0
M  V30 7804 N 761.222 1.57436 0.0718424 0
M  V30 7805 C 762.447 1.91858 0.787745 0
M  V30 7806 C 762.872 0.798119 1.70328 0
M  V30 7807 O 762.23 -0.24905 1.79581 0
M  V30 7808 C 762.278 3.25232 1.55744 0
M  V30 7809 O 761.382 3.14462 2.6681 0
M  V30 7810 H 760.723 0.628258 0.214914 0
M  V30 7811 H 763.253 2.04561 0.0401012 0
M  V30 7812 H 763.263 3.59105 1.9367 0
M  V30 7813 H 761.938 4.0636 0.885691 0
M  V30 7814 H 760.515 2.92148 2.31741 0
M  V30 7815 N 762.7 -0.34323 1.53817 0
M  V30 7816 C 763.633 -1.44472 1.76644 0
M  V30 7817 C 764.611 -1.50498 0.615556 0
M  V30 7818 O 765.795 -1.6821 0.850751 0
M  V30 7819 C 762.922 -2.82705 1.86536 0
M  V30 7820 C 761.968 -2.94302 3.08688 0
M  V30 7821 S 762.801 -2.60739 4.67735 0
M  V30 7822 C 763.957 -4.01079 4.80506 0
M  V30 7823 H 764.19 -1.24893 2.69794 0
M  V30 7824 H 761.723 -0.538915 1.4469 0
M  V30 7825 H 763.681 -3.62342 1.92921 0
M  V30 7826 H 762.342 -2.9958 0.943975 0
M  V30 7827 H 761.535 -3.95593 3.12286 0
M  V30 7828 H 761.137 -2.22614 3.00531 0
M  V30 7829 H 763.429 -4.95603 4.61935 0
M  V30 7830 H 764.372 -4.02475 5.82597 0
M  V30 7831 H 764.78 -3.89119 4.08958 0
M  V30 7832 N 764.178 -1.45556 -0.604258 0
M  V30 7833 C 765.141 -1.54091 -1.69672 0
M  V30 7834 C 766.141 -0.420076 -1.55216 0
M  V30 7835 O 767.331 -0.683671 -1.60224 0
M  V30 7836 C 764.463 -1.44063 -3.08964 0
M  V30 7837 H 765.656 -2.51431 -1.6347 0
M  V30 7838 H 763.209 -1.33046 -0.820273 0
M  V30 7839 H 763.944 -0.479201 -3.2074 0
M  V30 7840 H 763.729 -2.25362 -3.20865 0
M  V30 7841 H 765.219 -1.53075 -3.88533 0
M  V30 7842 N 765.656 0.84705 -1.32902 0
M  V30 7843 C 766.881 1.63925 -1.27056 0
M  V30 7844 C 767.306 1.87443 0.157136 0
M  V30 7845 O 766.664 1.43266 1.11106 0
M  V30 7846 C 766.712 2.97134 -2.04313 0
M  V30 7847 O 765.816 3.88049 -1.39614 0
M  V30 7848 H 765.157 0.499477 -0.437514 0
M  V30 7849 H 767.687 1.05443 -1.75336 0
M  V30 7850 H 767.697 3.46896 -2.14772 0
M  V30 7851 H 766.372 2.79339 -3.08128 0
M  V30 7852 H 764.949 3.46525 -1.3775 0
M  V30 7853 N 767.134 1.16236 1.06428 0
M  V30 7854 C 768.359 0.967688 1.83441 0
M  V30 7855 C 768.784 -0.479167 1.81894 0
M  V30 7856 O 768.142 -1.34224 1.21875 0
M  V30 7857 C 768.19 1.49806 3.2801 0
M  V30 7858 O 767.294 0.703481 4.06356 0
M  V30 7859 H 766.635 0.344468 0.56766 0
M  V30 7860 H 769.165 1.54442 1.34197 0
M  V30 7861 H 769.175 1.51495 3.78831 0
M  V30 7862 H 767.85 2.55133 3.2845 0
M  V30 7863 H 766.427 0.756986 3.65136 0
M  V30 7864 N 768.612 -1.24939 0.960631 0
M  V30 7865 C 769.84 -1.96881 0.636045 0
M  V30 7866 C 770.255 -1.71334 -0.793093 0
M  V30 7867 O 769.612 -0.992917 -1.53125 0
M  V30 7868 C 769.663 -3.50309 0.892533 0
M  V30 7869 O 769.384 -3.74977 2.26548 0
M  V30 7870 C 770.885 -4.39474 0.581159 0
M  V30 7871 H 768.105 -0.627399 0.237931 0
M  V30 7872 H 770.649 -1.58952 1.28664 0
M  V30 7873 H 768.804 -3.86326 0.288257 0
M  V30 7874 H 769.218 -4.69401 2.34014 0
M  V30 7875 H 770.692 -5.46008 0.811125 0
M  V30 7876 H 771.169 -4.3652 -0.48443 0
M  V30 7877 H 771.775 -4.09032 1.16502 0
M  V30 7878 N 770.09 -0.729906 -1.39679 0
M  V30 7879 C 771.501 -0.346241 -1.83461 0
M  V30 7880 C 771.852 1.1215 -1.60987 0
M  V30 7881 O 770.977 1.86456 -1.09832 0
M  V30 7882 C 771.572 -0.621656 -3.33048 0
M  V30 7883 C 770.131 -0.291543 -3.75269 0
M  V30 7884 C 769.278 -0.886844 -2.62736 0
M  V30 7885 H 772.229 -0.927949 -1.28743 0
M  V30 7886 H 772.25 0.108301 -3.80346 0
M  V30 7887 H 771.762 -1.68996 -3.49373 0
M  V30 7888 H 769.863 0.771133 -3.64533 0
M  V30 7889 H 769.976 -0.770544 -4.72863 0
M  V30 7890 H 768.34 -0.313839 -2.52759 0
M  V30 7891 H 769.123 -1.95971 -2.81869 0
M  V30 7892 N 771.568 1.50203 -0.477153 0
M  V30 7893 C 772.498 2.31517 0.303646 0
M  V30 7894 C 773.479 1.38696 0.984753 0
M  V30 7895 O 774.664 1.67615 0.980758 0
M  V30 7896 C 771.794 3.18598 1.38249 0
M  V30 7897 C 770.748 4.2002 0.822645 0
M  V30 7898 C 770.074 4.95878 2.00024 0
M  V30 7899 C 771.374 5.22023 -0.170185 0
M  V30 7900 H 773.068 2.97042 -0.375027 0
M  V30 7901 H 770.614 1.42848 -0.181802 0
M  V30 7902 H 772.567 3.74282 1.93625 0
M  V30 7903 H 771.291 2.5097 2.09002 0
M  V30 7904 H 769.95 3.65445 0.290813 0
M  V30 7905 H 769.598 4.24717 2.69489 0
M  V30 7906 H 769.298 5.64487 1.63183 0
M  V30 7907 H 770.822 5.54399 2.55878 0
M  V30 7908 H 772.236 5.72543 0.294606 0
M  V30 7909 H 770.633 5.98386 -0.453181 0
M  V30 7910 H 771.703 4.72396 -1.09408 0
M  V30 7911 N 773.046 0.209999 1.56195 0
M  V30 7912 C 774.457 -0.299943 1.84275 0
M  V30 7913 C 774.808 -1.60314 1.1311 0
M  V30 7914 O 773.933 -2.1273 0.396874 0
M  V30 7915 C 774.528 -0.550986 3.3429 0
M  V30 7916 C 773.087 -1.00526 3.62728 0
M  V30 7917 C 772.234 -0.0619828 2.77231 0
M  V30 7918 H 775.185 0.433458 1.52666 0
M  V30 7919 H 775.206 -1.39846 3.53869 0
M  V30 7920 H 774.718 0.397669 3.86057 0
M  V30 7921 H 772.819 -1.96768 3.16407 0
M  V30 7922 H 772.932 -0.887664 4.70805 0
M  V30 7923 H 771.296 -0.566648 2.48317 0
M  V30 7924 H 772.079 0.881383 3.31793 0
M  V30 7925 N 774.524 -1.57472 -0.0634922 0
M  V30 7926 C 775.77 -1.88792 -0.756903 0
M  V30 7927 C 776.125 -0.804679 -1.74765 0
M  V30 7928 O 775.418 0.19033 -1.90652 0
M  V30 7929 C 775.612 -3.24521 -1.49736 0
M  V30 7930 C 775.441 -4.45946 -0.579833 0
M  V30 7931 C 774.211 -5.04848 -0.213667 0
M  V30 7932 C 776.409 -5.14143 0.12703 0
M  V30 7933 N 774.391 -6.09795 0.708712 0
M  V30 7934 C 775.762 -6.1334 0.906295 0
M  V30 7935 C 777.817 -4.97508 0.197625 0
M  V30 7936 C 776.52 -6.97697 1.74961 0
M  V30 7937 C 778.546 -5.82398 1.02794 0
M  V30 7938 C 777.908 -6.81139 1.79523 0
M  V30 7939 H 774.007 -0.740235 -0.252142 0
M  V30 7940 H 776.591 -1.94692 -0.0181026 0
M  V30 7941 H 774.762 -3.19615 -2.20683 0
M  V30 7942 H 776.494 -3.43464 -2.14044 0
M  V30 7943 H 773.249 -4.70177 -0.568357 0
M  V30 7944 H 773.673 -6.66929 1.16339 0
M  V30 7945 H 778.315 -4.21077 -0.381261 0
M  V30 7946 H 776.033 -7.73496 2.33943 0
M  V30 7947 H 779.619 -5.71581 1.08565 0
M  V30 7948 H 778.499 -7.45687 2.42736 0
M  V30 7949 N 776.003 0.335068 -1.53997 0
M  V30 7950 C 776.935 1.4327 -1.78903 0
M  V30 7951 C 777.948 1.48347 -0.670598 0
M  V30 7952 O 779.137 1.51277 -0.947494 0
M  V30 7953 C 776.237 2.81878 -1.88144 0
M  V30 7954 C 775.41 3.00141 -3.18174 0
M  V30 7955 C 774.469 4.19041 -3.18263 0
M  V30 7956 O 773.495 4.12751 -3.9195 0
M  V30 7957 N 774.697 5.28004 -2.41231 0
M  V30 7958 H 777.462 1.22272 -2.73623 0
M  V30 7959 H 775.023 0.524996 -1.53152 0
M  V30 7960 H 777.015 3.59609 -1.85644 0
M  V30 7961 H 775.585 2.9598 -1.00572 0
M  V30 7962 H 774.805 2.09808 -3.33728 0
M  V30 7963 H 776.093 3.0923 -4.04047 0
M  V30 7964 H 775.491 5.35986 -1.8093 0
M  V30 7965 H 774.048 6.04196 -2.44521 0
M  V30 7966 N 777.481 1.45874 0.596531 0
M  V30 7967 C 778.413 1.51408 1.7207 0
M  V30 7968 C 779.426 0.403738 1.57714 0
M  V30 7969 O 780.615 0.671384 1.65393 0
M  V30 7970 C 777.715 1.3652 3.10186 0
M  V30 7971 C 776.888 2.61428 3.50677 0
M  V30 7972 C 775.947 2.40937 4.67799 0
M  V30 7973 O 774.973 3.14602 4.74357 0
M  V30 7974 N 776.175 1.4621 5.61785 0
M  V30 7975 H 778.94 2.48333 1.67782 0
M  V30 7976 H 776.501 1.41755 0.782129 0
M  V30 7977 H 778.493 1.20606 3.86311 0
M  V30 7978 H 777.063 0.478302 3.08919 0
M  V30 7979 H 776.283 2.92381 2.644 0
M  V30 7980 H 777.571 3.44432 3.74491 0
M  V30 7981 H 776.969 0.854382 5.59211 0
M  V30 7982 H 775.526 1.36264 6.37397 0
M  V30 7983 N 778.959 -0.83999 1.33349 0
M  V30 7984 C 779.907 -1.97113 1.23488 0
M  V30 7985 C 780.901 -1.68849 0.136503 0
M  V30 7986 O 782.107 -1.77476 0.300389 0
M  V30 7987 H 778.482 -0.647049 0.383185 0
M  V30 7988 H 780.453 -2.02554 2.19122 0
M  V30 7989 C 779.202 -3.33314 0.989815 0
M  V30 7990 H 778.525 -3.556 1.82726 0
M  V30 7991 H 779.965 -4.12963 0.961123 0
M  V30 7992 C 778.424 -3.35496 -0.307272 0
M  V30 7993 O 778.954 -3.79589 -1.31434 0
M  V30 7994 N 777.16 -2.88669 -0.334414 0
M  V30 7995 H 776.707 -2.5298 0.485659 0
M  V30 7996 H 776.665 -2.90512 -1.20209 0
M  V30 7997 N 780.437 -1.16799 -1.0581 0
M  V30 7998 C 781.665 -0.97687 -1.82387 0
M  V30 7999 C 782.08 0.474917 -1.82729 0
M  V30 8000 O 781.437 1.3297 -1.25001 0
M  V30 8001 C 781.488 -1.50279 -3.28783 0
M  V30 8002 O 781.209 -2.89772 -3.28578 0
M  V30 8003 C 782.71 -1.35538 -4.22071 0
M  V30 8004 H 779.93 -0.345977 -0.574927 0
M  V30 8005 H 782.474 -1.54942 -1.33466 0
M  V30 8006 H 780.629 -0.972414 -3.74997 0
M  V30 8007 H 781.043 -3.13954 -4.20159 0
M  V30 8008 H 782.517 -1.7716 -5.22799 0
M  V30 8009 H 782.994 -0.301598 -4.38163 0
M  V30 8010 H 783.6 -1.87562 -3.81708 0
M  V30 8011 N 781.915 1.24427 -0.967243 0
M  V30 8012 C 783.143 1.96541 -0.646477 0
M  V30 8013 C 783.558 1.71753 0.783996 0
M  V30 8014 O 782.915 1.00102 1.52597 0
M  V30 8015 C 782.966 3.4983 -0.911098 0
M  V30 8016 O 782.687 3.7377 -2.28534 0
M  V30 8017 C 784.188 4.3916 -0.604458 0
M  V30 8018 H 781.408 0.626129 -0.241255 0
M  V30 8019 H 783.952 1.58268 -1.29505 0
M  V30 8020 H 782.107 3.86168 -0.308741 0
M  V30 8021 H 782.521 4.68154 -2.365 0
M  V30 8022 H 783.995 5.4557 -0.840069 0
M  V30 8023 H 784.472 4.36771 0.461273 0
M  V30 8024 H 785.078 4.08409 -1.1867 0
M  V30 8025 N 783.393 0.737304 1.3929 0
M  V30 8026 C 784.621 0.296573 2.04763 0
M  V30 8027 C 785.036 -1.06941 1.55592 0
M  V30 8028 O 784.393 -1.67619 0.721822 0
M  V30 8029 C 784.444 0.291906 3.6032 0
M  V30 8030 O 784.165 1.60397 4.07682 0
M  V30 8031 C 785.666 -0.164708 4.42994 0
M  V30 8032 H 782.886 0.129251 0.658434 0
M  V30 8033 H 785.43 1.0016 1.78293 0
M  V30 8034 H 783.585 -0.364251 3.85684 0
M  V30 8035 H 783.999 1.51909 5.0202 0
M  V30 8036 H 785.473 -0.116814 5.51876 0
M  V30 8037 H 785.95 -1.21022 4.22197 0
M  V30 8038 H 786.556 0.461968 4.22784 0
M  V30 8039 N 784.871 -1.49948 0.485112 0
M  V30 8040 C 786.099 -2.06806 -0.0622824 0
M  V30 8041 C 786.514 -1.34736 -1.32256 0
M  V30 8042 O 785.871 -0.420836 -1.77582 0
M  V30 8043 C 785.922 -3.59934 -0.336096 0
M  V30 8044 O 785.643 -4.29289 0.874203 0
M  V30 8045 C 787.144 -4.33459 -0.928903 0
M  V30 8046 H 784.364 -0.670867 0.0133472 0
M  V30 8047 H 786.908 -1.92937 0.677917 0
M  V30 8048 H 785.063 -3.7356 -1.02625 0
M  V30 8049 H 785.477 -5.20735 0.627332 0
M  V30 8050 H 786.951 -5.41527 -1.07017 0
M  V30 8051 H 787.428 -3.94881 -1.92265 0
M  V30 8052 H 788.034 -4.24399 -0.276705 0
M  V30 8053 N 786.349 -0.21828 -1.56081 0
M  V30 8054 C 787.577 0.419258 -2.02608 0
M  V30 8055 C 787.992 1.53578 -1.09814 0
M  V30 8056 O 787.349 1.82185 -0.107149 0
M  V30 8057 C 787.4 0.953955 -3.48686 0
M  V30 8058 O 787.121 -0.11805 -4.37941 0
M  V30 8059 C 788.622 1.66506 -4.10841 0
M  V30 8060 H 785.842 0.10296 -0.663054 0
M  V30 8061 H 788.386 -0.333776 -2.01758 0
M  V30 8062 H 786.541 1.65727 -3.50162 0
M  V30 8063 H 786.955 0.283359 -5.23734 0
M  V30 8064 H 788.429 1.99123 -5.14834 0
M  V30 8065 H 788.906 2.57705 -3.55647 0
M  V30 8066 H 789.512 1.00703 -4.13206 0
M  V30 8067 N 787.827 1.57504 0.0551401 0
M  V30 8068 C 789.055 1.92294 0.76358 0
M  V30 8069 C 789.47 0.815774 1.70266 0
M  V30 8070 O 788.827 -0.209772 1.8129 0
M  V30 8071 C 788.878 3.26914 1.54302 0
M  V30 8072 O 788.599 4.33375 0.641666 0
M  V30 8073 C 790.1 3.75825 2.35097 0
M  V30 8074 H 787.32 0.635229 0.216159 0
M  V30 8075 H 789.864 2.0449 0.0204385 0
M  V30 8076 H 788.019 3.16196 2.23828 0
M  V30 8077 H 788.433 5.10927 1.1855 0
M  V30 8078 H 789.907 4.72603 2.8522 0
M  V30 8079 H 790.384 3.0568 3.15367 0
M  V30 8080 H 790.99 3.89542 1.70696 0
M  V30 8081 N 789.305 -0.326896 1.54172 0
M  V30 8082 C 790.53 -1.08924 1.76494 0
M  V30 8083 C 790.955 -1.81039 0.510523 0
M  V30 8084 O 790.313 -1.73141 -0.537756 0
M  V30 8085 C 790.361 -2.06558 2.95578 0
M  V30 8086 O 789.465 -3.14394 2.6689 0
M  V30 8087 H 788.806 -0.314216 0.584948 0
M  V30 8088 H 791.336 -0.372207 2.01186 0
M  V30 8089 H 791.346 -2.49487 3.22832 0
M  V30 8090 H 790.021 -1.53469 3.86549 0
M  V30 8091 H 788.598 -2.76164 2.50576 0
M  V30 8092 N 790.784 -1.46188 -0.588786 0
M  V30 8093 C 791.747 -1.55882 -1.68029 0
M  V30 8094 C 792.747 -0.436515 -1.54762 0
M  V30 8095 O 793.937 -0.700626 -1.59489 0
M  V30 8096 C 791.069 -1.47332 -3.07418 0
M  V30 8097 H 792.262 -2.5315 -1.60795 0
M  V30 8098 H 789.815 -1.33908 -0.806116 0
M  V30 8099 H 790.55 -0.513193 -3.20214 0
M  V30 8100 H 790.335 -2.28753 -3.18456 0
M  V30 8101 H 791.825 -1.57187 -3.86887 0
M  V30 8102 N 792.262 0.832906 -1.33792 0
M  V30 8103 C 793.51 1.58539 -1.25338 0
M  V30 8104 C 793.831 1.94175 0.179204 0
M  V30 8105 O 793.101 1.61458 1.10941 0
M  V30 8106 H 791.681 0.58784 -0.460926 0
M  V30 8107 H 794.343 0.995064 -1.67584 0
M  V30 8108 H 793.439 2.51268 -1.85123 0
M  V30 8109 N 793.74 1.17359 1.05189 0
M  V30 8110 C 794.968 0.986529 1.81866 0
M  V30 8111 C 795.383 -0.46522 1.82979 0
M  V30 8112 O 794.74 -1.32305 1.25705 0
M  V30 8113 C 794.791 1.52021 3.27982 0
M  V30 8114 O 794.512 2.91511 3.27037 0
M  V30 8115 C 796.013 1.37774 4.21347 0
M  V30 8116 H 793.233 0.349021 0.573084 0
M  V30 8117 H 795.777 1.55648 1.32643 0
M  V30 8118 H 793.932 0.992287 3.74476 0
M  V30 8119 H 794.346 3.16178 4.18488 0
M  V30 8120 H 795.82 1.7993 5.21852 0
M  V30 8121 H 796.297 0.32483 4.37997 0
M  V30 8122 H 796.903 1.89583 3.80708 0
M  V30 8123 N 795.218 -1.23913 0.973828 0
M  V30 8124 C 796.466 -1.91771 0.637817 0
M  V30 8125 C 796.787 -1.76434 -0.830435 0
M  V30 8126 O 796.057 -1.13965 -1.59339 0
M  V30 8127 H 794.637 -0.709761 0.232912 0
M  V30 8128 H 797.299 -1.50677 1.23622 0
M  V30 8129 H 796.395 -2.99327 0.883731 0
M  V30 8130 N 796.696 -0.74468 -1.38897 0
M  V30 8131 C 797.921 -0.306119 -2.05128 0
M  V30 8132 C 798.346 1.0541 -1.55789 0
M  V30 8133 O 797.704 1.66993 -0.705909 0
M  V30 8134 C 797.752 -0.328195 -3.59103 0
M  V30 8135 O 796.856 0.680876 -4.06741 0
M  V30 8136 H 796.197 -0.137209 -0.649669 0
M  V30 8137 H 798.727 -1.01331 -1.77745 0
M  V30 8138 H 798.737 -0.175956 -4.0762 0
M  V30 8139 H 797.412 -1.32067 -3.94374 0
M  V30 8140 H 795.989 0.49398 -3.69614 0
M  V30 8141 N 798.174 1.49689 -0.493057 0
M  V30 8142 C 799.423 2.01622 0.0560733 0
M  V30 8143 C 799.736 1.37838 1.3878 0
M  V30 8144 O 800.942 1.81054 2.02316 0
M  V30 8145 C 799.398 3.59586 0.150409 0
M  V30 8146 C 799.006 4.32338 -1.1742 0
M  V30 8147 C 800.75 4.19489 0.650327 0
M  V30 8148 C 798.657 5.8214 -1.04246 0
M  V30 8149 H 797.587 0.753594 0.0247297 0
M  V30 8150 H 800.238 1.723 -0.631279 0
M  V30 8151 H 798.62 3.8559 0.902035 0
M  V30 8152 H 799.794 4.18042 -1.9385 0
M  V30 8153 H 798.109 3.84144 -1.60694 0
M  V30 8154 H 800.706 5.29181 0.766272 0
M  V30 8155 H 801.049 3.82326 1.6472 0
M  V30 8156 H 801.582 3.97775 -0.0445371 0
M  V30 8157 H 798.321 6.23814 -2.01336 0
M  V30 8158 H 797.841 5.98952 -0.31892 0
M  V30 8159 H 799.52 6.43004 -0.717957 0
M  V30 8160 N 799.652 0.226554 1.55963 0
M  V30 8161 C 801.063 -0.280381 1.84583 0
M  V30 8162 C 801.414 -1.59105 1.14804 0
M  V30 8163 O 800.539 -2.12297 0.419414 0
M  V30 8164 C 801.134 -0.515499 3.34855 0
M  V30 8165 C 799.693 -0.966733 3.63774 0
M  V30 8166 C 798.84 -0.0325753 2.77281 0
M  V30 8167 H 801.791 0.449626 1.52197 0
M  V30 8168 H 801.812 -1.36085 3.55332 0
M  V30 8169 H 801.324 0.438594 3.85614 0
M  V30 8170 H 799.425 -1.93401 3.18476 0
M  V30 8171 H 799.538 -0.837679 4.7172 0
M  V30 8172 H 797.902 -0.540279 2.48904 0
M  V30 8173 H 798.685 0.916524 3.30839 0
M  V30 8174 N 801.13 -1.57531 -0.0467866 0
M  V30 8175 C 802.541 -1.76945 -0.595603 0
M  V30 8176 C 802.892 -0.855354 -1.76573 0
M  V30 8177 O 802.017 -0.045668 -2.16352 0
M  V30 8178 C 802.612 -3.20881 -1.08725 0
M  V30 8179 C 801.171 -3.41553 -1.58172 0
M  V30 8180 C 800.318 -2.72533 -0.511968 0
M  V30 8181 H 803.269 -1.57682 0.179436 0
M  V30 8182 H 803.29 -3.26419 -1.95528 0
M  V30 8183 H 802.802 -3.87385 -0.235398 0
M  V30 8184 H 800.903 -2.80199 -2.456 0
M  V30 8185 H 801.016 -4.50104 -1.64143 0
M  V30 8186 H 799.38 -2.35797 -0.962899 0
M  V30 8187 H 800.163 -3.41709 0.330117 0
M  V30 8188 N 802.608 0.318715 -1.54344 0
M  V30 8189 C 803.854 1.05383 -1.73971 0
M  V30 8190 C 804.209 1.85524 -0.509781 0
M  V30 8191 O 803.502 1.8502 0.49782 0
M  V30 8192 C 803.696 2.00514 -2.95853 0
M  V30 8193 C 803.525 1.29728 -4.30582 0
M  V30 8194 C 802.295 1.03177 -4.94654 0
M  V30 8195 C 804.493 0.710718 -5.09366 0
M  V30 8196 N 802.475 0.29232 -6.13204 0
M  V30 8197 C 803.846 0.103132 -6.19914 0
M  V30 8198 C 805.901 0.614011 -4.94099 0
M  V30 8199 C 804.604 -0.591782 -7.16862 0
M  V30 8200 C 806.63 -0.0672115 -5.91362 0
M  V30 8201 C 805.992 -0.663721 -7.01266 0
M  V30 8202 H 802.091 0.369157 -0.689382 0
M  V30 8203 H 804.675 0.334453 -1.91806 0
M  V30 8204 H 802.846 2.69719 -2.79475 0
M  V30 8205 H 804.578 2.67046 -3.04086 0
M  V30 8206 H 801.333 1.32536 -4.54677 0
M  V30 8207 H 801.757 -0.0634005 -6.7697 0
M  V30 8208 H 806.399 1.06091 -4.09273 0
M  V30 8209 H 804.117 -1.0505 -8.01243 0
M  V30 8210 H 807.703 -0.141742 -5.81627 0
M  V30 8211 H 806.583 -1.18248 -7.75234 0
M  V30 8212 N 804.086 1.46499 0.581025 0
M  V30 8213 C 805.018 1.53225 1.70455 0
M  V30 8214 C 806.031 0.420443 1.57277 0
M  V30 8215 O 807.22 0.688888 1.64671 0
M  V30 8216 C 804.32 1.39803 3.08721 0
M  V30 8217 C 803.493 2.65132 3.47884 0
M  V30 8218 C 802.552 2.45886 4.65217 0
M  V30 8219 O 801.578 3.19615 4.70993 0
M  V30 8220 N 802.78 1.5216 5.60203 0
M  V30 8221 H 805.545 2.50098 1.65139 0
M  V30 8222 H 803.106 1.42576 0.76705 0
M  V30 8223 H 805.098 1.24697 3.8501 0
M  V30 8224 H 803.668 0.51104 3.08394 0
M  V30 8225 H 802.888 2.95169 2.61284 0
M  V30 8226 H 804.176 3.48385 3.70817 0
M  V30 8227 H 803.574 0.913646 5.58273 0
M  V30 8228 H 802.131 1.43017 6.35916 0
M  V30 8229 N 805.565 -0.825799 1.34232 0
M  V30 8230 C 806.497 -1.94401 1.21413 0
M  V30 8231 C 807.51 -1.6218 0.141902 0
M  V30 8232 O 808.699 -1.74109 0.3935 0
M  V30 8233 C 805.799 -3.28257 0.842635 0
M  V30 8234 C 804.972 -3.88521 2.00924 0
M  V30 8235 C 804.031 -5.00752 1.61661 0
M  V30 8236 O 803.057 -5.19201 2.33279 0
M  V30 8237 N 804.259 -5.78084 0.52911 0
M  V30 8238 H 807.024 -2.05931 2.17744 0
M  V30 8239 H 804.585 -1.00223 1.27149 0
M  V30 8240 H 806.577 -4.00781 0.561822 0
M  V30 8241 H 805.147 -3.12585 -0.0304029 0
M  V30 8242 H 804.367 -3.08425 2.45495 0
M  V30 8243 H 805.655 -4.25516 2.78951 0
M  V30 8244 H 805.053 -5.65661 -0.0663322 0
M  V30 8245 H 803.61 -6.51072 0.308017 0
M  V30 8246 N 807.043 -1.17915 -1.04565 0
M  V30 8247 C 807.975 -0.859359 -2.1248 0
M  V30 8248 C 808.988 0.140922 -1.62189 0
M  V30 8249 O 810.177 -0.0862361 -1.78292 0
M  V30 8250 C 807.277 -0.261811 -3.37887 0
M  V30 8251 C 806.45 -1.30651 -4.17431 0
M  V30 8252 C 805.509 -0.725575 -5.21174 0
M  V30 8253 O 804.535 -1.39901 -5.51739 0
M  V30 8254 N 805.737 0.479351 -5.78517 0
M  V30 8255 H 808.502 -1.78818 -2.40508 0
M  V30 8256 H 806.063 -1.07885 -1.20716 0
M  V30 8257 H 808.055 0.14028 -4.04457 0
M  V30 8258 H 806.625 0.570929 -3.07342 0
M  V30 8259 H 805.845 -1.88412 -3.46258 0
M  V30 8260 H 807.133 -2.01099 -4.67372 0
M  V30 8261 H 806.531 1.04431 -5.55977 0
M  V30 8262 H 805.088 0.823427 -6.46578 0
M  V30 8263 N 808.521 1.23394 -0.980386 0
M  V30 8264 C 809.453 2.24146 -0.478657 0
M  V30 8265 C 810.466 1.57303 0.419492 0
M  V30 8266 O 811.655 1.77094 0.223631 0
M  V30 8267 C 808.755 3.3732 0.326913 0
M  V30 8268 C 807.928 4.33744 -0.56436 0
M  V30 8269 C 806.987 5.25866 0.187358 0
M  V30 8270 O 806.013 5.67626 -0.423019 0
M  V30 8271 N 807.215 5.61492 1.47335 0
M  V30 8272 H 809.98 2.67826 -1.34496 0
M  V30 8273 H 807.541 1.37566 -0.853653 0
M  V30 8274 H 809.533 3.95926 0.838148 0
M  V30 8275 H 808.103 2.92823 1.09422 0
M  V30 8276 H 807.323 3.73641 -1.25642 0
M  V30 8277 H 808.611 4.95123 -1.17177 0
M  V30 8278 H 808.009 5.29514 1.99077 0
M  V30 8279 H 806.566 6.2257 1.93002 0
M  V30 8280 N 809.999 0.752036 1.385 0
M  V30 8281 C 810.962 0.131587 2.28822 0
M  V30 8282 C 811.962 -0.649149 1.47115 0
M  V30 8283 O 813.152 -0.475645 1.67581 0
M  V30 8284 C 810.284 -0.822101 3.30839 0
M  V30 8285 H 811.477 0.927551 2.85196 0
M  V30 8286 H 809.03 0.518945 1.47434 0
M  V30 8287 H 809.765 -1.6438 2.79553 0
M  V30 8288 H 809.55 -0.264689 3.91206 0
M  V30 8289 H 811.04 -1.25226 3.98382 0
M  V30 8290 N 811.477 -1.49425 0.500989 0
M  V30 8291 C 812.44 -2.27646 -0.266416 0
M  V30 8292 C 813.44 -1.3366 -0.893961 0
M  V30 8293 O 814.63 -1.5682 -0.758495 0
M  V30 8294 C 811.762 -3.11618 -1.38227 0
M  V30 8295 H 812.955 -2.96945 0.419973 0
M  V30 8296 H 810.508 -1.5419 0.255954 0
M  V30 8297 H 811.243 -2.46885 -2.10281 0
M  V30 8298 H 811.028 -3.80721 -0.937746 0
M  V30 8299 H 812.518 -3.70698 -1.92283 0
M  V30 8300 N 812.955 -0.234822 -1.55841 0
M  V30 8301 C 813.918 0.656378 -2.196 0
M  V30 8302 C 814.918 1.11179 -1.16171 0
M  V30 8303 O 816.108 1.01845 -1.41326 0
M  V30 8304 C 813.24 1.90072 -2.82993 0
M  V30 8305 H 814.433 0.100281 -2.99732 0
M  V30 8306 H 811.986 0.0147613 -1.56293 0
M  V30 8307 H 812.721 2.49836 -2.06767 0
M  V30 8308 H 812.506 1.5825 -3.58747 0
M  V30 8309 H 813.996 2.53538 -3.31826 0
M  V30 8310 N 814.433 1.57553 0.0384317 0
M  V30 8311 C 815.396 2.04927 1.02653 0
M  V30 8312 C 816.396 0.951768 1.29607 0
M  V30 8313 O 817.586 1.21568 1.24768 0
M  V30 8314 C 814.718 2.45828 2.36181 0
M  V30 8315 H 815.911 2.93474 0.617508 0
M  V30 8316 H 813.464 1.53679 0.285031 0
M  V30 8317 H 814.199 1.60408 2.8185 0
M  V30 8318 H 813.984 3.25945 2.1795 0
M  V30 8319 H 815.474 2.82939 3.0714 0
M  V30 8320 N 815.911 -0.310526 1.54511 0
M  V30 8321 C 816.874 -1.3657 1.84068 0
M  V30 8322 C 817.874 -1.44123 0.713097 0
M  V30 8323 O 819.064 -1.43924 0.981399 0
M  V30 8324 C 816.196 -2.75162 2.01243 0
M  V30 8325 H 817.389 -1.1161 2.78358 0
M  V30 8326 H 814.942 -0.546699 1.46427 0
M  V30 8327 H 815.677 -3.05359 1.09208 0
M  V30 8328 H 815.462 -2.71071 2.83307 0
M  V30 8329 H 816.952 -3.51473 2.25514 0
M  V30 8330 N 817.389 -1.46805 -0.573248 0
M  V30 8331 C 818.614 -1.56433 -1.36175 0
M  V30 8332 C 819.039 -0.209336 -1.86932 0
M  V30 8333 O 818.397 0.812146 -1.62092 0
M  V30 8334 C 818.445 -2.58055 -2.51873 0
M  V30 8335 O 817.549 -2.12214 -3.53609 0
M  V30 8336 H 816.89 -0.526068 -0.405153 0
M  V30 8337 H 819.42 -1.92456 -0.694405 0
M  V30 8338 H 819.43 -2.77966 -2.98662 0
M  V30 8339 H 818.105 -3.56448 -2.14284 0
M  V30 8340 H 816.682 -2.02333 -3.13234 0
M  V30 8341 N 818.867 0.818669 -1.34668 0
M  V30 8342 C 820.278 1.39177 -1.24446 0
M  V30 8343 C 820.629 1.9578 0.128268 0
M  V30 8344 O 819.754 1.90382 1.02877 0
M  V30 8345 C 820.349 2.53012 -2.25323 0
M  V30 8346 C 818.908 3.06218 -2.18878 0
M  V30 8347 C 818.055 1.79112 -2.11694 0
M  V30 8348 H 821.006 0.622709 -1.45973 0
M  V30 8349 H 821.027 3.31226 -1.8727 0
M  V30 8350 H 820.539 2.11784 -3.25221 0
M  V30 8351 H 818.64 3.51939 -1.22351 0
M  V30 8352 H 818.753 3.65019 -3.10319 0
M  V30 8353 H 817.117 2.0018 -1.57481 0
M  V30 8354 H 817.9 1.40053 -3.13433 0
M  V30 8355 N 820.346 1.18468 1.03938 0
M  V30 8356 C 821.594 0.978895 1.76811 0
M  V30 8357 C 821.915 -0.49257 1.88676 0
M  V30 8358 O 821.185 -1.3572 1.41269 0
M  V30 8359 H 819.765 0.359201 0.654968 0
M  V30 8360 H 822.427 1.49173 1.25433 0
M  V30 8361 H 821.523 1.418 2.78027 0
M  V30 8362 N 821.824 -1.22873 0.986916 0
M  V30 8363 C 822.787 -2.2281 0.537442 0
M  V30 8364 C 823.787 -1.56331 -0.37646 0
M  V30 8365 O 824.977 -1.73376 -0.169247 0
M  V30 8366 C 822.109 -3.40195 -0.219082 0
M  V30 8367 H 823.302 -2.64089 1.42116 0
M  V30 8368 H 820.855 -1.35819 0.773488 0
M  V30 8369 H 821.59 -3.04381 -1.11905 0
M  V30 8370 H 821.375 -3.89657 0.437026 0
M  V30 8371 H 822.865 -4.14326 -0.521926 0
M  V30 8372 N 823.302 -0.75937 -1.38099 0
M  V30 8373 C 824.713 -0.385078 -1.82686 0
M  V30 8374 C 825.064 1.0871 -1.6333 0
M  V30 8375 O 824.189 1.84084 -1.13762 0
M  V30 8376 C 824.784 -0.692161 -3.31654 0
M  V30 8377 C 823.343 -0.371077 -3.74566 0
M  V30 8378 C 822.49 -0.942375 -2.60796 0
M  V30 8379 H 825.441 -0.955048 -1.26746 0
M  V30 8380 H 825.462 0.0276001 -3.8049 0
M  V30 8381 H 824.974 -1.76369 -3.4571 0
M  V30 8382 H 823.075 0.693637 -3.66087 0
M  V30 8383 H 823.188 -0.870672 -4.71122 0
M  V30 8384 H 821.552 -0.367383 -2.52036 0
M  V30 8385 H 822.335 -2.01905 -2.77649 0
M  V30 8386 N 824.78 1.49157 -0.508906 0
M  V30 8387 C 825.712 2.272 0.302115 0
M  V30 8388 C 826.725 1.3407 0.923529 0
M  V30 8389 O 827.914 1.5929 0.805532 0
M  V30 8390 C 825.014 3.06736 1.44105 0
M  V30 8391 C 824.187 4.27497 0.925477 0
M  V30 8392 C 823.246 4.89014 1.94297 0
M  V30 8393 O 822.272 5.48851 1.50834 0
M  V30 8394 N 823.474 4.7937 3.2739 0
M  V30 8395 H 826.239 2.97443 -0.367115 0
M  V30 8396 H 823.8 1.58248 -0.341933 0
M  V30 8397 H 825.792 3.44763 2.11944 0
M  V30 8398 H 824.362 2.3905 2.0143 0
M  V30 8399 H 823.582 3.94135 0.0717301 0
M  V30 8400 H 824.87 5.05714 0.55955 0
M  V30 8401 H 824.268 4.31869 3.65384 0
M  V30 8402 H 822.825 5.21559 3.90922 0
M  V30 8403 N 826.258 0.243083 1.55714 0
M  V30 8404 C 827.191 -0.698623 2.17243 0
M  V30 8405 C 828.169 -1.1756 1.12331 0
M  V30 8406 O 829.353 -1.25444 1.40699 0
M  V30 8407 C 826.48 -1.94901 2.77004 0
M  V30 8408 C 825.526 -1.61022 3.94936 0
M  V30 8409 S 826.359 -0.716173 5.30689 0
M  V30 8410 C 827.515 -1.97565 5.93901 0
M  V30 8411 H 827.748 -0.175724 2.9678 0
M  V30 8412 H 825.281 0.0275727 1.54375 0
M  V30 8413 H 827.239 -2.66687 3.12071 0
M  V30 8414 H 825.9 -2.44304 1.9742 0
M  V30 8415 H 825.093 -2.5398 4.35328 0
M  V30 8416 H 824.695 -0.972829 3.61126 0
M  V30 8417 H 826.987 -2.92333 6.11186 0
M  V30 8418 H 827.93 -1.61528 6.8943 0
M  V30 8419 H 828.338 -2.126 5.22935 0
M  V30 8420 N 827.736 -1.57571 -0.0300757 0
M  V30 8421 C 828.668 -2.0329 -1.05857 0
M  V30 8422 C 829.681 -0.945543 -1.32527 0
M  V30 8423 O 830.87 -1.22287 -1.30032 0
M  V30 8424 C 827.97 -2.39234 -2.40042 0
M  V30 8425 C 827.143 -3.70337 -2.32743 0
M  V30 8426 C 826.202 -3.93482 -3.49369 0
M  V30 8427 O 825.228 -4.64551 -3.28909 0
M  V30 8428 N 826.43 -3.39042 -4.71201 0
M  V30 8429 H 829.195 -2.9214 -0.668897 0
M  V30 8430 H 826.756 -1.60425 -0.218038 0
M  V30 8431 H 828.748 -2.51856 -3.16782 0
M  V30 8432 H 827.318 -1.5606 -2.70858 0
M  V30 8433 H 826.538 -3.68079 -1.41109 0
M  V30 8434 H 827.826 -4.56343 -2.25007 0
M  V30 8435 H 827.224 -2.81434 -4.90725 0
M  V30 8436 H 825.781 -3.57045 -5.45309 0
M  V30 8437 N 829.214 0.302327 -1.54673 0
M  V30 8438 C 830.462 1.03565 -1.73547 0
M  V30 8439 C 830.783 1.87843 -0.523448 0
M  V30 8440 O 830.053 1.90367 0.462295 0
M  V30 8441 H 828.633 0.385358 -0.639928 0
M  V30 8442 H 831.295 0.333632 -1.92023 0
M  V30 8443 H 830.391 1.68952 -2.62415 0
M  V30 8444 N 830.692 1.47107 0.565454 0
M  V30 8445 C 831.64 1.59368 1.69424 0
M  V30 8446 C 832.634 0.461344 1.62997 0
M  V30 8447 O 833.84 0.638849 1.68282 0
M  V30 8448 H 830.215 0.501387 0.560459 0
M  V30 8449 H 832.186 2.54242 1.56217 0
M  V30 8450 C 830.935 1.61739 3.07792 0
M  V30 8451 H 830.258 2.48215 3.13416 0
M  V30 8452 H 831.698 1.7437 3.86486 0
M  V30 8453 C 830.157 0.349156 3.35086 0
M  V30 8454 O 830.687 -0.553287 3.97871 0
M  V30 8455 N 828.893 0.231723 2.89675 0
M  V30 8456 H 828.44 0.967021 2.3876 0
M  V30 8457 H 828.398 -0.615911 3.08308 0
M  V30 8458 N 832.17 -0.811516 1.35101 0
M  V30 8459 C 833.581 -1.38515 1.25182 0
M  V30 8460 C 833.932 -1.95846 -0.117883 0
M  V30 8461 O 833.057 -1.90925 -1.01866 0
M  V30 8462 C 833.652 -2.51813 2.26662 0
M  V30 8463 C 832.211 -3.05052 2.20499 0
M  V30 8464 C 831.358 -1.77987 2.12641 0
M  V30 8465 H 834.309 -0.614959 1.46301 0
M  V30 8466 H 834.33 -3.30228 1.89023 0
M  V30 8467 H 833.842 -2.10057 3.2634 0
M  V30 8468 H 831.943 -3.51285 1.24215 0
M  V30 8469 H 832.056 -3.63368 3.1225 0
M  V30 8470 H 830.42 -1.99342 1.5854 0
M  V30 8471 H 831.203 -1.38389 3.14171 0
M  V30 8472 N 833.648 -1.19017 -1.03309 0
M  V30 8473 C 834.876 -1.01534 -1.80273 0
M  V30 8474 C 835.291 0.43605 -1.83696 0
M  V30 8475 O 834.648 1.30288 -1.27794 0
M  V30 8476 C 834.699 -1.5722 -3.25522 0
M  V30 8477 O 834.42 -2.96677 -3.22358 0
M  V30 8478 C 835.921 -1.4446 -4.19102 0
M  V30 8479 H 833.141 -0.358094 -0.567459 0
M  V30 8480 H 835.685 -1.57738 -1.3015 0
M  V30 8481 H 833.84 -1.05174 -3.7285 0
M  V30 8482 H 834.254 -3.22795 -4.13405 0
M  V30 8483 H 835.728 -1.88209 -5.18923 0
M  V30 8484 H 836.205 -0.394471 -4.37425 0
M  V30 8485 H 836.811 -1.95616 -3.77643 0
M  V30 8486 N 835.127 1.22348 -0.993418 0
M  V30 8487 C 836.06 2.22898 -0.489073 0
M  V30 8488 C 837.038 1.56222 0.450927 0
M  V30 8489 O 838.222 1.84705 0.376351 0
M  V30 8490 C 835.349 3.37448 0.290946 0
M  V30 8491 C 834.395 4.22328 -0.595123 0
M  V30 8492 S 835.228 4.94677 -2.05072 0
M  V30 8493 C 836.384 6.12667 -1.28021 0
M  V30 8494 H 836.617 2.65333 -1.34111 0
M  V30 8495 H 834.15 1.32032 -0.800429 0
M  V30 8496 H 836.108 4.03867 0.734944 0
M  V30 8497 H 834.769 2.93519 1.11826 0
M  V30 8498 H 833.962 5.04 0.00507413 0
M  V30 8499 H 833.564 3.61043 -0.975906 0
M  V30 8500 H 835.856 6.75279 -0.548129 0
M  V30 8501 H 836.799 6.771 -2.07223 0
M  V30 8502 H 837.207 5.58898 -0.793272 0
M  V30 8503 N 836.605 0.766683 1.37694 0
M  V30 8504 C 837.851 0.329201 2.0011 0
M  V30 8505 C 838.184 -1.09004 1.60723 0
M  V30 8506 O 837.459 -1.74895 0.850989 0
M  V30 8507 C 837.742 0.466989 3.57059 0
M  V30 8508 C 837.595 1.92828 4.06371 0
M  V30 8509 C 838.914 -0.131792 4.39903 0
M  V30 8510 H 836.033 0.12109 0.726984 0
M  V30 8511 H 838.675 0.968779 1.63446 0
M  V30 8512 H 836.825 -0.0775023 3.88423 0
M  V30 8513 H 838.497 2.53208 3.85595 0
M  V30 8514 H 836.74 2.43884 3.58752 0
M  V30 8515 H 837.411 1.97577 5.15429 0
M  V30 8516 H 839.887 0.332731 4.14768 0
M  V30 8517 H 838.763 -0.005217 5.489 0
M  V30 8518 H 839.024 -1.22156 4.24889 0
M  V30 8519 N 838.083 -1.48885 0.516809 0
M  V30 8520 C 839.494 -1.86557 0.0729921 0
M  V30 8521 C 839.845 -1.42767 -1.34581 0
M  V30 8522 O 838.97 -0.812514 -2.00567 0
M  V30 8523 C 839.565 -3.38567 0.125686 0
M  V30 8524 C 838.124 -3.75481 -0.262867 0
M  V30 8525 C 837.271 -2.72913 0.491281 0
M  V30 8526 H 840.222 -1.40978 0.728767 0
M  V30 8527 H 840.243 -3.74629 -0.665831 0
M  V30 8528 H 839.755 -3.70408 1.15842 0
M  V30 8529 H 837.856 -3.49251 -1.29824 0
M  V30 8530 H 837.969 -4.79052 0.067579 0
M  V30 8531 H 836.333 -2.54627 -0.0608525 0
M  V30 8532 H 837.116 -3.07599 1.5244 0
M  V30 8533 N 839.561 -0.251338 -1.55583 0
M  V30 8534 C 840.491 0.640437 -2.24545 0
M  V30 8535 C 841.472 1.17781 -1.22726 0
M  V30 8536 O 842.657 1.21633 -1.5139 0
M  V30 8537 C 839.787 1.8355 -2.94834 0
M  V30 8538 C 838.741 1.4307 -4.03379 0
M  V30 8539 C 838.067 2.70695 -4.61116 0
M  V30 8540 C 839.367 0.59848 -5.1886 0
M  V30 8541 H 841.061 0.0653772 -2.99329 0
M  V30 8542 H 838.607 0.0300042 -1.43969 0
M  V30 8543 H 840.56 2.46505 -3.4178 0
M  V30 8544 H 839.284 2.43601 -2.17546 0
M  V30 8545 H 837.943 0.824474 -3.57209 0
M  V30 8546 H 837.591 3.28954 -3.80524 0
M  V30 8547 H 837.291 2.44332 -5.34393 0
M  V30 8548 H 838.815 3.34541 -5.10798 0
M  V30 8549 H 840.229 1.13244 -5.62004 0
M  V30 8550 H 838.626 0.430728 -5.98552 0
M  V30 8551 H 839.696 -0.38829 -4.83343 0
M  V30 8552 N 841.039 1.57585 0.0217189 0
M  V30 8553 C 842.45 1.7787 0.567377 0
M  V30 8554 C 842.801 0.883337 1.7519 0
M  V30 8555 O 841.926 0.0800819 2.16252 0
M  V30 8556 C 842.521 3.2257 1.03606 0
M  V30 8557 C 841.08 3.44026 1.52718 0
M  V30 8558 C 840.227 2.73313 0.468545 0
M  V30 8559 H 843.178 1.57377 -0.2045 0
M  V30 8560 H 843.199 3.29488 1.9031 0
M  V30 8561 H 842.711 3.87711 0.173739 0
M  V30 8562 H 840.812 2.8407 2.41111 0
M  V30 8563 H 840.925 4.52659 1.56962 0
M  V30 8564 H 839.289 2.37299 0.925263 0
M  V30 8565 H 840.072 3.41141 -0.384438 0
M  V30 8566 N 842.517 -0.29412 1.54831 0
M  V30 8567 C 843.928 -0.866651 1.65366 0
M  V30 8568 C 844.279 -1.87834 0.56681 0
M  V30 8569 O 843.404 -2.14374 -0.295389 0
M  V30 8570 C 843.999 -1.57869 2.99771 0
M  V30 8571 C 842.558 -2.09954 3.12404 0
M  V30 8572 C 841.705 -0.934492 2.6108 0
M  V30 8573 H 844.656 -0.0709551 1.58541 0
M  V30 8574 H 844.677 -2.44462 2.91579 0
M  V30 8575 H 844.189 -0.84212 3.78853 0
M  V30 8576 H 842.29 -2.86637 2.38055 0
M  V30 8577 H 842.403 -2.32934 4.18663 0
M  V30 8578 H 840.767 -1.32199 2.17705 0
M  V30 8579 H 841.55 -0.211768 3.42646 0
M  V30 8580 N 843.995 -1.47404 -0.557645 0
M  V30 8581 C 845.243 -1.53703 -1.31224 0
M  V30 8582 C 845.564 -0.200742 -1.93964 0
M  V30 8583 O 844.834 0.775253 -1.79907 0
M  V30 8584 H 843.414 -0.566171 -0.487299 0
M  V30 8585 H 846.076 -1.83699 -0.651195 0
M  V30 8586 H 845.172 -2.30335 -2.10599 0
M  V30 8587 N 845.473 0.80434 -1.35529 0
M  V30 8588 C 846.719 1.56385 -1.29118 0
M  V30 8589 C 847.052 1.9374 0.133536 0
M  V30 8590 O 846.327 1.6153 1.08344 0
M  V30 8591 C 846.61 2.85097 -2.19981 0
M  V30 8592 C 846.463 2.54204 -3.7108 0
M  V30 8593 C 847.782 3.86817 -2.09907 0
M  V30 8594 H 844.901 0.567382 -0.470368 0
M  V30 8595 H 847.543 0.925235 -1.6595 0
M  V30 8596 H 845.693 3.39594 -1.88701 0
M  V30 8597 H 847.365 2.05872 -4.12813 0
M  V30 8598 H 845.608 1.87364 -3.91251 0
M  V30 8599 H 846.279 3.46068 -4.30048 0
M  V30 8600 H 848.755 3.41725 -2.37409 0
M  V30 8601 H 847.631 4.7465 -2.75678 0
M  V30 8602 H 847.892 4.28663 -1.08171 0
M  V30 8603 N 846.951 1.19563 1.02676 0
M  V30 8604 C 847.883 0.893054 2.11086 0
M  V30 8605 C 848.896 -0.115101 1.62393 0
M  V30 8606 O 850.085 0.11459 1.78132 0
M  V30 8607 C 847.185 0.315533 3.37428 0
M  V30 8608 C 846.358 1.37276 4.153 0
M  V30 8609 C 845.417 0.808398 5.19953 0
M  V30 8610 O 844.443 1.48661 5.49444 0
M  V30 8611 N 845.645 -0.387253 5.79207 0
M  V30 8612 H 848.41 1.82622 2.37633 0
M  V30 8613 H 845.971 1.09792 1.18984 0
M  V30 8614 H 847.963 -0.0759166 4.04629 0
M  V30 8615 H 846.533 -0.521961 3.08211 0
M  V30 8616 H 845.753 1.93897 3.43217 0
M  V30 8617 H 847.041 2.08509 4.64114 0
M  V30 8618 H 846.439 -0.955725 5.57568 0
M  V30 8619 H 844.996 -0.720457 6.47806 0
M  V30 8620 N 848.429 -1.21819 0.999893 0
M  V30 8621 C 849.84 -1.72517 0.713775 0
M  V30 8622 C 850.191 -1.80505 -0.768922 0
M  V30 8623 O 849.316 -1.45611 -1.60083 0
M  V30 8624 C 849.911 -3.13321 1.28901 0
M  V30 8625 C 848.47 -3.61396 1.05212 0
M  V30 8626 C 847.617 -2.39074 1.40494 0
M  V30 8627 H 850.568 -1.07068 1.17141 0
M  V30 8628 H 850.589 -3.74535 0.671084 0
M  V30 8629 H 850.101 -3.07475 2.36814 0
M  V30 8630 H 848.202 -3.72599 -0.0100732 0
M  V30 8631 H 848.315 -4.47145 1.72042 0
M  V30 8632 H 846.679 -2.41015 0.823642 0
M  V30 8633 H 847.462 -2.35884 2.49427 0
M  V30 8634 N 849.908 -0.773975 -1.37286 0
M  V30 8635 C 851.319 -0.404433 -1.82267 0
M  V30 8636 C 851.67 1.06971 -1.64474 0
M  V30 8637 O 850.795 1.82867 -1.15708 0
M  V30 8638 C 851.39 -0.727298 -3.30902 0
M  V30 8639 C 849.949 -0.410784 -3.74152 0
M  V30 8640 C 849.096 -0.969983 -2.59782 0
M  V30 8641 H 852.047 -0.968437 -1.25726 0
M  V30 8642 H 852.068 -0.0127575 -3.80498 0
M  V30 8643 H 851.58 -1.80026 -3.4382 0
M  V30 8644 H 849.681 0.65477 -3.66802 0
M  V30 8645 H 849.794 -0.920592 -4.70172 0
M  V30 8646 H 848.158 -0.394094 -2.51633 0
M  V30 8647 H 848.941 -2.04839 -2.75492 0
M  V30 8648 N 851.386 1.48609 -0.524698 0
M  V30 8649 C 852.316 2.32366 0.229837 0
M  V30 8650 C 853.297 1.41759 0.940129 0
M  V30 8651 O 854.482 1.7065 0.926936 0
M  V30 8652 C 851.612 3.22835 1.28043 0
M  V30 8653 C 850.566 4.22424 0.688603 0
M  V30 8654 C 849.892 5.0199 1.84146 0
M  V30 8655 C 851.192 5.21217 -0.336176 0
M  V30 8656 H 852.886 2.95698 -0.469339 0
M  V30 8657 H 850.432 1.42197 -0.227156 0
M  V30 8658 H 852.385 3.80253 1.8162 0
M  V30 8659 H 851.109 2.57492 2.00912 0
M  V30 8660 H 849.768 3.66185 0.174402 0
M  V30 8661 H 849.416 4.33076 2.5584 0
M  V30 8662 H 849.116 5.69392 1.45142 0
M  V30 8663 H 850.64 5.62259 2.38111 0
M  V30 8664 H 852.054 5.7319 0.112307 0
M  V30 8665 H 850.451 5.96642 -0.643324 0
M  V30 8666 H 851.521 4.68676 -1.24381 0
M  V30 8667 N 852.864 0.259585 1.55447 0
M  V30 8668 C 854.275 -0.241165 1.85136 0
M  V30 8669 C 854.626 -1.56634 1.18153 0
M  V30 8670 O 853.751 -2.11359 0.464351 0
M  V30 8671 C 854.346 -0.444355 3.35873 0
M  V30 8672 C 852.905 -0.889354 3.65742 0
M  V30 8673 C 852.052 0.0262474 2.77288 0
M  V30 8674 H 855.003 0.481808 1.51209 0
M  V30 8675 H 855.024 -1.28517 3.58139 0
M  V30 8676 H 854.536 0.520289 3.84597 0
M  V30 8677 H 852.637 -1.86602 3.22507 0
M  V30 8678 H 852.75 -0.737432 4.73391 0
M  V30 8679 H 851.114 -0.487361 2.49994 0
M  V30 8680 H 851.897 0.986494 3.28821 0
M  V30 8681 N 854.342 -1.57594 -0.0133615 0
M  V30 8682 C 855.753 -1.78168 -0.557937 0
M  V30 8683 C 856.104 -0.892616 -1.74719 0
M  V30 8684 O 855.229 -0.0915491 -2.16206 0
M  V30 8685 C 855.824 -3.23115 -1.01894 0
M  V30 8686 C 854.383 -3.44831 -1.50892 0
M  V30 8687 C 853.53 -2.73558 -0.454044 0
M  V30 8688 H 856.481 -1.57266 0.212843 0
M  V30 8689 H 856.502 -3.30493 -1.8856 0
M  V30 8690 H 856.014 -3.87798 -0.153175 0
M  V30 8691 H 854.115 -2.85345 -2.39602 0
M  V30 8692 H 854.228 -4.53485 -1.54559 0
M  V30 8693 H 852.592 -2.37787 -0.912666 0
M  V30 8694 H 853.375 -3.40932 0.402524 0
M  V30 8695 N 855.82 0.285905 -1.54985 0
M  V30 8696 C 857.068 1.01718 -1.74636 0
M  V30 8697 C 857.389 1.87277 -0.543342 0
M  V30 8698 O 856.659 1.90847 0.442078 0
M  V30 8699 H 855.239 0.378549 -0.643979 0
M  V30 8700 H 857.901 0.313247 -1.92366 0
M  V30 8701 H 856.997 1.66159 -2.64192 0
M  V30 8702 N 857.298 1.47698 0.54982 0
M  V30 8703 C 858.261 1.60282 1.63837 0
M  V30 8704 C 859.261 0.477394 1.5355 0
M  V30 8705 O 860.451 0.742665 1.57576 0
M  V30 8706 C 857.583 1.55431 3.03404 0
M  V30 8707 H 858.776 2.57325 1.54026 0
M  V30 8708 H 856.329 1.35999 0.770329 0
M  V30 8709 H 857.064 0.597912 3.1874 0
M  V30 8710 H 856.849 2.37116 3.12279 0
M  V30 8711 H 858.339 1.6739 3.82584 0
M  V30 8712 N 858.776 -0.797141 1.35954 0
M  V30 8713 C 860.187 -1.37179 1.26644 0
M  V30 8714 C 860.538 -1.9596 -0.0971046 0
M  V30 8715 O 859.663 -1.91994 -0.998355 0
M  V30 8716 C 860.258 -2.49395 2.2932 0
M  V30 8717 C 858.817 -3.02697 2.23722 0
M  V30 8718 C 857.964 -1.75721 2.14517 0
M  V30 8719 H 860.915 -0.599407 1.46945 0
M  V30 8720 H 860.936 -3.28204 1.92515 0
M  V30 8721 H 860.448 -2.06584 3.2855 0
M  V30 8722 H 858.549 -3.49948 1.27934 0
M  V30 8723 H 858.662 -3.60036 3.16087 0
M  V30 8724 H 857.026 -1.97649 1.60646 0
M  V30 8725 H 857.809 -1.35049 3.15621 0
M  V30 8726 N 860.254 -1.20106 -1.0204 0
M  V30 8727 C 861.665 -1.00992 -1.57027 0
M  V30 8728 C 862.016 0.434782 -1.91322 0
M  V30 8729 O 861.141 1.31557 -1.71819 0
M  V30 8730 C 861.736 -1.82697 -2.85319 0
M  V30 8731 C 860.295 -1.67959 -3.36848 0
M  V30 8732 C 859.442 -1.80868 -2.10195 0
M  V30 8733 H 862.393 -1.34354 -0.844676 0
M  V30 8734 H 862.414 -1.32809 -3.5657 0
M  V30 8735 H 861.926 -2.87839 -2.60328 0
M  V30 8736 H 860.027 -0.654389 -3.66809 0
M  V30 8737 H 860.14 -2.49006 -4.09308 0
M  V30 8738 H 858.504 -1.24015 -2.22469 0
M  V30 8739 H 859.287 -2.87486 -1.87635 0
M  V30 8740 N 861.732 1.21287 -1.00634 0
M  V30 8741 C 863.143 1.72136 -0.722914 0
M  V30 8742 C 863.494 1.8091 0.759338 0
M  V30 8743 O 862.619 1.46458 1.59308 0
M  V30 8744 C 863.214 3.12633 -1.30561 0
M  V30 8745 C 861.773 3.60833 -1.07127 0
M  V30 8746 C 860.92 2.38326 -1.4176 0
M  V30 8747 H 863.871 1.06445 -1.17708 0
M  V30 8748 H 863.892 3.74174 -0.690937 0
M  V30 8749 H 863.404 3.06215 -2.38441 0
M  V30 8750 H 861.505 3.72599 -0.00968671 0
M  V30 8751 H 861.618 4.46226 -1.74411 0
M  V30 8752 H 859.982 2.40575 -0.836412 0
M  V30 8753 H 860.765 2.34558 -2.50674 0
M  V30 8754 N 863.21 0.781244 1.36873 0
M  V30 8755 C 864.621 0.414093 1.8205 0
M  V30 8756 C 864.972 -1.06098 1.65039 0
M  V30 8757 O 864.097 -1.82251 1.16677 0
M  V30 8758 C 864.692 0.744837 3.30511 0
M  V30 8759 C 863.251 0.430621 3.73929 0
M  V30 8760 C 862.398 0.983746 2.59264 0
M  V30 8761 H 865.349 0.975091 1.2521 0
M  V30 8762 H 865.37 0.032936 3.80486 0
M  V30 8763 H 864.882 1.81847 3.42861 0
M  V30 8764 H 862.983 -0.635308 3.67144 0
M  V30 8765 H 863.096 0.945514 4.69677 0
M  V30 8766 H 861.46 0.407433 2.5142 0
M  V30 8767 H 862.243 2.06297 2.74402 0
M  V30 8768 N 864.689 -1.48329 0.532571 0
M  V30 8769 C 866.1 -1.86469 0.0927749 0
M  V30 8770 C 866.451 -1.44186 -1.3306 0
M  V30 8771 O 865.576 -0.833741 -1.99694 0
M  V30 8772 C 866.171 -3.38414 0.161588 0
M  V30 8773 C 864.73 -3.75739 -0.223028 0
M  V30 8774 C 863.877 -2.72377 0.520199 0
M  V30 8775 H 866.828 -1.40197 0.743678 0
M  V30 8776 H 866.849 -3.75314 -0.626059 0
M  V30 8777 H 866.361 -3.69159 1.19765 0
M  V30 8778 H 864.462 -3.50608 -1.26113 0
M  V30 8779 H 864.575 -4.78954 0.118385 0
M  V30 8780 H 862.939 -2.54678 -0.0338425 0
M  V30 8781 H 863.722 -3.05965 1.55694 0
M  V30 8782 N 866.167 -0.267825 -1.55308 0
M  V30 8783 C 867.578 0.231344 -1.85261 0
M  V30 8784 C 867.929 1.56006 -1.18982 0
M  V30 8785 O 867.054 2.1111 -0.475554 0
M  V30 8786 C 867.649 0.426537 -3.36104 0
M  V30 8787 C 866.208 0.869945 -3.66209 0
M  V30 8788 C 865.355 -0.0409522 -2.7727 0
M  V30 8789 H 868.306 -0.489821 -1.50952 0
M  V30 8790 H 868.327 1.26616 -3.58816 0
M  V30 8791 H 867.839 -0.540678 -3.84315 0
M  V30 8792 H 865.94 1.84889 -3.23492 0
M  V30 8793 H 866.053 0.712316 -4.73775 0
M  V30 8794 H 864.417 0.474097 -2.50249 0
M  V30 8795 H 865.2 -1.00392 -3.28293 0
M  V30 8796 N 867.645 1.57599 0.00500368 0
M  V30 8797 C 869.056 1.78462 0.54848 0
M  V30 8798 C 869.407 0.901869 1.74243 0
M  V30 8799 O 868.532 0.103014 2.16155 0
M  V30 8800 C 869.127 3.2365 1.00179 0
M  V30 8801 C 867.686 3.45627 1.49061 0
M  V30 8802 C 866.833 2.73794 0.439531 0
M  V30 8803 H 869.784 1.57151 -0.22118 0
M  V30 8804 H 869.805 3.31488 1.86805 0
M  V30 8805 H 869.317 3.87873 0.132607 0
M  V30 8806 H 867.418 2.86612 2.38085 0
M  V30 8807 H 867.531 4.54298 1.52152 0
M  V30 8808 H 865.895 2.38267 0.900043 0
M  V30 8809 H 866.678 3.40714 -0.420599 0
M  V30 8810 N 869.123 -0.277682 1.55134 0
M  V30 8811 C 870.534 -0.849063 1.66276 0
M  V30 8812 C 870.885 -1.87223 0.5867 0
M  V30 8813 O 870.01 -2.14676 -0.272635 0
M  V30 8814 C 870.605 -1.54681 3.01429 0
M  V30 8815 C 869.164 -2.06628 3.14614 0
M  V30 8816 C 868.311 -0.906748 2.62056 0
M  V30 8817 H 871.262 -0.0541357 1.58608 0
M  V30 8818 H 871.283 -2.41356 2.94156 0
M  V30 8819 H 870.795 -0.80189 3.79725 0
M  V30 8820 H 868.896 -2.84095 2.41082 0
M  V30 8821 H 869.009 -2.2848 4.2111 0
M  V30 8822 H 867.373 -1.29882 2.19095 0
M  V30 8823 H 868.156 -0.175414 3.42852 0
M  V30 8824 N 870.601 -1.47988 -0.541979 0
M  V30 8825 C 872.012 -1.49073 -1.12402 0
M  V30 8826 C 872.363 -0.253825 -1.94551 0
M  V30 8827 O 871.488 0.640056 -2.06718 0
M  V30 8828 C 872.083 -2.7011 -2.04514 0
M  V30 8829 C 870.642 -2.74105 -2.5796 0
M  V30 8830 C 869.789 -2.42409 -1.3466 0
M  V30 8831 H 872.74 -1.55277 -0.327818 0
M  V30 8832 H 872.761 -2.47946 -2.88623 0
M  V30 8833 H 872.273 -3.60117 -1.44697 0
M  V30 8834 H 870.374 -1.88276 -3.21532 0
M  V30 8835 H 870.487 -3.75213 -2.97913 0
M  V30 8836 H 868.851 -1.9331 -1.65841 0
M  V30 8837 H 869.634 -3.34642 -0.766133 0
M  V30 8838 N 872.079 0.78992 -1.36375 0
M  V30 8839 C 873.327 1.54472 -1.30319 0
M  V30 8840 C 873.648 1.94647 0.117338 0
M  V30 8841 O 872.918 1.64906 1.05748 0
M  V30 8842 H 871.498 0.572879 -0.479394 0
M  V30 8843 H 874.16 0.941245 -1.70665 0
M  V30 8844 H 873.256 2.45252 -1.93024 0
M  V30 8845 N 873.557 1.20646 1.01402 0
M  V30 8846 C 874.782 1.04462 1.79172 0
M  V30 8847 C 875.207 -0.401588 1.83763 0
M  V30 8848 O 874.565 -1.28934 1.27459 0
M  V30 8849 C 874.613 1.63583 3.21361 0
M  V30 8850 O 873.717 0.875198 4.03006 0
M  V30 8851 H 873.058 0.368235 0.552539 0
M  V30 8852 H 875.588 1.59994 1.27526 0
M  V30 8853 H 875.598 1.67426 3.72065 0
M  V30 8854 H 874.273 2.68835 3.17334 0
M  V30 8855 H 872.85 0.911172 3.61597 0
M  V30 8856 N 875.035 -1.20752 1.01276 0
M  V30 8857 C 875.998 -2.2162 0.584583 0
M  V30 8858 C 876.998 -1.57094 -0.343215 0
M  V30 8859 O 878.188 -1.73696 -0.132433 0
M  V30 8860 C 875.32 -3.40583 -0.146872 0
M  V30 8861 H 876.513 -2.61015 1.47686 0
M  V30 8862 H 874.066 -1.34148 0.802123 0
M  V30 8863 H 874.801 -3.06686 -1.05424 0
M  V30 8864 H 874.586 -3.88642 0.51958 0
M  V30 8865 H 876.076 -4.15339 -0.433924 0
M  V30 8866 N 876.513 -0.788492 -1.36457 0
M  V30 8867 C 877.761 -0.359749 -1.98872 0
M  V30 8868 C 878.082 1.07197 -1.62892 0
M  V30 8869 O 877.352 1.73875 -0.902463 0
M  V30 8870 H 875.932 -0.130029 -0.735596 0
M  V30 8871 H 878.594 -1.01033 -1.66668 0
M  V30 8872 H 877.69 -0.450835 -3.08827 0
M  V30 8873 N 877.991 1.48044 -0.54043 0
M  V30 8874 C 878.924 2.26667 0.264083 0
M  V30 8875 C 879.902 1.32996 0.935456 0
M  V30 8876 O 881.086 1.62354 0.95778 0
M  V30 8877 C 878.213 3.09541 1.37485 0
M  V30 8878 C 877.259 4.18664 0.813792 0
M  V30 8879 S 878.092 5.34503 -0.326536 0
M  V30 8880 C 879.248 6.20939 0.786452 0
M  V30 8881 H 879.481 2.94554 -0.403129 0
M  V30 8882 H 877.014 1.5091 -0.326415 0
M  V30 8883 H 878.972 3.57863 2.01107 0
M  V30 8884 H 877.633 2.41048 2.01382 0
M  V30 8885 H 876.826 4.76316 1.6474 0
M  V30 8886 H 876.428 3.73136 0.254066 0
M  V30 8887 H 878.72 6.56273 1.68262 0
M  V30 8888 H 879.663 7.07667 0.247673 0
M  V30 8889 H 880.071 5.54236 1.07156 0
M  V30 8890 N 879.47 0.276058 1.55163 0
M  V30 8891 C 880.403 -0.652386 2.18676 0
M  V30 8892 C 881.381 -1.15151 1.148 0
M  V30 8893 O 882.565 -1.22431 1.43328 0
M  V30 8894 C 879.692 -1.88982 2.81076 0
M  V30 8895 C 878.738 -1.52609 3.98262 0
M  V30 8896 S 879.571 -0.603445 5.32089 0
M  V30 8897 C 880.727 -1.84923 5.97958 0
M  V30 8898 H 880.96 -0.112733 2.97086 0
M  V30 8899 H 878.493 0.0603118 1.54282 0
M  V30 8900 H 880.451 -2.60007 3.17658 0
M  V30 8901 H 879.112 -2.40061 2.02557 0
M  V30 8902 H 878.305 -2.44689 4.40617 0
M  V30 8903 H 877.907 -0.89601 3.63108 0
M  V30 8904 H 880.199 -2.79303 6.17249 0
M  V30 8905 H 881.142 -1.46868 6.92702 0
M  V30 8906 H 881.55 -2.0146 5.27327 0
M  V30 8907 N 880.948 -1.576 0.00335426 0
M  V30 8908 C 882.178 -1.94713 -0.690682 0
M  V30 8909 C 882.586 -0.876915 -1.67651 0
M  V30 8910 O 881.929 0.152434 -1.83066 0
M  V30 8911 C 881.991 -3.27833 -1.47532 0
M  V30 8912 C 881.655 -4.52344 -0.650704 0
M  V30 8913 C 882.652 -5.19862 0.0630537 0
M  V30 8914 C 880.337 -4.98755 -0.595687 0
M  V30 8915 C 882.331 -6.32093 0.820779 0
M  V30 8916 C 880.018 -6.10875 0.165761 0
M  V30 8917 C 881.016 -6.77401 0.872724 0
M  V30 8918 O 880.704 -7.87372 1.62174 0
M  V30 8919 H 880.436 -0.646627 -0.197104 0
M  V30 8920 H 882.99 -2.05335 0.0516082 0
M  V30 8921 H 881.22 -3.13628 -2.26217 0
M  V30 8922 H 882.909 -3.50034 -2.05501 0
M  V30 8923 H 883.675 -4.84991 0.0297223 0
M  V30 8924 H 879.554 -4.46797 -1.13549 0
M  V30 8925 H 883.098 -6.83953 1.37312 0
M  V30 8926 H 878.995 -6.45187 0.200901 0
M  V30 8927 H 879.763 -8.03905 1.5388 0
M  V30 8928 N 882.426 0.269451 -1.5528 0
M  V30 8929 C 883.389 1.31642 -1.87625 0
M  V30 8930 C 884.389 1.42182 -0.751058 0
M  V30 8931 O 885.579 1.41272 -1.01921 0
M  V30 8932 C 882.711 2.6973 -2.08467 0
M  V30 8933 H 883.904 1.0419 -2.81219 0
M  V30 8934 H 881.457 0.507685 -1.47825 0
M  V30 8935 H 882.192 3.02356 -1.17266 0
M  V30 8936 H 881.977 2.63465 -2.90394 0
M  V30 8937 H 883.467 3.4537 -2.34753 0
M  V30 8938 N 883.904 1.48273 0.534124 0
M  V30 8939 C 885.315 1.49667 1.1161 0
M  V30 8940 C 885.666 0.264139 1.94414 0
M  V30 8941 O 884.791 -0.629084 2.07054 0
M  V30 8942 C 885.386 2.71191 2.03079 0
M  V30 8943 C 883.945 2.7547 2.56502 0
M  V30 8944 C 883.092 2.43119 1.33373 0
M  V30 8945 H 886.043 1.55449 0.319578 0
M  V30 8946 H 886.064 2.49473 2.87304 0
M  V30 8947 H 885.576 3.60879 1.42785 0
M  V30 8948 H 883.677 1.89979 3.20529 0
M  V30 8949 H 883.79 3.76787 2.95919 0
M  V30 8950 H 882.154 1.94187 1.64813 0
M  V30 8951 H 882.937 3.35044 0.748375 0
M  V30 8952 N 885.382 -0.782676 1.36792 0
M  V30 8953 C 886.793 -1.35828 1.28092 0
M  V30 8954 C 887.144 -1.96052 -0.076315 0
M  V30 8955 O 886.269 -1.93042 -0.977935 0
M  V30 8956 C 886.864 -2.46949 2.31952 0
M  V30 8957 C 885.423 -3.00307 2.2692 0
M  V30 8958 C 884.57 -1.73436 2.16368 0
M  V30 8959 H 887.521 -0.583788 1.47572 0
M  V30 8960 H 887.542 -3.26144 1.95986 0
M  V30 8961 H 887.054 -2.03087 3.30722 0
M  V30 8962 H 885.155 -3.48571 1.31639 0
M  V30 8963 H 885.268 -3.56663 3.19887 0
M  V30 8964 H 883.632 -1.95934 1.62733 0
M  V30 8965 H 884.415 -1.31693 3.17036 0
M  V30 8966 N 886.86 -1.21182 -1.00761 0
M  V30 8967 C 888.271 -1.02652 -1.55947 0
M  V30 8968 C 888.622 0.414466 -1.91772 0
M  V30 8969 O 887.747 1.29727 -1.73204 0
M  V30 8970 C 888.342 -1.85713 -2.83366 0
M  V30 8971 C 886.901 -1.71523 -3.35048 0
M  V30 8972 C 886.048 -1.83087 -2.08265 0
M  V30 8973 H 888.999 -1.35242 -0.830379 0
M  V30 8974 H 889.02 -1.36583 -3.55141 0
M  V30 8975 H 888.532 -2.90584 -2.5726 0
M  V30 8976 H 886.633 -0.693257 -3.66094 0
M  V30 8977 H 886.746 -2.53333 -4.06644 0
M  V30 8978 H 885.11 -1.26367 -2.21141 0
M  V30 8979 H 885.893 -2.8946 -1.84575 0
M  V30 8980 N 888.338 1.20213 -1.01915 0
M  V30 8981 C 889.749 1.7136 -0.741131 0
M  V30 8982 C 890.1 1.81705 0.740107 0
M  V30 8983 O 889.225 1.48139 1.57746 0
M  V30 8984 C 889.82 3.11231 -1.33869 0
M  V30 8985 C 888.379 3.59677 -1.10948 0
M  V30 8986 C 887.526 2.36809 -1.4428 0
M  V30 8987 H 890.477 1.05191 -1.1883 0
M  V30 8988 H 890.498 3.7342 -0.730585 0
M  V30 8989 H 890.01 3.03669 -2.41675 0
M  V30 8990 H 888.111 3.72568 -0.0492052 0
M  V30 8991 H 888.224 4.44351 -1.79134 0
M  V30 8992 H 886.588 2.39674 -0.861881 0
M  V30 8993 H 887.371 2.31886 -2.53148 0
M  V30 8994 N 889.816 0.795718 1.36037 0
M  V30 8995 C 891.227 0.433379 1.816 0
M  V30 8996 C 891.578 -1.04341 1.66155 0
M  V30 8997 O 890.703 -1.81004 1.18603 0
M  V30 8998 C 891.298 0.77985 3.29703 0
M  V30 8999 C 889.857 0.470256 3.73451 0
M  V30 9000 C 889.004 1.01119 2.58206 0
M  V30 9001 H 891.955 0.988317 1.24169 0
M  V30 9002 H 891.976 0.0732898 3.80429 0
M  V30 9003 H 891.488 1.85473 3.40913 0
M  V30 9004 H 889.589 -0.596332 3.67797 0
M  V30 9005 H 889.702 0.995276 4.68648 0
M  V30 9006 H 888.066 0.434077 2.50974 0
M  V30 9007 H 888.849 2.09196 2.72198 0
M  V30 9008 N 891.294 -1.47756 0.548274 0
M  V30 9009 C 892.705 -1.8636 0.112547 0
M  V30 9010 C 893.056 -1.45589 -1.31523 0
M  V30 9011 O 892.181 -0.854874 -1.98799 0
M  V30 9012 C 892.776 -3.38224 0.197473 0
M  V30 9013 C 891.335 -3.75954 -0.183163 0
M  V30 9014 C 890.482 -2.7181 0.549059 0
M  V30 9015 H 893.433 -1.394 0.758506 0
M  V30 9016 H 893.454 -3.75957 -0.586217 0
M  V30 9017 H 892.966 -3.67868 1.23673 0
M  V30 9018 H 891.067 -3.51926 -1.22387 0
M  V30 9019 H 891.18 -4.78801 0.169178 0
M  V30 9020 H 889.544 -2.54699 -0.00682862 0
M  V30 9021 H 890.327 -3.04296 1.5893 0
M  V30 9022 N 892.772 -0.284283 -1.55015 0
M  V30 9023 C 894.183 0.211681 -1.85496 0
M  V30 9024 C 894.534 1.54735 -1.2063 0
M  V30 9025 O 893.659 2.10594 -0.497918 0
M  V30 9026 C 894.254 0.390864 -3.36538 0
M  V30 9027 C 892.813 0.831055 -3.67111 0
M  V30 9028 C 891.96 -0.0703581 -2.77211 0
M  V30 9029 H 894.911 -0.505803 -1.50424 0
M  V30 9030 H 894.932 1.22803 -3.60138 0
M  V30 9031 H 894.444 -0.581409 -3.8372 0
M  V30 9032 H 892.545 1.81447 -3.25434 0
M  V30 9033 H 892.658 0.662026 -4.74504 0
M  V30 9034 H 891.022 0.447528 -2.50737 0
M  V30 9035 H 891.805 -1.03868 -3.2721 0
M  V30 9036 N 894.251 1.57596 -0.0117121 0
M  V30 9037 C 895.662 1.79033 0.529521 0
M  V30 9038 C 896.013 0.920299 1.73277 0
M  V30 9039 O 895.138 0.125934 2.16033 0
M  V30 9040 C 895.733 3.24695 0.967405 0
M  V30 9041 C 894.292 3.47188 1.45387 0
M  V30 9042 C 893.439 2.74245 0.410466 0
M  V30 9043 H 896.39 1.56908 -0.237836 0
M  V30 9044 H 896.411 3.33451 1.83278 0
M  V30 9045 H 895.923 3.87992 0.0914605 0
M  V30 9046 H 894.024 2.89121 2.35032 0
M  V30 9047 H 894.137 4.55886 1.47325 0
M  V30 9048 H 892.501 2.39209 0.874721 0
M  V30 9049 H 893.284 3.40248 -0.456713 0
M  V30 9050 N 895.729 -0.261212 1.5542 0
M  V30 9051 C 896.662 -1.34906 1.84054 0
M  V30 9052 C 897.64 -1.47024 0.694466 0
M  V30 9053 O 898.824 -1.63463 0.938719 0
M  V30 9054 C 895.951 -2.7242 2.01259 0
M  V30 9055 C 894.997 -2.77526 3.23855 0
M  V30 9056 S 895.83 -2.35578 4.80898 0
M  V30 9057 C 896.986 -3.75045 5.01091 0
M  V30 9058 H 897.219 -1.10416 2.76035 0
M  V30 9059 H 894.752 -0.461461 1.47343 0
M  V30 9060 H 896.71 -3.51606 2.11857 0
M  V30 9061 H 895.371 -2.94155 1.10145 0
M  V30 9062 H 894.564 -3.78483 3.32816 0
M  V30 9063 H 894.166 -2.0637 3.11909 0
M  V30 9064 H 896.458 -4.7042 4.87556 0
M  V30 9065 H 897.401 -3.71027 6.03112 0
M  V30 9066 H 897.809 -3.66894 4.29009 0
M  V30 9067 N 897.207 -1.48554 -0.526253 0
M  V30 9068 C 898.484 -1.47252 -1.28748 0
M  V30 9069 C 898.864 -0.186245 -2.10277 0
M  V30 9070 O 898.212 0.831954 -2.12816 0
M  V30 9071 C 898.422 -2.73672 -2.16575 0
M  V30 9072 C 899.77 -3.22151 -2.76593 0
M  V30 9073 O 900.794 -2.74614 -2.2686 0
M  V30 9074 O 899.653 -4.04877 -3.67066 0
M  V30 9075 H 896.747 -0.588242 -0.581292 0
M  V30 9076 H 899.293 -1.60792 -0.5426 0
M  V30 9077 H 898.065 -3.58798 -1.56139 0
M  V30 9078 H 897.688 -2.6287 -2.98304 0
M  V30 9079 N 898.685 0.775411 -1.37205 0
M  V30 9080 C 900.096 1.35147 -1.28811 0
M  V30 9081 C 900.447 1.96089 0.0659168 0
M  V30 9082 O 899.572 1.93558 0.967684 0
M  V30 9083 C 900.167 2.45715 -2.33258 0
M  V30 9084 C 898.726 2.99099 -2.2851 0
M  V30 9085 C 897.873 1.72286 -2.17285 0
M  V30 9086 H 900.824 0.575954 -1.4788 0
M  V30 9087 H 900.845 3.251 -1.97712 0
M  V30 9088 H 900.357 2.01331 -3.31795 0
M  V30 9089 H 898.458 3.47868 -1.33485 0
M  V30 9090 H 898.571 3.54962 -3.21774 0
M  V30 9091 H 896.935 1.95068 -1.6377 0
M  V30 9092 H 897.718 1.3001 -3.1773 0
M  V30 9093 N 900.163 1.21714 1.00117 0
M  V30 9094 C 901.388 1.06357 1.78054 0
M  V30 9095 C 901.813 -0.382075 1.84179 0
M  V30 9096 O 901.171 -1.27575 1.28819 0
M  V30 9097 C 901.219 1.66982 3.19608 0
M  V30 9098 O 900.323 0.917892 4.02055 0
M  V30 9099 H 899.664 0.374074 0.548602 0
M  V30 9100 H 902.194 1.61338 1.25822 0
M  V30 9101 H 902.204 1.71363 3.70268 0
M  V30 9102 H 900.879 2.72185 3.14465 0
M  V30 9103 H 899.456 0.949473 3.6061 0
M  V30 9104 N 901.641 -1.19671 1.02551 0
M  V30 9105 C 902.589 -2.24812 0.596867 0
M  V30 9106 C 903.583 -1.65336 -0.368839 0
M  V30 9107 O 904.789 -1.78422 -0.237786 0
M  V30 9108 H 901.164 -0.731417 0.174739 0
M  V30 9109 H 903.135 -2.58286 1.49435 0
M  V30 9110 C 901.884 -3.47677 -0.0399514 0
M  V30 9111 H 901.207 -3.93728 0.694153 0
M  V30 9112 H 902.647 -4.22917 -0.302861 0
M  V30 9113 C 901.106 -3.11411 -1.2855 0
M  V30 9114 O 901.636 -3.23757 -2.37791 0
M  V30 9115 N 899.842 -2.65875 -1.17297 0
M  V30 9116 H 899.389 -2.56029 -0.284045 0
M  V30 9117 H 899.347 -2.41981 -2.00731 0
M  V30 9118 N 903.119 -0.802921 -1.35613 0
M  V30 9119 C 904.366 -0.381576 -1.98872 0
M  V30 9120 C 904.694 1.0503 -1.63704 0
M  V30 9121 O 903.949 1.7427 -0.890418 0
M  V30 9122 C 904.248 -0.507806 -3.53774 0
M  V30 9123 C 903.914 -1.90245 -4.088 0
M  V30 9124 C 902.576 -2.28401 -4.2354 0
M  V30 9125 C 904.928 -2.81504 -4.3864 0
M  V30 9126 C 902.256 -3.57192 -4.65436 0
M  V30 9127 C 904.608 -4.09737 -4.81973 0
M  V30 9128 C 903.272 -4.47897 -4.94919 0
M  V30 9129 H 902.542 -0.139629 -0.727726 0
M  V30 9130 H 905.189 -1.023 -1.61886 0
M  V30 9131 H 903.494 0.21708 -3.91198 0
M  V30 9132 H 905.191 -0.162625 -4.0067 0
M  V30 9133 H 901.781 -1.596 -3.97776 0
M  V30 9134 H 905.965 -2.53276 -4.26808 0
M  V30 9135 H 901.221 -3.86611 -4.73648 0
M  V30 9136 H 905.395 -4.80555 -5.04024 0
M  V30 9137 H 903.022 -5.47747 -5.27141 0
M  V30 9138 N 904.597 1.47463 -0.556102 0
M  V30 9139 C 905.843 2.02775 -0.0316806 0
M  V30 9140 C 906.176 1.42967 1.3143 0
M  V30 9141 O 905.451 0.584847 1.85499 0
M  V30 9142 C 905.734 3.60046 0.0625742 0
M  V30 9143 C 905.587 4.30288 -1.31043 0
M  V30 9144 C 906.906 4.33195 0.776553 0
M  V30 9145 H 904.025 0.736886 -0.0129869 0
M  V30 9146 H 906.667 1.75904 -0.718177 0
M  V30 9147 H 904.817 3.83071 0.647231 0
M  V30 9148 H 906.489 4.18607 -1.9382 0
M  V30 9149 H 904.732 3.90685 -1.8854 0
M  V30 9150 H 905.403 5.38861 -1.1972 0
M  V30 9151 H 907.879 4.15156 0.280147 0
M  V30 9152 H 906.755 5.42869 0.81146 0
M  V30 9153 H 907.016 4.02336 1.83244 0
M  V30 9154 N 906.075 0.2925 1.54862 0
M  V30 9155 C 907.303 -0.322113 2.04377 0
M  V30 9156 C 907.718 -1.48164 1.17016 0
M  V30 9157 O 907.075 -1.81466 0.19395 0
M  V30 9158 C 907.126 -0.786506 3.5284 0
M  V30 9159 O 906.847 0.326863 4.36879 0
M  V30 9160 C 908.348 -1.46715 4.18318 0
M  V30 9161 H 905.568 -0.0712074 0.667211 0
M  V30 9162 H 908.112 0.429657 1.99935 0
M  V30 9163 H 906.267 -1.48832 3.5767 0
M  V30 9164 H 906.681 -0.0331558 5.2449 0
M  V30 9165 H 908.155 -1.74333 5.23748 0
M  V30 9166 H 908.632 -2.40443 3.67538 0
M  V30 9167 H 909.238 -0.808735 4.1754 0
M  V30 9168 N 907.553 -1.57587 0.0200696 0
M  V30 9169 C 908.486 -2.05157 -0.999295 0
M  V30 9170 C 909.464 -0.945466 -1.32286 0
M  V30 9171 O 910.648 -1.21512 -1.44108 0
M  V30 9172 C 907.775 -2.46604 -2.32173 0
M  V30 9173 C 906.821 -3.68146 -2.15339 0
M  V30 9174 S 907.654 -5.15194 -1.46065 0
M  V30 9175 C 908.81 -5.59929 -2.79697 0
M  V30 9176 H 909.043 -2.91299 -0.59433 0
M  V30 9177 H 906.576 -1.53209 -0.191372 0
M  V30 9178 H 908.534 -2.7115 -3.08201 0
M  V30 9179 H 907.195 -1.60825 -2.69804 0
M  V30 9180 H 906.388 -3.94963 -3.13082 0
M  V30 9181 H 905.99 -3.43705 -1.47454 0
M  V30 9182 H 908.282 -5.63615 -3.75957 0
M  V30 9183 H 909.225 -6.59599 -2.57555 0
M  V30 9184 H 909.633 -4.87549 -2.84528 0
M  V30 9185 N 909.032 0.252966 -1.55557 0
M  V30 9186 C 909.965 1.33928 -1.84766 0
M  V30 9187 C 910.943 1.46653 -0.702254 0
M  V30 9188 O 912.127 1.62963 -0.947375 0
M  V30 9189 C 909.254 2.71348 -2.02701 0
M  V30 9190 C 908.3 2.75804 -3.25322 0
M  V30 9191 S 909.133 2.33025 -4.82141 0
M  V30 9192 C 910.289 3.72382 -5.03073 0
M  V30 9193 H 910.522 1.08951 -2.76617 0
M  V30 9194 H 908.055 0.45364 -1.47585 0
M  V30 9195 H 910.013 3.50478 -2.13718 0
M  V30 9196 H 908.674 2.93566 -1.11703 0
M  V30 9197 H 907.867 3.76713 -3.34819 0
M  V30 9198 H 907.469 2.04713 -3.12999 0
M  V30 9199 H 909.761 4.67828 -4.90044 0
M  V30 9200 H 910.704 3.67824 -6.05071 0
M  V30 9201 H 911.112 3.64614 -4.30949 0
M  V30 9202 N 910.51 1.48831 0.518367 0
M  V30 9203 C 911.758 1.57128 1.27103 0
M  V30 9204 C 912.079 0.252098 1.93364 0
M  V30 9205 O 911.349 -0.727281 1.819 0
M  V30 9206 H 909.929 0.578891 0.472116 0
M  V30 9207 H 912.591 1.85361 0.602262 0
M  V30 9208 H 911.687 2.35838 2.04418 0
M  V30 9209 N 911.988 -0.768124 1.37614 0
M  V30 9210 C 912.921 -1.88894 1.2804 0
M  V30 9211 C 913.899 -1.61809 0.160226 0
M  V30 9212 O 915.083 -1.85498 0.33506 0
M  V30 9213 C 912.21 -3.24197 0.980523 0
M  V30 9214 C 911.256 -3.70188 2.11808 0
M  V30 9215 S 912.089 -3.83433 3.73817 0
M  V30 9216 C 913.245 -5.21578 3.45987 0
M  V30 9217 H 913.478 -1.96726 2.22904 0
M  V30 9218 H 911.011 -0.929602 1.23279 0
M  V30 9219 H 912.969 -4.02342 0.814331 0
M  V30 9220 H 911.63 -3.14061 0.0493122 0
M  V30 9221 H 910.823 -4.6829 1.86335 0
M  V30 9222 H 910.425 -2.99155 2.2446 0
M  V30 9223 H 912.717 -6.06865 3.012 0
M  V30 9224 H 913.66 -5.52065 4.43429 0
M  V30 9225 H 914.068 -4.89687 2.80832 0
M  V30 9226 N 913.466 -1.22244 -0.994698 0
M  V30 9227 C 914.714 -1.04384 -1.73056 0
M  V30 9228 C 915.035 0.422204 -1.90374 0
M  V30 9229 O 914.305 1.30383 -1.46209 0
M  V30 9230 H 912.885 -0.383263 -0.641185 0
M  V30 9231 H 915.547 -1.53725 -1.1981 0
M  V30 9232 H 914.643 -1.52021 -2.72573 0
M  V30 9233 N 914.944 1.19125 -1.03184 0
M  V30 9234 C 916.19 1.89163 -0.731111 0
M  V30 9235 C 916.523 1.79604 0.738662 0
M  V30 9236 O 915.798 1.19037 1.53819 0
M  V30 9237 C 916.081 3.39986 -1.18666 0
M  V30 9238 C 915.934 3.58401 -2.71788 0
M  V30 9239 C 917.253 4.33316 -0.769772 0
M  V30 9240 H 914.372 0.686908 -0.267069 0
M  V30 9241 H 917.014 1.40205 -1.28229 0
M  V30 9242 H 915.164 3.81813 -0.717736 0
M  V30 9243 H 916.836 3.25727 -3.26649 0
M  V30 9244 H 915.079 3.01355 -3.12038 0
M  V30 9245 H 915.75 4.64189 -2.98719 0
M  V30 9246 H 918.226 3.9922 -1.17314 0
M  V30 9247 H 917.102 5.37427 -1.11637 0
M  V30 9248 H 917.363 4.40884 0.327681 0
M  V30 9249 N 916.422 0.810101 1.35185 0
M  V30 9250 C 917.385 0.22852 2.28058 0
M  V30 9251 C 918.385 -0.586168 1.49735 0
M  V30 9252 O 919.575 -0.40414 1.69447 0
M  V30 9253 C 916.707 -0.681041 3.34028 0
M  V30 9254 H 917.9 1.04768 2.81005 0
M  V30 9255 H 915.453 0.58101 1.451 0
M  V30 9256 H 916.188 -1.52375 2.86273 0
M  V30 9257 H 915.973 -0.0985276 3.91976 0
M  V30 9258 H 917.463 -1.08217 4.03335 0
M  V30 9259 N 917.9 -1.47166 0.563914 0
M  V30 9260 C 919.148 -2.02056 0.0422873 0
M  V30 9261 C 919.469 -1.43992 -1.31497 0
M  V30 9262 O 918.739 -0.617578 -1.85911 0
M  V30 9263 H 917.319 -0.746893 0.0126427 0
M  V30 9264 H 919.981 -1.80492 0.735441 0
M  V30 9265 H 919.077 -3.12073 -0.0408044 0
M  V30 9266 N 919.378 -0.300708 -1.54705 0
M  V30 9267 C 920.311 0.617513 -2.19686 0
M  V30 9268 C 921.289 1.1331 -1.16617 0
M  V30 9269 O 922.473 1.20135 -1.45258 0
M  V30 9270 C 919.6 1.84486 -2.84047 0
M  V30 9271 C 918.646 1.46253 -4.0064 0
M  V30 9272 S 919.479 0.518718 -5.32982 0
M  V30 9273 C 920.635 1.75387 -6.00825 0
M  V30 9274 H 920.868 0.0654548 -2.97228 0
M  V30 9275 H 918.401 -0.0848492 -1.54167 0
M  V30 9276 H 920.359 2.54921 -3.21754 0
M  V30 9277 H 919.02 2.36808 -2.06351 0
M  V30 9278 H 918.213 2.37648 -4.44454 0
M  V30 9279 H 917.815 0.838129 -3.64488 0
M  V30 9280 H 920.107 2.69448 -6.21614 0
M  V30 9281 H 921.05 1.35829 -6.9495 0
M  V30 9282 H 921.458 1.93045 -5.30466 0
M  V30 9283 N 920.856 1.57574 -0.0284266 0
M  V30 9284 C 922.267 1.79585 0.510502 0
M  V30 9285 C 922.618 0.938625 1.72291 0
M  V30 9286 O 921.743 0.14884 2.15888 0
M  V30 9287 C 922.338 3.25703 0.932912 0
M  V30 9288 C 920.897 3.48711 1.41696 0
M  V30 9289 C 920.044 2.74665 0.381356 0
M  V30 9290 H 922.995 1.56647 -0.254464 0
M  V30 9291 H 923.016 3.35376 1.79731 0
M  V30 9292 H 922.528 3.88067 0.0503036 0
M  V30 9293 H 920.629 2.91597 2.31952 0
M  V30 9294 H 920.742 4.57423 1.42481 0
M  V30 9295 H 919.106 2.40123 0.8493 0
M  V30 9296 H 919.889 3.39745 -0.492775 0
M  V30 9297 N 922.334 -0.244713 1.55689 0
M  V30 9298 C 923.745 -0.813603 1.6804 0
M  V30 9299 C 924.096 -1.85936 0.626281 0
M  V30 9300 O 923.221 -2.15206 -0.227038 0
M  V30 9301 C 923.816 -1.48252 3.04642 0
M  V30 9302 C 922.375 -1.99908 3.18926 0
M  V30 9303 C 921.522 -0.850958 2.6392 0
M  V30 9304 H 924.473 -0.0204805 1.58687 0
M  V30 9305 H 924.494 -2.35062 2.99209 0
M  V30 9306 H 924.006 -0.721164 3.81341 0
M  V30 9307 H 922.107 -2.78918 2.47054 0
M  V30 9308 H 922.22 -2.19497 4.25862 0
M  V30 9309 H 920.584 -1.25206 2.21801 0
M  V30 9310 H 921.367 -0.10265 3.43146 0
M  V30 9311 N 923.813 -1.49104 -0.510467 0
M  V30 9312 C 925.06 -1.58112 -1.26518 0
M  V30 9313 C 925.388 -0.263603 -1.92705 0
M  V30 9314 O 924.643 0.747743 -1.80852 0
M  V30 9315 C 924.942 -2.68259 -2.36161 0
M  V30 9316 C 924.608 -4.10069 -1.87495 0
M  V30 9317 C 923.27 -4.48662 -1.73942 0
M  V30 9318 C 925.622 -4.98859 -1.5096 0
M  V30 9319 C 922.95 -5.73829 -1.22217 0
M  V30 9320 C 925.302 -6.24535 -1.00691 0
M  V30 9321 C 923.966 -6.61967 -0.857691 0
M  V30 9322 H 923.236 -0.578574 -0.462962 0
M  V30 9323 H 925.883 -1.82899 -0.567475 0
M  V30 9324 H 924.188 -2.37407 -3.11681 0
M  V30 9325 H 925.885 -2.7244 -2.9424 0
M  V30 9326 H 922.475 -3.79601 -1.99001 0
M  V30 9327 H 926.659 -4.69706 -1.60282 0
M  V30 9328 H 921.915 -6.01539 -1.09368 0
M  V30 9329 H 926.089 -6.9272 -0.71498 0
M  V30 9330 H 923.716 -7.58839 -0.454702 0
M  V30 9331 N 925.291 0.760815 -1.38019 0
M  V30 9332 C 926.539 1.51673 -1.33566 0
M  V30 9333 C 926.86 1.94852 0.076024 0
M  V30 9334 O 926.13 1.67112 1.02227 0
M  V30 9335 H 924.71 0.562581 -0.491438 0
M  V30 9336 H 927.372 0.904832 -1.72623 0
M  V30 9337 H 926.468 2.41102 -1.98182 0
M  V30 9338 N 926.769 1.22769 0.988202 0
M  V30 9339 C 927.702 0.945196 2.07705 0
M  V30 9340 C 928.68 -0.11363 1.62202 0
M  V30 9341 O 929.864 0.0189624 1.8849 0
M  V30 9342 C 926.991 0.422474 3.36055 0
M  V30 9343 C 926.037 1.4667 4.00487 0
M  V30 9344 S 926.87 3.04158 4.40736 0
M  V30 9345 C 928.026 2.53536 5.7225 0
M  V30 9346 H 928.259 1.86723 2.31348 0
M  V30 9347 H 925.792 1.05928 1.12333 0
M  V30 9348 H 927.75 0.12748 4.10302 0
M  V30 9349 H 926.411 -0.478515 3.10434 0
M  V30 9350 H 925.604 1.05093 4.92921 0
M  V30 9351 H 925.206 1.71064 3.32585 0
M  V30 9352 H 927.498 1.95069 6.4881 0
M  V30 9353 H 928.441 3.44479 6.1866 0
M  V30 9354 H 928.849 1.94658 5.29876 0
M  V30 9355 N 928.247 -1.18576 1.03814 0
M  V30 9356 C 929.658 -1.70159 0.768299 0
M  V30 9357 C 930.009 -1.8286 -0.711106 0
M  V30 9358 O 929.134 -1.5063 -1.55369 0
M  V30 9359 C 929.729 -3.09062 1.38804 0
M  V30 9360 C 928.288 -3.57866 1.16656 0
M  V30 9361 C 927.435 -2.34484 1.48029 0
M  V30 9362 H 930.386 -1.03287 1.20488 0
M  V30 9363 H 930.407 -3.72211 0.7899 0
M  V30 9364 H 929.919 -2.99785 2.46476 0
M  V30 9365 H 928.02 -3.72442 0.108471 0
M  V30 9366 H 928.133 -4.41445 1.8618 0
M  V30 9367 H 926.497 -2.38273 0.899902 0
M  V30 9368 H 927.28 -2.27829 2.56805 0
M  V30 9369 N 929.725 -0.817259 -1.34754 0
M  V30 9370 C 931.136 -0.462215 -1.80888 0
M  V30 9371 C 931.487 1.01685 -1.67794 0
M  V30 9372 O 930.612 1.79094 -1.21468 0
M  V30 9373 C 931.207 -0.832204 -3.2842 0
M  V30 9374 C 929.766 -0.52961 -3.72655 0
M  V30 9375 C 928.913 -1.05214 -2.56564 0
M  V30 9376 H 931.864 -1.00795 -1.22581 0
M  V30 9377 H 931.885 -0.133804 -3.80265 0
M  V30 9378 H 931.397 -1.90873 -3.37919 0
M  V30 9379 H 929.498 0.537743 -3.68699 0
M  V30 9380 H 929.611 -1.06971 -4.67005 0
M  V30 9381 H 927.975 -0.473949 -2.50251 0
M  V30 9382 H 928.758 -2.135 -2.68836 0
M  V30 9383 N 931.203 1.46865 -0.571711 0
M  V30 9384 C 932.166 2.28658 0.157499 0
M  V30 9385 C 933.166 1.37773 0.829172 0
M  V30 9386 O 934.356 1.6026 0.682811 0
M  V30 9387 C 931.488 3.17859 1.23202 0
M  V30 9388 H 932.681 2.94603 -0.561171 0
M  V30 9389 H 930.234 1.52793 -0.329229 0
M  V30 9390 H 930.969 2.56637 1.98262 0
M  V30 9391 H 930.754 3.84762 0.755031 0
M  V30 9392 H 932.244 3.7945 1.74378 0
M  V30 9393 N 932.681 0.308908 1.54543 0
M  V30 9394 C 934.092 -0.182144 1.85809 0
M  V30 9395 C 934.443 -1.52796 1.23076 0
M  V30 9396 O 933.568 -2.09775 0.531358 0
M  V30 9397 C 934.163 -0.337275 3.37117 0
M  V30 9398 C 932.722 -0.772545 3.68387 0
M  V30 9399 C 931.869 0.114451 2.77064 0
M  V30 9400 H 934.82 0.529671 1.496 0
M  V30 9401 H 934.841 -1.17058 3.62046 0
M  V30 9402 H 934.353 0.642382 3.82747 0
M  V30 9403 H 932.454 -1.76247 3.2828 0
M  V30 9404 H 932.567 -0.586453 4.75497 0
M  V30 9405 H 930.931 -0.407581 2.51418 0
M  V30 9406 H 931.714 1.09061 3.25516 0
M  V30 9407 N 934.159 -1.57557 0.0367827 0
M  V30 9408 C 935.57 -1.79853 -0.500971 0
M  V30 9409 C 935.921 -0.947749 -1.71791 0
M  V30 9410 O 935.046 -0.160287 -2.15806 0
M  V30 9411 C 935.641 -3.26193 -0.915626 0
M  V30 9412 C 934.2 -3.49457 -1.39845 0
M  V30 9413 C 933.347 -2.74864 -0.366784 0
M  V30 9414 H 936.298 -1.56509 0.262768 0
M  V30 9415 H 936.319 -3.36324 -1.7795 0
M  V30 9416 H 935.831 -3.88089 -0.0297227 0
M  V30 9417 H 933.932 -2.92823 -2.30402 0
M  V30 9418 H 934.045 -4.58172 -1.40054 0
M  V30 9419 H 932.409 -2.4057 -0.836554 0
M  V30 9420 H 933.192 -3.39479 0.510785 0
M  V30 9421 N 935.637 0.236453 -1.55816 0
M  V30 9422 C 937.048 0.80468 -1.68469 0
M  V30 9423 C 937.399 1.85601 -0.636133 0
M  V30 9424 O 936.524 2.15323 0.215622 0
M  V30 9425 C 937.119 1.46634 -3.05424 0
M  V30 9426 C 935.678 1.98214 -3.19981 0
M  V30 9427 C 934.825 0.83695 -2.64368 0
M  V30 9428 H 937.776 0.0120647 -1.58695 0
M  V30 9429 H 937.797 2.33472 -3.00451 0
M  V30 9430 H 937.309 0.700931 -3.81718 0
M  V30 9431 H 935.41 2.77604 -2.4853 0
M  V30 9432 H 935.523 2.17235 -4.2702 0
M  V30 9433 H 933.887 1.24028 -2.22462 0
M  V30 9434 H 934.67 0.084451 -3.43196 0
M  V30 9435 N 937.115 1.49373 0.502552 0
M  V30 9436 C 938.526 1.52 1.0841 0
M  V30 9437 C 938.877 0.305317 1.9381 0
M  V30 9438 O 938.002 -0.585023 2.08342 0
M  V30 9439 C 938.597 2.75437 1.97281 0
M  V30 9440 C 937.156 2.80848 2.50602 0
M  V30 9441 C 936.303 2.45894 1.28186 0
M  V30 9442 H 939.254 1.56092 0.286533 0
M  V30 9443 H 939.275 2.55511 2.81947 0
M  V30 9444 H 938.787 3.63827 1.35098 0
M  V30 9445 H 936.888 1.96735 3.16427 0
M  V30 9446 H 937.001 3.82979 2.8786 0
M  V30 9447 H 935.365 1.97639 1.60657 0
M  V30 9448 H 936.148 3.36556 0.677139 0
M  V30 9449 N 938.594 -0.753485 1.38421 0
M  V30 9450 C 940.005 -1.33081 1.30944 0
M  V30 9451 C 940.356 -1.96169 -0.0347124 0
M  V30 9452 O 939.481 -1.95073 -0.936768 0
M  V30 9453 C 940.076 -2.41973 2.37138 0
M  V30 9454 C 938.635 -2.95426 2.33239 0
M  V30 9455 C 937.782 -1.68808 2.19998 0
M  V30 9456 H 940.733 -0.552354 1.48777 0
M  V30 9457 H 940.754 -3.21913 2.02859 0
M  V30 9458 H 940.266 -1.96027 3.34956 0
M  V30 9459 H 938.367 -3.45701 1.39003 0
M  V30 9460 H 938.48 -3.49798 3.27381 0
M  V30 9461 H 936.844 -1.92438 1.66852 0
M  V30 9462 H 937.627 -1.24939 3.19758 0
M  V30 9463 N 940.072 -1.23292 -0.981677 0
M  V30 9464 C 941.483 -1.05936 -1.53735 0
M  V30 9465 C 941.834 0.373695 -1.92608 0
M  V30 9466 O 940.959 1.26024 -1.75917 0
M  V30 9467 C 941.554 -1.91682 -2.79363 0
M  V30 9468 C 940.113 -1.78591 -3.31334 0
M  V30 9469 C 939.26 -1.87463 -2.04335 0
M  V30 9470 H 942.211 -1.36973 -0.801505 0
M  V30 9471 H 942.232 -1.44085 -3.52164 0
M  V30 9472 H 941.744 -2.95975 -2.51039 0
M  V30 9473 H 939.845 -0.770755 -3.64541 0
M  V30 9474 H 939.958 -2.61902 -4.01179 0
M  V30 9475 H 938.322 -1.3103 -2.18411 0
M  V30 9476 H 939.105 -2.9331 -1.78394 0
M  V30 9477 N 941.55 1.18024 -1.04442 0
M  V30 9478 C 942.482 2.21294 -0.596799 0
M  V30 9479 C 943.495 1.59305 0.33552 0
M  V30 9480 O 944.684 1.7803 0.129443 0
M  V30 9481 C 941.784 3.38578 0.147648 0
M  V30 9482 C 940.957 4.30143 -0.793484 0
M  V30 9483 C 940.016 5.2612 -0.0916561 0
M  V30 9484 O 939.042 5.64586 -0.72331 0
M  V30 9485 N 940.244 5.68512 1.17364 0
M  V30 9486 H 943.009 2.6032 -1.48504 0
M  V30 9487 H 940.57 1.32847 -0.925374 0
M  V30 9488 H 942.562 3.99812 0.627098 0
M  V30 9489 H 941.132 2.98212 0.937466 0
M  V30 9490 H 940.352 3.66456 -1.45272 0
M  V30 9491 H 941.64 4.88216 -1.43258 0
M  V30 9492 H 941.038 5.39322 1.70729 0
M  V30 9493 H 939.595 6.31925 1.5973 0
M  V30 9494 N 943.028 0.824394 1.34319 0
M  V30 9495 C 943.976 0.235628 2.31403 0
M  V30 9496 C 944.97 -0.624443 1.57471 0
M  V30 9497 O 946.176 -0.515618 1.72457 0
M  V30 9498 H 942.551 0.0574537 0.749802 0
M  V30 9499 H 944.522 1.06925 2.78585 0
M  V30 9500 C 943.271 -0.586617 3.42716 0
M  V30 9501 H 942.594 0.0658669 3.99746 0
M  V30 9502 H 944.034 -0.964661 4.1288 0
M  V30 9503 C 942.493 -1.75957 2.87299 0
M  V30 9504 O 943.023 -2.8578 2.82299 0
M  V30 9505 N 941.229 -1.57678 2.44102 0
M  V30 9506 H 940.776 -0.683436 2.48369 0
M  V30 9507 H 940.734 -2.36311 2.07375 0
M  V30 9508 O 944.545 -1.44549 0.720262 0
M  V30 9509 H 945.236 -1.91851 0.26698 0
M  V30 END ATOM
M  V30 BEGIN BOND
M  V30 END BOND
M  V30 END CTAB
M  END
$$$$
