drugbank_target|P62344 Calcium-dependent protein kinase 1 (DB12010)
 OpenBabel12092121133D

  0  0  0     0  0            999 V3000
M  V30 BEGIN CTAB
M  V30 COUNTS 8555 8629 0 0 0
M  V30 BEGIN ATOM
M  V30 1 H -0.908 1.98254 -0.117106 0
M  V30 2 N 0 1.576 0 0
M  V30 3 C 0.933 2.03868 1.02534 0
M  V30 4 C 1.911 0.928543 1.3348 0
M  V30 5 O 3.095 1.19667 1.45644 0
M  V30 6 C 0.222 2.43627 2.35294 0
M  V30 7 C -0.732 3.65373 2.2001 0
M  V30 8 S 0.101 5.13292 1.52614 0
M  V30 9 C 1.257 5.56322 2.86805 0
M  V30 10 H 1.49 2.90518 0.631377 0
M  V30 11 H -0.977 1.52953 0.210867 0
M  V30 12 H 0.981 2.67203 3.11629 0
M  V30 13 H -0.358 1.57376 2.7183 0
M  V30 14 H -1.165 3.90944 3.18086 0
M  V30 15 H -1.563 3.418 1.51819 0
M  V30 16 H 0.729 5.58782 3.83104 0
M  V30 17 H 1.672 6.56266 2.65933 0
M  V30 18 H 2.08 4.83886 2.90714 0
M  V30 19 N 1.4781 -0.272755 1.55222 0
M  V30 20 C 2.7261 -1.00234 1.75492 0
M  V30 21 C 3.0471 -1.8681 0.5592 0
M  V30 22 O 2.3171 -1.91215 -0.425882 0
M  V30 23 H 0.8971 -0.373076 0.647166 0
M  V30 24 H 3.5591 -0.296926 1.92625 0
M  V30 25 H 2.6551 -1.63913 2.65592 0
M  V30 26 N 2.9562 -1.48159 -0.537278 0
M  V30 27 C 4.1962 -1.57397 -1.30405 0
M  V30 28 C 4.5602 -0.239202 -1.90504 0
M  V30 29 O 5.7612 -0.206528 -2.68005 0
M  V30 30 C 4.0322 -2.6754 -2.36974 0
M  V30 31 S 5.5912 -2.96496 -3.23475 0
M  V30 32 H 2.4092 -0.555577 -0.443684 0
M  V30 33 H 5.0112 -1.85644 -0.612912 0
M  V30 34 H 3.7152 -3.63092 -1.91291 0
M  V30 35 H 3.2462 -2.41172 -3.10805 0
M  V30 36 H 5.2612 -2.35234 -4.36897 0
M  V30 37 N 4.4343 0.785586 -1.36625 0
M  V30 38 C 5.6593 1.57963 -1.34397 0
M  V30 39 C 6.0843 1.87964 0.071526 0
M  V30 40 O 5.4423 1.48182 1.0446 0
M  V30 41 C 5.4903 2.87511 -2.17646 0
M  V30 42 O 4.5943 3.81281 -1.57158 0
M  V30 43 H 3.9353 0.479014 -0.459828 0
M  V30 44 H 6.4653 0.973411 -1.79961 0
M  V30 45 H 6.4753 3.36745 -2.30362 0
M  V30 46 H 5.1503 2.65002 -3.20541 0
M  V30 47 H 3.7273 3.39885 -1.53403 0
M  V30 48 N 5.9124 1.20967 1.01018 0
M  V30 49 C 6.8444 0.922059 2.09835 0
M  V30 50 C 7.8574 -0.0927106 1.62536 0
M  V30 51 O 9.0464 0.139127 1.77957 0
M  V30 52 C 6.1464 0.362004 3.36961 0
M  V30 53 C 5.3194 1.42986 4.13369 0
M  V30 54 C 4.3784 0.879976 5.1879 0
M  V30 55 O 3.4044 1.56219 5.47343 0
M  V30 56 N 4.6064 -0.307396 5.79686 0
M  V30 57 H 7.3714 1.8588 2.35093 0
M  V30 58 H 4.9324 1.11422 1.1746 0
M  V30 59 H 6.9244 -0.0201474 4.04695 0
M  V30 60 H 5.4944 -0.479437 3.08902 0
M  V30 61 H 4.7144 1.98608 3.40512 0
M  V30 62 H 6.0024 2.14885 4.61196 0
M  V30 63 H 5.4004 -0.878796 5.58832 0
M  V30 64 H 3.9574 -0.631115 6.48737 0
M  V30 65 N 7.3905 -1.2043 1.01659 0
M  V30 66 C 8.6155 -1.94318 0.724942 0
M  V30 67 C 9.0405 -1.74266 -0.708034 0
M  V30 68 O 8.3985 -1.03694 -1.48719 0
M  V30 69 C 8.4465 -3.44486 1.06591 0
M  V30 70 O 7.5505 -4.12017 0.177599 0
M  V30 71 H 6.8915 -0.60708 0.26898 0
M  V30 72 H 9.4215 -1.52861 1.35995 0
M  V30 73 H 9.4315 -3.95106 1.01762 0
M  V30 74 H 8.1065 -3.58404 2.10997 0
M  V30 75 H 6.6835 -3.71821 0.283421 0
M  V30 76 N 8.8686 -0.792821 -1.36206 0
M  V30 77 C 10.0936 -0.377701 -2.03932 0
M  V30 78 C 10.5186 0.998947 -1.59382 0
M  V30 79 O 9.8766 1.64421 -0.763903 0
M  V30 80 C 9.9246 -0.453635 -3.57735 0
M  V30 81 O 9.0286 0.538151 -4.08874 0
M  V30 82 H 8.3696 -0.159855 -0.644471 0
M  V30 83 H 10.8996 -1.07488 -1.7409 0
M  V30 84 H 10.9096 -0.318464 -4.06755 0
M  V30 85 H 9.5846 -1.45784 -3.89512 0
M  V30 86 H 8.1616 0.364359 -3.71116 0
M  V30 87 N 10.3467 1.47872 -0.545128 0
M  V30 88 C 11.2947 2.31533 0.222512 0
M  V30 89 C 12.2887 1.42177 0.920985 0
M  V30 90 O 13.4947 1.59005 0.843645 0
M  V30 91 H 9.8697 0.746519 0.0906278 0
M  V30 92 H 11.8407 2.94139 -0.50246 0
M  V30 93 C 10.5897 3.2457 1.24699 0
M  V30 94 H 9.9127 3.93283 0.718944 0
M  V30 95 H 11.3527 3.85963 1.75523 0
M  V30 96 C 9.8117 2.47237 2.28856 0
M  V30 97 O 10.3417 2.20808 3.35569 0
M  V30 98 N 8.5477 2.08461 2.02466 0
M  V30 99 H 8.0947 2.30155 1.157 0
M  V30 100 H 8.0527 1.57033 2.72375 0
M  V30 101 N 11.8248 0.280983 1.55075 0
M  V30 102 C 13.0708 -0.33461 2.00021 0
M  V30 103 C 13.4038 -1.55063 1.16915 0
M  V30 104 O 12.6788 -1.93006 0.240646 0
M  V30 105 C 12.9618 -0.711007 3.53011 0
M  V30 106 C 12.8148 0.512766 4.46868 0
M  V30 107 C 14.1338 -1.54522 4.12081 0
M  V30 108 H 11.2528 -0.120147 0.727141 0
M  V30 109 H 13.8948 0.389097 1.85973 0
M  V30 110 H 12.0448 -1.32761 3.65112 0
M  V30 111 H 13.7168 1.15131 4.46702 0
M  V30 112 H 11.9598 1.14975 4.18286 0
M  V30 113 H 12.6308 0.205556 5.51617 0
M  V30 114 H 15.1068 -1.02442 4.03293 0
M  V30 115 H 13.9828 -1.77739 5.19327 0
M  V30 116 H 14.2438 -2.52813 3.62682 0
M  V30 117 N 13.3029 -1.57598 0.00835791 0
M  V30 118 C 14.2499 -2.08945 -0.980346 0
M  V30 119 C 15.2199 -0.986738 -1.33614 0
M  V30 120 O 16.4049 -1.25968 -1.43306 0
M  V30 121 C 13.5449 -2.60425 -2.26435 0
M  V30 122 C 12.6579 -3.84628 -1.96685 0
M  V30 123 C 11.7929 -4.24579 -3.19228 0
M  V30 124 C 10.8319 -5.41596 -2.85202 0
M  V30 125 N 9.9689 -5.768 -4.00307 0
M  V30 126 H 14.8089 -2.93148 -0.535551 0
M  V30 127 H 12.3459 -1.44912 -0.252776 0
M  V30 128 H 14.3039 -2.88354 -3.01509 0
M  V30 129 H 12.9339 -1.79083 -2.68568 0
M  V30 130 H 11.9859 -3.63556 -1.11942 0
M  V30 131 H 13.2979 -4.69796 -1.67611 0
M  V30 132 H 12.4519 -4.53834 -4.02641 0
M  V30 133 H 11.1909 -3.38137 -3.51447 0
M  V30 134 H 10.1959 -5.12056 -2.00198 0
M  V30 135 H 11.4209 -6.29721 -2.54222 0
M  V30 136 H 9.3669 -4.93316 -4.32407 0
M  V30 137 H 9.2839 -6.5656 -3.74786 0
M  V30 138 H 10.5519 -6.10652 -4.84484 0
M  V30 139 N 14.781 0.264519 -1.55364 0
M  V30 140 C 16.058 1.01677 -1.67096 0
M  V30 141 C 16.438 2.03996 -0.543015 0
M  V30 142 O 15.786 2.23907 0.45585 0
M  V30 143 C 15.996 1.66596 -3.0667 0
M  V30 144 C 17.344 2.17442 -3.64697 0
M  V30 145 O 18.368 1.76568 -3.09358 0
M  V30 146 O 17.227 2.92439 -4.61673 0
M  V30 147 H 14.321 0.472161 -0.678965 0
M  V30 148 H 16.867 0.259703 -1.67701 0
M  V30 149 H 15.639 0.924962 -3.80211 0
M  V30 150 H 15.262 2.48968 -3.10001 0
M  V30 151 N 16.2591 1.48442 0.529413 0
M  V30 152 C 17.5061 1.56488 1.28521 0
M  V30 153 C 17.8341 0.239042 1.93025 0
M  V30 154 O 17.0891 -0.770713 1.79885 0
M  V30 155 C 17.3881 2.6523 2.39558 0
M  V30 156 C 17.0541 4.07648 1.92702 0
M  V30 157 C 15.7161 4.46411 1.79641 0
M  V30 158 C 18.0681 4.96896 1.573 0
M  V30 159 C 15.3961 5.72226 1.29514 0
M  V30 160 C 17.7481 6.23202 1.08636 0
M  V30 161 C 16.4121 6.60821 0.941919 0
M  V30 162 H 15.6821 0.572631 0.470292 0
M  V30 163 H 18.3291 1.82161 0.59072 0
M  V30 164 H 16.6341 2.33419 3.14679 0
M  V30 165 H 18.3311 2.68671 2.97686 0
M  V30 166 H 14.9211 3.77036 2.03819 0
M  V30 167 H 19.1051 4.67626 1.66251 0
M  V30 168 H 14.3611 6.00097 1.17019 0
M  V30 169 H 18.5351 6.91753 0.803136 0
M  V30 170 H 16.1621 7.58198 0.5513 0
M  V30 171 N 17.7372 -0.778329 1.37039 0
M  V30 172 C 18.6842 -1.89139 1.32269 0
M  V30 173 C 19.6542 -1.65017 0.189387 0
M  V30 174 O 20.8392 -1.87024 0.377693 0
M  V30 175 C 17.9792 -3.26112 1.12894 0
M  V30 176 C 17.0922 -3.62233 2.35396 0
M  V30 177 C 16.2272 -4.8838 2.08946 0
M  V30 178 C 15.2662 -5.17212 3.2735 0
M  V30 179 N 14.4032 -6.34546 3.00492 0
M  V30 180 H 19.2432 -1.92552 2.27437 0
M  V30 181 H 16.7802 -0.941473 1.13025 0
M  V30 182 H 18.7382 -4.05116 0.996835 0
M  V30 183 H 17.3682 -3.22091 0.213758 0
M  V30 184 H 16.4202 -2.78265 2.5937 0
M  V30 185 H 17.7322 -3.79481 3.23721 0
M  V30 186 H 16.8862 -5.75274 1.92729 0
M  V30 187 H 15.6252 -4.73222 1.17949 0
M  V30 188 H 14.6302 -4.28796 3.44113 0
M  V30 189 H 15.8552 -5.34283 4.19188 0
M  V30 190 H 13.8012 -6.20759 2.12118 0
M  V30 191 H 13.7182 -6.52179 3.82358 0
M  V30 192 H 14.9862 -7.24394 2.87879 0
M  V30 193 N 19.2153 -1.21501 -1.00376 0
M  V30 194 C 20.4433 -1.059 -1.77744 0
M  V30 195 C 20.8583 0.391125 -1.84704 0
M  V30 196 O 20.2153 1.27133 -1.30933 0
M  V30 197 C 20.2663 -1.65111 -3.21591 0
M  V30 198 O 19.9873 -3.0445 -3.15027 0
M  V30 199 C 21.4883 -1.54637 -4.15454 0
M  V30 200 H 18.7083 -0.371825 -0.558558 0
M  V30 201 H 21.2523 -1.60865 -1.26264 0
M  V30 202 H 19.4073 -1.14235 -3.70175 0
M  V30 203 H 19.8213 -3.3278 -4.0541 0
M  V30 204 H 21.2953 -2.00808 -5.14179 0
M  V30 205 H 21.7723 -0.501022 -4.36333 0
M  V30 206 H 22.3783 -2.04767 -3.72761 0
M  V30 207 N 20.6934 1.19889 -1.02296 0
M  V30 208 C 22.1094 1.41462 -0.738954 0
M  V30 209 C 22.3094 1.89721 0.678846 0
M  V30 210 O 21.3654 2.07016 1.4457 0
M  V30 211 C 22.6784 2.43083 -1.77005 0
M  V30 212 C 24.2264 2.5684 -1.78892 0
M  V30 213 C 24.7014 3.61709 -2.80945 0
M  V30 214 N 26.1924 3.69199 -2.79725 0
M  V30 215 C 26.9274 4.50019 -3.55345 0
M  V30 216 N 26.4234 5.34592 -4.40662 0
M  V30 217 N 28.2164 4.44612 -3.43914 0
M  V30 218 H 20.3674 0.868827 -1.93817 0
M  V30 219 H 22.6304 0.44399 -0.837602 0
M  V30 220 H 22.3364 2.14636 -2.78612 0
M  V30 221 H 22.2104 3.4217 -1.58744 0
M  V30 222 H 24.5974 2.84614 -0.779674 0
M  V30 223 H 24.6784 1.57927 -2.01228 0
M  V30 224 H 24.3224 3.34678 -3.82038 0
M  V30 225 H 24.2524 4.60259 -2.5587 0
M  V30 226 H 26.7434 3.08794 -2.17842 0
M  V30 227 H 27.0564 5.93363 -4.95116 0
M  V30 228 H 25.4014 5.34073 -4.44737 0
M  V30 229 H 28.5924 3.7758 -2.76679 0
M  V30 230 H 28.7654 5.0736 -4.031 0
M  V30 231 N 22.1715 0.800033 1.35784 0
M  V30 232 C 23.5875 0.482977 1.52117 0
M  V30 233 C 23.7875 -0.996948 1.75109 0
M  V30 234 O 22.8435 -1.78216 1.78872 0
M  V30 235 C 24.1565 1.32264 2.70049 0
M  V30 236 C 25.7045 1.31742 2.83924 0
M  V30 237 C 26.1795 2.14106 4.04874 0
M  V30 238 N 27.6705 2.11607 4.12039 0
M  V30 239 C 28.4055 2.72099 5.04727 0
M  V30 240 N 27.9015 3.41492 6.02789 0
M  V30 241 N 29.6945 2.61776 4.97423 0
M  V30 242 H 21.8455 1.75856 1.19115 0
M  V30 243 H 24.1085 0.748122 0.582252 0
M  V30 244 H 23.8145 2.37261 2.59616 0
M  V30 245 H 23.6885 0.971303 3.6448 0
M  V30 246 H 26.0755 0.275333 2.93813 0
M  V30 247 H 26.1565 1.70859 1.9037 0
M  V30 248 H 25.8005 3.18351 3.95746 0
M  V30 249 H 25.7305 1.72353 4.97596 0
M  V30 250 H 28.2215 1.61112 3.41835 0
M  V30 251 H 28.5345 3.84953 6.70098 0
M  V30 252 H 26.8795 3.45596 6.02983 0
M  V30 253 H 30.0705 2.07157 4.19766 0
M  V30 254 H 30.2435 3.0921 5.69468 0
M  V30 255 N 23.6496 -1.47581 0.552962 0
M  V30 256 C 24.8746 -2.07378 0.0300593 0
M  V30 257 C 25.2996 -1.40355 -1.25229 0
M  V30 258 O 24.6576 -0.477099 -1.7491 0
M  V30 259 C 24.7056 -3.60274 -0.153231 0
M  V30 260 O 23.8096 -3.94041 -1.21678 0
M  V30 261 H 23.1506 -0.662158 0.0494182 0
M  V30 262 H 25.6806 -1.89662 0.767434 0
M  V30 263 H 25.6906 -4.0633 -0.368761 0
M  V30 264 H 24.3656 -4.08455 0.783397 0
M  V30 265 H 22.9426 -3.59735 -0.982079 0
M  V30 266 N 25.1277 -0.289203 -1.54924 0
M  V30 267 C 26.0747 0.592115 -2.23075 0
M  V30 268 C 27.0447 1.13881 -1.20915 0
M  V30 269 O 28.2297 1.18551 -1.495 0
M  V30 270 C 25.3697 1.76376 -2.96623 0
M  V30 271 C 24.4827 1.24959 -4.13533 0
M  V30 272 C 23.6177 2.38416 -4.74691 0
M  V30 273 C 22.6567 1.84072 -5.83767 0
M  V30 274 N 21.7937 2.91057 -6.38929 0
M  V30 275 H 26.6337 0.00432038 -2.98 0
M  V30 276 H 24.1707 -0.00963529 -1.47097 0
M  V30 277 H 26.1287 2.45268 -3.3749 0
M  V30 278 H 24.7587 2.32337 -2.24097 0
M  V30 279 H 23.8107 0.453307 -3.77689 0
M  V30 280 H 25.1227 0.811662 -4.92152 0
M  V30 281 H 24.2767 3.15276 -5.18349 0
M  V30 282 H 23.0157 2.8553 -3.95378 0
M  V30 283 H 22.0207 1.05697 -5.39545 0
M  V30 284 H 23.2457 1.37877 -6.64956 0
M  V30 285 H 21.1917 3.37526 -5.62505 0
M  V30 286 H 21.1087 2.51724 -7.12861 0
M  V30 287 H 22.3767 3.6785 -6.87246 0
M  V30 288 N 26.6058 1.57591 -0.0167156 0
M  V30 289 C 27.8528 1.91283 0.664597 0
M  V30 290 C 28.1808 0.891949 1.72842 0
M  V30 291 O 27.4358 -0.100931 1.9544 0
M  V30 292 C 27.7348 3.3172 1.33029 0
M  V30 293 C 27.4008 4.4914 0.398047 0
M  V30 294 C 26.0628 4.80992 0.141421 0
M  V30 295 C 28.4148 5.20634 -0.242825 0
M  V30 296 C 25.7428 5.81703 -0.764092 0
M  V30 297 C 28.0948 6.22311 -1.13632 0
M  V30 298 C 26.7588 6.52611 -1.40196 0
M  V30 299 H 26.0288 0.699956 0.243193 0
M  V30 300 H 28.6758 1.9135 -0.0758267 0
M  V30 301 H 26.9808 3.27856 2.14517 0
M  V30 302 H 28.6778 3.55055 1.86379 0
M  V30 303 H 25.2678 4.24262 0.608238 0
M  V30 304 H 29.4518 4.96267 -0.0576019 0
M  V30 305 H 24.7078 6.03532 -0.977732 0
M  V30 306 H 28.8818 6.76834 -1.63917 0
M  V30 307 H 26.5088 7.30467 -2.10529 0
M  V30 308 N 28.0839 -0.256276 1.55502 0
M  V30 309 C 29.3119 -1.00342 1.8094 0
M  V30 310 C 29.7269 -1.79307 0.59114 0
M  V30 311 O 29.0839 -1.77114 -0.440081 0
M  V30 312 C 29.1349 -1.94875 3.04476 0
M  V30 313 O 28.8559 -1.19107 4.21598 0
M  V30 314 C 30.3569 -2.81266 3.42644 0
M  V30 315 H 27.5769 -0.295685 0.602338 0
M  V30 316 H 30.1209 -0.281998 2.02546 0
M  V30 317 H 28.2759 -2.62457 2.84947 0
M  V30 318 H 28.6899 -1.82969 4.91551 0
M  V30 319 H 30.1639 -3.43362 4.32211 0
M  V30 320 H 30.6409 -3.51897 2.62802 0
M  V30 321 H 31.2469 -2.1915 3.64491 0
M  V30 322 N 29.562 -1.4872 -0.521534 0
M  V30 323 C 30.51 -1.64328 -1.64618 0
M  V30 324 C 31.504 -0.50953 -1.61555 0
M  V30 325 O 32.71 -0.688525 -1.66311 0
M  V30 326 H 29.085 -0.517805 -0.545328 0
M  V30 327 H 31.056 -2.58767 -1.48601 0
M  V30 328 C 29.805 -1.70805 -3.02855 0
M  V30 329 H 29.128 -2.5741 -3.05909 0
M  V30 330 H 30.568 -1.85766 -3.81139 0
M  V30 331 C 29.027 -0.448479 -3.33902 0
M  V30 332 O 29.557 0.434928 -3.99339 0
M  V30 333 N 27.763 -0.317616 -2.88859 0
M  V30 334 H 27.31 -1.03748 -2.35784 0
M  V30 335 H 27.268 0.524113 -3.10001 0
M  V30 336 N 31.0401 0.771051 -1.3745 0
M  V30 337 C 32.2881 1.52661 -1.32435 0
M  V30 338 C 32.6091 1.9479 0.0905024 0
M  V30 339 O 31.8791 1.66348 1.03466 0
M  V30 340 H 30.4591 0.566218 -0.487244 0
M  V30 341 H 33.1211 0.917636 -1.71946 0
M  V30 342 H 32.2171 2.42568 -1.96385 0
M  V30 343 N 32.5182 1.22032 0.997298 0
M  V30 344 C 33.4662 0.983634 2.10778 0
M  V30 345 C 34.4602 -0.0717564 1.69248 0
M  V30 346 O 35.6662 0.080304 1.79821 0
M  V30 347 H 32.0412 0.300877 0.689186 0
M  V30 348 H 34.0122 1.92606 2.27916 0
M  V30 349 C 32.7612 0.57326 3.42942 0
M  V30 350 H 32.0842 1.37702 3.75338 0
M  V30 351 H 33.5242 0.447031 4.21637 0
M  V30 352 C 31.9832 -0.7167 3.29188 0
M  V30 353 O 32.5132 -1.77027 3.60589 0
M  V30 354 N 30.7192 -0.686167 2.82383 0
M  V30 355 H 30.2662 0.171507 2.57028 0
M  V30 356 H 30.2242 -1.54955 2.73562 0
M  V30 357 N 33.9963 -1.19345 1.0293 0
M  V30 358 C 34.9443 -2.24621 0.604001 0
M  V30 359 C 35.9383 -1.65452 -0.363587 0
M  V30 360 O 37.1443 -1.78497 -0.23212 0
M  V30 361 H 33.5193 -0.730858 0.177061 0
M  V30 362 H 35.4903 -2.5781 1.50255 0
M  V30 363 C 34.2393 -3.47688 -0.0289127 0
M  V30 364 H 33.5623 -3.93505 0.706651 0
M  V30 365 H 35.0023 -4.23011 -0.289432 0
M  V30 366 C 33.4613 -3.11817 -1.2756 0
M  V30 367 O 33.9913 -3.2451 -2.36762 0
M  V30 368 N 32.1973 -2.66246 -1.16453 0
M  V30 369 H 31.7443 -2.56118 -0.275914 0
M  V30 370 H 31.7023 -2.42617 -1.99961 0
M  V30 371 N 35.4744 -0.807222 -1.35358 0
M  V30 372 C 36.7044 -0.399796 -2.02695 0
M  V30 373 C 37.1124 0.994176 -1.60974 0
M  V30 374 O 36.4554 1.65209 -0.803226 0
M  V30 375 C 36.5174 -0.404445 -3.57218 0
M  V30 376 C 36.1814 -1.74904 -4.22206 0
M  V30 377 C 37.1784 -2.70743 -4.4384 0
M  V30 378 C 34.8634 -2.03322 -4.5931 0
M  V30 379 C 36.8574 -3.93183 -5.01683 0
M  V30 380 C 34.5444 -3.26026 -5.16866 0
M  V30 381 C 35.5424 -4.20774 -5.37994 0
M  V30 382 O 35.2304 -5.41312 -5.94337 0
M  V30 383 H 34.9624 -0.160517 -0.656666 0
M  V30 384 H 37.5164 -1.09235 -1.73945 0
M  V30 385 H 35.7464 0.344707 -3.85161 0
M  V30 386 H 37.4354 -0.0192429 -4.05895 0
M  V30 387 H 38.2014 -2.5008 -4.15554 0
M  V30 388 H 34.0804 -1.30384 -4.42178 0
M  V30 389 H 37.6244 -4.6715 -5.1809 0
M  V30 390 H 33.5214 -3.46559 -5.44579 0
M  V30 391 H 34.2894 -5.42618 -6.12787 0
M  V30 392 N 36.9525 1.47285 -0.560781 0
M  V30 393 C 38.2005 2.02064 -0.0379868 0
M  V30 394 C 38.5215 1.43711 1.31803 0
M  V30 395 O 37.7915 0.61362 1.86042 0
M  V30 396 H 36.3715 0.746918 -0.0110531 0
M  V30 397 H 39.0335 1.80648 -0.731598 0
M  V30 398 H 38.1295 3.12064 0.0474463 0
M  V30 399 N 38.4306 0.297415 1.54768 0
M  V30 400 C 39.3776 -0.580276 2.23386 0
M  V30 401 C 40.3476 -1.13238 1.21517 0
M  V30 402 O 41.5326 -1.17757 1.50126 0
M  V30 403 C 38.6726 -1.74801 2.97555 0
M  V30 404 C 37.7856 -1.22764 4.1419 0
M  V30 405 C 36.9206 -2.35895 4.75949 0
M  V30 406 C 35.9596 -1.80974 5.84735 0
M  V30 407 N 35.0966 -2.87664 6.40464 0
M  V30 408 H 39.9366 0.0114833 2.97998 0
M  V30 409 H 37.4736 0.0174361 1.4709 0
M  V30 410 H 39.4316 -2.43475 3.38786 0
M  V30 411 H 38.0616 -2.31145 2.25326 0
M  V30 412 H 37.1136 -0.433271 3.77924 0
M  V30 413 H 38.4256 -0.785551 4.92575 0
M  V30 414 H 37.5796 -3.12523 5.20014 0
M  V30 415 H 36.3186 -2.83429 3.96887 0
M  V30 416 H 35.3236 -1.02834 5.40097 0
M  V30 417 H 36.5486 -1.34348 6.65678 0
M  V30 418 H 34.4946 -3.34538 5.64287 0
M  V30 419 H 34.4116 -2.4794 7.14186 0
M  V30 420 H 35.6796 -3.642 6.89187 0
M  V30 421 N 39.9087 -1.5758 0.0250728 0
M  V30 422 C 41.1337 -1.96337 -0.668317 0
M  V30 423 C 41.5587 -0.901314 -1.651 0
M  V30 424 O 40.9167 0.138187 -1.80773 0
M  V30 425 C 40.9647 -3.34191 -1.35457 0
M  V30 426 O 40.0687 -3.30269 -2.46974 0
M  V30 427 H 39.4097 -0.640281 -0.175887 0
M  V30 428 H 41.9397 -2.0442 0.0857224 0
M  V30 429 H 41.9497 -3.70331 -1.71228 0
M  V30 430 H 40.6247 -4.11036 -0.634218 0
M  V30 431 H 39.2017 -3.05841 -2.13344 0
M  V30 432 N 41.3868 0.248026 -1.55636 0
M  V30 433 C 42.6348 0.974295 -1.77065 0
M  V30 434 C 42.9558 1.85897 -0.588849 0
M  V30 435 O 42.2258 1.91868 0.395407 0
M  V30 436 H 40.8058 0.362733 -0.653019 0
M  V30 437 H 43.4678 0.266244 -1.93073 0
M  V30 438 H 42.5638 1.59667 -2.68166 0
M  V30 439 N 42.8649 1.48995 0.513639 0
M  V30 440 C 43.8129 1.65199 1.63744 0
M  V30 441 C 44.8069 0.51809 1.61283 0
M  V30 442 O 46.0129 0.697335 1.65943 0
M  V30 443 H 42.3879 0.52069 0.542574 0
M  V30 444 H 44.3589 2.59552 1.47226 0
M  V30 445 C 43.1079 1.72409 3.01945 0
M  V30 446 H 42.4309 2.59029 3.04539 0
M  V30 447 H 43.8709 1.87785 3.80148 0
M  V30 448 C 42.3299 0.46618 3.33659 0
M  V30 449 O 42.8599 -0.413744 3.99564 0
M  V30 450 N 41.0659 0.332931 2.88687 0
M  V30 451 H 40.6129 1.04996 2.35231 0
M  V30 452 H 40.5709 -0.507665 3.10274 0
M  V30 453 N 44.343 -0.763751 1.37857 0
M  V30 454 C 45.291 -1.89864 1.34367 0
M  V30 455 C 46.285 -1.67816 0.231143 0
M  V30 456 O 47.491 -1.75508 0.399617 0
M  V30 457 H 43.866 -0.624501 0.41893 0
M  V30 458 H 45.837 -1.89925 2.30155 0
M  V30 459 C 44.586 -3.27227 1.1755 0
M  V30 460 H 43.909 -3.44773 2.02414 0
M  V30 461 H 45.349 -4.06911 1.1916 0
M  V30 462 C 43.808 -3.36692 -0.118311 0
M  V30 463 O 44.338 -3.86374 -1.09902 0
M  V30 464 N 42.544 -2.90092 -0.171717 0
M  V30 465 H 42.091 -2.49853 0.627012 0
M  V30 466 H 42.049 -2.96806 -1.03699 0
M  V30 467 N 45.8211 -1.22559 -0.990812 0
M  V30 468 C 46.7681 -0.997519 -2.0813 0
M  V30 469 C 47.7381 0.0814702 -1.659 0
M  V30 470 O 48.9231 -0.0685424 -1.90677 0
M  V30 471 C 46.0631 -0.583615 -3.40129 0
M  V30 472 C 45.1761 -1.7336 -3.9569 0
M  V30 473 C 44.3111 -1.26748 -5.15857 0
M  V30 474 C 43.3501 -2.38888 -5.63559 0
M  V30 475 N 42.4871 -1.93308 -6.74964 0
M  V30 476 H 47.3271 -1.93099 -2.26973 0
M  V30 477 H 44.8641 -0.962114 -1.11273 0
M  V30 478 H 46.8221 -0.324801 -4.15934 0
M  V30 479 H 45.4521 0.312845 -3.2128 0
M  V30 480 H 44.5041 -2.10669 -3.16738 0
M  V30 481 H 45.8161 -2.57704 -4.27071 0
M  V30 482 H 44.9701 -0.966173 -5.98957 0
M  V30 483 H 43.7091 -0.394272 -4.86104 0
M  V30 484 H 42.7141 -2.69805 -4.79046 0
M  V30 485 H 43.9391 -3.26728 -5.95336 0
M  V30 486 H 41.8851 -1.08352 -6.4699 0
M  V30 487 H 41.8021 -2.71217 -7.05675 0
M  V30 488 H 43.0701 -1.66252 -7.61564 0
M  V30 489 N 47.2992 1.18797 -1.03562 0
M  V30 490 C 48.2472 2.24297 -0.615905 0
M  V30 491 C 49.2412 1.65643 0.354808 0
M  V30 492 O 50.4472 1.78618 0.22265 0
M  V30 493 H 46.8222 0.729909 -0.180934 0
M  V30 494 H 48.7932 2.5701 -1.5162 0
M  V30 495 C 47.5422 3.47698 0.0104735 0
M  V30 496 H 46.8652 3.93125 -0.727509 0
M  V30 497 H 48.3052 4.23159 0.266995 0
M  V30 498 C 46.7642 3.12489 1.25905 0
M  V30 499 O 47.2942 3.25761 2.35038 0
M  V30 500 N 45.5002 2.6686 1.15039 0
M  V30 501 H 45.0472 2.56261 0.262328 0
M  V30 502 H 45.0052 2.43674 1.98672 0
M  V30 503 N 48.7773 0.814389 1.34928 0
M  V30 504 C 50.0023 0.410097 2.03305 0
M  V30 505 C 50.4273 -0.973464 1.60951 0
M  V30 506 O 49.7853 -1.63185 0.789964 0
M  V30 507 C 49.8333 0.51049 3.56968 0
M  V30 508 O 48.9373 -0.473035 4.09678 0
M  V30 509 H 48.2783 0.170088 0.641846 0
M  V30 510 H 50.8083 1.10244 1.72358 0
M  V30 511 H 50.8183 0.383135 4.06197 0
M  V30 512 H 49.4933 1.51963 3.87144 0
M  V30 513 H 48.0703 -0.305272 3.71648 0
M  V30 514 N 50.2554 -1.46986 0.568584 0
M  V30 515 C 51.1654 -2.33942 -0.17555 0
M  V30 516 C 52.1814 -1.48891 -0.90041 0
M  V30 517 O 53.3574 -1.81794 -0.86676 0
M  V30 518 C 50.4224 -3.25811 -1.18524 0
M  V30 519 C 49.4834 -4.26757 -0.466582 0
M  V30 520 C 48.7164 -5.14236 -1.42817 0
M  V30 521 O 48.9394 -5.04379 -2.66379 0
M  V30 522 O 47.8734 -5.94412 -0.946453 0
M  V30 523 H 51.6994 -2.98896 0.538036 0
M  V30 524 H 49.2844 -1.4573 0.329097 0
M  V30 525 H 51.1664 -3.82527 -1.76779 0
M  V30 526 H 49.8414 -2.63471 -1.88055 0
M  V30 527 H 48.7484 -3.73769 0.157451 0
M  V30 528 H 50.0814 -4.91843 0.187485 0
M  V30 529 N 51.7335 -0.305618 -1.54608 0
M  V30 530 C 53.0105 0.355652 -1.92339 0
M  V30 531 C 53.3905 1.71324 -1.23335 0
M  V30 532 O 52.7385 2.25473 -0.370702 0
M  V30 533 C 52.9485 0.46572 -3.45879 0
M  V30 534 C 54.2965 0.734426 -4.182 0
M  V30 535 O 55.3205 0.54935 -3.51938 0
M  V30 536 O 54.1795 1.09024 -5.35515 0
M  V30 537 H 51.2735 0.199666 -0.802535 0
M  V30 538 H 53.8195 -0.354017 -1.65966 0
M  V30 539 H 52.5915 -0.488461 -3.88239 0
M  V30 540 H 52.2145 1.22367 -3.78301 0
M  V30 541 N 53.2116 1.57565 -0.0334293 0
M  V30 542 C 54.1416 2.13511 0.945265 0
M  V30 543 C 55.1226 1.05231 1.33643 0
M  V30 544 O 56.3076 1.33084 1.41429 0
M  V30 545 C 53.4376 2.6657 2.22616 0
M  V30 546 C 52.3916 3.79676 1.97561 0
M  V30 547 C 51.7176 4.1918 3.31952 0
M  V30 548 C 53.0176 5.0557 1.31135 0
M  V30 549 H 54.7116 2.95538 0.479325 0
M  V30 550 H 52.2576 1.42166 0.229115 0
M  V30 551 H 54.2106 3.04344 2.91466 0
M  V30 552 H 52.9346 1.8171 2.71384 0
M  V30 553 H 51.5936 3.42347 1.31127 0
M  V30 554 H 51.2416 3.31296 3.78487 0
M  V30 555 H 50.9416 4.95402 3.15992 0
M  V30 556 H 52.4656 4.59541 4.02063 0
M  V30 557 H 53.8796 5.40903 1.89992 0
M  V30 558 H 52.2766 5.86818 1.25559 0
M  V30 559 H 53.3466 4.84062 0.284894 0
M  V30 560 N 54.6897 -0.239769 1.55765 0
M  V30 561 C 55.6527 -1.28038 1.90103 0
M  V30 562 C 56.6527 -1.40723 0.778055 0
M  V30 563 O 57.8427 -1.39301 1.04599 0
M  V30 564 C 54.9747 -2.65702 2.13577 0
M  V30 565 H 56.1677 -0.988048 2.83157 0
M  V30 566 H 53.7207 -0.479382 1.48767 0
M  V30 567 H 54.4557 -3.00063 1.23015 0
M  V30 568 H 54.2407 -2.57875 2.95369 0
M  V30 569 H 55.7307 -3.40828 2.41301 0
M  V30 570 N 56.1678 -1.49265 -0.50573 0
M  V30 571 C 57.4168 -1.57761 -1.25675 0
M  V30 572 C 57.7298 -0.267371 -1.93764 0
M  V30 573 O 58.9358 -0.230827 -2.70517 0
M  V30 574 C 57.3918 -2.78332 -2.28165 0
M  V30 575 C 56.9998 -4.16096 -1.66037 0
M  V30 576 C 58.7438 -2.96155 -3.04125 0
M  V30 577 C 56.6508 -5.27895 -2.6661 0
M  V30 578 H 55.5808 -0.587391 -0.472745 0
M  V30 579 H 58.2318 -1.75644 -0.53118 0
M  V30 580 H 56.6138 -2.53934 -3.03865 0
M  V30 581 H 57.7878 -4.50612 -0.963622 0
M  V30 582 H 56.1028 -4.03591 -1.02484 0
M  V30 583 H 58.6998 -3.76849 -3.79327 0
M  V30 584 H 59.0428 -2.06534 -3.61455 0
M  V30 585 H 59.5758 -3.2057 -2.35541 0
M  V30 586 H 56.3148 -6.1956 -2.14068 0
M  V30 587 H 55.8348 -4.97839 -3.34539 0
M  V30 588 H 57.5138 -5.57031 -3.29129 0
M  V30 589 N 57.6459 0.756429 -1.3826 0
M  V30 590 C 58.5939 1.89149 -1.35372 0
M  V30 591 C 59.5879 1.67691 -0.24004 0
M  V30 592 O 60.7939 1.75294 -0.408919 0
M  V30 593 H 57.1689 0.622271 -0.422236 0
M  V30 594 H 59.1399 1.88701 -2.31159 0
M  V30 595 C 57.8889 3.26599 -1.19284 0
M  V30 596 H 57.2119 3.43695 -2.0424 0
M  V30 597 H 58.6519 4.06274 -1.21316 0
M  V30 598 C 57.1109 3.3675 0.100454 0
M  V30 599 O 57.6409 3.86951 1.07851 0
M  V30 600 N 55.8469 2.90179 0.15633 0
M  V30 601 H 55.3939 2.49517 -0.640253 0
M  V30 602 H 55.3519 2.97352 1.02123 0
M  V30 603 N 59.124 1.23083 0.984299 0
M  V30 604 C 60.535 1.05609 1.5396 0
M  V30 605 C 60.886 -0.377793 1.92528 0
M  V30 606 O 60.011 -1.26398 1.75649 0
M  V30 607 C 60.606 1.91087 2.7977 0
M  V30 608 C 59.165 1.77885 3.31713 0
M  V30 609 C 58.312 1.87028 2.04733 0
M  V30 610 H 61.263 1.36802 0.804419 0
M  V30 611 H 61.284 1.43336 3.5247 0
M  V30 612 H 60.796 2.9544 2.51668 0
M  V30 613 H 58.897 0.762995 3.64704 0
M  V30 614 H 59.01 2.61047 4.01735 0
M  V30 615 H 57.374 1.30565 2.18689 0
M  V30 616 H 58.157 2.92929 1.79017 0
M  V30 617 N 60.6021 -1.18246 1.0419 0
M  V30 618 C 61.8501 -1.87886 0.744543 0
M  V30 619 C 62.1711 -1.8082 -0.730006 0
M  V30 620 O 61.4411 -1.22736 -1.52685 0
M  V30 621 H 60.0211 -0.695556 0.272417 0
M  V30 622 H 62.6831 -1.43494 1.31892 0
M  V30 623 H 61.7791 -2.9389 1.05049 0
M  V30 624 N 62.0802 -0.821533 -1.34494 0
M  V30 625 C 63.0132 -0.187704 -2.27427 0
M  V30 626 C 63.9912 0.65507 -1.48821 0
M  V30 627 O 65.1752 0.619111 -1.78043 0
M  V30 628 C 62.3022 0.737996 -3.30562 0
M  V30 629 C 61.3482 -0.0270713 -4.26491 0
M  V30 630 S 62.1812 -1.37329 -5.17592 0
M  V30 631 C 63.3372 -0.452427 -6.24263 0
M  V30 632 H 63.5702 -0.975598 -2.80837 0
M  V30 633 H 61.1032 -0.61736 -1.4152 0
M  V30 634 H 63.0612 1.26654 -3.90473 0
M  V30 635 H 61.7222 1.4994 -2.76001 0
M  V30 636 H 60.9152 0.6766 -4.99438 0
M  V30 637 H 60.5172 -0.48612 -3.70827 0
M  V30 638 H 62.8092 0.356557 -6.76561 0
M  V30 639 H 63.7522 -1.15153 -6.98674 0
M  V30 640 H 64.1602 -0.0414755 -5.64485 0
M  V30 641 N 63.5583 1.46682 -0.576371 0
M  V30 642 C 64.7883 2.06498 -0.0648694 0
M  V30 643 C 65.1963 1.42665 1.24271 0
M  V30 644 O 64.5393 0.523886 1.76071 0
M  V30 645 C 64.6013 3.5904 0.181816 0
M  V30 646 C 64.2653 4.45028 -1.0392 0
M  V30 647 C 65.2623 4.81959 -1.94966 0
M  V30 648 C 62.9473 4.86259 -1.25927 0
M  V30 649 C 64.9413 5.58942 -3.06371 0
M  V30 650 C 62.6283 5.63002 -2.37638 0
M  V30 651 C 63.6263 5.99257 -3.2769 0
M  V30 652 O 63.3143 6.7445 -4.37461 0
M  V30 653 H 63.0463 0.674028 -0.0515987 0
M  V30 654 H 65.6003 1.89393 -0.794951 0
M  V30 655 H 63.8303 3.74429 0.966436 0
M  V30 656 H 65.5193 4.00806 0.641047 0
M  V30 657 H 66.2853 4.50689 -1.79177 0
M  V30 658 H 62.1643 4.57494 -0.567448 0
M  V30 659 H 65.7083 5.87158 -3.76684 0
M  V30 660 H 61.6053 5.93686 -2.53392 0
M  V30 661 H 62.3733 6.92867 -4.35749 0
M  V30 662 N 65.0364 0.313813 1.54444 0
M  V30 663 C 66.2824 -0.292108 2.00685 0
M  V30 664 C 66.6154 -1.52548 1.20177 0
M  V30 665 O 65.8904 -1.92452 0.281531 0
M  V30 666 C 66.1734 -0.635968 3.5444 0
M  V30 667 C 66.0264 0.607437 4.4568 0
M  V30 668 C 67.3454 -1.45747 4.15266 0
M  V30 669 H 64.4644 -0.104697 0.729526 0
M  V30 670 H 67.1064 0.428457 1.85106 0
M  V30 671 H 65.2564 -1.24986 3.67846 0
M  V30 672 H 66.9284 1.24581 4.44159 0
M  V30 673 H 65.1714 1.23822 4.15753 0
M  V30 674 H 65.8424 0.322515 5.51057 0
M  V30 675 H 68.3184 -0.938645 4.05375 0
M  V30 676 H 67.1944 -1.66683 5.2298 0
M  V30 677 H 67.4554 -2.45063 3.67963 0
M  V30 678 N 66.5145 -1.57545 0.0417849 0
M  V30 679 C 67.9305 -1.56467 -0.314704 0
M  V30 680 C 68.1305 -1.04859 -1.72066 0
M  V30 681 O 67.1865 -0.700983 -2.42575 0
M  V30 682 C 68.4995 -3.00317 -0.15174 0
M  V30 683 C 70.0475 -3.12201 -0.223553 0
M  V30 684 C 70.5225 -4.57913 -0.0892295 0
M  V30 685 N 72.0135 -4.6297 -0.145808 0
M  V30 686 C 72.7485 -5.73362 -0.0658459 0
M  V30 687 N 72.2445 -6.92769 0.0659282 0
M  V30 688 N 74.0375 -5.6197 -0.12075 0
M  V30 689 H 66.1885 -1.89416 0.961014 0
M  V30 690 H 68.4515 -0.871862 0.372237 0
M  V30 691 H 68.1575 -3.42073 0.817254 0
M  V30 692 H 68.0315 -3.65892 -0.916692 0
M  V30 693 H 70.4185 -2.70349 -1.18301 0
M  V30 694 H 70.4995 -2.49323 0.571994 0
M  V30 695 H 70.1435 -5.00448 0.866867 0
M  V30 696 H 70.0735 -5.18786 -0.903802 0
M  V30 697 H 72.5645 -3.7709 -0.247286 0
M  V30 698 H 72.8775 -7.72707 0.119905 0
M  V30 699 H 71.2225 -6.94927 0.100885 0
M  V30 700 H 74.4135 -4.67572 -0.222187 0
M  V30 701 H 74.5865 -6.47977 -0.0549735 0
M  V30 702 N 67.9926 0.231505 -1.5589 0
M  V30 703 C 68.9396 1.28682 -1.91598 0
M  V30 704 C 69.9096 1.47071 -0.771974 0
M  V30 705 O 71.0946 1.60802 -1.027 0
M  V30 706 C 68.2346 2.6342 -2.22944 0
M  V30 707 C 67.3476 2.52912 -3.50228 0
M  V30 708 C 66.4826 3.80106 -3.7107 0
M  V30 709 C 65.5216 3.64279 -4.91902 0
M  V30 710 N 64.6586 4.834 -5.09184 0
M  V30 711 H 69.4986 0.975305 -2.81588 0
M  V30 712 H 67.0356 0.470299 -1.39379 0
M  V30 713 H 68.9936 3.41869 -2.39126 0
M  V30 714 H 67.6236 2.92687 -1.36139 0
M  V30 715 H 66.6756 1.6595 -3.42294 0
M  V30 716 H 67.9876 2.37133 -4.38827 0
M  V30 717 H 67.1416 4.66999 -3.87295 0
M  V30 718 H 65.8806 3.98799 -2.80733 0
M  V30 719 H 64.8856 2.7577 -4.75637 0
M  V30 720 H 66.1106 3.47067 -5.83714 0
M  V30 721 H 64.0566 5.02425 -4.21788 0
M  V30 722 H 63.9736 4.70311 -5.91898 0
M  V30 723 H 65.2416 5.71747 -5.29835 0
M  V30 724 N 69.4707 1.49531 0.497807 0
M  V30 725 C 70.4177 1.66436 1.59899 0
M  V30 726 C 71.3877 0.505793 1.58212 0
M  V30 727 O 72.5727 0.733202 1.7615 0
M  V30 728 C 69.7127 1.7399 2.98029 0
M  V30 729 C 68.8257 3.01172 3.09708 0
M  V30 730 C 67.9607 2.99686 4.38591 0
M  V30 731 C 66.9997 4.21434 4.43914 0
M  V30 732 N 66.1367 4.1784 5.64229 0
M  V30 733 H 70.9767 2.60459 1.44793 0
M  V30 734 H 68.5137 1.29137 0.704423 0
M  V30 735 H 70.4717 1.76352 3.78095 0
M  V30 736 H 69.1017 0.834301 3.11832 0
M  V30 737 H 68.1537 3.08408 2.22685 0
M  V30 738 H 69.4657 3.91165 3.09502 0
M  V30 739 H 68.6197 3.00628 5.2698 0
M  V30 740 H 67.3587 2.07477 4.41367 0
M  V30 741 H 66.3637 4.20733 3.53926 0
M  V30 742 H 67.5887 5.14839 4.42851 0
M  V30 743 H 65.5347 3.28469 5.67841 0
M  V30 744 H 65.4517 5.01571 5.65652 0
M  V30 745 H 66.7197 4.22889 6.54817 0
M  V30 746 N 70.9488 -0.749086 1.3866 0
M  V30 747 C 71.8588 -1.89358 1.38494 0
M  V30 748 C 72.8748 -1.71708 0.281476 0
M  V30 749 O 74.0508 -1.94554 0.520643 0
M  V30 750 C 71.1158 -3.24782 1.21316 0
M  V30 751 C 70.1768 -3.54926 2.41508 0
M  V30 752 C 69.4098 -4.83888 2.2514 0
M  V30 753 O 69.6328 -5.56592 1.24746 0
M  V30 754 O 68.5668 -5.13612 3.13826 0
M  V30 755 H 72.3928 -1.92452 2.34938 0
M  V30 756 H 69.9778 -0.894981 1.19626 0
M  V30 757 H 71.8598 -4.05739 1.13814 0
M  V30 758 H 70.5348 -3.2249 0.279592 0
M  V30 759 H 69.4418 -2.74112 2.54585 0
M  V30 760 H 70.7748 -3.61983 3.3351 0
M  V30 761 N 72.4269 -1.23603 -0.977757 0
M  V30 762 C 73.6749 -1.06759 -1.71601 0
M  V30 763 C 73.9959 0.395929 -1.90938 0
M  V30 764 O 73.2659 1.28356 -1.47992 0
M  V30 765 H 71.8459 -0.392062 -0.635843 0
M  V30 766 H 74.5079 -1.55362 -1.1768 0
M  V30 767 H 73.6039 -1.55763 -2.70452 0
M  V30 768 N 73.905 1.17692 -1.04816 0
M  V30 769 C 74.852 2.21581 -0.645797 0
M  V30 770 C 75.822 1.62367 0.350159 0
M  V30 771 O 77.007 1.89254 0.242433 0
M  V30 772 C 74.147 3.45092 -0.0227568 0
M  V30 773 C 73.26 4.18613 -1.06709 0
M  V30 774 C 72.395 5.29602 -0.411767 0
M  V30 775 C 71.434 5.94904 -1.44067 0
M  V30 776 N 70.571 6.97414 -0.809781 0
M  V30 777 H 75.411 2.55353 -1.5362 0
M  V30 778 H 72.948 1.25438 -0.768364 0
M  V30 779 H 74.906 4.15679 0.35588 0
M  V30 780 H 73.536 3.11917 0.831122 0
M  V30 781 H 72.588 3.46779 -1.5636 0
M  V30 782 H 73.9 4.63293 -1.84827 0
M  V30 783 H 73.054 6.06696 0.0206623 0
M  V30 784 H 71.793 4.86045 0.401438 0
M  V30 785 H 70.798 5.16544 -1.88316 0
M  V30 786 H 72.023 6.40542 -2.25571 0
M  V30 787 H 69.969 6.55998 -0.0170186 0
M  V30 788 H 69.886 7.40386 -1.52856 0
M  V30 789 H 71.154 7.78463 -0.401999 0
M  V30 790 N 75.3831 0.828654 1.34056 0
M  V30 791 C 76.6321 0.415828 1.97367 0
M  V30 792 C 76.9451 -1.02796 1.6641 0
M  V30 793 O 78.1511 -1.54497 2.23255 0
M  V30 794 C 76.6071 0.692601 3.53173 0
M  V30 795 C 76.2151 2.15038 3.93017 0
M  V30 796 C 77.9591 0.346222 4.23086 0
M  V30 797 C 75.8661 2.37174 5.41758 0
M  V30 798 H 74.7961 0.151755 0.738571 0
M  V30 799 H 77.4471 1.01581 1.52819 0
M  V30 800 H 75.8291 0.0223764 3.95994 0
M  V30 801 H 77.0031 2.86024 3.61285 0
M  V30 802 H 75.3181 2.45875 3.36057 0
M  V30 803 H 77.9151 0.48937 5.32456 0
M  V30 804 H 78.2581 -0.709842 4.10204 0
M  V30 805 H 78.7911 0.971258 3.85761 0
M  V30 806 H 75.5301 3.41308 5.59633 0
M  V30 807 H 75.0501 1.70738 5.74986 0
M  V30 808 H 76.7291 2.19818 6.08514 0
M  V30 809 N 76.8612 -1.46375 0.584142 0
M  V30 810 C 78.1092 -2.01978 0.0701287 0
M  V30 811 C 78.4302 -1.4579 -1.295 0
M  V30 812 O 77.7002 -0.64314 -1.85042 0
M  V30 813 H 76.2802 -0.746648 0.0229345 0
M  V30 814 H 78.9422 -1.79461 0.760245 0
M  V30 815 H 78.0382 -3.121 0.0022064 0
M  V30 816 N 78.3393 -0.321999 -1.54275 0
M  V30 817 C 79.2493 0.553631 -2.27974 0
M  V30 818 C 80.2653 1.13054 -1.32268 0
M  V30 819 O 81.4413 1.15084 -1.6528 0
M  V30 820 C 78.5063 1.69927 -3.02201 0
M  V30 821 C 77.5673 1.15433 -4.1349 0
M  V30 822 C 76.8003 2.24537 -4.84168 0
M  V30 823 O 77.0233 3.44852 -4.5435 0
M  V30 824 O 75.9573 1.90044 -5.7111 0
M  V30 825 H 79.7833 -0.0448345 -3.03667 0
M  V30 826 H 77.3683 -0.0877418 -1.49142 0
M  V30 827 H 79.2503 2.3663 -3.48689 0
M  V30 828 H 77.9253 2.28395 -2.29385 0
M  V30 829 H 76.8323 0.452436 -3.71354 0
M  V30 830 H 78.1653 0.614805 -4.88345 0
M  V30 831 N 79.8174 1.5752 -0.0501392 0
M  V30 832 C 81.0424 1.97376 0.636997 0
M  V30 833 C 81.4674 0.927466 1.63645 0
M  V30 834 O 80.8254 -0.10941 1.8097 0
M  V30 835 C 80.8734 3.36304 1.30123 0
M  V30 836 O 79.9774 3.34156 2.41689 0
M  V30 837 H 79.3184 0.642998 0.165679 0
M  V30 838 H 81.8484 2.04258 -0.118233 0
M  V30 839 H 81.8584 3.73008 1.65315 0
M  V30 840 H 80.5334 4.11993 0.568746 0
M  V30 841 H 79.1104 3.09196 2.08451 0
M  V30 842 N 81.2955 -0.223234 1.56011 0
M  V30 843 C 82.5255 -0.963413 1.82762 0
M  V30 844 C 82.9335 -1.78516 0.626804 0
M  V30 845 O 82.2765 -1.78974 -0.414014 0
M  V30 846 C 82.3385 -1.93126 3.0322 0
M  V30 847 C 82.0025 -1.2942 4.38291 0
M  V30 848 C 82.9995 -0.684916 5.15369 0
M  V30 849 C 80.6845 -1.30647 4.85012 0
M  V30 850 C 82.6785 -0.0963971 6.37327 0
M  V30 851 C 80.3655 -0.71411 6.06913 0
M  V30 852 C 81.3635 -0.110123 6.82911 0
M  V30 853 O 81.0515 0.47303 8.02507 0
M  V30 854 H 80.7835 -0.288011 0.611576 0
M  V30 855 H 83.3375 -0.244103 2.03944 0
M  V30 856 H 81.5675 -2.68952 2.77852 0
M  V30 857 H 83.2565 -2.53685 3.16857 0
M  V30 858 H 84.0225 -0.667774 4.80381 0
M  V30 859 H 79.9015 -1.76598 4.25833 0
M  V30 860 H 83.4455 0.375657 6.96588 0
M  V30 861 H 79.3425 -0.728659 6.41374 0
M  V30 862 H 80.1105 0.367186 8.17676 0
M  V30 863 N 82.7736 -1.49793 -0.48987 0
M  V30 864 C 84.0206 -1.59841 -1.24327 0
M  V30 865 C 84.3486 -0.290135 -1.92324 0
M  V30 866 O 83.6036 0.722749 -1.81865 0
M  V30 867 C 83.9026 -2.71488 -2.32441 0
M  V30 868 C 83.5686 -4.12614 -1.81826 0
M  V30 869 C 82.2306 -4.51017 -1.67742 0
M  V30 870 C 84.5826 -5.00892 -1.4407 0
M  V30 871 C 81.9106 -5.75459 -1.14297 0
M  V30 872 C 84.2626 -6.25863 -0.920742 0
M  V30 873 C 82.9266 -6.63086 -0.766383 0
M  V30 874 H 82.1966 -0.584899 -0.454944 0
M  V30 875 H 84.8436 -1.83663 -0.542215 0
M  V30 876 H 83.1486 -2.4168 -3.0838 0
M  V30 877 H 84.8456 -2.76469 -2.90458 0
M  V30 878 H 81.4356 -3.82307 -1.93751 0
M  V30 879 H 85.6196 -4.7187 -1.53794 0
M  V30 880 H 80.8756 -6.02989 -1.01068 0
M  V30 881 H 85.0496 -6.9364 -0.619448 0
M  V30 882 H 82.6766 -7.59393 -0.350083 0
M  V30 883 N 84.2517 0.741722 -1.39055 0
M  V30 884 C 85.1987 1.85566 -1.37237 0
M  V30 885 C 86.1687 1.64457 -0.233072 0
M  V30 886 O 87.3537 1.85957 -0.427147 0
M  V30 887 C 84.4937 3.23004 -1.215 0
M  V30 888 C 83.6067 3.55864 -2.44918 0
M  V30 889 C 82.7417 4.82669 -2.21821 0
M  V30 890 C 81.7807 5.08351 -3.40948 0
M  V30 891 N 80.9177 6.26356 -3.17211 0
M  V30 892 H 85.7577 1.86455 -2.32462 0
M  V30 893 H 83.2947 0.911176 -1.15482 0
M  V30 894 H 85.2527 4.02331 -1.10389 0
M  V30 895 H 83.8827 3.21411 -0.29908 0
M  V30 896 H 82.9347 2.7129 -2.66657 0
M  V30 897 H 84.2467 3.70765 -3.33668 0
M  V30 898 H 83.4007 5.69962 -2.07914 0
M  V30 899 H 82.1397 4.69929 -1.30454 0
M  V30 900 H 81.1447 4.19522 -3.55361 0
M  V30 901 H 82.3697 5.22981 -4.33207 0
M  V30 902 H 80.3157 6.14917 -2.28502 0
M  V30 903 H 80.2327 6.41813 -3.99515 0
M  V30 904 H 81.5007 7.16506 -3.06984 0
M  V30 905 N 85.7298 1.2412 0.971189 0
M  V30 906 C 86.9758 1.08041 1.71625 0
M  V30 907 C 87.3088 -0.380407 1.90438 0
M  V30 908 O 86.5838 -1.28127 1.46334 0
M  V30 909 C 86.8668 1.81682 3.10908 0
M  V30 910 C 86.7198 3.35493 2.99608 0
M  V30 911 C 88.0388 1.58671 4.10501 0
M  V30 912 H 85.1578 0.39388 0.622919 0
M  V30 913 H 87.7998 1.52743 1.13003 0
M  V30 914 H 85.9498 1.43684 3.60953 0
M  V30 915 H 87.6218 3.83068 2.57015 0
M  V30 916 H 85.8648 3.64052 2.35899 0
M  V30 917 H 86.5358 3.82217 3.98264 0
M  V30 918 H 89.0118 1.91719 3.69301 0
M  V30 919 H 87.8878 2.1266 5.06031 0
M  V30 920 H 88.1488 0.524161 4.38982 0
M  V30 921 N 87.2079 -1.17134 1.05439 0
M  V30 922 C 88.6239 -1.39454 0.776201 0
M  V30 923 C 88.8239 -1.91454 -0.628307 0
M  V30 924 O 87.8799 -2.10777 -1.39031 0
M  V30 925 C 89.1929 -2.38305 1.83388 0
M  V30 926 C 90.7409 -2.52006 1.85639 0
M  V30 927 C 91.2159 -3.54133 2.90437 0
M  V30 928 N 92.7069 -3.61653 2.89415 0
M  V30 929 C 93.4419 -4.4044 3.67152 0
M  V30 930 N 92.9379 -5.22721 4.54681 0
M  V30 931 N 94.7309 -4.35337 3.55581 0
M  V30 932 H 86.8819 -0.817134 1.96053 0
M  V30 933 H 89.1449 -0.421626 0.849079 0
M  V30 934 H 88.8509 -2.07173 2.84204 0
M  V30 935 H 88.7249 -3.37841 1.67761 0
M  V30 936 H 91.1119 -2.82447 0.85486 0
M  V30 937 H 91.1929 -1.52537 2.05344 0
M  V30 938 H 90.8369 -3.24431 3.90777 0
M  V30 939 H 90.7669 -4.53313 2.67983 0
M  V30 940 H 93.2579 -3.02909 2.25952 0
M  V30 941 H 93.5709 -5.80027 5.10674 0
M  V30 942 H 91.9159 -5.22093 4.58741 0
M  V30 943 H 95.1069 -3.70112 2.86592 0
M  V30 944 H 95.2799 -4.96494 4.1641 0
M  V30 945 N 88.686 -0.835752 -1.33615 0
M  V30 946 C 89.633 -0.26473 -2.29277 0
M  V30 947 C 90.603 0.617712 -1.54187 0
M  V30 948 O 91.788 0.556641 -1.825 0
M  V30 949 C 88.928 0.556777 -3.40579 0
M  V30 950 C 88.041 -0.349339 -4.30585 0
M  V30 951 C 87.176 0.482969 -5.29 0
M  V30 952 C 86.215 -0.421732 -6.10645 0
M  V30 953 N 85.352 0.372262 -7.01112 0
M  V30 954 H 90.192 -1.08582 -2.77514 0
M  V30 955 H 87.729 -0.546927 -1.36554 0
M  V30 956 H 89.687 1.04852 -4.03809 0
M  V30 957 H 88.317 1.34286 -2.93542 0
M  V30 958 H 87.369 -0.959372 -3.68104 0
M  V30 959 H 88.681 -1.04445 -4.87742 0
M  V30 960 H 87.835 1.03866 -5.97743 0
M  V30 961 H 86.574 1.21153 -4.72412 0
M  V30 962 H 85.579 -0.989464 -5.40823 0
M  V30 963 H 86.804 -1.14861 -6.69316 0
M  V30 964 H 84.75 1.08426 -6.46977 0
M  V30 965 H 84.667 -0.264198 -7.55538 0
M  V30 966 H 85.935 0.910293 -7.74167 0
M  V30 967 N 90.1641 1.46063 -0.591896 0
M  V30 968 C 91.0941 2.33172 0.123673 0
M  V30 969 C 92.0751 1.45897 0.87453 0
M  V30 970 O 93.2601 1.74698 0.848181 0
M  V30 971 C 90.3901 3.28336 1.13194 0
M  V30 972 C 89.3441 4.25124 0.495324 0
M  V30 973 C 88.6701 5.09863 1.61071 0
M  V30 974 C 89.9701 5.19143 -0.573425 0
M  V30 975 H 91.6641 2.93252 -0.603646 0
M  V30 976 H 89.2101 1.41014 -0.291741 0
M  V30 977 H 91.1631 3.88137 1.64097 0
M  V30 978 H 89.8871 2.66383 1.88965 0
M  V30 979 H 88.5461 3.66599 0.00729452 0
M  V30 980 H 88.1941 4.44288 2.35832 0
M  V30 981 H 87.8941 5.75417 1.19035 0
M  V30 982 H 89.4181 5.72529 2.12233 0
M  V30 983 H 90.8321 5.73106 -0.1491 0
M  V30 984 H 89.2291 5.93089 -0.914636 0
M  V30 985 H 90.2991 4.62519 -1.45617 0
M  V30 986 N 91.6422 0.330177 1.54103 0
M  V30 987 C 92.8902 -0.269871 2.0029 0
M  V30 988 C 93.2112 -1.52133 1.21986 0
M  V30 989 O 92.4812 -1.93212 0.323438 0
M  V30 990 H 91.0612 -0.10271 0.739905 0
M  V30 991 H 93.7232 0.448249 1.89675 0
M  V30 992 H 92.8192 -0.52166 3.07709 0
M  V30 993 N 93.1203 -1.57491 0.0584922 0
M  V30 994 C 94.3453 -1.97711 -0.62652 0
M  V30 995 C 94.7703 -0.936132 -1.63151 0
M  V30 996 O 94.1283 0.099811 -1.81025 0
M  V30 997 C 94.1763 -3.36989 -1.28338 0
M  V30 998 O 93.2803 -3.35433 -2.39913 0
M  V30 999 H 92.6213 -0.643868 -0.162266 0
M  V30 1000 H 95.1513 -2.04193 0.129064 0
M  V30 1001 H 95.1613 -3.73879 -1.63335 0
M  V30 1002 H 93.8363 -4.12289 -0.546889 0
M  V30 1003 H 92.4133 -3.10298 -2.06809 0
M  V30 1004 N 94.5984 0.214957 -1.56127 0
M  V30 1005 C 95.8464 0.936518 -1.79091 0
M  V30 1006 C 96.1674 1.84606 -0.628148 0
M  V30 1007 O 95.4374 1.92664 0.35462 0
M  V30 1008 H 94.0174 0.3488 -0.660566 0
M  V30 1009 H 96.6794 0.22523 -1.93594 0
M  V30 1010 H 95.7754 1.53943 -2.71492 0
M  V30 1011 N 96.0765 1.50051 0.48192 0
M  V30 1012 C 97.0395 1.67584 1.5636 0
M  V30 1013 C 98.0395 0.546894 1.51214 0
M  V30 1014 O 99.2295 0.813725 1.54026 0
M  V30 1015 C 96.3615 1.691 2.96003 0
M  V30 1016 H 97.5545 2.64078 1.42136 0
M  V30 1017 H 95.1075 1.39369 0.707533 0
M  V30 1018 H 95.8425 0.742589 3.15684 0
M  V30 1019 H 95.6275 2.51105 3.01146 0
M  V30 1020 H 97.1175 1.84656 3.74556 0
M  V30 1021 N 97.5546 -0.734337 1.39446 0
M  V30 1022 C 98.7846 -1.52137 1.39778 0
M  V30 1023 C 99.1926 -1.89198 -0.00929312 0
M  V30 1024 O 98.5356 -1.54666 -0.991168 0
M  V30 1025 C 98.5976 -2.83762 2.20724 0
M  V30 1026 C 98.2616 -2.69131 3.69347 0
M  V30 1027 C 99.2586 -2.37635 4.62413 0
M  V30 1028 C 96.9436 -2.85982 4.1294 0
M  V30 1029 C 98.9376 -2.23172 5.97054 0
M  V30 1030 C 96.6246 -2.71137 5.47657 0
M  V30 1031 C 97.6226 -2.39777 6.39528 0
M  V30 1032 O 97.3106 -2.25026 7.71763 0
M  V30 1033 H 97.0426 -0.476717 0.479288 0
M  V30 1034 H 99.5966 -0.915012 1.83893 0
M  V30 1035 H 97.8266 -3.4666 1.71359 0
M  V30 1036 H 99.5156 -3.45383 2.13226 0
M  V30 1037 H 100.282 -2.24267 4.30034 0
M  V30 1038 H 96.1606 -3.09383 3.41765 0
M  V30 1039 H 99.7046 -1.98617 6.68728 0
M  V30 1040 H 95.6016 -2.84083 5.79626 0
M  V30 1041 H 96.3696 -2.40091 7.82495 0
M  V30 1042 N 99.0327 -1.24633 -0.964593 0
M  V30 1043 C 100.281 -1.08573 -1.70459 0
M  V30 1044 C 100.602 0.375655 -1.91347 0
M  V30 1045 O 99.8717 1.26779 -1.49345 0
M  V30 1046 H 98.4517 -0.398784 -0.631649 0
M  V30 1047 H 101.114 -1.56601 -1.16026 0
M  V30 1048 H 100.21 -1.58623 -2.68785 0
M  V30 1049 N 100.511 1.16574 -1.06058 0
M  V30 1050 C 101.421 2.2452 -0.680282 0
M  V30 1051 C 102.437 1.71348 0.302604 0
M  V30 1052 O 103.613 2.00822 0.152513 0
M  V30 1053 C 100.678 3.46629 -0.0700315 0
M  V30 1054 C 99.7388 4.14849 -1.10448 0
M  V30 1055 C 98.9718 5.31129 -0.523256 0
M  V30 1056 O 99.1948 5.66514 0.664709 0
M  V30 1057 O 98.1288 5.88526 -1.26179 0
M  V30 1058 H 101.955 2.59355 -1.58015 0
M  V30 1059 H 99.5398 1.24043 -0.832694 0
M  V30 1060 H 101.422 4.20543 0.268667 0
M  V30 1061 H 100.097 3.13573 0.803353 0
M  V30 1062 H 99.0038 3.42916 -1.49532 0
M  V30 1063 H 100.337 4.51954 -1.94931 0
M  V30 1064 N 101.989 0.842826 1.3317 0
M  V30 1065 C 103.235 0.441099 1.97945 0
M  V30 1066 C 103.568 -0.998024 1.66593 0
M  V30 1067 O 102.843 -1.69839 0.947898 0
M  V30 1068 C 103.126 0.666841 3.53872 0
M  V30 1069 C 102.979 2.15352 3.94897 0
M  V30 1070 C 104.298 0.115544 4.39948 0
M  V30 1071 H 101.417 0.161739 0.719034 0
M  V30 1072 H 104.059 1.05907 1.57746 0
M  V30 1073 H 102.209 0.140828 3.88245 0
M  V30 1074 H 103.881 2.7447 3.70761 0
M  V30 1075 H 102.124 2.63653 3.44484 0
M  V30 1076 H 102.795 2.26221 5.03516 0
M  V30 1077 H 105.271 0.565213 4.12243 0
M  V30 1078 H 104.147 0.303152 5.48062 0
M  V30 1079 H 104.408 -0.980935 4.3108 0
M  V30 1080 N 103.467 -1.45747 0.599634 0
M  V30 1081 C 104.397 -2.33235 -0.111306 0
M  V30 1082 C 105.378 -1.46359 -0.866781 0
M  V30 1083 O 106.563 -1.75146 -0.838904 0
M  V30 1084 C 103.693 -3.28932 -1.11451 0
M  V30 1085 C 102.647 -4.25381 -0.472772 0
M  V30 1086 C 101.973 -5.1071 -1.58365 0
M  V30 1087 C 103.273 -5.18831 0.600948 0
M  V30 1088 H 104.967 -2.92927 0.61919 0
M  V30 1089 H 102.513 -1.40857 0.299215 0
M  V30 1090 H 104.466 -3.89002 -1.62036 0
M  V30 1091 H 103.19 -2.67381 -1.8755 0
M  V30 1092 H 101.849 -3.66598 0.0121472 0
M  V30 1093 H 101.497 -4.45533 -2.33473 0
M  V30 1094 H 101.197 -5.7604 -1.15982 0
M  V30 1095 H 102.721 -5.73647 -2.09194 0
M  V30 1096 H 104.135 -5.73019 0.179491 0
M  V30 1097 H 102.532 -5.92595 0.946076 0
M  V30 1098 H 103.602 -4.6174 1.48068 0
M  V30 1099 N 104.945 -0.338344 -1.53925 0
M  V30 1100 C 105.875 0.51328 -2.27789 0
M  V30 1101 C 106.856 1.107 -1.29149 0
M  V30 1102 O 108.041 1.12937 -1.57984 0
M  V30 1103 C 105.171 1.66697 -3.04679 0
M  V30 1104 C 104.125 1.20183 -4.1078 0
M  V30 1105 C 103.451 2.44363 -4.75595 0
M  V30 1106 C 104.751 0.30605 -5.21403 0
M  V30 1107 H 106.445 -0.102883 -2.99223 0
M  V30 1108 H 103.991 -0.0509219 -1.4391 0
M  V30 1109 H 105.944 2.26915 -3.55088 0
M  V30 1110 H 104.668 2.30995 -2.30887 0
M  V30 1111 H 103.327 0.622499 -3.61276 0
M  V30 1112 H 102.975 3.07057 -3.98403 0
M  V30 1113 H 102.675 2.13925 -5.47275 0
M  V30 1114 H 104.199 3.05317 -5.28786 0
M  V30 1115 H 105.613 0.814929 -5.67478 0
M  V30 1116 H 104.01 0.0937929 -6.00027 0
M  V30 1117 H 105.08 -0.65921 -4.80398 0
M  V30 1118 N 106.423 1.57458 -0.0668435 0
M  V30 1119 C 107.663 1.95175 0.607116 0
M  V30 1120 C 108.027 0.946039 1.67075 0
M  V30 1121 O 109.228 1.2107 2.39991 0
M  V30 1122 C 107.499 3.37582 1.17358 0
M  V30 1123 S 109.058 3.97271 1.86336 0
M  V30 1124 H 105.876 0.682604 0.19893 0
M  V30 1125 H 108.478 1.95002 -0.139519 0
M  V30 1126 H 107.182 4.08566 0.387553 0
M  V30 1127 H 106.713 3.41288 1.95669 0
M  V30 1128 H 108.728 3.83772 3.14537 0
M  V30 1129 N 107.901 -0.206675 1.56239 0
M  V30 1130 C 109.317 -0.557025 1.49564 0
M  V30 1131 C 109.517 -1.86424 0.764735 0
M  V30 1132 O 108.573 -2.50584 0.310491 0
M  V30 1133 C 109.886 -0.622478 2.94186 0
M  V30 1134 C 111.434 -0.712099 3.04792 0
M  V30 1135 C 111.909 -0.808767 4.50803 0
M  V30 1136 N 113.4 -0.8726 4.54907 0
M  V30 1137 C 114.135 -0.967365 5.65181 0
M  V30 1138 N 113.631 -1.02515 6.85173 0
M  V30 1139 N 115.424 -1.00366 5.53067 0
M  V30 1140 H 107.575 0.650943 2.02179 0
M  V30 1141 H 109.838 0.230387 0.919579 0
M  V30 1142 H 109.544 0.268727 3.50672 0
M  V30 1143 H 109.418 -1.4811 3.46905 0
M  V30 1144 H 111.805 -1.59374 2.48363 0
M  V30 1145 H 111.886 0.172489 2.55218 0
M  V30 1146 H 111.53 0.0684754 5.07854 0
M  V30 1147 H 111.46 -1.70899 4.98098 0
M  V30 1148 H 113.951 -0.837657 3.68499 0
M  V30 1149 H 114.264 -1.09765 7.64965 0
M  V30 1150 H 112.609 -0.994026 6.87855 0
M  V30 1151 H 115.8 -0.95527 4.58249 0
M  V30 1152 H 115.973 -1.07405 6.39037 0
M  V30 1153 N 109.379 -1.50304 -0.473955 0
M  V30 1154 C 110.289 -1.7174 -1.5982 0
M  V30 1155 C 111.305 -0.600457 -1.63311 0
M  V30 1156 O 112.481 -0.878441 -1.81233 0
M  V30 1157 C 109.546 -1.80427 -2.96052 0
M  V30 1158 C 108.607 -3.04148 -3.02972 0
M  V30 1159 C 107.84 -3.12411 -4.32706 0
M  V30 1160 O 108.063 -2.27542 -5.23049 0
M  V30 1161 O 106.997 -4.05113 -4.45159 0
M  V30 1162 H 110.823 -2.67035 -1.44657 0
M  V30 1163 H 108.408 -1.34366 -0.653148 0
M  V30 1164 H 110.29 -1.88338 -3.7697 0
M  V30 1165 H 108.965 -0.883156 -3.11419 0
M  V30 1166 H 107.872 -3.0174 -2.21142 0
M  V30 1167 H 109.205 -3.95829 -2.92541 0
M  V30 1168 N 110.857 0.726932 -1.39834 0
M  V30 1169 C 111.804 1.841 -1.39197 0
M  V30 1170 C 112.774 1.642 -0.250502 0
M  V30 1171 O 113.959 1.85494 -0.446846 0
M  V30 1172 C 111.099 3.21697 -1.24919 0
M  V30 1173 C 110.212 3.53247 -2.48678 0
M  V30 1174 C 109.347 4.80289 -2.26928 0
M  V30 1175 C 108.386 5.04707 -3.4632 0
M  V30 1176 N 107.523 6.22956 -3.23836 0
M  V30 1177 H 112.363 1.83979 -2.34427 0
M  V30 1178 H 109.9 0.898876 -1.16442 0
M  V30 1179 H 111.858 4.01137 -1.1465 0
M  V30 1180 H 110.488 3.21076 -0.333153 0
M  V30 1181 H 109.54 2.68447 -2.69519 0
M  V30 1182 H 110.852 3.67205 -3.37582 0
M  V30 1183 H 110.006 5.67725 -2.13947 0
M  V30 1184 H 108.745 4.68519 -1.35431 0
M  V30 1185 H 107.75 4.1573 -3.5979 0
M  V30 1186 H 108.975 5.18357 -4.38729 0
M  V30 1187 H 106.921 6.12459 -2.35011 0
M  V30 1188 H 106.838 6.37539 -4.063 0
M  V30 1189 H 108.106 7.1321 -3.14566 0
M  V30 1190 N 112.336 1.25143 0.95797 0
M  V30 1191 C 113.286 1.01924 2.0395 0
M  V30 1192 C 114.27 -0.0427175 1.60843 0
M  V30 1193 O 115.462 0.17221 1.7616 0
M  V30 1194 C 112.591 0.636373 3.3735 0
M  V30 1195 C 111.677 1.73492 3.8699 0
M  V30 1196 N 112.068 2.96945 4.0946 0
M  V30 1197 C 110.366 1.61467 4.15746 0
M  V30 1198 C 111.067 3.68228 4.50315 0
M  V30 1199 N 110.043 2.95833 4.56053 0
M  V30 1200 H 113.845 1.95653 2.19311 0
M  V30 1201 H 111.359 1.15413 1.14253 0
M  V30 1202 H 113.356 0.451233 4.14451 0
M  V30 1203 H 112.016 -0.293621 3.2337 0
M  V30 1204 H 113.027 3.33025 3.96629 0
M  V30 1205 H 109.704 0.753394 4.10646 0
M  V30 1206 H 111.094 4.74178 4.76031 0
M  V30 1207 N 113.814 -1.1601 1.06675 0
M  V30 1208 C 115.062 -1.86264 0.784229 0
M  V30 1209 C 115.383 -1.82328 -0.691488 0
M  V30 1210 O 114.653 -1.25947 -1.50047 0
M  V30 1211 H 113.233 -0.689621 0.28711 0
M  V30 1212 H 115.895 -1.40664 1.34906 0
M  V30 1213 H 114.991 -2.91595 1.11259 0
M  V30 1214 N 115.292 -0.849877 -1.32721 0
M  V30 1215 C 116.242 -0.262892 -2.26479 0
M  V30 1216 C 117.226 0.588493 -1.49752 0
M  V30 1217 O 118.418 0.438659 -1.71478 0
M  V30 1218 C 115.547 0.551818 -3.38836 0
M  V30 1219 C 114.633 -0.311689 -4.22953 0
M  V30 1220 N 115.024 -1.39567 -4.86163 0
M  V30 1221 C 113.322 -0.100611 -4.45887 0
M  V30 1222 C 114.023 -1.92651 -5.48872 0
M  V30 1223 N 112.999 -1.22637 -5.29586 0
M  V30 1224 H 116.801 -1.09166 -2.72873 0
M  V30 1225 H 114.315 -0.695486 -1.46754 0
M  V30 1226 H 116.312 0.988713 -4.05006 0
M  V30 1227 H 114.972 1.37844 -2.93988 0
M  V30 1228 H 115.983 -1.77859 -4.86402 0
M  V30 1229 H 112.66 0.691681 -4.11731 0
M  V30 1230 H 114.05 -2.83487 -6.09167 0
M  V30 1231 N 116.77 1.45427 -0.607355 0
M  V30 1232 C 118.018 2.01841 -0.102253 0
M  V30 1233 C 118.339 1.47832 1.27164 0
M  V30 1234 O 117.609 0.672497 1.83995 0
M  V30 1235 H 116.189 0.746188 -0.0348101 0
M  V30 1236 H 118.851 1.78229 -0.7887 0
M  V30 1237 H 117.947 3.12057 -0.0518585 0
M  V30 1238 N 118.248 0.346503 1.53744 0
M  V30 1239 C 119.158 -0.517293 2.28826 0
M  V30 1240 C 120.174 -1.10935 1.3405 0
M  V30 1241 O 121.35 -1.1244 1.6709 0
M  V30 1242 C 118.415 -1.65098 3.04866 0
M  V30 1243 C 117.476 -1.0884 4.15274 0
M  V30 1244 C 116.709 -2.16806 4.87679 0
M  V30 1245 O 116.932 -3.3758 4.59778 0
M  V30 1246 O 115.866 -1.80934 5.74061 0
M  V30 1247 H 119.692 0.0931396 3.03557 0
M  V30 1248 H 117.277 0.111458 1.48984 0
M  V30 1249 H 119.159 -2.31053 3.5241 0
M  V30 1250 H 117.834 -2.24717 2.32989 0
M  V30 1251 H 116.741 -0.3933 3.72027 0
M  V30 1252 H 118.074 -0.537036 4.89261 0
M  V30 1253 N 119.726 -1.57421 0.075193 0
M  V30 1254 C 120.673 -2.12915 -0.890843 0
M  V30 1255 C 121.643 -1.04252 -1.29309 0
M  V30 1256 O 122.828 -1.31933 -1.37834 0
M  V30 1257 C 119.968 -2.69795 -2.15186 0
M  V30 1258 C 119.081 -3.92624 -1.80194 0
M  V30 1259 C 118.216 -4.37736 -3.00933 0
M  V30 1260 C 117.255 -5.53205 -2.61974 0
M  V30 1261 N 116.392 -5.9326 -3.75483 0
M  V30 1262 H 121.232 -2.95156 -0.410735 0
M  V30 1263 H 118.769 -1.45854 -0.191086 0
M  V30 1264 H 120.727 -3.00883 -2.89008 0
M  V30 1265 H 119.357 -1.90313 -2.60731 0
M  V30 1266 H 118.409 -3.67977 -0.964218 0
M  V30 1267 H 119.721 -4.76482 -1.47534 0
M  V30 1268 H 118.875 -4.70503 -3.8303 0
M  V30 1269 H 117.614 -3.52739 -3.36789 0
M  V30 1270 H 116.619 -5.20086 -1.783 0
M  V30 1271 H 117.844 -6.39936 -2.27284 0
M  V30 1272 H 115.79 -5.11212 -4.11094 0
M  V30 1273 H 115.707 -6.71865 -3.46602 0
M  V30 1274 H 116.975 -6.30651 -4.58148 0
M  V30 1275 N 121.204 0.198386 -1.56346 0
M  V30 1276 C 122.167 1.22952 -1.93431 0
M  V30 1277 C 123.167 1.38611 -0.815092 0
M  V30 1278 O 124.357 1.36479 -1.08255 0
M  V30 1279 C 121.489 2.59946 -2.20546 0
M  V30 1280 H 122.682 0.912626 -2.85677 0
M  V30 1281 H 120.235 0.43977 -1.49986 0
M  V30 1282 H 120.97 2.96696 -1.30927 0
M  V30 1283 H 120.755 2.49953 -3.02102 0
M  V30 1284 H 122.245 3.3431 -2.50253 0
M  V30 1285 N 122.682 1.50554 0.465978 0
M  V30 1286 C 123.931 1.61038 1.21448 0
M  V30 1287 C 124.244 0.31865 1.92987 0
M  V30 1288 O 125.45 0.302469 2.6981 0
M  V30 1289 C 123.906 2.84283 2.20706 0
M  V30 1290 C 123.514 4.20352 1.54946 0
M  V30 1291 C 125.258 3.04115 2.96166 0
M  V30 1292 C 123.165 5.34778 2.5252 0
M  V30 1293 H 122.095 0.599718 0.457005 0
M  V30 1294 H 124.746 1.7699 0.484424 0
M  V30 1295 H 123.128 2.61901 2.97025 0
M  V30 1296 H 124.302 4.53008 0.843811 0
M  V30 1297 H 122.617 4.06167 0.917475 0
M  V30 1298 H 125.214 3.86774 3.69202 0
M  V30 1299 H 125.557 2.16045 3.55852 0
M  V30 1300 H 126.09 3.26702 2.26959 0
M  V30 1301 H 122.829 6.25018 1.97566 0
M  V30 1302 H 122.349 5.06534 3.21222 0
M  V30 1303 H 124.028 5.65561 3.14245 0
M  V30 1304 N 124.16 -0.719506 1.40217 0
M  V30 1305 C 125.107 -1.83359 1.40172 0
M  V30 1306 C 126.077 -1.64065 0.259206 0
M  V30 1307 O 127.262 -1.85254 0.456677 0
M  V30 1308 C 124.402 -3.2103 1.26624 0
M  V30 1309 C 123.515 -3.51923 2.50548 0
M  V30 1310 C 122.65 -4.79079 2.29471 0
M  V30 1311 C 121.689 -5.02863 3.48992 0
M  V30 1312 N 120.826 -6.2123 3.27135 0
M  V30 1313 H 125.666 -1.82733 2.35399 0
M  V30 1314 H 123.203 -0.892688 1.16917 0
M  V30 1315 H 125.161 -4.00524 1.16776 0
M  V30 1316 H 123.791 -3.20895 0.350176 0
M  V30 1317 H 122.843 -2.67014 2.70939 0
M  V30 1318 H 124.155 -3.6541 3.39525 0
M  V30 1319 H 123.309 -5.66582 2.16955 0
M  V30 1320 H 122.048 -4.67794 1.37913 0
M  V30 1321 H 121.053 -4.13816 3.6199 0
M  V30 1322 H 122.278 -5.16023 4.41472 0
M  V30 1323 H 120.224 -6.11204 2.38256 0
M  V30 1324 H 120.141 -6.35375 4.09675 0
M  V30 1325 H 121.409 -7.11532 3.18344 0
M  V30 1326 N 125.638 -1.25649 -0.95132 0
M  V30 1327 C 126.884 -1.10757 -1.69884 0
M  V30 1328 C 127.217 0.350061 -1.91019 0
M  V30 1329 O 126.492 1.25783 -1.48354 0
M  V30 1330 C 126.775 -1.86606 -3.07978 0
M  V30 1331 C 126.628 -3.40217 -2.94232 0
M  V30 1332 C 127.947 -1.65182 -4.07925 0
M  V30 1333 H 125.066 -0.40374 -0.616574 0
M  V30 1334 H 127.708 -1.54521 -1.10558 0
M  V30 1335 H 125.858 -1.49409 -3.58621 0
M  V30 1336 H 127.53 -3.87108 -2.50889 0
M  V30 1337 H 125.773 -3.67759 -2.30078 0
M  V30 1338 H 126.444 -3.88505 -3.92133 0
M  V30 1339 H 128.92 -1.9757 -3.66204 0
M  V30 1340 H 127.796 -2.20683 -5.02583 0
M  V30 1341 H 128.057 -0.593933 -4.38092 0
M  V30 1342 N 127.117 1.15442 -1.07289 0
M  V30 1343 C 128.366 1.85557 -0.790669 0
M  V30 1344 C 128.679 1.83186 0.685739 0
M  V30 1345 O 129.885 2.48977 1.0827 0
M  V30 1346 C 128.341 3.33038 -1.36433 0
M  V30 1347 C 127.949 3.43856 -2.8717 0
M  V30 1348 C 129.693 4.0834 -1.1601 0
M  V30 1349 C 127.6 4.85482 -3.3773 0
M  V30 1350 H 126.53 0.695122 -0.292098 0
M  V30 1351 H 129.181 1.30219 -1.29287 0
M  V30 1352 H 127.563 3.88043 -0.789864 0
M  V30 1353 H 128.737 2.98961 -3.50655 0
M  V30 1354 H 127.052 2.81998 -3.06376 0
M  V30 1355 H 129.649 5.12859 -1.51262 0
M  V30 1356 H 129.992 4.16182 -0.0991007 0
M  V30 1357 H 130.525 3.59603 -1.70089 0
M  V30 1358 H 127.264 4.82823 -4.43353 0
M  V30 1359 H 126.784 5.30961 -2.78999 0
M  V30 1360 H 128.463 5.54335 -3.33648 0
M  V30 1361 N 128.595 0.856903 1.32268 0
M  V30 1362 C 129.542 0.301172 2.28827 0
M  V30 1363 C 130.512 -0.593104 1.5515 0
M  V30 1364 O 131.697 -0.527537 1.83362 0
M  V30 1365 C 128.837 -0.502523 3.41422 0
M  V30 1366 C 127.95 0.417797 4.29975 0
M  V30 1367 C 127.085 -0.398749 5.29701 0
M  V30 1368 C 126.124 0.518827 6.09897 0
M  V30 1369 N 125.261 -0.260674 7.01616 0
M  V30 1370 H 130.101 1.12983 2.75751 0
M  V30 1371 H 127.638 0.568582 1.35667 0
M  V30 1372 H 129.596 -0.984141 4.05426 0
M  V30 1373 H 128.226 -1.29599 2.95642 0
M  V30 1374 H 127.278 1.01781 3.66531 0
M  V30 1375 H 128.59 1.12191 4.86019 0
M  V30 1376 H 127.744 -0.943435 5.9932 0
M  V30 1377 H 126.483 -1.13622 4.7428 0
M  V30 1378 H 125.488 1.07538 5.39181 0
M  V30 1379 H 126.713 1.25495 6.67404 0
M  V30 1380 H 124.659 -0.981198 6.4862 0
M  V30 1381 H 124.576 0.384364 7.55022 0
M  V30 1382 H 125.844 -0.787014 7.75517 0
M  V30 1383 N 130.073 -1.45103 0.615059 0
M  V30 1384 C 131.02 -2.30586 -0.0993978 0
M  V30 1385 C 131.99 -1.42544 -0.852669 0
M  V30 1386 O 133.175 -1.71465 -0.836917 0
M  V30 1387 C 130.315 -3.27572 -1.08583 0
M  V30 1388 C 129.428 -4.30717 -0.332656 0
M  V30 1389 C 128.563 -5.14807 -1.30947 0
M  V30 1390 C 127.602 -6.09673 -0.544538 0
M  V30 1391 N 126.739 -6.86517 -1.47101 0
M  V30 1392 H 131.579 -2.91144 0.635542 0
M  V30 1393 H 129.116 -1.4346 0.325206 0
M  V30 1394 H 131.074 -3.82276 -1.67095 0
M  V30 1395 H 129.704 -2.68751 -1.78809 0
M  V30 1396 H 128.756 -3.78615 0.368107 0
M  V30 1397 H 130.068 -4.98102 0.263842 0
M  V30 1398 H 129.222 -5.73948 -1.96643 0
M  V30 1399 H 127.961 -4.47458 -1.9399 0
M  V30 1400 H 126.966 -5.49656 0.126003 0
M  V30 1401 H 128.191 -6.79052 0.080947 0
M  V30 1402 H 126.137 -6.21851 -2.08895 0
M  V30 1403 H 126.054 -7.50281 -0.928137 0
M  V30 1404 H 127.322 -7.50194 -2.11731 0
M  V30 1405 N 131.551 -0.354651 -1.53558 0
M  V30 1406 C 132.776 0.242153 -2.05981 0
M  V30 1407 C 133.201 1.42553 -1.2272 0
M  V30 1408 O 132.559 1.79656 -0.243604 0
M  V30 1409 C 132.607 0.624367 -3.55154 0
M  V30 1410 O 131.711 1.72301 -3.74681 0
M  V30 1411 H 131.052 0.0378432 -0.662921 0
M  V30 1412 H 133.582 -0.512087 -1.98088 0
M  V30 1413 H 133.592 0.898433 -3.97985 0
M  V30 1414 H 132.267 -0.240989 -4.15201 0
M  V30 1415 H 130.844 1.44535 -3.4375 0
M  V30 1416 N 133.029 1.57378 -0.0835403 0
M  V30 1417 C 133.961 2.10389 0.909338 0
M  V30 1418 C 134.974 1.03858 1.25369 0
M  V30 1419 O 136.163 1.31338 1.20882 0
M  V30 1420 C 133.263 2.55908 2.2218 0
M  V30 1421 C 132.436 3.86145 2.05453 0
M  V30 1422 C 131.495 4.17633 3.20108 0
M  V30 1423 O 130.521 4.87043 2.94581 0
M  V30 1424 N 131.723 3.72113 4.45547 0
M  V30 1425 H 134.488 2.962 0.456657 0
M  V30 1426 H 132.049 1.61579 0.101877 0
M  V30 1427 H 134.041 2.74027 2.97811 0
M  V30 1428 H 132.611 1.75171 2.58909 0
M  V30 1429 H 131.831 3.7729 1.1422 0
M  V30 1430 H 133.119 4.7137 1.91541 0
M  V30 1431 H 132.517 3.16062 4.69171 0
M  V30 1432 H 131.074 3.95409 5.18165 0
M  V30 1433 N 134.507 -0.190092 1.56449 0
M  V30 1434 C 135.754 -0.909705 1.80916 0
M  V30 1435 C 136.082 -1.83047 0.657583 0
M  V30 1436 O 135.337 -1.92428 -0.356356 0
M  V30 1437 C 135.636 -1.75382 3.1141 0
M  V30 1438 C 135.302 -0.983606 4.40041 0
M  V30 1439 C 133.964 -0.770967 4.74984 0
M  V30 1440 C 136.316 -0.442024 5.19322 0
M  V30 1441 C 133.644 -0.0053448 5.867 0
M  V30 1442 C 135.996 0.310412 6.31838 0
M  V30 1443 C 134.66 0.534023 6.6536 0
M  V30 1444 H 133.93 -0.332885 0.662019 0
M  V30 1445 H 136.577 -0.175762 1.90692 0
M  V30 1446 H 134.882 -2.55659 2.96893 0
M  V30 1447 H 136.579 -2.31331 3.27547 0
M  V30 1448 H 133.169 -1.15936 4.12622 0
M  V30 1449 H 137.353 -0.593693 4.92736 0
M  V30 1450 H 132.609 0.177825 6.11141 0
M  V30 1451 H 136.783 0.737419 6.92485 0
M  V30 1452 H 134.41 1.12918 7.51767 0
M  V30 1453 N 135.985 -1.50799 -0.457987 0
M  V30 1454 C 137.262 -1.52968 -1.21902 0
M  V30 1455 C 137.642 -0.281906 -2.09209 0
M  V30 1456 O 136.99 0.734076 -2.16388 0
M  V30 1457 C 137.2 -2.8326 -2.03875 0
M  V30 1458 C 138.548 -3.34425 -2.6162 0
M  V30 1459 O 139.572 -2.8467 -2.14106 0
M  V30 1460 O 138.431 -4.21188 -3.48228 0
M  V30 1461 H 135.525 -0.614129 -0.553873 0
M  V30 1462 H 138.071 -1.63098 -0.468739 0
M  V30 1463 H 136.843 -3.65543 -1.39621 0
M  V30 1464 H 136.466 -2.76195 -2.8601 0
M  V30 1465 N 137.463 0.71206 -1.40597 0
M  V30 1466 C 138.41 1.82613 -1.41142 0
M  V30 1467 C 139.38 1.63925 -0.267903 0
M  V30 1468 O 140.565 1.85009 -0.466495 0
M  V30 1469 C 137.705 3.20354 -1.28324 0
M  V30 1470 C 136.818 3.50589 -2.52411 0
M  V30 1471 C 135.953 4.77855 -2.32009 0
M  V30 1472 C 134.992 5.01005 -3.51654 0
M  V30 1473 N 134.129 6.19487 -3.30425 0
M  V30 1474 H 138.969 1.81482 -2.36365 0
M  V30 1475 H 136.506 0.886475 -1.17388 0
M  V30 1476 H 138.464 3.99899 -1.18899 0
M  V30 1477 H 137.094 3.20705 -0.367189 0
M  V30 1478 H 136.146 2.65573 -2.72351 0
M  V30 1479 H 137.458 3.63604 -3.41458 0
M  V30 1480 H 136.612 5.65424 -2.19956 0
M  V30 1481 H 135.351 4.67056 -1.40392 0
M  V30 1482 H 134.356 4.1189 -3.64179 0
M  V30 1483 H 135.581 5.13674 -4.44202 0
M  V30 1484 H 133.527 6.09932 -2.41494 0
M  V30 1485 H 133.444 6.33194 -4.13039 0
M  V30 1486 H 134.712 7.09834 -3.22113 0
M  V30 1487 N 138.941 1.26152 0.944643 0
M  V30 1488 C 139.874 1.01729 2.04271 0
M  V30 1489 C 140.852 -0.0568101 1.62501 0
M  V30 1490 O 142.036 0.0848987 1.88309 0
M  V30 1491 C 139.163 0.539792 3.34371 0
M  V30 1492 C 138.209 1.60593 3.9511 0
M  V30 1493 S 139.042 3.19392 4.29825 0
M  V30 1494 C 140.198 2.73402 5.63029 0
M  V30 1495 H 140.431 1.94703 2.24673 0
M  V30 1496 H 137.964 1.09793 1.08558 0
M  V30 1497 H 139.922 0.270956 4.09605 0
M  V30 1498 H 138.583 -0.369609 3.11918 0
M  V30 1499 H 137.776 1.22275 4.88943 0
M  V30 1500 H 137.378 1.82596 3.26397 0
M  V30 1501 H 139.67 2.1765 6.41588 0
M  V30 1502 H 140.613 3.65913 6.06229 0
M  V30 1503 H 141.021 2.13077 5.22741 0
M  V30 1504 N 140.419 -1.14872 1.07899 0
M  V30 1505 C 141.366 -2.19791 0.704319 0
M  V30 1506 C 142.336 -1.63238 -0.306987 0
M  V30 1507 O 143.521 -1.8983 -0.192171 0
M  V30 1508 C 140.661 -3.44911 0.114244 0
M  V30 1509 C 139.774 -4.15637 1.1777 0
M  V30 1510 C 138.909 -5.28324 0.552037 0
M  V30 1511 C 137.948 -5.90875 1.59789 0
M  V30 1512 N 137.085 -6.95022 0.994404 0
M  V30 1513 H 141.925 -2.5119 1.60336 0
M  V30 1514 H 139.462 -1.23356 0.801352 0
M  V30 1515 H 141.42 -4.16477 -0.245544 0
M  V30 1516 H 140.05 -3.14011 -0.74813 0
M  V30 1517 H 139.102 -3.42512 1.65499 0
M  V30 1518 H 140.414 -4.5823 1.97046 0
M  V30 1519 H 139.568 -6.06538 0.1402 0
M  V30 1520 H 138.307 -4.86939 -0.272431 0
M  V30 1521 H 137.312 -5.11369 2.01945 0
M  V30 1522 H 138.537 -6.34337 2.42474 0
M  V30 1523 H 136.483 -6.55722 0.190939 0
M  V30 1524 H 136.4 -7.36073 1.72432 0
M  V30 1525 H 137.668 -7.77123 0.608253 0
M  V30 1526 N 141.898 -0.863906 -1.31812 0
M  V30 1527 C 143.128 -0.485406 -2.00817 0
M  V30 1528 C 143.536 0.925007 -1.65046 0
M  V30 1529 O 142.879 1.61653 -0.872574 0
M  V30 1530 C 142.941 -0.555589 -3.55181 0
M  V30 1531 C 142.605 -1.92654 -4.14407 0
M  V30 1532 C 143.602 -2.89324 -4.31958 0
M  V30 1533 C 141.287 -2.2262 -4.50273 0
M  V30 1534 C 143.281 -4.14108 -4.84555 0
M  V30 1535 C 140.968 -3.47654 -5.02573 0
M  V30 1536 C 141.966 -4.43214 -5.19664 0
M  V30 1537 O 141.654 -5.66033 -5.70843 0
M  V30 1538 H 141.386 -0.188224 -0.649267 0
M  V30 1539 H 143.94 -1.16514 -1.69156 0
M  V30 1540 H 142.17 0.181037 -3.86276 0
M  V30 1541 H 143.859 -0.19138 -4.05449 0
M  V30 1542 H 144.625 -2.6748 -4.04573 0
M  V30 1543 H 140.504 -1.4902 -4.3625 0
M  V30 1544 H 144.048 -4.88703 -4.9781 0
M  V30 1545 H 139.945 -3.69345 -5.29391 0
M  V30 1546 H 140.713 -5.6812 -5.89222 0
M  V30 1547 N 143.376 1.44774 -0.622745 0
M  V30 1548 C 144.601 2.06999 -0.128968 0
M  V30 1549 C 145.026 1.4617 1.1839 0
M  V30 1550 O 144.384 0.560007 1.72434 0
M  V30 1551 C 144.432 3.60595 -0.0188351 0
M  V30 1552 O 143.536 3.99398 1.02739 0
M  V30 1553 H 142.877 0.659047 -0.0809544 0
M  V30 1554 H 145.407 1.85784 -0.85705 0
M  V30 1555 H 145.417 4.07627 0.174476 0
M  V30 1556 H 144.092 4.04252 -0.977384 0
M  V30 1557 H 142.669 3.64011 0.809326 0
M  V30 1558 N 144.854 0.36279 1.53368 0
M  V30 1559 C 146.103 -0.22888 2.00397 0
M  V30 1560 C 146.416 -1.50096 1.25421 0
M  V30 1561 O 147.622 -2.17106 1.63025 0
M  V30 1562 C 146.078 -0.458417 3.56969 0
M  V30 1563 C 145.686 0.798877 4.4082 0
M  V30 1564 C 147.43 -1.00789 4.12361 0
M  V30 1565 C 145.337 0.539078 5.88938 0
M  V30 1566 H 144.267 -0.089305 0.748693 0
M  V30 1567 H 146.918 0.481099 1.77081 0
M  V30 1568 H 145.3 -1.22959 3.76427 0
M  V30 1569 H 146.474 1.57262 4.33134 0
M  V30 1570 H 144.789 1.27137 3.96516 0
M  V30 1571 H 147.386 -1.21754 5.20653 0
M  V30 1572 H 147.729 -1.9692 3.66781 0
M  V30 1573 H 148.262 -0.296961 3.9669 0
M  V30 1574 H 145.001 1.47064 6.3879 0
M  V30 1575 H 144.521 -0.196222 5.99479 0
M  V30 1576 H 146.2 0.163542 6.46793 0
M  V30 1577 N 146.332 -1.57332 0.0918853 0
M  V30 1578 C 147.56 -1.98574 -0.581048 0
M  V30 1579 C 147.975 -0.970903 -1.61923 0
M  V30 1580 O 147.332 0.0399054 -1.82456 0
M  V30 1581 C 147.383 -3.39872 -1.23164 0
M  V30 1582 O 147.104 -4.37469 -0.234989 0
M  V30 1583 C 148.605 -3.96099 -1.99049 0
M  V30 1584 H 145.825 -0.65261 -0.156018 0
M  V30 1585 H 148.369 -2.0379 0.170225 0
M  V30 1586 H 146.524 -3.35679 -1.93386 0
M  V30 1587 H 146.938 -5.19751 -0.70418 0
M  V30 1588 H 148.412 -4.97127 -2.39934 0
M  V30 1589 H 148.889 -3.3374 -2.85507 0
M  V30 1590 H 149.495 -4.03755 -1.3365 0
M  V30 1591 N 147.81 0.181792 -1.56548 0
M  V30 1592 C 148.758 1.24461 -1.965 0
M  V30 1593 C 149.752 1.464 -0.852261 0
M  V30 1594 O 150.958 1.47103 -1.03733 0
M  V30 1595 H 147.333 0.418138 -0.625031 0
M  V30 1596 H 149.304 0.880714 -2.85107 0
M  V30 1597 C 148.053 2.57891 -2.33212 0
M  V30 1598 H 147.376 2.41829 -3.18369 0
M  V30 1599 H 148.816 3.3097 -2.65019 0
M  V30 1600 C 147.275 3.15871 -1.17163 0
M  V30 1601 O 147.805 3.9913 -0.453708 0
M  V30 1602 N 146.011 2.74808 -0.944936 0
M  V30 1603 H 145.558 2.07205 -1.53049 0
M  V30 1604 H 145.516 3.13939 -0.170286 0
M  V30 1605 N 149.288 1.51039 0.449983 0
M  V30 1606 C 150.235 1.71439 1.54523 0
M  V30 1607 C 151.205 0.555871 1.56522 0
M  V30 1608 O 152.39 0.788871 1.73728 0
M  V30 1609 C 149.53 1.83384 2.92343 0
M  V30 1610 C 148.643 3.10873 2.9997 0
M  V30 1611 C 147.778 3.13488 4.28834 0
M  V30 1612 C 146.817 4.35343 4.30282 0
M  V30 1613 N 145.954 4.35579 5.5065 0
M  V30 1614 H 150.794 2.64934 1.36433 0
M  V30 1615 H 148.331 1.31312 0.662982 0
M  V30 1616 H 150.289 1.88291 3.72293 0
M  V30 1617 H 148.919 0.933086 3.0902 0
M  V30 1618 H 147.971 3.15336 2.12761 0
M  V30 1619 H 149.283 4.00814 2.96901 0
M  V30 1620 H 148.437 3.17241 5.17149 0
M  V30 1621 H 147.176 2.21414 4.34543 0
M  V30 1622 H 146.181 4.3178 3.40362 0
M  V30 1623 H 147.406 5.28668 4.26248 0
M  V30 1624 H 145.352 3.46369 5.57104 0
M  V30 1625 H 145.269 5.19313 5.49409 0
M  V30 1626 H 146.537 4.43507 6.41032 0
M  V30 1627 N 150.766 -0.704594 1.40972 0
M  V30 1628 C 152.015 -1.46018 1.39146 0
M  V30 1629 C 152.328 -1.956 0.000589254 0
M  V30 1630 O 153.534 -2.71137 -0.1403 0
M  V30 1631 C 151.99 -2.63996 2.4461 0
M  V30 1632 C 151.598 -2.21238 3.89561 0
M  V30 1633 C 153.342 -3.41677 2.51907 0
M  V30 1634 C 151.249 -3.3612 4.86598 0
M  V30 1635 H 150.179 -0.548444 0.517422 0
M  V30 1636 H 152.83 -0.765784 1.66757 0
M  V30 1637 H 151.212 -3.3566 2.10115 0
M  V30 1638 H 152.386 -1.56923 4.33257 0
M  V30 1639 H 150.701 -1.56574 3.85841 0
M  V30 1640 H 153.298 -4.27182 3.2159 0
M  V30 1641 H 153.641 -3.86247 1.55303 0
M  V30 1642 H 154.174 -2.77064 2.85448 0
M  V30 1643 H 150.913 -2.96572 5.84573 0
M  V30 1644 H 150.433 -3.99315 4.47557 0
M  V30 1645 H 152.112 -4.02029 5.06934 0
M  V30 1646 N 152.244 -1.26651 -0.937939 0
M  V30 1647 C 153.154 -1.10276 -2.07066 0
M  V30 1648 C 154.17 -0.0354197 -1.73964 0
M  V30 1649 O 155.346 -0.239816 -1.99967 0
M  V30 1650 C 152.411 -0.740887 -3.38691 0
M  V30 1651 C 151.472 -1.88799 -3.85556 0
M  V30 1652 C 150.705 -1.54329 -5.10899 0
M  V30 1653 O 150.928 -0.446494 -5.6865 0
M  V30 1654 O 149.862 -2.37911 -5.52885 0
M  V30 1655 H 153.688 -2.05309 -2.23789 0
M  V30 1656 H 151.273 -1.05743 -1.0554 0
M  V30 1657 H 153.155 -0.55195 -4.1777 0
M  V30 1658 H 151.83 0.180022 -3.23199 0
M  V30 1659 H 150.737 -2.13191 -3.07409 0
M  V30 1660 H 152.07 -2.78874 -4.05574 0
M  V30 1661 N 153.722 1.14298 -1.08507 0
M  V30 1662 C 154.962 1.87016 -0.824894 0
M  V30 1663 C 155.326 1.81099 0.637735 0
M  V30 1664 O 156.527 2.48963 1.01345 0
M  V30 1665 C 154.798 3.31584 -1.33368 0
M  V30 1666 S 156.357 4.21903 -1.20596 0
M  V30 1667 H 153.175 0.645259 -0.2986 0
M  V30 1668 H 155.777 1.37822 -1.38656 0
M  V30 1669 H 154.481 3.33439 -2.39262 0
M  V30 1670 H 154.012 3.85836 -0.767734 0
M  V30 1671 H 156.027 4.95971 -0.150891 0
M  V30 1672 N 155.201 0.870884 1.31352 0
M  V30 1673 C 156.478 0.402907 1.91405 0
M  V30 1674 C 156.858 -1.11512 1.79244 0
M  V30 1675 O 156.206 -1.94411 1.2007 0
M  V30 1676 C 156.416 0.885301 3.37585 0
M  V30 1677 C 157.764 0.911971 4.14691 0
M  V30 1678 O 158.788 0.831016 3.46371 0
M  V30 1679 O 157.647 1.02927 5.3672 0
M  V30 1680 H 154.741 0.120698 0.818145 0
M  V30 1681 H 157.287 0.958857 1.40014 0
M  V30 1682 H 156.059 1.92889 3.40455 0
M  V30 1683 H 155.682 0.307714 3.96407 0
M  V30 1684 N 156.679 -1.44442 0.630414 0
M  V30 1685 C 157.956 -1.9549 0.0655657 0
M  V30 1686 C 158.336 -1.5724 -1.40851 0
M  V30 1687 O 157.684 -0.846116 -2.12257 0
M  V30 1688 C 157.894 -3.47812 0.287691 0
M  V30 1689 C 159.242 -4.24216 0.180513 0
M  V30 1690 O 160.266 -3.55526 0.219019 0
M  V30 1691 O 159.125 -5.46434 0.0848493 0
M  V30 1692 H 156.219 -0.826688 -0.0227177 0
M  V30 1693 H 158.765 -1.54496 0.702068 0
M  V30 1694 H 157.537 -3.687 1.31056 0
M  V30 1695 H 157.16 -3.95751 -0.382984 0
M  V30 1696 N 158.157 -0.370918 -1.53173 0
M  V30 1697 C 159.104 0.473035 -2.259 0
M  V30 1698 C 160.074 1.07311 -1.26781 0
M  V30 1699 O 161.259 1.1046 -1.55574 0
M  V30 1700 C 158.399 1.60405 -3.05556 0
M  V30 1701 C 157.512 1.02863 -4.19575 0
M  V30 1702 C 156.647 2.12918 -4.86661 0
M  V30 1703 C 155.686 1.52869 -5.92704 0
M  V30 1704 N 154.823 2.56779 -6.53459 0
M  V30 1705 H 159.663 -0.153649 -2.97604 0
M  V30 1706 H 157.2 -0.0875946 -1.46839 0
M  V30 1707 H 159.158 2.27034 -3.50016 0
M  V30 1708 H 157.788 2.20131 -2.36097 0
M  V30 1709 H 156.84 0.252465 -3.79561 0
M  V30 1710 H 158.152 0.549642 -4.95762 0
M  V30 1711 H 157.306 2.87356 -5.34333 0
M  V30 1712 H 156.045 2.6417 -4.09958 0
M  V30 1713 H 155.05 0.769479 -5.44389 0
M  V30 1714 H 156.275 1.02435 -6.7133 0
M  V30 1715 H 154.221 3.07235 -5.79606 0
M  V30 1716 H 154.138 2.13583 -7.25202 0
M  V30 1717 H 155.406 3.30903 -7.05779 0
M  V30 1718 N 159.635 1.57281 -0.100228 0
M  V30 1719 C 160.884 1.93713 0.561984 0
M  V30 1720 C 161.197 0.984492 1.69018 0
M  V30 1721 O 162.403 1.24273 2.41389 0
M  V30 1722 C 160.859 3.4421 1.05106 0
M  V30 1723 C 160.467 4.47975 -0.0476628 0
M  V30 1724 C 162.211 3.89595 1.68571 0
M  V30 1725 C 160.118 5.89631 0.457055 0
M  V30 1726 H 159.048 0.723082 0.2137 0
M  V30 1727 H 161.699 1.82644 -0.177057 0
M  V30 1728 H 160.081 3.50449 1.84395 0
M  V30 1729 H 161.255 4.53385 -0.823333 0
M  V30 1730 H 159.57 4.1223 -0.587816 0
M  V30 1731 H 162.167 4.92832 2.07414 0
M  V30 1732 H 162.51 3.28526 2.55688 0
M  V30 1733 H 163.043 3.86078 0.958562 0
M  V30 1734 H 159.782 6.54411 -0.377616 0
M  V30 1735 H 159.302 5.87681 1.19962 0
M  V30 1736 H 160.981 6.40363 0.92437 0
M  V30 1737 N 161.113 -0.173488 1.56642 0
M  V30 1738 C 162.063 -1.21941 1.92651 0
M  V30 1739 C 163.047 -1.39912 0.794577 0
M  V30 1740 O 164.239 -1.41919 1.05773 0
M  V30 1741 C 161.368 -2.55935 2.28806 0
M  V30 1742 C 160.454 -2.41667 3.48508 0
M  V30 1743 N 160.845 -1.9711 4.65813 0
M  V30 1744 C 159.143 -2.72499 3.53072 0
M  V30 1745 C 159.844 -1.95253 5.47952 0
M  V30 1746 N 158.82 -2.37575 4.88937 0
M  V30 1747 H 162.622 -0.866581 2.80834 0
M  V30 1748 H 160.136 -0.381776 1.57849 0
M  V30 1749 H 162.133 -3.31511 2.52797 0
M  V30 1750 H 160.793 -2.92022 1.41961 0
M  V30 1751 H 161.804 -1.67481 4.90072 0
M  V30 1752 H 158.481 -3.12639 2.767 0
M  V30 1753 H 159.871 -1.6252 6.51948 0
M  V30 1754 N 162.591 -1.51276 -0.441967 0
M  V30 1755 C 163.501 -1.75092 -1.56141 0
M  V30 1756 C 164.517 -0.634963 -1.62001 0
M  V30 1757 O 165.693 -0.916686 -1.79329 0
M  V30 1758 C 162.758 -1.86666 -2.92158 0
M  V30 1759 C 161.819 -3.10506 -2.96453 0
M  V30 1760 C 161.052 -3.21519 -4.25982 0
M  V30 1761 O 161.275 -2.38586 -5.18105 0
M  V30 1762 O 160.209 -4.14465 -4.36466 0
M  V30 1763 H 164.035 -2.70044 -1.38961 0
M  V30 1764 H 161.62 -1.35722 -0.624499 0
M  V30 1765 H 163.502 -1.96292 -3.72891 0
M  V30 1766 H 162.177 -0.949014 -3.09476 0
M  V30 1767 H 161.084 -3.06363 -2.14692 0
M  V30 1768 H 162.417 -4.01945 -2.84079 0
M  V30 1769 N 164.069 0.697108 -1.41344 0
M  V30 1770 C 164.979 1.84088 -1.45427 0
M  V30 1771 C 165.995 1.70545 -0.34501 0
M  V30 1772 O 167.171 1.92488 -0.592492 0
M  V30 1773 C 164.236 3.20056 -1.33286 0
M  V30 1774 C 163.297 3.45718 -2.54514 0
M  V30 1775 C 162.53 4.75199 -2.42944 0
M  V30 1776 O 162.753 5.51579 -1.45318 0
M  V30 1777 O 161.687 5.0161 -3.32672 0
M  V30 1778 H 165.513 1.836 -2.41919 0
M  V30 1779 H 163.098 0.849966 -1.22866 0
M  V30 1780 H 164.98 4.01236 -1.28794 0
M  V30 1781 H 163.655 3.2123 -0.39909 0
M  V30 1782 H 162.562 2.64474 -2.64583 0
M  V30 1783 H 163.895 3.49356 -3.46715 0
M  V30 1784 N 165.547 1.27147 0.931209 0
M  V30 1785 C 166.796 1.12664 1.67302 0
M  V30 1786 C 167.109 -0.327718 1.92835 0
M  V30 1787 O 168.315 -0.593392 2.64936 0
M  V30 1788 C 166.771 1.9683 3.01307 0
M  V30 1789 C 166.379 3.46901 2.83485 0
M  V30 1790 C 168.123 1.90985 3.79111 0
M  V30 1791 C 166.03 4.23279 4.13024 0
M  V30 1792 H 164.96 0.41803 0.627509 0
M  V30 1793 H 167.611 1.51539 1.03481 0
M  V30 1794 H 165.993 1.50797 3.66164 0
M  V30 1795 H 167.167 4.00773 2.27415 0
M  V30 1796 H 165.482 3.54088 2.19113 0
M  V30 1797 H 168.079 2.45328 4.75098 0
M  V30 1798 H 168.422 0.882718 4.06834 0
M  V30 1799 H 168.955 2.34895 3.21044 0
M  V30 1800 H 165.694 5.26503 3.90481 0
M  V30 1801 H 165.214 3.74186 4.6877 0
M  V30 1802 H 166.893 4.32265 4.81411 0
M  V30 1803 N 167.025 -1.13721 1.09112 0
M  V30 1804 C 168.255 -1.88499 0.845671 0
M  V30 1805 C 168.663 -1.79218 -0.606432 0
M  V30 1806 O 168.006 -1.1544 -1.42896 0
M  V30 1807 C 168.068 -3.38954 1.19793 0
M  V30 1808 C 167.732 -3.72018 2.65428 0
M  V30 1809 C 168.729 -3.7153 3.63677 0
M  V30 1810 C 166.414 -4.01775 3.01467 0
M  V30 1811 C 168.408 -4.00336 4.95994 0
M  V30 1812 C 166.095 -4.30243 4.33975 0
M  V30 1813 C 167.093 -4.29508 5.31048 0
M  V30 1814 O 166.781 -4.5728 6.61173 0
M  V30 1815 H 166.513 -0.603702 0.304171 0
M  V30 1816 H 169.067 -1.44903 1.45576 0
M  V30 1817 H 167.297 -3.83039 0.530871 0
M  V30 1818 H 168.986 -3.95052 0.932146 0
M  V30 1819 H 169.752 -3.4862 3.37179 0
M  V30 1820 H 165.631 -4.01496 2.26544 0
M  V30 1821 H 169.175 -3.99678 5.71755 0
M  V30 1822 H 165.072 -4.52625 4.60219 0
M  V30 1823 H 165.84 -4.74964 6.66597 0
M  V30 1824 N 168.503 -0.877838 -1.30888 0
M  V30 1825 C 169.451 -0.328662 -2.30266 0
M  V30 1826 C 170.445 0.560496 -1.59859 0
M  V30 1827 O 171.651 0.445722 -1.74394 0
M  V30 1828 H 168.026 -0.0876142 -0.746879 0
M  V30 1829 H 169.997 -1.18061 -2.74051 0
M  V30 1830 C 168.746 0.448071 -3.44801 0
M  V30 1831 H 168.069 -0.226859 -3.99156 0
M  V30 1832 H 169.509 0.797541 -4.16432 0
M  V30 1833 C 167.968 1.64239 -2.94155 0
M  V30 1834 O 168.498 2.74175 -2.93583 0
M  V30 1835 N 166.704 1.47716 -2.50256 0
M  V30 1836 H 166.251 0.582821 -2.5092 0
M  V30 1837 H 166.209 2.27765 -2.16727 0
M  V30 1838 N 169.982 1.44106 -0.638065 0
M  V30 1839 C 170.892 2.34513 0.0637334 0
M  V30 1840 C 171.908 1.53018 0.828346 0
M  V30 1841 O 173.084 1.85723 0.779036 0
M  V30 1842 C 170.149 3.31095 1.02844 0
M  V30 1843 C 169.21 4.28497 0.26244 0
M  V30 1844 C 168.443 5.20465 1.1812 0
M  V30 1845 O 168.666 5.16514 2.42011 0
M  V30 1846 O 167.6 5.98251 0.661774 0
M  V30 1847 H 171.426 2.95989 -0.68003 0
M  V30 1848 H 169.011 1.43994 -0.398252 0
M  V30 1849 H 170.893 3.90526 1.58327 0
M  V30 1850 H 169.568 2.72144 1.7527 0
M  V30 1851 H 168.475 3.72592 -0.335602 0
M  V30 1852 H 169.808 4.90388 -0.421936 0
M  V30 1853 N 171.46 0.379036 1.52974 0
M  V30 1854 C 172.709 -0.207612 2.00629 0
M  V30 1855 C 173.022 -1.48758 1.27006 0
M  V30 1856 O 174.228 -2.15365 1.65318 0
M  V30 1857 C 172.684 -0.42053 3.57435 0
M  V30 1858 C 172.292 0.845587 4.39948 0
M  V30 1859 C 174.036 -0.964102 4.13407 0
M  V30 1860 C 171.943 0.601513 5.88333 0
M  V30 1861 H 170.873 -0.0813591 0.749598 0
M  V30 1862 H 173.524 0.499853 1.76561 0
M  V30 1863 H 171.906 -1.18959 3.7771 0
M  V30 1864 H 173.08 1.61848 4.31442 0
M  V30 1865 H 171.395 1.31336 3.95145 0
M  V30 1866 H 173.992 -1.16225 5.21916 0
M  V30 1867 H 174.335 -1.93019 3.68849 0
M  V30 1868 H 174.868 -0.25487 3.96983 0
M  V30 1869 H 171.607 1.53831 6.37194 0
M  V30 1870 H 171.127 -0.132628 5.99653 0
M  V30 1871 H 172.806 0.232134 6.46583 0
M  V30 1872 N 172.938 -1.57226 0.108567 0
M  V30 1873 C 174.163 -1.99604 -0.563303 0
M  V30 1874 C 174.588 -0.987563 -1.6009 0
M  V30 1875 O 173.946 0.0421687 -1.81251 0
M  V30 1876 C 173.994 -3.40902 -1.17552 0
M  V30 1877 O 173.098 -3.42896 -2.2912 0
M  V30 1878 H 172.439 -0.648704 -0.1417 0
M  V30 1879 H 174.969 -2.03679 0.193961 0
M  V30 1880 H 174.979 -3.78886 -1.51357 0
M  V30 1881 H 173.654 -4.1382 -0.415445 0
M  V30 1882 H 172.231 -3.1672 -1.96832 0
M  V30 1883 N 174.416 0.165178 -1.56732 0
M  V30 1884 C 175.346 1.20651 -1.99914 0
M  V30 1885 C 176.327 1.45827 -0.875705 0
M  V30 1886 O 177.512 1.57057 -1.14223 0
M  V30 1887 C 174.642 2.54401 -2.36427 0
M  V30 1888 C 173.596 2.43782 -3.51787 0
M  V30 1889 C 172.922 3.82078 -3.7406 0
M  V30 1890 C 174.222 1.93732 -4.85041 0
M  V30 1891 H 175.916 0.847534 -2.87154 0
M  V30 1892 H 173.462 0.40625 -1.38151 0
M  V30 1893 H 175.415 3.27458 -2.65234 0
M  V30 1894 H 174.139 2.92098 -1.46103 0
M  V30 1895 H 172.798 1.73178 -3.23117 0
M  V30 1896 H 172.446 4.17179 -2.81017 0
M  V30 1897 H 172.146 3.7584 -4.51684 0
M  V30 1898 H 173.67 4.56712 -4.05274 0
M  V30 1899 H 175.084 2.56569 -5.12684 0
M  V30 1900 H 173.481 1.98428 -5.66345 0
M  V30 1901 H 174.551 0.891962 -4.76626 0
M  V30 1902 N 175.894 1.51508 0.433938 0
M  V30 1903 C 176.824 1.76016 1.53429 0
M  V30 1904 C 177.805 0.610112 1.58782 0
M  V30 1905 O 178.99 0.853177 1.74455 0
M  V30 1906 C 176.12 1.88831 2.9148 0
M  V30 1907 C 175.074 3.04288 3.00987 0
M  V30 1908 C 174.4 3.0229 4.4105 0
M  V30 1909 C 175.7 4.44193 2.74754 0
M  V30 1910 H 177.394 2.68152 1.33171 0
M  V30 1911 H 174.94 1.29035 0.639214 0
M  V30 1912 H 176.893 2.04559 3.6842 0
M  V30 1913 H 175.617 0.933455 3.12976 0
M  V30 1914 H 174.276 2.8827 2.26486 0
M  V30 1915 H 173.924 2.04576 4.59519 0
M  V30 1916 H 173.624 3.79822 4.4834 0
M  V30 1917 H 175.148 3.20116 5.1996 0
M  V30 1918 H 176.562 4.60544 3.41426 0
M  V30 1919 H 174.959 5.23457 2.9345 0
M  V30 1920 H 176.029 4.53996 1.70339 0
M  V30 1921 N 177.372 -0.689602 1.41712 0
M  V30 1922 C 178.319 -1.80345 1.44029 0
M  V30 1923 C 179.289 -1.63478 0.293948 0
M  V30 1924 O 180.474 -1.84244 0.495869 0
M  V30 1925 C 177.614 -3.18272 1.33405 0
M  V30 1926 C 176.727 -3.46529 2.57956 0
M  V30 1927 C 175.862 -4.74103 2.39582 0
M  V30 1928 C 174.901 -4.95347 3.5958 0
M  V30 1929 N 174.038 -6.14151 3.40239 0
M  V30 1930 H 178.878 -1.77698 2.39222 0
M  V30 1931 H 176.415 -0.867688 1.18784 0
M  V30 1932 H 178.373 -3.97956 1.25246 0
M  V30 1933 H 177.003 -3.2008 0.418164 0
M  V30 1934 H 176.055 -2.61207 2.76542 0
M  V30 1935 H 177.367 -3.58126 3.47199 0
M  V30 1936 H 176.521 -5.61853 2.28924 0
M  V30 1937 H 175.26 -4.64763 1.47805 0
M  V30 1938 H 174.265 -4.06044 3.70686 0
M  V30 1939 H 175.49 -5.06542 4.52318 0
M  V30 1940 H 173.436 -6.06013 2.51167 0
M  V30 1941 H 173.353 -6.26543 4.23061 0
M  V30 1942 H 174.621 -7.04619 3.33365 0
M  V30 1943 N 178.85 -1.27639 -0.924453 0
M  V30 1944 C 180.075 -1.17101 -1.71179 0
M  V30 1945 C 180.5 0.268134 -1.86179 0
M  V30 1946 O 179.858 1.19415 -1.36418 0
M  V30 1947 C 179.906 -1.86313 -3.08739 0
M  V30 1948 O 179.01 -1.16331 -3.95652 0
M  V30 1949 H 178.351 -0.407091 -0.524569 0
M  V30 1950 H 180.881 -1.68767 -1.15666 0
M  V30 1951 H 180.891 -1.938 -3.59034 0
M  V30 1952 H 179.566 -2.91001 -2.97138 0
M  V30 1953 H 178.143 -1.16935 -3.54091 0
M  V30 1954 N 180.328 1.1314 -1.09713 0
M  V30 1955 C 181.258 2.20748 -0.761102 0
M  V30 1956 C 182.239 1.68061 0.262566 0
M  V30 1957 O 183.424 1.93765 0.129977 0
M  V30 1958 C 180.554 3.46812 -0.184054 0
M  V30 1959 C 179.508 4.12606 -1.13757 0
M  V30 1960 C 178.834 5.33031 -0.422083 0
M  V30 1961 C 180.134 4.59603 -2.48118 0
M  V30 1962 H 181.828 2.49113 -1.66082 0
M  V30 1963 H 179.374 1.19734 -0.799987 0
M  V30 1964 H 181.327 4.21353 0.0631215 0
M  V30 1965 H 180.051 3.17851 0.750868 0
M  V30 1966 H 178.71 3.40036 -1.37007 0
M  V30 1967 H 178.358 5.00335 0.517072 0
M  V30 1968 H 178.058 5.77999 -1.05788 0
M  V30 1969 H 179.582 6.10325 -0.183277 0
M  V30 1970 H 180.996 5.25552 -2.29059 0
M  V30 1971 H 179.393 5.15321 -3.07514 0
M  V30 1972 H 180.463 3.73971 -3.08665 0
M  V30 1973 N 181.806 0.884767 1.30421 0
M  V30 1974 C 183.083 0.423185 1.90967 0
M  V30 1975 C 183.463 -1.09605 1.80416 0
M  V30 1976 O 182.811 -1.93126 1.22125 0
M  V30 1977 C 183.021 0.921056 3.36627 0
M  V30 1978 C 184.369 0.955903 4.137 0
M  V30 1979 O 185.393 0.867706 3.4547 0
M  V30 1980 O 184.252 1.08614 5.35598 0
M  V30 1981 H 181.346 0.129369 0.816819 0
M  V30 1982 H 183.892 0.973653 1.3899 0
M  V30 1983 H 182.664 1.96489 3.3839 0
M  V30 1984 H 182.287 0.349741 3.96059 0
M  V30 1985 N 183.284 -1.43765 0.645699 0
M  V30 1986 C 184.234 -2.27884 -0.0726442 0
M  V30 1987 C 185.218 -1.39483 -0.802086 0
M  V30 1988 O 186.41 -1.63174 -0.685791 0
M  V30 1989 C 183.539 -3.27055 -1.04356 0
M  V30 1990 C 182.625 -4.22944 -0.312985 0
M  V30 1991 N 183.016 -5.01391 0.666386 0
M  V30 1992 C 181.314 -4.42528 -0.55546 0
M  V30 1993 C 182.015 -5.71217 1.09935 0
M  V30 1994 N 180.991 -5.41856 0.435137 0
M  V30 1995 H 184.793 -2.85949 0.678988 0
M  V30 1996 H 182.307 -1.55378 0.472368 0
M  V30 1997 H 184.304 -3.86089 -1.57292 0
M  V30 1998 H 182.964 -2.70551 -1.79534 0
M  V30 1999 H 183.975 -5.07252 1.04481 0
M  V30 2000 H 180.652 -3.97104 -1.28899 0
M  V30 2001 H 182.042 -6.44202 1.90929 0
M  V30 2002 N 184.763 -0.387143 -1.52771 0
M  V30 2003 C 186.174 0.0873634 -1.86495 0
M  V30 2004 C 186.525 1.46336 -1.30691 0
M  V30 2005 O 185.65 2.068 -0.637409 0
M  V30 2006 C 186.245 0.165305 -3.38396 0
M  V30 2007 C 184.804 0.584101 -3.7184 0
M  V30 2008 C 183.951 -0.255279 -2.76122 0
M  V30 2009 H 186.902 -0.605104 -1.46711 0
M  V30 2010 H 186.923 0.984848 -3.67534 0
M  V30 2011 H 186.435 -0.836301 -3.78982 0
M  V30 2012 H 184.536 1.59315 -3.36823 0
M  V30 2013 H 184.649 0.343749 -4.77865 0
M  V30 2014 H 183.013 0.279126 -2.53166 0
M  V30 2015 H 183.796 -1.25482 -3.19545 0
M  V30 2016 N 186.241 1.57166 -0.116904 0
M  V30 2017 C 187.189 2.16457 0.851418 0
M  V30 2018 C 188.183 1.11323 1.27686 0
M  V30 2019 O 189.389 1.2963 1.24884 0
M  V30 2020 H 185.764 0.69271 0.292672 0
M  V30 2021 H 187.735 2.96605 0.32685 0
M  V30 2022 C 186.484 2.77689 2.09246 0
M  V30 2023 H 185.807 3.58285 1.77402 0
M  V30 2024 H 187.247 3.22716 2.7501 0
M  V30 2025 C 185.706 1.74667 2.88085 0
M  V30 2026 O 186.236 1.19877 3.83396 0
M  V30 2027 N 184.442 1.44656 2.52038 0
M  V30 2028 H 183.989 1.89402 1.74599 0
M  V30 2029 H 183.947 0.759675 3.05084 0
M  V30 2030 N 187.719 -0.156864 1.56817 0
M  V30 2031 C 188.968 -0.869504 1.81996 0
M  V30 2032 C 189.281 -1.82777 0.696545 0
M  V30 2033 O 190.487 -2.58384 0.833658 0
M  V30 2034 C 188.943 -1.59679 3.22538 0
M  V30 2035 C 188.551 -0.681431 4.42787 0
M  V30 2036 C 190.295 -2.2968 3.56997 0
M  V30 2037 C 188.202 -1.40978 5.74351 0
M  V30 2038 H 187.132 -0.328438 0.678708 0
M  V30 2039 H 189.783 -0.1223 1.83092 0
M  V30 2040 H 188.165 -2.38927 3.158 0
M  V30 2041 H 189.339 0.0751166 4.60739 0
M  V30 2042 H 187.654 -0.0903431 4.16302 0
M  V30 2043 H 190.251 -2.84794 4.52544 0
M  V30 2044 H 190.594 -3.05707 2.82576 0
M  V30 2045 H 191.127 -1.57361 3.65352 0
M  V30 2046 H 187.866 -0.691561 6.51842 0
M  V30 2047 H 187.386 -2.13929 5.60352 0
M  V30 2048 H 189.065 -1.95337 6.16808 0
M  V30 2049 N 189.197 -1.51736 -0.425897 0
M  V30 2050 C 190.446 -1.64201 -1.17136 0
M  V30 2051 C 190.759 -0.369705 -1.92074 0
M  V30 2052 O 191.965 -0.373898 -2.68913 0
M  V30 2053 C 190.421 -2.90035 -2.13091 0
M  V30 2054 C 190.029 -4.24312 -1.43747 0
M  V30 2055 C 191.773 -3.1186 -2.87999 0
M  V30 2056 C 189.68 -5.41285 -2.38253 0
M  V30 2057 H 188.61 -0.611624 -0.440944 0
M  V30 2058 H 191.261 -1.78212 -0.437328 0
M  V30 2059 H 189.643 -2.69684 -2.89977 0
M  V30 2060 H 190.817 -4.55086 -0.723408 0
M  V30 2061 H 189.132 -4.08456 -0.809465 0
M  V30 2062 H 191.729 -3.96427 -3.58817 0
M  V30 2063 H 192.072 -2.25403 -3.49999 0
M  V30 2064 H 192.605 -3.32605 -2.18217 0
M  V30 2065 H 189.344 -6.30037 -1.80925 0
M  V30 2066 H 188.864 -5.14872 -3.0768 0
M  V30 2067 H 190.543 -5.73694 -2.99139 0
M  V30 2068 N 190.675 0.682077 -1.42076 0
M  V30 2069 C 191.622 1.79578 -1.44984 0
M  V30 2070 C 192.592 1.6332 -0.302614 0
M  V30 2071 O 193.777 1.83978 -0.505633 0
M  V30 2072 C 190.917 3.1756 -1.35091 0
M  V30 2073 C 190.03 3.45156 -2.59791 0
M  V30 2074 C 189.165 4.72826 -2.42093 0
M  V30 2075 C 188.204 4.93433 -3.62202 0
M  V30 2076 N 187.341 6.12338 -3.43491 0
M  V30 2077 H 192.181 1.76427 -2.40161 0
M  V30 2078 H 189.718 0.861376 -1.19242 0
M  V30 2079 H 191.676 3.97287 -1.27354 0
M  V30 2080 H 190.306 3.19854 -0.435133 0
M  V30 2081 H 189.358 2.59736 -2.77923 0
M  V30 2082 H 190.67 3.5628 -3.49094 0
M  V30 2083 H 189.824 5.60631 -2.319 0
M  V30 2084 H 188.563 4.63973 -1.50268 0
M  V30 2085 H 187.568 4.04073 -3.72834 0
M  V30 2086 H 188.793 5.04136 -4.54998 0
M  V30 2087 H 186.739 6.04672 -2.54377 0
M  V30 2088 H 186.656 6.2429 -4.26377 0
M  V30 2089 H 187.924 7.02841 -3.37097 0
M  V30 2090 N 192.153 1.28127 0.917671 0
M  V30 2091 C 193.083 1.14248 2.03641 0
M  V30 2092 C 194.064 0.0412748 1.7005 0
M  V30 2093 O 195.249 0.217566 1.92977 0
M  V30 2094 C 192.379 0.799431 3.37974 0
M  V30 2095 C 191.333 1.85497 3.85713 0
M  V30 2096 C 190.659 1.36565 5.16966 0
M  V30 2097 C 191.959 3.26085 4.08002 0
M  V30 2098 H 193.653 2.07835 2.15511 0
M  V30 2099 H 191.199 1.00064 1.03553 0
M  V30 2100 H 193.152 0.689114 4.15727 0
M  V30 2101 H 191.876 -0.172145 3.26146 0
M  V30 2102 H 190.535 1.95437 3.10161 0
M  V30 2103 H 190.183 0.383253 5.01538 0
M  V30 2104 H 189.883 2.07143 5.49878 0
M  V30 2105 H 191.407 1.26848 5.97279 0
M  V30 2106 H 192.821 3.19089 4.76293 0
M  V30 2107 H 191.218 3.94462 4.52238 0
M  V30 2108 H 192.288 3.70394 3.12948 0
M  V30 2109 N 193.631 -1.12557 1.10312 0
M  V30 2110 C 194.878 -1.84038 0.844759 0
M  V30 2111 C 195.206 -1.84026 -0.629668 0
M  V30 2112 O 194.461 -1.28026 -1.48013 0
M  V30 2113 C 194.76 -3.31462 1.33669 0
M  V30 2114 C 194.426 -3.51647 2.82232 0
M  V30 2115 C 193.088 -3.56864 3.22802 0
M  V30 2116 C 195.44 -3.58867 3.77974 0
M  V30 2117 C 192.768 -3.66844 4.57867 0
M  V30 2118 C 195.12 -3.70375 5.1284 0
M  V30 2119 C 193.784 -3.73848 5.52986 0
M  V30 2120 H 193.054 -0.673444 0.309119 0
M  V30 2121 H 195.701 -1.32824 1.37949 0
M  V30 2122 H 194.006 -3.85091 0.721949 0
M  V30 2123 H 195.703 -3.85236 1.11329 0
M  V30 2124 H 192.293 -3.48249 2.49842 0
M  V30 2125 H 196.477 -3.54107 3.47738 0
M  V30 2126 H 191.733 -3.67804 4.88396 0
M  V30 2127 H 195.907 -3.74904 5.86873 0
M  V30 2128 H 193.534 -3.81333 6.57639 0
M  V30 2129 N 195.109 -0.891671 -1.2995 0
M  V30 2130 C 196.386 -0.433307 -1.9074 0
M  V30 2131 C 196.766 1.08646 -1.80995 0
M  V30 2132 O 196.114 1.92476 -1.23147 0
M  V30 2133 C 196.324 -0.938895 -3.36134 0
M  V30 2134 C 197.672 -0.977829 -4.13187 0
M  V30 2135 O 198.696 -0.886015 -3.45005 0
M  V30 2136 O 197.555 -1.11453 -5.35015 0
M  V30 2137 H 194.649 -0.133699 -0.816121 0
M  V30 2138 H 197.195 -0.981011 -1.38471 0
M  V30 2139 H 195.967 -1.98281 -3.37343 0
M  V30 2140 H 195.59 -0.37074 -3.95868 0
M  V30 2141 N 196.587 1.43421 -0.653314 0
M  V30 2142 C 197.833 2.02111 -0.166992 0
M  V30 2143 C 198.166 1.51423 1.21592 0
M  V30 2144 O 197.441 0.707389 1.8118 0
M  V30 2145 C 197.724 3.5966 -0.177948 0
M  V30 2146 C 197.577 4.20579 -1.59478 0
M  V30 2147 C 198.896 4.37413 0.4856 0
M  V30 2148 H 196.015 0.734374 -0.0621557 0
M  V30 2149 H 198.657 1.70717 -0.834016 0
M  V30 2150 H 196.807 3.86537 0.390032 0
M  V30 2151 H 198.479 4.04732 -2.21336 0
M  V30 2152 H 196.722 3.77226 -2.14204 0
M  V30 2153 H 197.393 5.29665 -1.5543 0
M  V30 2154 H 199.869 4.161 0.00234528 0
M  V30 2155 H 198.745 5.47075 0.447207 0
M  V30 2156 H 199.006 4.13672 1.55974 0
M  V30 2157 N 198.065 0.39524 1.52563 0
M  V30 2158 C 199.312 -0.185044 2.01653 0
M  V30 2159 C 199.64 -1.46317 1.28146 0
M  V30 2160 O 198.895 -1.9213 0.372074 0
M  V30 2161 C 199.194 -0.493444 3.53977 0
M  V30 2162 C 198.86 0.69384 4.4553 0
M  V30 2163 C 197.522 1.01954 4.70275 0
M  V30 2164 C 199.874 1.48785 4.99512 0
M  V30 2165 C 197.202 2.14069 5.46252 0
M  V30 2166 C 199.554 2.59965 5.76716 0
M  V30 2167 C 198.218 2.93037 5.99738 0
M  V30 2168 H 197.488 -0.0677123 0.7379 0
M  V30 2169 H 200.135 0.533807 1.8391 0
M  V30 2170 H 198.44 -1.29369 3.69825 0
M  V30 2171 H 200.137 -0.955163 3.89458 0
M  V30 2172 H 196.727 0.429987 4.26438 0
M  V30 2173 H 200.911 1.24946 4.80315 0
M  V30 2174 H 196.167 2.40056 5.62302 0
M  V30 2175 H 200.341 3.21887 6.17545 0
M  V30 2176 H 197.968 3.8003 6.58393 0
M  V30 2177 N 199.544 -1.57102 0.125237 0
M  V30 2178 C 200.454 -2.19191 -0.8362 0
M  V30 2179 C 201.47 -1.16985 -1.28805 0
M  V30 2180 O 202.646 -1.49479 -1.34974 0
M  V30 2181 C 199.711 -2.78407 -2.06617 0
M  V30 2182 C 198.772 -3.9567 -1.66565 0
M  V30 2183 C 198.005 -4.52052 -2.83698 0
M  V30 2184 O 198.228 -4.07326 -3.99302 0
M  V30 2185 O 197.162 -5.42645 -2.60423 0
M  V30 2186 H 200.988 -3.01816 -0.337776 0
M  V30 2187 H 198.573 -1.4906 -0.100695 0
M  V30 2188 H 200.455 -3.16129 -2.7864 0
M  V30 2189 H 199.13 -1.9881 -2.55453 0
M  V30 2190 H 198.037 -3.62705 -0.916296 0
M  V30 2191 H 199.37 -4.76722 -1.22464 0
M  V30 2192 N 201.022 0.148545 -1.56898 0
M  V30 2193 C 202.299 0.890019 -1.74178 0
M  V30 2194 C 202.679 1.99407 -0.692839 0
M  V30 2195 O 202.027 2.26671 0.288505 0
M  V30 2196 C 202.237 1.43389 -3.18183 0
M  V30 2197 C 203.585 1.89791 -3.79822 0
M  V30 2198 O 204.609 1.53134 -3.21603 0
M  V30 2199 O 203.468 2.57387 -4.82093 0
M  V30 2200 H 200.562 0.420496 -0.712118 0
M  V30 2201 H 203.108 0.134591 -1.69165 0
M  V30 2202 H 201.88 0.640383 -3.86024 0
M  V30 2203 H 201.503 2.25287 -3.27615 0
M  V30 2204 N 202.5 1.5196 0.417844 0
M  V30 2205 C 203.447 1.74678 1.50852 0
M  V30 2206 C 204.417 0.588947 1.55308 0
M  V30 2207 O 205.602 0.825544 1.72016 0
M  V30 2208 C 202.742 1.89544 2.88387 0
M  V30 2209 C 201.855 3.17166 2.93309 0
M  V30 2210 C 200.99 3.22513 4.22088 0
M  V30 2211 C 200.029 4.44372 4.20951 0
M  V30 2212 N 199.166 4.47161 5.41287 0
M  V30 2213 H 204.006 2.67768 1.30783 0
M  V30 2214 H 201.543 1.32689 0.63498 0
M  V30 2215 H 203.501 1.96146 3.68216 0
M  V30 2216 H 202.131 0.998424 3.06971 0
M  V30 2217 H 201.183 3.19778 2.06024 0
M  V30 2218 H 202.495 4.07021 2.88332 0
M  V30 2219 H 201.649 3.28139 5.10303 0
M  V30 2220 H 200.388 2.30581 4.29748 0
M  V30 2221 H 199.393 4.38902 3.31127 0
M  V30 2222 H 200.618 5.3759 4.14938 0
M  V30 2223 H 198.564 3.58108 5.49632 0
M  V30 2224 H 198.481 5.3085 5.3827 0
M  V30 2225 H 199.749 4.57005 6.3148 0
M  V30 2226 N 203.978 -0.674533 1.42435 0
M  V30 2227 C 204.925 -1.78807 1.45934 0
M  V30 2228 C 205.895 -1.63157 0.311271 0
M  V30 2229 O 207.08 -1.83707 0.515383 0
M  V30 2230 C 204.22 -3.16839 1.36773 0
M  V30 2231 C 203.333 -3.43774 2.61617 0
M  V30 2232 C 202.468 -4.71536 2.44597 0
M  V30 2233 C 201.507 -4.91505 3.64814 0
M  V30 2234 N 200.644 -6.10508 3.46734 0
M  V30 2235 H 205.484 -1.75151 2.41093 0
M  V30 2236 H 203.021 -0.85504 1.19697 0
M  V30 2237 H 204.979 -3.96606 1.29459 0
M  V30 2238 H 203.609 -3.19619 0.452089 0
M  V30 2239 H 202.661 -2.58259 2.79297 0
M  V30 2240 H 203.973 -3.54423 3.50978 0
M  V30 2241 H 203.127 -5.59393 2.3487 0
M  V30 2242 H 201.866 -4.6317 1.52726 0
M  V30 2243 H 200.871 -4.0209 3.74972 0
M  V30 2244 H 202.096 -5.01716 4.57665 0
M  V30 2245 H 200.042 -6.03315 2.5758 0
M  V30 2246 H 199.959 -6.2202 4.29682 0
M  V30 2247 H 201.227 -7.01044 3.40819 0
M  V30 2248 N 205.456 -1.28612 -0.910864 0
M  V30 2249 C 206.686 -1.1862 -1.69153 0
M  V30 2250 C 207.094 0.257324 -1.87442 0
M  V30 2251 O 206.437 1.18543 -1.40332 0
M  V30 2252 C 206.499 -1.81606 -3.10257 0
M  V30 2253 C 206.163 -3.30864 -3.15243 0
M  V30 2254 C 207.16 -4.27256 -2.96223 0
M  V30 2255 C 204.845 -3.71871 -3.37664 0
M  V30 2256 C 206.839 -5.62631 -2.99541 0
M  V30 2257 C 204.526 -5.07371 -3.40614 0
M  V30 2258 C 205.524 -6.02561 -3.21573 0
M  V30 2259 O 205.212 -7.35589 -3.2429 0
M  V30 2260 H 204.944 -0.412633 -0.535453 0
M  V30 2261 H 207.498 -1.70306 -1.14827 0
M  V30 2262 H 205.728 -1.24418 -3.66138 0
M  V30 2263 H 207.417 -1.66092 -3.70362 0
M  V30 2264 H 208.183 -3.9691 -2.78725 0
M  V30 2265 H 204.062 -2.98241 -3.5153 0
M  V30 2266 H 207.606 -6.36907 -2.84597 0
M  V30 2267 H 203.503 -5.37366 -3.57642 0
M  V30 2268 H 204.271 -7.44252 -3.40633 0
M  V30 2269 N 206.934 1.1197 -1.10907 0
M  V30 2270 C 208.181 1.83588 -0.854507 0
M  V30 2271 C 208.509 1.84357 0.6199 0
M  V30 2272 O 207.764 1.28809 1.47332 0
M  V30 2273 C 208.063 3.30749 -1.35425 0
M  V30 2274 C 207.729 3.50146 -2.84093 0
M  V30 2275 C 206.391 3.55148 -3.2469 0
M  V30 2276 C 208.743 3.56857 -3.79872 0
M  V30 2277 C 206.071 3.6441 -4.59806 0
M  V30 2278 C 208.423 3.6765 -5.14797 0
M  V30 2279 C 207.087 3.7091 -5.54961 0
M  V30 2280 H 206.357 0.671795 -0.312686 0
M  V30 2281 H 209.004 1.32091 -1.38652 0
M  V30 2282 H 207.309 3.84703 -0.742361 0
M  V30 2283 H 209.006 3.8464 -1.1337 0
M  V30 2284 H 205.596 3.46919 -2.51685 0
M  V30 2285 H 209.78 3.52258 -3.49611 0
M  V30 2286 H 205.036 3.65208 -4.9034 0
M  V30 2287 H 209.21 3.71786 -5.88853 0
M  V30 2288 H 206.837 3.7784 -6.59652 0
M  V30 2289 N 208.412 0.89855 1.29475 0
M  V30 2290 C 209.642 0.538479 1.99459 0
M  V30 2291 C 210.05 -0.880922 1.67441 0
M  V30 2292 O 209.393 -1.59283 0.915127 0
M  V30 2293 C 209.455 0.649564 3.53583 0
M  V30 2294 C 209.119 2.03573 4.09154 0
M  V30 2295 C 210.116 3.00675 4.24135 0
M  V30 2296 C 207.801 2.3448 4.44212 0
M  V30 2297 C 209.795 4.26809 4.73405 0
M  V30 2298 C 207.482 3.60857 4.93179 0
M  V30 2299 C 208.48 4.56836 5.0773 0
M  V30 2300 O 208.168 5.80969 5.55635 0
M  V30 2301 H 207.9 0.205372 0.644048 0
M  V30 2302 H 210.454 1.20958 1.66007 0
M  V30 2303 H 208.684 -0.0785592 3.8662 0
M  V30 2304 H 210.373 0.29881 4.04799 0
M  V30 2305 H 211.139 2.78112 3.97339 0
M  V30 2306 H 207.018 1.60534 4.32145 0
M  V30 2307 H 210.562 5.0173 4.84678 0
M  V30 2308 H 206.459 3.83251 5.19412 0
M  V30 2309 H 207.227 5.83542 5.73952 0
M  V30 2310 N 209.89 -1.43072 0.660911 0
M  V30 2311 C 210.82 -2.33497 -0.0122829 0
M  V30 2312 C 211.801 -1.49903 -0.803925 0
M  V30 2313 O 212.986 -1.78546 -0.763864 0
M  V30 2314 C 210.116 -3.33363 -0.973994 0
M  V30 2315 C 209.07 -4.27003 -0.291928 0
M  V30 2316 C 208.396 -5.16967 -1.36562 0
M  V30 2317 C 209.696 -5.15816 0.820462 0
M  V30 2318 H 211.39 -2.90038 0.742873 0
M  V30 2319 H 208.936 -1.39461 0.358688 0
M  V30 2320 H 210.889 -3.95524 -1.45392 0
M  V30 2321 H 209.613 -2.75095 -1.7604 0
M  V30 2322 H 208.272 -3.66217 0.167623 0
M  V30 2323 H 207.92 -4.55034 -2.14366 0
M  V30 2324 H 207.62 -5.80441 -0.914454 0
M  V30 2325 H 209.144 -5.82003 -1.84675 0
M  V30 2326 H 210.558 -5.71742 0.422366 0
M  V30 2327 H 208.955 -5.8805 1.19656 0
M  V30 2328 H 210.025 -4.55045 1.67518 0
M  V30 2329 N 211.368 -0.403325 -1.52352 0
M  V30 2330 C 212.614 0.174605 -2.02047 0
M  V30 2331 C 212.947 1.45282 -1.28867 0
M  V30 2332 O 212.222 1.90483 -0.393257 0
M  V30 2333 C 212.505 0.428238 -3.57545 0
M  V30 2334 C 212.358 -0.866248 -4.4138 0
M  V30 2335 C 213.677 1.21287 -4.23057 0
M  V30 2336 H 210.796 0.0619851 -0.734389 0
M  V30 2337 H 213.438 -0.53565 -1.82293 0
M  V30 2338 H 211.588 1.03327 -3.74507 0
M  V30 2339 H 213.26 -1.50265 -4.3614 0
M  V30 2340 H 211.503 -1.47851 -4.07827 0
M  V30 2341 H 212.174 -0.643249 -5.48239 0
M  V30 2342 H 214.65 0.700703 -4.10158 0
M  V30 2343 H 213.526 1.35909 -5.31808 0
M  V30 2344 H 213.787 2.23193 -3.81625 0
M  V30 2345 N 212.846 1.57033 -0.133567 0
M  V30 2346 C 214.074 2.00044 0.528195 0
M  V30 2347 C 214.489 1.01349 1.59291 0
M  V30 2348 O 213.846 0.00848369 1.82498 0
M  V30 2349 C 213.897 3.43018 1.1411 0
M  V30 2350 O 213.618 4.37939 0.11892 0
M  V30 2351 C 215.119 4.01237 1.88477 0
M  V30 2352 H 212.339 0.656517 0.138661 0
M  V30 2353 H 214.883 2.03267 -0.224196 0
M  V30 2354 H 213.038 3.40688 1.84418 0
M  V30 2355 H 213.452 5.21436 0.56613 0
M  V30 2356 H 214.926 5.03314 2.26669 0
M  V30 2357 H 215.403 3.41193 2.76558 0
M  V30 2358 H 216.009 4.07156 1.22898 0
M  V30 2359 N 214.325 -0.140222 1.56975 0
M  V30 2360 C 215.235 -1.19223 2.02047 0
M  V30 2361 C 216.251 -1.46612 0.937062 0
M  V30 2362 O 217.427 -1.58148 1.24704 0
M  V30 2363 C 214.492 -2.50414 2.39778 0
M  V30 2364 C 213.553 -2.30612 3.621 0
M  V30 2365 C 212.786 -3.55547 3.98023 0
M  V30 2366 O 213.009 -4.62004 3.34528 0
M  V30 2367 O 211.943 -3.47808 4.91237 0
M  V30 2368 H 215.769 -0.839559 2.91865 0
M  V30 2369 H 213.354 -0.349453 1.45256 0
M  V30 2370 H 215.236 -3.27747 2.64877 0
M  V30 2371 H 213.911 -2.85198 1.53114 0
M  V30 2372 H 212.818 -1.51207 3.4218 0
M  V30 2373 H 214.151 -2.00741 4.49404 0
M  V30 2374 N 215.803 -1.52179 -0.40978 0
M  V30 2375 C 217.05 -1.66206 -1.15679 0
M  V30 2376 C 217.378 -0.391674 -1.90516 0
M  V30 2377 O 216.633 0.62533 -1.8544 0
M  V30 2378 C 216.932 -2.83428 -2.17723 0
M  V30 2379 C 216.598 -4.21672 -1.59699 0
M  V30 2380 C 215.26 -4.59274 -1.43599 0
M  V30 2381 C 217.612 -5.07825 -1.17317 0
M  V30 2382 C 214.94 -5.80709 -0.836328 0
M  V30 2383 C 217.292 -6.29864 -0.587691 0
M  V30 2384 C 215.956 -6.66216 -0.413818 0
M  V30 2385 H 215.226 -0.608192 -0.423301 0
M  V30 2386 H 217.873 -1.86279 -0.444097 0
M  V30 2387 H 216.178 -2.57687 -2.95135 0
M  V30 2388 H 217.875 -2.91477 -2.75394 0
M  V30 2389 H 214.465 -3.9204 -1.73213 0
M  V30 2390 H 218.649 -4.79359 -1.28565 0
M  V30 2391 H 213.905 -6.07498 -0.689626 0
M  V30 2392 H 218.079 -6.95948 -0.250894 0
M  V30 2393 H 215.706 -7.60182 0.0529471 0
M  V30 2394 N 217.281 0.66697 -1.42791 0
M  V30 2395 C 218.511 1.45294 -1.46878 0
M  V30 2396 C 218.919 1.89027 -0.0809861 0
M  V30 2397 O 218.262 1.59219 0.916246 0
M  V30 2398 C 218.324 2.72908 -2.34012 0
M  V30 2399 C 217.988 2.51203 -3.81767 0
M  V30 2400 C 218.985 2.15302 -4.73224 0
M  V30 2401 C 216.67 2.65954 -4.26115 0
M  V30 2402 C 218.664 1.94431 -6.07022 0
M  V30 2403 C 216.351 2.44699 -5.59969 0
M  V30 2404 C 217.349 2.08992 -6.5024 0
M  V30 2405 O 217.037 1.87948 -7.81621 0
M  V30 2406 H 216.769 0.453306 -0.501487 0
M  V30 2407 H 219.323 0.826232 -1.88049 0
M  V30 2408 H 217.553 3.38089 -1.87703 0
M  V30 2409 H 219.242 3.34816 -2.29462 0
M  V30 2410 H 220.008 2.03495 -4.40244 0
M  V30 2411 H 215.887 2.92724 -3.56137 0
M  V30 2412 H 219.431 1.66484 -6.77443 0
M  V30 2413 H 215.328 2.56105 -5.9252 0
M  V30 2414 H 216.096 2.02483 -7.93059 0
M  V30 2415 N 218.759 1.29093 0.90403 0
M  V30 2416 C 219.669 1.15727 2.0407 0
M  V30 2417 C 220.685 0.0815308 1.73809 0
M  V30 2418 O 221.861 0.292749 1.99261 0
M  V30 2419 C 218.926 0.830424 3.36608 0
M  V30 2420 C 217.987 1.98955 3.80415 0
M  V30 2421 C 217.22 1.6782 5.06628 0
M  V30 2422 O 217.443 0.597105 5.67266 0
M  V30 2423 O 216.377 2.52486 5.46383 0
M  V30 2424 H 220.203 2.11171 2.18267 0
M  V30 2425 H 217.788 1.08504 1.027 0
M  V30 2426 H 219.67 0.662521 4.16159 0
M  V30 2427 H 218.345 -0.0942678 3.23563 0
M  V30 2428 H 217.252 2.21267 3.01648 0
M  V30 2429 H 218.585 2.89529 3.98037 0
M  V30 2430 N 220.237 -1.11381 1.11499 0
M  V30 2431 C 221.485 -1.8277 0.862524 0
M  V30 2432 C 221.806 -1.85097 -0.613534 0
M  V30 2433 O 221.076 -1.32198 -1.4457 0
M  V30 2434 H 219.656 -0.676823 0.316101 0
M  V30 2435 H 222.318 -1.34816 1.4075 0
M  V30 2436 H 221.414 -2.86614 1.23527 0
M  V30 2437 N 221.715 -0.905404 -1.28997 0
M  V30 2438 C 222.963 -0.533192 -1.9494 0
M  V30 2439 C 223.284 0.924618 -1.71685 0
M  V30 2440 O 222.554 1.65268 -1.05183 0
M  V30 2441 H 221.134 -0.194194 -0.721317 0
M  V30 2442 H 223.796 -1.15294 -1.57141 0
M  V30 2443 H 222.892 -0.72059 -3.03667 0
M  V30 2444 N 223.193 1.4272 -0.668489 0
M  V30 2445 C 224.103 2.34596 0.0139753 0
M  V30 2446 C 225.119 1.5474 0.795703 0
M  V30 2447 O 226.295 1.87334 0.739466 0
M  V30 2448 C 223.36 3.33202 0.957982 0
M  V30 2449 C 222.421 4.28957 0.17149 0
M  V30 2450 C 221.654 5.22853 1.07053 0
M  V30 2451 O 221.877 5.21531 2.31001 0
M  V30 2452 O 220.811 5.9952 0.534727 0
M  V30 2453 H 224.637 2.9448 -0.742661 0
M  V30 2454 H 222.222 1.43117 -0.428705 0
M  V30 2455 H 224.104 3.93796 1.50008 0
M  V30 2456 H 222.779 2.758 1.69458 0
M  V30 2457 H 221.686 3.71796 -0.414558 0
M  V30 2458 H 223.019 4.89383 -0.52586 0
M  V30 2459 N 224.671 0.411399 1.52136 0
M  V30 2460 C 225.601 -0.404015 2.29978 0
M  V30 2461 C 226.582 -1.04412 1.34284 0
M  V30 2462 O 227.767 -1.0527 1.63192 0
M  V30 2463 C 224.897 -1.5197 3.12286 0
M  V30 2464 C 223.851 -1.00448 4.16046 0
M  V30 2465 C 223.177 -2.21393 4.86712 0
M  V30 2466 C 224.477 -0.0569336 5.22269 0
M  V30 2467 H 226.171 0.245529 2.98392 0
M  V30 2468 H 223.717 0.119525 1.43503 0
M  V30 2469 H 225.67 -2.09715 3.6551 0
M  V30 2470 H 224.394 -2.19716 2.41646 0
M  V30 2471 H 223.053 -0.449421 3.63835 0
M  V30 2472 H 222.701 -2.87699 4.12599 0
M  V30 2473 H 222.401 -1.87571 5.56858 0
M  V30 2474 H 223.925 -2.7974 5.4275 0
M  V30 2475 H 225.339 -0.54325 5.7072 0
M  V30 2476 H 223.736 0.192594 5.99791 0
M  V30 2477 H 224.806 0.887663 4.76706 0
M  V30 2478 N 226.149 -1.5696 0.141893 0
M  V30 2479 C 227.396 -1.9596 -0.510492 0
M  V30 2480 C 227.724 -1.02648 -1.65208 0
M  V30 2481 O 226.979 -0.0546947 -1.95624 0
M  V30 2482 C 227.278 -3.41242 -1.06249 0
M  V30 2483 C 226.944 -4.50882 -0.0398791 0
M  V30 2484 C 225.606 -4.80595 0.241247 0
M  V30 2485 C 227.958 -5.17058 0.65578 0
M  V30 2486 C 225.286 -5.73792 1.22393 0
M  V30 2487 C 227.638 -6.11313 1.62724 0
M  V30 2488 C 226.302 -6.39407 1.91612 0
M  V30 2489 H 225.572 -0.717068 -0.186802 0
M  V30 2490 H 228.219 -1.90142 0.227643 0
M  V30 2491 H 226.524 -3.43866 -1.87785 0
M  V30 2492 H 228.221 -3.68742 -1.57576 0
M  V30 2493 H 224.811 -4.27754 -0.269174 0
M  V30 2494 H 228.995 -4.94239 0.451779 0
M  V30 2495 H 224.251 -5.93853 1.45424 0
M  V30 2496 H 228.425 -6.61668 2.17183 0
M  V30 2497 H 226.052 -7.11427 2.6791 0
M  V30 2498 N 227.627 0.131896 -1.57047 0
M  V30 2499 C 228.537 1.1815 -2.02676 0
M  V30 2500 C 229.553 1.46113 -0.944824 0
M  V30 2501 O 230.729 1.57485 -1.25541 0
M  V30 2502 C 227.794 2.49139 -2.41103 0
M  V30 2503 C 226.855 2.28688 -3.63318 0
M  V30 2504 C 226.088 3.53431 -3.99903 0
M  V30 2505 O 226.311 4.60223 -3.36973 0
M  V30 2506 O 225.245 3.45198 -4.93074 0
M  V30 2507 H 229.071 0.824069 -2.92306 0
M  V30 2508 H 226.656 0.341745 -1.45439 0
M  V30 2509 H 228.538 3.26338 -2.66611 0
M  V30 2510 H 227.213 2.84382 -1.54624 0
M  V30 2511 H 226.12 1.4939 -3.42977 0
M  V30 2512 H 227.453 1.98355 -4.50462 0
M  V30 2513 N 229.106 1.52395 0.401703 0
M  V30 2514 C 230.038 1.72505 1.50912 0
M  V30 2515 C 231.051 0.605468 1.51122 0
M  V30 2516 O 232.24 0.880828 1.55254 0
M  V30 2517 C 229.34 1.75711 2.89791 0
M  V30 2518 C 228.513 3.04824 3.1369 0
M  V30 2519 C 227.572 2.99743 4.32482 0
M  V30 2520 O 226.598 3.73635 4.29402 0
M  V30 2521 N 227.8 2.18047 5.37992 0
M  V30 2522 H 230.565 2.68049 1.34052 0
M  V30 2523 H 228.126 1.50724 0.591084 0
M  V30 2524 H 230.118 1.69834 3.6734 0
M  V30 2525 H 228.688 0.876092 3.00072 0
M  V30 2526 H 227.908 3.2429 2.24119 0
M  V30 2527 H 229.196 3.90221 3.26504 0
M  V30 2528 H 228.594 1.57456 5.43345 0
M  V30 2529 H 227.151 2.18021 6.14256 0
M  V30 2530 N 230.584 -0.659388 1.43143 0
M  V30 2531 C 231.833 -1.41518 1.43721 0
M  V30 2532 C 232.146 -1.95499 0.0628176 0
M  V30 2533 O 233.352 -2.71446 -0.0539683 0
M  V30 2534 C 231.808 -2.5608 2.52885 0
M  V30 2535 C 231.416 -2.08733 3.96402 0
M  V30 2536 C 233.16 -3.3349 2.62649 0
M  V30 2537 C 231.067 -3.20469 4.97045 0
M  V30 2538 H 229.997 -0.531705 0.534608 0
M  V30 2539 H 232.648 -0.712343 1.69109 0
M  V30 2540 H 231.03 -3.28805 2.20688 0
M  V30 2541 H 232.204 -1.43059 4.3803 0
M  V30 2542 H 230.519 -1.44219 3.90627 0
M  V30 2543 H 233.116 -4.16734 3.35017 0
M  V30 2544 H 233.459 -3.8111 1.67513 0
M  V30 2545 H 233.992 -2.67842 2.94118 0
M  V30 2546 H 230.731 -2.77824 5.93712 0
M  V30 2547 H 230.251 -3.84874 4.60034 0
M  V30 2548 H 231.93 -3.85698 5.19467 0
M  V30 2549 N 232.062 -1.29571 -0.897171 0
M  V30 2550 C 233.311 -1.1706 -1.64256 0
M  V30 2551 C 233.624 0.276476 -1.93636 0
M  V30 2552 O 234.83 0.52294 -2.66416 0
M  V30 2553 C 233.286 -2.0475 -2.95982 0
M  V30 2554 C 232.894 -3.54295 -2.74187 0
M  V30 2555 C 234.638 -2.0097 -3.73914 0
M  V30 2556 C 232.545 -4.34081 -4.01656 0
M  V30 2557 H 231.475 -0.43452 -0.616205 0
M  V30 2558 H 234.126 -1.54229 -0.994268 0
M  V30 2559 H 232.508 -1.60452 -3.62038 0
M  V30 2560 H 233.682 -4.06662 -2.1671 0
M  V30 2561 H 231.997 -3.59773 -2.09648 0
M  V30 2562 H 234.594 -2.57838 -4.68427 0
M  V30 2563 H 234.937 -0.990273 -4.0435 0
M  V30 2564 H 235.47 -2.43325 -3.14703 0
M  V30 2565 H 232.209 -5.36671 -3.76384 0
M  V30 2566 H 231.729 -3.86483 -4.58684 0
M  V30 2567 H 233.408 -4.44877 -4.69781 0
M  V30 2568 N 233.54 1.10788 -1.12088 0
M  V30 2569 C 234.488 2.19111 -0.780587 0
M  V30 2570 C 235.482 1.67818 0.230961 0
M  V30 2571 O 236.688 1.79777 0.0895427 0
M  V30 2572 H 233.063 0.714477 -0.234578 0
M  V30 2573 H 235.034 2.45055 -1.70266 0
M  V30 2574 C 233.783 3.46818 -0.24747 0
M  V30 2575 H 233.106 3.86646 -1.01712 0
M  V30 2576 H 234.546 4.23973 -0.0476291 0
M  V30 2577 C 233.005 3.20968 1.02378 0
M  V30 2578 O 233.535 3.42298 2.10226 0
M  V30 2579 N 231.741 2.74658 0.949271 0
M  V30 2580 H 231.288 2.57501 0.0715173 0
M  V30 2581 H 231.246 2.57739 1.80049 0
M  V30 2582 N 235.018 0.912232 1.28515 0
M  V30 2583 C 236.434 0.610159 1.47476 0
M  V30 2584 C 236.634 -0.844955 1.82928 0
M  V30 2585 O 235.69 -1.62416 1.93332 0
M  V30 2586 C 237.003 1.54675 2.57868 0
M  V30 2587 C 238.551 1.55331 2.71738 0
M  V30 2588 C 239.026 2.47649 3.85272 0
M  V30 2589 N 240.517 2.45767 3.92623 0
M  V30 2590 C 241.252 3.13896 4.79851 0
M  V30 2591 N 240.748 3.9135 5.71679 0
M  V30 2592 N 242.541 3.02991 4.73448 0
M  V30 2593 H 234.692 1.85318 1.03783 0
M  V30 2594 H 236.955 0.794777 0.516753 0
M  V30 2595 H 236.661 2.5841 2.38574 0
M  V30 2596 H 236.535 1.27671 3.54937 0
M  V30 2597 H 238.922 0.52335 2.90422 0
M  V30 2598 H 239.003 1.86378 1.75205 0
M  V30 2599 H 238.647 3.50745 3.67342 0
M  V30 2600 H 238.577 2.13904 4.81199 0
M  V30 2601 H 241.068 1.89503 3.26951 0
M  V30 2602 H 241.381 4.40359 6.35062 0
M  V30 2603 H 239.726 3.95455 5.71524 0
M  V30 2604 H 242.917 2.41987 4.007 0
M  V30 2605 H 243.09 3.5636 5.41213 0
M  V30 2606 N 236.496 -1.42363 0.676048 0
M  V30 2607 C 237.446 -2.27987 -0.0242903 0
M  V30 2608 C 238.43 -1.41153 -0.772319 0
M  V30 2609 O 239.622 -1.64592 -0.651025 0
M  V30 2610 C 236.751 -3.29195 -0.973953 0
M  V30 2611 C 235.837 -4.23512 -0.223202 0
M  V30 2612 N 236.228 -4.99865 0.772589 0
M  V30 2613 C 234.526 -4.43606 -0.461469 0
M  V30 2614 C 235.227 -5.68757 1.22027 0
M  V30 2615 N 234.203 -5.40811 0.549975 0
M  V30 2616 H 238.005 -2.84445 0.73949 0
M  V30 2617 H 235.519 -1.54341 0.50522 0
M  V30 2618 H 237.516 -3.89339 -1.49067 0
M  V30 2619 H 236.176 -2.74298 -1.73755 0
M  V30 2620 H 237.187 -5.04921 1.15217 0
M  V30 2621 H 233.864 -3.99749 -1.20446 0
M  V30 2622 H 235.254 -6.40007 2.0455 0
M  V30 2623 N 237.974 -0.419461 -1.51915 0
M  V30 2624 C 238.921 0.400927 -2.27291 0
M  V30 2625 C 239.891 1.03224 -1.30131 0
M  V30 2626 O 241.076 1.05455 -1.59009 0
M  V30 2627 C 238.216 1.50603 -3.10504 0
M  V30 2628 C 237.329 0.89462 -4.22635 0
M  V30 2629 C 236.464 1.97328 -4.93189 0
M  V30 2630 C 235.503 1.33935 -5.97267 0
M  V30 2631 N 234.64 2.3586 -6.61298 0
M  V30 2632 H 239.48 -0.248251 -2.96964 0
M  V30 2633 H 237.017 -0.134266 -1.46486 0
M  V30 2634 H 238.975 2.15783 -3.57062 0
M  V30 2635 H 237.605 2.12509 -2.42981 0
M  V30 2636 H 236.657 0.131583 -3.80172 0
M  V30 2637 H 237.969 0.391641 -4.9726 0
M  V30 2638 H 237.123 2.70211 -5.43204 0
M  V30 2639 H 235.862 2.50994 -4.18155 0
M  V30 2640 H 234.867 0.595896 -5.46561 0
M  V30 2641 H 236.092 0.810252 -6.74249 0
M  V30 2642 H 234.038 2.88639 -5.89087 0
M  V30 2643 H 233.955 1.90403 -7.3163 0
M  V30 2644 H 235.223 3.08282 -7.15949 0
M  V30 2645 N 239.452 1.56882 -0.150215 0
M  V30 2646 C 240.699 1.96228 0.500093 0
M  V30 2647 C 241.027 1.03522 1.64661 0
M  V30 2648 O 240.282 0.0650683 1.95592 0
M  V30 2649 C 240.581 3.41801 1.04437 0
M  V30 2650 C 240.247 4.50897 0.0159671 0
M  V30 2651 C 238.909 4.8046 -0.266731 0
M  V30 2652 C 241.261 5.16703 -0.683192 0
M  V30 2653 C 238.589 5.73135 -1.25434 0
M  V30 2654 C 240.941 6.10441 -1.65964 0
M  V30 2655 C 239.605 6.38382 -1.95 0
M  V30 2656 H 238.875 0.718048 0.182997 0
M  V30 2657 H 241.522 1.90019 -0.237724 0
M  V30 2658 H 239.827 3.44857 1.85959 0
M  V30 2659 H 241.524 3.69573 1.55618 0
M  V30 2660 H 238.114 4.27891 0.246485 0
M  V30 2661 H 242.298 4.93993 -0.477983 0
M  V30 2662 H 237.554 5.93074 -1.48571 0
M  V30 2663 H 241.728 6.60507 -2.20689 0
M  V30 2664 H 239.355 7.09996 -2.71679 0
M  V30 2665 N 240.93 -0.123565 1.57115 0
M  V30 2666 C 242.207 -0.862196 1.75572 0
M  V30 2667 C 242.587 -1.98279 0.724475 0
M  V30 2668 O 241.935 -2.27102 -0.252407 0
M  V30 2669 C 242.145 -1.38309 3.20424 0
M  V30 2670 C 243.493 -1.83724 3.82793 0
M  V30 2671 O 244.517 -1.47999 3.23998 0
M  V30 2672 O 243.376 -2.49685 4.86127 0
M  V30 2673 H 240.47 -0.409113 0.718718 0
M  V30 2674 H 243.016 -0.107661 1.69358 0
M  V30 2675 H 241.788 -0.578889 3.86994 0
M  V30 2676 H 241.411 -2.20046 3.31158 0
M  V30 2677 N 242.408 -1.52605 -0.393616 0
M  V30 2678 C 243.318 -1.79971 -1.50492 0
M  V30 2679 C 244.334 -0.686181 -1.59899 0
M  V30 2680 O 245.51 -0.973274 -1.76322 0
M  V30 2681 C 242.575 -1.95867 -2.86072 0
M  V30 2682 C 241.636 -3.19781 -2.86424 0
M  V30 2683 C 240.869 -3.34909 -4.15538 0
M  V30 2684 O 241.092 -2.54948 -5.10253 0
M  V30 2685 O 240.026 -4.28141 -4.23059 0
M  V30 2686 H 243.852 -2.74328 -1.30299 0
M  V30 2687 H 241.437 -1.3764 -0.581005 0
M  V30 2688 H 243.319 -2.08056 -3.66457 0
M  V30 2689 H 241.994 -1.04699 -3.063 0
M  V30 2690 H 240.901 -3.13038 -2.04837 0
M  V30 2691 H 242.234 -4.1078 -2.71147 0
M  V30 2692 N 243.887 0.651787 -1.4349 0
M  V30 2693 C 245.127 1.42345 -1.46688 0
M  V30 2694 C 245.491 1.91793 -0.0891023 0
M  V30 2695 O 246.692 2.688 0.00423594 0
M  V30 2696 C 244.963 2.57221 -2.48137 0
M  V30 2697 S 246.522 3.45725 -2.70221 0
M  V30 2698 H 243.34 0.485878 -0.51908 0
M  V30 2699 H 245.942 0.756578 -1.80267 0
M  V30 2700 H 244.646 2.1917 -3.46976 0
M  V30 2701 H 244.177 3.28757 -2.16061 0
M  V30 2702 H 246.192 4.53996 -2.00255 0
M  V30 2703 N 245.365 1.30045 0.890287 0
M  V30 2704 C 246.642 1.09227 1.62262 0
M  V30 2705 C 247.022 -0.360305 2.08002 0
M  V30 2706 O 246.37 -1.35084 1.84295 0
M  V30 2707 C 246.58 2.08835 2.79623 0
M  V30 2708 C 247.928 2.40266 3.50082 0
M  V30 2709 O 248.952 2.07104 2.89804 0
M  V30 2710 O 247.811 2.96967 4.58773 0
M  V30 2711 H 244.905 0.419132 0.712922 0
M  V30 2712 H 247.451 1.41451 0.937529 0
M  V30 2713 H 246.223 3.06633 2.43089 0
M  V30 2714 H 245.846 1.77397 3.55832 0
M  V30 2715 N 246.843 -1.10192 1.12674 0
M  V30 2716 C 247.806 -2.14786 0.799979 0
M  V30 2717 C 248.806 -1.59711 -0.18685 0
M  V30 2718 O 249.996 -1.74156 0.0392558 0
M  V30 2719 C 247.128 -3.40374 0.189228 0
M  V30 2720 H 248.321 -2.45203 1.72671 0
M  V30 2721 H 245.874 -1.25597 0.930326 0
M  V30 2722 H 246.609 -3.15577 -0.747107 0
M  V30 2723 H 246.394 -3.81637 0.899766 0
M  V30 2724 H 247.884 -4.17594 -0.0228143 0
M  V30 2725 N 248.321 -0.919034 -1.28029 0
M  V30 2726 C 249.284 -0.416182 -2.2539 0
M  V30 2727 C 250.284 0.460438 -1.54067 0
M  V30 2728 O 251.474 0.262744 -1.72207 0
M  V30 2729 C 248.606 0.402707 -3.38513 0
M  V30 2730 H 249.799 -1.27629 -2.71387 0
M  V30 2731 H 247.352 -0.698919 -1.39803 0
M  V30 2732 H 248.087 1.282 -2.97885 0
M  V30 2733 H 247.872 -0.225698 -3.9145 0
M  V30 2734 H 249.362 0.745191 -4.10897 0
M  V30 2735 N 249.799 1.42003 -0.683588 0
M  V30 2736 C 250.747 2.326 0.000815408 0
M  V30 2737 C 251.741 1.50308 0.781278 0
M  V30 2738 O 252.947 1.66322 0.688251 0
M  V30 2739 H 249.322 0.751758 0.0190616 0
M  V30 2740 H 251.293 2.88011 -0.780528 0
M  V30 2741 C 250.042 3.34978 0.93195 0
M  V30 2742 H 249.365 3.98345 0.340817 0
M  V30 2743 H 250.805 4.00936 1.37936 0
M  V30 2744 C 249.264 2.67925 2.04249 0
M  V30 2745 O 249.794 2.51788 3.12995 0
M  V30 2746 N 248 2.2681 1.81675 0
M  V30 2747 H 247.547 2.40135 0.932363 0
M  V30 2748 H 247.505 1.8228 2.56167 0
M  V30 2749 N 251.277 0.427512 1.51691 0
M  V30 2750 C 252.526 -0.143679 2.01188 0
M  V30 2751 C 252.839 -1.44642 1.31674 0
M  V30 2752 O 254.045 -2.09997 1.72086 0
M  V30 2753 C 252.501 -0.306602 3.58592 0
M  V30 2754 C 252.109 0.985125 4.37035 0
M  V30 2755 C 253.853 -0.832091 4.16265 0
M  V30 2756 C 251.76 0.788382 5.86122 0
M  V30 2757 H 250.69 -0.0574701 0.751807 0
M  V30 2758 H 253.341 0.555772 1.74881 0
M  V30 2759 H 251.723 -1.06882 3.81303 0
M  V30 2760 H 252.897 1.75492 4.26074 0
M  V30 2761 H 251.212 1.4384 3.90767 0
M  V30 2762 H 253.809 -0.995617 5.25349 0
M  V30 2763 H 254.152 -1.81186 3.74803 0
M  V30 2764 H 254.685 -0.128444 3.97593 0
M  V30 2765 H 251.424 1.74025 6.31978 0
M  V30 2766 H 250.944 0.0582143 5.99772 0
M  V30 2767 H 252.623 0.437722 6.45518 0
M  V30 2768 N 252.755 -1.56801 0.158532 0
M  V30 2769 C 253.688 -2.13148 -0.815065 0
M  V30 2770 C 254.666 -1.0581 -1.23462 0
M  V30 2771 O 255.85 -1.3371 -1.32868 0
M  V30 2772 C 252.977 -2.6606 -2.09594 0
M  V30 2773 C 252.023 -3.85651 -1.82141 0
M  V30 2774 S 252.856 -5.26041 -1.00207 0
M  V30 2775 C 254.012 -5.8235 -2.29389 0
M  V30 2776 H 254.245 -2.95396 -0.335937 0
M  V30 2777 H 251.778 -1.54299 -0.0559391 0
M  V30 2778 H 253.736 -2.97195 -2.8317 0
M  V30 2779 H 252.397 -1.83921 -2.54621 0
M  V30 2780 H 251.59 -4.20958 -2.77147 0
M  V30 2781 H 251.192 -3.55338 -1.16667 0
M  V30 2782 H 253.484 -5.94485 -3.24952 0
M  V30 2783 H 254.427 -6.79688 -1.9857 0
M  V30 2784 H 254.835 -5.10675 -2.40564 0
M  V30 2785 N 254.233 0.115231 -1.57178 0
M  V30 2786 C 255.18 1.14115 -2.00615 0
M  V30 2787 C 256.15 1.40939 -0.878941 0
M  V30 2788 O 257.335 1.52741 -1.14345 0
M  V30 2789 C 254.475 2.46156 -2.4187 0
M  V30 2790 C 253.588 2.26236 -3.68024 0
M  V30 2791 C 252.723 3.51534 -3.98243 0
M  V30 2792 C 251.762 3.26787 -5.17568 0
M  V30 2793 N 250.899 4.44298 -5.43639 0
M  V30 2794 H 255.739 0.763743 -2.88047 0
M  V30 2795 H 253.276 0.365615 -1.42484 0
M  V30 2796 H 255.234 3.23189 -2.63827 0
M  V30 2797 H 253.864 2.81783 -1.57475 0
M  V30 2798 H 252.916 1.40102 -3.5366 0
M  V30 2799 H 254.228 2.03929 -4.55208 0
M  V30 2800 H 253.382 4.36984 -4.20868 0
M  V30 2801 H 252.121 3.76876 -3.09541 0
M  V30 2802 H 251.126 2.39729 -4.94783 0
M  V30 2803 H 252.351 3.02812 -6.0785 0
M  V30 2804 H 250.297 4.69754 -4.57895 0
M  V30 2805 H 250.214 4.25109 -6.25154 0
M  V30 2806 H 251.482 5.3087 -5.70786 0
M  V30 2807 N 255.711 1.52812 0.385517 0
M  V30 2808 C 256.643 1.74096 1.49074 0
M  V30 2809 C 257.656 0.621462 1.50472 0
M  V30 2810 O 258.845 0.897245 1.54311 0
M  V30 2811 C 255.945 1.78774 2.87911 0
M  V30 2812 C 255.118 3.08134 3.10439 0
M  V30 2813 C 254.177 3.04313 4.29278 0
M  V30 2814 O 253.203 3.78168 4.25415 0
M  V30 2815 N 254.405 2.23741 5.35649 0
M  V30 2816 H 257.17 2.69455 1.31202 0
M  V30 2817 H 254.731 1.51343 0.575065 0
M  V30 2818 H 256.723 1.73721 3.65518 0
M  V30 2819 H 255.293 0.907869 2.99126 0
M  V30 2820 H 254.513 3.26649 2.20667 0
M  V30 2821 H 255.801 3.93662 3.22347 0
M  V30 2822 H 255.199 1.63211 5.41645 0
M  V30 2823 H 253.756 2.24524 6.11909 0
M  V30 2824 N 257.189 -0.644168 1.43834 0
M  V30 2825 C 258.438 -1.39985 1.45214 0
M  V30 2826 C 258.751 -1.95421 0.0835494 0
M  V30 2827 O 259.957 -2.71488 -0.0251748 0
M  V30 2828 C 258.413 -2.53384 2.55587 0
M  V30 2829 C 258.021 -2.04517 3.98594 0
M  V30 2830 C 259.765 -3.30685 2.66172 0
M  V30 2831 C 257.672 -3.1518 5.00416 0
M  V30 2832 H 256.602 -0.526005 0.540218 0
M  V30 2833 H 259.253 -0.694367 1.69855 0
M  V30 2834 H 257.635 -3.26446 2.24163 0
M  V30 2835 H 258.809 -1.38405 4.39523 0
M  V30 2836 H 257.124 -1.40068 3.92135 0
M  V30 2837 H 259.721 -4.13158 3.39418 0
M  V30 2838 H 260.064 -3.79312 1.71546 0
M  V30 2839 H 260.597 -2.64708 2.96942 0
M  V30 2840 H 257.336 -2.71511 5.96625 0
M  V30 2841 H 256.856 -3.79974 4.64091 0
M  V30 2842 H 258.535 -3.80166 5.23529 0
M  V30 2843 N 258.668 -1.30515 -0.883378 0
M  V30 2844 C 259.598 -1.19607 -2.00541 0
M  V30 2845 C 260.579 -0.086346 -1.69881 0
M  V30 2846 O 261.764 -0.268654 -1.92333 0
M  V30 2847 C 258.894 -0.888758 -3.35736 0
M  V30 2848 C 257.848 -1.95659 -3.8066 0
M  V30 2849 C 257.174 -1.50224 -5.13164 0
M  V30 2850 C 258.474 -3.36788 -3.99213 0
M  V30 2851 H 260.168 -2.13476 -2.09925 0
M  V30 2852 H 257.714 -1.02775 -1.00863 0
M  V30 2853 H 259.667 -0.799094 -4.13754 0
M  V30 2854 H 258.391 0.0856125 -3.26488 0
M  V30 2855 H 257.05 -2.03591 -3.04871 0
M  V30 2856 H 256.698 -0.516092 -5.00345 0
M  V30 2857 H 256.398 -2.2165 -5.44192 0
M  V30 2858 H 257.922 -1.42639 -5.93706 0
M  V30 2859 H 259.336 -3.31605 -4.67665 0
M  V30 2860 H 257.733 -4.06314 -4.41621 0
M  V30 2861 H 258.803 -3.78561 -3.03017 0
M  V30 2862 N 260.146 1.09593 -1.13257 0
M  V30 2863 C 261.371 1.8604 -0.916732 0
M  V30 2864 C 261.796 1.80504 0.529146 0
M  V30 2865 O 261.154 1.18127 1.37534 0
M  V30 2866 C 261.202 3.32017 -1.40703 0
M  V30 2867 O 260.306 4.08141 -0.591153 0
M  V30 2868 H 259.647 0.576943 -0.328683 0
M  V30 2869 H 262.177 1.38405 -1.50682 0
M  V30 2870 H 262.187 3.82865 -1.4099 0
M  V30 2871 H 260.862 3.35361 -2.45979 0
M  V30 2872 H 259.439 3.67084 -0.656005 0
M  V30 2873 N 261.624 0.925811 1.2754 0
M  V30 2874 C 262.872 0.564138 1.94067 0
M  V30 2875 C 263.193 -0.897188 1.73134 0
M  V30 2876 O 262.463 -1.63573 1.07799 0
M  V30 2877 H 261.043 0.205645 0.718136 0
M  V30 2878 H 263.705 1.1778 1.55287 0
M  V30 2879 H 262.801 0.76881 3.02483 0
M  V30 2880 N 263.102 -1.41638 0.69111 0
M  V30 2881 C 264.351 -2.00526 0.217318 0
M  V30 2882 C 264.664 -1.55353 -1.18848 0
M  V30 2883 O 265.87 -2.06769 -1.75951 0
M  V30 2884 C 264.326 -3.58313 0.337639 0
M  V30 2885 C 263.934 -4.12469 1.74852 0
M  V30 2886 C 265.678 -4.24431 -0.0766066 0
M  V30 2887 C 263.585 -5.62675 1.82074 0
M  V30 2888 H 262.515 -0.750008 0.0774893 0
M  V30 2889 H 265.166 -1.6217 0.858661 0
M  V30 2890 H 263.548 -3.9425 -0.371879 0
M  V30 2891 H 264.722 -3.8796 2.48644 0
M  V30 2892 H 263.037 -3.58861 2.11205 0
M  V30 2893 H 265.634 -5.34683 -0.0430284 0
M  V30 2894 H 265.977 -4.01101 -1.1146 0
M  V30 2895 H 266.51 -3.93512 0.582476 0
M  V30 2896 H 263.249 -5.90826 2.83911 0
M  V30 2897 H 262.769 -5.89124 1.12661 0
M  V30 2898 H 264.448 -6.27371 1.58159 0
M  V30 2899 N 264.58 -0.43555 -1.51462 0
M  V30 2900 C 265.82 0.130708 -2.03982 0
M  V30 2901 C 266.184 1.40117 -1.31268 0
M  V30 2902 O 267.385 2.04755 -1.74152 0
M  V30 2903 C 265.656 0.346102 -3.5572 0
M  V30 2904 S 267.215 0.876022 -4.29967 0
M  V30 2905 H 264.033 0.0326881 -0.710248 0
M  V30 2906 H 266.635 -0.594544 -1.8624 0
M  V30 2907 H 265.339 -0.584911 -4.0621 0
M  V30 2908 H 264.87 1.09849 -3.77752 0
M  V30 2909 H 266.885 2.15379 -4.47019 0
M  V30 2910 N 266.058 1.56714 -0.166846 0
M  V30 2911 C 267.288 2.00828 0.48494 0
M  V30 2912 C 267.696 1.04612 1.57648 0
M  V30 2913 O 267.039 0.0383201 1.8366 0
M  V30 2914 C 267.101 3.4137 1.12723 0
M  V30 2915 C 266.765 4.56654 0.177886 0
M  V30 2916 C 267.762 5.16402 -0.60207 0
M  V30 2917 C 265.447 5.02244 0.0750139 0
M  V30 2918 C 267.441 6.20167 -1.47215 0
M  V30 2919 C 265.128 6.05859 -0.798649 0
M  V30 2920 C 266.126 6.64691 -1.57082 0
M  V30 2921 O 265.814 7.66297 -2.42989 0
M  V30 2922 H 265.546 0.663587 0.128953 0
M  V30 2923 H 268.1 2.03692 -0.264365 0
M  V30 2924 H 266.33 3.35406 1.92457 0
M  V30 2925 H 268.019 3.69466 1.68076 0
M  V30 2926 H 268.785 4.82065 -0.53274 0
M  V30 2927 H 264.664 4.56167 0.665812 0
M  V30 2928 H 268.208 6.66016 -2.07531 0
M  V30 2929 H 264.105 6.39621 -0.869199 0
M  V30 2930 H 264.873 7.83601 -2.36455 0
M  V30 2931 N 267.536 -0.106894 1.57237 0
M  V30 2932 C 268.466 -1.13148 2.04254 0
M  V30 2933 C 269.447 -1.42476 0.929224 0
M  V30 2934 O 270.632 -1.52709 1.19973 0
M  V30 2935 C 267.762 -2.4545 2.45706 0
M  V30 2936 C 266.716 -2.30558 3.60592 0
M  V30 2937 C 266.042 -3.67931 3.87983 0
M  V30 2938 C 267.342 -1.75597 4.91897 0
M  V30 2939 H 269.036 -0.740374 2.90101 0
M  V30 2940 H 266.582 -0.354696 1.39563 0
M  V30 2941 H 268.535 -3.17389 2.77205 0
M  V30 2942 H 267.259 -2.86475 1.56843 0
M  V30 2943 H 265.918 -1.61067 3.29322 0
M  V30 2944 H 265.566 -4.06462 2.96306 0
M  V30 2945 H 265.266 -3.58817 4.65322 0
M  V30 2946 H 266.79 -4.41356 4.21945 0
M  V30 2947 H 268.204 -2.37364 5.21854 0
M  V30 2948 H 266.601 -1.77272 5.73319 0
M  V30 2949 H 267.671 -0.714451 4.79608 0
M  V30 2950 N 269.014 -1.53014 -0.377408 0
M  V30 2951 C 269.964 -1.74996 -1.46152 0
M  V30 2952 C 270.948 -0.604236 -1.49123 0
M  V30 2953 O 272.14 -0.862489 -1.54564 0
M  V30 2954 C 269.269 -1.93267 -2.8373 0
M  V30 2955 C 268.355 -3.13807 -2.85283 0
M  V30 2956 N 268.746 -4.35941 -2.56493 0
M  V30 2957 C 267.044 -3.14288 -3.16448 0
M  V30 2958 C 267.745 -5.17615 -2.65424 0
M  V30 2959 N 266.721 -4.53559 -2.99641 0
M  V30 2960 H 270.523 -2.67044 -1.22738 0
M  V30 2961 H 268.037 -1.51479 -0.585479 0
M  V30 2962 H 270.034 -2.0714 -3.61799 0
M  V30 2963 H 268.694 -1.0244 -3.08117 0
M  V30 2964 H 269.705 -4.63876 -2.30302 0
M  V30 2965 H 266.382 -2.33312 -3.46225 0
M  V30 2966 H 267.772 -6.25006 -2.46612 0
M  V30 2967 N 270.492 0.636531 -1.44174 0
M  V30 2968 C 271.439 1.74875 -1.50624 0
M  V30 2969 C 272.409 1.62275 -0.35442 0
M  V30 2970 O 273.594 1.82276 -0.563908 0
M  V30 2971 C 270.734 3.13102 -1.45125 0
M  V30 2972 C 269.847 3.36717 -2.7064 0
M  V30 2973 C 268.982 4.64885 -2.57013 0
M  V30 2974 C 268.021 4.8166 -3.77717 0
M  V30 2975 N 267.158 6.01101 -3.62798 0
M  V30 2976 H 271.998 1.68697 -2.45653 0
M  V30 2977 H 269.535 0.823004 -1.21922 0
M  V30 2978 H 271.493 3.93034 -1.39929 0
M  V30 2979 H 270.123 3.18308 -0.536671 0
M  V30 2980 H 269.175 2.50763 -2.86046 0
M  V30 2981 H 270.487 3.44993 -3.60252 0
M  V30 2982 H 269.641 5.52969 -2.49619 0
M  V30 2983 H 268.38 4.58957 -1.64953 0
M  V30 2984 H 267.385 3.92007 -3.85501 0
M  V30 2985 H 268.61 4.89406 -4.70807 0
M  V30 2986 H 266.556 5.96273 -2.73486 0
M  V30 2987 H 266.473 6.10409 -4.46023 0
M  V30 2988 H 267.741 6.91761 -3.59286 0
M  V30 2989 N 271.97 1.30982 0.876444 0
M  V30 2990 C 272.92 1.14688 1.97055 0
M  V30 2991 C 273.904 0.0596593 1.60789 0
M  V30 2992 O 275.096 0.283892 1.74708 0
M  V30 2993 C 272.225 0.849627 3.3262 0
M  V30 2994 C 271.311 1.97752 3.75173 0
M  V30 2995 N 271.702 3.22384 3.89746 0
M  V30 2996 C 270 1.8758 4.04635 0
M  V30 2997 C 270.701 3.96121 4.25985 0
M  V30 2998 N 269.677 3.24237 4.36315 0
M  V30 2999 H 273.479 2.09204 2.06424 0
M  V30 3000 H 270.993 1.22445 1.06682 0
M  V30 3001 H 272.99 0.713895 4.10742 0
M  V30 3002 H 271.65 -0.087376 3.24582 0
M  V30 3003 H 272.661 3.57575 3.74647 0
M  V30 3004 H 269.338 1.01303 4.05024 0
M  V30 3005 H 270.728 5.03491 4.44911 0
M  V30 3006 N 273.449 -1.08991 1.13837 0
M  V30 3007 C 274.397 -2.17841 0.815347 0
M  V30 3008 C 275.391 -1.68164 -0.204233 0
M  V30 3009 O 276.597 -1.79897 -0.0609304 0
M  V30 3010 H 272.972 -0.710654 0.245915 0
M  V30 3011 H 274.943 -2.42315 1.74143 0
M  V30 3012 C 273.692 -3.46381 0.302614 0
M  V30 3013 H 273.015 -3.84979 1.0785 0
M  V30 3014 H 274.455 -4.23844 0.115074 0
M  V30 3015 C 272.914 -3.22556 -0.972591 0
M  V30 3016 O 273.444 -3.45599 -2.04754 0
M  V30 3017 N 271.65 -2.76134 -0.905455 0
M  V30 3018 H 271.197 -2.57582 -0.0305421 0
M  V30 3019 H 271.155 -2.60571 -1.75926 0
M  V30 3020 N 274.927 -0.932562 -1.27047 0
M  V30 3021 C 276.176 -0.571351 -1.93439 0
M  V30 3022 C 276.489 0.892467 -1.74053 0
M  V30 3023 O 277.695 1.36267 -2.34826 0
M  V30 3024 C 276.151 -0.97106 -3.46552 0
M  V30 3025 C 275.759 -2.4559 -3.74686 0
M  V30 3026 C 277.503 -0.681333 -4.18997 0
M  V30 3027 C 275.41 -2.79475 -5.21198 0
M  V30 3028 H 274.34 -0.209966 -0.724176 0
M  V30 3029 H 276.991 -1.13403 -1.44263 0
M  V30 3030 H 275.373 -0.336983 -3.94564 0
M  V30 3031 H 276.547 -3.13829 -3.37414 0
M  V30 3032 H 274.862 -2.71802 -3.15456 0
M  V30 3033 H 277.459 -0.910939 -5.26883 0
M  V30 3034 H 277.802 0.381628 -4.14547 0
M  V30 3035 H 278.335 -1.27473 -3.76823 0
M  V30 3036 H 275.074 -3.847 -5.30741 0
M  V30 3037 H 274.594 -2.1589 -5.596 0
M  V30 3038 H 276.273 -2.67478 -5.89122 0
M  V30 3039 N 276.405 1.4127 -0.698611 0
M  V30 3040 C 277.651 2.01478 -0.231207 0
M  V30 3041 C 277.984 1.55215 1.16713 0
M  V30 3042 O 277.259 0.764672 1.78838 0
M  V30 3043 C 277.542 3.58912 -0.292281 0
M  V30 3044 C 277.395 4.15293 -1.72778 0
M  V30 3045 C 278.714 4.38736 0.346194 0
M  V30 3046 H 275.833 0.732025 -0.0854878 0
M  V30 3047 H 278.475 1.67977 -0.887906 0
M  V30 3048 H 276.625 3.87582 0.26686 0
M  V30 3049 H 278.297 3.97486 -2.341 0
M  V30 3050 H 276.54 3.7022 -2.26096 0
M  V30 3051 H 277.211 5.24452 -1.72202 0
M  V30 3052 H 279.687 4.15897 -0.130035 0
M  V30 3053 H 278.563 5.48221 0.272932 0
M  V30 3054 H 278.824 4.18425 1.42734 0
M  V30 3055 N 277.883 0.443576 1.51229 0
M  V30 3056 C 278.833 -0.382787 2.24764 0
M  V30 3057 C 279.817 -0.984836 1.27239 0
M  V30 3058 O 281.009 -0.901943 1.52296 0
M  V30 3059 C 278.138 -1.47989 3.09765 0
M  V30 3060 C 277.224 -0.886931 4.14722 0
M  V30 3061 N 277.615 -0.0237103 5.05794 0
M  V30 3062 C 275.913 -1.15385 4.30816 0
M  V30 3063 C 276.614 0.309971 5.80874 0
M  V30 3064 N 275.59 -0.307989 5.42727 0
M  V30 3065 H 279.392 0.282624 2.92538 0
M  V30 3066 H 276.906 0.256027 1.60369 0
M  V30 3067 H 278.903 -2.08482 3.61027 0
M  V30 3068 H 277.563 -2.14758 2.43535 0
M  V30 3069 H 278.574 0.34318 5.16762 0
M  V30 3070 H 275.251 -1.81857 3.75812 0
M  V30 3071 H 276.641 1.01279 6.64223 0
M  V30 3072 N 279.361 -1.56624 0.175154 0
M  V30 3073 C 280.777 -1.58571 -0.180966 0
M  V30 3074 C 280.977 -1.19065 -1.6256 0
M  V30 3075 O 280.033 -0.904044 -2.35761 0
M  V30 3076 C 281.346 -3.00522 0.103326 0
M  V30 3077 C 282.894 -3.12972 0.0418426 0
M  V30 3078 C 283.369 -4.57022 0.299175 0
M  V30 3079 N 284.86 -4.62541 0.247086 0
M  V30 3080 C 285.595 -5.71857 0.420318 0
M  V30 3081 N 285.091 -6.89717 0.652816 0
M  V30 3082 N 286.884 -5.60972 0.355957 0
M  V30 3083 H 279.035 -1.80589 1.11809 0
M  V30 3084 H 281.298 -0.837178 0.444788 0
M  V30 3085 H 281.004 -3.33916 1.10422 0
M  V30 3086 H 280.878 -3.72344 -0.603299 0
M  V30 3087 H 283.265 -2.79403 -0.949636 0
M  V30 3088 H 283.346 -2.43578 0.781238 0
M  V30 3089 H 282.99 -4.913 1.28788 0
M  V30 3090 H 282.92 -5.24579 -0.460876 0
M  V30 3091 H 285.411 -3.77829 0.0731895 0
M  V30 3092 H 285.724 -7.68911 0.774347 0
M  V30 3093 H 284.069 -6.91572 0.689476 0
M  V30 3094 H 287.26 -4.67773 0.174882 0
M  V30 3095 H 287.433 -6.46111 0.494388 0
M  V30 3096 N 280.839 0.0985539 -1.57292 0
M  V30 3097 C 282.116 0.834155 -1.76921 0
M  V30 3098 C 282.496 1.97101 -0.755928 0
M  V30 3099 O 281.844 2.27474 0.216245 0
M  V30 3100 C 282.054 1.33194 -3.22584 0
M  V30 3101 C 283.402 1.77611 -3.85668 0
M  V30 3102 O 284.426 1.42825 -3.26312 0
M  V30 3103 O 283.285 2.4192 -4.90038 0
M  V30 3104 H 280.379 0.397628 -0.725135 0
M  V30 3105 H 282.925 0.0807044 -1.69508 0
M  V30 3106 H 281.697 0.517248 -3.87866 0
M  V30 3107 H 281.32 2.1475 -3.34616 0
M  V30 3108 N 282.317 1.53212 0.369288 0
M  V30 3109 C 283.566 1.68436 1.10961 0
M  V30 3110 C 283.879 0.440738 1.9057 0
M  V30 3111 O 285.085 0.473446 2.6734 0
M  V30 3112 C 283.541 2.97744 2.0218 0
M  V30 3113 C 283.149 4.29355 1.279 0
M  V30 3114 C 284.893 3.22334 2.76226 0
M  V30 3115 C 282.8 5.49755 2.17999 0
M  V30 3116 H 281.73 0.627568 0.41794 0
M  V30 3117 H 284.381 1.79713 0.370884 0
M  V30 3118 H 282.763 2.8026 2.79768 0
M  V30 3119 H 283.937 4.57458 0.554007 0
M  V30 3120 H 282.252 4.11179 0.657311 0
M  V30 3121 H 284.849 4.09471 3.43857 0
M  V30 3122 H 285.192 2.38238 3.41392 0
M  V30 3123 H 285.725 3.40475 2.05723 0
M  V30 3124 H 282.464 6.36318 1.57417 0
M  V30 3125 H 281.984 5.25937 2.88359 0
M  V30 3126 H 283.663 5.84401 2.77641 0
M  V30 3127 N 283.795 -0.628877 1.44509 0
M  V30 3128 C 284.742 -1.74074 1.51549 0
M  V30 3129 C 285.712 -1.62084 0.363021 0
M  V30 3130 O 286.897 -1.81975 0.573567 0
M  V30 3131 C 284.037 -3.12328 1.46784 0
M  V30 3132 C 283.15 -3.35277 2.72422 0
M  V30 3133 C 282.285 -4.63515 2.59475 0
M  V30 3134 C 281.324 -4.7965 3.80266 0
M  V30 3135 N 280.461 -5.99168 3.65981 0
M  V30 3136 H 285.301 -1.67392 2.46544 0
M  V30 3137 H 282.838 -0.816527 1.22357 0
M  V30 3138 H 284.796 -3.92286 1.42012 0
M  V30 3139 H 283.426 -3.18018 0.553544 0
M  V30 3140 H 282.478 -2.49242 2.87372 0
M  V30 3141 H 283.79 -3.43078 3.62076 0
M  V30 3142 H 282.944 -5.51638 2.52548 0
M  V30 3143 H 281.683 -4.58076 1.67384 0
M  V30 3144 H 280.688 -3.89957 3.87574 0
M  V30 3145 H 281.913 -4.86902 4.73395 0
M  V30 3146 H 279.859 -5.94814 2.76644 0
M  V30 3147 H 279.776 -6.08035 4.49254 0
M  V30 3148 H 281.044 -6.89846 3.6295 0
M  V30 3149 N 285.273 -1.31445 -0.869486 0
M  V30 3150 C 286.684 -1.19042 -1.43826 0
M  V30 3151 C 287.035 0.202919 -1.95148 0
M  V30 3152 O 286.16 1.10071 -1.86315 0
M  V30 3153 C 286.755 -2.15499 -2.6143 0
M  V30 3154 C 285.314 -2.07028 -3.14351 0
M  V30 3155 C 284.461 -2.04701 -1.87063 0
M  V30 3156 H 287.412 -1.43489 -0.677984 0
M  V30 3157 H 287.433 -1.74488 -3.38134 0
M  V30 3158 H 286.945 -3.16899 -2.24046 0
M  V30 3159 H 285.046 -1.08825 -3.56354 0
M  V30 3160 H 285.159 -2.96157 -3.766 0
M  V30 3161 H 283.523 -1.49724 -2.06046 0
M  V30 3162 H 284.306 -3.07857 -1.51917 0
M  V30 3163 N 286.751 1.08385 -1.14413 0
M  V30 3164 C 287.661 2.18856 -0.844951 0
M  V30 3165 C 288.677 1.73121 0.174668 0
M  V30 3166 O 289.853 2.014 0.00312857 0
M  V30 3167 C 286.918 3.45155 -0.32696 0
M  V30 3168 C 285.979 4.05513 -1.40916 0
M  V30 3169 C 285.212 5.25784 -0.915793 0
M  V30 3170 O 285.435 5.69884 0.242651 0
M  V30 3171 O 284.369 5.77545 -1.69487 0
M  V30 3172 H 288.195 2.46919 -1.76818 0
M  V30 3173 H 285.78 1.17524 -0.922411 0
M  V30 3174 H 287.662 4.21377 -0.0440211 0
M  V30 3175 H 286.337 3.18668 0.568539 0
M  V30 3176 H 285.244 3.30879 -1.74556 0
M  V30 3177 H 286.577 4.3625 -2.27919 0
M  V30 3178 N 288.23 0.939286 1.26551 0
M  V30 3179 C 289.178 0.43815 2.28436 0
M  V30 3180 C 290.172 -0.483587 1.62351 0
M  V30 3181 O 291.378 -0.362009 1.76322 0
M  V30 3182 H 287.753 0.123149 0.741848 0
M  V30 3183 H 289.724 1.31002 2.68106 0
M  V30 3184 C 288.473 -0.283052 3.46546 0
M  V30 3185 H 287.796 0.417043 3.97619 0
M  V30 3186 H 289.236 -0.597948 4.19763 0
M  V30 3187 C 287.695 -1.50018 3.01656 0
M  V30 3188 O 288.225 -2.59855 3.0633 0
M  V30 3189 N 286.431 -1.35608 2.57019 0
M  V30 3190 H 285.978 -0.46244 2.53415 0
M  V30 3191 H 285.936 -2.17165 2.27347 0
M  V30 3192 N 289.708 -1.40897 0.706093 0
M  V30 3193 C 290.957 -2.00284 0.238574 0
M  V30 3194 C 291.27 -1.56604 -1.17194 0
M  V30 3195 O 292.476 -2.08624 -1.73748 0
M  V30 3196 C 290.932 -3.57934 0.375623 0
M  V30 3197 C 290.54 -4.10591 1.79217 0
M  V30 3198 C 292.284 -4.24488 -0.0315857 0
M  V30 3199 C 290.191 -5.60712 1.88032 0
M  V30 3200 H 289.121 -0.749144 0.0854398 0
M  V30 3201 H 291.772 -1.61251 0.875813 0
M  V30 3202 H 290.154 -3.94622 -0.330042 0
M  V30 3203 H 291.328 -3.85301 2.52745 0
M  V30 3204 H 289.643 -3.56601 2.15 0
M  V30 3205 H 292.24 -5.34698 0.0136842 0
M  V30 3206 H 292.583 -4.02261 -1.072 0
M  V30 3207 H 293.116 -3.92873 0.624181 0
M  V30 3208 H 289.855 -5.87781 2.90161 0
M  V30 3209 H 289.375 -5.87896 1.18903 0
M  V30 3210 H 291.054 -6.25658 1.64805 0
M  V30 3211 N 291.186 -0.45159 -1.50991 0
M  V30 3212 C 292.116 0.342898 -2.30969 0
M  V30 3213 C 293.097 1.00815 -1.37005 0
M  V30 3214 O 294.282 1.00907 -1.65926 0
M  V30 3215 C 291.412 1.43637 -3.16205 0
M  V30 3216 C 290.366 0.893818 -4.18563 0
M  V30 3217 C 289.692 2.08411 -4.92411 0
M  V30 3218 C 290.992 -0.0815568 -5.22236 0
M  V30 3219 H 292.686 -0.324556 -2.97636 0
M  V30 3220 H 290.232 -0.157531 -1.43136 0
M  V30 3221 H 292.185 1.9995 -3.70942 0
M  V30 3222 H 290.909 2.13232 -2.47386 0
M  V30 3223 H 289.568 0.352798 -3.64898 0
M  V30 3224 H 289.216 2.76658 -4.20082 0
M  V30 3225 H 288.916 1.72741 -5.61636 0
M  V30 3226 H 290.44 2.65251 -5.49976 0
M  V30 3227 H 291.854 0.391742 -5.7196 0
M  V30 3228 H 290.251 -0.351551 -5.99069 0
M  V30 3229 H 291.321 -1.01374 -4.74185 0
M  V30 3230 N 292.664 1.56529 -0.183458 0
M  V30 3231 C 293.594 2.21549 0.737456 0
M  V30 3232 C 294.575 1.17489 1.23005 0
M  V30 3233 O 295.76 1.45959 1.281 0
M  V30 3234 C 292.89 2.86575 1.96194 0
M  V30 3235 C 291.844 3.96778 1.60473 0
M  V30 3236 C 291.17 4.48911 2.90487 0
M  V30 3237 C 292.47 5.15767 0.823497 0
M  V30 3238 H 294.164 2.98761 0.195453 0
M  V30 3239 H 291.71 1.43702 0.0925686 0
M  V30 3240 H 293.663 3.30739 2.61131 0
M  V30 3241 H 292.387 2.06749 2.52828 0
M  V30 3242 H 291.046 3.53286 0.978997 0
M  V30 3243 H 290.694 3.65862 3.45186 0
M  V30 3244 H 290.394 5.23265 2.67335 0
M  V30 3245 H 291.918 4.95771 3.56432 0
M  V30 3246 H 293.332 5.56549 1.37571 0
M  V30 3247 H 291.729 5.96114 0.690551 0
M  V30 3248 H 292.799 4.84574 -0.177782 0
M  V30 3249 N 294.142 -0.090211 1.57342 0
M  V30 3250 C 295.052 -1.12735 2.05738 0
M  V30 3251 C 296.068 -1.43557 0.983231 0
M  V30 3252 O 297.244 -1.54101 1.29672 0
M  V30 3253 C 294.309 -2.42659 2.47624 0
M  V30 3254 C 293.37 -2.18975 3.69254 0
M  V30 3255 C 292.603 -3.42704 4.09133 0
M  V30 3256 O 292.826 -4.51127 3.49057 0
M  V30 3257 O 291.76 -3.32003 5.02053 0
M  V30 3258 H 295.586 -0.746279 2.94388 0
M  V30 3259 H 293.171 -0.303064 1.46294 0
M  V30 3260 H 295.053 -3.19155 2.7517 0
M  V30 3261 H 293.728 -2.80182 1.62109 0
M  V30 3262 H 292.635 -1.40244 3.46818 0
M  V30 3263 H 293.968 -1.86342 4.55563 0
M  V30 3264 N 295.62 -1.53406 -0.361157 0
M  V30 3265 C 296.568 -1.80832 -1.46296 0
M  V30 3266 C 297.562 -0.677699 -1.55253 0
M  V30 3267 O 298.768 -0.860723 -1.58087 0
M  V30 3268 H 295.143 -0.572627 -0.487445 0
M  V30 3269 H 297.114 -2.73045 -1.20371 0
M  V30 3270 C 295.863 -2.01907 -2.8307 0
M  V30 3271 H 295.186 -2.88349 -2.76938 0
M  V30 3272 H 296.626 -2.25072 -3.59331 0
M  V30 3273 C 295.085 -0.799449 -3.27277 0
M  V30 3274 O 295.615 0.00971761 -4.01699 0
M  V30 3275 N 293.821 -0.621637 -2.83873 0
M  V30 3276 H 293.368 -1.28126 -2.23476 0
M  V30 3277 H 293.326 0.19298 -3.13807 0
M  V30 3278 N 297.098 0.621204 -1.44841 0
M  V30 3279 C 298.045 1.73267 -1.5247 0
M  V30 3280 C 299.015 1.6189 -0.371611 0
M  V30 3281 O 300.2 1.81668 -0.58321 0
M  V30 3282 C 297.34 3.11545 -1.48438 0
M  V30 3283 C 296.453 3.33827 -2.74196 0
M  V30 3284 C 295.588 4.62133 -2.61929 0
M  V30 3285 C 294.627 4.77627 -3.82804 0
M  V30 3286 N 293.764 5.97219 -3.69153 0
M  V30 3287 H 298.604 1.66082 -2.47428 0
M  V30 3288 H 296.141 0.810026 -1.22788 0
M  V30 3289 H 298.099 3.91528 -1.4409 0
M  V30 3290 H 296.729 3.1772 -0.570402 0
M  V30 3291 H 295.781 2.47715 -2.88689 0
M  V30 3292 H 297.093 3.41153 -3.6389 0
M  V30 3293 H 296.247 5.50291 -2.5547 0
M  V30 3294 H 294.986 4.57182 -1.69811 0
M  V30 3295 H 293.991 3.87896 -3.89637 0
M  V30 3296 H 295.216 4.84385 -4.75971 0
M  V30 3297 H 293.162 5.93339 -2.79794 0
M  V30 3298 H 293.079 6.05644 -4.52472 0
M  V30 3299 H 294.347 6.87912 -3.66603 0
M  V30 3300 N 298.576 1.31904 0.862503 0
M  V30 3301 C 299.526 1.16772 1.95827 0
M  V30 3302 C 300.51 0.0767098 1.60717 0
M  V30 3303 O 301.702 0.302407 1.74398 0
M  V30 3304 C 298.831 0.884858 3.317 0
M  V30 3305 C 297.917 2.0172 3.73055 0
M  V30 3306 N 298.308 3.265 3.86305 0
M  V30 3307 C 296.606 1.91861 4.02623 0
M  V30 3308 C 297.307 4.00616 4.2176 0
M  V30 3309 N 296.283 3.28847 4.32852 0
M  V30 3310 H 300.085 2.11382 2.04193 0
M  V30 3311 H 297.599 1.2357 1.05377 0
M  V30 3312 H 299.596 0.757419 4.09962 0
M  V30 3313 H 298.256 -0.0529448 3.24657 0
M  V30 3314 H 299.267 3.61529 3.70833 0
M  V30 3315 H 295.944 1.05593 4.03926 0
M  V30 3316 H 297.334 5.08182 4.39546 0
M  V30 3317 N 300.054 -1.07777 1.14986 0
M  V30 3318 C 301.279 -1.84558 0.946213 0
M  V30 3319 C 301.704 -1.81323 -0.500362 0
M  V30 3320 O 301.062 -1.20301 -1.35637 0
M  V30 3321 C 301.11 -3.29736 1.45968 0
M  V30 3322 O 300.214 -4.07149 0.65601 0
M  V30 3323 H 299.555 -0.571641 0.33782 0
M  V30 3324 H 302.085 -1.35991 1.52865 0
M  V30 3325 H 302.095 -3.80574 1.47063 0
M  V30 3326 H 300.77 -3.31406 2.51283 0
M  V30 3327 H 299.347 -3.65994 0.714322 0
M  V30 3328 N 301.532 -0.945985 -1.26051 0
M  V30 3329 C 302.462 -0.477172 -2.28572 0
M  V30 3330 C 303.443 0.472032 -1.63419 0
M  V30 3331 O 304.628 0.372853 -1.90587 0
M  V30 3332 C 301.758 0.253975 -3.4637 0
M  V30 3333 C 300.712 -0.609135 -4.23643 0
M  V30 3334 C 300.038 0.252252 -5.34105 0
M  V30 3335 C 301.338 -1.8829 -4.8718 0
M  V30 3336 H 303.032 -1.33402 -2.68038 0
M  V30 3337 H 300.578 -0.642904 -1.28852 0
M  V30 3338 H 302.531 0.593016 -4.17207 0
M  V30 3339 H 301.255 1.145 -3.05871 0
M  V30 3340 H 299.914 -0.931138 -3.54578 0
M  V30 3341 H 299.562 1.14278 -4.89846 0
M  V30 3342 H 299.262 -0.32188 -5.86718 0
M  V30 3343 H 300.786 0.586454 -6.07777 0
M  V30 3344 H 302.2 -1.61081 -5.50205 0
M  V30 3345 H 300.597 -2.40199 -5.49931 0
M  V30 3346 H 301.667 -2.59134 -4.09851 0
M  V30 3347 N 303.011 1.40521 -0.713556 0
M  V30 3348 C 303.941 2.33381 -0.0743864 0
M  V30 3349 C 304.922 1.52784 0.747735 0
M  V30 3350 O 306.107 1.81258 0.697071 0
M  V30 3351 C 303.237 3.36748 0.849598 0
M  V30 3352 C 302.191 4.27793 0.133247 0
M  V30 3353 C 301.517 5.21679 1.17281 0
M  V30 3354 C 302.817 5.12415 -1.01134 0
M  V30 3355 H 304.511 2.87081 -0.850007 0
M  V30 3356 H 302.057 1.38034 -0.410201 0
M  V30 3357 H 304.01 4.00648 1.30612 0
M  V30 3358 H 302.734 2.81439 1.65709 0
M  V30 3359 H 301.393 3.65342 -0.303426 0
M  V30 3360 H 301.041 4.62677 1.9733 0
M  V30 3361 H 300.741 5.83435 0.698397 0
M  V30 3362 H 302.265 5.88456 1.62947 0
M  V30 3363 H 303.679 5.69781 -0.634274 0
M  V30 3364 H 302.076 5.83203 -1.41399 0
M  V30 3365 H 303.146 4.48514 -1.84292 0
M  V30 3366 N 304.489 0.459591 1.5075 0
M  V30 3367 C 305.437 -0.354678 2.2988 0
M  V30 3368 C 306.431 -1.00086 1.36672 0
M  V30 3369 O 307.637 -0.933277 1.53915 0
M  V30 3370 H 304.012 -0.13321 0.740107 0
M  V30 3371 H 305.983 0.333269 2.96533 0
M  V30 3372 C 304.732 -1.43073 3.169 0
M  V30 3373 H 304.055 -0.942882 3.88523 0
M  V30 3374 H 305.495 -1.97328 3.75284 0
M  V30 3375 C 303.954 -2.42633 2.33732 0
M  V30 3376 O 304.484 -3.47658 2.01238 0
M  V30 3377 N 302.69 -2.14066 1.9653 0
M  V30 3378 H 302.237 -1.28685 2.23155 0
M  V30 3379 H 302.195 -2.80917 1.41185 0
M  V30 3380 N 305.967 -1.56429 0.191757 0
M  V30 3381 C 307.216 -1.9666 -0.448088 0
M  V30 3382 C 307.529 -1.08136 -1.62991 0
M  V30 3383 O 308.735 -1.38135 -2.33733 0
M  V30 3384 C 307.191 -3.49753 -0.848585 0
M  V30 3385 C 306.799 -4.46935 0.308764 0
M  V30 3386 C 308.543 -3.9876 -1.4557 0
M  V30 3387 C 306.45 -5.91293 -0.112506 0
M  V30 3388 H 305.38 -0.734312 -0.171179 0
M  V30 3389 H 308.031 -1.81301 0.283242 0
M  V30 3390 H 306.413 -3.60604 -1.63649 0
M  V30 3391 H 307.587 -4.47813 1.08627 0
M  V30 3392 H 305.902 -4.08102 0.827158 0
M  V30 3393 H 308.499 -5.04086 -1.78328 0
M  V30 3394 H 308.842 -3.42875 -2.36099 0
M  V30 3395 H 309.375 -3.9101 -0.731836 0
M  V30 3396 H 306.114 -6.51097 0.758514 0
M  V30 3397 H 305.634 -5.93676 -0.854941 0
M  V30 3398 H 307.313 -6.44663 -0.549448 0
M  V30 3399 N 307.445 0.0818655 -1.57387 0
M  V30 3400 C 308.392 1.09834 -2.0299 0
M  V30 3401 C 309.362 1.39043 -0.908639 0
M  V30 3402 O 310.547 1.50282 -1.17559 0
M  V30 3403 C 307.687 2.40971 -2.47037 0
M  V30 3404 C 306.8 2.18379 -3.7274 0
M  V30 3405 C 305.935 3.43008 -4.0561 0
M  V30 3406 C 304.974 3.15736 -5.24383 0
M  V30 3407 N 304.111 4.32667 -5.52941 0
M  V30 3408 H 308.951 0.702472 -2.89602 0
M  V30 3409 H 306.488 0.33531 -1.43227 0
M  V30 3410 H 308.446 3.1752 -2.70623 0
M  V30 3411 H 307.076 2.78379 -1.63417 0
M  V30 3412 H 306.128 1.32569 -3.56552 0
M  V30 3413 H 307.44 1.94227 -4.59431 0
M  V30 3414 H 306.594 4.27958 -4.30043 0
M  V30 3415 H 305.333 3.70225 -3.17466 0
M  V30 3416 H 304.338 2.2918 -4.99757 0
M  V30 3417 H 305.563 2.8985 -6.14136 0
M  V30 3418 H 303.509 4.59935 -4.67756 0
M  V30 3419 H 303.426 4.11753 -6.34031 0
M  V30 3420 H 304.694 5.18644 -5.81918 0
M  V30 3421 N 308.923 1.53595 0.353017 0
M  V30 3422 C 310.172 1.69603 1.09168 0
M  V30 3423 C 310.485 0.460925 1.90092 0
M  V30 3424 O 311.691 0.501774 2.66823 0
M  V30 3425 C 310.147 2.99872 1.9901 0
M  V30 3426 C 309.755 4.30687 1.23339 0
M  V30 3427 C 311.499 3.25246 2.72792 0
M  V30 3428 C 309.406 5.52036 2.12156 0
M  V30 3429 H 308.336 0.631966 0.411261 0
M  V30 3430 H 310.987 1.80096 0.351802 0
M  V30 3431 H 309.369 2.83212 2.7678 0
M  V30 3432 H 310.543 4.58019 0.505456 0
M  V30 3433 H 308.858 4.11853 0.613663 0
M  V30 3434 H 311.455 4.13095 3.39495 0
M  V30 3435 H 311.798 2.41846 3.38846 0
M  V30 3436 H 312.331 3.42638 2.021 0
M  V30 3437 H 309.07 6.37951 1.50659 0
M  V30 3438 H 308.59 5.28966 2.82764 0
M  V30 3439 H 310.269 5.87313 2.71427 0
M  V30 3440 N 310.401 -0.613514 1.45168 0
M  V30 3441 C 311.647 -1.37471 1.49096 0
M  V30 3442 C 311.98 -1.93765 0.129901 0
M  V30 3443 O 311.255 -1.74707 -0.854858 0
M  V30 3444 C 311.538 -2.52701 2.56542 0
M  V30 3445 C 311.391 -2.01643 4.0207 0
M  V30 3446 C 312.71 -3.54849 2.60327 0
M  V30 3447 H 309.829 -0.498502 0.54283 0
M  V30 3448 H 312.471 -0.692125 1.76945 0
M  V30 3449 H 310.621 -3.10931 2.32926 0
M  V30 3450 H 312.293 -1.48108 4.36877 0
M  V30 3451 H 310.536 -1.32688 4.13009 0
M  V30 3452 H 311.207 -2.84681 4.72928 0
M  V30 3453 H 313.683 -3.0645 2.81474 0
M  V30 3454 H 312.559 -4.32973 3.37381 0
M  V30 3455 H 312.82 -4.10079 1.6519 0
M  V30 3456 N 311.879 -1.3236 -0.855495 0
M  V30 3457 C 313.156 -1.13491 -1.59309 0
M  V30 3458 C 313.536 0.30503 -2.08885 0
M  V30 3459 O 312.884 1.30151 -1.87811 0
M  V30 3460 C 313.094 -2.16176 -2.73987 0
M  V30 3461 C 314.442 -2.49463 -3.43589 0
M  V30 3462 O 315.466 -2.14715 -2.84211 0
M  V30 3463 O 314.325 -3.09027 -4.50738 0
M  V30 3464 H 311.419 -0.437887 -0.701559 0
M  V30 3465 H 313.965 -1.43887 -0.899696 0
M  V30 3466 H 312.737 -3.1297 -2.34873 0
M  V30 3467 H 312.36 -1.86769 -3.51003 0
M  V30 3468 N 313.357 1.07166 -1.15556 0
M  V30 3469 C 314.604 1.79798 -0.931604 0
M  V30 3470 C 314.932 1.8682 0.54115 0
M  V30 3471 O 314.187 1.34942 1.41736 0
M  V30 3472 C 314.486 3.24707 -1.49332 0
M  V30 3473 C 314.152 3.37781 -2.98688 0
M  V30 3474 C 312.814 3.41057 -3.39461 0
M  V30 3475 C 315.166 3.40424 -3.94665 0
M  V30 3476 C 312.494 3.4458 -4.74849 0
M  V30 3477 C 314.846 3.45485 -5.29927 0
M  V30 3478 C 313.51 3.47039 -5.70193 0
M  V30 3479 H 312.78 0.657928 -0.340898 0
M  V30 3480 H 315.427 1.26091 -1.44129 0
M  V30 3481 H 313.732 3.81208 -0.904859 0
M  V30 3482 H 315.429 3.79486 -1.29582 0
M  V30 3483 H 312.019 3.35932 -2.66172 0
M  V30 3484 H 316.203 3.37113 -3.64237 0
M  V30 3485 H 311.459 3.44083 -5.05388 0
M  V30 3486 H 315.633 3.46476 -6.04092 0
M  V30 3487 H 313.26 3.49522 -6.75084 0
M  V30 3488 N 314.835 0.952656 1.25548 0
M  V30 3489 C 316.083 0.605176 1.92826 0
M  V30 3490 C 316.404 -0.860261 1.74999 0
M  V30 3491 O 315.674 -1.6125 1.11244 0
M  V30 3492 H 314.254 0.220832 0.713612 0
M  V30 3493 H 316.916 1.21047 1.52754 0
M  V30 3494 H 316.012 0.832798 3.00784 0
M  V30 3495 N 316.313 -1.40141 0.720998 0
M  V30 3496 C 317.243 -2.33339 0.0867621 0
M  V30 3497 C 318.224 -1.53178 -0.739622 0
M  V30 3498 O 319.409 -1.81625 -0.687449 0
M  V30 3499 C 316.539 -3.37194 -0.831728 0
M  V30 3500 C 315.493 -4.27857 -0.110558 0
M  V30 3501 C 314.819 -5.22294 -1.14513 0
M  V30 3502 C 316.119 -5.11872 1.0385 0
M  V30 3503 H 317.813 -2.86626 0.865219 0
M  V30 3504 H 315.359 -1.37814 0.417516 0
M  V30 3505 H 317.312 -4.01335 -1.28485 0
M  V30 3506 H 316.036 -2.82314 -1.64214 0
M  V30 3507 H 314.695 -3.65176 0.322797 0
M  V30 3508 H 314.343 -4.63717 -1.94874 0
M  V30 3509 H 314.043 -5.83797 -0.667446 0
M  V30 3510 H 315.567 -5.89312 -1.59824 0
M  V30 3511 H 316.981 -5.69436 0.664482 0
M  V30 3512 H 315.378 -5.82445 1.4449 0
M  V30 3513 H 316.448 -4.4753 1.86668 0
M  V30 3514 N 317.792 -0.46758 -1.50504 0
M  V30 3515 C 319.017 0.0886943 -2.0721 0
M  V30 3516 C 319.442 1.33057 -1.32956 0
M  V30 3517 O 318.8 1.77354 -0.376197 0
M  V30 3518 C 318.848 0.359202 -3.58806 0
M  V30 3519 O 317.952 1.44034 -3.8643 0
M  V30 3520 H 317.293 -0.0114349 -0.663902 0
M  V30 3521 H 319.823 -0.657613 -1.93744 0
M  V30 3522 H 319.833 0.600742 -4.03553 0
M  V30 3523 H 318.508 -0.548311 -4.1227 0
M  V30 3524 H 317.085 1.18638 -3.53524 0
M  V30 3525 N 319.27 1.56325 -0.20005 0
M  V30 3526 C 320.495 2.02548 0.44597 0
M  V30 3527 C 320.92 1.07922 1.5406 0
M  V30 3528 O 320.278 0.0635775 1.81188 0
M  V30 3529 C 320.326 3.47175 0.974761 0
M  V30 3530 O 319.43 3.55671 2.08739 0
M  V30 3531 H 318.771 0.655862 0.103638 0
M  V30 3532 H 321.301 2.02201 -0.312381 0
M  V30 3533 H 321.311 3.87067 1.2901 0
M  V30 3534 H 319.986 4.15538 0.17347 0
M  V30 3535 H 318.563 3.27657 1.78032 0
M  V30 3536 N 320.748 -0.0735177 1.57428 0
M  V30 3537 C 321.995 -0.772999 1.87166 0
M  V30 3538 C 322.323 -1.77665 0.791551 0
M  V30 3539 O 321.578 -1.94541 -0.212636 0
M  V30 3540 C 321.877 -1.51799 3.23561 0
M  V30 3541 C 321.543 -0.654484 4.46125 0
M  V30 3542 C 320.205 -0.416511 4.79394 0
M  V30 3543 C 322.557 -0.0555862 5.2117 0
M  V30 3544 C 319.885 0.429869 5.85123 0
M  V30 3545 C 322.237 0.778239 6.27795 0
M  V30 3546 C 320.901 1.0261 6.59566 0
M  V30 3547 H 320.171 -0.282861 0.684888 0
M  V30 3548 H 322.818 -0.0338272 1.9147 0
M  V30 3549 H 321.123 -2.32932 3.1504 0
M  V30 3550 H 322.82 -2.06397 3.43804 0
M  V30 3551 H 319.41 -0.850091 4.20085 0
M  V30 3552 H 323.594 -0.226558 4.95783 0
M  V30 3553 H 318.85 0.630665 6.08139 0
M  V30 3554 H 323.024 1.24906 6.85107 0
M  V30 3555 H 320.651 1.68371 7.4132 0
M  V30 3556 N 322.226 -1.5378 -0.344866 0
M  V30 3557 C 323.473 -1.70963 -1.08526 0
M  V30 3558 C 323.801 -0.472126 -1.88683 0
M  V30 3559 O 323.056 0.546116 -1.87926 0
M  V30 3560 C 323.355 -2.92407 -2.05506 0
M  V30 3561 C 323.021 -4.28066 -1.41671 0
M  V30 3562 C 321.683 -4.64951 -1.2399 0
M  V30 3563 C 324.035 -5.12344 -0.956726 0
M  V30 3564 C 321.363 -5.83733 -0.589277 0
M  V30 3565 C 323.715 -6.3179 -0.320015 0
M  V30 3566 C 322.379 -6.67372 -0.130881 0
M  V30 3567 H 321.649 -0.625598 -0.397124 0
M  V30 3568 H 324.296 -1.87995 -0.36469 0
M  V30 3569 H 322.601 -2.69973 -2.8394 0
M  V30 3570 H 324.298 -3.02895 -2.62784 0
M  V30 3571 H 320.888 -3.99034 -1.56429 0
M  V30 3572 H 325.072 -4.8438 -1.08118 0
M  V30 3573 H 320.328 -6.09877 -0.431344 0
M  V30 3574 H 324.502 -6.96386 0.0445072 0
M  V30 3575 H 322.129 -7.59273 0.375318 0
M  V30 3576 N 323.704 0.605807 -1.45491 0
M  V30 3577 C 324.929 1.39625 -1.53361 0
M  V30 3578 C 325.354 1.87351 -0.167645 0
M  V30 3579 O 324.712 1.60243 0.848051 0
M  V30 3580 C 324.76 2.57559 -2.5238 0
M  V30 3581 O 323.864 3.58248 -2.04285 0
M  V30 3582 H 323.205 0.416771 -0.516912 0
M  V30 3583 H 325.735 0.737103 -1.90861 0
M  V30 3584 H 325.745 3.0478 -2.71244 0
M  V30 3585 H 324.42 2.22171 -3.51586 0
M  V30 3586 H 322.997 3.17664 -1.95305 0
M  V30 3587 N 325.182 1.32811 0.848464 0
M  V30 3588 C 326.129 1.22265 1.95755 0
M  V30 3589 C 327.099 0.103413 1.65778 0
M  V30 3590 O 328.284 0.280033 1.88734 0
M  V30 3591 C 325.424 0.958014 3.31536 0
M  V30 3592 C 324.537 2.16262 3.73971 0
M  V30 3593 C 323.672 1.83295 4.98575 0
M  V30 3594 C 322.711 3.00041 5.33518 0
M  V30 3595 N 321.848 2.67125 6.49299 0
M  V30 3596 H 326.688 2.17128 2.04107 0
M  V30 3597 H 324.225 1.07982 0.998913 0
M  V30 3598 H 326.183 0.785052 4.09747 0
M  V30 3599 H 324.813 0.046159 3.22767 0
M  V30 3600 H 323.865 2.44565 2.91362 0
M  V30 3601 H 325.177 3.03572 3.95785 0
M  V30 3602 H 324.331 1.62586 5.84509 0
M  V30 3603 H 323.07 0.932078 4.7871 0
M  V30 3604 H 322.075 3.21374 4.46093 0
M  V30 3605 H 323.3 3.90869 5.55336 0
M  V30 3606 H 321.246 1.79586 6.3094 0
M  V30 3607 H 321.163 3.47965 6.71161 0
M  V30 3608 H 322.431 2.49861 7.3837 0
M  V30 3609 N 326.66 -1.06551 1.16123 0
M  V30 3610 C 327.937 -1.76097 0.85142 0
M  V30 3611 C 328.317 -2.00802 -0.6513 0
M  V30 3612 O 327.665 -1.63302 -1.59827 0
M  V30 3613 C 327.875 -3.06384 1.67122 0
M  V30 3614 C 329.223 -3.80585 1.88255 0
M  V30 3615 O 330.247 -3.16218 1.63966 0
M  V30 3616 O 329.106 -4.96212 2.2899 0
M  V30 3617 H 326.2 -0.765102 0.313923 0
M  V30 3618 H 328.746 -1.12844 1.26745 0
M  V30 3619 H 327.518 -2.84071 2.69108 0
M  V30 3620 H 327.141 -3.77371 1.25206 0
M  V30 3621 N 328.138 -0.959301 -1.25041 0
M  V30 3622 C 329.086 -0.474437 -2.2771 0
M  V30 3623 C 330.08 0.457697 -1.631 0
M  V30 3624 O 331.286 0.333912 -1.76876 0
M  V30 3625 H 327.661 -0.134936 -0.739795 0
M  V30 3626 H 329.632 -1.35251 -2.65988 0
M  V30 3627 C 328.381 0.227884 -3.46952 0
M  V30 3628 H 327.704 -0.480248 -3.96905 0
M  V30 3629 H 329.144 0.531091 -4.20661 0
M  V30 3630 C 327.603 1.452 -3.04004 0
M  V30 3631 O 328.133 2.54949 -3.10426 0
M  V30 3632 N 326.339 1.31502 -2.59144 0
M  V30 3633 H 325.886 0.422065 -2.54119 0
M  V30 3634 H 325.844 2.13521 -2.30773 0
M  V30 3635 N 329.616 1.39756 -0.72842 0
M  V30 3636 C 330.563 2.30647 -0.0841519 0
M  V30 3637 C 331.533 1.48869 0.7367 0
M  V30 3638 O 332.718 1.77574 0.698015 0
M  V30 3639 C 329.858 3.35165 0.822091 0
M  V30 3640 C 328.971 4.31999 -0.0106663 0
M  V30 3641 C 328.106 5.23585 0.896241 0
M  V30 3642 C 327.145 6.12072 0.0583381 0
M  V30 3643 N 326.282 6.96035 0.920818 0
M  V30 3644 H 331.122 2.85173 -0.864891 0
M  V30 3645 H 328.659 1.40422 -0.438179 0
M  V30 3646 H 330.617 3.94345 1.36189 0
M  V30 3647 H 329.247 2.8211 1.56888 0
M  V30 3648 H 328.299 3.74492 -0.66781 0
M  V30 3649 H 329.611 4.9443 -0.658825 0
M  V30 3650 H 328.765 5.87759 1.50412 0
M  V30 3651 H 327.504 4.61459 1.57819 0
M  V30 3652 H 326.509 5.46916 -0.562389 0
M  V30 3653 H 327.734 6.76261 -0.6203 0
M  V30 3654 H 325.68 6.36485 1.58818 0
M  V30 3655 H 325.597 7.55284 0.32899 0
M  V30 3656 H 326.865 7.64646 1.51447 0
M  V30 3657 N 331.094 0.475555 1.50254 0
M  V30 3658 C 332.024 -0.30611 2.31485 0
M  V30 3659 C 333.005 -0.986228 1.38591 0
M  V30 3660 O 334.19 -0.982541 1.67511 0
M  V30 3661 C 331.32 -1.38588 3.1845 0
M  V30 3662 C 330.274 -0.827115 4.19932 0
M  V30 3663 C 329.6 -2.00551 4.95665 0
M  V30 3664 C 330.9 0.16463 5.2204 0
M  V30 3665 H 332.594 0.371866 2.97082 0
M  V30 3666 H 330.14 0.180282 1.42867 0
M  V30 3667 H 332.093 -1.94023 3.74076 0
M  V30 3668 H 330.817 -2.09269 2.50747 0
M  V30 3669 H 329.476 -0.294702 3.65414 0
M  V30 3670 H 329.124 -2.6994 4.2443 0
M  V30 3671 H 328.824 -1.63784 5.64313 0
M  V30 3672 H 330.348 -2.56468 5.54127 0
M  V30 3673 H 331.762 -0.300699 5.72511 0
M  V30 3674 H 330.159 0.446813 5.98434 0
M  V30 3675 H 331.229 1.08905 4.72512 0
M  V30 3676 N 332.573 -1.56217 0.208337 0
M  V30 3677 C 333.989 -1.58919 -0.14729 0
M  V30 3678 C 334.189 -1.22486 -1.59998 0
M  V30 3679 O 333.245 -0.953849 -2.3379 0
M  V30 3680 C 334.558 -3.00236 0.167048 0
M  V30 3681 C 336.106 -3.12813 0.108219 0
M  V30 3682 C 336.581 -4.56284 0.396049 0
M  V30 3683 N 338.072 -4.61912 0.345142 0
M  V30 3684 C 338.807 -5.70837 0.541523 0
M  V30 3685 N 338.303 -6.88178 0.798968 0
M  V30 3686 N 340.096 -5.60091 0.474867 0
M  V30 3687 H 332.247 -1.78177 1.15614 0
M  V30 3688 H 334.51 -0.827555 0.462446 0
M  V30 3689 H 334.216 -3.31499 1.1748 0
M  V30 3690 H 334.09 -3.7354 -0.524184 0
M  V30 3691 H 336.477 -2.81354 -0.890157 0
M  V30 3692 H 336.558 -2.41866 0.832729 0
M  V30 3693 H 336.202 -4.88458 1.3918 0
M  V30 3694 H 336.132 -5.25439 -0.349502 0
M  V30 3695 H 338.623 -3.77589 0.153316 0
M  V30 3696 H 338.936 -7.67095 0.93727 0
M  V30 3697 H 337.281 -6.89953 0.836013 0
M  V30 3698 H 340.472 -4.67297 0.274064 0
M  V30 3699 H 340.645 -6.44917 0.631326 0
M  V30 3700 N 334.051 0.0651679 -1.57465 0
M  V30 3701 C 335.328 0.79644 -1.78651 0
M  V30 3702 C 335.708 1.95454 -0.797566 0
M  V30 3703 O 335.056 2.27882 0.167946 0
M  V30 3704 C 335.266 1.26322 -3.25337 0
M  V30 3705 C 336.614 1.6939 -3.89348 0
M  V30 3706 O 337.638 1.35872 -3.29268 0
M  V30 3707 O 336.497 2.31471 -4.95059 0
M  V30 3708 H 333.591 0.382157 -0.733407 0
M  V30 3709 H 336.137 0.0447311 -1.69641 0
M  V30 3710 H 334.909 0.434859 -3.88876 0
M  V30 3711 H 334.532 2.07604 -3.39096 0
M  V30 3712 N 335.529 1.53961 0.336706 0
M  V30 3713 C 336.945 1.44378 0.680241 0
M  V30 3714 C 337.145 0.606034 1.9217 0
M  V30 3715 O 336.201 0.099688 2.52303 0
M  V30 3716 C 337.514 2.87945 0.8665 0
M  V30 3717 C 339.062 2.97763 0.964682 0
M  V30 3718 C 339.537 4.42453 1.18321 0
M  V30 3719 N 341.028 4.46008 1.25025 0
M  V30 3720 C 341.763 5.55102 1.43697 0
M  V30 3721 N 341.259 6.7419 1.59498 0
M  V30 3722 N 343.052 5.42727 1.463 0
M  V30 3723 H 335.203 2.06918 -0.479455 0
M  V30 3724 H 337.466 0.935634 -0.152619 0
M  V30 3725 H 337.172 3.51691 0.0256937 0
M  V30 3726 H 337.046 3.33293 1.76623 0
M  V30 3727 H 339.433 2.34153 1.796 0
M  V30 3728 H 339.514 2.55766 0.041708 0
M  V30 3729 H 339.158 5.06645 0.356788 0
M  V30 3730 H 339.088 4.82048 2.11985 0
M  V30 3731 H 341.579 3.60196 1.14312 0
M  V30 3732 H 341.892 7.53095 1.734 0
M  V30 3733 H 340.237 6.77123 1.56621 0
M  V30 3734 H 343.428 4.48647 1.33543 0
M  V30 3735 H 343.601 6.27806 1.6051 0
M  V30 3736 N 337.007 -0.598083 1.45811 0
M  V30 3737 C 337.937 -1.71873 1.58057 0
M  V30 3738 C 338.918 -1.64533 0.431615 0
M  V30 3739 O 340.103 -1.82787 0.65595 0
M  V30 3740 C 337.233 -3.10495 1.55597 0
M  V30 3741 C 336.187 -3.32654 2.69305 0
M  V30 3742 C 335.513 -4.71646 2.51902 0
M  V30 3743 C 336.813 -3.21981 4.11248 0
M  V30 3744 H 338.507 -1.61881 2.51863 0
M  V30 3745 H 336.053 -0.777372 1.21214 0
M  V30 3746 H 338.006 -3.88699 1.6276 0
M  V30 3747 H 336.73 -3.2135 0.583255 0
M  V30 3748 H 335.389 -2.56843 2.61586 0
M  V30 3749 H 335.037 -4.79246 1.52748 0
M  V30 3750 H 334.737 -4.87426 3.2816 0
M  V30 3751 H 336.261 -5.52038 2.60933 0
M  V30 3752 H 337.675 -3.90049 4.20161 0
M  V30 3753 H 336.072 -3.49289 4.87972 0
M  V30 3754 H 337.142 -2.1928 4.32486 0
M  V30 3755 N 338.485 -1.33259 -0.841409 0
M  V30 3756 C 339.733 -1.24326 -1.59334 0
M  V30 3757 C 340.054 0.191564 -1.94057 0
M  V30 3758 O 339.324 1.11967 -1.60749 0
M  V30 3759 H 337.904 -0.457174 -0.590763 0
M  V30 3760 H 340.566 -1.66947 -1.00571 0
M  V30 3761 H 339.662 -1.8352 -2.52442 0
M  V30 3762 N 339.963 1.05934 -1.16686 0
M  V30 3763 C 341.191 1.8249 -0.974929 0
M  V30 3764 C 341.606 1.82679 0.476861 0
M  V30 3765 O 340.963 1.2486 1.33103 0
M  V30 3766 C 341.014 3.28943 -1.49929 0
M  V30 3767 O 340.735 3.28886 -2.89423 0
M  V30 3768 C 342.236 4.22215 -1.35089 0
M  V30 3769 H 339.456 0.575295 -0.345365 0
M  V30 3770 H 342 1.33631 -1.548 0
M  V30 3771 H 340.155 3.751 -0.968423 0
M  V30 3772 H 340.569 4.20493 -3.13506 0
M  V30 3773 H 342.043 5.22987 -1.76603 0
M  V30 3774 H 342.52 4.38195 -0.296935 0
M  V30 3775 H 343.126 3.81907 -1.87155 0
M  V30 3776 N 341.441 0.965919 1.2453 0
M  V30 3777 C 342.404 0.499547 2.2369 0
M  V30 3778 C 343.404 -0.40294 1.5567 0
M  V30 3779 O 344.594 -0.19865 1.73064 0
M  V30 3780 C 341.726 -0.276792 3.39774 0
M  V30 3781 H 342.919 1.37613 2.66463 0
M  V30 3782 H 340.472 0.750324 1.37112 0
M  V30 3783 H 341.207 -1.17055 3.02438 0
M  V30 3784 H 340.992 0.370826 3.90343 0
M  V30 3785 H 342.482 -0.592175 4.1338 0
M  V30 3786 N 342.919 -1.39368 0.735821 0
M  V30 3787 C 344.149 -2.04498 0.293967 0
M  V30 3788 C 344.557 -1.55593 -1.07645 0
M  V30 3789 O 343.9 -0.716324 -1.69158 0
M  V30 3790 C 343.962 -3.58836 0.218342 0
M  V30 3791 C 343.626 -4.30721 1.52736 0
M  V30 3792 C 344.623 -4.57305 2.47322 0
M  V30 3793 C 342.308 -4.69251 1.79189 0
M  V30 3794 C 344.302 -5.21429 3.66593 0
M  V30 3795 C 341.989 -5.33104 2.98737 0
M  V30 3796 C 342.987 -5.59125 3.9226 0
M  V30 3797 O 342.675 -6.21653 5.09708 0
M  V30 3798 H 342.407 -0.664118 0.126189 0
M  V30 3799 H 344.961 -1.79385 1.00051 0
M  V30 3800 H 343.191 -3.8285 -0.544314 0
M  V30 3801 H 344.88 -4.05447 -0.191626 0
M  V30 3802 H 345.646 -4.27983 2.28156 0
M  V30 3803 H 341.525 -4.48354 1.07239 0
M  V30 3804 H 345.069 -5.41656 4.39607 0
M  V30 3805 H 340.966 -5.61846 3.17803 0
M  V30 3806 H 341.734 -6.40146 5.10054 0
M  V30 3807 N 344.397 -0.483516 -1.5 0
M  V30 3808 C 345.627 0.0643896 -2.065 0
M  V30 3809 C 346.035 1.32949 -1.34615 0
M  V30 3810 O 345.378 1.79003 -0.412756 0
M  V30 3811 C 345.44 0.405983 -3.572 0
M  V30 3812 C 345.104 -0.758875 -4.50655 0
M  V30 3813 C 346.101 -1.64445 -4.93208 0
M  V30 3814 C 343.786 -0.952725 -4.93182 0
M  V30 3815 C 345.78 -2.70818 -5.77006 0
M  V30 3816 C 343.467 -2.01966 -5.76761 0
M  V30 3817 C 344.465 -2.89574 -6.18576 0
M  V30 3818 O 344.153 -3.94429 -7.00486 0
M  V30 3819 H 343.885 -0.00934786 -0.675935 0
M  V30 3820 H 346.439 -0.674959 -1.93993 0
M  V30 3821 H 344.669 1.19869 -3.67652 0
M  V30 3822 H 346.358 0.890433 -3.96013 0
M  V30 3823 H 347.124 -1.50643 -4.61012 0
M  V30 3824 H 343.003 -0.280247 -4.60147 0
M  V30 3825 H 346.547 -3.3923 -6.09565 0
M  V30 3826 H 342.444 -2.1577 -6.0837 0
M  V30 3827 H 343.212 -3.91568 -7.1876 0
M  V30 3828 N 345.875 1.56104 -0.216619 0
M  V30 3829 C 347.124 1.97348 0.416744 0
M  V30 3830 C 347.437 1.10715 1.6125 0
M  V30 3831 O 348.643 1.41836 2.31506 0
M  V30 3832 C 347.099 3.51059 0.792835 0
M  V30 3833 C 346.707 4.46387 -0.379828 0
M  V30 3834 C 348.451 4.01026 1.39208 0
M  V30 3835 C 346.358 5.91397 0.0184223 0
M  V30 3836 H 345.288 0.736942 0.159475 0
M  V30 3837 H 347.939 1.80827 -0.31205 0
M  V30 3838 H 346.321 3.63162 1.57891 0
M  V30 3839 H 347.495 4.46029 -1.15737 0
M  V30 3840 H 345.81 4.06734 -0.891979 0
M  V30 3841 H 348.407 5.0686 1.70286 0
M  V30 3842 H 348.75 3.46587 2.30614 0
M  V30 3843 H 349.283 3.92125 0.669537 0
M  V30 3844 H 346.022 6.49807 -0.862002 0
M  V30 3845 H 345.542 5.94961 0.760384 0
M  V30 3846 H 347.221 6.45455 0.446818 0
M  V30 3847 N 347.353 -0.0568162 1.57498 0
M  V30 3848 C 348.316 -1.05038 2.03715 0
M  V30 3849 C 349.316 -1.30709 0.936577 0
M  V30 3850 O 350.506 -1.26178 1.20103 0
M  V30 3851 C 347.638 -2.39034 2.43055 0
M  V30 3852 H 348.831 -0.651715 2.92733 0
M  V30 3853 H 346.384 -0.302947 1.53336 0
M  V30 3854 H 347.119 -2.83703 1.57108 0
M  V30 3855 H 346.904 -2.21739 3.2338 0
M  V30 3856 H 348.394 -3.10421 2.79336 0
M  V30 3857 N 348.832 -1.54138 -0.328536 0
M  V30 3858 C 350.243 -1.63395 -0.903272 0
M  V30 3859 C 350.594 -0.524828 -1.8905 0
M  V30 3860 O 349.719 0.343068 -2.13663 0
M  V30 3861 C 350.314 -2.9618 -1.64507 0
M  V30 3862 C 348.873 -3.0765 -2.1686 0
M  V30 3863 C 348.02 -2.58933 -0.992416 0
M  V30 3864 H 350.971 -1.58344 -0.106253 0
M  V30 3865 H 350.992 -2.86061 -2.50897 0
M  V30 3866 H 350.504 -3.76884 -0.926302 0
M  V30 3867 H 348.605 -2.31611 -2.91868 0
M  V30 3868 H 348.718 -4.1337 -2.42202 0
M  V30 3869 H 347.082 -2.14706 -1.37016 0
M  V30 3870 H 347.865 -3.42089 -0.288041 0
M  V30 3871 N 350.31 0.590341 -1.46126 0
M  V30 3872 C 351.22 1.72793 -1.58681 0
M  V30 3873 C 352.236 1.67516 -0.470566 0
M  V30 3874 O 353.412 1.87562 -0.733642 0
M  V30 3875 C 350.477 3.09287 -1.5666 0
M  V30 3876 C 349.538 3.25886 -2.79458 0
M  V30 3877 C 348.771 4.55869 -2.77524 0
M  V30 3878 O 348.994 5.3928 -1.85832 0
M  V30 3879 O 347.928 4.75552 -3.68964 0
M  V30 3880 H 351.754 1.65149 -2.54872 0
M  V30 3881 H 349.339 0.756486 -1.28832 0
M  V30 3882 H 351.221 3.90577 -1.58202 0
M  V30 3883 H 349.896 3.17385 -0.636271 0
M  V30 3884 H 348.803 2.44119 -2.83472 0
M  V30 3885 H 350.136 3.22675 -3.71674 0
M  V30 3886 N 351.788 1.33704 0.83433 0
M  V30 3887 C 353.034 1.25603 1.59222 0
M  V30 3888 C 353.367 -0.176659 1.93395 0
M  V30 3889 O 352.642 -1.11915 1.59076 0
M  V30 3890 C 352.925 2.13576 2.89926 0
M  V30 3891 C 352.778 3.65326 2.62406 0
M  V30 3892 C 354.097 2.01238 3.91397 0
M  V30 3893 H 351.216 0.457613 0.577719 0
M  V30 3894 H 353.858 1.63848 0.961972 0
M  V30 3895 H 352.008 1.8109 3.43713 0
M  V30 3896 H 353.68 4.08124 2.15017 0
M  V30 3897 H 351.923 3.8698 1.96033 0
M  V30 3898 H 352.594 4.22232 3.55562 0
M  V30 3899 H 355.07 2.29738 3.46929 0
M  V30 3900 H 353.946 2.65036 4.80673 0
M  V30 3901 H 354.207 0.985951 4.30966 0
M  V30 3902 N 353.266 -1.05314 1.17247 0
M  V30 3903 C 354.196 -2.1498 0.911362 0
M  V30 3904 C 355.177 -1.69471 -0.146169 0
M  V30 3905 O 356.362 -1.942 0.003812 0
M  V30 3906 C 353.492 -3.4472 0.422528 0
M  V30 3907 C 352.446 -4.03789 1.4191 0
M  V30 3908 C 351.772 -5.28858 0.788274 0
M  V30 3909 C 353.072 -4.41418 2.7919 0
M  V30 3910 H 354.766 -2.3708 1.82848 0
M  V30 3911 H 352.312 -1.13938 0.880569 0
M  V30 3912 H 354.265 -4.20787 0.227289 0
M  V30 3913 H 352.989 -3.22269 -0.530123 0
M  V30 3914 H 351.648 -3.2979 1.60106 0
M  V30 3915 H 351.296 -5.02709 -0.171173 0
M  V30 3916 H 350.996 -5.69338 1.45353 0
M  V30 3917 H 352.52 -6.07612 0.603282 0
M  V30 3918 H 353.934 -5.08524 2.64719 0
M  V30 3919 H 352.331 -4.92913 3.42282 0
M  V30 3920 H 353.401 -3.51819 3.33693 0
M  V30 3921 N 354.744 -0.972509 -1.24016 0
M  V30 3922 C 356.16 -0.679827 -1.44397 0
M  V30 3923 C 356.36 0.756716 -1.86751 0
M  V30 3924 O 355.416 1.53007 -2.00861 0
M  V30 3925 C 356.729 -1.66803 -2.50195 0
M  V30 3926 C 358.277 -1.68119 -2.64017 0
M  V30 3927 C 358.752 -2.65748 -3.73017 0
M  V30 3928 N 360.243 -2.64219 -3.8045 0
M  V30 3929 C 360.978 -3.36433 -4.64328 0
M  V30 3930 N 360.474 -4.1818 -5.52356 0
M  V30 3931 N 362.267 -3.25235 -4.58453 0
M  V30 3932 H 354.418 -1.90059 -0.948228 0
M  V30 3933 H 356.681 -0.818527 -0.478245 0
M  V30 3934 H 356.387 -2.69498 -2.25973 0
M  V30 3935 H 356.261 -1.4446 -3.48441 0
M  V30 3936 H 358.648 -0.661319 -2.87594 0
M  V30 3937 H 358.729 -1.94525 -1.66113 0
M  V30 3938 H 358.373 -3.67872 -3.50189 0
M  V30 3939 H 358.303 -2.36619 -4.70446 0
M  V30 3940 H 360.794 -2.04887 -3.17537 0
M  V30 3941 H 361.107 -4.70157 -6.13329 0
M  V30 3942 H 359.452 -4.22273 -5.52006 0
M  V30 3943 H 362.643 -2.60829 -3.88698 0
M  V30 3944 H 362.816 -3.81776 -5.23594 0
M  V30 3945 N 356.222 1.38976 -0.743202 0
M  V30 3946 C 357.169 2.30544 -0.10861 0
M  V30 3947 C 358.139 1.49642 0.720869 0
M  V30 3948 O 359.324 1.78304 0.679142 0
M  V30 3949 C 356.464 3.36018 0.786496 0
M  V30 3950 C 355.577 4.31963 -0.0564849 0
M  V30 3951 C 354.712 5.24506 0.840657 0
M  V30 3952 C 353.751 6.121 -0.00658363 0
M  V30 3953 N 352.888 6.96973 0.846943 0
M  V30 3954 H 357.728 2.8424 -0.895088 0
M  V30 3955 H 355.265 1.3995 -0.453048 0
M  V30 3956 H 357.223 3.95768 1.31999 0
M  V30 3957 H 355.853 2.83758 1.53887 0
M  V30 3958 H 354.905 3.73763 -0.707492 0
M  V30 3959 H 356.217 4.93703 -0.711229 0
M  V30 3960 H 355.371 5.89322 1.4417 0
M  V30 3961 H 354.11 4.63107 1.52916 0
M  V30 3962 H 353.115 5.46289 -0.620366 0
M  V30 3963 H 354.34 6.75565 -0.691992 0
M  V30 3964 H 352.286 6.38133 1.52059 0
M  V30 3965 H 352.203 7.5559 0.248864 0
M  V30 3966 H 353.471 7.6621 1.43328 0
M  V30 3967 N 357.7 0.491464 1.49741 0
M  V30 3968 C 358.647 -0.292027 2.28945 0
M  V30 3969 C 359.617 -0.968973 1.34908 0
M  V30 3970 O 360.802 -0.97748 1.6386 0
M  V30 3971 C 357.942 -1.35617 3.17336 0
M  V30 3972 C 357.055 -0.691957 4.26422 0
M  V30 3973 C 356.19 -1.73572 5.02042 0
M  V30 3974 C 355.229 -1.05286 6.02977 0
M  V30 3975 N 354.366 -2.0404 6.71798 0
M  V30 3976 H 359.206 0.389654 2.95442 0
M  V30 3977 H 356.743 0.204003 1.45679 0
M  V30 3978 H 358.701 -1.98502 3.66951 0
M  V30 3979 H 357.331 -2.00674 2.52844 0
M  V30 3980 H 356.383 0.0499523 3.80367 0
M  V30 3981 H 357.695 -0.153946 4.98562 0
M  V30 3982 H 356.849 -2.43987 5.55478 0
M  V30 3983 H 355.588 -2.30757 4.29654 0
M  V30 3984 H 354.593 -0.334446 5.48782 0
M  V30 3985 H 355.818 -0.487636 6.77347 0
M  V30 3986 H 353.764 -2.60205 6.02187 0
M  V30 3987 H 353.681 -1.55279 7.39881 0
M  V30 3988 H 354.949 -2.73772 7.29842 0
M  V30 3989 N 359.178 -1.55987 0.224894 0
M  V30 3990 C 360.408 -2.02489 -0.41007 0
M  V30 3991 C 360.816 -1.10391 -1.53657 0
M  V30 3992 O 360.159 -0.106458 -1.83391 0
M  V30 3993 C 360.221 -3.45319 -0.999757 0
M  V30 3994 C 359.885 -4.56999 -0.00827976 0
M  V30 3995 C 360.882 -5.13812 0.793314 0
M  V30 3996 C 358.567 -5.02176 0.111442 0
M  V30 3997 C 360.561 -6.14276 1.7013 0
M  V30 3998 C 358.248 -6.02477 1.02296 0
M  V30 3999 C 359.246 -6.58403 1.81643 0
M  V30 4000 O 358.934 -7.56751 2.71262 0
M  V30 4001 H 358.666 -0.667915 -0.104235 0
M  V30 4002 H 361.22 -2.0257 0.339782 0
M  V30 4003 H 359.45 -3.42318 -1.79876 0
M  V30 4004 H 361.139 -3.7545 -1.54248 0
M  V30 4005 H 361.905 -4.79756 0.711288 0
M  V30 4006 H 357.784 -4.58323 -0.49605 0
M  V30 4007 H 361.328 -6.57854 2.32107 0
M  V30 4008 H 357.225 -6.35954 1.10599 0
M  V30 4009 H 357.993 -7.74286 2.65375 0
M  V30 4010 N 360.656 0.0484629 -1.57525 0
M  V30 4011 C 361.604 1.07359 -2.06341 0
M  V30 4012 C 362.598 1.3865 -0.973269 0
M  V30 4013 O 363.804 1.37783 -1.15827 0
M  V30 4014 H 360.179 0.363662 -0.65822 0
M  V30 4015 H 362.15 0.635916 -2.91545 0
M  V30 4016 C 360.899 2.37198 -2.54229 0
M  V30 4017 H 360.222 2.13977 -3.37719 0
M  V30 4018 H 361.662 3.07319 -2.92115 0
M  V30 4019 C 360.121 3.04805 -1.43511 0
M  V30 4020 O 360.651 3.93848 -0.79034 0
M  V30 4021 N 358.857 2.65811 -1.17444 0
M  V30 4022 H 358.404 1.93488 -1.70059 0
M  V30 4023 H 358.362 3.11366 -0.435737 0
M  V30 4024 N 362.134 1.5431 0.320358 0
M  V30 4025 C 363.044 1.86946 1.41734 0
M  V30 4026 C 364.06 0.761689 1.56443 0
M  V30 4027 O 365.236 1.05629 1.71477 0
M  V30 4028 C 362.301 2.09293 2.76401 0
M  V30 4029 C 361.362 3.33082 2.70841 0
M  V30 4030 C 360.595 3.54353 3.99086 0
M  V30 4031 O 360.818 2.79002 4.97508 0
M  V30 4032 O 359.752 4.47838 4.0215 0
M  V30 4033 H 363.578 2.80232 1.17062 0
M  V30 4034 H 361.163 1.40255 0.514673 0
M  V30 4035 H 363.045 2.25303 3.56113 0
M  V30 4036 H 361.72 1.19194 3.00956 0
M  V30 4037 H 360.627 3.22454 1.89668 0
M  V30 4038 H 361.96 4.23249 2.5124 0
M  V30 4039 N 363.613 -0.582584 1.46437 0
M  V30 4040 C 364.56 -1.69164 1.5701 0
M  V30 4041 C 365.53 -1.60847 0.414403 0
M  V30 4042 O 366.715 -1.80058 0.631171 0
M  V30 4043 C 363.855 -3.075 1.56646 0
M  V30 4044 C 362.968 -3.2644 2.82951 0
M  V30 4045 C 362.103 -4.55026 2.7409 0
M  V30 4046 C 361.142 -4.6731 3.95333 0
M  V30 4047 N 360.279 -5.87221 3.84858 0
M  V30 4048 H 365.119 -1.59464 2.51744 0
M  V30 4049 H 362.656 -0.777186 1.24893 0
M  V30 4050 H 364.614 -3.8757 1.5442 0
M  V30 4051 H 363.244 -3.16096 0.654439 0
M  V30 4052 H 362.296 -2.39974 2.95155 0
M  V30 4053 H 363.608 -3.31385 3.72808 0
M  V30 4054 H 362.762 -5.43324 2.6997 0
M  V30 4055 H 361.501 -4.52519 1.81873 0
M  V30 4056 H 360.506 -3.77429 3.99784 0
M  V30 4057 H 361.731 -4.71595 4.88646 0
M  V30 4058 H 359.677 -5.85712 2.95427 0
M  V30 4059 H 359.594 -5.93435 4.6837 0
M  V30 4060 H 360.862 -6.7795 3.84713 0
M  V30 4061 N 365.091 -1.34144 -0.827227 0
M  V30 4062 C 366.331 -1.27603 -1.59677 0
M  V30 4063 C 366.695 0.153035 -1.91389 0
M  V30 4064 O 367.896 0.342566 -2.66608 0
M  V30 4065 C 366.167 -2.13784 -2.86411 0
M  V30 4066 S 367.726 -2.24552 -3.76991 0
M  V30 4067 H 364.544 -0.453789 -0.547354 0
M  V30 4068 H 367.146 -1.69309 -0.977479 0
M  V30 4069 H 365.85 -3.16627 -2.61104 0
M  V30 4070 H 365.381 -1.72959 -3.5334 0
M  V30 4071 H 367.396 -1.41514 -4.75593 0
M  V30 4072 N 366.569 1.04691 -1.17803 0
M  V30 4073 C 367.846 1.7472 -0.879328 0
M  V30 4074 C 368.226 2.01812 0.619271 0
M  V30 4075 O 367.574 1.65824 1.57209 0
M  V30 4076 C 367.784 3.03686 -1.71976 0
M  V30 4077 C 369.132 3.77542 -1.94286 0
M  V30 4078 O 370.156 3.13569 -1.68976 0
M  V30 4079 O 369.015 4.92506 -2.36855 0
M  V30 4080 H 366.109 0.760011 -0.326056 0
M  V30 4081 H 368.655 1.10813 -1.28525 0
M  V30 4082 H 367.427 2.79754 -2.73594 0
M  V30 4083 H 367.05 3.75332 -1.31194 0
M  V30 4084 N 368.047 0.979072 1.23499 0
M  V30 4085 C 369.293 0.648178 1.92163 0
M  V30 4086 C 369.626 -0.816049 1.76222 0
M  V30 4087 O 368.901 -1.58849 1.12237 0
M  V30 4088 C 369.184 1.03773 3.44824 0
M  V30 4089 C 369.037 2.55948 3.69879 0
M  V30 4090 C 370.356 0.580653 4.36253 0
M  V30 4091 H 367.475 0.236952 0.69787 0
M  V30 4092 H 370.117 1.22012 1.45647 0
M  V30 4093 H 368.267 0.551058 3.84572 0
M  V30 4094 H 369.939 3.12179 3.3962 0
M  V30 4095 H 368.182 2.98641 3.14636 0
M  V30 4096 H 368.853 2.78255 4.76737 0
M  V30 4097 H 371.329 0.998465 4.03943 0
M  V30 4098 H 370.205 0.881663 5.41773 0
M  V30 4099 H 370.466 -0.519052 4.39042 0
M  V30 4100 N 369.525 -1.3858 0.750561 0
M  V30 4101 C 370.771 -2.0095 0.31477 0
M  V30 4102 C 371.126 -1.58509 -1.09053 0
M  V30 4103 O 370.419 -0.8112 -1.7358 0
M  V30 4104 C 370.613 -3.55455 0.372373 0
M  V30 4105 C 370.442 -4.12898 1.78173 0
M  V30 4106 C 369.212 -4.44797 2.39757 0
M  V30 4107 C 371.41 -4.35366 2.7379 0
M  V30 4108 N 369.392 -4.87831 3.72685 0
M  V30 4109 C 370.763 -4.80775 3.91478 0
M  V30 4110 C 372.818 -4.1746 2.71351 0
M  V30 4111 C 371.521 -5.10155 5.07084 0
M  V30 4112 C 373.547 -4.47963 3.86113 0
M  V30 4113 C 372.909 -4.93593 5.02539 0
M  V30 4114 H 369.008 -0.765083 0.161776 0
M  V30 4115 H 371.592 -1.68246 0.979867 0
M  V30 4116 H 369.763 -3.87512 -0.26244 0
M  V30 4117 H 371.495 -4.04614 -0.0834479 0
M  V30 4118 H 368.25 -4.33135 1.91548 0
M  V30 4119 H 368.674 -5.13685 4.40972 0
M  V30 4120 H 373.316 -3.81372 1.82524 0
M  V30 4121 H 371.034 -5.45141 5.96529 0
M  V30 4122 H 374.62 -4.35717 3.85542 0
M  V30 4123 H 373.5 -5.16746 5.89867 0
M  V30 4124 N 371.003 -0.499398 -1.49478 0
M  V30 4125 C 372.228 0.044722 -2.07352 0
M  V30 4126 C 372.653 1.30207 -1.35749 0
M  V30 4127 O 372.011 1.76516 -0.413732 0
M  V30 4128 C 372.059 0.283013 -3.59488 0
M  V30 4129 O 371.163 1.35804 -3.89398 0
M  V30 4130 H 370.504 -0.0255147 -0.66351 0
M  V30 4131 H 373.034 -0.698561 -1.92305 0
M  V30 4132 H 373.044 0.515007 -4.04737 0
M  V30 4133 H 371.719 -0.635636 -4.11014 0
M  V30 4134 H 370.296 1.11113 -3.55961 0
M  V30 4135 N 372.481 1.55866 -0.233164 0
M  V30 4136 C 373.721 2.00506 0.397078 0
M  V30 4137 C 374.085 1.1176 1.56121 0
M  V30 4138 O 375.286 1.45796 2.25825 0
M  V30 4139 C 373.557 3.4811 0.809601 0
M  V30 4140 S 375.116 4.14765 1.43231 0
M  V30 4141 H 371.934 0.699828 0.125547 0
M  V30 4142 H 374.536 1.92429 -0.345177 0
M  V30 4143 H 373.24 4.10373 -0.0471601 0
M  V30 4144 H 372.771 3.60085 1.58438 0
M  V30 4145 H 374.786 4.14914 2.7214 0
M  V30 4146 N 373.959 -0.0401083 1.57549 0
M  V30 4147 C 375.207 -0.731677 1.8839 0
M  V30 4148 C 375.528 -1.76481 0.829425 0
M  V30 4149 O 374.798 -1.95411 -0.1383 0
M  V30 4150 H 373.378 -0.273225 0.695239 0
M  V30 4151 H 376.04 -0.00867725 1.94898 0
M  V30 4152 H 375.136 -1.22816 2.86919 0
M  V30 4153 N 375.437 -1.54477 -0.31217 0
M  V30 4154 C 376.683 -1.73483 -1.0503 0
M  V30 4155 C 377.016 -0.513125 -1.87298 0
M  V30 4156 O 376.291 0.489864 -1.8823 0
M  V30 4157 C 376.574 -3.01723 -1.96558 0
M  V30 4158 C 376.427 -4.3417 -1.17545 0
M  V30 4159 C 377.746 -3.25772 -2.95907 0
M  V30 4160 H 374.865 -0.631222 -0.380432 0
M  V30 4161 H 377.507 -1.87184 -0.325932 0
M  V30 4162 H 375.657 -2.90174 -2.58324 0
M  V30 4163 H 377.329 -4.5762 -0.581513 0
M  V30 4164 H 375.572 -4.31159 -0.477925 0
M  V30 4165 H 376.243 -5.20143 -1.84811 0
M  V30 4166 H 378.719 -3.36857 -2.44267 0
M  V30 4167 H 377.595 -4.16838 -3.57123 0
M  V30 4168 H 377.856 -2.43537 -3.68974 0
M  V30 4169 N 376.915 0.57481 -1.46744 0
M  V30 4170 C 378.164 1.32898 -1.51727 0
M  V30 4171 C 378.477 1.948 -0.176692 0
M  V30 4172 O 379.683 2.71299 -0.104385 0
M  V30 4173 C 378.139 2.40901 -2.67385 0
M  V30 4174 C 377.747 1.85266 -4.07898 0
M  V30 4175 C 379.491 3.17609 -2.81646 0
M  V30 4176 C 377.398 2.90945 -5.14883 0
M  V30 4177 H 376.328 0.499631 -0.564699 0
M  V30 4178 H 378.979 0.612536 -1.72975 0
M  V30 4179 H 377.361 3.15379 -2.39483 0
M  V30 4180 H 378.535 1.17278 -4.45626 0
M  V30 4181 H 376.85 1.21199 -3.98371 0
M  V30 4182 H 379.447 3.96493 -3.58744 0
M  V30 4183 H 379.79 3.70696 -1.89448 0
M  V30 4184 H 380.323 2.50239 -3.09233 0
M  V30 4185 H 377.062 2.42736 -6.089 0
M  V30 4186 H 376.582 3.57398 -4.81691 0
M  V30 4187 H 378.261 3.54755 -5.41071 0
M  V30 4188 N 378.394 1.34581 0.820102 0
M  V30 4189 C 379.324 1.29038 1.94606 0
M  V30 4190 C 380.305 0.1673 1.69275 0
M  V30 4191 O 381.49 0.360112 1.90832 0
M  V30 4192 C 378.62 1.04793 3.31113 0
M  V30 4193 C 377.574 2.13597 3.70891 0
M  V30 4194 C 376.9 1.74537 5.05412 0
M  V30 4195 C 378.2 3.55451 3.8269 0
M  V30 4196 H 379.894 2.23248 1.99501 0
M  V30 4197 H 377.44 1.0747 0.958449 0
M  V30 4198 H 379.393 0.995592 4.0947 0
M  V30 4199 H 378.117 0.0702565 3.26524 0
M  V30 4200 H 376.776 2.17905 2.9481 0
M  V30 4201 H 376.424 0.754226 4.97313 0
M  V30 4202 H 376.124 2.47361 5.32997 0
M  V30 4203 H 377.648 1.70803 5.86224 0
M  V30 4204 H 379.062 3.5354 4.51312 0
M  V30 4205 H 377.459 4.26922 4.21732 0
M  V30 4206 H 378.529 3.92587 2.84611 0
M  V30 4207 N 379.872 -1.04064 1.18357 0
M  V30 4208 C 381.102 -1.80654 1.00238 0
M  V30 4209 C 381.51 -1.83713 -0.452362 0
M  V30 4210 O 380.853 -1.27135 -1.32599 0
M  V30 4211 C 380.915 -3.27582 1.48088 0
M  V30 4212 C 380.579 -3.48184 2.96002 0
M  V30 4213 C 381.576 -3.39372 3.93856 0
M  V30 4214 C 379.261 -3.7478 3.34433 0
M  V30 4215 C 381.255 -3.5686 5.28138 0
M  V30 4216 C 378.942 -3.91915 4.68877 0
M  V30 4217 C 379.94 -3.82956 5.65539 0
M  V30 4218 O 379.628 -3.996 6.97549 0
M  V30 4219 H 379.36 -0.575751 0.354241 0
M  V30 4220 H 381.914 -1.32044 1.57333 0
M  V30 4221 H 380.144 -3.77161 0.853588 0
M  V30 4222 H 381.833 -3.8573 1.2636 0
M  V30 4223 H 382.599 -3.18789 3.65511 0
M  V30 4224 H 378.478 -3.80852 2.59756 0
M  V30 4225 H 382.022 -3.49783 6.03571 0
M  V30 4226 H 377.919 -4.11992 4.96923 0
M  V30 4227 H 378.687 -4.1676 7.04452 0
M  V30 4228 N 381.35 -0.985608 -1.22978 0
M  V30 4229 C 382.599 -0.652881 -1.90841 0
M  V30 4230 C 382.912 0.817842 -1.77681 0
M  V30 4231 O 384.118 1.26185 -2.40395 0
M  V30 4232 C 382.574 -1.11717 -3.42122 0
M  V30 4233 C 382.182 -2.6126 -3.63933 0
M  V30 4234 C 383.926 -0.85843 -4.1573 0
M  V30 4235 C 381.833 -3.0133 -5.08876 0
M  V30 4236 H 380.763 -0.240491 -0.714619 0
M  V30 4237 H 383.414 -1.1942 -1.39324 0
M  V30 4238 H 381.796 -0.504027 -3.92779 0
M  V30 4239 H 382.97 -3.27858 -3.23799 0
M  V30 4240 H 381.285 -2.84937 -3.03644 0
M  V30 4241 H 383.882 -1.13359 -5.22546 0
M  V30 4242 H 384.225 0.205461 -4.15793 0
M  V30 4243 H 384.758 -1.43341 -3.71077 0
M  V30 4244 H 381.497 -4.06864 -5.13947 0
M  V30 4245 H 381.017 -2.3943 -5.49939 0
M  V30 4246 H 382.696 -2.92224 -5.77247 0
M  V30 4247 N 382.828 1.3818 -0.7579 0
M  V30 4248 C 383.758 2.33027 -0.148597 0
M  V30 4249 C 384.739 1.55085 0.69875 0
M  V30 4250 O 385.924 1.83384 0.639053 0
M  V30 4251 C 383.054 3.3928 0.742034 0
M  V30 4252 C 382.008 4.28 -0.00291946 0
M  V30 4253 C 381.334 5.25146 1.00625 0
M  V30 4254 C 382.634 5.08938 -1.17385 0
M  V30 4255 H 384.328 2.84231 -0.940909 0
M  V30 4256 H 381.874 1.36659 -0.453908 0
M  V30 4257 H 383.827 4.046 1.17799 0
M  V30 4258 H 382.551 2.86569 1.56671 0
M  V30 4259 H 381.21 3.64192 -0.419504 0
M  V30 4260 H 380.858 4.68721 1.8251 0
M  V30 4261 H 380.558 5.85361 0.512428 0
M  V30 4262 H 382.082 5.93342 1.44143 0
M  V30 4263 H 383.496 5.67474 -0.815224 0
M  V30 4264 H 381.893 5.7841 -1.59882 0
M  V30 4265 H 382.963 4.42424 -1.98468 0
M  V30 4266 N 384.306 0.507319 1.49211 0
M  V30 4267 C 385.236 -0.256939 2.32082 0
M  V30 4268 C 386.217 -0.956609 1.40652 0
M  V30 4269 O 387.402 -0.946788 1.69557 0
M  V30 4270 C 384.532 -1.31802 3.21318 0
M  V30 4271 C 383.486 -0.737855 4.21592 0
M  V30 4272 C 382.812 -1.89992 4.99807 0
M  V30 4273 C 384.112 0.275325 5.21574 0
M  V30 4274 H 385.806 0.434798 2.96226 0
M  V30 4275 H 383.352 0.210546 1.42452 0
M  V30 4276 H 385.305 -1.86045 3.78107 0
M  V30 4277 H 384.029 -2.03903 2.5513 0
M  V30 4278 H 382.688 -0.217126 3.65956 0
M  V30 4279 H 382.336 -2.60877 4.30061 0
M  V30 4280 H 382.036 -1.51777 5.6766 0
M  V30 4281 H 383.56 -2.44657 5.59442 0
M  V30 4282 H 384.974 -0.179193 5.7302 0
M  V30 4283 H 383.371 0.573649 5.97352 0
M  V30 4284 H 384.441 1.18903 4.70096 0
M  V30 4285 N 385.784 -1.5574 0.241426 0
M  V30 4286 C 387.024 -2.00714 -0.38644 0
M  V30 4287 C 387.388 -1.12586 -1.55526 0
M  V30 4288 O 388.589 -1.46992 -2.25048 0
M  V30 4289 C 386.86 -3.48534 -0.791128 0
M  V30 4290 S 388.419 -4.15519 -1.41029 0
M  V30 4291 H 385.237 -0.700484 -0.121834 0
M  V30 4292 H 387.839 -1.92243 0.355377 0
M  V30 4293 H 386.543 -4.10342 0.0689225 0
M  V30 4294 H 386.074 -3.6092 -1.56526 0
M  V30 4295 H 388.089 -4.16352 -2.69936 0
M  V30 4296 N 387.262 0.0317525 -1.57568 0
M  V30 4297 C 388.51 0.721676 -1.88776 0
M  V30 4298 C 388.831 1.76039 -0.838772 0
M  V30 4299 O 388.101 1.95482 0.127935 0
M  V30 4300 H 386.681 0.269534 -0.696678 0
M  V30 4301 H 389.343 -0.00165879 -1.949 0
M  V30 4302 H 388.439 1.21293 -2.87566 0
M  V30 4303 N 388.74 1.54641 0.303973 0
M  V30 4304 C 389.97 1.77511 1.05705 0
M  V30 4305 C 390.378 0.533228 1.81531 0
M  V30 4306 O 389.721 -0.506423 1.76582 0
M  V30 4307 C 389.783 2.92779 2.08617 0
M  V30 4308 C 389.447 4.30977 1.52013 0
M  V30 4309 C 390.444 5.11115 0.9517 0
M  V30 4310 C 388.129 4.77571 1.55665 0
M  V30 4311 C 390.123 6.35966 0.427327 0
M  V30 4312 C 387.81 6.02384 1.02841 0
M  V30 4313 C 388.808 6.81417 0.464713 0
M  V30 4314 O 388.496 8.03881 -0.0555283 0
M  V30 4315 H 388.228 0.59579 0.319391 0
M  V30 4316 H 390.782 2.02401 0.349712 0
M  V30 4317 H 389.012 2.63506 2.83022 0
M  V30 4318 H 390.701 3.03252 2.69802 0
M  V30 4319 H 391.467 4.76264 0.916407 0
M  V30 4320 H 387.346 4.16085 1.9848 0
M  V30 4321 H 390.89 6.97599 -0.0133062 0
M  V30 4322 H 386.787 6.36723 1.06084 0
M  V30 4323 H 387.555 8.18479 0.0580522 0
M  V30 4324 N 390.218 -0.567019 1.47046 0
M  V30 4325 C 391.629 -1.14916 1.47143 0
M  V30 4326 C 391.98 -1.94954 0.220767 0
M  V30 4327 O 391.105 -2.05602 -0.67505 0
M  V30 4328 C 391.7 -2.09069 2.666 0
M  V30 4329 C 390.259 -2.62575 2.69687 0
M  V30 4330 C 389.406 -1.38755 2.40088 0
M  V30 4331 H 392.357 -0.354126 1.54699 0
M  V30 4332 H 392.378 -2.92789 2.43011 0
M  V30 4333 H 391.89 -1.50789 3.57609 0
M  V30 4334 H 389.991 -3.24681 1.82792 0
M  V30 4335 H 390.104 -3.04239 3.70102 0
M  V30 4336 H 388.468 -1.69098 1.90468 0
M  V30 4337 H 389.251 -0.822822 3.33293 0
M  V30 4338 N 391.696 -1.35014 -0.812953 0
M  V30 4339 C 393.107 -1.25035 -1.38648 0
M  V30 4340 C 393.458 0.119967 -1.95833 0
M  V30 4341 O 392.583 1.02069 -1.90816 0
M  V30 4342 C 393.178 -2.26394 -2.52054 0
M  V30 4343 C 391.737 -2.20175 -3.05287 0
M  V30 4344 C 390.884 -2.12451 -1.78213 0
M  V30 4345 H 393.835 -1.46235 -0.616516 0
M  V30 4346 H 393.856 -1.88672 -3.30429 0
M  V30 4347 H 393.368 -3.26116 -2.10404 0
M  V30 4348 H 391.469 -1.23841 -3.51417 0
M  V30 4349 H 391.582 -3.11863 -3.63701 0
M  V30 4350 H 389.946 -1.58328 -1.9951 0
M  V30 4351 H 390.729 -3.14024 -1.38723 0
M  V30 4352 N 393.175 1.03435 -1.18907 0
M  V30 4353 C 394.422 1.76743 -0.988334 0
M  V30 4354 C 394.75 1.88447 0.481441 0
M  V30 4355 O 394.005 1.39383 1.37371 0
M  V30 4356 C 394.304 3.19792 -1.59586 0
M  V30 4357 C 393.97 3.28108 -3.09283 0
M  V30 4358 C 392.632 3.30084 -3.5014 0
M  V30 4359 C 394.984 3.27696 -4.05296 0
M  V30 4360 C 392.312 3.29299 -4.85571 0
M  V30 4361 C 394.664 3.28451 -5.4065 0
M  V30 4362 C 393.328 3.28723 -5.80946 0
M  V30 4363 H 392.598 0.64675 -0.361657 0
M  V30 4364 H 395.245 1.21442 -1.48068 0
M  V30 4365 H 393.55 3.78136 -1.02568 0
M  V30 4366 H 395.247 3.75171 -1.41589 0
M  V30 4367 H 391.837 3.27294 -2.76725 0
M  V30 4368 H 396.021 3.25354 -3.74778 0
M  V30 4369 H 391.277 3.2783 -5.16079 0
M  V30 4370 H 395.451 3.27082 -6.14809 0
M  V30 4371 H 393.078 3.27868 -6.85862 0
M  V30 4372 N 394.653 0.992116 1.22453 0
M  V30 4373 C 395.901 0.666215 1.90804 0
M  V30 4374 C 396.222 -0.804152 1.77647 0
M  V30 4375 O 395.492 -1.57629 1.16318 0
M  V30 4376 H 394.072 0.243423 0.706225 0
M  V30 4377 H 396.734 1.25845 1.48825 0
M  V30 4378 H 395.83 0.928069 2.97982 0
M  V30 4379 N 396.131 -1.37776 0.765217 0
M  V30 4380 C 397.379 -1.99454 0.325943 0
M  V30 4381 C 397.7 -1.61049 -1.09947 0
M  V30 4382 O 396.97 -0.872821 -1.75381 0
M  V30 4383 H 395.55 -0.737697 0.117525 0
M  V30 4384 H 398.212 -1.68359 0.981895 0
M  V30 4385 H 397.308 -3.09547 0.398353 0
M  V30 4386 N 397.609 -0.515225 -1.4894 0
M  V30 4387 C 398.541 0.292481 -2.27326 0
M  V30 4388 C 399.554 0.917838 -1.3446 0
M  V30 4389 O 400.743 0.798772 -1.5963 0
M  V30 4390 C 397.843 1.42803 -3.07344 0
M  V30 4391 C 397.016 0.907347 -4.27885 0
M  V30 4392 C 396.075 1.92222 -4.89834 0
M  V30 4393 O 395.101 1.48506 -5.49486 0
M  V30 4394 N 396.303 3.25355 -4.80754 0
M  V30 4395 H 399.068 -0.379721 -2.97285 0
M  V30 4396 H 396.629 -0.348638 -1.58102 0
M  V30 4397 H 398.621 2.10481 -3.45658 0
M  V30 4398 H 397.191 2.00414 -2.39902 0
M  V30 4399 H 396.411 0.0550218 -3.94162 0
M  V30 4400 H 397.699 0.538108 -5.05946 0
M  V30 4401 H 397.097 3.6355 -4.33414 0
M  V30 4402 H 395.654 3.88707 -5.23211 0
M  V30 4403 N 399.087 1.5561 -0.249682 0
M  V30 4404 C 400.035 2.22894 0.664906 0
M  V30 4405 C 401.029 1.21743 1.17792 0
M  V30 4406 O 402.235 1.39748 1.13449 0
M  V30 4407 H 398.61 0.715022 0.232912 0
M  V30 4408 H 400.581 2.98307 0.0742998 0
M  V30 4409 C 399.33 2.94424 1.84959 0
M  V30 4410 H 398.653 3.72031 1.46399 0
M  V30 4411 H 400.093 3.44862 2.4667 0
M  V30 4412 C 398.552 1.98454 2.72245 0
M  V30 4413 O 399.082 1.51939 3.71857 0
M  V30 4414 N 397.288 1.65496 2.38871 0
M  V30 4415 H 396.835 2.03517 1.57919 0
M  V30 4416 H 396.793 1.0155 2.97548 0
M  V30 4417 N 400.565 -0.0233959 1.57583 0
M  V30 4418 C 401.842 -0.748794 1.807 0
M  V30 4419 C 402.222 -1.9327 0.849106 0
M  V30 4420 O 401.57 -2.28247 -0.107468 0
M  V30 4421 C 401.78 -1.17651 3.28571 0
M  V30 4422 C 403.128 -1.59008 3.93702 0
M  V30 4423 O 404.152 -1.27094 3.32755 0
M  V30 4424 O 403.011 -2.18264 5.01022 0
M  V30 4425 H 400.105 -0.362578 0.743281 0
M  V30 4426 H 402.651 0.000261958 1.697 0
M  V30 4427 H 401.423 -0.331603 3.89892 0
M  V30 4428 H 401.046 -1.98541 3.44481 0
M  V30 4429 N 402.043 -1.548 -0.295768 0
M  V30 4430 C 402.975 -1.82492 -1.3867 0
M  V30 4431 C 403.988 -0.708134 -1.46592 0
M  V30 4432 O 405.177 -0.985686 -1.48817 0
M  V30 4433 C 402.277 -1.95256 -2.76999 0
M  V30 4434 C 401.45 -3.25709 -2.91946 0
M  V30 4435 C 400.509 -3.28824 -4.10806 0
M  V30 4436 O 399.535 -4.02328 -4.02643 0
M  V30 4437 N 400.737 -2.5459 -5.21694 0
M  V30 4438 H 403.502 -2.76646 -1.15269 0
M  V30 4439 H 401.063 -1.54438 -0.485849 0
M  V30 4440 H 403.055 -1.94736 -3.54768 0
M  V30 4441 H 401.625 -1.08072 -2.93324 0
M  V30 4442 H 400.845 -3.38959 -2.01247 0
M  V30 4443 H 402.133 -4.11786 -2.98847 0
M  V30 4444 H 401.531 -1.94512 -5.31208 0
M  V30 4445 H 400.088 -2.59818 -5.97778 0
M  V30 4446 N 403.521 0.559213 -1.47345 0
M  V30 4447 C 404.798 1.31997 -1.44348 0
M  V30 4448 C 405.178 2.1064 -0.139358 0
M  V30 4449 O 404.526 2.1091 0.879153 0
M  V30 4450 C 404.736 2.22618 -2.68779 0
M  V30 4451 C 406.084 2.83701 -3.1591 0
M  V30 4452 O 407.108 2.32921 -2.69493 0
M  V30 4453 O 405.967 3.75993 -3.966 0
M  V30 4454 H 403.061 0.594251 -0.575147 0
M  V30 4455 H 405.607 0.578282 -1.59543 0
M  V30 4456 H 404.379 1.64093 -3.55231 0
M  V30 4457 H 404.002 3.04085 -2.5616 0
M  V30 4458 N 404.999 1.35443 0.805782 0
M  V30 4459 C 406.248 1.28097 1.55801 0
M  V30 4460 C 406.561 -0.142428 1.95081 0
M  V30 4461 O 407.767 -0.33817 2.69386 0
M  V30 4462 C 406.223 2.24653 2.81174 0
M  V30 4463 C 405.831 3.72342 2.49129 0
M  V30 4464 C 407.575 2.2625 3.59181 0
M  V30 4465 C 405.482 4.60719 3.70799 0
M  V30 4466 H 404.412 0.475937 0.584808 0
M  V30 4467 H 407.063 1.60712 0.885661 0
M  V30 4468 H 405.445 1.85011 3.50124 0
M  V30 4469 H 406.619 4.20624 1.88181 0
M  V30 4470 H 404.934 3.73361 1.84366 0
M  V30 4471 H 407.531 2.89495 4.49552 0
M  V30 4472 H 407.874 1.26647 3.96568 0
M  V30 4473 H 408.407 2.64426 2.97193 0
M  V30 4474 H 405.146 5.61324 3.3852 0
M  V30 4475 H 404.666 4.17163 4.3097 0
M  V30 4476 H 406.345 4.76182 4.38018 0
M  V30 4477 N 406.477 -1.02803 1.19454 0
M  V30 4478 C 407.726 -1.7562 0.991996 0
M  V30 4479 C 408.039 -1.89672 -0.477901 0
M  V30 4480 O 409.245 -2.59468 -0.799287 0
M  V30 4481 C 407.701 -3.15812 1.72601 0
M  V30 4482 C 407.309 -3.0981 3.23607 0
M  V30 4483 C 409.053 -3.92918 1.60674 0
M  V30 4484 C 406.96 -4.44939 3.89594 0
M  V30 4485 H 405.89 -0.658352 0.367543 0
M  V30 4486 H 408.541 -1.15044 1.42959 0
M  V30 4487 H 406.923 -3.7686 1.21624 0
M  V30 4488 H 408.097 -2.58138 3.81709 0
M  V30 4489 H 406.412 -2.46201 3.35819 0
M  V30 4490 H 409.009 -4.9287 2.07323 0
M  V30 4491 H 409.352 -4.12502 0.561025 0
M  V30 4492 H 409.885 -3.38472 2.09001 0
M  V30 4493 H 406.624 -4.30559 4.94267 0
M  V30 4494 H 406.144 -4.96664 3.36281 0
M  V30 4495 H 407.823 -5.1382 3.93189 0
M  V30 4496 N 407.956 -0.998596 -1.21925 0
M  V30 4497 C 408.903 -0.553621 -2.24062 0
M  V30 4498 C 409.873 0.416999 -1.6078 0
M  V30 4499 O 411.058 0.320482 -1.88089 0
M  V30 4500 C 408.198 0.119959 -3.44891 0
M  V30 4501 C 407.311 -0.893077 -4.22668 0
M  V30 4502 C 406.446 -0.192424 -5.30851 0
M  V30 4503 C 405.485 -1.19344 -6.00353 0
M  V30 4504 N 404.622 -0.520707 -7.00166 0
M  V30 4505 H 409.462 -1.4293 -2.61486 0
M  V30 4506 H 406.999 -0.715838 -1.28507 0
M  V30 4507 H 408.957 0.527459 -4.13852 0
M  V30 4508 H 407.587 0.959389 -3.08214 0
M  V30 4509 H 406.639 -1.41886 -3.52948 0
M  V30 4510 H 407.951 -1.65512 -4.70539 0
M  V30 4511 H 407.105 0.271515 -6.06092 0
M  V30 4512 H 405.844 0.602075 -4.83969 0
M  V30 4513 H 404.849 -1.66795 -5.23889 0
M  V30 4514 H 406.074 -1.98891 -6.49322 0
M  V30 4515 H 404.02 0.254252 -6.55507 0
M  V30 4516 H 403.937 -1.2211 -7.46073 0
M  V30 4517 H 405.205 -0.0797596 -7.79459 0
M  V30 4518 N 409.434 1.37368 -0.772513 0
M  V30 4519 C 410.381 2.30262 -0.157488 0
M  V30 4520 C 411.351 1.51137 0.688965 0
M  V30 4521 O 412.536 1.79704 0.641168 0
M  V30 4522 C 409.676 3.37611 0.715045 0
M  V30 4523 C 408.789 4.31746 -0.148098 0
M  V30 4524 C 407.924 5.26171 0.729213 0
M  V30 4525 C 406.963 6.11948 -0.136418 0
M  V30 4526 N 406.1 6.98613 0.698914 0
M  V30 4527 H 410.94 2.82277 -0.955179 0
M  V30 4528 H 408.477 1.38957 -0.482631 0
M  V30 4529 H 410.435 3.98479 1.23575 0
M  V30 4530 H 409.065 2.86959 1.47833 0
M  V30 4531 H 408.117 3.72178 -0.786613 0
M  V30 4532 H 409.429 4.92084 -0.81579 0
M  V30 4533 H 408.583 5.92247 1.31637 0
M  V30 4534 H 407.322 4.66246 1.43059 0
M  V30 4535 H 406.327 5.4485 -0.736102 0
M  V30 4536 H 407.552 6.73945 -0.835134 0
M  V30 4537 H 405.498 6.41215 1.38489 0
M  V30 4538 H 405.415 7.55948 0.0885358 0
M  V30 4539 H 406.683 7.69077 1.27044 0
M  V30 4540 N 410.912 0.523116 1.48665 0
M  V30 4541 C 412.158 -0.0134963 2.02796 0
M  V30 4542 C 412.491 -1.34582 1.40004 0
M  V30 4543 O 411.766 -1.86756 0.543381 0
M  V30 4544 C 412.049 -0.14276 3.59817 0
M  V30 4545 C 411.902 1.21425 4.331 0
M  V30 4546 C 413.221 -0.872856 4.31357 0
M  V30 4547 H 410.34 -0.00343074 0.736992 0
M  V30 4548 H 412.982 0.678816 1.7746 0
M  V30 4549 H 411.132 -0.732401 3.81534 0
M  V30 4550 H 412.804 1.84447 4.2282 0
M  V30 4551 H 411.047 1.79791 3.94788 0
M  V30 4552 H 411.718 1.07687 5.41394 0
M  V30 4553 H 414.194 -0.372555 4.14429 0
M  V30 4554 H 413.07 -0.932185 5.40927 0
M  V30 4555 H 413.331 -1.92161 3.98154 0
M  V30 4556 N 412.39 -1.55475 0.257931 0
M  V30 4557 C 413.3 -2.2549 -0.647425 0
M  V30 4558 C 414.316 -1.2748 -1.18427 0
M  V30 4559 O 415.492 -1.6038 -1.2182 0
M  V30 4560 C 412.557 -2.94916 -1.82278 0
M  V30 4561 C 411.618 -4.08363 -1.32432 0
M  V30 4562 C 410.851 -4.74469 -2.44366 0
M  V30 4563 O 411.074 -4.39701 -3.63344 0
M  V30 4564 O 410.008 -5.62763 -2.13497 0
M  V30 4565 H 413.834 -3.03593 -0.0807707 0
M  V30 4566 H 411.419 -1.49377 0.0259962 0
M  V30 4567 H 413.301 -3.38606 -2.50846 0
M  V30 4568 H 411.976 -2.19744 -2.37685 0
M  V30 4569 H 410.883 -3.69166 -0.605605 0
M  V30 4570 H 412.216 -4.85385 -0.816211 0
M  V30 4571 N 413.868 0.0150385 -1.57593 0
M  V30 4572 C 414.815 1.01126 -2.07466 0
M  V30 4573 C 415.785 1.35064 -0.966794 0
M  V30 4574 O 416.97 1.4516 -1.23827 0
M  V30 4575 C 414.11 2.30276 -2.57035 0
M  V30 4576 C 413.223 2.02373 -3.81666 0
M  V30 4577 C 412.358 3.25496 -4.19793 0
M  V30 4578 C 411.397 2.93211 -5.37303 0
M  V30 4579 N 410.534 4.08826 -5.70794 0
M  V30 4580 H 415.374 0.57901 -2.92321 0
M  V30 4581 H 412.911 0.27426 -1.44521 0
M  V30 4582 H 414.869 3.05757 -2.83846 0
M  V30 4583 H 413.499 2.71197 -1.75077 0
M  V30 4584 H 412.551 1.17327 -3.61854 0
M  V30 4585 H 413.863 1.74567 -4.67256 0
M  V30 4586 H 413.017 4.09333 -4.47807 0
M  V30 4587 H 411.756 3.56428 -3.32882 0
M  V30 4588 H 410.761 2.07777 -5.09027 0
M  V30 4589 H 411.986 2.63542 -6.25877 0
M  V30 4590 H 409.932 4.39682 -4.86842 0
M  V30 4591 H 409.849 3.84491 -6.50924 0
M  V30 4592 H 411.117 4.93496 -6.03392 0
M  V30 4593 N 415.346 1.54954 0.287554 0
M  V30 4594 C 416.594 1.74528 1.01904 0
M  V30 4595 C 416.915 0.541349 1.87335 0
M  V30 4596 O 416.185 -0.444108 1.908 0
M  V30 4597 H 414.765 0.643576 0.379235 0
M  V30 4598 H 417.427 1.92333 0.315294 0
M  V30 4599 H 416.523 2.64015 1.6644 0
M  V30 4600 N 416.824 -0.551391 1.4764 0
M  V30 4601 C 417.771 -1.65796 1.60563 0
M  V30 4602 C 418.741 -1.59932 0.448428 0
M  V30 4603 O 419.926 -1.78679 0.669222 0
M  V30 4604 C 417.066 -3.04108 1.63133 0
M  V30 4605 C 416.179 -3.20365 2.89811 0
M  V30 4606 C 415.314 -4.49109 2.8368 0
M  V30 4607 C 414.353 -4.58819 4.05156 0
M  V30 4608 N 413.49 -5.78926 3.97227 0
M  V30 4609 H 418.33 -1.54088 2.5507 0
M  V30 4610 H 415.867 -0.75052 1.26513 0
M  V30 4611 H 417.825 -3.84207 1.62606 0
M  V30 4612 H 416.455 -3.14637 0.721341 0
M  V30 4613 H 415.507 -2.33659 3.00179 0
M  V30 4614 H 416.819 -3.23402 3.79753 0
M  V30 4615 H 415.973 -5.37475 2.81434 0
M  V30 4616 H 414.712 -4.4856 1.91431 0
M  V30 4617 H 413.717 -3.68864 4.077 0
M  V30 4618 H 414.942 -4.61124 4.98539 0
M  V30 4619 H 412.888 -5.79314 3.07785 0
M  V30 4620 H 412.805 -5.83367 4.80853 0
M  V30 4621 H 414.073 -6.69637 3.99007 0
M  V30 4622 N 418.302 -1.35869 -0.798587 0
M  V30 4623 C 419.532 -1.32529 -1.58491 0
M  V30 4624 C 419.94 0.0975405 -1.88948 0
M  V30 4625 O 419.283 1.06224 -1.49874 0
M  V30 4626 C 419.345 -2.07247 -2.9375 0
M  V30 4627 C 419.009 -3.56391 -2.86068 0
M  V30 4628 C 420.006 -4.50824 -2.58947 0
M  V30 4629 C 417.691 -3.9915 -3.04933 0
M  V30 4630 C 419.685 -5.85993 -2.5078 0
M  V30 4631 C 417.372 -5.34413 -2.96389 0
M  V30 4632 C 418.37 -6.27646 -2.69349 0
M  V30 4633 O 418.058 -7.60426 -2.60782 0
M  V30 4634 H 417.79 -0.456529 -0.498556 0
M  V30 4635 H 420.344 -1.79425 -0.999799 0
M  V30 4636 H 418.574 -1.55001 -3.54276 0
M  V30 4637 H 420.263 -1.96883 -3.54954 0
M  V30 4638 H 421.029 -4.19104 -2.44084 0
M  V30 4639 H 416.908 -3.26961 -3.24989 0
M  V30 4640 H 420.452 -6.58735 -2.29595 0
M  V30 4641 H 416.349 -5.65743 -3.10813 0
M  V30 4642 H 417.117 -7.70444 -2.76331 0
M  V30 4643 N 419.78 1.02168 -1.19998 0
M  V30 4644 C 421.01 1.79036 -1.031 0
M  V30 4645 C 421.418 1.84409 0.423078 0
M  V30 4646 O 420.761 1.29228 1.30559 0
M  V30 4647 C 420.823 3.25185 -1.53281 0
M  V30 4648 C 420.487 3.43431 -3.01503 0
M  V30 4649 C 421.484 3.33063 -3.99206 0
M  V30 4650 C 419.169 3.69412 -3.40353 0
M  V30 4651 C 421.163 3.48413 -5.33748 0
M  V30 4652 C 418.85 3.84406 -4.75053 0
M  V30 4653 C 419.848 3.7391 -5.71559 0
M  V30 4654 O 419.536 3.88452 -7.03818 0
M  V30 4655 H 419.268 0.570043 -0.363355 0
M  V30 4656 H 421.822 1.29524 -1.59414 0
M  V30 4657 H 420.052 3.75756 -0.913483 0
M  V30 4658 H 421.741 3.83671 -1.32481 0
M  V30 4659 H 422.507 3.12934 -3.70537 0
M  V30 4660 H 418.386 3.76671 -2.65782 0
M  V30 4661 H 421.93 3.40137 -6.09059 0
M  V30 4662 H 417.827 4.04035 -5.03415 0
M  V30 4663 H 418.595 4.055 -7.10993 0
M  V30 4664 N 421.258 1.00505 1.21394 0
M  V30 4665 C 422.505 0.687774 1.90462 0
M  V30 4666 C 422.833 -0.78147 1.7811 0
M  V30 4667 O 422.088 -1.58208 1.1519 0
M  V30 4668 C 422.387 1.0546 3.41486 0
M  V30 4669 C 422.053 2.51812 3.74034 0
M  V30 4670 C 420.715 2.91804 3.82628 0
M  V30 4671 C 423.067 3.46614 3.8924 0
M  V30 4672 C 420.395 4.2556 4.03876 0
M  V30 4673 C 422.747 4.80044 4.11995 0
M  V30 4674 C 421.411 5.19759 4.18816 0
M  V30 4675 H 420.681 0.251674 0.696951 0
M  V30 4676 H 423.328 1.26349 1.43903 0
M  V30 4677 H 421.633 0.397133 3.89782 0
M  V30 4678 H 423.33 0.786976 3.93202 0
M  V30 4679 H 419.92 2.1982 3.67936 0
M  V30 4680 H 424.104 3.16883 3.81967 0
M  V30 4681 H 419.36 4.55901 4.07387 0
M  V30 4682 H 423.534 5.53439 4.22704 0
M  V30 4683 H 421.161 6.23418 4.35033 0
M  V30 4684 N 422.737 -1.36956 0.779787 0
M  V30 4685 C 424.014 -1.93697 0.272156 0
M  V30 4686 C 424.394 -1.71267 -1.23413 0
M  V30 4687 O 423.742 -1.06607 -2.02107 0
M  V30 4688 C 423.952 -3.42812 0.654291 0
M  V30 4689 C 425.3 -4.19921 0.628602 0
M  V30 4690 O 426.324 -3.51209 0.594172 0
M  V30 4691 O 425.183 -5.42465 0.662864 0
M  V30 4692 H 422.277 -0.824447 0.0649286 0
M  V30 4693 H 424.823 -1.46196 0.861682 0
M  V30 4694 H 423.595 -3.52754 1.69353 0
M  V30 4695 H 423.218 -3.97582 0.0381369 0
M  V30 4696 N 424.215 -0.530993 -1.48385 0
M  V30 4697 C 425.462 0.0027373 -2.025 0
M  V30 4698 C 425.79 1.34186 -1.40799 0
M  V30 4699 O 425.045 1.88 -0.543544 0
M  V30 4700 C 425.344 0.172742 -3.56982 0
M  V30 4701 C 425.01 -1.09215 -4.37473 0
M  V30 4702 C 423.672 -1.43881 -4.59186 0
M  V30 4703 C 426.024 -1.93153 -4.84088 0
M  V30 4704 C 423.352 -2.62381 -5.2476 0
M  V30 4705 C 425.704 -3.10833 -5.50968 0
M  V30 4706 C 424.368 -3.45843 -5.70919 0
M  V30 4707 H 423.638 0.00100165 -0.740999 0
M  V30 4708 H 426.285 -0.697219 -1.78357 0
M  V30 4709 H 424.59 0.955473 -3.79971 0
M  V30 4710 H 426.287 0.600642 -3.96476 0
M  V30 4711 H 422.877 -0.812177 -4.20834 0
M  V30 4712 H 427.061 -1.67683 -4.67115 0
M  V30 4713 H 422.317 -2.89707 -5.38405 0
M  V30 4714 H 426.491 -3.7618 -5.86056 0
M  V30 4715 H 424.118 -4.37764 -6.21503 0
M  V30 4716 N 425.693 1.55336 -0.266172 0
M  V30 4717 C 426.641 2.23587 0.641228 0
M  V30 4718 C 427.635 1.22986 1.16494 0
M  V30 4719 O 428.841 1.40943 1.1196 0
M  V30 4720 H 425.216 0.717452 0.225315 0
M  V30 4721 H 427.187 2.9837 0.0426561 0
M  V30 4722 C 425.936 2.96369 1.81826 0
M  V30 4723 H 425.259 3.73563 1.42445 0
M  V30 4724 H 426.699 3.47459 2.42998 0
M  V30 4725 C 425.158 2.0133 2.70125 0
M  V30 4726 O 425.688 1.55875 3.70224 0
M  V30 4727 N 423.894 1.6802 2.37102 0
M  V30 4728 H 423.441 2.05181 1.55751 0
M  V30 4729 H 423.399 1.047 2.96454 0
M  V30 4730 N 427.171 -0.0066808 1.57599 0
M  V30 4731 C 428.448 -0.729586 1.81484 0
M  V30 4732 C 428.828 -1.92359 0.869558 0
M  V30 4733 O 428.176 -2.28348 -0.0832533 0
M  V30 4734 C 428.386 -1.1416 3.29801 0
M  V30 4735 C 429.734 -1.54823 3.95367 0
M  V30 4736 O 430.758 -1.23558 3.34084 0
M  V30 4737 O 429.617 -2.12937 5.03309 0
M  V30 4738 H 426.711 -0.354674 0.747085 0
M  V30 4739 H 429.257 0.0182609 1.6969 0
M  V30 4740 H 428.029 -0.290231 3.90222 0
M  V30 4741 H 427.652 -1.94876 3.46568 0
M  V30 4742 N 428.649 -1.55105 -0.279332 0
M  V30 4743 C 429.895 -1.76597 -1.00921 0
M  V30 4744 C 430.25 -0.556831 -1.84166 0
M  V30 4745 O 429.543 0.450573 -1.86227 0
M  V30 4746 C 429.737 -3.0086 -1.92919 0
M  V30 4747 C 429.566 -4.33744 -1.18728 0
M  V30 4748 C 428.336 -4.9712 -0.905545 0
M  V30 4749 C 430.534 -5.11009 -0.580857 0
M  V30 4750 N 428.516 -6.13749 -0.136169 0
M  V30 4751 C 429.887 -6.19976 0.0546661 0
M  V30 4752 C 431.942 -4.95502 -0.488067 0
M  V30 4753 C 430.645 -7.15123 0.774028 0
M  V30 4754 C 432.671 -5.90999 0.217688 0
M  V30 4755 C 432.033 -6.9935 0.841975 0
M  V30 4756 H 428.132 -0.698553 -0.351493 0
M  V30 4757 H 430.716 -1.92595 -0.285531 0
M  V30 4758 H 428.887 -2.86249 -2.62519 0
M  V30 4759 H 430.619 -3.10784 -2.59221 0
M  V30 4760 H 427.374 -4.57903 -1.20921 0
M  V30 4761 H 427.798 -6.7659 0.235665 0
M  V30 4762 H 432.44 -4.11841 -0.956406 0
M  V30 4763 H 430.158 -7.9831 1.25407 0
M  V30 4764 H 433.744 -5.81078 0.289717 0
M  V30 4765 H 432.624 -7.71973 1.37939 0
M  V30 4766 N 430.127 0.543554 -1.4793 0
M  V30 4767 C 431.074 1.64942 -1.6144 0
M  V30 4768 C 432.044 1.59692 -0.456903 0
M  V30 4769 O 433.229 1.78321 -0.678688 0
M  V30 4770 C 430.369 3.03238 -1.64744 0
M  V30 4771 C 429.482 3.18823 -2.91506 0
M  V30 4772 C 428.617 4.47599 -2.86057 0
M  V30 4773 C 427.656 4.56664 -4.07584 0
M  V30 4774 N 426.793 5.76811 -4.00292 0
M  V30 4775 H 431.633 1.52733 -2.55884 0
M  V30 4776 H 429.17 0.7438 -1.2691 0
M  V30 4777 H 431.128 3.83339 -1.64641 0
M  V30 4778 H 429.758 3.1425 -0.738017 0
M  V30 4779 H 428.81 2.32064 -3.01414 0
M  V30 4780 H 430.122 3.21384 -3.81463 0
M  V30 4781 H 429.276 5.35975 -2.84281 0
M  V30 4782 H 428.015 4.47538 -1.93807 0
M  V30 4783 H 427.02 3.66697 -4.09651 0
M  V30 4784 H 428.245 4.58474 -5.00978 0
M  V30 4785 H 426.191 5.77673 -3.10853 0
M  V30 4786 H 426.108 5.80808 -4.8394 0
M  V30 4787 H 427.376 6.67512 -4.02553 0
M  V30 4788 N 431.605 1.3629 0.791371 0
M  V30 4789 C 432.553 1.30514 1.92533 0
M  V30 4790 C 433.547 0.197285 1.68247 0
M  V30 4791 O 434.753 0.364176 1.76278 0
M  V30 4792 H 431.128 0.406263 0.632815 0
M  V30 4793 H 433.099 2.26282 1.94523 0
M  V30 4794 C 431.848 1.10933 3.29529 0
M  V30 4795 H 431.171 1.95427 3.48781 0
M  V30 4796 H 432.611 1.10937 4.0923 0
M  V30 4797 C 431.07 -0.186123 3.36385 0
M  V30 4798 O 431.6 -1.17664 3.84081 0
M  V30 4799 N 429.806 -0.230128 2.89687 0
M  V30 4800 H 429.353 0.576545 2.51065 0
M  V30 4801 H 429.311 -1.09658 2.94657 0
M  V30 4802 N 433.083 -1.0153 1.20538 0
M  V30 4803 C 434.332 -1.74558 1.01057 0
M  V30 4804 C 434.645 -1.90168 -0.457756 0
M  V30 4805 O 435.851 -2.60301 -0.771722 0
M  V30 4806 C 434.307 -3.13963 1.75941 0
M  V30 4807 C 433.915 -3.06361 3.26875 0
M  V30 4808 C 435.659 -3.91191 1.64832 0
M  V30 4809 C 433.566 -4.40782 3.94291 0
M  V30 4810 H 432.496 -0.654417 0.374505 0
M  V30 4811 H 435.147 -1.13521 1.44171 0
M  V30 4812 H 433.529 -3.75549 1.25614 0
M  V30 4813 H 434.703 -2.54074 3.84425 0
M  V30 4814 H 433.018 -2.42625 3.38411 0
M  V30 4815 H 435.615 -4.90644 2.12539 0
M  V30 4816 H 435.958 -4.11884 0.604745 0
M  V30 4817 H 436.491 -3.36236 2.12579 0
M  V30 4818 H 433.23 -4.25292 4.98805 0
M  V30 4819 H 432.75 -4.9307 3.41529 0
M  V30 4820 H 434.429 -5.09621 3.98617 0
M  V30 4821 N 434.561 -1.01147 -1.20859 0
M  V30 4822 C 435.786 -0.716698 -1.94623 0
M  V30 4823 C 436.211 0.715415 -1.73964 0
M  V30 4824 O 435.569 1.49157 -1.03062 0
M  V30 4825 C 435.617 -1.0513 -3.44935 0
M  V30 4826 O 434.721 -0.160131 -4.12089 0
M  V30 4827 H 434.062 -0.266404 -0.608214 0
M  V30 4828 H 436.592 -1.35346 -1.53436 0
M  V30 4829 H 436.602 -1.00086 -3.95533 0
M  V30 4830 H 435.277 -2.09475 -3.59295 0
M  V30 4831 H 433.854 -0.267657 -3.71938 0
M  V30 4832 N 436.039 1.36541 -0.78704 0
M  V30 4833 C 436.949 2.3387 -0.184896 0
M  V30 4834 C 437.965 1.60927 0.661697 0
M  V30 4835 O 439.141 1.92927 0.57804 0
M  V30 4836 C 436.206 3.40122 0.672145 0
M  V30 4837 C 435.267 4.28867 -0.19267 0
M  V30 4838 C 434.5 5.30045 0.623561 0
M  V30 4839 O 434.723 5.39232 1.8597 0
M  V30 4840 O 433.657 6.01895 0.0247068 0
M  V30 4841 H 437.483 2.87126 -0.989562 0
M  V30 4842 H 435.068 1.38969 -0.548455 0
M  V30 4843 H 436.95 4.05093 1.16094 0
M  V30 4844 H 435.625 2.89169 1.45474 0
M  V30 4845 H 434.532 3.66945 -0.728166 0
M  V30 4846 H 435.865 4.83165 -0.938722 0
M  V30 4847 N 437.518 0.538854 1.48102 0
M  V30 4848 C 438.428 -0.222648 2.33541 0
M  V30 4849 C 439.444 -0.930225 1.47047 0
M  V30 4850 O 440.62 -0.903211 1.80011 0
M  V30 4851 C 437.685 -1.25064 3.23357 0
M  V30 4852 C 436.746 -0.552469 4.2573 0
M  V30 4853 C 435.979 -1.53149 5.11254 0
M  V30 4854 O 436.202 -2.76487 4.9891 0
M  V30 4855 O 435.136 -1.06602 5.92385 0
M  V30 4856 H 438.962 0.477707 2.99919 0
M  V30 4857 H 436.547 0.299669 1.46364 0
M  V30 4858 H 438.429 -1.8445 3.78888 0
M  V30 4859 H 437.104 -1.93325 2.59629 0
M  V30 4860 H 436.011 0.082114 3.7401 0
M  V30 4861 H 437.344 0.0883526 4.92121 0
M  V30 4862 N 438.996 -1.55193 0.274407 0
M  V30 4863 C 439.959 -2.212 -0.600279 0
M  V30 4864 C 440.959 -1.18963 -1.08187 0
M  V30 4865 O 442.149 -1.43873 -0.982158 0
M  V30 4866 C 439.281 -2.87739 -1.82809 0
M  V30 4867 H 440.474 -2.9989 -0.0239682 0
M  V30 4868 H 438.027 -1.5628 0.0250192 0
M  V30 4869 H 438.762 -2.13058 -2.44493 0
M  V30 4870 H 438.547 -3.62658 -1.49069 0
M  V30 4871 H 440.037 -3.38171 -2.45011 0
M  V30 4872 N 440.474 -0.00167713 -1.576 0
M  V30 4873 C 441.421 0.989195 -2.08527 0
M  V30 4874 C 442.391 1.34031 -0.981065 0
M  V30 4875 O 443.576 1.43839 -1.2536 0
M  V30 4876 C 440.716 2.27537 -2.59463 0
M  V30 4877 C 439.829 1.98314 -3.83791 0
M  V30 4878 C 438.964 3.21025 -4.23222 0
M  V30 4879 C 438.003 2.87495 -5.40382 0
M  V30 4880 N 437.14 4.02749 -5.75098 0
M  V30 4881 H 441.98 0.547973 -2.92919 0
M  V30 4882 H 439.517 0.258917 -1.44803 0
M  V30 4883 H 441.475 3.02729 -2.87073 0
M  V30 4884 H 440.105 2.69325 -1.77943 0
M  V30 4885 H 439.157 1.13482 -3.63078 0
M  V30 4886 H 440.469 1.69601 -4.69081 0
M  V30 4887 H 439.623 4.04561 -4.52123 0
M  V30 4888 H 438.362 3.52877 -3.36644 0
M  V30 4889 H 437.367 2.02367 -5.11202 0
M  V30 4890 H 438.592 2.56889 -6.28637 0
M  V30 4891 H 436.538 4.34494 -4.91478 0
M  V30 4892 H 436.455 3.77566 -6.54966 0
M  V30 4893 H 437.723 4.87068 -6.08592 0
M  V30 4894 N 441.952 1.55251 0.271103 0
M  V30 4895 C 442.862 1.9136 1.35714 0
M  V30 4896 C 443.878 0.811075 1.5394 0
M  V30 4897 O 445.054 1.11031 1.6803 0
M  V30 4898 C 442.119 2.1798 2.69603 0
M  V30 4899 C 441.18 3.4153 2.60107 0
M  V30 4900 C 440.413 3.66871 3.8761 0
M  V30 4901 O 440.636 2.94689 4.8838 0
M  V30 4902 O 439.57 4.60405 3.87699 0
M  V30 4903 H 443.396 2.83815 1.08088 0
M  V30 4904 H 440.981 1.41821 0.469792 0
M  V30 4905 H 442.863 2.36518 3.48765 0
M  V30 4906 H 441.538 1.28708 2.97012 0
M  V30 4907 H 440.445 3.28325 1.79314 0
M  V30 4908 H 441.778 4.31027 2.37647 0
M  V30 4909 N 443.43 -0.535701 1.48216 0
M  V30 4910 C 444.36 -1.65014 1.65204 0
M  V30 4911 C 445.341 -1.62554 0.501011 0
M  V30 4912 O 446.526 -1.7984 0.732886 0
M  V30 4913 C 443.656 -3.03616 1.68626 0
M  V30 4914 C 442.61 -3.20932 2.83172 0
M  V30 4915 C 441.936 -4.60537 2.71679 0
M  V30 4916 C 443.236 -3.04249 4.24535 0
M  V30 4917 H 444.93 -1.51053 2.58502 0
M  V30 4918 H 442.476 -0.725262 1.24402 0
M  V30 4919 H 444.429 -3.81446 1.79099 0
M  V30 4920 H 443.153 -3.18587 0.719026 0
M  V30 4921 H 441.812 -2.45517 2.72244 0
M  V30 4922 H 441.46 -4.72336 1.72937 0
M  V30 4923 H 441.16 -4.73069 3.48538 0
M  V30 4924 H 442.684 -5.40475 2.84112 0
M  V30 4925 H 444.098 -3.71877 4.36326 0
M  V30 4926 H 442.495 -3.28278 5.02348 0
M  V30 4927 H 443.565 -2.00739 4.41397 0
M  V30 4928 N 444.908 -1.36708 -0.784132 0
M  V30 4929 C 446.157 -1.30559 -1.53744 0
M  V30 4930 C 446.47 0.111374 -1.95283 0
M  V30 4931 O 447.676 0.29527 -2.6989 0
M  V30 4932 C 446.132 -2.29098 -2.77565 0
M  V30 4933 C 445.74 -3.76258 -2.43174 0
M  V30 4934 C 447.484 -2.31936 -3.55536 0
M  V30 4935 C 445.391 -4.6656 -3.63422 0
M  V30 4936 H 444.321 -0.48518 -0.577162 0
M  V30 4937 H 446.972 -1.62101 -0.859981 0
M  V30 4938 H 445.354 -1.90557 -3.47137 0
M  V30 4939 H 446.528 -4.23565 -1.81465 0
M  V30 4940 H 444.843 -3.76246 -1.78403 0
M  V30 4941 H 447.44 -2.9661 -4.44889 0
M  V30 4942 H 447.783 -1.3294 -3.94503 0
M  V30 4943 H 448.316 -2.6912 -2.92949 0
M  V30 4944 H 445.055 -5.66638 -3.29547 0
M  V30 4945 H 444.575 -4.23966 -4.24279 0
M  V30 4946 H 446.254 -4.8309 -4.30387 0
M  V30 4947 N 446.386 1.0089 -1.21074 0
M  V30 4948 C 447.333 2.09588 -0.966512 0
M  V30 4949 C 448.303 1.65761 0.106089 0
M  V30 4950 O 449.488 1.90758 -0.0402287 0
M  V30 4951 C 446.628 3.40958 -0.533058 0
M  V30 4952 C 445.741 3.9822 -1.67467 0
M  V30 4953 C 444.876 5.17682 -1.19076 0
M  V30 4954 C 443.915 5.67043 -2.30496 0
M  V30 4955 N 443.052 6.77759 -1.83267 0
M  V30 4956 H 447.892 2.29815 -1.89708 0
M  V30 4957 H 445.429 1.12689 -0.945489 0
M  V30 4958 H 447.387 4.1637 -0.263019 0
M  V30 4959 H 446.017 3.20781 0.360505 0
M  V30 4960 H 445.069 3.1983 -2.05944 0
M  V30 4961 H 446.381 4.3085 -2.51336 0
M  V30 4962 H 445.535 6.00326 -0.877151 0
M  V30 4963 H 444.274 4.86635 -0.322066 0
M  V30 4964 H 443.279 4.82999 -2.62664 0
M  V30 4965 H 444.504 6.00121 -3.17855 0
M  V30 4966 H 442.45 6.48527 -0.987356 0
M  V30 4967 H 442.367 7.09624 -2.60711 0
M  V30 4968 H 443.635 7.63949 -1.54928 0
M  V30 4969 N 447.864 1.01787 1.20321 0
M  V30 4970 C 448.794 0.609625 2.25401 0
M  V30 4971 C 449.775 -0.375951 1.65893 0
M  V30 4972 O 450.96 -0.261101 1.92437 0
M  V30 4973 C 448.09 -0.0515995 3.47262 0
M  V30 4974 C 447.044 0.855095 4.19371 0
M  V30 4975 C 446.37 0.0595757 5.34667 0
M  V30 4976 C 447.67 2.16374 4.75373 0
M  V30 4977 H 449.364 1.48803 2.59804 0
M  V30 4978 H 446.91 0.716934 1.24884 0
M  V30 4979 H 448.863 -0.348764 4.19954 0
M  V30 4980 H 447.587 -0.964726 3.12027 0
M  V30 4981 H 446.246 1.13628 3.48546 0
M  V30 4982 H 445.894 -0.85524 4.95676 0
M  V30 4983 H 445.594 0.663406 5.83843 0
M  V30 4984 H 447.118 -0.231105 6.10162 0
M  V30 4985 H 448.532 1.92885 5.39878 0
M  V30 4986 H 446.929 2.71853 5.34991 0
M  V30 4987 H 447.999 2.82589 3.94045 0
M  V30 4988 N 449.342 -1.36122 0.79427 0
M  V30 4989 C 450.275 -2.27759 0.141845 0
M  V30 4990 C 451.253 -1.47471 -0.684921 0
M  V30 4991 O 452.437 -1.76759 -0.654857 0
M  V30 4992 C 449.564 -3.29008 -0.804446 0
M  V30 4993 C 448.61 -4.26459 -0.0588617 0
M  V30 4994 S 449.443 -5.20253 1.26873 0
M  V30 4995 C 450.599 -6.25048 0.326562 0
M  V30 4996 H 450.832 -2.82746 0.918818 0
M  V30 4997 H 448.365 -1.42736 0.588722 0
M  V30 4998 H 450.323 -3.87842 -1.34495 0
M  V30 4999 H 448.984 -2.72924 -1.5547 0
M  V30 5000 H 448.177 -4.97973 -0.777087 0
M  V30 5001 H 447.779 -3.71731 0.411309 0
M  V30 5002 H 450.071 -6.75705 -0.492795 0
M  V30 5003 H 451.014 -7.00852 1.01053 0
M  V30 5004 H 451.422 -5.64454 -0.0722627 0
M  V30 5005 N 450.82 -0.546701 -1.47814 0
M  V30 5006 C 451.75 0.195317 -2.32682 0
M  V30 5007 C 452.731 0.918981 -1.43139 0
M  V30 5008 O 453.916 0.901501 -1.72008 0
M  V30 5009 C 451.046 1.23237 -3.247 0
M  V30 5010 C 450 0.625818 -4.234 0
M  V30 5011 C 449.326 1.76674 -5.04669 0
M  V30 5012 C 450.626 -0.413515 -5.2066 0
M  V30 5013 H 452.32 -0.513184 -2.94969 0
M  V30 5014 H 449.866 -0.248241 -1.41844 0
M  V30 5015 H 451.819 1.75955 -3.82907 0
M  V30 5016 H 450.543 1.97067 -2.60446 0
M  V30 5017 H 449.202 0.120023 -3.66403 0
M  V30 5018 H 448.85 2.49383 -4.36826 0
M  V30 5019 H 448.55 1.36673 -5.71484 0
M  V30 5020 H 450.074 2.29738 -5.65732 0
M  V30 5021 H 451.488 0.0272042 -5.73294 0
M  V30 5022 H 449.885 -0.731825 -5.95621 0
M  V30 5023 H 450.955 -1.31325 -4.66778 0
M  V30 5024 N 452.299 1.55045 -0.282633 0
M  V30 5025 C 453.527 2.04168 0.33512 0
M  V30 5026 C 453.942 1.16071 1.48906 0
M  V30 5027 O 453.299 0.182391 1.81586 0
M  V30 5028 C 453.35 3.52332 0.808957 0
M  V30 5029 O 453.071 4.37078 -0.299038 0
M  V30 5030 C 454.572 4.17375 1.49375 0
M  V30 5031 H 451.792 0.666744 0.0754543 0
M  V30 5032 H 454.336 2.00205 -0.416918 0
M  V30 5033 H 452.491 3.56715 1.51106 0
M  V30 5034 H 452.905 5.24458 0.0665514 0
M  V30 5035 H 454.379 5.22627 1.77664 0
M  V30 5036 H 454.856 3.65999 2.42778 0
M  V30 5037 H 455.462 4.17016 0.835305 0
M  V30 5038 N 453.777 0.010035 1.57597 0
M  V30 5039 C 455.007 -0.682422 1.95004 0
M  V30 5040 C 455.415 -1.67278 0.884014 0
M  V30 5041 O 454.758 -1.83129 -0.144672 0
M  V30 5042 C 454.82 -1.46141 3.28456 0
M  V30 5043 C 454.484 -0.631523 4.52615 0
M  V30 5044 C 455.481 0.0850905 5.1983 0
M  V30 5045 C 453.166 -0.574539 4.99003 0
M  V30 5046 C 455.16 0.847566 6.3174 0
M  V30 5047 C 452.847 0.191655 6.10799 0
M  V30 5048 C 453.845 0.901432 6.77025 0
M  V30 5049 O 453.533 1.65511 7.86677 0
M  V30 5050 H 453.265 -0.194361 0.647456 0
M  V30 5051 H 455.819 0.060312 2.05311 0
M  V30 5052 H 454.049 -2.24885 3.14585 0
M  V30 5053 H 455.738 -2.04016 3.50902 0
M  V30 5054 H 456.504 0.0502812 4.84974 0
M  V30 5055 H 452.383 -1.11654 4.47274 0
M  V30 5056 H 455.927 1.4021 6.83364 0
M  V30 5057 H 451.824 0.228249 6.45096 0
M  V30 5058 H 452.592 1.57287 8.03245 0
M  V30 5059 N 455.255 -1.55392 -0.262866 0
M  V30 5060 C 456.532 -1.67204 -1.01499 0
M  V30 5061 C 456.912 -0.545186 -2.03939 0
M  V30 5062 O 456.26 0.453467 -2.23955 0
M  V30 5063 C 456.47 -3.06847 -1.6627 0
M  V30 5064 C 457.818 -3.64928 -2.17054 0
M  V30 5065 O 458.842 -3.09545 -1.76239 0
M  V30 5066 O 457.701 -4.61984 -2.91947 0
M  V30 5067 H 454.795 -0.679467 -0.471438 0
M  V30 5068 H 457.341 -1.67729 -0.257918 0
M  V30 5069 H 456.113 -3.80309 -0.920915 0
M  V30 5070 H 455.736 -3.10266 -2.48638 0
M  V30 5071 N 456.733 0.527833 -1.48498 0
M  V30 5072 C 457.963 1.30633 -1.60058 0
M  V30 5073 C 458.371 1.87394 -0.260786 0
M  V30 5074 O 457.714 1.67227 0.760317 0
M  V30 5075 C 457.776 2.49361 -2.58958 0
M  V30 5076 C 457.44 2.13671 -4.03972 0
M  V30 5077 C 458.437 1.69217 -4.91591 0
M  V30 5078 C 456.122 2.24129 -4.49524 0
M  V30 5079 C 458.116 1.35689 -6.2279 0
M  V30 5080 C 455.803 1.90212 -5.80743 0
M  V30 5081 C 456.801 1.46063 -6.67199 0
M  V30 5082 O 456.489 1.12593 -7.95976 0
M  V30 5083 H 456.221 0.403444 -0.54241 0
M  V30 5084 H 458.775 0.643233 -1.95068 0
M  V30 5085 H 457.005 3.18659 -2.19073 0
M  V30 5086 H 458.694 3.11421 -2.6033 0
M  V30 5087 H 459.46 1.60607 -4.57636 0
M  V30 5088 H 455.339 2.57447 -3.82416 0
M  V30 5089 H 458.883 1.01157 -6.90227 0
M  V30 5090 H 454.78 1.98464 -6.14233 0
M  V30 5091 H 455.548 1.25972 -8.08748 0
M  V30 5092 N 458.211 1.37122 0.776871 0
M  V30 5093 C 459.159 1.32549 1.91138 0
M  V30 5094 C 460.153 0.215119 1.68029 0
M  V30 5095 O 461.359 0.382852 1.75881 0
M  V30 5096 H 457.734 0.412952 0.62847 0
M  V30 5097 H 459.705 2.28332 1.92112 0
M  V30 5098 C 458.454 1.14422 3.28333 0
M  V30 5099 H 457.777 1.99115 3.46689 0
M  V30 5100 H 459.217 1.15272 4.0803 0
M  V30 5101 C 457.676 -0.150434 3.36564 0
M  V30 5102 O 458.206 -1.13584 3.85307 0
M  V30 5103 N 456.412 -0.19939 2.89915 0
M  V30 5104 H 455.959 0.603142 2.5044 0
M  V30 5105 H 455.917 -1.06526 2.95803 0
M  V30 5106 N 459.689 -1.00246 1.21608 0
M  V30 5107 C 460.636 -2.09073 0.977613 0
M  V30 5108 C 461.606 -1.65815 -0.097297 0
M  V30 5109 O 462.791 -1.90734 0.0503445 0
M  V30 5110 C 459.931 -3.40671 0.551133 0
M  V30 5111 C 459.044 -3.97326 1.69576 0
M  V30 5112 C 458.179 -5.17043 1.2182 0
M  V30 5113 C 457.218 -5.65813 2.335 0
M  V30 5114 N 456.355 -6.76778 1.86859 0
M  V30 5115 H 461.195 -2.28806 1.90924 0
M  V30 5116 H 458.732 -1.12186 0.951452 0
M  V30 5117 H 460.69 -4.16225 0.285097 0
M  V30 5118 H 459.32 -3.20967 -0.343489 0
M  V30 5119 H 458.372 -3.18734 2.07637 0
M  V30 5120 H 459.684 -4.29511 2.53617 0
M  V30 5121 H 458.838 -5.99852 0.908975 0
M  V30 5122 H 457.577 -4.86458 0.347869 0
M  V30 5123 H 456.582 -4.81599 2.65222 0
M  V30 5124 H 457.807 -5.98427 3.21033 0
M  V30 5125 H 455.753 -6.47994 1.02174 0
M  V30 5126 H 455.67 -7.08231 2.64471 0
M  V30 5127 H 456.938 -7.63116 1.58978 0
M  V30 5128 N 461.167 -1.02423 -1.1978 0
M  V30 5129 C 462.583 -0.740459 -1.41384 0
M  V30 5130 C 462.783 0.676827 -1.89793 0
M  V30 5131 O 461.839 1.4435 -2.0717 0
M  V30 5132 C 463.152 -1.77264 -2.42895 0
M  V30 5133 C 464.7 -1.79165 -2.56649 0
M  V30 5134 C 465.175 -2.8133 -3.6141 0
M  V30 5135 N 466.666 -2.80118 -3.68901 0
M  V30 5136 C 467.401 -3.55824 -4.49641 0
M  V30 5137 N 466.897 -4.41231 -5.34123 0
M  V30 5138 N 468.69 -3.44387 -4.44246 0
M  V30 5139 H 460.841 -1.9391 -0.866764 0
M  V30 5140 H 463.104 -0.838074 -0.443098 0
M  V30 5141 H 462.81 -2.7884 -2.14339 0
M  V30 5142 H 462.684 -1.59108 -3.42001 0
M  V30 5143 H 465.071 -0.782702 -2.84531 0
M  V30 5144 H 465.152 -2.01396 -1.57713 0
M  V30 5145 H 464.796 -3.82394 -3.34271 0
M  V30 5146 H 464.726 -2.56359 -4.59986 0
M  V30 5147 H 467.217 -2.1817 -3.08562 0
M  V30 5148 H 467.53 -4.95747 -5.92836 0
M  V30 5149 H 465.875 -4.45306 -5.33599 0
M  V30 5150 H 469.066 -2.7708 -3.77285 0
M  V30 5151 H 469.239 -4.0364 -5.06931 0
M  V30 5152 N 462.645 1.35699 -0.801477 0
M  V30 5153 C 463.894 1.98165 -0.375979 0
M  V30 5154 C 464.207 1.64306 1.06127 0
M  V30 5155 O 465.413 2.20097 1.58964 0
M  V30 5156 C 463.869 3.54497 -0.621305 0
M  V30 5157 C 463.477 3.9727 -2.07076 0
M  V30 5158 C 465.221 4.23697 -0.26091 0
M  V30 5159 C 463.128 5.46427 -2.26211 0
M  V30 5160 H 462.058 0.741478 -0.136844 0
M  V30 5161 H 464.709 1.54834 -0.984814 0
M  V30 5162 H 463.091 3.95958 0.0574112 0
M  V30 5163 H 464.265 3.66974 -2.78687 0
M  V30 5164 H 462.58 3.40943 -2.39054 0
M  V30 5165 H 465.177 5.33334 -0.381994 0
M  V30 5166 H 465.52 4.0869 0.792344 0
M  V30 5167 H 466.053 3.87639 -0.893339 0
M  V30 5168 H 462.792 5.66396 -3.29963 0
M  V30 5169 H 462.312 5.78309 -1.59119 0
M  V30 5170 H 463.991 6.12819 -2.07513 0
M  V30 5171 N 464.123 0.554532 1.47522 0
M  V30 5172 C 465.351 0.034257 2.06872 0
M  V30 5173 C 465.766 -1.25826 1.40759 0
M  V30 5174 O 465.123 -1.75425 0.503217 0
M  V30 5175 C 465.174 -0.167827 3.6111 0
M  V30 5176 O 464.895 1.07351 4.24744 0
M  V30 5177 C 466.396 -0.72569 4.3732 0
M  V30 5178 H 463.616 0.0446275 0.669514 0
M  V30 5179 H 466.16 0.767181 1.89564 0
M  V30 5180 H 464.315 -0.850872 3.7794 0
M  V30 5181 H 464.729 0.869563 5.17242 0
M  V30 5182 H 466.203 -0.816394 5.45929 0
M  V30 5183 H 466.68 -1.73635 4.0342 0
M  V30 5184 H 467.286 -0.0784292 4.25228 0
M  V30 5185 N 465.601 -1.54893 0.290851 0
M  V30 5186 C 466.564 -2.21824 -0.576784 0
M  V30 5187 C 467.564 -1.20104 -1.06919 0
M  V30 5188 O 468.754 -1.44906 -0.966843 0
M  V30 5189 C 465.886 -2.89662 -1.79747 0
M  V30 5190 H 467.079 -2.99899 0.00784051 0
M  V30 5191 H 464.632 -1.56245 0.0415934 0
M  V30 5192 H 465.367 -2.15639 -2.42219 0
M  V30 5193 H 465.152 -3.64219 -1.45214 0
M  V30 5194 H 466.642 -3.4075 -2.4141 0
M  V30 5195 N 467.08 -0.0183926 -1.57589 0
M  V30 5196 C 468.027 0.967022 -2.09565 0
M  V30 5197 C 468.997 1.32983 -0.995225 0
M  V30 5198 O 470.182 1.42501 -1.26878 0
M  V30 5199 C 467.322 2.24772 -2.61861 0
M  V30 5200 C 466.435 1.94232 -3.85873 0
M  V30 5201 C 465.57 3.16518 -4.26603 0
M  V30 5202 C 464.609 2.81748 -5.43401 0
M  V30 5203 N 463.746 3.96626 -5.79338 0
M  V30 5204 H 468.586 0.516874 -2.93483 0
M  V30 5205 H 466.123 0.243544 -1.4507 0
M  V30 5206 H 468.081 2.99667 -2.90268 0
M  V30 5207 H 466.711 2.67423 -1.8079 0
M  V30 5208 H 465.763 1.09625 -3.64262 0
M  V30 5209 H 467.075 1.64616 -4.70853 0
M  V30 5210 H 466.229 3.99743 -4.56389 0
M  V30 5211 H 464.968 3.49286 -3.40368 0
M  V30 5212 H 463.973 1.96933 -5.1332 0
M  V30 5213 H 465.198 2.50207 -6.31327 0
M  V30 5214 H 463.144 4.29257 -4.96059 0
M  V30 5215 H 463.061 3.70598 -6.58933 0
M  V30 5216 H 464.329 4.80586 -6.13724 0
M  V30 5217 N 468.558 1.5553 0.254621 0
M  V30 5218 C 469.468 1.92789 1.33677 0
M  V30 5219 C 470.484 0.827356 1.53071 0
M  V30 5220 O 471.66 1.12807 1.66843 0
M  V30 5221 C 468.725 2.20827 2.67275 0
M  V30 5222 C 467.786 3.4427 2.5647 0
M  V30 5223 C 467.019 3.70961 3.83697 0
M  V30 5224 O 467.242 2.99852 4.85227 0
M  V30 5225 O 466.176 4.64491 3.82794 0
M  V30 5226 H 470.002 2.84945 1.05071 0
M  V30 5227 H 467.587 1.42312 0.454723 0
M  V30 5228 H 469.469 2.40204 3.46237 0
M  V30 5229 H 468.144 1.31851 2.9563 0
M  V30 5230 H 467.051 3.30209 1.75821 0
M  V30 5231 H 468.384 4.33524 2.33062 0
M  V30 5232 N 470.036 -0.519951 1.48776 0
M  V30 5233 C 470.999 -1.60574 1.6355 0
M  V30 5234 C 471.999 -1.52557 0.508234 0
M  V30 5235 O 473.189 -1.56047 0.774262 0
M  V30 5236 C 470.321 -3.00211 1.61512 0
M  V30 5237 H 471.514 -1.4881 2.60376 0
M  V30 5238 H 469.067 -0.742772 1.37523 0
M  V30 5239 H 469.802 -3.17471 0.662009 0
M  V30 5240 H 469.587 -3.07439 2.43359 0
M  V30 5241 H 471.077 -3.79134 1.75064 0
M  V30 5242 N 471.514 -1.37532 -0.769588 0
M  V30 5243 C 472.444 -1.36172 -1.89682 0
M  V30 5244 C 473.425 -0.23001 -1.68538 0
M  V30 5245 O 474.61 -0.43069 -1.89364 0
M  V30 5246 C 471.74 -1.1701 -3.26995 0
M  V30 5247 C 470.694 -2.27216 -3.62708 0
M  V30 5248 C 470.02 -1.93174 -4.98586 0
M  V30 5249 C 471.32 -3.6941 -3.69234 0
M  V30 5250 H 473.014 -2.30499 -1.91078 0
M  V30 5251 H 470.56 -1.10953 -0.917902 0
M  V30 5252 H 472.513 -1.14688 -4.05493 0
M  V30 5253 H 471.237 -0.191395 -3.26039 0
M  V30 5254 H 469.896 -2.28697 -2.86519 0
M  V30 5255 H 469.544 -0.938281 -4.94171 0
M  V30 5256 H 469.244 -2.66973 -5.23449 0
M  V30 5257 H 470.768 -1.92443 -5.79481 0
M  V30 5258 H 472.182 -3.70047 -4.37879 0
M  V30 5259 H 470.579 -4.4228 -4.05597 0
M  V30 5260 H 471.649 -4.0288 -2.69844 0
M  V30 5261 N 472.992 0.995999 -1.22138 0
M  V30 5262 C 473.94 2.10673 -0.985876 0
M  V30 5263 C 474.934 1.69255 0.0699553 0
M  V30 5264 O 476.14 1.79812 -0.0822176 0
M  V30 5265 H 472.515 0.688865 -0.30161 0
M  V30 5266 H 474.486 2.27711 -1.92848 0
M  V30 5267 C 473.235 3.42881 -0.576909 0
M  V30 5268 H 472.558 3.75191 -1.38101 0
M  V30 5269 H 473.998 4.21589 -0.451518 0
M  V30 5270 C 472.457 3.29265 0.713196 0
M  V30 5271 O 472.987 3.60777 1.76643 0
M  V30 5272 N 471.193 2.82456 0.683162 0
M  V30 5273 H 470.74 2.5701 -0.174242 0
M  V30 5274 H 470.698 2.73727 1.54663 0
M  V30 5275 N 474.47 1.03057 1.19235 0
M  V30 5276 C 475.695 0.74757 1.93458 0
M  V30 5277 C 476.12 -0.687648 1.7508 0
M  V30 5278 O 475.478 -1.47499 1.05422 0
M  V30 5279 C 475.526 1.10604 3.43219 0
M  V30 5280 O 474.63 0.225671 4.11782 0
M  V30 5281 H 473.971 0.276047 0.603899 0
M  V30 5282 H 476.501 1.3777 1.51263 0
M  V30 5283 H 476.511 1.06366 3.93891 0
M  V30 5284 H 475.186 2.15165 3.55917 0
M  V30 5285 H 473.763 0.326795 3.71465 0
M  V30 5286 N 475.948 -1.35272 0.808662 0
M  V30 5287 C 476.895 -2.29764 0.218482 0
M  V30 5288 C 477.865 -1.52911 -0.648652 0
M  V30 5289 O 479.05 -1.81341 -0.593297 0
M  V30 5290 C 476.19 -3.39388 -0.625282 0
M  V30 5291 C 475.303 -4.31202 0.262516 0
M  V30 5292 C 474.438 -5.27919 -0.589451 0
M  V30 5293 C 473.477 -6.11371 0.298617 0
M  V30 5294 N 472.614 -7.0022 -0.513443 0
M  V30 5295 H 477.454 -2.79645 1.02968 0
M  V30 5296 H 474.991 -1.37629 0.519303 0
M  V30 5297 H 476.949 -4.01615 -1.12966 0
M  V30 5298 H 475.579 -2.90777 -1.40173 0
M  V30 5299 H 474.631 -3.69962 0.885013 0
M  V30 5300 H 475.943 -4.89748 0.945971 0
M  V30 5301 H 475.097 -5.95529 -1.15888 0
M  V30 5302 H 473.836 -4.69875 -1.30647 0
M  V30 5303 H 472.841 -5.42707 0.880301 0
M  V30 5304 H 474.066 -6.71494 1.01352 0
M  V30 5305 H 472.012 -6.44662 -1.21439 0
M  V30 5306 H 471.929 -7.55917 0.111922 0
M  V30 5307 H 473.197 -7.72175 -1.06608 0
M  V30 5308 N 477.426 -0.562348 -1.47226 0
M  V30 5309 C 478.672 -0.0485293 -2.03342 0
M  V30 5310 C 479.027 1.28898 -1.42839 0
M  V30 5311 O 478.32 1.82719 -0.576563 0
M  V30 5312 C 478.514 0.0969817 -3.57268 0
M  V30 5313 C 478.343 -1.22487 -4.32697 0
M  V30 5314 C 477.113 -1.79357 -4.72397 0
M  V30 5315 C 479.311 -2.14332 -4.67511 0
M  V30 5316 N 477.293 -3.05493 -5.32491 0
M  V30 5317 C 478.664 -3.25049 -5.27961 0
M  V30 5318 C 480.719 -2.14263 -4.4944 0
M  V30 5319 C 479.422 -4.35804 -5.72248 0
M  V30 5320 C 481.448 -3.24033 -4.94729 0
M  V30 5321 C 480.81 -4.3347 -5.55233 0
M  V30 5322 H 476.909 -0.0600464 -0.779691 0
M  V30 5323 H 479.493 -0.750769 -1.79643 0
M  V30 5324 H 477.664 0.768353 -3.80724 0
M  V30 5325 H 479.396 0.613333 -4.00025 0
M  V30 5326 H 476.151 -1.33093 -4.54514 0
M  V30 5327 H 476.575 -3.698 -5.67077 0
M  V30 5328 H 481.217 -1.30935 -4.02015 0
M  V30 5329 H 478.935 -5.19888 -6.18661 0
M  V30 5330 H 482.521 -3.25073 -4.82513 0
M  V30 5331 H 481.401 -5.17008 -5.89638 0
M  V30 5332 N 478.904 1.54736 -0.299062 0
M  V30 5333 C 480.153 1.99279 0.311549 0
M  V30 5334 C 480.466 1.19107 1.55154 0
M  V30 5335 O 481.672 1.53908 2.23662 0
M  V30 5336 C 480.128 3.54768 0.605632 0
M  V30 5337 C 479.736 4.43746 -0.615914 0
M  V30 5338 C 481.48 4.07841 1.17754 0
M  V30 5339 C 479.387 5.90663 -0.29509 0
M  V30 5340 H 478.317 0.744359 0.120187 0
M  V30 5341 H 480.968 1.78919 -0.407464 0
M  V30 5342 H 479.35 3.71021 1.38419 0
M  V30 5343 H 480.524 4.39267 -1.39218 0
M  V30 5344 H 478.839 4.01434 -1.10633 0
M  V30 5345 H 481.436 5.15174 1.43179 0
M  V30 5346 H 481.779 3.58324 2.11918 0
M  V30 5347 H 482.312 3.95123 0.460739 0
M  V30 5348 H 479.051 6.44325 -1.20524 0
M  V30 5349 H 478.571 5.98155 0.44394 0
M  V30 5350 H 480.25 6.46916 0.104048 0
M  V30 5351 N 480.382 0.0267497 1.57577 0
M  V30 5352 C 481.329 -0.955894 2.10075 0
M  V30 5353 C 482.299 -1.32453 1.00226 0
M  V30 5354 O 483.484 -1.41826 1.27632 0
M  V30 5355 C 480.624 -2.2338 2.6305 0
M  V30 5356 C 479.737 -1.92183 3.86898 0
M  V30 5357 C 478.872 -3.14251 4.28275 0
M  V30 5358 C 477.911 -2.78862 5.44888 0
M  V30 5359 N 477.048 -3.93548 5.81433 0
M  V30 5360 H 481.888 -0.501303 2.93753 0
M  V30 5361 H 479.425 -0.235847 1.45197 0
M  V30 5362 H 481.383 -2.98124 2.91853 0
M  V30 5363 H 480.013 -2.6646 1.82205 0
M  V30 5364 H 479.065 -1.07692 3.64838 0
M  V30 5365 H 480.377 -1.62117 4.7172 0
M  V30 5366 H 479.531 -3.97317 4.58502 0
M  V30 5367 H 478.27 -3.47476 3.42215 0
M  V30 5368 H 477.275 -1.94208 5.14357 0
M  V30 5369 H 478.5 -2.46855 6.32645 0
M  V30 5370 H 476.446 -4.2662 4.98328 0
M  V30 5371 H 476.363 -3.67098 6.6089 0
M  V30 5372 H 477.631 -4.77325 6.16264 0
M  V30 5373 N 481.861 -1.55662 -0.24637 0
M  V30 5374 C 482.808 -1.90361 -1.30504 0
M  V30 5375 C 483.778 -0.757905 -1.47801 0
M  V30 5376 O 484.963 -1.01161 -1.61775 0
M  V30 5377 C 482.103 -2.2042 -2.65535 0
M  V30 5378 C 481.216 -3.47799 -2.56242 0
M  V30 5379 C 480.351 -3.67426 -3.8363 0
M  V30 5380 C 479.39 -4.88403 -3.68956 0
M  V30 5381 N 478.527 -5.04548 -4.88237 0
M  V30 5382 H 483.367 -2.80645 -1.00213 0
M  V30 5383 H 480.904 -1.38924 -0.483577 0
M  V30 5384 H 482.862 -2.35853 -3.44135 0
M  V30 5385 H 481.492 -1.3334 -2.93973 0
M  V30 5386 H 480.544 -3.40694 -1.69208 0
M  V30 5387 H 481.856 -4.36544 -2.4131 0
M  V30 5388 H 481.01 -3.82821 -4.70673 0
M  V30 5389 H 479.749 -2.76914 -4.01459 0
M  V30 5390 H 478.754 -4.72984 -2.80296 0
M  V30 5391 H 479.979 -5.80375 -3.52621 0
M  V30 5392 H 477.925 -4.16974 -5.06427 0
M  V30 5393 H 477.842 -5.87384 -4.75937 0
M  V30 5394 H 479.11 -5.24355 -5.76777 0
M  V30 5395 N 483.339 0.512053 -1.4905 0
M  V30 5396 C 484.569 1.28928 -1.61434 0
M  V30 5397 C 484.977 1.87107 -0.280647 0
M  V30 5398 O 484.32 1.68024 0.742537 0
M  V30 5399 C 484.382 2.466 -2.61588 0
M  V30 5400 C 484.046 2.09375 -4.06216 0
M  V30 5401 C 485.043 1.63994 -4.93358 0
M  V30 5402 C 482.728 2.19348 -4.51876 0
M  V30 5403 C 484.722 1.29076 -6.24194 0
M  V30 5404 C 482.409 1.84041 -5.82728 0
M  V30 5405 C 483.407 1.38978 -6.68711 0
M  V30 5406 O 483.095 1.04144 -7.97126 0
M  V30 5407 H 482.827 0.397668 -0.546659 0
M  V30 5408 H 485.381 0.622507 -1.9574 0
M  V30 5409 H 483.611 3.16318 -2.22441 0
M  V30 5410 H 485.3 3.08642 -2.63619 0
M  V30 5411 H 486.066 1.55744 -4.59313 0
M  V30 5412 H 481.945 2.53376 -3.85125 0
M  V30 5413 H 485.489 0.938303 -6.91261 0
M  V30 5414 H 481.386 1.91938 -6.16304 0
M  V30 5415 H 482.154 1.17387 -8.10039 0
M  V30 5416 N 484.817 1.37938 0.762283 0
M  V30 5417 C 485.78 1.34279 1.85747 0
M  V30 5418 C 486.78 0.244969 1.58923 0
M  V30 5419 O 487.97 0.501365 1.66829 0
M  V30 5420 C 485.102 1.08833 3.23061 0
M  V30 5421 H 486.295 2.31705 1.90401 0
M  V30 5422 H 483.848 1.23105 0.963057 0
M  V30 5423 H 484.583 0.119767 3.24079 0
M  V30 5424 H 484.368 1.88306 3.43923 0
M  V30 5425 H 485.858 1.08946 4.03138 0
M  V30 5426 N 486.295 -0.989507 1.22664 0
M  V30 5427 C 487.243 -2.10148 0.997035 0
M  V30 5428 C 488.237 -1.6929 -0.0609783 0
M  V30 5429 O 489.443 -1.79766 0.0917523 0
M  V30 5430 H 485.818 -0.687256 0.305259 0
M  V30 5431 H 487.789 -2.26685 1.94053 0
M  V30 5432 C 486.538 -3.4257 0.595085 0
M  V30 5433 H 485.861 -3.74453 1.40089 0
M  V30 5434 H 487.301 -4.21344 0.473869 0
M  V30 5435 C 485.76 -3.29638 -0.695725 0
M  V30 5436 O 486.29 -3.61709 -1.74727 0
M  V30 5437 N 484.496 -2.82814 -0.668173 0
M  V30 5438 H 484.043 -2.56914 0.18787 0
M  V30 5439 H 484.001 -2.74544 -1.5321 0
M  V30 5440 N 487.773 -1.03688 -1.18687 0
M  V30 5441 C 488.721 -0.618292 -2.24232 0
M  V30 5442 C 489.715 0.353045 -1.6568 0
M  V30 5443 O 490.921 0.220749 -1.78641 0
M  V30 5444 H 487.296 -0.181711 -0.729716 0
M  V30 5445 H 489.267 -1.51893 -2.56848 0
M  V30 5446 C 488.016 0.00677342 -3.47699 0
M  V30 5447 H 487.339 -0.731692 -3.93047 0
M  V30 5448 H 488.779 0.262492 -4.23187 0
M  V30 5449 C 487.238 1.25572 -3.12623 0
M  V30 5450 O 487.768 2.34691 -3.26011 0
M  V30 5451 N 485.974 1.14755 -2.66982 0
M  V30 5452 H 485.521 0.259601 -2.56289 0
M  V30 5453 H 485.479 1.98412 -2.43885 0
M  V30 5454 N 489.251 1.34841 -0.815825 0
M  V30 5455 C 490.5 1.97755 -0.396976 0
M  V30 5456 C 490.813 1.65422 1.04379 0
M  V30 5457 O 492.019 2.21771 1.5662 0
M  V30 5458 C 490.475 3.53818 -0.658869 0
M  V30 5459 C 490.083 3.95051 -2.11278 0
M  V30 5460 C 491.827 4.23397 -0.305834 0
M  V30 5461 C 489.734 5.43997 -2.31994 0
M  V30 5462 H 488.664 0.739985 -0.1447 0
M  V30 5463 H 491.315 1.53781 -1.00118 0
M  V30 5464 H 489.697 3.95997 0.0154112 0
M  V30 5465 H 490.871 3.63998 -2.82564 0
M  V30 5466 H 489.186 3.38388 -2.42657 0
M  V30 5467 H 491.783 5.32899 -0.43854 0
M  V30 5468 H 492.126 4.09508 0.748952 0
M  V30 5469 H 492.659 3.8667 -0.934403 0
M  V30 5470 H 489.398 5.62865 -3.35952 0
M  V30 5471 H 488.918 5.76589 -1.65244 0
M  V30 5472 H 490.597 6.10584 -2.14001 0
M  V30 5473 N 490.729 0.570148 1.46925 0
M  V30 5474 C 491.677 -0.183181 2.31878 0
M  V30 5475 C 492.671 -0.896721 1.43719 0
M  V30 5476 O 493.877 -0.816536 1.60414 0
M  V30 5477 H 490.252 -0.077944 0.74795 0
M  V30 5478 H 492.223 0.552312 2.93244 0
M  V30 5479 C 490.972 -1.19172 3.2664 0
M  V30 5480 H 490.295 -0.652088 3.94446 0
M  V30 5481 H 491.735 -1.68946 3.88887 0
M  V30 5482 C 490.194 -2.24627 2.51086 0
M  V30 5483 O 490.724 -3.31773 2.26472 0
M  V30 5484 N 488.93 -1.98898 2.11867 0
M  V30 5485 H 488.477 -1.11777 2.32086 0
M  V30 5486 H 488.435 -2.6967 1.61634 0
M  V30 5487 N 492.207 -1.54576 0.307264 0
M  V30 5488 C 493.154 -2.23751 -0.56604 0
M  V30 5489 C 494.124 -1.22235 -1.12462 0
M  V30 5490 O 495.309 -1.50873 -1.16799 0
M  V30 5491 C 492.449 -2.98661 -1.72903 0
M  V30 5492 C 491.562 -4.14963 -1.20124 0
M  V30 5493 C 490.697 -4.77441 -2.3286 0
M  V30 5494 C 489.736 -5.85875 -1.77247 0
M  V30 5495 N 488.873 -6.42282 -2.8358 0
M  V30 5496 H 493.713 -2.97984 0.0304578 0
M  V30 5497 H 491.25 -1.47076 0.0268015 0
M  V30 5498 H 493.208 -3.40329 -2.41313 0
M  V30 5499 H 491.838 -2.26793 -2.29706 0
M  V30 5500 H 490.89 -3.78193 -0.409198 0
M  V30 5501 H 492.202 -4.93066 -0.754171 0
M  V30 5502 H 491.356 -5.21993 -3.09205 0
M  V30 5503 H 490.095 -3.98684 -2.80896 0
M  V30 5504 H 489.1 -5.40741 -0.993926 0
M  V30 5505 H 490.325 -6.6652 -1.30107 0
M  V30 5506 H 488.271 -5.66406 -3.30939 0
M  V30 5507 H 488.188 -7.1575 -2.43388 0
M  V30 5508 H 489.456 -6.91492 -3.59804 0
M  V30 5509 N 493.685 -0.035106 -1.57561 0
M  V30 5510 C 494.91 0.655802 -1.96759 0
M  V30 5511 C 495.335 1.64523 -0.911809 0
M  V30 5512 O 494.693 1.80857 0.126673 0
M  V30 5513 C 494.741 1.33326 -3.35047 0
M  V30 5514 O 493.845 2.44866 -3.31835 0
M  V30 5515 H 493.186 0.171807 -0.641388 0
M  V30 5516 H 495.716 -0.0987369 -2.04362 0
M  V30 5517 H 495.726 1.68867 -3.71413 0
M  V30 5518 H 494.401 0.608033 -4.11431 0
M  V30 5519 H 492.978 2.11392 -3.07193 0
M  V30 5520 N 495.163 1.55791 0.238111 0
M  V30 5521 C 496.44 1.68798 0.98826 0
M  V30 5522 C 496.82 0.577562 2.03045 0
M  V30 5523 O 496.168 -0.41778 2.24648 0
M  V30 5524 C 496.378 3.09454 1.61367 0
M  V30 5525 C 497.726 3.68335 2.11221 0
M  V30 5526 O 498.75 3.1231 1.71292 0
M  V30 5527 O 497.609 4.6657 2.84561 0
M  V30 5528 H 494.703 0.686881 0.460568 0
M  V30 5529 H 497.249 1.68118 0.231202 0
M  V30 5530 H 496.021 3.81726 0.860295 0
M  V30 5531 H 495.644 3.14182 2.4367 0
M  V30 5532 N 496.642 -0.504142 1.49319 0
M  V30 5533 C 497.574 -1.62265 1.61872 0
M  V30 5534 C 498.587 -1.54881 0.501573 0
M  V30 5535 O 499.776 -1.6087 0.773497 0
M  V30 5536 C 496.876 -3.01042 1.55651 0
M  V30 5537 C 496.049 -3.33642 2.82845 0
M  V30 5538 C 495.108 -4.51816 2.69719 0
M  V30 5539 O 494.134 -4.53755 3.4365 0
M  V30 5540 N 495.336 -5.51543 1.81055 0
M  V30 5541 H 498.101 -1.51924 2.58339 0
M  V30 5542 H 495.662 -0.691954 1.46368 0
M  V30 5543 H 497.654 -3.78013 1.44528 0
M  V30 5544 H 496.224 -3.05323 0.670546 0
M  V30 5545 H 495.444 -2.45598 3.08343 0
M  V30 5546 H 496.732 -3.5222 3.67177 0
M  V30 5547 H 496.13 -5.52774 1.20241 0
M  V30 5548 H 494.687 -6.27629 1.75856 0
M  V30 5549 N 498.12 -1.38341 -0.754957 0
M  V30 5550 C 499.067 -1.3546 -1.86867 0
M  V30 5551 C 500.037 -0.217369 -1.64672 0
M  V30 5552 O 501.222 -0.409383 -1.86356 0
M  V30 5553 C 498.362 -1.18413 -3.24149 0
M  V30 5554 C 497.475 -2.41511 -3.58185 0
M  V30 5555 C 496.61 -2.17205 -4.84763 0
M  V30 5556 C 495.649 -3.36081 -5.11582 0
M  V30 5557 N 494.786 -3.11219 -6.29354 0
M  V30 5558 H 499.626 -2.30672 -1.88664 0
M  V30 5559 H 497.163 -1.14607 -0.922154 0
M  V30 5560 H 499.121 -1.06545 -4.03366 0
M  V30 5561 H 497.751 -0.268397 -3.21682 0
M  V30 5562 H 496.803 -2.64056 -2.73822 0
M  V30 5563 H 498.115 -3.30115 -3.73932 0
M  V30 5564 H 497.269 -2.02465 -5.7192 0
M  V30 5565 H 496.008 -1.25964 -4.71152 0
M  V30 5566 H 495.013 -3.51341 -4.22894 0
M  V30 5567 H 496.238 -4.28196 -5.27091 0
M  V30 5568 H 494.184 -2.22624 -6.17069 0
M  V30 5569 H 494.101 -3.93373 -6.45596 0
M  V30 5570 H 495.369 -3.00132 -7.19403 0
M  V30 5571 N 499.598 0.982988 -1.23187 0
M  V30 5572 C 500.826 1.75921 -1.08901 0
M  V30 5573 C 501.241 1.85341 0.359719 0
M  V30 5574 O 500.598 1.33072 1.24892 0
M  V30 5575 C 500.649 3.18742 -1.70545 0
M  V30 5576 O 500.37 3.09814 -3.09753 0
M  V30 5577 C 501.871 4.1277 -1.61667 0
M  V30 5578 H 499.091 0.552166 -0.381252 0
M  V30 5579 H 501.635 1.23516 -1.62985 0
M  V30 5580 H 499.79 3.68182 -1.20501 0
M  V30 5581 H 500.204 3.99703 -3.39614 0
M  V30 5582 H 501.678 5.10697 -2.09506 0
M  V30 5583 H 502.155 4.3542 -0.575009 0
M  V30 5584 H 502.761 3.69232 -2.11064 0
M  V30 5585 N 501.076 1.04316 1.18135 0
M  V30 5586 C 502.006 0.657299 2.24058 0
M  V30 5587 C 502.987 -0.340678 1.66654 0
M  V30 5588 O 504.172 -0.220223 1.92947 0
M  V30 5589 C 501.302 0.0220715 3.47293 0
M  V30 5590 C 500.256 0.943857 4.17463 0
M  V30 5591 C 499.582 0.172973 5.3442 0
M  V30 5592 C 500.882 2.26409 4.70677 0
M  V30 5593 H 502.576 1.5428 2.56589 0
M  V30 5594 H 500.122 0.743263 1.23335 0
M  V30 5595 H 502.075 -0.259607 4.206 0
M  V30 5596 H 500.799 -0.898323 3.14003 0
M  V30 5597 H 499.458 1.20996 3.46057 0
M  V30 5598 H 499.106 -0.749907 4.97379 0
M  V30 5599 H 498.806 0.787098 5.82304 0
M  V30 5600 H 500.33 -0.101628 6.10515 0
M  V30 5601 H 501.744 2.04294 5.35665 0
M  V30 5602 H 500.141 2.8314 5.29105 0
M  V30 5603 H 501.211 2.90883 3.87962 0
M  V30 5604 N 502.554 -1.34406 0.822964 0
M  V30 5605 C 503.794 -2.00103 0.416915 0
M  V30 5606 C 504.158 -1.63826 -1.00125 0
M  V30 5607 O 505.359 -2.22367 -1.51018 0
M  V30 5608 C 503.63 -3.52101 0.613151 0
M  V30 5609 S 505.189 -4.37774 0.299956 0
M  V30 5610 H 502.007 -0.69333 0.157527 0
M  V30 5611 H 504.609 -1.63698 1.06879 0
M  V30 5612 H 503.313 -3.75991 1.64496 0
M  V30 5613 H 502.844 -3.93364 -0.0534554 0
M  V30 5614 H 504.859 -4.8822 -0.886336 0
M  V30 5615 N 504.032 -0.577932 -1.46621 0
M  V30 5616 C 505.28 -0.061566 -2.02006 0
M  V30 5617 C 505.601 1.30117 -1.4524 0
M  V30 5618 O 504.871 1.85313 -0.63529 0
M  V30 5619 H 503.451 -0.0197692 -0.746738 0
M  V30 5620 H 506.113 -0.752631 -1.79782 0
M  V30 5621 H 505.209 0.0110238 -3.12098 0
M  V30 5622 N 505.51 1.54411 -0.315457 0
M  V30 5623 C 506.473 2.22713 0.54142 0
M  V30 5624 C 507.473 1.2179 1.04995 0
M  V30 5625 O 508.663 1.46426 0.943667 0
M  V30 5626 C 505.795 2.92485 1.75116 0
M  V30 5627 H 506.988 2.99849 -0.0555508 0
M  V30 5628 H 504.541 1.56159 -0.0664453 0
M  V30 5629 H 505.276 2.19466 2.38758 0
M  V30 5630 H 505.061 3.66483 1.39401 0
M  V30 5631 H 506.551 3.44548 2.35959 0
M  V30 5632 N 506.988 0.0434614 1.5754 0
M  V30 5633 C 507.918 -0.931651 2.14109 0
M  V30 5634 C 508.899 -1.32971 1.06079 0
M  V30 5635 O 510.084 -1.40579 1.33982 0
M  V30 5636 C 507.214 -2.20914 2.67982 0
M  V30 5637 C 506.168 -1.95139 3.80926 0
M  V30 5638 C 505.494 -3.29276 4.21285 0
M  V30 5639 C 506.794 -1.27913 5.06395 0
M  V30 5640 H 508.488 -0.460497 2.95837 0
M  V30 5641 H 506.034 -0.220058 1.42309 0
M  V30 5642 H 507.987 -2.89522 3.06194 0
M  V30 5643 H 506.711 -2.70221 1.83434 0
M  V30 5644 H 505.37 -1.28945 3.43175 0
M  V30 5645 H 505.018 -3.76369 3.33699 0
M  V30 5646 H 504.718 -3.12831 4.97404 0
M  V30 5647 H 506.242 -3.99129 4.62091 0
M  V30 5648 H 507.656 -1.86544 5.42102 0
M  V30 5649 H 506.053 -1.2182 5.87605 0
M  V30 5650 H 507.123 -0.254066 4.84234 0
M  V30 5651 N 508.466 -1.55915 -0.229846 0
M  V30 5652 C 509.691 -1.8296 -0.976743 0
M  V30 5653 C 510.116 -0.622735 -1.77493 0
M  V30 5654 O 509.474 0.428431 -1.76165 0
M  V30 5655 C 509.522 -3.07916 -1.8767 0
M  V30 5656 O 508.626 -2.86028 -2.97088 0
M  V30 5657 H 507.967 -0.603453 -0.277021 0
M  V30 5658 H 510.497 -2.0312 -0.245669 0
M  V30 5659 H 510.507 -3.37802 -2.2881 0
M  V30 5660 H 509.182 -3.95389 -1.28996 0
M  V30 5661 H 507.759 -2.67355 -2.59954 0
M  V30 5662 N 509.944 0.496216 -1.49584 0
M  V30 5663 C 510.892 1.61805 -1.67098 0
M  V30 5664 C 511.886 1.60667 -0.536877 0
M  V30 5665 O 513.092 1.65118 -0.716654 0
M  V30 5666 H 509.467 0.53646 -0.526986 0
M  V30 5667 H 511.438 1.44187 -2.61252 0
M  V30 5668 C 510.187 2.99912 -1.75921 0
M  V30 5669 H 509.51 3.01496 -2.62565 0
M  V30 5670 H 510.95 3.77931 -1.92209 0
M  V30 5671 C 509.409 3.33092 -0.505088 0
M  V30 5672 O 509.939 4.00019 0.367085 0
M  V30 5673 N 508.145 2.88278 -0.366599 0
M  V30 5674 H 507.692 2.33989 -1.07735 0
M  V30 5675 H 507.65 3.10846 0.47142 0
M  V30 5676 N 511.423 1.38739 0.74761 0
M  V30 5677 C 512.356 1.3083 1.86972 0
M  V30 5678 C 513.334 0.184229 1.61553 0
M  V30 5679 O 514.518 0.36256 1.8498 0
M  V30 5680 C 511.645 1.02854 3.22705 0
M  V30 5681 C 510.691 2.17281 3.67003 0
M  V30 5682 S 511.524 3.79468 3.77842 0
M  V30 5683 C 512.68 3.53692 5.16385 0
M  V30 5684 H 512.913 2.258 1.93395 0
M  V30 5685 H 510.446 1.24646 0.911199 0
M  V30 5686 H 512.404 0.87397 4.01089 0
M  V30 5687 H 511.065 0.0959295 3.13953 0
M  V30 5688 H 510.258 1.93267 4.65472 0
M  V30 5689 H 509.86 2.28876 2.9579 0
M  V30 5690 H 512.152 3.10176 6.02327 0
M  V30 5691 H 513.095 4.51576 5.45422 0
M  V30 5692 H 513.503 2.8807 4.85464 0
M  V30 5693 N 512.901 -0.976442 1.23707 0
M  V30 5694 C 514.317 -1.24341 1.00058 0
M  V30 5695 C 514.517 -1.99315 -0.295932 0
M  V30 5696 O 513.573 -2.3123 -1.01435 0
M  V30 5697 C 514.886 -2.03909 2.21001 0
M  V30 5698 C 516.434 -2.17034 2.25534 0
M  V30 5699 C 516.909 -2.99994 3.46075 0
M  V30 5700 N 518.4 -3.07578 3.46338 0
M  V30 5701 C 519.135 -3.72104 4.36264 0
M  V30 5702 N 518.631 -4.3842 5.36432 0
M  V30 5703 N 520.424 -3.69029 4.23998 0
M  V30 5704 H 512.575 -0.47428 2.07037 0
M  V30 5705 H 514.838 -0.272167 0.908091 0
M  V30 5706 H 514.544 -1.56198 3.15111 0
M  V30 5707 H 514.418 -3.04654 2.22409 0
M  V30 5708 H 516.805 -2.63951 1.31961 0
M  V30 5709 H 516.886 -1.15664 2.28156 0
M  V30 5710 H 516.53 -2.53772 4.39957 0
M  V30 5711 H 516.46 -4.01541 3.40694 0
M  V30 5712 H 518.951 -2.60397 2.73865 0
M  V30 5713 H 519.264 -4.85447 6.013 0
M  V30 5714 H 517.609 -4.37116 5.40328 0
M  V30 5715 H 520.8 -3.16392 3.44984 0
M  V30 5716 H 520.973 -4.19034 4.94282 0
M  V30 5717 N 514.379 -1.04941 -1.1758 0
M  V30 5718 C 515.326 -0.648155 -2.21512 0
M  V30 5719 C 516.296 0.348431 -1.62404 0
M  V30 5720 O 517.481 0.240419 -1.89279 0
M  V30 5721 C 514.621 -0.0264291 -3.4509 0
M  V30 5722 C 513.734 -1.07154 -4.185 0
M  V30 5723 C 512.869 -0.417403 -5.29558 0
M  V30 5724 C 511.908 -1.447 -5.94751 0
M  V30 5725 N 511.045 -0.817203 -6.97328 0
M  V30 5726 H 515.885 -1.53891 -2.55189 0
M  V30 5727 H 513.422 -0.769699 -1.25356 0
M  V30 5728 H 515.38 0.351456 -4.15717 0
M  V30 5729 H 514.01 0.827802 -3.12005 0
M  V30 5730 H 513.062 -1.56728 -3.46613 0
M  V30 5731 H 514.374 -1.8532 -4.63096 0
M  V30 5732 H 513.528 0.0142061 -6.06698 0
M  V30 5733 H 512.267 0.396265 -4.86087 0
M  V30 5734 H 511.272 -1.88865 -5.16343 0
M  V30 5735 H 512.497 -2.26252 -6.40302 0
M  V30 5736 H 510.443 -0.0239995 -6.55996 0
M  V30 5737 H 510.36 -1.53644 -7.40223 0
M  V30 5738 H 511.628 -0.410283 -7.7842 0
M  V30 5739 N 515.857 1.33968 -0.830081 0
M  V30 5740 C 517.104 1.98063 -0.421566 0
M  V30 5741 C 517.432 1.65787 1.0171 0
M  V30 5742 O 516.687 0.925348 1.72441 0
M  V30 5743 C 516.986 3.52679 -0.57898 0
M  V30 5744 C 516.652 4.04884 -1.98443 0
M  V30 5745 C 515.314 4.18852 -2.36888 0
M  V30 5746 C 517.666 4.32879 -2.90285 0
M  V30 5747 C 514.994 4.58145 -3.66497 0
M  V30 5748 C 517.346 4.7362 -4.19364 0
M  V30 5749 C 516.01 4.85794 -4.57778 0
M  V30 5750 H 515.28 0.724765 -0.154262 0
M  V30 5751 H 517.927 1.59792 -1.05541 0
M  V30 5752 H 516.232 3.91556 0.138219 0
M  V30 5753 H 517.929 4.00261 -0.243317 0
M  V30 5754 H 514.519 3.9448 -1.67581 0
M  V30 5755 H 518.703 4.21619 -2.61823 0
M  V30 5756 H 513.959 4.65762 -3.96075 0
M  V30 5757 H 518.133 4.9424 -4.90612 0
M  V30 5758 H 515.76 5.15998 -5.58256 0
M  V30 5759 N 517.335 0.585699 1.46312 0
M  V30 5760 C 518.245 -0.148236 2.34131 0
M  V30 5761 C 519.261 -0.882972 1.49932 0
M  V30 5762 O 520.437 -0.845484 1.82794 0
M  V30 5763 C 517.502 -1.14714 3.27172 0
M  V30 5764 C 516.563 -0.416746 4.27272 0
M  V30 5765 C 515.796 -1.36806 5.15868 0
M  V30 5766 O 516.019 -2.60475 5.07454 0
M  V30 5767 O 514.953 -0.877018 5.95476 0
M  V30 5768 H 518.779 0.572882 2.98248 0
M  V30 5769 H 516.364 0.346082 1.45336 0
M  V30 5770 H 518.246 -1.72303 3.84564 0
M  V30 5771 H 516.921 -1.84967 2.65648 0
M  V30 5772 H 515.828 0.201061 3.73559 0
M  V30 5773 H 517.161 0.244872 4.9159 0
M  V30 5774 N 518.813 -1.54241 0.323641 0
M  V30 5775 C 520.061 -2.00174 -0.278359 0
M  V30 5776 C 520.382 -1.2134 -1.52648 0
M  V30 5777 O 519.652 -0.315244 -1.93347 0
M  V30 5778 H 518.232 -0.739463 -0.105845 0
M  V30 5779 H 520.894 -1.89864 0.440204 0
M  V30 5780 H 519.99 -3.07486 -0.5347 0
M  V30 5781 N 520.291 -0.0518155 -1.57515 0
M  V30 5782 C 521.516 0.634896 -1.97443 0
M  V30 5783 C 521.941 1.63546 -0.929207 0
M  V30 5784 O 521.299 1.80981 0.107484 0
M  V30 5785 C 521.347 1.29765 -3.36442 0
M  V30 5786 O 520.451 2.41333 -3.34413 0
M  V30 5787 H 519.792 0.164994 -0.643174 0
M  V30 5788 H 522.322 -0.120407 -2.04245 0
M  V30 5789 H 522.332 1.64918 -3.73184 0
M  V30 5790 H 521.007 0.564361 -4.12053 0
M  V30 5791 H 519.584 2.08122 -3.09418 0
M  V30 5792 N 521.769 1.56035 0.221574 0
M  V30 5793 C 522.701 1.889 1.29805 0
M  V30 5794 C 523.714 0.777269 1.43047 0
M  V30 5795 O 524.903 1.05557 1.43945 0
M  V30 5796 C 522.003 2.0825 2.67367 0
M  V30 5797 C 521.176 3.39267 2.76073 0
M  V30 5798 C 520.235 3.48049 3.94649 0
M  V30 5799 O 519.261 4.2108 3.82988 0
M  V30 5800 N 520.463 2.79191 5.08953 0
M  V30 5801 H 523.228 2.81831 1.01938 0
M  V30 5802 H 520.789 1.5658 0.411612 0
M  V30 5803 H 522.781 2.11441 3.45072 0
M  V30 5804 H 521.351 1.21944 2.87834 0
M  V30 5805 H 520.571 3.48175 1.84846 0
M  V30 5806 H 521.859 4.25575 2.7886 0
M  V30 5807 H 521.257 2.19635 5.21322 0
M  V30 5808 H 519.814 2.88043 5.84701 0
M  V30 5809 N 523.247 -0.488276 1.49845 0
M  V30 5810 C 524.194 -1.58836 1.67451 0
M  V30 5811 C 525.164 -1.57886 0.515857 0
M  V30 5812 O 526.349 -1.75679 0.744403 0
M  V30 5813 C 523.489 -2.96915 1.75885 0
M  V30 5814 C 522.602 -3.07784 3.03138 0
M  V30 5815 C 521.737 -4.36673 3.02473 0
M  V30 5816 C 520.776 -4.41222 4.24252 0
M  V30 5817 N 519.913 -5.61557 4.21424 0
M  V30 5818 H 524.753 -1.43131 2.61376 0
M  V30 5819 H 522.29 -0.696186 1.29583 0
M  V30 5820 H 524.248 -3.76965 1.78755 0
M  V30 5821 H 522.878 -3.11295 0.85414 0
M  V30 5822 H 521.93 -2.20717 3.09819 0
M  V30 5823 H 523.242 -3.07005 3.93128 0
M  V30 5824 H 522.396 -5.25055 3.03977 0
M  V30 5825 H 521.135 -4.40037 2.10283 0
M  V30 5826 H 520.14 -3.5124 4.22978 0
M  V30 5827 H 521.365 -4.39564 5.17649 0
M  V30 5828 H 519.311 -5.65738 3.32078 0
M  V30 5829 H 519.228 -5.62447 5.05163 0
M  V30 5830 H 520.496 -6.52111 4.2705 0
M  V30 5831 N 524.725 -1.39134 -0.740242 0
M  V30 5832 C 525.655 -1.40165 -1.86751 0
M  V30 5833 C 526.636 -0.265708 -1.68012 0
M  V30 5834 O 527.821 -0.47076 -1.88408 0
M  V30 5835 C 524.951 -1.2392 -3.2444 0
M  V30 5836 C 523.905 -2.34858 -3.57807 0
M  V30 5837 C 523.231 -2.03707 -4.94376 0
M  V30 5838 C 524.531 -3.77159 -3.61315 0
M  V30 5839 H 526.225 -2.345 -1.86145 0
M  V30 5840 H 523.771 -1.12875 -0.89416 0
M  V30 5841 H 525.724 -1.23263 -4.02969 0
M  V30 5842 H 524.448 -0.26051 -3.25559 0
M  V30 5843 H 523.107 -2.34723 -2.81604 0
M  V30 5844 H 522.755 -1.04289 -4.9207 0
M  V30 5845 H 522.455 -2.78016 -5.17669 0
M  V30 5846 H 523.979 -2.04691 -5.75268 0
M  V30 5847 H 525.393 -3.79252 -4.29931 0
M  V30 5848 H 523.79 -4.50784 -3.96124 0
M  V30 5849 H 524.86 -4.08513 -2.61238 0
M  V30 5850 N 526.204 0.969867 -1.24223 0
M  V30 5851 C 527.167 2.04564 -1.03373 0
M  V30 5852 C 528.167 1.60798 0.00819206 0
M  V30 5853 O 529.357 1.72641 -0.232567 0
M  V30 5854 C 526.489 3.36163 -0.566343 0
M  V30 5855 H 527.682 2.24494 -1.98853 0
M  V30 5856 H 525.235 1.1448 -1.06415 0
M  V30 5857 H 525.97 3.21925 0.391751 0
M  V30 5858 H 525.755 3.69273 -1.31834 0
M  V30 5859 H 527.245 4.1526 -0.441435 0
M  V30 5860 N 527.682 1.05563 1.17022 0
M  V30 5861 C 528.614 0.617888 2.20714 0
M  V30 5862 C 529.627 -0.320303 1.59618 0
M  V30 5863 O 530.816 -0.112449 1.78145 0
M  V30 5864 C 527.916 -0.115333 3.38704 0
M  V30 5865 C 527.089 0.834493 4.29366 0
M  V30 5866 C 526.148 0.141855 5.26009 0
M  V30 5867 O 525.174 0.777151 5.6387 0
M  V30 5868 N 526.376 -1.11934 5.69606 0
M  V30 5869 H 529.141 1.50981 2.58892 0
M  V30 5870 H 526.702 0.938008 1.31958 0
M  V30 5871 H 528.694 -0.588918 4.00392 0
M  V30 5872 H 527.264 -0.908967 2.99093 0
M  V30 5873 H 526.484 1.48762 3.65053 0
M  V30 5874 H 527.772 1.4791 4.86827 0
M  V30 5875 H 527.17 -1.65574 5.40927 0
M  V30 5876 H 525.727 -1.53692 6.33421 0
M  V30 5877 N 529.16 -1.33526 0.837174 0
M  V30 5878 C 530.123 -2.27551 0.274421 0
M  V30 5879 C 531.123 -1.50886 -0.555881 0
M  V30 5880 O 532.313 -1.70227 -0.369918 0
M  V30 5881 C 529.445 -3.35332 -0.613605 0
M  V30 5882 H 530.638 -2.78837 1.10408 0
M  V30 5883 H 528.191 -1.439 0.610126 0
M  V30 5884 H 528.926 -2.89285 -1.46577 0
M  V30 5885 H 528.711 -3.92095 -0.0195341 0
M  V30 5886 H 530.201 -4.05433 -1.00068 0
M  V30 5887 N 530.638 -0.59345 -1.46 0
M  V30 5888 C 531.601 0.123538 -2.28867 0
M  V30 5889 C 532.601 0.808628 -1.38989 0
M  V30 5890 O 533.791 0.658945 -1.61256 0
M  V30 5891 C 530.923 1.1847 -3.19653 0
M  V30 5892 H 532.116 -0.604843 -2.93737 0
M  V30 5893 H 529.669 -0.351875 -1.52288 0
M  V30 5894 H 530.404 1.94431 -2.59552 0
M  V30 5895 H 530.189 0.69783 -3.8584 0
M  V30 5896 H 531.679 1.68726 -3.81997 0
M  V30 5897 N 532.116 1.54067 -0.331816 0
M  V30 5898 C 533.365 1.99895 0.269209 0
M  V30 5899 C 533.678 1.22371 1.52593 0
M  V30 5900 O 534.884 1.58618 2.20347 0
M  V30 5901 C 533.34 3.55972 0.530244 0
M  V30 5902 C 532.948 4.4234 -0.709901 0
M  V30 5903 C 534.692 4.10247 1.09077 0
M  V30 5904 C 532.599 5.89905 -0.420312 0
M  V30 5905 H 531.529 0.746741 0.104371 0
M  V30 5906 H 534.18 1.78014 -0.445324 0
M  V30 5907 H 532.562 3.73873 1.30518 0
M  V30 5908 H 533.736 4.36215 -1.48504 0
M  V30 5909 H 532.051 3.98997 -1.19123 0
M  V30 5910 H 534.648 5.18095 1.32219 0
M  V30 5911 H 534.991 3.62739 2.0427 0
M  V30 5912 H 535.524 3.96011 0.376824 0
M  V30 5913 H 532.263 6.41623 -1.34164 0
M  V30 5914 H 531.783 5.98962 0.316962 0
M  V30 5915 H 533.462 6.46991 -0.0331956 0
M  V30 5916 N 533.594 0.0601682 1.57485 0
M  V30 5917 C 534.524 -0.90889 2.15085 0
M  V30 5918 C 535.505 -1.31838 1.07484 0
M  V30 5919 O 536.69 -1.3915 1.35466 0
M  V30 5920 C 533.82 -2.18059 2.7031 0
M  V30 5921 C 532.774 -1.91088 3.82974 0
M  V30 5922 C 532.1 -3.24789 4.24754 0
M  V30 5923 C 533.4 -1.22535 5.07723 0
M  V30 5924 H 535.094 -0.429093 2.96309 0
M  V30 5925 H 532.64 -0.204952 1.42534 0
M  V30 5926 H 534.593 -2.86258 3.09248 0
M  V30 5927 H 533.317 -2.6826 1.8629 0
M  V30 5928 H 531.976 -1.25297 3.44523 0
M  V30 5929 H 531.624 -3.72809 3.37672 0
M  V30 5930 H 531.324 -3.07538 5.00694 0
M  V30 5931 H 532.848 -3.94205 4.66299 0
M  V30 5932 H 534.262 -1.80783 5.4405 0
M  V30 5933 H 532.659 -1.1558 5.88864 0
M  V30 5934 H 533.729 -0.202692 4.84476 0
M  V30 5935 N 535.072 -1.5615 -0.213296 0
M  V30 5936 C 536.319 -1.79546 -0.936462 0
M  V30 5937 C 536.647 -0.630337 -1.84003 0
M  V30 5938 O 535.902 0.384883 -1.91878 0
M  V30 5939 C 536.201 -3.08772 -1.79985 0
M  V30 5940 C 535.867 -4.38532 -1.04882 0
M  V30 5941 C 534.529 -4.73787 -0.841393 0
M  V30 5942 C 536.881 -5.18609 -0.51907 0
M  V30 5943 C 534.209 -5.86627 -0.0924403 0
M  V30 5944 C 536.561 -6.32229 0.216581 0
M  V30 5945 C 535.225 -6.6608 0.435191 0
M  V30 5946 H 534.495 -0.657004 -0.342676 0
M  V30 5947 H 537.142 -1.9041 -0.204051 0
M  V30 5948 H 535.447 -2.93065 -2.60038 0
M  V30 5949 H 537.144 -3.24077 -2.36168 0
M  V30 5950 H 533.734 -4.10855 -1.22048 0
M  V30 5951 H 537.918 -4.91801 -0.666775 0
M  V30 5952 H 533.174 -6.11338 0.087081 0
M  V30 5953 H 537.348 -6.93503 0.634538 0
M  V30 5954 H 534.975 -7.5336 1.01746 0
M  V30 5955 N 536.55 0.480323 -1.50102 0
M  V30 5956 C 537.799 1.22979 -1.59872 0
M  V30 5957 C 538.112 1.93282 -0.30022 0
M  V30 5958 O 539.318 2.70086 -0.276709 0
M  V30 5959 C 537.774 2.23408 -2.82164 0
M  V30 5960 C 537.382 1.5895 -4.18854 0
M  V30 5961 C 539.126 2.99055 -3.01275 0
M  V30 5962 C 537.033 2.57611 -5.32344 0
M  V30 5963 H 535.963 0.462707 -0.59533 0
M  V30 5964 H 538.614 0.501291 -1.7652 0
M  V30 5965 H 536.996 2.99511 -2.59055 0
M  V30 5966 H 538.17 0.887 -4.52182 0
M  V30 5967 H 536.485 0.956191 -4.05273 0
M  V30 5968 H 539.082 3.72876 -3.83233 0
M  V30 5969 H 539.425 3.57897 -2.12639 0
M  V30 5970 H 539.958 2.30066 -3.24522 0
M  V30 5971 H 536.697 2.03521 -6.23105 0
M  V30 5972 H 536.217 3.26041 -5.03445 0
M  V30 5973 H 537.896 3.19627 -5.62537 0
M  V30 5974 N 538.028 1.39524 0.732853 0
M  V30 5975 C 539.276 1.36594 1.48951 0
M  V30 5976 C 539.597 -0.0367507 1.94965 0
M  V30 5977 O 538.867 -0.988391 1.69138 0
M  V30 5978 H 537.447 0.502673 0.552566 0
M  V30 5979 H 540.109 1.74411 0.869869 0
M  V30 5980 H 539.205 2.03 2.3706 0
M  V30 5981 N 539.506 -0.963266 1.24736 0
M  V30 5982 C 540.731 -1.74699 1.11781 0
M  V30 5983 C 541.156 -1.85267 -0.325258 0
M  V30 5984 O 540.514 -1.32681 -1.23553 0
M  V30 5985 C 540.562 -3.14322 1.76731 0
M  V30 5986 O 539.666 -3.99043 1.04109 0
M  V30 5987 H 539.007 -0.53684 0.390767 0
M  V30 5988 H 541.537 -1.20801 1.65131 0
M  V30 5989 H 541.547 -3.64824 1.82668 0
M  V30 5990 H 540.222 -3.05946 2.81726 0
M  V30 5991 H 538.799 -3.5752 1.05991 0
M  V30 5992 N 540.985 -1.06182 -1.16461 0
M  V30 5993 C 541.932 -0.671613 -2.20812 0
M  V30 5994 C 542.902 0.331186 -1.62765 0
M  V30 5995 O 544.087 0.22033 -1.89524 0
M  V30 5996 C 541.227 -0.063029 -3.45042 0
M  V30 5997 C 540.34 -1.11587 -4.1734 0
M  V30 5998 C 539.475 -0.473546 -5.29085 0
M  V30 5999 C 538.514 -1.51 -5.93182 0
M  V30 6000 N 537.651 -0.891118 -6.96422 0
M  V30 6001 H 542.491 -1.56589 -2.53542 0
M  V30 6002 H 540.028 -0.782951 -1.24532 0
M  V30 6003 H 541.986 0.307344 -4.16066 0
M  V30 6004 H 540.616 0.794663 -3.12866 0
M  V30 6005 H 539.668 -1.60396 -3.44931 0
M  V30 6006 H 540.98 -1.90221 -4.61104 0
M  V30 6007 H 540.134 -0.0501432 -6.06679 0
M  V30 6008 H 538.873 0.344687 -4.8648 0
M  V30 6009 H 537.878 -1.94331 -5.14311 0
M  V30 6010 H 539.103 -2.33031 -6.37866 0
M  V30 6011 H 537.049 -0.0935753 -6.55933 0
M  V30 6012 H 536.966 -1.61486 -7.38551 0
M  V30 6013 H 538.234 -0.492822 -7.77941 0
M  V30 6014 N 542.463 1.3308 -0.844243 0
M  V30 6015 C 543.393 2.3161 -0.296493 0
M  V30 6016 C 544.374 1.59215 0.598707 0
M  V30 6017 O 545.559 1.87077 0.521134 0
M  V30 6018 C 542.689 3.43313 0.524762 0
M  V30 6019 C 541.643 4.27115 -0.275106 0
M  V30 6020 C 540.969 5.30483 0.670236 0
M  V30 6021 C 542.269 5.00443 -1.49514 0
M  V30 6022 H 543.963 2.77672 -1.11976 0
M  V30 6023 H 541.509 1.33496 -0.539899 0
M  V30 6024 H 543.462 4.11273 0.918298 0
M  V30 6025 H 542.186 2.95952 1.3813 0
M  V30 6026 H 540.845 3.60787 -0.650267 0
M  V30 6027 H 540.493 4.79379 1.52332 0
M  V30 6028 H 540.193 5.87435 0.139123 0
M  V30 6029 H 541.717 6.01308 1.06117 0
M  V30 6030 H 543.131 5.61141 -1.17447 0
M  V30 6031 H 541.528 5.67071 -1.96343 0
M  V30 6032 H 542.598 4.28906 -2.26202 0
M  V30 6033 N 543.941 0.601185 1.45683 0
M  V30 6034 C 545.169 0.100054 2.06658 0
M  V30 6035 C 545.584 -1.21285 1.44691 0
M  V30 6036 O 544.941 -1.73735 0.558772 0
M  V30 6037 C 544.992 -0.0528579 3.61461 0
M  V30 6038 O 544.713 1.20809 4.21114 0
M  V30 6039 C 546.214 -0.586193 4.39407 0
M  V30 6040 H 543.434 0.065905 0.667756 0
M  V30 6041 H 545.978 0.827101 1.87028 0
M  V30 6042 H 544.133 -0.730203 3.80456 0
M  V30 6043 H 544.547 1.03368 5.14213 0
M  V30 6044 H 546.021 -0.642297 5.4825 0
M  V30 6045 H 546.498 -1.60713 4.0874 0
M  V30 6046 H 547.104 0.0568935 4.25262 0
M  V30 6047 N 545.419 -1.53889 0.339982 0
M  V30 6048 C 546.647 -2.05271 -0.259114 0
M  V30 6049 C 547.062 -1.21517 -1.44496 0
M  V30 6050 O 546.419 -0.24966 -1.80784 0
M  V30 6051 C 546.47 -3.55092 -0.677634 0
M  V30 6052 O 546.191 -4.35667 0.461051 0
M  V30 6053 C 547.692 -4.22631 -1.33782 0
M  V30 6054 H 544.912 -0.669085 -0.0506566 0
M  V30 6055 H 547.456 -1.9852 0.490935 0
M  V30 6056 H 545.611 -3.62077 -1.37763 0
M  V30 6057 H 546.025 -5.24343 0.128144 0
M  V30 6058 H 547.499 -5.28861 -1.58145 0
M  V30 6059 H 547.976 -3.74758 -2.29027 0
M  V30 6060 H 548.582 -4.19829 -0.679957 0
M  V30 6061 N 546.897 -0.0685191 -1.57451 0
M  V30 6062 C 547.827 0.89747 -2.15564 0
M  V30 6063 C 548.808 1.31266 -1.08181 0
M  V30 6064 O 549.993 1.38429 -1.36202 0
M  V30 6065 C 547.123 2.16623 -2.71463 0
M  V30 6066 C 546.077 1.89054 -3.83982 0
M  V30 6067 C 545.403 3.22532 -4.26471 0
M  V30 6068 C 546.703 1.1984 -5.08366 0
M  V30 6069 H 548.397 0.413373 -2.96533 0
M  V30 6070 H 545.943 0.197391 -1.42641 0
M  V30 6071 H 547.896 2.84614 -3.10761 0
M  V30 6072 H 546.62 2.67269 -1.8771 0
M  V30 6073 H 545.279 1.23469 -3.45183 0
M  V30 6074 H 544.927 3.71013 -3.39644 0
M  V30 6075 H 544.627 3.04879 -5.02317 0
M  V30 6076 H 546.151 3.91727 -4.68383 0
M  V30 6077 H 547.565 1.77896 -5.45001 0
M  V30 6078 H 545.962 1.12456 -5.89469 0
M  V30 6079 H 547.032 0.176996 -4.84577 0
M  V30 6080 N 548.375 1.56261 0.205012 0
M  V30 6081 C 549.285 1.96944 1.27476 0
M  V30 6082 C 550.301 0.875636 1.50362 0
M  V30 6083 O 551.477 1.18058 1.6317 0
M  V30 6084 C 548.542 2.29219 2.60115 0
M  V30 6085 C 547.603 3.52255 2.45387 0
M  V30 6086 C 546.836 3.8298 3.71701 0
M  V30 6087 O 547.059 3.15138 4.75441 0
M  V30 6088 O 545.993 4.76435 3.67823 0
M  V30 6089 H 549.819 2.88144 0.959527 0
M  V30 6090 H 547.404 1.43686 0.409217 0
M  V30 6091 H 549.286 2.51098 3.3842 0
M  V30 6092 H 547.961 1.4119 2.91285 0
M  V30 6093 H 546.868 3.35635 1.65227 0
M  V30 6094 H 548.201 4.40719 2.19152 0
M  V30 6095 N 549.853 -0.472356 1.50355 0
M  V30 6096 C 550.763 -1.59637 1.7191 0
M  V30 6097 C 551.779 -1.63247 0.602195 0
M  V30 6098 O 552.955 -1.81139 0.880369 0
M  V30 6099 C 550.02 -2.9586 1.80742 0
M  V30 6100 C 549.081 -3.02649 3.04471 0
M  V30 6101 C 548.314 -4.32374 3.12872 0
M  V30 6102 O 548.537 -5.22807 2.28099 0
M  V30 6103 O 547.471 -4.44728 4.05587 0
M  V30 6104 H 551.297 -1.44373 2.67189 0
M  V30 6105 H 548.882 -0.651717 1.34436 0
M  V30 6106 H 550.764 -3.7677 1.88739 0
M  V30 6107 H 549.439 -3.11325 0.88647 0
M  V30 6108 H 548.346 -2.20821 3.01975 0
M  V30 6109 H 549.679 -2.92119 3.9614 0
M  V30 6110 N 551.331 -1.39911 -0.725443 0
M  V30 6111 C 552.747 -1.21725 -1.03224 0
M  V30 6112 C 552.947 -0.0855224 -2.01318 0
M  V30 6113 O 552.003 0.55976 -2.46217 0
M  V30 6114 C 553.316 -2.55511 -1.58539 0
M  V30 6115 C 554.864 -2.62439 -1.70572 0
M  V30 6116 C 555.339 -3.9647 -2.29294 0
M  V30 6117 N 556.83 -3.98159 -2.36692 0
M  V30 6118 C 557.565 -4.98647 -2.83088 0
M  V30 6119 N 557.061 -6.0953 -3.2931 0
M  V30 6120 N 558.854 -4.8602 -2.82384 0
M  V30 6121 H 551.005 -2.12267 -0.075048 0
M  V30 6122 H 553.268 -0.943136 -0.0959066 0
M  V30 6123 H 552.974 -3.38926 -0.939249 0
M  V30 6124 H 552.848 -2.75905 -2.57208 0
M  V30 6125 H 555.235 -1.79401 -2.34306 0
M  V30 6126 H 555.316 -2.45885 -0.705297 0
M  V30 6127 H 554.96 -4.79942 -1.66186 0
M  V30 6128 H 554.89 -4.10349 -3.30032 0
M  V30 6129 H 557.381 -3.18085 -2.04035 0
M  V30 6130 H 557.694 -6.82106 -3.6325 0
M  V30 6131 H 556.039 -6.1311 -3.27294 0
M  V30 6132 H 559.23 -3.98493 -2.45603 0
M  V30 6133 H 559.403 -5.64478 -3.18226 0
M  V30 6134 N 552.809 0.956637 -1.25245 0
M  V30 6135 C 553.756 2.053 -1.05454 0
M  V30 6136 C 554.726 1.66062 0.0356889 0
M  V30 6137 O 555.911 1.90415 -0.121099 0
M  V30 6138 C 553.051 3.38391 -0.677191 0
M  V30 6139 C 552.164 3.90758 -1.84206 0
M  V30 6140 C 551.299 5.12165 -1.40926 0
M  V30 6141 C 550.338 5.56757 -2.54338 0
M  V30 6142 N 549.475 6.69376 -2.11848 0
M  V30 6143 H 554.315 2.21562 -1.99284 0
M  V30 6144 H 551.852 1.08578 -0.992434 0
M  V30 6145 H 553.81 4.1488 -0.43938 0
M  V30 6146 H 552.44 3.22021 0.224127 0
M  V30 6147 H 551.492 3.10808 -2.19323 0
M  V30 6148 H 552.804 4.19802 -2.69383 0
M  V30 6149 H 551.958 5.96065 -1.13098 0
M  V30 6150 H 550.697 4.84832 -0.528175 0
M  V30 6151 H 549.702 4.71423 -2.82913 0
M  V30 6152 H 550.927 5.861 -3.43022 0
M  V30 6153 H 548.873 6.43756 -1.26153 0
M  V30 6154 H 548.79 6.97927 -2.90574 0
M  V30 6155 H 550.058 7.5669 -1.87191 0
M  V30 6156 N 554.287 1.06798 1.15896 0
M  V30 6157 C 555.197 0.694564 2.24083 0
M  V30 6158 C 556.213 -0.291687 1.71538 0
M  V30 6159 O 557.389 -0.139723 2.00915 0
M  V30 6160 C 554.454 0.0921014 3.46578 0
M  V30 6161 C 553.515 1.13087 4.14137 0
M  V30 6162 C 552.748 0.557064 5.30785 0
M  V30 6163 O 552.971 -0.628623 5.66925 0
M  V30 6164 O 551.905 1.29924 5.8771 0
M  V30 6165 H 555.731 1.59663 2.58344 0
M  V30 6166 H 553.316 0.840575 1.2351 0
M  V30 6167 H 555.198 -0.241884 4.20705 0
M  V30 6168 H 553.873 -0.78337 3.14078 0
M  V30 6169 H 552.78 1.51712 3.41957 0
M  V30 6170 H 554.113 1.97805 4.50704 0
M  V30 6171 N 555.766 -1.3263 0.851289 0
M  V30 6172 C 556.696 -2.31449 0.308771 0
M  V30 6173 C 557.677 -1.59531 -0.590255 0
M  V30 6174 O 558.862 -1.87351 -0.511205 0
M  V30 6175 C 555.992 -3.43586 -0.506548 0
M  V30 6176 C 554.946 -4.26963 0.297753 0
M  V30 6177 C 554.272 -5.30831 -0.642094 0
M  V30 6178 C 555.572 -4.99643 1.52166 0
M  V30 6179 H 557.266 -2.77074 1.13447 0
M  V30 6180 H 554.812 -1.33207 0.546971 0
M  V30 6181 H 556.765 -4.11754 -0.896474 0
M  V30 6182 H 555.489 -2.96681 -1.36558 0
M  V30 6183 H 554.148 -3.60437 0.669391 0
M  V30 6184 H 553.796 -4.8018 -1.49788 0
M  V30 6185 H 553.496 -5.87501 -0.107968 0
M  V30 6186 H 555.02 -6.01862 -1.02927 0
M  V30 6187 H 556.434 -5.6051 1.20421 0
M  V30 6188 H 554.831 -5.66022 1.99347 0
M  V30 6189 H 555.901 -4.27701 2.28474 0
M  V30 6190 N 557.244 -0.608902 -1.45362 0
M  V30 6191 C 558.472 -0.111013 -2.06602 0
M  V30 6192 C 558.887 1.20516 -1.45332 0
M  V30 6193 O 558.244 1.73437 -0.567978 0
M  V30 6194 C 558.295 0.033688 -3.61484 0
M  V30 6195 O 558.016 -1.23041 -4.20467 0
M  V30 6196 C 559.517 0.562882 -4.39712 0
M  V30 6197 H 556.737 -0.0694453 -0.667397 0
M  V30 6198 H 559.281 -0.837008 -1.86586 0
M  V30 6199 H 557.436 0.710016 -3.80838 0
M  V30 6200 H 557.85 -1.06094 -5.13658 0
M  V30 6201 H 559.324 0.613213 -5.48583 0
M  V30 6202 H 559.801 1.58543 -4.09586 0
M  V30 6203 H 560.407 -0.0794454 -4.25226 0
M  V30 6204 N 558.722 1.53707 -0.348139 0
M  V30 6205 C 559.999 1.93247 0.302475 0
M  V30 6206 C 560.379 1.28012 1.67857 0
M  V30 6207 O 559.727 0.43274 2.24365 0
M  V30 6208 C 559.937 3.47031 0.370159 0
M  V30 6209 C 561.285 4.20066 0.61882 0
M  V30 6210 O 562.309 3.53319 0.452087 0
M  V30 6211 O 561.168 5.38318 0.94215 0
M  V30 6212 H 558.262 0.807736 0.177458 0
M  V30 6213 H 560.808 1.64927 -0.399651 0
M  V30 6214 H 559.58 3.86745 -0.59534 0
M  V30 6215 H 559.203 3.81532 1.11888 0
M  V30 6216 N 560.2 0.0768682 1.57412 0
M  V30 6217 C 561.449 -0.590679 1.92857 0
M  V30 6218 C 561.762 -1.70461 0.959293 0
M  V30 6219 O 562.968 -2.43207 1.20675 0
M  V30 6220 C 561.424 -1.10204 3.42612 0
M  V30 6221 C 561.032 -0.0188447 4.47996 0
M  V30 6222 C 562.776 -1.74336 3.87049 0
M  V30 6223 C 560.683 -0.544536 5.88888 0
M  V30 6224 H 559.613 -0.224411 0.71983 0
M  V30 6225 H 562.264 0.149924 1.82887 0
M  V30 6226 H 560.646 -1.89577 3.47673 0
M  V30 6227 H 561.82 0.755936 4.54557 0
M  V30 6228 H 560.135 0.526555 4.13057 0
M  V30 6229 H 562.732 -2.14708 4.89699 0
M  V30 6230 H 563.075 -2.60537 3.24694 0
M  V30 6231 H 563.608 -1.01577 3.84613 0
M  V30 6232 H 560.347 0.280426 6.549 0
M  V30 6233 H 559.867 -1.28673 5.85836 0
M  V30 6234 H 561.546 -1.01933 6.3892 0
M  V30 6235 N 561.678 -1.56367 -0.196722 0
M  V30 6236 C 562.925 -1.80529 -0.917366 0
M  V30 6237 C 563.253 -0.649817 -1.83324 0
M  V30 6238 O 562.508 0.36451 -1.92275 0
M  V30 6239 C 562.807 -3.10663 -1.767 0
M  V30 6240 C 562.473 -4.3962 -1.00225 0
M  V30 6241 C 561.135 -4.74653 -0.791095 0
M  V30 6242 C 563.487 -5.1913 -0.464035 0
M  V30 6243 C 560.815 -5.86692 -0.0302155 0
M  V30 6244 C 563.167 -6.31964 0.283625 0
M  V30 6245 C 561.831 -6.65581 0.505813 0
M  V30 6246 H 561.101 -0.660602 -0.335688 0
M  V30 6247 H 563.748 -1.90615 -0.183844 0
M  V30 6248 H 562.053 -2.95807 -2.56915 0
M  V30 6249 H 563.75 -3.26563 -2.32718 0
M  V30 6250 H 560.34 -4.12127 -1.17684 0
M  V30 6251 H 564.524 -4.9248 -0.614575 0
M  V30 6252 H 559.78 -6.11211 0.151917 0
M  V30 6253 H 563.954 -6.92791 0.708057 0
M  V30 6254 H 561.581 -7.52239 1.0973 0
M  V30 6255 N 563.156 0.464375 -1.50603 0
M  V30 6256 C 564.103 1.56152 -1.69956 0
M  V30 6257 C 565.073 1.57046 -0.54091 0
M  V30 6258 O 566.258 1.74473 -0.772258 0
M  V30 6259 C 563.398 2.94079 -1.80586 0
M  V30 6260 C 562.511 3.02923 -3.07996 0
M  V30 6261 C 561.646 4.31806 -3.09382 0
M  V30 6262 C 560.685 4.34417 -4.31218 0
M  V30 6263 N 559.822 5.54782 -4.30304 0
M  V30 6264 H 564.662 1.38955 -2.6362 0
M  V30 6265 H 562.199 0.675482 -1.30674 0
M  V30 6266 H 564.157 3.74073 -1.8473 0
M  V30 6267 H 562.787 3.09896 -0.903556 0
M  V30 6268 H 561.839 2.1576 -3.13292 0
M  V30 6269 H 563.151 3.00712 -3.97962 0
M  V30 6270 H 562.305 5.20153 -3.12292 0
M  V30 6271 H 561.044 4.36636 -2.17257 0
M  V30 6272 H 560.049 3.44467 -4.28512 0
M  V30 6273 H 561.274 4.31273 -5.24576 0
M  V30 6274 H 559.22 5.60384 -3.41037 0
M  V30 6275 H 559.137 5.54339 -5.14047 0
M  V30 6276 H 560.405 6.45235 -4.3737 0
M  V30 6277 N 564.634 1.40294 0.718013 0
M  V30 6278 C 565.581 1.40367 1.8321 0
M  V30 6279 C 566.551 0.260952 1.64037 0
M  V30 6280 O 567.736 0.458648 1.85205 0
M  V30 6281 C 564.876 1.26965 3.20895 0
M  V30 6282 C 563.989 2.50922 3.51656 0
M  V30 6283 C 563.124 2.29981 4.78834 0
M  V30 6284 C 562.163 3.49527 5.02491 0
M  V30 6285 N 561.3 3.27796 6.20882 0
M  V30 6286 H 566.14 2.35593 1.82482 0
M  V30 6287 H 563.677 1.17012 0.891444 0
M  V30 6288 H 565.635 1.17202 4.00399 0
M  V30 6289 H 564.265 0.353591 3.20858 0
M  V30 6290 H 563.317 2.71223 2.66725 0
M  V30 6291 H 564.629 3.39913 3.65048 0
M  V30 6292 H 563.783 2.17558 5.66351 0
M  V30 6293 H 562.522 1.38411 4.67647 0
M  V30 6294 H 561.527 3.6243 4.1343 0
M  V30 6295 H 562.752 4.42021 5.15553 0
M  V30 6296 H 560.698 2.38906 6.1095 0
M  V30 6297 H 560.615 4.10351 6.34939 0
M  V30 6298 H 561.883 3.19101 7.11193 0
M  V30 6299 N 566.112 -0.949982 1.2575 0
M  V30 6300 C 567.042 -2.06483 1.09028 0
M  V30 6301 C 568.023 -1.701 -0.00201532 0
M  V30 6302 O 569.208 -1.93469 0.168383 0
M  V30 6303 C 566.338 -3.39899 0.71316 0
M  V30 6304 C 565.292 -3.90309 1.75621 0
M  V30 6305 C 564.618 -5.20274 1.23365 0
M  V30 6306 C 565.918 -4.16169 3.15596 0
M  V30 6307 H 567.612 -2.20731 2.02283 0
M  V30 6308 H 565.158 -1.06066 0.973964 0
M  V30 6309 H 567.111 -4.17346 0.58309 0
M  V30 6310 H 565.835 -3.25602 -0.255091 0
M  V30 6311 H 564.494 -3.15035 1.8748 0
M  V30 6312 H 564.142 -5.02351 0.255491 0
M  V30 6313 H 563.842 -5.54971 1.93082 0
M  V30 6314 H 565.366 -6.00314 1.11607 0
M  V30 6315 H 566.78 -4.84259 3.06864 0
M  V30 6316 H 565.177 -4.62131 3.82825 0
M  V30 6317 H 566.247 -3.22273 3.6231 0
M  V30 6318 N 567.59 -1.07411 -1.15328 0
M  V30 6319 C 568.867 -0.710732 -1.82231 0
M  V30 6320 C 569.247 0.806732 -1.95077 0
M  V30 6321 O 568.595 1.72139 -1.50268 0
M  V30 6322 C 568.805 -1.42586 -3.18544 0
M  V30 6323 C 570.153 -1.57836 -3.94174 0
M  V30 6324 O 571.177 -1.38669 -3.281 0
M  V30 6325 O 570.036 -1.8938 -5.12638 0
M  V30 6326 H 567.13 -0.25297 -0.78736 0
M  V30 6327 H 569.676 -1.17508 -1.22434 0
M  V30 6328 H 568.448 -2.46008 -3.04296 0
M  V30 6329 H 568.071 -0.952332 -3.86026 0
M  V30 6330 N 569.068 1.32177 -0.85831 0
M  V30 6331 C 570.015 2.28794 -0.303607 0
M  V30 6332 C 570.985 1.55213 0.591453 0
M  V30 6333 O 572.17 1.83418 0.525585 0
M  V30 6334 C 569.31 3.41475 0.49889 0
M  V30 6335 C 568.423 4.2993 -0.422373 0
M  V30 6336 C 567.558 5.29743 0.393111 0
M  V30 6337 C 566.597 6.09842 -0.525317 0
M  V30 6338 N 565.734 7.01643 0.253208 0
M  V30 6339 H 570.574 2.75631 -1.13276 0
M  V30 6340 H 568.111 1.35606 -0.570026 0
M  V30 6341 H 570.069 4.05531 0.979826 0
M  V30 6342 H 568.699 2.95779 1.29284 0
M  V30 6343 H 567.751 3.66422 -1.02171 0
M  V30 6344 H 569.063 4.85899 -1.12709 0
M  V30 6345 H 568.217 5.9942 0.937056 0
M  V30 6346 H 566.956 4.744 1.13117 0
M  V30 6347 H 565.961 5.39066 -1.08112 0
M  V30 6348 H 567.186 6.6727 -1.26205 0
M  V30 6349 H 565.132 6.48725 0.974295 0
M  V30 6350 H 565.049 7.54981 -0.392398 0
M  V30 6351 H 566.317 7.756 0.778761 0
M  V30 6352 N 570.547 0.616602 1.45037 0
M  V30 6353 C 571.495 -0.109318 2.32343 0
M  V30 6354 C 572.489 -0.850543 1.465 0
M  V30 6355 O 573.695 -0.765088 1.62931 0
M  V30 6356 H 570.07 -0.0541091 0.750051 0
M  V30 6357 H 572.041 0.645326 2.91338 0
M  V30 6358 C 570.79 -1.0872 3.30266 0
M  V30 6359 H 570.113 -0.526267 3.96321 0
M  V30 6360 H 571.553 -1.56489 3.94065 0
M  V30 6361 C 570.012 -2.16525 2.58105 0
M  V30 6362 O 570.542 -3.244 2.36913 0
M  V30 6363 N 568.748 -1.92057 2.18088 0
M  V30 6364 H 568.295 -1.04337 2.35524 0
M  V30 6365 H 568.253 -2.64391 1.70131 0
M  V30 6366 N 572.025 -1.5352 0.356285 0
M  V30 6367 C 573.273 -2.00719 -0.235837 0
M  V30 6368 C 573.594 -1.24551 -1.5004 0
M  V30 6369 O 572.864 -0.356185 -1.92635 0
M  V30 6370 H 571.444 -0.741542 -0.0901366 0
M  V30 6371 H 574.106 -1.88887 0.480378 0
M  V30 6372 H 573.202 -3.08551 -0.469357 0
M  V30 6373 N 573.503 -0.0852151 -1.57369 0
M  V30 6374 C 574.78 0.622534 -1.85429 0
M  V30 6375 C 575.16 1.86962 -0.980229 0
M  V30 6376 O 574.508 2.28445 -0.0500219 0
M  V30 6377 C 574.718 0.947374 -3.35896 0
M  V30 6378 C 576.066 1.31509 -4.03721 0
M  V30 6379 O 577.09 1.03869 -3.40719 0
M  V30 6380 O 575.949 1.83231 -5.14868 0
M  V30 6381 H 573.043 0.310513 -0.766492 0
M  V30 6382 H 575.589 -0.117164 -1.69295 0
M  V30 6383 H 574.361 0.0622264 -3.91251 0
M  V30 6384 H 573.984 1.74338 -3.5734 0
M  V30 6385 N 574.981 1.5647 0.188427 0
M  V30 6386 C 576.229 1.80655 0.905986 0
M  V30 6387 C 576.55 0.659391 1.83513 0
M  V30 6388 O 575.82 -0.321868 1.93238 0
M  V30 6389 H 574.4 0.666391 0.337538 0
M  V30 6390 H 577.062 1.93949 0.192339 0
M  V30 6391 H 576.158 2.74066 1.49313 0
M  V30 6392 N 576.459 -0.456382 1.50847 0
M  V30 6393 C 577.391 -1.57033 1.66953 0
M  V30 6394 C 578.404 -1.53207 0.550593 0
M  V30 6395 O 579.593 -1.58328 0.824285 0
M  V30 6396 C 576.693 -2.95937 1.65149 0
M  V30 6397 C 575.866 -3.24475 2.93317 0
M  V30 6398 C 574.925 -4.43007 2.83957 0
M  V30 6399 O 573.951 -4.42592 3.57912 0
M  V30 6400 N 575.153 -5.45503 1.9851 0
M  V30 6401 H 577.918 -1.43629 2.63042 0
M  V30 6402 H 575.479 -0.645037 1.48495 0
M  V30 6403 H 577.471 -3.73224 1.56481 0
M  V30 6404 H 576.041 -3.03036 0.767343 0
M  V30 6405 H 575.261 -2.35664 3.16 0
M  V30 6406 H 576.549 -3.4036 3.78196 0
M  V30 6407 H 575.947 -5.48668 1.37766 0
M  V30 6408 H 574.504 -6.21716 1.95735 0
M  V30 6409 N 577.937 -1.40673 -0.710563 0
M  V30 6410 C 578.867 -1.44095 -1.83736 0
M  V30 6411 C 579.848 -0.301286 -1.67411 0
M  V30 6412 O 581.033 -0.510618 -1.87367 0
M  V30 6413 C 578.163 -1.30773 -3.21738 0
M  V30 6414 C 577.117 -2.42395 -3.52745 0
M  V30 6415 C 576.443 -2.14147 -4.89944 0
M  V30 6416 C 577.743 -3.84738 -3.53234 0
M  V30 6417 H 579.437 -2.38396 -1.81129 0
M  V30 6418 H 576.983 -1.14746 -0.870017 0
M  V30 6419 H 578.936 -1.31783 -4.00264 0
M  V30 6420 H 577.66 -0.329507 -3.24934 0
M  V30 6421 H 576.319 -2.40643 -2.76562 0
M  V30 6422 H 575.967 -1.14703 -4.89747 0
M  V30 6423 H 575.667 -2.88934 -5.11655 0
M  V30 6424 H 577.191 -2.16848 -5.70797 0
M  V30 6425 H 578.605 -3.88286 -4.2179 0
M  V30 6426 H 577.002 -4.59085 -3.86473 0
M  V30 6427 H 578.072 -4.13962 -2.52514 0
M  V30 6428 N 579.415 0.9433 -1.26252 0
M  V30 6429 C 580.692 1.66639 -1.02424 0
M  V30 6430 C 581.072 2.06335 0.446006 0
M  V30 6431 O 580.42 1.78551 1.42589 0
M  V30 6432 C 580.63 2.88019 -1.97094 0
M  V30 6433 C 581.978 3.59718 -2.25584 0
M  V30 6434 O 583.002 2.9812 -1.94943 0
M  V30 6435 O 581.861 4.7066 -2.77743 0
M  V30 6436 H 578.955 0.729643 -0.389294 0
M  V30 6437 H 581.501 0.995218 -1.37454 0
M  V30 6438 H 580.273 2.5556 -2.96319 0
M  V30 6439 H 579.896 3.62863 -1.62532 0
M  V30 6440 N 580.893 1.08022 1.14757 0
M  V30 6441 C 581.84 0.706657 2.19716 0
M  V30 6442 C 582.81 -0.30525 1.63271 0
M  V30 6443 O 583.995 -0.19015 1.8985 0
M  V30 6444 C 581.135 0.117914 3.44898 0
M  V30 6445 C 580.248 1.18212 4.15512 0
M  V30 6446 C 579.383 0.557659 5.28265 0
M  V30 6447 C 578.422 1.60418 5.90705 0
M  V30 6448 N 577.559 1.0018 6.94916 0
M  V30 6449 H 582.399 1.60603 2.51019 0
M  V30 6450 H 579.936 0.802664 1.23271 0
M  V30 6451 H 581.894 -0.241112 4.16503 0
M  V30 6452 H 580.524 -0.744788 3.1409 0
M  V30 6453 H 579.576 1.65863 3.42335 0
M  V30 6454 H 580.888 1.97533 4.5802 0
M  V30 6455 H 580.042 0.146654 6.06523 0
M  V30 6456 H 578.781 -0.267249 4.86967 0
M  V30 6457 H 577.786 2.02489 5.11154 0
M  V30 6458 H 579.011 2.43149 6.34078 0
M  V30 6459 H 576.957 0.197917 6.55701 0
M  V30 6460 H 576.874 1.73216 7.35889 0
M  V30 6461 H 578.142 0.616523 7.77058 0
M  V30 6462 N 582.371 -1.3172 0.865308 0
M  V30 6463 C 583.318 -2.2863 0.315736 0
M  V30 6464 C 584.288 -1.55524 -0.583213 0
M  V30 6465 O 585.473 -1.83694 -0.51585 0
M  V30 6466 C 582.613 -3.41735 -0.480773 0
M  V30 6467 C 581.726 -4.297 0.445167 0
M  V30 6468 C 580.861 -5.29944 -0.365012 0
M  V30 6469 C 579.9 -6.09554 0.557651 0
M  V30 6470 N 579.037 -7.01768 -0.215994 0
M  V30 6471 H 583.877 -2.75026 1.14736 0
M  V30 6472 H 581.414 -1.35302 0.577209 0
M  V30 6473 H 583.372 -4.06045 -0.958306 0
M  V30 6474 H 582.002 -2.96461 -1.27714 0
M  V30 6475 H 581.054 -3.65875 1.04113 0
M  V30 6476 H 582.366 -4.85295 1.15284 0
M  V30 6477 H 581.52 -5.99908 -0.905255 0
M  V30 6478 H 580.259 -4.74994 -1.106 0
M  V30 6479 H 579.264 -5.38485 1.10969 0
M  V30 6480 H 580.489 -6.66591 1.29742 0
M  V30 6481 H 578.435 -6.49232 -0.939878 0
M  V30 6482 H 578.352 -7.54762 0.432431 0
M  V30 6483 H 579.62 -7.76002 -0.737618 0
M  V30 6484 N 583.85 -0.624285 -1.44708 0
M  V30 6485 C 584.76 0.0861083 -2.34442 0
M  V30 6486 C 585.776 0.84291 -1.5222 0
M  V30 6487 O 586.952 0.796723 -1.84971 0
M  V30 6488 C 584.017 1.05999 -3.30099 0
M  V30 6489 C 583.077 0.303316 -4.28227 0
M  V30 6490 C 582.311 1.23081 -5.19314 0
M  V30 6491 O 582.534 2.46929 -5.14181 0
M  V30 6492 O 581.468 0.71883 -5.97592 0
M  V30 6493 H 585.293 -0.651756 -2.96624 0
M  V30 6494 H 582.879 -0.384493 -1.44368 0
M  V30 6495 H 584.76 1.62046 -3.88997 0
M  V30 6496 H 583.436 1.77859 -2.70459 0
M  V30 6497 H 582.343 -0.300033 -3.72895 0
M  V30 6498 H 583.676 -0.375123 -4.90768 0
M  V30 6499 N 585.328 1.53329 -0.364422 0
M  V30 6500 C 586.258 2.28627 0.474543 0
M  V30 6501 C 587.239 1.31009 1.08492 0
M  V30 6502 O 588.424 1.59878 1.10239 0
M  V30 6503 C 585.554 3.07465 1.61501 0
M  V30 6504 C 584.508 4.1276 1.13194 0
M  V30 6505 C 583.834 4.79674 2.36255 0
M  V30 6506 C 585.134 5.21847 0.217507 0
M  V30 6507 H 586.828 2.99005 -0.153656 0
M  V30 6508 H 584.374 1.43803 -0.0753406 0
M  V30 6509 H 586.327 3.58889 2.20855 0
M  V30 6510 H 585.051 2.34775 2.27042 0
M  V30 6511 H 583.71 3.62281 0.56109 0
M  V30 6512 H 583.358 4.03557 3.00251 0
M  V30 6513 H 583.058 5.50827 2.04606 0
M  V30 6514 H 584.582 5.33892 2.96297 0
M  V30 6515 H 585.996 5.6878 0.718493 0
M  V30 6516 H 584.393 6.00099 -0.00806408 0
M  V30 6517 H 585.463 4.7921 -0.740653 0
M  V30 6518 N 586.806 0.0935595 1.57322 0
M  V30 6519 C 588.055 -0.570191 1.93473 0
M  V30 6520 C 588.368 -1.69434 0.977318 0
M  V30 6521 O 589.574 -2.41914 1.23248 0
M  V30 6522 C 588.03 -1.06564 3.43762 0
M  V30 6523 C 587.638 0.0286723 4.47991 0
M  V30 6524 C 589.382 -1.70221 3.88877 0
M  V30 6525 C 587.289 -0.482046 5.89432 0
M  V30 6526 H 586.219 -0.216764 0.72217 0
M  V30 6527 H 588.87 0.169313 1.82717 0
M  V30 6528 H 587.252 -1.85878 3.49664 0
M  V30 6529 H 588.426 0.804106 4.5373 0
M  V30 6530 H 586.741 0.570336 4.12476 0
M  V30 6531 H 589.338 -2.09502 4.91948 0
M  V30 6532 H 589.681 -2.57078 3.27439 0
M  V30 6533 H 590.214 -0.974919 3.85668 0
M  V30 6534 H 586.953 0.349871 6.54566 0
M  V30 6535 H 586.473 -1.22452 5.87167 0
M  V30 6536 H 588.152 -0.951508 6.39965 0
M  V30 6537 N 588.284 -1.56567 -0.180126 0
M  V30 6538 C 589.194 -1.98947 -1.24327 0
M  V30 6539 C 590.21 -0.899446 -1.4895 0
M  V30 6540 O 591.386 -1.20639 -1.61271 0
M  V30 6541 C 588.451 -2.33328 -2.56435 0
M  V30 6542 C 587.512 -3.56114 -2.39752 0
M  V30 6543 C 586.745 -3.88845 -3.65561 0
M  V30 6544 O 586.968 -3.22662 -4.70368 0
M  V30 6545 O 585.902 -4.82226 -3.60197 0
M  V30 6546 H 589.728 -2.89634 -0.913565 0
M  V30 6547 H 587.313 -1.44319 -0.386306 0
M  V30 6548 H 589.195 -2.5645 -3.34382 0
M  V30 6549 H 587.87 -1.45806 -2.89002 0
M  V30 6550 H 586.777 -3.38221 -1.59866 0
M  V30 6551 H 588.11 -4.4415 -2.12113 0
M  V30 6552 N 589.762 0.448376 -1.51087 0
M  V30 6553 C 591.01 1.19635 -1.62886 0
M  V30 6554 C 591.331 1.91977 -0.342024 0
M  V30 6555 O 590.601 1.85094 0.641636 0
M  V30 6556 H 589.181 0.444598 -0.600285 0
M  V30 6557 H 591.843 0.515138 -1.87969 0
M  V30 6558 H 590.939 1.93194 -2.45117 0
M  V30 6559 N 591.24 1.41047 0.703093 0
M  V30 6560 C 592.47 1.43133 1.48985 0
M  V30 6561 C 592.878 0.0328537 1.89171 0
M  V30 6562 O 592.221 -0.956469 1.56835 0
M  V30 6563 C 592.283 2.26991 2.78775 0
M  V30 6564 C 591.947 3.7525 2.60837 0
M  V30 6565 C 592.944 4.67591 2.27276 0
M  V30 6566 C 590.629 4.19208 2.76712 0
M  V30 6567 C 592.623 6.01877 2.09817 0
M  V30 6568 C 590.31 5.53561 2.5887 0
M  V30 6569 C 591.308 6.4471 2.25472 0
M  V30 6570 O 590.996 7.76584 2.07778 0
M  V30 6571 H 590.728 0.489788 0.465922 0
M  V30 6572 H 593.282 1.85886 0.873822 0
M  V30 6573 H 591.512 1.79038 3.42757 0
M  V30 6574 H 593.201 2.20867 3.40547 0
M  V30 6575 H 593.967 4.34923 2.14633 0
M  V30 6576 H 589.846 3.48572 3.01693 0
M  V30 6577 H 593.39 6.72986 1.83671 0
M  V30 6578 H 589.287 5.85811 2.71102 0
M  V30 6579 H 590.055 7.87649 2.22601 0
M  V30 6580 N 592.718 -0.936591 1.26751 0
M  V30 6581 C 593.666 -2.0573 1.08527 0
M  V30 6582 C 594.66 -1.69397 0.0108784 0
M  V30 6583 O 595.866 -1.79215 0.167915 0
M  V30 6584 H 592.241 -0.673691 0.334133 0
M  V30 6585 H 594.212 -2.1825 2.03493 0
M  V30 6586 C 592.961 -3.39738 0.739845 0
M  V30 6587 H 592.284 -3.68174 1.55845 0
M  V30 6588 H 593.724 -4.18955 0.652149 0
M  V30 6589 C 592.183 -3.32292 -0.555288 0
M  V30 6590 O 592.713 -3.68794 -1.59229 0
M  V30 6591 N 590.919 -2.85394 -0.54762 0
M  V30 6592 H 590.466 -2.55886 0.296667 0
M  V30 6593 H 590.424 -2.80795 -1.41427 0
M  V30 6594 N 594.196 -1.08629 -1.14182 0
M  V30 6595 C 595.445 -0.812271 -1.84621 0
M  V30 6596 C 595.758 0.664313 -1.83973 0
M  V30 6597 O 596.964 1.05357 -2.50224 0
M  V30 6598 C 595.42 -1.4031 -3.31423 0
M  V30 6599 C 595.028 -2.91164 -3.40481 0
M  V30 6600 C 596.772 -1.20767 -4.06959 0
M  V30 6601 C 594.679 -3.43373 -4.81507 0
M  V30 6602 H 593.609 -0.30019 -0.691666 0
M  V30 6603 H 596.26 -1.30798 -1.28701 0
M  V30 6604 H 594.642 -0.835096 -3.87094 0
M  V30 6605 H 595.816 -3.5412 -2.94848 0
M  V30 6606 H 594.131 -3.09646 -2.78403 0
M  V30 6607 H 596.728 -1.57237 -5.11058 0
M  V30 6608 H 597.071 -0.147664 -4.16038 0
M  V30 6609 H 597.604 -1.74274 -3.57594 0
M  V30 6610 H 594.343 -4.48958 -4.77616 0
M  V30 6611 H 593.863 -2.85176 -5.27669 0
M  V30 6612 H 595.542 -3.40095 -5.50404 0
M  V30 6613 N 595.674 1.31259 -0.872281 0
M  V30 6614 C 596.604 2.30929 -0.345554 0
M  V30 6615 C 597.585 1.60449 0.5648 0
M  V30 6616 O 598.77 1.8814 0.481335 0
M  V30 6617 C 595.9 3.44348 0.451823 0
M  V30 6618 C 594.854 4.26435 -0.365641 0
M  V30 6619 C 594.18 5.31785 0.557562 0
M  V30 6620 C 595.48 4.97159 -1.60095 0
M  V30 6621 H 597.174 2.75234 -1.17841 0
M  V30 6622 H 594.72 1.3232 -0.568094 0
M  V30 6623 H 596.673 4.13128 0.830854 0
M  V30 6624 H 595.397 2.98816 1.31821 0
M  V30 6625 H 594.056 3.59326 -0.726649 0
M  V30 6626 H 593.704 4.82502 1.4213 0
M  V30 6627 H 593.404 5.87598 0.0144878 0
M  V30 6628 H 594.928 6.03424 0.933387 0
M  V30 6629 H 596.342 5.58523 -1.29323 0
M  V30 6630 H 594.739 5.62779 -2.08327 0
M  V30 6631 H 595.809 4.24012 -2.35249 0
M  V30 6632 N 597.152 0.631951 1.44375 0
M  V30 6633 C 598.568 0.297642 1.568 0
M  V30 6634 C 598.768 -1.19916 1.61934 0
M  V30 6635 O 597.824 -1.98324 1.56281 0
M  V30 6636 C 599.137 0.990286 2.83926 0
M  V30 6637 C 600.685 0.968507 2.97639 0
M  V30 6638 C 601.16 1.64163 4.27568 0
M  V30 6639 N 602.651 1.60826 4.34384 0
M  V30 6640 C 603.386 2.09802 5.33639 0
M  V30 6641 N 602.882 2.66973 6.39294 0
M  V30 6642 N 604.675 2.00426 5.25153 0
M  V30 6643 H 596.826 1.60353 1.39286 0
M  V30 6644 H 599.089 0.673142 0.667521 0
M  V30 6645 H 598.795 2.04519 2.8612 0
M  V30 6646 H 598.669 0.528563 3.73478 0
M  V30 6647 H 601.056 -0.0779247 2.94997 0
M  V30 6648 H 601.137 1.46873 2.09433 0
M  V30 6649 H 600.781 2.68752 4.3097 0
M  V30 6650 H 600.711 1.11624 5.14634 0
M  V30 6651 H 603.202 1.19087 3.58646 0
M  V30 6652 H 603.515 3.02074 7.11316 0
M  V30 6653 H 601.86 2.71024 6.39977 0
M  V30 6654 H 605.051 1.55483 4.41523 0
M  V30 6655 H 605.224 2.38906 6.02352 0
M  V30 6656 N 598.631 -1.53133 0.372548 0
M  V30 6657 C 599.856 -2.0625 -0.218098 0
M  V30 6658 C 600.281 -1.24375 -1.41111 0
M  V30 6659 O 599.639 -0.264554 -1.79359 0
M  V30 6660 C 599.687 -3.55858 -0.582876 0
M  V30 6661 O 598.791 -3.76667 -1.67917 0
M  V30 6662 H 598.132 -0.663317 -0.030104 0
M  V30 6663 H 600.662 -1.97477 0.535169 0
M  V30 6664 H 600.672 -3.99007 -0.851925 0
M  V30 6665 H 599.347 -4.14892 0.289428 0
M  V30 6666 H 597.924 -3.45413 -1.40513 0
M  V30 6667 N 600.109 -0.101901 -1.5727 0
M  V30 6668 C 601.356 0.560197 -1.94597 0
M  V30 6669 C 601.684 1.67767 -0.984101 0
M  V30 6670 O 600.939 1.95699 -0.00489193 0
M  V30 6671 C 601.238 1.14898 -3.38427 0
M  V30 6672 C 600.904 0.154613 -4.50635 0
M  V30 6673 C 599.566 -0.118861 -4.81053 0
M  V30 6674 C 601.918 -0.523979 -5.18559 0
M  V30 6675 C 599.246 -1.0775 -5.76721 0
M  V30 6676 C 601.598 -1.47114 -6.15256 0
M  V30 6677 C 600.262 -1.75278 -6.44076 0
M  V30 6678 H 599.532 0.204991 -0.712081 0
M  V30 6679 H 602.179 -0.17918 -1.9066 0
M  V30 6680 H 600.484 1.96476 -3.38976 0
M  V30 6681 H 602.181 1.66909 -3.64613 0
M  V30 6682 H 598.771 0.377948 -4.2693 0
M  V30 6683 H 602.955 -0.325851 -4.95229 0
M  V30 6684 H 598.211 -1.30263 -5.97362 0
M  V30 6685 H 602.385 -2.00274 -6.66981 0
M  V30 6686 H 600.012 -2.49717 -7.18015 0
M  V30 6687 N 601.587 1.56661 0.17182 0
M  V30 6688 C 602.534 1.96371 1.21273 0
M  V30 6689 C 603.504 0.82756 1.44016 0
M  V30 6690 O 604.689 1.08764 1.56764 0
M  V30 6691 C 601.829 2.32838 2.54716 0
M  V30 6692 C 600.942 3.59628 2.39356 0
M  V30 6693 C 600.077 3.85311 3.65662 0
M  V30 6694 C 599.116 5.0545 3.45234 0
M  V30 6695 N 598.253 5.27268 4.63608 0
M  V30 6696 H 603.093 2.85106 0.86709 0
M  V30 6697 H 600.63 1.41073 0.416744 0
M  V30 6698 H 602.588 2.52004 3.3249 0
M  V30 6699 H 601.218 1.47214 2.87277 0
M  V30 6700 H 600.27 3.4838 1.52761 0
M  V30 6701 H 601.582 4.4756 2.20207 0
M  V30 6702 H 600.736 4.04841 4.51872 0
M  V30 6703 H 599.475 2.95753 3.8779 0
M  V30 6704 H 598.48 4.85819 2.5741 0
M  V30 6705 H 599.705 5.96538 3.24529 0
M  V30 6706 H 597.651 4.40662 4.85956 0
M  V30 6707 H 597.568 6.09422 4.4737 0
M  V30 6708 H 598.836 5.51277 5.51103 0
M  V30 6709 N 603.065 -0.440357 1.51323 0
M  V30 6710 C 604.013 -1.55492 1.72988 0
M  V30 6711 C 605.007 -1.58564 0.596138 0
M  V30 6712 O 606.213 -1.62345 0.777443 0
M  V30 6713 H 602.588 -0.516532 0.546533 0
M  V30 6714 H 604.559 -1.34392 2.66423 0
M  V30 6715 C 603.308 -2.93176 1.86931 0
M  V30 6716 H 602.631 -2.91543 2.73574 0
M  V30 6717 H 604.071 -3.70537 2.06103 0
M  V30 6718 C 602.53 -3.30988 0.628365 0
M  V30 6719 O 603.06 -4.01106 -0.218367 0
M  V30 6720 N 601.266 -2.86719 0.473339 0
M  V30 6721 H 600.813 -2.2983 1.16345 0
M  V30 6722 H 600.771 -3.12381 -0.355727 0
M  V30 6723 N 604.543 -1.41418 -0.695603 0
M  V30 6724 C 605.453 -1.45622 -1.83933 0
M  V30 6725 C 606.469 -0.346825 -1.70508 0
M  V30 6726 O 607.645 -0.59454 -1.92424 0
M  V30 6727 C 604.71 -1.33627 -3.19914 0
M  V30 6728 C 603.771 -2.54882 -3.45447 0
M  V30 6729 C 603.004 -2.43449 -4.7494 0
M  V30 6730 O 603.227 -1.45905 -5.51424 0
M  V30 6731 O 602.161 -3.33206 -5.01256 0
M  V30 6732 H 605.987 -2.42114 -1.83342 0
M  V30 6733 H 603.572 -1.22956 -0.848658 0
M  V30 6734 H 605.454 -1.29221 -4.01098 0
M  V30 6735 H 604.129 -0.402508 -3.21188 0
M  V30 6736 H 603.036 -2.64865 -2.64192 0
M  V30 6737 H 604.369 -3.47087 -3.48987 0
M  V30 6738 N 606.021 0.929856 -1.27246 0
M  V30 6739 C 606.951 2.04722 -1.12299 0
M  V30 6740 C 607.932 1.70082 -0.0250464 0
M  V30 6741 O 609.117 1.93176 -0.199141 0
M  V30 6742 C 606.247 3.38721 -0.767145 0
M  V30 6743 C 605.201 3.87466 -1.81808 0
M  V30 6744 C 604.527 5.18246 -1.31626 0
M  V30 6745 C 605.827 4.11095 -3.22177 0
M  V30 6746 H 607.521 2.17485 -2.05769 0
M  V30 6747 H 605.067 1.04503 -0.990715 0
M  V30 6748 H 607.02 4.16366 -0.649413 0
M  V30 6749 H 605.744 3.25967 0.203259 0
M  V30 6750 H 604.403 3.12012 -1.92468 0
M  V30 6751 H 604.051 5.01881 -0.335378 0
M  V30 6752 H 603.751 5.51829 -2.01887 0
M  V30 6753 H 605.275 5.98462 -1.21143 0
M  V30 6754 H 606.689 4.79316 -3.1453 0
M  V30 6755 H 605.086 4.55982 -3.90129 0
M  V30 6756 H 606.156 3.16468 -3.67391 0
M  V30 6757 N 607.499 1.09233 1.13605 0
M  V30 6758 C 608.747 0.825525 1.84471 0
M  V30 6759 C 609.068 -0.650702 1.83823 0
M  V30 6760 O 608.338 -1.47204 1.29259 0
M  V30 6761 H 606.918 0.3024 0.683054 0
M  V30 6762 H 609.58 1.38006 1.37624 0
M  V30 6763 H 608.676 1.17727 2.89045 0
M  V30 6764 N 608.977 -1.30795 0.87923 0
M  V30 6765 C 609.887 -2.32041 0.345565 0
M  V30 6766 C 610.903 -1.65103 -0.549265 0
M  V30 6767 O 612.079 -1.9645 -0.443763 0
M  V30 6768 C 609.144 -3.43944 -0.436245 0
M  V30 6769 C 608.205 -4.26521 0.48765 0
M  V30 6770 C 607.438 -5.33081 -0.256943 0
M  V30 6771 O 607.661 -5.50762 -1.48381 0
M  V30 6772 O 606.595 -6.00635 0.389985 0
M  V30 6773 H 610.421 -2.79627 1.18501 0
M  V30 6774 H 608.006 -1.3486 0.642885 0
M  V30 6775 H 609.888 -4.12128 -0.879119 0
M  V30 6776 H 608.563 -2.98504 -1.25208 0
M  V30 6777 H 607.47 -3.61057 0.979216 0
M  V30 6778 H 608.803 -4.75551 1.26933 0
M  V30 6779 N 610.455 -0.639598 -1.44038 0
M  V30 6780 C 611.385 0.0469443 -2.33453 0
M  V30 6781 C 612.366 0.82609 -1.48694 0
M  V30 6782 O 613.551 0.790285 -1.77393 0
M  V30 6783 C 610.681 1.02338 -3.3188 0
M  V30 6784 C 609.635 0.355284 -4.26523 0
M  V30 6785 C 608.961 1.44221 -5.14883 0
M  V30 6786 C 610.261 -0.743798 -5.16977 0
M  V30 6787 H 611.955 -0.699735 -2.91108 0
M  V30 6788 H 609.501 -0.337946 -1.39978 0
M  V30 6789 H 611.454 1.51247 -3.93322 0
M  V30 6790 H 610.178 1.80105 -2.72451 0
M  V30 6791 H 608.837 -0.113239 -3.66425 0
M  V30 6792 H 608.485 2.21097 -4.51802 0
M  V30 6793 H 608.185 1.00052 -5.79019 0
M  V30 6794 H 609.709 1.93295 -5.79197 0
M  V30 6795 H 611.123 -0.337444 -5.72306 0
M  V30 6796 H 609.52 -1.10914 -5.89761 0
M  V30 6797 H 610.59 -1.60745 -4.57481 0
M  V30 6798 N 611.933 1.52934 -0.380664 0
M  V30 6799 C 612.88 2.26197 0.458641 0
M  V30 6800 C 613.85 1.27462 1.06502 0
M  V30 6801 O 615.035 1.56274 1.09467 0
M  V30 6802 C 612.175 3.06571 1.58456 0
M  V30 6803 C 611.288 4.20222 1.00189 0
M  V30 6804 C 610.423 4.88007 2.09815 0
M  V30 6805 C 609.462 5.93665 1.49092 0
M  V30 6806 N 608.599 6.55081 2.52613 0
M  V30 6807 H 613.439 2.975 -0.172595 0
M  V30 6808 H 610.976 1.4678 -0.0969426 0
M  V30 6809 H 612.934 3.51455 2.24801 0
M  V30 6810 H 611.564 2.37494 2.18624 0
M  V30 6811 H 610.616 3.79714 0.228292 0
M  V30 6812 H 611.928 4.96102 0.518064 0
M  V30 6813 H 611.082 5.36151 2.83948 0
M  V30 6814 H 609.821 4.11632 2.61555 0
M  V30 6815 H 608.826 5.44868 0.7348 0
M  V30 6816 H 610.051 6.71969 0.981582 0
M  V30 6817 H 607.997 5.8155 3.03538 0
M  V30 6818 H 607.914 7.26548 2.08961 0
M  V30 6819 H 609.182 7.07871 3.26402 0
M  V30 6820 N 613.412 0.11024 1.57214 0
M  V30 6821 C 614.36 -0.860586 2.16094 0
M  V30 6822 C 615.354 -1.28156 1.1078 0
M  V30 6823 O 616.56 -1.25433 1.29099 0
M  V30 6824 H 612.935 -0.295606 0.691463 0
M  V30 6825 H 614.906 -0.33942 2.96463 0
M  V30 6826 C 613.655 -2.10421 2.768 0
M  V30 6827 H 612.978 -1.7892 3.5753 0
M  V30 6828 H 614.418 -2.76375 3.21547 0
M  V30 6829 C 612.877 -2.88823 1.73444 0
M  V30 6830 O 613.407 -3.839 1.18251 0
M  V30 6831 N 611.613 -2.52649 1.43586 0
M  V30 6832 H 611.16 -1.754 1.8866 0
M  V30 6833 H 611.118 -3.05403 0.746735 0
M  V30 6834 N 614.89 -1.56749 -0.16351 0
M  V30 6835 C 616.136 -1.82704 -0.880168 0
M  V30 6836 C 616.469 -0.689311 -1.81555 0
M  V30 6837 O 615.744 0.308224 -1.92042 0
M  V30 6838 C 616.027 -3.19084 -1.66905 0
M  V30 6839 C 615.88 -4.43397 -0.756269 0
M  V30 6840 C 617.199 -3.52493 -2.63509 0
M  V30 6841 H 614.318 -0.664608 -0.318535 0
M  V30 6842 H 616.96 -1.89438 -0.146036 0
M  V30 6843 H 615.11 -3.13475 -2.2949 0
M  V30 6844 H 616.782 -4.61079 -0.14269 0
M  V30 6845 H 615.025 -4.33752 -0.0647944 0
M  V30 6846 H 615.696 -5.3539 -1.34393 0
M  V30 6847 H 618.172 -3.58606 -2.11047 0
M  V30 6848 H 617.048 -4.48979 -3.15767 0
M  V30 6849 H 617.309 -2.77597 -3.44082 0
M  V30 6850 N 616.368 0.432326 -1.51554 0
M  V30 6851 C 617.278 1.55023 -1.76082 0
M  V30 6852 C 618.294 1.61593 -0.645265 0
M  V30 6853 O 619.47 1.78742 -0.928086 0
M  V30 6854 C 616.535 2.90964 -1.88523 0
M  V30 6855 C 615.596 2.9447 -3.12388 0
M  V30 6856 C 614.829 4.23926 -3.24225 0
M  V30 6857 O 615.052 5.16576 -2.4188 0
M  V30 6858 O 613.986 4.33818 -4.17235 0
M  V30 6859 H 617.812 1.37238 -2.70923 0
M  V30 6860 H 615.397 0.615845 -1.36117 0
M  V30 6861 H 617.279 3.71633 -1.98662 0
M  V30 6862 H 615.954 3.08865 -0.9687 0
M  V30 6863 H 614.861 2.12737 -3.07723 0
M  V30 6864 H 616.194 2.81514 -4.03746 0
M  V30 6865 N 617.846 1.41785 0.688094 0
M  V30 6866 C 618.756 1.46596 1.83158 0
M  V30 6867 C 619.772 0.355862 1.70322 0
M  V30 6868 O 620.948 0.604737 1.92106 0
M  V30 6869 C 618.013 1.35322 3.192 0
M  V30 6870 C 617.074 2.56711 3.4409 0
M  V30 6871 C 616.307 2.45965 4.73642 0
M  V30 6872 O 616.53 1.48827 5.50642 0
M  V30 6873 O 615.464 3.35859 4.99482 0
M  V30 6874 H 619.29 2.43083 1.82056 0
M  V30 6875 H 616.875 1.23404 0.842126 0
M  V30 6876 H 618.757 1.31347 4.00407 0
M  V30 6877 H 617.432 0.419536 3.2097 0
M  V30 6878 H 616.339 2.66262 2.62784 0
M  V30 6879 H 617.672 3.48933 3.47141 0
M  V30 6880 N 619.324 -0.923095 1.27737 0
M  V30 6881 C 620.234 -2.05765 1.12685 0
M  V30 6882 C 621.25 -1.73911 0.0557197 0
M  V30 6883 O 622.426 -1.99674 0.263137 0
M  V30 6884 C 619.491 -3.37804 0.780363 0
M  V30 6885 C 618.552 -3.83326 1.93286 0
M  V30 6886 C 617.785 -5.09064 1.60281 0
M  V30 6887 O 618.008 -5.6809 0.512828 0
M  V30 6888 O 616.942 -5.50071 2.44347 0
M  V30 6889 H 620.768 -2.21378 2.07907 0
M  V30 6890 H 618.353 -1.04299 1.06968 0
M  V30 6891 H 620.235 -4.17097 0.600668 0
M  V30 6892 H 618.91 -3.23387 -0.142291 0
M  V30 6893 H 617.817 -3.049 2.16764 0
M  V30 6894 H 619.15 -4.02292 2.83588 0
M  V30 6895 N 620.802 -1.09834 -1.13024 0
M  V30 6896 C 622.048 -0.83819 -1.84668 0
M  V30 6897 C 622.381 0.634645 -1.83537 0
M  V30 6898 O 621.656 1.46753 -1.27647 0
M  V30 6899 C 621.939 -1.37933 -3.32636 0
M  V30 6900 C 621.792 -2.91857 -3.42257 0
M  V30 6901 C 623.111 -1.01654 -4.28199 0
M  V30 6902 H 620.23 -0.30595 -0.670495 0
M  V30 6903 H 622.872 -1.36044 -1.32635 0
M  V30 6904 H 621.022 -0.935111 -3.77078 0
M  V30 6905 H 622.694 -3.44759 -3.06495 0
M  V30 6906 H 620.937 -3.28776 -2.83 0
M  V30 6907 H 621.608 -3.24799 -4.46329 0
M  V30 6908 H 624.084 -1.39973 -3.9185 0
M  V30 6909 H 622.96 -1.42217 -5.30156 0
M  V30 6910 H 623.221 0.0747794 -4.42037 0
M  V30 6911 N 622.28 1.30327 -0.886154 0
M  V30 6912 C 623.557 1.90922 -0.425217 0
M  V30 6913 C 623.937 1.80533 1.09413 0
M  V30 6914 O 623.285 1.2233 1.92996 0
M  V30 6915 C 623.495 3.36529 -0.924638 0
M  V30 6916 C 624.843 4.13598 -0.960305 0
M  V30 6917 O 625.867 3.45377 -0.871382 0
M  V30 6918 O 624.726 5.35482 -1.09184 0
M  V30 6919 H 621.82 0.81668 -0.130238 0
M  V30 6920 H 624.366 1.38886 -0.975132 0
M  V30 6921 H 623.138 3.38181 -1.96849 0
M  V30 6922 H 622.761 3.96021 -0.353955 0
M  V30 6923 N 623.758 0.647228 1.43697 0
M  V30 6924 C 624.706 -0.0600105 2.32523 0
M  V30 6925 C 625.7 -0.819277 1.48271 0
M  V30 6926 O 626.906 -0.730356 1.64517 0
M  V30 6927 H 623.281 -0.0381872 0.75103 0
M  V30 6928 H 625.252 0.706978 2.89904 0
M  V30 6929 C 624.001 -1.0169 3.32497 0
M  V30 6930 H 623.324 -0.442083 3.97348 0
M  V30 6931 H 624.764 -1.48095 3.97296 0
M  V30 6932 C 623.223 -2.11002 2.6264 0
M  V30 6933 O 623.753 -3.19302 2.4374 0
M  V30 6934 N 621.959 -1.87388 2.22113 0
M  V30 6935 H 621.506 -0.993174 2.37684 0
M  V30 6936 H 621.464 -2.60723 1.75701 0
M  V30 6937 N 625.236 -1.5273 0.388769 0
M  V30 6938 C 626.485 -2.00757 -0.194833 0
M  V30 6939 C 626.798 -1.27951 -1.47946 0
M  V30 6940 O 628.004 -1.66686 -2.14308 0
M  V30 6941 C 626.46 -3.57695 -0.397762 0
M  V30 6942 C 626.068 -4.394 0.873583 0
M  V30 6943 C 627.812 -4.14012 -0.937759 0
M  V30 6944 C 625.719 -5.87938 0.638962 0
M  V30 6945 H 624.649 -0.750101 -0.0765845 0
M  V30 6946 H 627.3 -1.76239 0.511086 0
M  V30 6947 H 625.682 -3.7846 -1.16552 0
M  V30 6948 H 626.856 -4.30403 1.64591 0
M  V30 6949 H 625.171 -3.94301 1.33849 0
M  V30 6950 H 627.768 -5.22645 -1.12899 0
M  V30 6951 H 628.111 -3.7007 -1.90666 0
M  V30 6952 H 628.644 -3.97137 -0.229588 0
M  V30 6953 H 625.383 -6.36202 1.57885 0
M  V30 6954 H 624.903 -5.99726 -0.094443 0
M  V30 6955 H 626.582 -6.46423 0.273299 0
M  V30 6956 N 626.714 -0.118576 -1.57153 0
M  V30 6957 C 627.644 0.828436 -2.1831 0
M  V30 6958 C 628.625 1.27758 -1.12303 0
M  V30 6959 O 629.81 1.34026 -1.40537 0
M  V30 6960 C 626.94 2.07876 -2.78217 0
M  V30 6961 C 625.894 1.76742 -3.89803 0
M  V30 6962 C 625.22 3.08801 -4.36516 0
M  V30 6963 C 626.52 1.03606 -5.11921 0
M  V30 6964 H 628.214 0.318824 -2.97698 0
M  V30 6965 H 625.76 0.151911 -1.43196 0
M  V30 6966 H 627.713 2.74584 -3.19659 0
M  V30 6967 H 626.437 2.61161 -1.96118 0
M  V30 6968 H 625.096 1.12424 -3.48936 0
M  V30 6969 H 624.744 3.6002 -3.51276 0
M  V30 6970 H 624.444 2.88743 -5.11763 0
M  V30 6971 H 625.968 3.76627 -4.80608 0
M  V30 6972 H 627.382 1.60467 -5.50385 0
M  V30 6973 H 625.779 0.936454 -5.92748 0
M  V30 6974 H 626.849 0.0227421 -4.84895 0
M  V30 6975 N 628.193 1.56834 0.155195 0
M  V30 6976 C 629.14 1.97646 1.19184 0
M  V30 6977 C 630.11 0.842788 1.4313 0
M  V30 6978 O 631.295 1.1042 1.55602 0
M  V30 6979 C 628.435 2.35527 2.52232 0
M  V30 6980 C 627.548 3.62147 2.35529 0
M  V30 6981 C 626.683 3.89167 3.61555 0
M  V30 6982 C 625.722 5.09084 3.39853 0
M  V30 6983 N 624.859 5.32156 4.5799 0
M  V30 6984 H 629.699 2.8601 0.836802 0
M  V30 6985 H 627.236 1.41507 0.401758 0
M  V30 6986 H 629.194 2.55516 3.29799 0
M  V30 6987 H 627.824 1.50253 2.85699 0
M  V30 6988 H 626.876 3.4998 1.49057 0
M  V30 6989 H 628.188 4.49871 2.15448 0
M  V30 6990 H 627.342 4.09611 4.47553 0
M  V30 6991 H 626.081 2.9985 3.84632 0
M  V30 6992 H 625.086 4.88522 2.52243 0
M  V30 6993 H 626.311 5.99947 3.18183 0
M  V30 6994 H 624.257 4.45791 4.81255 0
M  V30 6995 H 624.174 6.14133 4.40882 0
M  V30 6996 H 625.442 5.57091 5.45225 0
M  V30 6997 N 629.671 -0.424282 1.51781 0
M  V30 6998 C 630.581 -1.54087 1.76902 0
M  V30 6999 C 631.597 -1.61249 0.653826 0
M  V30 7000 O 632.773 -1.78247 0.937552 0
M  V30 7001 C 629.838 -2.8996 1.90063 0
M  V30 7002 C 628.899 -2.92809 3.13945 0
M  V30 7003 C 628.132 -4.22201 3.26469 0
M  V30 7004 O 628.355 -5.15286 2.44616 0
M  V30 7005 O 627.289 -4.31599 4.1953 0
M  V30 7006 H 631.115 -1.358 2.71647 0
M  V30 7007 H 628.7 -0.608618 1.36441 0
M  V30 7008 H 630.582 -3.70575 2.0063 0
M  V30 7009 H 629.257 -3.08347 0.985067 0
M  V30 7010 H 628.164 -2.11102 3.08847 0
M  V30 7011 H 629.497 -2.79369 4.05233 0
M  V30 7012 N 631.149 -1.42148 -0.680565 0
M  V30 7013 C 632.395 -1.42521 -1.44277 0
M  V30 7014 C 632.728 -0.0393718 -1.9416 0
M  V30 7015 O 632.003 0.935425 -1.70529 0
M  V30 7016 C 632.286 -2.44475 -2.64394 0
M  V30 7017 C 632.139 -3.92226 -2.20179 0
M  V30 7018 C 633.458 -2.43491 -3.66606 0
M  V30 7019 H 630.577 -0.518985 -0.523282 0
M  V30 7020 H 633.219 -1.73524 -0.773914 0
M  V30 7021 H 631.369 -2.18168 -3.21458 0
M  V30 7022 H 633.041 -4.29493 -1.68327 0
M  V30 7023 H 631.284 -4.0637 -1.5181 0
M  V30 7024 H 631.955 -4.59133 -3.06433 0
M  V30 7025 H 634.431 -2.66872 -3.19247 0
M  V30 7026 H 633.307 -3.16816 -4.4824 0
M  V30 7027 H 633.568 -1.45881 -4.17338 0
M  V30 7028 N 632.627 0.916307 -1.28225 0
M  V30 7029 C 633.904 1.64429 -1.05936 0
M  V30 7030 C 634.284 2.07234 0.402139 0
M  V30 7031 O 633.632 1.81535 1.3877 0
M  V30 7032 C 633.842 2.83773 -2.03159 0
M  V30 7033 C 635.19 3.54852 -2.33164 0
M  V30 7034 O 636.214 2.93918 -2.01223 0
M  V30 7035 O 635.073 4.64663 -2.87664 0
M  V30 7036 H 632.167 0.721221 -0.404683 0
M  V30 7037 H 634.713 0.965838 -1.39534 0
M  V30 7038 H 633.485 2.49217 -3.01673 0
M  V30 7039 H 633.108 3.59333 -1.70192 0
M  V30 7040 N 634.105 1.10431 1.1244 0
M  V30 7041 C 635.352 0.846717 1.83948 0
M  V30 7042 C 635.68 -0.627709 1.84093 0
M  V30 7043 O 634.935 -1.47876 1.28184 0
M  V30 7044 C 635.234 1.34022 3.3132 0
M  V30 7045 C 634.9 2.82606 3.51347 0
M  V30 7046 C 633.562 3.23182 3.56521 0
M  V30 7047 C 635.914 3.78356 3.58464 0
M  V30 7048 C 633.242 4.58258 3.66356 0
M  V30 7049 C 635.594 5.13234 3.69829 0
M  V30 7050 C 634.258 5.53384 3.73259 0
M  V30 7051 H 633.528 0.309836 0.673114 0
M  V30 7052 H 636.175 1.38091 1.32677 0
M  V30 7053 H 634.48 0.726047 3.85014 0
M  V30 7054 H 636.177 1.11739 3.85118 0
M  V30 7055 H 632.767 2.50212 3.47983 0
M  V30 7056 H 636.951 3.48115 3.53737 0
M  V30 7057 H 632.207 4.88787 3.67284 0
M  V30 7058 H 636.381 5.87272 3.74279 0
M  V30 7059 H 634.008 6.58045 3.80633 0
M  V30 7060 N 635.583 -1.29855 0.893053 0
M  V30 7061 C 636.86 -1.90694 0.435336 0
M  V30 7062 C 637.24 -1.8111 -1.08454 0
M  V30 7063 O 636.588 -1.23352 -1.92345 0
M  V30 7064 C 636.798 -3.36033 0.942472 0
M  V30 7065 C 638.146 -4.13083 0.982226 0
M  V30 7066 O 639.17 -3.4491 0.889686 0
M  V30 7067 O 638.029 -5.34896 1.12022 0
M  V30 7068 H 635.123 -0.815978 0.134567 0
M  V30 7069 H 637.669 -1.38367 0.982484 0
M  V30 7070 H 636.441 -3.37132 1.9864 0
M  V30 7071 H 636.064 -3.95828 0.374952 0
M  V30 7072 N 637.061 -0.65484 -1.43351 0
M  V30 7073 C 638.008 0.0357713 -2.30772 0
M  V30 7074 C 638.978 0.813035 -1.44841 0
M  V30 7075 O 640.163 0.789314 -1.73708 0
M  V30 7076 C 637.303 0.995084 -3.30442 0
M  V30 7077 C 636.416 0.21375 -4.31471 0
M  V30 7078 C 635.551 1.16701 -5.18222 0
M  V30 7079 C 634.59 0.376201 -6.10943 0
M  V30 7080 N 633.727 1.28113 -6.90313 0
M  V30 7081 H 638.567 -0.71559 -2.89281 0
M  V30 7082 H 636.104 -0.364645 -1.42509 0
M  V30 7083 H 638.062 1.5649 -3.86739 0
M  V30 7084 H 636.692 1.7133 -2.7358 0
M  V30 7085 H 635.744 -0.472377 -3.77456 0
M  V30 7086 H 637.056 -0.401103 -4.97185 0
M  V30 7087 H 636.21 1.8074 -5.79153 0
M  V30 7088 H 634.949 1.81577 -4.52638 0
M  V30 7089 H 633.954 -0.277534 -5.49099 0
M  V30 7090 H 635.179 -0.268178 -6.7857 0
M  V30 7091 H 633.125 1.91666 -6.27376 0
M  V30 7092 H 633.042 0.720879 -7.52555 0
M  V30 7093 H 634.31 1.90962 -7.55747 0
M  V30 7094 N 638.539 1.52521 -0.396863 0
M  V30 7095 C 639.487 2.28217 0.44943 0
M  V30 7096 C 640.481 1.32416 1.05652 0
M  V30 7097 O 641.687 1.49925 0.996124 0
M  V30 7098 H 638.062 0.733966 0.1637 0
M  V30 7099 H 640.033 2.97658 -0.210367 0
M  V30 7100 C 638.782 3.10713 1.56054 0
M  V30 7101 H 638.105 3.84291 1.10273 0
M  V30 7102 H 639.545 3.66803 2.12677 0
M  V30 7103 C 638.004 2.23499 2.52091 0
M  V30 7104 O 638.534 1.8669 3.55682 0
M  V30 7105 N 636.74 1.8751 2.2201 0
M  V30 7106 H 636.287 2.17643 1.37802 0
M  V30 7107 H 636.245 1.29448 2.86514 0
M  V30 7108 N 640.017 0.126909 1.57088 0
M  V30 7109 C 641.265 -0.528123 1.95078 0
M  V30 7110 C 641.586 -1.66708 1.0116 0
M  V30 7111 O 640.856 -1.95777 0.0693527 0
M  V30 7112 H 639.436 -0.198087 0.720257 0
M  V30 7113 H 642.098 0.197703 1.93895 0
M  V30 7114 H 641.194 -0.917507 2.98309 0
M  V30 7115 N 641.495 -1.56914 -0.146875 0
M  V30 7116 C 642.725 -1.87243 -0.873126 0
M  V30 7117 C 643.133 -0.713127 -1.75246 0
M  V30 7118 O 642.476 0.326228 -1.8078 0
M  V30 7119 C 642.538 -3.12279 -1.78107 0
M  V30 7120 C 642.202 -4.44082 -1.07889 0
M  V30 7121 C 643.199 -5.18096 -0.432734 0
M  V30 7122 C 640.884 -4.90807 -1.06836 0
M  V30 7123 C 642.878 -6.37039 0.214569 0
M  V30 7124 C 640.565 -6.09674 -0.417243 0
M  V30 7125 C 641.563 -6.82636 0.223093 0
M  V30 7126 O 641.251 -7.99245 0.863884 0
M  V30 7127 H 640.983 -0.624896 -0.257839 0
M  V30 7128 H 643.537 -2.04892 -0.14434 0
M  V30 7129 H 641.767 -2.90639 -2.5508 0
M  V30 7130 H 643.456 -3.28854 -2.37929 0
M  V30 7131 H 644.222 -4.83066 -0.432677 0
M  V30 7132 H 640.101 -4.3394 -1.55618 0
M  V30 7133 H 643.645 -6.93927 0.714965 0
M  V30 7134 H 639.542 -6.44165 -0.414967 0
M  V30 7135 H 640.31 -8.14912 0.765564 0
M  V30 7136 N 642.974 0.416227 -1.52004 0
M  V30 7137 C 644.223 1.16088 -1.64944 0
M  V30 7138 C 644.536 1.91835 -0.381928 0
M  V30 7139 O 645.742 2.6867 -0.391013 0
M  V30 7140 C 644.198 2.1124 -2.91386 0
M  V30 7141 C 643.806 1.41042 -4.25219 0
M  V30 7142 C 645.55 2.86008 -3.13688 0
M  V30 7143 C 643.457 2.34801 -5.42791 0
M  V30 7144 H 642.387 0.437041 -0.61442 0
M  V30 7145 H 645.038 0.425971 -1.78487 0
M  V30 7146 H 643.42 2.88254 -2.71525 0
M  V30 7147 H 644.594 0.694416 -4.55538 0
M  V30 7148 H 642.909 0.78344 -4.08964 0
M  V30 7149 H 645.506 3.56286 -3.98703 0
M  V30 7150 H 645.849 3.48556 -2.27628 0
M  V30 7151 H 646.382 2.16095 -3.33988 0
M  V30 7152 H 643.121 1.7691 -6.31176 0
M  V30 7153 H 642.641 3.04395 -5.16821 0
M  V30 7154 H 644.32 2.9548 -5.75587 0
M  V30 7155 N 644.452 1.42507 0.673017 0
M  V30 7156 C 645.362 1.4853 1.81593 0
M  V30 7157 C 646.378 0.373907 1.69935 0
M  V30 7158 O 647.554 0.625078 1.91454 0
M  V30 7159 C 644.619 1.387 3.17747 0
M  V30 7160 C 643.68 2.60346 3.41348 0
M  V30 7161 C 642.913 2.50975 4.71007 0
M  V30 7162 O 643.136 1.54659 5.49033 0
M  V30 7163 O 642.07 3.41138 4.95892 0
M  V30 7164 H 645.896 2.45001 1.79467 0
M  V30 7165 H 643.481 1.2429 0.82899 0
M  V30 7166 H 645.363 1.35586 3.98992 0
M  V30 7167 H 644.038 0.453555 3.20507 0
M  V30 7168 H 642.945 2.69034 2.59945 0
M  V30 7169 H 644.278 3.52595 3.43421 0
M  V30 7170 N 645.93 -0.909495 1.28709 0
M  V30 7171 C 647.16 -1.69027 1.188 0
M  V30 7172 C 647.568 -1.87469 -0.255329 0
M  V30 7173 O 646.911 -1.40458 -1.18394 0
M  V30 7174 C 646.973 -3.10064 1.81936 0
M  V30 7175 C 646.637 -3.14891 3.31199 0
M  V30 7176 C 647.634 -2.95768 4.27571 0
M  V30 7177 C 645.319 -3.37269 3.7223 0
M  V30 7178 C 647.313 -2.98942 5.6295 0
M  V30 7179 C 645 -3.40074 5.07733 0
M  V30 7180 C 645.998 -3.20932 6.02903 0
M  V30 7181 O 645.686 -3.23507 7.35934 0
M  V30 7182 H 645.418 -0.535014 0.413203 0
M  V30 7183 H 647.972 -1.14645 1.70428 0
M  V30 7184 H 646.202 -3.66005 1.24808 0
M  V30 7185 H 647.891 -3.70185 1.66486 0
M  V30 7186 H 648.657 -2.78302 3.97206 0
M  V30 7187 H 644.536 -3.51212 2.98615 0
M  V30 7188 H 648.08 -2.83919 6.37209 0
M  V30 7189 H 643.977 -3.5707 5.37747 0
M  V30 7190 H 644.745 -3.3984 7.44615 0
M  V30 7191 N 647.408 -1.11026 -1.11852 0
M  V30 7192 C 648.633 -0.879064 -1.87849 0
M  V30 7193 C 649.058 0.565406 -1.79401 0
M  V30 7194 O 648.416 1.39886 -1.15333 0
M  V30 7195 C 648.464 -1.33985 -3.34784 0
M  V30 7196 O 647.568 -0.508803 -4.09249 0
M  V30 7197 H 646.909 -0.316992 -0.583448 0
M  V30 7198 H 649.439 -1.47863 -1.41413 0
M  V30 7199 H 649.449 -1.33248 -3.85628 0
M  V30 7200 H 648.124 -2.39172 -3.40249 0
M  V30 7201 H 646.701 -0.581913 -3.68332 0
M  V30 7202 N 648.886 1.2938 -0.899927 0
M  V30 7203 C 649.796 2.31462 -0.382437 0
M  V30 7204 C 650.812 1.65956 0.522929 0
M  V30 7205 O 651.988 1.97131 0.412454 0
M  V30 7206 C 649.053 3.44595 0.381472 0
M  V30 7207 C 648.114 4.25692 -0.555444 0
M  V30 7208 C 647.347 5.33422 0.172102 0
M  V30 7209 O 647.57 5.53053 1.396 0
M  V30 7210 O 646.504 5.99939 -0.485491 0
M  V30 7211 H 650.33 2.77706 -1.22934 0
M  V30 7212 H 647.915 1.33821 -0.664259 0
M  V30 7213 H 649.797 4.13474 0.813442 0
M  V30 7214 H 648.472 3.00458 1.20443 0
M  V30 7215 H 647.379 3.59453 -1.03653 0
M  V30 7216 H 648.712 4.73471 -1.34483 0
M  V30 7217 N 650.364 0.662433 1.43002 0
M  V30 7218 C 651.611 0.179591 2.01702 0
M  V30 7219 C 651.939 -1.20964 1.52309 0
M  V30 7220 O 651.194 -1.82343 0.7106 0
M  V30 7221 C 651.493 0.149363 3.57088 0
M  V30 7222 C 651.159 1.48158 4.25864 0
M  V30 7223 C 649.821 1.84638 4.44367 0
M  V30 7224 C 652.173 2.35953 4.64732 0
M  V30 7225 C 649.501 3.08561 4.99006 0
M  V30 7226 C 651.853 3.59176 5.20745 0
M  V30 7227 C 650.517 3.95841 5.37463 0
M  V30 7228 H 649.787 0.0657172 0.73808 0
M  V30 7229 H 652.434 0.854968 1.71355 0
M  V30 7230 H 650.739 -0.609491 3.8703 0
M  V30 7231 H 652.436 -0.241241 4.00274 0
M  V30 7232 H 649.026 1.18777 4.11813 0
M  V30 7233 H 653.21 2.09058 4.50121 0
M  V30 7234 H 648.466 3.37005 5.10135 0
M  V30 7235 H 652.64 4.27417 5.49807 0
M  V30 7236 H 650.267 4.91942 5.79566 0
M  V30 7237 N 651.842 -1.52309 0.404946 0
M  V30 7238 C 653.091 -2.00952 -0.173529 0
M  V30 7239 C 653.404 -1.29512 -1.46581 0
M  V30 7240 O 654.61 -1.6895 -2.12528 0
M  V30 7241 C 653.066 -3.58097 -0.359801 0
M  V30 7242 C 652.674 -4.38449 0.920138 0
M  V30 7243 C 654.418 -4.14984 -0.893794 0
M  V30 7244 C 652.325 -5.87227 0.701285 0
M  V30 7245 H 651.255 -0.750871 -0.0686244 0
M  V30 7246 H 653.906 -1.75687 0.529749 0
M  V30 7247 H 652.288 -3.79675 -1.12531 0
M  V30 7248 H 653.462 -4.28633 1.69147 0
M  V30 7249 H 651.777 -3.92859 1.38024 0
M  V30 7250 H 654.374 -5.23813 -1.0735 0
M  V30 7251 H 654.717 -3.72072 -1.8673 0
M  V30 7252 H 655.25 -3.97358 -0.187453 0
M  V30 7253 H 651.989 -6.34491 1.64624 0
M  V30 7254 H 651.509 -5.99792 -0.0308288 0
M  V30 7255 H 653.188 -6.46096 0.341846 0
M  V30 7256 N 653.32 -0.135238 -1.57019 0
M  V30 7257 C 654.545 0.529343 -2.00531 0
M  V30 7258 C 654.97 1.58391 -1.01459 0
M  V30 7259 O 654.328 1.81296 0.0113986 0
M  V30 7260 C 654.376 1.11748 -3.42848 0
M  V30 7261 O 653.48 2.23267 -3.46736 0
M  V30 7262 H 652.821 0.130669 -0.651016 0
M  V30 7263 H 655.351 -0.228503 -2.0332 0
M  V30 7264 H 655.361 1.44905 -3.81401 0
M  V30 7265 H 654.036 0.345147 -4.14465 0
M  V30 7266 H 652.613 1.91428 -3.20015 0
M  V30 7267 N 654.798 1.5699 0.138552 0
M  V30 7268 C 656.044 1.84081 0.85099 0
M  V30 7269 C 656.377 0.718107 1.80435 0
M  V30 7270 O 655.652 -0.277633 1.92508 0
M  V30 7271 C 655.935 3.21699 1.61808 0
M  V30 7272 C 655.788 4.44544 0.685633 0
M  V30 7273 C 657.107 3.5664 2.57868 0
M  V30 7274 H 654.226 0.669592 0.307922 0
M  V30 7275 H 656.868 1.89646 0.11588 0
M  V30 7276 H 655.018 3.17086 2.24474 0
M  V30 7277 H 656.69 4.61248 0.0693179 0
M  V30 7278 H 654.933 4.338 -0.00421993 0
M  V30 7279 H 655.604 5.3746 1.25858 0
M  V30 7280 H 658.08 3.61918 2.05316 0
M  V30 7281 H 656.956 4.53946 3.08584 0
M  V30 7282 H 657.217 2.83036 3.39622 0
M  V30 7283 N 656.276 -0.40816 1.52223 0
M  V30 7284 C 657.516 -1.16418 1.68006 0
M  V30 7285 C 657.88 -1.87749 0.401793 0
M  V30 7286 O 659.081 -2.65245 0.435743 0
M  V30 7287 C 657.352 -2.13143 2.86889 0
M  V30 7288 S 658.911 -2.96839 3.2316 0
M  V30 7289 H 655.729 -0.394373 0.5916 0
M  V30 7290 H 658.331 -0.451349 1.90219 0
M  V30 7291 H 657.035 -1.59428 3.78168 0
M  V30 7292 H 656.566 -2.88963 2.66953 0
M  V30 7293 H 658.581 -4.151 2.71857 0
M  V30 7294 N 657.755 -1.42862 -0.66545 0
M  V30 7295 C 658.688 -1.41509 -1.79026 0
M  V30 7296 C 659.666 -0.278106 -1.60204 0
M  V30 7297 O 660.85 -0.469792 -1.82552 0
M  V30 7298 C 657.977 -1.21494 -3.1616 0
M  V30 7299 C 657.023 -2.38308 -3.53711 0
M  V30 7300 S 657.856 -4.00852 -3.55075 0
M  V30 7301 C 659.012 -3.83197 -4.94885 0
M  V30 7302 H 659.245 -2.36691 -1.79902 0
M  V30 7303 H 656.778 -1.29746 -0.836977 0
M  V30 7304 H 658.736 -1.10633 -3.95311 0
M  V30 7305 H 657.397 -0.27881 -3.1286 0
M  V30 7306 H 656.59 -2.20076 -4.53412 0
M  V30 7307 H 656.192 -2.45732 -2.81943 0
M  V30 7308 H 658.484 -3.44765 -5.83218 0
M  V30 7309 H 659.427 -4.82607 -5.18166 0
M  V30 7310 H 659.835 -3.15884 -4.67843 0
M  V30 7311 N 659.233 0.902656 -1.29189 0
M  V30 7312 C 660.51 1.63296 -1.07674 0
M  V30 7313 C 660.89 2.07649 0.380137 0
M  V30 7314 O 660.238 1.82997 1.36837 0
M  V30 7315 C 660.448 2.81603 -2.06158 0
M  V30 7316 C 661.796 3.52359 -2.36914 0
M  V30 7317 O 662.82 2.91767 -2.04329 0
M  V30 7318 O 661.679 4.61586 -2.92576 0
M  V30 7319 H 658.773 0.716889 -0.41231 0
M  V30 7320 H 661.319 0.950984 -1.4055 0
M  V30 7321 H 660.091 2.46004 -3.04299 0
M  V30 7322 H 659.714 3.57508 -1.73993 0
M  V30 7323 N 660.711 1.11618 1.11262 0
M  V30 7324 C 661.658 0.7762 2.17356 0
M  V30 7325 C 662.628 -0.253152 1.6416 0
M  V30 7326 O 663.813 -0.129655 1.90359 0
M  V30 7327 C 660.953 0.227581 3.44349 0
M  V30 7328 C 660.066 1.31372 4.1154 0
M  V30 7329 C 659.201 0.72544 5.26223 0
M  V30 7330 C 658.24 1.7913 5.85302 0
M  V30 7331 N 657.377 1.22237 6.91377 0
M  V30 7332 H 662.217 1.68508 2.45783 0
M  V30 7333 H 659.754 0.841475 1.20655 0
M  V30 7334 H 661.712 -0.108483 4.17059 0
M  V30 7335 H 660.342 -0.644486 3.16301 0
M  V30 7336 H 659.394 1.7667 3.36885 0
M  V30 7337 H 660.706 2.12005 4.51504 0
M  V30 7338 H 659.86 0.339541 6.05749 0
M  V30 7339 H 658.599 -0.112188 4.87571 0
M  V30 7340 H 657.604 2.18648 5.04453 0
M  V30 7341 H 658.829 2.63199 6.26022 0
M  V30 7342 H 656.775 0.406423 6.5474 0
M  V30 7343 H 656.692 1.9654 7.30006 0
M  V30 7344 H 657.96 0.863426 7.74703 0
M  V30 7345 N 662.189 -1.289 0.906776 0
M  V30 7346 C 663.121 -2.26556 0.347159 0
M  V30 7347 C 664.134 -1.54589 -0.51049 0
M  V30 7348 O 665.323 -1.75489 -0.326501 0
M  V30 7349 C 662.423 -3.3484 -0.523024 0
M  V30 7350 C 661.596 -4.36296 0.310515 0
M  V30 7351 C 660.655 -5.23879 -0.493634 0
M  V30 7352 O 659.681 -5.69127 0.0913569 0
M  V30 7353 N 660.883 -5.51946 -1.7982 0
M  V30 7354 H 663.648 -2.75212 1.18652 0
M  V30 7355 H 661.209 -1.42309 0.771996 0
M  V30 7356 H 663.201 -3.90366 -1.06756 0
M  V30 7357 H 661.771 -2.85946 -1.26309 0
M  V30 7358 H 660.991 -3.80331 1.03644 0
M  V30 7359 H 662.279 -5.01113 0.881106 0
M  V30 7360 H 661.677 -5.17006 -2.2961 0
M  V30 7361 H 660.234 -6.10258 -2.28971 0
M  V30 7362 N 663.667 -0.670007 -1.42649 0
M  V30 7363 C 664.916 -0.187526 -2.00826 0
M  V30 7364 C 665.229 1.21142 -1.53571 0
M  V30 7365 O 666.435 1.79001 -2.04134 0
M  V30 7366 C 664.891 -0.284409 -3.58774 0
M  V30 7367 C 664.499 -1.6871 -4.15019 0
M  V30 7368 C 666.243 0.139605 -4.2427 0
M  V30 7369 C 664.15 -1.73701 -5.65316 0
M  V30 7370 H 663.08 -0.0663468 -0.751075 0
M  V30 7371 H 665.731 -0.834492 -1.63427 0
M  V30 7372 H 664.113 0.430364 -3.93655 0
M  V30 7373 H 665.287 -2.42857 -3.91608 0
M  V30 7374 H 663.602 -2.05855 -3.61957 0
M  V30 7375 H 666.199 0.122398 -5.3456 0
M  V30 7376 H 666.542 1.17403 -3.99402 0
M  V30 7377 H 667.075 -0.523995 -3.94334 0
M  V30 7378 H 663.814 -2.75109 -5.94975 0
M  V30 7379 H 663.334 -1.03903 -5.90732 0
M  V30 7380 H 665.013 -1.48829 -6.2965 0
M  V30 7381 N 665.145 1.52092 -0.413018 0
M  V30 7382 C 666.075 2.30021 0.401567 0
M  V30 7383 C 667.056 1.34395 1.04269 0
M  V30 7384 O 668.241 1.63304 1.05097 0
M  V30 7385 C 665.371 3.12447 1.51638 0
M  V30 7386 C 664.325 4.16153 1.00005 0
M  V30 7387 C 663.651 4.86948 2.20875 0
M  V30 7388 C 664.951 5.22275 0.0513757 0
M  V30 7389 H 666.645 2.98365 -0.248704 0
M  V30 7390 H 664.191 1.4349 -0.121052 0
M  V30 7391 H 666.144 3.65733 2.09326 0
M  V30 7392 H 664.868 2.41879 2.19458 0
M  V30 7393 H 663.527 3.63882 0.445549 0
M  V30 7394 H 663.175 4.12905 2.8726 0
M  V30 7395 H 662.875 5.57057 1.86978 0
M  V30 7396 H 664.399 5.43048 2.79162 0
M  V30 7397 H 665.813 5.70778 0.537176 0
M  V30 7398 H 664.21 5.9977 -0.198977 0
M  V30 7399 H 665.28 4.76611 -0.892736 0
M  V30 7400 N 666.623 0.143563 1.56945 0
M  V30 7401 C 667.87 -0.508407 1.96014 0
M  V30 7402 C 668.198 -1.65099 1.02824 0
M  V30 7403 O 667.453 -1.95618 0.0567764 0
M  V30 7404 C 667.752 -1.05885 3.41355 0
M  V30 7405 C 667.418 -0.0350809 4.50886 0
M  V30 7406 C 666.08 0.246362 4.80569 0
M  V30 7407 C 668.432 0.661282 5.16988 0
M  V30 7408 C 665.76 1.23003 5.73661 0
M  V30 7409 C 668.112 1.63375 6.11139 0
M  V30 7410 C 666.776 1.92292 6.39203 0
M  V30 7411 H 666.046 -0.186039 0.717266 0
M  V30 7412 H 668.693 0.229667 1.90118 0
M  V30 7413 H 666.998 -1.87419 3.44066 0
M  V30 7414 H 668.695 -1.57183 3.6891 0
M  V30 7415 H 665.285 -0.264622 4.27782 0
M  V30 7416 H 669.469 0.457038 4.94191 0
M  V30 7417 H 664.725 1.46056 5.93698 0
M  V30 7418 H 668.899 2.17887 6.61436 0
M  V30 7419 H 666.526 2.68666 7.11142 0
M  V30 7420 N 668.101 -1.57061 -0.130224 0
M  V30 7421 C 669.326 -1.88802 -0.858409 0
M  V30 7422 C 669.751 -0.734353 -1.73173 0
M  V30 7423 O 669.109 0.315529 -1.78533 0
M  V30 7424 C 669.157 -3.19228 -1.67708 0
M  V30 7425 O 668.261 -3.04343 -2.78297 0
M  V30 7426 H 667.602 -0.619849 -0.238083 0
M  V30 7427 H 670.132 -2.04271 -0.115995 0
M  V30 7428 H 670.142 -3.51669 -2.06864 0
M  V30 7429 H 668.817 -4.02793 -1.0359 0
M  V30 7430 H 667.394 -2.83346 -2.42425 0
M  V30 7431 N 669.579 0.400081 -1.52437 0
M  V30 7432 C 670.489 1.51253 -1.79331 0
M  V30 7433 C 671.505 1.60188 -0.679396 0
M  V30 7434 O 672.681 1.76733 -0.965791 0
M  V30 7435 C 669.746 2.869 -1.94652 0
M  V30 7436 C 668.807 2.87777 -3.18564 0
M  V30 7437 C 668.04 4.16954 -3.33145 0
M  V30 7438 O 668.263 5.11329 -2.52783 0
M  V30 7439 O 667.197 4.2487 -4.26343 0
M  V30 7440 H 671.023 1.31461 -2.73773 0
M  V30 7441 H 668.608 0.586834 -1.37392 0
M  V30 7442 H 670.49 3.67336 -2.065 0
M  V30 7443 H 669.165 3.06741 -1.034 0
M  V30 7444 H 668.072 2.06162 -3.12167 0
M  V30 7445 H 669.405 2.72886 -4.09627 0
M  V30 7446 N 671.057 1.43213 0.657864 0
M  V30 7447 C 671.967 1.50448 1.80007 0
M  V30 7448 C 672.983 0.39191 1.69529 0
M  V30 7449 O 674.159 0.645349 1.90781 0
M  V30 7450 C 671.224 1.42062 3.16258 0
M  V30 7451 C 670.285 2.63951 3.38568 0
M  V30 7452 C 669.518 2.55956 4.68318 0
M  V30 7453 O 669.741 1.60473 5.47361 0
M  V30 7454 O 668.675 3.46378 4.92245 0
M  V30 7455 H 672.501 2.4689 1.76858 0
M  V30 7456 H 670.086 1.25163 0.81576 0
M  V30 7457 H 671.968 1.3981 3.97531 0
M  V30 7458 H 670.643 0.487524 3.20008 0
M  V30 7459 H 669.55 2.71776 2.57077 0
M  V30 7460 H 670.883 3.56217 3.39662 0
M  V30 7461 N 672.536 -0.895792 1.29666 0
M  V30 7462 C 673.952 -1.17726 1.07763 0
M  V30 7463 C 674.152 -2.00794 -0.168576 0
M  V30 7464 O 673.208 -2.37213 -0.865244 0
M  V30 7465 C 674.521 -1.89441 2.33522 0
M  V30 7466 C 676.069 -2.02251 2.3888 0
M  V30 7467 C 676.544 -2.77378 3.64452 0
M  V30 7468 N 678.035 -2.8493 3.65198 0
M  V30 7469 C 678.77 -3.43606 4.59045 0
M  V30 7470 N 678.266 -4.03417 5.63228 0
M  V30 7471 N 680.059 -3.41317 4.46608 0
M  V30 7472 H 672.21 -0.341652 2.09634 0
M  V30 7473 H 674.473 -0.213865 0.923561 0
M  V30 7474 H 674.179 -1.35842 3.24407 0
M  V30 7475 H 674.053 -2.89893 2.41334 0
M  V30 7476 H 676.44 -2.55025 1.4848 0
M  V30 7477 H 676.521 -1.0092 2.3505 0
M  V30 7478 H 676.165 -2.25279 4.55205 0
M  V30 7479 H 676.095 -3.79062 3.65541 0
M  V30 7480 H 678.586 -2.42453 2.89871 0
M  V30 7481 H 678.899 -4.46224 6.30955 0
M  V30 7482 H 677.244 -4.01868 5.67033 0
M  V30 7483 H 680.435 -2.93812 3.64407 0
M  V30 7484 H 680.608 -3.86751 5.1993 0
M  V30 7485 N 674.014 -1.12206 -1.10668 0
M  V30 7486 C 674.944 -0.810086 -2.18997 0
M  V30 7487 C 675.925 0.225065 -1.68604 0
M  V30 7488 O 677.11 0.086783 -1.94006 0
M  V30 7489 C 674.24 -0.261262 -3.46316 0
M  V30 7490 C 673.194 -1.2292 -4.09969 0
M  V30 7491 C 672.52 -0.540713 -5.31959 0
M  V30 7492 C 673.82 -2.58295 -4.53962 0
M  V30 7493 H 675.514 -1.7159 -2.45352 0
M  V30 7494 H 673.06 -0.82646 -1.17922 0
M  V30 7495 H 675.013 -0.0307522 -4.21389 0
M  V30 7496 H 673.737 0.679879 -3.19445 0
M  V30 7497 H 672.396 -1.44548 -3.369 0
M  V30 7498 H 672.044 0.405492 -5.01363 0
M  V30 7499 H 671.744 -1.18637 -5.75499 0
M  V30 7500 H 673.268 -0.319184 -6.09765 0
M  V30 7501 H 674.682 -2.40709 -5.20319 0
M  V30 7502 H 673.079 -3.18916 -5.08343 0
M  V30 7503 H 674.149 -3.16918 -3.67002 0
M  V30 7504 N 675.492 1.28418 -0.913599 0
M  V30 7505 C 676.908 1.47411 -0.611728 0
M  V30 7506 C 677.108 1.83018 0.843008 0
M  V30 7507 O 676.164 1.93505 1.6221 0
M  V30 7508 C 677.477 2.57703 -1.5495 0
M  V30 7509 C 679.025 2.71572 -1.5562 0
M  V30 7510 C 679.5 3.85008 -2.48058 0
M  V30 7511 N 680.991 3.92361 -2.46184 0
M  V30 7512 C 681.726 4.79516 -3.14407 0
M  V30 7513 N 681.222 5.71262 -3.91958 0
M  V30 7514 N 683.015 4.73125 -3.03495 0
M  V30 7515 H 675.166 1.03585 -1.85429 0
M  V30 7516 H 677.429 0.515907 -0.795326 0
M  V30 7517 H 677.135 2.38298 -2.58663 0
M  V30 7518 H 677.009 3.54801 -1.28048 0
M  V30 7519 H 679.396 2.90366 -0.526441 0
M  V30 7520 H 679.477 1.75006 -1.86565 0
M  V30 7521 H 679.121 3.66969 -3.51136 0
M  V30 7522 H 679.051 4.80971 -2.14416 0
M  V30 7523 H 681.542 3.26749 -1.89851 0
M  V30 7524 H 681.855 6.34593 -4.41034 0
M  V30 7525 H 680.2 5.71103 -3.96063 0
M  V30 7526 H 683.391 4.00442 -2.42413 0
M  V30 7527 H 683.564 5.40834 -3.56935 0
M  V30 7528 N 676.97 0.677563 1.42291 0
M  V30 7529 C 678.247 0.129803 1.95169 0
M  V30 7530 C 678.627 -1.35605 1.61786 0
M  V30 7531 O 677.975 -2.09361 0.915444 0
M  V30 7532 C 678.185 0.401889 3.46678 0
M  V30 7533 C 679.533 0.319889 4.23393 0
M  V30 7534 O 680.557 0.33579 3.54614 0
M  V30 7535 O 679.416 0.264459 5.4586 0
M  V30 7536 H 676.51 0.00447433 0.826988 0
M  V30 7537 H 679.056 0.752483 1.52105 0
M  V30 7538 H 677.828 1.43108 3.64192 0
M  V30 7539 H 677.451 -0.252662 3.96796 0
M  V30 7540 N 678.448 -1.51871 0.421078 0
M  V30 7541 C 679.411 -2.25914 -0.386712 0
M  V30 7542 C 680.411 -1.28733 -0.963555 0
M  V30 7543 O 681.601 -1.52579 -0.840556 0
M  V30 7544 C 678.733 -3.03853 -1.54551 0
M  V30 7545 H 679.926 -2.98754 0.261978 0
M  V30 7546 H 677.479 -1.5533 0.173862 0
M  V30 7547 H 678.214 -2.35392 -2.23072 0
M  V30 7548 H 677.999 -3.75215 -1.13824 0
M  V30 7549 H 679.489 -3.59984 -2.11663 0
M  V30 7550 N 679.926 -0.151884 -1.56866 0
M  V30 7551 C 681.173 0.498004 -1.96281 0
M  V30 7552 C 681.501 1.64551 -1.03698 0
M  V30 7553 O 680.756 1.95585 -0.0671497 0
M  V30 7554 C 681.055 1.04074 -3.41911 0
M  V30 7555 C 680.721 0.0111688 -4.50899 0
M  V30 7556 C 679.383 -0.271844 -4.80432 0
M  V30 7557 C 681.735 -0.68869 -5.1663 0
M  V30 7558 C 679.063 -1.26044 -5.73001 0
M  V30 7559 C 681.415 -1.66613 -6.10264 0
M  V30 7560 C 680.079 -1.9568 -6.38174 0
M  V30 7561 H 679.349 0.182233 -0.718242 0
M  V30 7562 H 681.996 -0.239746 -1.89993 0
M  V30 7563 H 680.301 1.85592 -3.45055 0
M  V30 7564 H 681.998 1.55224 -3.69738 0
M  V30 7565 H 678.588 0.241932 -4.27917 0
M  V30 7566 H 682.772 -0.48324 -4.93942 0
M  V30 7567 H 678.028 -1.49202 -5.92915 0
M  V30 7568 H 682.202 -2.21392 -6.60272 0
M  V30 7569 H 679.829 -2.72434 -7.09707 0
M  V30 7570 N 681.404 1.57128 0.121893 0
M  V30 7571 C 682.352 2.01109 1.16868 0
M  V30 7572 C 683.346 0.907532 1.43039 0
M  V30 7573 O 684.552 1.09274 1.43036 0
M  V30 7574 H 680.927 0.640539 0.393971 0
M  V30 7575 H 682.898 2.88261 0.771224 0
M  V30 7576 C 681.647 2.42887 2.48799 0
M  V30 7577 H 680.97 3.2737 2.29498 0
M  V30 7578 H 682.41 2.77461 3.20611 0
M  V30 7579 C 680.869 1.29137 3.11168 0
M  V30 7580 O 681.399 0.605756 3.97106 0
M  V30 7581 N 679.605 1.04916 2.71 0
M  V30 7582 H 679.152 1.60848 2.01211 0
M  V30 7583 H 679.11 0.290016 3.1306 0
M  V30 7584 N 682.882 -0.391992 1.52647 0
M  V30 7585 C 683.812 -1.48517 1.8018 0
M  V30 7586 C 684.793 -1.57039 0.653667 0
M  V30 7587 O 685.978 -1.72036 0.900962 0
M  V30 7588 C 683.108 -2.86161 1.96797 0
M  V30 7589 C 682.062 -2.92481 3.12472 0
M  V30 7590 C 681.388 -4.32546 3.14338 0
M  V30 7591 C 682.688 -2.624 4.51601 0
M  V30 7592 H 684.382 -1.25726 2.71723 0
M  V30 7593 H 681.928 -0.603387 1.30749 0
M  V30 7594 H 683.881 -3.62639 2.14641 0
M  V30 7595 H 682.605 -3.10283 1.01941 0
M  V30 7596 H 681.264 -2.18451 2.94406 0
M  V30 7597 H 680.912 -4.53703 2.1717 0
M  V30 7598 H 680.612 -4.37695 3.92042 0
M  V30 7599 H 682.136 -5.10934 3.34333 0
M  V30 7600 H 683.55 -3.28596 4.69785 0
M  V30 7601 H 681.947 -2.78903 5.3135 0
M  V30 7602 H 683.017 -1.57754 4.58521 0
M  V30 7603 N 684.36 -1.4356 -0.65026 0
M  V30 7604 C 685.607 -1.45333 -1.41012 0
M  V30 7605 C 685.935 -0.0787282 -1.94341 0
M  V30 7606 O 685.19 0.916715 -1.72901 0
M  V30 7607 C 685.489 -2.44528 -2.60654 0
M  V30 7608 C 685.155 -3.90331 -2.25727 0
M  V30 7609 C 683.817 -4.3004 -2.15914 0
M  V30 7610 C 686.169 -4.822 -1.97821 0
M  V30 7611 C 683.497 -5.59568 -1.76354 0
M  V30 7612 C 685.849 -6.12095 -1.59759 0
M  V30 7613 C 684.513 -6.50778 -1.48473 0
M  V30 7614 H 683.783 -0.531813 -0.516 0
M  V30 7615 H 686.43 -1.76657 -0.739219 0
M  V30 7616 H 684.735 -2.06619 -3.3289 0
M  V30 7617 H 686.432 -2.43155 -3.18868 0
M  V30 7618 H 683.022 -3.58905 -2.34276 0
M  V30 7619 H 687.206 -4.5229 -2.04322 0
M  V30 7620 H 682.462 -5.88376 -1.66205 0
M  V30 7621 H 686.636 -6.82751 -1.37198 0
M  V30 7622 H 684.263 -7.5105 -1.17591 0
M  V30 7623 N 685.838 0.888903 -1.30139 0
M  V30 7624 C 687.115 1.62145 -1.094 0
M  V30 7625 C 687.495 2.08041 0.358091 0
M  V30 7626 O 686.843 1.84438 1.34888 0
M  V30 7627 C 687.053 2.794 -2.09133 0
M  V30 7628 C 688.401 3.49826 -2.40638 0
M  V30 7629 O 689.425 2.89583 -2.07412 0
M  V30 7630 O 688.284 4.58457 -2.97455 0
M  V30 7631 H 685.378 0.712475 -0.41989 0
M  V30 7632 H 687.924 0.936023 -1.41551 0
M  V30 7633 H 686.696 2.42762 -3.06891 0
M  V30 7634 H 686.319 3.55643 -1.77776 0
M  V30 7635 N 687.317 1.12792 1.10072 0
M  V30 7636 C 688.545 0.908506 1.85886 0
M  V30 7637 C 688.96 -0.542408 1.80841 0
M  V30 7638 O 688.317 -1.37517 1.1998 0
M  V30 7639 C 688.368 1.37973 3.34134 0
M  V30 7640 O 688.089 2.77378 3.39106 0
M  V30 7641 C 689.59 1.1978 4.26811 0
M  V30 7642 H 686.81 0.3244 0.587372 0
M  V30 7643 H 689.354 1.49882 1.39125 0
M  V30 7644 H 687.509 0.832566 3.78348 0
M  V30 7645 H 687.923 2.98144 4.31521 0
M  V30 7646 H 689.397 1.57635 5.29014 0
M  V30 7647 H 689.874 0.138768 4.38981 0
M  V30 7648 H 690.48 1.73266 3.88406 0
M  V30 7649 N 688.795 -1.27931 0.920396 0
M  V30 7650 C 690.072 -1.89728 0.475687 0
M  V30 7651 C 690.452 -1.8337 -1.04588 0
M  V30 7652 O 689.8 -1.27404 -1.89685 0
M  V30 7653 C 690.01 -3.33959 1.01354 0
M  V30 7654 C 691.358 -4.10907 1.06963 0
M  V30 7655 O 692.382 -3.42945 0.962646 0
M  V30 7656 O 691.241 -5.32399 1.23343 0
M  V30 7657 H 688.335 -0.81294 0.151845 0
M  V30 7658 H 690.881 -1.36252 1.01161 0
M  V30 7659 H 689.653 -3.32843 2.05746 0
M  V30 7660 H 689.276 -3.94944 0.458829 0
M  V30 7661 N 690.273 -0.685099 -1.4193 0
M  V30 7662 C 691.22 -0.0131869 -2.30796 0
M  V30 7663 C 692.19 0.782129 -1.46533 0
M  V30 7664 O 693.375 0.75229 -1.75343 0
M  V30 7665 C 690.515 0.924768 -3.32479 0
M  V30 7666 C 689.628 0.122181 -4.31827 0
M  V30 7667 C 688.763 1.05682 -5.20581 0
M  V30 7668 C 687.802 0.246526 -6.11603 0
M  V30 7669 N 686.939 1.13442 -6.92875 0
M  V30 7670 H 691.779 -0.776789 -2.87698 0
M  V30 7671 H 689.316 -0.394791 -1.41703 0
M  V30 7672 H 691.274 1.48251 -3.89971 0
M  V30 7673 H 689.904 1.65488 -2.77152 0
M  V30 7674 H 688.956 -0.552335 -3.76369 0
M  V30 7675 H 690.268 -0.506473 -4.96222 0
M  V30 7676 H 689.422 1.68415 -5.82856 0
M  V30 7677 H 688.161 1.71935 -4.56388 0
M  V30 7678 H 687.166 -0.393944 -5.48387 0
M  V30 7679 H 688.391 -0.412053 -6.77849 0
M  V30 7680 H 686.337 1.78316 -6.313 0
M  V30 7681 H 686.254 0.561089 -7.53915 0
M  V30 7682 H 687.522 1.74889 -7.59628 0
M  V30 7683 N 691.751 1.51645 -0.429126 0
M  V30 7684 C 692.976 2.06917 0.141399 0
M  V30 7685 C 693.401 1.29527 1.36398 0
M  V30 7686 O 692.759 0.33094 1.78254 0
M  V30 7687 C 692.807 3.57776 0.4504 0
M  V30 7688 O 691.911 3.82639 1.53821 0
M  V30 7689 H 691.252 0.663978 0.0054647 0
M  V30 7690 H 693.782 1.95355 -0.608093 0
M  V30 7691 H 693.792 4.01894 0.703249 0
M  V30 7692 H 692.467 4.13532 -0.443213 0
M  V30 7693 H 691.044 3.5039 1.27597 0
M  V30 7694 N 693.229 0.160201 1.56784 0
M  V30 7695 C 694.477 -0.486625 1.96154 0
M  V30 7696 C 694.798 -1.64525 1.04673 0
M  V30 7697 O 694.068 -1.95586 0.110864 0
M  V30 7698 H 692.648 -0.182764 0.724297 0
M  V30 7699 H 695.31 0.238787 1.93432 0
M  V30 7700 H 694.406 -0.854025 3.00188 0
M  V30 7701 N 694.707 -1.5719 -0.113559 0
M  V30 7702 C 695.654 -2.00736 -1.13901 0
M  V30 7703 C 696.624 -0.88044 -1.40846 0
M  V30 7704 O 697.809 -1.14507 -1.5262 0
M  V30 7705 C 694.949 -2.42132 -2.45899 0
M  V30 7706 C 694.062 -3.68264 -2.25844 0
M  V30 7707 C 693.197 -3.98617 -3.5111 0
M  V30 7708 C 692.236 -5.17915 -3.26236 0
M  V30 7709 N 691.373 -5.44111 -4.4372 0
M  V30 7710 H 696.213 -2.88128 -0.760677 0
M  V30 7711 H 693.75 -1.42523 -0.364099 0
M  V30 7712 H 695.708 -2.6417 -3.22908 0
M  V30 7713 H 694.338 -1.57775 -2.81615 0
M  V30 7714 H 693.39 -3.53809 -1.39726 0
M  V30 7715 H 694.702 -4.55425 -2.03444 0
M  V30 7716 H 693.856 -4.21333 -4.36536 0
M  V30 7717 H 692.595 -3.09942 -3.76546 0
M  V30 7718 H 691.6 -4.95038 -2.39202 0
M  V30 7719 H 692.825 -6.08172 -3.02165 0
M  V30 7720 H 690.771 -4.58394 -4.69266 0
M  V30 7721 H 690.688 -6.25606 -4.24444 0
M  V30 7722 H 691.956 -5.71351 -5.30263 0
M  V30 7723 N 696.185 0.383891 -1.52853 0
M  V30 7724 C 697.434 1.12563 -1.67369 0
M  V30 7725 C 697.747 1.90982 -0.422533 0
M  V30 7726 O 698.953 2.6778 -0.447914 0
M  V30 7727 C 697.409 2.05011 -2.95801 0
M  V30 7728 C 697.017 1.31991 -4.28115 0
M  V30 7729 C 698.761 2.79289 -3.19684 0
M  V30 7730 C 696.668 2.23235 -5.4765 0
M  V30 7731 H 695.598 0.42391 -0.623552 0
M  V30 7732 H 698.249 0.388016 -1.79351 0
M  V30 7733 H 696.631 2.82429 -2.77578 0
M  V30 7734 H 697.805 0.597633 -4.56908 0
M  V30 7735 H 696.12 0.696517 -4.10533 0
M  V30 7736 H 698.717 3.47749 -4.06171 0
M  V30 7737 H 699.06 3.43649 -2.3497 0
M  V30 7738 H 699.593 2.08962 -3.38496 0
M  V30 7739 H 696.332 1.63482 -6.34786 0
M  V30 7740 H 695.852 2.93364 -5.23161 0
M  V30 7741 H 697.531 2.83205 -5.81725 0
M  V30 7742 N 697.663 1.43903 0.642637 0
M  V30 7743 C 698.891 1.4954 1.42988 0
M  V30 7744 C 699.306 0.116588 1.8844 0
M  V30 7745 O 698.663 -0.875285 1.60141 0
M  V30 7746 C 698.714 2.45031 2.65785 0
M  V30 7747 O 698.435 3.77551 2.22232 0
M  V30 7748 C 699.936 2.60017 3.59035 0
M  V30 7749 H 697.156 0.507544 0.438907 0
M  V30 7750 H 699.7 1.88752 0.786942 0
M  V30 7751 H 697.855 2.08985 3.26196 0
M  V30 7752 H 698.269 4.29001 3.01759 0
M  V30 7753 H 699.743 3.30887 4.41835 0
M  V30 7754 H 700.22 1.64861 4.07084 0
M  V30 7755 H 700.826 2.96918 3.045 0
M  V30 7756 N 699.141 -0.881989 1.30609 0
M  V30 7757 C 700.088 -1.98803 1.17244 0
M  V30 7758 C 701.058 -1.65987 0.0611905 0
M  V30 7759 O 702.243 -1.89385 0.231911 0
M  V30 7760 C 699.383 -3.33867 0.87333 0
M  V30 7761 C 698.496 -3.79354 2.06675 0
M  V30 7762 C 697.631 -5.03078 1.70547 0
M  V30 7763 C 696.67 -5.40981 2.86366 0
M  V30 7764 N 695.807 -6.55886 2.50514 0
M  V30 7765 H 700.647 -2.09566 2.11863 0
M  V30 7766 H 698.184 -1.02607 1.05405 0
M  V30 7767 H 700.142 -4.11612 0.680519 0
M  V30 7768 H 698.772 -3.2278 -0.0359983 0
M  V30 7769 H 697.824 -2.97492 2.37071 0
M  V30 7770 H 699.136 -4.03382 2.93401 0
M  V30 7771 H 698.29 -5.88457 1.47658 0
M  V30 7772 H 697.029 -4.80927 0.809947 0
M  V30 7773 H 696.034 -4.54127 3.09917 0
M  V30 7774 H 697.259 -5.65104 3.76609 0
M  V30 7775 H 695.205 -6.35306 1.63471 0
M  V30 7776 H 695.122 -6.79799 3.30771 0
M  V30 7777 H 696.39 -7.44489 2.30989 0
M  V30 7778 N 700.619 -1.13374 -1.09472 0
M  V30 7779 C 701.529 -0.824029 -2.19652 0
M  V30 7780 C 702.545 0.19118 -1.72947 0
M  V30 7781 O 703.721 0.0223464 -2.01388 0
M  V30 7782 C 700.786 -0.294009 -3.45451 0
M  V30 7783 C 699.847 -1.3704 -4.0684 0
M  V30 7784 C 699.08 -0.86558 -5.26634 0
M  V30 7785 O 699.303 0.29702 -5.69626 0
M  V30 7786 O 698.237 -1.63968 -5.79136 0
M  V30 7787 H 702.063 -1.74454 -2.48595 0
M  V30 7788 H 699.648 -0.911155 -1.18399 0
M  V30 7789 H 701.53 -0.00381039 -4.214 0
M  V30 7790 H 700.205 0.598921 -3.18111 0
M  V30 7791 H 699.112 -1.71391 -3.3253 0
M  V30 7792 H 700.445 -2.23746 -4.38405 0
M  V30 7793 N 702.098 1.27442 -0.927168 0
M  V30 7794 C 703.008 2.30599 -0.431448 0
M  V30 7795 C 704.024 1.67028 0.48761 0
M  V30 7796 O 705.2 1.97962 0.370546 0
M  V30 7797 C 702.265 3.45327 0.308292 0
M  V30 7798 C 701.326 4.24418 -0.645615 0
M  V30 7799 C 700.559 5.33667 0.0589164 0
M  V30 7800 O 700.782 5.5589 1.27838 0
M  V30 7801 O 699.716 5.98774 -0.612638 0
M  V30 7802 H 703.542 2.75036 -1.28797 0
M  V30 7803 H 701.127 1.32382 -0.692495 0
M  V30 7804 H 703.009 4.15107 0.725555 0
M  V30 7805 H 701.684 3.02945 1.14043 0
M  V30 7806 H 700.591 3.57174 -1.11255 0
M  V30 7807 H 701.924 4.70512 -1.44496 0
M  V30 7808 N 703.576 0.692616 1.41565 0
M  V30 7809 C 704.506 0.0397325 2.33466 0
M  V30 7810 C 705.487 -0.770334 1.51657 0
M  V30 7811 O 706.672 -0.723903 1.80203 0
M  V30 7812 C 703.802 -0.899495 3.3545 0
M  V30 7813 C 702.756 -0.196738 4.27548 0
M  V30 7814 C 702.082 -1.25012 5.19881 0
M  V30 7815 C 703.382 0.935158 5.1386 0
M  V30 7816 H 705.076 0.807296 2.88311 0
M  V30 7817 H 702.622 0.389665 1.38628 0
M  V30 7818 H 704.575 -1.36545 3.98665 0
M  V30 7819 H 703.299 -1.69869 2.78948 0
M  V30 7820 H 701.958 0.249158 3.65752 0
M  V30 7821 H 701.606 -2.04177 4.59696 0
M  V30 7822 H 701.306 -0.784931 5.82334 0
M  V30 7823 H 702.83 -1.71665 5.85972 0
M  V30 7824 H 704.244 0.549619 5.70659 0
M  V30 7825 H 702.641 1.32726 5.85238 0
M  V30 7826 H 703.711 1.77613 4.512 0
M  V30 7827 N 705.054 -1.51416 0.437162 0
M  V30 7828 C 706.017 -2.26312 -0.362729 0
M  V30 7829 C 707.017 -1.29748 -0.949847 0
M  V30 7830 O 708.207 -1.53462 -0.824325 0
M  V30 7831 C 705.339 -3.05475 -1.5132 0
M  V30 7832 H 706.532 -2.98459 0.29365 0
M  V30 7833 H 704.085 -1.55137 0.190327 0
M  V30 7834 H 704.82 -2.37744 -2.20563 0
M  V30 7835 H 704.605 -3.76401 -1.09838 0
M  V30 7836 H 706.095 -3.62209 -2.07833 0
M  V30 7837 N 706.532 -0.168513 -1.56696 0
M  V30 7838 C 707.48 0.779791 -2.19139 0
M  V30 7839 C 708.474 1.23957 -1.1546 0
M  V30 7840 O 709.68 1.20555 -1.33666 0
M  V30 7841 H 706.055 0.269739 -0.701958 0
M  V30 7842 H 708.026 0.229156 -2.97519 0
M  V30 7843 C 706.775 2.00003 -2.84419 0
M  V30 7844 H 706.098 1.65527 -3.63924 0
M  V30 7845 H 707.538 2.64251 -3.31583 0
M  V30 7846 C 705.997 2.82187 -1.84044 0
M  V30 7847 O 706.527 3.79247 -1.32418 0
M  V30 7848 N 704.733 2.47145 -1.52864 0
M  V30 7849 H 704.28 1.68277 -1.9504 0
M  V30 7850 H 704.238 3.02422 -0.859569 0
M  V30 7851 N 708.01 1.57248 0.105221 0
M  V30 7852 C 708.94 2.04374 1.12931 0
M  V30 7853 C 709.921 0.93074 1.42377 0
M  V30 7854 O 711.106 1.20136 1.52581 0
M  V30 7855 C 708.236 2.45967 2.45189 0
M  V30 7856 C 707.19 3.60838 2.30174 0
M  V30 7857 C 706.516 3.88374 3.67518 0
M  V30 7858 C 707.816 4.92084 1.75073 0
M  V30 7859 H 709.51 2.9018 0.737287 0
M  V30 7860 H 707.056 1.39601 0.353211 0
M  V30 7861 H 709.009 2.77542 3.17094 0
M  V30 7862 H 707.733 1.57148 2.86308 0
M  V30 7863 H 706.392 3.29493 1.60716 0
M  V30 7864 H 706.04 2.96739 4.06147 0
M  V30 7865 H 705.74 4.65703 3.58321 0
M  V30 7866 H 707.264 4.22415 4.40906 0
M  V30 7867 H 708.678 5.22106 2.36809 0
M  V30 7868 H 707.075 5.73507 1.76662 0
M  V30 7869 H 708.145 4.79684 0.709347 0
M  V30 7870 N 709.488 -0.375779 1.53054 0
M  V30 7871 C 710.735 -1.11948 1.68742 0
M  V30 7872 C 711.063 -1.89596 0.434015 0
M  V30 7873 O 710.318 -1.86787 -0.583867 0
M  V30 7874 C 710.617 -2.11356 2.88207 0
M  V30 7875 C 710.283 -1.50266 4.25124 0
M  V30 7876 C 708.945 -1.33333 4.62359 0
M  V30 7877 C 711.297 -1.05976 5.10312 0
M  V30 7878 C 708.625 -0.706765 5.82427 0
M  V30 7879 C 710.977 -0.447241 6.31017 0
M  V30 7880 C 709.641 -0.265314 6.66973 0
M  V30 7881 H 708.911 -0.409648 0.61747 0
M  V30 7882 H 711.558 -0.402492 1.87222 0
M  V30 7883 H 709.863 -2.89322 2.64197 0
M  V30 7884 H 711.56 -2.68833 2.97539 0
M  V30 7885 H 708.15 -1.64437 3.95801 0
M  V30 7886 H 712.334 -1.17855 4.82104 0
M  V30 7887 H 707.59 -0.554132 6.08884 0
M  V30 7888 H 711.764 -0.0958064 6.96334 0
M  V30 7889 H 709.391 0.222267 7.59875 0
M  V30 7890 N 710.966 -1.44241 -0.634997 0
M  V30 7891 C 712.214 -1.46531 -1.39187 0
M  V30 7892 C 712.535 -0.0976441 -1.94755 0
M  V30 7893 O 711.805 0.869528 -1.75545 0
M  V30 7894 H 710.385 -0.539544 -0.516625 0
M  V30 7895 H 713.047 -1.79989 -0.747655 0
M  V30 7896 H 712.143 -2.18848 -2.22513 0
M  V30 7897 N 712.444 0.87505 -1.31075 0
M  V30 7898 C 713.374 1.99775 -1.20881 0
M  V30 7899 C 714.355 1.69822 -0.0971612 0
M  V30 7900 O 715.54 1.92158 -0.280895 0
M  V30 7901 C 712.67 3.35163 -0.910118 0
M  V30 7902 C 711.624 3.79406 -1.98078 0
M  V30 7903 C 710.95 5.12197 -1.53488 0
M  V30 7904 C 712.25 3.97061 -3.39323 0
M  V30 7905 H 713.944 2.08562 -2.14808 0
M  V30 7906 H 711.49 1.00207 -1.03415 0
M  V30 7907 H 713.443 4.13237 -0.825423 0
M  V30 7908 H 712.167 3.26536 0.064822 0
M  V30 7909 H 710.826 3.03568 -2.05528 0
M  V30 7910 H 710.474 5.00007 -0.547941 0
M  V30 7911 H 710.174 5.4277 -2.2511 0
M  V30 7912 H 711.698 5.92785 -1.46417 0
M  V30 7913 H 713.112 4.65545 -3.34576 0
M  V30 7914 H 711.509 4.39025 -4.09118 0
M  V30 7915 H 712.579 3.00601 -3.80483 0
M  V30 7916 N 713.922 1.13953 1.08869 0
M  V30 7917 C 715.15 0.92817 1.84912 0
M  V30 7918 C 715.565 -0.523197 1.81406 0
M  V30 7919 O 714.922 -1.36237 1.21432 0
M  V30 7920 C 714.973 1.41509 3.32652 0
M  V30 7921 O 714.694 2.80959 3.36145 0
M  V30 7922 C 716.195 1.243 4.25517 0
M  V30 7923 H 713.415 0.330612 0.583898 0
M  V30 7924 H 715.959 1.51349 1.37527 0
M  V30 7925 H 714.114 0.872648 3.77444 0
M  V30 7926 H 714.528 3.02704 4.28335 0
M  V30 7927 H 716.002 1.63237 5.27312 0
M  V30 7928 H 716.479 0.18532 4.38809 0
M  V30 7929 H 717.085 1.77375 3.86546 0
M  V30 7930 N 715.4 -1.26948 0.933913 0
M  V30 7931 C 716.625 -1.98724 0.593589 0
M  V30 7932 C 717.05 -1.6915 -0.822801 0
M  V30 7933 O 716.408 -0.93533 -1.5531 0
M  V30 7934 C 716.456 -3.50834 0.833542 0
M  V30 7935 O 715.56 -4.12284 -0.0978788 0
M  V30 7936 H 714.901 -0.623683 0.227849 0
M  V30 7937 H 717.431 -1.61599 1.25486 0
M  V30 7938 H 717.441 -4.01018 0.75156 0
M  V30 7939 H 716.116 -3.71691 1.86597 0
M  V30 7940 H 714.693 -3.72884 0.0345443 0
M  V30 7941 N 716.879 -0.700114 -1.41195 0
M  V30 7942 C 718.128 -0.230082 -2.00383 0
M  V30 7943 C 718.441 1.17857 -1.56106 0
M  V30 7944 O 719.647 1.74631 -2.07885 0
M  V30 7945 C 718.103 -0.360447 -3.5809 0
M  V30 7946 C 717.711 -1.77475 -4.11347 0
M  V30 7947 C 719.455 0.0495799 -4.24471 0
M  V30 7948 C 717.362 -1.85653 -5.61504 0
M  V30 7949 H 716.292 -0.0822633 -0.749499 0
M  V30 7950 H 718.943 -0.868969 -1.6162 0
M  V30 7951 H 717.325 0.346768 -3.94479 0
M  V30 7952 H 718.499 -2.51109 -3.86369 0
M  V30 7953 H 716.814 -2.13486 -3.57509 0
M  V30 7954 H 719.411 0.00898219 -5.34699 0
M  V30 7955 H 719.754 1.08904 -4.01803 0
M  V30 7956 H 720.287 -0.607521 -3.93134 0
M  V30 7957 H 717.026 -2.87667 -5.89006 0
M  V30 7958 H 716.546 -1.1641 -5.88395 0
M  V30 7959 H 718.225 -1.62151 -6.26351 0
M  V30 7960 N 718.357 1.51182 -0.445186 0
M  V30 7961 C 719.582 2.07056 0.119445 0
M  V30 7962 C 720.007 1.30966 1.35016 0
M  V30 7963 O 719.365 0.349827 1.77893 0
M  V30 7964 C 719.413 3.58234 0.412428 0
M  V30 7965 O 718.517 3.84249 1.49754 0
M  V30 7966 H 717.858 0.663998 -0.00157797 0
M  V30 7967 H 720.388 1.94699 -0.628779 0
M  V30 7968 H 720.398 4.02617 0.660583 0
M  V30 7969 H 719.073 4.13038 -0.487049 0
M  V30 7970 H 717.65 3.51724 1.23873 0
M  V30 7971 N 719.835 0.176821 1.56605 0
M  V30 7972 C 720.745 -0.763682 2.21822 0
M  V30 7973 C 721.761 -1.24889 1.21156 0
M  V30 7974 O 722.937 -1.29987 1.53836 0
M  V30 7975 C 720.002 -1.97352 2.8505 0
M  V30 7976 C 719.063 -1.53466 4.00932 0
M  V30 7977 C 718.296 -2.68682 4.61135 0
M  V30 7978 O 718.519 -3.85694 4.20234 0
M  V30 7979 O 717.453 -2.42442 5.50913 0
M  V30 7980 H 721.279 -0.238363 3.02763 0
M  V30 7981 H 718.864 -0.0516331 1.49311 0
M  V30 7982 H 720.746 -2.68096 3.25119 0
M  V30 7983 H 719.421 -2.48779 2.07101 0
M  V30 7984 H 718.328 -0.796551 3.65521 0
M  V30 7985 H 719.661 -1.06724 4.8049 0
M  V30 7986 N 721.313 -1.57302 -0.09688 0
M  V30 7987 C 722.245 -1.98618 -1.14384 0
M  V30 7988 C 723.258 -0.888483 -1.36418 0
M  V30 7989 O 724.447 -1.16661 -1.35101 0
M  V30 7990 C 721.547 -2.28838 -2.49973 0
M  V30 7991 C 720.72 -3.60132 -2.48241 0
M  V30 7992 C 719.779 -3.7831 -3.65743 0
M  V30 7993 O 718.805 -4.50183 -3.48316 0
M  V30 7994 N 720.007 -3.18752 -4.85157 0
M  V30 7995 H 722.772 -2.8904 -0.792202 0
M  V30 7996 H 720.333 -1.59356 -0.285883 0
M  V30 7997 H 722.325 -2.38193 -3.27179 0
M  V30 7998 H 720.895 -1.44431 -2.77233 0
M  V30 7999 H 720.115 -3.61763 -1.56593 0
M  V30 8000 H 721.403 -4.46389 -2.4416 0
M  V30 8001 H 720.801 -2.60368 -5.0222 0
M  V30 8002 H 719.358 -3.33595 -5.59962 0
M  V30 8003 N 722.791 0.367657 -1.53252 0
M  V30 8004 C 723.724 1.47264 -1.74323 0
M  V30 8005 C 724.702 1.51458 -0.591535 0
M  V30 8006 O 725.886 1.69542 -0.823883 0
M  V30 8007 C 723.013 2.85637 -1.82015 0
M  V30 8008 C 722.059 2.99176 -3.03967 0
M  V30 8009 S 722.892 2.68147 -4.63527 0
M  V30 8010 C 724.048 4.08673 -4.74065 0
M  V30 8011 H 724.281 1.29169 -2.67773 0
M  V30 8012 H 721.814 0.561866 -1.43814 0
M  V30 8013 H 723.772 3.65365 -1.87132 0
M  V30 8014 H 722.433 3.01043 -0.896195 0
M  V30 8015 H 721.626 4.00511 -3.05953 0
M  V30 8016 H 721.228 2.27367 -2.96952 0
M  V30 8017 H 723.52 5.02889 -4.53992 0
M  V30 8018 H 724.463 4.11693 -5.7612 0
M  V30 8019 H 724.871 3.95576 -4.02716 0
M  V30 8020 N 724.269 1.44576 0.627338 0
M  V30 8021 C 725.515 1.4877 1.38705 0
M  V30 8022 C 725.87 0.119976 1.92026 0
M  V30 8023 O 725.163 -0.865341 1.70946 0
M  V30 8024 C 725.357 2.48644 2.56731 0
M  V30 8025 C 725.186 3.94994 2.14965 0
M  V30 8026 C 723.956 4.63139 2.02065 0
M  V30 8027 C 726.154 4.841 1.73643 0
M  V30 8028 N 724.136 5.94296 1.53902 0
M  V30 8029 C 725.507 6.0473 1.36753 0
M  V30 8030 C 727.562 4.71131 1.61058 0
M  V30 8031 C 726.265 7.13831 0.885353 0
M  V30 8032 C 728.291 5.8026 1.14244 0
M  V30 8033 C 727.653 7.00034 0.783067 0
M  V30 8034 H 723.752 0.599415 0.50222 0
M  V30 8035 H 726.336 1.80926 0.719285 0
M  V30 8036 H 724.507 2.18472 3.2113 0
M  V30 8037 H 726.239 2.4311 3.23542 0
M  V30 8038 H 722.994 4.18007 2.22637 0
M  V30 8039 H 723.418 6.63985 1.32108 0
M  V30 8040 H 728.06 3.78964 1.87473 0
M  V30 8041 H 725.778 8.05804 0.608716 0
M  V30 8042 H 729.364 5.72254 1.0496 0
M  V30 8043 H 728.244 7.8304 0.426381 0
M  V30 8044 N 725.747 -0.868086 1.31537 0
M  V30 8045 C 726.695 -1.99688 1.1928 0
M  V30 8046 C 727.689 -1.69101 0.100656 0
M  V30 8047 O 728.895 -1.78073 0.262677 0
M  V30 8048 H 725.27 -0.655032 0.369374 0
M  V30 8049 H 727.241 -2.07157 2.14776 0
M  V30 8050 C 725.99 -3.35338 0.918892 0
M  V30 8051 H 725.313 -3.59396 1.75142 0
M  V30 8052 H 726.753 -4.14909 0.873311 0
M  V30 8053 C 725.212 -3.34769 -0.378366 0
M  V30 8054 O 725.742 -3.76716 -1.39456 0
M  V30 8055 N 723.948 -2.87895 -0.39557 0
M  V30 8056 H 723.495 -2.53954 0.431889 0
M  V30 8057 H 723.453 -2.87897 -1.26344 0
M  V30 8058 N 727.225 -1.14528 -1.08264 0
M  V30 8059 C 728.135 -0.84728 -2.18765 0
M  V30 8060 C 729.151 0.172826 -1.7314 0
M  V30 8061 O 730.327 0.000985336 -2.014 0
M  V30 8062 C 727.392 -0.330633 -3.4512 0
M  V30 8063 C 726.453 -1.41348 -4.05363 0
M  V30 8064 C 725.686 -0.921387 -5.25686 0
M  V30 8065 O 725.909 0.236587 -5.69909 0
M  V30 8066 O 724.843 -1.70101 -5.77364 0
M  V30 8067 H 728.669 -1.7708 -2.46731 0
M  V30 8068 H 726.254 -0.923661 -1.17426 0
M  V30 8069 H 728.136 -0.0485053 -4.21372 0
M  V30 8070 H 726.811 0.565147 -3.18728 0
M  V30 8071 H 725.718 -1.74908 -3.30693 0
M  V30 8072 H 727.051 -2.28383 -4.36007 0
M  V30 8073 N 728.703 1.26451 -0.940633 0
M  V30 8074 C 729.949 1.94065 -0.58878 0
M  V30 8075 C 730.282 1.7363 0.869853 0
M  V30 8076 O 729.557 1.073 1.62225 0
M  V30 8077 C 729.84 3.47852 -0.931199 0
M  V30 8078 C 729.693 3.77575 -2.44453 0
M  V30 8079 C 731.012 4.37832 -0.446229 0
M  V30 8080 H 728.131 0.704827 -0.21538 0
M  V30 8081 H 730.773 1.4933 -1.17475 0
M  V30 8082 H 728.923 3.86085 -0.432539 0
M  V30 8083 H 730.595 3.49059 -3.01588 0
M  V30 8084 H 728.838 3.23671 -2.88825 0
M  V30 8085 H 729.509 4.85068 -2.63464 0
M  V30 8086 H 731.985 4.06822 -0.873778 0
M  V30 8087 H 730.861 5.44228 -0.714648 0
M  V30 8088 H 731.122 4.37239 0.653815 0
M  V30 8089 N 730.181 0.707592 1.40822 0
M  V30 8090 C 731.111 0.0644925 2.33411 0
M  V30 8091 C 732.092 -0.754205 1.52466 0
M  V30 8092 O 733.277 -0.704749 1.80961 0
M  V30 8093 C 730.407 -0.863865 3.36385 0
M  V30 8094 C 729.361 -0.15138 4.27732 0
M  V30 8095 C 728.687 -1.19491 5.21177 0
M  V30 8096 C 729.987 0.989607 5.12839 0
M  V30 8097 H 731.681 0.837829 2.87438 0
M  V30 8098 H 729.227 0.404346 1.38207 0
M  V30 8099 H 731.18 -1.32309 4.0009 0
M  V30 8100 H 729.904 -1.66901 2.80734 0
M  V30 8101 H 728.563 0.287937 3.65467 0
M  V30 8102 H 728.211 -1.9929 4.61836 0
M  V30 8103 H 727.911 -0.723123 5.83134 0
M  V30 8104 H 729.435 -1.6544 5.8776 0
M  V30 8105 H 730.849 0.610114 5.70044 0
M  V30 8106 H 729.246 1.38926 5.83798 0
M  V30 8107 H 730.316 1.82389 4.49291 0
M  V30 8108 N 731.66 -1.50943 0.453197 0
M  V30 8109 C 732.908 -2.01813 -0.107709 0
M  V30 8110 C 733.229 -1.33841 -1.41816 0
M  V30 8111 O 732.499 -0.477973 -1.8998 0
M  V30 8112 H 731.079 -0.745773 -0.0427948 0
M  V30 8113 H 733.741 -1.8545 0.599531 0
M  V30 8114 H 732.837 -3.10911 -0.27218 0
M  V30 8115 N 733.138 -0.185124 -1.56509 0
M  V30 8116 C 734.048 0.751908 -2.22224 0
M  V30 8117 C 735.064 1.24244 -1.21817 0
M  V30 8118 O 736.24 1.29169 -1.54523 0
M  V30 8119 C 733.305 1.95837 -2.86092 0
M  V30 8120 C 732.366 1.51337 -4.01741 0
M  V30 8121 C 731.599 2.66233 -4.62554 0
M  V30 8122 O 731.822 3.8346 -4.22273 0
M  V30 8123 O 730.756 2.39517 -5.52191 0
M  V30 8124 H 734.582 0.222304 -3.02885 0
M  V30 8125 H 732.167 0.0437141 -1.49336 0
M  V30 8126 H 734.049 2.66368 -3.26536 0
M  V30 8127 H 732.724 2.47677 -2.08417 0
M  V30 8128 H 731.631 0.777155 -3.65939 0
M  V30 8129 H 732.964 1.04175 -4.81049 0
M  V30 8130 N 734.616 1.57351 0.0885366 0
M  V30 8131 C 735.579 2.01557 1.09121 0
M  V30 8132 C 736.579 0.910052 1.3257 0
M  V30 8133 O 737.769 1.17537 1.28572 0
M  V30 8134 C 734.901 2.38189 2.43883 0
M  V30 8135 H 736.094 2.91361 0.710562 0
M  V30 8136 H 733.647 1.52694 0.333779 0
M  V30 8137 H 734.382 1.5136 2.86811 0
M  V30 8138 H 734.167 3.18846 2.28209 0
M  V30 8139 H 735.657 2.73025 3.15986 0
M  V30 8140 N 736.094 -0.359525 1.53444 0
M  V30 8141 C 737.371 -1.11756 1.6053 0
M  V30 8142 C 737.751 -2.06949 0.416587 0
M  V30 8143 O 737.099 -2.20681 -0.592628 0
M  V30 8144 C 737.309 -1.85133 2.95849 0
M  V30 8145 C 738.657 -2.3945 3.50641 0
M  V30 8146 O 739.681 -1.95251 2.97918 0
M  V30 8147 O 738.54 -3.20266 4.42823 0
M  V30 8148 H 735.634 -0.513005 0.648656 0
M  V30 8149 H 738.18 -0.362301 1.65787 0
M  V30 8150 H 736.952 -1.15694 3.73806 0
M  V30 8151 H 736.575 -2.67554 2.9411 0
M  V30 8152 N 737.572 -1.44907 -0.619662 0
M  V30 8153 C 738.519 -1.52654 -1.73105 0
M  V30 8154 C 739.489 -0.373334 -1.6185 0
M  V30 8155 O 740.674 -0.585143 -1.81606 0
M  V30 8156 C 737.814 -1.48769 -3.11387 0
M  V30 8157 C 736.927 -2.74551 -3.33535 0
M  V30 8158 C 736.062 -2.62421 -4.61854 0
M  V30 8159 C 735.101 -3.83312 -4.77219 0
M  V30 8160 N 734.238 -3.69789 -5.96826 0
M  V30 8161 H 739.078 -2.47605 -1.65819 0
M  V30 8162 H 736.615 -1.22875 -0.808719 0
M  V30 8163 H 738.573 -1.44507 -3.91374 0
M  V30 8164 H 737.203 -0.573783 -3.1766 0
M  V30 8165 H 736.255 -2.88953 -2.47408 0
M  V30 8166 H 737.567 -3.64253 -3.40765 0
M  V30 8167 H 736.721 -2.56056 -5.50019 0
M  V30 8168 H 735.46 -1.70298 -4.57001 0
M  V30 8169 H 734.465 -3.90049 -3.87481 0
M  V30 8170 H 735.69 -4.76486 -4.83878 0
M  V30 8171 H 733.636 -2.80426 -5.93041 0
M  V30 8172 H 733.553 -4.53116 -6.05163 0
M  V30 8173 H 734.821 -3.67335 -6.87521 0
M  V30 8174 N 739.05 0.861098 -1.31996 0
M  V30 8175 C 739.998 1.99052 -1.20337 0
M  V30 8176 C 740.992 1.69045 -0.109623 0
M  V30 8177 O 742.198 1.77931 -0.272117 0
M  V30 8178 H 738.573 0.653064 -0.372843 0
M  V30 8179 H 740.544 2.06015 -2.15872 0
M  V30 8180 C 739.293 3.34846 -0.936663 0
M  V30 8181 H 738.616 3.58462 -1.77045 0
M  V30 8182 H 740.056 4.1444 -0.895302 0
M  V30 8183 C 738.515 3.34965 0.360607 0
M  V30 8184 O 739.045 3.7745 1.37456 0
M  V30 8185 N 737.251 2.88101 0.380296 0
M  V30 8186 H 736.798 2.53721 -0.445351 0
M  V30 8187 H 736.756 2.88563 1.24816 0
M  V30 8188 N 740.528 1.15101 1.07655 0
M  V30 8189 C 741.475 0.844958 2.14777 0
M  V30 8190 C 742.445 -0.200798 1.64882 0
M  V30 8191 O 743.63 -0.0690278 1.90675 0
M  V30 8192 C 740.77 0.337018 3.4345 0
M  V30 8193 C 739.883 1.44398 4.07153 0
M  V30 8194 C 739.018 0.892487 5.23649 0
M  V30 8195 C 738.057 1.9766 5.79307 0
M  V30 8196 N 737.194 1.44171 6.87138 0
M  V30 8197 H 742.034 1.76242 2.40297 0
M  V30 8198 H 739.571 0.879435 1.17917 0
M  V30 8199 H 741.529 0.024256 4.17193 0
M  V30 8200 H 740.159 -0.543531 3.18191 0
M  V30 8201 H 739.211 1.87299 3.31094 0
M  V30 8202 H 740.523 2.26262 4.4453 0
M  V30 8203 H 739.677 0.532083 6.04362 0
M  V30 8204 H 738.416 0.0429854 4.87681 0
M  V30 8205 H 737.421 2.34586 4.97242 0
M  V30 8206 H 738.646 2.82982 6.17331 0
M  V30 8207 H 736.592 0.614518 6.53115 0
M  V30 8208 H 736.509 2.19665 7.23383 0
M  V30 8209 H 737.777 1.10945 7.71564 0
M  V30 8210 N 742.006 -1.2595 0.947325 0
M  V30 8211 C 743.283 -1.88676 0.515824 0
M  V30 8212 C 743.663 -1.85547 -1.00675 0
M  V30 8213 O 743.011 -1.31399 -1.8694 0
M  V30 8214 C 743.221 -3.31734 1.08415 0
M  V30 8215 C 744.569 -4.08545 1.15654 0
M  V30 8216 O 745.593 -3.40826 1.03517 0
M  V30 8217 O 744.452 -5.29663 1.34608 0
M  V30 8218 H 741.546 -0.809537 0.169055 0
M  V30 8219 H 744.092 -1.34075 1.04029 0
M  V30 8220 H 742.864 -3.28404 2.1276 0
M  V30 8221 H 742.487 -3.93882 0.542499 0
M  V30 8222 N 743.484 -0.715051 -1.40445 0
M  V30 8223 C 744.432 -0.0509974 -2.32544 0
M  V30 8224 C 745.426 0.747602 -1.52011 0
M  V30 8225 O 746.632 0.651031 -1.67814 0
M  V30 8226 H 743.007 0.00231113 -0.751996 0
M  V30 8227 H 744.978 -0.84449 -2.86201 0
M  V30 8228 C 743.727 0.857101 -3.3697 0
M  V30 8229 H 743.05 0.252 -3.99005 0
M  V30 8230 H 744.49 1.28971 -4.03909 0
M  V30 8231 C 742.949 1.98231 -2.72408 0
M  V30 8232 O 743.479 3.07309 -2.58697 0
M  V30 8233 N 741.685 1.76577 -2.308 0
M  V30 8234 H 741.232 0.878641 -2.42152 0
M  V30 8235 H 741.19 2.52043 -1.87941 0
M  V30 8236 N 744.962 1.50701 -0.461195 0
M  V30 8237 C 745.895 2.24948 0.383863 0
M  V30 8238 C 746.873 1.27851 1.00464 0
M  V30 8239 O 748.057 1.57049 1.04249 0
M  V30 8240 C 745.184 3.01818 1.537 0
M  V30 8241 C 744.23 4.13762 1.03457 0
M  V30 8242 S 745.063 5.35483 -0.0427485 0
M  V30 8243 C 746.219 6.15898 1.11449 0
M  V30 8244 H 746.452 2.96277 -0.246425 0
M  V30 8245 H 743.985 1.52428 -0.245961 0
M  V30 8246 H 745.943 3.467 2.19794 0
M  V30 8247 H 744.604 2.30034 2.13877 0
M  V30 8248 H 743.797 4.66914 1.89757 0
M  V30 8249 H 743.399 3.71265 0.4515 0
M  V30 8250 H 745.691 6.46431 2.02813 0
M  V30 8251 H 746.634 7.05359 0.622444 0
M  V30 8252 H 747.042 5.47777 1.36385 0
M  V30 8253 N 746.441 0.193421 1.56409 0
M  V30 8254 C 747.69 -0.445995 1.96707 0
M  V30 8255 C 748.003 -1.62876 1.08309 0
M  V30 8256 O 749.209 -2.33586 1.38383 0
M  V30 8257 C 747.665 -0.844863 3.49843 0
M  V30 8258 C 747.273 0.31352 4.46902 0
M  V30 8259 C 749.017 -1.45146 3.98915 0
M  V30 8260 C 746.924 -0.106214 5.91305 0
M  V30 8261 H 745.854 -0.170398 0.734493 0
M  V30 8262 H 748.505 0.285172 1.81271 0
M  V30 8263 H 746.887 -1.63265 3.60778 0
M  V30 8264 H 748.061 1.09103 4.47698 0
M  V30 8265 H 746.376 0.8315 4.08014 0
M  V30 8266 H 748.973 -1.77792 5.04276 0
M  V30 8267 H 749.316 -2.35734 3.43126 0
M  V30 8268 H 749.849 -0.727675 3.91088 0
M  V30 8269 H 746.588 0.765442 6.51016 0
M  V30 8270 H 746.108 -0.848623 5.93766 0
M  V30 8271 H 747.787 -0.542588 6.44721 0
M  V30 8272 N 747.919 -1.57396 -0.0801906 0
M  V30 8273 C 749.196 -1.77883 -0.813451 0
M  V30 8274 C 749.576 -0.778879 -1.96206 0
M  V30 8275 O 748.924 0.189683 -2.27711 0
M  V30 8276 C 749.134 -3.24116 -1.2942 0
M  V30 8277 C 750.482 -3.87714 -1.73098 0
M  V30 8278 O 751.506 -3.27956 -1.39007 0
M  V30 8279 O 750.365 -4.92828 -2.36184 0
M  V30 8280 H 747.459 -0.729727 -0.389138 0
M  V30 8281 H 750.005 -1.69591 -0.0609166 0
M  V30 8282 H 748.777 -3.88443 -0.471947 0
M  V30 8283 H 748.4 -3.371 -2.1083 0
M  V30 8284 N 749.397 0.351382 -1.53633 0
M  V30 8285 C 750.644 1.0925 -1.70502 0
M  V30 8286 C 750.972 1.88881 -0.464123 0
M  V30 8287 O 750.227 1.87693 0.554077 0
M  V30 8288 C 750.526 2.06744 -2.91533 0
M  V30 8289 C 750.192 1.43484 -4.27461 0
M  V30 8290 C 748.854 1.2596 -4.64422 0
M  V30 8291 C 751.206 0.978436 -5.11934 0
M  V30 8292 C 748.534 0.614017 -5.83478 0
M  V30 8293 C 750.886 0.346795 -6.31649 0
M  V30 8294 C 749.55 0.15917 -6.6731 0
M  V30 8295 H 748.82 0.399773 -0.623909 0
M  V30 8296 H 751.467 0.372656 -1.87839 0
M  V30 8297 H 749.772 2.85082 -2.68767 0
M  V30 8298 H 751.469 2.64066 -3.01778 0
M  V30 8299 H 748.059 1.5812 -3.98367 0
M  V30 8300 H 752.243 1.1017 -4.83918 0
M  V30 8301 H 747.499 0.457194 -6.09688 0
M  V30 8302 H 751.673 -0.0149864 -6.96398 0
M  V30 8303 H 749.3 -0.343129 -7.59425 0
M  V30 8304 N 750.875 1.45233 0.611969 0
M  V30 8305 C 752.152 1.39495 1.37115 0
M  V30 8306 C 752.532 0.0633303 2.11005 0
M  V30 8307 O 751.88 -0.954617 2.07604 0
M  V30 8308 C 752.09 2.60579 2.32163 0
M  V30 8309 C 753.438 3.05477 2.94905 0
M  V30 8310 O 754.462 2.60921 2.42485 0
M  V30 8311 O 753.321 3.82787 3.90047 0
M  V30 8312 H 750.415 0.55335 0.614599 0
M  V30 8313 H 752.961 1.57355 0.635423 0
M  V30 8314 H 751.733 3.49085 1.76793 0
M  V30 8315 H 751.356 2.45031 3.13122 0
M  V30 8316 N 752.353 -0.854086 1.3245 0
M  V30 8317 C 753.263 -1.99503 1.23434 0
M  V30 8318 C 754.279 -1.73371 0.147828 0
M  V30 8319 O 755.455 -1.97998 0.368609 0
M  V30 8320 C 752.52 -3.33192 0.958328 0
M  V30 8321 C 751.581 -3.72542 2.13333 0
M  V30 8322 C 750.814 -4.99852 1.8704 0
M  V30 8323 O 751.037 -5.64573 0.813239 0
M  V30 8324 O 749.971 -5.36345 2.73161 0
M  V30 8325 H 753.797 -2.10046 2.1935 0
M  V30 8326 H 751.382 -0.984823 1.12346 0
M  V30 8327 H 753.264 -4.13327 0.820918 0
M  V30 8328 H 751.939 -3.23687 0.0293299 0
M  V30 8329 H 750.846 -2.92981 2.32622 0
M  V30 8330 H 752.179 -3.86694 3.04514 0
M  V30 8331 N 753.831 -1.1567 -1.07043 0
M  V30 8332 C 755.078 -0.933517 -1.79699 0
M  V30 8333 C 755.406 0.539162 -1.86878 0
M  V30 8334 O 754.661 1.41592 -1.35093 0
M  V30 8335 C 754.96 -1.49677 -3.24548 0
M  V30 8336 C 754.626 -2.99047 -3.37463 0
M  V30 8337 C 753.288 -3.39824 -3.40695 0
M  V30 8338 C 755.64 -3.95027 -3.40004 0
M  V30 8339 C 752.968 -4.75215 -3.44075 0
M  V30 8340 C 755.32 -5.30295 -3.44921 0
M  V30 8341 C 753.984 -5.70562 -3.46432 0
M  V30 8342 H 753.254 -0.341598 -0.657565 0
M  V30 8343 H 755.901 -1.44263 -1.25938 0
M  V30 8344 H 754.206 -0.908915 -3.81111 0
M  V30 8345 H 755.903 -1.29986 -3.79348 0
M  V30 8346 H 752.493 -2.6653 -3.35648 0
M  V30 8347 H 756.677 -3.64596 -3.36725 0
M  V30 8348 H 751.933 -5.05754 -3.43545 0
M  V30 8349 H 756.107 -6.0446 -3.45833 0
M  V30 8350 H 753.734 -6.75456 -3.48803 0
M  V30 8351 N 755.309 1.25446 -0.953992 0
M  V30 8352 C 756.555 1.9343 -0.60933 0
M  V30 8353 C 756.888 1.74542 0.851388 0
M  V30 8354 O 756.163 1.09014 1.61078 0
M  V30 8355 C 756.446 3.46844 -0.968041 0
M  V30 8356 C 756.299 3.74961 -2.48444 0
M  V30 8357 C 757.618 4.37334 -0.492641 0
M  V30 8358 H 754.737 0.702502 -0.222844 0
M  V30 8359 H 757.379 1.48076 -1.19053 0
M  V30 8360 H 755.529 3.85604 -0.473465 0
M  V30 8361 H 757.201 3.45841 -3.05273 0
M  V30 8362 H 755.444 3.20589 -2.92241 0
M  V30 8363 H 756.115 4.82246 -2.68594 0
M  V30 8364 H 758.591 4.05873 -0.916878 0
M  V30 8365 H 757.467 5.43439 -0.772331 0
M  V30 8366 H 757.728 4.37908 0.607403 0
M  V30 8367 N 756.787 0.722489 1.40064 0
M  V30 8368 C 757.735 0.063329 2.32514 0
M  V30 8369 C 758.729 -0.73953 1.52405 0
M  V30 8370 O 759.935 -0.642122 1.68157 0
M  V30 8371 H 756.31 0.00167692 0.751998 0
M  V30 8372 H 758.281 0.859656 2.85749 0
M  V30 8373 C 757.03 -0.839219 3.3742 0
M  V30 8374 H 756.353 -0.230836 3.99133 0
M  V30 8375 H 757.793 -1.26827 4.04587 0
M  V30 8376 C 756.252 -1.96783 2.73456 0
M  V30 8377 O 756.782 -3.05933 2.60323 0
M  V30 8378 N 754.988 -1.75351 2.31734 0
M  V30 8379 H 754.535 -0.865787 2.42615 0
M  V30 8380 H 754.493 -2.51043 1.89275 0
M  V30 8381 N 758.265 -1.50454 0.469181 0
M  V30 8382 C 759.198 -2.25149 -0.371928 0
M  V30 8383 C 760.176 -1.28382 -0.997845 0
M  V30 8384 O 761.36 -1.57599 -1.03415 0
M  V30 8385 C 758.487 -3.02629 -1.52097 0
M  V30 8386 C 757.533 -4.14305 -1.01262 0
M  V30 8387 S 758.366 -5.35453 0.0711459 0
M  V30 8388 C 759.522 -6.1648 -1.08181 0
M  V30 8389 H 759.755 -2.96142 0.262134 0
M  V30 8390 H 757.288 -1.52296 0.254042 0
M  V30 8391 H 759.246 -3.47861 -2.17952 0
M  V30 8392 H 757.907 -2.31165 -2.12654 0
M  V30 8393 H 757.1 -4.67913 -1.87278 0
M  V30 8394 H 756.702 -3.71499 -0.431804 0
M  V30 8395 H 758.994 -6.47497 -1.99382 0
M  V30 8396 H 759.937 -7.05679 -0.585028 0
M  V30 8397 H 760.345 -5.48492 -1.33478 0
M  V30 8398 N 759.743 -0.201713 -1.56304 0
M  V30 8399 C 760.676 0.755976 -2.15314 0
M  V30 8400 C 761.654 1.20497 -1.09175 0
M  V30 8401 O 762.838 1.2913 -1.37323 0
M  V30 8402 C 759.965 2.02177 -2.71739 0
M  V30 8403 C 759.011 1.71436 -3.90528 0
M  V30 8404 S 759.844 0.856624 -5.28604 0
M  V30 8405 C 761 2.13242 -5.88455 0
M  V30 8406 H 761.233 0.254348 -2.9621 0
M  V30 8407 H 758.766 0.0133669 -1.54394 0
M  V30 8408 H 760.724 2.74867 -3.04891 0
M  V30 8409 H 759.385 2.49452 -1.90873 0
M  V30 8410 H 758.578 2.65433 -4.28441 0
M  V30 8411 H 758.18 1.06823 -3.5842 0
M  V30 8412 H 760.472 3.08435 -6.0322 0
M  V30 8413 H 761.415 1.7975 -6.84905 0
M  V30 8414 H 761.823 2.2639 -5.17115 0
M  V30 8415 N 761.222 1.57436 0.0718424 0
M  V30 8416 C 762.172 2.00132 1.09229 0
M  V30 8417 C 763.156 0.883379 1.34481 0
M  V30 8418 O 764.348 1.14728 1.34783 0
M  V30 8419 C 761.477 2.44876 2.40605 0
M  V30 8420 C 760.563 3.63405 2.18627 0
M  V30 8421 N 760.954 4.77583 1.66579 0
M  V30 8422 C 759.252 3.69953 2.491 0
M  V30 8423 C 759.953 5.5943 1.59415 0
M  V30 8424 N 758.929 5.03275 2.05464 0
M  V30 8425 H 762.731 2.85849 0.683185 0
M  V30 8426 H 760.245 1.59987 0.278914 0
M  V30 8427 H 762.242 2.73703 3.14471 0
M  V30 8428 H 760.902 1.60546 2.82232 0
M  V30 8429 H 761.913 4.99875 1.35443 0
M  V30 8430 H 758.59 2.96336 2.94094 0
M  V30 8431 H 759.98 6.61093 1.20026 0
M  V30 8432 N 762.7 -0.34323 1.53817 0
M  V30 8433 C 763.647 -1.42153 1.81827 0
M  V30 8434 C 764.617 -1.52251 0.663996 0
M  V30 8435 O 765.802 -1.67784 0.908461 0
M  V30 8436 C 762.942 -2.78799 2.03384 0
M  V30 8437 C 762.055 -2.7749 3.31094 0
M  V30 8438 C 761.19 -4.05856 3.42717 0
M  V30 8439 C 760.229 -3.98776 4.64375 0
M  V30 8440 N 759.366 -5.18833 4.73029 0
M  V30 8441 H 764.206 -1.17567 2.73829 0
M  V30 8442 H 761.743 -0.569506 1.35628 0
M  V30 8443 H 763.701 -3.58211 2.13872 0
M  V30 8444 H 762.331 -3.01736 1.14696 0
M  V30 8445 H 761.383 -1.90182 3.29446 0
M  V30 8446 H 762.695 -2.68137 4.206 0
M  V30 8447 H 761.849 -4.93691 3.52638 0
M  V30 8448 H 760.588 -4.1799 2.51267 0
M  V30 8449 H 759.593 -3.09325 4.5453 0
M  V30 8450 H 760.818 -3.88224 5.57189 0
M  V30 8451 H 758.764 -5.31511 3.84489 0
M  V30 8452 H 758.681 -5.11737 5.56472 0
M  V30 8453 H 759.949 -6.08439 4.87261 0
M  V30 8454 N 764.178 -1.45556 -0.604258 0
M  V30 8455 C 765.427 -1.49019 -1.35928 0
M  V30 8456 C 765.74 -0.137409 -1.95117 0
M  V30 8457 O 766.946 -0.0497032 -2.71455 0
M  V30 8458 C 765.402 -2.62477 -2.46239 0
M  V30 8459 C 765.01 -4.04082 -1.93447 0
M  V30 8460 C 766.754 -2.7519 -3.23219 0
M  V30 8461 C 764.661 -5.08917 -3.0126 0
M  V30 8462 H 763.591 -0.554518 -0.510907 0
M  V30 8463 H 766.242 -1.71705 -0.647262 0
M  V30 8464 H 764.624 -2.3308 -3.2014 0
M  V30 8465 H 765.798 -4.43173 -1.26232 0
M  V30 8466 H 764.113 -3.95849 -1.29201 0
M  V30 8467 H 766.71 -3.50683 -4.0364 0
M  V30 8468 H 767.053 -1.81941 -3.74437 0
M  V30 8469 H 767.586 -3.04129 -2.56418 0
M  V30 8470 H 764.325 -6.03886 -2.54955 0
M  V30 8471 H 763.845 -4.74393 -3.67031 0
M  V30 8472 H 765.524 -5.33814 -3.65584 0
M  V30 8473 N 765.656 0.84705 -1.32902 0
M  V30 8474 C 766.896 1.61554 -1.25218 0
M  V30 8475 C 767.26 1.91141 0.18143 0
M  V30 8476 O 768.461 2.6607 0.382106 0
M  V30 8477 C 766.732 2.89553 -2.09509 0
M  V30 8478 S 768.291 3.80283 -2.18931 0
M  V30 8479 H 765.109 0.554031 -0.445613 0
M  V30 8480 H 767.711 1.00251 -1.67839 0
M  V30 8481 H 766.415 2.65776 -3.12716 0
M  V30 8482 H 765.946 3.55868 -1.67694 0
M  V30 8483 H 767.961 4.77641 -1.34438 0
M  V30 8484 N 767.134 1.16236 1.06428 0
M  V30 8485 C 768.411 0.853294 1.76006 0
M  V30 8486 C 768.791 -0.649162 2.00871 0
M  V30 8487 O 768.139 -1.59653 1.63472 0
M  V30 8488 C 768.349 1.67448 3.06206 0
M  V30 8489 C 769.697 1.8866 3.80385 0
M  V30 8490 O 770.721 1.64303 3.16043 0
M  V30 8491 O 769.58 2.29518 4.95968 0
M  V30 8492 H 766.674 0.314737 0.764767 0
M  V30 8493 H 769.22 1.26865 1.12709 0
M  V30 8494 H 767.992 2.69411 2.83784 0
M  V30 8495 H 767.615 1.25608 3.77238 0
M  V30 8496 N 768.612 -1.24939 0.960631 0
M  V30 8497 C 769.56 -2.27659 0.47686 0
M  V30 8498 C 770.554 -1.63148 -0.455961 0
M  V30 8499 O 771.76 -1.76911 -0.332029 0
M  V30 8500 H 768.135 -0.739651 0.135723 0
M  V30 8501 H 770.106 -2.65844 1.35534 0
M  V30 8502 C 768.855 -3.46976 -0.224191 0
M  V30 8503 H 768.178 -3.96854 0.484471 0
M  V30 8504 H 769.618 -4.20717 -0.526615 0
M  V30 8505 C 768.077 -3.04159 -1.44876 0
M  V30 8506 O 768.607 -3.10697 -2.54618 0
M  V30 8507 N 766.813 -2.59284 -1.31226 0
M  V30 8508 H 766.36 -2.54164 -0.419361 0
M  V30 8509 H 766.318 -2.31 -2.13275 0
M  V30 8510 N 770.09 -0.729906 -1.39679 0
M  V30 8511 C 771.037 -0.0866063 -2.30637 0
M  V30 8512 C 772.007 0.735115 -1.48947 0
M  V30 8513 O 773.192 0.696125 -1.77648 0
M  V30 8514 C 770.332 0.818524 -3.35252 0
M  V30 8515 C 769.445 -0.0152635 -4.31997 0
M  V30 8516 C 768.58 0.890669 -5.2368 0
M  V30 8517 C 767.619 0.0518246 -6.12078 0
M  V30 8518 N 766.756 0.913411 -6.96133 0
M  V30 8519 H 771.596 -0.867925 -2.85081 0
M  V30 8520 H 769.133 -0.439673 -1.40376 0
M  V30 8521 H 771.091 1.3577 -3.9449 0
M  V30 8522 H 769.721 1.56587 -2.82277 0
M  V30 8523 H 768.773 -0.671794 -3.74421 0
M  V30 8524 H 770.085 -0.664086 -4.9436 0
M  V30 8525 H 769.239 1.49787 -5.87919 0
M  V30 8526 H 767.978 1.57328 -4.61627 0
M  V30 8527 H 766.983 -0.568209 -5.46856 0
M  V30 8528 H 768.208 -0.627497 -6.76195 0
M  V30 8529 H 766.154 1.58141 -6.36653 0
M  V30 8530 H 766.071 0.320952 -7.55318 0
M  V30 8531 H 767.339 1.50633 -7.64807 0
M  V30 8532 N 771.568 1.50203 -0.477153 0
M  V30 8533 C 772.793 2.07263 0.0754986 0
M  V30 8534 C 773.218 1.33801 1.32208 0
M  V30 8535 O 772.576 0.387482 1.77111 0
M  V30 8536 C 772.624 3.59028 0.336348 0
M  V30 8537 O 771.728 3.87339 1.4157 0
M  V30 8538 H 771.069 0.663815 -0.015662 0
M  V30 8539 H 773.599 1.93321 -0.669936 0
M  V30 8540 H 773.609 4.03927 0.575034 0
M  V30 8541 H 772.284 4.11912 -0.574551 0
M  V30 8542 H 770.861 3.54272 1.16385 0
M  V30 8543 N 773.046 0.209999 1.56195 0
M  V30 8544 C 774.271 -0.433064 2.02828 0
M  V30 8545 C 774.696 -1.5337 1.08901 0
M  V30 8546 O 774.054 -1.81144 0.0751132 0
M  V30 8547 C 774.102 -0.952635 3.47789 0
M  V30 8548 O 773.206 -2.0647 3.56993 0
M  V30 8549 H 772.547 -0.0994594 0.656509 0
M  V30 8550 H 775.077 0.32525 2.01998 0
M  V30 8551 H 775.087 -1.26542 3.8788 0
M  V30 8552 H 773.762 -0.147007 4.1564 0
M  V30 8553 H 772.339 -1.75942 3.28784 0
M  V30 8554 O 774.563 -1.61333 0.0733639 0
M  V30 8555 H 775.254 -1.86233 -0.532616 0
M  V30 END ATOM
M  V30 BEGIN BOND
M  V30 END BOND
M  V30 END CTAB
M  END
$$$$
