drugbank_target|P0A8Q0 Fumarate reductase subunit C (DB07490; DB07918)
 OpenBabel12092120443D

  0  0  0     0  0            999 V3000
M  V30 BEGIN CTAB
M  V30 COUNTS 2183 2219 0 0 0
M  V30 BEGIN ATOM
M  V30 1 H -0.908 1.98254 -0.117106 0
M  V30 2 N 0 1.576 0 0
M  V30 3 C 0.933 2.03868 1.02534 0
M  V30 4 C 1.911 0.928543 1.3348 0
M  V30 5 O 3.095 1.19667 1.45644 0
M  V30 6 C 0.222 2.43627 2.35294 0
M  V30 7 C -0.732 3.65373 2.2001 0
M  V30 8 S 0.101 5.13292 1.52614 0
M  V30 9 C 1.257 5.56322 2.86805 0
M  V30 10 H 1.49 2.90518 0.631377 0
M  V30 11 H -0.977 1.52953 0.210867 0
M  V30 12 H 0.981 2.67203 3.11629 0
M  V30 13 H -0.358 1.57376 2.7183 0
M  V30 14 H -1.165 3.90944 3.18086 0
M  V30 15 H -1.563 3.418 1.51819 0
M  V30 16 H 0.729 5.58782 3.83104 0
M  V30 17 H 1.672 6.56266 2.65933 0
M  V30 18 H 2.08 4.83886 2.90714 0
M  V30 19 N 1.4781 -0.272755 1.55222 0
M  V30 20 C 2.7061 -1.02255 1.79865 0
M  V30 21 C 3.1211 -1.79924 0.572088 0
M  V30 22 O 2.4781 -1.76638 -0.458842 0
M  V30 23 C 2.5291 -1.98094 3.02392 0
M  V30 24 O 2.2501 -1.23572 4.20311 0
M  V30 25 C 3.7511 -2.84884 3.39641 0
M  V30 26 H 0.9711 -0.302057 0.599168 0
M  V30 27 H 3.5151 -0.303465 2.02236 0
M  V30 28 H 1.6701 -2.65465 2.82147 0
M  V30 29 H 2.0841 -1.88172 4.89583 0
M  V30 30 H 3.5581 -3.47927 4.28545 0
M  V30 31 H 4.0351 -3.54665 2.59055 0
M  V30 32 H 4.6411 -2.23003 3.62146 0
M  V30 33 N 2.9562 -1.48159 -0.537278 0
M  V30 34 C 4.1842 -1.59454 -1.31841 0
M  V30 35 C 4.5992 -0.252065 -1.8711 0
M  V30 36 O 3.9562 0.757621 -1.66031 0
M  V30 37 C 4.0072 -2.63546 -2.47439 0
M  V30 38 O 3.7282 -3.92583 -1.94449 0
M  V30 39 C 5.2292 -2.85212 -3.39366 0
M  V30 40 H 2.4492 -0.53785 -0.401196 0
M  V30 41 H 4.9932 -1.93932 -0.648891 0
M  V30 42 H 3.1482 -2.31946 -3.1029 0
M  V30 43 H 3.5622 -4.49629 -2.70063 0
M  V30 44 H 5.0362 -3.61863 -4.16844 0
M  V30 45 H 5.5132 -1.93765 -3.94147 0
M  V30 46 H 6.1192 -3.18086 -2.82314 0
M  V30 47 N 4.4343 0.785586 -1.36625 0
M  V30 48 C 5.3813 1.89838 -1.31264 0
M  V30 49 C 6.3513 1.65115 -0.180633 0
M  V30 50 O 7.5363 1.87222 -0.36777 0
M  V30 51 C 4.6763 3.26706 -1.11163 0
M  V30 52 C 3.7893 3.63476 -2.33472 0
M  V30 53 C 2.9243 4.89481 -2.06353 0
M  V30 54 C 1.9633 5.18941 -3.24602 0
M  V30 55 N 1.1003 6.36131 -2.97123 0
M  V30 56 H 5.9403 1.93756 -2.26413 0
M  V30 57 H 3.4773 0.947454 -1.12524 0
M  V30 58 H 5.4353 4.05639 -0.975337 0
M  V30 59 H 4.0653 3.222 -0.196674 0
M  V30 60 H 3.1173 2.79636 -2.57891 0
M  V30 61 H 4.4293 3.81193 -3.21704 0
M  V30 62 H 3.5833 5.76288 -1.89675 0
M  V30 63 H 2.3223 4.73841 -1.15437 0
M  V30 64 H 1.3273 4.30615 -3.41834 0
M  V30 65 H 2.5523 5.36498 -4.16349 0
M  V30 66 H 0.4983 6.21875 -2.08823 0
M  V30 67 H 0.4153 6.54198 -3.78894 0
M  V30 68 H 1.6833 7.2591 -2.84033 0
M  V30 69 N 5.9124 1.20967 1.01018 0
M  V30 70 C 7.3284 0.965905 1.27053 0
M  V30 71 C 7.5284 -0.350785 1.98423 0
M  V30 72 O 6.5844 -1.07773 2.28344 0
M  V30 73 C 7.8974 2.15294 2.09926 0
M  V30 74 C 9.4454 2.19463 2.23171 0
M  V30 75 C 9.9204 3.3767 3.09424 0
M  V30 76 N 11.4114 3.37724 3.17012 0
M  V30 77 C 12.1464 4.25837 3.83993 0
M  V30 78 N 11.6424 5.24138 4.53047 0
M  V30 79 N 13.4354 4.1366 3.80581 0
M  V30 80 H 5.5864 2.0565 0.531194 0
M  V30 81 H 7.8494 0.90024 0.297106 0
M  V30 82 H 7.5554 3.10684 1.64828 0
M  V30 83 H 7.4294 2.13923 3.10672 0
M  V30 84 H 9.8164 1.24632 2.6749 0
M  V30 85 H 9.8974 2.2488 1.21912 0
M  V30 86 H 9.5414 4.32791 2.65808 0
M  V30 87 H 9.4714 3.29491 4.10784 0
M  V30 88 H 11.9624 2.6658 2.6785 0
M  V30 89 H 12.2754 5.87684 5.01844 0
M  V30 90 H 10.6204 5.28068 4.5185 0
M  V30 91 H 13.8114 3.36127 3.25785 0
M  V30 92 H 13.9844 4.82538 4.32505 0
M  V30 93 N 7.3905 -1.2043 1.01659 0
M  V30 94 C 8.3375 -2.23215 0.586822 0
M  V30 95 C 9.3075 -1.61382 -0.393085 0
M  V30 96 O 10.4925 -1.88544 -0.292525 0
M  V30 97 C 7.6325 -3.45032 -0.0687464 0
M  V30 98 C 6.7455 -4.21296 0.955724 0
M  V30 99 C 5.8805 -5.30507 0.271208 0
M  V30 100 C 4.9195 -5.98515 1.28244 0
M  V30 101 N 4.0565 -6.99316 0.62459 0
M  V30 102 H 8.8965 -2.59336 1.46796 0
M  V30 103 H 6.4335 -1.27431 0.734836 0
M  V30 104 H 8.3915 -4.1459 -0.465965 0
M  V30 105 H 7.0215 -3.09604 -0.913529 0
M  V30 106 H 6.0735 -3.50803 1.4711 0
M  V30 107 H 7.3855 -4.6803 1.72479 0
M  V30 108 H 6.5395 -6.06428 -0.18151 0
M  V30 109 H 5.2785 -4.8481 -0.530163 0
M  V30 110 H 4.2835 -5.21355 1.74554 0
M  V30 111 H 5.5085 -6.46298 2.08509 0
M  V30 112 H 3.4545 -6.55812 -0.156914 0
M  V30 113 H 3.3715 -7.44178 1.33172 0
M  V30 114 H 4.6395 -7.79255 0.195462 0
M  V30 115 N 8.8686 -0.792821 -1.36206 0
M  V30 116 C 10.2796 -0.429513 -1.81692 0
M  V30 117 C 10.6306 1.04695 -1.65932 0
M  V30 118 O 9.7556 1.81256 -1.18218 0
M  V30 119 C 10.3506 -0.772831 -3.29868 0
M  V30 120 C 8.9096 -0.462307 -3.7355 0
M  V30 121 C 8.0566 -1.00569 -2.5842 0
M  V30 122 H 11.0076 -0.985672 -1.24379 0
M  V30 123 H 11.0286 -0.0651928 -3.80444 0
M  V30 124 H 10.5406 -1.84747 -3.41307 0
M  V30 125 H 8.6416 0.604158 -3.67669 0
M  V30 126 H 8.7546 -0.985299 -4.68859 0
M  V30 127 H 7.1186 -0.428734 -2.51066 0
M  V30 128 H 7.9016 -2.08616 -2.72643 0
M  V30 129 N 10.3467 1.47872 -0.545128 0
M  V30 130 C 11.5767 2.06589 -0.0210534 0
M  V30 131 C 11.9847 1.39997 1.27269 0
M  V30 132 O 11.3277 0.486421 1.77143 0
M  V30 133 C 11.3897 3.58574 0.257933 0
M  V30 134 C 11.0537 4.47132 -0.944573 0
M  V30 135 C 12.0507 4.85986 -1.84699 0
M  V30 136 C 9.7357 4.88821 -1.15584 0
M  V30 137 C 11.7297 5.65314 -2.94446 0
M  V30 138 C 9.4167 5.67916 -2.25642 0
M  V30 139 C 10.4147 6.06073 -3.14905 0
M  V30 140 O 10.1027 6.83578 -4.23057 0
M  V30 141 H 9.8347 0.674971 -0.0372899 0
M  V30 142 H 12.3887 1.91037 -0.754599 0
M  V30 143 H 10.6187 3.72295 1.04564 0
M  V30 144 H 12.3077 3.99356 0.72592 0
M  V30 145 H 13.0737 4.54388 -1.69577 0
M  V30 146 H 8.9527 4.58595 -0.470279 0
M  V30 147 H 12.4967 5.95016 -3.64145 0
M  V30 148 H 8.3937 5.98927 -2.40742 0
M  V30 149 H 9.1617 7.01954 -4.20954 0
M  V30 150 N 11.8248 0.280983 1.55075 0
M  V30 151 C 13.0708 -0.33461 2.00021 0
M  V30 152 C 13.4038 -1.55063 1.16915 0
M  V30 153 O 12.6788 -1.93006 0.240646 0
M  V30 154 C 12.9618 -0.711007 3.53011 0
M  V30 155 C 12.8148 0.512766 4.46868 0
M  V30 156 C 14.1338 -1.54522 4.12081 0
M  V30 157 H 11.2528 -0.120147 0.727141 0
M  V30 158 H 13.8948 0.389097 1.85973 0
M  V30 159 H 12.0448 -1.32761 3.65112 0
M  V30 160 H 13.7168 1.15131 4.46702 0
M  V30 161 H 11.9598 1.14975 4.18286 0
M  V30 162 H 12.6308 0.205556 5.51617 0
M  V30 163 H 15.1068 -1.02442 4.03293 0
M  V30 164 H 13.9828 -1.77739 5.19327 0
M  V30 165 H 14.2438 -2.52813 3.62682 0
M  V30 166 N 13.3029 -1.57598 0.00835791 0
M  V30 167 C 14.7189 -1.55764 -0.347822 0
M  V30 168 C 14.9189 -1.01186 -1.74252 0
M  V30 169 O 13.9749 -0.649371 -2.44007 0
M  V30 170 C 15.2879 -2.99927 -0.215407 0
M  V30 171 C 16.8359 -3.11656 -0.289725 0
M  V30 172 C 17.3109 -4.57621 -0.18634 0
M  V30 173 N 18.8019 -4.62557 -0.243978 0
M  V30 174 C 19.5369 -5.73094 -0.18745 0
M  V30 175 N 19.0329 -6.92753 -0.0810331 0
M  V30 176 N 20.8259 -5.61588 -0.239925 0
M  V30 177 H 12.9769 -1.91411 0.92062 0
M  V30 178 H 15.2399 -0.879562 0.353659 0
M  V30 179 H 14.9459 -3.43729 0.744512 0
M  V30 180 H 14.8199 -3.63865 -0.994097 0
M  V30 181 H 17.2069 -2.67779 -1.24009 0
M  V30 182 H 17.2879 -2.5048 0.51898 0
M  V30 183 H 16.9319 -5.02174 0.760519 0
M  V30 184 H 16.8619 -5.16752 -1.01364 0
M  V30 185 H 19.3529 -3.76481 -0.327217 0
M  V30 186 H 19.6659 -7.72787 -0.0440241 0
M  V30 187 H 18.0109 -6.94984 -0.0465419 0
M  V30 188 H 21.2019 -4.66996 -0.321317 0
M  V30 189 H 21.3749 -6.47714 -0.192407 0
M  V30 190 N 14.781 0.264519 -1.55364 0
M  V30 191 C 16.192 0.834936 -1.6699 0
M  V30 192 C 16.543 1.86718 -0.602552 0
M  V30 193 O 15.668 2.14899 0.254425 0
M  V30 194 C 16.263 1.5212 -3.02729 0
M  V30 195 C 14.822 2.03954 -3.16354 0
M  V30 196 C 13.969 0.884498 -2.62815 0
M  V30 197 H 16.92 0.0406869 -1.58648 0
M  V30 198 H 16.941 2.38853 -2.96191 0
M  V30 199 H 16.453 0.769668 -3.80392 0
M  V30 200 H 14.554 2.82041 -2.43482 0
M  V30 201 H 14.667 2.24902 -4.23032 0
M  V30 202 H 13.031 1.2802 -2.20188 0
M  V30 203 H 13.814 0.14634 -3.42988 0
M  V30 204 N 16.2591 1.48442 0.529413 0
M  V30 205 C 17.1921 1.57577 1.65059 0
M  V30 206 C 18.1701 0.426198 1.56915 0
M  V30 207 O 19.3541 0.637877 1.77379 0
M  V30 208 C 16.4811 1.5043 3.03461 0
M  V30 209 C 15.5271 2.70235 3.29962 0
M  V30 210 S 16.3601 4.32198 3.16172 0
M  V30 211 C 17.5161 4.2765 4.57019 0
M  V30 212 H 17.7491 2.52427 1.5706 0
M  V30 213 H 15.2821 1.36982 0.712417 0
M  V30 214 H 17.2401 1.46992 3.8328 0
M  V30 215 H 15.9011 0.569167 3.089 0
M  V30 216 H 15.0941 2.61374 4.30929 0
M  V30 217 H 14.6961 2.70938 2.57815 0
M  V30 218 H 16.9881 3.97618 5.48549 0
M  V30 219 H 17.9311 5.28797 4.70934 0
M  V30 220 H 18.3391 3.5811 4.36368 0
M  V30 221 N 17.7372 -0.778329 1.37039 0
M  V30 222 C 18.9652 -1.56734 1.35063 0
M  V30 223 C 19.3802 -1.88686 -0.0655597 0
M  V30 224 O 18.7372 -1.5096 -1.02554 0
M  V30 225 C 18.7882 -2.88163 2.18276 0
M  V30 226 O 18.5092 -2.57583 3.54376 0
M  V30 227 C 20.0102 -3.82422 2.24206 0
M  V30 228 H 17.2302 -0.485778 0.462883 0
M  V30 229 H 19.7742 -0.965185 1.8029 0
M  V30 230 H 17.9292 -3.44818 1.76576 0
M  V30 231 H 18.3432 -3.41699 3.97922 0
M  V30 232 H 19.8172 -4.71667 2.86765 0
M  V30 233 H 20.2942 -4.21078 1.24861 0
M  V30 234 H 20.9002 -3.31697 2.6619 0
M  V30 235 N 19.2153 -1.21501 -1.00376 0
M  V30 236 C 20.4403 -1.05977 -1.78279 0
M  V30 237 C 20.8653 0.385994 -1.84097 0
M  V30 238 O 20.2233 1.27849 -1.28547 0
M  V30 239 C 20.2713 -1.66302 -3.19963 0
M  V30 240 O 19.3753 -0.909333 -4.0225 0
M  V30 241 H 18.7163 -0.372906 -0.549397 0
M  V30 242 H 21.2463 -1.6107 -1.26165 0
M  V30 243 H 21.2563 -1.70574 -3.70632 0
M  V30 244 H 19.9313 -2.71515 -3.15043 0
M  V30 245 H 18.5083 -0.941795 -3.60811 0
M  V30 246 N 20.6934 1.19889 -1.02296 0
M  V30 247 C 21.9214 1.9339 -0.735399 0
M  V30 248 C 22.3364 1.75148 0.704887 0
M  V30 249 O 21.6934 1.06954 1.47875 0
M  V30 250 C 21.7444 3.45313 -1.06962 0
M  V30 251 O 21.4654 3.62964 -2.45334 0
M  V30 252 C 22.9664 4.35948 -0.804021 0
M  V30 253 H 20.1864 0.61448 -0.269546 0
M  V30 254 H 22.7304 1.522 -1.36585 0
M  V30 255 H 20.8854 3.84359 -0.484455 0
M  V30 256 H 21.2994 4.56886 -2.57595 0
M  V30 257 H 22.7734 5.41174 -1.0879 0
M  V30 258 H 23.2504 4.3842 0.261691 0
M  V30 259 H 23.8564 4.02574 -1.37164 0
M  V30 260 N 22.1715 0.800033 1.35784 0
M  V30 261 C 23.4175 0.38701 1.99684 0
M  V30 262 C 23.7725 -1.03268 1.62338 0
M  V30 263 O 23.0655 -1.70543 0.87325 0
M  V30 264 C 23.2595 0.500276 3.53881 0
M  V30 265 C 23.0885 1.92942 4.06206 0
M  V30 266 C 21.8585 2.55637 4.35865 0
M  V30 267 C 24.0565 2.89307 4.25213 0
M  V30 268 N 22.0385 3.9003 4.74078 0
M  V30 269 C 23.4095 4.08556 4.66349 0
M  V30 270 C 25.4645 2.86225 4.07406 0
M  V30 271 C 24.1675 5.25146 4.91543 0
M  V30 272 C 26.1935 4.02011 4.33752 0
M  V30 273 C 25.5555 5.20007 4.75155 0
M  V30 274 H 21.6545 0.189252 0.758754 0
M  V30 275 H 24.2385 1.03988 1.64604 0
M  V30 276 H 22.4095 -0.122568 3.88207 0
M  V30 277 H 24.1415 0.0624733 4.04652 0
M  V30 278 H 20.8965 2.07039 4.25948 0
M  V30 279 H 21.3205 4.59205 4.97454 0
M  V30 280 H 25.9625 1.96154 3.74544 0
M  V30 281 H 23.6805 6.15794 5.23281 0
M  V30 282 H 27.2665 4.00999 4.21534 0
M  V30 283 H 26.1465 6.08113 4.95145 0
M  V30 284 N 23.6496 -1.47581 0.552962 0
M  V30 285 C 24.8956 -2.03369 0.0355807 0
M  V30 286 C 25.2506 -1.42016 -1.29805 0
M  V30 287 O 24.5436 -0.564917 -1.83083 0
M  V30 288 C 24.7376 -3.57199 -0.119728 0
M  V30 289 C 24.5666 -4.33468 1.1973 0
M  V30 290 C 23.3366 -4.7353 1.76345 0
M  V30 291 C 25.5346 -4.68866 2.11351 0
M  V30 292 N 23.5166 -5.34426 3.02097 0
M  V30 293 C 24.8876 -5.3002 3.21681 0
M  V30 294 C 26.9426 -4.50795 2.11397 0
M  V30 295 C 25.6456 -5.75011 4.32151 0
M  V30 296 C 27.6716 -4.96782 3.20876 0
M  V30 297 C 27.0336 -5.57981 4.29926 0
M  V30 298 H 23.1326 -0.780058 0.0550806 0
M  V30 299 H 25.7166 -1.80117 0.739315 0
M  V30 300 H 23.8876 -3.80227 -0.792579 0
M  V30 301 H 25.6196 -3.99627 -0.638792 0
M  V30 302 H 22.3746 -4.55352 1.30196 0
M  V30 303 H 22.7986 -5.69421 3.66182 0
M  V30 304 H 27.4406 -4.0284 1.28372 0
M  V30 305 H 25.1586 -6.21959 5.15938 0
M  V30 306 H 28.7446 -4.84573 3.21994 0
M  V30 307 H 27.6246 -5.92918 5.13243 0
M  V30 308 N 25.1277 -0.289203 -1.54924 0
M  V30 309 C 26.0747 0.592115 -2.23075 0
M  V30 310 C 27.0447 1.13881 -1.20915 0
M  V30 311 O 28.2297 1.18551 -1.495 0
M  V30 312 C 25.3697 1.76376 -2.96623 0
M  V30 313 C 24.4827 1.24959 -4.13533 0
M  V30 314 C 23.6177 2.38416 -4.74691 0
M  V30 315 C 22.6567 1.84072 -5.83767 0
M  V30 316 N 21.7937 2.91057 -6.38929 0
M  V30 317 H 26.6337 0.00432038 -2.98 0
M  V30 318 H 24.1707 -0.00963529 -1.47097 0
M  V30 319 H 26.1287 2.45268 -3.3749 0
M  V30 320 H 24.7587 2.32337 -2.24097 0
M  V30 321 H 23.8107 0.453307 -3.77689 0
M  V30 322 H 25.1227 0.811662 -4.92152 0
M  V30 323 H 24.2767 3.15276 -5.18349 0
M  V30 324 H 23.0157 2.8553 -3.95378 0
M  V30 325 H 22.0207 1.05697 -5.39545 0
M  V30 326 H 23.2457 1.37877 -6.64956 0
M  V30 327 H 21.1917 3.37526 -5.62505 0
M  V30 328 H 21.1087 2.51724 -7.12861 0
M  V30 329 H 22.3767 3.6785 -6.87246 0
M  V30 330 N 26.6058 1.57591 -0.0167156 0
M  V30 331 C 27.5528 2.09462 0.969251 0
M  V30 332 C 28.5228 0.99381 1.33089 0
M  V30 333 O 29.7078 1.26726 1.42636 0
M  V30 334 C 26.8478 2.61622 2.25051 0
M  V30 335 C 25.9608 3.85666 1.94642 0
M  V30 336 C 25.0958 4.26266 3.16972 0
M  V30 337 C 24.1348 5.43101 2.82326 0
M  V30 338 N 23.2718 5.78915 3.97243 0
M  V30 339 H 28.1118 2.93428 0.519997 0
M  V30 340 H 25.6488 1.45044 0.245087 0
M  V30 341 H 27.6068 2.89949 2.99976 0
M  V30 342 H 26.2368 1.80505 2.67615 0
M  V30 343 H 25.2888 3.64145 1.10013 0
M  V30 344 H 26.6008 4.70678 1.65117 0
M  V30 345 H 25.7548 4.55963 4.00228 0
M  V30 346 H 24.4938 3.39996 3.49648 0
M  V30 347 H 23.4988 5.1311 1.97479 0
M  V30 348 H 24.7238 6.3106 2.50879 0
M  V30 349 H 22.6698 4.95602 4.29785 0
M  V30 350 H 22.5868 6.58539 3.71299 0
M  V30 351 H 23.8548 6.13212 4.81239 0
M  V30 352 N 28.0839 -0.256276 1.55502 0
M  V30 353 C 29.0139 -1.32102 1.92539 0
M  V30 354 C 29.9949 -1.50684 0.789194 0
M  V30 355 O 31.1799 -1.63449 1.04872 0
M  V30 356 C 28.3099 -2.67752 2.21192 0
M  V30 357 C 27.2639 -2.63878 3.36975 0
M  V30 358 C 26.5899 -4.03236 3.51147 0
M  V30 359 C 27.8899 -2.21682 4.72921 0
M  V30 360 H 29.5839 -1.01351 2.81724 0
M  V30 361 H 27.1299 -0.486105 1.35547 0
M  V30 362 H 29.0829 -3.42365 2.45691 0
M  V30 363 H 27.8069 -3.0012 1.28824 0
M  V30 364 H 26.4659 -1.91722 3.12471 0
M  V30 365 H 26.1139 -4.32854 2.56216 0
M  V30 366 H 25.8139 -4.01535 4.29003 0
M  V30 367 H 27.3379 -4.79563 3.77957 0
M  V30 368 H 28.7519 -2.86023 4.96854 0
M  V30 369 H 27.1489 -2.3111 5.53812 0
M  V30 370 H 28.2189 -1.16833 4.70615 0
M  V30 371 N 29.562 -1.4872 -0.521534 0
M  V30 372 C 30.973 -1.50607 -1.10337 0
M  V30 373 C 31.324 -0.280612 -1.94183 0
M  V30 374 O 30.449 0.611507 -2.0758 0
M  V30 375 C 31.044 -2.72903 -2.00772 0
M  V30 376 C 29.603 -2.77634 -2.54158 0
M  V30 377 C 28.75 -2.44241 -1.31307 0
M  V30 378 H 31.701 -1.55714 -0.306388 0
M  V30 379 H 31.722 -2.519 -2.85178 0
M  V30 380 H 31.234 -3.62077 -1.39721 0
M  V30 381 H 29.335 -1.92689 -3.18907 0
M  V30 382 H 29.448 -3.79283 -2.92714 0
M  V30 383 H 27.812 -1.95577 -1.63161 0
M  V30 384 H 28.595 -3.35666 -0.719943 0
M  V30 385 N 31.0401 0.771051 -1.3745 0
M  V30 386 C 32.2871 1.52963 -1.32697 0
M  V30 387 C 32.6151 1.94299 0.0883274 0
M  V30 388 O 31.8701 1.64397 1.0617 0
M  V30 389 C 32.1691 2.80676 -2.2126 0
M  V30 390 C 31.8351 2.58389 -3.69521 0
M  V30 391 C 30.4971 2.52019 -4.09927 0
M  V30 392 C 32.8491 2.38469 -4.63446 0
M  V30 393 C 30.1771 2.23721 -5.42371 0
M  V30 394 C 32.5291 2.11694 -5.96128 0
M  V30 395 C 31.1931 2.03769 -6.35637 0
M  V30 396 H 30.4631 0.559732 -0.485573 0
M  V30 397 H 33.1101 0.888083 -1.69662 0
M  V30 398 H 31.4151 3.49392 -1.77291 0
M  V30 399 H 33.1121 3.38557 -2.14895 0
M  V30 400 H 29.7021 2.6421 -3.37478 0
M  V30 401 H 33.8861 2.4238 -4.33089 0
M  V30 402 H 29.1421 2.16081 -5.71943 0
M  V30 403 H 33.3161 1.9528 -6.6846 0
M  V30 404 H 30.9431 1.81606 -7.38189 0
M  V30 405 N 32.5182 1.22032 0.997298 0
M  V30 406 C 33.7482 1.06686 1.76923 0
M  V30 407 C 34.1562 -0.385838 1.85224 0
M  V30 408 O 33.4992 -1.27929 1.31833 0
M  V30 409 C 33.5612 1.59802 3.22031 0
M  V30 410 C 33.2252 3.08362 3.37286 0
M  V30 411 C 34.2222 4.05835 3.24952 0
M  V30 412 C 31.9072 3.47727 3.6248 0
M  V30 413 C 33.9012 5.4066 3.37588 0
M  V30 414 C 31.5882 4.82701 3.74757 0
M  V30 415 C 32.5862 5.78977 3.62319 0
M  V30 416 O 32.2742 7.11502 3.74193 0
M  V30 417 H 32.0062 0.374767 0.562606 0
M  V30 418 H 34.5602 1.61991 1.26286 0
M  V30 419 H 32.7902 0.989003 3.73839 0
M  V30 420 H 34.4792 1.40184 3.80924 0
M  V30 421 H 35.2452 3.76766 3.05405 0
M  V30 422 H 31.1242 2.73317 3.7124 0
M  V30 423 H 34.6682 6.15788 3.27796 0
M  V30 424 H 30.5652 5.11453 3.9381 0
M  V30 425 H 31.3332 7.19019 3.91093 0
M  V30 426 N 33.9963 -1.19345 1.0293 0
M  V30 427 C 35.4123 -1.41069 0.746446 0
M  V30 428 C 35.6123 -1.90078 -0.668776 0
M  V30 429 O 34.6683 -2.0778 -1.4347 0
M  V30 430 C 35.9813 -2.42141 1.78292 0
M  V30 431 C 37.5293 -2.55887 1.80252 0
M  V30 432 C 38.0043 -3.60214 2.8286 0
M  V30 433 N 39.4953 -3.67711 2.81679 0
M  V30 434 C 40.2303 -4.48128 3.57727 0
M  V30 435 N 39.7263 -5.32248 4.43491 0
M  V30 436 N 41.5193 -4.42782 3.46267 0
M  V30 437 H 33.6703 -0.858536 1.94275 0
M  V30 438 H 35.9333 -0.439541 0.839945 0
M  V30 439 H 35.6393 -2.13155 2.79746 0
M  V30 440 H 35.5133 -3.41323 1.60557 0
M  V30 441 H 37.9003 -2.84196 0.794757 0
M  V30 442 H 37.9813 -1.56858 2.02062 0
M  V30 443 H 37.6253 -3.32647 3.83807 0
M  V30 444 H 37.5553 -4.58895 2.58307 0
M  V30 445 H 40.0463 -3.07634 2.19476 0
M  V30 446 H 40.3593 -5.90729 4.98256 0
M  V30 447 H 38.7043 -5.31707 4.47564 0
M  V30 448 H 41.8953 -3.76107 2.78677 0
M  V30 449 H 42.0683 -5.05215 4.05785 0
M  V30 450 N 35.4744 -0.807222 -1.35358 0
M  V30 451 C 36.7214 -0.387888 -1.9875 0
M  V30 452 C 37.0494 1.04509 -1.64037 0
M  V30 453 O 36.3044 1.73986 -0.895946 0
M  V30 454 C 36.6034 -0.519036 -3.53611 0
M  V30 455 C 36.2694 -1.91542 -4.08194 0
M  V30 456 C 34.9314 -2.29745 -4.22813 0
M  V30 457 C 37.2834 -2.82896 -4.37744 0
M  V30 458 C 34.6114 -3.58668 -4.643 0
M  V30 459 C 36.9634 -4.11265 -4.8067 0
M  V30 460 C 35.6274 -4.49466 -4.93494 0
M  V30 461 H 34.8974 -0.141938 -0.727279 0
M  V30 462 H 37.5444 -1.02814 -1.6156 0
M  V30 463 H 35.8494 0.204658 -3.91265 0
M  V30 464 H 37.5464 -0.175345 -4.00616 0
M  V30 465 H 34.1364 -1.60862 -3.97268 0
M  V30 466 H 38.3204 -2.54629 -4.26002 0
M  V30 467 H 33.5764 -3.88113 -4.72418 0
M  V30 468 H 37.7504 -4.82153 -5.02496 0
M  V30 469 H 35.3774 -5.49418 -5.25399 0
M  V30 470 N 36.9525 1.47285 -0.560781 0
M  V30 471 C 38.1825 2.06555 -0.0429638 0
M  V30 472 C 38.5905 1.41339 1.25777 0
M  V30 473 O 37.9335 0.505182 1.76617 0
M  V30 474 C 37.9955 3.58827 0.219887 0
M  V30 475 C 37.6595 4.46105 -0.991944 0
M  V30 476 C 38.6565 4.84 -1.89843 0
M  V30 477 C 36.3415 4.87567 -1.20762 0
M  V30 478 C 38.3355 5.6216 -3.00425 0
M  V30 479 C 36.0225 5.65491 -2.31653 0
M  V30 480 C 37.0205 6.02699 -3.21315 0
M  V30 481 O 36.7085 6.79052 -4.30283 0
M  V30 482 H 36.4405 0.674537 -0.0444468 0
M  V30 483 H 38.9945 1.90225 -0.774818 0
M  V30 484 H 37.2245 3.73383 1.00609 0
M  V30 485 H 38.9135 4.00103 0.683522 0
M  V30 486 H 39.6795 4.52564 -1.74387 0
M  V30 487 H 35.5585 4.5807 -0.518893 0
M  V30 488 H 39.1025 5.9112 -3.70436 0
M  V30 489 H 34.9995 5.9634 -2.47081 0
M  V30 490 H 35.7675 6.9745 -4.28376 0
M  V30 491 N 38.4306 0.297415 1.54768 0
M  V30 492 C 39.3636 -0.622188 2.19554 0
M  V30 493 C 40.3416 -1.13558 1.16376 0
M  V30 494 O 41.5256 -1.20444 1.45002 0
M  V30 495 C 38.6526 -1.8509 2.83653 0
M  V30 496 C 37.6986 -1.47106 4.00328 0
M  V30 497 S 38.5316 -0.53006 5.3287 0
M  V30 498 C 39.6876 -1.76665 6.0045 0
M  V30 499 H 39.9206 -0.0717806 2.97213 0
M  V30 500 H 37.4536 0.0815678 1.54184 0
M  V30 501 H 39.4116 -2.55605 3.21211 0
M  V30 502 H 38.0726 -2.37247 2.05846 0
M  V30 503 H 37.2656 -2.38594 4.43947 0
M  V30 504 H 36.8676 -0.845885 3.64309 0
M  V30 505 H 39.1596 -2.7077 6.21039 0
M  V30 506 H 40.1026 -1.37308 6.9466 0
M  V30 507 H 40.5106 -1.94174 5.30054 0
M  V30 508 N 39.9087 -1.5758 0.0250728 0
M  V30 509 C 40.8387 -2.13007 -0.956575 0
M  V30 510 C 41.8197 -1.0452 -1.342 0
M  V30 511 O 43.0047 -1.32332 -1.42133 0
M  V30 512 C 40.1347 -2.65386 -2.24026 0
M  V30 513 C 39.0887 -3.78623 -1.99571 0
M  V30 514 C 38.4147 -4.17414 -3.3417 0
M  V30 515 C 39.7147 -5.04867 -1.33814 0
M  V30 516 H 41.4087 -2.9528 -0.494991 0
M  V30 517 H 38.9547 -1.42042 -0.236651 0
M  V30 518 H 40.9077 -3.02794 -2.93076 0
M  V30 519 H 39.6317 -1.80268 -2.72343 0
M  V30 520 H 38.2907 -3.41646 -1.32941 0
M  V30 521 H 37.9387 -3.29284 -3.80238 0
M  V30 522 H 37.6387 -4.93719 -3.18615 0
M  V30 523 H 39.1627 -4.57402 -4.04495 0
M  V30 524 H 40.5767 -5.39888 -1.92857 0
M  V30 525 H 38.9737 -5.86144 -1.28669 0
M  V30 526 H 40.0437 -4.83904 -0.310561 0
M  V30 527 N 41.3868 0.248026 -1.55636 0
M  V30 528 C 42.8028 0.596483 -1.48035 0
M  V30 529 C 43.0028 1.88386 -0.715039 0
M  V30 530 O 42.0588 2.51319 -0.243944 0
M  V30 531 C 43.3718 0.700258 -2.92433 0
M  V30 532 C 44.9198 0.792659 -3.02797 0
M  V30 533 C 45.3948 0.928005 -4.485 0
M  V30 534 N 46.8858 0.992903 -4.52433 0
M  V30 535 C 47.6208 1.11687 -5.62418 0
M  V30 536 N 47.1168 1.20645 -6.82214 0
M  V30 537 N 48.9098 1.14994 -5.50212 0
M  V30 538 H 41.0608 -0.597109 -2.03834 0
M  V30 539 H 43.3238 -0.205925 -0.925364 0
M  V30 540 H 43.0298 -0.175658 -3.51261 0
M  V30 541 H 42.9038 1.57255 -3.42857 0
M  V30 542 H 45.2908 1.65903 -2.4405 0
M  V30 543 H 45.3718 -0.104762 -2.55585 0
M  V30 544 H 45.0158 0.0661971 -5.07857 0
M  V30 545 H 44.9458 1.84045 -4.93391 0
M  V30 546 H 47.4368 0.935064 -3.66149 0
M  V30 547 H 47.7498 1.30008 -7.61786 0
M  V30 548 H 46.0948 1.17605 -6.84977 0
M  V30 549 H 49.2858 1.07643 -4.55555 0
M  V30 550 H 49.4588 1.24311 -6.35965 0
M  V30 551 N 42.8649 1.48995 0.513639 0
M  V30 552 C 43.7749 1.67443 1.64317 0
M  V30 553 C 44.7909 0.556947 1.64846 0
M  V30 554 O 45.9669 0.830082 1.83498 0
M  V30 555 C 43.0319 1.72515 3.00732 0
M  V30 556 C 42.0929 2.96009 3.1093 0
M  V30 557 C 41.3259 3.00829 4.40837 0
M  V30 558 O 41.5489 2.13594 5.28898 0
M  V30 559 O 40.4829 3.93168 4.55744 0
M  V30 560 H 44.3089 2.63106 1.51687 0
M  V30 561 H 41.8939 1.32588 0.688543 0
M  V30 562 H 43.7759 1.78277 3.81831 0
M  V30 563 H 42.4509 0.800278 3.13651 0
M  V30 564 H 41.3579 2.9577 2.29065 0
M  V30 565 H 42.6909 3.87934 3.02933 0
M  V30 566 N 44.343 -0.763751 1.37857 0
M  V30 567 C 45.591 -1.51957 1.33243 0
M  V30 568 C 45.912 -1.94835 -0.0801709 0
M  V30 569 O 45.182 -1.66894 -1.02582 0
M  V30 570 H 43.762 -0.563626 0.49024 0
M  V30 571 H 46.424 -0.908504 1.7243 0
M  V30 572 H 45.52 -2.41523 1.97669 0
M  V30 573 N 45.8211 -1.22559 -0.990812 0
M  V30 574 C 47.0491 -1.07779 -1.76611 0
M  V30 575 C 47.4641 0.371513 -1.85109 0
M  V30 576 O 46.8211 1.25737 -1.32274 0
M  V30 577 C 46.8721 -1.68512 -3.19822 0
M  V30 578 O 46.5931 -3.07774 -3.1178 0
M  V30 579 C 48.0941 -1.59035 -4.13791 0
M  V30 580 H 45.3141 -0.377729 -0.554583 0
M  V30 581 H 47.8581 -1.62195 -1.24551 0
M  V30 582 H 46.0131 -1.18154 -3.68942 0
M  V30 583 H 46.4271 -3.37062 -4.01858 0
M  V30 584 H 47.9011 -2.0625 -5.1202 0
M  V30 585 H 48.3781 -0.547273 -4.35777 0
M  V30 586 H 48.9841 -2.08709 -3.70568 0
M  V30 587 N 47.2992 1.18797 -1.03562 0
M  V30 588 C 48.2622 2.20464 -0.626769 0
M  V30 589 C 49.2622 1.57721 0.313173 0
M  V30 590 O 50.4522 1.73917 0.0992615 0
M  V30 591 C 47.5842 3.40802 0.0818498 0
M  V30 592 H 48.7772 2.58149 -1.5264 0
M  V30 593 H 46.3302 1.32593 -0.827578 0
M  V30 594 H 47.0652 3.08642 0.995518 0
M  V30 595 H 46.8502 3.8758 -0.593652 0
M  V30 596 H 48.3402 4.16092 0.354584 0
M  V30 597 N 48.7773 0.814389 1.34928 0
M  V30 598 C 50.0233 0.399013 1.98836 0
M  V30 599 C 50.3563 -1.03314 1.64438 0
M  V30 600 O 49.6313 -1.71811 0.911659 0
M  V30 601 C 49.9143 0.591629 3.55207 0
M  V30 602 C 49.7673 2.06928 3.99376 0
M  V30 603 C 51.0863 0.022199 4.40094 0
M  V30 604 H 48.2053 0.146451 0.722303 0
M  V30 605 H 50.8473 1.02537 1.59957 0
M  V30 606 H 48.9973 0.0584441 3.88456 0
M  V30 607 H 50.6693 2.66544 3.76499 0
M  V30 608 H 48.9123 2.56287 3.49999 0
M  V30 609 H 49.5833 2.1549 5.08201 0
M  V30 610 H 52.0593 0.477643 4.13349 0
M  V30 611 H 50.9353 0.186832 5.48582 0
M  V30 612 H 51.1963 -1.07215 4.28902 0
M  V30 613 N 50.2554 -1.46986 0.568584 0
M  V30 614 C 51.6664 -1.86188 0.138219 0
M  V30 615 C 52.0174 -1.47388 -1.29504 0
M  V30 616 O 51.1424 -0.88219 -1.97602 0
M  V30 617 C 51.7374 -3.3792 0.244065 0
M  V30 618 C 50.2964 -3.76171 -0.131335 0
M  V30 619 C 49.4434 -2.71027 0.586465 0
M  V30 620 H 52.3944 -1.38342 0.777645 0
M  V30 621 H 52.4154 -3.76729 -0.534351 0
M  V30 622 H 51.9274 -3.66128 1.28731 0
M  V30 623 H 50.0284 -3.5358 -1.17526 0
M  V30 624 H 50.1414 -4.78523 0.235146 0
M  V30 625 H 48.5054 -2.54684 0.0282722 0
M  V30 626 H 49.2884 -3.02077 1.63109 0
M  V30 627 N 51.7335 -0.305618 -1.54608 0
M  V30 628 C 52.6965 0.555591 -2.22364 0
M  V30 629 C 53.6965 1.05768 -1.21119 0
M  V30 630 O 54.8865 0.952972 -1.45822 0
M  V30 631 C 52.0185 1.76974 -2.91364 0
M  V30 632 H 53.2115 -0.0364572 -2.99878 0
M  V30 633 H 50.7645 -0.0565007 -1.56198 0
M  V30 634 H 51.4995 2.40151 -2.17941 0
M  V30 635 H 51.2845 1.41732 -3.65588 0
M  V30 636 H 52.7745 2.38148 -3.43038 0
M  V30 637 N 53.2116 1.57565 -0.0334293 0
M  V30 638 C 54.4576 1.92262 0.645226 0
M  V30 639 C 54.7906 0.910543 1.71531 0
M  V30 640 O 54.0656 -0.066099 1.94388 0
M  V30 641 C 54.3486 3.37422 1.2577 0
M  V30 642 C 54.2016 4.49369 0.196891 0
M  V30 643 C 55.5206 3.82628 2.17449 0
M  V30 644 H 52.6396 0.699171 0.233085 0
M  V30 645 H 55.2816 1.89779 -0.0915694 0
M  V30 646 H 53.4316 3.39669 1.88566 0
M  V30 647 H 55.1036 4.59254 -0.433962 0
M  V30 648 H 53.3466 4.31168 -0.477137 0
M  V30 649 H 54.0176 5.47978 0.665124 0
M  V30 650 H 56.4936 3.82145 1.64634 0
M  V30 651 H 55.3696 4.84883 2.57254 0
M  V30 652 H 55.6306 3.18376 3.0674 0
M  V30 653 N 54.6897 -0.239769 1.55765 0
M  V30 654 C 55.9357 -0.963942 1.79108 0
M  V30 655 C 56.2907 -1.82689 0.60352 0
M  V30 656 O 55.5837 -1.87313 -0.403033 0
M  V30 657 C 55.7777 -1.852 3.05672 0
M  V30 658 C 55.6067 -1.07651 4.36625 0
M  V30 659 C 54.3767 -0.778738 4.99263 0
M  V30 660 C 56.5747 -0.45062 5.12322 0
M  V30 661 N 54.5567 0.0200708 6.13897 0
M  V30 662 C 55.9277 0.212429 6.19636 0
M  V30 663 C 57.9827 -0.361806 4.96584 0
M  V30 664 C 56.6857 0.955772 7.12922 0
M  V30 665 C 58.7117 0.368023 5.90254 0
M  V30 666 C 58.0737 1.01968 6.96981 0
M  V30 667 H 54.1727 -0.333601 0.707272 0
M  V30 668 H 56.7567 -0.236425 1.93259 0
M  V30 669 H 54.9277 -2.55149 2.92837 0
M  V30 670 H 56.6597 -2.51228 3.1728 0
M  V30 671 H 53.4147 -1.09229 4.60832 0
M  V30 672 H 53.8387 0.407777 6.75771 0
M  V30 673 H 58.4807 -0.851286 4.14141 0
M  V30 674 H 56.1987 1.45683 7.9486 0
M  V30 675 H 59.7847 0.437504 5.80153 0
M  V30 676 H 58.6647 1.5754 7.68213 0
M  V30 677 N 56.1678 -1.49265 -0.50573 0
M  V30 678 C 57.4148 -1.58513 -1.26015 0
M  V30 679 C 57.7428 -0.26972 -1.92621 0
M  V30 680 O 56.9978 0.741997 -1.81088 0
M  V30 681 C 57.2968 -2.69008 -2.35308 0
M  V30 682 C 56.9628 -4.10662 -1.86192 0
M  V30 683 C 55.6248 -4.49212 -1.72516 0
M  V30 684 C 57.9768 -4.99336 -1.49375 0
M  V30 685 C 55.3048 -5.74214 -1.20394 0
M  V30 686 C 57.6568 -6.24852 -0.987072 0
M  V30 687 C 56.3208 -6.62236 -0.836669 0
M  V30 688 H 55.5908 -0.580041 -0.461122 0
M  V30 689 H 58.2378 -1.83078 -0.561665 0
M  V30 690 H 56.5428 -2.38396 -3.10926 0
M  V30 691 H 58.2398 -2.73373 -2.93374 0
M  V30 692 H 54.8298 -3.8023 -1.97795 0
M  V30 693 H 59.0138 -4.70212 -1.5879 0
M  V30 694 H 54.2698 -6.01883 -1.07458 0
M  V30 695 H 58.4438 -6.92944 -0.692983 0
M  V30 696 H 56.0708 -7.58979 -0.430607 0
M  V30 697 N 57.6459 0.756429 -1.3826 0
M  V30 698 C 58.8709 1.55077 -1.37717 0
M  V30 699 C 59.2959 1.88073 0.03164 0
M  V30 700 O 58.6539 1.50364 1.01293 0
M  V30 701 C 58.7019 2.8283 -2.23695 0
M  V30 702 O 57.8059 3.77862 -1.6521 0
M  V30 703 H 57.1469 0.469152 -0.469885 0
M  V30 704 H 59.6769 0.935019 -1.81985 0
M  V30 705 H 59.6869 3.31783 -2.37453 0
M  V30 706 H 58.3619 2.58144 -3.2609 0
M  V30 707 H 56.9389 3.36555 -1.60578 0
M  V30 708 N 59.124 1.23083 0.984299 0
M  V30 709 C 60.373 1.05466 1.71929 0
M  V30 710 C 60.686 -0.409211 1.91272 0
M  V30 711 O 61.892 -0.705226 2.62181 0
M  V30 712 C 60.348 1.83874 3.09384 0
M  V30 713 C 59.956 3.34566 2.97943 0
M  V30 714 C 61.7 1.74734 3.8687 0
M  V30 715 C 59.607 4.05381 4.30605 0
M  V30 716 H 58.537 0.391039 0.644674 0
M  V30 717 H 61.188 1.47013 1.09815 0
M  V30 718 H 59.57 1.35131 3.72231 0
M  V30 719 H 60.744 3.90767 2.44209 0
M  V30 720 H 59.059 3.44476 2.33934 0
M  V30 721 H 61.656 2.24957 4.85076 0
M  V30 722 H 61.999 0.709372 4.10212 0
M  V30 723 H 62.532 2.21067 3.30717 0
M  V30 724 H 59.271 5.09467 4.1246 0
M  V30 725 H 58.791 3.53967 4.84218 0
M  V30 726 H 60.47 4.11458 4.99311 0
M  V30 727 N 60.6021 -1.18246 1.0419 0
M  V30 728 C 61.5121 -2.25574 0.644476 0
M  V30 729 C 62.5281 -1.70845 -0.329826 0
M  V30 730 O 63.7041 -2.00554 -0.184443 0
M  V30 731 C 60.7691 -3.46697 0.014877 0
M  V30 732 C 59.8301 -4.16554 1.03834 0
M  V30 733 C 59.0631 -5.31894 0.438692 0
M  V30 734 O 59.2861 -5.65385 -0.754752 0
M  V30 735 O 58.2201 -5.90459 1.168 0
M  V30 736 H 62.0461 -2.61836 1.53869 0
M  V30 737 H 59.6311 -1.25352 0.812854 0
M  V30 738 H 61.5131 -4.20062 -0.335538 0
M  V30 739 H 60.1881 -3.12255 -0.853138 0
M  V30 740 H 59.0951 -3.45251 1.44057 0
M  V30 741 H 60.4281 -4.54998 1.87716 0
M  V30 742 N 62.0802 -0.821533 -1.34494 0
M  V30 743 C 63.0102 -0.257138 -2.3208 0
M  V30 744 C 63.9912 0.625645 -1.58176 0
M  V30 745 O 65.1762 0.552811 -1.86166 0
M  V30 746 C 62.3062 0.582958 -3.42372 0
M  V30 747 C 61.2602 -0.202571 -4.2752 0
M  V30 748 C 60.5862 0.760179 -5.29269 0
M  V30 749 C 61.8862 -1.40998 -5.02908 0
M  V30 750 H 63.5802 -1.07247 -2.79532 0
M  V30 751 H 61.1262 -0.517163 -1.34393 0
M  V30 752 H 63.0792 0.987972 -4.09655 0
M  V30 753 H 61.8032 1.43133 -2.93565 0
M  V30 754 H 60.4622 -0.588936 -3.61838 0
M  V30 755 H 60.1102 1.60447 -4.76724 0
M  V30 756 H 59.8102 0.238809 -5.87115 0
M  V30 757 H 61.3342 1.16308 -5.9942 0
M  V30 758 H 62.7482 -1.07905 -5.63054 0
M  V30 759 H 61.1452 -1.86689 -5.70322 0
M  V30 760 H 62.2152 -2.1889 -4.32684 0
M  V30 761 N 63.5583 1.46682 -0.576371 0
M  V30 762 C 64.8073 2.01619 -0.0572825 0
M  V30 763 C 65.1203 1.45417 1.30818 0
M  V30 764 O 66.3263 1.92133 1.91825 0
M  V30 765 C 64.7823 3.59863 -0.0518371 0
M  V30 766 C 64.3903 4.25059 -1.41523 0
M  V30 767 C 66.1343 4.2248 0.413639 0
M  V30 768 C 64.0413 5.75364 -1.36785 0
M  V30 769 H 62.9713 0.753794 -0.0176448 0
M  V30 770 H 65.6223 1.68481 -0.727076 0
M  V30 771 H 64.0043 3.90048 0.683994 0
M  V30 772 H 65.1783 4.06491 -2.17029 0
M  V30 773 H 63.4933 3.7451 -1.8202 0
M  V30 774 H 66.0903 5.3265 0.467779 0
M  V30 775 H 66.4333 3.90976 1.42982 0
M  V30 776 H 66.9663 3.96897 -0.267929 0
M  V30 777 H 63.7053 6.11518 -2.36063 0
M  V30 778 H 63.2253 5.96214 -0.654895 0
M  V30 779 H 64.9043 6.37955 -1.07805 0
M  V30 780 N 65.0364 0.313813 1.54444 0
M  V30 781 C 66.2834 -0.291675 2.00388 0
M  V30 782 C 66.6114 -1.52904 1.2021 0
M  V30 783 O 65.8664 -1.93833 0.269707 0
M  V30 784 C 66.1654 -0.680386 3.50864 0
M  V30 785 C 65.8314 0.456699 4.48581 0
M  V30 786 C 64.4934 0.768824 4.75018 0
M  V30 787 C 66.8454 1.22098 5.06697 0
M  V30 788 C 64.1734 1.84812 5.56831 0
M  V30 789 C 66.5254 2.29029 5.89685 0
M  V30 790 C 65.1894 2.60834 6.14428 0
M  V30 791 H 64.4594 -0.106732 0.733273 0
M  V30 792 H 67.1064 0.43557 1.86481 0
M  V30 793 H 65.4114 -1.48791 3.62448 0
M  V30 794 H 67.1084 -1.16026 3.83847 0
M  V30 795 H 63.6984 0.203337 4.28117 0
M  V30 796 H 67.8824 0.993096 4.86263 0
M  V30 797 H 63.1384 2.09912 5.74236 0
M  V30 798 H 67.3124 2.887 6.33739 0
M  V30 799 H 64.9394 3.44596 6.77612 0
M  V30 800 N 66.5145 -1.57545 0.0417849 0
M  V30 801 C 67.7625 -1.91937 -0.632829 0
M  V30 802 C 68.0835 -0.919978 -1.71934 0
M  V30 803 O 67.3535 0.0366064 -1.95866 0
M  V30 804 H 65.9335 -0.708493 -0.236742 0
M  V30 805 H 68.5955 -1.9468 0.0925745 0
M  V30 806 H 67.6915 -2.92912 -1.07746 0
M  V30 807 N 67.9926 0.231505 -1.5589 0
M  V30 808 C 68.9226 1.29022 -1.94617 0
M  V30 809 C 69.9036 1.4941 -0.813067 0
M  V30 810 O 71.0886 1.6176 -1.07459 0
M  V30 811 C 68.2186 2.64199 -2.25424 0
M  V30 812 C 67.1726 2.58484 -3.41131 0
M  V30 813 C 66.4986 3.97599 -3.57518 0
M  V30 814 C 67.7986 2.1413 -4.76388 0
M  V30 815 H 69.4926 0.968563 -2.83301 0
M  V30 816 H 67.0386 0.464479 -1.36303 0
M  V30 817 H 68.9916 3.38413 -2.51107 0
M  V30 818 H 67.7156 2.98032 -1.33583 0
M  V30 819 H 66.3746 1.86727 -3.15481 0
M  V30 820 H 66.0226 4.28723 -2.6307 0
M  V30 821 H 65.7226 3.94659 -4.35337 0
M  V30 822 H 67.2466 4.7349 -3.85538 0
M  V30 823 H 68.6606 2.78083 -5.01341 0
M  V30 824 H 67.0576 2.2227 -5.57419 0
M  V30 825 H 68.1276 1.09331 -4.72414 0
M  V30 826 N 69.4707 1.49531 0.497807 0
M  V30 827 C 70.7177 1.59179 1.25173 0
M  V30 828 C 71.0457 0.279932 1.92475 0
M  V30 829 O 70.3007 -0.732383 1.81479 0
M  V30 830 C 70.5997 2.70252 2.33878 0
M  V30 831 C 70.2657 4.11644 1.84012 0
M  V30 832 C 68.9277 4.50121 1.70132 0
M  V30 833 C 71.2797 5.00121 1.46725 0
M  V30 834 C 68.6077 5.74845 1.17348 0
M  V30 835 C 70.9597 6.25366 0.95392 0
M  V30 836 C 69.6237 6.6267 0.801538 0
M  V30 837 H 68.8937 0.582478 0.45804 0
M  V30 838 H 71.5407 1.83373 0.551948 0
M  V30 839 H 69.8457 2.40041 3.09657 0
M  V30 840 H 71.5427 2.74925 2.9192 0
M  V30 841 H 68.1327 3.81274 1.95775 0
M  V30 842 H 72.3167 4.71048 1.56294 0
M  V30 843 H 67.5727 6.02444 1.04264 0
M  V30 844 H 71.7467 6.93301 0.656225 0
M  V30 845 H 69.3737 7.59197 0.390351 0
M  V30 846 N 70.9488 -0.749086 1.3866 0
M  V30 847 C 71.9118 -1.84457 1.36045 0
M  V30 848 C 72.9118 -1.58682 0.260122 0
M  V30 849 O 74.1018 -1.66343 0.517261 0
M  V30 850 C 71.2338 -3.22008 1.11911 0
M  V30 851 H 72.4268 -1.88182 2.33512 0
M  V30 852 H 69.9798 -0.951266 1.24019 0
M  V30 853 H 70.7148 -3.2395 0.150686 0
M  V30 854 H 70.4998 -3.42111 1.91579 0
M  V30 855 H 71.9898 -4.0208 1.12788 0
M  V30 856 N 72.4269 -1.23603 -0.977757 0
M  V30 857 C 73.3569 -1.04401 -2.0886 0
M  V30 858 C 74.3379 0.0399052 -1.70053 0
M  V30 859 O 75.5229 -0.125246 -1.93796 0
M  V30 860 C 72.6529 -0.637269 -3.41403 0
M  V30 861 C 71.6069 -1.66883 -3.94124 0
M  V30 862 C 70.9329 -1.11745 -5.22893 0
M  V30 863 C 72.2329 -3.06247 -4.23096 0
M  V30 864 H 73.9269 -1.97316 -2.25182 0
M  V30 865 H 71.4729 -0.950096 -1.08209 0
M  V30 866 H 73.4259 -0.48998 -4.18542 0
M  V30 867 H 72.1499 0.327557 -3.24953 0
M  V30 868 H 70.8089 -1.80416 -3.19133 0
M  V30 869 H 70.4569 -0.143527 -5.02795 0
M  V30 870 H 70.1569 -1.80672 -5.59134 0
M  V30 871 H 71.6809 -0.982067 -6.02651 0
M  V30 872 H 73.0949 -2.96001 -4.90975 0
M  V30 873 H 71.4919 -3.72436 -4.70544 0
M  V30 874 H 72.5619 -3.55041 -3.30263 0
M  V30 875 N 73.905 1.17692 -1.04816 0
M  V30 876 C 74.852 2.21581 -0.645797 0
M  V30 877 C 75.822 1.62367 0.350159 0
M  V30 878 O 77.007 1.89254 0.242433 0
M  V30 879 C 74.147 3.45092 -0.0227568 0
M  V30 880 C 73.26 4.18613 -1.06709 0
M  V30 881 C 72.395 5.29602 -0.411767 0
M  V30 882 C 71.434 5.94904 -1.44067 0
M  V30 883 N 70.571 6.97414 -0.809781 0
M  V30 884 H 75.411 2.55353 -1.5362 0
M  V30 885 H 72.948 1.25438 -0.768364 0
M  V30 886 H 74.906 4.15679 0.35588 0
M  V30 887 H 73.536 3.11917 0.831122 0
M  V30 888 H 72.588 3.46779 -1.5636 0
M  V30 889 H 73.9 4.63293 -1.84827 0
M  V30 890 H 73.054 6.06696 0.0206623 0
M  V30 891 H 71.793 4.86045 0.401438 0
M  V30 892 H 70.798 5.16544 -1.88316 0
M  V30 893 H 72.023 6.40542 -2.25571 0
M  V30 894 H 69.969 6.55998 -0.0170186 0
M  V30 895 H 69.886 7.40386 -1.52856 0
M  V30 896 H 71.154 7.78463 -0.401999 0
M  V30 897 N 75.3831 0.828654 1.34056 0
M  V30 898 C 76.3311 0.242973 2.31327 0
M  V30 899 C 77.3251 -0.61944 1.57668 0
M  V30 900 O 78.5311 -0.51014 1.7262 0
M  V30 901 H 74.9061 0.059834 0.749616 0
M  V30 902 H 76.8771 1.07809 2.78244 0
M  V30 903 C 75.6261 -0.575733 3.429 0
M  V30 904 H 74.9491 0.0785582 3.99723 0
M  V30 905 H 76.3891 -0.951547 4.13185 0
M  V30 906 C 74.8481 -1.75044 2.87856 0
M  V30 907 O 75.3781 -2.84882 2.83205 0
M  V30 908 N 73.5841 -1.56903 2.44602 0
M  V30 909 H 73.1311 -0.675547 2.48584 0
M  V30 910 H 73.0891 -2.35652 2.08124 0
M  V30 911 N 76.8612 -1.46375 0.584142 0
M  V30 912 C 78.1092 -2.01978 0.0701287 0
M  V30 913 C 78.4302 -1.4579 -1.295 0
M  V30 914 O 77.7002 -0.64314 -1.85042 0
M  V30 915 H 76.2802 -0.746648 0.0229345 0
M  V30 916 H 78.9422 -1.79461 0.760245 0
M  V30 917 H 78.0382 -3.121 0.0022064 0
M  V30 918 N 78.3393 -0.321999 -1.54275 0
M  V30 919 C 79.7503 0.166384 -1.85957 0
M  V30 920 C 80.1013 1.51747 -1.24367 0
M  V30 921 O 79.2263 2.09317 -0.549124 0
M  V30 922 C 79.8213 0.308681 -3.37391 0
M  V30 923 C 78.3803 0.741286 -3.69028 0
M  V30 924 C 77.5273 -0.137937 -2.76957 0
M  V30 925 H 80.4783 -0.542335 -1.49146 0
M  V30 926 H 80.4993 1.13984 -3.63026 0
M  V30 927 H 80.0113 -0.674809 -3.82188 0
M  V30 928 H 78.1123 1.73458 -3.29762 0
M  V30 929 H 78.2253 0.546118 -4.75977 0
M  V30 930 H 76.5893 0.386251 -2.51754 0
M  V30 931 H 77.3723 -1.11816 -3.2458 0
M  V30 932 N 79.8174 1.5752 -0.0501392 0
M  V30 933 C 80.7274 2.14952 0.939827 0
M  V30 934 C 81.7434 1.10706 1.34239 0
M  V30 935 O 82.9194 1.42869 1.41952 0
M  V30 936 C 79.9844 2.68232 2.19665 0
M  V30 937 C 79.0454 3.87272 1.85253 0
M  V30 938 C 78.2784 4.38002 3.04943 0
M  V30 939 O 78.5014 3.87811 4.18281 0
M  V30 940 O 77.4354 5.29602 2.86017 0
M  V30 941 H 81.2614 2.9986 0.481392 0
M  V30 942 H 78.8464 1.4841 0.171699 0
M  V30 943 H 80.7284 3.02475 2.93406 0
M  V30 944 H 79.4034 1.86395 2.64648 0
M  V30 945 H 78.3104 3.5792 1.0883 0
M  V30 946 H 79.6434 4.70336 1.4507 0
M  V30 947 N 81.2955 -0.223234 1.56011 0
M  V30 948 C 82.2585 -1.26014 1.9145 0
M  V30 949 C 83.2585 -1.3989 0.792937 0
M  V30 950 O 84.4485 -1.38184 1.0607 0
M  V30 951 C 81.5805 -2.63422 2.16383 0
M  V30 952 H 82.7735 -0.95796 2.84189 0
M  V30 953 H 80.3265 -0.463576 1.49267 0
M  V30 954 H 81.0615 -2.98741 1.2619 0
M  V30 955 H 80.8465 -2.54728 2.98088 0
M  V30 956 H 82.3365 -3.38249 2.44903 0
M  V30 957 N 82.7736 -1.49793 -0.48987 0
M  V30 958 C 84.0196 -1.61049 -1.24236 0
M  V30 959 C 84.3746 -0.298412 -1.90072 0
M  V30 960 O 83.6676 0.702262 -1.78266 0
M  V30 961 C 83.8616 -2.71488 -2.32441 0
M  V30 962 C 83.6906 -4.13308 -1.77218 0
M  V30 963 C 82.4606 -4.79955 -1.58023 0
M  V30 964 C 84.6586 -4.98176 -1.27772 0
M  V30 965 N 82.6406 -6.06052 -0.978465 0
M  V30 966 C 84.0116 -6.14843 -0.798 0
M  V30 967 C 86.0666 -4.84091 -1.16449 0
M  V30 968 C 84.7696 -7.18975 -0.216245 0
M  V30 969 C 86.7956 -5.88382 -0.596698 0
M  V30 970 C 86.1576 -7.04285 -0.127262 0
M  V30 971 H 82.2566 -0.643611 -0.444172 0
M  V30 972 H 84.8406 -1.86842 -0.54754 0
M  V30 973 H 83.0116 -2.47449 -2.99372 0
M  V30 974 H 84.7436 -2.72205 -2.99477 0
M  V30 975 H 81.4986 -4.36936 -1.82712 0
M  V30 976 H 81.9226 -6.73407 -0.696534 0
M  V30 977 H 86.5646 -3.94786 -1.5134 0
M  V30 978 H 84.2826 -8.0797 0.144903 0
M  V30 979 H 87.8686 -5.79545 -0.511716 0
M  V30 980 H 86.7486 -7.83606 0.30523 0
M  V30 981 N 84.2517 0.741722 -1.39055 0
M  V30 982 C 85.2147 1.83733 -1.37021 0
M  V30 983 C 86.2147 1.58542 -0.268534 0
M  V30 984 O 87.4047 1.66067 -0.526076 0
M  V30 985 C 84.5367 3.2141 -1.13617 0
M  V30 986 H 85.7297 1.86941 -2.34506 0
M  V30 987 H 83.2827 0.944676 -1.24521 0
M  V30 988 H 84.0177 3.23865 -0.167863 0
M  V30 989 H 83.8027 3.4109 -1.93391 0
M  V30 990 H 85.2927 4.01477 -1.14918 0
M  V30 991 N 85.7298 1.2412 0.971189 0
M  V30 992 C 86.9778 1.07668 1.71032 0
M  V30 993 C 87.2988 -0.385797 1.91146 0
M  V30 994 O 86.5688 -1.27569 1.4867 0
M  V30 995 H 85.1488 0.395429 0.633755 0
M  V30 996 H 87.8108 1.55984 1.16855 0
M  V30 997 H 86.9068 1.57195 2.69622 0
M  V30 998 N 87.2079 -1.17134 1.05439 0
M  V30 999 C 88.4549 -1.87456 0.765942 0
M  V30 1000 C 88.7829 -1.81189 -0.707153 0
M  V30 1001 O 88.0379 -1.21633 -1.5331 0
M  V30 1002 C 88.3369 -3.36833 1.19491 0
M  V30 1003 C 88.0029 -3.63301 2.67063 0
M  V30 1004 C 86.6649 -3.70234 3.07376 0
M  V30 1005 C 89.0169 -3.74575 3.62413 0
M  V30 1006 C 86.3449 -3.85933 4.41896 0
M  V30 1007 C 88.6969 -3.91793 4.9667 0
M  V30 1008 C 87.3609 -3.96966 5.36633 0
M  V30 1009 H 86.6309 -0.685948 0.280278 0
M  V30 1010 H 89.2779 -1.38556 1.32192 0
M  V30 1011 H 87.5829 -3.87807 0.557969 0
M  V30 1012 H 89.2799 -3.89611 0.948893 0
M  V30 1013 H 85.8699 -3.58532 2.34846 0
M  V30 1014 H 90.0539 -3.68537 3.32406 0
M  V30 1015 H 85.3099 -3.88187 4.72357 0
M  V30 1016 H 89.4839 -3.99458 5.70444 0
M  V30 1017 H 87.1109 -4.08883 6.40874 0
M  V30 1018 N 88.686 -0.835752 -1.33615 0
M  V30 1019 C 89.932 -0.430596 -1.98176 0
M  V30 1020 C 90.265 1.00684 -1.66061 0
M  V30 1021 O 89.54 1.70339 -0.938877 0
M  V30 1022 C 89.823 -0.648065 -3.5422 0
M  V30 1023 C 89.676 -2.13255 -3.96033 0
M  V30 1024 C 90.995 -0.0922113 -4.40003 0
M  V30 1025 H 88.114 -0.157924 -0.719881 0
M  V30 1026 H 90.756 -1.05069 -1.58305 0
M  V30 1027 H 88.906 -0.120237 -3.88314 0
M  V30 1028 H 90.578 -2.725 -3.72211 0
M  V30 1029 H 88.821 -2.61823 -3.45878 0
M  V30 1030 H 89.492 -2.23547 -5.04708 0
M  V30 1031 H 91.968 -0.543343 -4.12537 0
M  V30 1032 H 90.844 -0.274083 -5.48215 0
M  V30 1033 H 91.105 1.00378 -4.30554 0
M  V30 1034 N 90.1641 1.46063 -0.591896 0
M  V30 1035 C 91.4411 1.95595 -0.0137119 0
M  V30 1036 C 91.8211 1.5345 1.4497 0
M  V30 1037 O 91.1691 0.789543 2.14426 0
M  V30 1038 C 91.3791 3.48453 -0.195373 0
M  V30 1039 C 92.7271 4.24546 -0.0679765 0
M  V30 1040 O 93.7511 3.55982 -0.124681 0
M  V30 1041 O 92.6101 5.46467 0.0600579 0
M  V30 1042 H 89.7041 0.825795 0.0446279 0
M  V30 1043 H 92.2501 1.56303 -0.660859 0
M  V30 1044 H 91.0221 3.72045 -1.21235 0
M  V30 1045 H 90.6451 3.94597 0.487775 0
M  V30 1046 N 91.6422 0.330177 1.54103 0
M  V30 1047 C 92.8892 -0.270405 2.00686 0
M  V30 1048 C 93.2172 -1.51621 1.21825 0
M  V30 1049 O 92.4722 -1.93536 0.29025 0
M  V30 1050 C 92.7712 -0.643134 3.51566 0
M  V30 1051 C 92.4372 0.504251 4.48072 0
M  V30 1052 C 91.0992 0.819163 4.74176 0
M  V30 1053 C 93.4512 1.27465 5.05373 0
M  V30 1054 C 90.7792 1.90708 5.5484 0
M  V30 1055 C 93.1312 2.35271 5.87223 0
M  V30 1056 C 91.7952 2.67336 6.11627 0
M  V30 1057 H 91.0652 -0.0989482 0.734364 0
M  V30 1058 H 93.7122 0.455324 1.86008 0
M  V30 1059 H 92.0172 -1.44938 3.64006 0
M  V30 1060 H 93.7142 -1.11949 3.85056 0
M  V30 1061 H 90.3042 0.248733 4.27878 0
M  V30 1062 H 94.4882 1.04462 4.85182 0
M  V30 1063 H 89.7442 2.15991 5.71977 0
M  V30 1064 H 93.9182 2.95405 6.30641 0
M  V30 1065 H 91.5452 3.51763 6.73919 0
M  V30 1066 N 93.1203 -1.57491 0.0584922 0
M  V30 1067 C 94.0503 -2.14988 -0.911178 0
M  V30 1068 C 95.0313 -1.07343 -1.31952 0
M  V30 1069 O 96.2163 -1.35318 -1.39294 0
M  V30 1070 C 93.3463 -2.70078 -2.18347 0
M  V30 1071 C 92.3003 -3.82771 -1.91495 0
M  V30 1072 C 91.6263 -4.24408 -3.25241 0
M  V30 1073 C 92.9263 -5.07592 -1.23075 0
M  V30 1074 H 94.6203 -2.96263 -0.432246 0
M  V30 1075 H 92.1663 -1.42512 -0.206469 0
M  V30 1076 H 94.1193 -3.08943 -2.86587 0
M  V30 1077 H 92.8433 -1.86005 -2.68458 0
M  V30 1078 H 91.5023 -3.44389 -1.25664 0
M  V30 1079 H 91.1503 -3.37275 -3.73168 0
M  V30 1080 H 90.8503 -5.00366 -3.08071 0
M  V30 1081 H 92.3743 -4.65879 -3.94701 0
M  V30 1082 H 93.7883 -5.43857 -1.81362 0
M  V30 1083 H 92.1853 -5.88741 -1.16207 0
M  V30 1084 H 93.2553 -4.84454 -0.207847 0
M  V30 1085 N 94.5984 0.214957 -1.56127 0
M  V30 1086 C 95.5304 1.29004 -1.89448 0
M  V30 1087 C 96.5434 1.42716 -0.783326 0
M  V30 1088 O 97.7324 1.43496 -1.06166 0
M  V30 1089 C 94.8324 2.66482 -2.09381 0
M  V30 1090 C 94.0054 2.74633 -3.40434 0
M  V30 1091 C 93.0644 3.9317 -3.49719 0
M  V30 1092 O 92.0904 3.812 -4.227 0
M  V30 1093 N 93.2924 5.07765 -2.81346 0
M  V30 1094 H 96.0574 1.00743 -2.82261 0
M  V30 1095 H 93.6184 0.40497 -1.56753 0
M  V30 1096 H 95.6104 3.44173 -2.12901 0
M  V30 1097 H 94.1804 2.87314 -1.23163 0
M  V30 1098 H 93.4004 1.83368 -3.48955 0
M  V30 1099 H 94.6884 2.77054 -4.26754 0
M  V30 1100 H 94.0864 5.20386 -2.21843 0
M  V30 1101 H 92.6434 5.83474 -2.90519 0
M  V30 1102 N 96.0765 1.50051 0.48192 0
M  V30 1103 C 97.0245 1.68635 1.60203 0
M  V30 1104 C 98.0185 0.552184 1.60148 0
M  V30 1105 O 99.2245 0.732377 1.64427 0
M  V30 1106 H 95.5995 0.532081 0.531407 0
M  V30 1107 H 97.5705 2.62616 1.41688 0
M  V30 1108 C 96.3195 1.78775 2.9822 0
M  V30 1109 H 95.6425 2.6543 2.98976 0
M  V30 1110 H 97.0825 1.95806 3.7608 0
M  V30 1111 C 95.5415 0.536849 3.32595 0
M  V30 1112 O 96.0715 -0.328897 4.00351 0
M  V30 1113 N 94.2775 0.394091 2.87915 0
M  V30 1114 H 93.8245 1.09962 2.32951 0
M  V30 1115 H 93.7825 -0.441737 3.11281 0
M  V30 1116 N 97.5546 -0.734337 1.39446 0
M  V30 1117 C 98.9656 -1.31264 1.32766 0
M  V30 1118 C 99.3166 -1.96198 -0.00767497 0
M  V30 1119 O 98.4416 -1.96346 -0.909796 0
M  V30 1120 C 99.0366 -2.38682 2.4045 0
M  V30 1121 C 97.5956 -2.92184 2.37288 0
M  V30 1122 C 96.7426 -1.6576 2.22304 0
M  V30 1123 H 99.6936 -0.531799 1.49525 0
M  V30 1124 H 99.7146 -3.19087 2.07276 0
M  V30 1125 H 99.2266 -1.91392 3.37625 0
M  V30 1126 H 97.3276 -3.43752 1.43754 0
M  V30 1127 H 97.4406 -3.45253 3.3217 0
M  V30 1128 H 95.8046 -1.9012 1.69489 0
M  V30 1129 H 96.5876 -1.20521 3.21449 0
M  V30 1130 N 99.0327 -1.24633 -0.964593 0
M  V30 1131 C 100.279 -1.08949 -1.71049 0
M  V30 1132 C 100.612 0.370302 -1.90637 0
M  V30 1133 O 99.8867 1.27349 -1.47011 0
M  V30 1134 C 100.17 -1.83329 -3.0994 0
M  V30 1135 C 100.023 -3.37077 -2.97824 0
M  V30 1136 C 101.342 -1.60846 -4.09654 0
M  V30 1137 H 98.4607 -0.397178 -0.620821 0
M  V30 1138 H 101.103 -1.5334 -1.12191 0
M  V30 1139 H 99.2527 -1.45597 -3.60186 0
M  V30 1140 H 100.925 -3.84425 -2.5498 0
M  V30 1141 H 99.1677 -3.65298 -2.33965 0
M  V30 1142 H 99.8387 -3.84324 -3.96231 0
M  V30 1143 H 102.315 -1.93674 -3.68279 0
M  V30 1144 H 101.191 -2.1534 -5.04896 0
M  V30 1145 H 101.452 -0.547434 -4.38698 0
M  V30 1146 N 100.511 1.16574 -1.06058 0
M  V30 1147 C 101.76 1.86385 -0.770944 0
M  V30 1148 C 102.073 1.82448 0.705129 0
M  V30 1149 O 103.279 2.47815 1.10905 0
M  V30 1150 C 101.735 3.34466 -1.32893 0
M  V30 1151 C 101.343 3.46883 -2.83507 0
M  V30 1152 C 103.087 4.09548 -1.11672 0
M  V30 1153 C 100.994 4.89036 -3.32562 0
M  V30 1154 H 99.9238 0.698181 -0.284709 0
M  V30 1155 H 102.575 1.31583 -1.27899 0
M  V30 1156 H 100.957 3.88859 -0.748662 0
M  V30 1157 H 102.131 3.02663 -3.47465 0
M  V30 1158 H 100.446 2.85232 -3.03368 0
M  V30 1159 H 103.043 5.14434 -1.45814 0
M  V30 1160 H 103.386 4.16264 -0.0549535 0
M  V30 1161 H 103.919 3.61387 -1.66265 0
M  V30 1162 H 100.658 4.87499 -4.38207 0
M  V30 1163 H 100.178 5.3389 -2.73351 0
M  V30 1164 H 101.857 5.57843 -3.2775 0
M  V30 1165 N 101.989 0.842826 1.3317 0
M  V30 1166 C 103.235 0.441099 1.97945 0
M  V30 1167 C 103.568 -0.998024 1.66593 0
M  V30 1168 O 102.843 -1.69839 0.947898 0
M  V30 1169 C 103.126 0.666841 3.53872 0
M  V30 1170 C 102.979 2.15352 3.94897 0
M  V30 1171 C 104.298 0.115544 4.39948 0
M  V30 1172 H 101.417 0.161739 0.719034 0
M  V30 1173 H 104.059 1.05907 1.57746 0
M  V30 1174 H 102.209 0.140828 3.88245 0
M  V30 1175 H 103.881 2.7447 3.70761 0
M  V30 1176 H 102.124 2.63653 3.44484 0
M  V30 1177 H 102.795 2.26221 5.03516 0
M  V30 1178 H 105.271 0.565213 4.12243 0
M  V30 1179 H 104.147 0.303152 5.48062 0
M  V30 1180 H 104.408 -0.980935 4.3108 0
M  V30 1181 N 103.467 -1.45747 0.599634 0
M  V30 1182 C 104.716 -2.01502 0.0893511 0
M  V30 1183 C 105.029 -1.4748 -1.28488 0
M  V30 1184 O 106.235 -1.95161 -1.88745 0
M  V30 1185 C 104.691 -3.59735 0.109082 0
M  V30 1186 C 104.299 -4.22754 1.48267 0
M  V30 1187 C 106.043 -4.23085 -0.346374 0
M  V30 1188 C 103.95 -5.73115 1.45921 0
M  V30 1189 H 102.88 -0.753417 0.0296347 0
M  V30 1190 H 105.531 -1.67303 0.753788 0
M  V30 1191 H 103.913 -3.91087 -0.621854 0
M  V30 1192 H 105.087 -4.02987 2.23468 0
M  V30 1193 H 103.402 -3.71567 1.87955 0
M  V30 1194 H 105.999 -5.33327 -0.38298 0
M  V30 1195 H 106.342 -3.93201 -1.36743 0
M  V30 1196 H 106.875 -3.9642 0.331038 0
M  V30 1197 H 103.614 -6.07685 2.45762 0
M  V30 1198 H 103.134 -5.95097 0.749665 0
M  V30 1199 H 104.813 -6.3616 1.17941 0
M  V30 1200 N 104.945 -0.338344 -1.53925 0
M  V30 1201 C 106.194 0.260732 -2.00008 0
M  V30 1202 C 106.507 1.52073 -1.23017 0
M  V30 1203 O 107.713 2.19672 -1.5955 0
M  V30 1204 C 106.169 0.51515 -3.56194 0
M  V30 1205 C 105.777 -0.728645 -4.42035 0
M  V30 1206 C 107.521 1.07337 -4.10706 0
M  V30 1207 C 105.428 -0.445315 -5.89721 0
M  V30 1208 H 104.358 0.101205 -0.747177 0
M  V30 1209 H 107.009 -0.452866 -1.77824 0
M  V30 1210 H 105.391 1.28932 -3.74423 0
M  V30 1211 H 106.565 -1.50352 -4.35581 0
M  V30 1212 H 104.88 -1.20813 -3.98489 0
M  V30 1213 H 107.477 1.30022 -5.18651 0
M  V30 1214 H 107.82 2.0273 -3.63602 0
M  V30 1215 H 108.353 0.360034 -3.96167 0
M  V30 1216 H 105.092 -1.36883 -6.41049 0
M  V30 1217 H 104.612 0.291569 -5.99091 0
M  V30 1218 H 106.291 -0.0606218 -6.46972 0
M  V30 1219 N 106.423 1.57458 -0.0668435 0
M  V30 1220 C 107.371 2.13639 0.919851 0
M  V30 1221 C 108.365 1.07204 1.31163 0
M  V30 1222 O 109.571 1.25591 1.28945 0
M  V30 1223 H 105.946 0.683048 0.314562 0
M  V30 1224 H 107.917 2.95415 0.421047 0
M  V30 1225 C 106.666 2.70892 2.17975 0
M  V30 1226 H 105.989 3.5246 1.88711 0
M  V30 1227 H 107.429 3.13803 2.85138 0
M  V30 1228 C 105.888 1.65414 2.93496 0
M  V30 1229 O 106.418 1.07619 3.87015 0
M  V30 1230 N 104.624 1.36564 2.56512 0
M  V30 1231 H 104.171 1.83751 1.80536 0
M  V30 1232 H 104.129 0.66223 3.07347 0
M  V30 1233 N 107.901 -0.206675 1.56239 0
M  V30 1234 C 108.831 -1.25909 1.96645 0
M  V30 1235 C 109.812 -1.48097 0.836734 0
M  V30 1236 O 110.997 -1.6003 1.10019 0
M  V30 1237 C 108.127 -2.6058 2.29599 0
M  V30 1238 C 107.081 -2.53024 3.452 0
M  V30 1239 C 106.407 -3.91861 3.63798 0
M  V30 1240 C 107.707 -2.06524 4.79734 0
M  V30 1241 H 109.401 -0.923369 2.84806 0
M  V30 1242 H 106.947 -0.442735 1.37025 0
M  V30 1243 H 108.9 -3.34375 2.56459 0
M  V30 1244 H 107.624 -2.95869 1.38307 0
M  V30 1245 H 106.283 -1.81684 3.18412 0
M  V30 1246 H 105.931 -4.24483 2.69857 0
M  V30 1247 H 105.631 -3.87683 4.4156 0
M  V30 1248 H 107.155 -4.67296 3.93022 0
M  V30 1249 H 108.569 -2.70072 5.05702 0
M  V30 1250 H 106.966 -2.13374 5.60885 0
M  V30 1251 H 108.036 -1.01802 4.74093 0
M  V30 1252 N 109.379 -1.50304 -0.473955 0
M  V30 1253 C 110.628 -1.60392 -1.22301 0
M  V30 1254 C 110.941 -0.308411 -1.93153 0
M  V30 1255 O 112.147 -0.288156 -2.69966 0
M  V30 1256 C 110.603 -2.83109 -2.2221 0
M  V30 1257 C 110.211 -4.19524 -1.57173 0
M  V30 1258 C 111.955 -3.0254 -2.97775 0
M  V30 1259 C 109.862 -5.33431 -2.55353 0
M  V30 1260 H 108.792 -0.597286 -0.460179 0
M  V30 1261 H 111.443 -1.76731 -0.493803 0
M  V30 1262 H 109.825 -2.60322 -2.9841 0
M  V30 1263 H 110.999 -4.52554 -0.867824 0
M  V30 1264 H 109.314 -4.05674 -0.939002 0
M  V30 1265 H 111.911 -3.84811 -3.71248 0
M  V30 1266 H 112.254 -2.14154 -3.56992 0
M  V30 1267 H 112.787 -3.25494 -2.28688 0
M  V30 1268 H 109.526 -6.23962 -2.00878 0
M  V30 1269 H 109.046 -5.04823 -3.23904 0
M  V30 1270 H 110.725 -5.63887 -3.17239 0
M  V30 1271 N 110.857 0.726932 -1.39834 0
M  V30 1272 C 112.085 1.51613 -1.40787 0
M  V30 1273 C 112.5 1.88799 -0.00451505 0
M  V30 1274 O 111.857 1.54662 0.968809 0
M  V30 1275 C 111.908 2.79863 -2.28821 0
M  V30 1276 O 111.629 2.44253 -3.63692 0
M  V30 1277 C 113.13 3.73837 -2.38245 0
M  V30 1278 H 110.35 0.468264 -0.480593 0
M  V30 1279 H 112.894 0.897607 -1.83748 0
M  V30 1280 H 111.049 3.38027 -1.89252 0
M  V30 1281 H 111.463 3.26695 -4.1033 0
M  V30 1282 H 112.937 4.60699 -3.04073 0
M  V30 1283 H 113.414 4.16153 -1.40403 0
M  V30 1284 H 114.02 3.21589 -2.78317 0
M  V30 1285 N 112.336 1.25143 0.95797 0
M  V30 1286 C 113.266 1.07711 2.07173 0
M  V30 1287 C 114.247 -0.0128462 1.70095 0
M  V30 1288 O 115.432 0.156061 1.93572 0
M  V30 1289 C 112.562 0.691503 3.40346 0
M  V30 1290 C 111.516 1.73132 3.9142 0
M  V30 1291 C 110.842 1.20049 5.21049 0
M  V30 1292 C 112.142 3.1294 4.1817 0
M  V30 1293 H 113.836 2.00873 2.22014 0
M  V30 1294 H 111.382 0.967191 1.06684 0
M  V30 1295 H 113.335 0.556505 4.17709 0
M  V30 1296 H 112.059 -0.275819 3.25433 0
M  V30 1297 H 110.718 1.8547 3.16222 0
M  V30 1298 H 110.366 0.223499 5.02503 0
M  V30 1299 H 110.066 1.89545 5.56189 0
M  V30 1300 H 111.59 1.07782 6.01012 0
M  V30 1301 H 113.004 3.03775 4.86203 0
M  V30 1302 H 111.401 3.79875 4.64559 0
M  V30 1303 H 112.471 3.6025 3.24573 0
M  V30 1304 N 113.814 -1.1601 1.06675 0
M  V30 1305 C 114.777 -2.18724 0.685001 0
M  V30 1306 C 115.777 -1.58496 -0.271246 0
M  V30 1307 O 116.967 -1.74119 -0.0531156 0
M  V30 1308 C 114.099 -3.40899 0.00853648 0
M  V30 1309 H 115.292 -2.54011 1.59431 0
M  V30 1310 H 112.845 -1.30352 0.862441 0
M  V30 1311 H 113.58 -3.11173 -0.913337 0
M  V30 1312 H 113.365 -3.8587 0.696204 0
M  V30 1313 H 114.855 -4.16886 -0.24414 0
M  V30 1314 N 115.292 -0.849877 -1.32721 0
M  V30 1315 C 116.255 -0.296122 -2.27279 0
M  V30 1316 C 117.255 0.541458 -1.5141 0
M  V30 1317 O 118.445 0.353658 -1.70572 0
M  V30 1318 C 115.577 0.581579 -3.35902 0
M  V30 1319 H 116.77 -1.13064 -2.77771 0
M  V30 1320 H 114.323 -0.62383 -1.43311 0
M  V30 1321 H 115.058 1.43809 -2.9067 0
M  V30 1322 H 114.843 -0.0178814 -3.92096 0
M  V30 1323 H 116.333 0.961951 -4.0637 0
M  V30 1324 N 116.77 1.45427 -0.607355 0
M  V30 1325 C 117.733 2.28974 0.101693 0
M  V30 1326 C 118.733 1.39754 0.795329 0
M  V30 1327 O 119.923 1.61878 0.643527 0
M  V30 1328 C 117.055 3.20768 1.15414 0
M  V30 1329 H 118.248 2.93147 -0.632844 0
M  V30 1330 H 115.801 1.51945 -0.366391 0
M  V30 1331 H 116.536 2.61395 1.91945 0
M  V30 1332 H 116.321 3.86489 0.66098 0
M  V30 1333 H 117.811 3.83589 1.65073 0
M  V30 1334 N 118.248 0.346503 1.53744 0
M  V30 1335 C 119.178 -0.501193 2.28058 0
M  V30 1336 C 120.159 -1.10014 1.29734 0
M  V30 1337 O 121.344 -1.12097 1.58581 0
M  V30 1338 C 118.474 -1.65078 3.05559 0
M  V30 1339 C 117.428 -1.18003 4.11411 0
M  V30 1340 C 116.754 -2.41837 4.76884 0
M  V30 1341 C 118.054 -0.278394 5.21558 0
M  V30 1342 H 119.748 0.11875 2.99164 0
M  V30 1343 H 117.294 0.0585531 1.43881 0
M  V30 1344 H 119.247 -2.25028 3.56287 0
M  V30 1345 H 117.971 -2.29767 2.32109 0
M  V30 1346 H 116.63 -0.603331 3.61601 0
M  V30 1347 H 116.278 -3.0494 4.00026 0
M  V30 1348 H 115.978 -2.1102 5.48402 0
M  V30 1349 H 117.502 -3.02508 5.30397 0
M  V30 1350 H 118.916 -0.784823 5.67903 0
M  V30 1351 H 117.313 -0.0619707 6.00068 0
M  V30 1352 H 118.383 0.684677 4.80042 0
M  V30 1353 N 119.726 -1.57421 0.075193 0
M  V30 1354 C 120.656 -2.15942 -0.888324 0
M  V30 1355 C 121.637 -1.08737 -1.30806 0
M  V30 1356 O 122.822 -1.36787 -1.37851 0
M  V30 1357 C 119.952 -2.72379 -2.1547 0
M  V30 1358 C 118.906 -3.8478 -1.87425 0
M  V30 1359 C 118.232 -4.27834 -3.20721 0
M  V30 1360 C 119.532 -5.08869 -1.17684 0
M  V30 1361 H 121.226 -2.96705 -0.400799 0
M  V30 1362 H 118.772 -1.42723 -0.191342 0
M  V30 1363 H 120.725 -3.11965 -2.83295 0
M  V30 1364 H 119.449 -1.88841 -2.6647 0
M  V30 1365 H 118.108 -3.45703 -1.22004 0
M  V30 1366 H 117.756 -3.41214 -3.6957 0
M  V30 1367 H 117.456 -5.03605 -3.02746 0
M  V30 1368 H 118.98 -4.70039 -3.89738 0
M  V30 1369 H 120.394 -5.4575 -1.75584 0
M  V30 1370 H 118.791 -5.8994 -1.09956 0
M  V30 1371 H 119.861 -4.84648 -0.156453 0
M  V30 1372 N 121.204 0.198386 -1.56346 0
M  V30 1373 C 122.154 1.2499 -1.90687 0
M  V30 1374 C 123.138 1.41158 -0.772217 0
M  V30 1375 O 124.33 1.43584 -1.03502 0
M  V30 1376 C 121.459 2.59542 -2.24706 0
M  V30 1377 C 120.545 2.47181 -3.44619 0
M  V30 1378 N 120.936 2.04495 -4.62618 0
M  V30 1379 C 119.234 2.78082 -3.48692 0
M  V30 1380 C 119.935 2.03945 -5.44776 0
M  V30 1381 N 118.911 2.45323 -4.85095 0
M  V30 1382 H 122.713 0.911149 -2.7942 0
M  V30 1383 H 120.227 0.40684 -1.57221 0
M  V30 1384 H 122.224 3.3549 -2.47491 0
M  V30 1385 H 120.884 2.94244 -1.37298 0
M  V30 1386 H 121.895 1.75256 -4.87345 0
M  V30 1387 H 118.572 3.17002 -2.71691 0
M  V30 1388 H 119.962 1.72872 -6.4928 0
M  V30 1389 N 122.682 1.50554 0.465978 0
M  V30 1390 C 123.91 1.65563 1.24083 0
M  V30 1391 C 124.325 0.341051 1.85694 0
M  V30 1392 O 123.682 -0.677543 1.69457 0
M  V30 1393 C 123.733 2.75051 2.34583 0
M  V30 1394 O 123.454 4.01413 1.75497 0
M  V30 1395 C 124.955 3.01078 3.25372 0
M  V30 1396 H 122.175 0.55638 0.375077 0
M  V30 1397 H 124.719 1.96807 0.555624 0
M  V30 1398 H 122.874 2.46486 2.9887 0
M  V30 1399 H 123.288 4.62002 2.48303 0
M  V30 1400 H 124.762 3.81339 3.99105 0
M  V30 1401 H 125.239 2.12349 3.84453 0
M  V30 1402 H 125.845 3.31194 2.66816 0
M  V30 1403 N 124.16 -0.719506 1.40217 0
M  V30 1404 C 125.107 -1.83359 1.40172 0
M  V30 1405 C 126.077 -1.64065 0.259206 0
M  V30 1406 O 127.262 -1.85254 0.456677 0
M  V30 1407 C 124.402 -3.2103 1.26624 0
M  V30 1408 C 123.515 -3.51923 2.50548 0
M  V30 1409 C 122.65 -4.79079 2.29471 0
M  V30 1410 C 121.689 -5.02863 3.48992 0
M  V30 1411 N 120.826 -6.2123 3.27135 0
M  V30 1412 H 125.666 -1.82733 2.35399 0
M  V30 1413 H 123.203 -0.892688 1.16917 0
M  V30 1414 H 125.161 -4.00524 1.16776 0
M  V30 1415 H 123.791 -3.20895 0.350176 0
M  V30 1416 H 122.843 -2.67014 2.70939 0
M  V30 1417 H 124.155 -3.6541 3.39525 0
M  V30 1418 H 123.309 -5.66582 2.16955 0
M  V30 1419 H 122.048 -4.67794 1.37913 0
M  V30 1420 H 121.053 -4.13816 3.6199 0
M  V30 1421 H 122.278 -5.16023 4.41472 0
M  V30 1422 H 120.224 -6.11204 2.38256 0
M  V30 1423 H 120.141 -6.35375 4.09675 0
M  V30 1424 H 121.409 -7.11532 3.18344 0
M  V30 1425 N 125.638 -1.25649 -0.95132 0
M  V30 1426 C 126.866 -1.13343 -1.73092 0
M  V30 1427 C 127.281 0.312434 -1.86197 0
M  V30 1428 O 126.638 1.21465 -1.36207 0
M  V30 1429 C 126.689 -1.78602 -3.14299 0
M  V30 1430 O 126.41 -3.17537 -3.01831 0
M  V30 1431 C 127.911 -1.72119 -4.08522 0
M  V30 1432 H 125.131 -0.395181 -0.542285 0
M  V30 1433 H 127.675 -1.66076 -1.19328 0
M  V30 1434 H 125.83 -1.29832 -3.64996 0
M  V30 1435 H 126.244 -3.49676 -3.90931 0
M  V30 1436 H 127.718 -2.22435 -5.052 0
M  V30 1437 H 128.195 -0.685635 -4.33815 0
M  V30 1438 H 128.801 -2.20393 -3.63741 0
M  V30 1439 N 127.117 1.15442 -1.07289 0
M  V30 1440 C 128.363 1.8672 -0.806679 0
M  V30 1441 C 128.718 1.80723 0.660084 0
M  V30 1442 O 128.011 1.21902 1.47819 0
M  V30 1443 C 128.205 3.3489 -1.24834 0
M  V30 1444 C 128.034 3.55313 -2.7565 0
M  V30 1445 C 126.804 3.7082 -3.4325 0
M  V30 1446 C 129.002 3.53188 -3.73848 0
M  V30 1447 N 126.984 3.7929 -4.82713 0
M  V30 1448 C 128.355 3.67765 -4.99149 0
M  V30 1449 C 130.41 3.36459 -3.67015 0
M  V30 1450 C 129.113 3.6734 -6.18428 0
M  V30 1451 C 131.139 3.37333 -4.85758 0
M  V30 1452 C 130.501 3.52438 -6.09891 0
M  V30 1453 H 126.6 0.700433 -0.347733 0
M  V30 1454 H 129.184 1.38441 -1.36902 0
M  V30 1455 H 127.355 3.81786 -0.713713 0
M  V30 1456 H 129.087 3.93875 -0.929745 0
M  V30 1457 H 125.842 3.71568 -2.93656 0
M  V30 1458 H 126.266 3.8727 -5.55294 0
M  V30 1459 H 130.908 3.237 -2.71989 0
M  V30 1460 H 128.626 3.78878 -7.13777 0
M  V30 1461 H 132.212 3.25617 -4.82146 0
M  V30 1462 H 131.092 3.53047 -7.00234 0
M  V30 1463 N 128.595 0.856903 1.32268 0
M  V30 1464 C 129.842 0.461386 1.97174 0
M  V30 1465 C 130.17 -0.983491 1.67803 0
M  V30 1466 O 129.425 -1.70541 0.959903 0
M  V30 1467 C 129.724 0.649919 3.51441 0
M  V30 1468 C 129.39 2.0656 4.00804 0
M  V30 1469 C 128.052 2.45279 4.13995 0
M  V30 1470 C 130.404 2.98947 4.26943 0
M  V30 1471 C 127.732 3.75653 4.50668 0
M  V30 1472 C 130.084 4.28822 4.65075 0
M  V30 1473 C 128.748 4.67472 4.76472 0
M  V30 1474 H 128.018 0.168833 0.72151 0
M  V30 1475 H 130.665 1.08739 1.57633 0
M  V30 1476 H 128.97 -0.0593018 3.91755 0
M  V30 1477 H 130.667 0.32391 3.9969 0
M  V30 1478 H 127.257 1.75495 3.91024 0
M  V30 1479 H 131.441 2.70265 4.16258 0
M  V30 1480 H 126.697 4.05379 4.57688 0
M  V30 1481 H 130.871 5.0047 4.84255 0
M  V30 1482 H 128.498 5.68539 5.04646 0
M  V30 1483 N 130.073 -1.45103 0.615059 0
M  V30 1484 C 130.983 -2.34382 -0.101034 0
M  V30 1485 C 131.999 -1.51681 -0.852585 0
M  V30 1486 O 133.175 -1.8446 -0.808484 0
M  V30 1487 C 130.24 -3.29417 -1.08099 0
M  V30 1488 C 129.301 -4.28025 -0.330577 0
M  V30 1489 C 128.534 -5.1852 -1.26385 0
M  V30 1490 O 128.757 -5.12598 -2.50198 0
M  V30 1491 O 127.691 -5.97122 -0.756866 0
M  V30 1492 H 131.517 -2.97033 0.632855 0
M  V30 1493 H 129.102 -1.4461 0.375293 0
M  V30 1494 H 130.984 -3.87958 -1.6452 0
M  V30 1495 H 129.659 -2.69321 -1.79577 0
M  V30 1496 H 128.566 -3.73078 0.276283 0
M  V30 1497 H 129.899 -4.90997 0.343866 0
M  V30 1498 N 131.551 -0.354651 -1.53558 0
M  V30 1499 C 132.481 0.489091 -2.2832 0
M  V30 1500 C 133.462 1.09324 -1.30316 0
M  V30 1501 O 134.647 1.11255 -1.59173 0
M  V30 1502 C 131.777 1.63456 -3.0643 0
M  V30 1503 C 130.731 1.1582 -4.12031 0
M  V30 1504 C 130.057 2.39305 -4.7816 0
M  V30 1505 C 131.357 0.250731 -5.21698 0
M  V30 1506 H 133.051 -0.134614 -2.99097 0
M  V30 1507 H 130.597 -0.0661826 -1.43848 0
M  V30 1508 H 132.55 2.23136 -3.57475 0
M  V30 1509 H 131.274 2.28533 -2.33325 0
M  V30 1510 H 129.933 0.584146 -3.61916 0
M  V30 1511 H 129.581 3.02814 -4.01637 0
M  V30 1512 H 129.281 2.08109 -5.49513 0
M  V30 1513 H 130.805 2.99691 -5.31994 0
M  V30 1514 H 132.219 0.754695 -5.68311 0
M  V30 1515 H 130.616 0.0301468 -6.00092 0
M  V30 1516 H 131.686 -0.710125 -4.79672 0
M  V30 1517 N 133.029 1.57378 -0.0835403 0
M  V30 1518 C 133.992 2.12252 0.864959 0
M  V30 1519 C 134.992 1.04916 1.21858 0
M  V30 1520 O 136.182 1.30853 1.14991 0
M  V30 1521 C 133.314 2.63358 2.16461 0
M  V30 1522 H 134.507 2.97371 0.388676 0
M  V30 1523 H 132.06 1.55423 0.165317 0
M  V30 1524 H 132.795 1.81727 2.686 0
M  V30 1525 H 132.58 3.41826 1.92087 0
M  V30 1526 H 134.07 3.05847 2.84337 0
M  V30 1527 N 134.507 -0.190092 1.56449 0
M  V30 1528 C 135.918 -0.754312 1.70784 0
M  V30 1529 C 136.269 -1.83631 0.690951 0
M  V30 1530 O 135.394 -2.15868 -0.151604 0
M  V30 1531 C 135.989 -1.37503 3.09642 0
M  V30 1532 C 134.548 -1.88628 3.25725 0
M  V30 1533 C 133.695 -0.758098 2.66736 0
M  V30 1534 H 136.646 0.0350524 1.58661 0
M  V30 1535 H 136.667 -2.2445 3.0725 0
M  V30 1536 H 136.179 -0.587302 3.83631 0
M  V30 1537 H 134.28 -2.70103 2.56661 0
M  V30 1538 H 134.393 -2.04462 4.3328 0
M  V30 1539 H 132.757 -1.17369 2.26046 0
M  V30 1540 H 133.54 0.0174705 3.43296 0
M  V30 1541 N 135.985 -1.50799 -0.457987 0
M  V30 1542 C 136.932 -1.70617 -1.5543 0
M  V30 1543 C 137.902 -0.547562 -1.56815 0
M  V30 1544 O 139.087 -0.779647 -1.74144 0
M  V30 1545 C 136.227 -1.81831 -2.93311 0
M  V30 1546 C 135.34 -3.09278 -3.01615 0
M  V30 1547 C 134.475 -3.11209 -4.30491 0
M  V30 1548 C 133.514 -4.33055 -4.32585 0
M  V30 1549 N 132.651 -4.32652 -5.52952 0
M  V30 1550 H 137.491 -2.64207 -1.37836 0
M  V30 1551 H 135.028 -1.30959 -0.669937 0
M  V30 1552 H 136.986 -1.86314 -3.73287 0
M  V30 1553 H 135.616 -0.916685 -3.0951 0
M  V30 1554 H 134.668 -3.14203 -2.1443 0
M  V30 1555 H 135.98 -3.99233 -2.99022 0
M  V30 1556 H 135.134 -3.14494 -5.18824 0
M  V30 1557 H 133.873 -2.19106 -4.35711 0
M  V30 1558 H 132.878 -4.29969 -3.42647 0
M  V30 1559 H 134.103 -5.264 -4.29046 0
M  V30 1560 H 132.049 -3.43409 -5.58933 0
M  V30 1561 H 131.966 -5.16392 -5.52155 0
M  V30 1562 H 133.234 -4.40101 -6.43375 0
M  V30 1563 N 137.463 0.71206 -1.40597 0
M  V30 1564 C 138.426 1.80785 -1.40888 0
M  V30 1565 C 139.426 1.57937 -0.302103 0
M  V30 1566 O 140.616 1.64913 -0.561182 0
M  V30 1567 C 137.748 3.18927 -1.20409 0
M  V30 1568 H 138.941 1.81924 -2.38419 0
M  V30 1569 H 136.494 0.91805 -1.26497 0
M  V30 1570 H 137.229 3.23436 -0.236522 0
M  V30 1571 H 137.014 3.36911 -2.00582 0
M  V30 1572 H 138.504 3.98949 -1.23408 0
M  V30 1573 N 138.941 1.26152 0.944643 0
M  V30 1574 C 139.904 1.07474 2.0244 0
M  V30 1575 C 140.904 0.0242064 1.60782 0
M  V30 1576 O 142.094 0.267302 1.72137 0
M  V30 1577 C 139.226 0.633956 3.34953 0
M  V30 1578 H 140.419 2.03336 2.20442 0
M  V30 1579 H 137.972 1.087 1.12312 0
M  V30 1580 H 138.707 -0.326811 3.22649 0
M  V30 1581 H 138.492 1.39247 3.66542 0
M  V30 1582 H 139.982 0.52501 4.14287 0
M  V30 1583 N 140.419 -1.14872 1.07899 0
M  V30 1584 C 141.367 -2.21857 0.698727 0
M  V30 1585 C 142.361 -1.66845 -0.293086 0
M  V30 1586 O 143.567 -1.79321 -0.156204 0
M  V30 1587 H 139.942 -0.722691 0.207899 0
M  V30 1588 H 141.913 -2.51205 1.61054 0
M  V30 1589 C 140.662 -3.47498 0.11858 0
M  V30 1590 H 139.985 -3.90154 0.872914 0
M  V30 1591 H 141.425 -4.23858 -0.109759 0
M  V30 1592 C 139.884 -3.16947 -1.1422 0
M  V30 1593 O 140.414 -3.3426 -2.22785 0
M  V30 1594 N 138.62 -2.70946 -1.05055 0
M  V30 1595 H 138.167 -2.57058 -0.167038 0
M  V30 1596 H 138.125 -2.50879 -1.89491 0
M  V30 1597 N 141.898 -0.863906 -1.31812 0
M  V30 1598 C 143.147 -0.46801 -1.96195 0
M  V30 1599 C 143.46 0.983474 -1.69077 0
M  V30 1600 O 144.666 1.48523 -2.27273 0
M  V30 1601 C 143.122 -0.785995 -3.51212 0
M  V30 1602 C 142.73 -2.25383 -3.87178 0
M  V30 1603 C 144.474 -0.458274 -4.22019 0
M  V30 1604 C 142.381 -2.51455 -5.3528 0
M  V30 1605 H 141.311 -0.171283 -0.734287 0
M  V30 1606 H 143.962 -1.05597 -1.50072 0
M  V30 1607 H 142.344 -0.127359 -3.95795 0
M  V30 1608 H 143.518 -2.95502 -3.53575 0
M  V30 1609 H 141.833 -2.54698 -3.2942 0
M  V30 1610 H 144.43 -0.630369 -5.30971 0
M  V30 1611 H 144.773 0.600834 -4.11941 0
M  V30 1612 H 145.306 -1.07319 -3.8305 0
M  V30 1613 H 142.045 -3.56025 -5.50387 0
M  V30 1614 H 141.565 -1.85923 -5.70257 0
M  V30 1615 H 143.244 -2.35874 -6.02472 0
M  V30 1616 N 143.376 1.44774 -0.622745 0
M  V30 1617 C 144.625 2.01334 -0.121397 0
M  V30 1618 C 144.938 1.49505 1.26125 0
M  V30 1619 O 146.144 1.98139 1.85616 0
M  V30 1620 C 144.6 3.59516 -0.166298 0
M  V30 1621 C 144.208 4.20342 -1.54974 0
M  V30 1622 C 145.952 4.23582 0.279021 0
M  V30 1623 C 143.859 5.70721 -1.55021 0
M  V30 1624 H 142.789 0.752851 -0.0416172 0
M  V30 1625 H 145.44 1.66083 -0.780309 0
M  V30 1626 H 143.822 3.92027 0.559557 0
M  V30 1627 H 144.996 3.99381 -2.29851 0
M  V30 1628 H 143.311 3.68529 -1.93843 0
M  V30 1629 H 145.908 5.33868 0.298083 0
M  V30 1630 H 146.251 3.95327 1.30471 0
M  V30 1631 H 146.784 3.95843 -0.394063 0
M  V30 1632 H 143.523 6.03698 -2.55399 0
M  V30 1633 H 143.043 5.93829 -0.844245 0
M  V30 1634 H 144.722 6.34203 -1.28047 0
M  V30 1635 N 144.854 0.36279 1.53368 0
M  V30 1636 C 146.1 -0.228113 2.01513 0
M  V30 1637 C 146.433 -1.48648 1.2497 0
M  V30 1638 O 145.708 -1.91459 0.342616 0
M  V30 1639 C 145.991 -0.522884 3.56284 0
M  V30 1640 C 145.844 0.74892 4.43521 0
M  V30 1641 C 147.163 -1.32461 4.19693 0
M  V30 1642 H 144.282 -0.0814343 0.732487 0
M  V30 1643 H 146.924 0.48713 1.83649 0
M  V30 1644 H 145.074 -1.1322 3.71636 0
M  V30 1645 H 146.746 1.38648 4.39971 0
M  V30 1646 H 144.989 1.36986 4.11603 0
M  V30 1647 H 145.66 0.497667 5.49752 0
M  V30 1648 H 148.136 -0.809203 4.08156 0
M  V30 1649 H 147.012 -1.49961 5.28018 0
M  V30 1650 H 147.273 -2.33232 3.75573 0
M  V30 1651 N 146.332 -1.57332 0.0918853 0
M  V30 1652 C 147.279 -2.13847 -0.868211 0
M  V30 1653 C 148.249 -1.05618 -1.28196 0
M  V30 1654 O 149.434 -1.33387 -1.36427 0
M  V30 1655 C 146.574 -2.72062 -2.12312 0
M  V30 1656 C 145.687 -3.94514 -1.7602 0
M  V30 1657 C 144.822 -4.40903 -2.96273 0
M  V30 1658 C 143.861 -5.55953 -2.56092 0
M  V30 1659 N 142.998 -5.97209 -3.69169 0
M  V30 1660 H 147.838 -2.95575 -0.379406 0
M  V30 1661 H 145.375 -1.46048 -0.175606 0
M  V30 1662 H 147.333 -3.03931 -2.858 0
M  V30 1663 H 145.963 -1.93068 -2.58698 0
M  V30 1664 H 145.015 -3.68979 -0.925135 0
M  V30 1665 H 146.327 -4.7802 -1.42472 0
M  V30 1666 H 145.481 -4.74539 -3.78018 0
M  V30 1667 H 144.22 -3.56291 -3.33029 0
M  V30 1668 H 143.225 -5.21948 -1.72773 0
M  V30 1669 H 144.45 -6.42311 -2.20484 0
M  V30 1670 H 142.396 -5.15543 -4.05649 0
M  V30 1671 H 142.313 -6.75504 -3.39456 0
M  V30 1672 H 143.581 -6.35475 -4.51434 0
M  V30 1673 N 147.81 0.181792 -1.56548 0
M  V30 1674 C 149.087 0.926765 -1.72251 0
M  V30 1675 C 149.467 2.00831 -0.650386 0
M  V30 1676 O 148.815 2.26008 0.336521 0
M  V30 1677 C 149.025 1.50106 -3.1507 0
M  V30 1678 C 150.373 1.97805 -3.75711 0
M  V30 1679 O 151.397 1.59922 -3.18282 0
M  V30 1680 O 150.256 2.67555 -4.76525 0
M  V30 1681 H 147.35 0.435506 -0.703039 0
M  V30 1682 H 149.896 0.170443 -1.68842 0
M  V30 1683 H 148.668 0.72212 -3.84579 0
M  V30 1684 H 148.291 2.32186 -3.22763 0
M  V30 1685 N 149.288 1.51039 0.449983 0
M  V30 1686 C 150.198 1.74261 1.57067 0
M  V30 1687 C 151.214 0.626363 1.62335 0
M  V30 1688 O 152.39 0.907162 1.79812 0
M  V30 1689 C 149.455 1.85114 2.93144 0
M  V30 1690 C 148.516 3.0893 2.98095 0
M  V30 1691 C 147.749 3.19256 4.27681 0
M  V30 1692 O 147.972 2.35835 5.19363 0
M  V30 1693 O 146.906 4.12144 4.38658 0
M  V30 1694 H 150.732 2.69303 1.40391 0
M  V30 1695 H 148.317 1.35389 0.631688 0
M  V30 1696 H 150.199 1.94311 3.73926 0
M  V30 1697 H 148.874 0.932588 3.09975 0
M  V30 1698 H 147.781 3.0522 2.16314 0
M  V30 1699 H 149.114 4.00433 2.86206 0
M  V30 1700 N 150.766 -0.704594 1.40972 0
M  V30 1701 C 151.713 -1.81862 1.42109 0
M  V30 1702 C 152.683 -1.63781 0.276593 0
M  V30 1703 O 153.868 -1.84759 0.4763 0
M  V30 1704 C 151.008 -3.19669 1.30022 0
M  V30 1705 C 150.121 -3.49246 2.54267 0
M  V30 1706 C 149.256 -4.76618 2.3454 0
M  V30 1707 C 148.295 -4.99133 3.54306 0
M  V30 1708 N 147.432 -6.17726 3.33706 0
M  V30 1709 H 152.272 -1.80226 2.37324 0
M  V30 1710 H 149.809 -0.880238 1.17857 0
M  V30 1711 H 151.767 -3.99263 1.21018 0
M  V30 1712 H 150.397 -3.20506 0.384192 0
M  V30 1713 H 149.449 -2.64125 2.73756 0
M  V30 1714 H 150.761 -3.61788 3.43381 0
M  V30 1715 H 149.915 -5.64249 2.22952 0
M  V30 1716 H 148.654 -4.66305 1.42867 0
M  V30 1717 H 147.659 -4.09953 3.66359 0
M  V30 1718 H 148.884 -5.11311 4.4692 0
M  V30 1719 H 146.83 -6.08642 2.44725 0
M  V30 1720 H 146.747 -6.30995 4.16391 0
M  V30 1721 H 148.015 -7.08115 3.25873 0
M  V30 1722 N 152.244 -1.26651 -0.937939 0
M  V30 1723 C 153.177 -1.02811 -2.03728 0
M  V30 1724 C 154.155 0.0481915 -1.62529 0
M  V30 1725 O 155.339 -0.0948839 -1.88261 0
M  V30 1726 C 152.466 -0.557517 -3.3408 0
M  V30 1727 C 151.512 -1.62686 -3.94253 0
M  V30 1728 S 152.345 -3.21667 -4.28125 0
M  V30 1729 C 153.501 -2.76384 -5.61572 0
M  V30 1730 H 153.734 -1.95891 -2.23638 0
M  V30 1731 H 151.267 -1.10367 -1.07974 0
M  V30 1732 H 153.225 -0.292674 -4.09455 0
M  V30 1733 H 151.886 0.353062 -3.12109 0
M  V30 1734 H 151.079 -1.24866 -4.88287 0
M  V30 1735 H 150.681 -1.84324 -3.25424 0
M  V30 1736 H 152.973 -2.2105 -6.40424 0
M  V30 1737 H 153.916 -3.69123 -6.0428 0
M  V30 1738 H 154.324 -2.15847 -5.21604 0
M  V30 1739 N 153.722 1.14298 -1.08507 0
M  V30 1740 C 154.97 1.84993 -0.813763 0
M  V30 1741 C 155.291 1.83405 0.662393 0
M  V30 1742 O 154.561 1.28319 1.48024 0
M  V30 1743 H 153.141 0.684966 -0.298045 0
M  V30 1744 H 155.803 1.385 -1.37126 0
M  V30 1745 H 154.899 2.89788 -1.15884 0
M  V30 1746 N 155.201 0.870884 1.31352 0
M  V30 1747 C 156.612 0.534714 1.78879 0
M  V30 1748 C 156.963 -0.948423 1.71754 0
M  V30 1749 O 156.088 -1.74055 1.28584 0
M  V30 1750 C 156.683 0.963839 3.24801 0
M  V30 1751 C 155.242 0.679311 3.70219 0
M  V30 1752 C 154.389 1.15465 2.52117 0
M  V30 1753 H 157.34 1.05651 1.18421 0
M  V30 1754 H 157.361 0.286892 3.79417 0
M  V30 1755 H 156.873 2.04332 3.29955 0
M  V30 1756 H 154.974 -0.388769 3.70566 0
M  V30 1757 H 155.087 1.25698 4.62317 0
M  V30 1758 H 153.451 0.574383 2.48139 0
M  V30 1759 H 154.234 2.24157 2.60016 0
M  V30 1760 N 156.679 -1.44442 0.630414 0
M  V30 1761 C 157.589 -2.34476 -0.0761693 0
M  V30 1762 C 158.605 -1.52576 -0.836449 0
M  V30 1763 O 159.781 -1.85307 -0.788874 0
M  V30 1764 C 156.846 -3.30545 -1.04599 0
M  V30 1765 C 155.907 -4.28352 -0.28516 0
M  V30 1766 C 155.14 -5.19831 -1.20878 0
M  V30 1767 O 155.363 -5.15223 -2.44747 0
M  V30 1768 O 154.297 -5.97892 -0.693491 0
M  V30 1769 H 158.123 -2.96345 0.664324 0
M  V30 1770 H 155.708 -1.44203 0.39061 0
M  V30 1771 H 157.59 -3.89681 -1.60396 0
M  V30 1772 H 156.265 -2.7121 -1.76711 0
M  V30 1773 H 155.172 -3.72764 0.315837 0
M  V30 1774 H 156.505 -4.90605 0.395924 0
M  V30 1775 N 158.157 -0.370918 -1.53173 0
M  V30 1776 C 159.568 0.107139 -1.86392 0
M  V30 1777 C 159.919 1.47714 -1.29132 0
M  V30 1778 O 159.044 2.07464 -0.615439 0
M  V30 1779 C 159.639 0.201187 -3.38202 0
M  V30 1780 C 158.198 0.623507 -3.712 0
M  V30 1781 C 157.345 -0.225978 -2.76378 0
M  V30 1782 H 160.296 -0.58951 -1.47345 0
M  V30 1783 H 160.317 1.02377 -3.66468 0
M  V30 1784 H 159.829 -0.796058 -3.79848 0
M  V30 1785 H 157.93 1.62879 -3.35114 0
M  V30 1786 H 158.043 0.394414 -4.77474 0
M  V30 1787 H 156.407 0.305962 -2.52856 0
M  V30 1788 H 157.19 -1.22086 -3.20858 0
M  V30 1789 N 159.635 1.57281 -0.100228 0
M  V30 1790 C 160.884 1.93713 0.561984 0
M  V30 1791 C 161.197 0.984492 1.69018 0
M  V30 1792 O 162.403 1.24273 2.41389 0
M  V30 1793 C 160.859 3.4421 1.05106 0
M  V30 1794 C 160.467 4.47975 -0.0476628 0
M  V30 1795 C 162.211 3.89595 1.68571 0
M  V30 1796 C 160.118 5.89631 0.457055 0
M  V30 1797 H 159.048 0.723082 0.2137 0
M  V30 1798 H 161.699 1.82644 -0.177057 0
M  V30 1799 H 160.081 3.50449 1.84395 0
M  V30 1800 H 161.255 4.53385 -0.823333 0
M  V30 1801 H 159.57 4.1223 -0.587816 0
M  V30 1802 H 162.167 4.92832 2.07414 0
M  V30 1803 H 162.51 3.28526 2.55688 0
M  V30 1804 H 163.043 3.86078 0.958562 0
M  V30 1805 H 159.782 6.54411 -0.377616 0
M  V30 1806 H 159.302 5.87681 1.19962 0
M  V30 1807 H 160.981 6.40363 0.92437 0
M  V30 1808 N 161.113 -0.173488 1.56642 0
M  V30 1809 C 162.362 -0.888758 1.81063 0
M  V30 1810 C 162.675 -1.83506 0.67712 0
M  V30 1811 O 163.881 -2.59254 0.806206 0
M  V30 1812 C 162.337 -1.63091 3.20826 0
M  V30 1813 C 161.945 -0.728357 4.4204 0
M  V30 1814 C 163.689 -2.33454 3.54541 0
M  V30 1815 C 161.596 -1.47062 5.72823 0
M  V30 1816 H 160.526 -0.335618 0.675186 0
M  V30 1817 H 163.177 -0.141712 1.82952 0
M  V30 1818 H 161.559 -2.42263 3.13248 0
M  V30 1819 H 162.733 0.0262449 4.60793 0
M  V30 1820 H 161.048 -0.134492 4.16183 0
M  V30 1821 H 163.645 -2.89578 4.49498 0
M  V30 1822 H 163.988 -3.08687 2.79317 0
M  V30 1823 H 164.521 -1.61227 3.63663 0
M  V30 1824 H 161.26 -0.760658 6.51072 0
M  V30 1825 H 160.78 -2.1986 5.58052 0
M  V30 1826 H 162.459 -2.01868 6.14702 0
M  V30 1827 N 162.591 -1.51276 -0.441967 0
M  V30 1828 C 163.538 -1.72256 -1.53612 0
M  V30 1829 C 164.508 -0.564164 -1.56225 0
M  V30 1830 O 165.693 -0.798074 -1.73307 0
M  V30 1831 C 162.833 -1.84932 -2.91366 0
M  V30 1832 C 161.946 -3.12459 -2.98317 0
M  V30 1833 C 161.081 -3.15758 -4.27166 0
M  V30 1834 C 160.12 -4.37619 -4.27967 0
M  V30 1835 N 159.257 -4.38493 -5.48333 0
M  V30 1836 H 164.097 -2.65654 -1.35026 0
M  V30 1837 H 161.634 -1.31662 -0.656009 0
M  V30 1838 H 163.592 -1.90263 -3.7129 0
M  V30 1839 H 162.222 -0.949461 -3.08521 0
M  V30 1840 H 161.274 -3.1646 -2.11086 0
M  V30 1841 H 162.586 -4.02382 -2.94771 0
M  V30 1842 H 161.74 -3.19979 -5.15459 0
M  V30 1843 H 160.479 -2.23715 -4.33362 0
M  V30 1844 H 159.484 -4.33579 -3.38067 0
M  V30 1845 H 160.709 -5.30921 -4.23438 0
M  V30 1846 H 158.655 -3.49318 -5.55259 0
M  V30 1847 H 158.572 -5.22219 -5.46647 0
M  V30 1848 H 159.84 -4.469 -6.38671 0
M  V30 1849 N 164.069 0.697108 -1.41344 0
M  V30 1850 C 165.294 1.49096 -1.44171 0
M  V30 1851 C 165.719 1.88038 -0.0481568 0
M  V30 1852 O 165.077 1.54525 0.948243 0
M  V30 1853 C 165.125 2.73088 -2.3549 0
M  V30 1854 O 164.229 3.70514 -1.81088 0
M  V30 1855 H 163.57 0.448801 -0.489361 0
M  V30 1856 H 166.1 0.856992 -1.85787 0
M  V30 1857 H 166.11 3.21413 -2.51312 0
M  V30 1858 H 164.785 2.44081 -3.36745 0
M  V30 1859 H 163.362 3.29441 -1.74708 0
M  V30 1860 N 165.547 1.27147 0.931209 0
M  V30 1861 C 166.477 1.12081 2.04842 0
M  V30 1862 C 167.458 0.0232364 1.70084 0
M  V30 1863 O 168.643 0.197085 1.93197 0
M  V30 1864 C 165.773 0.76354 3.38803 0
M  V30 1865 C 164.727 1.81396 3.87659 0
M  V30 1866 C 164.053 1.31075 5.18385 0
M  V30 1867 C 165.353 3.21739 4.11438 0
M  V30 1868 H 167.047 2.05537 2.17703 0
M  V30 1869 H 164.593 0.989603 1.04608 0
M  V30 1870 H 166.546 0.644982 4.16435 0
M  V30 1871 H 165.27 -0.206727 3.25945 0
M  V30 1872 H 163.929 1.92136 3.12217 0
M  V30 1873 H 163.577 0.330037 5.01916 0
M  V30 1874 H 163.277 2.013 5.52044 0
M  V30 1875 H 164.801 1.20506 5.98591 0
M  V30 1876 H 166.215 3.14019 4.79651 0
M  V30 1877 H 164.612 3.89644 4.56397 0
M  V30 1878 H 165.682 3.67054 3.16859 0
M  V30 1879 N 167.025 -1.13721 1.09112 0
M  V30 1880 C 168.271 -1.85413 0.836283 0
M  V30 1881 C 168.626 -1.8175 -0.631249 0
M  V30 1882 O 167.919 -1.24238 -1.45861 0
M  V30 1883 C 168.113 -3.32861 1.30146 0
M  V30 1884 C 167.942 -3.50882 2.81268 0
M  V30 1885 C 166.712 -3.65312 3.49106 0
M  V30 1886 C 168.91 -3.47196 3.7942 0
M  V30 1887 N 166.892 -3.71563 4.88686 0
M  V30 1888 C 168.263 -3.59777 5.04936 0
M  V30 1889 C 170.318 -3.30577 3.72321 0
M  V30 1890 C 169.021 -3.57455 6.24194 0
M  V30 1891 C 171.047 -3.29562 4.91063 0
M  V30 1892 C 170.409 -3.42691 6.15421 0
M  V30 1893 H 166.508 -0.694812 0.358832 0
M  V30 1894 H 169.092 -1.36246 1.39087 0
M  V30 1895 H 167.263 -3.80602 0.774361 0
M  V30 1896 H 168.995 -3.92346 0.99229 0
M  V30 1897 H 165.75 -3.6685 2.9953 0
M  V30 1898 H 166.174 -3.78387 5.61384 0
M  V30 1899 H 170.816 -3.19332 2.77105 0
M  V30 1900 H 168.534 -3.67475 7.19714 0
M  V30 1901 H 172.12 -3.17905 4.87266 0
M  V30 1902 H 171 -3.41862 7.05762 0
M  V30 1903 N 168.503 -0.877838 -1.30888 0
M  V30 1904 C 169.466 -0.344265 -2.266 0
M  V30 1905 C 170.466 0.50922 -1.52524 0
M  V30 1906 O 171.656 0.317398 -1.71284 0
M  V30 1907 C 168.788 0.510198 -3.37061 0
M  V30 1908 H 169.981 -1.1893 -2.7531 0
M  V30 1909 H 167.534 -0.654088 -1.41956 0
M  V30 1910 H 168.269 1.37612 -2.93655 0
M  V30 1911 H 168.054 -0.101047 -3.9197 0
M  V30 1912 H 169.544 0.875537 -4.08319 0
M  V30 1913 N 169.982 1.44106 -0.638065 0
M  V30 1914 C 171.228 2.02277 -0.145546 0
M  V30 1915 C 171.561 1.50125 1.23191 0
M  V30 1916 O 170.836 0.688133 1.8192 0
M  V30 1917 C 171.119 3.59829 -0.139791 0
M  V30 1918 C 170.972 4.22247 -1.55008 0
M  V30 1919 C 172.291 4.36873 0.531966 0
M  V30 1920 H 169.41 0.734992 -0.0543632 0
M  V30 1921 H 172.052 1.71592 -0.815863 0
M  V30 1922 H 170.202 3.86102 0.431007 0
M  V30 1923 H 171.874 4.07057 -2.1703 0
M  V30 1924 H 170.117 3.79476 -2.10191 0
M  V30 1925 H 170.788 5.31284 -1.49804 0
M  V30 1926 H 173.264 4.16074 0.0464781 0
M  V30 1927 H 172.14 5.4657 0.505206 0
M  V30 1928 H 172.401 4.11995 1.60352 0
M  V30 1929 N 171.46 0.379036 1.52974 0
M  V30 1930 C 172.688 -0.20679 2.05864 0
M  V30 1931 C 173.103 -1.41356 1.25155 0
M  V30 1932 O 172.46 -1.8009 0.295588 0
M  V30 1933 C 172.511 -0.587045 3.56702 0
M  V30 1934 O 172.232 0.571776 4.34353 0
M  V30 1935 C 173.733 -1.22983 4.25899 0
M  V30 1936 H 170.953 -0.0336123 0.670158 0
M  V30 1937 H 173.497 0.541298 1.97206 0
M  V30 1938 H 171.652 -1.28504 3.65466 0
M  V30 1939 H 172.066 0.261544 5.23847 0
M  V30 1940 H 173.54 -1.44635 5.32715 0
M  V30 1941 H 174.017 -2.19416 3.80465 0
M  V30 1942 H 174.623 -0.572892 4.21424 0
M  V30 1943 N 172.938 -1.57226 0.108567 0
M  V30 1944 C 174.184 -1.95121 -0.552761 0
M  V30 1945 C 174.517 -0.991345 -1.66991 0
M  V30 1946 O 173.792 -0.0267211 -1.94482 0
M  V30 1947 C 174.075 -3.43039 -1.09528 0
M  V30 1948 C 173.928 -4.49797 0.0177332 0
M  V30 1949 C 175.247 -3.92567 -1.98945 0
M  V30 1950 H 172.366 -0.709496 -0.199461 0
M  V30 1951 H 175.008 -1.89126 0.182011 0
M  V30 1952 H 173.158 -3.48279 -1.72146 0
M  V30 1953 H 174.83 -4.56661 0.652584 0
M  V30 1954 H 173.073 -4.284 0.682309 0
M  V30 1955 H 173.744 -5.50528 -0.402919 0
M  V30 1956 H 176.22 -3.89565 -1.46214 0
M  V30 1957 H 175.096 -4.96605 -2.33827 0
M  V30 1958 H 175.357 -3.32648 -2.91201 0
M  V30 1959 N 174.416 0.165178 -1.56732 0
M  V30 1960 C 175.662 0.882112 -1.82611 0
M  V30 1961 C 175.995 1.81628 -0.687378 0
M  V30 1962 O 175.27 1.92009 0.310267 0
M  V30 1963 C 175.553 1.67245 -3.18906 0
M  V30 1964 C 175.406 0.760987 -4.43316 0
M  V30 1965 C 176.725 2.63884 -3.52212 0
M  V30 1966 H 173.844 0.319242 -0.664269 0
M  V30 1967 H 176.486 0.148052 -1.89422 0
M  V30 1968 H 174.636 2.29824 -3.1323 0
M  V30 1969 H 176.308 0.147596 -4.61064 0
M  V30 1970 H 174.551 0.0694102 -4.33744 0
M  V30 1971 H 175.222 1.34962 -5.35247 0
M  V30 1972 H 177.698 2.11429 -3.58381 0
M  V30 1973 H 176.574 3.16245 -4.48643 0
M  V30 1974 H 176.835 3.44377 -2.77231 0
M  V30 1975 N 175.894 1.51508 0.433938 0
M  V30 1976 C 176.857 1.72473 1.50949 0
M  V30 1977 C 177.857 0.594725 1.49398 0
M  V30 1978 O 179.047 0.862315 1.5136 0
M  V30 1979 C 176.179 1.78431 2.90474 0
M  V30 1980 H 177.372 2.68467 1.33662 0
M  V30 1981 H 174.925 1.41549 0.662836 0
M  V30 1982 H 175.66 0.842645 3.13161 0
M  V30 1983 H 175.445 2.60558 2.93005 0
M  V30 1984 H 176.935 1.96479 3.68491 0
M  V30 1985 N 177.372 -0.689602 1.41712 0
M  V30 1986 C 178.6 -1.47827 1.44758 0
M  V30 1987 C 179.015 -1.88721 0.0545703 0
M  V30 1988 O 178.372 -1.57176 -0.927463 0
M  V30 1989 C 178.423 -2.73698 2.3616 0
M  V30 1990 O 178.144 -2.34524 3.7004 0
M  V30 1991 C 179.645 -3.67389 2.48072 0
M  V30 1992 H 176.865 -0.455357 0.49284 0
M  V30 1993 H 179.409 -0.848574 1.86063 0
M  V30 1994 H 177.564 -3.32891 1.98148 0
M  V30 1995 H 177.978 -3.15701 4.18847 0
M  V30 1996 H 179.452 -4.52475 3.16181 0
M  V30 1997 H 179.929 -4.12284 1.51388 0
M  V30 1998 H 180.535 -3.14097 2.86746 0
M  V30 1999 N 178.85 -1.27639 -0.924453 0
M  V30 2000 C 180.099 -1.13549 -1.66702 0
M  V30 2001 C 180.412 0.317487 -1.93006 0
M  V30 2002 O 181.618 0.579333 -2.65247 0
M  V30 2003 C 180.074 -1.98426 -3.00259 0
M  V30 2004 C 179.682 -3.484 -2.81641 0
M  V30 2005 C 181.426 -1.92993 -3.78092 0
M  V30 2006 C 179.333 -4.25464 -4.10773 0
M  V30 2007 H 178.263 -0.421351 -0.625283 0
M  V30 2008 H 180.914 -1.52085 -1.02676 0
M  V30 2009 H 179.296 -1.52736 -3.6536 0
M  V30 2010 H 180.47 -4.01973 -2.25287 0
M  V30 2011 H 178.785 -3.55245 -2.17232 0
M  V30 2012 H 181.382 -2.47844 -4.7379 0
M  V30 2013 H 181.725 -0.904281 -4.0636 0
M  V30 2014 H 182.258 -2.36595 -3.19793 0
M  V30 2015 H 178.997 -5.28566 -3.87683 0
M  V30 2016 H 178.517 -3.76667 -4.66779 0
M  V30 2017 H 180.196 -4.34812 -4.79111 0
M  V30 2018 N 180.328 1.1314 -1.09713 0
M  V30 2019 C 181.574 1.84757 -0.836224 0
M  V30 2020 C 181.907 1.8347 0.636598 0
M  V30 2021 O 181.182 1.27491 1.46889 0
M  V30 2022 C 181.465 3.32782 -1.37578 0
M  V30 2023 C 181.318 3.42567 -2.91493 0
M  V30 2024 C 182.637 4.28307 -1.01198 0
M  V30 2025 H 179.756 0.67082 -0.305236 0
M  V30 2026 H 182.398 1.3278 -1.35903 0
M  V30 2027 H 180.548 3.77177 -0.931097 0
M  V30 2028 H 182.22 3.06862 -3.44432 0
M  V30 2029 H 180.463 2.83349 -3.28475 0
M  V30 2030 H 181.134 4.46674 -3.24324 0
M  V30 2031 H 183.61 3.91999 -1.39556 0
M  V30 2032 H 182.486 5.30307 -1.41653 0
M  V30 2033 H 182.747 4.42029 0.0794833 0
M  V30 2034 N 181.806 0.884767 1.30421 0
M  V30 2035 C 183.055 0.499164 1.95426 0
M  V30 2036 C 183.368 -0.95645 1.70621 0
M  V30 2037 O 184.574 -1.44889 2.29607 0
M  V30 2038 C 183.03 0.84177 3.49917 0
M  V30 2039 C 182.638 2.31514 3.83543 0
M  V30 2040 C 184.382 0.525355 4.21237 0
M  V30 2041 C 182.289 2.59939 5.31212 0
M  V30 2042 H 181.219 0.182944 0.73147 0
M  V30 2043 H 183.87 1.07971 1.48373 0
M  V30 2044 H 182.252 0.190311 3.95542 0
M  V30 2045 H 183.426 3.0109 3.48829 0
M  V30 2046 H 181.741 2.59907 3.25326 0
M  V30 2047 H 184.338 0.714762 5.29901 0
M  V30 2048 H 184.681 -0.535222 4.12845 0
M  V30 2049 H 185.214 1.134 3.81294 0
M  V30 2050 H 181.953 3.64736 5.44654 0
M  V30 2051 H 181.473 1.94972 5.67227 0
M  V30 2052 H 183.152 2.45429 5.98643 0
M  V30 2053 N 183.284 -1.43765 0.645699 0
M  V30 2054 C 184.214 -2.33471 -0.0370477 0
M  V30 2055 C 185.195 -1.49042 -0.819779 0
M  V30 2056 O 186.38 -1.77726 -0.782758 0
M  V30 2057 C 183.51 -3.32311 -1.0093 0
M  V30 2058 C 182.464 -4.2667 -0.337201 0
M  V30 2059 C 181.79 -5.1549 -1.42037 0
M  V30 2060 C 183.09 -5.16657 0.765706 0
M  V30 2061 H 184.784 -2.90809 0.712069 0
M  V30 2062 H 182.33 -1.39834 0.343876 0
M  V30 2063 H 184.283 -3.9396 -1.49578 0
M  V30 2064 H 183.007 -2.73213 -1.78948 0
M  V30 2065 H 181.666 -3.66374 0.128771 0
M  V30 2066 H 181.314 -4.52735 -2.1918 0
M  V30 2067 H 181.014 -5.79438 -0.975966 0
M  V30 2068 H 182.538 -5.80012 -1.90838 0
M  V30 2069 H 183.952 -5.72158 0.361702 0
M  V30 2070 H 182.349 -5.89286 1.13413 0
M  V30 2071 H 183.419 -4.56796 1.62683 0
M  V30 2072 N 184.763 -0.387143 -1.52771 0
M  V30 2073 C 186.01 0.195735 -2.01552 0
M  V30 2074 C 186.338 1.46995 -1.27369 0
M  V30 2075 O 185.593 1.92325 -0.361879 0
M  V30 2076 C 185.892 0.512209 -3.53711 0
M  V30 2077 C 185.558 -0.670202 -4.45891 0
M  V30 2078 C 184.22 -0.994586 -4.70809 0
M  V30 2079 C 186.572 -1.46134 -5.00294 0
M  V30 2080 C 183.9 -2.11169 -5.4738 0
M  V30 2081 C 186.252 -2.56903 -5.78086 0
M  V30 2082 C 184.916 -2.89852 -6.01284 0
M  V30 2083 H 184.186 0.0716246 -0.73753 0
M  V30 2084 H 186.833 -0.524046 -1.8419 0
M  V30 2085 H 185.138 1.31329 -3.69134 0
M  V30 2086 H 186.835 0.975804 -3.88946 0
M  V30 2087 H 183.425 -0.407366 -4.2666 0
M  V30 2088 H 187.609 -1.22397 -4.80971 0
M  V30 2089 H 182.865 -2.3707 -5.63567 0
M  V30 2090 H 187.039 -3.18608 -6.19243 0
M  V30 2091 H 184.666 -3.76533 -6.60399 0
M  V30 2092 N 186.241 1.57166 -0.116904 0
M  V30 2093 C 187.487 1.95412 0.542405 0
M  V30 2094 C 187.82 1.00019 1.66463 0
M  V30 2095 O 187.095 0.0370346 1.94465 0
M  V30 2096 C 187.378 3.43615 1.07708 0
M  V30 2097 C 187.231 4.49781 -0.0415868 0
M  V30 2098 C 188.55 3.93616 1.96861 0
M  V30 2099 H 185.669 0.710543 0.195696 0
M  V30 2100 H 188.311 1.89027 -0.192038 0
M  V30 2101 H 186.461 3.49187 1.70296 0
M  V30 2102 H 188.133 4.56308 -0.676793 0
M  V30 2103 H 186.376 4.28033 -0.705019 0
M  V30 2104 H 187.047 5.50733 0.373717 0
M  V30 2105 H 189.523 3.90335 1.44146 0
M  V30 2106 H 188.399 4.97838 2.3119 0
M  V30 2107 H 188.66 3.34188 2.89432 0
M  V30 2108 N 187.719 -0.156864 1.56817 0
M  V30 2109 C 188.682 -1.17781 1.96622 0
M  V30 2110 C 189.682 -1.36401 0.851555 0
M  V30 2111 O 190.872 -1.33561 1.11836 0
M  V30 2112 C 188.004 -2.54008 2.27361 0
M  V30 2113 H 189.197 -0.836564 2.87996 0
M  V30 2114 H 186.75 -0.39985 1.51099 0
M  V30 2115 H 187.485 -2.9312 1.38748 0
M  V30 2116 H 187.27 -2.41856 3.08623 0
M  V30 2117 H 188.76 -3.27558 2.59029 0
M  V30 2118 N 189.197 -1.51736 -0.425897 0
M  V30 2119 C 190.127 -1.76827 -1.52494 0
M  V30 2120 C 191.108 -0.618524 -1.58456 0
M  V30 2121 O 192.293 -0.862416 -1.74 0
M  V30 2122 C 189.423 -1.90374 -2.90474 0
M  V30 2123 C 188.377 -3.0588 -2.99369 0
M  V30 2124 C 187.703 -3.04625 -4.3944 0
M  V30 2125 C 189.003 -4.45644 -2.72394 0
M  V30 2126 H 190.697 -2.68855 -1.31748 0
M  V30 2127 H 188.243 -1.29372 -0.632362 0
M  V30 2128 H 190.196 -2.0651 -3.6733 0
M  V30 2129 H 188.92 -0.95004 -3.12477 0
M  V30 2130 H 187.579 -2.89467 -2.24954 0
M  V30 2131 H 187.227 -2.0701 -4.58428 0
M  V30 2132 H 186.927 -3.82195 -4.46319 0
M  V30 2133 H 188.451 -3.22869 -5.18255 0
M  V30 2134 H 189.865 -4.62348 -3.38979 0
M  V30 2135 H 188.262 -5.25006 -2.9067 0
M  V30 2136 H 189.332 -4.54893 -1.67929 0
M  V30 2137 N 190.675 0.682077 -1.42076 0
M  V30 2138 C 191.905 1.46844 -1.45329 0
M  V30 2139 C 192.313 1.89102 -0.0609328 0
M  V30 2140 O 191.656 1.58238 0.933082 0
M  V30 2141 C 191.718 2.75375 -2.31104 0
M  V30 2142 C 191.382 2.55238 -3.79081 0
M  V30 2143 C 192.379 2.20309 -4.70914 0
M  V30 2144 C 190.064 2.70459 -4.2327 0
M  V30 2145 C 192.058 2.00859 -6.04925 0
M  V30 2146 C 189.745 2.50624 -5.57343 0
M  V30 2147 C 190.743 2.15876 -6.47986 0
M  V30 2148 O 190.431 1.96227 -7.79583 0
M  V30 2149 H 190.163 0.4586 -0.496651 0
M  V30 2150 H 192.717 0.846131 -1.87162 0
M  V30 2151 H 190.947 3.40061 -1.84107 0
M  V30 2152 H 192.636 3.37231 -2.25898 0
M  V30 2153 H 193.402 2.08153 -4.38061 0
M  V30 2154 H 189.281 2.96485 -3.53012 0
M  V30 2155 H 192.825 1.7366 -6.75639 0
M  V30 2156 H 188.722 2.62375 -5.89771 0
M  V30 2157 H 189.49 2.10883 -7.90867 0
M  V30 2158 N 192.153 1.28127 0.917671 0
M  V30 2159 C 193.399 1.16232 1.66918 0
M  V30 2160 C 193.754 -0.28701 1.90247 0
M  V30 2161 O 193.047 -1.20586 1.48895 0
M  V30 2162 C 193.241 1.89018 3.03327 0
M  V30 2163 C 193.07 3.4088 2.9331 0
M  V30 2164 C 191.84 4.10214 2.95047 0
M  V30 2165 C 194.038 4.36689 2.71675 0
M  V30 2166 N 192.02 5.48571 2.75577 0
M  V30 2167 C 193.391 5.62382 2.6101 0
M  V30 2168 C 195.446 4.26661 2.56641 0
M  V30 2169 C 194.149 6.79189 2.36843 0
M  V30 2170 C 196.175 5.432 2.33853 0
M  V30 2171 C 195.537 6.67855 2.23939 0
M  V30 2172 H 191.636 0.48024 0.617166 0
M  V30 2173 H 194.22 1.61727 1.08409 0
M  V30 2174 H 192.391 1.45963 3.59929 0
M  V30 2175 H 194.123 1.69541 3.67475 0
M  V30 2176 H 190.878 3.61762 3.05655 0
M  V30 2177 H 191.302 6.21287 2.68945 0
M  V30 2178 H 195.944 3.30998 2.63059 0
M  V30 2179 H 193.662 7.74926 2.29164 0
M  V30 2180 H 197.248 5.37328 2.23091 0
M  V30 2181 H 196.128 7.56511 2.06546 0
M  V30 2182 O 193.67 -1.05238 1.22504 0
M  V30 2183 H 194.361 -1.6643 0.990999 0
M  V30 END ATOM
M  V30 BEGIN BOND
M  V30 END BOND
M  V30 END CTAB
M  END
$$$$
