drugbank_target|P51451 Tyrosine-protein kinase Blk (DB12010; DB15035)
 OpenBabel12092121143D

  0  0  0     0  0            999 V3000
M  V30 BEGIN CTAB
M  V30 COUNTS 8132 8233 0 0 0
M  V30 BEGIN ATOM
M  V30 1 H -0.908 1.98254 -0.117106 0
M  V30 2 N 0 1.576 0 0
M  V30 3 C 0.933 2.03868 1.02534 0
M  V30 4 C 1.911 0.928543 1.3348 0
M  V30 5 O 3.095 1.19667 1.45644 0
M  V30 6 C 0.222 2.43627 2.35294 0
M  V30 7 C -0.732 3.65373 2.2001 0
M  V30 8 S 0.101 5.13292 1.52614 0
M  V30 9 C 1.257 5.56322 2.86805 0
M  V30 10 H 1.49 2.90518 0.631377 0
M  V30 11 H -0.977 1.52953 0.210867 0
M  V30 12 H 0.981 2.67203 3.11629 0
M  V30 13 H -0.358 1.57376 2.7183 0
M  V30 14 H -1.165 3.90944 3.18086 0
M  V30 15 H -1.563 3.418 1.51819 0
M  V30 16 H 0.729 5.58782 3.83104 0
M  V30 17 H 1.672 6.56266 2.65933 0
M  V30 18 H 2.08 4.83886 2.90714 0
M  V30 19 N 1.4781 -0.272755 1.55222 0
M  V30 20 C 2.7261 -1.00234 1.75492 0
M  V30 21 C 3.0471 -1.8681 0.5592 0
M  V30 22 O 2.3171 -1.91215 -0.425882 0
M  V30 23 H 0.8971 -0.373076 0.647166 0
M  V30 24 H 3.5591 -0.296926 1.92625 0
M  V30 25 H 2.6551 -1.63913 2.65592 0
M  V30 26 N 2.9562 -1.48159 -0.537278 0
M  V30 27 C 3.8862 -1.65029 -1.6519 0
M  V30 28 C 4.8672 -0.499281 -1.62607 0
M  V30 29 O 6.0522 -0.730972 -1.79918 0
M  V30 30 C 3.1822 -1.68303 -3.03795 0
M  V30 31 C 2.1362 -2.8283 -3.21234 0
M  V30 32 C 1.4622 -2.71189 -4.60826 0
M  V30 33 C 2.7622 -4.24211 -3.04701 0
M  V30 34 H 4.4562 -2.58341 -1.51328 0
M  V30 35 H 2.0022 -1.24325 -0.726585 0
M  V30 36 H 3.9552 -1.78693 -3.81637 0
M  V30 37 H 2.6792 -0.715635 -3.18663 0
M  V30 38 H 1.3382 -2.71983 -2.45807 0
M  V30 39 H 0.9862 -1.72435 -4.7252 0
M  V30 40 H 0.6862 -3.48035 -4.7344 0
M  V30 41 H 2.2102 -2.83537 -5.40777 0
M  V30 42 H 3.6242 -4.3593 -3.72341 0
M  V30 43 H 2.0212 -5.01998 -3.28813 0
M  V30 44 H 3.0912 -4.41184 -2.01209 0
M  V30 45 N 4.4343 0.785586 -1.36625 0
M  V30 46 C 5.6803 1.54591 -1.31261 0
M  V30 47 C 6.0133 1.93906 0.106823 0
M  V30 48 O 5.2883 1.63007 1.06108 0
M  V30 49 C 5.5713 2.82038 -2.23889 0
M  V30 50 C 5.4243 2.49066 -3.74548 0
M  V30 51 C 6.7433 3.83887 -2.15217 0
M  V30 52 H 3.8623 0.560846 -0.478143 0
M  V30 53 H 6.5043 0.902278 -1.67209 0
M  V30 54 H 4.6543 3.36961 -1.93363 0
M  V30 55 H 6.3263 2.00164 -4.15611 0
M  V30 56 H 4.5693 1.81954 -3.93796 0
M  V30 57 H 5.2403 3.40109 -4.34776 0
M  V30 58 H 7.7163 3.38421 -2.42096 0
M  V30 59 H 6.5923 4.70806 -2.82193 0
M  V30 60 H 6.8533 4.27131 -1.14068 0
M  V30 61 N 5.9124 1.20967 1.01018 0
M  V30 62 C 7.1374 1.0503 1.78839 0
M  V30 63 C 7.5624 -0.395752 1.8389 0
M  V30 64 O 6.9204 -1.28529 1.27867 0
M  V30 65 C 6.9684 1.64602 3.2084 0
M  V30 66 O 6.0724 0.887988 4.02726 0
M  V30 67 H 5.4134 0.369987 0.551367 0
M  V30 68 H 7.9434 1.60399 1.27018 0
M  V30 69 H 7.9534 1.68607 3.71532 0
M  V30 70 H 6.6284 2.69841 3.16479 0
M  V30 71 H 5.2054 0.922648 3.61305 0
M  V30 72 N 7.3905 -1.2043 1.01659 0
M  V30 73 C 8.6155 -1.94318 0.724942 0
M  V30 74 C 9.0405 -1.74266 -0.708034 0
M  V30 75 O 8.3985 -1.03694 -1.48719 0
M  V30 76 C 8.4465 -3.44486 1.06591 0
M  V30 77 O 7.5505 -4.12017 0.177599 0
M  V30 78 H 6.8915 -0.60708 0.26898 0
M  V30 79 H 9.4215 -1.52861 1.35995 0
M  V30 80 H 9.4315 -3.95106 1.01762 0
M  V30 81 H 8.1065 -3.58404 2.10997 0
M  V30 82 H 6.6835 -3.71821 0.283421 0
M  V30 83 N 8.8686 -0.792821 -1.36206 0
M  V30 84 C 9.8156 -0.191653 -2.30003 0
M  V30 85 C 10.7856 0.666453 -1.52143 0
M  V30 86 O 11.9706 0.61442 -1.80636 0
M  V30 87 C 9.1106 0.664848 -3.38635 0
M  V30 88 C 8.2236 -0.212175 -4.31479 0
M  V30 89 C 7.3586 0.651022 -5.27196 0
M  V30 90 C 6.3976 -0.227247 -6.11678 0
M  V30 91 N 5.5346 0.595127 -6.99573 0
M  V30 92 H 10.3746 -0.996978 -2.80828 0
M  V30 93 H 7.9116 -0.503206 -1.38225 0
M  V30 94 H 9.8696 1.17645 -4.00269 0
M  V30 95 H 8.4996 1.43557 -2.89122 0
M  V30 96 H 7.5516 -0.841777 -3.70969 0
M  V30 97 H 8.8636 -0.888751 -4.90818 0
M  V30 98 H 8.0176 1.2283 -5.94136 0
M  V30 99 H 6.7566 1.36121 -4.68319 0
M  V30 100 H 5.7616 -0.816904 -5.43697 0
M  V30 101 H 6.9866 -0.93509 -6.72631 0
M  V30 102 H 4.9326 1.28955 -6.432 0
M  V30 103 H 4.8496 -0.0236952 -7.55996 0
M  V30 104 H 6.1176 1.15613 -7.70879 0
M  V30 105 N 10.3467 1.47872 -0.545128 0
M  V30 106 C 11.2937 2.29849 0.2093 0
M  V30 107 C 12.2637 1.38313 0.919707 0
M  V30 108 O 13.4487 1.67277 0.917772 0
M  V30 109 C 10.5887 3.22019 1.24088 0
M  V30 110 C 9.7017 4.2864 0.537778 0
M  V30 111 C 8.8367 5.07973 1.5536 0
M  V30 112 C 7.8757 6.06381 0.8348 0
M  V30 113 N 7.0127 6.78717 1.79688 0
M  V30 114 H 11.8527 2.93845 -0.49591 0
M  V30 115 H 9.3897 1.44848 -0.256389 0
M  V30 116 H 11.3477 3.73868 1.85144 0
M  V30 117 H 9.9777 2.59914 1.91428 0
M  V30 118 H 9.0297 3.7994 -0.187046 0
M  V30 119 H 10.3417 4.98793 -0.0258907 0
M  V30 120 H 9.4957 5.63912 2.23803 0
M  V30 121 H 8.2347 4.37693 2.15118 0
M  V30 122 H 7.2397 5.49631 0.136388 0
M  V30 123 H 8.4647 6.78665 0.24313 0
M  V30 124 H 6.4107 6.11177 2.38326 0
M  V30 125 H 6.3277 7.44998 1.28505 0
M  V30 126 H 7.5957 7.39237 2.47282 0
M  V30 127 N 11.8248 0.280983 1.55075 0
M  V30 128 C 13.2358 -0.215629 1.85451 0
M  V30 129 C 13.5868 -1.54991 1.203 0
M  V30 130 O 12.7118 -2.10699 0.493435 0
M  V30 131 C 13.3068 -0.398026 3.36454 0
M  V30 132 C 11.8658 -0.838866 3.66933 0
M  V30 133 C 11.0128 0.064458 2.77225 0
M  V30 134 H 13.9638 0.502601 1.50531 0
M  V30 135 H 13.9848 -1.23569 3.59876 0
M  V30 136 H 13.4968 0.573241 3.83843 0
M  V30 137 H 11.5978 -1.8214 3.25048 0
M  V30 138 H 11.7108 -0.672123 4.74362 0
M  V30 139 H 10.0748 -0.452863 2.50642 0
M  V30 140 H 10.8578 1.03172 3.2743 0
M  V30 141 N 13.3029 -1.57598 0.00835791 0
M  V30 142 C 14.5799 -1.82172 -0.712235 0
M  V30 143 C 14.9599 -0.887873 -1.9152 0
M  V30 144 O 14.3079 0.06146 -2.28417 0
M  V30 145 C 14.5179 -3.30875 -1.11008 0
M  V30 146 C 15.8659 -3.96826 -1.51044 0
M  V30 147 O 16.8899 -3.35248 -1.20364 0
M  V30 148 O 15.7489 -5.05318 -2.08125 0
M  V30 149 H 12.8429 -0.750435 -0.347529 0
M  V30 150 H 15.3889 -1.69665 0.0344523 0
M  V30 151 H 14.1609 -3.90481 -0.252982 0
M  V30 152 H 13.7839 -3.48412 -1.9156 0
M  V30 153 N 14.781 0.264519 -1.55364 0
M  V30 154 C 15.728 1.32717 -1.88825 0
M  V30 155 C 16.698 1.48675 -0.740605 0
M  V30 156 O 17.883 1.62945 -0.992657 0
M  V30 157 C 15.023 2.68089 -2.17307 0
M  V30 158 C 14.136 2.60284 -3.44785 0
M  V30 159 C 13.271 3.87892 -3.62924 0
M  V30 160 C 12.31 3.74631 -4.84064 0
M  V30 161 N 11.447 4.94092 -4.98816 0
M  V30 162 H 16.287 1.03481 -2.79456 0
M  V30 163 H 13.824 0.499757 -1.3835 0
M  V30 164 H 15.782 3.46864 -2.31821 0
M  V30 165 H 14.412 2.95509 -1.299 0
M  V30 166 H 13.464 1.73173 -3.38697 0
M  V30 167 H 14.776 2.46388 -4.33698 0
M  V30 168 H 13.93 4.75109 -3.77302 0
M  V30 169 H 12.669 4.04664 -2.7221 0
M  V30 170 H 11.674 2.85797 -4.69681 0
M  V30 171 H 12.899 3.5937 -5.76221 0
M  V30 172 H 10.845 5.11259 -4.11036 0
M  V30 173 H 10.762 4.8276 -5.81789 0
M  V30 174 H 12.03 5.82857 -5.17588 0
M  V30 175 N 16.2591 1.48442 0.529413 0
M  V30 176 C 17.1691 1.6569 1.66084 0
M  V30 177 C 18.1851 0.539432 1.65427 0
M  V30 178 O 19.3611 0.810572 1.84368 0
M  V30 179 C 16.4261 1.69315 3.02545 0
M  V30 180 C 15.4871 2.92694 3.14052 0
M  V30 181 C 14.7201 2.96137 4.44003 0
M  V30 182 O 14.9431 2.07973 5.31134 0
M  V30 183 O 13.8771 3.88312 4.59888 0
M  V30 184 H 17.7031 2.61483 1.54469 0
M  V30 185 H 15.2881 1.3185 0.702567 0
M  V30 186 H 17.1701 1.74217 3.83701 0
M  V30 187 H 15.8451 0.766966 3.14483 0
M  V30 188 H 14.7521 2.93324 2.32189 0
M  V30 189 H 16.0851 3.84699 3.0703 0
M  V30 190 N 17.7372 -0.778329 1.37039 0
M  V30 191 C 18.6842 -1.89139 1.32269 0
M  V30 192 C 19.6542 -1.65017 0.189387 0
M  V30 193 O 20.8392 -1.87024 0.377693 0
M  V30 194 C 17.9792 -3.26112 1.12894 0
M  V30 195 C 17.0922 -3.62233 2.35396 0
M  V30 196 C 16.2272 -4.8838 2.08946 0
M  V30 197 C 15.2662 -5.17212 3.2735 0
M  V30 198 N 14.4032 -6.34546 3.00492 0
M  V30 199 H 19.2432 -1.92552 2.27437 0
M  V30 200 H 16.7802 -0.941473 1.13025 0
M  V30 201 H 18.7382 -4.05116 0.996835 0
M  V30 202 H 17.3682 -3.22091 0.213758 0
M  V30 203 H 16.4202 -2.78265 2.5937 0
M  V30 204 H 17.7322 -3.79481 3.23721 0
M  V30 205 H 16.8862 -5.75274 1.92729 0
M  V30 206 H 15.6252 -4.73222 1.17949 0
M  V30 207 H 14.6302 -4.28796 3.44113 0
M  V30 208 H 15.8552 -5.34283 4.19188 0
M  V30 209 H 13.8012 -6.20759 2.12118 0
M  V30 210 H 13.7182 -6.52179 3.82358 0
M  V30 211 H 14.9862 -7.24394 2.87879 0
M  V30 212 N 19.2153 -1.21501 -1.00376 0
M  V30 213 C 20.6263 -1.03146 -1.55621 0
M  V30 214 C 20.9773 0.408375 -1.91903 0
M  V30 215 O 20.1023 1.29177 -1.73616 0
M  V30 216 C 20.6973 -1.86612 -2.82775 0
M  V30 217 C 19.2563 -1.72586 -3.34501 0
M  V30 218 C 18.4033 -1.83747 -2.07683 0
M  V30 219 H 21.3543 -1.35505 -0.826081 0
M  V30 220 H 21.3753 -1.3771 -3.54706 0
M  V30 221 H 20.8873 -2.91399 -2.56336 0
M  V30 222 H 18.9883 -0.704877 -3.65872 0
M  V30 223 H 19.1013 -2.54623 -4.05837 0
M  V30 224 H 17.4653 -1.27069 -2.20739 0
M  V30 225 H 18.2483 -2.90044 -1.83655 0
M  V30 226 N 20.6934 1.19889 -1.02296 0
M  V30 227 C 21.9424 1.88743 -0.711257 0
M  V30 228 C 22.2554 1.80112 0.762817 0
M  V30 229 O 23.4614 2.44161 1.18733 0
M  V30 230 C 21.9174 3.38525 -1.22185 0
M  V30 231 C 21.5254 3.55727 -2.72328 0
M  V30 232 C 23.2694 4.12893 -0.985864 0
M  V30 233 C 21.1764 4.99369 -3.16835 0
M  V30 234 H 20.1064 0.706885 -0.262353 0
M  V30 235 H 22.7574 1.35586 -1.23648 0
M  V30 236 H 21.1394 3.91044 -0.624571 0
M  V30 237 H 22.3134 3.13564 -3.3766 0
M  V30 238 H 20.6284 2.94739 -2.9414 0
M  V30 239 H 23.2254 5.18813 -1.29374 0
M  V30 240 H 23.5684 4.16228 0.0775055 0
M  V30 241 H 24.1014 3.66494 -1.54684 0
M  V30 242 H 20.8404 5.01193 -4.22476 0
M  V30 243 H 20.3604 5.42317 -2.56228 0
M  V30 244 H 22.0394 5.67988 -3.09837 0
M  V30 245 N 22.1715 0.800033 1.35784 0
M  V30 246 C 23.1185 0.203848 2.29898 0
M  V30 247 C 24.0885 -0.658375 1.52495 0
M  V30 248 O 25.2735 -0.604832 1.8096 0
M  V30 249 C 22.4135 -0.64688 3.38983 0
M  V30 250 C 21.5265 0.235054 4.3136 0
M  V30 251 C 20.6615 -0.623054 5.27533 0
M  V30 252 C 19.7005 0.259682 6.11549 0
M  V30 253 N 18.8375 -0.558019 6.99879 0
M  V30 254 H 23.6775 1.01186 2.80295 0
M  V30 255 H 21.2145 0.51053 1.37957 0
M  V30 256 H 23.1725 -1.15521 4.00887 0
M  V30 257 H 21.8025 -1.42021 2.89879 0
M  V30 258 H 20.8545 0.861438 3.70518 0
M  V30 259 H 22.1665 0.914768 4.9034 0
M  V30 260 H 21.3205 -1.19678 5.94779 0
M  V30 261 H 20.0595 -1.33636 4.69034 0
M  V30 262 H 19.0645 0.845726 5.43256 0
M  V30 263 H 20.2895 0.970748 6.72126 0
M  V30 264 H 18.2355 -1.25542 6.43875 0
M  V30 265 H 18.1525 0.0637872 7.55973 0
M  V30 266 H 19.4205 -1.11523 7.71481 0
M  V30 267 N 23.6496 -1.47581 0.552962 0
M  V30 268 C 24.5596 -2.33743 -0.200353 0
M  V30 269 C 25.5756 -1.47928 -0.916151 0
M  V30 270 O 26.7516 -1.80865 -0.885993 0
M  V30 271 C 23.8166 -3.24536 -1.21973 0
M  V30 272 C 22.8776 -4.26238 -0.511819 0
M  V30 273 C 22.1106 -5.12693 -1.48263 0
M  V30 274 O 22.3336 -5.01525 -2.71714 0
M  V30 275 O 21.2676 -5.93375 -1.00945 0
M  V30 276 H 25.0936 -2.9945 0.506304 0
M  V30 277 H 22.6786 -1.46071 0.313622 0
M  V30 278 H 24.5606 -3.80631 -1.80827 0
M  V30 279 H 23.2356 -2.61462 -1.90839 0
M  V30 280 H 22.1426 -3.73914 0.117799 0
M  V30 281 H 23.4756 -4.92014 0.135308 0
M  V30 282 N 25.1277 -0.289203 -1.54924 0
M  V30 283 C 26.0747 0.592115 -2.23075 0
M  V30 284 C 27.0447 1.13881 -1.20915 0
M  V30 285 O 28.2297 1.18551 -1.495 0
M  V30 286 C 25.3697 1.76376 -2.96623 0
M  V30 287 C 24.4827 1.24959 -4.13533 0
M  V30 288 C 23.6177 2.38416 -4.74691 0
M  V30 289 C 22.6567 1.84072 -5.83767 0
M  V30 290 N 21.7937 2.91057 -6.38929 0
M  V30 291 H 26.6337 0.00432038 -2.98 0
M  V30 292 H 24.1707 -0.00963529 -1.47097 0
M  V30 293 H 26.1287 2.45268 -3.3749 0
M  V30 294 H 24.7587 2.32337 -2.24097 0
M  V30 295 H 23.8107 0.453307 -3.77689 0
M  V30 296 H 25.1227 0.811662 -4.92152 0
M  V30 297 H 24.2767 3.15276 -5.18349 0
M  V30 298 H 23.0157 2.8553 -3.95378 0
M  V30 299 H 22.0207 1.05697 -5.39545 0
M  V30 300 H 23.2457 1.37877 -6.64956 0
M  V30 301 H 21.1917 3.37526 -5.62505 0
M  V30 302 H 21.1087 2.51724 -7.12861 0
M  V30 303 H 22.3767 3.6785 -6.87246 0
M  V30 304 N 26.6058 1.57591 -0.0167156 0
M  V30 305 C 27.8828 1.82547 0.702564 0
M  V30 306 C 28.2628 0.898018 1.91047 0
M  V30 307 O 27.6108 -0.0493456 2.28447 0
M  V30 308 C 27.8208 3.31459 1.09251 0
M  V30 309 C 29.1688 3.97622 1.48937 0
M  V30 310 O 30.1928 3.35881 1.18584 0
M  V30 311 O 29.0518 5.06415 2.05442 0
M  V30 312 H 26.1458 0.752268 0.343544 0
M  V30 313 H 28.6918 1.69644 -0.0434495 0
M  V30 314 H 27.4638 3.9061 0.23227 0
M  V30 315 H 27.0868 3.49422 1.89709 0
M  V30 316 N 28.0839 -0.256276 1.55502 0
M  V30 317 C 29.0309 -1.31714 1.89526 0
M  V30 318 C 30.0009 -1.4828 0.748479 0
M  V30 319 O 31.1859 -1.62416 1.00128 0
M  V30 320 C 28.3259 -2.66933 2.18725 0
M  V30 321 C 27.4389 -2.58452 3.4616 0
M  V30 322 C 26.5739 -3.85961 3.64976 0
M  V30 323 C 25.6129 -3.72059 4.86044 0
M  V30 324 N 24.7499 -4.9144 5.01429 0
M  V30 325 H 29.5899 -1.01998 2.80001 0
M  V30 326 H 27.1269 -0.492413 1.38613 0
M  V30 327 H 29.0849 -3.4563 2.33657 0
M  V30 328 H 27.7149 -2.94816 1.31466 0
M  V30 329 H 26.7669 -1.71374 3.3961 0
M  V30 330 H 28.0789 -2.44085 4.34999 0
M  V30 331 H 27.2329 -4.73101 3.79816 0
M  V30 332 H 25.9719 -4.03215 2.74353 0
M  V30 333 H 24.9769 -2.83302 4.7119 0
M  V30 334 H 26.2019 -3.56309 5.78118 0
M  V30 335 H 24.1479 -5.09072 4.13741 0
M  V30 336 H 24.0649 -4.79668 5.84341 0
M  V30 337 H 25.3329 -5.80104 5.20672 0
M  V30 338 N 29.562 -1.4872 -0.521534 0
M  V30 339 C 30.81 -1.56857 -1.27437 0
M  V30 340 C 31.131 -0.247982 -1.93417 0
M  V30 341 O 30.401 0.731151 -1.81744 0
M  V30 342 H 28.981 -0.577885 -0.473347 0
M  V30 343 H 31.643 -1.85233 -0.606205 0
M  V30 344 H 30.739 -2.35402 -2.0492 0
M  V30 345 N 31.0401 0.771051 -1.3745 0
M  V30 346 C 31.9721 1.89352 -1.29146 0
M  V30 347 C 32.9851 1.61477 -0.207124 0
M  V30 348 O 34.1741 1.72382 -0.463324 0
M  V30 349 C 31.2741 3.24596 -0.974195 0
M  V30 350 C 30.4471 3.80111 -2.16413 0
M  V30 351 C 29.5061 4.93832 -1.81703 0
M  V30 352 O 28.5321 5.09382 -2.54006 0
M  V30 353 N 29.7341 5.75483 -0.761573 0
M  V30 354 H 32.4991 1.96991 -2.25864 0
M  V30 355 H 30.0601 0.950191 -1.31084 0
M  V30 356 H 32.0521 3.98193 -0.722828 0
M  V30 357 H 30.6221 3.12454 -0.0955527 0
M  V30 358 H 29.8421 2.98284 -2.57721 0
M  V30 359 H 31.1301 4.13932 -2.95867 0
M  V30 360 H 30.5281 5.65469 -0.161609 0
M  V30 361 H 29.0851 6.49302 -0.570064 0
M  V30 362 N 32.5182 1.22032 0.997298 0
M  V30 363 C 33.7642 1.05382 1.73972 0
M  V30 364 C 34.1192 -0.407419 1.88037 0
M  V30 365 O 33.4122 -1.29811 1.40924 0
M  V30 366 C 33.6062 1.69345 3.14733 0
M  V30 367 C 33.4352 3.21537 3.14395 0
M  V30 368 C 32.2052 3.9062 3.20537 0
M  V30 369 C 34.4032 4.18527 2.98897 0
M  V30 370 N 32.3852 5.29935 3.09906 0
M  V30 371 C 33.7562 5.44645 2.96247 0
M  V30 372 C 35.8112 4.09476 2.83255 0
M  V30 373 C 34.5142 6.62752 2.79557 0
M  V30 374 C 36.5402 5.27228 2.67926 0
M  V30 375 C 35.9022 6.52262 2.65959 0
M  V30 376 H 32.0012 0.440018 0.646458 0
M  V30 377 H 34.5852 1.54505 1.18475 0
M  V30 378 H 32.7562 1.22778 3.68484 0
M  V30 379 H 34.4882 1.45828 3.77513 0
M  V30 380 H 31.2432 3.41592 3.28043 0
M  V30 381 H 31.6672 6.02926 3.07912 0
M  V30 382 H 36.3092 3.13598 2.83577 0
M  V30 383 H 34.0272 7.58783 2.77982 0
M  V30 384 H 37.6132 5.22053 2.56812 0
M  V30 385 H 36.4932 7.41844 2.54239 0
M  V30 386 N 33.9963 -1.19345 1.0293 0
M  V30 387 C 35.2213 -1.93538 0.745511 0
M  V30 388 C 35.6463 -1.75007 -0.689511 0
M  V30 389 O 35.0043 -1.05265 -1.47611 0
M  V30 390 C 35.0523 -3.43336 1.10239 0
M  V30 391 O 34.1563 -4.11806 0.221289 0
M  V30 392 H 33.4973 -0.604193 0.275404 0
M  V30 393 H 36.0273 -1.5141 1.37609 0
M  V30 394 H 36.0373 -3.94004 1.05947 0
M  V30 395 H 34.7123 -3.56146 2.14786 0
M  V30 396 H 33.2893 -3.715 0.322842 0
M  V30 397 N 35.4744 -0.807222 -1.35358 0
M  V30 398 C 36.8854 -0.44876 -1.81226 0
M  V30 399 C 37.2364 1.02929 -1.67033 0
M  V30 400 O 36.3614 1.79991 -1.20133 0
M  V30 401 C 36.9564 -0.807774 -3.2903 0
M  V30 402 C 35.5154 -0.501901 -3.73039 0
M  V30 403 C 34.6624 -1.03304 -2.57339 0
M  V30 404 H 37.6134 -0.998808 -1.23327 0
M  V30 405 H 37.6344 -0.10554 -3.80354 0
M  V30 406 H 37.1464 -1.88357 -3.39328 0
M  V30 407 H 35.2474 0.565128 -3.68289 0
M  V30 408 H 35.3604 -1.03497 -4.67787 0
M  V30 409 H 33.7244 -0.455339 -2.50597 0
M  V30 410 H 34.5074 -2.11496 -2.70415 0
M  V30 411 N 36.9525 1.47285 -0.560781 0
M  V30 412 C 37.8825 2.32857 0.173105 0
M  V30 413 C 38.8635 1.44009 0.905281 0
M  V30 414 O 40.0485 1.7286 0.885046 0
M  V30 415 C 37.1785 3.25861 1.20133 0
M  V30 416 C 36.1325 4.23978 0.585388 0
M  V30 417 C 35.4585 5.06332 1.7185 0
M  V30 418 C 36.7585 5.20242 -0.463178 0
M  V30 419 H 38.4525 2.94466 -0.541307 0
M  V30 420 H 35.9985 1.41601 -0.261764 0
M  V30 421 H 37.9515 3.84569 1.72293 0
M  V30 422 H 36.6755 2.62315 1.94573 0
M  V30 423 H 35.3345 3.66501 0.085054 0
M  V30 424 H 34.9825 4.39186 2.45203 0
M  V30 425 H 34.6825 5.72762 1.31213 0
M  V30 426 H 36.2065 5.67899 2.24329 0
M  V30 427 H 37.6205 5.73293 -0.027502 0
M  V30 428 H 36.0175 5.94896 -0.788627 0
M  V30 429 H 37.0875 4.65504 -1.35773 0
M  V30 430 N 38.4306 0.297415 1.54768 0
M  V30 431 C 39.3776 -0.580276 2.23386 0
M  V30 432 C 40.3476 -1.13238 1.21517 0
M  V30 433 O 41.5326 -1.17757 1.50126 0
M  V30 434 C 38.6726 -1.74801 2.97555 0
M  V30 435 C 37.7856 -1.22764 4.1419 0
M  V30 436 C 36.9206 -2.35895 4.75949 0
M  V30 437 C 35.9596 -1.80974 5.84735 0
M  V30 438 N 35.0966 -2.87664 6.40464 0
M  V30 439 H 39.9366 0.0114833 2.97998 0
M  V30 440 H 37.4736 0.0174361 1.4709 0
M  V30 441 H 39.4316 -2.43475 3.38786 0
M  V30 442 H 38.0616 -2.31145 2.25326 0
M  V30 443 H 37.1136 -0.433271 3.77924 0
M  V30 444 H 38.4256 -0.785551 4.92575 0
M  V30 445 H 37.5796 -3.12523 5.20014 0
M  V30 446 H 36.3186 -2.83429 3.96887 0
M  V30 447 H 35.3236 -1.02834 5.40097 0
M  V30 448 H 36.5486 -1.34348 6.65678 0
M  V30 449 H 34.4946 -3.34538 5.64287 0
M  V30 450 H 34.4116 -2.4794 7.14186 0
M  V30 451 H 35.6796 -3.642 6.89187 0
M  V30 452 N 39.9087 -1.5758 0.0250728 0
M  V30 453 C 41.1547 -1.91917 -0.655413 0
M  V30 454 C 41.4877 -0.901433 -1.72011 0
M  V30 455 O 40.7627 0.0764069 -1.9435 0
M  V30 456 C 41.0457 -3.36751 -1.27558 0
M  V30 457 C 40.8987 -4.49258 -0.220719 0
M  V30 458 C 42.2177 -3.81469 -2.19475 0
M  V30 459 H 39.3367 -0.697925 -0.23679 0
M  V30 460 H 41.9787 -1.89825 0.0815036 0
M  V30 461 H 40.1287 -3.38664 -1.90365 0
M  V30 462 H 41.8007 -4.59478 0.409601 0
M  V30 463 H 40.0437 -4.31415 0.454264 0
M  V30 464 H 40.7147 -5.47618 -0.694175 0
M  V30 465 H 43.1907 -3.81266 -1.66659 0
M  V30 466 H 42.0667 -4.83512 -2.59822 0
M  V30 467 H 42.3277 -3.16744 -3.08424 0
M  V30 468 N 41.3868 0.248026 -1.55636 0
M  V30 469 C 42.6118 0.998028 -1.81808 0
M  V30 470 C 43.0368 1.78207 -0.601979 0
M  V30 471 O 42.3948 1.75653 0.448961 0
M  V30 472 C 42.4428 1.9125 -3.05705 0
M  V30 473 O 41.5468 3.00406 -2.82542 0
M  V30 474 H 40.8878 0.284045 -0.600179 0
M  V30 475 H 43.4178 0.269357 -2.02819 0
M  V30 476 H 43.4278 2.32737 -3.35108 0
M  V30 477 H 42.1028 1.33602 -3.93857 0
M  V30 478 H 40.6798 2.63056 -2.64303 0
M  V30 479 N 42.8649 1.48995 0.513639 0
M  V30 480 C 43.8279 1.64229 1.59879 0
M  V30 481 C 44.8279 0.514696 1.5234 0
M  V30 482 O 46.0179 0.78087 1.55718 0
M  V30 483 C 43.1499 1.62783 2.99524 0
M  V30 484 H 44.3429 2.61004 1.47705 0
M  V30 485 H 41.8959 1.37837 0.736936 0
M  V30 486 H 42.6309 0.675461 3.17188 0
M  V30 487 H 42.4159 2.4466 3.06404 0
M  V30 488 H 43.9059 1.76669 3.78388 0
M  V30 489 N 44.343 -0.763751 1.37857 0
M  V30 490 C 45.275 -1.88664 1.30148 0
M  V30 491 C 46.288 -1.61365 0.215685 0
M  V30 492 O 47.477 -1.72134 0.472459 0
M  V30 493 C 44.577 -3.24075 0.991396 0
M  V30 494 C 43.75 -3.78958 2.18426 0
M  V30 495 C 42.809 -4.92862 1.8432 0
M  V30 496 O 41.835 -5.08027 2.56704 0
M  V30 497 N 43.037 -5.75071 0.792081 0
M  V30 498 H 45.802 -1.95791 2.26905 0
M  V30 499 H 43.363 -0.943226 1.31586 0
M  V30 500 H 45.355 -3.97804 0.743935 0
M  V30 501 H 43.925 -3.12399 0.112122 0
M  V30 502 H 43.145 -2.96913 2.59299 0
M  V30 503 H 44.433 -4.12357 2.98058 0
M  V30 504 H 43.831 -5.65375 0.191595 0
M  V30 505 H 42.388 -6.48991 0.60449 0
M  V30 506 N 45.8211 -1.22559 -0.990812 0
M  V30 507 C 47.0981 -0.959875 -1.70428 0
M  V30 508 C 47.4781 0.524455 -2.04481 0
M  V30 509 O 46.8261 1.49302 -1.72977 0
M  V30 510 C 47.0361 -1.85955 -2.95333 0
M  V30 511 C 48.3841 -2.11687 -3.68068 0
M  V30 512 O 49.4081 -1.8342 -3.05345 0
M  V30 513 O 48.2671 -2.59572 -4.80921 0
M  V30 514 H 45.3611 -0.361154 -0.743974 0
M  V30 515 H 47.9071 -1.33554 -1.04697 0
M  V30 516 H 46.6791 -2.86346 -2.66687 0
M  V30 517 H 46.3021 -1.4856 -3.68803 0
M  V30 518 N 47.2992 1.18797 -1.03562 0
M  V30 519 C 48.2462 2.22253 -0.622259 0
M  V30 520 C 49.2162 1.61987 0.36736 0
M  V30 521 O 50.4012 1.88986 0.262492 0
M  V30 522 C 47.5412 3.45097 0.0138462 0
M  V30 523 C 46.6542 4.19722 -1.02263 0
M  V30 524 C 45.7892 5.30009 -0.355573 0
M  V30 525 C 44.8282 5.96399 -1.37749 0
M  V30 526 N 43.9652 6.98234 -0.735766 0
M  V30 527 H 48.8052 2.56968 -1.50903 0
M  V30 528 H 46.3422 1.26245 -0.755017 0
M  V30 529 H 48.3002 4.15279 0.399948 0
M  V30 530 H 46.9302 3.11018 0.864158 0
M  V30 531 H 45.9822 3.48418 -1.52673 0
M  V30 532 H 47.2942 4.65227 -1.79903 0
M  V30 533 H 46.4482 6.0664 0.0850095 0
M  V30 534 H 45.1872 4.85592 0.452967 0
M  V30 535 H 44.1922 5.18512 -1.82826 0
M  V30 536 H 45.4172 6.42899 -2.18764 0
M  V30 537 H 43.3632 6.55979 0.0525597 0
M  V30 538 H 43.2802 7.41965 -1.44995 0
M  V30 539 H 44.5482 7.78845 -0.31941 0
M  V30 540 N 48.7773 0.814389 1.34928 0
M  V30 541 C 50.0543 0.321363 1.92942 0
M  V30 542 C 50.4343 -1.19014 1.74353 0
M  V30 543 O 49.7823 -1.99328 1.11716 0
M  V30 544 C 49.9923 0.741323 3.41036 0
M  V30 545 C 51.3403 0.735266 4.18185 0
M  V30 546 O 52.3643 0.68336 3.49584 0
M  V30 547 O 51.2233 0.800703 5.40602 0
M  V30 548 H 48.3173 0.0858893 0.822528 0
M  V30 549 H 50.8633 0.898609 1.43955 0
M  V30 550 H 49.6353 1.78276 3.4833 0
M  V30 551 H 49.2583 0.139307 3.97356 0
M  V30 552 N 50.2554 -1.46986 0.568584 0
M  V30 553 C 51.2184 -2.28624 -0.162366 0
M  V30 554 C 52.2184 -1.37596 -0.832103 0
M  V30 555 O 53.4084 -1.60115 -0.68622 0
M  V30 556 C 50.5404 -3.17596 -1.23878 0
M  V30 557 H 51.7334 -2.94722 0.554899 0
M  V30 558 H 49.2864 -1.52863 0.325976 0
M  V30 559 H 50.0214 -2.56214 -1.98808 0
M  V30 560 H 49.8064 -3.846 -0.763219 0
M  V30 561 H 51.2964 -3.79078 -1.75185 0
M  V30 562 N 51.7335 -0.305618 -1.54608 0
M  V30 563 C 53.1445 0.186098 -1.8577 0
M  V30 564 C 53.4955 1.53058 -1.22751 0
M  V30 565 O 52.6205 2.09888 -0.526893 0
M  V30 566 C 53.2155 0.344449 -3.37044 0
M  V30 567 C 51.7745 0.780384 -3.68221 0
M  V30 568 C 50.9215 -0.108554 -2.77087 0
M  V30 569 H 53.8725 -0.526485 -1.49712 0
M  V30 570 H 53.8935 1.17828 -3.61796 0
M  V30 571 H 53.4055 -0.634235 -3.82883 0
M  V30 572 H 51.5065 1.76945 -3.27904 0
M  V30 573 H 51.6195 0.596572 -4.75371 0
M  V30 574 H 49.9835 0.412931 -2.5133 0
M  V30 575 H 50.7665 -1.08368 -3.25747 0
M  V30 576 N 53.2116 1.57565 -0.0334293 0
M  V30 577 C 54.6226 1.79746 0.504798 0
M  V30 578 C 54.9736 0.944091 1.71992 0
M  V30 579 O 54.0986 0.155694 2.15839 0
M  V30 580 C 54.6936 3.25997 0.922567 0
M  V30 581 C 53.2526 3.49159 1.40588 0
M  V30 582 C 52.3996 2.74785 0.372633 0
M  V30 583 H 55.3506 1.56565 -0.259436 0
M  V30 584 H 55.3716 3.35945 1.78666 0
M  V30 585 H 54.8836 3.88081 0.0379825 0
M  V30 586 H 52.9846 2.92332 2.31025 0
M  V30 587 H 53.0976 4.57873 1.41028 0
M  V30 588 H 51.4616 2.40391 0.841672 0
M  V30 589 H 52.2446 3.39587 -0.503559 0
M  V30 590 N 54.6897 -0.239769 1.55765 0
M  V30 591 C 55.6197 -1.30052 1.9393 0
M  V30 592 C 56.6007 -1.49839 0.805132 0
M  V30 593 O 57.7857 -1.62328 1.06599 0
M  V30 594 C 54.9157 -2.65391 2.2402 0
M  V30 595 C 53.8697 -2.60289 3.39755 0
M  V30 596 C 53.1957 -3.99489 3.55405 0
M  V30 597 C 54.4957 -2.16654 4.75246 0
M  V30 598 H 56.1897 -0.983573 2.82783 0
M  V30 599 H 53.7357 -0.471701 1.36055 0
M  V30 600 H 55.6887 -3.3974 2.49308 0
M  V30 601 H 54.4127 -2.98736 1.32 0
M  V30 602 H 53.0717 -1.88398 3.14487 0
M  V30 603 H 52.7197 -4.30112 2.60793 0
M  V30 604 H 52.4197 -3.96962 4.33238 0
M  V30 605 H 53.9437 -4.75528 3.83022 0
M  V30 606 H 55.3577 -2.80737 4.99859 0
M  V30 607 H 53.7547 -2.25223 5.56232 0
M  V30 608 H 54.8247 -1.11835 4.71827 0
M  V30 609 N 56.1678 -1.49265 -0.50573 0
M  V30 610 C 57.5788 -1.51769 -1.08734 0
M  V30 611 C 57.9298 -0.301192 -1.93874 0
M  V30 612 O 57.0548 0.589456 -2.08217 0
M  V30 613 C 57.6498 -2.75017 -1.97867 0
M  V30 614 C 56.2088 -2.80314 -2.51199 0
M  V30 615 C 55.3558 -2.4562 -1.28709 0
M  V30 616 H 58.3068 -1.56031 -0.289855 0
M  V30 617 H 58.3278 -2.5491 -2.82491 0
M  V30 618 H 57.8398 -3.63539 -1.35873 0
M  V30 619 H 55.9408 -1.96061 -3.16845 0
M  V30 620 H 56.0538 -3.82366 -2.88675 0
M  V30 621 H 54.4178 -1.97297 -1.61078 0
M  V30 622 H 55.2008 -3.36411 -0.6843 0
M  V30 623 N 57.6459 0.756429 -1.3826 0
M  V30 624 C 59.0569 1.33359 -1.30661 0
M  V30 625 C 59.4079 1.96161 0.0388875 0
M  V30 626 O 58.5329 1.94874 0.940918 0
M  V30 627 C 59.1279 2.42477 -2.36622 0
M  V30 628 C 57.6869 2.95922 -2.3261 0
M  V30 629 C 56.8339 1.69275 -2.19639 0
M  V30 630 H 59.7849 0.55552 -1.4866 0
M  V30 631 H 59.8059 3.22345 -2.02174 0
M  V30 632 H 59.3179 1.96739 -3.34538 0
M  V30 633 H 57.4189 3.45996 -1.38267 0
M  V30 634 H 57.5319 3.50494 -3.26636 0
M  V30 635 H 55.8959 1.92793 -1.66442 0
M  V30 636 H 56.6789 1.25619 -3.19491 0
M  V30 637 N 59.124 1.23083 0.984299 0
M  V30 638 C 60.054 1.03292 2.09411 0
M  V30 639 C 61.035 -0.048923 1.7003 0
M  V30 640 O 62.22 0.114967 1.93859 0
M  V30 641 C 59.35 0.619155 3.41736 0
M  V30 642 C 58.304 1.64791 3.95004 0
M  V30 643 C 57.63 1.0897 5.23478 0
M  V30 644 C 58.93 3.03999 4.24714 0
M  V30 645 H 60.624 1.96119 2.26225 0
M  V30 646 H 58.17 0.944344 1.08711 0
M  V30 647 H 60.123 0.467777 4.18796 0
M  V30 648 H 58.847 -0.344786 3.24775 0
M  V30 649 H 57.506 1.78721 3.20085 0
M  V30 650 H 57.154 0.11686 5.02864 0
M  V30 651 H 56.854 1.77704 5.60085 0
M  V30 652 H 58.378 0.950093 6.03163 0
M  V30 653 H 59.792 2.93393 4.92538 0
M  V30 654 H 58.189 3.69936 4.72512 0
M  V30 655 H 59.259 3.53285 3.32142 0
M  V30 656 N 60.6021 -1.18246 1.0419 0
M  V30 657 C 61.8481 -1.88536 0.747122 0
M  V30 658 C 62.1811 -1.80223 -0.723409 0
M  V30 659 O 61.4561 -1.20337 -1.52804 0
M  V30 660 C 61.7391 -3.38968 1.21544 0
M  V30 661 C 61.5921 -3.56084 2.74816 0
M  V30 662 C 62.9111 -4.32648 0.806482 0
M  V30 663 H 60.0301 -0.684619 0.272883 0
M  V30 664 H 62.6721 -1.39113 1.29413 0
M  V30 665 H 60.8221 -3.8119 0.750081 0
M  V30 666 H 62.4941 -3.22946 3.29399 0
M  V30 667 H 60.7371 -2.98699 3.14582 0
M  V30 668 H 61.4081 -4.61639 3.02644 0
M  V30 669 H 63.8841 -3.98211 1.20695 0
M  V30 670 H 62.7601 -5.36462 1.1619 0
M  V30 671 H 63.0211 -4.41146 -0.29029 0
M  V30 672 N 62.0802 -0.821533 -1.34494 0
M  V30 673 C 63.3262 -0.409552 -1.98622 0
M  V30 674 C 63.6592 1.0244 -1.64984 0
M  V30 675 O 62.9342 1.71325 -0.920758 0
M  V30 676 C 63.2172 -0.610458 -3.54888 0
M  V30 677 C 63.0702 -2.09043 -3.98273 0
M  V30 678 C 64.3892 -0.0455379 -4.40076 0
M  V30 679 H 61.5082 -0.15028 -0.721516 0
M  V30 680 H 64.1502 -1.03384 -1.59411 0
M  V30 681 H 62.3002 -0.079044 -3.8842 0
M  V30 682 H 63.9722 -2.68537 -3.75081 0
M  V30 683 H 62.2152 -2.58139 -3.48635 0
M  V30 684 H 62.8862 -2.18182 -5.07051 0
M  V30 685 H 65.3622 -0.499557 -4.1309 0
M  V30 686 H 64.2382 -0.215922 -5.48475 0
M  V30 687 H 64.4992 1.04939 -4.29465 0
M  V30 688 N 63.5583 1.46682 -0.576371 0
M  V30 689 C 64.8053 2.02412 -0.0595339 0
M  V30 690 C 65.1333 1.44859 1.29793 0
M  V30 691 O 64.3883 0.601099 1.8624 0
M  V30 692 C 64.6873 3.57345 0.062886 0
M  V30 693 C 64.3533 4.33908 -1.22616 0
M  V30 694 C 63.0153 4.54544 -1.57933 0
M  V30 695 C 65.3673 4.77919 -2.07948 0
M  V30 696 C 62.6953 5.16444 -2.78393 0
M  V30 697 C 65.0473 5.41149 -3.27629 0
M  V30 698 C 63.7113 5.60014 -3.63236 0
M  V30 699 H 62.9813 0.74068 -0.021785 0
M  V30 700 H 65.6283 1.76128 -0.751735 0
M  V30 701 H 63.9333 3.82729 0.838178 0
M  V30 702 H 65.6303 3.98136 0.478439 0
M  V30 703 H 62.2203 4.18138 -0.941202 0
M  V30 704 H 66.4043 4.61738 -1.81967 0
M  V30 705 H 61.6603 5.29242 -3.06126 0
M  V30 706 H 65.8343 5.74211 -3.94023 0
M  V30 707 H 63.4613 6.07748 -4.56669 0
M  V30 708 N 65.0364 0.313813 1.54444 0
M  V30 709 C 65.9844 -0.572171 2.25453 0
M  V30 710 C 66.9784 -1.12657 1.2651 0
M  V30 711 O 68.1844 -1.07573 1.44319 0
M  V30 712 H 64.5594 -0.203146 0.724041 0
M  V30 713 H 66.5304 0.0491145 2.9836 0
M  V30 714 C 65.2794 -1.72626 3.0182 0
M  V30 715 H 64.6024 -1.30891 3.77767 0
M  V30 716 H 66.0424 -2.32199 3.54767 0
M  V30 717 C 64.5014 -2.63806 2.09542 0
M  V30 718 O 65.0314 -3.65256 1.67185 0
M  V30 719 N 63.2374 -2.31824 1.75232 0
M  V30 720 H 62.7844 -1.49368 2.09873 0
M  V30 721 H 62.7424 -2.93095 1.13767 0
M  V30 722 N 66.5145 -1.57545 0.0417849 0
M  V30 723 C 67.4645 -2.07483 -0.945247 0
M  V30 724 C 68.4485 -0.977983 -1.27767 0
M  V30 725 O 69.6405 -1.24142 -1.26166 0
M  V30 726 C 66.7695 -2.61576 -2.22335 0
M  V30 727 C 65.8555 -3.78213 -1.91874 0
M  V30 728 N 66.2465 -4.88344 -1.31733 0
M  V30 729 C 64.5445 -3.8694 -2.21796 0
M  V30 730 C 65.2455 -5.69462 -1.1869 0
M  V30 731 N 64.2215 -5.16771 -1.68666 0
M  V30 732 H 68.0235 -2.90029 -0.475441 0
M  V30 733 H 65.5375 -1.61581 -0.162911 0
M  V30 734 H 67.5345 -2.95651 -2.93932 0
M  V30 735 H 66.1945 -1.80465 -2.69931 0
M  V30 736 H 67.2055 -5.08335 -0.990729 0
M  V30 737 H 63.8825 -3.16757 -2.71977 0
M  V30 738 H 65.2725 -6.68023 -0.720793 0
M  V30 739 N 67.9926 0.231505 -1.5589 0
M  V30 740 C 68.9226 1.29022 -1.94617 0
M  V30 741 C 69.9036 1.4941 -0.813067 0
M  V30 742 O 71.0886 1.6176 -1.07459 0
M  V30 743 C 68.2186 2.64199 -2.25424 0
M  V30 744 C 67.1726 2.58484 -3.41131 0
M  V30 745 C 66.4986 3.97599 -3.57518 0
M  V30 746 C 67.7986 2.1413 -4.76388 0
M  V30 747 H 69.4926 0.968563 -2.83301 0
M  V30 748 H 67.0386 0.464479 -1.36303 0
M  V30 749 H 68.9916 3.38413 -2.51107 0
M  V30 750 H 67.7156 2.98032 -1.33583 0
M  V30 751 H 66.3746 1.86727 -3.15481 0
M  V30 752 H 66.0226 4.28723 -2.6307 0
M  V30 753 H 65.7226 3.94659 -4.35337 0
M  V30 754 H 67.2466 4.7349 -3.85538 0
M  V30 755 H 68.6606 2.78083 -5.01341 0
M  V30 756 H 67.0576 2.2227 -5.57419 0
M  V30 757 H 68.1276 1.09331 -4.72414 0
M  V30 758 N 69.4707 1.49531 0.497807 0
M  V30 759 C 70.6987 1.62893 1.27567 0
M  V30 760 C 71.1137 0.301585 1.86376 0
M  V30 761 O 70.4707 -0.713335 1.67982 0
M  V30 762 C 70.5217 2.70013 2.40364 0
M  V30 763 O 70.2427 3.976 1.83972 0
M  V30 764 C 71.7437 2.94109 3.31685 0
M  V30 765 H 68.9637 0.548298 0.386794 0
M  V30 766 H 71.5077 1.95584 0.597245 0
M  V30 767 H 69.6627 2.40092 3.04031 0
M  V30 768 H 70.0767 4.56631 2.58047 0
M  V30 769 H 71.5507 3.72788 4.07104 0
M  V30 770 H 72.0277 2.04147 3.88871 0
M  V30 771 H 72.6337 3.2546 2.73781 0
M  V30 772 N 70.9488 -0.749086 1.3866 0
M  V30 773 C 72.3598 -1.32664 1.31366 0
M  V30 774 C 72.7108 -1.96179 -0.028484 0
M  V30 775 O 71.8358 -1.9537 -0.93057 0
M  V30 776 C 72.4308 -2.41219 2.37905 0
M  V30 777 C 70.9898 -2.94684 2.34176 0
M  V30 778 C 70.1368 -1.68108 2.20533 0
M  V30 779 H 73.0878 -0.547628 1.48952 0
M  V30 780 H 73.1088 -3.21268 2.0388 0
M  V30 781 H 72.6208 -1.94962 3.35576 0
M  V30 782 H 70.7218 -3.45258 1.401 0
M  V30 783 H 70.8348 -3.48757 3.2849 0
M  V30 784 H 69.1988 -1.91907 1.67463 0
M  V30 785 H 69.9818 -1.23923 3.20153 0
M  V30 786 N 72.4269 -1.23603 -0.977757 0
M  V30 787 C 73.8379 -1.06424 -1.53398 0
M  V30 788 C 74.1889 0.367578 -1.92726 0
M  V30 789 O 73.3139 1.25465 -1.76316 0
M  V30 790 C 73.9089 -1.92568 -2.78753 0
M  V30 791 C 72.4679 -1.79642 -3.30765 0
M  V30 792 C 71.6149 -1.88111 -2.03739 0
M  V30 793 H 74.5659 -1.37227 -0.797152 0
M  V30 794 H 74.5869 -1.45203 -3.51705 0
M  V30 795 H 74.0989 -2.96771 -2.50098 0
M  V30 796 H 72.1999 -0.782325 -3.64294 0
M  V30 797 H 72.3129 -2.63174 -4.00345 0
M  V30 798 H 70.6769 -1.31723 -2.17994 0
M  V30 799 H 71.4599 -2.93875 -1.77461 0
M  V30 800 N 73.905 1.17692 -1.04816 0
M  V30 801 C 75.316 1.69501 -0.782698 0
M  V30 802 C 75.667 1.83456 0.695577 0
M  V30 803 O 74.792 1.51942 1.54086 0
M  V30 804 C 75.387 3.07874 -1.41419 0
M  V30 805 C 73.946 3.56864 -1.19686 0
M  V30 806 C 73.093 2.3322 -1.50012 0
M  V30 807 H 76.044 1.02262 -1.2136 0
M  V30 808 H 76.065 3.71528 -0.821428 0
M  V30 809 H 75.577 2.97685 -2.49009 0
M  V30 810 H 73.678 3.72337 -0.140043 0
M  V30 811 H 73.791 4.39851 -1.89916 0
M  V30 812 H 72.155 2.37501 -0.920071 0
M  V30 813 H 72.938 2.25644 -2.58727 0
M  V30 814 N 75.3831 0.828654 1.34056 0
M  V30 815 C 76.7941 0.477534 1.8049 0
M  V30 816 C 77.1451 -1.00258 1.6865 0
M  V30 817 O 76.2701 -1.78057 1.22982 0
M  V30 818 C 76.8651 0.860018 3.27703 0
M  V30 819 C 75.4241 0.561185 3.72193 0
M  V30 820 C 74.5711 1.07385 2.55663 0
M  V30 821 H 77.5221 1.0183 1.21722 0
M  V30 822 H 77.5431 0.166038 3.80138 0
M  V30 823 H 77.0551 1.93731 3.36288 0
M  V30 824 H 75.1561 -0.506465 3.69142 0
M  V30 825 H 75.2691 1.10926 4.66082 0
M  V30 826 H 73.6331 0.495149 2.49841 0
M  V30 827 H 74.4161 2.15771 2.67016 0
M  V30 828 N 76.8612 -1.46375 0.584142 0
M  V30 829 C 78.1382 -1.956 0.0033388 0
M  V30 830 C 78.5182 -1.52679 -1.45782 0
M  V30 831 O 77.8662 -0.77816 -2.14842 0
M  V30 832 C 78.0762 -3.48551 0.176891 0
M  V30 833 C 79.4242 -4.24576 0.0454609 0
M  V30 834 O 80.4482 -3.56043 0.105801 0
M  V30 835 O 79.3072 -5.46427 -0.0890376 0
M  V30 836 H 76.4012 -0.825547 -0.0490066 0
M  V30 837 H 78.9472 -1.56652 0.65256 0
M  V30 838 H 77.7192 -3.72683 1.1926 0
M  V30 839 H 77.3422 -3.94332 -0.508695 0
M  V30 840 N 78.3393 -0.321999 -1.54275 0
M  V30 841 C 79.2493 0.553631 -2.27974 0
M  V30 842 C 80.2653 1.13054 -1.32268 0
M  V30 843 O 81.4413 1.15084 -1.6528 0
M  V30 844 C 78.5063 1.69927 -3.02201 0
M  V30 845 C 77.5673 1.15433 -4.1349 0
M  V30 846 C 76.8003 2.24537 -4.84168 0
M  V30 847 O 77.0233 3.44852 -4.5435 0
M  V30 848 O 75.9573 1.90044 -5.7111 0
M  V30 849 H 79.7833 -0.0448345 -3.03667 0
M  V30 850 H 77.3683 -0.0877418 -1.49142 0
M  V30 851 H 79.2503 2.3663 -3.48689 0
M  V30 852 H 77.9253 2.28395 -2.29385 0
M  V30 853 H 76.8323 0.452436 -3.71354 0
M  V30 854 H 78.1653 0.614805 -4.88345 0
M  V30 855 N 79.8174 1.5752 -0.0501392 0
M  V30 856 C 80.7674 2.07981 0.934231 0
M  V30 857 C 81.7514 0.984745 1.27246 0
M  V30 858 O 82.9434 1.24809 1.25506 0
M  V30 859 C 80.0724 2.62751 2.20945 0
M  V30 860 C 79.1584 3.79225 1.89865 0
M  V30 861 N 79.5494 4.89036 1.29142 0
M  V30 862 C 77.8474 3.88111 2.19741 0
M  V30 863 C 78.5484 5.70084 1.15669 0
M  V30 864 N 77.5244 5.17659 1.65923 0
M  V30 865 H 81.3264 2.90277 0.460053 0
M  V30 866 H 78.8404 1.61665 0.15434 0
M  V30 867 H 80.8374 2.97205 2.9236 0
M  V30 868 H 79.4974 1.81894 2.6897 0
M  V30 869 H 80.5084 5.08854 0.963756 0
M  V30 870 H 77.1854 3.18194 2.70293 0
M  V30 871 H 78.5754 6.68395 0.685356 0
M  V30 872 N 81.2955 -0.223234 1.56011 0
M  V30 873 C 82.2255 -1.27988 1.95298 0
M  V30 874 C 83.2065 -1.48976 0.820979 0
M  V30 875 O 84.3915 -1.61188 1.08315 0
M  V30 876 C 81.5215 -2.63 2.26822 0
M  V30 877 C 80.4755 -2.56671 3.42497 0
M  V30 878 C 79.8015 -3.95697 3.59622 0
M  V30 879 C 81.1015 -2.11601 4.77517 0
M  V30 880 H 82.7955 -0.953525 2.8381 0
M  V30 881 H 80.3415 -0.457244 1.36548 0
M  V30 882 H 82.2945 -3.37077 2.52898 0
M  V30 883 H 81.0185 -2.9732 1.35161 0
M  V30 884 H 79.6775 -1.85051 3.16467 0
M  V30 885 H 79.3255 -4.27322 2.6534 0
M  V30 886 H 79.0255 -3.92345 4.37424 0
M  V30 887 H 80.5495 -4.71438 3.88044 0
M  V30 888 H 81.9635 -2.7542 5.02809 0
M  V30 889 H 80.3605 -2.19311 5.5859 0
M  V30 890 H 81.4305 -1.06824 4.72987 0
M  V30 891 N 82.7736 -1.49793 -0.48987 0
M  V30 892 C 84.0506 -1.50348 -1.25119 0
M  V30 893 C 84.4306 -0.237466 -2.0976 0
M  V30 894 O 83.7786 0.77981 -2.14782 0
M  V30 895 C 83.9886 -2.78872 -2.09837 0
M  V30 896 C 85.3366 -3.288 -2.68655 0
M  V30 897 O 86.3606 -2.80065 -2.20096 0
M  V30 898 O 85.2196 -4.13707 -3.57083 0
M  V30 899 H 82.3136 -0.602242 -0.566775 0
M  V30 900 H 84.8596 -1.62067 -0.503229 0
M  V30 901 H 83.6316 -3.62499 -1.47343 0
M  V30 902 H 83.2546 -2.70066 -2.91805 0
M  V30 903 N 84.2517 0.741722 -1.39055 0
M  V30 904 C 85.1617 1.88621 -1.39496 0
M  V30 905 C 86.1777 1.71557 -0.290578 0
M  V30 906 O 87.3537 1.94275 -0.530954 0
M  V30 907 C 84.4187 3.24134 -1.23037 0
M  V30 908 C 83.4797 3.5364 -2.43387 0
M  V30 909 C 82.7127 4.82687 -2.27703 0
M  V30 910 O 82.9357 5.55922 -1.27696 0
M  V30 911 O 81.8697 5.1194 -3.16545 0
M  V30 912 H 85.6957 1.91203 -2.35956 0
M  V30 913 H 83.2807 0.888625 -1.20099 0
M  V30 914 H 85.1627 4.0513 -1.15964 0
M  V30 915 H 83.8377 3.22337 -0.296691 0
M  V30 916 H 82.7447 2.72758 -2.56035 0
M  V30 917 H 84.0777 3.60209 -3.35425 0
M  V30 918 N 85.7298 1.2412 0.971189 0
M  V30 919 C 87.0068 0.986867 1.6888 0
M  V30 920 C 87.3868 -0.491857 2.0529 0
M  V30 921 O 86.7348 -1.46531 1.75331 0
M  V30 922 C 86.9448 1.9063 2.92338 0
M  V30 923 C 88.2928 2.17515 3.64654 0
M  V30 924 O 89.3168 1.88254 3.02388 0
M  V30 925 O 88.1758 2.6719 4.7673 0
M  V30 926 H 85.2698 0.372944 0.738134 0
M  V30 927 H 87.8158 1.35203 1.02559 0
M  V30 928 H 86.5878 2.90552 2.62097 0
M  V30 929 H 86.2108 1.54408 3.66393 0
M  V30 930 N 87.2079 -1.17134 1.05439 0
M  V30 931 C 88.1549 -2.21235 0.657539 0
M  V30 932 C 89.1249 -1.62551 -0.341543 0
M  V30 933 O 90.3099 -1.89379 -0.232393 0
M  V30 934 C 87.4499 -3.45076 0.0410575 0
M  V30 935 C 86.5629 -4.18042 1.08927 0
M  V30 936 C 85.6979 -5.29376 0.439848 0
M  V30 937 C 84.7369 -5.94132 1.4722 0
M  V30 938 N 83.8739 -6.96975 0.846756 0
M  V30 939 H 88.7139 -2.54534 1.54972 0
M  V30 940 H 86.2509 -1.25028 0.775006 0
M  V30 941 H 88.2089 -4.15862 -0.33383 0
M  V30 942 H 86.8389 -3.12353 -0.814568 0
M  V30 943 H 85.8909 -3.45945 1.58196 0
M  V30 944 H 87.2029 -4.62306 1.87282 0
M  V30 945 H 86.3569 -6.06699 0.0115125 0
M  V30 946 H 85.0959 -4.86251 -0.375656 0
M  V30 947 H 84.1009 -5.15538 1.91052 0
M  V30 948 H 85.3259 -6.39337 2.28965 0
M  V30 949 H 83.2719 -6.5598 0.0518075 0
M  V30 950 H 83.1889 -7.39565 1.5678 0
M  V30 951 H 84.4569 -7.78239 0.443277 0
M  V30 952 N 88.686 -0.835752 -1.33615 0
M  V30 953 C 89.636 -0.238856 -2.26745 0
M  V30 954 C 90.62 0.604343 -1.49119 0
M  V30 955 O 91.812 0.456822 -1.71003 0
M  V30 956 C 88.941 0.587725 -3.38232 0
M  V30 957 C 88.027 -0.266811 -4.2326 0
M  V30 958 N 88.418 -1.34403 -4.87616 0
M  V30 959 C 86.716 -0.0533131 -4.45968 0
M  V30 960 C 87.417 -1.86819 -5.50884 0
M  V30 961 N 86.393 -1.17013 -5.30857 0
M  V30 962 H 90.195 -1.06266 -2.74016 0
M  V30 963 H 87.709 -0.679881 -1.47483 0
M  V30 964 H 89.706 1.03161 -4.03935 0
M  V30 965 H 88.366 1.40954 -2.9251 0
M  V30 966 H 89.377 -1.7269 -4.88261 0
M  V30 967 H 86.054 0.735312 -4.10974 0
M  V30 968 H 87.444 -2.7701 -6.1214 0
M  V30 969 N 90.1641 1.46063 -0.591896 0
M  V30 970 C 91.4111 2.02338 -0.0809991 0
M  V30 971 C 91.7391 1.46228 1.28249 0
M  V30 972 O 90.9941 0.620818 1.85592 0
M  V30 973 C 91.2931 3.57391 0.0249813 0
M  V30 974 C 90.9591 4.32583 -1.27211 0
M  V30 975 C 89.6211 4.52844 -1.62745 0
M  V30 976 C 91.9731 4.75687 -2.13005 0
M  V30 977 C 89.3011 5.13462 -2.83855 0
M  V30 978 C 91.6531 5.37644 -3.3335 0
M  V30 979 C 90.3171 5.5613 -3.69155 0
M  V30 980 H 89.5871 0.740407 -0.0296397 0
M  V30 981 H 92.2341 1.75321 -0.770374 0
M  V30 982 H 90.5391 3.83597 0.797537 0
M  V30 983 H 92.2361 3.98621 0.436184 0
M  V30 984 H 88.8261 4.17116 -0.985499 0
M  V30 985 H 93.0101 4.59782 -1.86855 0
M  V30 986 H 88.2661 5.25965 -3.11722 0
M  V30 987 H 92.4401 5.7 -4.00092 0
M  V30 988 H 90.0671 6.0287 -4.63089 0
M  V30 989 N 91.6422 0.330177 1.54103 0
M  V30 990 C 92.8882 -0.270806 2.00984 0
M  V30 991 C 93.2212 -1.51265 1.21789 0
M  V30 992 O 92.4962 -1.92142 0.301927 0
M  V30 993 C 92.7792 -0.598339 3.55094 0
M  V30 994 C 92.6322 0.654674 4.4501 0
M  V30 995 C 93.9512 -1.41334 4.16789 0
M  V30 996 H 91.0702 -0.0969531 0.730595 0
M  V30 997 H 93.7122 0.448066 1.84641 0
M  V30 998 H 91.8622 -1.21078 3.69151 0
M  V30 999 H 93.5342 1.29285 4.42813 0
M  V30 1000 H 91.7772 1.28224 4.14416 0
M  V30 1001 H 92.4482 0.380944 5.50684 0
M  V30 1002 H 94.9242 -0.895597 4.06347 0
M  V30 1003 H 93.8002 -1.61127 5.24718 0
M  V30 1004 H 94.0612 -2.41146 3.70541 0
M  V30 1005 N 93.1203 -1.57491 0.0584922 0
M  V30 1006 C 94.3663 -1.93264 -0.614558 0
M  V30 1007 C 94.6993 -0.937717 -1.7006 0
M  V30 1008 O 93.9743 0.0351652 -1.94468 0
M  V30 1009 C 94.2573 -3.3938 -1.20386 0
M  V30 1010 C 94.1103 -4.49625 -0.125375 0
M  V30 1011 C 95.4293 -3.86039 -2.11334 0
M  V30 1012 H 92.5483 -0.702791 -0.221933 0
M  V30 1013 H 95.1903 -1.8961 0.12175 0
M  V30 1014 H 93.3403 -3.42626 -1.83139 0
M  V30 1015 H 95.0123 -4.58506 0.506971 0
M  V30 1016 H 93.2553 -4.30354 0.545672 0
M  V30 1017 H 93.9263 -5.48967 -0.577861 0
M  V30 1018 H 96.4023 -3.84716 -1.58534 0
M  V30 1019 H 95.2783 -4.88914 -2.49507 0
M  V30 1020 H 95.5393 -3.23215 -3.01636 0
M  V30 1021 N 94.5984 0.214957 -1.56127 0
M  V30 1022 C 95.5614 1.24997 -1.92116 0
M  V30 1023 C 96.5614 1.39467 -0.800344 0
M  V30 1024 O 97.7514 1.37619 -1.06802 0
M  V30 1025 C 94.8834 2.62271 -2.17777 0
M  V30 1026 H 96.0764 0.942875 -2.84693 0
M  V30 1027 H 93.6294 0.455654 -1.49511 0
M  V30 1028 H 94.3644 2.98068 -1.27773 0
M  V30 1029 H 94.1494 2.53143 -2.99434 0
M  V30 1030 H 95.6394 3.36946 -2.46693 0
M  V30 1031 N 96.0765 1.50051 0.48192 0
M  V30 1032 C 97.0065 1.71046 1.58951 0
M  V30 1033 C 97.9875 0.559288 1.60642 0
M  V30 1034 O 99.1725 0.797243 1.77081 0
M  V30 1035 C 96.3025 1.79462 2.97339 0
M  V30 1036 C 95.2565 2.94558 3.10515 0
M  V30 1037 C 94.5825 2.88105 4.50444 0
M  V30 1038 C 95.8825 4.35227 2.88747 0
M  V30 1039 H 97.5765 2.6378 1.41635 0
M  V30 1040 H 95.1225 1.26936 0.679942 0
M  V30 1041 H 97.0755 1.92734 3.74742 0
M  V30 1042 H 95.7995 0.833412 3.15788 0
M  V30 1043 H 94.4585 2.80918 2.35543 0
M  V30 1044 H 94.1065 1.89853 4.65795 0
M  V30 1045 H 93.8065 3.65366 4.60197 0
M  V30 1046 H 95.3305 3.03412 5.29881 0
M  V30 1047 H 96.7445 4.49449 3.55905 0
M  V30 1048 H 95.1415 5.13856 3.09955 0
M  V30 1049 H 96.2115 4.48347 1.84696 0
M  V30 1050 N 97.5546 -0.734337 1.39446 0
M  V30 1051 C 98.7846 -1.52137 1.39778 0
M  V30 1052 C 99.1926 -1.89198 -0.00929312 0
M  V30 1053 O 98.5356 -1.54666 -0.991168 0
M  V30 1054 C 98.5976 -2.83762 2.20724 0
M  V30 1055 C 98.2616 -2.69131 3.69347 0
M  V30 1056 C 99.2586 -2.37635 4.62413 0
M  V30 1057 C 96.9436 -2.85982 4.1294 0
M  V30 1058 C 98.9376 -2.23172 5.97054 0
M  V30 1059 C 96.6246 -2.71137 5.47657 0
M  V30 1060 C 97.6226 -2.39777 6.39528 0
M  V30 1061 O 97.3106 -2.25026 7.71763 0
M  V30 1062 H 97.0426 -0.476717 0.479288 0
M  V30 1063 H 99.5966 -0.915012 1.83893 0
M  V30 1064 H 97.8266 -3.4666 1.71359 0
M  V30 1065 H 99.5156 -3.45383 2.13226 0
M  V30 1066 H 100.282 -2.24267 4.30034 0
M  V30 1067 H 96.1606 -3.09383 3.41765 0
M  V30 1068 H 99.7046 -1.98617 6.68728 0
M  V30 1069 H 95.6016 -2.84083 5.79626 0
M  V30 1070 H 96.3696 -2.40091 7.82495 0
M  V30 1071 N 99.0327 -1.24633 -0.964593 0
M  V30 1072 C 100.31 -0.995809 -1.68354 0
M  V30 1073 C 100.69 0.480964 -2.05548 0
M  V30 1074 O 100.038 1.45599 -1.76105 0
M  V30 1075 C 100.248 -1.92177 -2.91323 0
M  V30 1076 C 101.596 -2.19446 -3.63495 0
M  V30 1077 O 102.62 -1.89855 -3.01386 0
M  V30 1078 O 101.479 -2.69714 -4.75307 0
M  V30 1079 H 98.5727 -0.376854 -0.736146 0
M  V30 1080 H 101.119 -1.35745 -1.0184 0
M  V30 1081 H 99.8907 -2.91938 -2.60553 0
M  V30 1082 H 99.5137 -1.56349 -3.65569 0
M  V30 1083 N 100.511 1.16574 -1.06058 0
M  V30 1084 C 101.741 1.90675 -0.795397 0
M  V30 1085 C 102.149 1.77547 0.653735 0
M  V30 1086 O 101.492 1.11611 1.45907 0
M  V30 1087 C 101.554 3.42011 -1.10764 0
M  V30 1088 C 101.218 3.78924 -2.55471 0
M  V30 1089 C 102.215 3.81042 -3.53699 0
M  V30 1090 C 99.8998 4.09626 -2.90708 0
M  V30 1091 C 101.894 4.13346 -4.85205 0
M  V30 1092 C 99.5808 4.41597 -4.22416 0
M  V30 1093 C 100.579 4.43436 -5.19474 0
M  V30 1094 O 100.267 4.74649 -6.48817 0
M  V30 1095 H 99.9988 0.611554 -0.288058 0
M  V30 1096 H 102.553 1.48711 -1.41683 0
M  V30 1097 H 100.783 3.84312 -0.429128 0
M  V30 1098 H 102.472 3.97384 -0.827077 0
M  V30 1099 H 103.238 3.57437 -3.27817 0
M  V30 1100 H 99.1168 4.07361 -2.15819 0
M  V30 1101 H 102.661 4.14696 -5.60957 0
M  V30 1102 H 98.5578 4.64667 -4.48056 0
M  V30 1103 H 99.3258 4.9247 -6.5377 0
M  V30 1104 N 101.989 0.842826 1.3317 0
M  V30 1105 C 103.217 0.454055 2.01856 0
M  V30 1106 C 103.632 -0.94587 1.63397 0
M  V30 1107 O 102.989 -1.61534 0.849302 0
M  V30 1108 C 103.04 0.569715 3.56982 0
M  V30 1109 O 102.761 1.91448 3.94055 0
M  V30 1110 C 104.262 0.178412 4.42941 0
M  V30 1111 H 101.482 0.17979 0.646465 0
M  V30 1112 H 104.026 1.1365 1.70012 0
M  V30 1113 H 102.181 -0.0648587 3.87346 0
M  V30 1114 H 102.595 1.90282 4.88767 0
M  V30 1115 H 104.069 0.310376 5.51127 0
M  V30 1116 H 104.546 -0.880056 4.30293 0
M  V30 1117 H 105.152 0.787579 4.17944 0
M  V30 1118 N 103.467 -1.45747 0.599634 0
M  V30 1119 C 104.43 -2.28917 -0.113835 0
M  V30 1120 C 105.43 -1.3933 -0.802729 0
M  V30 1121 O 106.62 -1.61534 -0.652103 0
M  V30 1122 C 103.752 -3.20152 -1.17114 0
M  V30 1123 H 104.945 -2.93478 0.617289 0
M  V30 1124 H 102.498 -1.52137 0.358327 0
M  V30 1125 H 103.233 -2.60374 -1.93329 0
M  V30 1126 H 103.018 -3.86133 -0.681468 0
M  V30 1127 H 104.508 -3.82708 -1.67105 0
M  V30 1128 N 104.945 -0.338344 -1.53925 0
M  V30 1129 C 105.878 0.563758 -2.21127 0
M  V30 1130 C 106.856 1.10433 -1.19345 0
M  V30 1131 O 108.04 1.16557 -1.48144 0
M  V30 1132 C 105.167 1.77505 -2.88461 0
M  V30 1133 C 104.213 1.3644 -4.04087 0
M  V30 1134 S 105.046 0.388593 -5.34088 0
M  V30 1135 C 106.202 1.60683 -6.04923 0
M  V30 1136 H 106.435 -0.00704546 -2.97299 0
M  V30 1137 H 103.968 -0.122418 -1.53914 0
M  V30 1138 H 105.926 2.46999 -3.27875 0
M  V30 1139 H 104.587 2.31706 -2.12064 0
M  V30 1140 H 103.78 2.26739 -4.50117 0
M  V30 1141 H 103.382 0.748998 -3.66423 0
M  V30 1142 H 105.674 2.54209 -6.28 0
M  V30 1143 H 106.617 1.18842 -6.98056 0
M  V30 1144 H 107.025 1.80052 -5.35015 0
M  V30 1145 N 106.423 1.57458 -0.0668435 0
M  V30 1146 C 107.371 2.13639 0.919851 0
M  V30 1147 C 108.365 1.07204 1.31163 0
M  V30 1148 O 109.571 1.25591 1.28945 0
M  V30 1149 H 105.946 0.683048 0.314562 0
M  V30 1150 H 107.917 2.95415 0.421047 0
M  V30 1151 C 106.666 2.70892 2.17975 0
M  V30 1152 H 105.989 3.5246 1.88711 0
M  V30 1153 H 107.429 3.13803 2.85138 0
M  V30 1154 C 105.888 1.65414 2.93496 0
M  V30 1155 O 106.418 1.07619 3.87015 0
M  V30 1156 N 104.624 1.36564 2.56512 0
M  V30 1157 H 104.171 1.83751 1.80536 0
M  V30 1158 H 104.129 0.66223 3.07347 0
M  V30 1159 N 107.901 -0.206675 1.56239 0
M  V30 1160 C 109.178 -0.954051 1.70755 0
M  V30 1161 C 109.558 -2.01841 0.618353 0
M  V30 1162 O 108.906 -2.25444 -0.372434 0
M  V30 1163 C 109.116 -1.551 3.12642 0
M  V30 1164 C 110.464 -2.03757 3.72516 0
M  V30 1165 O 111.488 -1.64965 3.15698 0
M  V30 1166 O 110.347 -2.75103 4.72208 0
M  V30 1167 H 107.441 -0.446636 0.696021 0
M  V30 1168 H 109.987 -0.197283 1.68549 0
M  V30 1169 H 108.759 -0.783212 3.83382 0
M  V30 1170 H 108.382 -2.37291 3.19028 0
M  V30 1171 N 109.379 -1.50304 -0.473955 0
M  V30 1172 C 110.795 -1.37667 -0.807466 0
M  V30 1173 C 110.995 -0.430555 -1.96846 0
M  V30 1174 O 110.051 0.127874 -2.52176 0
M  V30 1175 C 111.364 -2.78974 -1.12223 0
M  V30 1176 C 112.912 -2.87868 -1.22885 0
M  V30 1177 C 113.387 -4.30003 -1.57676 0
M  V30 1178 N 114.878 -4.3294 -1.64673 0
M  V30 1179 C 115.613 -5.3991 -1.93091 0
M  V30 1180 N 115.109 -6.57092 -2.1955 0
M  V30 1181 N 116.902 -5.27351 -1.94569 0
M  V30 1182 H 109.053 -2.10394 0.291212 0
M  V30 1183 H 111.316 -0.945575 0.0677609 0
M  V30 1184 H 111.022 -3.50031 -0.342229 0
M  V30 1185 H 110.896 -3.16038 -2.05913 0
M  V30 1186 H 113.283 -2.17032 -1.99953 0
M  V30 1187 H 113.364 -2.54352 -0.271814 0
M  V30 1188 H 113.008 -5.01375 -0.81149 0
M  V30 1189 H 112.938 -4.61004 -2.54525 0
M  V30 1190 H 115.429 -3.48441 -1.46277 0
M  V30 1191 H 115.742 -7.34425 -2.405 0
M  V30 1192 H 114.087 -6.60272 -2.16948 0
M  V30 1193 H 117.278 -4.34801 -1.73394 0
M  V30 1194 H 117.451 -6.10805 -2.16381 0
M  V30 1195 N 110.857 0.726932 -1.39834 0
M  V30 1196 C 112.134 1.47902 -1.28001 0
M  V30 1197 C 112.514 2.1083 0.106789 0
M  V30 1198 O 111.862 1.99242 1.11869 0
M  V30 1199 C 112.072 2.52392 -2.41038 0
M  V30 1200 C 113.42 3.18546 -2.80737 0
M  V30 1201 O 114.444 2.62708 -2.40547 0
M  V30 1202 O 113.303 4.19604 -3.50135 0
M  V30 1203 H 110.397 0.657163 -0.502062 0
M  V30 1204 H 112.943 0.760071 -1.51727 0
M  V30 1205 H 111.715 2.04329 -3.33715 0
M  V30 1206 H 111.338 3.31837 -2.19021 0
M  V30 1207 N 112.336 1.25143 0.95797 0
M  V30 1208 C 113.266 1.07711 2.07173 0
M  V30 1209 C 114.247 -0.0128462 1.70095 0
M  V30 1210 O 115.432 0.156061 1.93572 0
M  V30 1211 C 112.562 0.691503 3.40346 0
M  V30 1212 C 111.516 1.73132 3.9142 0
M  V30 1213 C 110.842 1.20049 5.21049 0
M  V30 1214 C 112.142 3.1294 4.1817 0
M  V30 1215 H 113.836 2.00873 2.22014 0
M  V30 1216 H 111.382 0.967191 1.06684 0
M  V30 1217 H 113.335 0.556505 4.17709 0
M  V30 1218 H 112.059 -0.275819 3.25433 0
M  V30 1219 H 110.718 1.8547 3.16222 0
M  V30 1220 H 110.366 0.223499 5.02503 0
M  V30 1221 H 110.066 1.89545 5.56189 0
M  V30 1222 H 111.59 1.07782 6.01012 0
M  V30 1223 H 113.004 3.03775 4.86203 0
M  V30 1224 H 111.401 3.79875 4.64559 0
M  V30 1225 H 112.471 3.6025 3.24573 0
M  V30 1226 N 113.814 -1.1601 1.06675 0
M  V30 1227 C 114.746 -2.20115 0.638921 0
M  V30 1228 C 115.759 -1.59916 -0.305057 0
M  V30 1229 O 116.948 -1.78245 -0.0954446 0
M  V30 1230 C 114.048 -3.38798 -0.0830083 0
M  V30 1231 C 113.221 -4.2855 0.875426 0
M  V30 1232 C 112.28 -5.25849 0.192042 0
M  V30 1233 O 111.306 -5.63102 0.830921 0
M  V30 1234 N 112.508 -5.70648 -1.06493 0
M  V30 1235 H 115.273 -2.57439 1.53444 0
M  V30 1236 H 112.834 -1.31057 0.950557 0
M  V30 1237 H 114.826 -4.00936 -0.550685 0
M  V30 1238 H 113.396 -2.99947 -0.880386 0
M  V30 1239 H 112.616 -3.63617 1.52238 0
M  V30 1240 H 113.904 -4.85393 1.52548 0
M  V30 1241 H 113.302 -5.42482 -1.60405 0
M  V30 1242 H 111.859 -6.34859 -1.47641 0
M  V30 1243 N 115.292 -0.849877 -1.32721 0
M  V30 1244 C 116.225 -0.235903 -2.26977 0
M  V30 1245 C 117.203 0.623355 -1.50177 0
M  V30 1246 O 118.387 0.581207 -1.79316 0
M  V30 1247 C 115.514 0.667712 -3.32053 0
M  V30 1248 C 114.56 -0.11753 -4.26338 0
M  V30 1249 S 115.393 -1.48277 -5.14562 0
M  V30 1250 C 116.549 -0.584741 -6.23163 0
M  V30 1251 H 116.782 -1.03495 -2.78704 0
M  V30 1252 H 114.315 -0.64724 -1.40179 0
M  V30 1253 H 116.273 1.18343 -3.93072 0
M  V30 1254 H 114.934 1.44052 -2.7912 0
M  V30 1255 H 114.127 0.57051 -5.00761 0
M  V30 1256 H 113.729 -0.564668 -3.69713 0
M  V30 1257 H 116.021 0.212968 -6.77165 0
M  V30 1258 H 116.964 -1.29947 -6.96074 0
M  V30 1259 H 117.372 -0.161202 -5.6427 0
M  V30 1260 N 116.77 1.45427 -0.607355 0
M  V30 1261 C 117.7 2.3329 0.0989352 0
M  V30 1262 C 118.681 1.46816 0.859007 0
M  V30 1263 O 119.866 1.75588 0.829604 0
M  V30 1264 C 116.996 3.29518 1.09705 0
M  V30 1265 C 115.95 4.25626 0.450206 0
M  V30 1266 C 115.276 5.11542 1.55655 0
M  V30 1267 C 116.576 5.18505 -0.628455 0
M  V30 1268 H 118.27 2.92595 -0.634716 0
M  V30 1269 H 115.816 1.40696 -0.306681 0
M  V30 1270 H 117.769 3.89855 1.59971 0
M  V30 1271 H 116.493 2.68372 1.86129 0
M  V30 1272 H 115.152 3.66586 -0.0315886 0
M  V30 1273 H 114.8 4.46765 2.31107 0
M  V30 1274 H 114.5 5.76647 1.12925 0
M  V30 1275 H 116.024 5.74748 2.06148 0
M  V30 1276 H 117.438 5.72916 -0.209877 0
M  V30 1277 H 115.835 5.92085 -0.977489 0
M  V30 1278 H 116.905 4.60948 -1.50514 0
M  V30 1279 N 118.248 0.346503 1.53744 0
M  V30 1280 C 119.195 -0.508914 2.25119 0
M  V30 1281 C 120.165 -1.09315 1.25058 0
M  V30 1282 O 121.35 -1.12921 1.53797 0
M  V30 1283 C 118.49 -1.65246 3.02965 0
M  V30 1284 C 117.603 -1.09525 4.17886 0
M  V30 1285 C 116.738 -2.20634 4.83212 0
M  V30 1286 C 115.777 -1.62279 5.90196 0
M  V30 1287 N 114.914 -2.67143 6.49291 0
M  V30 1288 H 119.754 0.106283 2.9781 0
M  V30 1289 H 117.291 0.0642227 1.4696 0
M  V30 1290 H 119.249 -2.32574 3.4636 0
M  V30 1291 H 117.879 -2.2386 2.32565 0
M  V30 1292 H 116.931 -0.312818 3.79112 0
M  V30 1293 H 118.243 -0.628444 4.94825 0
M  V30 1294 H 117.397 -2.95821 5.29693 0
M  V30 1295 H 116.136 -2.70659 4.05703 0
M  V30 1296 H 115.141 -0.855989 5.43096 0
M  V30 1297 H 116.366 -1.13102 6.69615 0
M  V30 1298 H 114.312 -3.16417 5.74645 0
M  V30 1299 H 114.229 -2.25093 7.21713 0
M  V30 1300 H 115.497 -3.4209 7.00425 0
M  V30 1301 N 119.726 -1.57421 0.075193 0
M  V30 1302 C 120.974 -1.93236 -0.591974 0
M  V30 1303 C 121.295 -0.956241 -1.69944 0
M  V30 1304 O 120.565 -0.00494792 -1.95899 0
M  V30 1305 H 119.145 -0.713355 -0.22166 0
M  V30 1306 H 121.807 -1.9444 0.133848 0
M  V30 1307 H 120.903 -2.95131 -1.01509 0
M  V30 1308 N 121.204 0.198386 -1.56346 0
M  V30 1309 C 122.114 1.2664 -1.97483 0
M  V30 1310 C 123.13 1.49989 -0.882002 0
M  V30 1311 O 124.306 1.62668 -1.18748 0
M  V30 1312 C 121.371 2.59141 -2.30319 0
M  V30 1313 C 120.432 2.43892 -3.53292 0
M  V30 1314 C 119.665 3.70074 -3.84553 0
M  V30 1315 O 119.888 4.74101 -3.1715 0
M  V30 1316 O 118.822 3.658 -4.7799 0
M  V30 1317 H 122.648 0.947304 -2.88548 0
M  V30 1318 H 120.233 0.403123 -1.43859 0
M  V30 1319 H 122.115 3.37352 -2.5253 0
M  V30 1320 H 120.79 2.90684 -1.42423 0
M  V30 1321 H 119.697 1.63803 -3.36332 0
M  V30 1322 H 121.03 2.17282 -4.41644 0
M  V30 1323 N 122.682 1.50554 0.465978 0
M  V30 1324 C 123.629 1.6979 1.56333 0
M  V30 1325 C 124.599 0.539239 1.57103 0
M  V30 1326 O 125.784 0.770401 1.74555 0
M  V30 1327 C 122.924 1.80273 2.94271 0
M  V30 1328 C 122.037 3.07674 3.0325 0
M  V30 1329 C 121.172 3.08922 4.32135 0
M  V30 1330 C 120.211 4.30755 4.34875 0
M  V30 1331 N 119.348 4.29714 5.55239 0
M  V30 1332 H 124.188 2.63472 1.39235 0
M  V30 1333 H 121.725 1.30602 0.676873 0
M  V30 1334 H 123.683 1.84332 3.74269 0
M  V30 1335 H 122.313 0.900258 3.09992 0
M  V30 1336 H 121.365 3.13062 2.16094 0
M  V30 1337 H 122.677 3.97642 3.01135 0
M  V30 1338 H 121.831 3.11738 5.20485 0
M  V30 1339 H 120.57 2.16792 4.36866 0
M  V30 1340 H 119.575 4.28146 3.44922 0
M  V30 1341 H 120.8 5.24117 4.31831 0
M  V30 1342 H 118.746 3.4044 5.60746 0
M  V30 1343 H 118.663 5.13456 5.54886 0
M  V30 1344 H 119.931 4.36683 6.457 0
M  V30 1345 N 124.16 -0.719506 1.40217 0
M  V30 1346 C 125.09 -1.8465 1.42922 0
M  V30 1347 C 126.071 -1.67599 0.29062 0
M  V30 1348 O 127.256 -1.87688 0.498677 0
M  V30 1349 C 124.386 -3.22565 1.28722 0
M  V30 1350 C 123.34 -3.54281 2.40144 0
M  V30 1351 C 122.666 -4.91298 2.11023 0
M  V30 1352 C 123.966 -3.55676 3.82481 0
M  V30 1353 H 125.66 -1.82644 2.37237 0
M  V30 1354 H 123.206 -0.877305 1.1419 0
M  V30 1355 H 125.159 -4.01095 1.29232 0
M  V30 1356 H 123.883 -3.25137 0.308811 0
M  V30 1357 H 122.542 -2.78088 2.38877 0
M  V30 1358 H 122.19 -4.90468 1.11582 0
M  V30 1359 H 121.89 -5.13485 2.8567 0
M  V30 1360 H 123.414 -5.72166 2.13209 0
M  V30 1361 H 124.828 -4.24254 3.85592 0
M  V30 1362 H 123.225 -3.89388 4.56614 0
M  V30 1363 H 124.295 -2.55144 4.12346 0
M  V30 1364 N 125.638 -1.25649 -0.95132 0
M  V30 1365 C 126.57 -1.02112 -2.05197 0
M  V30 1366 C 127.583 0.0150571 -1.62793 0
M  V30 1367 O 128.772 -0.223874 -1.77091 0
M  V30 1368 C 125.872 -0.522361 -3.3485 0
M  V30 1369 C 125.045 -1.62546 -4.06076 0
M  V30 1370 C 124.104 -1.12649 -5.14001 0
M  V30 1371 O 123.13 -1.82156 -5.39266 0
M  V30 1372 N 124.332 0.03047 -5.80492 0
M  V30 1373 H 127.097 -1.96885 -2.25957 0
M  V30 1374 H 124.658 -1.16899 -1.1201 0
M  V30 1375 H 126.65 -0.172961 -4.0433 0
M  V30 1376 H 125.22 0.33151 -3.10837 0
M  V30 1377 H 124.44 -2.14628 -3.30649 0
M  V30 1378 H 125.728 -2.36644 -4.50419 0
M  V30 1379 H 125.126 0.611169 -5.62389 0
M  V30 1380 H 123.683 0.320875 -6.5101 0
M  V30 1381 N 127.117 1.15442 -1.07289 0
M  V30 1382 C 128.363 1.86489 -0.796846 0
M  V30 1383 C 128.696 1.82078 0.675371 0
M  V30 1384 O 127.971 1.24346 1.4956 0
M  V30 1385 C 128.254 3.35626 -1.30489 0
M  V30 1386 C 128.107 3.48673 -2.84161 0
M  V30 1387 C 129.426 4.30357 -0.920907 0
M  V30 1388 H 126.545 0.677144 -0.290939 0
M  V30 1389 H 129.187 1.35633 -1.33056 0
M  V30 1390 H 127.337 3.79068 -0.850883 0
M  V30 1391 H 129.009 3.14099 -3.37846 0
M  V30 1392 H 127.252 2.90253 -3.22391 0
M  V30 1393 H 127.923 4.53453 -3.14777 0
M  V30 1394 H 130.399 3.94871 -1.3121 0
M  V30 1395 H 129.275 5.33193 -1.30372 0
M  V30 1396 H 129.536 4.4176 0.173226 0
M  V30 1397 N 128.595 0.856903 1.32268 0
M  V30 1398 C 129.525 0.31858 2.31316 0
M  V30 1399 C 130.506 -0.583487 1.59779 0
M  V30 1400 O 131.691 -0.503259 1.87566 0
M  V30 1401 C 128.821 -0.491979 3.43798 0
M  V30 1402 C 127.775 0.315849 4.26833 0
M  V30 1403 C 127.101 -0.619586 5.31098 0
M  V30 1404 C 128.401 1.54282 4.98993 0
M  V30 1405 H 130.095 1.14621 2.76591 0
M  V30 1406 H 127.641 0.552613 1.32974 0
M  V30 1407 H 129.594 -0.879012 4.1213 0
M  V30 1408 H 128.318 -1.35299 2.97257 0
M  V30 1409 H 126.977 0.684664 3.6015 0
M  V30 1410 H 126.625 -1.47751 4.8081 0
M  V30 1411 H 126.325 -0.0830621 5.87541 0
M  V30 1412 H 127.849 -1.00375 6.02293 0
M  V30 1413 H 129.263 1.22796 5.59995 0
M  V30 1414 H 127.66 2.01745 5.65172 0
M  V30 1415 H 128.73 2.30285 4.26728 0
M  V30 1416 N 130.073 -1.45103 0.615059 0
M  V30 1417 C 131.02 -2.30586 -0.0993978 0
M  V30 1418 C 131.99 -1.42544 -0.852669 0
M  V30 1419 O 133.175 -1.71465 -0.836917 0
M  V30 1420 C 130.315 -3.27572 -1.08583 0
M  V30 1421 C 129.428 -4.30717 -0.332656 0
M  V30 1422 C 128.563 -5.14807 -1.30947 0
M  V30 1423 C 127.602 -6.09673 -0.544538 0
M  V30 1424 N 126.739 -6.86517 -1.47101 0
M  V30 1425 H 131.579 -2.91144 0.635542 0
M  V30 1426 H 129.116 -1.4346 0.325206 0
M  V30 1427 H 131.074 -3.82276 -1.67095 0
M  V30 1428 H 129.704 -2.68751 -1.78809 0
M  V30 1429 H 128.756 -3.78615 0.368107 0
M  V30 1430 H 130.068 -4.98102 0.263842 0
M  V30 1431 H 129.222 -5.73948 -1.96643 0
M  V30 1432 H 127.961 -4.47458 -1.9399 0
M  V30 1433 H 126.966 -5.49656 0.126003 0
M  V30 1434 H 128.191 -6.79052 0.080947 0
M  V30 1435 H 126.137 -6.21851 -2.08895 0
M  V30 1436 H 126.054 -7.50281 -0.928137 0
M  V30 1437 H 127.322 -7.50194 -2.11731 0
M  V30 1438 N 131.551 -0.354651 -1.53558 0
M  V30 1439 C 132.799 0.237972 -2.00694 0
M  V30 1440 C 133.12 1.50173 -1.24391 0
M  V30 1441 O 132.39 1.92673 -0.354135 0
M  V30 1442 H 130.97 0.0909256 -0.741446 0
M  V30 1443 H 133.632 -0.478368 -1.88938 0
M  V30 1444 H 132.728 0.47264 -3.085 0
M  V30 1445 N 133.029 1.57378 -0.0835403 0
M  V30 1446 C 134.257 1.98263 0.59157 0
M  V30 1447 C 134.672 0.962302 1.62435 0
M  V30 1448 O 134.029 -0.049581 1.82433 0
M  V30 1449 C 134.08 3.39214 1.24965 0
M  V30 1450 O 133.801 4.37339 0.258186 0
M  V30 1451 C 135.302 3.95038 2.01147 0
M  V30 1452 H 132.522 0.651773 0.159477 0
M  V30 1453 H 135.066 2.03878 -0.159415 0
M  V30 1454 H 133.221 3.34649 1.95164 0
M  V30 1455 H 133.635 5.19371 0.731734 0
M  V30 1456 H 135.109 4.95848 2.42567 0
M  V30 1457 H 135.586 3.32222 2.87272 0
M  V30 1458 H 136.192 4.0304 1.35789 0
M  V30 1459 N 134.507 -0.190092 1.56449 0
M  V30 1460 C 135.755 -0.907908 1.80559 0
M  V30 1461 C 136.076 -1.83583 0.657438 0
M  V30 1462 O 135.346 -1.93203 -0.323924 0
M  V30 1463 H 133.926 -0.338247 0.666032 0
M  V30 1464 H 136.588 -0.194403 1.93928 0
M  V30 1465 H 135.684 -1.49604 2.73907 0
M  V30 1466 N 135.985 -1.50799 -0.457987 0
M  V30 1467 C 137.262 -1.52968 -1.21902 0
M  V30 1468 C 137.642 -0.281906 -2.09209 0
M  V30 1469 O 136.99 0.734076 -2.16388 0
M  V30 1470 C 137.2 -2.8326 -2.03875 0
M  V30 1471 C 138.548 -3.34425 -2.6162 0
M  V30 1472 O 139.572 -2.8467 -2.14106 0
M  V30 1473 O 138.431 -4.21188 -3.48228 0
M  V30 1474 H 135.525 -0.614129 -0.553873 0
M  V30 1475 H 138.071 -1.63098 -0.468739 0
M  V30 1476 H 136.843 -3.65543 -1.39621 0
M  V30 1477 H 136.466 -2.76195 -2.8601 0
M  V30 1478 N 137.463 0.71206 -1.40597 0
M  V30 1479 C 138.709 1.47292 -1.40274 0
M  V30 1480 C 139.064 1.92399 -0.00576812 0
M  V30 1481 O 138.357 1.65507 0.965297 0
M  V30 1482 C 138.551 2.71039 -2.32965 0
M  V30 1483 C 138.38 2.38035 -3.81536 0
M  V30 1484 C 137.15 2.29203 -4.50327 0
M  V30 1485 C 139.348 2.02076 -4.72938 0
M  V30 1486 N 137.33 1.88911 -5.84111 0
M  V30 1487 C 138.701 1.72412 -5.95545 0
M  V30 1488 C 140.756 1.88742 -4.60739 0
M  V30 1489 C 139.459 1.30756 -7.07316 0
M  V30 1490 C 141.485 1.4849 -5.72455 0
M  V30 1491 C 140.847 1.19726 -6.94151 0
M  V30 1492 H 136.946 0.536919 -0.568544 0
M  V30 1493 H 139.53 0.825424 -1.76337 0
M  V30 1494 H 137.701 3.33533 -1.99023 0
M  V30 1495 H 139.433 3.37404 -2.23474 0
M  V30 1496 H 136.188 2.47059 -4.04053 0
M  V30 1497 H 136.612 1.71293 -6.54972 0
M  V30 1498 H 141.254 2.0964 -3.67166 0
M  V30 1499 H 138.972 1.08601 -8.00769 0
M  V30 1500 H 142.558 1.38747 -5.65014 0
M  V30 1501 H 141.438 0.890482 -7.79128 0
M  V30 1502 N 138.941 1.26152 0.944643 0
M  V30 1503 C 140.187 1.12665 1.69346 0
M  V30 1504 C 140.542 -0.3273 1.89596 0
M  V30 1505 O 139.835 -1.23717 1.46303 0
M  V30 1506 C 140.029 1.82541 3.07268 0
M  V30 1507 C 139.858 3.34582 3.00475 0
M  V30 1508 C 138.628 4.03863 3.03681 0
M  V30 1509 C 140.826 4.30828 2.80877 0
M  V30 1510 N 138.808 5.42603 2.87151 0
M  V30 1511 C 140.179 5.5672 2.7288 0
M  V30 1512 C 142.234 4.21122 2.65633 0
M  V30 1513 C 140.937 6.74013 2.51196 0
M  V30 1514 C 142.963 5.38118 2.45323 0
M  V30 1515 C 142.325 6.62955 2.38055 0
M  V30 1516 H 138.424 0.467041 0.627214 0
M  V30 1517 H 141.008 1.59391 1.11815 0
M  V30 1518 H 139.179 1.38296 3.62945 0
M  V30 1519 H 140.911 1.61708 3.70989 0
M  V30 1520 H 137.666 3.55198 3.1326 0
M  V30 1521 H 138.09 6.15443 2.82063 0
M  V30 1522 H 142.732 3.25344 2.70021 0
M  V30 1523 H 140.45 7.6989 2.4555 0
M  V30 1524 H 144.036 5.32475 2.34439 0
M  V30 1525 H 142.916 7.51959 2.22546 0
M  V30 1526 N 140.419 -1.14872 1.07899 0
M  V30 1527 C 141.349 -2.2193 0.725887 0
M  V30 1528 C 142.33 -1.67622 -0.28927 0
M  V30 1529 O 143.515 -1.93533 -0.160787 0
M  V30 1530 C 140.645 -3.47061 0.128856 0
M  V30 1531 C 139.599 -4.14363 1.07178 0
M  V30 1532 C 138.925 -5.33636 0.337229 0
M  V30 1533 C 140.225 -4.63492 2.40775 0
M  V30 1534 H 141.919 -2.51724 1.62097 0
M  V30 1535 H 139.465 -1.20991 0.780838 0
M  V30 1536 H 141.418 -4.21199 -0.130147 0
M  V30 1537 H 140.142 -3.16617 -0.80134 0
M  V30 1538 H 138.801 -3.42173 1.3158 0
M  V30 1539 H 138.449 -4.99449 -0.596606 0
M  V30 1540 H 138.149 -5.79609 0.965788 0
M  V30 1541 H 139.673 -6.10539 0.0861567 0
M  V30 1542 H 141.087 -5.2913 2.20669 0
M  V30 1543 H 139.484 -5.20148 2.99276 0
M  V30 1544 H 140.554 -3.78834 3.02676 0
M  V30 1545 N 141.898 -0.863906 -1.31812 0
M  V30 1546 C 142.861 -0.320212 -2.26952 0
M  V30 1547 C 143.861 0.525369 -1.51975 0
M  V30 1548 O 145.051 0.335547 -1.70938 0
M  V30 1549 C 142.183 0.545919 -3.365 0
M  V30 1550 H 143.376 -1.16004 -2.76556 0
M  V30 1551 H 140.929 -0.638995 -1.42641 0
M  V30 1552 H 141.664 1.40718 -2.92179 0
M  V30 1553 H 141.449 -0.0594674 -3.92055 0
M  V30 1554 H 142.939 0.918796 -4.07367 0
M  V30 1555 N 143.376 1.44774 -0.622745 0
M  V30 1556 C 144.792 1.56986 -0.287652 0
M  V30 1557 C 144.992 1.61167 1.20944 0
M  V30 1558 O 144.048 1.55015 1.99315 0
M  V30 1559 C 145.361 2.84551 -0.972188 0
M  V30 1560 C 146.909 2.9825 -0.949536 0
M  V30 1561 C 147.384 4.28605 -1.61437 0
M  V30 1562 N 148.875 4.35399 -1.58057 0
M  V30 1563 C 149.61 5.34964 -2.064 0
M  V30 1564 N 149.106 6.40981 -2.62897 0
M  V30 1565 N 150.899 5.26419 -1.97078 0
M  V30 1566 H 143.05 1.40304 -1.59463 0
M  V30 1567 H 145.313 0.671794 -0.668878 0
M  V30 1568 H 145.019 2.87417 -2.02693 0
M  V30 1569 H 144.893 3.73807 -0.504771 0
M  V30 1570 H 147.28 2.94941 0.0967067 0
M  V30 1571 H 147.361 2.10364 -1.45536 0
M  V30 1572 H 147.005 4.32672 -2.66002 0
M  V30 1573 H 146.935 5.15334 -1.08344 0
M  V30 1574 H 149.426 3.59397 -1.16801 0
M  V30 1575 H 149.739 7.13225 -2.97539 0
M  V30 1576 H 148.084 6.4169 -2.66943 0
M  V30 1577 H 151.275 4.42504 -1.52669 0
M  V30 1578 H 151.448 6.03861 -2.35066 0
M  V30 1579 N 144.854 0.36279 1.53368 0
M  V30 1580 C 146.079 -0.231226 2.06107 0
M  V30 1581 C 146.504 -1.419 1.23474 0
M  V30 1582 O 145.862 -1.79524 0.253128 0
M  V30 1583 C 145.91 -0.605523 3.5548 0
M  V30 1584 O 145.014 -1.70312 3.7559 0
M  V30 1585 H 144.355 -0.034327 0.663112 0
M  V30 1586 H 146.885 0.522584 1.97814 0
M  V30 1587 H 146.895 -0.877314 3.98456 0
M  V30 1588 H 145.57 0.263004 4.15068 0
M  V30 1589 H 144.147 -1.4271 3.44512 0
M  V30 1590 N 146.332 -1.57332 0.0918853 0
M  V30 1591 C 147.262 -2.16872 -0.865371 0
M  V30 1592 C 148.243 -1.10118 -1.29646 0
M  V30 1593 O 149.428 -1.38242 -1.36392 0
M  V30 1594 C 146.558 -2.74649 -2.12569 0
M  V30 1595 C 145.512 -3.86747 -1.83333 0
M  V30 1596 C 144.838 -4.31212 -3.16166 0
M  V30 1597 C 146.138 -5.10089 -1.1228 0
M  V30 1598 H 147.832 -2.97114 -0.369307 0
M  V30 1599 H 145.378 -1.42918 -0.176194 0
M  V30 1600 H 147.331 -3.14952 -2.7997 0
M  V30 1601 H 146.055 -1.91657 -2.64452 0
M  V30 1602 H 144.714 -3.46978 -1.18331 0
M  V30 1603 H 144.362 -3.45115 -3.6593 0
M  V30 1604 H 144.062 -5.06788 -2.97388 0
M  V30 1605 H 145.586 -4.74146 -3.84731 0
M  V30 1606 H 147 -5.47582 -1.69785 0
M  V30 1607 H 145.397 -5.91073 -1.03693 0
M  V30 1608 H 146.467 -4.84786 -0.105041 0
M  V30 1609 N 147.81 0.181792 -1.56548 0
M  V30 1610 C 149.056 0.901431 -1.81665 0
M  V30 1611 C 149.389 1.82347 -0.668075 0
M  V30 1612 O 148.664 1.91669 0.330615 0
M  V30 1613 C 148.947 1.70618 -3.17115 0
M  V30 1614 C 148.8 0.807964 -4.42484 0
M  V30 1615 C 150.119 2.67605 -3.49393 0
M  V30 1616 H 147.238 0.32627 -0.660846 0
M  V30 1617 H 149.88 0.168134 -1.89255 0
M  V30 1618 H 148.03 2.33133 -3.10775 0
M  V30 1619 H 149.702 0.19649 -4.60881 0
M  V30 1620 H 147.945 0.115411 -4.33646 0
M  V30 1621 H 148.616 1.40632 -5.33785 0
M  V30 1622 H 151.092 2.15218 -3.56118 0
M  V30 1623 H 149.968 3.20985 -4.45264 0
M  V30 1624 H 150.229 3.47298 -2.73563 0
M  V30 1625 N 149.288 1.51039 0.449983 0
M  V30 1626 C 150.516 1.66869 1.2232 0
M  V30 1627 C 150.931 0.360727 1.85322 0
M  V30 1628 O 150.288 -0.659531 1.70166 0
M  V30 1629 C 150.339 2.77524 2.31652 0
M  V30 1630 O 150.06 4.03252 1.7123 0
M  V30 1631 C 151.561 3.04512 3.2216 0
M  V30 1632 H 148.781 0.560326 0.369155 0
M  V30 1633 H 151.325 1.97385 0.534719 0
M  V30 1634 H 149.48 2.49642 2.96239 0
M  V30 1635 H 149.894 4.64609 2.43389 0
M  V30 1636 H 151.368 3.85551 3.95038 0
M  V30 1637 H 151.845 2.16415 3.8218 0
M  V30 1638 H 152.451 3.34005 2.63288 0
M  V30 1639 N 150.766 -0.704594 1.40972 0
M  V30 1640 C 152.014 -1.46169 1.39568 0
M  V30 1641 C 152.335 -1.95 0.00253745 0
M  V30 1642 O 151.605 -1.71095 -0.954114 0
M  V30 1643 H 150.185 -0.542326 0.513704 0
M  V30 1644 H 152.847 -0.834553 1.76128 0
M  V30 1645 H 151.943 -2.32922 2.07735 0
M  V30 1646 N 152.244 -1.26651 -0.937939 0
M  V30 1647 C 153.66 -1.03834 -1.21205 0
M  V30 1648 C 153.86 0.234502 -2.00131 0
M  V30 1649 O 152.916 0.942767 -2.3424 0
M  V30 1650 C 154.229 -2.27167 -1.97017 0
M  V30 1651 C 155.777 -2.32101 -2.09996 0
M  V30 1652 C 156.252 -3.55136 -2.8921 0
M  V30 1653 N 157.743 -3.55632 -2.96783 0
M  V30 1654 C 158.478 -4.475 -3.58512 0
M  V30 1655 N 157.974 -5.4966 -4.21717 0
M  V30 1656 N 159.767 -4.35145 -3.55816 0
M  V30 1657 H 151.918 -2.08398 -0.410391 0
M  V30 1658 H 154.181 -0.916031 -0.244114 0
M  V30 1659 H 153.887 -3.19765 -1.46434 0
M  V30 1660 H 153.761 -2.31672 -2.97671 0
M  V30 1661 H 156.148 -1.40015 -2.59769 0
M  V30 1662 H 156.229 -2.31605 -1.08594 0
M  V30 1663 H 155.873 -4.47553 -2.40123 0
M  V30 1664 H 155.803 -3.5288 -3.90875 0
M  V30 1665 H 158.294 -2.81743 -2.51852 0
M  V30 1666 H 158.607 -6.15943 -4.66727 0
M  V30 1667 H 156.952 -5.53514 -4.20294 0
M  V30 1668 H 160.143 -3.5455 -3.05634 0
M  V30 1669 H 160.316 -5.06934 -4.03636 0
M  V30 1670 N 153.722 1.14298 -1.08507 0
M  V30 1671 C 154.632 2.23027 -0.727753 0
M  V30 1672 C 155.648 1.71952 0.26619 0
M  V30 1673 O 156.824 2.011 0.109882 0
M  V30 1674 C 153.889 3.46403 -0.143541 0
M  V30 1675 C 152.95 4.12413 -1.19223 0
M  V30 1676 C 152.183 5.29899 -0.635798 0
M  V30 1677 O 152.406 5.67796 0.544393 0
M  V30 1678 O 151.34 5.85717 -1.38634 0
M  V30 1679 H 155.166 2.55945 -1.63481 0
M  V30 1680 H 152.751 1.22248 -0.858817 0
M  V30 1681 H 154.633 4.21018 0.179404 0
M  V30 1682 H 153.308 3.15206 0.736659 0
M  V30 1683 H 152.215 3.39667 -1.56772 0
M  V30 1684 H 153.548 4.47718 -2.04474 0
M  V30 1685 N 155.201 0.870884 1.31352 0
M  V30 1686 C 156.449 0.48132 1.96285 0
M  V30 1687 C 156.77 -0.969813 1.69173 0
M  V30 1688 O 156.04 -1.67998 1.00764 0
M  V30 1689 H 154.62 0.175002 0.726212 0
M  V30 1690 H 157.282 1.11087 1.60143 0
M  V30 1691 H 156.378 0.639825 3.05471 0
M  V30 1692 N 156.679 -1.44442 0.630414 0
M  V30 1693 C 157.909 -2.06115 0.141465 0
M  V30 1694 C 158.317 -1.47179 -1.1889 0
M  V30 1695 O 157.66 -0.588873 -1.74006 0
M  V30 1696 C 157.722 -3.59467 -0.0484355 0
M  V30 1697 C 157.386 -4.40864 1.20366 0
M  V30 1698 C 158.383 -4.74391 2.12719 0
M  V30 1699 C 156.068 -4.8125 1.43887 0
M  V30 1700 C 158.062 -5.47186 3.26904 0
M  V30 1701 C 155.749 -5.53795 2.5837 0
M  V30 1702 C 156.747 -5.86682 3.49705 0
M  V30 1703 O 156.435 -6.57749 4.62191 0
M  V30 1704 H 156.167 -0.671648 0.0765792 0
M  V30 1705 H 158.721 -1.86312 0.864695 0
M  V30 1706 H 156.951 -3.77758 -0.826803 0
M  V30 1707 H 158.64 -4.02909 -0.491849 0
M  V30 1708 H 159.406 -4.43728 1.95781 0
M  V30 1709 H 155.285 -4.55073 0.736853 0
M  V30 1710 H 158.829 -5.72773 3.98217 0
M  V30 1711 H 154.726 -5.83872 2.75251 0
M  V30 1712 H 155.494 -6.76217 4.61164 0
M  V30 1713 N 158.157 -0.370918 -1.53173 0
M  V30 1714 C 159.403 0.217423 -2.01631 0
M  V30 1715 C 159.736 1.47983 -1.25756 0
M  V30 1716 O 159.011 1.91274 -0.352764 0
M  V30 1717 C 159.294 0.503982 -3.56556 0
M  V30 1718 C 159.147 -0.77243 -4.43118 0
M  V30 1719 C 160.466 1.30234 -4.20389 0
M  V30 1720 H 157.585 0.0775486 -0.732909 0
M  V30 1721 H 160.227 -0.496863 -1.83388 0
M  V30 1722 H 158.377 1.11248 -3.72231 0
M  V30 1723 H 160.049 -1.4098 -4.39229 0
M  V30 1724 H 158.292 -1.39167 -4.10871 0
M  V30 1725 H 158.963 -0.526815 -5.4948 0
M  V30 1726 H 161.439 0.787546 -4.08579 0
M  V30 1727 H 160.315 1.47158 -5.28806 0
M  V30 1728 H 160.576 2.31237 -3.76805 0
M  V30 1729 N 159.635 1.57281 -0.100228 0
M  V30 1730 C 161.046 1.81725 0.428107 0
M  V30 1731 C 161.397 1.01619 1.67833 0
M  V30 1732 O 160.522 0.247098 2.14985 0
M  V30 1733 C 161.117 3.29617 0.78347 0
M  V30 1734 C 159.676 3.54808 1.25653 0
M  V30 1735 C 158.823 2.76118 0.255752 0
M  V30 1736 H 161.774 1.55324 -0.325608 0
M  V30 1737 H 161.795 3.4322 1.64256 0
M  V30 1738 H 161.307 3.87893 -0.12665 0
M  V30 1739 H 159.408 3.01868 2.18418 0
M  V30 1740 H 159.521 4.63443 1.21482 0
M  V30 1741 H 157.885 2.43745 0.738956 0
M  V30 1742 H 158.668 3.37145 -0.647136 0
M  V30 1743 N 161.113 -0.173488 1.56642 0
M  V30 1744 C 162.338 -0.910149 1.86363 0
M  V30 1745 C 162.763 -1.75132 0.686318 0
M  V30 1746 O 162.121 -1.77595 -0.364643 0
M  V30 1747 C 162.169 -1.76447 3.14482 0
M  V30 1748 O 161.273 -2.86584 2.96553 0
M  V30 1749 H 160.614 -0.255086 0.613047 0
M  V30 1750 H 163.144 -0.172283 2.03873 0
M  V30 1751 H 163.154 -2.16483 3.45831 0
M  V30 1752 H 161.829 -1.14658 3.99783 0
M  V30 1753 H 160.406 -2.50146 2.76553 0
M  V30 1754 N 162.591 -1.51276 -0.441967 0
M  V30 1755 C 163.539 -1.72823 -1.55676 0
M  V30 1756 C 164.533 -0.59445 -1.58627 0
M  V30 1757 O 165.739 -0.775715 -1.62427 0
M  V30 1758 H 162.114 -0.545983 -0.517113 0
M  V30 1759 H 164.085 -2.6628 -1.34675 0
M  V30 1760 C 162.834 -1.86619 -2.93375 0
M  V30 1761 H 162.157 -2.73264 -2.91834 0
M  V30 1762 H 163.597 -2.05709 -3.70756 0
M  V30 1763 C 162.056 -0.624842 -3.31055 0
M  V30 1764 O 162.586 0.222636 -4.01083 0
M  V30 1765 N 160.792 -0.470288 -2.86769 0
M  V30 1766 H 160.339 -1.161 -2.29953 0
M  V30 1767 H 160.297 0.359051 -3.12343 0
M  V30 1768 N 164.069 0.697108 -1.41344 0
M  V30 1769 C 165.316 1.45714 -1.40619 0
M  V30 1770 C 165.644 1.94494 -0.0147907 0
M  V30 1771 O 164.899 1.69794 0.973066 0
M  V30 1772 C 165.198 2.68553 -2.35826 0
M  V30 1773 C 164.864 2.38438 -3.82698 0
M  V30 1774 C 163.526 2.29936 -4.22709 0
M  V30 1775 C 165.878 2.13567 -4.75435 0
M  V30 1776 C 163.206 1.94656 -5.53467 0
M  V30 1777 C 165.558 1.79797 -6.06511 0
M  V30 1778 C 164.222 1.69789 -6.45545 0
M  V30 1779 H 163.492 0.533206 -0.51456 0
M  V30 1780 H 166.139 0.796901 -1.74131 0
M  V30 1781 H 164.444 3.39503 -1.95563 0
M  V30 1782 H 166.141 3.2669 -2.32539 0
M  V30 1783 H 162.731 2.4595 -3.51008 0
M  V30 1784 H 166.915 2.19082 -4.45328 0
M  V30 1785 H 162.171 1.8546 -5.82593 0
M  V30 1786 H 166.345 1.59572 -6.77872 0
M  V30 1787 H 163.972 1.4222 -7.46778 0
M  V30 1788 N 165.547 1.27147 0.931209 0
M  V30 1789 C 166.793 1.13446 1.68101 0
M  V30 1790 C 167.126 -0.319628 1.91552 0
M  V30 1791 O 166.401 -1.23407 1.50336 0
M  V30 1792 C 166.684 1.91482 3.0497 0
M  V30 1793 C 166.537 3.44855 2.88782 0
M  V30 1794 C 167.856 1.71651 4.05246 0
M  V30 1795 H 164.975 0.413498 0.610072 0
M  V30 1796 H 167.617 1.56261 1.08086 0
M  V30 1797 H 165.767 1.55095 3.56199 0
M  V30 1798 H 167.439 3.9105 2.44698 0
M  V30 1799 H 165.682 3.71373 2.24198 0
M  V30 1800 H 166.353 3.94694 3.85902 0
M  V30 1801 H 168.829 2.0337 3.63015 0
M  V30 1802 H 167.705 2.28651 4.99009 0
M  V30 1803 H 167.966 0.663555 4.37092 0
M  V30 1804 N 167.025 -1.13721 1.09112 0
M  V30 1805 C 167.988 -2.17222 0.731241 0
M  V30 1806 C 168.988 -1.59035 -0.237566 0
M  V30 1807 O 170.178 -1.74192 -0.0161704 0
M  V30 1808 C 167.31 -3.40804 0.0808443 0
M  V30 1809 H 168.503 -2.50573 1.64783 0
M  V30 1810 H 166.056 -1.28493 0.889897 0
M  V30 1811 H 166.791 -3.1304 -0.847127 0
M  V30 1812 H 166.576 -3.84306 0.777896 0
M  V30 1813 H 168.066 -4.1731 -0.155657 0
M  V30 1814 N 168.503 -0.877838 -1.30888 0
M  V30 1815 C 169.919 -0.570844 -1.49042 0
M  V30 1816 C 170.119 0.893159 -1.80624 0
M  V30 1817 O 169.175 1.67485 -1.88958 0
M  V30 1818 C 170.488 -1.47784 -2.61878 0
M  V30 1819 C 172.036 -1.48071 -2.75761 0
M  V30 1820 C 172.511 -2.37347 -3.91702 0
M  V30 1821 N 174.002 -2.35271 -3.99001 0
M  V30 1822 C 174.737 -3.01063 -4.88004 0
M  V30 1823 N 174.233 -3.76055 -5.81854 0
M  V30 1824 N 176.026 -2.90332 -4.81315 0
M  V30 1825 H 168.177 -1.82502 -1.0866 0
M  V30 1826 H 170.44 -0.780797 -0.537644 0
M  V30 1827 H 170.146 -2.51993 -2.45341 0
M  V30 1828 H 170.02 -1.18215 -3.58197 0
M  V30 1829 H 172.407 -0.446166 -2.91708 0
M  V30 1830 H 172.488 -1.81668 -1.80085 0
M  V30 1831 H 172.132 -3.40883 -3.76512 0
M  V30 1832 H 172.062 -2.01071 -4.86701 0
M  V30 1833 H 174.553 -1.80768 -3.3186 0
M  V30 1834 H 174.866 -4.23366 -6.46514 0
M  V30 1835 H 173.211 -3.80163 -5.81808 0
M  V30 1836 H 176.402 -2.31278 -4.06974 0
M  V30 1837 H 176.575 -3.41885 -5.50471 0
M  V30 1838 N 169.982 1.44106 -0.638065 0
M  V30 1839 C 171.228 2.02277 -0.145546 0
M  V30 1840 C 171.561 1.50125 1.23191 0
M  V30 1841 O 170.836 0.688133 1.8192 0
M  V30 1842 C 171.119 3.59829 -0.139791 0
M  V30 1843 C 170.972 4.22247 -1.55008 0
M  V30 1844 C 172.291 4.36873 0.531966 0
M  V30 1845 H 169.41 0.734992 -0.0543632 0
M  V30 1846 H 172.052 1.71592 -0.815863 0
M  V30 1847 H 170.202 3.86102 0.431007 0
M  V30 1848 H 171.874 4.07057 -2.1703 0
M  V30 1849 H 170.117 3.79476 -2.10191 0
M  V30 1850 H 170.788 5.31284 -1.49804 0
M  V30 1851 H 173.264 4.16074 0.0464781 0
M  V30 1852 H 172.14 5.4657 0.505206 0
M  V30 1853 H 172.401 4.11995 1.60352 0
M  V30 1854 N 171.46 0.379036 1.52974 0
M  V30 1855 C 172.37 -0.468639 2.29872 0
M  V30 1856 C 173.386 -1.08067 1.36373 0
M  V30 1857 O 174.562 -1.08871 1.69438 0
M  V30 1858 C 171.627 -1.58594 3.083 0
M  V30 1859 C 170.688 -1.00007 4.17489 0
M  V30 1860 C 169.921 -2.06413 4.92168 0
M  V30 1861 O 170.144 -3.27751 4.66835 0
M  V30 1862 O 169.078 -1.68717 5.7777 0
M  V30 1863 H 172.904 0.157508 3.03291 0
M  V30 1864 H 170.489 0.143035 1.48714 0
M  V30 1865 H 172.371 -2.23525 3.57232 0
M  V30 1866 H 171.046 -2.19724 2.37703 0
M  V30 1867 H 169.953 -0.314299 3.72777 0
M  V30 1868 H 171.286 -0.433135 4.90291 0
M  V30 1869 N 172.938 -1.57226 0.108567 0
M  V30 1870 C 174.163 -1.99604 -0.563303 0
M  V30 1871 C 174.588 -0.987563 -1.6009 0
M  V30 1872 O 173.946 0.0421687 -1.81251 0
M  V30 1873 C 173.994 -3.40902 -1.17552 0
M  V30 1874 O 173.098 -3.42896 -2.2912 0
M  V30 1875 H 172.439 -0.648704 -0.1417 0
M  V30 1876 H 174.969 -2.03679 0.193961 0
M  V30 1877 H 174.979 -3.78886 -1.51357 0
M  V30 1878 H 173.654 -4.1382 -0.415445 0
M  V30 1879 H 172.231 -3.1672 -1.96832 0
M  V30 1880 N 174.416 0.165178 -1.56732 0
M  V30 1881 C 175.346 1.20651 -1.99914 0
M  V30 1882 C 176.327 1.45827 -0.875705 0
M  V30 1883 O 177.512 1.57057 -1.14223 0
M  V30 1884 C 174.642 2.54401 -2.36427 0
M  V30 1885 C 173.596 2.43782 -3.51787 0
M  V30 1886 C 172.922 3.82078 -3.7406 0
M  V30 1887 C 174.222 1.93732 -4.85041 0
M  V30 1888 H 175.916 0.847534 -2.87154 0
M  V30 1889 H 173.462 0.40625 -1.38151 0
M  V30 1890 H 175.415 3.27458 -2.65234 0
M  V30 1891 H 174.139 2.92098 -1.46103 0
M  V30 1892 H 172.798 1.73178 -3.23117 0
M  V30 1893 H 172.446 4.17179 -2.81017 0
M  V30 1894 H 172.146 3.7584 -4.51684 0
M  V30 1895 H 173.67 4.56712 -4.05274 0
M  V30 1896 H 175.084 2.56569 -5.12684 0
M  V30 1897 H 173.481 1.98428 -5.66345 0
M  V30 1898 H 174.551 0.891962 -4.76626 0
M  V30 1899 N 175.894 1.51508 0.433938 0
M  V30 1900 C 176.804 1.75917 1.5521 0
M  V30 1901 C 177.82 0.643545 1.61662 0
M  V30 1902 O 178.996 0.926183 1.7884 0
M  V30 1903 C 176.061 1.88213 2.91164 0
M  V30 1904 C 175.122 3.12074 2.94802 0
M  V30 1905 C 174.355 3.23774 4.24271 0
M  V30 1906 O 174.578 2.4133 5.16833 0
M  V30 1907 O 173.512 4.16774 4.34262 0
M  V30 1908 H 177.338 2.70777 1.37527 0
M  V30 1909 H 174.923 1.36051 0.617293 0
M  V30 1910 H 176.805 1.98267 3.71845 0
M  V30 1911 H 175.48 0.965413 3.08968 0
M  V30 1912 H 174.387 3.07497 2.13065 0
M  V30 1913 H 175.72 4.03446 2.81943 0
M  V30 1914 N 177.372 -0.689602 1.41712 0
M  V30 1915 C 178.305 -1.81403 1.3845 0
M  V30 1916 C 179.283 -1.60653 0.250874 0
M  V30 1917 O 180.467 -1.83323 0.43874 0
M  V30 1918 C 177.594 -3.18176 1.1611 0
M  V30 1919 C 176.64 -3.57705 2.3227 0
M  V30 1920 S 177.473 -3.61827 3.94767 0
M  V30 1921 C 178.629 -5.01318 3.74742 0
M  V30 1922 H 178.862 -1.83893 2.33603 0
M  V30 1923 H 176.395 -0.858878 1.28307 0
M  V30 1924 H 178.353 -3.97132 1.03907 0
M  V30 1925 H 177.014 -3.13288 0.225668 0
M  V30 1926 H 176.207 -4.57082 2.12349 0
M  V30 1927 H 175.809 -2.86073 2.40911 0
M  V30 1928 H 178.101 -5.88986 3.34817 0
M  V30 1929 H 179.044 -5.26283 4.73743 0
M  V30 1930 H 179.452 -4.73138 3.07898 0
M  V30 1931 N 178.85 -1.27639 -0.924453 0
M  V30 1932 C 179.76 -1.12466 -2.05885 0
M  V30 1933 C 180.776 -0.053869 -1.73917 0
M  V30 1934 O 181.952 -0.261012 -1.99702 0
M  V30 1935 C 179.017 -0.776768 -3.37886 0
M  V30 1936 C 178.078 -1.92878 -3.83532 0
M  V30 1937 C 177.311 -1.59739 -5.09234 0
M  V30 1938 O 177.534 -0.506782 -5.68144 0
M  V30 1939 O 176.468 -2.43761 -5.50331 0
M  V30 1940 H 180.294 -2.07671 -2.21599 0
M  V30 1941 H 177.879 -1.06857 -1.04413 0
M  V30 1942 H 179.761 -0.596229 -4.17161 0
M  V30 1943 H 178.436 0.145732 -3.23372 0
M  V30 1944 H 177.343 -2.1644 -3.0513 0
M  V30 1945 H 178.676 -2.8316 -4.02593 0
M  V30 1946 N 180.328 1.1314 -1.09713 0
M  V30 1947 C 181.744 1.36477 -0.827423 0
M  V30 1948 C 181.944 1.93654 0.556817 0
M  V30 1949 O 181 2.15791 1.31112 0
M  V30 1950 C 182.313 2.31334 -1.92106 0
M  V30 1951 C 183.861 2.44943 -1.94864 0
M  V30 1952 C 184.336 3.4311 -3.0338 0
M  V30 1953 N 185.827 3.50662 -3.02639 0
M  V30 1954 C 186.562 4.2651 -3.83246 0
M  V30 1955 N 186.058 5.05485 -4.73768 0
M  V30 1956 N 187.851 4.2184 -3.71493 0
M  V30 1957 H 180.002 0.743807 -1.9895 0
M  V30 1958 H 182.265 0.389823 -0.864143 0
M  V30 1959 H 181.971 1.96483 -2.91698 0
M  V30 1960 H 181.845 3.31381 -1.80184 0
M  V30 1961 H 184.232 2.79079 -0.959099 0
M  V30 1962 H 184.313 1.4481 -2.10864 0
M  V30 1963 H 183.957 3.09704 -4.02549 0
M  V30 1964 H 183.887 4.43055 -2.84622 0
M  V30 1965 H 186.378 2.94315 -2.37039 0
M  V30 1966 H 186.691 5.60675 -5.3185 0
M  V30 1967 H 185.036 5.04708 -4.77802 0
M  V30 1968 H 188.227 3.5922 -3.00131 0
M  V30 1969 H 188.4 4.80697 -4.3455 0
M  V30 1970 N 181.806 0.884767 1.30421 0
M  V30 1971 C 183.052 0.513218 1.96819 0
M  V30 1972 C 183.407 -0.927347 1.68577 0
M  V30 1973 O 182.7 -1.64644 0.979941 0
M  V30 1974 C 182.894 0.724318 3.49983 0
M  V30 1975 C 182.723 2.18385 3.93113 0
M  V30 1976 C 181.493 2.82839 4.18725 0
M  V30 1977 C 183.691 3.15763 4.05953 0
M  V30 1978 N 181.673 4.1939 4.48314 0
M  V30 1979 C 183.044 4.37387 4.39423 0
M  V30 1980 C 185.099 3.11555 3.88379 0
M  V30 1981 C 183.802 5.55343 4.5715 0
M  V30 1982 C 185.828 4.28782 4.07308 0
M  V30 1983 C 185.19 5.49172 4.41123 0
M  V30 1984 H 181.289 0.237123 0.745182 0
M  V30 1985 H 183.873 1.14246 1.57658 0
M  V30 1986 H 182.044 0.124565 3.882 0
M  V30 1987 H 183.776 0.31969 4.03435 0
M  V30 1988 H 180.531 2.33708 4.11919 0
M  V30 1989 H 180.955 4.89911 4.67243 0
M  V30 1990 H 185.597 2.19576 3.61312 0
M  V30 1991 H 183.315 6.47826 4.8306 0
M  V30 1992 H 186.901 4.26995 3.95179 0
M  V30 1993 H 185.781 6.38371 4.55469 0
M  V30 1994 N 183.284 -1.43765 0.645699 0
M  V30 1995 C 184.531 -2.01898 0.15604 0
M  V30 1996 C 184.859 -1.50887 -1.22733 0
M  V30 1997 O 184.114 -0.689271 -1.8316 0
M  V30 1998 C 184.413 -3.57238 0.107679 0
M  V30 1999 C 184.079 -4.27564 1.43178 0
M  V30 2000 C 182.741 -4.46492 1.7944 0
M  V30 2001 C 185.093 -4.67454 2.30513 0
M  V30 2002 C 182.421 -5.02573 3.02716 0
M  V30 2003 C 184.773 -5.24901 3.53074 0
M  V30 2004 C 183.437 -5.42046 3.89541 0
M  V30 2005 H 182.707 -0.738797 0.057099 0
M  V30 2006 H 185.354 -1.72341 0.834912 0
M  V30 2007 H 183.659 -3.86293 -0.654618 0
M  V30 2008 H 185.356 -3.99965 -0.287938 0
M  V30 2009 H 181.946 -4.13171 1.13963 0
M  V30 2010 H 186.13 -4.5253 2.0379 0
M  V30 2011 H 181.386 -5.14033 3.31028 0
M  V30 2012 H 185.56 -5.54758 4.20971 0
M  V30 2013 H 183.187 -5.85268 4.85145 0
M  V30 2014 N 184.763 -0.387143 -1.52771 0
M  V30 2015 C 186.01 0.195735 -2.01552 0
M  V30 2016 C 186.338 1.46995 -1.27369 0
M  V30 2017 O 185.593 1.92325 -0.361879 0
M  V30 2018 C 185.892 0.512209 -3.53711 0
M  V30 2019 C 185.558 -0.670202 -4.45891 0
M  V30 2020 C 184.22 -0.994586 -4.70809 0
M  V30 2021 C 186.572 -1.46134 -5.00294 0
M  V30 2022 C 183.9 -2.11169 -5.4738 0
M  V30 2023 C 186.252 -2.56903 -5.78086 0
M  V30 2024 C 184.916 -2.89852 -6.01284 0
M  V30 2025 H 184.186 0.0716246 -0.73753 0
M  V30 2026 H 186.833 -0.524046 -1.8419 0
M  V30 2027 H 185.138 1.31329 -3.69134 0
M  V30 2028 H 186.835 0.975804 -3.88946 0
M  V30 2029 H 183.425 -0.407366 -4.2666 0
M  V30 2030 H 187.609 -1.22397 -4.80971 0
M  V30 2031 H 182.865 -2.3707 -5.63567 0
M  V30 2032 H 187.039 -3.18608 -6.19243 0
M  V30 2033 H 184.666 -3.76533 -6.60399 0
M  V30 2034 N 186.241 1.57166 -0.116904 0
M  V30 2035 C 187.657 1.5779 0.239693 0
M  V30 2036 C 187.857 1.1295 1.66867 0
M  V30 2037 O 186.913 0.81592 2.38954 0
M  V30 2038 C 188.226 3.00699 0.00828202 0
M  V30 2039 C 189.774 3.12912 0.0743438 0
M  V30 2040 C 190.249 4.57817 -0.129348 0
M  V30 2041 N 191.74 4.63139 -0.075247 0
M  V30 2042 C 192.475 5.73023 -0.207788 0
M  V30 2043 N 191.971 6.91665 -0.396382 0
M  V30 2044 N 193.764 5.61906 -0.14751 0
M  V30 2045 H 185.915 1.84615 -1.05029 0
M  V30 2046 H 188.178 0.85311 -0.41341 0
M  V30 2047 H 187.884 3.37784 -0.979531 0
M  V30 2048 H 187.758 3.69848 0.741077 0
M  V30 2049 H 190.145 2.75686 1.05268 0
M  V30 2050 H 190.226 2.4631 -0.690297 0
M  V30 2051 H 189.87 4.95742 -1.10465 0
M  V30 2052 H 189.8 5.22507 0.655253 0
M  V30 2053 H 192.291 3.7784 0.0670898 0
M  V30 2054 H 192.604 7.71255 -0.488437 0
M  V30 2055 H 190.949 6.93654 -0.432329 0
M  V30 2056 H 194.14 4.681 -0.00115036 0
M  V30 2057 H 194.313 6.47501 -0.254247 0
M  V30 2058 N 187.719 -0.156864 1.56817 0
M  V30 2059 C 188.944 -0.890331 1.87318 0
M  V30 2060 C 189.369 -1.74394 0.704855 0
M  V30 2061 O 188.727 -1.77972 -0.345786 0
M  V30 2062 C 188.775 -1.73102 3.16336 0
M  V30 2063 O 187.879 -2.83422 2.99576 0
M  V30 2064 H 187.22 -0.24857 0.615718 0
M  V30 2065 H 189.75 -0.150649 2.04045 0
M  V30 2066 H 189.76 -2.12803 3.48107 0
M  V30 2067 H 188.435 -1.10412 4.00976 0
M  V30 2068 H 187.012 -2.47199 2.7919 0
M  V30 2069 N 189.197 -1.51736 -0.425897 0
M  V30 2070 C 190.129 -1.70083 -1.53638 0
M  V30 2071 C 191.142 -0.581349 -1.52066 0
M  V30 2072 O 192.331 -0.856017 -1.56635 0
M  V30 2073 C 189.431 -1.71078 -2.9255 0
M  V30 2074 C 188.604 -2.99795 -3.185 0
M  V30 2075 C 187.663 -2.92825 -4.37196 0
M  V30 2076 O 186.689 -3.66756 -4.35291 0
M  V30 2077 N 187.891 -2.0946 -5.41393 0
M  V30 2078 H 190.656 -2.65882 -1.383 0
M  V30 2079 H 188.217 -1.49765 -0.614988 0
M  V30 2080 H 190.209 -1.63969 -3.69995 0
M  V30 2081 H 188.779 -0.828242 -3.01428 0
M  V30 2082 H 187.999 -3.20684 -2.2925 0
M  V30 2083 H 189.287 -3.84977 -3.32671 0
M  V30 2084 H 188.685 -1.48792 -5.45781 0
M  V30 2085 H 187.242 -2.08221 -6.17647 0
M  V30 2086 N 190.675 0.682077 -1.42076 0
M  V30 2087 C 191.923 1.4393 -1.41876 0
M  V30 2088 C 192.244 1.94971 -0.0335599 0
M  V30 2089 O 191.514 1.72591 0.926773 0
M  V30 2090 H 190.094 0.534085 -0.522267 0
M  V30 2091 H 192.756 0.806427 -1.77434 0
M  V30 2092 H 191.852 2.29588 -2.11414 0
M  V30 2093 N 192.153 1.28127 0.917671 0
M  V30 2094 C 193.569 1.05749 1.19538 0
M  V30 2095 C 193.769 -0.202633 2.00479 0
M  V30 2096 O 192.825 -0.905382 2.3571 0
M  V30 2097 C 194.138 2.30273 1.93378 0
M  V30 2098 C 195.686 2.35412 2.06277 0
M  V30 2099 C 196.161 3.59692 2.83524 0
M  V30 2100 N 197.652 3.60309 2.91087 0
M  V30 2101 C 198.387 4.53147 3.51348 0
M  V30 2102 N 197.883 5.563 4.12919 0
M  V30 2103 N 199.676 4.40751 3.48849 0
M  V30 2104 H 191.827 2.09024 0.377184 0
M  V30 2105 H 194.09 0.919798 0.22951 0
M  V30 2106 H 193.796 3.22055 1.41328 0
M  V30 2107 H 193.67 2.36378 2.93947 0
M  V30 2108 H 196.057 1.4413 2.57508 0
M  V30 2109 H 196.138 2.33304 1.04895 0
M  V30 2110 H 195.782 4.51316 2.32973 0
M  V30 2111 H 195.712 3.59054 3.85211 0
M  V30 2112 H 198.203 2.85714 2.47338 0
M  V30 2113 H 198.516 6.2329 4.56869 0
M  V30 2114 H 196.861 5.60131 4.11435 0
M  V30 2115 H 200.052 3.59367 2.99955 0
M  V30 2116 H 200.225 5.13291 3.9552 0
M  V30 2117 N 193.631 -1.12557 1.10312 0
M  V30 2118 C 194.578 -2.18247 0.750781 0
M  V30 2119 C 195.548 -1.63853 -0.272293 0
M  V30 2120 O 196.733 -1.90195 -0.151862 0
M  V30 2121 C 193.873 -3.44591 0.187379 0
M  V30 2122 C 192.986 -4.13046 1.2656 0
M  V30 2123 C 192.121 -5.27034 0.663978 0
M  V30 2124 C 191.16 -5.87353 1.72287 0
M  V30 2125 N 190.297 -6.92757 1.1416 0
M  V30 2126 H 195.137 -2.47732 1.65628 0
M  V30 2127 H 192.674 -1.21629 0.827337 0
M  V30 2128 H 194.632 -4.16904 -0.157148 0
M  V30 2129 H 193.262 -3.15527 -0.681355 0
M  V30 2130 H 192.314 -3.38924 1.72727 0
M  V30 2131 H 193.626 -4.53947 2.06721 0
M  V30 2132 H 192.78 -6.06104 0.268824 0
M  V30 2133 H 191.519 -4.87407 -0.169082 0
M  V30 2134 H 190.524 -5.06971 2.12746 0
M  V30 2135 H 191.749 -6.29051 2.55875 0
M  V30 2136 H 189.695 -6.5517 0.329984 0
M  V30 2137 H 189.612 -7.3225 1.88007 0
M  V30 2138 H 190.88 -7.75658 0.772956 0
M  V30 2139 N 195.109 -0.891671 -1.2995 0
M  V30 2140 C 196.019 -0.367691 -2.31701 0
M  V30 2141 C 197.035 0.533486 -1.6562 0
M  V30 2142 O 198.211 0.424997 -1.96865 0
M  V30 2143 C 195.276 0.403406 -3.44345 0
M  V30 2144 C 194.337 -0.528328 -4.26037 0
M  V30 2145 C 193.57 0.206063 -5.33302 0
M  V30 2146 O 193.793 1.43119 -5.52153 0
M  V30 2147 O 192.727 -0.447281 -6.00236 0
M  V30 2148 H 196.553 -1.21163 -2.78484 0
M  V30 2149 H 194.138 -0.655725 -1.34241 0
M  V30 2150 H 196.02 0.839753 -4.12948 0
M  V30 2151 H 194.695 1.22354 -2.99685 0
M  V30 2152 H 193.602 -1.01362 -3.60106 0
M  V30 2153 H 194.935 -1.31465 -4.74318 0
M  V30 2154 N 196.587 1.43421 -0.653314 0
M  V30 2155 C 197.55 2.29182 0.0287951 0
M  V30 2156 C 198.55 1.42213 0.750465 0
M  V30 2157 O 199.74 1.63843 0.591701 0
M  V30 2158 C 196.872 3.24278 1.05151 0
M  V30 2159 H 198.065 2.90985 -0.725786 0
M  V30 2160 H 195.618 1.50702 -0.414545 0
M  V30 2161 H 196.353 2.6737 1.83532 0
M  V30 2162 H 196.138 3.88396 0.537687 0
M  V30 2163 H 197.628 3.88647 1.52786 0
M  V30 2164 N 198.065 0.39524 1.52563 0
M  V30 2165 C 198.975 -0.444232 2.30356 0
M  V30 2166 C 199.991 -1.06615 1.37511 0
M  V30 2167 O 201.167 -1.07067 1.70583 0
M  V30 2168 C 198.232 -1.55315 3.09964 0
M  V30 2169 C 197.293 -0.955734 4.18526 0
M  V30 2170 C 196.526 -2.01181 4.9433 0
M  V30 2171 O 196.749 -3.22781 4.70285 0
M  V30 2172 O 195.683 -1.62579 5.79527 0
M  V30 2173 H 199.509 0.189667 3.03107 0
M  V30 2174 H 197.094 0.1588 1.48554 0
M  V30 2175 H 198.976 -2.19724 3.59582 0
M  V30 2176 H 197.651 -2.17191 2.4002 0
M  V30 2177 H 196.558 -0.274743 3.7309 0
M  V30 2178 H 197.891 -0.381109 4.90722 0
M  V30 2179 N 199.544 -1.57102 0.125237 0
M  V30 2180 C 200.96 -1.57915 -0.231322 0
M  V30 2181 C 201.16 -1.13833 -1.66266 0
M  V30 2182 O 200.216 -0.828581 -2.38518 0
M  V30 2183 C 201.529 -3.00699 0.00766489 0
M  V30 2184 C 203.077 -3.12947 -0.0577483 0
M  V30 2185 C 203.552 -4.57742 0.153626 0
M  V30 2186 N 205.043 -4.63092 0.0998073 0
M  V30 2187 C 205.778 -5.72905 0.238174 0
M  V30 2188 N 205.274 -6.91445 0.433057 0
M  V30 2189 N 207.067 -5.6182 0.177308 0
M  V30 2190 H 199.218 -1.84055 1.06007 0
M  V30 2191 H 201.481 -0.850905 0.417929 0
M  V30 2192 H 201.187 -3.3726 0.997431 0
M  V30 2193 H 201.061 -3.70236 -0.721452 0
M  V30 2194 H 203.448 -2.7624 -1.03804 0
M  V30 2195 H 203.529 -2.4594 0.70335 0
M  V30 2196 H 203.173 -4.95149 1.13092 0
M  V30 2197 H 203.103 -5.22848 -0.627534 0
M  V30 2198 H 205.594 -3.77871 -0.047051 0
M  V30 2199 H 205.907 -7.70985 0.529332 0
M  V30 2200 H 204.252 -6.93415 0.469109 0
M  V30 2201 H 207.443 -4.68093 0.0259748 0
M  V30 2202 H 207.616 -6.47357 0.288582 0
M  V30 2203 N 201.022 0.148545 -1.56898 0
M  V30 2204 C 201.954 1.20852 -1.9475 0
M  V30 2205 C 202.967 1.39265 -0.843152 0
M  V30 2206 O 204.156 1.38864 -1.12156 0
M  V30 2207 C 201.256 2.57362 -2.20495 0
M  V30 2208 C 200.429 2.59947 -3.51776 0
M  V30 2209 C 199.488 3.77984 -3.6608 0
M  V30 2210 O 198.514 3.62929 -4.38487 0
M  V30 2211 N 199.716 4.95375 -3.02629 0
M  V30 2212 H 202.481 0.886804 -2.86279 0
M  V30 2213 H 200.042 0.338121 -1.5833 0
M  V30 2214 H 202.034 3.34833 -2.27307 0
M  V30 2215 H 200.604 2.81832 -1.35238 0
M  V30 2216 H 199.824 1.68403 -3.56419 0
M  V30 2217 H 201.112 2.58704 -4.38121 0
M  V30 2218 H 200.51 5.10509 -2.43715 0
M  V30 2219 H 199.067 5.70627 -3.15004 0
M  V30 2220 N 202.5 1.5196 0.417844 0
M  V30 2221 C 203.43 1.77634 1.51554 0
M  V30 2222 C 204.411 0.626918 1.58126 0
M  V30 2223 O 205.596 0.871632 1.7354 0
M  V30 2224 C 202.726 1.91911 2.8946 0
M  V30 2225 C 201.68 3.07463 2.97743 0
M  V30 2226 C 201.006 3.06951 4.37819 0
M  V30 2227 C 202.306 4.47082 2.70027 0
M  V30 2228 H 204 2.6955 1.3032 0
M  V30 2229 H 201.546 1.29706 0.625492 0
M  V30 2230 H 203.499 2.08455 3.6623 0
M  V30 2231 H 202.223 0.966598 3.11969 0
M  V30 2232 H 200.882 2.90656 2.23416 0
M  V30 2233 H 200.53 2.09438 4.57323 0
M  V30 2234 H 200.23 3.84556 4.44286 0
M  V30 2235 H 201.754 3.25613 5.16535 0
M  V30 2236 H 203.168 4.6414 3.36522 0
M  V30 2237 H 201.565 5.2654 2.87881 0
M  V30 2238 H 202.635 4.55777 1.65514 0
M  V30 2239 N 203.978 -0.674533 1.42435 0
M  V30 2240 C 204.908 -1.80009 1.48724 0
M  V30 2241 C 205.889 -1.6659 0.343793 0
M  V30 2242 O 207.074 -1.86007 0.558137 0
M  V30 2243 C 204.204 -3.18306 1.38919 0
M  V30 2244 C 203.158 -3.46461 2.51294 0
M  V30 2245 C 202.484 -4.84335 2.26547 0
M  V30 2246 C 203.784 -3.43328 3.93603 0
M  V30 2247 H 205.478 -1.75004 2.42928 0
M  V30 2248 H 203.024 -0.840533 1.16923 0
M  V30 2249 H 204.977 -3.9678 1.41927 0
M  V30 2250 H 203.701 -3.2399 0.412094 0
M  V30 2251 H 202.36 -2.70348 2.47604 0
M  V30 2252 H 202.008 -4.86669 1.2713 0
M  V30 2253 H 201.708 -5.04136 3.01861 0
M  V30 2254 H 203.232 -5.65094 2.31304 0
M  V30 2255 H 204.646 -4.11772 3.98894 0
M  V30 2256 H 203.043 -3.74664 4.68771 0
M  V30 2257 H 204.113 -2.41897 4.20255 0
M  V30 2258 N 205.456 -1.28612 -0.910864 0
M  V30 2259 C 206.419 -1.12803 -1.9952 0
M  V30 2260 C 207.419 -0.0668264 -1.60661 0
M  V30 2261 O 208.609 -0.312847 -1.71368 0
M  V30 2262 C 205.741 -0.72254 -3.33155 0
M  V30 2263 H 206.934 -2.09109 -2.14973 0
M  V30 2264 H 204.487 -1.11639 -1.09391 0
M  V30 2265 H 205.222 0.241152 -3.23402 0
M  V30 2266 H 205.007 -1.48916 -3.62721 0
M  V30 2267 H 206.497 -0.634666 -4.12749 0
M  V30 2268 N 206.934 1.1197 -1.10907 0
M  V30 2269 C 208.345 1.65114 -0.871446 0
M  V30 2270 C 208.696 1.86885 0.597353 0
M  V30 2271 O 207.821 1.59896 1.45816 0
M  V30 2272 C 208.416 2.99944 -1.5754 0
M  V30 2273 C 206.975 3.50018 -1.38435 0
M  V30 2274 C 206.122 2.24941 -1.62164 0
M  V30 2275 H 209.073 0.956851 -1.2661 0
M  V30 2276 H 209.094 3.66651 -1.01721 0
M  V30 2277 H 208.606 2.84067 -2.64438 0
M  V30 2278 H 206.707 3.71071 -0.337214 0
M  V30 2279 H 206.82 4.29165 -2.12965 0
M  V30 2280 H 205.184 2.3229 -1.04467 0
M  V30 2281 H 205.967 2.11612 -2.70324 0
M  V30 2282 N 208.412 0.89855 1.29475 0
M  V30 2283 C 209.661 0.519863 1.94885 0
M  V30 2284 C 209.974 -0.9383 1.71625 0
M  V30 2285 O 211.18 -1.42445 2.31131 0
M  V30 2286 C 209.636 0.878836 3.49005 0
M  V30 2287 C 209.244 2.35569 3.81066 0
M  V30 2288 C 210.988 0.570004 4.20656 0
M  V30 2289 C 208.895 2.65558 5.28425 0
M  V30 2290 H 207.825 0.190692 0.729488 0
M  V30 2291 H 210.476 1.09539 1.47219 0
M  V30 2292 H 208.858 0.232253 3.95318 0
M  V30 2293 H 210.032 3.04773 3.45616 0
M  V30 2294 H 208.347 2.63343 3.22552 0
M  V30 2295 H 210.944 0.770925 5.29113 0
M  V30 2296 H 211.287 -0.491404 4.1339 0
M  V30 2297 H 211.82 1.17438 3.8007 0
M  V30 2298 H 208.559 3.70493 5.40754 0
M  V30 2299 H 208.079 2.00977 5.65127 0
M  V30 2300 H 209.758 2.51765 5.96006 0
M  V30 2301 N 209.89 -1.43072 0.660911 0
M  V30 2302 C 210.838 -2.32569 -0.0378199 0
M  V30 2303 C 211.832 -1.49046 -0.805092 0
M  V30 2304 O 213.038 -1.65206 -0.714624 0
M  V30 2305 H 209.413 -0.75136 -0.031019 0
M  V30 2306 H 211.384 -2.89216 0.734609 0
M  V30 2307 C 210.133 -3.33453 -0.985124 0
M  V30 2308 H 209.456 -3.97752 -0.404147 0
M  V30 2309 H 210.896 -3.98691 -1.44297 0
M  V30 2310 C 209.355 -2.64642 -2.08486 0
M  V30 2311 O 209.885 -2.46776 -3.16961 0
M  V30 2312 N 208.091 -2.23891 -1.8526 0
M  V30 2313 H 207.638 -2.38621 -0.970449 0
M  V30 2314 H 207.596 -1.78181 -2.59034 0
M  V30 2315 N 211.368 -0.403325 -1.52352 0
M  V30 2316 C 212.315 0.425011 -2.26853 0
M  V30 2317 C 213.285 1.04598 -1.29029 0
M  V30 2318 O 214.47 1.07135 -1.57882 0
M  V30 2319 C 211.61 1.53888 -3.08889 0
M  V30 2320 C 210.723 0.939396 -4.21663 0
M  V30 2321 C 209.858 2.02547 -4.91068 0
M  V30 2322 C 208.897 1.40263 -5.95813 0
M  V30 2323 N 208.034 2.4286 -6.58759 0
M  V30 2324 H 212.874 -0.21674 -2.97211 0
M  V30 2325 H 210.411 -0.118722 -1.4662 0
M  V30 2326 H 212.369 2.19558 -3.54753 0
M  V30 2327 H 210.999 2.15074 -2.40714 0
M  V30 2328 H 210.051 0.171898 -3.80011 0
M  V30 2329 H 211.363 0.44436 -4.96817 0
M  V30 2330 H 210.517 2.75958 -5.40308 0
M  V30 2331 H 209.256 2.55415 -4.15469 0
M  V30 2332 H 208.261 0.653833 -5.45898 0
M  V30 2333 H 209.486 0.881719 -6.73352 0
M  V30 2334 H 207.432 2.94871 -5.85992 0
M  V30 2335 H 207.349 1.98152 -7.2957 0
M  V30 2336 H 208.617 3.15858 -7.12639 0
M  V30 2337 N 212.846 1.57033 -0.133567 0
M  V30 2338 C 213.809 2.14897 0.796995 0
M  V30 2339 C 214.809 1.0874 1.18458 0
M  V30 2340 O 215.999 1.34446 1.1077 0
M  V30 2341 C 213.131 2.70112 2.07973 0
M  V30 2342 H 214.324 2.98457 0.293873 0
M  V30 2343 H 211.877 1.55871 0.115787 0
M  V30 2344 H 212.612 1.9018 2.62682 0
M  V30 2345 H 212.397 3.47764 1.81115 0
M  V30 2346 H 213.887 3.14738 2.74462 0
M  V30 2347 N 214.325 -0.140222 1.56975 0
M  V30 2348 C 215.573 -0.850005 1.83356 0
M  V30 2349 C 215.894 -1.81399 0.71551 0
M  V30 2350 O 215.164 -1.94136 -0.262294 0
M  V30 2351 H 213.744 -0.316886 0.676456 0
M  V30 2352 H 216.406 -0.132608 1.94448 0
M  V30 2353 H 215.502 -1.40814 2.78528 0
M  V30 2354 N 215.803 -1.52179 -0.40978 0
M  V30 2355 C 217.028 -1.70347 -1.18308 0
M  V30 2356 C 217.453 -0.411887 -1.83535 0
M  V30 2357 O 216.811 0.630587 -1.6998 0
M  V30 2358 C 216.859 -2.83977 -2.22238 0
M  V30 2359 O 215.963 -2.495 -3.28365 0
M  V30 2360 H 215.304 -0.567103 -0.345384 0
M  V30 2361 H 217.834 -1.98879 -0.480445 0
M  V30 2362 H 217.844 -3.0887 -2.66577 0
M  V30 2363 H 216.519 -3.77685 -1.74146 0
M  V30 2364 H 215.096 -2.35277 -2.89308 0
M  V30 2365 N 217.281 0.66697 -1.42791 0
M  V30 2366 C 218.528 1.42699 -1.43678 0
M  V30 2367 C 218.856 1.94419 -0.0560425 0
M  V30 2368 O 218.111 1.7182 0.936831 0
M  V30 2369 C 218.41 2.6349 -2.4147 0
M  V30 2370 C 218.076 2.30267 -3.8767 0
M  V30 2371 C 216.738 2.20918 -4.27491 0
M  V30 2372 C 219.09 2.03435 -4.79858 0
M  V30 2373 C 216.418 1.82873 -5.57471 0
M  V30 2374 C 218.77 1.66892 -6.10188 0
M  V30 2375 C 217.434 1.56058 -6.49001 0
M  V30 2376 H 216.704 0.522171 -0.525755 0
M  V30 2377 H 219.351 0.759785 -1.75783 0
M  V30 2378 H 217.656 3.35279 -2.0272 0
M  V30 2379 H 219.353 3.21684 -2.39417 0
M  V30 2380 H 215.943 2.38449 -3.56146 0
M  V30 2381 H 220.127 2.09586 -4.49875 0
M  V30 2382 H 215.383 1.7306 -5.86396 0
M  V30 2383 H 219.557 1.45157 -6.81104 0
M  V30 2384 H 217.184 1.26348 -7.49627 0
M  V30 2385 N 218.759 1.29093 0.90403 0
M  V30 2386 C 219.689 1.16401 2.02418 0
M  V30 2387 C 220.67 0.0593085 1.69997 0
M  V30 2388 O 221.855 0.238021 1.92736 0
M  V30 2389 C 218.985 0.835233 3.37107 0
M  V30 2390 C 217.939 1.89578 3.83724 0
M  V30 2391 C 217.265 1.42041 5.15489 0
M  V30 2392 C 218.565 3.30394 4.04521 0
M  V30 2393 H 220.259 2.10109 2.13295 0
M  V30 2394 H 217.805 1.01157 1.02486 0
M  V30 2395 H 219.758 0.733169 4.14973 0
M  V30 2396 H 218.482 -0.137543 3.2631 0
M  V30 2397 H 217.141 1.98715 3.08071 0
M  V30 2398 H 216.789 0.436426 5.01103 0
M  V30 2399 H 216.489 2.12964 5.4765 0
M  V30 2400 H 218.013 1.33176 5.959 0
M  V30 2401 H 219.427 3.24123 4.72882 0
M  V30 2402 H 217.824 3.99237 4.48029 0
M  V30 2403 H 218.894 3.73692 3.09002 0
M  V30 2404 N 220.237 -1.11381 1.11499 0
M  V30 2405 C 221.486 -1.82494 0.858993 0
M  V30 2406 C 221.799 -1.85605 -0.617278 0
M  V30 2407 O 223.005 -2.52824 -0.989552 0
M  V30 2408 C 221.461 -3.27745 1.48699 0
M  V30 2409 C 221.069 -3.32961 2.99735 0
M  V30 2410 C 222.813 -4.03754 1.31085 0
M  V30 2411 C 220.72 -4.72612 3.55516 0
M  V30 2412 H 219.65 -0.683802 0.317696 0
M  V30 2413 H 222.301 -1.25331 1.34031 0
M  V30 2414 H 220.683 -3.84844 0.933339 0
M  V30 2415 H 221.857 -2.85741 3.61509 0
M  V30 2416 H 220.172 -2.70433 3.16631 0
M  V30 2417 H 222.769 -5.06891 1.70192 0
M  V30 2418 H 223.112 -4.15527 0.253496 0
M  V30 2419 H 223.645 -3.53043 1.83318 0
M  V30 2420 H 220.384 -4.66036 4.60967 0
M  V30 2421 H 219.904 -5.2024 2.98513 0
M  V30 2422 H 221.583 -5.4157 3.53992 0
M  V30 2423 N 221.715 -0.905404 -1.28997 0
M  V30 2424 C 223.131 -0.60233 -1.47798 0
M  V30 2425 C 223.331 0.854645 -1.82478 0
M  V30 2426 O 222.387 1.63439 -1.92468 0
M  V30 2427 C 223.7 -1.53306 -2.58685 0
M  V30 2428 C 225.248 -1.53887 -2.72558 0
M  V30 2429 C 225.723 -2.45602 -3.86579 0
M  V30 2430 N 227.214 -2.43681 -3.93921 0
M  V30 2431 C 227.949 -3.11347 -4.81509 0
M  V30 2432 N 227.445 -3.88313 -5.73746 0
M  V30 2433 N 229.238 -3.00476 -4.75048 0
M  V30 2434 H 221.389 -1.84765 -1.04764 0
M  V30 2435 H 223.652 -0.792025 -0.520961 0
M  V30 2436 H 223.358 -2.57141 -2.39941 0
M  V30 2437 H 223.232 -1.25787 -3.55609 0
M  V30 2438 H 225.619 -0.507941 -2.90696 0
M  V30 2439 H 225.7 -1.85447 -1.76191 0
M  V30 2440 H 225.344 -3.48792 -3.69197 0
M  V30 2441 H 225.274 -2.11349 -4.82327 0
M  V30 2442 H 227.765 -1.87767 -3.27951 0
M  V30 2443 H 228.078 -4.36985 -6.37389 0
M  V30 2444 H 226.423 -3.92419 -5.73614 0
M  V30 2445 H 229.614 -2.39858 -4.01977 0
M  V30 2446 H 229.787 -3.53485 -5.43095 0
M  V30 2447 N 223.193 1.4272 -0.668489 0
M  V30 2448 C 224.103 2.34596 0.0139753 0
M  V30 2449 C 225.119 1.5474 0.795703 0
M  V30 2450 O 226.295 1.87334 0.739466 0
M  V30 2451 C 223.36 3.33202 0.957982 0
M  V30 2452 C 222.421 4.28957 0.17149 0
M  V30 2453 C 221.654 5.22853 1.07053 0
M  V30 2454 O 221.877 5.21531 2.31001 0
M  V30 2455 O 220.811 5.9952 0.534727 0
M  V30 2456 H 224.637 2.9448 -0.742661 0
M  V30 2457 H 222.222 1.43117 -0.428705 0
M  V30 2458 H 224.104 3.93796 1.50008 0
M  V30 2459 H 222.779 2.758 1.69458 0
M  V30 2460 H 221.686 3.71796 -0.414558 0
M  V30 2461 H 223.019 4.89383 -0.52586 0
M  V30 2462 N 224.671 0.411399 1.52136 0
M  V30 2463 C 225.896 -0.165538 2.06738 0
M  V30 2464 C 226.321 -1.379 1.27926 0
M  V30 2465 O 225.679 -1.78628 0.310114 0
M  V30 2466 C 225.727 -0.492124 3.57226 0
M  V30 2467 O 224.831 -1.58276 3.80818 0
M  V30 2468 H 224.172 -0.0132132 0.663869 0
M  V30 2469 H 226.702 0.585253 1.96051 0
M  V30 2470 H 226.712 -0.750104 4.01045 0
M  V30 2471 H 225.387 0.394922 4.14021 0
M  V30 2472 H 223.964 -1.31677 3.48877 0
M  V30 2473 N 226.149 -1.5696 0.141893 0
M  V30 2474 C 227.059 -2.20066 -0.812905 0
M  V30 2475 C 228.075 -1.18344 -1.27557 0
M  V30 2476 O 229.251 -1.50902 -1.33381 0
M  V30 2477 C 226.316 -2.80583 -2.03652 0
M  V30 2478 C 225.377 -3.97414 -1.62359 0
M  V30 2479 C 224.61 -4.55036 -2.78887 0
M  V30 2480 O 224.833 -4.11538 -3.94959 0
M  V30 2481 O 223.767 -5.45376 -2.54653 0
M  V30 2482 H 227.593 -3.02157 -0.305746 0
M  V30 2483 H 225.178 -1.49159 -0.0848799 0
M  V30 2484 H 227.06 -3.19067 -2.75272 0
M  V30 2485 H 225.735 -2.01508 -2.5333 0
M  V30 2486 H 224.642 -3.63656 -0.877775 0
M  V30 2487 H 225.975 -4.77994 -1.17401 0
M  V30 2488 N 227.627 0.131896 -1.57047 0
M  V30 2489 C 228.855 0.856461 -1.88341 0
M  V30 2490 C 229.27 1.74042 -0.731757 0
M  V30 2491 O 228.627 1.80051 0.297945 0
M  V30 2492 C 228.678 1.70064 -3.18999 0
M  V30 2493 O 228.399 0.852278 -4.2973 0
M  V30 2494 C 229.9 2.53148 -3.63911 0
M  V30 2495 H 227.12 0.246885 -0.62393 0
M  V30 2496 H 229.664 0.120152 -2.04147 0
M  V30 2497 H 227.819 2.38984 -3.04902 0
M  V30 2498 H 228.233 1.43329 -5.04537 0
M  V30 2499 H 229.707 3.07931 -4.58129 0
M  V30 2500 H 230.184 3.29901 -2.89935 0
M  V30 2501 H 230.79 1.89492 -3.80753 0
M  V30 2502 N 229.106 1.52395 0.401703 0
M  V30 2503 C 230.054 1.7689 1.51039 0
M  V30 2504 C 231.048 0.636298 1.56996 0
M  V30 2505 O 232.254 0.818507 1.60314 0
M  V30 2506 H 228.629 0.559502 0.502456 0
M  V30 2507 H 230.6 2.69757 1.27568 0
M  V30 2508 C 229.349 1.94331 2.88324 0
M  V30 2509 H 228.672 2.80905 2.84486 0
M  V30 2510 H 230.112 2.15466 3.65172 0
M  V30 2511 C 228.571 0.712396 3.29282 0
M  V30 2512 O 229.101 -0.116218 4.01532 0
M  V30 2513 N 227.307 0.546154 2.85422 0
M  V30 2514 H 226.854 1.22156 2.26794 0
M  V30 2515 H 226.812 -0.276113 3.13185 0
M  V30 2516 N 230.584 -0.659388 1.43143 0
M  V30 2517 C 231.531 -1.77249 1.47822 0
M  V30 2518 C 232.501 -1.62818 0.328558 0
M  V30 2519 O 233.686 -1.83151 0.534838 0
M  V30 2520 C 230.826 -3.15371 1.40126 0
M  V30 2521 C 229.939 -3.4098 2.65249 0
M  V30 2522 C 229.074 -4.68915 2.49584 0
M  V30 2523 C 228.113 -4.87608 3.70006 0
M  V30 2524 N 227.25 -6.06796 3.53189 0
M  V30 2525 H 232.09 -1.72584 2.42938 0
M  V30 2526 H 229.627 -0.842297 1.20598 0
M  V30 2527 H 231.585 -3.9521 1.33659 0
M  V30 2528 H 230.215 -3.19121 0.485964 0
M  V30 2529 H 229.267 -2.55282 2.8202 0
M  V30 2530 H 230.579 -3.50681 3.54717 0
M  V30 2531 H 229.733 -5.56871 2.4079 0
M  V30 2532 H 228.472 -4.61524 1.5763 0
M  V30 2533 H 227.477 -3.9809 3.79215 0
M  V30 2534 H 228.702 -4.96834 4.62961 0
M  V30 2535 H 226.648 -6.00549 2.63965 0
M  V30 2536 H 226.565 -6.17428 4.36255 0
M  V30 2537 H 227.833 -6.9739 3.48236 0
M  V30 2538 N 232.062 -1.29571 -0.897171 0
M  V30 2539 C 233.31 -1.17456 -1.64464 0
M  V30 2540 C 233.631 0.273698 -1.9307 0
M  V30 2541 O 232.901 1.18684 -1.55855 0
M  V30 2542 H 231.481 -0.431706 -0.609622 0
M  V30 2543 H 234.143 -1.62531 -1.07562 0
M  V30 2544 H 233.239 -1.72648 -2.59998 0
M  V30 2545 N 233.54 1.10788 -1.12088 0
M  V30 2546 C 234.503 2.15207 -0.788577 0
M  V30 2547 C 235.503 1.59609 0.195317 0
M  V30 2548 O 236.693 1.74174 -0.0300193 0
M  V30 2549 C 233.825 3.4047 -0.171174 0
M  V30 2550 H 235.018 2.46116 -1.71368 0
M  V30 2551 H 232.571 1.26089 -0.923652 0
M  V30 2552 H 233.306 3.15176 0.763832 0
M  V30 2553 H 233.091 3.82109 -0.879514 0
M  V30 2554 H 234.581 4.17576 0.04496 0
M  V30 2555 N 235.018 0.912232 1.28515 0
M  V30 2556 C 236.265 0.544599 1.95039 0
M  V30 2557 C 236.593 -0.911435 1.71823 0
M  V30 2558 O 235.848 -1.66317 1.03137 0
M  V30 2559 C 236.147 0.798392 3.48368 0
M  V30 2560 C 235.813 2.23374 3.91682 0
M  V30 2561 C 234.475 2.62617 4.03219 0
M  V30 2562 C 236.827 3.16786 4.13879 0
M  V30 2563 C 234.155 3.94429 4.3433 0
M  V30 2564 C 236.507 4.48161 4.46469 0
M  V30 2565 C 235.171 4.8726 4.56217 0
M  V30 2566 H 234.441 0.199283 0.7137 0
M  V30 2567 H 237.088 1.15327 1.52879 0
M  V30 2568 H 235.393 0.106908 3.91654 0
M  V30 2569 H 237.09 0.493141 3.97956 0
M  V30 2570 H 233.68 1.91922 3.83228 0
M  V30 2571 H 237.864 2.87677 4.0442 0
M  V30 2572 H 233.12 4.24426 4.40082 0
M  V30 2573 H 237.294 5.20559 4.62592 0
M  V30 2574 H 234.921 5.89431 4.80078 0
M  V30 2575 N 236.496 -1.42363 0.676048 0
M  V30 2576 C 237.721 -2.06377 0.205705 0
M  V30 2577 C 238.146 -1.50463 -1.12883 0
M  V30 2578 O 237.504 -0.623619 -1.70237 0
M  V30 2579 C 237.552 -3.60277 0.152655 0
M  V30 2580 O 236.656 -4.02935 -0.87845 0
M  V30 2581 H 235.997 -0.655588 0.105359 0
M  V30 2582 H 238.527 -1.82475 0.925412 0
M  V30 2583 H 238.537 -4.07993 -0.0230675 0
M  V30 2584 H 237.212 -4.00346 1.12675 0
M  V30 2585 H 235.789 -3.66764 -0.673668 0
M  V30 2586 N 237.974 -0.419461 -1.51915 0
M  V30 2587 C 238.904 0.391813 -2.30189 0
M  V30 2588 C 239.885 1.03699 -1.34836 0
M  V30 2589 O 241.07 1.04403 -1.63748 0
M  V30 2590 C 238.2 1.50312 -3.13087 0
M  V30 2591 C 237.154 0.9824 -4.16573 0
M  V30 2592 C 236.48 2.18809 -4.8788 0
M  V30 2593 C 237.78 0.0292356 -5.22292 0
M  V30 2594 H 239.474 -0.26135 -2.98257 0
M  V30 2595 H 237.02 -0.127134 -1.43438 0
M  V30 2596 H 238.973 2.07773 -3.66617 0
M  V30 2597 H 237.697 2.18431 -2.42807 0
M  V30 2598 H 236.356 0.430119 -3.64068 0
M  V30 2599 H 236.004 2.85507 -4.14119 0
M  V30 2600 H 235.704 1.84615 -5.57845 0
M  V30 2601 H 237.228 2.76858 -5.44226 0
M  V30 2602 H 238.642 0.512976 -5.71 0
M  V30 2603 H 237.039 -0.2244 -5.9968 0
M  V30 2604 H 238.109 -0.912931 -4.76228 0
M  V30 2605 N 239.452 1.56882 -0.150215 0
M  V30 2606 C 240.677 2.01027 0.510184 0
M  V30 2607 C 241.102 1.02966 1.57415 0
M  V30 2608 O 240.46 0.00590158 1.81299 0
M  V30 2609 C 240.508 3.43899 1.08472 0
M  V30 2610 O 239.612 3.4885 2.19948 0
M  V30 2611 H 238.953 0.652233 0.124451 0
M  V30 2612 H 241.483 2.03093 -0.247894 0
M  V30 2613 H 241.493 3.82766 1.41259 0
M  V30 2614 H 240.168 4.14776 0.305582 0
M  V30 2615 H 238.745 3.21827 1.88366 0
M  V30 2616 N 240.93 -0.123565 1.57115 0
M  V30 2617 C 242.176 -0.833386 1.84885 0
M  V30 2618 C 242.509 -1.79742 0.735292 0
M  V30 2619 O 241.784 -1.92764 -0.25925 0
M  V30 2620 C 242.067 -1.5873 3.23228 0
M  V30 2621 C 241.92 -0.643183 4.45178 0
M  V30 2622 C 243.239 -2.54453 3.59085 0
M  V30 2623 H 240.358 -0.301518 0.6725 0
M  V30 2624 H 243 -0.097778 1.89748 0
M  V30 2625 H 241.15 -2.21438 3.19214 0
M  V30 2626 H 242.822 -0.0253015 4.61293 0
M  V30 2627 H 241.065 0.0456139 4.33776 0
M  V30 2628 H 241.736 -1.20724 5.38637 0
M  V30 2629 H 244.212 -2.01853 3.63861 0
M  V30 2630 H 243.088 -3.04238 4.5687 0
M  V30 2631 H 243.349 -3.36906 2.86264 0
M  V30 2632 N 242.408 -1.52605 -0.393616 0
M  V30 2633 C 243.355 -1.77055 -1.48054 0
M  V30 2634 C 244.325 -0.61358 -1.54352 0
M  V30 2635 O 245.51 -0.852806 -1.70681 0
M  V30 2636 C 242.65 -1.94108 -2.85335 0
M  V30 2637 C 241.763 -3.21792 -2.88226 0
M  V30 2638 C 240.898 -3.29188 -4.16904 0
M  V30 2639 C 239.937 -4.51013 -4.13828 0
M  V30 2640 N 239.074 -4.55716 -5.34105 0
M  V30 2641 H 243.914 -2.69815 -1.26506 0
M  V30 2642 H 241.451 -1.33683 -0.61379 0
M  V30 2643 H 243.409 -2.01979 -3.65049 0
M  V30 2644 H 242.039 -1.04713 -3.05344 0
M  V30 2645 H 241.091 -3.23015 -2.00911 0
M  V30 2646 H 242.403 -4.11557 -2.8182 0
M  V30 2647 H 241.557 -3.36216 -5.05018 0
M  V30 2648 H 240.296 -2.37389 -4.26026 0
M  V30 2649 H 239.301 -4.44115 -3.24102 0
M  V30 2650 H 240.526 -5.44123 -4.06333 0
M  V30 2651 H 238.472 -3.66807 -5.43865 0
M  V30 2652 H 238.389 -5.39346 -5.29756 0
M  V30 2653 H 239.657 -4.66993 -6.2413 0
M  V30 2654 N 243.887 0.651787 -1.4349 0
M  V30 2655 C 245.164 1.40909 -1.35661 0
M  V30 2656 C 245.544 2.11099 -0.00511733 0
M  V30 2657 O 244.892 2.04892 1.0115 0
M  V30 2658 C 245.102 2.3926 -2.54078 0
M  V30 2659 C 246.45 3.03217 -2.97228 0
M  V30 2660 O 247.474 2.49588 -2.54135 0
M  V30 2661 O 246.333 4.00455 -3.71885 0
M  V30 2662 H 243.427 0.629625 -0.536191 0
M  V30 2663 H 245.973 0.678575 -1.55542 0
M  V30 2664 H 244.745 1.86352 -3.44076 0
M  V30 2665 H 244.368 3.1976 -2.36303 0
M  V30 2666 N 245.365 1.30045 0.890287 0
M  V30 2667 C 246.611 1.18737 1.64406 0
M  V30 2668 C 246.944 -0.258525 1.92472 0
M  V30 2669 O 246.219 -1.18562 1.54186 0
M  V30 2670 C 246.502 2.01087 2.98724 0
M  V30 2671 C 246.355 3.53867 2.77665 0
M  V30 2672 C 247.674 1.84457 3.9958 0
M  V30 2673 H 244.793 0.432698 0.596608 0
M  V30 2674 H 247.435 1.5962 1.0306 0
M  V30 2675 H 245.585 1.66349 3.51084 0
M  V30 2676 H 247.257 3.98637 2.32133 0
M  V30 2677 H 245.5 3.78318 2.12269 0
M  V30 2678 H 246.171 4.06772 3.7315 0
M  V30 2679 H 248.647 2.14817 3.56361 0
M  V30 2680 H 247.523 2.44411 4.91482 0
M  V30 2681 H 247.784 0.802276 4.3476 0
M  V30 2682 N 246.843 -1.10192 1.12674 0
M  V30 2683 C 248.071 -1.85983 0.906527 0
M  V30 2684 C 248.486 -1.80783 -0.544333 0
M  V30 2685 O 247.843 -1.19834 -1.37645 0
M  V30 2686 C 247.894 -3.34281 1.37618 0
M  V30 2687 O 247.615 -3.39401 2.77017 0
M  V30 2688 C 249.116 -4.26938 1.19325 0
M  V30 2689 H 246.336 -0.587716 0.323775 0
M  V30 2690 H 248.88 -1.39284 1.49734 0
M  V30 2691 H 247.035 -3.78436 0.828539 0
M  V30 2692 H 247.449 -4.31838 2.97684 0
M  V30 2693 H 248.923 -5.29181 1.57071 0
M  V30 2694 H 249.4 -4.38995 0.134097 0
M  V30 2695 H 250.006 -3.8859 1.72852 0
M  V30 2696 N 248.321 -0.919034 -1.28029 0
M  V30 2697 C 249.549 -0.570971 -1.98866 0
M  V30 2698 C 249.964 0.848996 -1.68634 0
M  V30 2699 O 249.321 1.56307 -0.942036 0
M  V30 2700 C 249.372 -0.776876 -3.53054 0
M  V30 2701 O 249.093 -2.14097 -3.82222 0
M  V30 2702 C 250.594 -0.436356 -4.41147 0
M  V30 2703 H 247.814 -0.217175 -0.634883 0
M  V30 2704 H 250.358 -1.23368 -1.63097 0
M  V30 2705 H 248.513 -0.161085 -3.87065 0
M  V30 2706 H 248.927 -2.18455 -4.76841 0
M  V30 2707 H 250.401 -0.63117 -5.4838 0
M  V30 2708 H 250.878 0.627686 -4.34692 0
M  V30 2709 H 251.484 -1.02991 -4.12641 0
M  V30 2710 N 249.799 1.42003 -0.683588 0
M  V30 2711 C 250.731 2.29183 0.0283068 0
M  V30 2712 C 251.744 1.4415 0.756611 0
M  V30 2713 O 252.933 1.67779 0.609306 0
M  V30 2714 C 250.033 3.21765 1.06398 0
M  V30 2715 C 249.206 4.35496 0.407723 0
M  V30 2716 C 248.265 5.08737 1.34437 0
M  V30 2717 O 247.291 5.62948 0.841318 0
M  V30 2718 N 248.493 5.15075 2.67728 0
M  V30 2719 H 251.258 2.9092 -0.720105 0
M  V30 2720 H 248.819 1.53025 -0.528682 0
M  V30 2721 H 250.811 3.6763 1.69204 0
M  V30 2722 H 249.381 2.61418 1.71404 0
M  V30 2723 H 248.601 3.92165 -0.400012 0
M  V30 2724 H 249.889 5.08776 -0.0490956 0
M  V30 2725 H 249.287 4.72457 3.11129 0
M  V30 2726 H 247.844 5.64556 3.2576 0
M  V30 2727 N 251.277 0.427512 1.51691 0
M  V30 2728 C 252.525 -0.141948 2.01601 0
M  V30 2729 C 252.846 -1.44067 1.31414 0
M  V30 2730 O 252.116 -1.90763 0.445658 0
M  V30 2731 H 250.696 -0.0554468 0.744939 0
M  V30 2732 H 253.358 0.567968 1.86441 0
M  V30 2733 H 252.454 -0.324913 3.10404 0
M  V30 2734 N 252.755 -1.56801 0.158532 0
M  V30 2735 C 253.665 -2.20916 -0.789518 0
M  V30 2736 C 254.681 -1.1969 -1.26294 0
M  V30 2737 O 255.857 -1.52308 -1.31773 0
M  V30 2738 C 252.922 -2.82727 -2.00665 0
M  V30 2739 C 251.983 -3.99114 -1.58134 0
M  V30 2740 C 251.216 -4.57968 -2.74045 0
M  V30 2741 O 251.439 -4.15704 -3.90572 0
M  V30 2742 O 250.373 -5.48047 -2.48855 0
M  V30 2743 H 254.199 -3.02464 -0.273681 0
M  V30 2744 H 251.784 -1.4924 -0.0690548 0
M  V30 2745 H 253.666 -3.21968 -2.71872 0
M  V30 2746 H 252.341 -2.04184 -2.51179 0
M  V30 2747 H 251.248 -3.64567 -0.839155 0
M  V30 2748 H 252.581 -4.79212 -1.12325 0
M  V30 2749 N 254.233 0.115231 -1.57178 0
M  V30 2750 C 255.163 1.1423 -2.03651 0
M  V30 2751 C 256.144 1.42967 -0.921655 0
M  V30 2752 O 257.329 1.53343 -1.19162 0
M  V30 2753 C 254.459 2.4675 -2.44401 0
M  V30 2754 C 253.413 2.32467 -3.59365 0
M  V30 2755 C 252.739 3.69984 -3.86026 0
M  V30 2756 C 254.039 1.78203 -4.90959 0
M  V30 2757 H 255.733 0.755749 -2.89705 0
M  V30 2758 H 253.279 0.362093 -1.39373 0
M  V30 2759 H 255.232 3.18854 -2.75517 0
M  V30 2760 H 253.956 2.87302 -1.55322 0
M  V30 2761 H 252.615 1.62811 -3.28463 0
M  V30 2762 H 252.263 4.08028 -2.94147 0
M  V30 2763 H 251.963 3.61279 -4.63412 0
M  V30 2764 H 253.487 4.43587 -4.19599 0
M  V30 2765 H 254.901 2.40128 -5.20587 0
M  V30 2766 H 253.298 1.8031 -5.72371 0
M  V30 2767 H 254.368 0.739876 -4.79222 0
M  V30 2768 N 255.711 1.52812 0.385517 0
M  V30 2769 C 256.96 1.67249 1.12741 0
M  V30 2770 C 257.273 0.4205 1.91027 0
M  V30 2771 O 258.479 0.445064 2.67827 0
M  V30 2772 C 256.935 2.95583 2.05326 0
M  V30 2773 C 256.543 4.27974 1.32447 0
M  V30 2774 C 258.287 3.19386 2.7963 0
M  V30 2775 C 256.194 5.47412 2.23818 0
M  V30 2776 H 255.124 0.6231 0.424573 0
M  V30 2777 H 257.775 1.79309 0.389924 0
M  V30 2778 H 256.157 2.77277 2.82725 0
M  V30 2779 H 257.331 4.56844 0.602495 0
M  V30 2780 H 255.646 4.10459 0.700885 0
M  V30 2781 H 258.243 4.05801 3.48181 0
M  V30 2782 H 258.586 2.34604 3.43899 0
M  V30 2783 H 259.119 3.38274 2.09322 0
M  V30 2784 H 255.858 6.34612 1.64157 0
M  V30 2785 H 255.378 5.22849 2.93921 0
M  V30 2786 H 257.057 5.81423 2.83824 0
M  V30 2787 N 257.189 -0.644168 1.43834 0
M  V30 2788 C 258.136 -1.75671 1.49694 0
M  V30 2789 C 259.106 -1.6246 0.345809 0
M  V30 2790 O 260.291 -1.82573 0.554234 0
M  V30 2791 C 257.431 -3.13867 1.43463 0
M  V30 2792 C 256.544 -3.38147 2.6885 0
M  V30 2793 C 255.679 -4.66241 2.54544 0
M  V30 2794 C 254.718 -4.83657 3.75157 0
M  V30 2795 N 253.855 -6.03016 3.59605 0
M  V30 2796 H 258.695 -1.69998 2.44754 0
M  V30 2797 H 256.232 -0.829458 1.21484 0
M  V30 2798 H 258.19 -3.9377 1.37843 0
M  V30 2799 H 256.82 -3.18588 0.519783 0
M  V30 2800 H 255.872 -2.52276 2.84712 0
M  V30 2801 H 257.184 -3.46899 3.58417 0
M  V30 2802 H 256.338 -5.54285 2.46683 0
M  V30 2803 H 255.077 -4.59826 1.62516 0
M  V30 2804 H 254.082 -3.94046 3.83416 0
M  V30 2805 H 255.307 -4.91896 4.68204 0
M  V30 2806 H 253.253 -5.97715 2.7032 0
M  V30 2807 H 253.17 -6.12766 4.42779 0
M  V30 2808 H 254.438 -6.93657 3.55613 0
M  V30 2809 N 258.668 -1.30515 -0.883378 0
M  V30 2810 C 259.618 -1.13641 -1.9766 0
M  V30 2811 C 260.602 -0.0511314 -1.60819 0
M  V30 2812 O 261.794 -0.274623 -1.74857 0
M  V30 2813 C 258.923 -0.831976 -3.33066 0
M  V30 2814 C 258.009 -1.95759 -3.76217 0
M  V30 2815 N 258.4 -3.20313 -3.9145 0
M  V30 2816 C 256.698 -1.85431 -4.05625 0
M  V30 2817 C 257.399 -3.93856 -4.2808 0
M  V30 2818 N 256.375 -3.21919 -4.38029 0
M  V30 2819 H 260.177 -2.08106 -2.07531 0
M  V30 2820 H 257.691 -1.21877 -1.0733 0
M  V30 2821 H 259.688 -0.692102 -4.11115 0
M  V30 2822 H 258.348 0.104588 -3.24532 0
M  V30 2823 H 259.359 -3.55583 -3.76538 0
M  V30 2824 H 256.036 -0.991531 -4.05555 0
M  V30 2825 H 257.426 -5.01125 -4.47575 0
M  V30 2826 N 260.146 1.09593 -1.13257 0
M  V30 2827 C 261.376 1.85231 -0.915049 0
M  V30 2828 C 261.784 1.81345 0.539498 0
M  V30 2829 O 261.127 1.20664 1.38513 0
M  V30 2830 C 261.189 3.34275 -1.3229 0
M  V30 2831 C 260.853 3.6191 -2.79052 0
M  V30 2832 C 261.85 3.57777 -3.77216 0
M  V30 2833 C 259.535 3.90309 -3.16171 0
M  V30 2834 C 261.529 3.81652 -5.1051 0
M  V30 2835 C 259.216 4.13839 -4.49644 0
M  V30 2836 C 260.214 4.09502 -5.46623 0
M  V30 2837 O 259.902 4.32426 -6.77689 0
M  V30 2838 H 259.634 0.591997 -0.326367 0
M  V30 2839 H 262.188 1.394 -1.50854 0
M  V30 2840 H 260.418 3.80805 -0.672667 0
M  V30 2841 H 262.107 3.9132 -1.07812 0
M  V30 2842 H 262.873 3.35865 -3.49885 0
M  V30 2843 H 258.752 3.92811 -2.41289 0
M  V30 2844 H 262.296 3.78182 -5.86195 0
M  V30 2845 H 258.193 4.35232 -4.767 0
M  V30 2846 H 258.961 4.49896 -6.83766 0
M  V30 2847 N 261.624 0.925811 1.2754 0
M  V30 2848 C 262.571 0.422045 2.26908 0
M  V30 2849 C 263.541 -0.510029 1.58076 0
M  V30 2850 O 264.726 -0.429599 1.85901 0
M  V30 2851 C 261.866 -0.320837 3.43605 0
M  V30 2852 C 260.979 0.64513 4.27156 0
M  V30 2853 C 260.114 -0.117405 5.3107 0
M  V30 2854 C 259.153 0.841391 6.0629 0
M  V30 2855 N 258.29 0.111604 7.02011 0
M  V30 2856 H 263.13 1.27441 2.69375 0
M  V30 2857 H 260.667 0.639697 1.32462 0
M  V30 2858 H 262.625 -0.76785 4.10073 0
M  V30 2859 H 261.255 -1.13745 3.02096 0
M  V30 2860 H 260.307 1.21067 3.6062 0
M  V30 2861 H 261.619 1.37797 4.79389 0
M  V30 2862 H 260.773 -0.624422 6.03478 0
M  V30 2863 H 259.512 -0.883219 4.79636 0
M  V30 2864 H 258.517 1.35967 5.32722 0
M  V30 2865 H 259.742 1.60696 6.59813 0
M  V30 2866 H 257.688 -0.635999 6.5291 0
M  V30 2867 H 257.605 0.784044 7.51923 0
M  V30 2868 H 258.873 -0.374823 7.78598 0
M  V30 2869 N 263.102 -1.41638 0.69111 0
M  V30 2870 C 264.351 -2.00526 0.217318 0
M  V30 2871 C 264.664 -1.55353 -1.18848 0
M  V30 2872 O 265.87 -2.06769 -1.75951 0
M  V30 2873 C 264.326 -3.58313 0.337639 0
M  V30 2874 C 263.934 -4.12469 1.74852 0
M  V30 2875 C 265.678 -4.24431 -0.0766066 0
M  V30 2876 C 263.585 -5.62675 1.82074 0
M  V30 2877 H 262.515 -0.750008 0.0774893 0
M  V30 2878 H 265.166 -1.6217 0.858661 0
M  V30 2879 H 263.548 -3.9425 -0.371879 0
M  V30 2880 H 264.722 -3.8796 2.48644 0
M  V30 2881 H 263.037 -3.58861 2.11205 0
M  V30 2882 H 265.634 -5.34683 -0.0430284 0
M  V30 2883 H 265.977 -4.01101 -1.1146 0
M  V30 2884 H 266.51 -3.93512 0.582476 0
M  V30 2885 H 263.249 -5.90826 2.83911 0
M  V30 2886 H 262.769 -5.89124 1.12661 0
M  V30 2887 H 264.448 -6.27371 1.58159 0
M  V30 2888 N 264.58 -0.43555 -1.51462 0
M  V30 2889 C 265.996 -0.0877501 -1.59359 0
M  V30 2890 C 266.196 1.4027 -1.4466 0
M  V30 2891 O 265.252 2.17243 -1.28693 0
M  V30 2892 C 266.565 -0.606264 -2.94525 0
M  V30 2893 C 268.113 -0.566548 -3.0783 0
M  V30 2894 C 268.588 -1.06201 -4.45517 0
M  V30 2895 N 270.079 -1.01992 -4.51832 0
M  V30 2896 C 270.814 -1.37417 -5.5669 0
M  V30 2897 N 270.31 -1.80119 -6.68976 0
M  V30 2898 N 272.103 -1.29245 -5.47039 0
M  V30 2899 H 264.254 -1.40533 -1.59261 0
M  V30 2900 H 266.517 -0.578992 -0.750648 0
M  V30 2901 H 266.223 -1.64901 -3.10645 0
M  V30 2902 H 266.097 -0.0302097 -3.77188 0
M  V30 2903 H 268.484 0.467208 -2.91378 0
M  V30 2904 H 268.565 -1.17898 -2.2701 0
M  V30 2905 H 268.209 -2.09422 -4.62715 0
M  V30 2906 H 268.139 -0.426127 -5.24873 0
M  V30 2907 H 270.63 -0.706308 -3.71241 0
M  V30 2908 H 270.943 -2.05392 -7.45006 0
M  V30 2909 H 269.288 -1.84044 -6.70189 0
M  V30 2910 H 272.479 -0.957522 -4.58202 0
M  V30 2911 H 272.652 -1.57182 -6.28648 0
M  V30 2912 N 266.058 1.56714 -0.166846 0
M  V30 2913 C 267.298 1.98641 0.481763 0
M  V30 2914 C 267.662 1.05038 1.6072 0
M  V30 2915 O 268.863 1.36087 2.31805 0
M  V30 2916 C 267.134 3.44362 0.956517 0
M  V30 2917 S 268.693 4.08317 1.60694 0
M  V30 2918 H 265.511 0.693873 0.155116 0
M  V30 2919 H 268.113 1.93719 -0.263251 0
M  V30 2920 H 266.817 4.10204 0.126936 0
M  V30 2921 H 266.348 3.53041 1.73568 0
M  V30 2922 H 268.363 4.02999 2.89494 0
M  V30 2923 N 267.536 -0.106894 1.57237 0
M  V30 2924 C 268.466 -1.13148 2.04254 0
M  V30 2925 C 269.447 -1.42476 0.929224 0
M  V30 2926 O 270.632 -1.52709 1.19973 0
M  V30 2927 C 267.762 -2.4545 2.45706 0
M  V30 2928 C 266.716 -2.30558 3.60592 0
M  V30 2929 C 266.042 -3.67931 3.87983 0
M  V30 2930 C 267.342 -1.75597 4.91897 0
M  V30 2931 H 269.036 -0.740374 2.90101 0
M  V30 2932 H 266.582 -0.354696 1.39563 0
M  V30 2933 H 268.535 -3.17389 2.77205 0
M  V30 2934 H 267.259 -2.86475 1.56843 0
M  V30 2935 H 265.918 -1.61067 3.29322 0
M  V30 2936 H 265.566 -4.06462 2.96306 0
M  V30 2937 H 265.266 -3.58817 4.65322 0
M  V30 2938 H 266.79 -4.41356 4.21945 0
M  V30 2939 H 268.204 -2.37364 5.21854 0
M  V30 2940 H 266.601 -1.77272 5.73319 0
M  V30 2941 H 267.671 -0.714451 4.79608 0
M  V30 2942 N 269.014 -1.53014 -0.377408 0
M  V30 2943 C 270.291 -1.59215 -1.13622 0
M  V30 2944 C 270.671 -0.392407 -2.07421 0
M  V30 2945 O 270.019 0.618342 -2.19975 0
M  V30 2946 C 270.229 -2.93669 -1.88573 0
M  V30 2947 C 271.577 -3.47822 -2.43526 0
M  V30 2948 O 272.601 -2.9562 -1.98715 0
M  V30 2949 O 271.46 -4.39055 -3.25412 0
M  V30 2950 H 268.554 -0.642625 -0.52054 0
M  V30 2951 H 271.1 -1.65353 -0.381625 0
M  V30 2952 H 269.872 -3.7243 -1.20048 0
M  V30 2953 H 269.495 -2.90968 -2.70968 0
M  V30 2954 N 270.492 0.636531 -1.44174 0
M  V30 2955 C 271.402 1.77754 -1.53103 0
M  V30 2956 C 272.418 1.68928 -0.417034 0
M  V30 2957 O 273.594 1.89801 -0.6736 0
M  V30 2958 C 270.659 3.14115 -1.46741 0
M  V30 2959 C 269.72 3.34612 -2.68948 0
M  V30 2960 C 268.953 4.64467 -2.6288 0
M  V30 2961 O 269.176 5.44919 -1.68581 0
M  V30 2962 O 268.11 4.87049 -3.53648 0
M  V30 2963 H 271.936 1.73174 -2.49489 0
M  V30 2964 H 269.521 0.79709 -1.2636 0
M  V30 2965 H 271.403 3.95412 -1.45696 0
M  V30 2966 H 270.078 3.19249 -0.534975 0
M  V30 2967 H 268.985 2.53014 -2.75562 0
M  V30 2968 H 270.318 3.34336 -3.61221 0
M  V30 2969 N 271.97 1.30982 0.876444 0
M  V30 2970 C 273.218 1.20058 1.62575 0
M  V30 2971 C 273.539 -0.242947 1.93481 0
M  V30 2972 O 272.809 -1.1619 1.57724 0
M  V30 2973 H 271.389 0.44135 0.602677 0
M  V30 2974 H 274.051 1.64222 1.04962 0
M  V30 2975 H 273.147 1.76762 2.57219 0
M  V30 2976 N 273.449 -1.08991 1.13837 0
M  V30 2977 C 274.697 -1.80899 0.901098 0
M  V30 2978 C 275.018 -1.86356 -0.574134 0
M  V30 2979 O 274.288 -1.35235 -1.41733 0
M  V30 2980 H 272.868 -0.669966 0.330386 0
M  V30 2981 H 275.53 -1.318 1.43578 0
M  V30 2982 H 274.626 -2.83929 1.29578 0
M  V30 2983 N 274.927 -0.932562 -1.27047 0
M  V30 2984 C 276.157 -0.591173 -1.97961 0
M  V30 2985 C 276.565 0.836219 -1.69717 0
M  V30 2986 O 275.908 1.56801 -0.957036 0
M  V30 2987 C 275.97 -0.743082 -3.51736 0
M  V30 2988 C 275.634 -2.1435 -4.03613 0
M  V30 2989 C 276.631 -3.11815 -4.16014 0
M  V30 2990 C 274.316 -2.46175 -4.37839 0
M  V30 2991 C 276.31 -4.39211 -4.61923 0
M  V30 2992 C 273.997 -3.73806 -4.83438 0
M  V30 2993 C 274.995 -4.70137 -4.95439 0
M  V30 2994 O 274.683 -5.95496 -5.40037 0
M  V30 2995 H 274.415 -0.222375 -0.638377 0
M  V30 2996 H 276.969 -1.25317 -1.62742 0
M  V30 2997 H 275.199 -0.0239739 -3.86693 0
M  V30 2998 H 276.888 -0.40603 -4.03864 0
M  V30 2999 H 277.654 -2.88549 -3.89826 0
M  V30 3000 H 273.533 -1.71936 -4.27737 0
M  V30 3001 H 277.077 -5.14404 -4.71205 0
M  V30 3002 H 272.974 -3.96888 -5.09068 0
M  V30 3003 H 273.742 -5.98554 -5.58279 0
M  V30 3004 N 276.405 1.4127 -0.698611 0
M  V30 3005 C 277.635 2.05205 -0.239644 0
M  V30 3006 C 278.043 1.52684 1.11733 0
M  V30 3007 O 277.386 0.671222 1.70998 0
M  V30 3008 C 277.448 3.59289 -0.123126 0
M  V30 3009 C 277.112 4.34619 -1.41263 0
M  V30 3010 C 278.109 4.63701 -2.35111 0
M  V30 3011 C 275.794 4.73837 -1.66684 0
M  V30 3012 C 277.788 5.30966 -3.52639 0
M  V30 3013 C 275.475 5.40837 -2.84498 0
M  V30 3014 C 276.473 5.69329 -3.77298 0
M  V30 3015 O 276.161 6.34949 -4.93047 0
M  V30 3016 H 275.893 0.66723 -0.108537 0
M  V30 3017 H 278.447 1.81974 -0.952602 0
M  V30 3018 H 276.677 3.81272 0.645628 0
M  V30 3019 H 278.366 4.04797 0.299056 0
M  V30 3020 H 279.132 4.33882 -2.16729 0
M  V30 3021 H 275.011 4.51039 -0.953135 0
M  V30 3022 H 278.555 5.53121 -4.25091 0
M  V30 3023 H 274.452 5.70075 -3.02795 0
M  V30 3024 H 275.22 6.53445 -4.92902 0
M  V30 3025 N 277.883 0.443576 1.51229 0
M  V30 3026 C 279.132 -0.122332 2.01329 0
M  V30 3027 C 279.445 -1.43237 1.33201 0
M  V30 3028 O 280.651 -2.0816 1.74304 0
M  V30 3029 C 279.107 -0.268551 3.58897 0
M  V30 3030 C 278.715 1.03142 4.35965 0
M  V30 3031 C 280.459 -0.787894 4.17124 0
M  V30 3032 C 278.366 0.850504 5.85252 0
M  V30 3033 H 277.296 -0.0494929 0.752374 0
M  V30 3034 H 279.947 0.574289 1.74282 0
M  V30 3035 H 278.329 -1.02832 3.82415 0
M  V30 3036 H 279.503 1.80001 4.24189 0
M  V30 3037 H 277.818 1.47977 3.89219 0
M  V30 3038 H 280.415 -0.939841 5.26375 0
M  V30 3039 H 280.758 -1.77201 3.76703 0
M  V30 3040 H 281.291 -0.0862669 3.97706 0
M  V30 3041 H 278.03 1.80718 6.30096 0
M  V30 3042 H 277.55 0.121825 5.99676 0
M  V30 3043 H 279.229 0.506163 6.45017 0
M  V30 3044 N 279.361 -1.56624 0.175154 0
M  V30 3045 C 280.586 -2.01813 -0.478137 0
M  V30 3046 C 281.011 -1.05457 -1.55757 0
M  V30 3047 O 280.369 -0.0347439 -1.81267 0
M  V30 3048 C 280.417 -3.45581 -1.02987 0
M  V30 3049 O 279.521 -3.52305 -2.14371 0
M  V30 3050 H 278.862 -0.65413 -0.114059 0
M  V30 3051 H 281.392 -2.02673 0.280173 0
M  V30 3052 H 281.402 -3.84965 -1.35151 0
M  V30 3053 H 280.077 -4.1521 -0.239556 0
M  V30 3054 H 278.654 -3.24783 -1.83222 0
M  V30 3055 N 280.839 0.0985539 -1.57292 0
M  V30 3056 C 282.25 0.653457 -1.74891 0
M  V30 3057 C 282.601 1.7929 -0.796838 0
M  V30 3058 O 281.726 2.16385 0.0254886 0
M  V30 3059 C 282.321 1.19216 -3.17133 0
M  V30 3060 C 280.88 1.69316 -3.36168 0
M  V30 3061 C 280.027 0.601294 -2.70702 0
M  V30 3062 H 282.978 -0.127497 -1.58187 0
M  V30 3063 H 282.999 2.06154 -3.19814 0
M  V30 3064 H 282.511 0.362635 -3.86402 0
M  V30 3065 H 280.612 2.5468 -2.71972 0
M  V30 3066 H 280.725 1.78853 -4.44464 0
M  V30 3067 H 279.089 1.0399 -2.32504 0
M  V30 3068 H 279.872 -0.217592 -3.4261 0
M  V30 3069 N 282.317 1.53212 0.369288 0
M  V30 3070 C 283.733 1.42902 0.710712 0
M  V30 3071 C 283.933 0.565135 1.93413 0
M  V30 3072 O 282.989 0.0461484 2.52458 0
M  V30 3073 C 284.302 2.86042 0.927382 0
M  V30 3074 C 285.85 2.9565 1.02762 0
M  V30 3075 C 286.325 4.39843 1.27679 0
M  V30 3076 N 287.816 4.43256 1.34457 0
M  V30 3077 C 288.551 5.51929 1.55439 0
M  V30 3078 N 288.047 6.70655 1.73762 0
M  V30 3079 N 289.84 5.39502 1.57779 0
M  V30 3080 H 281.991 2.07888 -0.435457 0
M  V30 3081 H 284.254 0.938661 -0.132739 0
M  V30 3082 H 283.96 3.51557 0.100287 0
M  V30 3083 H 283.834 3.29472 1.83653 0
M  V30 3084 H 286.221 2.30291 1.84527 0
M  V30 3085 H 286.302 2.5562 0.0959504 0
M  V30 3086 H 285.946 5.05774 0.464175 0
M  V30 3087 H 285.876 4.77443 2.22162 0
M  V30 3088 H 288.367 3.5769 1.21926 0
M  V30 3089 H 288.68 7.49248 1.89335 0
M  V30 3090 H 287.025 6.73648 1.70948 0
M  V30 3091 H 290.216 4.45713 1.43029 0
M  V30 3092 H 290.389 6.2426 1.7379 0
M  V30 3093 N 283.795 -0.628877 1.44509 0
M  V30 3094 C 285.044 -1.38437 1.4669 0
M  V30 3095 C 285.357 -1.95322 0.104272 0
M  V30 3096 O 286.563 -2.715 0.00362163 0
M  V30 3097 C 285.019 -2.50659 2.5826 0
M  V30 3098 C 284.627 -2.00277 4.0074 0
M  V30 3099 C 286.371 -3.27844 2.69664 0
M  V30 3100 C 284.278 -3.09854 5.0373 0
M  V30 3101 H 283.208 -0.520245 0.545766 0
M  V30 3102 H 285.859 -0.676313 1.70582 0
M  V30 3103 H 284.241 -3.2405 2.27612 0
M  V30 3104 H 285.415 -1.33736 4.40966 0
M  V30 3105 H 283.73 -1.35901 3.93599 0
M  V30 3106 H 286.327 -4.09534 3.43781 0
M  V30 3107 H 286.67 -3.77471 1.75559 0
M  V30 3108 H 287.203 -2.61543 2.99733 0
M  V30 3109 H 283.942 -2.65168 5.99472 0
M  V30 3110 H 283.462 -3.7503 4.68095 0
M  V30 3111 H 285.141 -3.74592 5.27532 0
M  V30 3112 N 285.273 -1.31445 -0.869486 0
M  V30 3113 C 286.501 -1.24122 -1.65534 0
M  V30 3114 C 286.916 0.193387 -1.87807 0
M  V30 3115 O 286.273 1.12557 -1.43656 0
M  V30 3116 C 286.324 -1.98229 -3.02304 0
M  V30 3117 O 286.045 -3.3609 -2.81026 0
M  V30 3118 C 287.546 -1.97751 -3.96749 0
M  V30 3119 H 284.766 -0.428868 -0.516055 0
M  V30 3120 H 287.31 -1.73328 -1.08525 0
M  V30 3121 H 285.465 -1.52782 -3.56001 0
M  V30 3122 H 285.879 -3.7383 -3.67902 0
M  V30 3123 H 287.353 -2.54114 -4.90031 0
M  V30 3124 H 287.83 -0.960137 -4.28577 0
M  V30 3125 H 288.436 -2.43079 -3.48988 0
M  V30 3126 N 286.751 1.08385 -1.14413 0
M  V30 3127 C 287.998 1.80776 -0.912482 0
M  V30 3128 C 288.326 1.86236 0.560934 0
M  V30 3129 O 287.581 1.33431 1.43159 0
M  V30 3130 C 287.88 3.26273 -1.45879 0
M  V30 3131 C 287.546 3.4093 -2.95089 0
M  V30 3132 C 286.208 3.44638 -3.35824 0
M  V30 3133 C 288.56 3.44591 -3.91033 0
M  V30 3134 C 285.888 3.49597 -4.71167 0
M  V30 3135 C 288.24 3.51086 -5.26233 0
M  V30 3136 C 286.904 3.53067 -5.6648 0
M  V30 3137 H 286.174 0.661507 -0.333901 0
M  V30 3138 H 288.821 1.27613 -1.42784 0
M  V30 3139 H 287.126 3.82146 -0.864376 0
M  V30 3140 H 288.823 3.80839 -1.2555 0
M  V30 3141 H 285.413 3.38736 -2.62594 0
M  V30 3142 H 289.597 3.40957 -3.60641 0
M  V30 3143 H 284.853 3.49424 -5.0171 0
M  V30 3144 H 289.027 3.52864 -6.00383 0
M  V30 3145 H 286.654 3.56662 -6.71339 0
M  V30 3146 N 288.23 0.939286 1.26551 0
M  V30 3147 C 289.641 0.628782 1.75793 0
M  V30 3148 C 289.992 -0.856046 1.7654 0
M  V30 3149 O 289.117 -1.66994 1.3763 0
M  V30 3150 C 289.712 1.13465 3.19235 0
M  V30 3151 C 288.271 0.874601 3.66098 0
M  V30 3152 C 287.418 1.28667 2.45642 0
M  V30 3153 H 290.369 1.1178 1.12654 0
M  V30 3154 H 290.39 0.487609 3.77363 0
M  V30 3155 H 289.902 2.21535 3.1866 0
M  V30 3156 H 288.003 -0.191793 3.72106 0
M  V30 3157 H 288.116 1.50028 4.55004 0
M  V30 3158 H 286.48 0.705109 2.44745 0
M  V30 3159 H 287.263 2.37625 2.47769 0
M  V30 3160 N 289.708 -1.40897 0.706093 0
M  V30 3161 C 290.933 -2.05895 0.249435 0
M  V30 3162 C 291.358 -1.52823 -1.09666 0
M  V30 3163 O 290.716 -0.659589 -1.68876 0
M  V30 3164 C 290.764 -3.59872 0.22904 0
M  V30 3165 O 289.868 -4.04708 -0.792784 0
M  V30 3166 H 289.209 -0.653206 0.119241 0
M  V30 3167 H 291.739 -1.80471 0.96391 0
M  V30 3168 H 291.749 -4.07951 0.0634791 0
M  V30 3169 H 290.424 -3.97866 1.21141 0
M  V30 3170 H 289.001 -3.68111 -0.59572 0
M  V30 3171 N 291.186 -0.45159 -1.50991 0
M  V30 3172 C 292.116 0.342898 -2.30969 0
M  V30 3173 C 293.097 1.00815 -1.37005 0
M  V30 3174 O 294.282 1.00907 -1.65926 0
M  V30 3175 C 291.412 1.43637 -3.16205 0
M  V30 3176 C 290.366 0.893818 -4.18563 0
M  V30 3177 C 289.692 2.08411 -4.92411 0
M  V30 3178 C 290.992 -0.0815568 -5.22236 0
M  V30 3179 H 292.686 -0.324556 -2.97636 0
M  V30 3180 H 290.232 -0.157531 -1.43136 0
M  V30 3181 H 292.185 1.9995 -3.70942 0
M  V30 3182 H 290.909 2.13232 -2.47386 0
M  V30 3183 H 289.568 0.352798 -3.64898 0
M  V30 3184 H 289.216 2.76658 -4.20082 0
M  V30 3185 H 288.916 1.72741 -5.61636 0
M  V30 3186 H 290.44 2.65251 -5.49976 0
M  V30 3187 H 291.854 0.391742 -5.7196 0
M  V30 3188 H 290.251 -0.351551 -5.99069 0
M  V30 3189 H 291.321 -1.01374 -4.74185 0
M  V30 3190 N 292.664 1.56529 -0.183458 0
M  V30 3191 C 293.596 2.15747 0.773697 0
M  V30 3192 C 294.609 1.1162 1.1851 0
M  V30 3193 O 295.798 1.3876 1.12285 0
M  V30 3194 C 292.898 2.6952 2.05456 0
M  V30 3195 C 292.071 3.98429 1.8048 0
M  V30 3196 C 291.13 4.37145 2.92901 0
M  V30 3197 O 290.156 5.04791 2.6301 0
M  V30 3198 N 291.358 3.99695 4.2098 0
M  V30 3199 H 294.123 2.98505 0.26736 0
M  V30 3200 H 291.684 1.619 -0.0010878 0
M  V30 3201 H 293.676 2.92412 2.79781 0
M  V30 3202 H 292.246 1.91282 2.47245 0
M  V30 3203 H 291.466 3.8379 0.899947 0
M  V30 3204 H 292.754 4.82597 1.61175 0
M  V30 3205 H 292.152 3.4526 4.48121 0
M  V30 3206 H 290.709 4.27562 4.9197 0
M  V30 3207 N 294.142 -0.090211 1.57342 0
M  V30 3208 C 295.105 -1.09335 2.01441 0
M  V30 3209 C 296.105 -1.32666 0.908641 0
M  V30 3210 O 297.295 -1.28697 1.174 0
M  V30 3211 C 294.427 -2.44136 2.3793 0
M  V30 3212 H 295.62 -0.713662 2.91285 0
M  V30 3213 H 293.173 -0.335404 1.52659 0
M  V30 3214 H 293.908 -2.86972 1.51055 0
M  V30 3215 H 293.693 -2.28548 3.18603 0
M  V30 3216 H 295.183 -3.16277 2.72688 0
M  V30 3217 N 295.62 -1.53406 -0.361157 0
M  V30 3218 C 296.55 -1.83136 -1.44857 0
M  V30 3219 C 297.531 -0.685174 -1.5569 0
M  V30 3220 O 298.716 -0.93544 -1.70186 0
M  V30 3221 C 295.846 -2.02522 -2.82138 0
M  V30 3222 C 294.8 -3.18302 -2.86126 0
M  V30 3223 C 294.126 -3.22989 -4.26125 0
M  V30 3224 C 295.426 -4.56796 -2.53248 0
M  V30 3225 H 297.12 -2.74201 -1.20226 0
M  V30 3226 H 294.666 -1.31938 -0.576922 0
M  V30 3227 H 296.619 -2.21904 -3.58241 0
M  V30 3228 H 295.343 -1.08172 -3.08166 0
M  V30 3229 H 294.002 -2.98747 -2.12475 0
M  V30 3230 H 293.65 -2.26267 -4.49235 0
M  V30 3231 H 293.35 -4.00781 -4.29708 0
M  V30 3232 H 294.874 -3.44559 -5.04094 0
M  V30 3233 H 296.288 -4.7631 -3.19064 0
M  V30 3234 H 294.685 -5.36862 -2.68141 0
M  V30 3235 H 295.755 -4.61606 -1.48484 0
M  V30 3236 N 297.098 0.621204 -1.44841 0
M  V30 3237 C 298.344 1.3826 -1.48365 0
M  V30 3238 C 298.677 1.93831 -0.119624 0
M  V30 3239 O 297.952 1.74251 0.864111 0
M  V30 3240 C 298.235 2.54058 -2.55199 0
M  V30 3241 C 298.088 2.03772 -4.00995 0
M  V30 3242 C 299.407 3.56225 -2.58442 0
M  V30 3243 H 296.526 0.501374 -0.540179 0
M  V30 3244 H 299.168 0.7015 -1.76576 0
M  V30 3245 H 297.318 3.12162 -2.31274 0
M  V30 3246 H 298.99 1.50423 -4.36086 0
M  V30 3247 H 297.233 1.34876 -4.12299 0
M  V30 3248 H 297.904 2.87185 -4.71411 0
M  V30 3249 H 300.38 3.07939 -2.79844 0
M  V30 3250 H 299.256 4.34756 -3.3508 0
M  V30 3251 H 299.517 4.10949 -1.63013 0
M  V30 3252 N 298.576 1.31904 0.862503 0
M  V30 3253 C 299.508 1.16005 1.97675 0
M  V30 3254 C 300.521 0.0971234 1.6251 0
M  V30 3255 O 301.71 0.345337 1.75128 0
M  V30 3256 C 298.81 0.751791 3.30456 0
M  V30 3257 C 297.983 1.90133 3.93914 0
M  V30 3258 C 297.042 1.4779 5.05019 0
M  V30 3259 O 296.068 2.18872 5.25437 0
M  V30 3260 N 297.27 0.369491 5.79323 0
M  V30 3261 H 300.035 2.11982 2.11857 0
M  V30 3262 H 297.596 1.24337 1.03691 0
M  V30 3263 H 299.588 0.451084 4.02178 0
M  V30 3264 H 298.158 -0.116593 3.12382 0
M  V30 3265 H 297.378 2.36896 3.15078 0
M  V30 3266 H 298.666 2.67111 4.33047 0
M  V30 3267 H 298.064 -0.222299 5.65263 0
M  V30 3268 H 296.621 0.128354 6.51674 0
M  V30 3269 N 300.054 -1.07777 1.14986 0
M  V30 3270 C 301.004 -2.13082 0.811181 0
M  V30 3271 C 301.988 -1.59619 -0.202597 0
M  V30 3272 O 303.18 -1.77 -0.00398275 0
M  V30 3273 C 300.309 -3.42009 0.297439 0
M  V30 3274 C 299.395 -4.02337 1.34112 0
M  V30 3275 N 299.786 -4.36982 2.54716 0
M  V30 3276 C 298.084 -4.29752 1.19285 0
M  V30 3277 C 298.785 -4.84729 3.21578 0
M  V30 3278 N 297.761 -4.83233 2.48972 0
M  V30 3279 H 301.563 -2.37696 1.72853 0
M  V30 3280 H 299.077 -1.25173 1.03468 0
M  V30 3281 H 301.074 -4.16884 0.0364777 0
M  V30 3282 H 299.734 -3.18841 -0.614022 0
M  V30 3283 H 300.745 -4.27807 2.91894 0
M  V30 3284 H 297.422 -4.16106 0.340926 0
M  V30 3285 H 298.812 -5.20863 4.24442 0
M  V30 3286 N 301.532 -0.945985 -1.26051 0
M  V30 3287 C 302.762 -0.612136 -1.97323 0
M  V30 3288 C 303.17 0.818171 -1.70595 0
M  V30 3289 O 302.513 1.55777 -0.973613 0
M  V30 3290 C 302.575 -0.780347 -3.50929 0
M  V30 3291 C 302.239 -2.18619 -4.01317 0
M  V30 3292 C 303.236 -3.16209 -4.12683 0
M  V30 3293 C 300.921 -2.50805 -4.35203 0
M  V30 3294 C 302.915 -4.44085 -4.57238 0
M  V30 3295 C 300.602 -3.78912 -4.79446 0
M  V30 3296 C 301.6 -4.75365 -4.90425 0
M  V30 3297 O 301.288 -6.01191 -5.3369 0
M  V30 3298 H 301.02 -0.229134 -0.635982 0
M  V30 3299 H 303.574 -1.27036 -1.61404 0
M  V30 3300 H 301.804 -0.0649864 -3.86645 0
M  V30 3301 H 303.493 -0.448842 -4.03411 0
M  V30 3302 H 304.259 -2.92668 -3.86744 0
M  V30 3303 H 300.138 -1.76463 -4.2589 0
M  V30 3304 H 303.682 -5.19373 -4.65723 0
M  V30 3305 H 299.579 -4.02265 -5.0483 0
M  V30 3306 H 300.347 -6.04442 -5.51899 0
M  V30 3307 N 303.011 1.40521 -0.713556 0
M  V30 3308 C 304.236 2.05759 -0.26035 0
M  V30 3309 C 304.661 1.53403 1.08854 0
M  V30 3310 O 304.019 0.668535 1.68524 0
M  V30 3311 C 304.067 3.59745 -0.248122 0
M  V30 3312 O 303.171 4.05123 0.77131 0
M  V30 3313 H 302.512 0.652564 -0.122703 0
M  V30 3314 H 305.042 1.79958 -0.973467 0
M  V30 3315 H 305.052 4.07911 -0.0851129 0
M  V30 3316 H 303.727 3.97218 -1.2325 0
M  V30 3317 H 302.304 3.68422 0.57619 0
M  V30 3318 N 304.489 0.459591 1.5075 0
M  V30 3319 C 305.436 -0.340524 2.28274 0
M  V30 3320 C 306.406 -0.997371 1.32822 0
M  V30 3321 O 307.591 -1.01202 1.61749 0
M  V30 3322 C 304.731 -1.42317 3.14388 0
M  V30 3323 C 303.844 -0.782251 4.24859 0
M  V30 3324 C 302.979 -1.84182 4.98247 0
M  V30 3325 C 302.018 -1.18053 6.00608 0
M  V30 3326 N 301.155 -2.18244 6.67319 0
M  V30 3327 H 305.995 0.326899 2.96202 0
M  V30 3328 H 303.532 0.173057 1.46078 0
M  V30 3329 H 305.49 -2.06241 3.62658 0
M  V30 3330 H 304.12 -2.05992 2.4853 0
M  V30 3331 H 303.172 -0.0307404 3.80388 0
M  V30 3332 H 304.484 -0.259663 4.98124 0
M  V30 3333 H 303.638 -2.55714 5.50177 0
M  V30 3334 H 302.377 -2.39819 4.24662 0
M  V30 3335 H 301.382 -0.450776 5.47949 0
M  V30 3336 H 302.607 -0.631202 6.7616 0
M  V30 3337 H 300.553 -2.72919 5.96533 0
M  V30 3338 H 300.47 -1.70938 7.36421 0
M  V30 3339 H 301.738 -2.89191 7.23871 0
M  V30 3340 N 305.967 -1.56429 0.191757 0
M  V30 3341 C 306.914 -2.18936 -0.730454 0
M  V30 3342 C 307.884 -1.13557 -1.21219 0
M  V30 3343 O 309.069 -1.41794 -1.27668 0
M  V30 3344 C 306.209 -2.85013 -1.9458 0
M  V30 3345 C 305.322 -4.04909 -1.50574 0
M  V30 3346 C 304.457 -4.58853 -2.67634 0
M  V30 3347 C 303.496 -5.71114 -2.20217 0
M  V30 3348 N 302.633 -6.19478 -3.30442 0
M  V30 3349 H 307.473 -2.97389 -0.190664 0
M  V30 3350 H 305.01 -1.46869 -0.0823694 0
M  V30 3351 H 306.968 -3.21492 -2.65893 0
M  V30 3352 H 305.598 -2.09129 -2.45896 0
M  V30 3353 H 304.65 -3.74115 -0.688605 0
M  V30 3354 H 305.962 -4.86113 -1.11784 0
M  V30 3355 H 305.116 -4.97619 -3.47074 0
M  V30 3356 H 303.855 -3.76749 -3.09696 0
M  V30 3357 H 302.86 -5.31879 -1.3923 0
M  V30 3358 H 304.085 -6.55033 -1.79189 0
M  V30 3359 H 302.031 -5.40297 -3.72041 0
M  V30 3360 H 301.948 -6.95725 -2.9581 0
M  V30 3361 H 303.216 -6.62898 -4.10106 0
M  V30 3362 N 307.445 0.0818655 -1.57387 0
M  V30 3363 C 308.693 0.781368 -1.86384 0
M  V30 3364 C 309.014 1.78618 -0.782342 0
M  V30 3365 O 308.284 1.94976 0.190061 0
M  V30 3366 H 306.864 0.291562 -0.687751 0
M  V30 3367 H 309.526 0.060348 -1.94807 0
M  V30 3368 H 308.622 1.3038 -2.83562 0
M  V30 3369 N 308.923 1.53595 0.353017 0
M  V30 3370 C 310.2 1.61002 1.11075 0
M  V30 3371 C 310.58 0.425356 2.0677 0
M  V30 3372 O 309.928 -0.583267 2.2093 0
M  V30 3373 C 310.138 2.96631 1.83877 0
M  V30 3374 C 311.486 3.51653 2.37961 0
M  V30 3375 O 312.51 2.98743 1.93987 0
M  V30 3376 O 311.369 4.44177 3.18386 0
M  V30 3377 H 308.463 0.650825 0.510251 0
M  V30 3378 H 311.009 1.6594 0.35527 0
M  V30 3379 H 309.781 3.74293 1.14108 0
M  V30 3380 H 309.404 2.95242 2.66304 0
M  V30 3381 N 310.401 -0.613514 1.45168 0
M  V30 3382 C 311.649 -1.36997 1.48581 0
M  V30 3383 C 311.97 -1.94589 0.126545 0
M  V30 3384 O 311.24 -1.76816 -0.843372 0
M  V30 3385 H 309.82 -0.508558 0.547154 0
M  V30 3386 H 312.482 -0.720853 1.81079 0
M  V30 3387 H 311.578 -2.1924 2.22127 0
M  V30 3388 N 311.879 -1.3236 -0.855495 0
M  V30 3389 C 312.809 -1.23833 -1.97958 0
M  V30 3390 C 313.79 -0.122361 -1.69659 0
M  V30 3391 O 314.975 -0.30939 -1.9172 0
M  V30 3392 C 312.105 -0.959772 -3.33775 0
M  V30 3393 C 311.059 -2.03689 -3.76424 0
M  V30 3394 C 310.385 -1.61075 -5.09862 0
M  V30 3395 C 311.685 -3.4518 -3.9198 0
M  V30 3396 H 313.379 -2.1788 -2.0535 0
M  V30 3397 H 310.925 -1.04891 -0.986605 0
M  V30 3398 H 312.878 -0.886678 -4.11966 0
M  V30 3399 H 311.602 0.0163404 -3.26596 0
M  V30 3400 H 310.261 -2.10012 -3.00484 0
M  V30 3401 H 309.909 -0.622107 -4.99138 0
M  V30 3402 H 309.609 -2.33143 -5.39368 0
M  V30 3403 H 311.133 -1.55201 -5.90546 0
M  V30 3404 H 312.547 -3.4145 -4.60526 0
M  V30 3405 H 310.944 -4.1559 -4.32903 0
M  V30 3406 H 312.014 -3.84903 -2.94919 0
M  V30 3407 N 313.357 1.07166 -1.15556 0
M  V30 3408 C 314.597 1.81391 -0.94216 0
M  V30 3409 C 314.961 1.84788 0.521272 0
M  V30 3410 O 316.162 2.54904 0.85307 0
M  V30 3411 C 314.433 3.22431 -1.54185 0
M  V30 3412 S 315.992 4.13379 -1.47183 0
M  V30 3413 H 312.81 0.624963 -0.339031 0
M  V30 3414 H 315.412 1.28725 -1.4714 0
M  V30 3415 H 314.116 3.17548 -2.59984 0
M  V30 3416 H 313.647 3.80172 -1.01156 0
M  V30 3417 H 315.662 4.94007 -0.466004 0
M  V30 3418 N 314.835 0.952656 1.25548 0
M  V30 3419 C 315.767 0.428609 2.25157 0
M  V30 3420 C 316.78 -0.454428 1.56329 0
M  V30 3421 O 317.969 -0.263023 1.76552 0
M  V30 3422 C 315.069 -0.401972 3.36508 0
M  V30 3423 C 314.242 0.467601 4.34893 0
M  V30 3424 C 313.301 -0.30445 5.25319 0
M  V30 3425 O 312.327 0.296473 5.68427 0
M  V30 3426 N 313.529 -1.59805 5.5807 0
M  V30 3427 H 316.294 1.28497 2.70756 0
M  V30 3428 H 313.855 0.822798 1.39433 0
M  V30 3429 H 315.847 -0.926134 3.9396 0
M  V30 3430 H 314.417 -1.15918 2.90313 0
M  V30 3431 H 313.637 1.17288 3.76347 0
M  V30 3432 H 314.925 1.06119 4.97611 0
M  V30 3433 H 314.323 -2.10823 5.24948 0
M  V30 3434 H 312.88 -2.06822 6.18116 0
M  V30 3435 N 316.313 -1.40141 0.720998 0
M  V30 3436 C 317.729 -1.54632 0.395113 0
M  V30 3437 C 317.929 -1.69115 -1.09555 0
M  V30 3438 O 316.985 -1.68377 -1.88163 0
M  V30 3439 C 318.298 -2.77177 1.1659 0
M  V30 3440 C 319.846 -2.91 1.15274 0
M  V30 3441 C 320.321 -4.16465 1.90579 0
M  V30 3442 N 321.812 -4.23476 1.87675 0
M  V30 3443 C 322.547 -5.19475 2.42762 0
M  V30 3444 N 322.043 -6.21348 3.06428 0
M  V30 3445 N 323.836 -5.11592 2.32874 0
M  V30 3446 H 315.987 -1.28986 1.68749 0
M  V30 3447 H 318.25 -0.62412 0.713567 0
M  V30 3448 H 317.956 -2.72771 2.22011 0
M  V30 3449 H 317.83 -3.69442 0.76108 0
M  V30 3450 H 320.217 -2.94907 0.106702 0
M  V30 3451 H 320.298 -1.99838 1.59682 0
M  V30 3452 H 319.942 -4.1332 2.95176 0
M  V30 3453 H 319.872 -5.06646 1.43587 0
M  V30 3454 H 322.363 -3.50497 1.41281 0
M  V30 3455 H 322.676 -6.91034 3.45965 0
M  V30 3456 H 321.021 -6.21777 3.10514 0
M  V30 3457 H 324.212 -4.30936 1.82789 0
M  V30 3458 H 324.385 -5.86233 2.76106 0
M  V30 3459 N 317.792 -0.46758 -1.50504 0
M  V30 3460 C 318.722 0.318381 -2.31319 0
M  V30 3461 C 319.703 0.993564 -1.38066 0
M  V30 3462 O 320.888 0.991411 -1.66987 0
M  V30 3463 C 318.018 1.40275 -3.17711 0
M  V30 3464 C 316.972 0.849373 -4.19487 0
M  V30 3465 C 316.298 2.03177 -4.94594 0
M  V30 3466 C 317.598 -0.136942 -5.2212 0
M  V30 3467 H 319.292 -0.356106 -2.97275 0
M  V30 3468 H 316.838 -0.172703 -1.42961 0
M  V30 3469 H 318.791 1.96004 -3.73042 0
M  V30 3470 H 317.515 2.10596 -2.49634 0
M  V30 3471 H 316.174 0.314076 -3.65252 0
M  V30 3472 H 315.822 2.72187 -4.22993 0
M  V30 3473 H 315.522 1.66774 -5.63436 0
M  V30 3474 H 317.046 2.59403 -5.52759 0
M  V30 3475 H 318.46 0.331056 -5.72343 0
M  V30 3476 H 316.857 -0.41507 -5.98663 0
M  V30 3477 H 317.927 -1.06398 -4.73083 0
M  V30 3478 N 319.27 1.56325 -0.20005 0
M  V30 3479 C 320.498 2.02105 0.442874 0
M  V30 3480 C 320.913 1.08014 1.5485 0
M  V30 3481 O 320.27 0.0858797 1.82298 0
M  V30 3482 C 320.321 3.47549 0.994583 0
M  V30 3483 O 320.042 4.38049 -0.0669322 0
M  V30 3484 C 321.543 4.0887 1.7129 0
M  V30 3485 H 318.763 0.661807 0.110691 0
M  V30 3486 H 321.307 2.02134 -0.310207 0
M  V30 3487 H 319.462 3.48204 1.69803 0
M  V30 3488 H 319.876 5.23368 0.344462 0
M  V30 3489 H 321.35 5.12475 2.05118 0
M  V30 3490 H 321.827 3.52615 2.61838 0
M  V30 3491 H 322.433 4.12002 1.05518 0
M  V30 3492 N 320.748 -0.0735177 1.57428 0
M  V30 3493 C 321.678 -1.0879 2.06608 0
M  V30 3494 C 322.659 -1.40473 0.959237 0
M  V30 3495 O 323.844 -1.5013 1.23185 0
M  V30 3496 C 320.974 -2.40183 2.50857 0
M  V30 3497 C 319.928 -2.22858 3.65402 0
M  V30 3498 C 319.254 -3.59619 3.957 0
M  V30 3499 C 320.554 -1.65123 4.95511 0
M  V30 3500 H 322.248 -0.678673 2.91607 0
M  V30 3501 H 319.794 -0.325013 1.40284 0
M  V30 3502 H 321.747 -3.11437 2.83874 0
M  V30 3503 H 320.471 -2.83083 1.62885 0
M  V30 3504 H 319.13 -1.54045 3.32664 0
M  V30 3505 H 318.778 -4.00086 3.04861 0
M  V30 3506 H 318.478 -3.48866 4.72828 0
M  V30 3507 H 320.002 -4.32306 4.31212 0
M  V30 3508 H 321.416 -2.26241 5.26771 0
M  V30 3509 H 319.813 -1.65071 5.7695 0
M  V30 3510 H 320.883 -0.612559 4.81015 0
M  V30 3511 N 322.226 -1.5378 -0.344866 0
M  V30 3512 C 323.637 -1.62428 -0.920552 0
M  V30 3513 C 323.988 -0.504747 -1.89596 0
M  V30 3514 O 323.113 0.365711 -2.13287 0
M  V30 3515 C 323.708 -2.94419 -1.67639 0
M  V30 3516 C 322.267 -3.05333 -2.20111 0
M  V30 3517 C 321.414 -2.57866 -1.01982 0
M  V30 3518 H 324.365 -1.58222 -0.123042 0
M  V30 3519 H 324.386 -2.83384 -2.53917 0
M  V30 3520 H 323.898 -3.7588 -0.966224 0
M  V30 3521 H 321.999 -2.28502 -2.94308 0
M  V30 3522 H 322.112 -4.10778 -2.46573 0
M  V30 3523 H 320.476 -2.13241 -1.39285 0
M  V30 3524 H 321.259 -3.41765 -0.324308 0
M  V30 3525 N 323.704 0.605807 -1.45491 0
M  V30 3526 C 324.944 1.37606 -1.51142 0
M  V30 3527 C 325.308 1.91413 -0.150075 0
M  V30 3528 O 326.509 2.68677 -0.0812828 0
M  V30 3529 C 324.78 2.49197 -2.56195 0
M  V30 3530 S 326.339 3.36953 -2.81083 0
M  V30 3531 H 323.157 0.469118 -0.534275 0
M  V30 3532 H 325.759 0.698845 -1.82583 0
M  V30 3533 H 324.463 2.0802 -3.53773 0
M  V30 3534 H 323.994 3.21717 -2.26411 0
M  V30 3535 H 326.009 4.47395 -2.14598 0
M  V30 3536 N 325.182 1.32811 0.848464 0
M  V30 3537 C 326.428 1.23907 1.60546 0
M  V30 3538 C 326.761 -0.197161 1.93197 0
M  V30 3539 O 326.036 -1.13596 1.5788 0
M  V30 3540 C 326.319 2.10489 2.92175 0
M  V30 3541 C 326.172 3.62522 2.66266 0
M  V30 3542 C 327.491 1.97075 3.93509 0
M  V30 3543 H 324.61 0.451459 0.58254 0
M  V30 3544 H 327.252 1.62818 0.979296 0
M  V30 3545 H 325.402 1.77434 3.45614 0
M  V30 3546 H 327.074 4.05821 2.19334 0
M  V30 3547 H 325.317 3.84879 2.00126 0
M  V30 3548 H 325.988 4.18437 3.6002 0
M  V30 3549 H 328.464 2.26045 3.49346 0
M  V30 3550 H 327.34 2.59923 4.83457 0
M  V30 3551 H 327.601 0.940186 4.31987 0
M  V30 3552 N 326.66 -1.06551 1.16123 0
M  V30 3553 C 328.076 -1.3142 0.905585 0
M  V30 3554 C 328.276 -1.96571 -0.442964 0
M  V30 3555 O 327.332 -2.23068 -1.18308 0
M  V30 3556 C 328.645 -2.19741 2.05267 0
M  V30 3557 C 330.193 -2.33165 2.08813 0
M  V30 3558 C 330.668 -3.24838 3.22868 0
M  V30 3559 N 332.159 -3.32421 3.22568 0
M  V30 3560 C 332.894 -4.0344 4.0746 0
M  V30 3561 N 332.39 -4.77003 5.02434 0
M  V30 3562 N 334.183 -3.99464 3.95456 0
M  V30 3563 H 326.334 -0.626548 2.02949 0
M  V30 3564 H 328.597 -0.338777 0.8854 0
M  V30 3565 H 328.303 -1.79142 3.02657 0
M  V30 3566 H 328.177 -3.20313 1.99198 0
M  V30 3567 H 330.564 -2.73013 1.12018 0
M  V30 3568 H 330.645 -1.3227 2.18948 0
M  V30 3569 H 330.289 -2.85708 4.19921 0
M  V30 3570 H 330.219 -4.25707 3.0997 0
M  V30 3571 H 332.71 -2.79994 2.53795 0
M  V30 3572 H 333.023 -5.28712 5.63634 0
M  V30 3573 H 331.368 -4.75992 5.06415 0
M  V30 3574 H 334.559 -3.4111 3.20564 0
M  V30 3575 H 334.732 -4.54544 4.61837 0
M  V30 3576 N 328.138 -0.959301 -1.25041 0
M  V30 3577 C 329.549 -0.65667 -1.74771 0
M  V30 3578 C 329.9 0.827852 -1.77879 0
M  V30 3579 O 329.025 1.64783 -1.40269 0
M  V30 3580 C 329.62 -1.1853 -3.1739 0
M  V30 3581 C 328.179 -0.932734 -3.6466 0
M  V30 3582 C 327.326 -1.32558 -2.43564 0
M  V30 3583 H 330.277 -1.13558 -1.10862 0
M  V30 3584 H 330.298 -0.547582 -3.76539 0
M  V30 3585 H 329.81 -2.26576 -3.15095 0
M  V30 3586 H 327.911 0.13257 -3.72364 0
M  V30 3587 H 328.024 -1.57248 -4.52559 0
M  V30 3588 H 326.388 -0.743956 -2.43593 0
M  V30 3589 H 327.171 -2.41537 -2.43957 0
M  V30 3590 N 329.616 1.39756 -0.72842 0
M  V30 3591 C 330.579 2.29012 -0.0927297 0
M  V30 3592 C 331.579 1.45992 0.674025 0
M  V30 3593 O 332.769 1.66749 0.50402 0
M  V30 3594 C 329.901 3.29396 0.878137 0
M  V30 3595 H 331.094 2.86729 -0.879011 0
M  V30 3596 H 328.647 1.48293 -0.493847 0
M  V30 3597 H 329.382 2.76722 1.69101 0
M  V30 3598 H 329.167 3.907 0.331051 0
M  V30 3599 H 330.657 3.96199 1.3197 0
M  V30 3600 N 331.094 0.475555 1.50254 0
M  V30 3601 C 332.505 0.0215174 1.86688 0
M  V30 3602 C 332.856 -1.38467 1.39001 0
M  V30 3603 O 331.981 -2.02732 0.756894 0
M  V30 3604 C 332.576 0.0322715 3.38785 0
M  V30 3605 C 331.135 -0.366314 3.74613 0
M  V30 3606 C 330.282 0.415832 2.74164 0
M  V30 3607 H 333.233 0.689612 1.42934 0
M  V30 3608 H 333.254 -0.76889 3.7265 0
M  V30 3609 H 332.766 1.05584 3.73462 0
M  V30 3610 H 330.867 -1.39406 3.45538 0
M  V30 3611 H 330.98 -0.064555 4.79057 0
M  V30 3612 H 329.344 -0.131048 2.54363 0
M  V30 3613 H 330.127 1.43899 3.11686 0
M  V30 3614 N 332.573 -1.56217 0.208337 0
M  V30 3615 C 333.505 -2.1695 -0.739276 0
M  V30 3616 C 334.518 -1.13492 -1.1672 0
M  V30 3617 O 335.707 -1.40529 -1.10063 0
M  V30 3618 C 332.807 -2.72755 -2.01142 0
M  V30 3619 C 331.98 -4.0125 -1.74118 0
M  V30 3620 C 331.039 -4.41749 -2.85909 0
M  V30 3621 O 330.065 -5.08912 -2.54946 0
M  V30 3622 N 331.267 -4.06342 -4.14568 0
M  V30 3623 H 334.032 -2.98893 -0.219837 0
M  V30 3624 H 331.593 -1.61878 0.0268445 0
M  V30 3625 H 333.585 -2.96826 -2.75094 0
M  V30 3626 H 332.155 -1.95191 -2.4417 0
M  V30 3627 H 331.375 -3.85173 -0.838775 0
M  V30 3628 H 332.663 -4.851 -1.53477 0
M  V30 3629 H 332.061 -3.52345 -4.42571 0
M  V30 3630 H 330.618 -4.35335 -4.85105 0
M  V30 3631 N 334.051 0.0651679 -1.57465 0
M  V30 3632 C 334.999 1.09542 -2.05191 0
M  V30 3633 C 335.993 1.39675 -0.958509 0
M  V30 3634 O 337.199 1.39003 -1.14359 0
M  V30 3635 H 333.574 0.370623 -0.654326 0
M  V30 3636 H 335.545 0.666802 -2.90854 0
M  V30 3637 C 334.294 2.39881 -2.51699 0
M  V30 3638 H 333.617 2.17547 -3.3543 0
M  V30 3639 H 335.057 3.104 -2.88839 0
M  V30 3640 C 333.516 3.0631 -1.40271 0
M  V30 3641 O 334.046 3.94664 -0.748523 0
M  V30 3642 N 332.252 2.67041 -1.14618 0
M  V30 3643 H 331.799 1.95281 -1.67997 0
M  V30 3644 H 331.757 3.1181 -0.402688 0
M  V30 3645 N 335.529 1.53961 0.336706 0
M  V30 3646 C 336.94 1.62914 0.911925 0
M  V30 3647 C 337.291 0.514795 1.89326 0
M  V30 3648 O 336.416 -0.354395 2.13478 0
M  V30 3649 C 337.011 2.95304 1.66076 0
M  V30 3650 C 335.57 3.06496 2.18489 0
M  V30 3651 C 334.717 2.58403 1.00613 0
M  V30 3652 H 337.668 1.58285 0.114649 0
M  V30 3653 H 337.689 2.84727 2.5241 0
M  V30 3654 H 337.201 3.76387 0.946276 0
M  V30 3655 H 335.302 2.3006 2.93092 0
M  V30 3656 H 335.415 4.1208 2.44391 0
M  V30 3657 H 333.779 2.13977 1.38152 0
M  V30 3658 H 334.562 3.41932 0.306179 0
M  V30 3659 N 337.007 -0.598083 1.45811 0
M  V30 3660 C 338.253 -1.35679 1.51535 0
M  V30 3661 C 338.608 -1.91745 0.15864 0
M  V30 3662 O 337.901 -1.72654 -0.830724 0
M  V30 3663 C 338.095 -2.51669 2.53766 0
M  V30 3664 C 337.924 -2.06963 3.99245 0
M  V30 3665 C 336.694 -1.92693 4.67116 0
M  V30 3666 C 338.892 -1.63855 4.875 0
M  V30 3667 N 336.874 -1.41897 5.97276 0
M  V30 3668 C 338.245 -1.24541 6.07363 0
M  V30 3669 C 340.3 -1.51533 4.74281 0
M  V30 3670 C 339.003 -0.741354 7.15469 0
M  V30 3671 C 341.029 -1.0253 5.82444 0
M  V30 3672 C 340.391 -0.641869 7.01469 0
M  V30 3673 H 336.49 -0.490042 0.609412 0
M  V30 3674 H 339.074 -0.682687 1.82339 0
M  V30 3675 H 337.245 -3.16663 2.24898 0
M  V30 3676 H 338.977 -3.18578 2.4958 0
M  V30 3677 H 335.732 -2.1417 4.22408 0
M  V30 3678 H 336.156 -1.18704 6.66512 0
M  V30 3679 H 340.798 -1.798 3.82664 0
M  V30 3680 H 338.516 -0.446243 8.06867 0
M  V30 3681 H 342.102 -0.934088 5.74253 0
M  V30 3682 H 340.982 -0.268531 7.8374 0
M  V30 3683 N 338.485 -1.33259 -0.841409 0
M  V30 3684 C 339.448 -1.23221 -1.9326 0
M  V30 3685 C 340.448 -0.151895 -1.60081 0
M  V30 3686 O 341.638 -0.403246 -1.69468 0
M  V30 3687 C 338.77 -0.898123 -3.28856 0
M  V30 3688 H 339.963 -2.2021 -2.03587 0
M  V30 3689 H 337.516 -1.17281 -1.03319 0
M  V30 3690 H 338.251 0.0693841 -3.24226 0
M  V30 3691 H 338.036 -1.67934 -3.54317 0
M  V30 3692 H 339.526 -0.852563 -4.08805 0
M  V30 3693 N 339.963 1.05934 -1.16686 0
M  V30 3694 C 340.895 2.13468 -0.834503 0
M  V30 3695 C 341.908 1.62013 0.15984 0
M  V30 3696 O 343.097 1.7838 -0.0654228 0
M  V30 3697 C 340.197 3.3817 -0.222361 0
M  V30 3698 C 339.37 4.18928 -1.25771 0
M  V30 3699 C 338.429 5.21985 -0.664703 0
M  V30 3700 O 337.455 5.53334 -1.33453 0
M  V30 3701 N 338.657 5.77919 0.546834 0
M  V30 3702 H 341.422 2.42578 -1.75999 0
M  V30 3703 H 338.983 1.21967 -1.06469 0
M  V30 3704 H 340.975 4.04266 0.187472 0
M  V30 3705 H 339.545 3.06655 0.606758 0
M  V30 3706 H 338.765 3.48433 -1.84358 0
M  V30 3707 H 340.053 4.69687 -1.95631 0
M  V30 3708 H 339.451 5.54721 1.10912 0
M  V30 3709 H 338.008 6.45573 0.898829 0
M  V30 3710 N 341.441 0.965919 1.2453 0
M  V30 3711 C 342.718 0.543777 1.87889 0
M  V30 3712 C 343.098 -0.97909 1.87021 0
M  V30 3713 O 342.446 -1.84969 1.3416 0
M  V30 3714 C 342.656 1.13327 3.30088 0
M  V30 3715 C 344.004 1.21707 4.06783 0
M  V30 3716 O 345.028 1.08566 3.39252 0
M  V30 3717 O 343.887 1.42456 5.27606 0
M  V30 3718 H 340.981 0.181054 0.806938 0
M  V30 3719 H 343.527 1.06007 1.32516 0
M  V30 3720 H 342.299 2.17612 3.25209 0
M  V30 3721 H 341.922 0.600911 3.93033 0
M  V30 3722 N 342.919 -1.39368 0.735821 0
M  V30 3723 C 343.829 -2.34395 0.0979693 0
M  V30 3724 C 344.845 -1.58361 -0.720968 0
M  V30 3725 O 346.021 -1.90648 -0.649245 0
M  V30 3726 C 343.086 -3.37393 -0.797916 0
M  V30 3727 C 342.147 -4.29287 0.0333662 0
M  V30 3728 C 341.38 -5.27365 -0.819854 0
M  V30 3729 O 341.603 -5.31959 -2.05855 0
M  V30 3730 O 340.537 -6.01389 -0.248079 0
M  V30 3731 H 344.363 -2.90601 0.882315 0
M  V30 3732 H 341.948 -1.40909 0.4965 0
M  V30 3733 H 343.83 -4.00505 -1.31048 0
M  V30 3734 H 342.505 -2.83571 -1.56106 0
M  V30 3735 H 341.412 -3.69395 0.591475 0
M  V30 3736 H 342.745 -4.86317 0.758752 0
M  V30 3737 N 344.397 -0.483516 -1.5 0
M  V30 3738 C 345.643 0.0593261 -2.03313 0
M  V30 3739 C 345.998 1.36288 -1.35806 0
M  V30 3740 O 345.291 1.85519 -0.478897 0
M  V30 3741 C 345.485 0.286226 -3.56252 0
M  V30 3742 C 345.314 -0.993788 -4.38582 0
M  V30 3743 C 344.084 -1.54064 -4.81241 0
M  V30 3744 C 346.282 -1.89249 -4.78215 0
M  V30 3745 N 344.264 -2.76838 -5.47936 0
M  V30 3746 C 345.635 -2.96606 -5.44449 0
M  V30 3747 C 347.69 -1.90138 -4.60165 0
M  V30 3748 C 346.393 -4.04857 -5.94544 0
M  V30 3749 C 348.419 -2.97353 -5.1121 0
M  V30 3750 C 347.781 -4.03429 -5.77429 0
M  V30 3751 H 343.88 -0.0186322 -0.781778 0
M  V30 3752 H 346.464 -0.654489 -1.8337 0
M  V30 3753 H 344.635 0.969086 -3.76116 0
M  V30 3754 H 346.367 0.824515 -3.96212 0
M  V30 3755 H 343.122 -1.08813 -4.6093 0
M  V30 3756 H 343.546 -3.39221 -5.85882 0
M  V30 3757 H 348.188 -1.09441 -4.0839 0
M  V30 3758 H 345.906 -4.86363 -6.4535 0
M  V30 3759 H 349.492 -2.99039 -4.99066 0
M  V30 3760 H 348.372 -4.85025 -6.16214 0
M  V30 3761 N 345.875 1.56104 -0.216619 0
M  V30 3762 C 346.785 2.23694 0.706982 0
M  V30 3763 C 347.801 1.24295 1.21765 0
M  V30 3764 O 348.977 1.57094 1.2603 0
M  V30 3765 C 346.042 2.8998 1.90033 0
M  V30 3766 C 345.103 4.04708 1.43213 0
M  V30 3767 C 344.336 4.67824 2.56859 0
M  V30 3768 O 344.559 4.29913 3.74874 0
M  V30 3769 O 343.493 5.56905 2.28343 0
M  V30 3770 H 347.319 3.03272 0.161235 0
M  V30 3771 H 344.904 1.49394 0.0136177 0
M  V30 3772 H 346.786 3.31837 2.59735 0
M  V30 3773 H 345.461 2.13365 2.43428 0
M  V30 3774 H 344.368 3.6743 0.70327 0
M  V30 3775 H 345.701 4.83051 0.944615 0
M  V30 3776 N 347.353 -0.0568162 1.57498 0
M  V30 3777 C 348.602 -0.752001 1.87157 0
M  V30 3778 C 348.915 -1.77978 0.811375 0
M  V30 3779 O 350.121 -2.52559 0.996293 0
M  V30 3780 C 348.577 -1.38844 3.3204 0
M  V30 3781 C 348.185 -0.398456 4.46225 0
M  V30 3782 C 349.929 -2.06512 3.70882 0
M  V30 3783 C 347.836 -1.04166 5.82154 0
M  V30 3784 H 346.766 -0.28461 0.698222 0
M  V30 3785 H 349.417 -0.00561272 1.83499 0
M  V30 3786 H 347.799 -2.1836 3.30356 0
M  V30 3787 H 348.973 0.367977 4.59328 0
M  V30 3788 H 347.288 0.174592 4.16034 0
M  V30 3789 H 349.885 -2.55437 4.6974 0
M  V30 3790 H 350.228 -2.87117 3.01445 0
M  V30 3791 H 350.761 -1.33808 3.7462 0
M  V30 3792 H 347.5 -0.275614 6.5492 0
M  V30 3793 H 347.02 -1.7786 5.72823 0
M  V30 3794 H 348.699 -1.55715 6.27982 0
M  V30 3795 N 348.832 -1.54138 -0.328536 0
M  V30 3796 C 350.243 -1.63395 -0.903272 0
M  V30 3797 C 350.594 -0.524828 -1.8905 0
M  V30 3798 O 349.719 0.343068 -2.13663 0
M  V30 3799 C 350.314 -2.9618 -1.64507 0
M  V30 3800 C 348.873 -3.0765 -2.1686 0
M  V30 3801 C 348.02 -2.58933 -0.992416 0
M  V30 3802 H 350.971 -1.58344 -0.106253 0
M  V30 3803 H 350.992 -2.86061 -2.50897 0
M  V30 3804 H 350.504 -3.76884 -0.926302 0
M  V30 3805 H 348.605 -2.31611 -2.91868 0
M  V30 3806 H 348.718 -4.1337 -2.42202 0
M  V30 3807 H 347.082 -2.14706 -1.37016 0
M  V30 3808 H 347.865 -3.42089 -0.288041 0
M  V30 3809 N 350.31 0.590341 -1.46126 0
M  V30 3810 C 351.726 0.912917 -1.30912 0
M  V30 3811 C 351.926 1.99616 -0.274893 0
M  V30 3812 O 350.982 2.50397 0.325197 0
M  V30 3813 C 352.295 1.3375 -2.69317 0
M  V30 3814 C 353.843 1.45077 -2.77348 0
M  V30 3815 C 354.318 1.90904 -4.16317 0
M  V30 3816 N 355.809 1.9811 -4.18696 0
M  V30 3817 C 356.544 2.34828 -5.23109 0
M  V30 3818 N 356.04 2.70393 -6.37856 0
M  V30 3819 N 357.833 2.35317 -5.10473 0
M  V30 3820 H 349.984 -0.125358 -2.1203 0
M  V30 3821 H 352.247 0.00658481 -0.947977 0
M  V30 3822 H 351.953 0.615614 -3.4627 0
M  V30 3823 H 351.827 2.30058 -2.9892 0
M  V30 3824 H 354.214 2.16353 -2.00687 0
M  V30 3825 H 354.295 0.4704 -2.51438 0
M  V30 3826 H 353.939 1.20209 -4.9347 0
M  V30 3827 H 353.869 2.89886 -4.39629 0
M  V30 3828 H 356.36 1.73146 -3.359 0
M  V30 3829 H 356.673 2.97341 -7.13308 0
M  V30 3830 H 355.018 2.68048 -6.41229 0
M  V30 3831 H 358.209 2.0695 -4.19868 0
M  V30 3832 H 358.382 2.63605 -5.9196 0
M  V30 3833 N 351.788 1.33704 0.83433 0
M  V30 3834 C 352.72 1.20172 1.9517 0
M  V30 3835 C 353.733 0.131572 1.62267 0
M  V30 3836 O 354.922 0.382406 1.74356 0
M  V30 3837 C 352.022 0.821716 3.28787 0
M  V30 3838 C 351.195 1.98446 3.89792 0
M  V30 3839 C 350.254 1.58469 5.01771 0
M  V30 3840 O 349.28 2.29968 5.20676 0
M  V30 3841 N 350.482 0.492291 5.78409 0
M  V30 3842 H 353.247 2.16429 2.07313 0
M  V30 3843 H 350.808 1.26509 1.0103 0
M  V30 3844 H 352.8 0.536291 4.01131 0
M  V30 3845 H 351.37 -0.0503058 3.1256 0
M  V30 3846 H 350.59 2.43526 3.09982 0
M  V30 3847 H 351.878 2.76236 4.27283 0
M  V30 3848 H 351.276 -0.102349 5.65607 0
M  V30 3849 H 349.833 0.266555 6.51255 0
M  V30 3850 N 353.266 -1.05314 1.17247 0
M  V30 3851 C 354.491 -1.82509 0.985148 0
M  V30 3852 C 354.916 -1.82343 -0.461788 0
M  V30 3853 O 354.274 -1.23151 -1.33055 0
M  V30 3854 C 354.322 -3.26566 1.52929 0
M  V30 3855 O 353.426 -4.05666 0.742225 0
M  V30 3856 H 352.767 -0.564347 0.349869 0
M  V30 3857 H 355.297 -1.32718 1.55715 0
M  V30 3858 H 355.307 -3.77369 1.55103 0
M  V30 3859 H 353.982 -3.26001 2.58256 0
M  V30 3860 H 352.559 -3.64397 0.791794 0
M  V30 3861 N 354.744 -0.972509 -1.24016 0
M  V30 3862 C 355.674 -0.525548 -2.27509 0
M  V30 3863 C 356.655 0.437262 -1.64384 0
M  V30 3864 O 357.84 0.332343 -1.91335 0
M  V30 3865 C 354.97 0.180448 -3.46831 0
M  V30 3866 C 353.924 -0.698859 -4.22256 0
M  V30 3867 C 353.25 0.138903 -5.3452 0
M  V30 3868 C 354.55 -1.98582 -4.83076 0
M  V30 3869 H 356.244 -1.39058 -2.65148 0
M  V30 3870 H 353.79 -0.67009 -1.27459 0
M  V30 3871 H 355.743 0.504387 -4.18371 0
M  V30 3872 H 354.467 1.07987 -3.08231 0
M  V30 3873 H 353.126 -1.00614 -3.52523 0
M  V30 3874 H 352.774 1.03862 -4.9216 0
M  V30 3875 H 352.474 -0.446259 -5.85903 0
M  V30 3876 H 353.998 0.457404 -6.08884 0
M  V30 3877 H 355.412 -1.72715 -5.46665 0
M  V30 3878 H 353.809 -2.5181 -5.44713 0
M  V30 3879 H 354.879 -2.67769 -4.04262 0
M  V30 3880 N 356.222 1.38976 -0.743202 0
M  V30 3881 C 357.638 1.53984 -0.419664 0
M  V30 3882 C 357.838 1.70837 1.0685 0
M  V30 3883 O 356.894 1.7135 1.8546 0
M  V30 3884 C 358.207 2.75287 -1.20985 0
M  V30 3885 C 359.755 2.89129 -1.19889 0
M  V30 3886 C 360.23 4.13381 -1.97181 0
M  V30 3887 N 361.721 4.20437 -1.94389 0
M  V30 3888 C 362.456 5.15547 -2.50996 0
M  V30 3889 N 361.952 6.16395 -3.16274 0
M  V30 3890 N 363.745 5.07822 -2.40984 0
M  V30 3891 H 355.896 1.26285 -1.7078 0
M  V30 3892 H 358.159 0.612689 -0.723406 0
M  V30 3893 H 357.865 2.69204 -2.26323 0
M  V30 3894 H 357.739 3.68184 -0.819759 0
M  V30 3895 H 360.126 2.947 -0.153606 0
M  V30 3896 H 360.207 1.97272 -1.62841 0
M  V30 3897 H 359.851 4.08572 -3.01714 0
M  V30 3898 H 359.781 5.04298 -1.51629 0
M  V30 3899 H 362.272 3.48205 -1.46839 0
M  V30 3900 H 362.585 6.85443 -3.56915 0
M  V30 3901 H 360.93 6.16758 -3.20367 0
M  V30 3902 H 364.121 4.27973 -1.89622 0
M  V30 3903 H 364.294 5.81767 -2.85397 0
M  V30 3904 N 357.7 0.491464 1.49741 0
M  V30 3905 C 358.63 -0.28154 2.31796 0
M  V30 3906 C 359.611 -0.971473 1.3963 0
M  V30 3907 O 360.796 -0.964719 1.68543 0
M  V30 3908 C 357.926 -1.35203 3.19902 0
M  V30 3909 C 356.88 -0.782529 4.20786 0
M  V30 3910 C 356.206 -1.95283 4.97764 0
M  V30 3911 C 357.506 0.21999 5.21837 0
M  V30 3912 H 359.2 0.403355 2.96671 0
M  V30 3913 H 356.746 0.195425 1.42668 0
M  V30 3914 H 358.699 -1.90045 3.76113 0
M  V30 3915 H 357.423 -2.06598 2.52953 0
M  V30 3916 H 356.082 -0.255928 3.65706 0
M  V30 3917 H 355.73 -2.65423 4.2727 0
M  V30 3918 H 355.43 -1.57789 5.66018 0
M  V30 3919 H 356.954 -2.50577 5.56816 0
M  V30 3920 H 358.368 -0.23996 5.72798 0
M  V30 3921 H 356.765 0.51026 5.97927 0
M  V30 3922 H 357.835 1.13911 4.7133 0
M  V30 3923 N 359.178 -1.55987 0.224894 0
M  V30 3924 C 360.424 -1.98684 -0.406502 0
M  V30 3925 C 360.757 -1.11248 -1.59177 0
M  V30 3926 O 360.032 -0.170909 -1.93748 0
M  V30 3927 C 360.315 -3.50218 -0.837808 0
M  V30 3928 C 360.168 -4.48426 0.351332 0
M  V30 3929 C 361.487 -4.06243 -1.69278 0
M  V30 3930 H 358.606 -0.722337 -0.146283 0
M  V30 3931 H 361.248 -1.87255 0.321799 0
M  V30 3932 H 359.398 -3.60089 -1.45837 0
M  V30 3933 H 361.07 -4.50562 0.989526 0
M  V30 3934 H 359.313 -4.22159 0.998207 0
M  V30 3935 H 359.984 -5.52 0.00655905 0
M  V30 3936 H 362.46 -3.99337 -1.16914 0
M  V30 3937 H 361.336 -5.12581 -1.96346 0
M  V30 3938 H 361.597 -3.53332 -2.65723 0
M  V30 3939 N 360.656 0.0484629 -1.57525 0
M  V30 3940 C 362.072 0.40375 -1.54409 0
M  V30 3941 C 362.272 1.77786 -0.948384 0
M  V30 3942 O 361.328 2.46189 -0.560983 0
M  V30 3943 C 362.641 0.323394 -2.98956 0
M  V30 3944 C 364.189 0.401892 -3.10409 0
M  V30 3945 C 364.664 0.351195 -4.56652 0
M  V30 3946 N 366.155 0.410576 -4.61377 0
M  V30 3947 C 366.89 0.393933 -5.72045 0
M  V30 3948 N 366.386 0.330724 -6.9201 0
M  V30 3949 N 368.179 0.442227 -5.60358 0
M  V30 3950 H 360.33 -0.851016 -1.94606 0
M  V30 3951 H 362.593 -0.321721 -0.89174 0
M  V30 3952 H 362.299 -0.62011 -3.4619 0
M  V30 3953 H 362.173 1.12463 -3.60044 0
M  V30 3954 H 364.56 1.33582 -2.63134 0
M  V30 3955 H 364.641 -0.428342 -2.52188 0
M  V30 3956 H 364.285 -0.578987 -5.04589 0
M  V30 3957 H 364.215 1.19928 -5.12762 0
M  V30 3958 H 366.706 0.462729 -3.75056 0
M  V30 3959 H 367.019 0.322592 -7.72126 0
M  V30 3960 H 365.364 0.29706 -6.94365 0
M  V30 3961 H 368.555 0.489464 -4.65534 0
M  V30 3962 H 368.728 0.425788 -6.466 0
M  V30 3963 N 362.134 1.5431 0.320358 0
M  V30 3964 C 363.081 1.83918 1.39438 0
M  V30 3965 C 364.051 0.686525 1.51248 0
M  V30 3966 O 365.236 0.933269 1.66417 0
M  V30 3967 C 362.376 2.075 2.75749 0
M  V30 3968 C 361.489 3.35177 2.72544 0
M  V30 3969 C 360.624 3.48704 4.00723 0
M  V30 3970 C 359.663 4.70244 3.91838 0
M  V30 3971 N 358.8 4.80679 5.11754 0
M  V30 3972 H 363.64 2.75544 1.13489 0
M  V30 3973 H 361.177 1.36459 0.549309 0
M  V30 3974 H 363.135 2.19166 3.54996 0
M  V30 3975 H 361.765 1.19163 3 0
M  V30 3976 H 360.817 3.32233 1.85271 0
M  V30 3977 H 362.129 4.24534 2.61863 0
M  V30 3978 H 361.283 3.59928 4.88402 0
M  V30 3979 H 360.022 2.57445 4.14214 0
M  V30 3980 H 359.027 4.59072 3.02544 0
M  V30 3981 H 360.252 5.6289 3.7991 0
M  V30 3982 H 358.198 3.92337 5.25745 0
M  V30 3983 H 358.115 5.64007 5.0342 0
M  V30 3984 H 359.383 4.96239 6.01138 0
M  V30 3985 N 363.613 -0.582584 1.46437 0
M  V30 3986 C 364.543 -1.70187 1.59871 0
M  V30 3987 C 365.524 -1.64066 0.449042 0
M  V30 3988 O 366.709 -1.82081 0.6753 0
M  V30 3989 C 363.839 -3.08827 1.58881 0
M  V30 3990 C 362.793 -3.29779 2.72819 0
M  V30 3991 C 362.119 -4.68947 2.5689 0
M  V30 3992 C 363.419 -3.17601 4.1464 0
M  V30 3993 H 365.113 -1.592 2.53566 0
M  V30 3994 H 362.659 -0.764472 1.22032 0
M  V30 3995 H 364.612 -3.86951 1.66873 0
M  V30 3996 H 363.336 -3.20713 0.617306 0
M  V30 3997 H 361.995 -2.54054 2.64296 0
M  V30 3998 H 361.643 -4.77599 1.57823 0
M  V30 3999 H 361.343 -4.83919 3.33312 0
M  V30 4000 H 362.867 -5.4924 2.66773 0
M  V30 4001 H 364.281 -3.8557 4.24274 0
M  V30 4002 H 362.678 -3.44094 4.9165 0
M  V30 4003 H 363.748 -2.14681 4.34788 0
M  V30 4004 N 365.091 -1.34144 -0.827227 0
M  V30 4005 C 366.339 -1.26009 -1.58007 0
M  V30 4006 C 366.66 0.170971 -1.94249 0
M  V30 4007 O 365.93 1.10256 -1.61927 0
M  V30 4008 H 364.51 -0.463414 -0.585881 0
M  V30 4009 H 367.172 -1.68005 -0.987951 0
M  V30 4010 H 366.268 -1.86187 -2.50481 0
M  V30 4011 N 366.569 1.04691 -1.17803 0
M  V30 4012 C 367.794 1.81984 -0.994813 0
M  V30 4013 C 368.219 1.82586 0.452112 0
M  V30 4014 O 367.577 1.23854 1.324 0
M  V30 4015 C 367.625 3.2575 -1.54659 0
M  V30 4016 O 366.729 4.05267 -0.763728 0
M  V30 4017 H 366.07 0.562483 -0.352857 0
M  V30 4018 H 368.6 1.3189 -1.56417 0
M  V30 4019 H 368.61 3.76541 -1.57102 0
M  V30 4020 H 367.285 3.24627 -2.59981 0
M  V30 4021 H 365.862 3.63972 -0.811108 0
M  V30 4022 N 368.047 0.979072 1.23499 0
M  V30 4023 C 369.295 0.645941 1.91499 0
M  V30 4024 C 369.616 -0.822948 1.76784 0
M  V30 4025 O 368.886 -1.58854 1.14639 0
M  V30 4026 H 367.466 0.235919 0.708767 0
M  V30 4027 H 370.128 1.2426 1.50152 0
M  V30 4028 H 369.224 0.896411 2.9895 0
M  V30 4029 N 369.525 -1.3858 0.750561 0
M  V30 4030 C 370.457 -2.29057 0.0810714 0
M  V30 4031 C 371.47 -1.47596 -0.686973 0
M  V30 4032 O 372.659 -1.70495 -0.528563 0
M  V30 4033 C 369.759 -3.26475 -0.909247 0
M  V30 4034 C 368.932 -4.36945 -0.199478 0
M  V30 4035 C 367.991 -5.14572 -1.10011 0
M  V30 4036 O 367.017 -5.66321 -0.57177 0
M  V30 4037 N 368.219 -5.27262 -2.42849 0
M  V30 4038 H 370.984 -2.87153 0.858087 0
M  V30 4039 H 368.545 -1.50328 0.60109 0
M  V30 4040 H 370.537 -3.75285 -1.51471 0
M  V30 4041 H 369.107 -2.69298 -1.58736 0
M  V30 4042 H 368.327 -3.8981 0.586664 0
M  V30 4043 H 369.615 -5.07963 0.291783 0
M  V30 4044 H 369.013 -4.86763 -2.88233 0
M  V30 4045 H 367.57 -5.79456 -2.98453 0
M  V30 4046 N 371.003 -0.499398 -1.49478 0
M  V30 4047 C 372.25 0.0456899 -2.02448 0
M  V30 4048 C 372.578 1.37142 -1.37921 0
M  V30 4049 O 371.833 1.89111 -0.503544 0
M  V30 4050 C 372.132 0.248424 -3.56536 0
M  V30 4051 C 371.798 -0.999107 -4.39692 0
M  V30 4052 C 370.46 -1.34108 -4.62135 0
M  V30 4053 C 372.812 -1.82842 -4.88076 0
M  V30 4054 C 370.14 -2.51191 -5.30208 0
M  V30 4055 C 372.492 -2.99076 -5.57437 0
M  V30 4056 C 371.156 -3.33655 -5.78127 0
M  V30 4057 H 370.426 0.0167191 -0.740811 0
M  V30 4058 H 373.073 -0.65923 -1.79795 0
M  V30 4059 H 371.378 1.03586 -3.77859 0
M  V30 4060 H 373.075 0.684605 -3.95113 0
M  V30 4061 H 369.665 -0.722729 -4.22463 0
M  V30 4062 H 373.849 -1.57737 -4.70566 0
M  V30 4063 H 369.105 -2.78221 -5.44429 0
M  V30 4064 H 373.279 -3.63664 -5.93904 0
M  V30 4065 H 370.906 -4.24483 -6.30649 0
M  V30 4066 N 372.481 1.55866 -0.233164 0
M  V30 4067 C 373.729 1.9821 0.394593 0
M  V30 4068 C 374.05 1.12234 1.59463 0
M  V30 4069 O 373.32 0.201981 1.94856 0
M  V30 4070 H 371.9 0.732034 0.148778 0
M  V30 4071 H 374.562 1.92107 -0.32876 0
M  V30 4072 H 373.658 3.03845 0.713063 0
M  V30 4073 N 373.959 -0.0401083 1.57549 0
M  V30 4074 C 374.869 -1.06133 2.0922 0
M  V30 4075 C 375.885 -1.40356 1.0284 0
M  V30 4076 O 377.061 -1.49897 1.34509 0
M  V30 4077 C 374.126 -2.34658 2.55218 0
M  V30 4078 C 373.187 -2.07117 3.76033 0
M  V30 4079 C 372.42 -3.29514 4.19829 0
M  V30 4080 O 372.643 -4.39794 3.63232 0
M  V30 4081 O 371.577 -3.15863 5.12362 0
M  V30 4082 H 375.403 -0.652244 2.96613 0
M  V30 4083 H 372.988 -0.256368 1.47184 0
M  V30 4084 H 374.87 -3.10239 2.85184 0
M  V30 4085 H 373.545 -2.74883 1.70941 0
M  V30 4086 H 372.452 -1.29139 3.51104 0
M  V30 4087 H 373.785 -1.71754 4.61261 0
M  V30 4088 N 375.437 -1.54477 -0.31217 0
M  V30 4089 C 376.683 -1.73483 -1.0503 0
M  V30 4090 C 377.016 -0.513125 -1.87298 0
M  V30 4091 O 376.291 0.489864 -1.8823 0
M  V30 4092 C 376.574 -3.01723 -1.96558 0
M  V30 4093 C 376.427 -4.3417 -1.17545 0
M  V30 4094 C 377.746 -3.25772 -2.95907 0
M  V30 4095 H 374.865 -0.631222 -0.380432 0
M  V30 4096 H 377.507 -1.87184 -0.325932 0
M  V30 4097 H 375.657 -2.90174 -2.58324 0
M  V30 4098 H 377.329 -4.5762 -0.581513 0
M  V30 4099 H 375.572 -4.31159 -0.477925 0
M  V30 4100 H 376.243 -5.20143 -1.84811 0
M  V30 4101 H 378.719 -3.36857 -2.44267 0
M  V30 4102 H 377.595 -4.16838 -3.57123 0
M  V30 4103 H 377.856 -2.43537 -3.68974 0
M  V30 4104 N 376.915 0.57481 -1.46744 0
M  V30 4105 C 378.161 1.33251 -1.53674 0
M  V30 4106 C 378.516 1.91468 -0.189125 0
M  V30 4107 O 377.809 1.73954 0.803151 0
M  V30 4108 C 378.003 2.476 -2.57738 0
M  V30 4109 C 377.832 2.00586 -4.02487 0
M  V30 4110 C 376.602 1.85237 -4.70123 0
M  V30 4111 C 378.8 1.56078 -4.90045 0
M  V30 4112 N 376.782 1.32377 -5.99458 0
M  V30 4113 C 378.153 1.14863 -6.09267 0
M  V30 4114 C 380.208 1.43968 -4.76632 0
M  V30 4115 C 378.911 0.627435 -7.16558 0
M  V30 4116 C 380.937 0.932512 -5.84002 0
M  V30 4117 C 380.299 0.53019 -7.02402 0
M  V30 4118 H 376.398 0.480284 -0.617131 0
M  V30 4119 H 378.982 0.653592 -1.83402 0
M  V30 4120 H 377.153 3.13045 -2.29907 0
M  V30 4121 H 378.885 3.14567 -2.54616 0
M  V30 4122 H 375.64 2.07423 -4.25761 0
M  V30 4123 H 376.064 1.08085 -6.68316 0
M  V30 4124 H 380.706 1.73689 -3.85476 0
M  V30 4125 H 378.424 0.317821 -8.07475 0
M  V30 4126 H 382.01 0.842611 -5.75666 0
M  V30 4127 H 380.89 0.14381 -7.84068 0
M  V30 4128 N 378.394 1.34581 0.820102 0
M  V30 4129 C 379.327 1.20735 1.93644 0
M  V30 4130 C 380.305 0.0983343 1.62302 0
M  V30 4131 O 381.489 0.263997 1.86642 0
M  V30 4132 C 378.616 0.856037 3.27704 0
M  V30 4133 C 377.662 1.97521 3.78005 0
M  V30 4134 S 378.495 3.58906 3.97425 0
M  V30 4135 C 379.651 3.25822 5.34407 0
M  V30 4136 H 379.884 2.15231 2.05093 0
M  V30 4137 H 377.417 1.1964 0.97599 0
M  V30 4138 H 379.375 0.660133 4.05157 0
M  V30 4139 H 378.036 -0.0706253 3.14021 0
M  V30 4140 H 377.229 1.68321 4.75062 0
M  V30 4141 H 376.831 2.12875 3.07507 0
M  V30 4142 H 379.123 2.77812 6.17922 0
M  V30 4143 H 380.066 4.22029 5.68592 0
M  V30 4144 H 380.474 2.61932 5.00052 0
M  V30 4145 N 379.872 -1.04064 1.18357 0
M  V30 4146 C 381.12 -1.76915 0.977013 0
M  V30 4147 C 381.441 -1.88624 -0.494577 0
M  V30 4148 O 380.711 -1.41125 -1.3587 0
M  V30 4149 H 379.291 -0.65535 0.358504 0
M  V30 4150 H 381.953 -1.25592 1.49039 0
M  V30 4151 H 381.049 -2.78178 1.41504 0
M  V30 4152 N 381.35 -0.985608 -1.22978 0
M  V30 4153 C 382.58 -0.674603 -1.95276 0
M  V30 4154 C 382.988 0.763483 -1.73111 0
M  V30 4155 O 382.331 1.52601 -1.02268 0
M  V30 4156 C 382.393 -0.891597 -3.48268 0
M  V30 4157 C 382.057 -2.31275 -3.94158 0
M  V30 4158 C 383.054 -3.29179 -4.02415 0
M  V30 4159 C 380.739 -2.64524 -4.27004 0
M  V30 4160 C 382.733 -4.58407 -4.42879 0
M  V30 4161 C 380.42 -3.93974 -4.67149 0
M  V30 4162 C 381.418 -4.90727 -4.75053 0
M  V30 4163 O 381.106 -6.17865 -5.14294 0
M  V30 4164 H 380.838 -0.249251 -0.628371 0
M  V30 4165 H 383.392 -1.32106 -1.5728 0
M  V30 4166 H 381.622 -0.187962 -3.86243 0
M  V30 4167 H 383.311 -0.576957 -4.01779 0
M  V30 4168 H 384.077 -3.04823 -3.77237 0
M  V30 4169 H 379.956 -1.89923 -4.2006 0
M  V30 4170 H 383.5 -5.33926 -4.48964 0
M  V30 4171 H 379.397 -4.18122 -4.91777 0
M  V30 4172 H 380.165 -6.21694 -5.32389 0
M  V30 4173 N 382.828 1.3818 -0.7579 0
M  V30 4174 C 384.058 2.04004 -0.326463 0
M  V30 4175 C 384.466 1.57286 1.05156 0
M  V30 4176 O 383.809 0.743144 1.67997 0
M  V30 4177 C 383.871 3.58444 -0.275402 0
M  V30 4178 C 383.535 4.28237 -1.59569 0
M  V30 4179 C 384.532 4.53312 -2.54566 0
M  V30 4180 C 382.217 4.66341 -1.86631 0
M  V30 4181 C 384.211 5.15531 -3.74842 0
M  V30 4182 C 381.898 5.28283 -3.0718 0
M  V30 4183 C 382.896 5.52814 -4.01106 0
M  V30 4184 O 382.584 6.13465 -5.19534 0
M  V30 4185 H 382.316 0.662026 -0.136739 0
M  V30 4186 H 384.87 1.7777 -1.02893 0
M  V30 4187 H 383.1 3.83667 0.483337 0
M  V30 4188 H 384.789 4.05701 0.127099 0
M  V30 4189 H 385.555 4.24299 -2.34936 0
M  V30 4190 H 381.434 4.46591 -1.14358 0
M  V30 4191 H 384.978 5.34594 -4.48168 0
M  V30 4192 H 380.875 5.56719 -3.26702 0
M  V30 4193 H 381.643 6.31951 -5.20173 0
M  V30 4194 N 384.306 0.507319 1.49211 0
M  V30 4195 C 385.253 -0.267728 2.29242 0
M  V30 4196 C 386.223 -0.954609 1.35928 0
M  V30 4197 O 387.408 -0.960046 1.64887 0
M  V30 4198 C 384.548 -1.32243 3.18756 0
M  V30 4199 C 383.661 -0.64669 4.27132 0
M  V30 4200 C 382.796 -1.68238 5.03855 0
M  V30 4201 C 381.835 -0.98885 6.0406 0
M  V30 4202 N 380.972 -1.96903 6.73924 0
M  V30 4203 H 385.812 0.420968 2.95012 0
M  V30 4204 H 383.349 0.219443 1.45454 0
M  V30 4205 H 385.307 -1.94599 3.69036 0
M  V30 4206 H 383.937 -1.97981 2.54958 0
M  V30 4207 H 382.989 0.0902926 3.80293 0
M  V30 4208 H 384.301 -0.101058 4.98698 0
M  V30 4209 H 383.455 -2.38081 5.58034 0
M  V30 4210 H 382.194 -2.26187 4.32077 0
M  V30 4211 H 381.199 -0.276222 5.49106 0
M  V30 4212 H 382.424 -0.415767 6.77826 0
M  V30 4213 H 380.37 -2.53803 6.04913 0
M  V30 4214 H 380.287 -1.47423 7.41487 0
M  V30 4215 H 381.555 -2.66015 7.32705 0
M  V30 4216 N 385.784 -1.5574 0.241426 0
M  V30 4217 C 386.732 -2.22538 -0.676718 0
M  V30 4218 C 387.726 -1.21117 -1.18436 0
M  V30 4219 O 388.932 -1.39144 -1.14188 0
M  V30 4220 H 385.307 -0.713776 -0.236701 0
M  V30 4221 H 387.278 -2.98264 -0.0901187 0
M  V30 4222 C 386.027 -2.93439 -1.86518 0
M  V30 4223 H 385.35 -3.7125 -1.4837 0
M  V30 4224 H 386.79 -3.43549 -2.48495 0
M  V30 4225 C 385.249 -1.97008 -2.73294 0
M  V30 4226 O 385.779 -1.49965 -3.72657 0
M  V30 4227 N 383.985 -1.64227 -2.39745 0
M  V30 4228 H 383.532 -2.02677 -1.58996 0
M  V30 4229 H 383.49 -0.999708 -2.98083 0
M  V30 4230 N 387.262 0.0317525 -1.57568 0
M  V30 4231 C 388.21 1.05165 -2.07468 0
M  V30 4232 C 389.204 1.3761 -0.98792 0
M  V30 4233 O 390.41 1.36546 -1.17282 0
M  V30 4234 H 386.785 0.35666 -0.66204 0
M  V30 4235 H 388.756 0.604958 -2.92203 0
M  V30 4236 C 387.505 2.34488 -2.56731 0
M  V30 4237 H 386.828 2.10383 -3.39969 0
M  V30 4238 H 388.268 3.04203 -2.95358 0
M  V30 4239 C 386.727 3.03266 -1.46736 0
M  V30 4240 O 387.257 3.92988 -0.832069 0
M  V30 4241 N 385.463 2.6455 -1.20256 0
M  V30 4242 H 385.01 1.91674 -1.72102 0
M  V30 4243 H 384.968 3.10886 -0.468737 0
M  V30 4244 N 388.74 1.54641 0.303973 0
M  V30 4245 C 389.673 1.80263 1.3993 0
M  V30 4246 C 390.651 0.653657 1.48883 0
M  V30 4247 O 391.835 0.893284 1.6599 0
M  V30 4248 C 388.962 1.9367 2.77866 0
M  V30 4249 C 388.008 3.16078 2.86351 0
M  V30 4250 S 388.841 4.74219 2.4875 0
M  V30 4251 C 389.997 4.90558 3.88721 0
M  V30 4252 H 390.23 2.72886 1.17986 0
M  V30 4253 H 387.763 1.46014 0.501918 0
M  V30 4254 H 389.721 2.0208 3.57315 0
M  V30 4255 H 388.382 1.01991 2.9708 0
M  V30 4256 H 387.575 3.22252 3.87517 0
M  V30 4257 H 387.177 3.06099 2.14893 0
M  V30 4258 H 389.469 4.74398 4.83687 0
M  V30 4259 H 390.412 5.92651 3.87518 0
M  V30 4260 H 390.82 4.18728 3.78585 0
M  V30 4261 N 390.218 -0.567019 1.47046 0
M  V30 4262 C 391.165 -1.67489 1.58796 0
M  V30 4263 C 392.135 -1.60399 0.43144 0
M  V30 4264 O 393.32 -1.79378 0.650233 0
M  V30 4265 C 390.46 -3.05821 1.59899 0
M  V30 4266 C 389.573 -3.2342 2.86397 0
M  V30 4267 C 388.708 -4.52093 2.789 0
M  V30 4268 C 387.747 -4.6309 4.00267 0
M  V30 4269 N 386.884 -5.83106 3.91064 0
M  V30 4270 H 391.724 -1.56785 2.53422 0
M  V30 4271 H 389.261 -0.763896 1.2571 0
M  V30 4272 H 391.219 -3.8591 1.58522 0
M  V30 4273 H 389.849 -3.15384 0.687929 0
M  V30 4274 H 388.901 -2.3683 2.97684 0
M  V30 4275 H 390.213 -3.27412 3.76301 0
M  V30 4276 H 389.367 -5.4043 2.75718 0
M  V30 4277 H 388.106 -4.50565 1.86662 0
M  V30 4278 H 387.111 -3.73168 4.03765 0
M  V30 4279 H 388.336 -4.66386 4.93621 0
M  V30 4280 H 386.282 -5.82546 3.01623 0
M  V30 4281 H 386.199 -5.88434 4.74638 0
M  V30 4282 H 387.467 -6.73831 3.91882 0
M  V30 4283 N 391.696 -1.35014 -0.812953 0
M  V30 4284 C 392.942 -1.2812 -1.57204 0
M  V30 4285 C 393.275 0.145869 -1.93651 0
M  V30 4286 O 392.55 1.0937 -1.60836 0
M  V30 4287 C 392.833 -2.18162 -2.86492 0
M  V30 4288 C 392.686 -3.69454 -2.56561 0
M  V30 4289 C 394.005 -2.07439 -3.88145 0
M  V30 4290 H 391.124 -0.466746 -0.570366 0
M  V30 4291 H 393.766 -1.65357 -0.935783 0
M  V30 4292 H 391.916 -1.86535 -3.40789 0
M  V30 4293 H 393.588 -4.11493 -2.08497 0
M  V30 4294 H 391.831 -3.9005 -1.89851 0
M  V30 4295 H 392.502 -4.27835 -3.48799 0
M  V30 4296 H 394.978 -2.35228 -3.4323 0
M  V30 4297 H 393.854 -2.7265 -4.76396 0
M  V30 4298 H 394.115 -1.05439 -4.29343 0
M  V30 4299 N 393.175 1.03435 -1.18907 0
M  V30 4300 C 394.138 2.09756 -0.923844 0
M  V30 4301 C 395.138 1.60528 0.093416 0
M  V30 4302 O 396.328 1.73631 -0.140727 0
M  V30 4303 C 393.46 3.38692 -0.387354 0
M  V30 4304 H 394.653 2.34719 -1.86674 0
M  V30 4305 H 392.206 1.19959 -1.00197 0
M  V30 4306 H 392.941 3.19396 0.561845 0
M  V30 4307 H 392.726 3.75742 -1.12074 0
M  V30 4308 H 394.216 4.17016 -0.220694 0
M  V30 4309 N 394.653 0.992116 1.22453 0
M  V30 4310 C 395.902 0.662992 1.90492 0
M  V30 4311 C 396.215 -0.808407 1.78113 0
M  V30 4312 O 397.421 -1.24908 2.41061 0
M  V30 4313 C 395.877 1.1353 3.41524 0
M  V30 4314 C 395.485 2.63187 3.62542 0
M  V30 4315 C 397.229 0.880465 4.15269 0
M  V30 4316 C 395.136 3.04024 5.0727 0
M  V30 4317 H 394.066 0.244278 0.713333 0
M  V30 4318 H 396.717 1.20157 1.38688 0
M  V30 4319 H 395.099 0.52485 3.92506 0
M  V30 4320 H 396.273 3.2957 3.22056 0
M  V30 4321 H 394.588 2.86543 3.02129 0
M  V30 4322 H 397.185 1.16128 5.21937 0
M  V30 4323 H 397.528 -0.183408 4.15896 0
M  V30 4324 H 398.061 1.45307 3.70312 0
M  V30 4325 H 394.8 4.09584 5.11782 0
M  V30 4326 H 394.32 2.42343 5.48662 0
M  V30 4327 H 395.999 2.95282 5.75689 0
M  V30 4328 N 396.131 -1.37776 0.765217 0
M  V30 4329 C 397.078 -2.30342 0.145274 0
M  V30 4330 C 398.048 -1.5077 -0.696971 0
M  V30 4331 O 399.233 -1.79362 -0.650689 0
M  V30 4332 C 396.373 -3.37227 -0.732939 0
M  V30 4333 C 395.486 -4.31819 0.125199 0
M  V30 4334 C 394.621 -5.25777 -0.757107 0
M  V30 4335 C 393.66 -6.12012 0.103963 0
M  V30 4336 N 392.797 -6.98232 -0.735953 0
M  V30 4337 H 397.637 -2.8278 0.940195 0
M  V30 4338 H 395.174 -1.39211 0.475255 0
M  V30 4339 H 397.132 -3.97818 -1.25686 0
M  V30 4340 H 395.762 -2.86171 -1.49353 0
M  V30 4341 H 394.814 -3.7259 0.766865 0
M  V30 4342 H 396.126 -4.92509 0.789683 0
M  V30 4343 H 395.28 -5.91541 -1.34776 0
M  V30 4344 H 394.019 -4.65481 -1.45529 0
M  V30 4345 H 393.024 -5.45233 0.707197 0
M  V30 4346 H 394.249 -6.74379 0.799381 0
M  V30 4347 H 392.195 -6.40472 -1.41887 0
M  V30 4348 H 392.112 -7.55891 -0.128624 0
M  V30 4349 H 393.38 -7.68393 -1.31121 0
M  V30 4350 N 397.609 -0.515225 -1.4894 0
M  V30 4351 C 398.837 0.0206034 -2.0689 0
M  V30 4352 C 399.252 1.29514 -1.37374 0
M  V30 4353 O 398.609 1.76698 -0.456529 0
M  V30 4354 C 398.66 0.26351 -3.60538 0
M  V30 4355 O 398.381 -0.960517 -4.27441 0
M  V30 4356 C 399.882 0.841383 -4.35242 0
M  V30 4357 H 397.102 -0.0268608 -0.670462 0
M  V30 4358 H 399.646 -0.716651 -1.91532 0
M  V30 4359 H 397.801 0.950777 -3.75552 0
M  V30 4360 H 398.215 -0.73212 -5.19365 0
M  V30 4361 H 399.689 0.96085 -5.43573 0
M  V30 4362 H 400.166 1.8427 -3.98674 0
M  V30 4363 H 400.772 0.191143 -4.2487 0
M  V30 4364 N 399.087 1.5561 -0.249682 0
M  V30 4365 C 400.017 2.24477 0.642826 0
M  V30 4366 C 400.998 1.22601 1.17911 0
M  V30 4367 O 402.183 1.5126 1.21795 0
M  V30 4368 C 399.313 2.94638 1.83863 0
M  V30 4369 C 398.267 4.03227 1.435 0
M  V30 4370 C 397.593 4.60828 2.71186 0
M  V30 4371 C 398.893 5.18796 0.604002 0
M  V30 4372 H 400.587 2.99321 0.0685625 0
M  V30 4373 H 398.133 1.43965 0.0315363 0
M  V30 4374 H 400.086 3.41517 2.46868 0
M  V30 4375 H 398.81 2.17287 2.43832 0
M  V30 4376 H 397.469 3.57121 0.828275 0
M  V30 4377 H 397.117 3.80174 3.29358 0
M  V30 4378 H 396.817 5.34132 2.44901 0
M  V30 4379 H 398.341 5.10442 3.35084 0
M  V30 4380 H 399.755 5.61883 1.13842 0
M  V30 4381 H 398.152 5.98506 0.437097 0
M  V30 4382 H 399.222 4.83384 -0.383147 0
M  V30 4383 N 400.565 -0.0233959 1.57583 0
M  V30 4384 C 401.512 -1.02224 2.06927 0
M  V30 4385 C 402.482 -1.35575 0.959617 0
M  V30 4386 O 403.667 -1.45815 1.23055 0
M  V30 4387 C 400.807 -2.31636 2.5581 0
M  V30 4388 C 399.92 -2.04394 3.80588 0
M  V30 4389 C 399.055 -3.27717 4.18061 0
M  V30 4390 C 398.094 -2.96056 5.3574 0
M  V30 4391 N 397.231 -4.11847 5.68618 0
M  V30 4392 H 402.071 -0.594504 2.9201 0
M  V30 4393 H 399.608 -0.281921 1.44373 0
M  V30 4394 H 401.566 -3.07258 2.82221 0
M  V30 4395 H 400.196 -2.72122 1.73636 0
M  V30 4396 H 399.248 -1.19244 3.61227 0
M  V30 4397 H 400.56 -1.77042 4.66323 0
M  V30 4398 H 399.714 -4.11702 4.4563 0
M  V30 4399 H 398.453 -3.58188 3.30988 0
M  V30 4400 H 397.458 -2.10474 5.07918 0
M  V30 4401 H 398.683 -2.66857 6.24471 0
M  V30 4402 H 396.629 -4.42258 4.84504 0
M  V30 4403 H 396.546 -3.87938 6.48876 0
M  V30 4404 H 397.814 -4.96689 6.00766 0
M  V30 4405 N 402.043 -1.548 -0.295768 0
M  V30 4406 C 402.953 -1.89177 -1.38742 0
M  V30 4407 C 403.969 -0.786481 -1.55211 0
M  V30 4408 O 405.145 -1.08344 -1.69775 0
M  V30 4409 C 402.21 -2.13663 -2.73036 0
M  V30 4410 C 401.271 -3.37349 -2.65508 0
M  V30 4411 C 400.504 -3.60658 -3.93398 0
M  V30 4412 O 400.727 -2.86882 -4.93006 0
M  V30 4413 O 399.661 -4.54179 -3.94975 0
M  V30 4414 H 403.487 -2.82059 -1.12589 0
M  V30 4415 H 401.072 -1.41056 -0.492295 0
M  V30 4416 H 402.954 -2.3094 -3.52484 0
M  V30 4417 H 401.629 -1.23967 -2.99022 0
M  V30 4418 H 400.536 -3.25431 -1.84514 0
M  V30 4419 H 401.869 -4.27192 -2.44474 0
M  V30 4420 N 403.521 0.559213 -1.47345 0
M  V30 4421 C 404.769 1.31388 -1.53563 0
M  V30 4422 C 405.09 1.93985 -0.198678 0
M  V30 4423 O 404.36 1.79825 0.777167 0
M  V30 4424 H 402.94 0.487901 -0.565652 0
M  V30 4425 H 405.602 0.65315 -1.8363 0
M  V30 4426 H 404.698 2.10844 -2.30111 0
M  V30 4427 N 404.999 1.35443 0.805782 0
M  V30 4428 C 406.227 1.31878 1.59423 0
M  V30 4429 C 406.642 -0.103562 1.88516 0
M  V30 4430 O 405.999 -1.05575 1.48863 0
M  V30 4431 C 406.05 2.12426 2.92502 0
M  V30 4432 O 405.771 3.49115 2.6467 0
M  V30 4433 C 407.272 2.16455 3.86862 0
M  V30 4434 H 404.492 0.453002 0.495005 0
M  V30 4435 H 407.036 1.78309 1.00131 0
M  V30 4436 H 405.191 1.69593 3.48306 0
M  V30 4437 H 405.605 3.90957 3.49647 0
M  V30 4438 H 407.079 2.77204 4.77349 0
M  V30 4439 H 407.556 1.16352 4.23508 0
M  V30 4440 H 408.162 2.59453 3.36993 0
M  V30 4441 N 406.477 -1.02803 1.19454 0
M  V30 4442 C 407.41 -2.107 0.876396 0
M  V30 4443 C 408.388 -1.61741 -0.166897 0
M  V30 4444 O 409.572 -1.88451 -0.0430195 0
M  V30 4445 C 406.699 -3.37262 0.311758 0
M  V30 4446 C 405.745 -4.05093 1.33424 0
M  V30 4447 S 406.578 -4.50498 2.89503 0
M  V30 4448 C 407.734 -5.80277 2.34584 0
M  V30 4449 H 407.967 -2.37362 1.79016 0
M  V30 4450 H 405.5 -1.15755 1.02177 0
M  V30 4451 H 407.458 -4.10499 -0.00748752 0
M  V30 4452 H 406.119 -3.08693 -0.58032 0
M  V30 4453 H 405.312 -4.9611 0.888302 0
M  V30 4454 H 404.914 -3.3803 1.60037 0
M  V30 4455 H 407.206 -6.54873 1.73633 0
M  V30 4456 H 408.149 -6.29651 3.23952 0
M  V30 4457 H 408.557 -5.3599 1.77131 0
M  V30 4458 N 407.956 -0.998596 -1.21925 0
M  V30 4459 C 409.181 -0.696015 -1.95372 0
M  V30 4460 C 409.606 0.733826 -1.73195 0
M  V30 4461 O 408.964 1.50242 -1.01474 0
M  V30 4462 C 409.012 -1.01466 -3.4603 0
M  V30 4463 O 408.116 -0.116415 -4.12236 0
M  V30 4464 H 407.457 -0.259938 -0.611006 0
M  V30 4465 H 409.987 -1.33711 -1.54863 0
M  V30 4466 H 409.997 -0.958855 -3.96573 0
M  V30 4467 H 408.672 -2.05653 -3.61497 0
M  V30 4468 H 407.249 -0.228193 -3.72201 0
M  V30 4469 N 409.434 1.37368 -0.772513 0
M  V30 4470 C 410.845 1.8231 -0.402493 0
M  V30 4471 C 411.196 1.6436 1.07146 0
M  V30 4472 O 410.321 1.15514 1.82991 0
M  V30 4473 C 410.916 3.30979 -0.723776 0
M  V30 4474 C 409.475 3.74195 -0.406802 0
M  V30 4475 C 408.622 2.59885 -0.967218 0
M  V30 4476 H 411.573 1.25829 -0.967099 0
M  V30 4477 H 411.594 3.80499 -0.00870832 0
M  V30 4478 H 411.106 3.44011 -1.7966 0
M  V30 4479 H 409.207 3.66732 0.658673 0
M  V30 4480 H 409.32 4.7027 -0.915588 0
M  V30 4481 H 407.684 2.51674 -0.391416 0
M  V30 4482 H 408.467 2.7571 -2.04546 0
M  V30 4483 N 410.912 0.523116 1.48665 0
M  V30 4484 C 411.822 -0.247406 2.33292 0
M  V30 4485 C 412.838 -0.945769 1.46052 0
M  V30 4486 O 414.014 -0.922253 1.79043 0
M  V30 4487 C 411.079 -1.28487 3.22012 0
M  V30 4488 C 410.14 -0.597592 4.2512 0
M  V30 4489 C 409.373 -1.58563 5.09601 0
M  V30 4490 O 409.596 -2.81763 4.95949 0
M  V30 4491 O 408.53 -1.12879 5.91221 0
M  V30 4492 H 412.356 0.445869 3.00409 0
M  V30 4493 H 409.941 0.284128 1.46673 0
M  V30 4494 H 411.823 -1.88459 3.7691 0
M  V30 4495 H 410.498 -1.96068 2.57564 0
M  V30 4496 H 409.405 0.0424407 3.74076 0
M  V30 4497 H 410.738 0.0361517 4.92187 0
M  V30 4498 N 412.39 -1.55475 0.257931 0
M  V30 4499 C 413.353 -2.20551 -0.623706 0
M  V30 4500 C 414.353 -1.17809 -1.09443 0
M  V30 4501 O 415.543 -1.42823 -0.997362 0
M  V30 4502 C 412.675 -2.85784 -1.8585 0
M  V30 4503 H 413.868 -2.99848 -0.0557743 0
M  V30 4504 H 411.421 -1.56298 0.0084422 0
M  V30 4505 H 412.156 -2.10453 -2.46739 0
M  V30 4506 H 411.941 -3.61057 -1.52907 0
M  V30 4507 H 413.431 -3.35553 -2.48584 0
M  V30 4508 N 413.868 0.0150385 -1.57593 0
M  V30 4509 C 415.115 0.703001 -1.89906 0
M  V30 4510 C 415.443 1.74604 -0.856944 0
M  V30 4511 O 414.698 1.95197 0.140287 0
M  V30 4512 C 414.997 1.39686 -3.28972 0
M  V30 4513 C 414.663 0.488457 -4.48246 0
M  V30 4514 C 413.325 0.2383 -4.8061 0
M  V30 4515 C 415.677 -0.137881 -5.21018 0
M  V30 4516 C 413.005 -0.646738 -5.83125 0
M  V30 4517 C 415.357 -1.0107 -6.24474 0
M  V30 4518 C 414.021 -1.27019 -6.55303 0
M  V30 4519 H 413.291 0.257246 -0.694914 0
M  V30 4520 H 415.938 -0.037259 -1.91464 0
M  V30 4521 H 414.243 2.21079 -3.23468 0
M  V30 4522 H 415.94 1.93495 -3.51227 0
M  V30 4523 H 412.53 0.693593 -4.22951 0
M  V30 4524 H 416.714 0.0423953 -4.96282 0
M  V30 4525 H 411.97 -0.855937 -6.05379 0
M  V30 4526 H 416.144 -1.50247 -6.79999 0
M  V30 4527 H 413.771 -1.95769 -7.3456 0
M  V30 4528 N 415.346 1.54954 0.287554 0
M  V30 4529 C 416.276 1.89839 1.35954 0
M  V30 4530 C 417.257 0.758675 1.52244 0
M  V30 4531 O 418.442 1.01557 1.65529 0
M  V30 4532 C 415.572 2.15753 2.72154 0
M  V30 4533 C 414.526 3.3159 2.70614 0
M  V30 4534 C 413.852 3.42952 4.10229 0
M  V30 4535 C 415.152 4.68359 2.31165 0
M  V30 4536 H 416.846 2.79625 1.07007 0
M  V30 4537 H 414.392 1.3454 0.513316 0
M  V30 4538 H 416.345 2.38743 3.47246 0
M  V30 4539 H 415.069 1.22752 3.02654 0
M  V30 4540 H 413.728 3.08545 1.97979 0
M  V30 4541 H 413.376 2.47443 4.37928 0
M  V30 4542 H 413.076 4.20826 4.10097 0
M  V30 4543 H 414.6 3.68218 4.87081 0
M  V30 4544 H 416.014 4.9099 2.95976 0
M  V30 4545 H 414.411 5.49044 2.42221 0
M  V30 4546 H 415.481 4.68165 1.26291 0
M  V30 4547 N 416.824 -0.551391 1.4764 0
M  V30 4548 C 418.072 -1.30572 1.54258 0
M  V30 4549 C 418.393 -1.93877 0.208963 0
M  V30 4550 O 417.663 -1.80234 -0.767619 0
M  V30 4551 H 416.243 -0.484894 0.568231 0
M  V30 4552 H 418.905 -0.643402 1.83974 0
M  V30 4553 H 418.001 -2.09621 2.31226 0
M  V30 4554 N 418.302 -1.35869 -0.798587 0
M  V30 4555 C 419.212 -1.31578 -1.94228 0
M  V30 4556 C 420.228 -0.21939 -1.72611 0
M  V30 4557 O 421.404 -0.450167 -1.96305 0
M  V30 4558 C 418.469 -1.09528 -3.28944 0
M  V30 4559 C 417.53 -2.28556 -3.63402 0
M  V30 4560 C 416.763 -2.07549 -4.9169 0
M  V30 4561 O 416.986 -1.046 -5.60727 0
M  V30 4562 O 415.92 -2.95106 -5.24591 0
M  V30 4563 H 419.746 -2.27847 -2.00796 0
M  V30 4564 H 417.331 -1.16322 -0.937526 0
M  V30 4565 H 419.213 -0.991127 -4.09579 0
M  V30 4566 H 417.888 -0.16315 -3.23289 0
M  V30 4567 H 416.795 -2.44538 -2.83112 0
M  V30 4568 H 418.128 -3.20244 -3.73771 0
M  V30 4569 N 419.78 1.02168 -1.19998 0
M  V30 4570 C 420.743 2.08765 -0.94604 0
M  V30 4571 C 421.743 1.60618 0.0763846 0
M  V30 4572 O 422.933 1.73472 -0.159135 0
M  V30 4573 C 420.065 3.38262 -0.423255 0
M  V30 4574 H 421.258 2.32726 -1.89153 0
M  V30 4575 H 418.811 1.1889 -1.01464 0
M  V30 4576 H 419.546 3.19974 0.527938 0
M  V30 4577 H 419.331 3.74532 -1.16053 0
M  V30 4578 H 420.821 4.16759 -0.264911 0
M  V30 4579 N 421.258 1.00505 1.21394 0
M  V30 4580 C 422.206 0.558623 2.25792 0
M  V30 4581 C 423.2 -0.396848 1.64686 0
M  V30 4582 O 424.406 -0.268035 1.77993 0
M  V30 4583 H 420.781 0.1623 0.734277 0
M  V30 4584 H 422.752 1.4503 2.60785 0
M  V30 4585 C 421.501 -0.0989574 3.47559 0
M  V30 4586 H 420.824 0.627225 3.94849 0
M  V30 4587 H 422.264 -0.3746 4.22342 0
M  V30 4588 C 420.723 -1.33817 3.09184 0
M  V30 4589 O 421.253 -2.43252 3.19674 0
M  V30 4590 N 419.459 -1.21793 2.63846 0
M  V30 4591 H 419.006 -0.32746 2.5551 0
M  V30 4592 H 418.964 -2.04809 2.38539 0
M  V30 4593 N 422.737 -1.36956 0.779787 0
M  V30 4594 C 423.983 -1.99787 0.348281 0
M  V30 4595 C 424.316 -1.61756 -1.07465 0
M  V30 4596 O 423.591 -0.867639 -1.74075 0
M  V30 4597 C 423.874 -3.56597 0.50104 0
M  V30 4598 C 423.727 -4.04513 1.96697 0
M  V30 4599 C 425.046 -4.40008 -0.0898097 0
M  V30 4600 H 422.165 -0.725796 0.128022 0
M  V30 4601 H 424.807 -1.62514 0.984331 0
M  V30 4602 H 422.957 -3.88479 -0.0404347 0
M  V30 4603 H 424.629 -3.83161 2.56876 0
M  V30 4604 H 422.872 -3.56408 2.47297 0
M  V30 4605 H 423.543 -5.1352 2.02486 0
M  V30 4606 H 426.019 -4.14431 0.372293 0
M  V30 4607 H 424.895 -5.4888 0.0471605 0
M  V30 4608 H 425.156 -4.26035 -1.18096 0
M  V30 4609 N 424.215 -0.530993 -1.48385 0
M  V30 4610 C 425.148 0.278511 -2.26494 0
M  V30 4611 C 426.126 0.943905 -1.32398 0
M  V30 4612 O 427.31 0.968098 -1.61741 0
M  V30 4613 C 424.437 1.39453 -3.08659 0
M  V30 4614 C 423.483 0.840434 -4.18137 0
M  V30 4615 S 424.316 -0.292496 -5.34701 0
M  V30 4616 C 425.472 0.825973 -6.20426 0
M  V30 4617 H 425.705 -0.384365 -2.94805 0
M  V30 4618 H 423.238 -0.316799 -1.51115 0
M  V30 4619 H 425.196 2.03382 -3.56575 0
M  V30 4620 H 423.857 2.02913 -2.3976 0
M  V30 4621 H 423.05 1.67769 -4.75257 0
M  V30 4622 H 422.652 0.277819 -3.72967 0
M  V30 4623 H 424.944 1.72438 -6.55188 0
M  V30 4624 H 425.887 0.292728 -7.07495 0
M  V30 4625 H 426.295 1.10683 -5.53543 0
M  V30 4626 N 425.693 1.55336 -0.266172 0
M  V30 4627 C 426.64 2.22172 0.625165 0
M  V30 4628 C 427.61 1.19211 1.15663 0
M  V30 4629 O 428.795 1.47723 1.20758 0
M  V30 4630 C 425.935 2.93972 1.8076 0
M  V30 4631 C 425.048 4.11632 1.31084 0
M  V30 4632 C 424.183 4.71099 2.45436 0
M  V30 4633 C 423.222 5.8097 1.92718 0
M  V30 4634 N 422.359 6.34538 3.00509 0
M  V30 4635 H 427.199 2.9796 0.0485582 0
M  V30 4636 H 424.736 1.47095 0.0122024 0
M  V30 4637 H 426.694 3.33811 2.50251 0
M  V30 4638 H 425.324 2.20623 2.35638 0
M  V30 4639 H 424.376 3.76975 0.509326 0
M  V30 4640 H 425.688 4.90893 0.884633 0
M  V30 4641 H 424.842 5.13612 3.22936 0
M  V30 4642 H 423.581 3.91096 2.91368 0
M  V30 4643 H 422.586 5.37916 1.13695 0
M  V30 4644 H 423.811 6.62836 1.47733 0
M  V30 4645 H 421.757 5.57433 3.45839 0
M  V30 4646 H 421.674 7.09046 2.62279 0
M  V30 4647 H 422.942 6.81709 3.78011 0
M  V30 4648 N 427.171 -0.0066808 1.57599 0
M  V30 4649 C 428.134 -0.985035 2.06953 0
M  V30 4650 C 429.134 -1.27663 0.977687 0
M  V30 4651 O 430.324 -1.22293 1.24057 0
M  V30 4652 C 427.456 -2.3118 2.50536 0
M  V30 4653 H 428.649 -0.558255 2.94658 0
M  V30 4654 H 426.202 -0.254011 1.54222 0
M  V30 4655 H 426.937 -2.78561 1.66054 0
M  V30 4656 H 426.722 -2.11338 3.3027 0
M  V30 4657 H 428.212 -3.01377 2.8907 0
M  V30 4658 N 428.649 -1.55105 -0.279332 0
M  V30 4659 C 429.579 -1.90557 -1.34945 0
M  V30 4660 C 430.56 -0.766738 -1.51839 0
M  V30 4661 O 431.745 -1.02434 -1.64988 0
M  V30 4662 C 428.875 -2.17193 -2.71006 0
M  V30 4663 C 427.829 -3.33021 -2.68851 0
M  V30 4664 C 427.155 -3.45123 -4.08405 0
M  V30 4665 C 428.455 -4.69578 -2.28678 0
M  V30 4666 H 430.149 -2.80188 -1.05522 0
M  V30 4667 H 427.695 -1.34811 -0.506173 0
M  V30 4668 H 429.648 -2.40581 -3.45975 0
M  V30 4669 H 428.372 -1.24355 -3.01999 0
M  V30 4670 H 427.031 -3.0959 -1.9634 0
M  V30 4671 H 426.679 -2.49762 -4.3661 0
M  V30 4672 H 426.379 -4.22995 -4.07859 0
M  V30 4673 H 427.903 -3.70796 -4.85121 0
M  V30 4674 H 429.317 -4.92553 -2.93368 0
M  V30 4675 H 427.714 -5.5032 -2.39306 0
M  V30 4676 H 428.784 -4.68828 -1.23807 0
M  V30 4677 N 430.127 0.543554 -1.4793 0
M  V30 4678 C 431.059 1.665 -1.57513 0
M  V30 4679 C 432.072 1.56156 -0.460333 0
M  V30 4680 O 433.261 1.62865 -0.730573 0
M  V30 4681 C 430.361 3.05063 -1.47614 0
M  V30 4682 C 429.534 3.41024 -2.739 0
M  V30 4683 C 428.593 4.58809 -2.57645 0
M  V30 4684 O 427.619 4.62707 -3.31498 0
M  V30 4685 N 428.821 5.56149 -1.66368 0
M  V30 4686 H 431.586 1.5872 -2.5422 0
M  V30 4687 H 429.147 0.730517 -1.44482 0
M  V30 4688 H 431.139 3.81712 -1.34455 0
M  V30 4689 H 429.709 3.06994 -0.589359 0
M  V30 4690 H 428.929 2.53687 -3.01723 0
M  V30 4691 H 430.217 3.61831 -3.57709 0
M  V30 4692 H 429.615 5.55767 -1.05543 0
M  V30 4693 H 428.172 6.32071 -1.59154 0
M  V30 4694 N 431.605 1.3629 0.791371 0
M  V30 4695 C 432.555 1.26988 1.89362 0
M  V30 4696 C 433.539 0.161795 1.60084 0
M  V30 4697 O 434.731 0.394426 1.72549 0
M  V30 4698 C 431.86 1.05944 3.26544 0
M  V30 4699 C 430.946 2.21211 3.61838 0
M  V30 4700 N 431.337 3.46518 3.68455 0
M  V30 4701 C 429.635 2.12933 3.91887 0
M  V30 4702 C 430.336 4.2241 3.99931 0
M  V30 4703 N 429.312 3.51329 4.14812 0
M  V30 4704 H 433.114 2.21908 1.92702 0
M  V30 4705 H 430.628 1.28982 0.986787 0
M  V30 4706 H 432.625 0.973666 4.05371 0
M  V30 4707 H 431.285 0.119223 3.24481 0
M  V30 4708 H 432.296 3.80677 3.51148 0
M  V30 4709 H 428.973 1.26855 3.97761 0
M  V30 4710 H 430.363 5.30767 4.1199 0
M  V30 4711 N 433.083 -1.0153 1.20538 0
M  V30 4712 C 433.993 -2.13557 0.971113 0
M  V30 4713 C 435.009 -1.73845 -0.0734366 0
M  V30 4714 O 436.185 -2.01075 0.114299 0
M  V30 4715 C 433.25 -3.42661 0.527639 0
M  V30 4716 C 432.311 -3.96608 1.64319 0
M  V30 4717 C 431.544 -5.1955 1.22078 0
M  V30 4718 O 431.767 -5.70329 0.0900198 0
M  V30 4719 O 430.701 -5.66681 2.02871 0
M  V30 4720 H 434.527 -2.3619 1.90913 0
M  V30 4721 H 432.112 -1.11946 0.989362 0
M  V30 4722 H 433.994 -4.20404 0.289621 0
M  V30 4723 H 432.669 -3.21441 -0.381779 0
M  V30 4724 H 431.576 -3.20139 1.93551 0
M  V30 4725 H 432.909 -4.22219 2.52966 0
M  V30 4726 N 434.561 -1.01147 -1.20859 0
M  V30 4727 C 435.977 -0.725422 -1.42161 0
M  V30 4728 C 436.177 0.696919 -1.89064 0
M  V30 4729 O 435.233 1.46539 -2.05627 0
M  V30 4730 C 436.546 -1.74678 -2.44761 0
M  V30 4731 C 438.094 -1.76433 -2.58535 0
M  V30 4732 C 438.569 -2.77481 -3.64374 0
M  V30 4733 N 440.06 -2.76189 -3.71852 0
M  V30 4734 C 440.795 -3.51035 -4.53389 0
M  V30 4735 N 440.291 -4.35541 -5.38773 0
M  V30 4736 N 442.084 -3.39655 -4.47873 0
M  V30 4737 H 434.235 -1.92979 -0.887282 0
M  V30 4738 H 436.498 -0.833327 -0.451962 0
M  V30 4739 H 436.204 -2.76551 -2.17285 0
M  V30 4740 H 436.078 -1.55472 -3.43669 0
M  V30 4741 H 438.465 -0.75248 -2.85345 0
M  V30 4742 H 438.546 -1.99712 -1.5984 0
M  V30 4743 H 438.19 -3.78827 -3.38308 0
M  V30 4744 H 438.12 -2.51466 -4.6268 0
M  V30 4745 H 440.611 -2.14885 -3.10858 0
M  V30 4746 H 440.924 -4.89432 -5.98061 0
M  V30 4747 H 439.269 -4.39621 -5.38292 0
M  V30 4748 H 442.46 -2.73063 -3.80203 0
M  V30 4749 H 442.633 -3.9824 -5.11184 0
M  V30 4750 N 436.039 1.36541 -0.78704 0
M  V30 4751 C 436.969 2.32659 -0.197992 0
M  V30 4752 C 437.95 1.56533 0.665697 0
M  V30 4753 O 439.135 1.84698 0.60001 0
M  V30 4754 C 436.265 3.40778 0.669901 0
M  V30 4755 C 435.219 4.27897 -0.0937039 0
M  V30 4756 C 434.545 5.27163 0.894629 0
M  V30 4757 C 435.845 5.06334 -1.28154 0
M  V30 4758 H 437.539 2.82171 -1.00099 0
M  V30 4759 H 435.085 1.35665 -0.482793 0
M  V30 4760 H 437.038 4.07008 1.09191 0
M  V30 4761 H 435.762 2.89827 1.50558 0
M  V30 4762 H 434.421 3.6322 -0.49666 0
M  V30 4763 H 434.069 4.72486 1.72527 0
M  V30 4764 H 433.769 5.86317 0.388149 0
M  V30 4765 H 435.293 5.96266 1.31525 0
M  V30 4766 H 436.707 5.65617 -0.93541 0
M  V30 4767 H 435.104 5.74888 -1.72115 0
M  V30 4768 H 436.174 4.38114 -2.07807 0
M  V30 4769 N 437.518 0.538854 1.48102 0
M  V30 4770 C 438.764 0.00801365 2.02798 0
M  V30 4771 C 439.097 -1.3309 1.41424 0
M  V30 4772 O 438.372 -1.86169 0.563158 0
M  V30 4773 C 438.655 -0.104589 3.59948 0
M  V30 4774 C 438.508 1.26012 4.31788 0
M  V30 4775 C 439.827 -0.827055 4.32259 0
M  V30 4776 H 436.946 0.00438624 0.736987 0
M  V30 4777 H 439.588 0.6976 1.7673 0
M  V30 4778 H 437.738 -0.691893 3.82289 0
M  V30 4779 H 439.41 1.88922 4.2084 0
M  V30 4780 H 437.653 1.83968 3.92859 0
M  V30 4781 H 438.324 1.13424 5.40221 0
M  V30 4782 H 440.8 -0.328578 4.14801 0
M  V30 4783 H 439.676 -0.87476 5.41885 0
M  V30 4784 H 439.937 -1.87927 4.0017 0
M  V30 4785 N 438.996 -1.55193 0.274407 0
M  V30 4786 C 440.412 -1.59401 -0.0797543 0
M  V30 4787 C 440.612 -1.29162 -1.54659 0
M  V30 4788 O 439.668 -1.05215 -2.29534 0
M  V30 4789 C 440.981 -2.99257 0.294238 0
M  V30 4790 C 442.529 -3.12072 0.240796 0
M  V30 4791 C 443.004 -4.54194 0.589218 0
M  V30 4792 N 444.495 -4.60033 0.540744 0
M  V30 4793 C 445.23 -5.68027 0.783147 0
M  V30 4794 N 444.726 -6.8417 1.09013 0
M  V30 4795 N 446.519 -5.57572 0.711993 0
M  V30 4796 H 438.67 -1.73113 1.23067 0
M  V30 4797 H 440.933 -0.807197 0.497129 0
M  V30 4798 H 440.639 -3.26217 1.31435 0
M  V30 4799 H 440.513 -3.75427 -0.365281 0
M  V30 4800 H 442.9 -2.84877 -0.770024 0
M  V30 4801 H 442.981 -2.38117 0.934563 0
M  V30 4802 H 442.625 -4.82115 1.59772 0
M  V30 4803 H 442.555 -5.26448 -0.126331 0
M  V30 4804 H 445.046 -3.76599 0.313327 0
M  V30 4805 H 445.359 -7.6243 1.26178 0
M  V30 4806 H 443.704 -6.85787 1.12789 0
M  V30 4807 H 446.895 -4.65714 0.472014 0
M  V30 4808 H 447.068 -6.41659 0.90429 0
M  V30 4809 N 440.474 -0.00167713 -1.576 0
M  V30 4810 C 441.404 0.988091 -2.11563 0
M  V30 4811 C 442.385 1.35736 -1.02517 0
M  V30 4812 O 443.57 1.44082 -1.30208 0
M  V30 4813 C 440.7 2.27941 -2.62031 0
M  V30 4814 C 439.654 2.0517 -3.75619 0
M  V30 4815 C 438.98 3.4033 -4.12407 0
M  V30 4816 C 440.28 1.41294 -5.02825 0
M  V30 4817 H 441.974 0.538771 -2.94513 0
M  V30 4818 H 439.52 0.257712 -1.41675 0
M  V30 4819 H 441.473 2.97539 -2.9841 0
M  V30 4820 H 440.197 2.74989 -1.76205 0
M  V30 4821 H 438.856 1.37998 -3.39635 0
M  V30 4822 H 438.504 3.85085 -3.23603 0
M  V30 4823 H 438.204 3.25909 -4.88935 0
M  V30 4824 H 439.728 4.1124 -4.51347 0
M  V30 4825 H 441.142 2.00851 -5.36965 0
M  V30 4826 H 439.539 1.37356 -5.84169 0
M  V30 4827 H 440.609 0.382362 -4.8339 0
M  V30 4828 N 441.952 1.55251 0.271103 0
M  V30 4829 C 443.182 1.79713 1.01916 0
M  V30 4830 C 443.59 0.571613 1.80359 0
M  V30 4831 O 442.933 -0.468853 1.77616 0
M  V30 4832 C 442.995 2.97138 2.02359 0
M  V30 4833 C 442.659 4.34104 1.42837 0
M  V30 4834 C 443.656 5.13019 0.843071 0
M  V30 4835 C 441.341 4.80765 1.455 0
M  V30 4836 C 443.335 6.36729 0.292333 0
M  V30 4837 C 441.022 6.0443 0.900402 0
M  V30 4838 C 442.02 6.8225 0.32007 0
M  V30 4839 O 441.708 8.03582 -0.226031 0
M  V30 4840 H 441.44 0.602431 0.306681 0
M  V30 4841 H 443.994 2.03097 0.306701 0
M  V30 4842 H 442.224 2.6945 2.77369 0
M  V30 4843 H 443.913 3.08907 2.63309 0
M  V30 4844 H 444.679 4.781 0.815178 0
M  V30 4845 H 440.558 4.20202 1.89609 0
M  V30 4846 H 444.102 6.97414 -0.161274 0
M  V30 4847 H 439.999 6.3883 0.925541 0
M  V30 4848 H 440.767 8.18418 -0.115572 0
M  V30 4849 N 443.43 -0.535701 1.48216 0
M  V30 4850 C 444.393 -1.623 1.61838 0
M  V30 4851 C 445.393 -1.53087 0.492024 0
M  V30 4852 O 446.583 -1.5686 0.757668 0
M  V30 4853 C 443.715 -3.01907 1.58319 0
M  V30 4854 H 444.908 -1.51564 2.58783 0
M  V30 4855 H 442.461 -0.757317 1.36727 0
M  V30 4856 H 443.196 -3.18155 0.628299 0
M  V30 4857 H 442.981 -3.10003 2.40085 0
M  V30 4858 H 444.471 -3.80969 1.71033 0
M  V30 4859 N 444.908 -1.36708 -0.784132 0
M  V30 4860 C 446.154 -1.31426 -1.54451 0
M  V30 4861 C 446.487 0.10476 -1.93917 0
M  V30 4862 O 445.762 1.05934 -1.6312 0
M  V30 4863 C 446.045 -2.24189 -2.818 0
M  V30 4864 C 445.898 -3.74813 -2.48667 0
M  V30 4865 C 447.217 -2.15626 -3.83658 0
M  V30 4866 H 444.336 -0.478739 -0.560337 0
M  V30 4867 H 446.978 -1.67305 -0.900498 0
M  V30 4868 H 445.128 -1.93722 -3.36755 0
M  V30 4869 H 446.8 -4.15823 -1.99722 0
M  V30 4870 H 445.043 -3.93989 -1.81535 0
M  V30 4871 H 445.714 -4.35138 -3.39646 0
M  V30 4872 H 448.19 -2.42456 -3.38163 0
M  V30 4873 H 447.066 -2.82694 -4.70506 0
M  V30 4874 H 447.327 -1.14522 -4.27009 0
M  V30 4875 N 446.386 1.0089 -1.21074 0
M  V30 4876 C 447.632 1.74866 -1.02712 0
M  V30 4877 C 447.965 1.89178 0.438787 0
M  V30 4878 O 447.24 1.42325 1.32567 0
M  V30 4879 C 447.523 3.16347 -1.72036 0
M  V30 4880 C 447.376 3.09782 -3.26121 0
M  V30 4881 C 448.695 4.15187 -1.45973 0
M  V30 4882 H 445.814 0.634736 -0.374539 0
M  V30 4883 H 448.456 1.17646 -1.49196 0
M  V30 4884 H 446.606 3.65201 -1.32517 0
M  V30 4885 H 448.278 2.68673 -3.74983 0
M  V30 4886 H 446.521 2.46982 -3.56626 0
M  V30 4887 H 447.192 4.09829 -3.6979 0
M  V30 4888 H 449.668 3.75022 -1.80272 0
M  V30 4889 H 448.544 5.12331 -1.96999 0
M  V30 4890 H 448.805 4.40386 -0.388924 0
M  V30 4891 N 447.864 1.01787 1.20321 0
M  V30 4892 C 449.092 0.727194 1.937 0
M  V30 4893 C 449.507 -0.712305 1.74848 0
M  V30 4894 O 448.864 -1.48327 1.06327 0
M  V30 4895 C 448.915 1.05497 3.45764 0
M  V30 4896 O 448.636 2.43794 3.64 0
M  V30 4897 C 450.137 0.785534 4.36285 0
M  V30 4898 H 447.357 0.266939 0.615617 0
M  V30 4899 H 449.901 1.35939 1.52777 0
M  V30 4900 H 448.056 0.468158 3.84561 0
M  V30 4901 H 448.47 2.55656 4.57974 0
M  V30 4902 H 449.944 1.06495 5.4163 0
M  V30 4903 H 450.421 -0.280273 4.38305 0
M  V30 4904 H 451.027 1.35456 4.03152 0
M  V30 4905 N 449.342 -1.36122 0.79427 0
M  V30 4906 C 450.289 -2.29982 0.194101 0
M  V30 4907 C 451.259 -1.52214 -0.664833 0
M  V30 4908 O 452.444 -1.80702 -0.612498 0
M  V30 4909 C 449.584 -3.38706 -0.661244 0
M  V30 4910 C 448.697 -4.31456 0.216766 0
M  V30 4911 C 447.832 -5.27265 -0.645411 0
M  V30 4912 C 446.871 -6.11653 0.233756 0
M  V30 4913 N 446.008 -6.99636 -0.587682 0
M  V30 4914 H 450.848 -2.80722 0.999965 0
M  V30 4915 H 448.385 -1.38172 0.504677 0
M  V30 4916 H 450.343 -4.00394 -1.17219 0
M  V30 4917 H 448.973 -2.89274 -1.43249 0
M  V30 4918 H 448.025 -3.7088 0.845724 0
M  V30 4919 H 449.337 -4.90724 0.893973 0
M  V30 4920 H 448.491 -5.94266 -1.22198 0
M  V30 4921 H 447.23 -4.68463 -1.35623 0
M  V30 4922 H 446.235 -5.4361 0.82269 0
M  V30 4923 H 447.46 -6.72531 0.942247 0
M  V30 4924 H 445.406 -6.43337 -1.2827 0
M  V30 4925 H 445.323 -7.55993 0.0317402 0
M  V30 4926 H 446.591 -7.71001 -1.14792 0
M  V30 4927 N 450.82 -0.546701 -1.47814 0
M  V30 4928 C 451.73 0.21026 -2.33656 0
M  V30 4929 C 452.746 0.922413 -1.47538 0
M  V30 4930 O 453.922 0.893652 -1.80488 0
M  V30 4931 C 450.987 1.23348 -3.24016 0
M  V30 4932 C 450.048 0.529883 -4.26017 0
M  V30 4933 C 449.281 1.50435 -5.12059 0
M  V30 4934 O 449.504 2.73837 -5.00369 0
M  V30 4935 O 448.438 1.03459 -5.92942 0
M  V30 4936 H 452.264 -0.493605 -2.99662 0
M  V30 4937 H 449.849 -0.307427 -1.46203 0
M  V30 4938 H 451.731 1.82438 -3.79861 0
M  V30 4939 H 450.406 1.91945 -2.60651 0
M  V30 4940 H 449.313 -0.101948 -3.73961 0
M  V30 4941 H 450.646 -0.11445 -4.92067 0
M  V30 4942 N 452.299 1.55045 -0.282633 0
M  V30 4943 C 453.71 1.85473 0.213655 0
M  V30 4944 C 454.061 1.20465 1.54863 0
M  V30 4945 O 453.186 0.495676 2.10647 0
M  V30 4946 C 453.781 3.36496 0.394445 0
M  V30 4947 C 452.34 3.67022 0.834961 0
M  V30 4948 C 451.487 2.77218 -0.0674081 0
M  V30 4949 H 454.438 1.50478 -0.504202 0
M  V30 4950 H 454.459 3.60007 1.23186 0
M  V30 4951 H 453.971 3.83782 -0.577326 0
M  V30 4952 H 452.072 3.25241 1.81794 0
M  V30 4953 H 452.185 4.74433 0.667075 0
M  V30 4954 H 450.549 2.5069 0.450196 0
M  V30 4955 H 451.332 3.2732 -1.0352 0
M  V30 4956 N 453.777 0.010035 1.57597 0
M  V30 4957 C 455.026 -0.671945 1.90178 0
M  V30 4958 C 455.339 -1.74376 0.886131 0
M  V30 4959 O 456.545 -2.48107 1.10252 0
M  V30 4960 C 455.001 -1.24636 3.3763 0
M  V30 4961 C 454.609 -0.208838 4.47513 0
M  V30 4962 C 456.353 -1.90595 3.79307 0
M  V30 4963 C 454.26 -0.793814 5.86048 0
M  V30 4964 H 453.19 -0.25474 0.709665 0
M  V30 4965 H 455.841 0.0722206 1.83358 0
M  V30 4966 H 454.223 -2.04152 3.3932 0
M  V30 4967 H 455.397 0.562463 4.57354 0
M  V30 4968 H 453.712 0.350889 4.14919 0
M  V30 4969 H 456.309 -2.35284 4.80151 0
M  V30 4970 H 456.652 -2.74074 3.13352 0
M  V30 4971 H 457.185 -1.17798 3.79958 0
M  V30 4972 H 453.924 0.00240855 6.555 0
M  V30 4973 H 453.444 -1.53404 5.79851 0
M  V30 4974 H 455.123 -1.2894 6.34022 0
M  V30 4975 N 455.255 -1.55392 -0.262866 0
M  V30 4976 C 456.485 -1.80251 -1.00961 0
M  V30 4977 C 456.893 -0.58117 -1.80053 0
M  V30 4978 O 456.236 0.459427 -1.77862 0
M  V30 4979 C 456.298 -2.98207 -2.00781 0
M  V30 4980 C 455.962 -4.34856 -1.40533 0
M  V30 4981 C 456.959 -5.13459 -0.815853 0
M  V30 4982 C 454.644 -4.8153 -1.42948 0
M  V30 4983 C 456.638 -6.36875 -0.258562 0
M  V30 4984 C 454.325 -6.04899 -0.868334 0
M  V30 4985 C 455.323 -6.8241 -0.283884 0
M  V30 4986 O 455.011 -8.03451 0.268644 0
M  V30 4987 H 454.743 -0.604049 -0.303482 0
M  V30 4988 H 457.297 -2.03257 -0.295926 0
M  V30 4989 H 455.527 -2.70917 -2.75936 0
M  V30 4990 H 457.216 -3.10299 -2.61667 0
M  V30 4991 H 457.982 -4.78526 -0.789812 0
M  V30 4992 H 453.861 -4.21201 -1.87378 0
M  V30 4993 H 457.405 -6.97318 0.198257 0
M  V30 4994 H 453.302 -6.39312 -0.891649 0
M  V30 4995 H 454.07 -8.18346 0.158974 0
M  V30 4996 N 456.733 0.527833 -1.48498 0
M  V30 4997 C 457.982 1.28003 -1.55878 0
M  V30 4998 C 458.295 1.9414 -0.238577 0
M  V30 4999 O 459.501 2.7083 -0.190643 0
M  V30 5000 C 457.957 2.32272 -2.74914 0
M  V30 5001 C 457.565 1.72196 -4.13585 0
M  V30 5002 C 459.309 3.08488 -2.91608 0
M  V30 5003 C 457.216 2.74417 -5.23879 0
M  V30 5004 H 456.146 0.481413 -0.580308 0
M  V30 5005 H 458.797 0.557195 -1.74836 0
M  V30 5006 H 457.179 3.07601 -2.49395 0
M  V30 5007 H 458.353 1.03041 -4.49132 0
M  V30 5008 H 456.668 1.08464 -4.02025 0
M  V30 5009 H 459.265 3.84879 -3.71177 0
M  V30 5010 H 459.608 3.64481 -2.01145 0
M  V30 5011 H 460.141 2.40274 -3.17038 0
M  V30 5012 H 456.88 2.23242 -6.16314 0
M  V30 5013 H 456.4 3.41893 -4.92818 0
M  V30 5014 H 458.079 3.37362 -5.52083 0
M  V30 5015 N 458.211 1.37122 0.776871 0
M  V30 5016 C 459.457 1.32243 1.53752 0
M  V30 5017 C 459.79 -0.0944745 1.9397 0
M  V30 5018 O 459.065 -1.05068 1.6368 0
M  V30 5019 C 459.348 2.25681 2.80607 0
M  V30 5020 C 459.201 3.76127 2.46676 0
M  V30 5021 C 460.52 2.17657 3.82509 0
M  V30 5022 H 457.639 0.481704 0.557791 0
M  V30 5023 H 460.281 1.6778 0.891612 0
M  V30 5024 H 458.431 1.95505 3.35723 0
M  V30 5025 H 460.103 4.16877 1.97513 0
M  V30 5026 H 458.346 3.94946 1.79443 0
M  V30 5027 H 459.017 4.36933 3.37333 0
M  V30 5028 H 461.493 2.44245 3.36873 0
M  V30 5029 H 460.369 2.85185 4.69 0
M  V30 5030 H 460.63 1.16785 4.26396 0
M  V30 5031 N 459.689 -1.00246 1.21608 0
M  V30 5032 C 460.917 -1.77631 1.06089 0
M  V30 5033 C 461.332 -1.84746 -0.38916 0
M  V30 5034 O 460.689 -1.31068 -1.26994 0
M  V30 5035 C 460.74 -3.21415 1.65453 0
M  V30 5036 O 460.461 -3.14703 3.04785 0
M  V30 5037 C 461.962 -4.15289 1.55079 0
M  V30 5038 H 459.182 -0.558162 0.37242 0
M  V30 5039 H 461.726 -1.26093 1.60999 0
M  V30 5040 H 459.881 -3.70053 1.14629 0
M  V30 5041 H 460.295 -4.05056 3.33212 0
M  V30 5042 H 461.769 -5.13965 2.01355 0
M  V30 5043 H 462.246 -4.36279 0.505665 0
M  V30 5044 H 462.852 -3.72543 2.05163 0
M  V30 5045 N 461.167 -1.02423 -1.1978 0
M  V30 5046 C 462.077 -0.610919 -2.26506 0
M  V30 5047 C 463.093 0.355152 -1.70337 0
M  V30 5048 O 464.269 0.214195 -2.00258 0
M  V30 5049 C 461.334 0.0365921 -3.46681 0
M  V30 5050 C 460.395 -0.976389 -4.18049 0
M  V30 5051 C 459.628 -0.359683 -5.32487 0
M  V30 5052 O 459.851 0.838601 -5.64202 0
M  V30 5053 O 458.785 -1.08022 -5.92127 0
M  V30 5054 H 462.611 -1.49965 -2.64091 0
M  V30 5055 H 460.196 -0.794156 -1.26545 0
M  V30 5056 H 462.078 0.39786 -4.19518 0
M  V30 5057 H 460.753 0.899398 -3.10954 0
M  V30 5058 H 459.66 -1.38916 -3.47352 0
M  V30 5059 H 460.993 -1.80941 -4.57735 0
M  V30 5060 N 462.645 1.35699 -0.801477 0
M  V30 5061 C 463.875 2.02862 -0.3912 0
M  V30 5062 C 464.283 1.60552 1.00099 0
M  V30 5063 O 463.626 0.796215 1.65548 0
M  V30 5064 C 463.688 3.57386 -0.389299 0
M  V30 5065 C 463.352 4.22943 -1.73113 0
M  V30 5066 C 464.349 4.44984 -2.68859 0
M  V30 5067 C 462.034 4.60167 -2.01373 0
M  V30 5068 C 464.028 5.03345 -3.91053 0
M  V30 5069 C 461.715 5.18243 -3.23832 0
M  V30 5070 C 462.713 5.39773 -4.1849 0
M  V30 5071 O 462.401 5.96626 -5.38788 0
M  V30 5072 H 462.133 0.657341 -0.157732 0
M  V30 5073 H 464.687 1.74407 -1.08496 0
M  V30 5074 H 462.917 3.85011 0.361031 0
M  V30 5075 H 464.606 4.059 -0.0020365 0
M  V30 5076 H 465.372 4.1661 -2.48316 0
M  V30 5077 H 461.251 4.42726 -1.28508 0
M  V30 5078 H 464.795 5.20065 -4.64949 0
M  V30 5079 H 460.692 5.46044 -3.44248 0
M  V30 5080 H 461.46 6.15082 -5.40015 0
M  V30 5081 N 464.123 0.554532 1.47522 0
M  V30 5082 C 465.056 -0.242442 2.26908 0
M  V30 5083 C 466.034 -0.922722 1.33883 0
M  V30 5084 O 467.218 -0.942244 1.63261 0
M  V30 5085 C 464.345 -1.34525 3.10839 0
M  V30 5086 C 463.391 -0.773805 4.19422 0
M  V30 5087 S 464.224 0.377525 5.34168 0
M  V30 5088 C 465.38 -0.727164 6.21662 0
M  V30 5089 H 465.613 0.431218 2.94156 0
M  V30 5090 H 463.146 0.3408 1.50592 0
M  V30 5091 H 465.104 -1.97683 3.59766 0
M  V30 5092 H 463.765 -1.99073 2.42958 0
M  V30 5093 H 462.958 -1.60187 4.77866 0
M  V30 5094 H 462.56 -0.218448 3.73361 0
M  V30 5095 H 464.852 -1.61992 6.57849 0
M  V30 5096 H 465.795 -0.180135 7.07871 0
M  V30 5097 H 466.203 -1.01863 5.55233 0
M  V30 5098 N 465.601 -1.54893 0.290851 0
M  V30 5099 C 466.564 -2.21824 -0.576784 0
M  V30 5100 C 467.564 -1.20104 -1.06919 0
M  V30 5101 O 468.754 -1.44906 -0.966843 0
M  V30 5102 C 465.886 -2.89662 -1.79747 0
M  V30 5103 H 467.079 -2.99899 0.00784051 0
M  V30 5104 H 464.632 -1.56245 0.0415934 0
M  V30 5105 H 465.367 -2.15639 -2.42219 0
M  V30 5106 H 465.152 -3.64219 -1.45214 0
M  V30 5107 H 466.642 -3.4075 -2.4141 0
M  V30 5108 N 467.08 -0.0183926 -1.57589 0
M  V30 5109 C 468.496 0.337897 -1.55982 0
M  V30 5110 C 468.696 1.73604 -1.02294 0
M  V30 5111 O 467.752 2.43589 -0.664895 0
M  V30 5112 C 469.065 0.196305 -3.00059 0
M  V30 5113 C 470.613 0.269875 -3.11834 0
M  V30 5114 C 471.088 0.157197 -4.5773 0
M  V30 5115 N 472.579 0.214521 -4.62703 0
M  V30 5116 C 473.314 0.150955 -5.73201 0
M  V30 5117 N 472.81 0.0369212 -6.9279 0
M  V30 5118 N 474.603 0.204162 -5.61729 0
M  V30 5119 H 466.754 -0.93279 -1.90821 0
M  V30 5120 H 469.017 -0.359253 -0.877292 0
M  V30 5121 H 468.723 -0.766383 -3.43248 0
M  V30 5122 H 468.597 0.970908 -3.6449 0
M  V30 5123 H 470.984 1.22302 -2.68563 0
M  V30 5124 H 471.065 -0.534918 -2.50144 0
M  V30 5125 H 470.709 -0.792479 -5.01679 0
M  V30 5126 H 470.639 0.980717 -5.17387 0
M  V30 5127 H 473.13 0.303238 -3.76681 0
M  V30 5128 H 473.443 -0.00518321 -7.728 0
M  V30 5129 H 471.788 0.0022886 -6.95 0
M  V30 5130 H 474.979 0.291575 -4.67191 0
M  V30 5131 H 475.152 0.15116 -6.47824 0
M  V30 5132 N 468.558 1.5553 0.254621 0
M  V30 5133 C 469.806 1.7665 0.981793 0
M  V30 5134 C 470.127 0.580963 1.86145 0
M  V30 5135 O 469.397 -0.403537 1.91699 0
M  V30 5136 H 467.977 0.651475 0.365498 0
M  V30 5137 H 470.639 1.92958 0.274426 0
M  V30 5138 H 469.735 2.67486 1.60802 0
M  V30 5139 N 470.036 -0.519951 1.48776 0
M  V30 5140 C 471.276 -1.2856 1.58908 0
M  V30 5141 C 471.64 -1.90212 0.261418 0
M  V30 5142 O 472.841 -2.67746 0.237791 0
M  V30 5143 C 471.112 -2.33836 2.70288 0
M  V30 5144 S 472.671 -3.19992 3.0025 0
M  V30 5145 H 469.489 -0.43717 0.560717 0
M  V30 5146 H 472.091 -0.591205 1.86346 0
M  V30 5147 H 470.795 -1.87041 3.653 0
M  V30 5148 H 470.326 -3.07969 2.44783 0
M  V30 5149 H 472.341 -4.34122 2.40317 0
M  V30 5150 N 471.514 -1.37532 -0.769588 0
M  V30 5151 C 472.444 -1.36172 -1.89682 0
M  V30 5152 C 473.425 -0.23001 -1.68538 0
M  V30 5153 O 474.61 -0.43069 -1.89364 0
M  V30 5154 C 471.74 -1.1701 -3.26995 0
M  V30 5155 C 470.694 -2.27216 -3.62708 0
M  V30 5156 C 470.02 -1.93174 -4.98586 0
M  V30 5157 C 471.32 -3.6941 -3.69234 0
M  V30 5158 H 473.014 -2.30499 -1.91078 0
M  V30 5159 H 470.56 -1.10953 -0.917902 0
M  V30 5160 H 472.513 -1.14688 -4.05493 0
M  V30 5161 H 471.237 -0.191395 -3.26039 0
M  V30 5162 H 469.896 -2.28697 -2.86519 0
M  V30 5163 H 469.544 -0.938281 -4.94171 0
M  V30 5164 H 469.244 -2.66973 -5.23449 0
M  V30 5165 H 470.768 -1.92443 -5.79481 0
M  V30 5166 H 472.182 -3.70047 -4.37879 0
M  V30 5167 H 470.579 -4.4228 -4.05597 0
M  V30 5168 H 471.649 -4.0288 -2.69844 0
M  V30 5169 N 472.992 0.995999 -1.22138 0
M  V30 5170 C 473.922 2.10387 -1.01289 0
M  V30 5171 C 474.903 1.69975 0.0651454 0
M  V30 5172 O 476.088 1.9396 -0.0964628 0
M  V30 5173 C 473.218 3.42312 -0.586517 0
M  V30 5174 C 472.172 3.96558 -1.61014 0
M  V30 5175 C 471.498 5.24494 -1.0397 0
M  V30 5176 C 472.798 4.27595 -2.99933 0
M  V30 5177 H 474.492 2.28086 -1.93951 0
M  V30 5178 H 472.038 1.09607 -0.933928 0
M  V30 5179 H 473.991 4.19223 -0.427793 0
M  V30 5180 H 472.715 3.24431 0.375761 0
M  V30 5181 H 471.374 3.21776 -1.75658 0
M  V30 5182 H 471.022 5.02953 -0.0688703 0
M  V30 5183 H 470.722 5.61755 -1.72352 0
M  V30 5184 H 472.246 6.04042 -0.892494 0
M  V30 5185 H 473.66 4.95315 -2.8868 0
M  V30 5186 H 472.057 4.76021 -3.6541 0
M  V30 5187 H 473.127 3.35498 -3.50099 0
M  V30 5188 N 474.47 1.03057 1.19235 0
M  V30 5189 C 475.747 0.642608 1.84743 0
M  V30 5190 C 476.127 -0.878577 1.91948 0
M  V30 5191 O 475.475 -1.77597 1.43776 0
M  V30 5192 C 475.685 1.30665 3.23616 0
M  V30 5193 C 477.033 1.43098 3.9976 0
M  V30 5194 O 478.057 1.26396 3.3302 0
M  V30 5195 O 476.916 1.70223 5.19313 0
M  V30 5196 H 474.01 0.223573 0.796206 0
M  V30 5197 H 476.556 1.12883 1.26711 0
M  V30 5198 H 475.328 2.34544 3.13217 0
M  V30 5199 H 474.951 0.808405 3.89295 0
M  V30 5200 N 475.948 -1.35272 0.808662 0
M  V30 5201 C 477.195 -1.98709 0.390003 0
M  V30 5202 C 477.523 -1.64148 -1.04335 0
M  V30 5203 O 476.778 -0.897797 -1.73891 0
M  V30 5204 C 477.077 -3.53556 0.522798 0
M  V30 5205 C 476.743 -4.0799 1.91977 0
M  V30 5206 C 475.405 -4.22568 2.30195 0
M  V30 5207 C 477.757 -4.37442 2.83361 0
M  V30 5208 C 475.085 -4.63918 3.59162 0
M  V30 5209 C 477.437 -4.80232 4.11776 0
M  V30 5210 C 476.101 -4.93016 4.49991 0
M  V30 5211 H 475.371 -0.727127 0.142712 0
M  V30 5212 H 478.018 -1.6145 1.02985 0
M  V30 5213 H 476.323 -3.91287 -0.200494 0
M  V30 5214 H 478.02 -4.00598 0.179608 0
M  V30 5215 H 474.61 -3.97096 1.61284 0
M  V30 5216 H 478.794 -4.25731 2.55083 0
M  V30 5217 H 474.05 -4.72005 3.88615 0
M  V30 5218 H 478.224 -5.01982 4.82687 0
M  V30 5219 H 475.851 -5.24814 5.49976 0
M  V30 5220 N 477.426 -0.562348 -1.47226 0
M  V30 5221 C 478.356 0.170627 -2.32876 0
M  V30 5222 C 479.337 0.903748 -1.44106 0
M  V30 5223 O 480.522 0.883206 -1.72954 0
M  V30 5224 C 477.652 1.19786 -3.25989 0
M  V30 5225 C 476.606 0.580875 -4.2404 0
M  V30 5226 C 475.932 1.71311 -5.06514 0
M  V30 5227 C 477.232 -0.468714 -5.20193 0
M  V30 5228 H 478.926 -0.544441 -2.94408 0
M  V30 5229 H 476.472 -0.263271 -1.41573 0
M  V30 5230 H 478.425 1.71884 -3.84752 0
M  V30 5231 H 477.149 1.94294 -2.62521 0
M  V30 5232 H 475.808 0.0811538 -3.6651 0
M  V30 5233 H 475.456 2.44736 -4.39447 0
M  V30 5234 H 475.156 1.30604 -5.72902 0
M  V30 5235 H 476.68 2.23725 -5.68137 0
M  V30 5236 H 478.094 -0.0336028 -5.7329 0
M  V30 5237 H 476.491 -0.794957 -5.94811 0
M  V30 5238 H 477.561 -1.36269 -4.65359 0
M  V30 5239 N 478.904 1.54736 -0.299062 0
M  V30 5240 C 479.851 2.23448 0.577899 0
M  V30 5241 C 480.821 1.21637 1.13109 0
M  V30 5242 O 482.006 1.50252 1.17597 0
M  V30 5243 C 479.146 2.9774 1.74484 0
M  V30 5244 C 478.259 4.1432 1.22323 0
M  V30 5245 C 477.394 4.76199 2.35388 0
M  V30 5246 C 476.433 5.84927 1.80351 0
M  V30 5247 N 475.57 6.4077 2.86982 0
M  V30 5248 H 480.41 2.97996 -0.0146545 0
M  V30 5249 H 477.947 1.47088 -0.0190013 0
M  V30 5250 H 479.905 3.39045 2.43114 0
M  V30 5251 H 478.535 2.25572 2.30905 0
M  V30 5252 H 477.587 3.7797 0.429249 0
M  V30 5253 H 478.899 4.92659 0.780309 0
M  V30 5254 H 478.053 5.20346 3.11969 0
M  V30 5255 H 476.792 3.97188 2.83006 0
M  V30 5256 H 475.797 5.40207 1.02259 0
M  V30 5257 H 477.022 6.65821 1.3364 0
M  V30 5258 H 474.968 5.64643 3.33938 0
M  V30 5259 H 474.885 7.1445 2.4718 0
M  V30 5260 H 476.153 6.89574 3.63466 0
M  V30 5261 N 480.382 0.0267497 1.57577 0
M  V30 5262 C 481.61 -0.662661 1.96001 0
M  V30 5263 C 482.025 -1.65799 0.903117 0
M  V30 5264 O 481.382 -1.82135 -0.115317 0
M  V30 5265 C 481.433 -1.37112 3.34488 0
M  V30 5266 O 481.154 -0.415683 4.36123 0
M  V30 5267 C 482.655 -2.15257 3.8753 0
M  V30 5268 H 479.875 -0.18287 0.6456 0
M  V30 5269 H 482.419 0.0858116 2.0432 0
M  V30 5270 H 480.574 -2.07101 3.27395 0
M  V30 5271 H 480.988 -0.918496 5.16395 0
M  V30 5272 H 482.462 -2.60285 4.86781 0
M  V30 5273 H 482.939 -2.99063 3.21649 0
M  V30 5274 H 483.545 -1.50231 3.97883 0
M  V30 5275 N 481.861 -1.55662 -0.24637 0
M  V30 5276 C 483.138 -1.68272 -0.997198 0
M  V30 5277 C 483.518 -0.566785 -2.03349 0
M  V30 5278 O 482.866 0.429688 -2.24424 0
M  V30 5279 C 483.076 -3.08594 -1.63006 0
M  V30 5280 C 484.424 -3.6721 -2.13171 0
M  V30 5281 O 485.448 -3.11397 -1.72946 0
M  V30 5282 O 484.307 -4.65054 -2.87031 0
M  V30 5283 H 481.401 -0.684429 -0.464205 0
M  V30 5284 H 483.947 -1.67993 -0.240114 0
M  V30 5285 H 482.719 -3.81264 -0.880527 0
M  V30 5286 H 482.342 -3.12886 -2.45333 0
M  V30 5287 N 483.339 0.512053 -1.4905 0
M  V30 5288 C 484.249 1.64139 -1.67617 0
M  V30 5289 C 485.265 1.64786 -0.558701 0
M  V30 5290 O 486.441 1.8341 -0.832034 0
M  V30 5291 C 483.506 3.00548 -1.72835 0
M  V30 5292 C 482.567 3.10615 -2.96339 0
M  V30 5293 C 481.8 4.40517 -3.01298 0
M  V30 5294 O 482.023 5.28671 -2.14157 0
M  V30 5295 O 480.957 4.55325 -3.93653 0
M  V30 5296 H 484.783 1.51407 -2.63267 0
M  V30 5297 H 482.368 0.687131 -1.32661 0
M  V30 5298 H 484.25 3.81641 -1.78683 0
M  V30 5299 H 482.925 3.13566 -0.803616 0
M  V30 5300 H 481.832 2.2875 -2.96014 0
M  V30 5301 H 483.165 3.0252 -3.88256 0
M  V30 5302 N 484.817 1.37938 0.762283 0
M  V30 5303 C 486.065 1.33404 1.51815 0
M  V30 5304 C 486.386 -0.0780975 1.94844 0
M  V30 5305 O 485.656 -1.02405 1.67003 0
M  V30 5306 H 484.236 0.490839 0.563104 0
M  V30 5307 H 486.898 1.72527 0.906669 0
M  V30 5308 H 485.994 1.97926 2.41313 0
M  V30 5309 N 486.295 -0.989507 1.22664 0
M  V30 5310 C 487.52 -1.77031 1.08051 0
M  V30 5311 C 487.945 -1.84535 -0.364483 0
M  V30 5312 O 487.303 -1.3003 -1.2634 0
M  V30 5313 C 487.351 -3.18 1.70024 0
M  V30 5314 O 486.455 -4.01161 0.956216 0
M  V30 5315 H 485.796 -0.545008 0.379292 0
M  V30 5316 H 488.326 -1.24277 1.62531 0
M  V30 5317 H 488.336 -3.68616 1.74888 0
M  V30 5318 H 487.011 -3.11853 2.75174 0
M  V30 5319 H 485.588 -3.59687 0.98384 0
M  V30 5320 N 487.773 -1.03688 -1.18687 0
M  V30 5321 C 489.189 -0.755413 -1.4059 0
M  V30 5322 C 489.389 0.656659 -1.905 0
M  V30 5323 O 488.445 1.42144 -2.08689 0
M  V30 5324 C 489.758 -1.7983 -2.41001 0
M  V30 5325 C 491.306 -1.81877 -2.54735 0
M  V30 5326 C 491.781 -2.85148 -3.58406 0
M  V30 5327 N 493.272 -2.84015 -3.6591 0
M  V30 5328 C 494.007 -3.60573 -4.45841 0
M  V30 5329 N 493.503 -4.46871 -5.29413 0
M  V30 5330 N 495.296 -3.49079 -4.40568 0
M  V30 5331 H 487.447 -1.94818 -0.846148 0
M  V30 5332 H 489.71 -0.842727 -0.434184 0
M  V30 5333 H 489.416 -2.81097 -2.1137 0
M  V30 5334 H 489.29 -1.62727 -3.40294 0
M  V30 5335 H 491.677 -0.812836 -2.83685 0
M  V30 5336 H 491.758 -2.03057 -1.55568 0
M  V30 5337 H 491.402 -3.85918 -3.30197 0
M  V30 5338 H 491.332 -2.61224 -4.57241 0
M  V30 5339 H 493.823 -2.21431 -3.0623 0
M  V30 5340 H 494.136 -5.02007 -5.87545 0
M  V30 5341 H 492.481 -4.5094 -5.28846 0
M  V30 5342 H 495.672 -2.81066 -3.74325 0
M  V30 5343 H 495.845 -4.08994 -5.02621 0
M  V30 5344 N 489.251 1.34841 -0.815825 0
M  V30 5345 C 490.181 2.32187 -0.247298 0
M  V30 5346 C 491.162 1.5791 0.632344 0
M  V30 5347 O 492.347 1.8593 0.560698 0
M  V30 5348 C 489.477 3.42122 0.597466 0
M  V30 5349 C 488.431 4.27602 -0.184446 0
M  V30 5350 C 487.757 5.28942 0.782609 0
M  V30 5351 C 489.057 5.03502 -1.38865 0
M  V30 5352 H 490.751 2.79985 -1.06061 0
M  V30 5353 H 488.297 1.34611 -0.511461 0
M  V30 5354 H 490.25 4.09232 1.00533 0
M  V30 5355 H 488.974 2.92956 1.44376 0
M  V30 5356 H 487.633 3.62085 -0.573592 0
M  V30 5357 H 487.281 4.7604 1.62466 0
M  V30 5358 H 486.981 5.87008 0.263695 0
M  V30 5359 H 488.505 5.98922 1.18848 0
M  V30 5360 H 489.919 5.63506 -1.05518 0
M  V30 5361 H 488.316 5.71108 -1.8427 0
M  V30 5362 H 489.386 4.33608 -2.17054 0
M  V30 5363 N 490.729 0.570148 1.46925 0
M  V30 5364 C 491.954 0.0542592 2.07329 0
M  V30 5365 C 492.379 -1.23582 1.41806 0
M  V30 5366 O 491.737 -1.74341 0.497479 0
M  V30 5367 C 491.785 -0.111175 3.60429 0
M  V30 5368 O 490.889 -1.17071 3.95434 0
M  V30 5369 H 490.23 0.0571425 0.661537 0
M  V30 5370 H 492.76 0.789516 1.88753 0
M  V30 5371 H 492.77 -0.321315 4.06733 0
M  V30 5372 H 491.445 0.831012 4.07513 0
M  V30 5373 H 490.022 -0.940029 3.60857 0
M  V30 5374 N 492.207 -1.54576 0.307264 0
M  V30 5375 C 493.137 -2.26708 -0.55907 0
M  V30 5376 C 494.118 -1.26893 -1.1328 0
M  V30 5377 O 495.303 -1.55677 -1.16097 0
M  V30 5378 C 492.433 -3.01259 -1.72801 0
M  V30 5379 C 491.387 -4.08275 -1.28435 0
M  V30 5380 C 490.713 -4.70575 -2.53895 0
M  V30 5381 C 492.013 -5.2068 -0.411038 0
M  V30 5382 H 493.707 -2.9937 0.042576 0
M  V30 5383 H 491.253 -1.43983 0.0219173 0
M  V30 5384 H 493.206 -3.50444 -2.34023 0
M  V30 5385 H 491.93 -2.26187 -2.356 0
M  V30 5386 H 490.589 -3.59949 -0.695161 0
M  V30 5387 H 490.237 -3.92136 -3.15021 0
M  V30 5388 H 489.937 -5.42854 -2.24908 0
M  V30 5389 H 491.461 -5.22527 -3.15908 0
M  V30 5390 H 492.875 -5.65721 -0.929097 0
M  V30 5391 H 491.272 -5.99716 -0.214664 0
M  V30 5392 H 492.342 -4.81629 0.562287 0
M  V30 5393 N 493.685 -0.035106 -1.57561 0
M  V30 5394 C 495.096 0.502885 -1.798 0
M  V30 5395 C 495.447 1.71892 -0.945921 0
M  V30 5396 O 494.572 2.15822 -0.157991 0
M  V30 5397 C 495.167 0.919097 -3.26095 0
M  V30 5398 C 493.726 1.40216 -3.49308 0
M  V30 5399 C 492.873 0.369709 -2.74824 0
M  V30 5400 H 495.824 -0.261102 -1.56537 0
M  V30 5401 H 495.845 1.78308 -3.36135 0
M  V30 5402 H 495.357 0.0338526 -3.88085 0
M  V30 5403 H 493.458 2.30714 -2.92578 0
M  V30 5404 H 493.571 1.40541 -4.58023 0
M  V30 5405 H 491.935 0.839113 -2.40481 0
M  V30 5406 H 492.718 -0.507173 -3.39533 0
M  V30 5407 N 495.163 1.55791 0.238111 0
M  V30 5408 C 496.579 1.48411 0.587045 0
M  V30 5409 C 496.779 0.72702 1.87927 0
M  V30 5410 O 495.835 0.259942 2.51158 0
M  V30 5411 C 497.148 2.92873 0.681623 0
M  V30 5412 C 498.696 3.03295 0.773363 0
M  V30 5413 C 499.171 4.49082 0.899428 0
M  V30 5414 N 500.662 4.53056 0.964075 0
M  V30 5415 C 501.397 5.63117 1.08104 0
M  V30 5416 N 500.893 6.82969 1.16299 0
M  V30 5417 N 502.686 5.50933 1.11488 0
M  V30 5418 H 494.837 2.0345 -0.610076 0
M  V30 5419 H 497.1 0.924034 -0.211813 0
M  V30 5420 H 496.806 3.51142 -0.19802 0
M  V30 5421 H 496.68 3.43851 1.55069 0
M  V30 5422 H 499.067 2.45101 1.64346 0
M  V30 5423 H 499.148 2.55513 -0.121034 0
M  V30 5424 H 498.792 5.07889 0.0338586 0
M  V30 5425 H 498.722 4.94553 1.809 0
M  V30 5426 H 501.213 3.66737 0.91173 0
M  V30 5427 H 501.526 7.62598 1.25155 0
M  V30 5428 H 499.871 6.85712 1.13241 0
M  V30 5429 H 503.062 4.56231 1.0474 0
M  V30 5430 H 503.235 6.36743 1.20259 0
M  V30 5431 N 496.642 -0.504142 1.49319 0
M  V30 5432 C 497.572 -1.61473 1.68667 0
M  V30 5433 C 498.553 -1.61455 0.535378 0
M  V30 5434 O 499.738 -1.78245 0.770868 0
M  V30 5435 C 496.868 -2.99971 1.75028 0
M  V30 5436 C 495.822 -3.14854 2.89916 0
M  V30 5437 C 495.148 -4.54671 2.81387 0
M  V30 5438 C 496.448 -2.95176 4.30893 0
M  V30 5439 H 498.142 -1.45535 2.61648 0
M  V30 5440 H 495.688 -0.698711 1.25913 0
M  V30 5441 H 497.641 -3.77562 1.8715 0
M  V30 5442 H 496.365 -3.1699 0.786441 0
M  V30 5443 H 495.024 -2.39687 2.77391 0
M  V30 5444 H 494.672 -4.68562 1.82917 0
M  V30 5445 H 494.372 -4.6557 3.58494 0
M  V30 5446 H 495.896 -5.34327 2.95512 0
M  V30 5447 H 497.31 -3.62538 4.44116 0
M  V30 5448 H 495.707 -3.17549 5.09198 0
M  V30 5449 H 496.777 -1.91332 4.45556 0
M  V30 5450 N 498.12 -1.38341 -0.754957 0
M  V30 5451 C 499.369 -1.33791 -1.5094 0
M  V30 5452 C 499.682 0.0699267 -1.95475 0
M  V30 5453 O 500.888 0.237956 -2.70455 0
M  V30 5454 C 499.344 -2.34934 -2.72643 0
M  V30 5455 C 498.952 -3.81332 -2.35138 0
M  V30 5456 C 500.696 -2.39425 -3.50536 0
M  V30 5457 C 498.603 -4.74164 -3.53444 0
M  V30 5458 H 497.533 -0.497314 -0.566741 0
M  V30 5459 H 500.184 -1.63888 -0.825403 0
M  V30 5460 H 498.566 -1.97878 -3.43017 0
M  V30 5461 H 499.74 -4.27319 -1.7244 0
M  V30 5462 H 498.055 -3.79946 -1.70382 0
M  V30 5463 H 500.652 -3.0598 -4.38498 0
M  V30 5464 H 500.995 -1.41278 -3.91594 0
M  V30 5465 H 501.528 -2.75274 -2.87174 0
M  V30 5466 H 498.267 -5.73501 -3.17453 0
M  V30 5467 H 497.787 -4.3287 -4.15191 0
M  V30 5468 H 499.466 -4.92111 -4.20043 0
M  V30 5469 N 499.598 0.982988 -1.23187 0
M  V30 5470 C 500.875 1.69814 -0.970707 0
M  V30 5471 C 501.255 2.04811 0.511424 0
M  V30 5472 O 500.603 1.73924 1.48198 0
M  V30 5473 C 500.813 2.94143 -1.87831 0
M  V30 5474 C 502.161 3.66712 -2.14026 0
M  V30 5475 O 503.185 3.04171 -1.8536 0
M  V30 5476 O 502.044 4.79258 -2.62629 0
M  V30 5477 H 499.138 0.741659 -0.365884 0
M  V30 5478 H 501.684 1.03844 -1.34218 0
M  V30 5479 H 500.456 2.64858 -2.88038 0
M  V30 5480 H 500.079 3.6785 -1.50905 0
M  V30 5481 N 501.076 1.04316 1.18135 0
M  V30 5482 C 502.009 0.580823 2.20685 0
M  V30 5483 C 502.987 -0.385943 1.57953 0
M  V30 5484 O 504.171 -0.299654 1.86103 0
M  V30 5485 C 501.298 -0.151162 3.38363 0
M  V30 5486 C 500.344 0.769247 4.19505 0
M  V30 5487 S 501.177 2.25352 4.85774 0
M  V30 5488 C 502.333 1.53246 6.0685 0
M  V30 5489 H 502.566 1.44968 2.5956 0
M  V30 5490 H 500.099 0.85434 1.28609 0
M  V30 5491 H 502.057 -0.567315 4.06561 0
M  V30 5492 H 500.718 -0.995936 2.97892 0
M  V30 5493 H 499.911 0.203335 5.0359 0
M  V30 5494 H 499.513 1.12436 3.56699 0
M  V30 5495 H 501.805 0.82689 6.72435 0
M  V30 5496 H 502.748 2.35044 6.67952 0
M  V30 5497 H 503.156 1.0237 5.5514 0
M  V30 5498 N 502.554 -1.34406 0.822964 0
M  V30 5499 C 503.779 -2.0304 0.423034 0
M  V30 5500 C 504.204 -1.61568 -0.963196 0
M  V30 5501 O 503.562 -0.800339 -1.62678 0
M  V30 5502 C 503.61 -3.56636 0.53321 0
M  V30 5503 O 502.714 -4.09971 -0.446939 0
M  V30 5504 H 502.055 -0.64075 0.174171 0
M  V30 5505 H 504.585 -1.71653 1.11339 0
M  V30 5506 H 504.595 -4.05945 0.408991 0
M  V30 5507 H 503.27 -3.86168 1.54425 0
M  V30 5508 H 501.847 -3.71835 -0.281601 0
M  V30 5509 N 504.032 -0.577932 -1.46621 0
M  V30 5510 C 504.995 0.147805 -2.28723 0
M  V30 5511 C 505.995 0.823325 -1.38123 0
M  V30 5512 O 507.185 0.676011 -1.60548 0
M  V30 5513 C 504.317 1.21853 -3.18378 0
M  V30 5514 H 505.51 -0.573654 -2.94362 0
M  V30 5515 H 503.063 -0.335703 -1.52652 0
M  V30 5516 H 503.798 1.97173 -2.57475 0
M  V30 5517 H 503.583 0.738714 -3.85078 0
M  V30 5518 H 505.073 1.72768 -3.80186 0
M  V30 5519 N 505.51 1.54411 -0.315457 0
M  V30 5520 C 506.442 2.21527 0.588067 0
M  V30 5521 C 507.455 1.21263 1.08624 0
M  V30 5522 O 508.644 1.47777 1.00121 0
M  V30 5523 C 505.744 2.85963 1.81875 0
M  V30 5524 C 504.917 4.12291 1.46063 0
M  V30 5525 C 503.976 4.60396 2.54799 0
M  V30 5526 O 503.002 5.25265 2.19283 0
M  V30 5527 N 504.204 4.33935 3.85591 0
M  V30 5528 H 506.969 2.99697 0.013414 0
M  V30 5529 H 504.53 1.61308 -0.138295 0
M  V30 5530 H 506.522 3.15071 2.53993 0
M  V30 5531 H 505.092 2.11548 2.30144 0
M  V30 5532 H 504.312 3.90036 0.571445 0
M  V30 5533 H 505.6 4.9452 1.19695 0
M  V30 5534 H 504.998 3.81996 4.17248 0
M  V30 5535 H 503.555 4.67718 4.53964 0
M  V30 5536 N 506.988 0.0434614 1.5754 0
M  V30 5537 C 508.237 -0.631454 1.91561 0
M  V30 5538 C 508.55 -1.72457 0.92292 0
M  V30 5539 O 509.756 -2.45712 1.15489 0
M  V30 5540 C 508.212 -1.17447 3.40197 0
M  V30 5541 C 507.82 -0.113867 4.47855 0
M  V30 5542 C 509.564 -1.82507 3.83264 0
M  V30 5543 C 507.471 -0.669326 5.876 0
M  V30 5544 H 506.401 -0.239629 0.714908 0
M  V30 5545 H 509.052 0.111097 1.83163 0
M  V30 5546 H 507.434 -1.96909 3.43574 0
M  V30 5547 H 508.608 0.659348 4.56058 0
M  V30 5548 H 506.923 0.438821 4.14081 0
M  V30 5549 H 509.52 -2.25047 4.85034 0
M  V30 5550 H 509.863 -2.67365 3.19095 0
M  V30 5551 H 510.396 -1.09712 3.82372 0
M  V30 5552 H 507.135 0.141449 6.55347 0
M  V30 5553 H 506.655 -1.4107 5.82974 0
M  V30 5554 H 508.334 -1.15463 6.36614 0
M  V30 5555 N 508.466 -1.55915 -0.229846 0
M  V30 5556 C 509.429 -1.90914 -1.26824 0
M  V30 5557 C 510.429 -0.786999 -1.40225 0
M  V30 5558 O 511.619 -1.05484 -1.38632 0
M  V30 5559 C 508.751 -2.15264 -2.64337 0
M  V30 5560 H 509.944 -2.8378 -0.969998 0
M  V30 5561 H 507.497 -1.49069 -0.4699 0
M  V30 5562 H 508.232 -1.24923 -2.99274 0
M  V30 5563 H 508.017 -2.97005 -2.55989 0
M  V30 5564 H 509.507 -2.43467 -3.39284 0
M  V30 5565 N 509.944 0.496216 -1.49584 0
M  V30 5566 C 510.854 1.62352 -1.69349 0
M  V30 5567 C 511.87 1.64184 -0.576147 0
M  V30 5568 O 513.046 1.82517 -0.85144 0
M  V30 5569 C 510.111 2.98698 -1.76013 0
M  V30 5570 C 509.172 3.07454 -2.99617 0
M  V30 5571 C 508.405 4.37296 -3.05953 0
M  V30 5572 O 508.628 5.2637 -2.19752 0
M  V30 5573 O 507.562 4.51124 -3.9846 0
M  V30 5574 H 511.388 1.48606 -2.64859 0
M  V30 5575 H 508.973 0.673022 -1.33382 0
M  V30 5576 H 510.855 3.79725 -1.82721 0
M  V30 5577 H 509.53 3.12696 -0.836828 0
M  V30 5578 H 508.437 2.25597 -2.98424 0
M  V30 5579 H 509.77 2.98385 -3.91443 0
M  V30 5580 N 511.423 1.38739 0.74761 0
M  V30 5581 C 512.671 1.35007 1.50391 0
M  V30 5582 C 512.992 -0.0574274 1.94915 0
M  V30 5583 O 512.262 -1.00628 1.6808 0
M  V30 5584 H 510.842 0.496784 0.557866 0
M  V30 5585 H 513.504 1.73479 0.888319 0
M  V30 5586 H 512.6 2.00474 2.392 0
M  V30 5587 N 512.901 -0.976442 1.23707 0
M  V30 5588 C 513.834 -2.06793 0.964973 0
M  V30 5589 C 514.812 -1.62304 -0.0981472 0
M  V30 5590 O 515.996 -1.88464 0.0369477 0
M  V30 5591 C 513.123 -3.35636 0.454522 0
M  V30 5592 C 512.169 -3.99069 1.50485 0
M  V30 5593 S 513.002 -4.37814 3.0835 0
M  V30 5594 C 514.158 -5.69805 2.58985 0
M  V30 5595 H 514.391 -2.29556 1.88922 0
M  V30 5596 H 511.924 -1.11317 1.06995 0
M  V30 5597 H 513.882 -4.10162 0.166626 0
M  V30 5598 H 512.543 -3.10876 -0.448871 0
M  V30 5599 H 511.736 -4.91896 1.09792 0
M  V30 5600 H 511.338 -3.30938 1.7423 0
M  V30 5601 H 513.63 -6.46919 2.01252 0
M  V30 5602 H 514.573 -6.15345 3.50366 0
M  V30 5603 H 514.981 -5.27994 1.99705 0
M  V30 5604 N 514.379 -1.04941 -1.1758 0
M  V30 5605 C 515.342 -0.652456 -2.19717 0
M  V30 5606 C 516.342 0.294745 -1.58076 0
M  V30 5607 O 517.532 0.0789579 -1.74021 0
M  V30 5608 C 514.664 0.0420712 -3.40874 0
M  V30 5609 H 515.857 -1.55642 -2.5635 0
M  V30 5610 H 513.41 -0.842995 -1.31618 0
M  V30 5611 H 514.145 0.95943 -3.09783 0
M  V30 5612 H 513.93 -0.638844 -3.86861 0
M  V30 5613 H 515.42 0.306 -4.16477 0
M  V30 5614 N 515.857 1.33968 -0.830081 0
M  V30 5615 C 517.087 2.01987 -0.434142 0
M  V30 5616 C 517.495 1.62639 0.96671 0
M  V30 5617 O 516.838 0.831151 1.63822 0
M  V30 5618 C 516.9 3.5648 -0.465018 0
M  V30 5619 C 516.564 4.19176 -1.82045 0
M  V30 5620 C 517.561 4.39181 -2.78237 0
M  V30 5621 C 515.246 4.55792 -2.11089 0
M  V30 5622 C 517.24 4.94937 -4.01642 0
M  V30 5623 C 514.927 5.11258 -3.34752 0
M  V30 5624 C 515.925 5.30775 -4.29845 0
M  V30 5625 O 515.613 5.85064 -5.51322 0
M  V30 5626 H 515.345 0.653847 -0.171639 0
M  V30 5627 H 517.899 1.72066 -1.12171 0
M  V30 5628 H 516.129 3.8569 0.279284 0
M  V30 5629 H 517.818 4.05804 -0.0881334 0
M  V30 5630 H 518.584 4.11249 -2.57097 0
M  V30 5631 H 514.463 4.39901 -1.3787 0
M  V30 5632 H 518.007 5.10086 -4.75876 0
M  V30 5633 H 513.904 5.38619 -3.55753 0
M  V30 5634 H 514.672 6.03489 -5.5294 0
M  V30 5635 N 517.335 0.585699 1.46312 0
M  V30 5636 C 518.584 0.0701192 2.01578 0
M  V30 5637 C 518.897 -1.29889 1.46247 0
M  V30 5638 O 520.103 -1.90598 1.93351 0
M  V30 5639 C 518.559 0.0747499 3.59822 0
M  V30 5640 C 518.167 1.44226 4.24149 0
M  V30 5641 C 519.911 -0.38673 4.22735 0
M  V30 5642 C 517.818 1.40446 5.74481 0
M  V30 5643 H 516.748 0.0224441 0.753666 0
M  V30 5644 H 519.399 0.737789 1.68015 0
M  V30 5645 H 517.781 -0.659144 3.90476 0
M  V30 5646 H 518.955 2.19612 4.05101 0
M  V30 5647 H 517.27 1.84401 3.73343 0
M  V30 5648 H 519.867 -0.433853 5.32937 0
M  V30 5649 H 520.21 -1.40489 3.91878 0
M  V30 5650 H 520.743 0.293195 3.96718 0
M  V30 5651 H 517.482 2.39952 6.10003 0
M  V30 5652 H 517.002 0.692845 5.95785 0
M  V30 5653 H 518.681 1.11865 6.37256 0
M  V30 5654 N 518.813 -1.54241 0.323641 0
M  V30 5655 C 519.723 -2.28033 -0.551205 0
M  V30 5656 C 520.739 -1.32388 -1.12913 0
M  V30 5657 O 521.915 -1.65403 -1.14908 0
M  V30 5658 C 518.98 -3.02382 -1.69606 0
M  V30 5659 C 518.041 -4.13612 -1.14993 0
M  V30 5660 C 517.274 -4.84407 -2.24022 0
M  V30 5661 O 517.497 -4.54716 -3.44368 0
M  V30 5662 O 516.431 -5.71312 -1.89436 0
M  V30 5663 H 520.257 -3.03662 0.048066 0
M  V30 5664 H 517.842 -1.49133 0.0893289 0
M  V30 5665 H 519.724 -3.48941 -2.36259 0
M  V30 5666 H 518.399 -2.29628 -2.28151 0
M  V30 5667 H 517.306 -3.71402 -0.448484 0
M  V30 5668 H 518.639 -4.8841 -0.609608 0
M  V30 5669 N 520.291 -0.0518155 -1.57515 0
M  V30 5670 C 521.707 0.304735 -1.56664 0
M  V30 5671 C 521.907 1.71395 -1.05953 0
M  V30 5672 O 520.963 2.42123 -0.716414 0
M  V30 5673 C 522.276 0.132614 -3.00407 0
M  V30 5674 C 523.824 0.20367 -3.12337 0
M  V30 5675 C 524.299 0.0600706 -4.57961 0
M  V30 5676 N 525.79 0.116326 -4.63054 0
M  V30 5677 C 526.525 0.0293363 -5.73392 0
M  V30 5678 N 526.021 -0.110038 -6.92713 0
M  V30 5679 N 527.814 0.0849651 -5.62036 0
M  V30 5680 H 519.965 -0.973056 -1.888 0
M  V30 5681 H 522.228 -0.377781 -0.869474 0
M  V30 5682 H 521.934 -0.839019 -3.41546 0
M  V30 5683 H 521.808 0.893376 -3.66468 0
M  V30 5684 H 524.195 1.16578 -2.71097 0
M  V30 5685 H 524.276 -0.587857 -2.48954 0
M  V30 5686 H 523.92 -0.898715 -4.99886 0
M  V30 5687 H 523.85 0.87075 -5.19351 0
M  V30 5688 H 526.341 0.22327 -3.7724 0
M  V30 5689 H 526.654 -0.169104 -7.72615 0
M  V30 5690 H 524.999 -0.145132 -6.94848 0
M  V30 5691 H 528.19 0.192411 -4.67704 0
M  V30 5692 H 528.363 0.0137131 -6.47999 0
M  V30 5693 N 521.769 1.56035 0.221574 0
M  V30 5694 C 522.702 1.87427 1.30178 0
M  V30 5695 C 523.68 0.731658 1.45209 0
M  V30 5696 O 524.864 0.980016 1.61022 0
M  V30 5697 C 521.991 2.08127 2.67209 0
M  V30 5698 C 521.037 3.30813 2.69194 0
M  V30 5699 S 521.87 4.86738 2.23263 0
M  V30 5700 C 523.026 5.10474 3.62171 0
M  V30 5701 H 523.259 2.78756 1.03355 0
M  V30 5702 H 520.792 1.48469 0.423813 0
M  V30 5703 H 522.75 2.20736 3.46101 0
M  V30 5704 H 521.411 1.17595 2.91256 0
M  V30 5705 H 520.604 3.42341 3.6989 0
M  V30 5706 H 520.206 3.1706 1.98366 0
M  V30 5707 H 522.498 4.9937 4.5786 0
M  V30 5708 H 523.441 6.12359 3.55558 0
M  V30 5709 H 523.849 4.38208 3.55857 0
M  V30 5710 N 523.247 -0.488276 1.49845 0
M  V30 5711 C 524.195 -1.60917 1.67954 0
M  V30 5712 C 525.189 -1.6038 0.54539 0
M  V30 5713 O 526.395 -1.64736 0.7254 0
M  V30 5714 H 522.77 -0.533658 0.529824 0
M  V30 5715 H 524.741 -1.428 2.62013 0
M  V30 5716 C 523.49 -2.98975 1.77509 0
M  V30 5717 H 522.813 -3.00099 2.6416 0
M  V30 5718 H 524.253 -3.76906 1.9421 0
M  V30 5719 C 522.712 -3.3282 0.522745 0
M  V30 5720 O 523.242 -4.00208 -0.345866 0
M  V30 5721 N 521.448 -2.8808 0.381882 0
M  V30 5722 H 520.995 -2.33415 1.08974 0
M  V30 5723 H 520.953 -3.11091 -0.454929 0
M  V30 5724 N 524.725 -1.39134 -0.740242 0
M  V30 5725 C 525.95 -1.39518 -1.53459 0
M  V30 5726 C 526.375 0.00968883 -1.88098 0
M  V30 5727 O 525.733 0.995312 -1.51536 0
M  V30 5728 C 525.781 -2.26981 -2.802 0
M  V30 5729 O 524.885 -1.69609 -3.75908 0
M  V30 5730 H 524.226 -0.475328 -0.463637 0
M  V30 5731 H 526.756 -1.83064 -0.913717 0
M  V30 5732 H 526.766 -2.41309 -3.28989 0
M  V30 5733 H 525.441 -3.29081 -2.5432 0
M  V30 5734 H 524.018 -1.64495 -3.34658 0
M  V30 5735 N 526.204 0.969867 -1.24223 0
M  V30 5736 C 527.453 1.70687 -1.07466 0
M  V30 5737 C 527.766 1.91736 0.386861 0
M  V30 5738 O 528.972 2.62986 0.674581 0
M  V30 5739 C 527.428 3.07217 -1.87472 0
M  V30 5740 C 527.036 2.94018 -3.3802 0
M  V30 5741 C 528.78 3.84804 -1.79237 0
M  V30 5742 C 526.687 4.25844 -4.10379 0
M  V30 5743 H 525.617 0.640067 -0.398536 0
M  V30 5744 H 528.268 1.08092 -1.48285 0
M  V30 5745 H 526.65 3.70628 -1.39466 0
M  V30 5746 H 527.824 2.39632 -3.9359 0
M  V30 5747 H 526.139 2.29898 -3.47183 0
M  V30 5748 H 528.736 4.82417 -2.30603 0
M  V30 5749 H 529.079 4.09356 -0.757197 0
M  V30 5750 H 529.612 3.28115 -2.24912 0
M  V30 5751 H 526.351 4.06486 -5.14246 0
M  V30 5752 H 525.871 4.80054 -3.59594 0
M  V30 5753 H 527.55 4.94475 -4.17257 0
M  V30 5754 N 527.682 1.05563 1.17022 0
M  V30 5755 C 528.632 0.630007 2.19123 0
M  V30 5756 C 529.616 -0.335472 1.57364 0
M  V30 5757 O 530.808 -0.1521 1.76345 0
M  V30 5758 C 527.937 0.0101676 3.43298 0
M  V30 5759 C 527.023 0.999698 4.12149 0
M  V30 5760 N 527.414 2.17251 4.56766 0
M  V30 5761 C 525.712 0.829 4.38228 0
M  V30 5762 C 526.413 2.79883 5.09942 0
M  V30 5763 N 525.389 2.07656 5.02374 0
M  V30 5764 H 529.191 1.52353 2.51328 0
M  V30 5765 H 526.705 0.926288 1.33393 0
M  V30 5766 H 528.702 -0.312541 4.15727 0
M  V30 5767 H 527.362 -0.878707 3.12584 0
M  V30 5768 H 528.373 2.55067 4.50734 0
M  V30 5769 H 525.05 -0.00850974 4.17499 0
M  V30 5770 H 526.44 3.79362 5.54558 0
M  V30 5771 N 529.16 -1.33526 0.837174 0
M  V30 5772 C 530.576 -1.50727 0.524743 0
M  V30 5773 C 530.776 -1.77792 -0.948279 0
M  V30 5774 O 529.832 -1.83719 -1.73216 0
M  V30 5775 C 531.145 -2.66299 1.39661 0
M  V30 5776 C 532.693 -2.80183 1.39521 0
M  V30 5777 C 533.168 -3.98815 2.25189 0
M  V30 5778 N 534.659 -4.06047 2.2289 0
M  V30 5779 C 535.394 -4.97032 2.85915 0
M  V30 5780 N 534.89 -5.93143 3.57985 0
M  V30 5781 N 536.683 -4.90015 2.75394 0
M  V30 5782 H 528.834 -1.1422 1.79074 0
M  V30 5783 H 531.097 -0.561399 0.763894 0
M  V30 5784 H 530.803 -2.52974 2.4433 0
M  V30 5785 H 530.677 -3.61663 1.07145 0
M  V30 5786 H 533.064 -2.92942 0.356253 0
M  V30 5787 H 533.145 -1.85586 1.76044 0
M  V30 5788 H 532.789 -3.86817 3.29143 0
M  V30 5789 H 532.719 -4.92654 1.86009 0
M  V30 5790 H 535.21 -3.37262 1.70478 0
M  V30 5791 H 535.523 -6.59227 4.03286 0
M  V30 5792 H 533.868 -5.93223 3.62093 0
M  V30 5793 H 537.059 -4.13894 2.18654 0
M  V30 5794 H 537.232 -5.60724 3.24796 0
M  V30 5795 N 530.638 -0.59345 -1.46 0
M  V30 5796 C 531.915 -0.0157933 -1.95594 0
M  V30 5797 C 532.295 1.44807 -1.53604 0
M  V30 5798 O 531.643 2.14342 -0.791824 0
M  V30 5799 C 531.853 -0.199081 -3.48432 0
M  V30 5800 C 533.201 -0.0724943 -4.24538 0
M  V30 5801 O 534.225 -0.128469 -3.55968 0
M  V30 5802 O 533.084 0.0542426 -5.46473 0
M  V30 5803 H 530.178 0.043749 -0.825842 0
M  V30 5804 H 532.724 -0.662522 -1.56233 0
M  V30 5805 H 531.496 -1.21631 -3.71916 0
M  V30 5806 H 531.119 0.483576 -3.94648 0
M  V30 5807 N 532.116 1.54067 -0.331816 0
M  V30 5808 C 533.046 2.27569 0.522932 0
M  V30 5809 C 534.027 1.28679 1.11247 0
M  V30 5810 O 535.212 1.57504 1.13605 0
M  V30 5811 C 532.342 3.0397 1.67987 0
M  V30 5812 C 531.296 4.10267 1.21924 0
M  V30 5813 C 530.622 4.74555 2.46377 0
M  V30 5814 C 531.922 5.21268 0.32815 0
M  V30 5815 H 533.616 2.99264 -0.0901977 0
M  V30 5816 H 531.162 1.4393 -0.044821 0
M  V30 5817 H 533.115 3.54123 2.28418 0
M  V30 5818 H 531.839 2.29906 2.31971 0
M  V30 5819 H 530.498 3.61009 0.637809 0
M  V30 5820 H 530.146 3.97098 3.08743 0
M  V30 5821 H 529.846 5.46363 2.16243 0
M  V30 5822 H 531.37 5.27487 3.07555 0
M  V30 5823 H 532.784 5.67128 0.838978 0
M  V30 5824 H 531.181 5.99982 0.119228 0
M  V30 5825 H 532.251 4.80673 -0.638839 0
M  V30 5826 N 533.594 0.0601682 1.57485 0
M  V30 5827 C 535.01 -0.296422 1.56823 0
M  V30 5828 C 535.21 -1.70831 1.0686 0
M  V30 5829 O 534.266 -2.4174 0.729245 0
M  V30 5830 C 535.579 -0.116681 3.00474 0
M  V30 5831 C 537.127 -0.187103 3.1244 0
M  V30 5832 C 537.602 -0.035783 4.57986 0
M  V30 5833 N 539.093 -0.0917676 4.63109 0
M  V30 5834 C 539.828 0.00107251 5.734 0
M  V30 5835 N 539.324 0.146773 6.92645 0
M  V30 5836 N 541.117 -0.0551577 5.62073 0
M  V30 5837 H 533.268 0.983055 1.88281 0
M  V30 5838 H 535.531 0.382386 0.867459 0
M  V30 5839 H 535.237 0.85712 3.41096 0
M  V30 5840 H 535.111 -0.873929 3.66936 0
M  V30 5841 H 537.498 -1.15138 2.71712 0
M  V30 5842 H 537.579 0.601052 2.48638 0
M  V30 5843 H 537.223 0.925212 4.99402 0
M  V30 5844 H 537.153 -0.843196 5.19806 0
M  V30 5845 H 539.644 -0.203261 3.77353 0
M  V30 5846 H 539.957 0.210076 7.72514 0
M  V30 5847 H 538.302 0.181979 6.94762 0
M  V30 5848 H 541.493 -0.167605 4.678 0
M  V30 5849 H 541.666 0.020652 6.47997 0
M  V30 5850 N 535.072 -1.5615 -0.213296 0
M  V30 5851 C 536.035 -1.92249 -1.24792 0
M  V30 5852 C 537.035 -0.801828 -1.39382 0
M  V30 5853 O 538.225 -1.06948 -1.37506 0
M  V30 5854 C 535.357 -2.18056 -2.62039 0
M  V30 5855 H 536.55 -2.84793 -0.939845 0
M  V30 5856 H 534.103 -1.49559 -0.454062 0
M  V30 5857 H 534.838 -1.2809 -2.97932 0
M  V30 5858 H 534.623 -2.99703 -2.52825 0
M  V30 5859 H 536.113 -2.47051 -3.36683 0
M  V30 5860 N 536.55 0.480323 -1.50102 0
M  V30 5861 C 537.513 1.56181 -1.6775 0
M  V30 5862 C 538.513 1.51156 -0.548503 0
M  V30 5863 O 539.703 1.5394 -0.815363 0
M  V30 5864 C 536.835 2.95823 -1.69415 0
M  V30 5865 H 538.028 1.41855 -2.6423 0
M  V30 5866 H 535.581 0.70605 -1.39444 0
M  V30 5867 H 536.316 3.15604 -0.745948 0
M  V30 5868 H 536.101 3.00878 -2.51425 0
M  V30 5869 H 537.591 3.74359 -1.85054 0
M  V30 5870 N 538.028 1.39524 0.732853 0
M  V30 5871 C 538.976 1.38563 1.86824 0
M  V30 5872 C 539.97 0.268467 1.67259 0
M  V30 5873 O 541.176 0.438613 1.74574 0
M  V30 5874 H 537.551 0.432737 0.615014 0
M  V30 5875 H 539.522 2.34328 1.84751 0
M  V30 5876 C 538.271 1.2481 3.24527 0
M  V30 5877 H 537.594 2.10044 3.40179 0
M  V30 5878 H 539.034 1.28194 4.04156 0
M  V30 5879 C 537.493 -0.0432825 3.36872 0
M  V30 5880 O 538.023 -1.01268 3.88726 0
M  V30 5881 N 536.229 -0.107055 2.90403 0
M  V30 5882 H 535.776 0.682512 2.48394 0
M  V30 5883 H 535.734 -0.970618 2.99042 0
M  V30 5884 N 539.506 -0.963266 1.24736 0
M  V30 5885 C 540.755 -1.70115 1.08369 0
M  V30 5886 C 541.068 -1.91939 -0.376688 0
M  V30 5887 O 542.274 -2.6334 -0.660624 0
M  V30 5888 C 540.73 -3.06218 1.89099 0
M  V30 5889 C 540.338 -2.92221 3.39574 0
M  V30 5890 C 542.082 -3.83848 1.81275 0
M  V30 5891 C 539.989 -4.23662 4.12631 0
M  V30 5892 H 538.919 -0.637944 0.401924 0
M  V30 5893 H 541.57 -1.07304 1.48856 0
M  V30 5894 H 539.952 -3.69884 1.41429 0
M  V30 5895 H 541.126 -2.37541 3.94856 0
M  V30 5896 H 539.441 -2.28054 3.48397 0
M  V30 5897 H 542.038 -4.81188 2.33158 0
M  V30 5898 H 542.381 -4.08949 0.778895 0
M  V30 5899 H 542.914 -3.26918 2.26649 0
M  V30 5900 H 539.653 -4.03753 5.16395 0
M  V30 5901 H 539.173 -4.78141 3.62135 0
M  V30 5902 H 540.852 -4.92256 4.19873 0
M  V30 5903 N 540.985 -1.06182 -1.16461 0
M  V30 5904 C 541.915 -0.692861 -2.22984 0
M  V30 5905 C 542.896 0.314122 -1.67174 0
M  V30 5906 O 544.081 0.189499 -1.93273 0
M  V30 5907 C 541.211 -0.07732 -3.47214 0
M  V30 5908 C 540.165 -1.01015 -4.15909 0
M  V30 5909 C 539.491 -0.257973 -5.34077 0
M  V30 5910 C 540.791 -2.33868 -4.67015 0
M  V30 5911 H 542.485 -1.58343 -2.54102 0
M  V30 5912 H 540.031 -0.76279 -1.22137 0
M  V30 5913 H 541.984 0.19266 -4.20959 0
M  V30 5914 H 540.708 0.848254 -3.15392 0
M  V30 5915 H 539.367 -1.26486 -3.44088 0
M  V30 5916 H 539.015 0.670684 -4.98509 0
M  V30 5917 H 538.715 -0.879638 -5.80979 0
M  V30 5918 H 540.239 0.00448788 -6.106 0
M  V30 5919 H 541.653 -2.1279 -5.32347 0
M  V30 5920 H 540.05 -2.91522 -5.24533 0
M  V30 5921 H 541.12 -2.97019 -3.83286 0
M  V30 5922 N 542.463 1.3308 -0.844243 0
M  V30 5923 C 543.709 1.97898 -0.443206 0
M  V30 5924 C 544.042 1.66699 0.99625 0
M  V30 5925 O 543.317 0.949704 1.69738 0
M  V30 5926 C 543.6 3.53801 -0.670606 0
M  V30 5927 C 543.453 3.94667 -2.15772 0
M  V30 5928 C 544.772 4.39936 -0.120226 0
M  V30 5929 H 541.891 0.718861 -0.162504 0
M  V30 5930 H 544.533 1.57633 -1.06075 0
M  V30 5931 H 542.683 3.88229 -0.14496 0
M  V30 5932 H 544.355 3.70469 -2.74865 0
M  V30 5933 H 542.598 3.44203 -2.6402 0
M  V30 5934 H 543.269 5.03275 -2.26757 0
M  V30 5935 H 545.745 4.12183 -0.5696 0
M  V30 5936 H 544.621 5.4803 -0.308984 0
M  V30 5937 H 544.882 4.31184 0.976347 0
M  V30 5938 N 543.941 0.601185 1.45683 0
M  V30 5939 C 545.166 0.0982245 2.07167 0
M  V30 5940 C 545.591 -1.20546 1.44396 0
M  V30 5941 O 544.949 -1.73247 0.534347 0
M  V30 5942 C 544.997 -0.0346976 3.60583 0
M  V30 5943 O 544.101 -1.08657 3.97828 0
M  V30 5944 H 543.442 0.0711618 0.660176 0
M  V30 5945 H 545.972 0.829376 1.87036 0
M  V30 5946 H 545.982 -0.234969 4.07323 0
M  V30 5947 H 544.657 0.917265 4.05659 0
M  V30 5948 H 543.234 -0.863275 3.6277 0
M  V30 5949 N 545.419 -1.53889 0.339982 0
M  V30 5950 C 546.329 -2.28604 -0.526988 0
M  V30 5951 C 547.345 -1.33578 -1.11503 0
M  V30 5952 O 548.521 -1.66612 -1.13148 0
M  V30 5953 C 545.586 -3.04164 -1.66389 0
M  V30 5954 C 544.647 -4.14809 -1.10599 0
M  V30 5955 C 543.88 -4.86756 -2.18871 0
M  V30 5956 O 544.103 -4.58343 -3.39526 0
M  V30 5957 O 543.037 -5.73289 -1.83366 0
M  V30 5958 H 546.863 -3.03594 0.0802707 0
M  V30 5959 H 544.448 -1.4903 0.105141 0
M  V30 5960 H 546.33 -3.51427 -2.32544 0
M  V30 5961 H 545.005 -2.32035 -2.25703 0
M  V30 5962 H 543.912 -3.71857 -0.409067 0
M  V30 5963 H 545.245 -4.89029 -0.557771 0
M  V30 5964 N 546.897 -0.0685191 -1.57451 0
M  V30 5965 C 547.86 0.885173 -2.11417 0
M  V30 5966 C 548.86 1.22853 -1.03748 0
M  V30 5967 O 550.05 1.16235 -1.2975 0
M  V30 5968 C 547.182 2.18964 -2.61281 0
M  V30 5969 H 548.375 0.417034 -2.96986 0
M  V30 5970 H 545.928 0.18014 -1.55258 0
M  V30 5971 H 546.663 2.70321 -1.79156 0
M  V30 5972 H 546.448 1.9534 -3.39977 0
M  V30 5973 H 547.938 2.87242 -3.0312 0
M  V30 5974 N 548.375 1.56261 0.205012 0
M  V30 5975 C 549.305 1.96779 1.257 0
M  V30 5976 C 550.286 0.838309 1.48008 0
M  V30 5977 O 551.471 1.10189 1.59913 0
M  V30 5978 C 548.601 2.29876 2.60335 0
M  V30 5979 C 547.555 3.45469 2.52656 0
M  V30 5980 C 546.881 3.64215 3.91473 0
M  V30 5981 C 548.181 4.79954 2.06014 0
M  V30 5982 H 549.875 2.84904 0.920338 0
M  V30 5983 H 547.421 1.37072 0.441277 0
M  V30 5984 H 549.374 2.56814 3.34102 0
M  V30 5985 H 548.098 1.38622 2.95722 0
M  V30 5986 H 546.757 3.18605 1.81345 0
M  V30 5987 H 546.405 2.70309 4.24196 0
M  V30 5988 H 546.105 4.41973 3.87213 0
M  V30 5989 H 547.629 3.93519 4.66878 0
M  V30 5990 H 549.043 5.05989 2.69533 0
M  V30 5991 H 547.44 5.61111 2.12777 0
M  V30 5992 H 548.51 4.74201 1.01297 0
M  V30 5993 N 549.853 -0.472356 1.50355 0
M  V30 5994 C 551.093 -1.23439 1.62918 0
M  V30 5995 C 551.457 -1.89284 0.321801 0
M  V30 5996 O 552.658 -2.66854 0.322852 0
M  V30 5997 C 550.929 -2.25119 2.7759 0
M  V30 5998 S 552.488 -3.10278 3.10279 0
M  V30 5999 H 549.306 -0.41911 0.574341 0
M  V30 6000 H 551.908 -0.531621 1.88133 0
M  V30 6001 H 550.612 -1.75324 3.71066 0
M  V30 6002 H 550.143 -3.00026 2.54457 0
M  V30 6003 H 552.158 -4.26257 2.54007 0
M  V30 6004 N 551.331 -1.39911 -0.725443 0
M  V30 6005 C 552.571 -1.39096 -1.49772 0
M  V30 6006 C 552.935 0.0106452 -1.91997 0
M  V30 6007 O 554.136 0.143859 -2.68415 0
M  V30 6008 C 552.407 -2.34441 -2.69764 0
M  V30 6009 S 553.966 -2.51898 -3.59295 0
M  V30 6010 H 550.784 -0.49314 -0.512186 0
M  V30 6011 H 553.386 -1.76093 -0.849197 0
M  V30 6012 H 552.09 -3.35123 -2.36898 0
M  V30 6013 H 551.621 -1.98692 -3.39537 0
M  V30 6014 H 553.636 -1.76402 -4.63785 0
M  V30 6015 N 552.809 0.956637 -1.25245 0
M  V30 6016 C 553.756 2.053 -1.05454 0
M  V30 6017 C 554.726 1.66062 0.0356889 0
M  V30 6018 O 555.911 1.90415 -0.121099 0
M  V30 6019 C 553.051 3.38391 -0.677191 0
M  V30 6020 C 552.164 3.90758 -1.84206 0
M  V30 6021 C 551.299 5.12165 -1.40926 0
M  V30 6022 C 550.338 5.56757 -2.54338 0
M  V30 6023 N 549.475 6.69376 -2.11848 0
M  V30 6024 H 554.315 2.21562 -1.99284 0
M  V30 6025 H 551.852 1.08578 -0.992434 0
M  V30 6026 H 553.81 4.1488 -0.43938 0
M  V30 6027 H 552.44 3.22021 0.224127 0
M  V30 6028 H 551.492 3.10808 -2.19323 0
M  V30 6029 H 552.804 4.19802 -2.69383 0
M  V30 6030 H 551.958 5.96065 -1.13098 0
M  V30 6031 H 550.697 4.84832 -0.528175 0
M  V30 6032 H 549.702 4.71423 -2.82913 0
M  V30 6033 H 550.927 5.861 -3.43022 0
M  V30 6034 H 548.873 6.43756 -1.26153 0
M  V30 6035 H 548.79 6.97927 -2.90574 0
M  V30 6036 H 550.058 7.5669 -1.87191 0
M  V30 6037 N 554.287 1.06798 1.15896 0
M  V30 6038 C 555.536 0.782796 1.8589 0
M  V30 6039 C 555.849 -0.693498 1.82893 0
M  V30 6040 O 557.055 -1.09325 2.48516 0
M  V30 6041 C 555.511 1.3502 3.33613 0
M  V30 6042 C 555.119 2.8571 3.45071 0
M  V30 6043 C 556.863 1.14278 4.08829 0
M  V30 6044 C 554.77 3.35669 4.86909 0
M  V30 6045 H 553.7 0.289149 0.696354 0
M  V30 6046 H 556.351 1.28734 1.30766 0
M  V30 6047 H 554.733 0.773407 3.88374 0
M  V30 6048 H 555.907 3.49385 3.00445 0
M  V30 6049 H 554.222 3.05178 2.83294 0
M  V30 6050 H 556.819 1.49087 5.13495 0
M  V30 6051 H 557.162 0.0814575 4.1622 0
M  V30 6052 H 557.695 1.68563 3.60321 0
M  V30 6053 H 554.434 4.41302 4.84698 0
M  V30 6054 H 553.954 2.76745 5.32139 0
M  V30 6055 H 555.633 3.31296 5.55745 0
M  V30 6056 N 555.766 -1.3263 0.851289 0
M  V30 6057 C 556.729 -2.27247 0.298541 0
M  V30 6058 C 557.729 -1.51467 -0.539847 0
M  V30 6059 O 558.919 -1.7061 -0.351843 0
M  V30 6060 C 556.051 -3.35964 -0.578004 0
M  V30 6061 H 557.244 -2.7765 1.13359 0
M  V30 6062 H 554.797 -1.43245 0.625354 0
M  V30 6063 H 555.532 -2.90823 -1.435 0
M  V30 6064 H 555.317 -3.92094 0.0220539 0
M  V30 6065 H 556.807 -4.06472 -0.957626 0
M  V30 6066 N 557.244 -0.608902 -1.45362 0
M  V30 6067 C 558.521 -0.0365378 -1.95566 0
M  V30 6068 C 558.901 1.43169 -1.55131 0
M  V30 6069 O 558.249 2.1349 -0.814513 0
M  V30 6070 C 558.459 -0.236026 -3.48201 0
M  V30 6071 C 559.807 -0.117518 -4.24437 0
M  V30 6072 O 560.831 -0.166217 -3.55812 0
M  V30 6073 O 559.69 -0.00372127 -5.465 0
M  V30 6074 H 556.784 0.0349874 -0.82626 0
M  V30 6075 H 559.33 -0.679055 -1.55521 0
M  V30 6076 H 558.102 -1.25569 -3.70605 0
M  V30 6077 H 557.725 0.441691 -3.95139 0
M  V30 6078 N 558.722 1.53707 -0.348139 0
M  V30 6079 C 559.969 2.00988 0.246966 0
M  V30 6080 C 560.297 1.23586 1.50189 0
M  V30 6081 O 559.552 0.312817 1.93184 0
M  V30 6082 C 559.851 3.52292 0.602061 0
M  V30 6083 C 559.517 4.47453 -0.556509 0
M  V30 6084 C 558.179 4.73188 -0.874446 0
M  V30 6085 C 560.531 5.03851 -1.33354 0
M  V30 6086 C 557.859 5.52577 -1.9717 0
M  V30 6087 C 560.211 5.84437 -2.42108 0
M  V30 6088 C 558.875 6.08465 -2.74456 0
M  V30 6089 H 558.145 0.735469 0.0903712 0
M  V30 6090 H 560.792 1.85464 -0.477001 0
M  V30 6091 H 559.097 3.65672 1.40681 0
M  V30 6092 H 560.794 3.86337 1.07447 0
M  V30 6093 H 557.384 4.27558 -0.298652 0
M  V30 6094 H 561.568 4.8393 -1.10117 0
M  V30 6095 H 556.824 5.69418 -2.22651 0
M  V30 6096 H 560.998 6.27151 -3.02745 0
M  V30 6097 H 558.625 6.69768 -3.59604 0
M  V30 6098 N 560.2 0.0768682 1.57412 0
M  V30 6099 C 561.448 -0.589918 1.93299 0
M  V30 6100 C 561.769 -1.69842 0.958049 0
M  V30 6101 O 561.039 -1.95899 0.00703261 0
M  V30 6102 H 559.619 -0.220901 0.713591 0
M  V30 6103 H 562.281 0.135917 1.94425 0
M  V30 6104 H 561.377 -1.01195 2.95239 0
M  V30 6105 N 561.678 -1.56367 -0.196722 0
M  V30 6106 C 562.608 -1.97442 -1.24655 0
M  V30 6107 C 563.589 -0.846147 -1.47561 0
M  V30 6108 O 564.774 -1.11035 -1.59326 0
M  V30 6109 C 561.904 -2.31253 -2.59112 0
M  V30 6110 C 560.858 -3.46804 -2.50821 0
M  V30 6111 C 560.184 -3.66286 -3.89536 0
M  V30 6112 C 561.484 -4.8104 -2.03465 0
M  V30 6113 H 563.178 -2.85388 -0.905216 0
M  V30 6114 H 560.724 -1.37304 -0.434002 0
M  V30 6115 H 562.677 -2.58583 -3.32736 0
M  V30 6116 H 561.401 -1.40188 -2.94983 0
M  V30 6117 H 560.06 -3.19563 -1.79653 0
M  V30 6118 H 559.708 -2.72555 -4.22756 0
M  V30 6119 H 559.408 -4.4402 -3.84864 0
M  V30 6120 H 560.932 -3.9599 -4.64784 0
M  V30 6121 H 562.346 -5.07411 -2.66846 0
M  V30 6122 H 560.743 -5.62232 -2.09798 0
M  V30 6123 H 561.813 -4.74732 -0.98781 0
M  V30 6124 N 563.156 0.464375 -1.50603 0
M  V30 6125 C 564.119 1.54393 -1.69397 0
M  V30 6126 C 565.119 1.50566 -0.564504 0
M  V30 6127 O 566.309 1.53066 -0.831645 0
M  V30 6128 C 563.441 2.9401 -1.72543 0
M  V30 6129 H 564.634 1.39044 -2.65719 0
M  V30 6130 H 562.187 0.69122 -1.40185 0
M  V30 6131 H 562.922 3.14795 -0.77938 0
M  V30 6132 H 562.707 2.98195 -2.54602 0
M  V30 6133 H 564.197 3.72375 -1.89015 0
M  V30 6134 N 564.634 1.40294 0.718013 0
M  V30 6135 C 566.05 1.2227 1.02577 0
M  V30 6136 C 566.25 0.0961976 2.0127 0
M  V30 6137 O 565.306 -0.546695 2.46511 0
M  V30 6138 C 566.619 2.56348 1.57182 0
M  V30 6139 C 568.167 2.6334 1.69178 0
M  V30 6140 C 568.642 3.9768 2.27188 0
M  V30 6141 N 570.133 3.99409 2.34578 0
M  V30 6142 C 570.868 5.00141 2.8044 0
M  V30 6143 N 570.364 6.11268 3.26073 0
M  V30 6144 N 572.157 4.87511 2.79802 0
M  V30 6145 H 564.308 2.12304 0.0637899 0
M  V30 6146 H 566.571 0.943632 0.0909036 0
M  V30 6147 H 566.277 3.3942 0.921262 0
M  V30 6148 H 566.151 2.77266 2.55741 0
M  V30 6149 H 568.538 1.80641 2.33351 0
M  V30 6150 H 568.619 2.46255 0.692247 0
M  V30 6151 H 568.263 4.80817 1.63638 0
M  V30 6152 H 568.193 4.12093 3.27852 0
M  V30 6153 H 570.684 3.19162 2.02346 0
M  V30 6154 H 570.997 6.84023 3.59628 0
M  V30 6155 H 569.342 6.14837 3.24038 0
M  V30 6156 H 572.533 3.9979 2.43487 0
M  V30 6157 H 572.706 5.66158 3.15228 0
M  V30 6158 N 566.112 -0.949982 1.2575 0
M  V30 6159 C 567.361 -1.68956 1.10168 0
M  V30 6160 C 567.674 -1.92327 -0.356309 0
M  V30 6161 O 568.88 -2.64026 -0.632657 0
M  V30 6162 C 567.336 -3.04196 1.92336 0
M  V30 6163 C 566.944 -2.88603 3.42655 0
M  V30 6164 C 568.688 -3.81904 1.85336 0
M  V30 6165 C 566.595 -4.19262 4.17101 0
M  V30 6166 H 565.525 -0.633645 0.408668 0
M  V30 6167 H 568.176 -1.05719 1.49986 0
M  V30 6168 H 566.558 -3.68363 1.45344 0
M  V30 6169 H 567.732 -2.3334 3.97353 0
M  V30 6170 H 566.047 -2.24345 3.50796 0
M  V30 6171 H 568.644 -4.78688 2.38248 0
M  V30 6172 H 568.987 -4.08099 0.822226 0
M  V30 6173 H 569.52 -3.24495 2.30104 0
M  V30 6174 H 566.259 -3.98254 5.20648 0
M  V30 6175 H 565.779 -4.74273 3.67186 0
M  V30 6176 H 567.458 -4.87775 4.25071 0
M  V30 6177 N 567.59 -1.07411 -1.15328 0
M  V30 6178 C 568.839 -0.792643 -1.85473 0
M  V30 6179 C 569.152 0.683789 -1.83259 0
M  V30 6180 O 570.358 1.08005 -2.49093 0
M  V30 6181 C 568.814 -1.36787 -3.32892 0
M  V30 6182 C 568.422 -2.87536 -3.43551 0
M  V30 6183 C 570.166 -1.16444 -4.08217 0
M  V30 6184 C 568.073 -3.38247 -4.85122 0
M  V30 6185 H 567.003 -0.292838 -0.694811 0
M  V30 6186 H 569.654 -1.29426 -1.30082 0
M  V30 6187 H 568.036 -0.793993 -3.87958 0
M  V30 6188 H 569.21 -3.50973 -2.98588 0
M  V30 6189 H 567.525 -3.06676 -2.81672 0
M  V30 6190 H 570.122 -1.51808 -5.12697 0
M  V30 6191 H 570.465 -0.10353 -4.16171 0
M  V30 6192 H 570.998 -1.70472 -3.59422 0
M  V30 6193 H 567.737 -4.43866 -4.82351 0
M  V30 6194 H 567.257 -2.79564 -5.30664 0
M  V30 6195 H 568.936 -3.34238 -5.5398 0
M  V30 6196 N 569.068 1.32177 -0.85831 0
M  V30 6197 C 570.345 1.91781 -0.384624 0
M  V30 6198 C 570.725 1.78171 1.13217 0
M  V30 6199 O 570.073 1.18209 1.95548 0
M  V30 6200 C 570.283 3.38414 -0.853047 0
M  V30 6201 C 571.631 4.15542 -0.872359 0
M  V30 6202 O 572.655 3.47148 -0.797926 0
M  V30 6203 O 571.514 5.37678 -0.978009 0
M  V30 6204 H 568.608 0.819259 -0.112886 0
M  V30 6205 H 571.154 1.40923 -0.945453 0
M  V30 6206 H 569.926 3.4228 -1.89632 0
M  V30 6207 H 569.549 3.96683 -0.269874 0
M  V30 6208 N 570.547 0.616602 1.45037 0
M  V30 6209 C 571.772 0.120192 2.07051 0
M  V30 6210 C 572.197 -1.19008 1.45666 0
M  V30 6211 O 571.555 -1.7267 0.552692 0
M  V30 6212 C 571.603 0.00354901 3.606 0
M  V30 6213 O 570.707 -1.04431 3.98958 0
M  V30 6214 H 570.048 0.0781599 0.659384 0
M  V30 6215 H 572.578 0.849167 1.86146 0
M  V30 6216 H 572.588 -0.191754 4.07549 0
M  V30 6217 H 571.263 0.960239 4.04663 0
M  V30 6218 H 569.84 -0.824749 3.63665 0
M  V30 6219 N 572.025 -1.5352 0.356285 0
M  V30 6220 C 572.935 -2.29151 -0.502712 0
M  V30 6221 C 573.951 -1.34753 -1.1008 0
M  V30 6222 O 575.127 -1.67803 -1.11374 0
M  V30 6223 C 572.192 -3.05911 -1.63154 0
M  V30 6224 C 571.253 -4.15958 -1.06194 0
M  V30 6225 C 570.486 -4.8905 -2.13696 0
M  V30 6226 O 570.709 -4.61919 -3.34645 0
M  V30 6227 O 569.643 -5.75202 -1.77275 0
M  V30 6228 H 573.469 -3.03492 0.112466 0
M  V30 6229 H 571.054 -1.4891 0.120942 0
M  V30 6230 H 572.936 -3.53874 -2.28804 0
M  V30 6231 H 571.611 -2.34415 -2.23229 0
M  V30 6232 H 570.518 -3.7227 -0.369603 0
M  V30 6233 H 571.851 -4.89593 -0.505872 0
M  V30 6234 N 573.503 -0.0852151 -1.57369 0
M  V30 6235 C 574.733 0.588605 -1.98038 0
M  V30 6236 C 575.141 1.62869 -0.962817 0
M  V30 6237 O 574.484 1.83611 0.057134 0
M  V30 6238 C 574.546 1.30303 -3.35054 0
M  V30 6239 C 574.21 0.414855 -4.55113 0
M  V30 6240 C 575.207 -0.333011 -5.18832 0
M  V30 6241 C 572.892 0.335804 -5.01176 0
M  V30 6242 C 574.886 -1.14801 -6.26976 0
M  V30 6243 C 572.573 -0.482857 -6.09189 0
M  V30 6244 C 573.571 -1.22342 -6.71953 0
M  V30 6245 O 573.259 -2.02855 -7.77885 0
M  V30 6246 H 572.991 0.163249 -0.655992 0
M  V30 6247 H 575.545 -0.1582 -2.0479 0
M  V30 6248 H 573.775 2.0962 -3.24956 0
M  V30 6249 H 575.464 1.87041 -3.60237 0
M  V30 6250 H 576.23 -0.281611 -4.84182 0
M  V30 6251 H 572.109 0.901869 -4.52092 0
M  V30 6252 H 575.653 -1.72654 -6.75897 0
M  V30 6253 H 571.55 -0.535773 -6.43273 0
M  V30 6254 H 572.318 -1.95432 -7.94826 0
M  V30 6255 N 574.981 1.5647 0.188427 0
M  V30 6256 C 576.209 1.85131 0.923803 0
M  V30 6257 C 576.624 0.668537 1.76567 0
M  V30 6258 O 575.981 -0.362662 1.7886 0
M  V30 6259 C 576.032 3.12661 1.81453 0
M  V30 6260 O 575.753 4.26378 1.00665 0
M  V30 6261 C 577.254 3.54548 2.66103 0
M  V30 6262 H 574.474 0.614624 0.269218 0
M  V30 6263 H 577.018 2.03581 0.193671 0
M  V30 6264 H 575.173 2.96088 2.49821 0
M  V30 6265 H 575.587 4.99041 1.61425 0
M  V30 6266 H 577.061 4.4673 3.24247 0
M  V30 6267 H 577.538 2.77853 3.40139 0
M  V30 6268 H 578.144 3.73674 2.03096 0
M  V30 6269 N 576.459 -0.456382 1.50847 0
M  V30 6270 C 577.422 -1.53493 1.70213 0
M  V30 6271 C 578.422 -1.50264 0.572481 0
M  V30 6272 O 579.612 -1.52623 0.839751 0
M  V30 6273 C 576.744 -2.93091 1.741 0
M  V30 6274 H 577.937 -1.37633 2.66453 0
M  V30 6275 H 575.49 -0.683776 1.4055 0
M  V30 6276 H 576.225 -3.14378 0.796063 0
M  V30 6277 H 576.01 -2.9684 2.5618 0
M  V30 6278 H 577.5 -3.71368 1.90987 0
M  V30 6279 N 577.937 -1.40673 -0.710563 0
M  V30 6280 C 578.869 -1.37256 -1.83558 0
M  V30 6281 C 579.882 -0.277133 -1.60424 0
M  V30 6282 O 581.071 -0.537831 -1.70205 0
M  V30 6283 C 578.171 -1.1144 -3.20054 0
M  V30 6284 C 577.344 -2.32734 -3.70342 0
M  V30 6285 C 576.403 -2.03002 -4.85465 0
M  V30 6286 O 575.429 -2.75912 -4.97857 0
M  V30 6287 N 576.631 -1.01105 -5.71627 0
M  V30 6288 H 579.396 -2.34215 -1.86985 0
M  V30 6289 H 576.957 -1.35091 -0.892301 0
M  V30 6290 H 578.949 -0.895265 -3.94673 0
M  V30 6291 H 577.519 -0.231307 -3.11743 0
M  V30 6292 H 576.739 -2.70446 -2.86798 0
M  V30 6293 H 578.027 -3.13584 -4.00678 0
M  V30 6294 H 577.425 -0.407303 -5.64232 0
M  V30 6295 H 575.982 -0.85182 -6.4621 0
M  V30 6296 N 579.415 0.9433 -1.26252 0
M  V30 6297 C 580.325 2.07532 -1.09397 0
M  V30 6298 C 581.341 1.73977 -0.0280449 0
M  V30 6299 O 582.517 2.00067 -0.231337 0
M  V30 6300 C 579.582 3.39002 -0.726523 0
M  V30 6301 C 578.643 3.86353 -1.87163 0
M  V30 6302 C 577.876 5.11549 -1.52162 0
M  V30 6303 O 578.099 5.68834 -0.422385 0
M  V30 6304 O 577.033 5.53889 -2.35565 0
M  V30 6305 H 580.859 2.24658 -2.04359 0
M  V30 6306 H 578.444 1.05988 -1.05295 0
M  V30 6307 H 580.326 4.18 -0.534236 0
M  V30 6308 H 579.001 3.2312 0.193721 0
M  V30 6309 H 577.908 3.0831 -2.11886 0
M  V30 6310 H 579.241 4.06752 -2.77152 0
M  V30 6311 N 580.893 1.08022 1.14757 0
M  V30 6312 C 582.141 0.805913 1.85336 0
M  V30 6313 C 582.462 -0.670162 1.83122 0
M  V30 6314 O 581.732 -1.48567 1.2769 0
M  V30 6315 H 580.312 0.295138 0.686223 0
M  V30 6316 H 582.974 1.36538 1.3908 0
M  V30 6317 H 582.07 1.14655 2.90277 0
M  V30 6318 N 582.371 -1.3172 0.865308 0
M  V30 6319 C 583.334 -2.26918 0.322627 0
M  V30 6320 C 584.334 -1.52031 -0.523751 0
M  V30 6321 O 585.524 -1.70973 -0.333727 0
M  V30 6322 C 582.656 -3.36558 -0.542338 0
M  V30 6323 H 583.849 -2.76432 1.16298 0
M  V30 6324 H 581.402 -1.42573 0.640512 0
M  V30 6325 H 582.137 -2.92329 -1.40407 0
M  V30 6326 H 581.922 -3.92048 0.0636395 0
M  V30 6327 H 583.412 -4.07465 -0.91446 0
M  V30 6328 N 583.85 -0.624285 -1.44708 0
M  V30 6329 C 584.797 0.0847135 -2.30644 0
M  V30 6330 C 585.767 0.843575 -1.43084 0
M  V30 6331 O 586.952 0.825982 -1.71995 0
M  V30 6332 C 584.091 1.06495 -3.28257 0
M  V30 6333 C 583.205 0.305224 -4.3092 0
M  V30 6334 C 582.34 1.27667 -5.1563 0
M  V30 6335 C 581.379 0.505706 -6.10007 0
M  V30 6336 N 580.516 1.42727 -6.8744 0
M  V30 6337 H 585.356 -0.654068 -2.90733 0
M  V30 6338 H 582.893 -0.334334 -1.4325 0
M  V30 6339 H 584.851 1.64658 -3.83332 0
M  V30 6340 H 583.481 1.77094 -2.69884 0
M  V30 6341 H 582.533 -0.392207 -3.78373 0
M  V30 6342 H 583.845 -0.295553 -4.97924 0
M  V30 6343 H 582.999 1.92984 -5.75189 0
M  V30 6344 H 581.738 1.91137 -4.48685 0
M  V30 6345 H 580.743 -0.160999 -5.49564 0
M  V30 6346 H 581.968 -0.124183 -6.78986 0
M  V30 6347 H 579.913 2.04931 -6.23169 0
M  V30 6348 H 579.831 0.880345 -7.50857 0
M  V30 6349 H 581.099 2.0695 -7.51526 0
M  V30 6350 N 585.328 1.53329 -0.364422 0
M  V30 6351 C 586.575 2.01239 0.225634 0
M  V30 6352 C 586.903 1.25172 1.48869 0
M  V30 6353 O 586.158 0.333289 1.92841 0
M  V30 6354 C 586.457 3.52911 0.564661 0
M  V30 6355 C 586.123 4.46837 -0.603936 0
M  V30 6356 C 584.785 4.72234 -0.924585 0
M  V30 6357 C 587.137 5.02409 -1.38691 0
M  V30 6358 C 584.465 5.50454 -2.0302 0
M  V30 6359 C 586.817 5.81836 -2.48293 0
M  V30 6360 C 585.481 6.0552 -2.80894 0
M  V30 6361 H 584.751 0.736386 0.0825654 0
M  V30 6362 H 587.398 1.84948 -0.496645 0
M  V30 6363 H 585.703 3.67144 1.36794 0
M  V30 6364 H 587.4 3.87455 1.03344 0
M  V30 6365 H 583.99 4.27217 -0.343983 0
M  V30 6366 H 588.174 4.82735 -1.15243 0
M  V30 6367 H 583.43 5.67024 -2.28678 0
M  V30 6368 H 587.604 6.23905 -3.0938 0
M  V30 6369 H 585.231 6.65916 -3.66688 0
M  V30 6370 N 586.806 0.0935595 1.57322 0
M  V30 6371 C 588.217 -0.435807 1.81542 0
M  V30 6372 C 588.568 -1.68263 1.00907 0
M  V30 6373 O 587.693 -2.15087 0.237983 0
M  V30 6374 C 588.288 -0.797436 3.29282 0
M  V30 6375 C 586.847 -1.27155 3.54272 0
M  V30 6376 C 585.994 -0.267455 2.76007 0
M  V30 6377 H 588.945 0.31902 1.5546 0
M  V30 6378 H 588.966 -1.6571 3.42521 0
M  V30 6379 H 588.478 0.110206 3.87943 0
M  V30 6380 H 586.579 -2.19696 3.00939 0
M  V30 6381 H 586.692 -1.23445 4.62923 0
M  V30 6382 H 585.056 -0.749282 2.43429 0
M  V30 6383 H 585.839 0.632839 3.37417 0
M  V30 6384 N 588.284 -1.56567 -0.180126 0
M  V30 6385 C 589.533 -1.80685 -0.896426 0
M  V30 6386 C 589.846 -0.669335 -1.83791 0
M  V30 6387 O 591.052 -0.795209 -2.59593 0
M  V30 6388 C 589.508 -3.20132 -1.6445 0
M  V30 6389 C 589.116 -4.41727 -0.747088 0
M  V30 6390 C 590.86 -3.53549 -2.34955 0
M  V30 6391 C 588.767 -5.72195 -1.49489 0
M  V30 6392 H 587.697 -0.673758 -0.338477 0
M  V30 6393 H 590.348 -1.8289 -0.149467 0
M  V30 6394 H 588.73 -3.12218 -2.43589 0
M  V30 6395 H 589.904 -4.608 0.00671129 0
M  V30 6396 H 588.219 -4.16122 -0.152134 0
M  V30 6397 H 590.816 -4.48267 -2.91481 0
M  V30 6398 H 591.159 -2.78006 -3.09868 0
M  V30 6399 H 591.692 -3.62976 -1.62768 0
M  V30 6400 H 588.431 -6.50743 -0.788251 0
M  V30 6401 H 587.951 -5.57115 -2.22224 0
M  V30 6402 H 589.63 -6.1384 -2.04472 0
M  V30 6403 N 589.762 0.448376 -1.51087 0
M  V30 6404 C 590.709 1.54341 -1.71603 0
M  V30 6405 C 591.679 1.56463 -0.557536 0
M  V30 6406 O 592.864 1.73644 -0.79072 0
M  V30 6407 C 590.004 2.92148 -1.83695 0
M  V30 6408 C 589.117 2.99639 -3.11192 0
M  V30 6409 C 588.252 4.285 -3.13944 0
M  V30 6410 C 587.291 4.29819 -4.35801 0
M  V30 6411 N 586.428 5.50186 -4.36164 0
M  V30 6412 H 591.268 1.36151 -2.65079 0
M  V30 6413 H 588.805 0.661585 -1.31383 0
M  V30 6414 H 590.763 3.72093 -1.88687 0
M  V30 6415 H 589.393 3.0892 -0.936374 0
M  V30 6416 H 588.445 2.12425 -3.15562 0
M  V30 6417 H 589.757 2.96474 -4.01129 0
M  V30 6418 H 588.911 5.16811 -3.17791 0
M  V30 6419 H 587.65 4.34307 -2.21876 0
M  V30 6420 H 586.655 3.39902 -4.32142 0
M  V30 6421 H 587.88 4.25685 -5.29121 0
M  V30 6422 H 585.826 5.56735 -3.46961 0
M  V30 6423 H 585.743 5.48856 -5.19897 0
M  V30 6424 H 587.011 6.40559 -4.44189 0
M  V30 6425 N 591.24 1.41047 0.703093 0
M  V30 6426 C 592.486 1.41209 1.46396 0
M  V30 6427 C 592.841 0.0180188 1.92392 0
M  V30 6428 O 592.134 -0.954739 1.66118 0
M  V30 6429 C 592.328 2.34686 2.6955 0
M  V30 6430 C 592.157 3.83044 2.35601 0
M  V30 6431 C 590.927 4.51777 2.26331 0
M  V30 6432 C 593.125 4.74215 1.9906 0
M  V30 6433 N 591.107 5.85302 1.85188 0
M  V30 6434 C 592.478 5.96631 1.68616 0
M  V30 6435 C 594.533 4.61932 1.85805 0
M  V30 6436 C 593.236 7.08134 1.26249 0
M  V30 6437 C 595.262 5.73389 1.44842 0
M  V30 6438 C 594.624 6.94899 1.15304 0
M  V30 6439 H 590.723 0.571951 0.533288 0
M  V30 6440 H 593.307 1.76859 0.814179 0
M  V30 6441 H 591.478 2.01143 3.32259 0
M  V30 6442 H 593.21 2.25618 3.35974 0
M  V30 6443 H 589.965 4.05618 2.44482 0
M  V30 6444 H 590.389 6.56049 1.67119 0
M  V30 6445 H 595.031 3.68494 2.07298 0
M  V30 6446 H 592.749 8.01445 1.035 0
M  V30 6447 H 596.335 5.65886 1.35146 0
M  V30 6448 H 595.215 7.79679 0.840854 0
M  V30 6449 N 592.718 -0.936591 1.26751 0
M  V30 6450 C 593.946 -1.71758 1.15355 0
M  V30 6451 C 594.361 -1.86549 -0.290683 0
M  V30 6452 O 593.718 -1.37616 -1.19868 0
M  V30 6453 C 593.769 -3.12193 1.82258 0
M  V30 6454 O 593.49 -2.98105 3.21038 0
M  V30 6455 C 594.991 -4.06485 1.76875 0
M  V30 6456 H 592.211 -0.537636 0.401483 0
M  V30 6457 H 594.755 -1.17382 1.67457 0
M  V30 6458 H 592.91 -3.63456 1.34083 0
M  V30 6459 H 593.324 -3.86824 3.54214 0
M  V30 6460 H 594.798 -5.02569 2.28316 0
M  V30 6461 H 595.275 -4.32986 0.736216 0
M  V30 6462 H 595.881 -3.61144 2.24623 0
M  V30 6463 N 594.196 -1.08629 -1.14182 0
M  V30 6464 C 595.159 -0.722027 -2.1753 0
M  V30 6465 C 596.159 0.244305 -1.58933 0
M  V30 6466 O 597.349 0.0235545 -1.74184 0
M  V30 6467 C 594.481 -0.0663966 -3.40835 0
M  V30 6468 H 595.674 -1.63719 -2.51269 0
M  V30 6469 H 593.227 -0.884442 -1.28869 0
M  V30 6470 H 593.962 0.860389 -3.12678 0
M  V30 6471 H 593.747 -0.761598 -3.84632 0
M  V30 6472 H 595.237 0.173346 -4.1724 0
M  V30 6473 N 595.674 1.31259 -0.872281 0
M  V30 6474 C 597.085 1.78822 -0.536617 0
M  V30 6475 C 597.436 1.71855 0.946594 0
M  V30 6476 O 596.561 1.28769 1.73918 0
M  V30 6477 C 597.156 3.24698 -0.967294 0
M  V30 6478 C 595.715 3.70147 -0.683251 0
M  V30 6479 C 594.862 2.51994 -1.15733 0
M  V30 6480 H 597.813 1.18308 -1.05777 0
M  V30 6481 H 597.834 3.79386 -0.290929 0
M  V30 6482 H 597.346 3.29737 -2.04683 0
M  V30 6483 H 595.447 3.70607 0.384825 0
M  V30 6484 H 595.56 4.62183 -1.2619 0
M  V30 6485 H 593.924 2.48078 -0.577024 0
M  V30 6486 H 594.707 2.59778 -2.24434 0
M  V30 6487 N 597.152 0.631951 1.44375 0
M  V30 6488 C 598.062 -0.073674 2.34484 0
M  V30 6489 C 599.078 -0.834825 1.52665 0
M  V30 6490 O 600.254 -0.786902 1.85391 0
M  V30 6491 C 597.319 -1.04247 3.30656 0
M  V30 6492 C 596.38 -0.280602 4.28382 0
M  V30 6493 C 595.613 -1.20325 5.19959 0
M  V30 6494 O 595.836 -2.44199 5.15484 0
M  V30 6495 O 594.77 -0.687128 5.97965 0
M  V30 6496 H 598.596 0.667477 2.96274 0
M  V30 6497 H 596.181 0.392144 1.44162 0
M  V30 6498 H 598.063 -1.59981 3.89851 0
M  V30 6499 H 596.738 -1.76422 2.71398 0
M  V30 6500 H 595.645 0.319804 3.72731 0
M  V30 6501 H 596.978 0.401144 4.90563 0
M  V30 6502 N 598.631 -1.53133 0.372548 0
M  V30 6503 C 599.594 -2.24569 -0.458389 0
M  V30 6504 C 600.594 -1.25603 -1.00402 0
M  V30 6505 O 601.784 -1.49827 -0.888672 0
M  V30 6506 C 598.916 -2.98783 -1.6414 0
M  V30 6507 H 600.109 -2.99436 0.166799 0
M  V30 6508 H 597.662 -1.55805 0.124357 0
M  V30 6509 H 598.397 -2.28176 -2.30448 0
M  V30 6510 H 598.182 -3.71404 -1.25704 0
M  V30 6511 H 599.672 -3.53068 -2.23008 0
M  V30 6512 N 600.109 -0.101901 -1.5727 0
M  V30 6513 C 601.358 0.559922 -1.93772 0
M  V30 6514 C 601.671 1.68913 -0.98629 0
M  V30 6515 O 602.877 2.41256 -1.24529 0
M  V30 6516 C 601.333 1.04739 -3.44322 0
M  V30 6517 C 600.941 -0.05243 -4.47969 0
M  V30 6518 C 602.685 1.68157 -3.89774 0
M  V30 6519 C 600.592 0.450781 -5.8968 0
M  V30 6520 H 599.522 0.212931 -0.723309 0
M  V30 6521 H 602.173 -0.179001 -1.82625 0
M  V30 6522 H 600.555 1.84021 -3.50645 0
M  V30 6523 H 601.729 -0.828157 -4.53297 0
M  V30 6524 H 600.044 -0.592202 -4.12167 0
M  V30 6525 H 602.641 2.0689 -4.93052 0
M  V30 6526 H 602.984 2.55338 -3.28798 0
M  V30 6527 H 603.517 0.954453 -3.8618 0
M  V30 6528 H 600.256 -0.38458 -6.54371 0
M  V30 6529 H 599.776 1.19336 -5.87809 0
M  V30 6530 H 601.455 0.917555 -6.40461 0
M  V30 6531 N 601.587 1.56661 0.17182 0
M  V30 6532 C 602.537 1.92781 1.21736 0
M  V30 6533 C 603.521 0.796065 1.39827 0
M  V30 6534 O 604.713 1.05924 1.41806 0
M  V30 6535 C 601.842 2.29079 2.55691 0
M  V30 6536 C 600.928 3.48765 2.41296 0
M  V30 6537 N 601.319 4.66022 1.96614 0
M  V30 6538 C 599.617 3.53362 2.72124 0
M  V30 6539 C 600.318 5.48159 1.94669 0
M  V30 6540 N 599.294 4.89189 2.37054 0
M  V30 6541 H 603.096 2.80926 0.863592 0
M  V30 6542 H 600.61 1.57889 0.380096 0
M  V30 6543 H 602.607 2.5315 3.31241 0
M  V30 6544 H 601.267 1.42272 2.91871 0
M  V30 6545 H 602.278 4.9025 1.66959 0
M  V30 6546 H 598.955 2.77033 3.12345 0
M  V30 6547 H 600.345 6.52121 1.61826 0
M  V30 6548 N 603.065 -0.440357 1.51323 0
M  V30 6549 C 604.312 -1.19004 1.63842 0
M  V30 6550 C 604.64 -1.91266 0.35321 0
M  V30 6551 O 603.895 -1.84143 -0.662565 0
M  V30 6552 C 604.194 -2.2339 2.78984 0
M  V30 6553 C 603.86 -1.68162 4.18369 0
M  V30 6554 C 602.522 -1.52823 4.56288 0
M  V30 6555 C 604.874 -1.27524 5.05358 0
M  V30 6556 C 602.202 -0.953157 5.78906 0
M  V30 6557 C 604.554 -0.714474 6.28552 0
M  V30 6558 C 603.218 -0.547961 6.65247 0
M  V30 6559 H 602.488 -0.435468 0.59954 0
M  V30 6560 H 605.135 -0.481538 1.85347 0
M  V30 6561 H 603.44 -3.00267 2.51688 0
M  V30 6562 H 605.137 -2.81211 2.85869 0
M  V30 6563 H 601.727 -1.81077 3.8847 0
M  V30 6564 H 605.911 -1.38197 4.76671 0
M  V30 6565 H 601.167 -0.811882 6.05986 0
M  V30 6566 H 605.341 -0.391059 6.95301 0
M  V30 6567 H 602.968 -0.100222 7.60134 0
M  V30 6568 N 604.543 -1.41418 -0.695603 0
M  V30 6569 C 605.791 -1.40496 -1.45277 0
M  V30 6570 C 606.112 -0.0149538 -1.94994 0
M  V30 6571 O 605.382 0.9432 -1.71699 0
M  V30 6572 H 603.962 -0.517147 -0.539044 0
M  V30 6573 H 606.624 -1.76656 -0.823321 0
M  V30 6574 H 605.72 -2.09214 -2.31595 0
M  V30 6575 N 606.021 0.929856 -1.27246 0
M  V30 6576 C 607.267 1.6798 -1.13625 0
M  V30 6577 C 607.6 1.91586 0.317589 0
M  V30 6578 O 606.875 1.50467 1.23247 0
M  V30 6579 C 607.158 3.04766 -1.91806 0
M  V30 6580 C 607.011 2.88415 -3.45162 0
M  V30 6581 C 608.33 4.05063 -1.72082 0
M  V30 6582 H 605.449 0.609632 -0.414147 0
M  V30 6583 H 608.091 1.0792 -1.56376 0
M  V30 6584 H 606.241 3.56034 -1.55474 0
M  V30 6585 H 607.913 2.44282 -3.91311 0
M  V30 6586 H 606.156 2.23802 -3.71611 0
M  V30 6587 H 606.827 3.85482 -3.95105 0
M  V30 6588 H 609.303 3.62798 -2.03757 0
M  V30 6589 H 608.179 4.98765 -2.29182 0
M  V30 6590 H 608.44 4.37021 -0.668206 0
M  V30 6591 N 607.499 1.09233 1.13605 0
M  V30 6592 C 608.746 0.827159 1.84836 0
M  V30 6593 C 609.074 -0.647199 1.83416 0
M  V30 6594 O 608.329 -1.49228 1.26608 0
M  V30 6595 C 608.628 1.305 3.32723 0
M  V30 6596 C 608.294 2.78864 3.54325 0
M  V30 6597 C 606.956 3.19382 3.59928 0
M  V30 6598 C 609.308 3.74532 3.62457 0
M  V30 6599 C 606.636 4.54346 3.71196 0
M  V30 6600 C 608.988 5.09283 3.75252 0
M  V30 6601 C 607.652 5.49394 3.79108 0
M  V30 6602 H 606.922 0.302679 0.676363 0
M  V30 6603 H 609.569 1.36676 1.34134 0
M  V30 6604 H 607.874 0.68517 3.85762 0
M  V30 6605 H 609.571 1.07648 3.86281 0
M  V30 6606 H 606.161 2.46507 3.50617 0
M  V30 6607 H 610.345 3.44343 3.57409 0
M  V30 6608 H 605.601 4.84864 3.72447 0
M  V30 6609 H 609.775 5.83269 3.80487 0
M  V30 6610 H 607.402 6.5397 3.87591 0
M  V30 6611 N 608.977 -1.30795 0.87923 0
M  V30 6612 C 610.205 -2.00527 0.509548 0
M  V30 6613 C 610.62 -1.65944 -0.90045 0
M  V30 6614 O 609.977 -0.893525 -1.5913 0
M  V30 6615 C 610.028 -3.55276 0.667943 0
M  V30 6616 O 609.749 -3.88625 2.02242 0
M  V30 6617 C 611.25 -4.4228 0.300494 0
M  V30 6618 H 608.47 -0.641261 0.197549 0
M  V30 6619 H 611.014 -1.66813 1.18295 0
M  V30 6620 H 609.169 -3.87377 0.0419843 0
M  V30 6621 H 609.583 -4.83334 2.03688 0
M  V30 6622 H 611.057 -5.50061 0.462242 0
M  V30 6623 H 611.534 -4.32556 -0.76106 0
M  V30 6624 H 612.14 -4.15613 0.902536 0
M  V30 6625 N 610.455 -0.639598 -1.44038 0
M  V30 6626 C 611.704 -0.144885 -2.01179 0
M  V30 6627 C 612.017 1.24372 -1.50967 0
M  V30 6628 O 613.223 1.83291 -2.00292 0
M  V30 6629 C 611.679 -0.208244 -3.59297 0
M  V30 6630 C 611.287 -1.59869 -4.18504 0
M  V30 6631 C 613.031 0.229568 -4.23879 0
M  V30 6632 C 610.938 -1.61671 -5.68873 0
M  V30 6633 H 609.868 -0.0504005 -0.752314 0
M  V30 6634 H 612.519 -0.799639 -1.65161 0
M  V30 6635 H 610.901 0.513767 -3.92653 0
M  V30 6636 H 612.075 -2.34496 -3.96671 0
M  V30 6637 H 610.39 -1.98131 -3.66242 0
M  V30 6638 H 612.987 0.235758 -5.3418 0
M  V30 6639 H 613.33 1.25848 -3.96822 0
M  V30 6640 H 613.863 -0.440233 -3.95357 0
M  V30 6641 H 610.602 -2.62427 -6.00677 0
M  V30 6642 H 610.122 -0.913489 -5.92803 0
M  V30 6643 H 611.801 -1.35439 -6.32665 0
M  V30 6644 N 611.933 1.52934 -0.380664 0
M  V30 6645 C 612.88 2.26197 0.458641 0
M  V30 6646 C 613.85 1.27462 1.06502 0
M  V30 6647 O 615.035 1.56274 1.09467 0
M  V30 6648 C 612.175 3.06571 1.58456 0
M  V30 6649 C 611.288 4.20222 1.00189 0
M  V30 6650 C 610.423 4.88007 2.09815 0
M  V30 6651 C 609.462 5.93665 1.49092 0
M  V30 6652 N 608.599 6.55081 2.52613 0
M  V30 6653 H 613.439 2.975 -0.172595 0
M  V30 6654 H 610.976 1.4678 -0.0969426 0
M  V30 6655 H 612.934 3.51455 2.24801 0
M  V30 6656 H 611.564 2.37494 2.18624 0
M  V30 6657 H 610.616 3.79714 0.228292 0
M  V30 6658 H 611.928 4.96102 0.518064 0
M  V30 6659 H 611.082 5.36151 2.83948 0
M  V30 6660 H 609.821 4.11632 2.61555 0
M  V30 6661 H 608.826 5.44868 0.7348 0
M  V30 6662 H 610.051 6.71969 0.981582 0
M  V30 6663 H 607.997 5.8155 3.03538 0
M  V30 6664 H 607.914 7.26548 2.08961 0
M  V30 6665 H 609.182 7.07871 3.26402 0
M  V30 6666 N 613.412 0.11024 1.57214 0
M  V30 6667 C 614.375 -0.828808 2.1369 0
M  V30 6668 C 615.375 -1.20059 1.06969 0
M  V30 6669 O 616.565 -1.12754 1.32786 0
M  V30 6670 C 613.697 -2.11959 2.66994 0
M  V30 6671 H 614.89 -0.338146 2.97988 0
M  V30 6672 H 612.443 -0.138913 1.55681 0
M  V30 6673 H 613.178 -2.65476 1.8626 0
M  V30 6674 H 612.963 -1.86258 3.45037 0
M  V30 6675 H 614.453 -2.79105 3.10629 0
M  V30 6676 N 614.89 -1.56749 -0.16351 0
M  V30 6677 C 616.167 -1.73321 -0.906599 0
M  V30 6678 C 616.547 -0.673779 -2.00059 0
M  V30 6679 O 615.895 0.310121 -2.26386 0
M  V30 6680 C 616.105 -3.168 -1.46419 0
M  V30 6681 C 617.453 -3.77993 -1.93407 0
M  V30 6682 O 618.477 -3.20127 -1.56196 0
M  V30 6683 O 617.336 -4.79615 -2.61976 0
M  V30 6684 H 614.43 -0.708073 -0.427272 0
M  V30 6685 H 616.976 -1.69029 -0.150727 0
M  V30 6686 H 615.748 -3.85396 -0.677189 0
M  V30 6687 H 615.371 -3.2545 -2.28403 0
M  V30 6688 N 616.368 0.432326 -1.51554 0
M  V30 6689 C 617.614 1.18309 -1.64714 0
M  V30 6690 C 617.947 1.90745 -0.364696 0
M  V30 6691 O 617.222 1.8381 0.635936 0
M  V30 6692 C 617.505 2.1961 -2.85383 0
M  V30 6693 C 617.358 1.51223 -4.23617 0
M  V30 6694 C 618.677 3.20538 -3.01569 0
M  V30 6695 H 615.796 0.428751 -0.599451 0
M  V30 6696 H 618.438 0.471689 -1.84052 0
M  V30 6697 H 616.588 2.8028 -2.69027 0
M  V30 6698 H 618.26 0.938516 -4.51652 0
M  V30 6699 H 616.503 0.814501 -4.26085 0
M  V30 6700 H 617.174 2.25024 -5.04052 0
M  V30 6701 H 619.65 2.69926 -3.16669 0
M  V30 6702 H 618.526 3.88706 -3.87555 0
M  V30 6703 H 618.787 3.86933 -2.13859 0
M  V30 6704 N 617.846 1.41785 0.688094 0
M  V30 6705 C 619.092 1.42753 1.4489 0
M  V30 6706 C 619.447 0.0384235 1.92362 0
M  V30 6707 O 618.74 -0.937066 1.67122 0
M  V30 6708 C 618.934 2.37532 2.67046 0
M  V30 6709 C 618.763 3.85521 2.31525 0
M  V30 6710 C 617.533 4.54152 2.21527 0
M  V30 6711 C 619.731 4.76299 1.94019 0
M  V30 6712 N 617.713 5.87233 1.78969 0
M  V30 6713 C 619.084 5.98386 1.62279 0
M  V30 6714 C 621.139 4.63877 1.80895 0
M  V30 6715 C 619.842 7.09433 1.18732 0
M  V30 6716 C 621.868 5.74893 1.38752 0
M  V30 6717 C 621.23 6.96083 1.07927 0
M  V30 6718 H 617.329 0.577575 0.527192 0
M  V30 6719 H 619.913 1.77713 0.795375 0
M  V30 6720 H 618.084 2.04656 3.30107 0
M  V30 6721 H 619.816 2.29169 3.33562 0
M  V30 6722 H 616.571 4.08188 2.40166 0
M  V30 6723 H 616.995 6.57785 1.60151 0
M  V30 6724 H 621.637 3.70671 2.03378 0
M  V30 6725 H 619.355 8.02497 0.949937 0
M  V30 6726 H 622.941 5.67287 1.29136 0
M  V30 6727 H 621.821 7.80527 0.758111 0
M  V30 6728 N 619.324 -0.923095 1.27737 0
M  V30 6729 C 620.549 -1.71054 1.17283 0
M  V30 6730 C 620.974 -1.86208 -0.266153 0
M  V30 6731 O 620.332 -1.36545 -1.1927 0
M  V30 6732 C 620.38 -3.0854 1.86642 0
M  V30 6733 O 619.484 -3.95528 1.16752 0
M  V30 6734 H 618.825 -0.524136 0.407649 0
M  V30 6735 H 621.355 -1.15487 1.6889 0
M  V30 6736 H 621.365 -3.58828 1.94182 0
M  V30 6737 H 620.04 -2.96828 2.91317 0
M  V30 6738 H 618.617 -3.53967 1.17312 0
M  V30 6739 N 620.802 -1.09834 -1.13024 0
M  V30 6740 C 622.049 -0.83695 -1.84395 0
M  V30 6741 C 622.377 0.637463 -1.83757 0
M  V30 6742 O 621.632 1.48554 -1.27398 0
M  V30 6743 C 621.931 -1.32263 -3.32026 0
M  V30 6744 C 621.597 -2.80739 -3.52841 0
M  V30 6745 C 620.259 -3.21286 -3.5823 0
M  V30 6746 C 622.611 -3.76449 -3.60466 0
M  V30 6747 C 619.939 -4.56308 -3.68781 0
M  V30 6748 C 622.291 -5.11266 -3.72546 0
M  V30 6749 C 620.955 -5.51397 -3.76189 0
M  V30 6750 H 620.225 -0.306262 -0.674748 0
M  V30 6751 H 622.872 -1.37385 -1.33408 0
M  V30 6752 H 621.177 -0.705618 -3.85394 0
M  V30 6753 H 622.874 -1.09695 -3.85705 0
M  V30 6754 H 619.464 -2.48363 -3.49305 0
M  V30 6755 H 623.648 -3.46234 -3.55578 0
M  V30 6756 H 618.904 -4.86832 -3.69871 0
M  V30 6757 H 623.078 -5.85279 -3.77388 0
M  V30 6758 H 620.705 -6.56017 -3.84117 0
M  V30 6759 N 622.28 1.30327 -0.886154 0
M  V30 6760 C 623.528 1.9571 -0.504195 0
M  V30 6761 C 623.849 1.70294 0.950003 0
M  V30 6762 O 623.119 1.02718 1.66811 0
M  V30 6763 H 621.699 0.72412 -0.183465 0
M  V30 6764 H 624.361 1.58835 -1.12949 0
M  V30 6765 H 623.457 3.04704 -0.675431 0
M  V30 6766 N 623.758 0.647228 1.43697 0
M  V30 6767 C 625.004 0.158422 2.0218 0
M  V30 6768 C 625.337 -1.22233 1.50907 0
M  V30 6769 O 624.612 -1.81478 0.699702 0
M  V30 6770 C 624.895 0.1627 3.59732 0
M  V30 6771 C 624.748 1.57694 4.21251 0
M  V30 6772 C 626.067 -0.504138 4.37203 0
M  V30 6773 H 623.186 0.059042 0.734631 0
M  V30 6774 H 625.828 0.826772 1.71069 0
M  V30 6775 H 623.978 -0.406414 3.86368 0
M  V30 6776 H 625.65 2.19618 4.05667 0
M  V30 6777 H 623.893 2.12603 3.7813 0
M  V30 6778 H 624.564 1.53183 5.3032 0
M  V30 6779 H 627.04 -0.0199841 4.16095 0
M  V30 6780 H 625.916 -0.470394 5.46881 0
M  V30 6781 H 626.177 -1.57726 4.13007 0
M  V30 6782 N 625.236 -1.5273 0.388769 0
M  V30 6783 C 626.166 -2.29353 -0.438111 0
M  V30 6784 C 627.147 -1.32719 -1.06394 0
M  V30 6785 O 628.332 -1.61612 -1.07681 0
M  V30 6786 C 625.462 -3.09995 -1.56589 0
M  V30 6787 C 624.416 -4.14509 -1.06613 0
M  V30 6788 C 623.742 -4.83372 -2.28594 0
M  V30 6789 C 625.042 -5.22127 -0.134459 0
M  V30 6790 H 626.736 -2.98723 0.201206 0
M  V30 6791 H 624.282 -1.43665 0.0982089 0
M  V30 6792 H 626.235 -3.62357 -2.15118 0
M  V30 6793 H 624.959 -2.38357 -2.23279 0
M  V30 6794 H 623.618 -3.63128 -0.503383 0
M  V30 6795 H 623.266 -4.08283 -2.93792 0
M  V30 6796 H 622.966 -5.54012 -1.95817 0
M  V30 6797 H 624.49 -5.38538 -2.87766 0
M  V30 6798 H 625.904 -5.69851 -0.627914 0
M  V30 6799 H 624.301 -6.00011 0.103534 0
M  V30 6800 H 625.371 -4.77971 0.816798 0
M  V30 6801 N 626.714 -0.118576 -1.57153 0
M  V30 6802 C 627.644 0.828436 -2.1831 0
M  V30 6803 C 628.625 1.27758 -1.12303 0
M  V30 6804 O 629.81 1.34026 -1.40537 0
M  V30 6805 C 626.94 2.07876 -2.78217 0
M  V30 6806 C 625.894 1.76742 -3.89803 0
M  V30 6807 C 625.22 3.08801 -4.36516 0
M  V30 6808 C 626.52 1.03606 -5.11921 0
M  V30 6809 H 628.214 0.318824 -2.97698 0
M  V30 6810 H 625.76 0.151911 -1.43196 0
M  V30 6811 H 627.713 2.74584 -3.19659 0
M  V30 6812 H 626.437 2.61161 -1.96118 0
M  V30 6813 H 625.096 1.12424 -3.48936 0
M  V30 6814 H 624.744 3.6002 -3.51276 0
M  V30 6815 H 624.444 2.88743 -5.11763 0
M  V30 6816 H 625.968 3.76627 -4.80608 0
M  V30 6817 H 627.382 1.60467 -5.50385 0
M  V30 6818 H 625.779 0.936454 -5.92748 0
M  V30 6819 H 626.849 0.0227421 -4.84895 0
M  V30 6820 N 628.193 1.56834 0.155195 0
M  V30 6821 C 629.126 1.9278 1.22111 0
M  V30 6822 C 630.104 0.792588 1.41975 0
M  V30 6823 O 631.288 1.04743 1.5672 0
M  V30 6824 C 628.415 2.19273 2.58142 0
M  V30 6825 C 627.461 3.41932 2.54921 0
M  V30 6826 S 628.294 4.95769 2.02418 0
M  V30 6827 C 629.45 5.25375 3.40194 0
M  V30 6828 H 629.683 2.82889 0.914393 0
M  V30 6829 H 627.216 1.50133 0.360461 0
M  V30 6830 H 629.174 2.35217 3.36427 0
M  V30 6831 H 627.835 1.29843 2.86007 0
M  V30 6832 H 627.028 3.57721 3.55038 0
M  V30 6833 H 626.63 3.25188 1.8474 0
M  V30 6834 H 628.922 5.1834 4.36268 0
M  V30 6835 H 629.865 6.26889 3.29266 0
M  V30 6836 H 630.273 4.52906 3.36951 0
M  V30 6837 N 629.671 -0.424282 1.51781 0
M  V30 6838 C 630.581 -1.54087 1.76902 0
M  V30 6839 C 631.597 -1.61249 0.653826 0
M  V30 6840 O 632.773 -1.78247 0.937552 0
M  V30 6841 C 629.838 -2.8996 1.90063 0
M  V30 6842 C 628.899 -2.92809 3.13945 0
M  V30 6843 C 628.132 -4.22201 3.26469 0
M  V30 6844 O 628.355 -5.15286 2.44616 0
M  V30 6845 O 627.289 -4.31599 4.1953 0
M  V30 6846 H 631.115 -1.358 2.71647 0
M  V30 6847 H 628.7 -0.608618 1.36441 0
M  V30 6848 H 630.582 -3.70575 2.0063 0
M  V30 6849 H 629.257 -3.08347 0.985067 0
M  V30 6850 H 628.164 -2.11102 3.08847 0
M  V30 6851 H 629.497 -2.79369 4.05233 0
M  V30 6852 N 631.149 -1.42148 -0.680565 0
M  V30 6853 C 632.395 -1.42521 -1.44277 0
M  V30 6854 C 632.728 -0.0393718 -1.9416 0
M  V30 6855 O 632.003 0.935425 -1.70529 0
M  V30 6856 C 632.286 -2.44475 -2.64394 0
M  V30 6857 C 632.139 -3.92226 -2.20179 0
M  V30 6858 C 633.458 -2.43491 -3.66606 0
M  V30 6859 H 630.577 -0.518985 -0.523282 0
M  V30 6860 H 633.219 -1.73524 -0.773914 0
M  V30 6861 H 631.369 -2.18168 -3.21458 0
M  V30 6862 H 633.041 -4.29493 -1.68327 0
M  V30 6863 H 631.284 -4.0637 -1.5181 0
M  V30 6864 H 631.955 -4.59133 -3.06433 0
M  V30 6865 H 634.431 -2.66872 -3.19247 0
M  V30 6866 H 633.307 -3.16816 -4.4824 0
M  V30 6867 H 633.568 -1.45881 -4.17338 0
M  V30 6868 N 632.627 0.916307 -1.28225 0
M  V30 6869 C 633.873 1.66765 -1.154 0
M  V30 6870 C 634.206 1.91912 0.297251 0
M  V30 6871 O 633.481 1.51766 1.21644 0
M  V30 6872 C 633.764 3.02715 -1.95028 0
M  V30 6873 C 633.617 2.84738 -3.48201 0
M  V30 6874 C 634.936 4.03215 -1.76369 0
M  V30 6875 H 632.055 0.605205 -0.42059 0
M  V30 6876 H 634.697 1.06255 -1.57512 0
M  V30 6877 H 632.847 3.54365 -1.59242 0
M  V30 6878 H 634.519 2.40118 -3.9388 0
M  V30 6879 H 632.762 2.19848 -3.73964 0
M  V30 6880 H 633.433 3.8127 -3.99171 0
M  V30 6881 H 635.909 3.60617 -2.07593 0
M  V30 6882 H 634.785 4.96306 -2.34459 0
M  V30 6883 H 635.046 4.36288 -0.71452 0
M  V30 6884 N 634.105 1.10431 1.1244 0
M  V30 6885 C 635.333 0.868872 1.87772 0
M  V30 6886 C 635.748 -0.580645 1.7965 0
M  V30 6887 O 635.105 -1.40031 1.17036 0
M  V30 6888 C 635.156 1.30855 3.36986 0
M  V30 6889 O 634.877 2.70123 3.44914 0
M  V30 6890 C 636.378 1.107 4.29256 0
M  V30 6891 H 633.598 0.311868 0.59412 0
M  V30 6892 H 636.142 1.46897 1.42273 0
M  V30 6893 H 634.297 0.752126 3.80029 0
M  V30 6894 H 634.711 2.88923 4.37748 0
M  V30 6895 H 636.185 1.46378 5.32238 0
M  V30 6896 H 636.662 0.0456228 4.39176 0
M  V30 6897 H 637.268 1.64988 3.91994 0
M  V30 6898 N 635.583 -1.29855 0.893053 0
M  V30 6899 C 636.813 -1.99686 0.530019 0
M  V30 6900 C 637.221 -1.67066 -0.888012 0
M  V30 6901 O 636.564 -0.908366 -1.5967 0
M  V30 6902 C 636.626 -3.53855 0.63457 0
M  V30 6903 C 636.29 -4.10013 2.01837 0
M  V30 6904 C 637.287 -4.25406 2.98874 0
M  V30 6905 C 634.972 -4.45202 2.32595 0
M  V30 6906 C 636.966 -4.7521 4.24799 0
M  V30 6907 C 634.653 -4.94704 3.58763 0
M  V30 6908 C 635.651 -5.09662 4.5468 0
M  V30 6909 O 635.339 -5.58093 5.78608 0
M  V30 6910 H 635.071 -0.644913 0.20264 0
M  V30 6911 H 637.625 -1.66518 1.20253 0
M  V30 6912 H 635.855 -3.86583 -0.0949477 0
M  V30 6913 H 637.544 -4.04922 0.281648 0
M  V30 6914 H 638.31 -3.98515 2.76425 0
M  V30 6915 H 634.189 -4.32822 1.58701 0
M  V30 6916 H 637.733 -4.86801 4.99671 0
M  V30 6917 H 633.63 -5.21032 3.81046 0
M  V30 6918 H 634.398 -5.7642 5.81104 0
M  V30 6919 N 637.061 -0.65484 -1.43351 0
M  V30 6920 C 638.309 -0.168559 -2.01396 0
M  V30 6921 C 638.63 1.22235 -1.51933 0
M  V30 6922 O 637.9 1.81685 -0.732627 0
M  V30 6923 H 636.48 -0.0593244 -0.744641 0
M  V30 6924 H 639.142 -0.846871 -1.75539 0
M  V30 6925 H 638.238 -0.154428 -3.11718 0
M  V30 6926 N 638.539 1.52521 -0.396863 0
M  V30 6927 C 639.955 1.5953 -0.0471659 0
M  V30 6928 C 640.155 1.41044 1.43906 0
M  V30 6929 O 639.211 1.23122 2.20448 0
M  V30 6930 C 640.524 2.95972 -0.531113 0
M  V30 6931 C 642.072 3.09172 -0.488024 0
M  V30 6932 C 642.547 4.48075 -0.948281 0
M  V30 6933 N 644.038 4.54281 -0.9046 0
M  V30 6934 C 644.773 5.60007 -1.23205 0
M  V30 6935 N 644.269 6.73343 -1.63036 0
M  V30 6936 N 646.062 5.50151 -1.15282 0
M  V30 6937 H 638.213 1.62786 -1.36435 0
M  V30 6938 H 640.476 0.76514 -0.559701 0
M  V30 6939 H 640.182 3.14741 -1.56942 0
M  V30 6940 H 640.056 3.77143 0.0657922 0
M  V30 6941 H 642.443 2.90095 0.541211 0
M  V30 6942 H 642.524 2.29937 -1.12083 0
M  V30 6943 H 642.168 4.67894 -1.97578 0
M  V30 6944 H 642.098 5.25788 -0.292412 0
M  V30 6945 H 644.589 3.72918 -0.6116 0
M  V30 6946 H 644.902 7.49992 -1.86365 0
M  V30 6947 H 643.247 6.74655 -1.66929 0
M  V30 6948 H 646.438 4.6049 -0.840602 0
M  V30 6949 H 646.611 6.32444 -1.41133 0
M  V30 6950 N 640.017 0.126909 1.57088 0
M  V30 6951 C 641.263 -0.529952 1.95753 0
M  V30 6952 C 641.596 -1.65823 1.01077 0
M  V30 6953 O 640.871 -1.94437 0.0494162 0
M  V30 6954 C 641.154 -1.05517 3.44294 0
M  V30 6955 C 641.007 0.0702253 4.49745 0
M  V30 6956 C 642.326 -1.9435 3.94862 0
M  V30 6957 H 639.445 -0.191168 0.711775 0
M  V30 6958 H 642.087 0.204071 1.88901 0
M  V30 6959 H 640.237 -1.68069 3.50264 0
M  V30 6960 H 641.909 0.705834 4.55868 0
M  V30 6961 H 640.152 0.732259 4.27575 0
M  V30 6962 H 640.823 -0.338642 5.5096 0
M  V30 6963 H 643.299 -1.41658 3.91244 0
M  V30 6964 H 642.175 -2.28015 4.993 0
M  V30 6965 H 642.436 -2.87299 3.36024 0
M  V30 6966 N 641.495 -1.56914 -0.146875 0
M  V30 6967 C 642.906 -1.72799 -0.706928 0
M  V30 6968 C 643.257 -0.741329 -1.81656 0
M  V30 6969 O 642.382 0.0920162 -2.16204 0
M  V30 6970 C 642.977 -3.13317 -1.28911 0
M  V30 6971 C 641.536 -3.30803 -1.79573 0
M  V30 6972 C 640.683 -2.68725 -0.684252 0
M  V30 6973 H 643.634 -1.58504 0.0787931 0
M  V30 6974 H 643.655 -3.13323 -2.15891 0
M  V30 6975 H 643.167 -3.85104 -0.481284 0
M  V30 6976 H 641.268 -2.64012 -2.62923 0
M  V30 6977 H 641.381 -4.38754 -1.92436 0
M  V30 6978 H 639.745 -2.29196 -1.11091 0
M  V30 6979 H 640.528 -3.43117 0.112134 0
M  V30 6980 N 642.974 0.416227 -1.52004 0
M  V30 6981 C 644.204 1.18401 -1.69307 0
M  V30 6982 C 644.612 1.84943 -0.399072 0
M  V30 6983 O 643.955 1.72406 0.634177 0
M  V30 6984 C 644.017 2.29465 -2.76742 0
M  V30 6985 C 643.681 1.83117 -4.18709 0
M  V30 6986 C 644.678 1.32286 -5.02789 0
M  V30 6987 C 642.363 1.90167 -4.64911 0
M  V30 6988 C 644.357 0.891178 -6.31139 0
M  V30 6989 C 642.044 1.4661 -5.93253 0
M  V30 6990 C 643.042 0.961696 -6.76196 0
M  V30 6991 O 642.73 0.532388 -8.02135 0
M  V30 6992 H 642.462 0.362098 -0.570843 0
M  V30 6993 H 645.016 0.496764 -1.99302 0
M  V30 6994 H 643.246 3.01531 -2.42107 0
M  V30 6995 H 644.935 2.91252 -2.82713 0
M  V30 6996 H 645.701 1.26218 -4.68288 0
M  V30 6997 H 641.58 2.28371 -4.00459 0
M  V30 6998 H 645.124 0.496788 -6.95829 0
M  V30 6999 H 641.021 1.52355 -6.27263 0
M  V30 7000 H 641.789 0.656339 -8.15864 0
M  V30 7001 N 644.452 1.42507 0.673017 0
M  V30 7002 C 645.863 1.38347 1.25367 0
M  V30 7003 C 646.214 0.0776327 1.96046 0
M  V30 7004 O 645.339 -0.823571 2.00116 0
M  V30 7005 C 645.934 2.506 2.28002 0
M  V30 7006 C 644.493 2.49767 2.81591 0
M  V30 7007 C 643.64 2.293 1.55938 0
M  V30 7008 H 646.591 1.51695 0.466288 0
M  V30 7009 H 646.612 2.20953 3.09774 0
M  V30 7010 H 646.124 3.45627 1.76532 0
M  V30 7011 H 644.225 1.58563 3.37177 0
M  V30 7012 H 644.338 3.46867 3.30485 0
M  V30 7013 H 642.702 1.77594 1.82572 0
M  V30 7014 H 643.485 3.26385 1.06431 0
M  V30 7015 N 645.93 -0.909495 1.28709 0
M  V30 7016 C 647.178 -1.65577 1.15882 0
M  V30 7017 C 647.499 -1.928 -0.292108 0
M  V30 7018 O 646.769 -1.54716 -1.20166 0
M  V30 7019 H 645.349 -0.613714 0.425869 0
M  V30 7020 H 648.011 -1.09108 1.61498 0
M  V30 7021 H 647.107 -2.61634 1.70159 0
M  V30 7022 N 647.408 -1.11026 -1.11852 0
M  V30 7023 C 648.341 -0.708501 -2.16923 0
M  V30 7024 C 649.319 0.293196 -1.59935 0
M  V30 7025 O 650.503 0.190641 -1.87533 0
M  V30 7026 C 647.63 -0.0463705 -3.38668 0
M  V30 7027 C 646.676 -1.01252 -4.14307 0
M  V30 7028 S 647.509 -2.53291 -4.71809 0
M  V30 7029 C 648.665 -1.88366 -5.96883 0
M  V30 7030 H 648.898 -1.59854 -2.50667 0
M  V30 7031 H 646.431 -0.927869 -1.2341 0
M  V30 7032 H 648.389 0.329314 -4.09177 0
M  V30 7033 H 647.05 0.820562 -3.03192 0
M  V30 7034 H 646.243 -0.496596 -5.01548 0
M  V30 7035 H 645.845 -1.33042 -3.49537 0
M  V30 7036 H 648.137 -1.21753 -6.6647 0
M  V30 7037 H 649.08 -2.73588 -6.53112 0
M  V30 7038 H 649.488 -1.34562 -5.48227 0
M  V30 7039 N 648.886 1.2938 -0.899927 0
M  V30 7040 C 650.111 2.00228 -0.540692 0
M  V30 7041 C 650.536 1.66909 0.867359 0
M  V30 7042 O 649.894 0.893824 1.57735 0
M  V30 7043 C 649.942 3.52921 -0.740232 0
M  V30 7044 O 649.046 4.11879 0.207154 0
M  V30 7045 H 648.387 0.629505 -0.211233 0
M  V30 7046 H 650.917 1.6487 -1.21158 0
M  V30 7047 H 650.927 4.0287 -0.644973 0
M  V30 7048 H 649.602 3.76508 -1.76677 0
M  V30 7049 H 648.179 3.72845 0.0643315 0
M  V30 7050 N 650.364 0.662433 1.43002 0
M  V30 7051 C 651.312 -0.035345 2.32573 0
M  V30 7052 C 652.306 -0.803505 1.49131 0
M  V30 7053 O 653.512 -0.712865 1.65282 0
M  V30 7054 H 649.887 -0.0302194 0.751393 0
M  V30 7055 H 651.858 0.737686 2.89138 0
M  V30 7056 C 650.607 -0.981575 3.33557 0
M  V30 7057 H 649.93 -0.399914 3.97795 0
M  V30 7058 H 651.37 -1.43873 3.98844 0
M  V30 7059 C 649.829 -2.08204 2.64863 0
M  V30 7060 O 650.359 -3.16698 2.47113 0
M  V30 7061 N 648.565 -1.85022 2.24088 0
M  V30 7062 H 648.112 -0.967909 2.38724 0
M  V30 7063 H 648.07 -2.58845 1.78457 0
M  V30 7064 N 651.842 -1.52309 0.404946 0
M  V30 7065 C 653.253 -1.86585 -0.0655926 0
M  V30 7066 C 653.604 -1.3239 -1.44801 0
M  V30 7067 O 652.729 -0.6615 -2.06042 0
M  V30 7068 C 653.324 -3.38566 -0.125801 0
M  V30 7069 C 651.883 -3.72497 -0.540666 0
M  V30 7070 C 651.03 -2.75806 0.287487 0
M  V30 7071 H 653.981 -1.45995 0.622185 0
M  V30 7072 H 654.002 -3.68658 -0.941888 0
M  V30 7073 H 653.514 -3.77981 0.880473 0
M  V30 7074 H 651.615 -3.38659 -1.55373 0
M  V30 7075 H 651.728 -4.78234 -0.287956 0
M  V30 7076 H 650.092 -2.53474 -0.249561 0
M  V30 7077 H 650.875 -3.18059 1.29203 0
M  V30 7078 N 653.32 -0.135238 -1.57019 0
M  V30 7079 C 654.23 0.822226 -2.19719 0
M  V30 7080 C 655.246 1.28057 -1.17802 0
M  V30 7081 O 656.422 1.3402 -1.50335 0
M  V30 7082 C 653.487 2.0484 -2.79717 0
M  V30 7083 C 652.548 1.64042 -3.96723 0
M  V30 7084 C 651.781 2.80814 -4.53849 0
M  V30 7085 O 652.004 3.967 -4.0986 0
M  V30 7086 O 650.938 2.56963 -5.44292 0
M  V30 7087 H 654.764 0.318552 -3.02025 0
M  V30 7088 H 652.349 0.0912021 -1.49121 0
M  V30 7089 H 654.231 2.76622 -3.17897 0
M  V30 7090 H 652.906 2.54182 -2.00432 0
M  V30 7091 H 651.813 0.893182 -3.63281 0
M  V30 7092 H 653.146 1.19426 -4.77492 0
M  V30 7093 N 654.798 1.5699 0.138552 0
M  V30 7094 C 656.044 1.84081 0.85099 0
M  V30 7095 C 656.377 0.718107 1.80435 0
M  V30 7096 O 655.652 -0.277633 1.92508 0
M  V30 7097 C 655.935 3.21699 1.61808 0
M  V30 7098 C 655.788 4.44544 0.685633 0
M  V30 7099 C 657.107 3.5664 2.57868 0
M  V30 7100 H 654.226 0.669592 0.307922 0
M  V30 7101 H 656.868 1.89646 0.11588 0
M  V30 7102 H 655.018 3.17086 2.24474 0
M  V30 7103 H 656.69 4.61248 0.0693179 0
M  V30 7104 H 654.933 4.338 -0.00421993 0
M  V30 7105 H 655.604 5.3746 1.25858 0
M  V30 7106 H 658.08 3.61918 2.05316 0
M  V30 7107 H 656.956 4.53946 3.08584 0
M  V30 7108 H 657.217 2.83036 3.39622 0
M  V30 7109 N 656.276 -0.40816 1.52223 0
M  V30 7110 C 657.525 -1.15212 1.65557 0
M  V30 7111 C 657.838 -1.9163 0.392096 0
M  V30 7112 O 659.044 -2.68458 0.405256 0
M  V30 7113 C 657.5 -2.09691 2.92502 0
M  V30 7114 C 657.108 -1.38785 4.25961 0
M  V30 7115 C 658.852 -2.8434 3.152 0
M  V30 7116 C 656.759 -2.31919 5.44029 0
M  V30 7117 H 655.689 -0.433776 0.616729 0
M  V30 7118 H 658.34 -0.4165 1.78711 0
M  V30 7119 H 656.722 -2.8681 2.7305 0
M  V30 7120 H 657.896 -0.670248 4.55899 0
M  V30 7121 H 656.211 -0.761741 4.09373 0
M  V30 7122 H 658.808 -3.54166 4.00587 0
M  V30 7123 H 659.151 -3.47344 2.29473 0
M  V30 7124 H 659.684 -2.14321 3.35129 0
M  V30 7125 H 656.423 -1.7356 6.32105 0
M  V30 7126 H 655.943 -3.0165 5.18428 0
M  V30 7127 H 657.622 -2.92424 5.77146 0
M  V30 7128 N 657.755 -1.42862 -0.66545 0
M  V30 7129 C 659.171 -1.25993 -0.979687 0
M  V30 7130 C 659.371 -0.170831 -2.00775 0
M  V30 7131 O 658.427 0.454827 -2.4837 0
M  V30 7132 C 659.74 -2.62005 -1.47559 0
M  V30 7133 C 661.288 -2.69437 -1.59288 0
M  V30 7134 C 661.763 -4.05838 -2.12272 0
M  V30 7135 N 663.254 -4.0784 -2.19592 0
M  V30 7136 C 663.989 -5.10205 -2.61684 0
M  V30 7137 N 663.485 -6.22949 -3.03161 0
M  V30 7138 N 665.278 -4.9756 -2.61516 0
M  V30 7139 H 657.429 -2.12395 0.0150493 0
M  V30 7140 H 659.692 -0.946355 -0.0558187 0
M  V30 7141 H 659.398 -3.42605 -0.794654 0
M  V30 7142 H 659.272 -2.86566 -2.45275 0
M  V30 7143 H 661.659 -1.89178 -2.26486 0
M  V30 7144 H 661.74 -2.48655 -0.600374 0
M  V30 7145 H 661.384 -4.86559 -1.4568 0
M  V30 7146 H 661.314 -4.23977 -3.12331 0
M  V30 7147 H 663.805 -3.26452 -1.90361 0
M  V30 7148 H 664.118 -6.96899 -3.33993 0
M  V30 7149 H 662.463 -6.2644 -3.00995 0
M  V30 7150 H 665.654 -4.08551 -2.28481 0
M  V30 7151 H 665.827 -5.77468 -2.93999 0
M  V30 7152 N 659.233 0.902656 -1.29189 0
M  V30 7153 C 660.181 2.0278 -1.13943 0
M  V30 7154 C 661.175 1.69308 -0.055787 0
M  V30 7155 O 662.381 1.78707 -0.215371 0
M  V30 7156 H 658.756 0.664595 -0.351877 0
M  V30 7157 H 660.727 2.12778 -2.09208 0
M  V30 7158 C 659.476 3.37657 -0.82966 0
M  V30 7159 H 658.799 3.63913 -1.65551 0
M  V30 7160 H 660.239 4.17078 -0.762998 0
M  V30 7161 C 658.698 3.33648 0.466991 0
M  V30 7162 O 659.228 3.72886 1.49395 0
M  V30 7163 N 657.434 2.86745 0.471761 0
M  V30 7164 H 656.981 2.55009 -0.364406 0
M  V30 7165 H 656.939 2.84446 1.33933 0
M  V30 7166 N 660.711 1.11618 1.11262 0
M  V30 7167 C 661.641 0.79846 2.19424 0
M  V30 7168 C 662.622 -0.234003 1.68483 0
M  V30 7169 O 663.807 -0.0970704 1.93957 0
M  V30 7170 C 660.937 0.242892 3.4645 0
M  V30 7171 C 659.891 1.20744 4.10615 0
M  V30 7172 C 659.217 0.512494 5.32238 0
M  V30 7173 C 660.517 2.55884 4.55325 0
M  V30 7174 H 662.211 1.70286 2.46258 0
M  V30 7175 H 659.757 0.820195 1.18359 0
M  V30 7176 H 661.71 0.00840447 4.21399 0
M  V30 7177 H 660.434 -0.696811 3.1908 0
M  V30 7178 H 659.093 1.42759 3.37662 0
M  V30 7179 H 658.741 -0.432075 5.01141 0
M  V30 7180 H 658.441 1.15583 5.7612 0
M  V30 7181 H 659.965 0.286842 6.09926 0
M  V30 7182 H 661.379 2.37946 5.21588 0
M  V30 7183 H 659.776 3.16216 5.10027 0
M  V30 7184 H 660.846 3.14968 3.68678 0
M  V30 7185 N 662.189 -1.289 0.906776 0
M  V30 7186 C 663.099 -2.31256 0.394707 0
M  V30 7187 C 664.115 -1.66231 -0.514121 0
M  V30 7188 O 665.291 -1.97347 -0.401994 0
M  V30 7189 C 662.356 -3.44792 -0.363191 0
M  V30 7190 C 661.417 -4.25391 0.578012 0
M  V30 7191 C 660.65 -5.33506 -0.143811 0
M  V30 7192 O 660.873 -5.53786 -1.36665 0
M  V30 7193 O 659.807 -5.99673 0.5173 0
M  V30 7194 H 663.633 -2.77051 1.24405 0
M  V30 7195 H 661.218 -1.33466 0.671346 0
M  V30 7196 H 663.1 -4.139 -0.791503 0
M  V30 7197 H 661.775 -3.01093 -1.18848 0
M  V30 7198 H 660.682 -3.58899 1.05558 0
M  V30 7199 H 662.015 -4.72752 1.36992 0
M  V30 7200 N 663.667 -0.670007 -1.42649 0
M  V30 7201 C 665.083 -0.33911 -1.55956 0
M  V30 7202 C 665.283 1.1558 -1.65056 0
M  V30 7203 O 664.339 1.94111 -1.61485 0
M  V30 7204 C 665.652 -1.06522 -2.812 0
M  V30 7205 C 667.2 -1.04708 -2.94966 0
M  V30 7206 C 667.675 -1.75442 -4.23065 0
M  V30 7207 N 669.166 -1.72286 -4.29967 0
M  V30 7208 C 669.901 -2.23877 -5.27889 0
M  V30 7209 N 669.397 -2.83829 -6.31991 0
M  V30 7210 N 671.19 -2.14279 -5.19654 0
M  V30 7211 H 663.341 -1.6399 -1.34986 0
M  V30 7212 H 665.604 -0.690603 -0.649439 0
M  V30 7213 H 665.31 -2.12033 -2.80597 0
M  V30 7214 H 665.184 -0.627398 -3.71946 0
M  V30 7215 H 667.571 -0.000315966 -2.951 0
M  V30 7216 H 667.652 -1.52374 -2.05465 0
M  V30 7217 H 667.296 -2.80084 -4.23693 0
M  V30 7218 H 667.226 -1.25229 -5.11493 0
M  V30 7219 H 669.717 -1.28554 -3.55362 0
M  V30 7220 H 670.03 -3.20827 -7.03057 0
M  V30 7221 H 668.375 -2.87896 -6.32567 0
M  V30 7222 H 671.566 -1.67135 -4.37245 0
M  V30 7223 H 671.739 -2.54792 -5.95806 0
M  V30 7224 N 665.145 1.52092 -0.413018 0
M  V30 7225 C 666.393 2.01456 0.161178 0
M  V30 7226 C 666.714 1.30034 1.45314 0
M  V30 7227 O 665.984 0.427435 1.9118 0
M  V30 7228 H 664.564 0.744376 0.0625526 0
M  V30 7229 H 667.226 1.86974 -0.550151 0
M  V30 7230 H 666.322 3.1008 0.354517 0
M  V30 7231 N 666.623 0.143563 1.56945 0
M  V30 7232 C 667.853 -0.514699 2.00086 0
M  V30 7233 C 668.261 -1.59184 1.0226 0
M  V30 7234 O 667.604 -1.83697 0.0110514 0
M  V30 7235 C 667.666 -1.17778 3.39659 0
M  V30 7236 C 667.33 -0.245657 4.56339 0
M  V30 7237 C 668.327 0.525343 5.17239 0
M  V30 7238 C 666.012 -0.149564 5.02077 0
M  V30 7239 C 668.006 1.37992 6.22284 0
M  V30 7240 C 665.693 0.708621 6.06978 0
M  V30 7241 C 666.691 1.47197 6.6695 0
M  V30 7242 O 666.379 2.31586 7.6982 0
M  V30 7243 H 666.111 -0.138789 0.661599 0
M  V30 7244 H 668.665 0.234098 2.04062 0
M  V30 7245 H 666.895 -1.97415 3.32512 0
M  V30 7246 H 668.584 -1.73542 3.6693 0
M  V30 7247 H 669.35 0.461118 4.82803 0
M  V30 7248 H 665.229 -0.733457 4.55128 0
M  V30 7249 H 668.773 1.97621 6.69023 0
M  V30 7250 H 664.67 0.77415 6.40841 0
M  V30 7251 H 665.438 2.24796 7.87025 0
M  V30 7252 N 668.101 -1.57061 -0.130224 0
M  V30 7253 C 669.517 -1.52103 -0.483413 0
M  V30 7254 C 669.717 -0.854752 -1.82473 0
M  V30 7255 O 668.773 -0.432342 -2.48771 0
M  V30 7256 C 670.086 -2.96872 -0.47825 0
M  V30 7257 C 671.634 -3.07902 -0.562592 0
M  V30 7258 C 672.109 -4.54211 -0.587929 0
M  V30 7259 N 673.6 -4.58621 -0.649684 0
M  V30 7260 C 674.335 -5.69227 -0.690551 0
M  V30 7261 N 673.831 -6.89358 -0.689743 0
M  V30 7262 N 675.624 -5.57304 -0.732708 0
M  V30 7263 H 667.775 -1.98764 0.748779 0
M  V30 7264 H 670.038 -0.907248 0.274965 0
M  V30 7265 H 669.744 -3.48944 0.439444 0
M  V30 7266 H 669.618 -3.53716 -1.31013 0
M  V30 7267 H 672.005 -2.5584 -1.47071 0
M  V30 7268 H 672.086 -2.54073 0.296764 0
M  V30 7269 H 671.73 -5.06915 0.316096 0
M  V30 7270 H 671.66 -5.0584 -1.46401 0
M  V30 7271 H 674.151 -3.72146 -0.656927 0
M  V30 7272 H 674.464 -7.69408 -0.723239 0
M  V30 7273 H 672.809 -6.91884 -0.657347 0
M  V30 7274 H 676 -4.62363 -0.730625 0
M  V30 7275 H 676.173 -6.43515 -0.76109 0
M  V30 7276 N 669.579 0.400081 -1.52437 0
M  V30 7277 C 670.512 1.50929 -1.7116 0
M  V30 7278 C 671.49 1.52679 -0.559275 0
M  V30 7279 O 672.674 1.71251 -0.787735 0
M  V30 7280 C 669.801 2.89433 -1.75915 0
M  V30 7281 C 668.847 3.05556 -2.97553 0
M  V30 7282 S 669.68 2.77919 -4.57735 0
M  V30 7283 C 670.836 4.18636 -4.6529 0
M  V30 7284 H 671.069 1.3482 -2.64973 0
M  V30 7285 H 668.602 0.592245 -1.4259 0
M  V30 7286 H 670.56 3.69253 -1.7934 0
M  V30 7287 H 669.221 3.02877 -0.832137 0
M  V30 7288 H 668.414 4.0691 -2.97388 0
M  V30 7289 H 668.016 2.33615 -2.92062 0
M  V30 7290 H 670.308 5.12406 -4.43223 0
M  V30 7291 H 671.251 4.23821 -5.67258 0
M  V30 7292 H 671.659 4.04029 -3.94234 0
M  V30 7293 N 671.057 1.43213 0.657864 0
M  V30 7294 C 672.468 1.39669 1.23893 0
M  V30 7295 C 672.819 0.0984217 1.95953 0
M  V30 7296 O 671.944 -0.8023 2.00978 0
M  V30 7297 C 672.539 2.53004 2.25332 0
M  V30 7298 C 671.098 2.5274 2.78926 0
M  V30 7299 C 670.245 2.30941 1.53497 0
M  V30 7300 H 673.196 1.52181 0.450172 0
M  V30 7301 H 673.217 2.24226 3.07413 0
M  V30 7302 H 672.729 3.4748 1.72856 0
M  V30 7303 H 670.83 1.6213 3.35477 0
M  V30 7304 H 670.943 3.50352 3.26787 0
M  V30 7305 H 669.307 1.7952 1.80678 0
M  V30 7306 H 670.09 3.27496 1.02963 0
M  V30 7307 N 672.536 -0.895792 1.29666 0
M  V30 7308 C 673.952 -1.17726 1.07763 0
M  V30 7309 C 674.152 -2.00794 -0.168576 0
M  V30 7310 O 673.208 -2.37213 -0.865244 0
M  V30 7311 C 674.521 -1.89441 2.33522 0
M  V30 7312 C 676.069 -2.02251 2.3888 0
M  V30 7313 C 676.544 -2.77378 3.64452 0
M  V30 7314 N 678.035 -2.8493 3.65198 0
M  V30 7315 C 678.77 -3.43606 4.59045 0
M  V30 7316 N 678.266 -4.03417 5.63228 0
M  V30 7317 N 680.059 -3.41317 4.46608 0
M  V30 7318 H 672.21 -0.341652 2.09634 0
M  V30 7319 H 674.473 -0.213865 0.923561 0
M  V30 7320 H 674.179 -1.35842 3.24407 0
M  V30 7321 H 674.053 -2.89893 2.41334 0
M  V30 7322 H 676.44 -2.55025 1.4848 0
M  V30 7323 H 676.521 -1.0092 2.3505 0
M  V30 7324 H 676.165 -2.25279 4.55205 0
M  V30 7325 H 676.095 -3.79062 3.65541 0
M  V30 7326 H 678.586 -2.42453 2.89871 0
M  V30 7327 H 678.899 -4.46224 6.30955 0
M  V30 7328 H 677.244 -4.01868 5.67033 0
M  V30 7329 H 680.435 -2.93812 3.64407 0
M  V30 7330 H 680.608 -3.86751 5.1993 0
M  V30 7331 N 674.014 -1.12206 -1.10668 0
M  V30 7332 C 675.425 -0.890657 -1.64086 0
M  V30 7333 C 675.776 0.575502 -1.8757 0
M  V30 7334 O 674.901 1.4394 -1.61587 0
M  V30 7335 C 675.496 -1.61029 -2.98085 0
M  V30 7336 C 674.055 -1.4251 -3.48379 0
M  V30 7337 C 673.202 -1.64778 -2.23033 0
M  V30 7338 H 676.153 -1.27718 -0.94201 0
M  V30 7339 H 676.174 -1.05993 -3.65439 0
M  V30 7340 H 675.686 -2.67735 -2.80962 0
M  V30 7341 H 673.787 -0.380497 -3.70652 0
M  V30 7342 H 673.9 -2.17959 -4.26651 0
M  V30 7343 H 672.264 -1.07171 -2.31055 0
M  V30 7344 H 673.047 -2.72776 -2.08443 0
M  V30 7345 N 675.492 1.28418 -0.913599 0
M  V30 7346 C 676.769 1.89977 -0.465619 0
M  V30 7347 C 677.149 1.82813 1.05559 0
M  V30 7348 O 676.497 1.26397 1.90358 0
M  V30 7349 C 676.707 3.34492 -0.995813 0
M  V30 7350 C 678.055 4.11468 -1.04782 0
M  V30 7351 O 679.079 3.43451 -0.944445 0
M  V30 7352 O 677.938 5.33046 -1.20518 0
M  V30 7353 H 675.032 0.813734 -0.147532 0
M  V30 7354 H 677.578 1.36786 -1.00437 0
M  V30 7355 H 676.35 3.33929 -2.03978 0
M  V30 7356 H 675.973 3.95181 -0.437878 0
M  V30 7357 N 676.97 0.677563 1.42291 0
M  V30 7358 C 678.198 0.209459 2.05837 0
M  V30 7359 C 678.613 -1.13444 1.50917 0
M  V30 7360 O 677.97 -1.70529 0.65008 0
M  V30 7361 C 678.021 0.138819 3.61233 0
M  V30 7362 O 677.742 1.42962 4.14118 0
M  V30 7363 C 679.243 -0.352449 4.41897 0
M  V30 7364 H 676.463 0.101209 0.663323 0
M  V30 7365 H 679.007 0.925077 1.8238 0
M  V30 7366 H 677.162 -0.527505 3.83792 0
M  V30 7367 H 677.576 1.3048 5.08011 0
M  V30 7368 H 679.05 -0.350778 5.50884 0
M  V30 7369 H 679.527 -1.3882 4.16684 0
M  V30 7370 H 680.133 0.282236 4.24362 0
M  V30 7371 N 678.448 -1.51871 0.421078 0
M  V30 7372 C 679.688 -2.03848 -0.150167 0
M  V30 7373 C 680.052 -1.29925 -1.41363 0
M  V30 7374 O 681.253 -1.7219 -2.06408 0
M  V30 7375 C 679.524 -3.55374 -0.38003 0
M  V30 7376 S 681.083 -4.29111 -0.917011 0
M  V30 7377 H 677.901 -0.709904 -0.0394639 0
M  V30 7378 H 680.503 -1.86799 0.576746 0
M  V30 7379 H 679.207 -4.0675 0.546122 0
M  V30 7380 H 678.738 -3.76687 -1.13448 0
M  V30 7381 H 680.753 -4.44944 -2.19635 0
M  V30 7382 N 679.926 -0.151884 -1.56866 0
M  V30 7383 C 681.337 0.368128 -1.83035 0
M  V30 7384 C 681.688 1.64402 -1.07082 0
M  V30 7385 O 680.813 2.14056 -0.317647 0
M  V30 7386 C 681.408 0.674676 -3.32014 0
M  V30 7387 C 679.967 1.13919 -3.58747 0
M  V30 7388 C 679.114 0.164833 -2.7681 0
M  V30 7389 H 682.065 -0.376499 -1.54169 0
M  V30 7390 H 682.086 1.52883 -3.48435 0
M  V30 7391 H 681.598 -0.254113 -3.87267 0
M  V30 7392 H 679.699 2.08375 -3.08886 0
M  V30 7393 H 679.812 1.06179 -4.67186 0
M  V30 7394 H 678.176 0.658419 -2.46043 0
M  V30 7395 H 678.959 -0.757633 -3.34836 0
M  V30 7396 N 681.404 1.57128 0.121893 0
M  V30 7397 C 682.815 1.73902 0.679348 0
M  V30 7398 C 683.166 0.770135 1.80453 0
M  V30 7399 O 682.291 -0.0576083 2.16323 0
M  V30 7400 C 682.886 3.15328 1.2391 0
M  V30 7401 C 681.445 3.33618 1.74288 0
M  V30 7402 C 680.592 2.6978 0.641414 0
M  V30 7403 H 683.543 1.58359 -0.104 0
M  V30 7404 H 683.564 3.16718 2.10879 0
M  V30 7405 H 683.076 3.85821 0.419957 0
M  V30 7406 H 681.177 2.68162 2.58689 0
M  V30 7407 H 681.29 4.4176 1.85432 0
M  V30 7408 H 679.654 2.30935 1.0743 0
M  V30 7409 H 680.437 3.42895 -0.166707 0
M  V30 7410 N 682.882 -0.391992 1.52647 0
M  V30 7411 C 683.792 -1.503 1.80131 0
M  V30 7412 C 684.808 -1.59825 0.687882 0
M  V30 7413 O 685.984 -1.76218 0.975149 0
M  V30 7414 C 683.049 -2.85863 1.96171 0
M  V30 7415 C 682.11 -2.86084 3.20085 0
M  V30 7416 C 681.343 -4.15181 3.35351 0
M  V30 7417 O 681.566 -5.09981 2.55491 0
M  V30 7418 O 680.5 -4.22603 4.28591 0
M  V30 7419 H 684.326 -1.30007 2.74466 0
M  V30 7420 H 681.911 -0.579539 1.37701 0
M  V30 7421 H 683.793 -3.66236 2.08445 0
M  V30 7422 H 682.468 -3.06189 1.05025 0
M  V30 7423 H 681.375 -2.04504 3.13256 0
M  V30 7424 H 682.708 -2.7071 4.11068 0
M  V30 7425 N 684.36 -1.4356 -0.65026 0
M  V30 7426 C 685.29 -1.51758 -1.77459 0
M  V30 7427 C 686.271 -0.372019 -1.65982 0
M  V30 7428 O 687.456 -0.589627 -1.85033 0
M  V30 7429 C 684.586 -1.44302 -3.15902 0
M  V30 7430 C 683.54 -2.57138 -3.42146 0
M  V30 7431 C 682.866 -2.34735 -4.8042 0
M  V30 7432 C 684.166 -3.99373 -3.36598 0
M  V30 7433 H 685.86 -2.45863 -1.70855 0
M  V30 7434 H 683.406 -1.18333 -0.820566 0
M  V30 7435 H 685.359 -1.48641 -3.94314 0
M  V30 7436 H 684.083 -0.467026 -3.23244 0
M  V30 7437 H 682.742 -2.52157 -2.66106 0
M  V30 7438 H 682.39 -1.35372 -4.84441 0
M  V30 7439 H 682.09 -3.10375 -4.9894 0
M  V30 7440 H 683.614 -2.40862 -5.61086 0
M  V30 7441 H 685.028 -4.05826 -4.04942 0
M  V30 7442 H 683.425 -4.75063 -3.66654 0
M  V30 7443 H 684.495 -4.243 -2.34729 0
M  V30 7444 N 685.838 0.888903 -1.30139 0
M  V30 7445 C 687.068 1.67115 -1.21474 0
M  V30 7446 C 687.476 1.87852 0.225472 0
M  V30 7447 O 686.819 1.42324 1.16145 0
M  V30 7448 C 686.881 3.0713 -1.86846 0
M  V30 7449 C 686.545 3.09582 -3.36167 0
M  V30 7450 C 687.542 2.88929 -4.32222 0
M  V30 7451 C 685.227 3.31304 -3.77549 0
M  V30 7452 C 687.221 2.89949 -5.67634 0
M  V30 7453 C 684.908 3.31954 -5.13079 0
M  V30 7454 C 685.906 3.113 -6.07932 0
M  V30 7455 O 685.594 3.11758 -7.40987 0
M  V30 7456 H 685.326 0.528372 -0.421662 0
M  V30 7457 H 687.88 1.11919 -1.7223 0
M  V30 7458 H 686.11 3.63973 -1.30615 0
M  V30 7459 H 687.799 3.6749 -1.72354 0
M  V30 7460 H 688.565 2.71948 -4.01584 0
M  V30 7461 H 684.444 3.46417 -3.04165 0
M  V30 7462 H 687.988 2.73746 -6.41645 0
M  V30 7463 H 683.885 3.48469 -5.43359 0
M  V30 7464 H 684.653 3.27951 -7.49927 0
M  V30 7465 N 687.317 1.12792 1.10072 0
M  V30 7466 C 688.733 0.864745 1.34143 0
M  V30 7467 C 688.933 -0.503201 1.95116 0
M  V30 7468 O 687.989 -1.25111 2.19325 0
M  V30 7469 C 689.302 1.98413 2.25949 0
M  V30 7470 C 690.85 2.01545 2.39476 0
M  V30 7471 C 691.325 3.12727 3.34613 0
M  V30 7472 N 692.816 3.12194 3.42183 0
M  V30 7473 C 693.551 3.94862 4.15779 0
M  V30 7474 N 693.047 4.87528 4.92228 0
M  V30 7475 N 694.84 3.82985 4.11435 0
M  V30 7476 H 686.991 2.00926 0.68866 0
M  V30 7477 H 689.254 0.874564 0.365844 0
M  V30 7478 H 688.96 2.97005 1.88364 0
M  V30 7479 H 688.834 1.89254 3.26287 0
M  V30 7480 H 691.221 1.0357 2.76328 0
M  V30 7481 H 691.302 2.14777 1.3894 0
M  V30 7482 H 690.946 4.10936 2.98486 0
M  V30 7483 H 690.876 2.96732 4.35037 0
M  V30 7484 H 693.367 2.45065 2.87666 0
M  V30 7485 H 693.68 5.47109 5.45794 0
M  V30 7486 H 692.025 4.91539 4.9134 0
M  V30 7487 H 695.216 3.09923 3.50807 0
M  V30 7488 H 695.389 4.47641 4.68531 0
M  V30 7489 N 688.795 -1.27931 0.920396 0
M  V30 7490 C 690.043 -1.94304 0.555906 0
M  V30 7491 C 690.364 -1.72753 -0.904519 0
M  V30 7492 O 689.634 -1.07104 -1.64029 0
M  V30 7493 H 688.214 -0.719001 0.202599 0
M  V30 7494 H 690.876 -1.55785 1.1712 0
M  V30 7495 H 689.972 -3.02806 0.755981 0
M  V30 7496 N 690.273 -0.685099 -1.4193 0
M  V30 7497 C 691.519 -0.211971 -2.01689 0
M  V30 7498 C 691.852 1.18189 -1.54094 0
M  V30 7499 O 691.127 1.79559 -0.747572 0
M  V30 7500 C 691.41 -0.258019 -3.59174 0
M  V30 7501 C 691.263 -1.68807 -4.16922 0
M  V30 7502 C 692.582 0.388044 -4.38386 0
M  V30 7503 H 689.701 -0.0784987 -0.732808 0
M  V30 7504 H 692.343 -0.871837 -1.68816 0
M  V30 7505 H 690.493 0.303832 -3.8731 0
M  V30 7506 H 692.165 -2.30296 -3.99702 0
M  V30 7507 H 690.408 -2.22553 -3.72361 0
M  V30 7508 H 691.079 -1.6719 -5.26072 0
M  V30 7509 H 693.555 -0.0903432 -4.16002 0
M  V30 7510 H 692.431 0.325232 -5.47936 0
M  V30 7511 H 692.692 1.4672 -4.17044 0
M  V30 7512 N 691.751 1.51645 -0.429126 0
M  V30 7513 C 693 2.01203 0.141538 0
M  V30 7514 C 693.313 1.31828 1.44502 0
M  V30 7515 O 694.519 1.7231 2.09813 0
M  V30 7516 C 692.975 3.58624 0.302786 0
M  V30 7517 C 692.583 4.3693 -0.989775 0
M  V30 7518 C 694.327 4.16353 0.827661 0
M  V30 7519 C 692.234 5.86037 -0.794619 0
M  V30 7520 H 691.164 0.751867 0.05667 0
M  V30 7521 H 693.815 1.74822 -0.557633 0
M  V30 7522 H 692.197 3.81417 1.06476 0
M  V30 7523 H 693.371 4.25887 -1.75945 0
M  V30 7524 H 691.686 3.90614 -1.44256 0
M  V30 7525 H 694.283 5.25455 0.990026 0
M  V30 7526 H 694.626 3.74995 1.80787 0
M  V30 7527 H 695.159 3.97606 0.124213 0
M  V30 7528 H 691.898 6.31792 -1.74697 0
M  V30 7529 H 691.418 5.99765 -0.0645968 0
M  V30 7530 H 693.097 6.45471 -0.444591 0
M  V30 7531 N 693.229 0.160201 1.56784 0
M  V30 7532 C 694.192 -0.760405 2.16219 0
M  V30 7533 C 695.192 -1.16595 1.10735 0
M  V30 7534 O 696.382 -1.08472 1.36306 0
M  V30 7535 C 693.514 -2.03358 2.73603 0
M  V30 7536 H 694.707 -0.243173 2.98912 0
M  V30 7537 H 692.26 -0.0893139 1.56045 0
M  V30 7538 H 692.995 -2.59416 1.94612 0
M  V30 7539 H 692.78 -1.75186 3.50788 0
M  V30 7540 H 694.27 -2.69081 3.19351 0
M  V30 7541 N 694.707 -1.5719 -0.113559 0
M  V30 7542 C 695.617 -2.04041 -1.15777 0
M  V30 7543 C 696.633 -0.961812 -1.45001 0
M  V30 7544 O 697.809 -1.2737 -1.56009 0
M  V30 7545 C 694.874 -2.43994 -2.46308 0
M  V30 7546 C 693.935 -3.65962 -2.24433 0
M  V30 7547 C 693.168 -4.04 -3.4874 0
M  V30 7548 O 693.391 -3.42321 -4.56259 0
M  V30 7549 O 692.325 -4.97069 -3.3942 0
M  V30 7550 H 696.151 -2.93248 -0.789899 0
M  V30 7551 H 693.736 -1.45828 -0.324748 0
M  V30 7552 H 695.618 -2.70401 -3.23204 0
M  V30 7553 H 694.293 -1.57932 -2.82558 0
M  V30 7554 H 693.2 -3.44697 -1.45377 0
M  V30 7555 H 694.533 -4.52746 -1.93084 0
M  V30 7556 N 696.185 0.383891 -1.52853 0
M  V30 7557 C 697.425 1.13731 -1.69837 0
M  V30 7558 C 697.789 1.87086 -0.431611 0
M  V30 7559 O 698.99 2.64518 -0.477886 0
M  V30 7560 C 697.261 2.08551 -2.90243 0
M  V30 7561 S 698.82 2.9166 -3.27841 0
M  V30 7562 H 695.638 0.384911 -0.5978 0
M  V30 7563 H 698.24 0.42103 -1.90913 0
M  V30 7564 H 696.944 1.53392 -3.80656 0
M  V30 7565 H 696.475 2.8468 -2.71516 0
M  V30 7566 H 698.49 4.10723 -2.78426 0
M  V30 7567 N 697.663 1.43903 0.642637 0
M  V30 7568 C 698.909 1.47291 1.40275 0
M  V30 7569 C 699.264 0.0996024 1.92142 0
M  V30 7570 O 698.557 -0.883423 1.70018 0
M  V30 7571 C 698.751 2.45907 2.59354 0
M  V30 7572 C 698.58 3.92691 2.19143 0
M  V30 7573 C 697.35 4.6097 2.06966 0
M  V30 7574 C 699.548 4.82231 1.78768 0
M  V30 7575 N 697.53 5.9263 1.60196 0
M  V30 7576 C 698.901 6.03246 1.43159 0
M  V30 7577 C 700.956 4.69397 1.66045 0
M  V30 7578 C 699.659 7.12851 0.961014 0
M  V30 7579 C 701.685 5.79016 1.20392 0
M  V30 7580 C 701.047 6.99164 0.857271 0
M  V30 7581 H 697.146 0.594055 0.50855 0
M  V30 7582 H 699.73 1.80153 0.738434 0
M  V30 7583 H 697.901 2.15054 3.23429 0
M  V30 7584 H 699.633 2.39665 3.26102 0
M  V30 7585 H 696.388 4.15622 2.27058 0
M  V30 7586 H 696.812 6.62547 1.39143 0
M  V30 7587 H 701.454 3.76954 1.91482 0
M  V30 7588 H 699.172 8.05113 0.694148 0
M  V30 7589 H 702.758 5.71109 1.11023 0
M  V30 7590 H 701.638 7.82544 0.509408 0
M  V30 7591 N 699.141 -0.881989 1.30609 0
M  V30 7592 C 700.557 -1.16576 1.09005 0
M  V30 7593 C 700.757 -2.00961 -0.14727 0
M  V30 7594 O 699.813 -2.38117 -0.840036 0
M  V30 7595 C 701.126 -1.86954 2.35518 0
M  V30 7596 C 702.674 -1.99706 2.41011 0
M  V30 7597 C 703.149 -2.73497 3.67374 0
M  V30 7598 N 704.64 -2.8104 3.68199 0
M  V30 7599 C 705.375 -3.38718 4.62664 0
M  V30 7600 N 704.871 -3.97421 5.67475 0
M  V30 7601 N 706.664 -3.36561 4.50203 0
M  V30 7602 H 698.815 -0.319398 2.09985 0
M  V30 7603 H 701.078 -0.204058 0.925778 0
M  V30 7604 H 700.784 -1.32393 3.2583 0
M  V30 7605 H 700.658 -2.87317 2.44395 0
M  V30 7606 H 703.045 -2.53436 1.51176 0
M  V30 7607 H 703.126 -0.984218 2.36108 0
M  V30 7608 H 702.77 -2.20438 4.57569 0
M  V30 7609 H 702.7 -3.75163 3.6954 0
M  V30 7610 H 705.191 -2.39365 2.92426 0
M  V30 7611 H 705.504 -4.39507 6.35652 0
M  V30 7612 H 703.849 -3.95832 5.71264 0
M  V30 7613 H 707.04 -2.8993 3.67503 0
M  V30 7614 H 707.213 -3.81215 5.24003 0
M  V30 7615 N 700.619 -1.13374 -1.09472 0
M  V30 7616 C 701.844 -0.918711 -1.85942 0
M  V30 7617 C 702.269 0.527225 -1.8056 0
M  V30 7618 O 701.627 1.37408 -1.18274 0
M  V30 7619 C 701.675 -1.41056 -3.31867 0
M  V30 7620 O 700.779 -0.595496 -4.08078 0
M  V30 7621 H 700.12 -0.329297 -0.576593 0
M  V30 7622 H 702.65 -1.50829 -1.38245 0
M  V30 7623 H 702.66 -1.41398 -3.82715 0
M  V30 7624 H 701.335 -2.46335 -3.35099 0
M  V30 7625 H 699.912 -0.659911 -3.67014 0
M  V30 7626 N 702.098 1.27442 -0.927168 0
M  V30 7627 C 703.514 1.46754 -0.627329 0
M  V30 7628 C 703.714 1.83902 0.823549 0
M  V30 7629 O 702.77 1.95215 1.60148 0
M  V30 7630 C 704.083 2.56045 -1.57674 0
M  V30 7631 C 705.631 2.69906 -1.58491 0
M  V30 7632 C 706.106 3.82355 -2.52128 0
M  V30 7633 N 707.597 3.89728 -2.50332 0
M  V30 7634 C 708.332 4.76155 -3.19475 0
M  V30 7635 N 707.828 5.67073 -3.97995 0
M  V30 7636 N 709.621 4.6988 -3.08496 0
M  V30 7637 H 701.772 1.01613 -1.86517 0
M  V30 7638 H 704.035 0.507443 -0.800753 0
M  V30 7639 H 703.741 2.35542 -2.61176 0
M  V30 7640 H 703.615 3.53423 -1.31804 0
M  V30 7641 H 706.002 2.89792 -0.557208 0
M  V30 7642 H 706.083 1.73018 -1.8841 0
M  V30 7643 H 705.727 3.63224 -3.55008 0
M  V30 7644 H 705.657 4.7867 -2.19505 0
M  V30 7645 H 708.148 3.24717 -1.93306 0
M  V30 7646 H 708.461 6.2988 -4.4774 0
M  V30 7647 H 706.806 5.6687 -4.02098 0
M  V30 7648 H 709.997 3.97848 -2.46646 0
M  V30 7649 H 710.17 5.37017 -3.62652 0
M  V30 7650 N 703.576 0.692616 1.41565 0
M  V30 7651 C 704.987 0.297478 1.84315 0
M  V30 7652 C 705.338 -1.16379 1.57957 0
M  V30 7653 O 704.463 -1.89303 1.0485 0
M  V30 7654 C 705.058 0.533136 3.34579 0
M  V30 7655 C 703.617 0.191944 3.7591 0
M  V30 7656 C 702.764 0.816873 2.64995 0
M  V30 7657 H 705.715 0.893488 1.31158 0
M  V30 7658 H 705.736 -0.209105 3.79925 0
M  V30 7659 H 705.248 1.59674 3.53731 0
M  V30 7660 H 703.349 -0.867512 3.6236 0
M  V30 7661 H 703.462 0.644902 4.7474 0
M  V30 7662 H 701.826 0.246715 2.53502 0
M  V30 7663 H 702.609 1.88429 2.86966 0
M  V30 7664 N 705.054 -1.51416 0.437162 0
M  V30 7665 C 705.964 -2.31493 -0.380537 0
M  V30 7666 C 706.98 -1.40399 -1.02782 0
M  V30 7667 O 708.156 -1.73471 -1.02323 0
M  V30 7668 C 705.221 -3.1413 -1.46709 0
M  V30 7669 C 704.282 -4.21003 -0.839953 0
M  V30 7670 C 703.515 -4.9969 -1.87473 0
M  V30 7671 O 703.738 -4.79008 -3.09689 0
M  V30 7672 O 702.672 -5.8379 -1.46536 0
M  V30 7673 H 706.498 -3.02469 0.273183 0
M  V30 7674 H 704.083 -1.48059 0.199706 0
M  V30 7675 H 705.965 -3.65505 -2.09724 0
M  V30 7676 H 704.64 -2.45919 -2.10489 0
M  V30 7677 H 703.547 -3.73706 -0.171752 0
M  V30 7678 H 704.88 -4.91587 -0.245638 0
M  V30 7679 N 706.532 -0.168513 -1.56696 0
M  V30 7680 C 707.442 0.775435 -2.21414 0
M  V30 7681 C 708.458 1.25529 -1.20492 0
M  V30 7682 O 709.634 1.30801 -1.53144 0
M  V30 7683 C 706.699 1.9886 -2.83999 0
M  V30 7684 C 705.76 1.5559 -4.00113 0
M  V30 7685 C 704.993 2.71124 -4.59704 0
M  V30 7686 O 705.216 3.87917 -4.18182 0
M  V30 7687 O 704.15 2.4536 -5.4962 0
M  V30 7688 H 707.976 0.254416 -3.02632 0
M  V30 7689 H 705.561 0.0595507 -1.49281 0
M  V30 7690 H 707.443 2.69816 -3.23693 0
M  V30 7691 H 706.118 2.49874 -2.05779 0
M  V30 7692 H 705.025 0.815924 -3.65094 0
M  V30 7693 H 706.358 1.09271 -4.79917 0
M  V30 7694 N 708.01 1.57248 0.105221 0
M  V30 7695 C 709.426 1.52853 0.459153 0
M  V30 7696 C 709.626 0.883674 1.8109 0
M  V30 7697 O 708.682 0.471864 2.48052 0
M  V30 7698 C 709.995 2.97596 0.43096 0
M  V30 7699 C 711.543 3.08758 0.513536 0
M  V30 7700 C 712.018 4.55089 0.515593 0
M  V30 7701 N 713.509 4.59597 0.576639 0
M  V30 7702 C 714.244 5.70253 0.599904 0
M  V30 7703 N 713.74 6.90368 0.579985 0
M  V30 7704 N 715.533 5.58399 0.643953 0
M  V30 7705 H 707.684 1.97547 -0.780306 0
M  V30 7706 H 709.947 0.902758 -0.289363 0
M  V30 7707 H 709.653 3.48201 -0.494903 0
M  V30 7708 H 709.527 3.55756 1.2537 0
M  V30 7709 H 711.914 2.58148 1.42982 0
M  V30 7710 H 711.995 2.53568 -0.337148 0
M  V30 7711 H 711.639 5.06348 -0.396701 0
M  V30 7712 H 711.569 5.08105 1.38335 0
M  V30 7713 H 714.06 3.73144 0.597639 0
M  V30 7714 H 714.373 7.70462 0.600741 0
M  V30 7715 H 712.718 6.92843 0.547191 0
M  V30 7716 H 715.909 4.63467 0.656975 0
M  V30 7717 H 716.082 6.44644 0.658616 0
M  V30 7718 N 709.488 -0.375779 1.53054 0
M  V30 7719 C 710.899 -0.95309 1.6054 0
M  V30 7720 C 711.25 -1.90575 0.466446 0
M  V30 7721 O 710.375 -2.12507 -0.408609 0
M  V30 7722 C 710.97 -1.73537 2.90982 0
M  V30 7723 C 709.529 -2.26218 3.00836 0
M  V30 7724 C 708.676 -1.07157 2.55759 0
M  V30 7725 H 711.627 -0.154895 1.57942 0
M  V30 7726 H 711.648 -2.59574 2.78211 0
M  V30 7727 H 711.16 -1.04176 3.73857 0
M  V30 7728 H 709.261 -2.98852 2.22527 0
M  V30 7729 H 709.374 -2.54799 4.05727 0
M  V30 7730 H 707.738 -1.43553 2.10391 0
M  V30 7731 H 708.521 -0.393099 3.41042 0
M  V30 7732 N 710.966 -1.44241 -0.634997 0
M  V30 7733 C 712.194 -1.50296 -1.42193 0
M  V30 7734 C 712.609 -0.12658 -1.88375 0
M  V30 7735 O 711.966 0.86678 -1.60603 0
M  V30 7736 C 712.017 -2.46437 -2.64482 0
M  V30 7737 O 711.738 -3.78724 -2.20226 0
M  V30 7738 C 713.239 -2.61918 -3.57651 0
M  V30 7739 H 710.459 -0.509865 -0.43621 0
M  V30 7740 H 713.003 -1.89167 -0.776921 0
M  V30 7741 H 711.158 -2.10712 -3.25083 0
M  V30 7742 H 711.572 -4.30595 -2.9948 0
M  V30 7743 H 713.046 -3.33225 -4.40074 0
M  V30 7744 H 713.523 -1.67017 -4.06204 0
M  V30 7745 H 714.129 -2.98528 -3.02921 0
M  V30 7746 N 712.444 0.87505 -1.31075 0
M  V30 7747 C 713.691 1.62768 -1.20469 0
M  V30 7748 C 714.019 1.93034 0.23834 0
M  V30 7749 O 713.274 1.55693 1.18567 0
M  V30 7750 C 713.573 2.96948 -1.98888 0
M  V30 7751 C 713.239 2.86195 -3.4843 0
M  V30 7752 C 711.901 2.82969 -3.89207 0
M  V30 7753 C 714.253 2.73599 -4.43614 0
M  V30 7754 C 711.581 2.64999 -5.23443 0
M  V30 7755 C 713.933 2.57166 -5.77969 0
M  V30 7756 C 712.597 2.52321 -6.17973 0
M  V30 7757 H 711.867 0.595611 -0.440827 0
M  V30 7758 H 714.514 1.01665 -1.62285 0
M  V30 7759 H 712.819 3.62058 -1.49737 0
M  V30 7760 H 714.516 3.54164 -1.88067 0
M  V30 7761 H 711.106 2.8952 -3.16032 0
M  V30 7762 H 715.29 2.7515 -4.13045 0
M  V30 7763 H 710.546 2.5967 -5.53517 0
M  V30 7764 H 714.72 2.46396 -6.51354 0
M  V30 7765 H 712.347 2.38156 -7.21932 0
M  V30 7766 N 713.922 1.13953 1.08869 0
M  V30 7767 C 714.832 0.835666 2.19212 0
M  V30 7768 C 715.848 -0.182005 1.73045 0
M  V30 7769 O 717.024 -0.0116661 2.01397 0
M  V30 7770 C 714.089 0.312325 3.4529 0
M  V30 7771 C 713.15 1.39196 4.06107 0
M  V30 7772 C 712.383 0.893496 5.26168 0
M  V30 7773 O 712.606 -0.266807 5.69776 0
M  V30 7774 O 711.54 1.67037 5.78258 0
M  V30 7775 H 715.366 1.75769 2.47667 0
M  V30 7776 H 712.951 0.917421 1.17914 0
M  V30 7777 H 714.833 0.0261582 4.21392 0
M  V30 7778 H 713.508 -0.582042 3.18424 0
M  V30 7779 H 712.415 1.73152 3.31616 0
M  V30 7780 H 713.748 2.26068 4.37212 0
M  V30 7781 N 715.4 -1.26948 0.933913 0
M  V30 7782 C 716.647 -1.94087 0.577625 0
M  V30 7783 C 716.975 -1.73345 -0.88214 0
M  V30 7784 O 716.23 -1.05945 -1.64542 0
M  V30 7785 C 716.529 -3.46963 0.857406 0
M  V30 7786 C 716.195 -3.87834 2.2999 0
M  V30 7787 C 714.857 -3.98704 2.69423 0
M  V30 7788 C 717.209 -4.08442 3.23766 0
M  V30 7789 C 714.537 -4.27573 4.01744 0
M  V30 7790 C 716.889 -4.38798 4.55675 0
M  V30 7791 C 715.553 -4.47881 4.94934 0
M  V30 7792 H 714.823 -0.710215 0.211368 0
M  V30 7793 H 717.47 -1.50899 1.17905 0
M  V30 7794 H 715.775 -3.91416 0.173369 0
M  V30 7795 H 717.472 -3.97062 0.560615 0
M  V30 7796 H 714.062 -3.79916 1.98399 0
M  V30 7797 H 718.246 -3.99479 2.94499 0
M  V30 7798 H 713.502 -4.32815 4.31834 0
M  V30 7799 H 717.676 -4.5369 5.28335 0
M  V30 7800 H 715.303 -4.70005 5.97495 0
M  V30 7801 N 716.879 -0.700114 -1.41195 0
M  V30 7802 C 717.809 -0.0521132 -2.33442 0
M  V30 7803 C 718.79 0.76228 -1.52063 0
M  V30 7804 O 719.975 0.714336 -1.80585 0
M  V30 7805 C 717.105 0.881693 -3.35922 0
M  V30 7806 C 716.059 0.174062 -4.27646 0
M  V30 7807 C 715.385 1.22254 -5.20536 0
M  V30 7808 C 716.685 -0.962396 -5.13357 0
M  V30 7809 H 718.379 -0.822574 -2.87879 0
M  V30 7810 H 715.925 -0.397011 -1.38419 0
M  V30 7811 H 717.878 1.34429 -3.99383 0
M  V30 7812 H 716.602 1.68387 -2.79845 0
M  V30 7813 H 715.261 -0.268551 -3.65615 0
M  V30 7814 H 714.909 2.01736 -4.60773 0
M  V30 7815 H 714.609 0.754038 -5.82742 0
M  V30 7816 H 716.133 1.68555 -5.86874 0
M  V30 7817 H 717.547 -0.579875 -5.7036 0
M  V30 7818 H 715.944 -1.35828 -5.84526 0
M  V30 7819 H 717.014 -1.80003 -4.50252 0
M  V30 7820 N 718.357 1.51182 -0.445186 0
M  V30 7821 C 719.289 2.25714 0.398206 0
M  V30 7822 C 720.302 1.30032 0.979562 0
M  V30 7823 O 721.491 1.55731 0.872368 0
M  V30 7824 C 718.591 3.00348 1.56985 0
M  V30 7825 C 717.764 4.23187 1.10596 0
M  V30 7826 C 716.823 4.80334 2.14863 0
M  V30 7827 O 715.849 5.4196 1.73977 0
M  V30 7828 N 717.051 4.65053 3.47427 0
M  V30 7829 H 719.816 2.98732 -0.240629 0
M  V30 7830 H 717.377 1.59556 -0.274507 0
M  V30 7831 H 719.369 3.35464 2.26376 0
M  V30 7832 H 717.939 2.30291 2.11387 0
M  V30 7833 H 717.159 3.93476 0.238832 0
M  V30 7834 H 718.447 5.02886 0.773537 0
M  V30 7835 H 717.845 4.15984 3.83372 0
M  V30 7836 H 716.402 5.04509 4.12691 0
M  V30 7837 N 719.835 0.176821 1.56605 0
M  V30 7838 C 721.06 -0.47599 2.01864 0
M  V30 7839 C 721.485 -1.55645 1.05623 0
M  V30 7840 O 720.843 -1.81263 0.0366729 0
M  V30 7841 C 720.891 -1.02619 3.4569 0
M  V30 7842 O 719.995 -2.13996 3.52533 0
M  V30 7843 H 719.336 -0.113363 0.654251 0
M  V30 7844 H 721.866 0.28233 2.02643 0
M  V30 7845 H 721.876 -1.34742 3.85109 0
M  V30 7846 H 720.551 -0.235138 4.15235 0
M  V30 7847 H 719.128 -1.82876 3.24978 0
M  V30 7848 N 721.313 -1.57302 -0.09688 0
M  V30 7849 C 722.559 -1.86273 -0.801885 0
M  V30 7850 C 722.892 -0.765694 -1.78468 0
M  V30 7851 O 722.167 0.226495 -1.93177 0
M  V30 7852 C 722.45 -3.25876 -1.53221 0
M  V30 7853 C 722.303 -4.46205 -0.567529 0
M  V30 7854 C 723.622 -3.63352 -2.48321 0
M  V30 7855 H 720.741 -0.67752 -0.29006 0
M  V30 7856 H 723.383 -1.89887 -0.0655577 0
M  V30 7857 H 721.533 -3.22926 -2.15988 0
M  V30 7858 H 723.205 -4.6127 0.0529982 0
M  V30 7859 H 721.448 -4.33636 0.119233 0
M  V30 7860 H 722.119 -5.40608 -1.11564 0
M  V30 7861 H 724.595 -3.67234 -1.95648 0
M  V30 7862 H 723.471 -4.61968 -2.9644 0
M  V30 7863 H 723.732 -2.91941 -3.31998 0
M  V30 7864 N 722.791 0.367657 -1.53252 0
M  V30 7865 C 723.721 1.45632 -1.8252 0
M  V30 7866 C 724.702 1.55979 -0.678568 0
M  V30 7867 O 725.887 1.70581 -0.928217 0
M  V30 7868 C 723.017 2.82994 -2.01325 0
M  V30 7869 C 721.971 2.87473 -3.17086 0
M  V30 7870 C 721.297 4.2749 -3.21179 0
M  V30 7871 C 722.597 2.55182 -4.55719 0
M  V30 7872 H 724.291 1.21387 -2.73689 0
M  V30 7873 H 721.837 0.58251 -1.31692 0
M  V30 7874 H 723.79 3.59179 -2.20383 0
M  V30 7875 H 722.514 3.08622 -1.06864 0
M  V30 7876 H 721.173 2.13739 -2.97844 0
M  V30 7877 H 720.821 4.5019 -2.24361 0
M  V30 7878 H 720.521 4.31403 -3.98955 0
M  V30 7879 H 722.045 5.0555 -3.42419 0
M  V30 7880 H 723.459 3.21081 -4.74953 0
M  V30 7881 H 721.856 2.70414 -5.3572 0
M  V30 7882 H 722.926 1.5044 -4.60973 0
M  V30 7883 N 724.269 1.44576 0.627338 0
M  V30 7884 C 725.179 1.54232 1.76776 0
M  V30 7885 C 726.195 0.427782 1.6866 0
M  V30 7886 O 727.371 0.685671 1.89369 0
M  V30 7887 C 724.436 1.48738 3.13174 0
M  V30 7888 C 723.497 2.71074 3.32893 0
M  V30 7889 C 722.73 2.65832 4.62784 0
M  V30 7890 O 722.953 1.72048 5.43834 0
M  V30 7891 O 721.887 3.56742 4.84787 0
M  V30 7892 H 725.713 2.50586 1.71582 0
M  V30 7893 H 723.298 1.26865 0.789028 0
M  V30 7894 H 725.18 1.48211 3.94476 0
M  V30 7895 H 723.855 0.555292 3.18902 0
M  V30 7896 H 722.762 2.77168 2.51254 0
M  V30 7897 H 724.095 3.63342 3.32029 0
M  V30 7898 N 725.747 -0.868086 1.31537 0
M  V30 7899 C 727.024 -1.60384 1.11965 0
M  V30 7900 C 727.404 -2.08584 -0.324949 0
M  V30 7901 O 726.752 -1.86561 -1.31937 0
M  V30 7902 C 726.962 -2.76038 2.13551 0
M  V30 7903 C 728.31 -3.45954 2.46173 0
M  V30 7904 O 729.334 -2.86247 2.11993 0
M  V30 7905 O 728.193 -4.53666 3.04711 0
M  V30 7906 H 725.287 -0.705705 0.431172 0
M  V30 7907 H 727.833 -0.913385 1.43022 0
M  V30 7908 H 726.605 -2.37849 3.10714 0
M  V30 7909 H 726.228 -3.52769 1.83411 0
M  V30 7910 N 727.225 -1.14528 -1.08264 0
M  V30 7911 C 728.472 -0.914405 -1.80679 0
M  V30 7912 C 728.8 0.558952 -1.86295 0
M  V30 7913 O 728.055 1.43017 -1.33584 0
M  V30 7914 C 728.354 -1.46226 -3.26117 0
M  V30 7915 C 728.02 -2.95451 -3.40616 0
M  V30 7916 C 726.682 -3.36191 -3.4428 0
M  V30 7917 C 729.034 -3.91399 -3.44175 0
M  V30 7918 C 726.362 -4.71539 -3.49096 0
M  V30 7919 C 728.714 -5.26606 -3.50526 0
M  V30 7920 C 727.378 -5.66856 -3.52464 0
M  V30 7921 H 726.648 -0.334604 -0.661151 0
M  V30 7922 H 729.295 -1.4292 -1.27461 0
M  V30 7923 H 727.6 -0.868442 -3.82054 0
M  V30 7924 H 729.297 -1.25955 -3.80705 0
M  V30 7925 H 725.887 -2.62955 -3.38456 0
M  V30 7926 H 730.071 -3.61004 -3.40573 0
M  V30 7927 H 725.327 -5.02082 -3.4889 0
M  V30 7928 H 729.501 -6.00758 -3.52225 0
M  V30 7929 H 727.128 -6.71718 -3.55948 0
M  V30 7930 N 728.703 1.26451 -0.940633 0
M  V30 7931 C 729.933 1.97581 -0.603766 0
M  V30 7932 C 730.341 1.70246 0.825395 0
M  V30 7933 O 729.684 0.967001 1.56188 0
M  V30 7934 C 729.746 3.51256 -0.765463 0
M  V30 7935 C 729.41 4.0224 -2.16915 0
M  V30 7936 C 730.407 4.1402 -3.14457 0
M  V30 7937 C 728.092 4.36263 -2.48958 0
M  V30 7938 C 730.086 4.59117 -4.42143 0
M  V30 7939 C 727.773 4.81048 -3.76877 0
M  V30 7940 C 728.771 4.92436 -4.73282 0
M  V30 7941 O 728.459 5.36234 -5.98923 0
M  V30 7942 H 728.191 0.636948 -0.226436 0
M  V30 7943 H 730.745 1.61941 -1.2635 0
M  V30 7944 H 728.975 3.86669 -0.0485956 0
M  V30 7945 H 730.664 4.03597 -0.431738 0
M  V30 7946 H 731.43 3.87981 -2.91026 0
M  V30 7947 H 727.309 4.26634 -1.74656 0
M  V30 7948 H 730.853 4.6792 -5.17394 0
M  V30 7949 H 726.75 5.06531 -4.00121 0
M  V30 7950 H 727.518 5.54456 -6.02097 0
M  V30 7951 N 730.181 0.707592 1.40822 0
M  V30 7952 C 731.409 0.253073 2.05346 0
M  V30 7953 C 731.824 -1.10218 1.53289 0
M  V30 7954 O 731.181 -1.69112 0.686105 0
M  V30 7955 C 731.232 0.215411 3.60858 0
M  V30 7956 O 730.953 1.51714 4.10992 0
M  V30 7957 C 732.454 -0.258636 4.42545 0
M  V30 7958 H 729.674 0.115256 0.661027 0
M  V30 7959 H 732.218 0.963555 1.80377 0
M  V30 7960 H 730.373 -0.445978 3.84824 0
M  V30 7961 H 730.787 1.41226 5.05129 0
M  V30 7962 H 732.261 -0.233849 5.51504 0
M  V30 7963 H 732.738 -1.2995 4.19535 0
M  V30 7964 H 733.344 0.372186 4.23668 0
M  V30 7965 N 731.66 -1.50943 0.453197 0
M  V30 7966 C 732.623 -2.26684 -0.338705 0
M  V30 7967 C 733.623 -1.30748 -0.936032 0
M  V30 7968 O 734.813 -1.54327 -0.808002 0
M  V30 7969 C 731.945 -3.07063 -1.48071 0
M  V30 7970 H 733.138 -2.98131 0.325289 0
M  V30 7971 H 730.691 -1.54926 0.206771 0
M  V30 7972 H 731.426 -2.4007 -2.18029 0
M  V30 7973 H 731.211 -3.77545 -1.0584 0
M  V30 7974 H 732.701 -3.64393 -2.0398 0
M  V30 7975 N 733.138 -0.185124 -1.56509 0
M  V30 7976 C 734.366 0.462139 -2.01673 0
M  V30 7977 C 734.781 1.55873 -1.06532 0
M  V30 7978 O 734.138 1.82371 -0.0684805 0
M  V30 7979 C 734.189 1.0277 -3.46584 0
M  V30 7980 O 733.91 -0.0251296 -4.38093 0
M  V30 7981 C 735.411 1.75183 -4.07217 0
M  V30 7982 H 732.631 0.117001 -0.660721 0
M  V30 7983 H 735.175 -0.290905 -2.0242 0
M  V30 7984 H 733.33 1.73118 -3.46568 0
M  V30 7985 H 733.744 0.394387 -5.23015 0
M  V30 7986 H 735.218 2.09999 -5.10494 0
M  V30 7987 H 735.695 2.6519 -3.50101 0
M  V30 7988 H 736.301 1.09445 -4.10977 0
M  V30 7989 N 734.616 1.57351 0.0885366 0
M  V30 7990 C 735.526 2.05858 1.12516 0
M  V30 7991 C 736.542 0.984758 1.43452 0
M  V30 7992 O 737.718 1.29836 1.53963 0
M  V30 7993 C 734.783 2.47882 2.42395 0
M  V30 7994 C 733.844 3.69487 2.18582 0
M  V30 7995 C 733.077 4.09497 3.42268 0
M  V30 7996 O 733.3 3.49536 4.50755 0
M  V30 7997 O 732.234 5.02406 3.31469 0
M  V30 7998 H 736.06 2.94467 0.743146 0
M  V30 7999 H 733.645 1.46326 0.301507 0
M  V30 8000 H 735.527 2.75509 3.18862 0
M  V30 8001 H 734.202 1.62408 2.8001 0
M  V30 8002 H 733.109 3.46967 1.39875 0
M  V30 8003 H 734.442 4.55761 1.85857 0
M  V30 8004 N 736.094 -0.359525 1.53444 0
M  V30 8005 C 737.51 -0.701599 1.43352 0
M  V30 8006 C 737.71 -1.93049 0.577439 0
M  V30 8007 O 736.766 -2.52423 0.0622224 0
M  V30 8008 C 738.079 -0.90915 2.86627 0
M  V30 8009 C 739.627 -1.00878 2.96298 0
M  V30 8010 C 740.102 -1.24876 4.40647 0
M  V30 8011 N 741.593 -1.31632 4.44103 0
M  V30 8012 C 742.328 -1.51922 5.52908 0
M  V30 8013 N 741.824 -1.69489 6.71748 0
M  V30 8014 N 743.617 -1.54341 5.40496 0
M  V30 8015 H 735.768 0.448685 2.07607 0
M  V30 8016 H 738.031 0.138713 0.937797 0
M  V30 8017 H 737.737 -0.0778997 3.51614 0
M  V30 8018 H 737.611 -1.81551 3.30634 0
M  V30 8019 H 739.998 -1.83057 2.31461 0
M  V30 8020 H 740.079 -0.0796721 2.55676 0
M  V30 8021 H 739.723 -0.431961 5.0606 0
M  V30 8022 H 739.653 -2.19118 4.78848 0
M  V30 8023 H 742.144 -1.19646 3.5846 0
M  V30 8024 H 742.457 -1.84561 7.50438 0
M  V30 8025 H 740.802 -1.66655 6.74723 0
M  V30 8026 H 743.993 -1.40188 4.46615 0
M  V30 8027 H 744.166 -1.69812 6.25354 0
M  V30 8028 N 737.572 -1.44907 -0.619662 0
M  V30 8029 C 738.504 -1.48652 -1.74457 0
M  V30 8030 C 739.517 -0.378596 -1.58337 0
M  V30 8031 O 740.706 -0.644987 -1.6644 0
M  V30 8032 C 737.806 -1.31568 -3.12319 0
M  V30 8033 C 736.979 -2.55816 -3.54792 0
M  V30 8034 C 736.038 -2.33465 -4.71573 0
M  V30 8035 O 735.064 -3.07015 -4.79302 0
M  V30 8036 N 736.266 -1.37254 -5.6404 0
M  V30 8037 H 739.031 -2.45632 -1.71712 0
M  V30 8038 H 736.592 -1.40492 -0.804582 0
M  V30 8039 H 738.584 -1.14445 -3.88181 0
M  V30 8040 H 737.154 -0.429095 -3.09641 0
M  V30 8041 H 736.374 -2.88137 -2.69018 0
M  V30 8042 H 737.662 -3.38431 -3.79924 0
M  V30 8043 H 737.06 -0.765309 -5.60499 0
M  V30 8044 H 735.617 -1.26106 -6.39485 0
M  V30 8045 N 739.05 0.861098 -1.31996 0
M  V30 8046 C 740.28 1.64501 -1.24992 0
M  V30 8047 C 740.688 1.88288 0.185576 0
M  V30 8048 O 740.031 1.44756 1.131 0
M  V30 8049 C 740.093 3.03098 -1.93319 0
M  V30 8050 C 739.757 3.02381 -3.42658 0
M  V30 8051 C 740.754 2.79696 -4.38254 0
M  V30 8052 C 738.439 3.23221 -3.84491 0
M  V30 8053 C 740.433 2.77843 -5.73657 0
M  V30 8054 C 738.12 3.20996 -5.20005 0
M  V30 8055 C 739.118 2.98335 -6.14398 0
M  V30 8056 O 738.806 2.95971 -7.47433 0
M  V30 8057 H 738.538 0.519309 -0.432775 0
M  V30 8058 H 741.092 1.08241 -1.74565 0
M  V30 8059 H 739.322 3.61121 -1.38306 0
M  V30 8060 H 741.011 3.63751 -1.8011 0
M  V30 8061 H 741.777 2.63368 -4.07262 0
M  V30 8062 H 737.656 3.39887 -3.11445 0
M  V30 8063 H 741.2 2.60074 -6.47308 0
M  V30 8064 H 737.097 3.36865 -5.50629 0
M  V30 8065 H 737.865 3.1197 -7.56714 0
M  V30 8066 N 740.528 1.15101 1.07655 0
M  V30 8067 C 741.438 0.858869 2.18313 0
M  V30 8068 C 742.454 -0.163641 1.73229 0
M  V30 8069 O 743.63 0.00969541 2.01398 0
M  V30 8070 C 740.695 0.34893 3.4494 0
M  V30 8071 C 739.756 1.43495 4.04608 0
M  V30 8072 C 738.989 0.949253 5.2519 0
M  V30 8073 O 739.212 -0.20636 5.70027 0
M  V30 8074 O 738.146 1.73161 5.76454 0
M  V30 8075 H 741.972 1.78386 2.45788 0
M  V30 8076 H 739.557 0.929876 1.16934 0
M  V30 8077 H 741.439 0.070851 4.2134 0
M  V30 8078 H 740.114 -0.548237 3.19024 0
M  V30 8079 H 739.021 1.7666 3.29761 0
M  V30 8080 H 740.354 2.30692 4.3479 0
M  V30 8081 N 742.006 -1.2595 0.947325 0
M  V30 8082 C 742.936 -2.28521 0.479604 0
M  V30 8083 C 743.917 -1.63469 -0.470293 0
M  V30 8084 O 745.102 -1.90627 -0.370824 0
M  V30 8085 C 742.232 -3.46397 -0.250289 0
M  V30 8086 C 741.186 -4.23578 0.613643 0
M  V30 8087 C 740.512 -5.34131 -0.246568 0
M  V30 8088 C 741.812 -4.86979 1.88809 0
M  V30 8089 H 743.506 -2.67895 1.33688 0
M  V30 8090 H 741.052 -1.28783 0.644274 0
M  V30 8091 H 743.005 -4.17269 -0.588576 0
M  V30 8092 H 741.729 -3.05993 -1.14175 0
M  V30 8093 H 740.388 -3.54478 0.93491 0
M  V30 8094 H 740.036 -4.89968 -1.13756 0
M  V30 8095 H 739.736 -5.86683 0.328123 0
M  V30 8096 H 741.26 -6.07839 -0.579986 0
M  V30 8097 H 742.674 -5.50034 1.61666 0
M  V30 8098 H 741.071 -5.49675 2.40784 0
M  V30 8099 H 742.141 -4.09575 2.5957 0
M  V30 8100 N 743.484 -0.715051 -1.40445 0
M  V30 8101 C 744.416 -0.0227516 -2.29189 0
M  V30 8102 C 745.429 0.724313 -1.458 0
M  V30 8103 O 746.618 0.571781 -1.69094 0
M  V30 8104 C 743.718 0.992038 -3.24055 0
M  V30 8105 C 742.891 0.310613 -4.36296 0
M  V30 8106 C 741.95 1.23071 -5.11605 0
M  V30 8107 O 740.976 0.71571 -5.64682 0
M  V30 8108 N 742.178 2.56188 -5.2091 0
M  V30 8109 H 744.943 -0.78473 -2.89244 0
M  V30 8110 H 742.504 -0.562637 -1.51809 0
M  V30 8111 H 744.496 1.60973 -3.71308 0
M  V30 8112 H 743.066 1.65538 -2.65171 0
M  V30 8113 H 742.286 -0.487269 -3.91177 0
M  V30 8114 H 743.574 -0.162415 -5.08541 0
M  V30 8115 H 742.972 3.00527 -4.7927 0
M  V30 8116 H 741.529 3.13103 -5.71673 0
M  V30 8117 N 744.962 1.50701 -0.461195 0
M  V30 8118 C 746.373 1.867 -0.00370227 0
M  V30 8119 C 746.724 1.37673 1.39787 0
M  V30 8120 O 745.849 0.737515 2.03445 0
M  V30 8121 C 746.444 3.388 5.75786e-05 0
M  V30 8122 C 745.003 3.74247 0.402044 0
M  V30 8123 C 744.15 2.74549 -0.389652 0
M  V30 8124 H 747.101 1.43585 -0.675942 0
M  V30 8125 H 747.122 3.719 0.804414 0
M  V30 8126 H 746.634 3.74452 -1.02015 0
M  V30 8127 H 744.735 3.44192 1.42697 0
M  V30 8128 H 744.848 4.78973 0.110265 0
M  V30 8129 H 743.212 2.54226 0.155314 0
M  V30 8130 H 743.995 3.13044 -1.40919 0
M  V30 8131 O 746.479 0.334734 1.57993 0
M  V30 8132 H 747.17 -0.222689 1.92416 0
M  V30 END ATOM
M  V30 BEGIN BOND
M  V30 END BOND
M  V30 END CTAB
M  END
$$$$
