drugbank_target|Q99707 Methionine synthase (DB00115; DB00116; DB00134; DB00200; DB03614; DB11590)
 OpenBabel12092119383D

  0  0  0     0  0            999 V3000
M  V30 BEGIN CTAB
M  V30 COUNTS 19736 19930 0 0 0
M  V30 BEGIN ATOM
M  V30 1 H -0.908 1.98254 -0.117106 0
M  V30 2 N 0 1.576 0 0
M  V30 3 C 0.933 2.03868 1.02534 0
M  V30 4 C 1.911 0.928543 1.3348 0
M  V30 5 O 3.095 1.19667 1.45644 0
M  V30 6 C 0.222 2.43627 2.35294 0
M  V30 7 C -0.732 3.65373 2.2001 0
M  V30 8 S 0.101 5.13292 1.52614 0
M  V30 9 C 1.257 5.56322 2.86805 0
M  V30 10 H 1.49 2.90518 0.631377 0
M  V30 11 H -0.977 1.52953 0.210867 0
M  V30 12 H 0.981 2.67203 3.11629 0
M  V30 13 H -0.358 1.57376 2.7183 0
M  V30 14 H -1.165 3.90944 3.18086 0
M  V30 15 H -1.563 3.418 1.51819 0
M  V30 16 H 0.729 5.58782 3.83104 0
M  V30 17 H 1.672 6.56266 2.65933 0
M  V30 18 H 2.08 4.83886 2.90714 0
M  V30 19 N 1.4781 -0.272755 1.55222 0
M  V30 20 C 2.7031 -1.02683 1.80197 0
M  V30 21 C 3.1281 -1.79142 0.573551 0
M  V30 22 O 2.4861 -1.74917 -0.476849 0
M  V30 23 C 2.5341 -1.9609 3.02624 0
M  V30 24 O 1.6381 -3.04863 2.77727 0
M  V30 25 H 0.9791 -0.293557 0.595584 0
M  V30 26 H 3.5091 -0.30159 2.02365 0
M  V30 27 H 3.5191 -2.38039 3.31363 0
M  V30 28 H 2.1941 -1.39851 3.91682 0
M  V30 29 H 0.7711 -2.67228 2.60084 0
M  V30 30 N 2.9562 -1.48159 -0.537278 0
M  V30 31 C 4.3672 -1.49429 -1.11928 0
M  V30 32 C 4.7182 -0.26 -1.9447 0
M  V30 33 O 3.8432 0.633489 -2.0692 0
M  V30 34 C 4.4382 -2.70758 -2.03656 0
M  V30 35 C 2.9972 -2.74923 -2.57088 0
M  V30 36 C 2.1442 -2.42835 -1.3389 0
M  V30 37 H 5.0952 -1.55381 -0.322886 0
M  V30 38 H 5.1162 -2.48861 -2.87834 0
M  V30 39 H 4.6282 -3.60575 -1.43553 0
M  V30 40 H 2.7292 -1.89296 -3.20933 0
M  V30 41 H 2.8422 -3.76157 -2.9672 0
M  V30 42 H 1.2062 -1.93836 -1.65226 0
M  V30 43 H 1.9892 -3.34884 -0.755504 0
M  V30 44 N 4.4343 0.785586 -1.36625 0
M  V30 45 C 5.3973 1.87999 -1.31107 0
M  V30 46 C 6.3973 1.59316 -0.217959 0
M  V30 47 O 7.5873 1.67656 -0.472977 0
M  V30 48 C 4.7193 3.24861 -1.03334 0
M  V30 49 H 5.9123 1.94307 -2.2844 0
M  V30 50 H 3.4653 0.983813 -1.21453 0
M  V30 51 H 4.2003 3.24235 -0.0647432 0
M  V30 52 H 3.9853 3.4707 -1.82441 0
M  V30 53 H 5.4753 4.04929 -1.02088 0
M  V30 54 N 5.9124 1.20967 1.01018 0
M  V30 55 C 6.8424 0.988272 2.11555 0
M  V30 56 C 7.8234 -0.0849778 1.69888 0
M  V30 57 O 9.0084 0.0738202 1.9406 0
M  V30 58 C 6.1384 0.546528 3.42973 0
M  V30 59 C 5.0924 1.56375 3.9841 0
M  V30 60 C 4.4184 0.97842 5.25672 0
M  V30 61 C 5.7184 2.94922 4.31066 0
M  V30 62 H 7.4124 1.91276 2.30334 0
M  V30 63 H 4.9584 0.921073 1.1069 0
M  V30 64 H 6.9114 0.378839 4.19694 0
M  V30 65 H 5.6354 -0.413598 3.23971 0
M  V30 66 H 4.2944 1.71891 3.23804 0
M  V30 67 H 3.9424 0.0101688 5.02999 0
M  V30 68 H 3.6424 1.65784 5.63728 0
M  V30 69 H 5.1664 0.821939 6.05043 0
M  V30 70 H 6.5804 2.8288 4.9865 0
M  V30 71 H 4.9774 3.5983 4.80253 0
M  V30 72 H 6.0474 3.4616 3.39561 0
M  V30 73 N 7.3905 -1.2043 1.01659 0
M  V30 74 C 8.3225 -2.22626 0.544988 0
M  V30 75 C 9.3355 -1.58479 -0.372609 0
M  V30 76 O 10.5245 -1.77679 -0.170958 0
M  V30 77 C 7.6245 -3.38141 -0.22663 0
M  V30 78 C 6.7975 -4.31877 0.692876 0
M  V30 79 C 5.8565 -5.26191 -0.0311616 0
M  V30 80 O 4.8825 -5.6612 0.591343 0
M  V30 81 N 6.0845 -5.65618 -1.30601 0
M  V30 82 H 8.8495 -2.63716 1.42388 0
M  V30 83 H 6.4105 -1.34971 0.894116 0
M  V30 84 H 8.4025 -3.98239 -0.72024 0
M  V30 85 H 6.9725 -2.95943 -1.00681 0
M  V30 86 H 6.1925 -3.69746 1.36679 0
M  V30 87 H 7.4805 -4.91426 1.31824 0
M  V30 88 H 6.8785 -5.3519 -1.83269 0
M  V30 89 H 5.4355 -6.28025 -1.74435 0
M  V30 90 N 8.8686 -0.792821 -1.36206 0
M  V30 91 C 10.1456 -0.290627 -1.93429 0
M  V30 92 C 10.5256 1.21773 -1.72437 0
M  V30 93 O 9.8736 2.0108 -1.08531 0
M  V30 94 C 10.0836 -0.686973 -3.42172 0
M  V30 95 C 11.4316 -0.668643 -4.19302 0
M  V30 96 O 12.4556 -0.627658 -3.50626 0
M  V30 97 O 11.3146 -0.714597 -5.41808 0
M  V30 98 H 8.4086 -0.0727927 -0.82379 0
M  V30 99 H 10.9546 -0.875593 -1.45367 0
M  V30 100 H 9.7266 -1.72711 -3.51122 0
M  V30 101 H 9.3496 -0.0760733 -3.97527 0
M  V30 102 N 10.3467 1.47872 -0.545128 0
M  V30 103 C 11.2767 2.32661 0.197793 0
M  V30 104 C 12.2577 1.43041 0.920504 0
M  V30 105 O 13.4427 1.71912 0.90333 0
M  V30 106 C 10.5727 3.24569 1.23582 0
M  V30 107 C 9.5267 4.23333 0.630323 0
M  V30 108 C 8.8527 5.0448 1.77211 0
M  V30 109 C 10.1527 5.20704 -0.407974 0
M  V30 110 H 11.8467 2.95024 -0.510045 0
M  V30 111 H 9.3927 1.4187 -0.246731 0
M  V30 112 H 11.3457 3.8272 1.76362 0
M  V30 113 H 10.0697 2.60236 1.97344 0
M  V30 114 H 8.7287 3.6639 0.123922 0
M  V30 115 H 8.3767 4.36561 2.49847 0
M  V30 116 H 8.0767 5.71339 1.37281 0
M  V30 117 H 9.6007 5.65487 2.3034 0
M  V30 118 H 11.0147 5.7329 0.033305 0
M  V30 119 H 9.4117 5.95699 -0.725486 0
M  V30 120 H 10.4817 4.66917 -1.30828 0
M  V30 121 N 11.8248 0.280983 1.55075 0
M  V30 122 C 13.0498 -0.340154 2.04592 0
M  V30 123 C 13.4748 -1.48246 1.15779 0
M  V30 124 O 12.8328 -1.80614 0.15761 0
M  V30 125 C 12.8808 -0.793104 3.5177 0
M  V30 126 O 11.9848 -1.89981 3.66034 0
M  V30 127 H 11.3258 -0.0694289 0.66036 0
M  V30 128 H 13.8558 0.416993 2.00306 0
M  V30 129 H 13.8658 -1.08729 3.93245 0
M  V30 130 H 12.5408 0.0426163 4.15878 0
M  V30 131 H 11.1178 -1.60771 3.36463 0
M  V30 132 N 13.3029 -1.57598 0.00835791 0
M  V30 133 C 14.2349 -2.05811 -1.00868 0
M  V30 134 C 15.2479 -0.977579 -1.30182 0
M  V30 135 O 16.4369 -1.25421 -1.27011 0
M  V30 136 C 13.5369 -2.45016 -2.34137 0
M  V30 137 C 12.7099 -3.75903 -2.23643 0
M  V30 138 C 11.7689 -4.01884 -3.3967 0
M  V30 139 O 10.7949 -4.72433 -3.17483 0
M  V30 140 N 11.9969 -3.50432 -4.62793 0
M  V30 141 H 14.7619 -2.93684 -0.597458 0
M  V30 142 H 12.3229 -1.60909 -0.178852 0
M  V30 143 H 14.3149 -2.59506 -3.10546 0
M  V30 144 H 12.8849 -1.62618 -2.66972 0
M  V30 145 H 12.1049 -3.7141 -1.32091 0
M  V30 146 H 13.3929 -4.61695 -2.13812 0
M  V30 147 H 12.7909 -2.93317 -4.83716 0
M  V30 148 H 11.3479 -3.70236 -5.3644 0
M  V30 149 N 14.781 0.264519 -1.55364 0
M  V30 150 C 16.192 0.834936 -1.6699 0
M  V30 151 C 16.543 1.86718 -0.602552 0
M  V30 152 O 15.668 2.14899 0.254425 0
M  V30 153 C 16.263 1.5212 -3.02729 0
M  V30 154 C 14.822 2.03954 -3.16354 0
M  V30 155 C 13.969 0.884498 -2.62815 0
M  V30 156 H 16.92 0.0406869 -1.58648 0
M  V30 157 H 16.941 2.38853 -2.96191 0
M  V30 158 H 16.453 0.769668 -3.80392 0
M  V30 159 H 14.554 2.82041 -2.43482 0
M  V30 160 H 14.667 2.24902 -4.23032 0
M  V30 161 H 13.031 1.2802 -2.20188 0
M  V30 162 H 13.814 0.14634 -3.42988 0
M  V30 163 N 16.2591 1.48442 0.529413 0
M  V30 164 C 17.1691 1.6569 1.66084 0
M  V30 165 C 18.1851 0.539432 1.65427 0
M  V30 166 O 19.3611 0.810572 1.84368 0
M  V30 167 C 16.4261 1.69315 3.02545 0
M  V30 168 C 15.4871 2.92694 3.14052 0
M  V30 169 C 14.7201 2.96137 4.44003 0
M  V30 170 O 14.9431 2.07973 5.31134 0
M  V30 171 O 13.8771 3.88312 4.59888 0
M  V30 172 H 17.7031 2.61483 1.54469 0
M  V30 173 H 15.2881 1.3185 0.702567 0
M  V30 174 H 17.1701 1.74217 3.83701 0
M  V30 175 H 15.8451 0.766966 3.14483 0
M  V30 176 H 14.7521 2.93324 2.32189 0
M  V30 177 H 16.0851 3.84699 3.0703 0
M  V30 178 N 17.7372 -0.778329 1.37039 0
M  V30 179 C 18.9852 -1.53361 1.31623 0
M  V30 180 C 19.3062 -1.94739 -0.100831 0
M  V30 181 O 18.5762 -1.65797 -1.04347 0
M  V30 182 H 17.1562 -0.568794 0.484234 0
M  V30 183 H 19.8182 -0.926742 1.71457 0
M  V30 184 H 18.9142 -2.43606 1.95096 0
M  V30 185 N 19.2153 -1.21501 -1.00376 0
M  V30 186 C 20.1453 -0.999478 -2.11028 0
M  V30 187 C 21.1263 0.0759671 -1.6993 0
M  V30 188 O 22.3113 -0.0841106 -1.94018 0
M  V30 189 C 19.4413 -0.564709 -3.42678 0
M  V30 190 C 18.3953 -1.58486 -3.97576 0
M  V30 191 C 17.7213 -1.00628 -5.25146 0
M  V30 192 C 19.0213 -2.97204 -4.29496 0
M  V30 193 H 20.7153 -1.92495 -2.29317 0
M  V30 194 H 18.2613 -0.92693 -1.102 0
M  V30 195 H 20.2143 -0.401091 -4.19487 0
M  V30 196 H 18.9383 0.396411 -3.24185 0
M  V30 197 H 17.5973 -1.73606 -3.22888 0
M  V30 198 H 17.2453 -0.0368439 -5.02987 0
M  V30 199 H 16.9453 -1.68771 -5.62841 0
M  V30 200 H 18.4693 -0.854015 -6.04598 0
M  V30 201 H 19.8833 -2.8552 -4.97143 0
M  V30 202 H 18.2803 -3.62372 -4.78338 0
M  V30 203 H 19.3503 -3.47956 -3.3772 0
M  V30 204 N 20.6934 1.19889 -1.02296 0
M  V30 205 C 21.6404 2.22901 -0.598651 0
M  V30 206 C 22.6104 1.61588 0.384521 0
M  V30 207 O 23.7954 1.88697 0.282522 0
M  V30 208 C 20.9354 3.45063 0.0504476 0
M  V30 209 C 20.0484 4.20783 -0.978053 0
M  V30 210 C 19.1834 5.30356 -0.299338 0
M  V30 211 C 18.2224 5.97826 -1.31416 0
M  V30 212 N 17.3594 6.98975 -0.661667 0
M  V30 213 H 22.1994 2.58554 -1.48169 0
M  V30 214 H 19.7364 1.27039 -0.741584 0
M  V30 215 H 21.6944 4.14831 0.443971 0
M  V30 216 H 20.3244 3.10084 0.897097 0
M  V30 217 H 19.3764 3.50018 -1.48969 0
M  V30 218 H 20.6884 4.67109 -1.74958 0
M  V30 219 H 19.8424 6.06516 0.149347 0
M  V30 220 H 18.5814 4.85084 0.504445 0
M  V30 221 H 17.5864 5.20422 -1.77317 0
M  V30 222 H 18.8114 6.45183 -2.11933 0
M  V30 223 H 16.7574 6.55886 0.122132 0
M  V30 224 H 16.6744 7.43461 -1.37117 0
M  V30 225 H 17.9424 7.7914 -0.236785 0
M  V30 226 N 22.1715 0.800033 1.35784 0
M  V30 227 C 23.1185 0.203848 2.29898 0
M  V30 228 C 24.0885 -0.658375 1.52495 0
M  V30 229 O 25.2735 -0.604832 1.8096 0
M  V30 230 C 22.4135 -0.64688 3.38983 0
M  V30 231 C 21.5265 0.235054 4.3136 0
M  V30 232 C 20.6615 -0.623054 5.27533 0
M  V30 233 C 19.7005 0.259682 6.11549 0
M  V30 234 N 18.8375 -0.558019 6.99879 0
M  V30 235 H 23.6775 1.01186 2.80295 0
M  V30 236 H 21.2145 0.51053 1.37957 0
M  V30 237 H 23.1725 -1.15521 4.00887 0
M  V30 238 H 21.8025 -1.42021 2.89879 0
M  V30 239 H 20.8545 0.861438 3.70518 0
M  V30 240 H 22.1665 0.914768 4.9034 0
M  V30 241 H 21.3205 -1.19678 5.94779 0
M  V30 242 H 20.0595 -1.33636 4.69034 0
M  V30 243 H 19.0645 0.845726 5.43256 0
M  V30 244 H 20.2895 0.970748 6.72126 0
M  V30 245 H 18.2355 -1.25542 6.43875 0
M  V30 246 H 18.1525 0.0637872 7.55973 0
M  V30 247 H 19.4205 -1.11523 7.71481 0
M  V30 248 N 23.6496 -1.47581 0.552962 0
M  V30 249 C 24.8776 -2.06875 0.0320556 0
M  V30 250 C 25.2926 -1.40625 -1.25976 0
M  V30 251 O 24.6496 -0.501349 -1.75479 0
M  V30 252 C 24.7006 -3.61092 -0.17167 0
M  V30 253 O 24.4216 -4.24858 1.06899 0
M  V30 254 C 25.9226 -4.37242 -0.730344 0
M  V30 255 H 23.1426 -0.669561 0.043915 0
M  V30 256 H 25.6866 -1.89646 0.765163 0
M  V30 257 H 23.8416 -3.7785 -0.854894 0
M  V30 258 H 24.2556 -5.17334 0.864059 0
M  V30 259 H 25.7296 -5.45842 -0.822203 0
M  V30 260 H 26.2066 -4.03235 -1.74064 0
M  V30 261 H 26.8126 -4.25219 -0.0829543 0
M  V30 262 N 25.1277 -0.289203 -1.54924 0
M  V30 263 C 26.0577 0.58549 -2.2604 0
M  V30 264 C 27.0387 1.14753 -1.25562 0
M  V30 265 O 28.2237 1.17906 -1.54311 0
M  V30 266 C 25.3537 1.76305 -2.99222 0
M  V30 267 C 24.3077 1.33191 -4.06748 0
M  V30 268 C 23.6337 2.5937 -4.6758 0
M  V30 269 C 24.9337 0.471775 -5.20165 0
M  V30 270 H 26.6277 -0.00763532 -2.99399 0
M  V30 271 H 24.1737 -0.00511229 -1.43999 0
M  V30 272 H 26.1267 2.38097 -3.47689 0
M  V30 273 H 24.8507 2.38223 -2.23422 0
M  V30 274 H 23.5097 0.737121 -3.59113 0
M  V30 275 H 23.1577 3.19576 -3.88433 0
M  V30 276 H 22.8577 2.31228 -5.40192 0
M  V30 277 H 24.3817 3.21985 -5.18804 0
M  V30 278 H 25.7957 0.995056 -5.64599 0
M  V30 279 H 24.1927 0.284639 -5.99425 0
M  V30 280 H 25.2627 -0.506041 -4.82252 0
M  V30 281 N 26.6058 1.57591 -0.0167156 0
M  V30 282 C 28.0218 1.55946 0.339557 0
M  V30 283 C 28.2218 1.02109 1.73713 0
M  V30 284 O 27.2778 0.662303 2.43659 0
M  V30 285 C 28.5908 3.00037 0.199499 0
M  V30 286 C 30.1388 3.11805 0.273193 0
M  V30 287 C 30.6138 4.57713 0.162068 0
M  V30 288 N 32.1048 4.6268 0.219444 0
M  V30 289 C 32.8398 5.73185 0.157054 0
M  V30 290 N 32.3358 6.92786 0.0442936 0
M  V30 291 N 34.1288 5.61707 0.21014 0
M  V30 292 H 26.2798 1.90921 -0.930758 0
M  V30 293 H 28.5428 0.877674 -0.358319 0
M  V30 294 H 28.2488 3.4333 -0.76273 0
M  V30 295 H 28.1228 3.64387 0.974786 0
M  V30 296 H 30.5098 2.68433 1.22587 0
M  V30 297 H 30.5908 2.50201 -0.532256 0
M  V30 298 H 30.2348 5.01763 -0.78714 0
M  V30 299 H 30.1648 5.17283 0.986222 0
M  V30 300 H 32.6558 3.76649 0.307246 0
M  V30 301 H 32.9688 7.728 0.00304069 0
M  V30 302 H 31.3138 6.94999 0.00968457 0
M  V30 303 H 34.5048 4.6716 0.296546 0
M  V30 304 H 34.6778 6.47807 0.158054 0
M  V30 305 N 28.0839 -0.256276 1.55502 0
M  V30 306 C 29.3609 -1.00789 1.67633 0
M  V30 307 C 29.7409 -2.03706 0.553826 0
M  V30 308 O 29.0889 -2.24145 -0.443969 0
M  V30 309 C 29.2989 -1.64968 3.07549 0
M  V30 310 C 30.6469 -2.15505 3.65845 0
M  V30 311 O 31.6709 -1.74925 3.1029 0
M  V30 312 O 30.5299 -2.89986 4.63217 0
M  V30 313 H 27.6239 -0.468553 0.681459 0
M  V30 314 H 30.1699 -0.250806 1.67836 0
M  V30 315 H 28.9419 -0.904785 3.80696 0
M  V30 316 H 28.5649 -2.47321 3.11317 0
M  V30 317 N 29.562 -1.4872 -0.521534 0
M  V30 318 C 30.472 -1.66569 -1.65203 0
M  V30 319 C 31.488 -0.548197 -1.65139 0
M  V30 320 O 32.664 -0.820339 -1.83936 0
M  V30 321 C 29.729 -1.70917 -3.01642 0
M  V30 322 C 28.79 -2.94356 -3.12495 0
M  V30 323 C 28.023 -2.98487 -4.42426 0
M  V30 324 O 28.246 -2.10786 -5.30024 0
M  V30 325 O 27.18 -3.90746 -4.57822 0
M  V30 326 H 31.006 -2.62298 -1.5308 0
M  V30 327 H 28.591 -1.3222 -0.695565 0
M  V30 328 H 30.473 -1.7625 -3.82771 0
M  V30 329 H 29.148 -0.783633 -3.14071 0
M  V30 330 H 28.055 -2.94552 -2.3063 0
M  V30 331 H 29.388 -3.86322 -3.04986 0
M  V30 332 N 31.0401 0.771051 -1.3745 0
M  V30 333 C 32.2891 1.52491 -1.3202 0
M  V30 334 C 32.6021 1.9538 0.0927347 0
M  V30 335 O 33.8081 2.70159 0.269503 0
M  V30 336 C 32.2641 2.75366 -2.31736 0
M  V30 337 C 31.8721 2.39573 -3.78562 0
M  V30 338 C 33.6161 3.53307 -2.35318 0
M  V30 339 C 31.5231 3.58954 -4.70007 0
M  V30 340 H 30.4531 0.572506 -0.490666 0
M  V30 341 H 33.1041 0.844474 -1.62914 0
M  V30 342 H 31.4861 3.45303 -1.93861 0
M  V30 343 H 32.6601 1.77415 -4.25277 0
M  V30 344 H 30.9751 1.74805 -3.77932 0
M  V30 345 H 33.5721 4.42039 -3.00842 0
M  V30 346 H 33.9151 3.93217 -1.36698 0
M  V30 347 H 34.4481 2.90367 -2.71904 0
M  V30 348 H 31.1871 3.24125 -5.69757 0
M  V30 349 H 30.7071 4.20214 -4.27996 0
M  V30 350 H 32.3861 4.25758 -4.87175 0
M  V30 351 N 32.5182 1.22032 0.997298 0
M  V30 352 C 33.4662 0.983634 2.10778 0
M  V30 353 C 34.4602 -0.0717564 1.69248 0
M  V30 354 O 35.6662 0.080304 1.79821 0
M  V30 355 H 32.0412 0.300877 0.689186 0
M  V30 356 H 34.0122 1.92606 2.27916 0
M  V30 357 C 32.7612 0.57326 3.42942 0
M  V30 358 H 32.0842 1.37702 3.75338 0
M  V30 359 H 33.5242 0.447031 4.21637 0
M  V30 360 C 31.9832 -0.7167 3.29188 0
M  V30 361 O 32.5132 -1.77027 3.60589 0
M  V30 362 N 30.7192 -0.686167 2.82383 0
M  V30 363 H 30.2662 0.171507 2.57028 0
M  V30 364 H 30.2242 -1.54955 2.73562 0
M  V30 365 N 33.9963 -1.19345 1.0293 0
M  V30 366 C 34.9593 -2.20793 0.615069 0
M  V30 367 C 35.9593 -1.57553 -0.321533 0
M  V30 368 O 37.1493 -1.73862 -0.108483 0
M  V30 369 C 34.2813 -3.40754 -0.0999222 0
M  V30 370 H 35.4743 -2.58955 1.51269 0
M  V30 371 H 33.0273 -1.3303 0.820534 0
M  V30 372 H 33.7623 -3.0811 -1.01187 0
M  V30 373 H 33.5473 -3.87889 0.57309 0
M  V30 374 H 35.0373 -4.15898 -0.376645 0
M  V30 375 N 35.4744 -0.807222 -1.35358 0
M  V30 376 C 36.7234 -0.384376 -1.98004 0
M  V30 377 C 37.0364 1.0543 -1.64754 0
M  V30 378 O 38.2424 1.58029 -2.20769 0
M  V30 379 C 36.6984 -0.636326 -3.5423 0
M  V30 380 C 36.3064 -2.08759 -3.96388 0
M  V30 381 C 38.0504 -0.278869 -4.23583 0
M  V30 382 C 35.9574 -2.28525 -5.45463 0
M  V30 383 H 34.8874 -0.139986 -0.740891 0
M  V30 384 H 37.5384 -0.991369 -1.54415 0
M  V30 385 H 35.9204 0.0406256 -3.95979 0
M  V30 386 H 37.0944 -2.8024 -3.6579 0
M  V30 387 H 35.4094 -2.40497 -3.39926 0
M  V30 388 H 38.0064 -0.404599 -5.33167 0
M  V30 389 H 38.3494 0.775012 -4.09022 0
M  V30 390 H 38.8824 -0.909764 -3.87257 0
M  V30 391 H 35.6214 -3.32361 -5.64992 0
M  V30 392 H 35.1414 -1.61569 -5.77629 0
M  V30 393 H 36.8204 -2.10109 -6.11934 0
M  V30 394 N 36.9525 1.47285 -0.560781 0
M  V30 395 C 37.8825 2.32857 0.173105 0
M  V30 396 C 38.8635 1.44009 0.905281 0
M  V30 397 O 40.0485 1.7286 0.885046 0
M  V30 398 C 37.1785 3.25861 1.20133 0
M  V30 399 C 36.1325 4.23978 0.585388 0
M  V30 400 C 35.4585 5.06332 1.7185 0
M  V30 401 C 36.7585 5.20242 -0.463178 0
M  V30 402 H 38.4525 2.94466 -0.541307 0
M  V30 403 H 35.9985 1.41601 -0.261764 0
M  V30 404 H 37.9515 3.84569 1.72293 0
M  V30 405 H 36.6755 2.62315 1.94573 0
M  V30 406 H 35.3345 3.66501 0.085054 0
M  V30 407 H 34.9825 4.39186 2.45203 0
M  V30 408 H 34.6825 5.72762 1.31213 0
M  V30 409 H 36.2065 5.67899 2.24329 0
M  V30 410 H 37.6205 5.73293 -0.027502 0
M  V30 411 H 36.0175 5.94896 -0.788627 0
M  V30 412 H 37.0875 4.65504 -1.35773 0
M  V30 413 N 38.4306 0.297415 1.54768 0
M  V30 414 C 39.3626 -0.613881 2.20826 0
M  V30 415 C 40.3756 -1.10032 1.19987 0
M  V30 416 O 41.5646 -1.01839 1.46598 0
M  V30 417 C 38.6646 -1.852 2.83821 0
M  V30 418 C 37.8376 -1.50865 4.10559 0
M  V30 419 C 36.8966 -2.60154 4.57391 0
M  V30 420 O 35.9226 -2.25398 5.2267 0
M  V30 421 N 37.1246 -3.90629 4.29406 0
M  V30 422 H 39.8896 -0.048389 2.99661 0
M  V30 423 H 37.4506 0.11946 1.61459 0
M  V30 424 H 39.4426 -2.57652 3.12086 0
M  V30 425 H 38.0126 -2.32597 2.08847 0
M  V30 426 H 37.2326 -0.616925 3.89343 0
M  V30 427 H 38.5206 -1.25458 4.9309 0
M  V30 428 H 37.9186 -4.21677 3.77101 0
M  V30 429 H 36.4756 -4.59391 4.62388 0
M  V30 430 N 39.9087 -1.5758 0.0250728 0
M  V30 431 C 40.8557 -2.09973 -0.958129 0
M  V30 432 C 41.8257 -1.00085 -1.3256 0
M  V30 433 O 43.0107 -1.27481 -1.41962 0
M  V30 434 C 40.1507 -2.62812 -2.2366 0
M  V30 435 C 39.2637 -3.86693 -1.92594 0
M  V30 436 C 38.3987 -4.27941 -3.14707 0
M  V30 437 C 37.4377 -5.44591 -2.79442 0
M  V30 438 N 36.5747 -5.81014 -3.94167 0
M  V30 439 H 41.4147 -2.937 -0.504428 0
M  V30 440 H 38.9517 -1.45172 -0.237392 0
M  V30 441 H 40.9097 -2.91536 -2.98434 0
M  V30 442 H 39.5397 -1.81922 -2.66654 0
M  V30 443 H 38.5917 -3.64723 -1.0808 0
M  V30 444 H 39.9037 -4.71547 -1.62619 0
M  V30 445 H 39.0577 -4.58079 -3.97804 0
M  V30 446 H 37.7967 -3.41845 -3.4784 0
M  V30 447 H 36.8017 -5.1415 -1.94755 0
M  V30 448 H 38.0267 -6.32382 -2.47528 0
M  V30 449 H 35.9727 -4.97874 -4.2715 0
M  V30 450 H 35.8897 -6.60498 -3.67801 0
M  V30 451 H 37.1577 -6.15756 -4.7798 0
M  V30 452 N 41.3868 0.248026 -1.55636 0
M  V30 453 C 42.8028 0.596483 -1.48035 0
M  V30 454 C 43.0028 1.88386 -0.715039 0
M  V30 455 O 42.0588 2.51319 -0.243944 0
M  V30 456 C 43.3718 0.700258 -2.92433 0
M  V30 457 C 44.9198 0.792659 -3.02797 0
M  V30 458 C 45.3948 0.928005 -4.485 0
M  V30 459 N 46.8858 0.992903 -4.52433 0
M  V30 460 C 47.6208 1.11687 -5.62418 0
M  V30 461 N 47.1168 1.20645 -6.82214 0
M  V30 462 N 48.9098 1.14994 -5.50212 0
M  V30 463 H 41.0608 -0.597109 -2.03834 0
M  V30 464 H 43.3238 -0.205925 -0.925364 0
M  V30 465 H 43.0298 -0.175658 -3.51261 0
M  V30 466 H 42.9038 1.57255 -3.42857 0
M  V30 467 H 45.2908 1.65903 -2.4405 0
M  V30 468 H 45.3718 -0.104762 -2.55585 0
M  V30 469 H 45.0158 0.0661971 -5.07857 0
M  V30 470 H 44.9458 1.84045 -4.93391 0
M  V30 471 H 47.4368 0.935064 -3.66149 0
M  V30 472 H 47.7498 1.30008 -7.61786 0
M  V30 473 H 46.0948 1.17605 -6.84977 0
M  V30 474 H 49.2858 1.07643 -4.55555 0
M  V30 475 H 49.4588 1.24311 -6.35965 0
M  V30 476 N 42.8649 1.48995 0.513639 0
M  V30 477 C 44.1139 1.57093 1.2651 0
M  V30 478 C 44.4269 0.257091 1.93903 0
M  V30 479 O 45.6329 0.216478 2.70636 0
M  V30 480 C 44.0889 2.77118 2.29638 0
M  V30 481 C 43.6969 4.15209 1.68241 0
M  V30 482 C 45.4409 2.94538 3.05692 0
M  V30 483 C 43.3479 5.26474 2.69406 0
M  V30 484 H 42.2779 0.584876 0.475854 0
M  V30 485 H 44.9289 1.7536 0.540487 0
M  V30 486 H 43.3109 2.52319 3.05207 0
M  V30 487 H 44.4849 4.50094 0.987505 0
M  V30 488 H 42.7999 4.03042 1.04623 0
M  V30 489 H 45.3969 3.74832 3.8132 0
M  V30 490 H 45.7399 2.04614 3.62545 0
M  V30 491 H 46.2729 3.19316 2.37238 0
M  V30 492 H 43.0119 6.18417 2.17351 0
M  V30 493 H 42.5319 4.96058 3.37175 0
M  V30 494 H 44.2109 5.55277 3.32078 0
M  V30 495 N 44.343 -0.763751 1.37857 0
M  V30 496 C 45.276 -1.88486 1.28639 0
M  V30 497 C 46.254 -1.61757 0.165363 0
M  V30 498 O 47.438 -1.85391 0.340948 0
M  V30 499 C 44.565 -3.23884 0.990811 0
M  V30 500 C 43.611 -3.69514 2.12983 0
M  V30 501 S 44.444 -3.82244 3.75033 0
M  V30 502 C 45.6 -5.20477 3.47641 0
M  V30 503 H 45.833 -1.96017 2.23527 0
M  V30 504 H 43.366 -0.925684 1.23574 0
M  V30 505 H 45.324 -4.02081 0.827101 0
M  V30 506 H 43.985 -3.14044 0.0592832 0
M  V30 507 H 43.178 -4.67696 1.87821 0
M  V30 508 H 42.78 -2.98441 2.25408 0
M  V30 509 H 45.072 -6.05905 3.03125 0
M  V30 510 H 46.015 -5.50655 4.4518 0
M  V30 511 H 46.423 -4.88793 2.82385 0
M  V30 512 N 45.8211 -1.22559 -0.990812 0
M  V30 513 C 47.0671 -1.05297 -1.73322 0
M  V30 514 C 47.4001 0.410655 -1.89808 0
M  V30 515 O 46.6751 1.30439 -1.44277 0
M  V30 516 C 46.9581 -1.76713 -3.13759 0
M  V30 517 C 46.8111 -3.30684 -3.04907 0
M  V30 518 C 48.1301 -1.52121 -4.12974 0
M  V30 519 H 45.2491 -0.38392 -0.629106 0
M  V30 520 H 47.8911 -1.50926 -1.15418 0
M  V30 521 H 46.0411 -1.37924 -3.63193 0
M  V30 522 H 47.7131 -3.7893 -2.63077 0
M  V30 523 H 45.9561 -3.60253 -2.41661 0
M  V30 524 H 46.6271 -3.75833 -4.04294 0
M  V30 525 H 49.1031 -1.85819 -3.72304 0
M  V30 526 H 47.9791 -2.04582 -5.0935 0
M  V30 527 H 48.2401 -0.454257 -4.3976 0
M  V30 528 N 47.2992 1.18797 -1.03562 0
M  V30 529 C 48.2292 2.24472 -0.643019 0
M  V30 530 C 49.2102 1.66433 0.351283 0
M  V30 531 O 50.3952 1.92803 0.232505 0
M  V30 532 C 47.5252 3.473 4.24935e-05 0
M  V30 533 C 46.4792 4.18055 -0.917257 0
M  V30 534 C 45.8052 5.34519 -0.138941 0
M  V30 535 C 47.1052 4.72109 -2.23407 0
M  V30 536 H 48.7992 2.57566 -1.52643 0
M  V30 537 H 46.3452 1.23806 -0.735394 0
M  V30 538 H 48.2982 4.20426 0.286383 0
M  V30 539 H 47.0222 3.13424 0.918299 0
M  V30 540 H 45.6812 3.46821 -1.1879 0
M  V30 541 H 45.3292 4.96891 0.781562 0
M  V30 542 H 45.0292 5.82794 -0.750005 0
M  V30 543 H 46.5532 6.10438 0.1405 0
M  V30 544 H 47.9672 5.36955 -2.00879 0
M  V30 545 H 46.3642 5.30897 -2.79765 0
M  V30 546 H 47.4342 3.89807 -2.88407 0
M  V30 547 N 48.7773 0.814389 1.34928 0
M  V30 548 C 50.0543 0.321363 1.92942 0
M  V30 549 C 50.4343 -1.19014 1.74353 0
M  V30 550 O 49.7823 -1.99328 1.11716 0
M  V30 551 C 49.9923 0.741323 3.41036 0
M  V30 552 C 51.3403 0.735266 4.18185 0
M  V30 553 O 52.3643 0.68336 3.49584 0
M  V30 554 O 51.2233 0.800703 5.40602 0
M  V30 555 H 48.3173 0.0858893 0.822528 0
M  V30 556 H 50.8633 0.898609 1.43955 0
M  V30 557 H 49.6353 1.78276 3.4833 0
M  V30 558 H 49.2583 0.139307 3.97356 0
M  V30 559 N 50.2554 -1.46986 0.568584 0
M  V30 560 C 51.5034 -2.02041 0.0487022 0
M  V30 561 C 51.8244 -1.44408 -1.31039 0
M  V30 562 O 51.0944 -0.623477 -1.85714 0
M  V30 563 H 49.6744 -0.746849 0.015014 0
M  V30 564 H 52.3364 -1.80257 0.741168 0
M  V30 565 H 51.4324 -3.12085 -0.0308961 0
M  V30 566 N 51.7335 -0.305618 -1.54608 0
M  V30 567 C 52.9815 0.301701 -1.99835 0
M  V30 568 C 53.3025 1.54054 -1.19551 0
M  V30 569 O 52.5725 1.93702 -0.292658 0
M  V30 570 H 51.1525 0.114468 -0.738178 0
M  V30 571 H 53.8145 -0.418016 -1.90364 0
M  V30 572 H 52.9105 0.570548 -3.06841 0
M  V30 573 N 53.2116 1.57565 -0.0334293 0
M  V30 574 C 54.1446 2.05997 0.981866 0
M  V30 575 C 55.1226 0.956647 1.3148 0
M  V30 576 O 56.3066 1.22729 1.43073 0
M  V30 577 C 53.4336 2.48564 2.30074 0
M  V30 578 C 52.4796 3.69958 2.12211 0
M  V30 579 S 53.3126 5.16414 1.41692 0
M  V30 580 C 54.4686 5.6228 2.7494 0
M  V30 581 H 54.7016 2.91792 0.569612 0
M  V30 582 H 52.2346 1.53366 0.178376 0
M  V30 583 H 54.1926 2.73753 3.05892 0
M  V30 584 H 52.8536 1.63106 2.68431 0
M  V30 585 H 52.0466 3.97603 3.09722 0
M  V30 586 H 51.6486 3.44943 1.44535 0
M  V30 587 H 53.9406 5.66783 3.71165 0
M  V30 588 H 54.8836 6.61759 2.51953 0
M  V30 589 H 55.2916 4.89944 2.80384 0
M  V30 590 N 54.6897 -0.239769 1.55765 0
M  V30 591 C 55.9377 -0.964892 1.77579 0
M  V30 592 C 56.2587 -1.85582 0.598699 0
M  V30 593 O 55.5287 -1.92075 -0.385226 0
M  V30 594 H 54.1087 -0.359265 0.654933 0
M  V30 595 H 56.7707 -0.256001 1.93211 0
M  V30 596 H 55.8667 -1.58243 2.69009 0
M  V30 597 N 56.1678 -1.49265 -0.50573 0
M  V30 598 C 57.3958 -1.62215 -1.28429 0
M  V30 599 C 57.8108 -0.291697 -1.86533 0
M  V30 600 O 57.1678 0.722233 -1.67601 0
M  V30 601 C 57.2188 -2.68735 -2.41793 0
M  V30 602 O 56.9398 -3.96619 -1.86078 0
M  V30 603 C 58.4408 -2.92346 -3.3324 0
M  V30 604 H 55.6608 -0.546239 -0.389697 0
M  V30 605 H 58.2048 -1.95265 -0.607609 0
M  V30 606 H 56.3598 -2.38476 -3.053 0
M  V30 607 H 56.7738 -4.55256 -2.60465 0
M  V30 608 H 58.2478 -3.70623 -4.09075 0
M  V30 609 H 58.7248 -2.02081 -3.89948 0
M  V30 610 H 59.3308 -3.24003 -2.75503 0
M  V30 611 N 57.6459 0.756429 -1.3826 0
M  V30 612 C 58.5789 1.87802 -1.29637 0
M  V30 613 C 59.5569 1.61667 -0.173939 0
M  V30 614 O 60.7409 1.85208 -0.350775 0
M  V30 615 C 57.8679 3.23354 -1.00797 0
M  V30 616 C 56.9139 3.68379 -2.14939 0
M  V30 617 S 57.7469 3.8025 -3.77054 0
M  V30 618 C 58.9029 5.18626 -3.50396 0
M  V30 619 H 59.1359 1.94829 -2.24564 0
M  V30 620 H 56.6689 0.919117 -1.24063 0
M  V30 621 H 58.6269 4.01637 -0.848413 0
M  V30 622 H 57.2879 3.14008 -0.0759369 0
M  V30 623 H 56.4809 4.66693 -1.90299 0
M  V30 624 H 56.0829 2.97242 -2.26988 0
M  V30 625 H 58.3749 6.04289 -3.06334 0
M  V30 626 H 59.3179 5.48286 -4.48094 0
M  V30 627 H 59.7259 4.87289 -2.84973 0
M  V30 628 N 59.124 1.23083 0.984299 0
M  V30 629 C 60.373 1.05466 1.71929 0
M  V30 630 C 60.686 -0.409211 1.91272 0
M  V30 631 O 61.892 -0.705226 2.62181 0
M  V30 632 C 60.348 1.83874 3.09384 0
M  V30 633 C 59.956 3.34566 2.97943 0
M  V30 634 C 61.7 1.74734 3.8687 0
M  V30 635 C 59.607 4.05381 4.30605 0
M  V30 636 H 58.537 0.391039 0.644674 0
M  V30 637 H 61.188 1.47013 1.09815 0
M  V30 638 H 59.57 1.35131 3.72231 0
M  V30 639 H 60.744 3.90767 2.44209 0
M  V30 640 H 59.059 3.44476 2.33934 0
M  V30 641 H 61.656 2.24957 4.85076 0
M  V30 642 H 61.999 0.709372 4.10212 0
M  V30 643 H 62.532 2.21067 3.30717 0
M  V30 644 H 59.271 5.09467 4.1246 0
M  V30 645 H 58.791 3.53967 4.84218 0
M  V30 646 H 60.47 4.11458 4.99311 0
M  V30 647 N 60.6021 -1.18246 1.0419 0
M  V30 648 C 61.5341 -2.2142 0.592088 0
M  V30 649 C 62.5471 -1.59233 -0.338909 0
M  V30 650 O 63.7361 -1.78002 -0.133231 0
M  V30 651 C 60.8361 -3.38546 -0.154854 0
M  V30 652 C 60.0091 -4.3031 0.784328 0
M  V30 653 C 59.0681 -5.26138 0.0804583 0
M  V30 654 O 58.0941 -5.64738 0.711292 0
M  V30 655 N 59.2961 -5.68261 -1.18574 0
M  V30 656 H 62.0611 -2.60636 1.47949 0
M  V30 657 H 59.6221 -1.33044 0.922544 0
M  V30 658 H 61.6141 -3.99678 -0.635606 0
M  V30 659 H 60.1841 -2.98012 -0.943811 0
M  V30 660 H 59.4041 -3.66764 1.44491 0
M  V30 661 H 60.6921 -4.8852 1.42218 0
M  V30 662 H 60.0901 -5.38957 -1.71876 0
M  V30 663 H 58.6471 -6.31584 -1.61074 0
M  V30 664 N 62.0802 -0.821533 -1.34494 0
M  V30 665 C 63.4962 -0.507117 -1.51329 0
M  V30 666 C 63.6962 0.968964 -1.76673 0
M  V30 667 O 62.7522 1.75348 -1.81685 0
M  V30 668 C 64.0652 -1.36544 -2.67911 0
M  V30 669 C 65.6132 -1.36242 -2.81793 0
M  V30 670 C 66.0882 -2.2052 -4.01416 0
M  V30 671 N 67.5792 -2.18136 -4.08621 0
M  V30 672 C 68.3142 -2.80095 -5.00334 0
M  V30 673 N 67.8102 -3.51039 -5.9728 0
M  V30 674 N 69.6032 -2.69656 -4.93196 0
M  V30 675 H 61.7542 -1.77729 -1.16302 0
M  V30 676 H 64.0172 -0.757291 -0.570276 0
M  V30 677 H 63.7232 -2.41361 -2.55808 0
M  V30 678 H 63.5972 -1.02917 -3.62888 0
M  V30 679 H 65.9842 -0.322041 -2.93338 0
M  V30 680 H 66.0652 -1.73866 -1.87628 0
M  V30 681 H 65.7092 -3.24607 -3.90631 0
M  V30 682 H 65.6392 -1.80247 -4.94791 0
M  V30 683 H 68.1302 -1.6653 -3.39229 0
M  V30 684 H 68.4432 -3.95565 -6.63889 0
M  V30 685 H 66.7882 -3.55145 -5.97409 0
M  V30 686 H 69.9792 -2.13808 -4.16418 0
M  V30 687 H 70.1522 -3.1823 -5.64476 0
M  V30 688 N 63.5583 1.46682 -0.576371 0
M  V30 689 C 64.4683 2.34032 0.163141 0
M  V30 690 C 65.4843 1.49367 0.892501 0
M  V30 691 O 66.6603 1.82252 0.857106 0
M  V30 692 C 63.7253 3.26435 1.16795 0
M  V30 693 C 62.7863 4.26998 0.443944 0
M  V30 694 C 62.0193 5.14986 1.40088 0
M  V30 695 O 62.2423 5.05785 2.637 0
M  V30 696 O 61.1763 5.94906 0.914917 0
M  V30 697 H 65.0023 2.98607 -0.55388 0
M  V30 698 H 62.5873 1.45554 -0.336821 0
M  V30 699 H 64.4693 3.83459 1.74748 0
M  V30 700 H 63.1443 2.64465 1.86655 0
M  V30 701 H 62.0513 3.7368 -0.177271 0
M  V30 702 H 63.3843 4.91736 -0.213566 0
M  V30 703 N 65.0364 0.313813 1.54444 0
M  V30 704 C 65.9834 -0.55655 2.23989 0
M  V30 705 C 66.9534 -1.11943 1.22711 0
M  V30 706 O 68.1384 -1.16158 1.51367 0
M  V30 707 C 65.2784 -1.71635 2.99392 0
M  V30 708 C 64.3914 -1.18364 4.15468 0
M  V30 709 C 63.5264 -2.30834 4.78424 0
M  V30 710 C 62.5654 -1.74762 5.86622 0
M  V30 711 N 61.7024 -2.80855 6.43479 0
M  V30 712 H 66.5424 0.0430893 2.97969 0
M  V30 713 H 64.0794 0.0330359 1.47063 0
M  V30 714 H 66.0374 -2.39868 3.41349 0
M  V30 715 H 64.6674 -2.28742 2.27765 0
M  V30 716 H 63.7194 -0.393163 3.78363 0
M  V30 717 H 65.0314 -0.733262 4.93381 0
M  V30 718 H 64.1854 -3.0699 5.23299 0
M  V30 719 H 62.9244 -2.79204 3.99871 0
M  V30 720 H 61.9294 -0.970995 5.41158 0
M  V30 721 H 63.1544 -1.2728 6.67066 0
M  V30 722 H 61.1004 -3.28535 5.67804 0
M  V30 723 H 61.0174 -2.40351 7.16776 0
M  V30 724 H 62.2854 -3.5687 6.93011 0
M  V30 725 N 66.5145 -1.57545 0.0417849 0
M  V30 726 C 67.4445 -2.14009 -0.933929 0
M  V30 727 C 68.4255 -1.05938 -1.33083 0
M  V30 728 O 69.6105 -1.33833 -1.40721 0
M  V30 729 C 66.7405 -2.67747 -2.21199 0
M  V30 730 C 65.6945 -3.80718 -1.95544 0
M  V30 731 C 65.0205 -4.20935 -3.29724 0
M  V30 732 C 66.3205 -5.06258 -1.28452 0
M  V30 733 H 68.0145 -2.95788 -0.463645 0
M  V30 734 H 65.5605 -1.42285 -0.221573 0
M  V30 735 H 67.5135 -3.05886 -2.89848 0
M  V30 736 H 66.2375 -1.83147 -2.70416 0
M  V30 737 H 64.8965 -3.43037 -1.2931 0
M  V30 738 H 64.5445 -3.33298 -3.76724 0
M  V30 739 H 64.2445 -4.9707 -3.13361 0
M  V30 740 H 65.7685 -4.61666 -3.9962 0
M  V30 741 H 67.1825 -5.41903 -1.8712 0
M  V30 742 H 65.5795 -5.87475 -1.22445 0
M  V30 743 H 66.6495 -4.84207 -0.259219 0
M  V30 744 N 67.9926 0.231505 -1.5589 0
M  V30 745 C 68.9406 1.30649 -1.92441 0
M  V30 746 C 69.9346 1.49037 -0.805254 0
M  V30 747 O 71.1406 1.50329 -0.990007 0
M  V30 748 H 67.5156 0.437812 -0.611412 0
M  V30 749 H 69.4866 0.970973 -2.82161 0
M  V30 750 C 68.2356 2.65179 -2.24889 0
M  V30 751 H 67.5586 2.51835 -3.10514 0
M  V30 752 H 68.9986 3.39234 -2.54355 0
M  V30 753 C 67.4576 3.19439 -1.07054 0
M  V30 754 O 67.9876 4.00371 -0.326499 0
M  V30 755 N 66.1936 2.77675 -0.85703 0
M  V30 756 H 65.7406 2.11969 -1.46379 0
M  V30 757 H 65.6986 3.14321 -0.0703223 0
M  V30 758 N 69.4707 1.49531 0.497807 0
M  V30 759 C 70.3807 1.69176 1.62532 0
M  V30 760 C 71.3967 0.5744 1.64246 0
M  V30 761 O 72.5727 0.849497 1.82608 0
M  V30 762 C 69.6377 1.75695 2.98885 0
M  V30 763 C 68.6987 2.9929 3.07773 0
M  V30 764 C 67.9317 3.05488 4.37622 0
M  V30 765 O 68.1547 2.19192 5.26603 0
M  V30 766 O 67.0887 3.9798 4.51548 0
M  V30 767 H 70.9147 2.647 1.48887 0
M  V30 768 H 68.4997 1.3331 0.674441 0
M  V30 769 H 70.3817 1.82317 3.79919 0
M  V30 770 H 69.0567 0.8335 3.12785 0
M  V30 771 H 67.9637 2.98183 2.25915 0
M  V30 772 H 69.2967 3.91125 2.98801 0
M  V30 773 N 70.9488 -0.749086 1.3866 0
M  V30 774 C 71.8588 -1.89358 1.38494 0
M  V30 775 C 72.8748 -1.71708 0.281476 0
M  V30 776 O 74.0508 -1.94554 0.520643 0
M  V30 777 C 71.1158 -3.24782 1.21316 0
M  V30 778 C 70.1768 -3.54926 2.41508 0
M  V30 779 C 69.4098 -4.83888 2.2514 0
M  V30 780 O 69.6328 -5.56592 1.24746 0
M  V30 781 O 68.5668 -5.13612 3.13826 0
M  V30 782 H 72.3928 -1.92452 2.34938 0
M  V30 783 H 69.9778 -0.894981 1.19626 0
M  V30 784 H 71.8598 -4.05739 1.13814 0
M  V30 785 H 70.5348 -3.2249 0.279592 0
M  V30 786 H 69.4418 -2.74112 2.54585 0
M  V30 787 H 70.7748 -3.61983 3.3351 0
M  V30 788 N 72.4269 -1.23603 -0.977757 0
M  V30 789 C 73.3769 -0.986664 -2.05545 0
M  V30 790 C 74.3609 0.0683009 -1.60755 0
M  V30 791 O 75.5529 -0.144162 -1.76412 0
M  V30 792 C 72.6819 -0.582623 -3.3832 0
M  V30 793 C 71.7679 -1.67313 -3.89701 0
M  V30 794 N 72.1589 -2.90394 -4.14132 0
M  V30 795 C 70.4569 -1.54832 -4.18262 0
M  V30 796 C 71.1579 -3.61017 -4.56116 0
M  V30 797 N 70.1339 -2.8854 -4.60701 0
M  V30 798 H 73.9359 -1.92139 -2.22396 0
M  V30 799 H 71.4499 -1.1358 -1.16074 0
M  V30 800 H 73.4469 -0.38524 -4.15116 0
M  V30 801 H 72.1069 0.34503 -3.22862 0
M  V30 802 H 73.1179 -3.26673 -4.01877 0
M  V30 803 H 69.7949 -0.687969 -4.11793 0
M  V30 804 H 71.1849 -4.66544 -4.83514 0
M  V30 805 N 73.905 1.17692 -1.04816 0
M  V30 806 C 75.152 1.87859 -0.75599 0
M  V30 807 C 75.48 1.80812 0.716752 0
M  V30 808 O 74.735 1.20819 1.53952 0
M  V30 809 C 75.034 3.37462 -1.17703 0
M  V30 810 C 74.7 3.64713 -2.65133 0
M  V30 811 C 73.362 3.71859 -3.05408 0
M  V30 812 C 75.714 3.76492 -3.60421 0
M  V30 813 C 73.042 3.88271 -4.39843 0
M  V30 814 C 75.394 3.94421 -4.94585 0
M  V30 815 C 74.058 3.99806 -5.3452 0
M  V30 816 H 73.328 0.687425 -0.276636 0
M  V30 817 H 75.975 1.39255 -1.31455 0
M  V30 818 H 74.28 3.88097 -0.537395 0
M  V30 819 H 75.977 3.90109 -0.928218 0
M  V30 820 H 72.567 3.59772 -2.32942 0
M  V30 821 H 76.751 3.70295 -3.30447 0
M  V30 822 H 72.007 3.90687 -4.70291 0
M  V30 823 H 76.181 4.02477 -5.68318 0
M  V30 824 H 73.808 4.12276 -6.38696 0
M  V30 825 N 75.3831 0.828654 1.34056 0
M  V30 826 C 76.7991 0.515135 1.51058 0
M  V30 827 C 76.9991 -0.959581 1.77184 0
M  V30 828 O 76.0551 -1.74382 1.82612 0
M  V30 829 C 77.3681 1.37963 2.67183 0
M  V30 830 C 78.9161 1.37735 2.81066 0
M  V30 831 C 79.3911 2.22645 4.00241 0
M  V30 832 N 80.8821 2.203 4.07458 0
M  V30 833 C 81.6171 2.82744 4.98842 0
M  V30 834 N 81.1131 3.54201 5.9541 0
M  V30 835 N 82.9061 2.72268 4.91759 0
M  V30 836 H 75.0571 1.78343 1.15358 0
M  V30 837 H 77.3201 0.760304 0.566252 0
M  V30 838 H 77.0261 2.42714 2.54525 0
M  V30 839 H 76.9001 1.0484 3.62338 0
M  V30 840 H 79.2871 0.337593 2.93163 0
M  V30 841 H 79.3681 1.74859 1.86703 0
M  V30 842 H 79.0121 3.26674 3.88905 0
M  V30 843 H 78.9421 1.82869 4.93829 0
M  V30 844 H 81.4331 1.68327 3.38341 0
M  V30 845 H 81.7461 3.9908 6.61782 0
M  V30 846 H 80.0911 3.58308 5.95517 0
M  V30 847 H 83.2821 2.16014 4.15278 0
M  V30 848 H 83.4551 3.21219 5.62781 0
M  V30 849 N 76.8612 -1.46375 0.584142 0
M  V30 850 C 78.1092 -2.01978 0.0701287 0
M  V30 851 C 78.4302 -1.4579 -1.295 0
M  V30 852 O 77.7002 -0.64314 -1.85042 0
M  V30 853 H 76.2802 -0.746648 0.0229345 0
M  V30 854 H 78.9422 -1.79461 0.760245 0
M  V30 855 H 78.0382 -3.121 0.0022064 0
M  V30 856 N 78.3393 -0.321999 -1.54275 0
M  V30 857 C 79.2713 0.578671 -2.21775 0
M  V30 858 C 80.2843 1.08109 -1.21722 0
M  V30 859 O 81.4733 0.994938 -1.482 0
M  V30 860 C 78.5733 1.80661 -2.86731 0
M  V30 861 C 77.7463 1.44314 -4.12907 0
M  V30 862 C 76.8053 2.52845 -4.61472 0
M  V30 863 O 75.8313 2.17054 -5.2619 0
M  V30 864 N 77.0333 3.83748 -4.35566 0
M  V30 865 H 79.7983 0.000709447 -2.997 0
M  V30 866 H 77.3593 -0.145132 -1.61248 0
M  V30 867 H 79.3513 2.52655 -3.16145 0
M  V30 868 H 77.9213 2.29245 -2.12521 0
M  V30 869 H 77.1413 0.554906 -3.90275 0
M  V30 870 H 78.4293 1.17598 -4.95023 0
M  V30 871 H 77.8273 4.15625 -3.83761 0
M  V30 872 H 76.3843 4.51977 -4.69638 0
M  V30 873 N 79.8174 1.5752 -0.0501392 0
M  V30 874 C 80.7274 2.14952 0.939827 0
M  V30 875 C 81.7434 1.10706 1.34239 0
M  V30 876 O 82.9194 1.42869 1.41952 0
M  V30 877 C 79.9844 2.68232 2.19665 0
M  V30 878 C 79.0454 3.87272 1.85253 0
M  V30 879 C 78.2784 4.38002 3.04943 0
M  V30 880 O 78.5014 3.87811 4.18281 0
M  V30 881 O 77.4354 5.29602 2.86017 0
M  V30 882 H 81.2614 2.9986 0.481392 0
M  V30 883 H 78.8464 1.4841 0.171699 0
M  V30 884 H 80.7284 3.02475 2.93406 0
M  V30 885 H 79.4034 1.86395 2.64648 0
M  V30 886 H 78.3104 3.5792 1.0883 0
M  V30 887 H 79.6434 4.70336 1.4507 0
M  V30 888 N 81.2955 -0.223234 1.56011 0
M  V30 889 C 82.5425 -0.947875 1.78946 0
M  V30 890 C 82.8705 -1.844 0.618608 0
M  V30 891 O 82.1255 -1.91629 -0.397093 0
M  V30 892 C 82.4245 -1.81948 3.0762 0
M  V30 893 C 82.0905 -1.07672 4.37856 0
M  V30 894 C 80.7525 -0.871544 4.73242 0
M  V30 895 C 83.1045 -0.552081 5.18268 0
M  V30 896 C 80.4325 -0.129791 5.86556 0
M  V30 897 C 82.7845 0.17632 6.32354 0
M  V30 898 C 81.4485 0.39277 6.66343 0
M  V30 899 H 80.7185 -0.346852 0.654809 0
M  V30 900 H 83.3655 -0.216171 1.90276 0
M  V30 901 H 81.6705 -2.61899 2.91404 0
M  V30 902 H 83.3675 -2.38227 3.22566 0
M  V30 903 H 79.9575 -1.24662 4.1007 0
M  V30 904 H 84.1415 -0.698076 4.91366 0
M  V30 905 H 79.3975 0.048153 6.11381 0
M  V30 906 H 83.5715 0.590367 6.93893 0
M  V30 907 H 81.1985 0.969466 7.53993 0
M  V30 908 N 82.7736 -1.49793 -0.48987 0
M  V30 909 C 83.7206 -1.67281 -1.59014 0
M  V30 910 C 84.6906 -0.514177 -1.57941 0
M  V30 911 O 85.8756 -0.742533 -1.75759 0
M  V30 912 C 83.0156 -1.75569 -2.97102 0
M  V30 913 C 82.1286 -3.0281 -3.08107 0
M  V30 914 C 81.2636 -3.02008 -4.36995 0
M  V30 915 C 80.3026 -4.23782 -4.41673 0
M  V30 916 N 79.4396 -4.20826 -5.62005 0
M  V30 917 H 84.2796 -2.61224 -1.43409 0
M  V30 918 H 81.8166 -1.29508 -0.697565 0
M  V30 919 H 83.7746 -1.78354 -3.77155 0
M  V30 920 H 82.4046 -0.850827 -3.11385 0
M  V30 921 H 81.4566 -3.09584 -2.21047 0
M  V30 922 H 82.7686 -3.92801 -3.07423 0
M  V30 923 H 81.9226 -3.03418 -5.25378 0
M  V30 924 H 80.6616 -2.09815 -4.4026 0
M  V30 925 H 79.6666 -4.22604 -3.5169 0
M  V30 926 H 80.8916 -5.17181 -4.40115 0
M  V30 927 H 78.8376 -3.31476 -5.66091 0
M  V30 928 H 78.7546 -5.04564 -5.62984 0
M  V30 929 H 80.0226 -4.26355 -6.52565 0
M  V30 930 N 84.2517 0.741722 -1.39055 0
M  V30 931 C 85.5287 1.49252 -1.26425 0
M  V30 932 C 85.9087 2.10705 0.129144 0
M  V30 933 O 85.2567 1.98045 1.13976 0
M  V30 934 C 85.4667 2.54934 -2.38347 0
M  V30 935 C 86.8147 3.21506 -2.77343 0
M  V30 936 O 87.8387 2.65245 -2.37747 0
M  V30 937 O 86.6977 4.23294 -3.45665 0
M  V30 938 H 83.7917 0.662451 -0.495064 0
M  V30 939 H 86.3377 0.776121 -1.50912 0
M  V30 940 H 85.1097 2.07857 -3.31529 0
M  V30 941 H 84.7327 3.34141 -2.15489 0
M  V30 942 N 85.7298 1.2412 0.971189 0
M  V30 943 C 86.6798 0.997551 2.05019 0
M  V30 944 C 87.6638 -0.0597747 1.60789 0
M  V30 945 O 88.8558 0.153516 1.76333 0
M  V30 946 C 85.9848 0.600557 3.38006 0
M  V30 947 C 85.0708 1.69377 3.88809 0
M  V30 948 N 85.4618 2.92586 4.12586 0
M  V30 949 C 83.7598 1.57048 4.17435 0
M  V30 950 C 84.4608 3.63431 4.54195 0
M  V30 951 N 83.4368 2.90979 4.59165 0
M  V30 952 H 87.2388 1.93316 2.21374 0
M  V30 953 H 84.7528 1.14194 1.1547 0
M  V30 954 H 86.7498 0.40725 4.14906 0
M  V30 955 H 85.4098 -0.327903 3.2304 0
M  V30 956 H 86.4208 3.288 4.00139 0
M  V30 957 H 83.0978 0.709798 4.11422 0
M  V30 958 H 84.4878 4.69102 4.81033 0
M  V30 959 N 87.2079 -1.17134 1.05439 0
M  V30 960 C 88.1709 -2.19439 0.661764 0
M  V30 961 C 89.1709 -1.58199 -0.288042 0
M  V30 962 O 90.3609 -1.74053 -0.0715803 0
M  V30 963 C 87.4929 -3.40889 -0.0276209 0
M  V30 964 H 88.6859 -2.55688 1.56728 0
M  V30 965 H 86.2389 -1.31259 0.848567 0
M  V30 966 H 86.9739 -3.10187 -0.94629 0
M  V30 967 H 86.7589 -3.86586 0.655238 0
M  V30 968 H 88.2489 -4.16603 -0.288342 0
M  V30 969 N 88.686 -0.835752 -1.33615 0
M  V30 970 C 90.102 -0.523139 -1.50783 0
M  V30 971 C 90.302 0.950171 -1.77691 0
M  V30 972 O 89.358 1.73411 -1.83534 0
M  V30 973 C 90.671 -1.39378 -2.66448 0
M  V30 974 C 92.219 -1.39223 -2.80332 0
M  V30 975 C 92.694 -2.24765 -3.99055 0
M  V30 976 N 94.185 -2.22458 -4.06284 0
M  V30 977 C 94.92 -2.85386 -4.97336 0
M  V30 978 N 94.416 -3.57354 -5.93523 0
M  V30 979 N 96.209 -2.74872 -4.90308 0
M  V30 980 H 88.36 -1.78952 -1.14411 0
M  V30 981 H 90.623 -0.763297 -0.562212 0
M  V30 982 H 90.329 -2.44061 -2.53234 0
M  V30 983 H 90.203 -1.0676 -3.61776 0
M  V30 984 H 92.59 -0.353136 -2.92979 0
M  V30 985 H 92.671 -1.75846 -1.85773 0
M  V30 986 H 92.315 -3.28732 -3.87167 0
M  V30 987 H 92.245 -1.85485 -4.92852 0
M  V30 988 H 94.736 -1.70119 -3.37443 0
M  V30 989 H 95.049 -4.02584 -6.59656 0
M  V30 990 H 93.394 -3.61461 -5.93608 0
M  V30 991 H 96.585 -2.18213 -4.14126 0
M  V30 992 H 96.758 -3.24199 -5.61069 0
M  V30 993 N 90.1641 1.46063 -0.591896 0
M  V30 994 C 91.5751 1.85944 -0.167822 0
M  V30 995 C 91.9261 1.49429 1.27143 0
M  V30 996 O 91.0511 0.913515 1.96173 0
M  V30 997 C 91.6461 3.37489 -0.297794 0
M  V30 998 C 90.2051 3.76332 0.0714732 0
M  V30 999 C 89.3521 2.7006 -0.629509 0
M  V30 1000 H 92.3031 1.37087 -0.799555 0
M  V30 1001 H 92.3241 3.77532 0.474349 0
M  V30 1002 H 91.8361 3.64034 -1.3454 0
M  V30 1003 H 89.9371 3.55405 1.11886 0
M  V30 1004 H 90.0501 4.78088 -0.311245 0
M  V30 1005 H 88.4141 2.54607 -0.0687867 0
M  V30 1006 H 89.1971 2.99444 -1.67894 0
M  V30 1007 N 91.6422 0.330177 1.54103 0
M  V30 1008 C 92.5722 -0.525353 2.27513 0
M  V30 1009 C 93.5532 -1.11383 1.2856 0
M  V30 1010 O 94.7382 -1.13773 1.57383 0
M  V30 1011 C 91.8682 -1.6831 3.03791 0
M  V30 1012 C 90.8222 -1.2236 4.10137 0
M  V30 1013 C 90.1482 -2.46882 4.74293 0
M  V30 1014 C 91.4482 -0.333697 5.21233 0
M  V30 1015 H 93.1422 0.087013 2.99274 0
M  V30 1016 H 90.6882 0.0432893 1.43935 0
M  V30 1017 H 92.6412 -2.28795 3.5388 0
M  V30 1018 H 91.3652 -2.32216 2.29659 0
M  V30 1019 H 90.0242 -0.64165 3.60941 0
M  V30 1020 H 89.6722 -3.09165 3.96769 0
M  V30 1021 H 89.3722 -2.16825 5.46133 0
M  V30 1022 H 90.8962 -3.08117 5.27159 0
M  V30 1023 H 92.3102 -0.845013 5.67038 0
M  V30 1024 H 90.7072 -0.125612 5.99969 0
M  V30 1025 H 91.7772 0.633724 4.80741 0
M  V30 1026 N 93.1203 -1.57491 0.0584922 0
M  V30 1027 C 94.0673 -2.11958 -0.913376 0
M  V30 1028 C 95.0373 -1.02875 -1.30407 0
M  V30 1029 O 96.2223 -1.30464 -1.39226 0
M  V30 1030 C 93.3623 -2.67497 -2.18035 0
M  V30 1031 C 92.4753 -3.90691 -1.84349 0
M  V30 1032 C 91.6103 -4.3452 -3.05559 0
M  V30 1033 C 90.6493 -5.50395 -2.67827 0
M  V30 1034 N 89.7863 -5.89244 -3.81754 0
M  V30 1035 H 94.6263 -2.94704 -0.442017 0
M  V30 1036 H 92.1633 -1.45643 -0.206545 0
M  V30 1037 H 94.1213 -2.978 -2.92183 0
M  V30 1038 H 92.7513 -1.87537 -2.62735 0
M  V30 1039 H 91.8033 -3.66934 -1.00319 0
M  V30 1040 H 93.1153 -4.7489 -1.5258 0
M  V30 1041 H 92.2693 -4.66414 -3.87998 0
M  V30 1042 H 91.0083 -3.49147 -3.40511 0
M  V30 1043 H 90.0133 -5.18165 -1.83806 0
M  V30 1044 H 91.2383 -6.3749 -2.34059 0
M  V30 1045 H 89.1843 -5.06823 -4.16493 0
M  V30 1046 H 89.1013 -6.68151 -3.53708 0
M  V30 1047 H 90.3693 -6.25756 -4.64811 0
M  V30 1048 N 94.5984 0.214957 -1.56127 0
M  V30 1049 C 95.8464 0.936518 -1.79091 0
M  V30 1050 C 96.1674 1.84606 -0.628148 0
M  V30 1051 O 95.4374 1.92664 0.35462 0
M  V30 1052 H 94.0174 0.3488 -0.660566 0
M  V30 1053 H 96.6794 0.22523 -1.93594 0
M  V30 1054 H 95.7754 1.53943 -2.71492 0
M  V30 1055 N 96.0765 1.50051 0.48192 0
M  V30 1056 C 97.0245 1.68635 1.60203 0
M  V30 1057 C 98.0185 0.552184 1.60148 0
M  V30 1058 O 99.2245 0.732377 1.64427 0
M  V30 1059 H 95.5995 0.532081 0.531407 0
M  V30 1060 H 97.5705 2.62616 1.41688 0
M  V30 1061 C 96.3195 1.78775 2.9822 0
M  V30 1062 H 95.6425 2.6543 2.98976 0
M  V30 1063 H 97.0825 1.95806 3.7608 0
M  V30 1064 C 95.5415 0.536849 3.32595 0
M  V30 1065 O 96.0715 -0.328897 4.00351 0
M  V30 1066 N 94.2775 0.394091 2.87915 0
M  V30 1067 H 93.8245 1.09962 2.32951 0
M  V30 1068 H 93.7825 -0.441737 3.11281 0
M  V30 1069 N 97.5546 -0.734337 1.39446 0
M  V30 1070 C 98.5026 -1.86971 1.38364 0
M  V30 1071 C 99.4966 -1.67288 0.266687 0
M  V30 1072 O 100.703 -1.74621 0.436755 0
M  V30 1073 H 97.0776 -0.615474 0.432082 0
M  V30 1074 H 99.0486 -1.85 2.34132 0
M  V30 1075 C 97.7976 -3.2466 1.24465 0
M  V30 1076 H 97.1206 -3.40402 2.09682 0
M  V30 1077 H 98.5606 -4.04292 1.27764 0
M  V30 1078 C 97.0196 -3.36867 -0.0468674 0
M  V30 1079 O 97.5496 -3.88618 -1.01681 0
M  V30 1080 N 95.7556 -2.90391 -0.110145 0
M  V30 1081 H 95.3026 -2.48466 0.679868 0
M  V30 1082 H 95.2606 -2.98939 -0.973799 0
M  V30 1083 N 99.0327 -1.24633 -0.964593 0
M  V30 1084 C 100.31 -0.995809 -1.68354 0
M  V30 1085 C 100.69 0.480964 -2.05548 0
M  V30 1086 O 100.038 1.45599 -1.76105 0
M  V30 1087 C 100.248 -1.92177 -2.91323 0
M  V30 1088 C 101.596 -2.19446 -3.63495 0
M  V30 1089 O 102.62 -1.89855 -3.01386 0
M  V30 1090 O 101.479 -2.69714 -4.75307 0
M  V30 1091 H 98.5727 -0.376854 -0.736146 0
M  V30 1092 H 101.119 -1.35745 -1.0184 0
M  V30 1093 H 99.8907 -2.91938 -2.60553 0
M  V30 1094 H 99.5137 -1.56349 -3.65569 0
M  V30 1095 N 100.511 1.16574 -1.06058 0
M  V30 1096 C 101.76 1.86385 -0.770944 0
M  V30 1097 C 102.073 1.82448 0.705129 0
M  V30 1098 O 103.279 2.47815 1.10905 0
M  V30 1099 C 101.735 3.34466 -1.32893 0
M  V30 1100 C 101.343 3.46883 -2.83507 0
M  V30 1101 C 103.087 4.09548 -1.11672 0
M  V30 1102 C 100.994 4.89036 -3.32562 0
M  V30 1103 H 99.9238 0.698181 -0.284709 0
M  V30 1104 H 102.575 1.31583 -1.27899 0
M  V30 1105 H 100.957 3.88859 -0.748662 0
M  V30 1106 H 102.131 3.02663 -3.47465 0
M  V30 1107 H 100.446 2.85232 -3.03368 0
M  V30 1108 H 103.043 5.14434 -1.45814 0
M  V30 1109 H 103.386 4.16264 -0.0549535 0
M  V30 1110 H 103.919 3.61387 -1.66265 0
M  V30 1111 H 100.658 4.87499 -4.38207 0
M  V30 1112 H 100.178 5.3389 -2.73351 0
M  V30 1113 H 101.857 5.57843 -3.2775 0
M  V30 1114 N 101.989 0.842826 1.3317 0
M  V30 1115 C 102.919 0.294028 2.31641 0
M  V30 1116 C 103.9 -0.600401 1.59151 0
M  V30 1117 O 105.085 -0.523124 1.87022 0
M  V30 1118 C 102.215 -0.528416 3.43257 0
M  V30 1119 C 101.169 0.27056 4.27144 0
M  V30 1120 C 100.495 -0.675881 5.30411 0
M  V30 1121 C 101.795 1.48981 5.00602 0
M  V30 1122 H 103.489 1.11681 2.77791 0
M  V30 1123 H 101.035 0.538478 1.33553 0
M  V30 1124 H 102.988 -0.922674 4.11175 0
M  V30 1125 H 101.712 -1.38445 2.95805 0
M  V30 1126 H 100.371 0.646427 3.60856 0
M  V30 1127 H 100.019 -1.52842 4.79216 0
M  V30 1128 H 99.7189 -0.145374 5.8742 0
M  V30 1129 H 101.243 -1.06757 6.01195 0
M  V30 1130 H 102.657 1.16849 5.61266 0
M  V30 1131 H 101.054 1.95739 5.6728 0
M  V30 1132 H 102.124 2.25746 4.29147 0
M  V30 1133 N 103.467 -1.45747 0.599634 0
M  V30 1134 C 104.692 -2.07178 0.0960198 0
M  V30 1135 C 105.117 -1.44268 -1.207 0
M  V30 1136 O 104.475 -0.532503 -1.73303 0
M  V30 1137 C 104.523 -3.60579 -0.0385348 0
M  V30 1138 O 103.627 -3.97713 -1.0908 0
M  V30 1139 H 102.968 -0.660251 0.0704593 0
M  V30 1140 H 105.498 -1.87124 0.827385 0
M  V30 1141 H 105.508 -4.07298 -0.239304 0
M  V30 1142 H 104.183 -4.05756 0.912947 0
M  V30 1143 H 102.76 -3.62678 -0.867135 0
M  V30 1144 N 104.945 -0.338344 -1.53925 0
M  V30 1145 C 106.194 0.260732 -2.00008 0
M  V30 1146 C 106.507 1.52073 -1.23017 0
M  V30 1147 O 107.713 2.19672 -1.5955 0
M  V30 1148 C 106.169 0.51515 -3.56194 0
M  V30 1149 C 105.777 -0.728645 -4.42035 0
M  V30 1150 C 107.521 1.07337 -4.10706 0
M  V30 1151 C 105.428 -0.445315 -5.89721 0
M  V30 1152 H 104.358 0.101205 -0.747177 0
M  V30 1153 H 107.009 -0.452866 -1.77824 0
M  V30 1154 H 105.391 1.28932 -3.74423 0
M  V30 1155 H 106.565 -1.50352 -4.35581 0
M  V30 1156 H 104.88 -1.20813 -3.98489 0
M  V30 1157 H 107.477 1.30022 -5.18651 0
M  V30 1158 H 107.82 2.0273 -3.63602 0
M  V30 1159 H 108.353 0.360034 -3.96167 0
M  V30 1160 H 105.092 -1.36883 -6.41049 0
M  V30 1161 H 104.612 0.291569 -5.99091 0
M  V30 1162 H 106.291 -0.0606218 -6.46972 0
M  V30 1163 N 106.423 1.57458 -0.0668435 0
M  V30 1164 C 107.651 1.97624 0.612565 0
M  V30 1165 C 108.066 0.94502 1.63447 0
M  V30 1166 O 107.423 -0.0689276 1.8237 0
M  V30 1167 C 107.474 3.37869 1.28555 0
M  V30 1168 O 107.195 4.3704 0.304557 0
M  V30 1169 C 108.696 3.92882 2.05325 0
M  V30 1170 H 105.916 0.650045 0.166381 0
M  V30 1171 H 108.46 2.04035 -0.137782 0
M  V30 1172 H 106.615 3.3256 1.98702 0
M  V30 1173 H 107.029 5.18565 0.786779 0
M  V30 1174 H 108.503 4.93247 2.47812 0
M  V30 1175 H 108.98 3.29156 2.9078 0
M  V30 1176 H 109.586 4.01577 1.40056 0
M  V30 1177 N 107.901 -0.206675 1.56239 0
M  V30 1178 C 108.833 -1.27997 1.9013 0
M  V30 1179 C 109.846 -1.42299 0.790883 0
M  V30 1180 O 111.035 -1.42931 1.06925 0
M  V30 1181 C 108.135 -2.65368 2.10792 0
M  V30 1182 C 107.308 -2.72824 3.41886 0
M  V30 1183 C 106.367 -3.9131 3.51799 0
M  V30 1184 O 105.393 -3.78953 4.24716 0
M  V30 1185 N 106.595 -5.06265 2.84035 0
M  V30 1186 H 109.36 -0.992444 2.82791 0
M  V30 1187 H 106.921 -0.396652 1.56966 0
M  V30 1188 H 108.913 -3.43039 2.14724 0
M  V30 1189 H 107.483 -2.86657 1.24685 0
M  V30 1190 H 106.703 -1.81515 3.49923 0
M  V30 1191 H 107.991 -2.74786 4.28217 0
M  V30 1192 H 107.389 -5.19203 2.246 0
M  V30 1193 H 105.946 -5.81925 2.93609 0
M  V30 1194 N 109.379 -1.50304 -0.473955 0
M  V30 1195 C 110.79 -1.54042 -1.0549 0
M  V30 1196 C 111.141 -0.342248 -1.93192 0
M  V30 1197 O 110.266 0.545157 -2.09421 0
M  V30 1198 C 110.861 -2.79152 -1.91989 0
M  V30 1199 C 109.42 -2.8558 -2.45196 0
M  V30 1200 C 108.567 -2.48295 -1.2347 0
M  V30 1201 H 111.518 -1.5661 -0.256693 0
M  V30 1202 H 111.539 -2.60845 -2.7702 0
M  V30 1203 H 111.051 -3.66339 -1.28131 0
M  V30 1204 H 109.152 -2.02738 -3.12615 0
M  V30 1205 H 109.265 -3.88403 -2.80499 0
M  V30 1206 H 107.629 -2.00669 -1.56856 0
M  V30 1207 H 108.412 -3.37787 -0.612789 0
M  V30 1208 N 110.857 0.726932 -1.39834 0
M  V30 1209 C 112.134 1.47902 -1.28001 0
M  V30 1210 C 112.514 2.1083 0.106789 0
M  V30 1211 O 111.862 1.99242 1.11869 0
M  V30 1212 C 112.072 2.52392 -2.41038 0
M  V30 1213 C 113.42 3.18546 -2.80737 0
M  V30 1214 O 114.444 2.62708 -2.40547 0
M  V30 1215 O 113.303 4.19604 -3.50135 0
M  V30 1216 H 110.397 0.657163 -0.502062 0
M  V30 1217 H 112.943 0.760071 -1.51727 0
M  V30 1218 H 111.715 2.04329 -3.33715 0
M  V30 1219 H 111.338 3.31837 -2.19021 0
M  V30 1220 N 112.336 1.25143 0.95797 0
M  V30 1221 C 113.582 1.09855 1.70469 0
M  V30 1222 C 113.915 -0.360187 1.90831 0
M  V30 1223 O 113.19 -1.26568 1.47685 0
M  V30 1224 C 113.473 1.8497 3.08963 0
M  V30 1225 C 113.326 3.38652 2.96032 0
M  V30 1226 C 114.645 1.63016 4.08795 0
M  V30 1227 H 111.764 0.400465 0.618706 0
M  V30 1228 H 114.406 1.53933 1.11376 0
M  V30 1229 H 112.556 1.47505 3.59409 0
M  V30 1230 H 114.228 3.85772 2.52938 0
M  V30 1231 H 112.471 3.66534 2.32025 0
M  V30 1232 H 113.142 3.8642 3.94187 0
M  V30 1233 H 115.618 1.95625 3.67247 0
M  V30 1234 H 114.494 2.18015 5.03747 0
M  V30 1235 H 114.755 0.570692 4.38401 0
M  V30 1236 N 113.814 -1.1601 1.06675 0
M  V30 1237 C 115.063 -1.85973 0.780818 0
M  V30 1238 C 115.376 -1.82819 -0.695444 0
M  V30 1239 O 116.582 -2.484 -1.09589 0
M  V30 1240 C 115.038 -3.33757 1.34665 0
M  V30 1241 C 114.646 -3.45374 2.85343 0
M  V30 1242 C 116.39 -4.0895 1.13843 0
M  V30 1243 C 114.297 -4.87266 3.35151 0
M  V30 1244 H 113.227 -0.696661 0.288407 0
M  V30 1245 H 115.878 -1.30903 1.28595 0
M  V30 1246 H 114.26 -3.88456 0.769274 0
M  V30 1247 H 115.434 -3.00816 3.49065 0
M  V30 1248 H 113.749 -2.83619 3.04876 0
M  V30 1249 H 116.346 -5.13654 1.4854 0
M  V30 1250 H 116.689 -4.16229 0.0770282 0
M  V30 1251 H 117.222 -3.605 1.68179 0
M  V30 1252 H 113.961 -4.85168 4.40786 0
M  V30 1253 H 113.481 -5.32433 2.76179 0
M  V30 1254 H 115.16 -5.56097 3.30704 0
M  V30 1255 N 115.292 -0.849877 -1.32721 0
M  V30 1256 C 116.522 -0.46408 -2.0132 0
M  V30 1257 C 116.93 0.94246 -1.64056 0
M  V30 1258 O 116.273 1.6257 -0.855379 0
M  V30 1259 C 116.335 -0.517887 -3.5575 0
M  V30 1260 C 115.999 -1.88248 -4.16427 0
M  V30 1261 C 116.996 -2.84726 -4.35002 0
M  V30 1262 C 114.681 -2.17832 -4.52609 0
M  V30 1263 C 116.675 -4.08945 -4.8892 0
M  V30 1264 C 114.362 -3.42304 -5.06232 0
M  V30 1265 C 115.36 -4.37677 -5.24335 0
M  V30 1266 O 115.048 -5.59946 -5.76815 0
M  V30 1267 H 114.78 -0.181327 -0.651227 0
M  V30 1268 H 117.334 -1.14713 -1.70382 0
M  V30 1269 H 115.564 0.221997 -3.86062 0
M  V30 1270 H 117.253 -0.148366 -4.05629 0
M  V30 1271 H 118.019 -2.63174 -4.07388 0
M  V30 1272 H 113.898 -1.44385 -4.37806 0
M  V30 1273 H 117.442 -4.83396 -5.02966 0
M  V30 1274 H 113.339 -3.63709 -5.33278 0
M  V30 1275 H 114.107 -5.61838 -5.95214 0
M  V30 1276 N 116.77 1.45427 -0.607355 0
M  V30 1277 C 117.702 2.2871 0.149752 0
M  V30 1278 C 118.715 1.39937 0.831958 0
M  V30 1279 O 119.904 1.64313 0.697385 0
M  V30 1280 C 117.004 3.15673 1.23304 0
M  V30 1281 C 116.177 4.32722 0.637996 0
M  V30 1282 C 115.236 5.00895 1.61215 0
M  V30 1283 O 114.262 5.57697 1.13854 0
M  V30 1284 N 115.464 5.00159 2.94655 0
M  V30 1285 H 118.229 2.94328 -0.564882 0
M  V30 1286 H 115.79 1.55612 -0.446823 0
M  V30 1287 H 117.782 3.58144 1.88454 0
M  V30 1288 H 116.352 2.51965 1.8502 0
M  V30 1289 H 115.572 3.93734 -0.191572 0
M  V30 1290 H 116.86 5.08321 0.220665 0
M  V30 1291 H 116.258 4.553 3.35735 0
M  V30 1292 H 114.815 5.46495 3.55228 0
M  V30 1293 N 118.248 0.346503 1.53744 0
M  V30 1294 C 119.497 -0.250122 2.00143 0
M  V30 1295 C 119.81 -1.51418 1.23822 0
M  V30 1296 O 121.016 -2.18823 1.60713 0
M  V30 1297 C 119.472 -0.496252 3.56462 0
M  V30 1298 C 119.08 0.752077 4.41642 0
M  V30 1299 C 120.824 -1.05157 4.11269 0
M  V30 1300 C 118.731 0.476583 5.89477 0
M  V30 1301 H 117.661 -0.0972409 0.747703 0
M  V30 1302 H 120.312 0.46229 1.77581 0
M  V30 1303 H 118.694 -1.26944 3.75102 0
M  V30 1304 H 119.868 1.5266 4.34778 0
M  V30 1305 H 118.183 1.22925 3.97842 0
M  V30 1306 H 120.78 -1.27269 5.19333 0
M  V30 1307 H 121.123 -2.00799 3.64672 0
M  V30 1308 H 121.656 -0.339019 3.96353 0
M  V30 1309 H 118.395 1.4028 6.40314 0
M  V30 1310 H 117.915 -0.259794 5.99237 0
M  V30 1311 H 119.594 0.0949315 6.4693 0
M  V30 1312 N 119.726 -1.57421 0.075193 0
M  V30 1313 C 120.676 -2.09441 -0.901025 0
M  V30 1314 C 121.66 -1.00486 -1.25663 0
M  V30 1315 O 122.852 -1.2679 -1.23504 0
M  V30 1316 C 119.981 -2.66233 -2.16737 0
M  V30 1317 C 119.067 -3.82198 -1.83808 0
M  V30 1318 N 119.458 -4.91028 -1.21345 0
M  V30 1319 C 117.756 -3.91558 -2.13538 0
M  V30 1320 C 118.457 -5.71852 -1.06585 0
M  V30 1321 N 117.433 -5.20233 -1.57667 0
M  V30 1322 H 121.235 -2.90972 -0.413815 0
M  V30 1323 H 118.749 -1.6189 -0.128601 0
M  V30 1324 H 120.746 -3.01819 -2.87595 0
M  V30 1325 H 119.406 -1.8615 -2.66042 0
M  V30 1326 H 120.417 -5.10323 -0.88268 0
M  V30 1327 H 117.094 -3.22454 -2.65197 0
M  V30 1328 H 118.484 -6.69401 -0.578933 0
M  V30 1329 N 121.204 0.198386 -1.56346 0
M  V30 1330 C 122.151 1.24589 -1.94284 0
M  V30 1331 C 123.121 1.454 -0.802997 0
M  V30 1332 O 124.306 1.58588 -1.06087 0
M  V30 1333 C 121.446 2.58631 -2.28482 0
M  V30 1334 C 120.559 2.45426 -3.55514 0
M  V30 1335 C 119.694 3.7215 -3.79049 0
M  V30 1336 C 118.733 3.53763 -4.99518 0
M  V30 1337 N 117.87 4.72491 -5.19323 0
M  V30 1338 H 122.71 0.915356 -2.83593 0
M  V30 1339 H 120.247 0.440629 -1.40346 0
M  V30 1340 H 122.205 3.3672 -2.46324 0
M  V30 1341 H 120.835 2.89734 -1.42317 0
M  V30 1342 H 119.887 1.58652 -3.45737 0
M  V30 1343 H 121.199 2.27772 -4.43758 0
M  V30 1344 H 120.353 4.58679 -3.97113 0
M  V30 1345 H 119.092 3.92754 -2.89129 0
M  V30 1346 H 118.097 2.65619 -4.8138 0
M  V30 1347 H 119.322 3.34607 -5.90944 0
M  V30 1348 H 117.268 4.93365 -4.3235 0
M  V30 1349 H 117.185 4.5765 -6.01741 0
M  V30 1350 H 118.453 5.6038 -5.41843 0
M  V30 1351 N 122.682 1.50554 0.465978 0
M  V30 1352 C 123.592 1.72585 1.58907 0
M  V30 1353 C 124.608 0.60911 1.6299 0
M  V30 1354 O 125.784 0.88804 1.80765 0
M  V30 1355 C 122.849 1.81995 2.95091 0
M  V30 1356 C 121.91 3.05751 3.01355 0
M  V30 1357 C 121.143 3.14702 4.31043 0
M  V30 1358 O 121.366 2.30313 5.21835 0
M  V30 1359 O 120.3 4.07468 4.43005 0
M  V30 1360 H 124.126 2.67799 1.43239 0
M  V30 1361 H 121.711 1.34711 0.646013 0
M  V30 1362 H 123.593 1.90335 3.75966 0
M  V30 1363 H 122.268 0.899659 3.10947 0
M  V30 1364 H 121.175 3.02908 2.19539 0
M  V30 1365 H 122.508 3.97375 2.90437 0
M  V30 1366 N 124.16 -0.719506 1.40217 0
M  V30 1367 C 125.39 -1.50646 1.41384 0
M  V30 1368 C 125.798 -1.89197 0.0107743 0
M  V30 1369 O 125.141 -1.55709 -0.974708 0
M  V30 1370 C 125.203 -2.81405 2.23722 0
M  V30 1371 C 124.867 -2.65199 3.72181 0
M  V30 1372 C 125.864 -2.32717 4.64907 0
M  V30 1373 C 123.549 -2.81586 4.1595 0
M  V30 1374 C 125.543 -2.16827 5.99387 0
M  V30 1375 C 123.23 -2.65313 5.50502 0
M  V30 1376 C 124.228 -2.32981 6.42035 0
M  V30 1377 O 123.916 -2.16827 7.74107 0
M  V30 1378 H 123.648 -0.471606 0.484318 0
M  V30 1379 H 126.202 -0.895456 1.84853 0
M  V30 1380 H 124.432 -3.44823 1.75026 0
M  V30 1381 H 126.121 -3.43102 2.16878 0
M  V30 1382 H 126.887 -2.19694 4.32388 0
M  V30 1383 H 122.766 -3.0574 3.45027 0
M  V30 1384 H 126.31 -1.91513 6.70797 0
M  V30 1385 H 122.207 -2.7792 5.82607 0
M  V30 1386 H 122.975 -2.31778 7.84998 0
M  V30 1387 N 125.638 -1.25649 -0.95132 0
M  V30 1388 C 126.568 -1.08808 -2.06599 0
M  V30 1389 C 127.549 0.00382547 -1.701 0
M  V30 1390 O 128.734 -0.166325 -1.93486 0
M  V30 1391 C 125.864 -0.709542 -3.39975 0
M  V30 1392 C 124.818 -1.75206 -3.90496 0
M  V30 1393 C 124.144 -1.22811 -5.20405 0
M  V30 1394 C 125.444 -3.15153 -4.16504 0
M  V30 1395 H 127.138 -2.02048 -2.20946 0
M  V30 1396 H 124.684 -0.972835 -1.06169 0
M  V30 1397 H 126.637 -0.578649 -4.17408 0
M  V30 1398 H 125.361 0.258556 -3.25575 0
M  V30 1399 H 124.02 -1.87145 -3.15234 0
M  V30 1400 H 123.668 -0.250145 -5.02378 0
M  V30 1401 H 123.368 -1.92492 -5.55176 0
M  V30 1402 H 124.892 -1.10968 -6.00432 0
M  V30 1403 H 126.306 -3.06349 -4.84586 0
M  V30 1404 H 124.703 -3.82333 -4.62538 0
M  V30 1405 H 125.773 -3.61966 -3.22658 0
M  V30 1406 N 127.117 1.15442 -1.07289 0
M  V30 1407 C 128.047 2.22312 -0.714107 0
M  V30 1408 C 129.028 1.67467 0.298155 0
M  V30 1409 O 130.213 1.93445 0.171048 0
M  V30 1410 C 127.343 3.47124 -0.110448 0
M  V30 1411 C 126.297 4.14926 -1.04979 0
M  V30 1412 C 125.623 5.33807 -0.308924 0
M  V30 1413 C 126.923 4.64762 -2.38314 0
M  V30 1414 H 128.617 2.5258 -1.6076 0
M  V30 1415 H 126.163 1.21404 -0.77441 0
M  V30 1416 H 128.116 4.21124 0.152482 0
M  V30 1417 H 126.84 3.16187 0.81812 0
M  V30 1418 H 125.499 3.42866 -1.29764 0
M  V30 1419 H 125.147 4.99126 0.623084 0
M  V30 1420 H 124.847 5.80113 -0.935036 0
M  V30 1421 H 126.371 6.10576 -0.0537771 0
M  V30 1422 H 127.785 5.30292 -2.1786 0
M  V30 1423 H 126.182 5.21728 -2.96514 0
M  V30 1424 H 127.252 3.80434 -3.00663 0
M  V30 1425 N 128.595 0.856903 1.32268 0
M  V30 1426 C 129.558 0.308171 2.27119 0
M  V30 1427 C 130.558 -0.533421 1.51695 0
M  V30 1428 O 131.748 -0.344607 1.70757 0
M  V30 1429 C 128.88 -0.563757 3.36206 0
M  V30 1430 H 130.073 1.14535 2.77167 0
M  V30 1431 H 127.626 0.631421 1.42978 0
M  V30 1432 H 128.361 -1.42266 2.91429 0
M  V30 1433 H 128.146 0.0386749 3.92081 0
M  V30 1434 H 129.636 -0.940386 4.06874 0
M  V30 1435 N 130.073 -1.45103 0.615059 0
M  V30 1436 C 131.321 -2.01784 0.112955 0
M  V30 1437 C 131.642 -1.48504 -1.26378 0
M  V30 1438 O 130.912 -0.682245 -1.83636 0
M  V30 1439 H 129.492 -0.745993 0.0387668 0
M  V30 1440 H 132.154 -1.77808 0.798141 0
M  V30 1441 H 131.25 -3.12025 0.0684069 0
M  V30 1442 N 131.551 -0.354651 -1.53558 0
M  V30 1443 C 132.514 0.484566 -2.24019 0
M  V30 1444 C 133.514 1.01861 -1.24422 0
M  V30 1445 O 134.704 0.906097 -1.4878 0
M  V30 1446 C 131.836 1.67615 -2.96847 0
M  V30 1447 H 133.029 -0.131843 -2.9961 0
M  V30 1448 H 130.582 -0.106165 -1.55939 0
M  V30 1449 H 131.317 2.33095 -2.25471 0
M  V30 1450 H 131.102 1.30029 -3.69912 0
M  V30 1451 H 132.592 2.27114 -3.50441 0
M  V30 1452 N 133.029 1.57378 -0.0835403 0
M  V30 1453 C 134.306 1.85363 0.624507 0
M  V30 1454 C 134.686 0.978239 1.87066 0
M  V30 1455 O 134.034 0.0475908 2.2845 0
M  V30 1456 C 134.244 3.35795 0.950947 0
M  V30 1457 C 135.592 4.03581 1.31939 0
M  V30 1458 O 136.616 3.40609 1.04232 0
M  V30 1459 O 135.475 5.14672 1.83779 0
M  V30 1460 H 132.569 0.766162 0.311329 0
M  V30 1461 H 135.115 1.69307 -0.115362 0
M  V30 1462 H 133.887 3.91244 0.0663899 0
M  V30 1463 H 133.51 3.57154 1.74719 0
M  V30 1464 N 134.507 -0.190092 1.56449 0
M  V30 1465 C 135.756 -0.907912 1.80111 0
M  V30 1466 C 136.069 -1.84214 0.657619 0
M  V30 1467 O 137.275 -2.60094 0.778663 0
M  V30 1468 C 135.731 -1.66485 3.19078 0
M  V30 1469 C 135.339 -0.7752 4.41242 0
M  V30 1470 C 137.083 -2.37201 3.52045 0
M  V30 1471 C 134.99 -1.53129 5.71231 0
M  V30 1472 H 133.92 -0.34276 0.671589 0
M  V30 1473 H 136.571 -0.161109 1.82791 0
M  V30 1474 H 134.953 -2.45572 3.10661 0
M  V30 1475 H 136.127 -0.0226298 4.60794 0
M  V30 1476 H 134.442 -0.178627 4.16017 0
M  V30 1477 H 137.039 -2.94329 4.46402 0
M  V30 1478 H 137.382 -3.11632 2.76028 0
M  V30 1479 H 137.915 -1.65075 3.61932 0
M  V30 1480 H 134.654 -0.82967 6.50228 0
M  V30 1481 H 134.174 -2.25767 5.55688 0
M  V30 1482 H 135.853 -2.08377 6.12526 0
M  V30 1483 N 135.985 -1.50799 -0.457987 0
M  V30 1484 C 137.234 -1.6168 -1.20593 0
M  V30 1485 C 137.547 -0.32888 -1.92815 0
M  V30 1486 O 138.753 -0.316773 -2.69646 0
M  V30 1487 C 137.209 -2.8545 -2.19195 0
M  V30 1488 C 136.817 -4.21168 -1.52715 0
M  V30 1489 C 138.561 -3.05681 -2.94549 0
M  V30 1490 C 136.468 -5.3611 -2.4968 0
M  V30 1491 H 135.398 -0.602134 -0.453818 0
M  V30 1492 H 138.049 -1.77245 -0.475031 0
M  V30 1493 H 136.431 -2.63472 -2.95632 0
M  V30 1494 H 137.605 -4.53449 -0.819775 0
M  V30 1495 H 135.92 -4.06648 -0.895922 0
M  V30 1496 H 138.517 -3.88727 -3.67145 0
M  V30 1497 H 138.86 -2.17929 -3.54701 0
M  V30 1498 H 139.393 -3.27901 -2.25223 0
M  V30 1499 H 136.132 -6.26057 -1.94249 0
M  V30 1500 H 135.652 -5.0823 -3.18532 0
M  V30 1501 H 137.331 -5.6722 -3.11241 0
M  V30 1502 N 137.463 0.71206 -1.40597 0
M  V30 1503 C 138.373 1.8562 -1.43466 0
M  V30 1504 C 139.389 1.70902 -0.326902 0
M  V30 1505 O 140.565 1.93105 -0.572043 0
M  V30 1506 C 137.63 3.21451 -1.29884 0
M  V30 1507 C 136.691 3.48398 -2.50833 0
M  V30 1508 C 135.924 4.77749 -2.3789 0
M  V30 1509 O 136.147 5.53089 -1.39459 0
M  V30 1510 O 135.081 5.05111 -3.27333 0
M  V30 1511 H 138.907 1.86155 -2.39958 0
M  V30 1512 H 136.492 0.86295 -1.21957 0
M  V30 1513 H 138.374 4.02579 -1.24531 0
M  V30 1514 H 137.049 3.21636 -0.364997 0
M  V30 1515 H 135.956 2.67265 -2.61763 0
M  V30 1516 H 137.289 3.53014 -3.4299 0
M  V30 1517 N 138.941 1.26152 0.944643 0
M  V30 1518 C 140.169 1.14259 1.72489 0
M  V30 1519 C 140.584 -0.302555 1.8636 0
M  V30 1520 O 139.941 -1.20741 1.36849 0
M  V30 1521 C 139.992 1.80266 3.13347 0
M  V30 1522 O 139.713 3.19133 3.00143 0
M  V30 1523 C 141.214 1.74283 4.07603 0
M  V30 1524 H 138.434 0.398051 0.540181 0
M  V30 1525 H 140.978 1.66706 1.18446 0
M  V30 1526 H 139.133 1.31766 3.64303 0
M  V30 1527 H 139.547 3.51744 3.89071 0
M  V30 1528 H 141.021 2.25111 5.04013 0
M  V30 1529 H 141.498 0.708631 4.33446 0
M  V30 1530 H 142.104 2.22319 3.62567 0
M  V30 1531 N 140.419 -1.14872 1.07899 0
M  V30 1532 C 141.367 -2.21857 0.698727 0
M  V30 1533 C 142.361 -1.66845 -0.293086 0
M  V30 1534 O 143.567 -1.79321 -0.156204 0
M  V30 1535 H 139.942 -0.722691 0.207899 0
M  V30 1536 H 141.913 -2.51205 1.61054 0
M  V30 1537 C 140.662 -3.47498 0.11858 0
M  V30 1538 H 139.985 -3.90154 0.872914 0
M  V30 1539 H 141.425 -4.23858 -0.109759 0
M  V30 1540 C 139.884 -3.16947 -1.1422 0
M  V30 1541 O 140.414 -3.3426 -2.22785 0
M  V30 1542 N 138.62 -2.70946 -1.05055 0
M  V30 1543 H 138.167 -2.57058 -0.167038 0
M  V30 1544 H 138.125 -2.50879 -1.89491 0
M  V30 1545 N 141.898 -0.863906 -1.31812 0
M  V30 1546 C 143.126 -0.486111 -2.01108 0
M  V30 1547 C 143.541 0.919755 -1.64882 0
M  V30 1548 O 142.898 1.60162 -0.874893 0
M  V30 1549 C 142.949 -0.626435 -3.56031 0
M  V30 1550 O 142.67 -1.97693 -3.90959 0
M  V30 1551 C 144.171 -0.248857 -4.42601 0
M  V30 1552 H 141.391 -0.190052 -0.643523 0
M  V30 1553 H 143.935 -1.1634 -1.68182 0
M  V30 1554 H 142.09 0.00322717 -3.874 0
M  V30 1555 H 142.504 -1.98034 -4.85678 0
M  V30 1556 H 143.978 -0.398016 -5.50563 0
M  V30 1557 H 144.455 0.811489 -4.31638 0
M  V30 1558 H 145.061 -0.853971 -4.16638 0
M  V30 1559 N 143.376 1.44774 -0.622745 0
M  V30 1560 C 144.623 2.02121 -0.1239 0
M  V30 1561 C 144.951 1.48915 1.25118 0
M  V30 1562 O 144.206 0.660045 1.84233 0
M  V30 1563 C 144.505 3.57364 -0.0508323 0
M  V30 1564 C 144.171 4.29787 -1.36358 0
M  V30 1565 C 142.833 4.4929 -1.72314 0
M  V30 1566 C 145.185 4.71062 -2.23048 0
M  V30 1567 C 142.513 5.07325 -2.94682 0
M  V30 1568 C 144.865 5.30452 -3.44679 0
M  V30 1569 C 143.529 5.48175 -3.80868 0
M  V30 1570 H 142.799 0.739612 -0.0453381 0
M  V30 1571 H 145.446 1.73648 -0.807389 0
M  V30 1572 H 143.751 3.85202 0.715991 0
M  V30 1573 H 145.448 3.99456 0.351533 0
M  V30 1574 H 142.038 4.14932 -1.07375 0
M  V30 1575 H 146.222 4.55715 -1.96565 0
M  V30 1576 H 141.478 5.19235 -3.22809 0
M  V30 1577 H 145.652 5.61385 -4.12092 0
M  V30 1578 H 143.279 5.92912 -4.75773 0
M  V30 1579 N 144.854 0.36279 1.53368 0
M  V30 1580 C 146.079 -0.231226 2.06107 0
M  V30 1581 C 146.504 -1.419 1.23474 0
M  V30 1582 O 145.862 -1.79524 0.253128 0
M  V30 1583 C 145.91 -0.605523 3.5548 0
M  V30 1584 O 145.014 -1.70312 3.7559 0
M  V30 1585 H 144.355 -0.034327 0.663112 0
M  V30 1586 H 146.885 0.522584 1.97814 0
M  V30 1587 H 146.895 -0.877314 3.98456 0
M  V30 1588 H 145.57 0.263004 4.15068 0
M  V30 1589 H 144.147 -1.4271 3.44512 0
M  V30 1590 N 146.332 -1.57332 0.0918853 0
M  V30 1591 C 147.557 -1.98995 -0.584442 0
M  V30 1592 C 147.982 -0.970528 -1.61128 0
M  V30 1593 O 147.34 0.0613904 -1.81196 0
M  V30 1594 C 147.388 -3.39636 -1.21161 0
M  V30 1595 O 146.492 -3.40447 -2.32744 0
M  V30 1596 H 145.833 -0.647165 -0.148572 0
M  V30 1597 H 148.363 -2.03873 0.172347 0
M  V30 1598 H 148.373 -3.7726 -1.55367 0
M  V30 1599 H 147.048 -4.13356 -0.459313 0
M  V30 1600 H 145.625 -3.14614 -2.0018 0
M  V30 1601 N 147.81 0.181792 -1.56548 0
M  V30 1602 C 149.038 0.915947 -1.85521 0
M  V30 1603 C 149.453 1.76282 -0.676016 0
M  V30 1604 O 148.81 1.79012 0.355077 0
M  V30 1605 C 148.861 1.80126 -3.13427 0
M  V30 1606 O 148.582 0.988562 -4.26801 0
M  V30 1607 C 150.083 2.64597 -3.55673 0
M  V30 1608 H 147.303 0.26661 -0.61576 0
M  V30 1609 H 149.847 0.185039 -2.03661 0
M  V30 1610 H 148.002 2.48563 -2.97145 0
M  V30 1611 H 148.416 1.59308 -4.99721 0
M  V30 1612 H 149.89 3.2235 -4.48101 0
M  V30 1613 H 150.367 3.38958 -2.79292 0
M  V30 1614 H 150.973 2.0151 -3.74532 0
M  V30 1615 N 149.288 1.51039 0.449983 0
M  V30 1616 C 150.513 1.6715 1.22783 0
M  V30 1617 C 150.938 0.363081 1.84563 0
M  V30 1618 O 150.296 -0.675433 1.68249 0
M  V30 1619 C 150.344 2.77985 2.29689 0
M  V30 1620 O 149.448 2.40707 3.34864 0
M  V30 1621 H 148.789 0.557746 0.360299 0
M  V30 1622 H 151.319 1.97535 0.533005 0
M  V30 1623 H 151.329 3.01693 2.74673 0
M  V30 1624 H 150.004 3.72935 1.84098 0
M  V30 1625 H 148.581 2.27523 2.95445 0
M  V30 1626 N 150.766 -0.704594 1.40972 0
M  V30 1627 C 152.015 -1.46018 1.39146 0
M  V30 1628 C 152.328 -1.956 0.000589254 0
M  V30 1629 O 153.534 -2.71137 -0.1403 0
M  V30 1630 C 151.99 -2.63996 2.4461 0
M  V30 1631 C 151.598 -2.21238 3.89561 0
M  V30 1632 C 153.342 -3.41677 2.51907 0
M  V30 1633 C 151.249 -3.3612 4.86598 0
M  V30 1634 H 150.179 -0.548444 0.517422 0
M  V30 1635 H 152.83 -0.765784 1.66757 0
M  V30 1636 H 151.212 -3.3566 2.10115 0
M  V30 1637 H 152.386 -1.56923 4.33257 0
M  V30 1638 H 150.701 -1.56574 3.85841 0
M  V30 1639 H 153.298 -4.27182 3.2159 0
M  V30 1640 H 153.641 -3.86247 1.55303 0
M  V30 1641 H 154.174 -2.77064 2.85448 0
M  V30 1642 H 150.913 -2.96572 5.84573 0
M  V30 1643 H 150.433 -3.99315 4.47557 0
M  V30 1644 H 152.112 -4.02029 5.06934 0
M  V30 1645 N 152.244 -1.26651 -0.937939 0
M  V30 1646 C 153.207 -1.08546 -2.01867 0
M  V30 1647 C 154.207 -0.0327327 -1.60767 0
M  V30 1648 O 155.397 -0.276427 -1.71993 0
M  V30 1649 C 152.529 -0.651711 -3.34613 0
M  V30 1650 H 153.722 -2.04502 -2.1936 0
M  V30 1651 H 151.275 -1.09294 -1.11734 0
M  V30 1652 H 152.01 0.309696 -3.22818 0
M  V30 1653 H 151.795 -1.41189 -3.65798 0
M  V30 1654 H 153.285 -0.546973 -4.14002 0
M  V30 1655 N 153.722 1.14298 -1.08507 0
M  V30 1656 C 154.654 2.1907 -0.673859 0
M  V30 1657 C 155.667 1.60381 0.279577 0
M  V30 1658 O 156.856 1.78374 0.0670754 0
M  V30 1659 C 153.956 3.38888 0.0290979 0
M  V30 1660 C 153.129 4.27103 -0.943494 0
M  V30 1661 C 152.188 5.25477 -0.275676 0
M  V30 1662 O 151.214 5.61709 -0.920401 0
M  V30 1663 N 152.416 5.7227 0.974013 0
M  V30 1664 H 155.181 2.54965 -1.57521 0
M  V30 1665 H 152.742 1.29528 -0.971287 0
M  V30 1666 H 154.734 4.01761 0.48683 0
M  V30 1667 H 153.304 3.01309 0.832555 0
M  V30 1668 H 152.524 3.61149 -1.58004 0
M  V30 1669 H 153.812 4.82905 -1.60251 0
M  V30 1670 H 153.21 5.44965 1.51755 0
M  V30 1671 H 151.767 6.37127 1.37522 0
M  V30 1672 N 155.201 0.870884 1.31352 0
M  V30 1673 C 156.164 0.332243 2.26779 0
M  V30 1674 C 157.164 -0.517302 1.52252 0
M  V30 1675 O 158.354 -0.326477 1.71113 0
M  V30 1676 C 155.486 -0.528066 3.36785 0
M  V30 1677 H 156.679 1.17469 2.75937 0
M  V30 1678 H 154.232 0.64655 1.423 0
M  V30 1679 H 154.967 -1.39167 2.92922 0
M  V30 1680 H 154.752 0.0802582 3.92018 0
M  V30 1681 H 156.242 -0.897179 4.07849 0
M  V30 1682 N 156.679 -1.44442 0.630414 0
M  V30 1683 C 157.956 -1.9549 0.0655657 0
M  V30 1684 C 158.336 -1.5724 -1.40851 0
M  V30 1685 O 157.684 -0.846116 -2.12257 0
M  V30 1686 C 157.894 -3.47812 0.287691 0
M  V30 1687 C 159.242 -4.24216 0.180513 0
M  V30 1688 O 160.266 -3.55526 0.219019 0
M  V30 1689 O 159.125 -5.46434 0.0848493 0
M  V30 1690 H 156.219 -0.826688 -0.0227177 0
M  V30 1691 H 158.765 -1.54496 0.702068 0
M  V30 1692 H 157.537 -3.687 1.31056 0
M  V30 1693 H 157.16 -3.95751 -0.382984 0
M  V30 1694 N 158.157 -0.370918 -1.53173 0
M  V30 1695 C 159.387 0.217389 -2.05453 0
M  V30 1696 C 159.795 1.42568 -1.24382 0
M  V30 1697 O 159.138 1.81571 -0.278839 0
M  V30 1698 C 159.2 0.669827 -3.53205 0
M  V30 1699 C 158.864 -0.4225 -4.55043 0
M  V30 1700 C 159.861 -1.27407 -5.04047 0
M  V30 1701 C 157.546 -0.58427 -4.9889 0
M  V30 1702 C 159.54 -2.27271 -5.95505 0
M  V30 1703 C 157.227 -1.58627 -5.90153 0
M  V30 1704 C 158.225 -2.42892 -6.38351 0
M  V30 1705 O 157.913 -3.41382 -7.27814 0
M  V30 1706 H 157.645 0.0408171 -0.674767 0
M  V30 1707 H 160.199 -0.5292 -1.98466 0
M  V30 1708 H 158.429 1.4681 -3.57748 0
M  V30 1709 H 160.118 1.18173 -3.88317 0
M  V30 1710 H 160.884 -1.16031 -4.70916 0
M  V30 1711 H 156.763 0.061851 -4.60959 0
M  V30 1712 H 160.307 -2.93079 -6.33049 0
M  V30 1713 H 156.204 -1.70048 -6.22699 0
M  V30 1714 H 156.972 -3.37173 -7.45826 0
M  V30 1715 N 159.635 1.57281 -0.100228 0
M  V30 1716 C 160.883 1.94153 0.561157 0
M  V30 1717 C 161.204 0.983157 1.68401 0
M  V30 1718 O 160.474 0.0361132 1.95867 0
M  V30 1719 H 159.054 0.716791 0.210283 0
M  V30 1720 H 161.716 1.94202 -0.164765 0
M  V30 1721 H 160.812 2.96709 0.968008 0
M  V30 1722 N 161.113 -0.173488 1.56642 0
M  V30 1723 C 162.043 -1.2171 1.99271 0
M  V30 1724 C 163.024 -1.46289 0.867959 0
M  V30 1725 O 164.209 -1.5766 1.13388 0
M  V30 1726 C 161.339 -2.55651 2.35074 0
M  V30 1727 C 160.293 -2.45645 3.50489 0
M  V30 1728 C 159.619 -3.84056 3.72028 0
M  V30 1729 C 160.919 -1.96302 4.84007 0
M  V30 1730 H 162.613 -0.86275 2.867 0
M  V30 1731 H 160.159 -0.413571 1.37933 0
M  V30 1732 H 162.112 -3.2886 2.63494 0
M  V30 1733 H 160.836 -2.92869 1.44552 0
M  V30 1734 H 159.495 -1.7489 3.22194 0
M  V30 1735 H 159.143 -4.18664 2.788 0
M  V30 1736 H 158.843 -3.7823 4.49684 0
M  V30 1737 H 160.367 -4.58854 4.02846 0
M  V30 1738 H 161.781 -2.59284 5.11317 0
M  V30 1739 H 160.178 -2.01429 5.65284 0
M  V30 1740 H 161.248 -0.917226 4.76146 0
M  V30 1741 N 162.591 -1.51276 -0.441967 0
M  V30 1742 C 163.501 -1.75092 -1.56141 0
M  V30 1743 C 164.517 -0.634963 -1.62001 0
M  V30 1744 O 165.693 -0.916686 -1.79329 0
M  V30 1745 C 162.758 -1.86666 -2.92158 0
M  V30 1746 C 161.819 -3.10506 -2.96453 0
M  V30 1747 C 161.052 -3.21519 -4.25982 0
M  V30 1748 O 161.275 -2.38586 -5.18105 0
M  V30 1749 O 160.209 -4.14465 -4.36466 0
M  V30 1750 H 164.035 -2.70044 -1.38961 0
M  V30 1751 H 161.62 -1.35722 -0.624499 0
M  V30 1752 H 163.502 -1.96292 -3.72891 0
M  V30 1753 H 162.177 -0.949014 -3.09476 0
M  V30 1754 H 161.084 -3.06363 -2.14692 0
M  V30 1755 H 162.417 -4.01945 -2.84079 0
M  V30 1756 N 164.069 0.697108 -1.41344 0
M  V30 1757 C 165.019 1.80313 -1.39539 0
M  V30 1758 C 166.003 1.58618 -0.270001 0
M  V30 1759 O 167.195 1.69477 -0.510551 0
M  V30 1760 C 164.324 3.18606 -1.27848 0
M  V30 1761 C 163.41 3.46001 -2.45244 0
M  V30 1762 N 163.801 3.44103 -3.70711 0
M  V30 1763 C 162.099 3.76542 -2.39023 0
M  V30 1764 C 162.8 3.7036 -4.48563 0
M  V30 1765 N 161.776 3.90027 -3.78655 0
M  V30 1766 H 165.578 1.77207 -2.34468 0
M  V30 1767 H 163.092 0.897031 -1.35378 0
M  V30 1768 H 165.089 3.97833 -1.24637 0
M  V30 1769 H 163.749 3.22925 -0.339032 0
M  V30 1770 H 164.76 3.2452 -4.03618 0
M  V30 1771 H 161.437 3.88241 -1.53542 0
M  V30 1772 H 162.827 3.75042 -5.57488 0
M  V30 1773 N 165.547 1.27147 0.931209 0
M  V30 1774 C 166.477 1.12081 2.04842 0
M  V30 1775 C 167.458 0.0232364 1.70084 0
M  V30 1776 O 168.643 0.197085 1.93197 0
M  V30 1777 C 165.773 0.76354 3.38803 0
M  V30 1778 C 164.727 1.81396 3.87659 0
M  V30 1779 C 164.053 1.31075 5.18385 0
M  V30 1780 C 165.353 3.21739 4.11438 0
M  V30 1781 H 167.047 2.05537 2.17703 0
M  V30 1782 H 164.593 0.989603 1.04608 0
M  V30 1783 H 166.546 0.644982 4.16435 0
M  V30 1784 H 165.27 -0.206727 3.25945 0
M  V30 1785 H 163.929 1.92136 3.12217 0
M  V30 1786 H 163.577 0.330037 5.01916 0
M  V30 1787 H 163.277 2.013 5.52044 0
M  V30 1788 H 164.801 1.20506 5.98591 0
M  V30 1789 H 166.215 3.14019 4.79651 0
M  V30 1790 H 164.612 3.89644 4.56397 0
M  V30 1791 H 165.682 3.67054 3.16859 0
M  V30 1792 N 167.025 -1.13721 1.09112 0
M  V30 1793 C 167.988 -2.17222 0.731241 0
M  V30 1794 C 168.988 -1.59035 -0.237566 0
M  V30 1795 O 170.178 -1.74192 -0.0161704 0
M  V30 1796 C 167.31 -3.40804 0.0808443 0
M  V30 1797 H 168.503 -2.50573 1.64783 0
M  V30 1798 H 166.056 -1.28493 0.889897 0
M  V30 1799 H 166.791 -3.1304 -0.847127 0
M  V30 1800 H 166.576 -3.84306 0.777896 0
M  V30 1801 H 168.066 -4.1731 -0.155657 0
M  V30 1802 N 168.503 -0.877838 -1.30888 0
M  V30 1803 C 169.733 -0.506678 -2.00291 0
M  V30 1804 C 170.141 0.907449 -1.66018 0
M  V30 1805 O 169.484 1.60719 -0.88967 0
M  V30 1806 C 169.546 -0.59323 -3.54572 0
M  V30 1807 C 169.21 -1.97038 -4.12341 0
M  V30 1808 C 170.207 -2.93889 -4.28865 0
M  V30 1809 C 167.892 -2.27383 -4.47886 0
M  V30 1810 C 169.886 -4.19224 -4.80136 0
M  V30 1811 C 167.573 -3.52965 -4.98857 0
M  V30 1812 C 168.571 -4.48701 -5.14934 0
M  V30 1813 O 168.259 -5.72056 -5.64808 0
M  V30 1814 H 167.991 -0.1951 -0.647234 0
M  V30 1815 H 170.545 -1.18301 -1.6791 0
M  V30 1816 H 168.775 0.140057 -3.86446 0
M  V30 1817 H 170.464 -0.234372 -4.05223 0
M  V30 1818 H 171.23 -2.71756 -4.01714 0
M  V30 1819 H 167.109 -1.53639 -4.34645 0
M  V30 1820 H 170.653 -4.93956 -4.92599 0
M  V30 1821 H 166.55 -3.74939 -5.25443 0
M  V30 1822 H 167.318 -5.74337 -5.83163 0
M  V30 1823 N 169.982 1.44106 -0.638065 0
M  V30 1824 C 171.398 1.56672 -0.304286 0
M  V30 1825 C 171.598 1.6244 1.19228 0
M  V30 1826 O 170.654 1.57121 1.9766 0
M  V30 1827 C 171.967 2.83503 -1.00231 0
M  V30 1828 C 173.515 2.97226 -0.981116 0
M  V30 1829 C 173.99 4.26868 -1.65974 0
M  V30 1830 N 175.481 4.33698 -1.62666 0
M  V30 1831 C 176.216 5.32745 -2.12063 0
M  V30 1832 N 175.712 6.38157 -2.6968 0
M  V30 1833 N 177.505 5.24299 -2.02651 0
M  V30 1834 H 169.656 1.38605 -1.60942 0
M  V30 1835 H 171.919 0.664661 -0.675965 0
M  V30 1836 H 171.625 2.85251 -2.0573 0
M  V30 1837 H 171.499 3.73251 -0.54439 0
M  V30 1838 H 173.886 2.95027 0.0654188 0
M  V30 1839 H 173.967 2.08808 -1.47759 0
M  V30 1840 H 173.611 4.29826 -2.70576 0
M  V30 1841 H 173.541 5.14156 -1.13804 0
M  V30 1842 H 176.032 3.58138 -1.20606 0
M  V30 1843 H 176.345 7.10029 -3.05087 0
M  V30 1844 H 174.69 6.38823 -2.73734 0
M  V30 1845 H 177.881 4.4086 -1.57353 0
M  V30 1846 H 178.054 6.01334 -2.41457 0
M  V30 1847 N 171.46 0.379036 1.52974 0
M  V30 1848 C 172.393 -0.504932 2.22544 0
M  V30 1849 C 173.371 -1.0723 1.22231 0
M  V30 1850 O 174.555 -1.12589 1.51182 0
M  V30 1851 C 171.682 -1.69794 2.93066 0
M  V30 1852 C 170.728 -1.25678 4.07563 0
M  V30 1853 S 171.561 -0.246852 5.34931 0
M  V30 1854 C 172.717 -1.44588 6.08971 0
M  V30 1855 H 172.95 0.0858666 2.97176 0
M  V30 1856 H 170.483 0.163183 1.53535 0
M  V30 1857 H 172.441 -2.38219 3.34308 0
M  V30 1858 H 171.102 -2.26002 2.18133 0
M  V30 1859 H 170.295 -2.14725 4.5597 0
M  V30 1860 H 169.897 -0.651584 3.6828 0
M  V30 1861 H 172.189 -2.37469 6.34519 0
M  V30 1862 H 173.132 -1.00292 7.00962 0
M  V30 1863 H 173.54 -1.65804 5.39601 0
M  V30 1864 N 172.938 -1.57226 0.108567 0
M  V30 1865 C 173.886 -2.16002 -0.862885 0
M  V30 1866 C 174.88 -1.10644 -1.28274 0
M  V30 1867 O 176.086 -1.28966 -1.2557 0
M  V30 1868 H 172.461 -0.691148 -0.296342 0
M  V30 1869 H 174.432 -2.96427 -0.342575 0
M  V30 1870 C 173.181 -2.76576 -2.10716 0
M  V30 1871 H 172.504 -3.5734 -1.793 0
M  V30 1872 H 173.944 -3.21253 -2.76717 0
M  V30 1873 C 172.403 -1.73137 -2.89007 0
M  V30 1874 O 172.933 -1.17842 -3.84026 0
M  V30 1875 N 171.139 -1.43317 -2.52801 0
M  V30 1876 H 170.686 -1.88473 -1.75601 0
M  V30 1877 H 170.644 -0.743485 -3.05483 0
M  V30 1878 N 174.416 0.165178 -1.56732 0
M  V30 1879 C 175.349 1.23336 -1.91998 0
M  V30 1880 C 176.327 1.42476 -0.783531 0
M  V30 1881 O 177.511 1.57384 -1.03743 0
M  V30 1882 C 174.638 2.59533 -2.17625 0
M  V30 1883 C 173.684 2.57093 -3.40302 0
M  V30 1884 S 174.517 2.05571 -4.9447 0
M  V30 1885 C 175.673 3.43532 -5.23198 0
M  V30 1886 H 175.906 0.932387 -2.82301 0
M  V30 1887 H 173.439 0.370013 -1.49901 0
M  V30 1888 H 175.397 3.37918 -2.3307 0
M  V30 1889 H 174.058 2.86827 -1.28019 0
M  V30 1890 H 173.251 3.57308 -3.55453 0
M  V30 1891 H 172.853 1.86806 -3.24005 0
M  V30 1892 H 175.145 4.39559 -5.15552 0
M  V30 1893 H 176.088 3.33251 -6.2478 0
M  V30 1894 H 176.496 3.39828 -4.50752 0
M  V30 1895 N 175.894 1.51508 0.433938 0
M  V30 1896 C 177.134 1.66006 1.19253 0
M  V30 1897 C 177.498 0.369868 1.88404 0
M  V30 1898 O 178.699 0.39066 2.65946 0
M  V30 1899 C 176.97 2.83229 2.17981 0
M  V30 1900 S 178.529 3.18075 3.02281 0
M  V30 1901 H 175.347 0.584821 0.404358 0
M  V30 1902 H 177.949 1.89425 0.48357 0
M  V30 1903 H 176.653 3.75407 1.65824 0
M  V30 1904 H 176.184 2.6201 2.93453 0
M  V30 1905 H 178.199 2.64772 4.19655 0
M  V30 1906 N 177.372 -0.689602 1.41712 0
M  V30 1907 C 178.597 -1.48329 1.44959 0
M  V30 1908 C 179.022 -1.8801 0.0581283 0
M  V30 1909 O 178.38 -1.55026 -0.940035 0
M  V30 1910 C 178.428 -2.71835 2.36935 0
M  V30 1911 O 177.532 -3.69549 1.8305 0
M  V30 1912 H 176.873 -0.446199 0.491734 0
M  V30 1913 H 179.403 -0.847127 1.86239 0
M  V30 1914 H 179.413 -3.20076 2.53013 0
M  V30 1915 H 178.088 -2.42291 3.38035 0
M  V30 1916 H 176.665 -3.2851 1.76452 0
M  V30 1917 N 178.85 -1.27639 -0.924453 0
M  V30 1918 C 179.813 -1.10681 -2.00705 0
M  V30 1919 C 180.813 -0.0497823 -1.60723 0
M  V30 1920 O 182.003 -0.294654 -1.7169 0
M  V30 1921 C 179.135 -0.687164 -3.33902 0
M  V30 1922 H 180.328 -2.06817 -2.17179 0
M  V30 1923 H 177.881 -1.10473 -1.10569 0
M  V30 1924 H 178.616 0.275439 -3.23128 0
M  V30 1925 H 178.401 -1.45061 -3.6428 0
M  V30 1926 H 179.891 -0.590853 -4.13399 0
M  V30 1927 N 180.328 1.1314 -1.09713 0
M  V30 1928 C 181.576 1.84119 -0.833338 0
M  V30 1929 C 181.897 1.84097 0.642904 0
M  V30 1930 O 181.167 1.29881 1.46655 0
M  V30 1931 H 179.747 0.681766 -0.305293 0
M  V30 1932 H 182.409 1.37038 -1.38588 0
M  V30 1933 H 181.505 2.88543 -1.18951 0
M  V30 1934 N 181.806 0.884767 1.30421 0
M  V30 1935 C 183.052 0.503851 1.96441 0
M  V30 1936 C 183.385 -0.944518 1.69684 0
M  V30 1937 O 182.66 -1.66737 1.00145 0
M  V30 1938 C 182.943 0.779085 3.51571 0
M  V30 1939 C 182.796 2.27807 3.87846 0
M  V30 1940 C 184.115 0.255452 4.39358 0
M  V30 1941 H 181.234 0.184533 0.713524 0
M  V30 1942 H 183.876 1.10872 1.54297 0
M  V30 1943 H 182.026 0.264274 3.876 0
M  V30 1944 H 183.698 2.86127 3.61841 0
M  V30 1945 H 181.941 2.74479 3.35922 0
M  V30 1946 H 182.612 2.42125 4.96064 0
M  V30 1947 H 185.088 0.696079 4.10236 0
M  V30 1948 H 183.964 0.477361 5.4682 0
M  V30 1949 H 184.225 -0.843293 4.33983 0
M  V30 1950 N 183.284 -1.43765 0.645699 0
M  V30 1951 C 184.247 -2.29163 -0.0409488 0
M  V30 1952 C 185.247 -1.41813 -0.757996 0
M  V30 1953 O 186.437 -1.63527 -0.600382 0
M  V30 1954 C 183.569 -3.23716 -1.06869 0
M  V30 1955 H 184.762 -2.91366 0.710345 0
M  V30 1956 H 182.315 -1.5092 0.406547 0
M  V30 1957 H 183.05 -2.66393 -1.84947 0
M  V30 1958 H 182.835 -3.88105 -0.558277 0
M  V30 1959 H 184.325 -3.87831 -1.54845 0
M  V30 1960 N 184.763 -0.387143 -1.52771 0
M  V30 1961 C 186.179 -0.037007 -1.59557 0
M  V30 1962 C 186.379 1.44801 -1.40124 0
M  V30 1963 O 185.435 2.21227 -1.21716 0
M  V30 1964 C 186.748 -0.512256 -2.96305 0
M  V30 1965 C 188.296 -0.468328 -3.09476 0
M  V30 1966 C 188.771 -0.919731 -4.4867 0
M  V30 1967 N 190.262 -0.875656 -4.54848 0
M  V30 1968 C 190.997 -1.19637 -5.6078 0
M  V30 1969 N 190.493 -1.58745 -6.74368 0
M  V30 1970 N 192.286 -1.11776 -5.50874 0
M  V30 1971 H 184.437 -1.35395 -1.63652 0
M  V30 1972 H 186.7 -0.554818 -0.768688 0
M  V30 1973 H 186.406 -1.54935 -3.15734 0
M  V30 1974 H 186.28 0.089805 -3.77093 0
M  V30 1975 H 188.667 0.559671 -2.89744 0
M  V30 1976 H 188.748 -1.10616 -2.30646 0
M  V30 1977 H 188.392 -1.94595 -4.69143 0
M  V30 1978 H 188.322 -0.258927 -5.25963 0
M  V30 1979 H 190.813 -0.587843 -3.733 0
M  V30 1980 H 191.126 -1.81586 -7.51163 0
M  V30 1981 H 189.471 -1.6263 -6.75705 0
M  V30 1982 H 192.662 -0.811264 -4.61016 0
M  V30 1983 H 192.835 -1.37103 -6.3333 0
M  V30 1984 N 186.241 1.57166 -0.116904 0
M  V30 1985 C 187.188 2.15202 0.83408 0
M  V30 1986 C 188.158 1.07644 1.26499 0
M  V30 1987 O 189.343 1.35541 1.34288 0
M  V30 1988 C 186.483 2.75405 2.07957 0
M  V30 1989 C 185.596 3.97264 1.69721 0
M  V30 1990 C 184.731 4.45561 2.89221 0
M  V30 1991 C 183.77 5.59956 2.47215 0
M  V30 1992 N 182.907 6.03006 3.59622 0
M  V30 1993 H 187.747 2.96141 0.332335 0
M  V30 1994 H 185.284 1.46309 0.152349 0
M  V30 1995 H 187.242 3.08439 2.80929 0
M  V30 1996 H 185.872 1.97159 2.55594 0
M  V30 1997 H 184.924 3.70404 0.866316 0
M  V30 1998 H 186.236 4.80226 1.34849 0
M  V30 1999 H 185.39 4.80493 3.7042 0
M  V30 2000 H 184.129 3.61544 3.27318 0
M  V30 2001 H 183.134 5.2463 1.64448 0
M  V30 2002 H 184.359 6.45738 2.10238 0
M  V30 2003 H 182.305 5.21931 3.97396 0
M  V30 2004 H 182.222 6.80819 3.28667 0
M  V30 2005 H 183.49 6.42576 4.41267 0
M  V30 2006 N 187.719 -0.156864 1.56817 0
M  V30 2007 C 188.682 -1.17781 1.96622 0
M  V30 2008 C 189.682 -1.36401 0.851555 0
M  V30 2009 O 190.872 -1.33561 1.11836 0
M  V30 2010 C 188.004 -2.54008 2.27361 0
M  V30 2011 H 189.197 -0.836564 2.87996 0
M  V30 2012 H 186.75 -0.39985 1.51099 0
M  V30 2013 H 187.485 -2.9312 1.38748 0
M  V30 2014 H 187.27 -2.41856 3.08623 0
M  V30 2015 H 188.76 -3.27558 2.59029 0
M  V30 2016 N 189.197 -1.51736 -0.425897 0
M  V30 2017 C 190.16 -1.73271 -1.50032 0
M  V30 2018 C 191.16 -0.602639 -1.4908 0
M  V30 2019 O 192.35 -0.87033 -1.509 0
M  V30 2020 C 189.482 -1.79969 -2.89523 0
M  V30 2021 H 190.675 -2.69172 -1.32237 0
M  V30 2022 H 188.228 -1.41899 -0.65532 0
M  V30 2023 H 188.963 -0.859241 -3.1271 0
M  V30 2024 H 188.748 -2.62109 -2.91619 0
M  V30 2025 H 190.238 -1.9843 -3.67444 0
M  V30 2026 N 190.675 0.682077 -1.42076 0
M  V30 2027 C 191.585 1.82535 -1.47371 0
M  V30 2028 C 192.601 1.7017 -0.363079 0
M  V30 2029 O 193.777 1.91848 -0.612875 0
M  V30 2030 C 190.842 3.18624 -1.36674 0
M  V30 2031 C 189.903 3.42999 -2.58167 0
M  V30 2032 C 189.136 4.72595 -2.4797 0
M  V30 2033 O 189.359 5.50006 -1.5116 0
M  V30 2034 O 188.293 4.98054 -3.37974 0
M  V30 2035 H 192.119 1.81023 -2.43853 0
M  V30 2036 H 189.704 0.836887 -1.2376 0
M  V30 2037 H 191.586 3.99847 -1.33043 0
M  V30 2038 H 190.261 3.20789 -0.433138 0
M  V30 2039 H 189.168 2.61653 -2.67373 0
M  V30 2040 H 190.501 3.45659 -3.50401 0
M  V30 2041 N 192.153 1.28127 0.917671 0
M  V30 2042 C 193.063 1.13556 2.05286 0
M  V30 2043 C 194.079 0.0630914 1.73886 0
M  V30 2044 O 195.255 0.271598 1.9956 0
M  V30 2045 C 192.32 0.794676 3.3747 0
M  V30 2046 C 191.381 1.94909 3.82504 0
M  V30 2047 C 190.614 1.62437 5.0838 0
M  V30 2048 O 190.837 0.536905 5.67867 0
M  V30 2049 O 189.771 2.46677 5.4903 0
M  V30 2050 H 193.597 2.08844 2.20495 0
M  V30 2051 H 191.182 1.07409 1.03845 0
M  V30 2052 H 193.064 0.618344 4.16839 0
M  V30 2053 H 191.739 -0.128581 3.23445 0
M  V30 2054 H 190.646 2.18055 3.03978 0
M  V30 2055 H 191.979 2.85291 4.01086 0
M  V30 2056 N 193.631 -1.12557 1.10312 0
M  V30 2057 C 194.877 -1.84311 0.846011 0
M  V30 2058 C 195.21 -1.83805 -0.626859 0
M  V30 2059 O 194.485 -1.28268 -1.46211 0
M  V30 2060 C 194.768 -3.32048 1.39341 0
M  V30 2061 C 194.621 -3.41016 2.93305 0
M  V30 2062 C 195.94 -4.27764 1.03468 0
M  V30 2063 H 193.059 -0.669192 0.30879 0
M  V30 2064 H 195.701 -1.32057 1.36605 0
M  V30 2065 H 193.851 -3.76678 0.951087 0
M  V30 2066 H 195.523 -3.05031 3.46055 0
M  V30 2067 H 193.766 -2.81603 3.29973 0
M  V30 2068 H 194.437 -4.44948 3.26689 0
M  V30 2069 H 196.913 -3.91253 1.41633 0
M  V30 2070 H 195.789 -5.29549 1.44463 0
M  V30 2071 H 196.05 -4.42064 -0.0560404 0
M  V30 2072 N 195.109 -0.891671 -1.2995 0
M  V30 2073 C 196.337 -0.52866 -2.00032 0
M  V30 2074 C 196.752 0.884574 -1.66795 0
M  V30 2075 O 196.109 1.5827 -0.908669 0
M  V30 2076 C 196.16 -0.701814 -3.54622 0
M  V30 2077 O 195.881 -2.05942 -3.86678 0
M  V30 2078 C 197.382 -0.342683 -4.41973 0
M  V30 2079 H 194.602 -0.203659 -0.639347 0
M  V30 2080 H 197.146 -1.19881 -1.65677 0
M  V30 2081 H 195.301 -0.0789468 -3.8732 0
M  V30 2082 H 195.715 -2.08291 -4.81368 0
M  V30 2083 H 197.189 -0.514709 -5.49595 0
M  V30 2084 H 197.666 0.71975 -4.33262 0
M  V30 2085 H 198.272 -0.942154 -4.14733 0
M  V30 2086 N 196.587 1.43421 -0.653314 0
M  V30 2087 C 197.517 2.33487 0.0246656 0
M  V30 2088 C 198.498 1.49475 0.811863 0
M  V30 2089 O 199.683 1.78139 0.773322 0
M  V30 2090 C 196.813 3.32841 0.99166 0
M  V30 2091 C 195.767 4.26842 0.314568 0
M  V30 2092 C 195.093 5.16236 1.39302 0
M  V30 2093 C 196.393 5.16243 -0.793095 0
M  V30 2094 H 198.087 2.90427 -0.727481 0
M  V30 2095 H 195.633 1.39649 -0.351287 0
M  V30 2096 H 197.586 3.94747 1.47487 0
M  V30 2097 H 196.31 2.74158 1.77497 0
M  V30 2098 H 194.969 3.663 -0.148199 0
M  V30 2099 H 194.617 4.53891 2.16776 0
M  V30 2100 H 194.317 5.79948 0.945223 0
M  V30 2101 H 195.841 5.81015 1.87759 0
M  V30 2102 H 197.255 5.71958 -0.392039 0
M  V30 2103 H 195.652 5.88676 -1.16536 0
M  V30 2104 H 196.722 4.55927 -1.65103 0
M  V30 2105 N 198.065 0.39524 1.52563 0
M  V30 2106 C 198.997 -0.472201 2.24283 0
M  V30 2107 C 200.01 -1.02178 1.26742 0
M  V30 2108 O 201.199 -0.923097 1.52778 0
M  V30 2109 C 198.299 -1.66775 2.95024 0
M  V30 2110 C 197.472 -1.2445 4.19322 0
M  V30 2111 C 196.531 -2.30539 4.7301 0
M  V30 2112 O 195.557 -1.91702 5.35947 0
M  V30 2113 N 196.759 -3.6253 4.53379 0
M  V30 2114 H 199.524 0.142282 2.99362 0
M  V30 2115 H 197.085 0.2219 1.60372 0
M  V30 2116 H 199.077 -2.37283 3.27839 0
M  V30 2117 H 197.647 -2.18845 2.23217 0
M  V30 2118 H 196.867 -0.368069 3.92478 0
M  V30 2119 H 198.155 -0.938457 5.0007 0
M  V30 2120 H 197.553 -3.96841 4.03154 0
M  V30 2121 H 196.11 -4.29055 4.90668 0
M  V30 2122 N 199.544 -1.57102 0.125237 0
M  V30 2123 C 200.772 -1.99761 -0.538797 0
M  V30 2124 C 201.187 -1.00503 -1.59827 0
M  V30 2125 O 200.544 0.00119474 -1.825 0
M  V30 2126 C 200.595 -3.42408 -1.15927 0
M  V30 2127 O 200.316 -4.37869 -0.142143 0
M  V30 2128 C 201.817 -4.00232 -1.90602 0
M  V30 2129 H 199.037 -0.655772 -0.14214 0
M  V30 2130 H 201.581 -2.03383 0.213413 0
M  V30 2131 H 199.736 -3.39706 -1.86223 0
M  V30 2132 H 200.15 -5.21128 -0.593775 0
M  V30 2133 H 201.624 -5.02105 -2.29335 0
M  V30 2134 H 202.101 -3.39721 -2.78363 0
M  V30 2135 H 202.707 -4.06499 -1.25055 0
M  V30 2136 N 201.022 0.148545 -1.56898 0
M  V30 2137 C 202.27 0.859717 -1.82902 0
M  V30 2138 C 202.591 1.81775 -0.70588 0
M  V30 2139 O 201.861 1.93994 0.272586 0
M  V30 2140 H 200.441 0.320469 -0.674766 0
M  V30 2141 H 203.103 0.142918 -1.94375 0
M  V30 2142 H 202.199 1.4229 -2.77777 0
M  V30 2143 N 202.5 1.5196 0.417844 0
M  V30 2144 C 203.749 1.6482 1.16264 0
M  V30 2145 C 204.062 0.379886 1.91876 0
M  V30 2146 O 205.268 0.388154 2.68711 0
M  V30 2147 C 203.724 2.91161 2.1155 0
M  V30 2148 C 203.332 4.25068 1.41495 0
M  V30 2149 C 205.076 3.13383 2.86341 0
M  V30 2150 C 202.983 5.42541 2.35379 0
M  V30 2151 H 201.913 0.613954 0.437694 0
M  V30 2152 H 204.564 1.78442 0.427871 0
M  V30 2153 H 202.946 2.71218 2.88543 0
M  V30 2154 H 204.12 4.55463 0.699263 0
M  V30 2155 H 202.435 4.0888 0.787792 0
M  V30 2156 H 205.032 3.98324 3.5671 0
M  V30 2157 H 205.375 2.27256 3.48798 0
M  V30 2158 H 205.908 3.33757 2.1645 0
M  V30 2159 H 202.647 6.30987 1.77582 0
M  V30 2160 H 202.167 5.16497 3.04945 0
M  V30 2161 H 203.846 5.75272 2.96093 0
M  V30 2162 N 203.978 -0.674533 1.42435 0
M  V30 2163 C 204.925 -1.78807 1.45934 0
M  V30 2164 C 205.895 -1.63157 0.311271 0
M  V30 2165 O 207.08 -1.83707 0.515383 0
M  V30 2166 C 204.22 -3.16839 1.36773 0
M  V30 2167 C 203.333 -3.43774 2.61617 0
M  V30 2168 C 202.468 -4.71536 2.44597 0
M  V30 2169 C 201.507 -4.91505 3.64814 0
M  V30 2170 N 200.644 -6.10508 3.46734 0
M  V30 2171 H 205.484 -1.75151 2.41093 0
M  V30 2172 H 203.021 -0.85504 1.19697 0
M  V30 2173 H 204.979 -3.96606 1.29459 0
M  V30 2174 H 203.609 -3.19619 0.452089 0
M  V30 2175 H 202.661 -2.58259 2.79297 0
M  V30 2176 H 203.973 -3.54423 3.50978 0
M  V30 2177 H 203.127 -5.59393 2.3487 0
M  V30 2178 H 201.866 -4.6317 1.52726 0
M  V30 2179 H 200.871 -4.0209 3.74972 0
M  V30 2180 H 202.096 -5.01716 4.57665 0
M  V30 2181 H 200.042 -6.03315 2.5758 0
M  V30 2182 H 199.959 -6.2202 4.29682 0
M  V30 2183 H 201.227 -7.01044 3.40819 0
M  V30 2184 N 205.456 -1.28612 -0.910864 0
M  V30 2185 C 206.872 -1.06381 -1.18976 0
M  V30 2186 C 207.072 0.191998 -2.00583 0
M  V30 2187 O 206.128 0.892869 -2.36187 0
M  V30 2188 C 207.441 -2.31295 -1.92154 0
M  V30 2189 C 208.989 -2.36503 -2.05025 0
M  V30 2190 C 209.464 -3.61191 -2.81612 0
M  V30 2191 N 210.955 -3.61847 -2.89172 0
M  V30 2192 C 211.69 -4.55004 -3.4894 0
M  V30 2193 N 211.186 -5.58482 -4.09963 0
M  V30 2194 N 212.979 -4.42594 -3.46506 0
M  V30 2195 H 205.13 -2.09221 -0.366094 0
M  V30 2196 H 207.393 -0.921003 -0.224629 0
M  V30 2197 H 207.099 -3.228 -1.39618 0
M  V30 2198 H 206.973 -2.37934 -2.9269 0
M  V30 2199 H 209.36 -1.45494 -2.5674 0
M  V30 2200 H 209.441 -2.33857 -1.03657 0
M  V30 2201 H 209.085 -4.52545 -2.30576 0
M  V30 2202 H 209.015 -3.61092 -3.83302 0
M  V30 2203 H 211.506 -2.87022 -2.45819 0
M  V30 2204 H 211.819 -6.25704 -4.53557 0
M  V30 2205 H 210.164 -5.62305 -4.08459 0
M  V30 2206 H 213.355 -3.60953 -2.98045 0
M  V30 2207 H 213.528 -5.15381 -3.92793 0
M  V30 2208 N 206.934 1.1197 -1.10907 0
M  V30 2209 C 208.181 1.83588 -0.854507 0
M  V30 2210 C 208.509 1.84357 0.6199 0
M  V30 2211 O 207.764 1.28809 1.47332 0
M  V30 2212 C 208.063 3.30749 -1.35425 0
M  V30 2213 C 207.729 3.50146 -2.84093 0
M  V30 2214 C 206.391 3.55148 -3.2469 0
M  V30 2215 C 208.743 3.56857 -3.79872 0
M  V30 2216 C 206.071 3.6441 -4.59806 0
M  V30 2217 C 208.423 3.6765 -5.14797 0
M  V30 2218 C 207.087 3.7091 -5.54961 0
M  V30 2219 H 206.357 0.671795 -0.312686 0
M  V30 2220 H 209.004 1.32091 -1.38652 0
M  V30 2221 H 207.309 3.84703 -0.742361 0
M  V30 2222 H 209.006 3.8464 -1.1337 0
M  V30 2223 H 205.596 3.46919 -2.51685 0
M  V30 2224 H 209.78 3.52258 -3.49611 0
M  V30 2225 H 205.036 3.65208 -4.9034 0
M  V30 2226 H 209.21 3.71786 -5.88853 0
M  V30 2227 H 206.837 3.7784 -6.59652 0
M  V30 2228 N 208.412 0.89855 1.29475 0
M  V30 2229 C 209.658 0.524658 1.95896 0
M  V30 2230 C 209.991 -0.926468 1.70676 0
M  V30 2231 O 209.266 -1.65665 1.01908 0
M  V30 2232 C 209.549 0.81633 3.50725 0
M  V30 2233 C 209.402 2.31907 3.85408 0
M  V30 2234 C 210.721 0.302038 4.39062 0
M  V30 2235 H 207.84 0.19209 0.711527 0
M  V30 2236 H 210.482 1.12502 1.53112 0
M  V30 2237 H 208.632 0.305369 3.87298 0
M  V30 2238 H 210.304 2.89949 3.58786 0
M  V30 2239 H 208.547 2.78027 3.32992 0
M  V30 2240 H 209.218 2.47373 4.93468 0
M  V30 2241 H 211.694 0.739551 4.09475 0
M  V30 2242 H 210.57 0.535331 5.46283 0
M  V30 2243 H 210.831 -0.797216 4.34853 0
M  V30 2244 N 209.89 -1.43072 0.660911 0
M  V30 2245 C 210.853 -2.29194 -0.0166406 0
M  V30 2246 C 211.853 -1.42609 -0.742912 0
M  V30 2247 O 213.043 -1.64155 -0.583004 0
M  V30 2248 C 210.175 -3.24831 -1.0343 0
M  V30 2249 H 211.368 -2.90596 0.741208 0
M  V30 2250 H 208.921 -1.5048 0.422532 0
M  V30 2251 H 209.656 -2.68339 -1.82111 0
M  V30 2252 H 209.441 -3.88676 -0.517082 0
M  V30 2253 H 210.931 -3.89451 -1.50723 0
M  V30 2254 N 211.368 -0.403325 -1.52352 0
M  V30 2255 C 212.616 0.174003 -2.0135 0
M  V30 2256 C 212.937 1.46139 -1.29106 0
M  V30 2257 O 212.207 1.91448 -0.415253 0
M  V30 2258 H 210.787 0.0672911 -0.743963 0
M  V30 2259 H 213.449 -0.538235 -1.87321 0
M  V30 2260 H 212.545 0.374254 -3.09848 0
M  V30 2261 N 212.846 1.57033 -0.133567 0
M  V30 2262 C 213.809 2.14897 0.796995 0
M  V30 2263 C 214.809 1.0874 1.18458 0
M  V30 2264 O 215.999 1.34446 1.1077 0
M  V30 2265 C 213.131 2.70112 2.07973 0
M  V30 2266 H 214.324 2.98457 0.293873 0
M  V30 2267 H 211.877 1.55871 0.115787 0
M  V30 2268 H 212.612 1.9018 2.62682 0
M  V30 2269 H 212.397 3.47764 1.81115 0
M  V30 2270 H 213.887 3.14738 2.74462 0
M  V30 2271 N 214.325 -0.140222 1.56975 0
M  V30 2272 C 215.255 -1.17456 2.01808 0
M  V30 2273 C 216.236 -1.44415 0.898794 0
M  V30 2274 O 217.421 -1.5522 1.16707 0
M  V30 2275 C 214.551 -2.50607 2.40444 0
M  V30 2276 C 213.505 -2.38155 3.55621 0
M  V30 2277 C 212.831 -3.76078 3.80091 0
M  V30 2278 C 214.131 -1.85991 4.88062 0
M  V30 2279 H 215.825 -0.801743 2.88466 0
M  V30 2280 H 213.371 -0.38422 1.38779 0
M  V30 2281 H 215.324 -3.23197 2.7041 0
M  V30 2282 H 214.048 -2.89737 1.50732 0
M  V30 2283 H 212.707 -1.68016 3.25832 0
M  V30 2284 H 212.355 -4.12656 2.87618 0
M  V30 2285 H 212.055 -3.68606 4.57606 0
M  V30 2286 H 213.579 -4.50206 4.12488 0
M  V30 2287 H 214.993 -2.4838 5.16701 0
M  V30 2288 H 213.39 -1.89393 5.6943 0
M  V30 2289 H 214.46 -0.816023 4.77984 0
M  V30 2290 N 215.803 -1.52179 -0.40978 0
M  V30 2291 C 217.051 -1.65878 -1.15451 0
M  V30 2292 C 217.372 -0.390771 -1.91044 0
M  V30 2293 O 216.642 0.594323 -1.86667 0
M  V30 2294 H 215.222 -0.611405 -0.429177 0
M  V30 2295 H 217.884 -1.89219 -0.467134 0
M  V30 2296 H 216.98 -2.49954 -1.86894 0
M  V30 2297 N 217.281 0.66697 -1.42791 0
M  V30 2298 C 218.692 1.2478 -1.38877 0
M  V30 2299 C 219.043 1.96012 -0.0859426 0
M  V30 2300 O 218.168 2.00463 0.815081 0
M  V30 2301 C 218.763 2.26938 -2.51564 0
M  V30 2302 C 217.322 2.80529 -2.50959 0
M  V30 2303 C 216.469 1.54965 -2.29959 0
M  V30 2304 H 219.42 0.459853 -1.51892 0
M  V30 2305 H 219.441 3.08834 -2.22265 0
M  V30 2306 H 218.953 1.75065 -3.46372 0
M  V30 2307 H 217.054 3.36502 -1.59991 0
M  V30 2308 H 217.167 3.29012 -3.48265 0
M  V30 2309 H 215.531 1.81817 -1.78366 0
M  V30 2310 H 216.314 1.05047 -3.26833 0
M  V30 2311 N 218.759 1.29093 0.90403 0
M  V30 2312 C 219.987 1.19689 1.68766 0
M  V30 2313 C 220.402 -0.243113 1.87228 0
M  V30 2314 O 219.759 -1.16326 1.40621 0
M  V30 2315 C 219.81 1.90144 3.07453 0
M  V30 2316 O 219.531 3.2852 2.89838 0
M  V30 2317 C 221.032 1.87162 4.01852 0
M  V30 2318 H 218.252 0.415035 0.527244 0
M  V30 2319 H 220.796 1.7039 1.13082 0
M  V30 2320 H 218.951 1.43289 3.59926 0
M  V30 2321 H 219.365 3.63944 3.77684 0
M  V30 2322 H 220.839 2.41032 4.96596 0
M  V30 2323 H 221.316 0.84617 4.30972 0
M  V30 2324 H 221.922 2.33741 3.5531 0
M  V30 2325 N 220.237 -1.11381 1.11499 0
M  V30 2326 C 221.185 -2.19522 0.768956 0
M  V30 2327 C 222.179 -1.67693 -0.239857 0
M  V30 2328 O 223.385 -1.79727 -0.0990755 0
M  V30 2329 H 219.76 -0.715711 0.230786 0
M  V30 2330 H 221.731 -2.45954 1.68964 0
M  V30 2331 C 220.48 -3.46945 0.229073 0
M  V30 2332 H 219.803 -3.8718 0.996596 0
M  V30 2333 H 221.243 -4.23993 0.0251441 0
M  V30 2334 C 219.702 -3.2042 -1.04079 0
M  V30 2335 O 220.232 -3.41178 -2.12038 0
M  V30 2336 N 218.438 -2.74151 -0.963823 0
M  V30 2337 H 217.985 -2.57459 -0.0851722 0
M  V30 2338 H 217.943 -2.56781 -1.81414 0
M  V30 2339 N 221.715 -0.905404 -1.28997 0
M  V30 2340 C 222.662 -0.385892 -2.27551 0
M  V30 2341 C 223.632 0.535113 -1.57244 0
M  V30 2342 O 224.817 0.459119 -1.85194 0
M  V30 2343 C 221.957 0.375461 -3.43051 0
M  V30 2344 C 221.07 -0.577092 -4.28128 0
M  V30 2345 C 220.205 0.201879 -5.30816 0
M  V30 2346 C 219.244 -0.744829 -6.07551 0
M  V30 2347 N 218.381 9.42587e-05 -7.021 0
M  V30 2348 H 223.221 -1.23139 -2.71368 0
M  V30 2349 H 220.758 -0.618542 -1.33463 0
M  V30 2350 H 222.716 0.832992 -4.088 0
M  V30 2351 H 221.346 1.18537 -3.00248 0
M  V30 2352 H 220.398 -1.15315 -3.62501 0
M  V30 2353 H 221.71 -1.30152 -4.8152 0
M  V30 2354 H 220.864 0.720351 -6.02408 0
M  V30 2355 H 219.603 0.959413 -4.7817 0
M  V30 2356 H 218.608 -1.27475 -5.34818 0
M  V30 2357 H 219.833 -1.50178 -6.62286 0
M  V30 2358 H 217.779 0.739791 -6.51815 0
M  V30 2359 H 217.696 -0.664321 -7.53076 0
M  V30 2360 H 218.964 0.498644 -7.77903 0
M  V30 2361 N 223.193 1.4272 -0.668489 0
M  V30 2362 C 224.421 2.05966 -0.196348 0
M  V30 2363 C 224.836 1.50191 1.14403 0
M  V30 2364 O 224.193 0.639208 1.7094 0
M  V30 2365 C 224.244 3.61314 -0.115815 0
M  V30 2366 O 223.965 4.1502 -1.40322 0
M  V30 2367 C 225.466 4.41663 0.380579 0
M  V30 2368 H 222.686 0.663954 -0.0969829 0
M  V30 2369 H 225.23 1.82966 -0.913446 0
M  V30 2370 H 223.385 3.83448 0.551931 0
M  V30 2371 H 223.799 5.08832 -1.27243 0
M  V30 2372 H 225.273 5.5065 0.385848 0
M  V30 2373 H 225.75 4.15792 1.41471 0
M  V30 2374 H 226.356 4.24534 -0.255209 0
M  V30 2375 N 224.671 0.411399 1.52136 0
M  V30 2376 C 225.601 -0.404015 2.29978 0
M  V30 2377 C 226.582 -1.04412 1.34284 0
M  V30 2378 O 227.767 -1.0527 1.63192 0
M  V30 2379 C 224.897 -1.5197 3.12286 0
M  V30 2380 C 223.851 -1.00448 4.16046 0
M  V30 2381 C 223.177 -2.21393 4.86712 0
M  V30 2382 C 224.477 -0.0569336 5.22269 0
M  V30 2383 H 226.171 0.245529 2.98392 0
M  V30 2384 H 223.717 0.119525 1.43503 0
M  V30 2385 H 225.67 -2.09715 3.6551 0
M  V30 2386 H 224.394 -2.19716 2.41646 0
M  V30 2387 H 223.053 -0.449421 3.63835 0
M  V30 2388 H 222.701 -2.87699 4.12599 0
M  V30 2389 H 222.401 -1.87571 5.56858 0
M  V30 2390 H 223.925 -2.7974 5.4275 0
M  V30 2391 H 225.339 -0.54325 5.7072 0
M  V30 2392 H 223.736 0.192594 5.99791 0
M  V30 2393 H 224.806 0.887663 4.76706 0
M  V30 2394 N 226.149 -1.5696 0.141893 0
M  V30 2395 C 227.374 -2.00754 -0.520838 0
M  V30 2396 C 227.799 -1.0213 -1.57959 0
M  V30 2397 O 227.157 0.00371324 -1.813 0
M  V30 2398 C 227.205 -3.43318 -1.10294 0
M  V30 2399 O 226.309 -3.47679 -2.21795 0
M  V30 2400 H 225.65 -0.651564 -0.127908 0
M  V30 2401 H 228.18 -2.03221 0.23712 0
M  V30 2402 H 228.19 -3.82012 -1.43287 0
M  V30 2403 H 226.865 -4.14608 -0.327574 0
M  V30 2404 H 225.442 -3.20824 -1.9007 0
M  V30 2405 N 227.627 0.131896 -1.57047 0
M  V30 2406 C 228.873 0.843179 -1.84441 0
M  V30 2407 C 229.206 1.80129 -0.725749 0
M  V30 2408 O 228.481 1.92624 0.269469 0
M  V30 2409 C 228.764 1.60442 -3.22382 0
M  V30 2410 C 228.617 0.666782 -4.4483 0
M  V30 2411 C 229.936 2.56354 -3.5773 0
M  V30 2412 H 227.055 0.305081 -0.670891 0
M  V30 2413 H 229.697 0.107839 -1.89694 0
M  V30 2414 H 227.847 2.23128 -3.18035 0
M  V30 2415 H 229.519 0.0497646 -4.61273 0
M  V30 2416 H 227.762 -0.022609 -4.33794 0
M  V30 2417 H 228.433 1.23579 -5.37989 0
M  V30 2418 H 230.909 2.0378 -3.62785 0
M  V30 2419 H 229.785 3.06657 -4.5525 0
M  V30 2420 H 230.046 3.38419 -2.84473 0
M  V30 2421 N 229.106 1.52395 0.401703 0
M  V30 2422 C 230.331 1.70972 1.17403 0
M  V30 2423 C 230.756 0.421615 1.83314 0
M  V30 2424 O 230.114 -0.621564 1.70312 0
M  V30 2425 C 230.162 2.85151 2.20728 0
M  V30 2426 O 229.266 2.51238 3.27037 0
M  V30 2427 H 228.607 0.568927 0.342372 0
M  V30 2428 H 231.137 1.99131 0.469891 0
M  V30 2429 H 231.147 3.10279 2.64936 0
M  V30 2430 H 229.822 3.78603 1.7214 0
M  V30 2431 H 228.399 2.36808 2.88057 0
M  V30 2432 N 230.584 -0.659388 1.43143 0
M  V30 2433 C 231.995 -1.24041 1.39537 0
M  V30 2434 C 232.346 -1.95963 0.0963364 0
M  V30 2435 O 231.471 -2.00892 -0.804438 0
M  V30 2436 C 232.066 -2.25601 2.52764 0
M  V30 2437 C 230.625 -2.79195 2.52443 0
M  V30 2438 C 229.772 -1.53743 2.30778 0
M  V30 2439 H 232.723 -0.451792 1.52133 0
M  V30 2440 H 232.744 -3.07651 2.23899 0
M  V30 2441 H 232.256 -1.73226 3.47296 0
M  V30 2442 H 230.357 -3.35649 1.61773 0
M  V30 2443 H 230.47 -3.2716 3.50004 0
M  V30 2444 H 228.834 -1.80869 1.79328 0
M  V30 2445 H 229.617 -1.03312 3.27386 0
M  V30 2446 N 232.062 -1.29571 -0.897171 0
M  V30 2447 C 233.287 -1.20705 -1.68656 0
M  V30 2448 C 233.712 0.228582 -1.86706 0
M  V30 2449 O 233.07 1.16494 -1.3892 0
M  V30 2450 C 233.118 -1.9282 -3.04717 0
M  V30 2451 O 232.222 -1.24697 -3.93096 0
M  V30 2452 H 231.563 -0.418126 -0.515816 0
M  V30 2453 H 234.093 -1.71183 -1.12061 0
M  V30 2454 H 234.103 -2.01372 -3.54843 0
M  V30 2455 H 232.778 -2.97239 -2.90899 0
M  V30 2456 H 231.355 -1.2442 -3.51531 0
M  V30 2457 N 233.54 1.10788 -1.12088 0
M  V30 2458 C 234.786 1.82942 -0.875226 0
M  V30 2459 C 235.119 1.84779 0.597538 0
M  V30 2460 O 234.394 1.30578 1.44152 0
M  V30 2461 C 234.677 3.29789 -1.44606 0
M  V30 2462 C 234.53 3.36307 -2.98693 0
M  V30 2463 C 235.849 4.26064 -1.10261 0
M  V30 2464 H 232.968 0.664195 -0.319397 0
M  V30 2465 H 235.61 1.29867 -1.38689 0
M  V30 2466 H 233.76 3.75118 -1.01089 0
M  V30 2467 H 235.432 2.99487 -3.50864 0
M  V30 2468 H 233.675 2.76318 -3.34411 0
M  V30 2469 H 234.346 4.39694 -3.33726 0
M  V30 2470 H 236.822 3.88951 -1.4784 0
M  V30 2471 H 235.698 5.27183 -1.52869 0
M  V30 2472 H 235.959 4.42098 -0.0142953 0
M  V30 2473 N 235.018 0.912232 1.28515 0
M  V30 2474 C 235.928 0.404506 2.31086 0
M  V30 2475 C 236.944 -0.50707 1.66448 0
M  V30 2476 O 238.12 -0.393624 1.97516 0
M  V30 2477 C 235.185 -0.348572 3.44943 0
M  V30 2478 C 234.246 0.59604 4.25142 0
M  V30 2479 C 233.479 -0.121194 5.33562 0
M  V30 2480 O 233.702 -1.34317 5.5436 0
M  V30 2481 O 232.636 0.542716 5.99448 0
M  V30 2482 H 236.462 1.25579 2.76521 0
M  V30 2483 H 234.047 0.676998 1.33181 0
M  V30 2484 H 235.929 -0.77395 4.14232 0
M  V30 2485 H 234.604 -1.17571 3.01594 0
M  V30 2486 H 233.511 1.07079 3.58448 0
M  V30 2487 H 234.844 1.38995 4.72167 0
M  V30 2488 N 236.496 -1.42363 0.676048 0
M  V30 2489 C 237.912 -1.55811 0.345718 0
M  V30 2490 C 238.112 -1.65544 -1.14879 0
M  V30 2491 O 237.168 -1.62306 -1.93424 0
M  V30 2492 C 238.481 -2.80746 1.07713 0
M  V30 2493 C 240.029 -2.9452 1.05958 0
M  V30 2494 C 240.504 -4.22318 1.77233 0
M  V30 2495 N 241.995 -4.29233 1.74108 0
M  V30 2496 C 242.73 -5.26935 2.26113 0
M  V30 2497 N 242.226 -6.30783 2.86505 0
M  V30 2498 N 244.019 -5.18741 2.1648 0
M  V30 2499 H 236.17 -1.34289 1.6456 0
M  V30 2500 H 238.433 -0.646506 0.69335 0
M  V30 2501 H 238.139 -2.79696 2.13221 0
M  V30 2502 H 238.013 -3.71676 0.64316 0
M  V30 2503 H 240.4 -2.95097 0.0128255 0
M  V30 2504 H 240.481 -2.04817 1.53244 0
M  V30 2505 H 240.125 -4.22502 2.81877 0
M  V30 2506 H 240.055 -5.10958 1.27396 0
M  V30 2507 H 242.546 -3.54814 1.30059 0
M  V30 2508 H 242.859 -7.01691 3.23805 0
M  V30 2509 H 241.204 -6.31341 2.90575 0
M  V30 2510 H 244.395 -4.36533 1.68987 0
M  V30 2511 H 244.568 -5.94721 2.57316 0
M  V30 2512 N 237.974 -0.419461 -1.51915 0
M  V30 2513 C 239.385 0.0477853 -1.86639 0
M  V30 2514 C 239.736 1.43531 -1.33766 0
M  V30 2515 O 238.861 2.05401 -0.68113 0
M  V30 2516 C 239.456 0.0934885 -3.38671 0
M  V30 2517 C 238.015 0.505097 -3.72996 0
M  V30 2518 C 237.162 -0.313792 -2.75519 0
M  V30 2519 H 240.113 -0.636088 -1.45395 0
M  V30 2520 H 240.134 0.906667 -3.6954 0
M  V30 2521 H 239.646 -0.916501 -3.77123 0
M  V30 2522 H 237.747 1.52135 -3.40126 0
M  V30 2523 H 237.86 0.242309 -4.78487 0
M  V30 2524 H 236.224 0.225363 -2.53701 0
M  V30 2525 H 237.007 -1.32232 -3.16812 0
M  V30 2526 N 239.452 1.56882 -0.150215 0
M  V30 2527 C 240.729 1.87844 0.545327 0
M  V30 2528 C 241.109 1.0567 1.82749 0
M  V30 2529 O 240.457 0.144442 2.28043 0
M  V30 2530 C 240.667 3.39526 0.80767 0
M  V30 2531 C 242.015 4.08814 1.14703 0
M  V30 2532 O 243.039 3.44723 0.896917 0
M  V30 2533 O 241.898 5.22004 1.61784 0
M  V30 2534 H 238.992 0.778677 0.278553 0
M  V30 2535 H 241.538 1.68666 -0.187068 0
M  V30 2536 H 240.31 3.91173 -0.0996096 0
M  V30 2537 H 239.933 3.64243 1.59413 0
M  V30 2538 N 240.93 -0.123565 1.57115 0
M  V30 2539 C 242.16 -0.845233 1.88519 0
M  V30 2540 C 242.568 -1.74168 0.739064 0
M  V30 2541 O 241.911 -1.81244 -0.299355 0
M  V30 2542 C 241.973 -1.73452 3.14888 0
M  V30 2543 C 241.637 -1.01285 4.45635 0
M  V30 2544 C 242.634 -0.355774 5.18681 0
M  V30 2545 C 240.319 -0.99538 4.92339 0
M  V30 2546 C 242.313 0.309114 6.3665 0
M  V30 2547 C 240 -0.32669 6.10226 0
M  V30 2548 C 240.998 0.324406 6.82229 0
M  V30 2549 O 240.686 0.982437 7.97874 0
M  V30 2550 H 240.418 -0.248534 0.628655 0
M  V30 2551 H 242.972 -0.113907 2.05084 0
M  V30 2552 H 241.202 -2.50737 2.94394 0
M  V30 2553 H 242.891 -2.33021 3.32349 0
M  V30 2554 H 243.657 -0.360918 4.83655 0
M  V30 2555 H 239.536 -1.49159 4.36202 0
M  V30 2556 H 243.08 0.8179 6.92789 0
M  V30 2557 H 238.977 -0.319294 6.4471 0
M  V30 2558 H 239.745 0.886454 8.13686 0
M  V30 2559 N 242.408 -1.52605 -0.393616 0
M  V30 2560 C 243.824 -1.41753 -0.733357 0
M  V30 2561 C 244.024 -0.534293 -1.94287 0
M  V30 2562 O 243.08 -0.0059787 -2.52499 0
M  V30 2563 C 244.393 -2.84531 -0.972772 0
M  V30 2564 C 245.941 -2.93978 -1.07453 0
M  V30 2565 C 246.416 -4.37756 -1.3466 0
M  V30 2566 N 247.907 -4.4106 -1.41492 0
M  V30 2567 C 248.642 -5.49387 -1.642 0
M  V30 2568 N 248.138 -6.67806 -1.8441 0
M  V30 2569 N 249.931 -5.36923 -1.66342 0
M  V30 2570 H 242.082 -2.08555 0.402328 0
M  V30 2571 H 244.345 -0.940654 0.117789 0
M  V30 2572 H 244.051 -3.51353 -0.156204 0
M  V30 2573 H 243.925 -3.26508 -1.88871 0
M  V30 2574 H 246.312 -2.27326 -1.88167 0
M  V30 2575 H 246.393 -2.55435 -0.136605 0
M  V30 2576 H 246.037 -5.04972 -0.544581 0
M  V30 2577 H 245.967 -4.73848 -2.2973 0
M  V30 2578 H 248.458 -3.55705 -1.27601 0
M  V30 2579 H 248.771 -7.46141 -2.01231 0
M  V30 2580 H 247.116 -6.70843 -1.81644 0
M  V30 2581 H 250.307 -4.43381 -1.50102 0
M  V30 2582 H 250.48 -6.21416 -1.837 0
M  V30 2583 N 243.887 0.651787 -1.4349 0
M  V30 2584 C 244.835 1.78586 -1.49029 0
M  V30 2585 C 245.829 1.65448 -0.363767 0
M  V30 2586 O 247.035 1.71777 -0.537821 0
M  V30 2587 H 243.41 0.589236 -0.467231 0
M  V30 2588 H 245.381 1.71035 -2.44519 0
M  V30 2589 C 244.13 3.16851 -1.43181 0
M  V30 2590 H 243.453 3.27598 -2.29171 0
M  V30 2591 H 244.893 3.96156 -1.51118 0
M  V30 2592 C 243.352 3.36568 -0.149616 0
M  V30 2593 O 243.882 3.93885 0.788509 0
M  V30 2594 N 242.088 2.90539 -0.0593484 0
M  V30 2595 H 241.635 2.4408 -0.823575 0
M  V30 2596 H 241.593 3.04108 0.797853 0
M  V30 2597 N 245.365 1.30045 0.890287 0
M  V30 2598 C 246.614 1.17929 1.63633 0
M  V30 2599 C 246.927 -0.266204 1.9378 0
M  V30 2600 O 248.133 -0.508804 2.6669 0
M  V30 2601 C 246.589 2.06317 2.94892 0
M  V30 2602 C 246.197 3.55745 2.72305 0
M  V30 2603 C 247.941 2.0295 3.72843 0
M  V30 2604 C 245.848 4.36205 3.99348 0
M  V30 2605 H 244.778 0.437782 0.613892 0
M  V30 2606 H 247.429 1.54754 0.986075 0
M  V30 2607 H 245.811 1.6237 3.61182 0
M  V30 2608 H 246.985 4.07805 2.1455 0
M  V30 2609 H 245.3 3.6088 2.07737 0
M  V30 2610 H 247.897 2.60319 4.67053 0
M  V30 2611 H 248.24 1.0117 4.0382 0
M  V30 2612 H 248.773 2.4499 3.13408 0
M  V30 2613 H 245.512 5.38659 3.73533 0
M  V30 2614 H 245.032 3.8891 4.56628 0
M  V30 2615 H 246.711 4.47362 4.67415 0
M  V30 2616 N 246.843 -1.10192 1.12674 0
M  V30 2617 C 248.071 -1.85983 0.906527 0
M  V30 2618 C 248.486 -1.80783 -0.544333 0
M  V30 2619 O 247.843 -1.19834 -1.37645 0
M  V30 2620 C 247.894 -3.34281 1.37618 0
M  V30 2621 O 247.615 -3.39401 2.77017 0
M  V30 2622 C 249.116 -4.26938 1.19325 0
M  V30 2623 H 246.336 -0.587716 0.323775 0
M  V30 2624 H 248.88 -1.39284 1.49734 0
M  V30 2625 H 247.035 -3.78436 0.828539 0
M  V30 2626 H 247.449 -4.31838 2.97684 0
M  V30 2627 H 248.923 -5.29181 1.57071 0
M  V30 2628 H 249.4 -4.38995 0.134097 0
M  V30 2629 H 250.006 -3.8859 1.72852 0
M  V30 2630 N 248.321 -0.919034 -1.28029 0
M  V30 2631 C 249.568 -0.554934 -1.94748 0
M  V30 2632 C 249.896 0.90231 -1.72304 0
M  V30 2633 O 249.151 1.65767 -1.04018 0
M  V30 2634 C 249.45 -0.816855 -3.4794 0
M  V30 2635 C 249.116 -2.25448 -3.90492 0
M  V30 2636 C 247.778 -2.64752 -4.01821 0
M  V30 2637 C 250.13 -3.18977 -4.12193 0
M  V30 2638 C 247.458 -3.96727 -4.32232 0
M  V30 2639 C 249.81 -4.50523 -4.44086 0
M  V30 2640 C 248.474 -4.89673 -4.53626 0
M  V30 2641 H 247.744 -0.203065 -0.712633 0
M  V30 2642 H 250.391 -1.16136 -1.52265 0
M  V30 2643 H 248.696 -0.127677 -3.91592 0
M  V30 2644 H 250.393 -0.514238 -3.97689 0
M  V30 2645 H 246.983 -1.93952 -3.82205 0
M  V30 2646 H 251.167 -2.89817 -4.02889 0
M  V30 2647 H 246.423 -4.26754 -4.37825 0
M  V30 2648 H 250.597 -5.23005 -4.59825 0
M  V30 2649 H 248.224 -5.91969 -4.76946 0
M  V30 2650 N 249.799 1.42003 -0.683588 0
M  V30 2651 C 251.076 1.95112 -0.138075 0
M  V30 2652 C 251.456 1.62359 1.34918 0
M  V30 2653 O 250.804 0.924311 2.08971 0
M  V30 2654 C 251.014 3.46505 -0.416581 0
M  V30 2655 C 252.362 4.23254 -0.337834 0
M  V30 2656 O 253.386 3.54468 -0.35082 0
M  V30 2657 O 252.245 5.45743 -0.287596 0
M  V30 2658 H 249.339 0.826961 -0.00797996 0
M  V30 2659 H 251.885 1.51784 -0.758924 0
M  V30 2660 H 250.657 3.63582 -1.4465 0
M  V30 2661 H 250.28 3.969 0.235839 0
M  V30 2662 N 251.277 0.427512 1.51691 0
M  V30 2663 C 252.187 -0.39527 2.31246 0
M  V30 2664 C 253.203 -1.03674 1.39742 0
M  V30 2665 O 254.379 -1.03425 1.72816 0
M  V30 2666 C 251.444 -1.48706 3.13189 0
M  V30 2667 C 250.505 -0.866743 4.20459 0
M  V30 2668 C 249.738 -1.90651 4.98486 0
M  V30 2669 O 249.961 -3.12733 4.77026 0
M  V30 2670 O 248.895 -1.5025 5.82845 0
M  V30 2671 H 252.721 0.253918 3.02637 0
M  V30 2672 H 250.306 0.190274 1.48183 0
M  V30 2673 H 252.188 -2.12047 3.64162 0
M  V30 2674 H 250.863 -2.12051 2.44573 0
M  V30 2675 H 249.77 -0.195544 3.73589 0
M  V30 2676 H 251.103 -0.276934 4.9142 0
M  V30 2677 N 252.755 -1.56801 0.158532 0
M  V30 2678 C 253.685 -2.20347 -0.772609 0
M  V30 2679 C 254.666 -1.15518 -1.24859 0
M  V30 2680 O 255.851 -1.43902 -1.30406 0
M  V30 2681 C 252.981 -2.83417 -2.00729 0
M  V30 2682 C 251.935 -3.94174 -1.66765 0
M  V30 2683 C 251.261 -4.44233 -2.97592 0
M  V30 2684 C 252.561 -5.14392 -0.905447 0
M  V30 2685 H 254.255 -2.98413 -0.242959 0
M  V30 2686 H 251.801 -1.43537 -0.115419 0
M  V30 2687 H 253.754 -3.26543 -2.6636 0
M  V30 2688 H 252.478 -2.02701 -2.56086 0
M  V30 2689 H 251.137 -3.51684 -1.03508 0
M  V30 2690 H 250.785 -3.60325 -3.50963 0
M  V30 2691 H 250.485 -5.18945 -2.75626 0
M  V30 2692 H 252.009 -4.90037 -3.64274 0
M  V30 2693 H 253.423 -5.5429 -1.46408 0
M  V30 2694 H 251.82 -5.9494 -0.7853 0
M  V30 2695 H 252.89 -4.84795 0.100668 0
M  V30 2696 N 254.233 0.115231 -1.57178 0
M  V30 2697 C 255.479 0.82357 -1.85325 0
M  V30 2698 C 255.812 1.79349 -0.744814 0
M  V30 2699 O 255.087 1.92899 0.249024 0
M  V30 2700 C 255.37 1.57014 -3.24066 0
M  V30 2701 C 255.223 0.619565 -4.45513 0
M  V30 2702 C 256.542 2.52545 -3.60429 0
M  V30 2703 H 253.661 0.297948 -0.674089 0
M  V30 2704 H 256.303 0.0877138 -1.89797 0
M  V30 2705 H 254.453 2.19742 -3.20383 0
M  V30 2706 H 256.125 0.000837639 -4.613 0
M  V30 2707 H 254.368 -0.0686174 -4.33746 0
M  V30 2708 H 255.039 1.17866 -5.3927 0
M  V30 2709 H 257.515 1.9992 -3.64926 0
M  V30 2710 H 256.391 3.01811 -4.58477 0
M  V30 2711 H 256.652 3.35383 -2.88047 0
M  V30 2712 N 255.711 1.52812 0.385517 0
M  V30 2713 C 256.621 1.80766 1.49535 0
M  V30 2714 C 257.637 0.694651 1.59532 0
M  V30 2715 O 258.813 0.982611 1.75803 0
M  V30 2716 C 255.878 1.97381 2.85029 0
M  V30 2717 C 254.939 3.21295 2.84724 0
M  V30 2718 C 254.172 3.37108 4.13756 0
M  V30 2719 O 254.395 2.5765 5.08893 0
M  V30 2720 O 253.329 4.30378 4.20783 0
M  V30 2721 H 257.155 2.75015 1.28842 0
M  V30 2722 H 254.74 1.37946 0.573697 0
M  V30 2723 H 256.622 2.09996 3.65349 0
M  V30 2724 H 255.297 1.06322 3.05741 0
M  V30 2725 H 254.204 3.1412 2.03174 0
M  V30 2726 H 255.537 4.12212 2.68965 0
M  V30 2727 N 257.189 -0.644168 1.43834 0
M  V30 2728 C 258.152 -1.73857 1.49353 0
M  V30 2729 C 259.152 -1.56315 0.377112 0
M  V30 2730 O 260.342 -1.62048 0.639226 0
M  V30 2731 C 257.474 -3.12819 1.35488 0
M  V30 2732 H 258.667 -1.70342 2.46827 0
M  V30 2733 H 256.22 -0.856652 1.30733 0
M  V30 2734 H 256.955 -3.2194 0.390569 0
M  V30 2735 H 256.74 -3.26958 2.16428 0
M  V30 2736 H 258.23 -3.92606 1.42302 0
M  V30 2737 N 258.668 -1.30515 -0.883378 0
M  V30 2738 C 259.898 -1.22182 -1.66599 0
M  V30 2739 C 260.306 0.217507 -1.87946 0
M  V30 2740 O 259.649 1.1554 -1.42815 0
M  V30 2741 C 259.711 -1.88146 -3.06335 0
M  V30 2742 C 259.375 -3.37476 -3.08154 0
M  V30 2743 C 260.372 -4.33443 -2.87094 0
M  V30 2744 C 258.057 -3.7895 -3.29701 0
M  V30 2745 C 260.051 -5.68858 -2.8754 0
M  V30 2746 C 257.738 -5.14482 -3.29776 0
M  V30 2747 C 258.736 -6.09246 -3.0872 0
M  V30 2748 O 258.424 -7.42302 -3.08615 0
M  V30 2749 H 258.156 -0.423898 -0.52658 0
M  V30 2750 H 260.71 -1.72703 -1.11188 0
M  V30 2751 H 258.94 -1.32157 -3.63416 0
M  V30 2752 H 260.629 -1.7391 -3.66756 0
M  V30 2753 H 261.395 -4.02733 -2.70243 0
M  V30 2754 H 257.274 -3.05631 -3.45124 0
M  V30 2755 H 260.818 -6.428 -2.71024 0
M  V30 2756 H 256.715 -5.44832 -3.46163 0
M  V30 2757 H 257.483 -7.5131 -3.24769 0
M  V30 2758 N 260.146 1.09593 -1.13257 0
M  V30 2759 C 261.078 2.16015 -0.766167 0
M  V30 2760 C 262.091 1.61423 0.211303 0
M  V30 2761 O 263.28 1.78498 -0.00863946 0
M  V30 2762 C 260.38 3.38706 -0.114662 0
M  V30 2763 C 259.553 4.22717 -1.12379 0
M  V30 2764 C 258.612 5.23835 -0.498301 0
M  V30 2765 O 257.638 5.573 -1.15781 0
M  V30 2766 N 258.84 5.75886 0.730417 0
M  V30 2767 H 261.605 2.48055 -1.68193 0
M  V30 2768 H 259.166 1.25292 -1.02535 0
M  V30 2769 H 261.158 4.03464 0.315991 0
M  V30 2770 H 259.728 3.04569 0.704011 0
M  V30 2771 H 258.948 3.54122 -1.73179 0
M  V30 2772 H 260.236 4.75673 -1.80589 0
M  V30 2773 H 259.634 5.50911 1.28504 0
M  V30 2774 H 258.191 6.42387 1.10376 0
M  V30 2775 N 261.624 0.925811 1.2754 0
M  V30 2776 C 262.534 0.428993 2.30644 0
M  V30 2777 C 263.55 -0.489387 1.66976 0
M  V30 2778 O 264.726 -0.372653 1.97922 0
M  V30 2779 C 261.791 -0.311967 3.45294 0
M  V30 2780 C 260.852 0.641098 4.24486 0
M  V30 2781 C 260.085 -0.0645955 5.33661 0
M  V30 2782 O 260.308 -1.28429 5.55754 0
M  V30 2783 O 259.242 0.606265 5.98839 0
M  V30 2784 H 263.068 1.28504 2.75173 0
M  V30 2785 H 260.653 0.691086 1.32455 0
M  V30 2786 H 262.535 -0.729972 4.15029 0
M  V30 2787 H 261.21 -1.14365 3.02824 0
M  V30 2788 H 260.117 1.10874 3.57292 0
M  V30 2789 H 261.45 1.43995 4.70666 0
M  V30 2790 N 263.102 -1.41638 0.69111 0
M  V30 2791 C 264.034 -2.29194 -0.0161523 0
M  V30 2792 C 265.047 -1.44549 -0.748955 0
M  V30 2793 O 266.236 -1.681 -0.6004 0
M  V30 2794 C 263.336 -3.22325 -1.0469 0
M  V30 2795 C 262.509 -4.35706 -0.384621 0
M  V30 2796 C 261.568 -5.09443 -1.31737 0
M  V30 2797 O 260.594 -5.63386 -0.811451 0
M  V30 2798 N 261.796 -5.16487 -2.64993 0
M  V30 2799 H 264.561 -2.90534 0.735523 0
M  V30 2800 H 262.122 -1.52742 0.53679 0
M  V30 2801 H 264.114 -3.68522 -1.67252 0
M  V30 2802 H 262.684 -2.62323 -1.70015 0
M  V30 2803 H 261.904 -3.91948 0.420804 0
M  V30 2804 H 263.192 -5.08743 0.0760765 0
M  V30 2805 H 262.59 -4.741 -3.08619 0
M  V30 2806 H 261.147 -5.66276 -3.22761 0
M  V30 2807 N 264.58 -0.43555 -1.51462 0
M  V30 2808 C 265.543 0.365137 -2.26273 0
M  V30 2809 C 266.543 0.951227 -1.29647 0
M  V30 2810 O 267.733 0.825958 -1.53374 0
M  V30 2811 C 264.865 1.51645 -3.05314 0
M  V30 2812 H 266.058 -0.290474 -2.9849 0
M  V30 2813 H 263.611 -0.188676 -1.55157 0
M  V30 2814 H 264.346 2.20816 -2.3751 0
M  V30 2815 H 264.131 1.10238 -3.76284 0
M  V30 2816 H 265.621 2.08218 -3.61987 0
M  V30 2817 N 266.058 1.56714 -0.166846 0
M  V30 2818 C 267.005 2.17746 0.765193 0
M  V30 2819 C 267.975 1.11614 1.23011 0
M  V30 2820 O 269.16 1.39745 1.29908 0
M  V30 2821 C 266.3 2.81882 1.9909 0
M  V30 2822 C 265.413 4.02462 1.56997 0
M  V30 2823 C 264.548 4.54537 2.749 0
M  V30 2824 C 263.587 5.67538 2.29275 0
M  V30 2825 N 262.724 6.14142 3.40255 0
M  V30 2826 H 267.564 2.97048 0.237952 0
M  V30 2827 H 265.101 1.4672 0.105725 0
M  V30 2828 H 267.059 3.17221 2.70974 0
M  V30 2829 H 265.689 2.05191 2.49192 0
M  V30 2830 H 264.741 3.72973 0.748037 0
M  V30 2831 H 266.053 4.84273 1.19503 0
M  V30 2832 H 265.207 4.92035 3.54946 0
M  V30 2833 H 263.946 3.71774 3.1565 0
M  V30 2834 H 262.951 5.29597 1.47674 0
M  V30 2835 H 264.176 6.52099 1.89588 0
M  V30 2836 H 262.122 5.3431 3.8059 0
M  V30 2837 H 262.039 6.9093 3.06841 0
M  V30 2838 H 263.307 6.56289 4.206 0
M  V30 2839 N 267.536 -0.106894 1.57237 0
M  V30 2840 C 268.784 -0.810921 1.85117 0
M  V30 2841 C 269.105 -1.7984 0.753827 0
M  V30 2842 O 268.375 -1.94649 -0.221056 0
M  V30 2843 H 266.955 -0.302466 0.683025 0
M  V30 2844 H 269.617 -0.0913324 1.94686 0
M  V30 2845 H 268.713 -1.34875 2.81452 0
M  V30 2846 N 269.014 -1.53014 -0.377408 0
M  V30 2847 C 269.944 -1.81589 -1.46791 0
M  V30 2848 C 270.925 -0.668622 -1.56408 0
M  V30 2849 O 272.11 -0.917337 -1.71168 0
M  V30 2850 C 269.24 -1.99519 -2.8427 0
M  V30 2851 C 268.194 -3.15249 -2.89486 0
M  V30 2852 C 267.52 -3.18451 -4.29527 0
M  V30 2853 C 268.82 -4.54084 -2.58079 0
M  V30 2854 H 270.514 -2.7291 -1.23127 0
M  V30 2855 H 268.06 -1.31319 -0.590883 0
M  V30 2856 H 270.013 -2.18092 -3.60575 0
M  V30 2857 H 268.737 -1.04897 -3.09296 0
M  V30 2858 H 267.396 -2.96477 -2.15631 0
M  V30 2859 H 267.044 -2.2149 -4.5161 0
M  V30 2860 H 266.744 -3.962 -4.33934 0
M  V30 2861 H 268.268 -3.39193 -5.07721 0
M  V30 2862 H 269.682 -4.72899 -3.24098 0
M  V30 2863 H 268.079 -5.33987 -2.7382 0
M  V30 2864 H 269.149 -4.60006 -1.53372 0
M  V30 2865 N 270.492 0.636531 -1.44174 0
M  V30 2866 C 271.422 1.76003 -1.53444 0
M  V30 2867 C 272.403 1.65619 -0.387841 0
M  V30 2868 O 273.588 1.84461 -0.607257 0
M  V30 2869 C 270.718 3.14511 -1.4731 0
M  V30 2870 C 269.672 3.39677 -2.60391 0
M  V30 2871 C 268.998 4.78159 -2.39308 0
M  V30 2872 C 270.298 3.32772 -4.02567 0
M  V30 2873 H 271.992 1.68501 -2.47483 0
M  V30 2874 H 269.538 0.809237 -1.19111 0
M  V30 2875 H 271.491 3.92878 -1.52397 0
M  V30 2876 H 270.215 3.22783 -0.49785 0
M  V30 2877 H 268.874 2.63688 -2.54684 0
M  V30 2878 H 268.522 4.83128 -1.39988 0
M  V30 2879 H 268.222 4.95956 -3.15122 0
M  V30 2880 H 269.746 5.58762 -2.46205 0
M  V30 2881 H 271.16 4.01051 -4.09672 0
M  V30 2882 H 269.557 3.62104 -4.7854 0
M  V30 2883 H 270.627 2.30669 -4.2652 0
M  V30 2884 N 271.97 1.30982 0.876444 0
M  V30 2885 C 273.247 1.10942 1.61094 0
M  V30 2886 C 273.627 -0.338223 2.08373 0
M  V30 2887 O 272.975 -1.33122 1.85717 0
M  V30 2888 C 273.185 2.11789 2.77392 0
M  V30 2889 C 274.533 2.43965 3.47514 0
M  V30 2890 O 275.557 2.10166 2.87591 0
M  V30 2891 O 274.416 3.01817 4.55597 0
M  V30 2892 H 271.51 0.42667 0.708436 0
M  V30 2893 H 274.056 1.42438 0.922474 0
M  V30 2894 H 272.828 3.09194 2.39823 0
M  V30 2895 H 272.451 1.81161 3.5393 0
M  V30 2896 N 273.449 -1.08991 1.13837 0
M  V30 2897 C 274.697 -1.80899 0.901098 0
M  V30 2898 C 275.018 -1.86356 -0.574134 0
M  V30 2899 O 274.288 -1.35235 -1.41733 0
M  V30 2900 H 272.868 -0.669966 0.330386 0
M  V30 2901 H 275.53 -1.318 1.43578 0
M  V30 2902 H 274.626 -2.83929 1.29578 0
M  V30 2903 N 274.927 -0.932562 -1.27047 0
M  V30 2904 C 276.175 -0.574422 -1.93765 0
M  V30 2905 C 276.496 0.887993 -1.73608 0
M  V30 2906 O 275.766 1.62999 -1.08665 0
M  V30 2907 H 274.346 -0.209451 -0.717035 0
M  V30 2908 H 277.008 -1.18601 -1.5466 0
M  V30 2909 H 276.104 -0.784841 -3.02071 0
M  V30 2910 N 276.405 1.4127 -0.698611 0
M  V30 2911 C 277.651 2.01478 -0.231207 0
M  V30 2912 C 277.984 1.55215 1.16713 0
M  V30 2913 O 277.259 0.764672 1.78838 0
M  V30 2914 C 277.542 3.58912 -0.292281 0
M  V30 2915 C 277.395 4.15293 -1.72778 0
M  V30 2916 C 278.714 4.38736 0.346194 0
M  V30 2917 H 275.833 0.732025 -0.0854878 0
M  V30 2918 H 278.475 1.67977 -0.887906 0
M  V30 2919 H 276.625 3.87582 0.26686 0
M  V30 2920 H 278.297 3.97486 -2.341 0
M  V30 2921 H 276.54 3.7022 -2.26096 0
M  V30 2922 H 277.211 5.24452 -1.72202 0
M  V30 2923 H 279.687 4.15897 -0.130035 0
M  V30 2924 H 278.563 5.48221 0.272932 0
M  V30 2925 H 278.824 4.18425 1.42734 0
M  V30 2926 N 277.883 0.443576 1.51229 0
M  V30 2927 C 279.16 -0.181038 1.9476 0
M  V30 2928 C 279.54 -1.59523 1.38259 0
M  V30 2929 O 278.888 -2.2122 0.572198 0
M  V30 2930 C 279.098 -0.152422 3.48667 0
M  V30 2931 C 280.446 -0.354923 4.23114 0
M  V30 2932 O 281.47 -0.230257 3.55455 0
M  V30 2933 O 280.329 -0.603674 5.43156 0
M  V30 2934 H 277.423 -0.1266 0.817252 0
M  V30 2935 H 279.969 0.502004 1.62105 0
M  V30 2936 H 278.741 0.836022 3.82265 0
M  V30 2937 H 278.364 -0.878107 3.87782 0
M  V30 2938 N 279.361 -1.56624 0.175154 0
M  V30 2939 C 280.61 -1.96173 -0.468921 0
M  V30 2940 C 280.923 -1.06401 -1.64128 0
M  V30 2941 O 282.129 -1.35648 -2.35185 0
M  V30 2942 C 280.585 -3.48833 -0.885633 0
M  V30 2943 C 280.193 -4.47237 0.261343 0
M  V30 2944 C 281.937 -3.97194 -1.49791 0
M  V30 2945 C 279.844 -5.9114 -0.175214 0
M  V30 2946 H 278.774 -0.732455 -0.178958 0
M  V30 2947 H 281.425 -1.81591 0.263997 0
M  V30 2948 H 279.807 -3.58848 -1.67464 0
M  V30 2949 H 280.981 -4.4894 1.03871 0
M  V30 2950 H 279.296 -4.08956 0.783827 0
M  V30 2951 H 281.893 -5.02167 -1.83665 0
M  V30 2952 H 282.236 -3.40351 -2.39722 0
M  V30 2953 H 282.769 -3.90212 -0.773267 0
M  V30 2954 H 279.508 -6.51865 0.689414 0
M  V30 2955 H 279.028 -5.92735 -0.91786 0
M  V30 2956 H 280.707 -6.44044 -0.617792 0
M  V30 2957 N 280.839 0.0985539 -1.57292 0
M  V30 2958 C 281.769 1.12064 -2.04851 0
M  V30 2959 C 282.75 1.41981 -0.936767 0
M  V30 2960 O 283.935 1.52071 -1.20781 0
M  V30 2961 C 281.065 2.44144 -2.47004 0
M  V30 2962 C 280.019 2.28643 -3.6181 0
M  V30 2963 C 279.345 3.65869 -3.89929 0
M  V30 2964 C 280.645 1.72986 -4.92822 0
M  V30 2965 H 282.339 0.724979 -2.9049 0
M  V30 2966 H 279.885 0.34729 -1.39749 0
M  V30 2967 H 281.838 3.15914 -2.78884 0
M  V30 2968 H 280.562 2.85639 -1.5836 0
M  V30 2969 H 279.221 1.59318 -3.30172 0
M  V30 2970 H 278.869 4.04885 -2.98458 0
M  V30 2971 H 278.569 3.56344 -4.67218 0
M  V30 2972 H 280.093 4.39112 -4.2428 0
M  V30 2973 H 281.507 2.34593 -5.23105 0
M  V30 2974 H 279.904 1.74229 -5.74251 0
M  V30 2975 H 280.974 0.689007 -4.7998 0
M  V30 2976 N 282.317 1.53212 0.369288 0
M  V30 2977 C 283.247 1.82365 1.45826 0
M  V30 2978 C 284.228 0.676907 1.56051 0
M  V30 2979 O 285.413 0.926401 1.70679 0
M  V30 2980 C 282.543 2.01023 2.83208 0
M  V30 2981 C 281.497 3.1678 2.8781 0
M  V30 2982 C 280.823 3.20724 4.27832 0
M  V30 2983 C 282.123 4.55447 2.55667 0
M  V30 2984 H 283.817 2.73559 1.21678 0
M  V30 2985 H 281.363 1.3163 0.583911 0
M  V30 2986 H 283.316 2.20001 3.59413 0
M  V30 2987 H 282.04 1.06536 3.08736 0
M  V30 2988 H 280.699 2.97616 2.14056 0
M  V30 2989 H 280.347 2.23882 4.50429 0
M  V30 2990 H 280.047 3.98496 4.31827 0
M  V30 2991 H 281.571 3.41881 5.05915 0
M  V30 2992 H 282.985 4.74611 3.21586 0
M  V30 2993 H 281.382 5.35432 2.70984 0
M  V30 2994 H 282.452 4.60812 1.5093 0
M  V30 2995 N 283.795 -0.628877 1.44509 0
M  V30 2996 C 285.044 -1.38437 1.4669 0
M  V30 2997 C 285.357 -1.95322 0.104272 0
M  V30 2998 O 286.563 -2.715 0.00362163 0
M  V30 2999 C 285.019 -2.50659 2.5826 0
M  V30 3000 C 284.627 -2.00277 4.0074 0
M  V30 3001 C 286.371 -3.27844 2.69664 0
M  V30 3002 C 284.278 -3.09854 5.0373 0
M  V30 3003 H 283.208 -0.520245 0.545766 0
M  V30 3004 H 285.859 -0.676313 1.70582 0
M  V30 3005 H 284.241 -3.2405 2.27612 0
M  V30 3006 H 285.415 -1.33736 4.40966 0
M  V30 3007 H 283.73 -1.35901 3.93599 0
M  V30 3008 H 286.327 -4.09534 3.43781 0
M  V30 3009 H 286.67 -3.77471 1.75559 0
M  V30 3010 H 287.203 -2.61543 2.99733 0
M  V30 3011 H 283.942 -2.65168 5.99472 0
M  V30 3012 H 283.462 -3.7503 4.68095 0
M  V30 3013 H 285.141 -3.74592 5.27532 0
M  V30 3014 N 285.273 -1.31445 -0.869486 0
M  V30 3015 C 286.183 -1.21097 -2.0093 0
M  V30 3016 C 287.199 -0.127584 -1.73532 0
M  V30 3017 O 288.375 -0.345477 -1.98415 0
M  V30 3018 C 285.44 -0.919378 -3.34288 0
M  V30 3019 C 284.501 -2.08971 -3.75006 0
M  V30 3020 C 283.734 -1.81194 -5.02001 0
M  V30 3021 O 283.957 -0.747296 -5.65484 0
M  V30 3022 O 282.891 -2.66883 -5.39497 0
M  V30 3023 H 286.717 -2.16883 -2.12592 0
M  V30 3024 H 284.302 -1.11189 -0.997868 0
M  V30 3025 H 286.184 -0.772625 -4.14257 0
M  V30 3026 H 284.859 0.00844772 -3.23699 0
M  V30 3027 H 283.766 -2.29187 -2.95676 0
M  V30 3028 H 285.099 -2.9998 -3.90221 0
M  V30 3029 N 286.751 1.08385 -1.14413 0
M  V30 3030 C 287.979 1.84517 -0.936001 0
M  V30 3031 C 288.394 1.81626 0.515503 0
M  V30 3032 O 287.751 1.22008 1.35721 0
M  V30 3033 C 287.802 3.32049 -1.42918 0
M  V30 3034 O 287.523 3.34951 -2.82381 0
M  V30 3035 C 289.024 4.24986 -1.26103 0
M  V30 3036 H 286.244 0.582491 -0.333084 0
M  V30 3037 H 288.788 1.36885 -1.5193 0
M  V30 3038 H 286.943 3.7707 -0.888641 0
M  V30 3039 H 287.357 4.27048 -3.04517 0
M  V30 3040 H 288.831 5.26615 -1.6547 0
M  V30 3041 H 289.308 4.38726 -0.20392 0
M  V30 3042 H 289.914 3.85791 -1.79012 0
M  V30 3043 N 288.23 0.939286 1.26551 0
M  V30 3044 C 289.479 0.581601 1.93133 0
M  V30 3045 C 289.792 -0.883224 1.74524 0
M  V30 3046 O 290.998 -1.3502 2.35546 0
M  V30 3047 C 289.454 0.989425 3.46032 0
M  V30 3048 C 289.062 2.47573 3.73379 0
M  V30 3049 C 290.806 0.703544 4.18629 0
M  V30 3050 C 288.713 2.82235 5.19709 0
M  V30 3051 H 287.643 0.213803 0.723052 0
M  V30 3052 H 290.294 1.14167 1.4366 0
M  V30 3053 H 288.676 0.357902 3.94379 0
M  V30 3054 H 289.85 3.15614 3.35744 0
M  V30 3055 H 288.165 2.73471 3.1401 0
M  V30 3056 H 290.762 0.938869 5.26393 0
M  V30 3057 H 291.105 -0.359639 4.14744 0
M  V30 3058 H 291.638 1.2947 3.76141 0
M  V30 3059 H 288.377 3.87509 5.28694 0
M  V30 3060 H 287.897 2.18854 5.58447 0
M  V30 3061 H 289.576 2.70599 5.87695 0
M  V30 3062 N 289.708 -1.40897 0.706093 0
M  V30 3063 C 290.955 -2.01054 0.241531 0
M  V30 3064 C 291.283 -1.55956 -1.16223 0
M  V30 3065 O 290.538 -0.766336 -1.80072 0
M  V30 3066 C 290.837 -3.5646 0.259099 0
M  V30 3067 C 290.503 -4.21106 1.61184 0
M  V30 3068 C 289.165 -4.38479 1.98216 0
M  V30 3069 C 291.517 -4.57256 2.50132 0
M  V30 3070 C 288.845 -4.89282 3.2376 0
M  V30 3071 C 291.197 -5.09454 3.7502 0
M  V30 3072 C 289.861 -5.25037 4.12181 0
M  V30 3073 H 289.131 -0.73571 0.0883825 0
M  V30 3074 H 291.778 -1.68645 0.907257 0
M  V30 3075 H 290.083 -3.88721 -0.490189 0
M  V30 3076 H 291.78 -4.00826 -0.11804 0
M  V30 3077 H 288.37 -4.07966 1.31384 0
M  V30 3078 H 292.554 -4.43479 2.228 0
M  V30 3079 H 287.81 -4.99531 3.52532 0
M  V30 3080 H 291.984 -5.36404 4.44121 0
M  V30 3081 H 289.611 -5.64164 5.09532 0
M  V30 3082 N 291.186 -0.45159 -1.50991 0
M  V30 3083 C 292.463 0.170707 -1.94854 0
M  V30 3084 C 292.843 1.58788 -1.39103 0
M  V30 3085 O 292.191 2.20913 -0.583921 0
M  V30 3086 C 292.401 0.133929 -3.48743 0
M  V30 3087 C 293.749 0.33248 -4.23296 0
M  V30 3088 O 294.773 0.211403 -3.55572 0
M  V30 3089 O 293.632 0.57486 -5.43468 0
M  V30 3090 H 290.726 0.122264 -0.817912 0
M  V30 3091 H 293.272 -0.510594 -1.61836 0
M  V30 3092 H 292.044 -0.856283 -3.81816 0
M  V30 3093 H 291.667 0.857529 -3.88242 0
M  V30 3094 N 292.664 1.56529 -0.183458 0
M  V30 3095 C 293.892 2.01623 0.464285 0
M  V30 3096 C 294.307 1.06366 1.55986 0
M  V30 3097 O 293.664 0.0665398 1.82379 0
M  V30 3098 C 293.715 3.46475 1.03139 0
M  V30 3099 O 293.436 4.38095 -0.0204675 0
M  V30 3100 C 294.937 4.0703 1.75617 0
M  V30 3101 H 292.157 0.660596 0.117704 0
M  V30 3102 H 294.701 2.02451 -0.288751 0
M  V30 3103 H 292.856 3.46383 1.73486 0
M  V30 3104 H 293.27 5.22973 0.399952 0
M  V30 3105 H 294.744 5.10271 2.10542 0
M  V30 3106 H 295.221 3.49819 2.65563 0
M  V30 3107 H 295.827 4.1086 1.09882 0
M  V30 3108 N 294.142 -0.090211 1.57342 0
M  V30 3109 C 295.105 -1.09335 2.01441 0
M  V30 3110 C 296.105 -1.32666 0.908641 0
M  V30 3111 O 297.295 -1.28697 1.174 0
M  V30 3112 C 294.427 -2.44136 2.3793 0
M  V30 3113 H 295.62 -0.713662 2.91285 0
M  V30 3114 H 293.173 -0.335404 1.52659 0
M  V30 3115 H 293.908 -2.86972 1.51055 0
M  V30 3116 H 293.693 -2.28548 3.18603 0
M  V30 3117 H 295.183 -3.16277 2.72688 0
M  V30 3118 N 295.62 -1.53406 -0.361157 0
M  V30 3119 C 296.568 -1.80832 -1.46296 0
M  V30 3120 C 297.562 -0.677699 -1.55253 0
M  V30 3121 O 298.768 -0.860723 -1.58087 0
M  V30 3122 H 295.143 -0.572627 -0.487445 0
M  V30 3123 H 297.114 -2.73045 -1.20371 0
M  V30 3124 C 295.863 -2.01907 -2.8307 0
M  V30 3125 H 295.186 -2.88349 -2.76938 0
M  V30 3126 H 296.626 -2.25072 -3.59331 0
M  V30 3127 C 295.085 -0.799449 -3.27277 0
M  V30 3128 O 295.615 0.00971761 -4.01699 0
M  V30 3129 N 293.821 -0.621637 -2.83873 0
M  V30 3130 H 293.368 -1.28126 -2.23476 0
M  V30 3131 H 293.326 0.19298 -3.13807 0
M  V30 3132 N 297.098 0.621204 -1.44841 0
M  V30 3133 C 298.061 1.71459 -1.521 0
M  V30 3134 C 299.061 1.55696 -0.401933 0
M  V30 3135 O 300.251 1.61011 -0.664925 0
M  V30 3136 C 297.383 3.10624 -1.40447 0
M  V30 3137 H 298.576 1.66394 -2.49506 0
M  V30 3138 H 296.129 0.835745 -1.3208 0
M  V30 3139 H 296.864 3.21277 -0.441737 0
M  V30 3140 H 296.649 3.23473 -2.21602 0
M  V30 3141 H 298.139 3.90293 -1.4853 0
M  V30 3142 N 298.576 1.31904 0.862503 0
M  V30 3143 C 299.523 1.20182 1.9704 0
M  V30 3144 C 300.493 0.0858247 1.65878 0
M  V30 3145 O 301.678 0.26 1.8902 0
M  V30 3146 C 298.818 0.922797 3.32533 0
M  V30 3147 C 297.931 2.12284 3.76244 0
M  V30 3148 C 297.066 1.77996 5.00491 0
M  V30 3149 C 296.105 2.94366 5.36671 0
M  V30 3150 N 295.242 2.60223 6.52095 0
M  V30 3151 H 300.082 2.14951 2.06398 0
M  V30 3152 H 297.619 1.06917 1.01031 0
M  V30 3153 H 299.577 0.741548 4.10557 0
M  V30 3154 H 298.207 0.0119227 3.22798 0
M  V30 3155 H 297.259 2.41461 2.9394 0
M  V30 3156 H 298.571 2.99357 3.98982 0
M  V30 3157 H 297.725 1.56377 5.862 0
M  V30 3158 H 296.464 0.881252 4.79672 0
M  V30 3159 H 295.469 3.16625 4.49476 0
M  V30 3160 H 296.694 3.84957 5.59451 0
M  V30 3161 H 294.64 1.72884 6.32809 0
M  V30 3162 H 294.557 3.40827 6.74814 0
M  V30 3163 H 295.825 2.42016 7.40978 0
M  V30 3164 N 300.054 -1.07777 1.14986 0
M  V30 3165 C 301.017 -2.13041 0.845358 0
M  V30 3166 C 302.017 -1.60071 -0.152931 0
M  V30 3167 O 303.207 -1.74033 0.0761879 0
M  V30 3168 C 300.339 -3.39896 0.261383 0
M  V30 3169 H 301.532 -2.41485 1.77834 0
M  V30 3170 H 299.085 -1.23595 0.956757 0
M  V30 3171 H 299.82 -3.17091 -0.68 0
M  V30 3172 H 299.605 -3.79642 0.980514 0
M  V30 3173 H 301.095 -4.17548 0.0657687 0
M  V30 3174 N 301.532 -0.945985 -1.26051 0
M  V30 3175 C 302.495 -0.463897 -2.24456 0
M  V30 3176 C 303.495 0.427655 -1.55009 0
M  V30 3177 O 304.685 0.226157 -1.72726 0
M  V30 3178 C 301.817 0.330812 -3.39291 0
M  V30 3179 H 303.01 -1.33357 -2.68619 0
M  V30 3180 H 300.563 -0.728416 -1.38289 0
M  V30 3181 H 301.298 1.21852 -3.00537 0
M  V30 3182 H 301.083 -0.308679 -3.90883 0
M  V30 3183 H 302.573 0.657865 -4.12386 0
M  V30 3184 N 303.011 1.40521 -0.713556 0
M  V30 3185 C 303.941 2.33381 -0.0743864 0
M  V30 3186 C 304.922 1.52784 0.747735 0
M  V30 3187 O 306.107 1.81258 0.697071 0
M  V30 3188 C 303.237 3.36748 0.849598 0
M  V30 3189 C 302.191 4.27793 0.133247 0
M  V30 3190 C 301.517 5.21679 1.17281 0
M  V30 3191 C 302.817 5.12415 -1.01134 0
M  V30 3192 H 304.511 2.87081 -0.850007 0
M  V30 3193 H 302.057 1.38034 -0.410201 0
M  V30 3194 H 304.01 4.00648 1.30612 0
M  V30 3195 H 302.734 2.81439 1.65709 0
M  V30 3196 H 301.393 3.65342 -0.303426 0
M  V30 3197 H 301.041 4.62677 1.9733 0
M  V30 3198 H 300.741 5.83435 0.698397 0
M  V30 3199 H 302.265 5.88456 1.62947 0
M  V30 3200 H 303.679 5.69781 -0.634274 0
M  V30 3201 H 302.076 5.83203 -1.41399 0
M  V30 3202 H 303.146 4.48514 -1.84292 0
M  V30 3203 N 304.489 0.459591 1.5075 0
M  V30 3204 C 305.736 -0.0993495 2.02256 0
M  V30 3205 C 306.064 -1.40751 1.34237 0
M  V30 3206 O 305.319 -1.90379 0.453228 0
M  V30 3207 C 305.618 -0.342866 3.55752 0
M  V30 3208 C 305.284 0.88218 4.42186 0
M  V30 3209 C 303.946 1.21808 4.65528 0
M  V30 3210 C 306.298 1.69837 4.92752 0
M  V30 3211 C 303.626 2.37045 5.36681 0
M  V30 3212 C 305.978 2.84192 5.65171 0
M  V30 3213 C 304.642 3.1821 5.8677 0
M  V30 3214 H 303.912 -0.0363545 0.740108 0
M  V30 3215 H 306.559 0.611329 1.8148 0
M  V30 3216 H 304.864 -1.13567 3.7498 0
M  V30 3217 H 306.561 -0.789121 3.93159 0
M  V30 3218 H 303.151 0.610467 4.2423 0
M  V30 3219 H 307.335 1.45205 4.74583 0
M  V30 3220 H 302.591 2.63689 5.51614 0
M  V30 3221 H 306.765 3.4779 6.03337 0
M  V30 3222 H 304.392 4.07613 6.41682 0
M  V30 3223 N 305.967 -1.56429 0.191757 0
M  V30 3224 C 306.93 -2.17707 -0.716688 0
M  V30 3225 C 307.93 -1.13061 -1.14341 0
M  V30 3226 O 309.12 -1.38464 -1.05704 0
M  V30 3227 C 306.252 -2.77644 -1.97804 0
M  V30 3228 H 307.445 -2.99342 -0.1829 0
M  V30 3229 H 304.998 -1.56193 -0.0578566 0
M  V30 3230 H 305.733 -1.99799 -2.55443 0
M  V30 3231 H 305.518 -3.54246 -1.68083 0
M  V30 3232 H 307.008 -3.24708 -2.62592 0
M  V30 3233 N 307.445 0.0818655 -1.57387 0
M  V30 3234 C 308.375 1.09885 -2.06028 0
M  V30 3235 C 309.356 1.4098 -0.951774 0
M  V30 3236 O 310.541 1.50781 -1.22387 0
M  V30 3237 C 307.671 2.4151 -2.4958 0
M  V30 3238 C 306.625 2.24792 -3.64215 0
M  V30 3239 C 305.951 3.61712 -3.93787 0
M  V30 3240 C 307.251 1.67749 -4.94629 0
M  V30 3241 H 308.945 0.694128 -2.91243 0
M  V30 3242 H 306.491 0.332448 -1.4011 0
M  V30 3243 H 308.444 3.12939 -2.82219 0
M  V30 3244 H 307.168 2.83943 -1.61381 0
M  V30 3245 H 305.827 1.55807 -3.31843 0
M  V30 3246 H 305.475 4.01697 -3.02735 0
M  V30 3247 H 305.175 3.51368 -4.70971 0
M  V30 3248 H 306.699 4.34587 -4.28913 0
M  V30 3249 H 308.113 2.29032 -5.25564 0
M  V30 3250 H 306.51 1.68128 -5.76067 0
M  V30 3251 H 307.58 0.638059 -4.80684 0
M  V30 3252 N 308.923 1.53595 0.353017 0
M  V30 3253 C 309.855 1.77219 1.45348 0
M  V30 3254 C 310.868 0.65324 1.49119 0
M  V30 3255 O 312.057 0.929775 1.52373 0
M  V30 3256 C 309.157 1.84841 2.84055 0
M  V30 3257 C 308.33 3.14649 3.03833 0
M  V30 3258 C 307.389 3.13351 4.22727 0
M  V30 3259 O 306.415 3.87107 4.17297 0
M  V30 3260 N 307.617 2.35052 5.30783 0
M  V30 3261 H 310.382 2.72178 1.25457 0
M  V30 3262 H 307.943 1.52528 0.542833 0
M  V30 3263 H 309.935 1.81435 3.61751 0
M  V30 3264 H 308.505 0.971114 2.97133 0
M  V30 3265 H 307.725 3.31256 2.13689 0
M  V30 3266 H 309.013 4.00411 3.13925 0
M  V30 3267 H 308.411 1.74663 5.38061 0
M  V30 3268 H 306.968 2.37453 6.07009 0
M  V30 3269 N 310.401 -0.613514 1.45168 0
M  V30 3270 C 311.349 -1.74572 1.53712 0
M  V30 3271 C 312.343 -1.64426 0.407505 0
M  V30 3272 O 313.549 -1.70291 0.583176 0
M  V30 3273 H 309.924 -0.576641 0.48269 0
M  V30 3274 H 311.895 -1.64492 2.48968 0
M  V30 3275 C 310.644 -3.12943 1.51532 0
M  V30 3276 H 309.967 -3.21407 2.37776 0
M  V30 3277 H 311.407 -3.9201 1.61569 0
M  V30 3278 C 309.866 -3.36053 0.238798 0
M  V30 3279 O 310.396 -3.95837 -0.6838 0
M  V30 3280 N 308.602 -2.9028 0.136359 0
M  V30 3281 H 308.149 -2.41811 0.887999 0
M  V30 3282 H 308.107 -3.06116 -0.716944 0
M  V30 3283 N 311.879 -1.3236 -0.855495 0
M  V30 3284 C 312.809 -1.23833 -1.97958 0
M  V30 3285 C 313.79 -0.122361 -1.69659 0
M  V30 3286 O 314.975 -0.30939 -1.9172 0
M  V30 3287 C 312.105 -0.959772 -3.33775 0
M  V30 3288 C 311.059 -2.03689 -3.76424 0
M  V30 3289 C 310.385 -1.61075 -5.09862 0
M  V30 3290 C 311.685 -3.4518 -3.9198 0
M  V30 3291 H 313.379 -2.1788 -2.0535 0
M  V30 3292 H 310.925 -1.04891 -0.986605 0
M  V30 3293 H 312.878 -0.886678 -4.11966 0
M  V30 3294 H 311.602 0.0163404 -3.26596 0
M  V30 3295 H 310.261 -2.10012 -3.00484 0
M  V30 3296 H 309.909 -0.622107 -4.99138 0
M  V30 3297 H 309.609 -2.33143 -5.39368 0
M  V30 3298 H 311.133 -1.55201 -5.90546 0
M  V30 3299 H 312.547 -3.4145 -4.60526 0
M  V30 3300 H 310.944 -4.1559 -4.32903 0
M  V30 3301 H 312.014 -3.84903 -2.94919 0
M  V30 3302 N 313.357 1.07166 -1.15556 0
M  V30 3303 C 314.604 1.79798 -0.931604 0
M  V30 3304 C 314.932 1.8682 0.54115 0
M  V30 3305 O 314.187 1.34942 1.41736 0
M  V30 3306 C 314.486 3.24707 -1.49332 0
M  V30 3307 C 314.152 3.37781 -2.98688 0
M  V30 3308 C 312.814 3.41057 -3.39461 0
M  V30 3309 C 315.166 3.40424 -3.94665 0
M  V30 3310 C 312.494 3.4458 -4.74849 0
M  V30 3311 C 314.846 3.45485 -5.29927 0
M  V30 3312 C 313.51 3.47039 -5.70193 0
M  V30 3313 H 312.78 0.657928 -0.340898 0
M  V30 3314 H 315.427 1.26091 -1.44129 0
M  V30 3315 H 313.732 3.81208 -0.904859 0
M  V30 3316 H 315.429 3.79486 -1.29582 0
M  V30 3317 H 312.019 3.35932 -2.66172 0
M  V30 3318 H 316.203 3.37113 -3.64237 0
M  V30 3319 H 311.459 3.44083 -5.05388 0
M  V30 3320 H 315.633 3.46476 -6.04092 0
M  V30 3321 H 313.26 3.49522 -6.75084 0
M  V30 3322 N 314.835 0.952656 1.25548 0
M  V30 3323 C 315.745 0.47782 2.29682 0
M  V30 3324 C 316.761 -0.453859 1.67977 0
M  V30 3325 O 317.937 -0.330587 1.98668 0
M  V30 3326 C 315.002 -0.238655 3.45878 0
M  V30 3327 C 314.063 0.730994 4.23031 0
M  V30 3328 C 313.296 0.0486165 5.33678 0
M  V30 3329 O 313.519 -1.16612 5.58353 0
M  V30 3330 O 312.453 0.733152 5.97418 0
M  V30 3331 H 316.279 1.34312 2.72386 0
M  V30 3332 H 313.864 0.719026 1.30959 0
M  V30 3333 H 315.746 -0.641774 4.16484 0
M  V30 3334 H 314.421 -1.07916 3.05181 0
M  V30 3335 H 313.328 1.18428 3.5486 0
M  V30 3336 H 314.661 1.53946 4.67506 0
M  V30 3337 N 316.313 -1.40141 0.720998 0
M  V30 3338 C 317.223 -2.34486 0.0731031 0
M  V30 3339 C 318.239 -1.57587 -0.737723 0
M  V30 3340 O 319.415 -1.89949 -0.669429 0
M  V30 3341 C 316.48 -3.36528 -0.833656 0
M  V30 3342 C 315.541 -4.29298 -0.0121673 0
M  V30 3343 C 314.774 -5.26466 -0.875742 0
M  V30 3344 O 314.997 -5.29745 -2.11485 0
M  V30 3345 O 313.931 -6.01092 -0.31185 0
M  V30 3346 H 317.757 -2.9152 0.851444 0
M  V30 3347 H 315.342 -1.41427 0.481527 0
M  V30 3348 H 317.224 -3.99093 -1.35289 0
M  V30 3349 H 315.899 -2.81899 -1.59105 0
M  V30 3350 H 314.806 -3.70001 0.552262 0
M  V30 3351 H 316.139 -4.87094 0.707129 0
M  V30 3352 N 317.792 -0.46758 -1.50504 0
M  V30 3353 C 318.739 0.328413 -2.28452 0
M  V30 3354 C 319.709 0.990313 -1.33349 0
M  V30 3355 O 320.894 1.00343 -1.62284 0
M  V30 3356 C 318.034 1.40648 -3.15138 0
M  V30 3357 C 317.147 0.759709 -4.25267 0
M  V30 3358 C 316.282 1.81537 -4.99217 0
M  V30 3359 C 315.321 1.14866 -6.01226 0
M  V30 3360 N 314.458 2.14702 -6.68467 0
M  V30 3361 H 319.298 -0.342603 -2.96024 0
M  V30 3362 H 316.835 -0.180801 -1.45985 0
M  V30 3363 H 318.793 2.04315 -3.63746 0
M  V30 3364 H 317.423 2.04671 -2.49619 0
M  V30 3365 H 316.475 0.0105671 -3.80399 0
M  V30 3366 H 317.787 0.233243 -4.98254 0
M  V30 3367 H 316.941 2.52793 -5.51526 0
M  V30 3368 H 315.68 2.37564 -4.25928 0
M  V30 3369 H 314.685 0.42171 -5.4818 0
M  V30 3370 H 315.91 0.595334 -6.76485 0
M  V30 3371 H 313.856 2.69752 -5.97972 0
M  V30 3372 H 313.773 1.6703 -7.37317 0
M  V30 3373 H 315.041 2.85348 -7.25394 0
M  V30 3374 N 319.27 1.56325 -0.20005 0
M  V30 3375 C 320.5 2.01811 0.442232 0
M  V30 3376 C 320.908 1.07932 1.55394 0
M  V30 3377 O 320.251 0.0772685 1.83537 0
M  V30 3378 C 320.313 3.43685 1.05457 0
M  V30 3379 C 319.977 4.56928 0.0809833 0
M  V30 3380 C 320.974 5.15009 -0.711471 0
M  V30 3381 C 318.659 5.0229 -0.0315364 0
M  V30 3382 C 320.653 6.16904 -1.60336 0
M  V30 3383 C 318.34 6.04028 -0.926981 0
M  V30 3384 C 319.338 6.6121 -1.71146 0
M  V30 3385 O 319.026 7.60971 -2.59189 0
M  V30 3386 H 318.758 0.666173 0.114848 0
M  V30 3387 H 321.312 2.03085 -0.307511 0
M  V30 3388 H 319.542 3.39413 1.85299 0
M  V30 3389 H 321.231 3.72948 1.60201 0
M  V30 3390 H 321.997 4.80827 -0.634873 0
M  V30 3391 H 317.876 4.57476 0.568902 0
M  V30 3392 H 321.42 6.61464 -2.21611 0
M  V30 3393 H 317.317 6.37634 -1.00468 0
M  V30 3394 H 318.085 7.7841 -2.53023 0
M  V30 3395 N 320.748 -0.0735177 1.57428 0
M  V30 3396 C 321.711 -1.07192 2.02589 0
M  V30 3397 C 322.711 -1.31695 0.922661 0
M  V30 3398 O 323.901 -1.27445 1.18758 0
M  V30 3399 C 321.033 -2.41599 2.40506 0
M  V30 3400 H 322.226 -0.682727 2.92025 0
M  V30 3401 H 319.779 -0.319193 1.53006 0
M  V30 3402 H 320.514 -2.85354 1.5409 0
M  V30 3403 H 320.299 -2.25156 3.21009 0
M  V30 3404 H 321.789 -3.13367 2.76027 0
M  V30 3405 N 322.226 -1.5378 -0.344866 0
M  V30 3406 C 323.637 -1.62428 -0.920552 0
M  V30 3407 C 323.988 -0.504747 -1.89596 0
M  V30 3408 O 323.113 0.365711 -2.13287 0
M  V30 3409 C 323.708 -2.94419 -1.67639 0
M  V30 3410 C 322.267 -3.05333 -2.20111 0
M  V30 3411 C 321.414 -2.57866 -1.01982 0
M  V30 3412 H 324.365 -1.58222 -0.123042 0
M  V30 3413 H 324.386 -2.83384 -2.53917 0
M  V30 3414 H 323.898 -3.7588 -0.966224 0
M  V30 3415 H 321.999 -2.28502 -2.94308 0
M  V30 3416 H 322.112 -4.10778 -2.46573 0
M  V30 3417 H 320.476 -2.13241 -1.39285 0
M  V30 3418 H 321.259 -3.41765 -0.324308 0
M  V30 3419 N 323.704 0.605807 -1.45491 0
M  V30 3420 C 325.12 0.926751 -1.29936 0
M  V30 3421 C 325.32 1.99896 -0.253706 0
M  V30 3422 O 324.376 2.50038 0.351737 0
M  V30 3423 C 325.689 1.36599 -2.67883 0
M  V30 3424 C 327.237 1.4801 -2.75793 0
M  V30 3425 C 327.712 1.95309 -4.14268 0
M  V30 3426 N 329.203 2.0254 -4.16571 0
M  V30 3427 C 329.938 2.40363 -5.20589 0
M  V30 3428 N 329.434 2.77143 -6.34952 0
M  V30 3429 N 331.227 2.40718 -5.07948 0
M  V30 3430 H 323.378 -0.102862 -2.12151 0
M  V30 3431 H 325.641 0.016639 -0.947854 0
M  V30 3432 H 325.347 0.652306 -3.45598 0
M  V30 3433 H 325.221 2.33215 -2.96463 0
M  V30 3434 H 327.608 2.1847 -1.98381 0
M  V30 3435 H 327.689 0.497041 -2.50925 0
M  V30 3436 H 327.333 1.25436 -4.92167 0
M  V30 3437 H 327.263 2.94532 -4.3653 0
M  V30 3438 H 329.754 1.76699 -3.34045 0
M  V30 3439 H 330.067 3.0489 -7.10114 0
M  V30 3440 H 328.412 2.74834 -6.3835 0
M  V30 3441 H 331.603 2.11392 -4.1765 0
M  V30 3442 H 331.776 2.69869 -5.89131 0
M  V30 3443 N 325.182 1.32811 0.848464 0
M  V30 3444 C 326.593 1.21315 1.41914 0
M  V30 3445 C 326.944 -0.171847 1.95446 0
M  V30 3446 O 326.069 -1.07093 1.88043 0
M  V30 3447 C 326.664 2.19631 2.57968 0
M  V30 3448 C 325.223 2.12003 3.11017 0
M  V30 3449 C 324.37 2.07651 1.83783 0
M  V30 3450 H 327.321 1.44549 0.655071 0
M  V30 3451 H 327.342 1.79845 3.35315 0
M  V30 3452 H 326.854 3.20423 2.18976 0
M  V30 3453 H 324.955 1.14481 3.54577 0
M  V30 3454 H 325.068 3.02111 3.71841 0
M  V30 3455 H 323.432 1.52983 2.03638 0
M  V30 3456 H 324.215 3.10235 1.47 0
M  V30 3457 N 326.66 -1.06551 1.16123 0
M  V30 3458 C 327.909 -1.78687 0.935622 0
M  V30 3459 C 328.222 -1.88056 -0.538001 0
M  V30 3460 O 329.428 -2.56794 -0.88143 0
M  V30 3461 C 327.884 -3.21143 1.62466 0
M  V30 3462 C 327.492 -3.19949 3.13587 0
M  V30 3463 C 329.236 -3.9783 1.48092 0
M  V30 3464 C 327.143 -4.57108 3.75241 0
M  V30 3465 H 326.073 -0.669712 0.346412 0
M  V30 3466 H 328.724 -1.19534 1.39226 0
M  V30 3467 H 327.106 -3.80539 1.09572 0
M  V30 3468 H 328.28 -2.70151 3.73303 0
M  V30 3469 H 326.595 -2.5676 3.27816 0
M  V30 3470 H 329.192 -4.99217 1.91538 0
M  V30 3471 H 329.535 -4.14078 0.429507 0
M  V30 3472 H 330.068 -3.4495 1.98127 0
M  V30 3473 H 326.807 -4.46065 4.80319 0
M  V30 3474 H 326.327 -5.07111 3.20309 0
M  V30 3475 H 328.006 -5.26069 3.76644 0
M  V30 3476 N 328.138 -0.959301 -1.25041 0
M  V30 3477 C 329.385 -0.616611 -1.92884 0
M  V30 3478 C 329.713 0.847036 -1.75087 0
M  V30 3479 O 328.968 1.62374 -1.09239 0
M  V30 3480 C 329.267 -0.927136 -3.45165 0
M  V30 3481 C 328.933 -2.37757 -3.83122 0
M  V30 3482 C 327.595 -2.77402 -3.93194 0
M  V30 3483 C 329.947 -3.31929 -4.01836 0
M  V30 3484 C 327.275 -4.10277 -4.19392 0
M  V30 3485 C 329.627 -4.64423 -4.29528 0
M  V30 3486 C 328.291 -5.03857 -4.37818 0
M  V30 3487 H 327.561 -0.225634 -0.705812 0
M  V30 3488 H 330.208 -1.20921 -1.48493 0
M  V30 3489 H 328.513 -0.252195 -3.90987 0
M  V30 3490 H 330.21 -0.6405 -3.95852 0
M  V30 3491 H 326.8 -2.06013 -3.75841 0
M  V30 3492 H 330.984 -3.02488 -3.93465 0
M  V30 3493 H 326.24 -4.40467 -4.24027 0
M  V30 3494 H 330.414 -5.37369 -4.42953 0
M  V30 3495 H 328.041 -6.06843 -4.57871 0
M  V30 3496 N 329.616 1.39756 -0.72842 0
M  V30 3497 C 330.865 1.99879 -0.270407 0
M  V30 3498 C 331.178 1.58449 1.14688 0
M  V30 3499 O 332.384 2.11362 1.70407 0
M  V30 3500 C 330.84 3.57292 -0.43252 0
M  V30 3501 C 330.448 4.07688 -1.85727 0
M  V30 3502 C 332.192 4.24485 -0.0359507 0
M  V30 3503 C 330.099 5.5765 -1.96928 0
M  V30 3504 H 329.029 0.747689 -0.0973472 0
M  V30 3505 H 331.68 1.59837 -0.901355 0
M  V30 3506 H 330.062 3.95097 0.267219 0
M  V30 3507 H 331.236 3.81231 -2.58843 0
M  V30 3508 H 329.551 3.53135 -2.20646 0
M  V30 3509 H 332.148 5.34609 -0.0987484 0
M  V30 3510 H 332.491 4.03915 1.00787 0
M  V30 3511 H 333.024 3.9183 -0.686604 0
M  V30 3512 H 329.763 5.8309 -2.99476 0
M  V30 3513 H 329.283 5.8593 -1.28241 0
M  V30 3514 H 330.962 6.22957 -1.74737 0
M  V30 3515 N 331.094 0.475555 1.50254 0
M  V30 3516 C 332.319 -0.0777042 2.07254 0
M  V30 3517 C 332.744 -1.3235 1.3366 0
M  V30 3518 O 332.102 -1.77152 0.385597 0
M  V30 3519 C 332.15 -0.340169 3.58992 0
M  V30 3520 O 331.254 -1.41982 3.87188 0
M  V30 3521 H 330.595 0.0149556 0.663832 0
M  V30 3522 H 333.125 0.667878 1.93392 0
M  V30 3523 H 333.135 -0.579332 4.03866 0
M  V30 3524 H 331.81 0.570167 4.11973 0
M  V30 3525 H 330.387 -1.16762 3.54148 0
M  V30 3526 N 332.573 -1.56217 0.208337 0
M  V30 3527 C 333.821 -1.97558 -0.426076 0
M  V30 3528 C 334.142 -1.09683 -1.61229 0
M  V30 3529 O 333.412 -0.170956 -1.95153 0
M  V30 3530 H 331.992 -0.729575 -0.160405 0
M  V30 3531 H 334.654 -1.92606 0.298155 0
M  V30 3532 H 333.75 -3.02672 -0.761312 0
M  V30 3533 N 334.051 0.0651679 -1.57465 0
M  V30 3534 C 335.279 0.775808 -1.91804 0
M  V30 3535 C 335.694 1.70782 -0.804916 0
M  V30 3536 O 335.051 1.81153 0.221311 0
M  V30 3537 C 335.102 1.56381 -3.25925 0
M  V30 3538 O 334.823 0.669248 -4.32958 0
M  V30 3539 C 336.324 2.37485 -3.7432 0
M  V30 3540 H 333.544 0.2202 -0.63384 0
M  V30 3541 H 336.088 0.0334587 -2.04473 0
M  V30 3542 H 334.243 2.25837 -3.14764 0
M  V30 3543 H 334.657 1.21801 -5.10162 0
M  V30 3544 H 336.131 2.88223 -4.70778 0
M  V30 3545 H 336.608 3.17307 -3.03666 0
M  V30 3546 H 337.214 1.73173 -3.88447 0
M  V30 3547 N 335.529 1.53961 0.336706 0
M  V30 3548 C 336.778 1.70751 1.07363 0
M  V30 3549 C 337.091 0.481061 1.89592 0
M  V30 3550 O 338.297 0.530046 2.66276 0
M  V30 3551 C 336.753 3.01965 1.95818 0
M  V30 3552 C 336.361 4.31971 1.18764 0
M  V30 3553 C 338.105 3.28121 2.69327 0
M  V30 3554 C 336.012 5.54255 2.06289 0
M  V30 3555 H 334.942 0.636292 0.404535 0
M  V30 3556 H 337.593 1.80459 0.332681 0
M  V30 3557 H 335.975 2.86132 2.7376 0
M  V30 3558 H 337.149 4.5853 0.456849 0
M  V30 3559 H 335.464 4.12481 0.569946 0
M  V30 3560 H 338.061 4.16673 3.35094 0
M  V30 3561 H 338.404 2.45426 3.36261 0
M  V30 3562 H 338.937 3.44762 1.98454 0
M  V30 3563 H 335.676 6.39513 1.43885 0
M  V30 3564 H 335.196 5.31935 2.77138 0
M  V30 3565 H 336.875 5.90159 2.65182 0
M  V30 3566 N 337.007 -0.598083 1.45811 0
M  V30 3567 C 338.253 -1.35882 1.50545 0
M  V30 3568 C 338.586 -1.93616 0.150445 0
M  V30 3569 O 337.861 -1.75604 -0.83628 0
M  V30 3570 C 338.144 -2.49966 2.59208 0
M  V30 3571 C 337.997 -1.97367 4.04186 0
M  V30 3572 C 339.316 -3.52068 2.64076 0
M  V30 3573 H 336.435 -0.492717 0.548087 0
M  V30 3574 H 339.077 -0.673319 1.77669 0
M  V30 3575 H 337.227 -3.08443 2.3621 0
M  V30 3576 H 338.899 -1.43466 4.38423 0
M  V30 3577 H 337.142 -1.283 4.14393 0
M  V30 3578 H 337.813 -2.79649 4.75921 0
M  V30 3579 H 340.289 -3.03448 2.84708 0
M  V30 3580 H 339.165 -4.2937 3.41954 0
M  V30 3581 H 339.426 -4.08304 1.69531 0
M  V30 3582 N 338.485 -1.33259 -0.841409 0
M  V30 3583 C 339.762 -1.15174 -1.58096 0
M  V30 3584 C 340.142 0.282858 -2.09196 0
M  V30 3585 O 339.49 1.28151 -1.89181 0
M  V30 3586 C 339.7 -2.1907 -2.71679 0
M  V30 3587 C 341.048 -2.53093 -3.40924 0
M  V30 3588 O 342.072 -2.17717 -2.81918 0
M  V30 3589 O 340.931 -3.1379 -4.47435 0
M  V30 3590 H 338.025 -0.445303 -0.696875 0
M  V30 3591 H 340.571 -1.44833 -0.884385 0
M  V30 3592 H 339.343 -3.15443 -2.31541 0
M  V30 3593 H 338.966 -1.90481 -3.49002 0
M  V30 3594 N 339.963 1.05934 -1.16686 0
M  V30 3595 C 340.91 2.13499 -0.876748 0
M  V30 3596 C 341.88 1.65162 0.176299 0
M  V30 3597 O 343.065 1.90757 0.0407143 0
M  V30 3598 C 340.205 3.42912 -0.387967 0
M  V30 3599 C 339.318 4.04964 -1.50426 0
M  V30 3600 C 338.453 5.22266 -0.970125 0
M  V30 3601 C 337.492 5.76309 -2.06238 0
M  V30 3602 N 336.629 6.84922 -1.54356 0
M  V30 3603 H 341.469 2.37654 -1.7979 0
M  V30 3604 H 339.006 1.16598 -0.896843 0
M  V30 3605 H 340.964 4.17111 -0.086186 0
M  V30 3606 H 339.594 3.18963 0.496235 0
M  V30 3607 H 338.646 3.28277 -1.92193 0
M  V30 3608 H 339.958 4.41122 -2.32836 0
M  V30 3609 H 339.112 6.03506 -0.621743 0
M  V30 3610 H 337.851 4.87564 -0.115377 0
M  V30 3611 H 336.856 4.93704 -2.41942 0
M  V30 3612 H 338.081 6.13062 -2.92115 0
M  V30 3613 H 336.027 6.52131 -0.711406 0
M  V30 3614 H 335.944 7.20043 -2.30379 0
M  V30 3615 H 337.212 7.69832 -1.22387 0
M  V30 3616 N 341.441 0.965919 1.2453 0
M  V30 3617 C 342.666 0.643971 1.97149 0
M  V30 3618 C 343.091 -0.779487 1.71189 0
M  V30 3619 O 342.449 -1.5288 0.974553 0
M  V30 3620 C 342.497 0.922557 3.48599 0
M  V30 3621 O 341.601 0.00707672 4.12399 0
M  V30 3622 H 340.942 0.243647 0.617683 0
M  V30 3623 H 343.472 1.29558 1.58353 0
M  V30 3624 H 343.482 0.853373 3.98976 0
M  V30 3625 H 342.157 1.95996 3.66822 0
M  V30 3626 H 340.734 0.12943 3.72675 0
M  V30 3627 N 342.919 -1.39368 0.735821 0
M  V30 3628 C 344.167 -2.00101 0.283562 0
M  V30 3629 C 344.488 -1.5868 -1.13338 0
M  V30 3630 O 343.758 -0.835423 -1.77193 0
M  V30 3631 H 342.338 -0.740024 0.101851 0
M  V30 3632 H 345 -1.70404 0.945962 0
M  V30 3633 H 344.096 -3.10323 0.332604 0
M  V30 3634 N 344.397 -0.483516 -1.5 0
M  V30 3635 C 345.813 -0.138404 -1.58999 0
M  V30 3636 C 346.013 1.35597 -1.4905 0
M  V30 3637 O 345.069 2.13039 -1.35539 0
M  V30 3638 C 346.382 -0.699658 -2.92447 0
M  V30 3639 C 347.93 -0.664195 -3.05872 0
M  V30 3640 C 348.405 -1.20321 -4.41913 0
M  V30 3641 N 349.896 -1.16315 -4.48358 0
M  V30 3642 C 350.631 -1.55058 -5.52037 0
M  V30 3643 N 350.127 -2.01311 -6.62907 0
M  V30 3644 N 351.92 -1.46584 -5.42651 0
M  V30 3645 H 344.071 -1.45529 -1.5471 0
M  V30 3646 H 346.334 -0.60258 -0.731848 0
M  V30 3647 H 346.04 -1.747 -3.05242 0
M  V30 3648 H 345.914 -0.150194 -3.76901 0
M  V30 3649 H 348.301 0.374272 -2.92717 0
M  V30 3650 H 348.382 -1.25061 -2.23144 0
M  V30 3651 H 348.026 -2.24037 -4.55818 0
M  V30 3652 H 347.956 -0.592896 -5.23252 0
M  V30 3653 H 350.447 -0.824058 -3.68806 0
M  V30 3654 H 350.76 -2.2899 -7.38095 0
M  V30 3655 H 349.105 -2.05273 -6.63994 0
M  V30 3656 H 352.296 -1.10281 -4.54924 0
M  V30 3657 H 352.469 -1.77103 -6.23329 0
M  V30 3658 N 345.875 1.56104 -0.216619 0
M  V30 3659 C 347.103 2.02563 0.421413 0
M  V30 3660 C 347.518 1.0965 1.53695 0
M  V30 3661 O 346.875 0.10521 1.82196 0
M  V30 3662 C 346.926 3.48584 0.957665 0
M  V30 3663 O 346.647 4.37953 -0.113389 0
M  V30 3664 C 348.148 4.10664 1.66943 0
M  V30 3665 H 345.368 0.662944 0.103665 0
M  V30 3666 H 347.912 2.01793 -0.331629 0
M  V30 3667 H 346.067 3.49985 1.661 0
M  V30 3668 H 346.481 5.23704 0.288932 0
M  V30 3669 H 347.955 5.14622 1.99671 0
M  V30 3670 H 348.432 3.55373 2.58083 0
M  V30 3671 H 349.038 4.13098 1.01142 0
M  V30 3672 N 347.353 -0.0568162 1.57498 0
M  V30 3673 C 348.283 -1.06593 2.0775 0
M  V30 3674 C 349.264 -1.39448 0.974082 0
M  V30 3675 O 350.449 -1.48815 1.24771 0
M  V30 3676 C 347.579 -2.37509 2.5339 0
M  V30 3677 C 346.533 -2.1897 3.67745 0
M  V30 3678 C 345.859 -3.55402 3.99492 0
M  V30 3679 C 347.159 -1.59859 4.97235 0
M  V30 3680 H 348.853 -0.647706 2.9231 0
M  V30 3681 H 346.399 -0.310116 1.40621 0
M  V30 3682 H 348.352 -3.08409 2.87162 0
M  V30 3683 H 347.076 -2.8134 1.65878 0
M  V30 3684 H 345.735 -1.50508 3.3428 0
M  V30 3685 H 345.383 -3.9683 3.09088 0
M  V30 3686 H 345.083 -3.43831 4.76502 0
M  V30 3687 H 346.607 -4.27708 4.35773 0
M  V30 3688 H 348.021 -2.20642 5.29141 0
M  V30 3689 H 346.418 -1.58942 5.78669 0
M  V30 3690 H 347.488 -0.561506 4.81638 0
M  V30 3691 N 348.832 -1.54138 -0.328536 0
M  V30 3692 C 350.057 -1.76378 -1.09112 0
M  V30 3693 C 350.482 -0.508596 -1.81094 0
M  V30 3694 O 349.84 0.539598 -1.73084 0
M  V30 3695 C 349.888 -2.95358 -2.06872 0
M  V30 3696 O 348.992 -2.66556 -3.14677 0
M  V30 3697 H 348.333 -0.584614 -0.314838 0
M  V30 3698 H 350.863 -2.01146 -0.374348 0
M  V30 3699 H 350.873 -3.22566 -2.4983 0
M  V30 3700 H 349.548 -3.86385 -1.5388 0
M  V30 3701 H 348.125 -2.50282 -2.7643 0
M  V30 3702 N 350.31 0.590341 -1.46126 0
M  V30 3703 C 351.558 1.34616 -1.50742 0
M  V30 3704 C 351.879 1.94363 -0.157486 0
M  V30 3705 O 351.149 1.78136 0.815136 0
M  V30 3706 H 349.729 0.499789 -0.555175 0
M  V30 3707 H 352.391 0.691953 -1.82203 0
M  V30 3708 H 351.487 2.15678 -2.25587 0
M  V30 3709 N 351.788 1.33704 0.83433 0
M  V30 3710 C 352.72 1.20172 1.9517 0
M  V30 3711 C 353.733 0.131572 1.62267 0
M  V30 3712 O 354.922 0.382406 1.74356 0
M  V30 3713 C 352.022 0.821716 3.28787 0
M  V30 3714 C 351.195 1.98446 3.89792 0
M  V30 3715 C 350.254 1.58469 5.01771 0
M  V30 3716 O 349.28 2.29968 5.20676 0
M  V30 3717 N 350.482 0.492291 5.78409 0
M  V30 3718 H 353.247 2.16429 2.07313 0
M  V30 3719 H 350.808 1.26509 1.0103 0
M  V30 3720 H 352.8 0.536291 4.01131 0
M  V30 3721 H 351.37 -0.0503058 3.1256 0
M  V30 3722 H 350.59 2.43526 3.09982 0
M  V30 3723 H 351.878 2.76236 4.27283 0
M  V30 3724 H 351.276 -0.102349 5.65607 0
M  V30 3725 H 349.833 0.266555 6.51255 0
M  V30 3726 N 353.266 -1.05314 1.17247 0
M  V30 3727 C 354.494 -1.81971 0.984593 0
M  V30 3728 C 354.909 -1.82929 -0.467166 0
M  V30 3729 O 354.266 -1.25564 -1.32438 0
M  V30 3730 C 354.317 -3.28143 1.51672 0
M  V30 3731 O 354.038 -3.27347 2.91163 0
M  V30 3732 C 355.539 -4.21493 1.37326 0
M  V30 3733 H 352.759 -0.573455 0.348411 0
M  V30 3734 H 355.303 -1.32808 1.55506 0
M  V30 3735 H 353.458 -3.74582 0.988302 0
M  V30 3736 H 353.872 -4.18824 3.15732 0
M  V30 3737 H 355.346 -5.22043 1.79375 0
M  V30 3738 H 355.823 -4.38031 0.320169 0
M  V30 3739 H 356.429 -3.80909 1.89178 0
M  V30 3740 N 354.744 -0.972509 -1.24016 0
M  V30 3741 C 355.992 -0.635776 -1.91839 0
M  V30 3742 C 356.313 0.832312 -1.76345 0
M  V30 3743 O 355.583 1.5946 -1.13795 0
M  V30 3744 H 354.163 -0.232157 -0.710009 0
M  V30 3745 H 356.825 -1.23462 -1.50809 0
M  V30 3746 H 355.921 -0.880545 -2.99421 0
M  V30 3747 N 356.222 1.38976 -0.743202 0
M  V30 3748 C 357.132 2.3434 -0.110399 0
M  V30 3749 C 358.148 1.58741 0.712559 0
M  V30 3750 O 359.324 1.9099 0.639125 0
M  V30 3751 C 356.389 3.37812 0.780012 0
M  V30 3752 C 355.45 4.29263 -0.0561319 0
M  V30 3753 C 354.683 5.27793 0.791875 0
M  V30 3754 O 354.906 5.33043 2.03031 0
M  V30 3755 O 353.84 6.01512 0.216183 0
M  V30 3756 H 357.666 2.90129 -0.897714 0
M  V30 3757 H 355.251 1.40643 -0.503966 0
M  V30 3758 H 357.133 4.01194 1.28923 0
M  V30 3759 H 355.808 2.84395 1.546 0
M  V30 3760 H 354.715 3.69076 -0.611056 0
M  V30 3761 H 356.048 4.85907 -0.784531 0
M  V30 3762 N 357.7 0.491464 1.49741 0
M  V30 3763 C 358.948 -0.0563141 2.02022 0
M  V30 3764 C 359.269 -1.38363 1.37407 0
M  V30 3765 O 358.539 -1.88702 0.526166 0
M  V30 3766 H 357.119 -0.0238014 0.746621 0
M  V30 3767 H 359.781 0.646533 1.83864 0
M  V30 3768 H 358.877 -0.192967 3.11503 0
M  V30 3769 N 359.178 -1.55987 0.224894 0
M  V30 3770 C 360.425 -1.9839 -0.4059 0
M  V30 3771 C 360.753 -1.11261 -1.59535 0
M  V30 3772 O 360.008 -0.158314 -1.95059 0
M  V30 3773 C 360.307 -3.46394 -0.880106 0
M  V30 3774 C 359.973 -4.5046 0.19918 0
M  V30 3775 C 358.635 -4.7864 0.495661 0
M  V30 3776 C 360.987 -5.12855 0.928939 0
M  V30 3777 C 358.315 -5.66497 1.52636 0
M  V30 3778 C 360.667 -6.01828 1.949 0
M  V30 3779 C 359.331 -6.28351 2.25236 0
M  V30 3780 H 358.601 -0.725961 -0.148529 0
M  V30 3781 H 361.248 -1.88668 0.328113 0
M  V30 3782 H 359.553 -3.53337 -1.69294 0
M  V30 3783 H 361.25 -3.76577 -1.37808 0
M  V30 3784 H 357.84 -4.28579 -0.0420526 0
M  V30 3785 H 362.024 -4.9115 0.713129 0
M  V30 3786 H 357.28 -5.8531 1.76698 0
M  V30 3787 H 361.454 -6.49225 2.51951 0
M  V30 3788 H 359.081 -6.96226 3.05244 0
M  V30 3789 N 360.656 0.0484629 -1.57525 0
M  V30 3790 C 361.902 0.744226 -1.88651 0
M  V30 3791 C 362.235 1.76029 -0.820212 0
M  V30 3792 O 361.51 1.93782 0.166985 0
M  V30 3793 C 361.793 1.43128 -3.30434 0
M  V30 3794 C 361.646 0.43005 -4.47739 0
M  V30 3795 C 362.965 2.37031 -3.70816 0
M  V30 3796 H 360.084 0.269089 -0.68612 0
M  V30 3797 H 362.726 0.00713532 -1.89999 0
M  V30 3798 H 360.876 2.05956 -3.29415 0
M  V30 3799 H 362.548 -0.194816 -4.60888 0
M  V30 3800 H 360.791 -0.252522 -4.33064 0
M  V30 3801 H 361.462 0.948874 -5.43783 0
M  V30 3802 H 363.938 1.84263 -3.73077 0
M  V30 3803 H 362.814 2.82094 -4.70865 0
M  V30 3804 H 363.075 3.22864 -3.02012 0
M  V30 3805 N 362.134 1.5431 0.320358 0
M  V30 3806 C 363.383 1.7188 1.05546 0
M  V30 3807 C 363.696 0.501143 1.89071 0
M  V30 3808 O 364.902 0.558258 2.65699 0
M  V30 3809 C 363.358 3.04025 1.92605 0
M  V30 3810 C 362.966 4.33207 1.14176 0
M  V30 3811 C 364.71 3.30959 2.65832 0
M  V30 3812 C 362.617 5.56412 2.00399 0
M  V30 3813 H 361.547 0.640547 0.397763 0
M  V30 3814 H 364.198 1.80802 0.313522 0
M  V30 3815 H 362.58 2.89019 2.7071 0
M  V30 3816 H 363.754 4.58989 0.40819 0
M  V30 3817 H 362.069 4.13062 0.526165 0
M  V30 3818 H 364.666 4.20203 3.30656 0
M  V30 3819 H 365.009 2.48979 3.33639 0
M  V30 3820 H 365.542 3.46847 1.94787 0
M  V30 3821 H 362.281 6.41004 1.37094 0
M  V30 3822 H 361.801 5.34844 2.7148 0
M  V30 3823 H 363.48 5.92938 2.58908 0
M  V30 3824 N 363.613 -0.582584 1.46437 0
M  V30 3825 C 364.838 -1.37168 1.55563 0
M  V30 3826 C 365.263 -1.87061 0.19743 0
M  V30 3827 O 364.621 -1.61572 -0.822451 0
M  V30 3828 C 364.669 -2.53511 2.56446 0
M  V30 3829 O 363.773 -3.54953 2.09958 0
M  V30 3830 H 363.114 -0.408494 0.523477 0
M  V30 3831 H 365.644 -0.706646 1.9201 0
M  V30 3832 H 365.654 -3.00426 2.76058 0
M  V30 3833 H 364.329 -2.16549 3.55076 0
M  V30 3834 H 362.906 -3.14516 2.00334 0
M  V30 3835 N 365.091 -1.34144 -0.827227 0
M  V30 3836 C 366.337 -1.26446 -1.58554 0
M  V30 3837 C 366.67 0.1664 -1.93486 0
M  V30 3838 O 365.945 1.1107 -1.59667 0
M  V30 3839 C 366.228 -2.15111 -2.8879 0
M  V30 3840 C 366.081 -3.66712 -2.60465 0
M  V30 3841 C 367.4 -2.03311 -3.90324 0
M  V30 3842 H 364.519 -0.46067 -0.575284 0
M  V30 3843 H 367.161 -1.64356 -0.953269 0
M  V30 3844 H 365.311 -1.8291 -3.42748 0
M  V30 3845 H 366.983 -4.09259 -2.1285 0
M  V30 3846 H 365.226 -3.88014 -1.93978 0
M  V30 3847 H 365.897 -4.24112 -3.53317 0
M  V30 3848 H 368.373 -2.31574 -3.45706 0
M  V30 3849 H 367.249 -2.67582 -4.79261 0
M  V30 3850 H 367.51 -1.00879 -4.30437 0
M  V30 3851 N 366.569 1.04691 -1.17803 0
M  V30 3852 C 367.794 1.81984 -0.994813 0
M  V30 3853 C 368.219 1.82586 0.452112 0
M  V30 3854 O 367.577 1.23854 1.324 0
M  V30 3855 C 367.625 3.2575 -1.54659 0
M  V30 3856 O 366.729 4.05267 -0.763728 0
M  V30 3857 H 366.07 0.562483 -0.352857 0
M  V30 3858 H 368.6 1.3189 -1.56417 0
M  V30 3859 H 368.61 3.76541 -1.57102 0
M  V30 3860 H 367.285 3.24627 -2.59981 0
M  V30 3861 H 365.862 3.63972 -0.811108 0
M  V30 3862 N 368.047 0.979072 1.23499 0
M  V30 3863 C 368.997 0.489378 2.22686 0
M  V30 3864 C 369.981 -0.434871 1.54912 0
M  V30 3865 O 371.173 -0.263941 1.75021 0
M  V30 3866 C 368.302 -0.208178 3.42668 0
M  V30 3867 C 367.388 0.735563 4.17672 0
M  V30 3868 N 367.779 1.87763 4.69658 0
M  V30 3869 C 366.077 0.548625 4.42613 0
M  V30 3870 C 366.778 2.46886 5.26709 0
M  V30 3871 N 365.754 1.75287 5.14563 0
M  V30 3872 H 369.556 1.36062 2.60508 0
M  V30 3873 H 367.07 0.83958 1.39014 0
M  V30 3874 H 369.067 -0.576295 4.12898 0
M  V30 3875 H 367.727 -1.07572 3.06363 0
M  V30 3876 H 368.738 2.25885 4.66043 0
M  V30 3877 H 365.415 -0.274006 4.166 0
M  V30 3878 H 366.805 3.43326 5.77561 0
M  V30 3879 N 369.525 -1.3858 0.750561 0
M  V30 3880 C 370.773 -1.99789 0.30477 0
M  V30 3881 C 371.094 -1.59874 -1.11649 0
M  V30 3882 O 370.364 -0.85417 -1.76297 0
M  V30 3883 H 368.944 -0.738902 0.109694 0
M  V30 3884 H 371.606 -1.69391 0.963983 0
M  V30 3885 H 370.702 -3.09952 0.365499 0
M  V30 3886 N 371.003 -0.499398 -1.49478 0
M  V30 3887 C 371.913 0.284489 -2.32869 0
M  V30 3888 C 372.929 0.968885 -1.44529 0
M  V30 3889 O 374.105 0.95062 -1.77553 0
M  V30 3890 C 371.17 1.33594 -3.19928 0
M  V30 3891 C 370.231 0.665149 -4.24116 0
M  V30 3892 C 369.464 1.6665 -5.07014 0
M  V30 3893 O 369.687 2.89618 -4.91404 0
M  V30 3894 O 368.621 1.22271 -5.8935 0
M  V30 3895 H 372.447 -0.39802 -3.01081 0
M  V30 3896 H 370.032 -0.260758 -1.47107 0
M  V30 3897 H 371.914 1.94431 -3.73864 0
M  V30 3898 H 370.589 2.0014 -2.54412 0
M  V30 3899 H 369.496 0.0170769 -3.74096 0
M  V30 3900 H 370.829 0.0421555 -4.92182 0
M  V30 3901 N 372.481 1.55866 -0.233164 0
M  V30 3902 C 373.892 1.847 0.272554 0
M  V30 3903 C 374.243 1.15477 1.58617 0
M  V30 3904 O 373.368 0.42841 2.12117 0
M  V30 3905 C 373.963 3.35071 0.501299 0
M  V30 3906 C 372.522 3.6418 0.951304 0
M  V30 3907 C 371.669 2.77292 0.0208209 0
M  V30 3908 H 374.62 1.52005 -0.456074 0
M  V30 3909 H 374.641 3.55906 1.34577 0
M  V30 3910 H 374.153 3.85424 -0.454936 0
M  V30 3911 H 372.254 3.19293 1.92049 0
M  V30 3912 H 372.367 4.72071 0.817675 0
M  V30 3913 H 370.731 2.49131 0.529723 0
M  V30 3914 H 371.514 3.30448 -0.93054 0
M  V30 3915 N 373.959 -0.0401083 1.57549 0
M  V30 3916 C 374.889 -1.04384 2.08869 0
M  V30 3917 C 375.87 -1.38407 0.988817 0
M  V30 3918 O 377.055 -1.47483 1.26342 0
M  V30 3919 C 374.185 -2.34808 2.55895 0
M  V30 3920 C 373.139 -2.15057 3.70047 0
M  V30 3921 C 372.465 -3.51145 4.03239 0
M  V30 3922 C 373.765 -1.54576 4.98902 0
M  V30 3923 H 375.459 -0.616666 2.92981 0
M  V30 3924 H 373.005 -0.295184 1.40942 0
M  V30 3925 H 374.958 -3.05346 2.90417 0
M  V30 3926 H 373.682 -2.79565 1.68853 0
M  V30 3927 H 372.341 -1.46954 3.35857 0
M  V30 3928 H 371.989 -3.93529 3.13279 0
M  V30 3929 H 371.689 -3.38758 4.80122 0
M  V30 3930 H 373.213 -4.23062 4.40285 0
M  V30 3931 H 374.627 -2.15017 5.31451 0
M  V30 3932 H 373.024 -1.52796 5.80322 0
M  V30 3933 H 374.094 -0.51039 4.82206 0
M  V30 3934 N 375.437 -1.54477 -0.31217 0
M  V30 3935 C 376.677 -1.74958 -1.05684 0
M  V30 3936 C 377.041 -0.518414 -1.84869 0
M  V30 3937 O 378.242 -0.600759 -2.62001 0
M  V30 3938 C 376.513 -2.99656 -1.94785 0
M  V30 3939 S 378.072 -3.4109 -2.76049 0
M  V30 3940 H 374.89 -0.615104 -0.356606 0
M  V30 3941 H 377.492 -1.92669 -0.331514 0
M  V30 3942 H 376.196 -3.87397 -1.35468 0
M  V30 3943 H 375.727 -2.845 -2.71704 0
M  V30 3944 H 377.742 -2.97283 -3.97287 0
M  V30 3945 N 376.915 0.57481 -1.46744 0
M  V30 3946 C 378.164 1.32898 -1.51727 0
M  V30 3947 C 378.477 1.948 -0.176692 0
M  V30 3948 O 379.683 2.71299 -0.104385 0
M  V30 3949 C 378.139 2.40901 -2.67385 0
M  V30 3950 C 377.747 1.85266 -4.07898 0
M  V30 3951 C 379.491 3.17609 -2.81646 0
M  V30 3952 C 377.398 2.90945 -5.14883 0
M  V30 3953 H 376.328 0.499631 -0.564699 0
M  V30 3954 H 378.979 0.612536 -1.72975 0
M  V30 3955 H 377.361 3.15379 -2.39483 0
M  V30 3956 H 378.535 1.17278 -4.45626 0
M  V30 3957 H 376.85 1.21199 -3.98371 0
M  V30 3958 H 379.447 3.96493 -3.58744 0
M  V30 3959 H 379.79 3.70696 -1.89448 0
M  V30 3960 H 380.323 2.50239 -3.09233 0
M  V30 3961 H 377.062 2.42736 -6.089 0
M  V30 3962 H 376.582 3.57398 -4.81691 0
M  V30 3963 H 378.261 3.54755 -5.41071 0
M  V30 3964 N 378.394 1.34581 0.820102 0
M  V30 3965 C 379.642 1.26845 1.57336 0
M  V30 3966 C 379.963 -0.160667 1.94337 0
M  V30 3967 O 379.233 -1.09396 1.6251 0
M  V30 3968 H 377.813 0.466514 0.583415 0
M  V30 3969 H 380.475 1.68526 0.979027 0
M  V30 3970 H 379.571 1.87513 2.4949 0
M  V30 3971 N 379.872 -1.04064 1.18357 0
M  V30 3972 C 380.802 -2.14001 0.934113 0
M  V30 3973 C 381.783 -1.69616 -0.128186 0
M  V30 3974 O 382.968 -1.94185 0.0244093 0
M  V30 3975 C 380.098 -3.44253 0.459066 0
M  V30 3976 C 379.052 -4.02261 1.46185 0
M  V30 3977 C 378.378 -5.27992 0.844322 0
M  V30 3978 C 379.678 -4.38432 2.83856 0
M  V30 3979 H 381.372 -2.35127 1.85352 0
M  V30 3980 H 378.918 -1.12998 0.892604 0
M  V30 3981 H 380.871 -4.20522 0.271907 0
M  V30 3982 H 379.595 -3.22813 -0.495912 0
M  V30 3983 H 378.254 -3.28074 1.63595 0
M  V30 3984 H 377.902 -5.02862 -0.117845 0
M  V30 3985 H 377.602 -5.67765 1.51384 0
M  V30 3986 H 379.126 -6.06938 0.667693 0
M  V30 3987 H 380.54 -5.05688 2.70098 0
M  V30 3988 H 378.937 -4.89254 3.47491 0
M  V30 3989 H 380.007 -3.4826 3.37406 0
M  V30 3990 N 381.35 -0.985608 -1.22978 0
M  V30 3991 C 382.298 -0.522631 -2.26652 0
M  V30 3992 C 383.292 0.422998 -1.64034 0
M  V30 3993 O 384.498 0.296319 -1.77544 0
M  V30 3994 H 380.873 -0.150597 -0.736766 0
M  V30 3995 H 382.844 -1.40863 -2.63059 0
M  V30 3996 C 381.593 0.154238 -3.47358 0
M  V30 3997 H 380.916 -0.564329 -3.95797 0
M  V30 3998 H 382.356 0.441744 -4.21693 0
M  V30 3999 C 380.815 1.38719 -3.07016 0
M  V30 4000 O 381.345 2.48307 -3.15764 0
M  V30 4001 N 379.551 1.25975 -2.61875 0
M  V30 4002 H 379.098 0.368068 -2.54957 0
M  V30 4003 H 379.056 2.08578 -2.3525 0
M  V30 4004 N 382.828 1.3818 -0.7579 0
M  V30 4005 C 384.068 2.01864 -0.320968 0
M  V30 4006 C 384.432 1.58863 1.07827 0
M  V30 4007 O 385.633 2.14908 1.61456 0
M  V30 4008 C 383.904 3.54626 -0.44446 0
M  V30 4009 S 385.463 4.38706 -0.0907467 0
M  V30 4010 H 382.281 0.700056 -0.124268 0
M  V30 4011 H 384.883 1.68611 -0.989468 0
M  V30 4012 H 383.587 3.83411 -1.4637 0
M  V30 4013 H 383.118 3.92661 0.241073 0
M  V30 4014 H 385.133 4.83435 1.11826 0
M  V30 4015 N 384.306 0.507319 1.49211 0
M  V30 4016 C 385.269 -0.256763 2.27757 0
M  V30 4017 C 386.269 -0.888287 1.34038 0
M  V30 4018 O 387.459 -0.751841 1.5714 0
M  V30 4019 C 384.591 -1.36905 3.12202 0
M  V30 4020 H 385.784 0.432557 2.96764 0
M  V30 4021 H 383.337 0.262488 1.5408 0
M  V30 4022 H 384.072 -2.09233 2.47775 0
M  V30 4023 H 383.857 -0.921599 3.81115 0
M  V30 4024 H 385.347 -1.9071 3.7151 0
M  V30 4025 N 385.784 -1.5574 0.241426 0
M  V30 4026 C 386.714 -2.24133 -0.654722 0
M  V30 4027 C 387.695 -1.21974 -1.1856 0
M  V30 4028 O 388.88 -1.50612 -1.22595 0
M  V30 4029 C 386.01 -2.93659 -1.85423 0
M  V30 4030 C 384.964 -4.0246 -1.45636 0
M  V30 4031 C 384.29 -4.59383 -2.73626 0
M  V30 4032 C 385.59 -5.18468 -0.631506 0
M  V30 4033 H 387.284 -2.99281 -0.0844353 0
M  V30 4034 H 384.83 -1.43947 -0.0391707 0
M  V30 4035 H 386.783 -3.40203 -2.48676 0
M  V30 4036 H 385.507 -2.15991 -2.44981 0
M  V30 4037 H 384.166 -3.56676 -0.847202 0
M  V30 4038 H 383.814 -3.78422 -3.3137 0
M  V30 4039 H 383.514 -5.32826 -2.4773 0
M  V30 4040 H 385.038 -5.08658 -3.37786 0
M  V30 4041 H 386.452 -5.61272 -1.1682 0
M  V30 4042 H 384.849 -5.98266 -0.468831 0
M  V30 4043 H 385.919 -4.8358 0.357506 0
M  V30 4044 N 387.262 0.0317525 -1.57568 0
M  V30 4045 C 388.51 0.721676 -1.88776 0
M  V30 4046 C 388.831 1.76039 -0.838772 0
M  V30 4047 O 388.101 1.95482 0.127935 0
M  V30 4048 H 386.681 0.269534 -0.696678 0
M  V30 4049 H 389.343 -0.00165879 -1.949 0
M  V30 4050 H 388.439 1.21293 -2.87566 0
M  V30 4051 N 388.74 1.54641 0.303973 0
M  V30 4052 C 389.703 1.84646 1.35789 0
M  V30 4053 C 390.703 0.7192 1.4382 0
M  V30 4054 O 391.893 0.987491 1.43507 0
M  V30 4055 C 389.025 2.02407 2.74307 0
M  V30 4056 H 390.218 2.78829 1.10429 0
M  V30 4057 H 387.771 1.46658 0.540487 0
M  V30 4058 H 388.506 1.10502 3.04893 0
M  V30 4059 H 388.291 2.84453 2.69868 0
M  V30 4060 H 389.781 2.27002 3.50514 0
M  V30 4061 N 390.218 -0.567019 1.47046 0
M  V30 4062 C 391.181 -1.65696 1.58359 0
M  V30 4063 C 392.181 -1.54097 0.459441 0
M  V30 4064 O 393.371 -1.58432 0.724225 0
M  V30 4065 C 390.503 -3.05197 1.51879 0
M  V30 4066 H 391.696 -1.57019 2.5551 0
M  V30 4067 H 389.249 -0.786148 1.3509 0
M  V30 4068 H 389.984 -3.19417 0.560673 0
M  V30 4069 H 389.769 -3.15025 2.33455 0
M  V30 4070 H 391.259 -3.84511 1.62913 0
M  V30 4071 N 391.696 -1.35014 -0.812953 0
M  V30 4072 C 392.606 -1.2951 -1.95613 0
M  V30 4073 C 393.622 -0.20107 -1.72834 0
M  V30 4074 O 394.798 -0.42932 -1.96771 0
M  V30 4075 C 391.863 -1.06033 -3.30088 0
M  V30 4076 C 390.924 -2.24688 -3.65805 0
M  V30 4077 C 390.157 -2.02322 -4.93864 0
M  V30 4078 O 390.38 -0.986464 -5.61805 0
M  V30 4079 O 389.314 -2.89525 -5.27692 0
M  V30 4080 H 393.14 -2.25705 -2.03202 0
M  V30 4081 H 390.725 -1.15321 -0.949811 0
M  V30 4082 H 392.607 -0.94763 -4.10607 0
M  V30 4083 H 391.282 -0.128852 -3.23443 0
M  V30 4084 H 390.189 -2.41521 -2.85689 0
M  V30 4085 H 391.522 -3.16261 -3.77147 0
M  V30 4086 N 393.175 1.03435 -1.18907 0
M  V30 4087 C 394.108 2.11162 -0.86521 0
M  V30 4088 C 395.086 1.6165 0.175473 0
M  V30 4089 O 396.27 1.88425 0.0530129 0
M  V30 4090 C 393.397 3.37423 -0.293868 0
M  V30 4091 C 392.443 4.05795 -1.31274 0
M  V30 4092 S 393.276 4.52027 -2.8711 0
M  V30 4093 C 394.432 5.81513 -2.31504 0
M  V30 4094 H 394.665 2.38308 -1.77754 0
M  V30 4095 H 392.198 1.16295 -1.01562 0
M  V30 4096 H 394.156 4.1049 0.0292572 0
M  V30 4097 H 392.817 3.0838 0.596682 0
M  V30 4098 H 392.01 4.96574 -0.86198 0
M  V30 4099 H 391.612 3.38874 -1.58242 0
M  V30 4100 H 393.904 6.55784 -1.70157 0
M  V30 4101 H 394.847 6.3136 -3.20608 0
M  V30 4102 H 395.255 5.36921 -1.74286 0
M  V30 4103 N 394.653 0.992116 1.22453 0
M  V30 4104 C 396.069 0.702713 1.43297 0
M  V30 4105 C 396.269 -0.726909 1.87932 0
M  V30 4106 O 395.325 -1.49792 2.0327 0
M  V30 4107 C 396.638 1.70762 2.47509 0
M  V30 4108 C 398.186 1.72298 2.61309 0
M  V30 4109 C 398.661 2.71649 3.68742 0
M  V30 4110 N 400.152 2.70239 3.76199 0
M  V30 4111 C 400.887 3.43778 4.58917 0
M  V30 4112 N 400.383 4.26914 5.45633 0
M  V30 4113 N 402.176 3.32487 4.5322 0
M  V30 4114 H 394.327 1.91543 0.917871 0
M  V30 4115 H 396.59 0.826031 0.465162 0
M  V30 4116 H 396.296 2.73059 2.21657 0
M  V30 4117 H 396.17 1.49985 3.46099 0
M  V30 4118 H 398.557 0.706989 2.86506 0
M  V30 4119 H 398.638 1.97143 1.62997 0
M  V30 4120 H 398.282 3.73397 3.44292 0
M  V30 4121 H 398.212 2.44074 4.66622 0
M  V30 4122 H 400.703 2.09912 3.14237 0
M  V30 4123 H 401.016 4.79855 6.05771 0
M  V30 4124 H 399.361 4.31002 5.45218 0
M  V30 4125 H 402.552 2.6698 3.84499 0
M  V30 4126 H 402.725 3.90058 5.17454 0
M  V30 4127 N 396.131 -1.37776 0.765217 0
M  V30 4128 C 397.542 -1.82521 0.392819 0
M  V30 4129 C 397.893 -1.63789 -1.08017 0
M  V30 4130 O 397.018 -1.14542 -1.83601 0
M  V30 4131 C 397.613 -3.31358 0.706214 0
M  V30 4132 C 396.172 -3.74406 0.386952 0
M  V30 4133 C 395.319 -2.60394 0.953422 0
M  V30 4134 H 398.27 -1.2634 0.960412 0
M  V30 4135 H 398.291 -3.80498 -0.0114706 0
M  V30 4136 H 397.803 -3.44959 1.77833 0
M  V30 4137 H 395.904 -3.66377 -0.678112 0
M  V30 4138 H 396.017 -4.70749 0.890636 0
M  V30 4139 H 394.381 -2.51878 0.378064 0
M  V30 4140 H 395.164 -2.76791 2.03081 0
M  V30 4141 N 397.609 -0.515225 -1.4894 0
M  V30 4142 C 398.856 0.024215 -2.02486 0
M  V30 4143 C 399.184 1.35671 -1.39368 0
M  V30 4144 O 398.439 1.88566 -0.523574 0
M  V30 4145 C 398.738 0.210595 -3.56779 0
M  V30 4146 C 398.404 -1.04569 -4.38607 0
M  V30 4147 C 397.066 -1.39002 -4.60686 0
M  V30 4148 C 399.418 -1.88008 -4.86109 0
M  V30 4149 C 396.746 -2.568 -5.27514 0
M  V30 4150 C 399.098 -3.04972 -5.54234 0
M  V30 4151 C 397.762 -3.39768 -5.74555 0
M  V30 4152 H 397.032 0.00886088 -0.740947 0
M  V30 4153 H 399.679 -0.678263 -1.79086 0
M  V30 4154 H 397.984 0.99572 -3.78936 0
M  V30 4155 H 399.681 0.642659 -3.95817 0
M  V30 4156 H 396.271 -0.767497 -4.21672 0
M  V30 4157 H 400.455 -1.62719 -4.68867 0
M  V30 4158 H 395.711 -2.8398 -5.41447 0
M  V30 4159 H 399.885 -3.69943 -5.90013 0
M  V30 4160 H 397.512 -4.31148 -6.26112 0
M  V30 4161 N 399.087 1.5561 -0.249682 0
M  V30 4162 C 400.336 1.98187 0.37479 0
M  V30 4163 C 400.649 1.14111 1.58865 0
M  V30 4164 O 401.855 1.46714 2.28445 0
M  V30 4165 C 400.311 3.52661 0.718192 0
M  V30 4166 C 399.919 4.45481 -0.474428 0
M  V30 4167 C 401.663 4.03888 1.3067 0
M  V30 4168 C 399.57 5.91303 -0.107026 0
M  V30 4169 H 398.5 0.740159 0.143808 0
M  V30 4170 H 401.151 1.80125 -0.350336 0
M  V30 4171 H 399.533 3.66429 1.50152 0
M  V30 4172 H 400.707 4.43473 -1.25172 0
M  V30 4173 H 399.022 4.04751 -0.978052 0
M  V30 4174 H 401.619 5.10358 1.59496 0
M  V30 4175 H 401.962 3.51401 2.23211 0
M  V30 4176 H 402.495 3.93457 0.586211 0
M  V30 4177 H 399.234 6.47833 -0.999642 0
M  V30 4178 H 398.754 5.9644 0.634013 0
M  V30 4179 H 400.433 6.46258 0.309807 0
M  V30 4180 N 400.565 -0.0233959 1.57583 0
M  V30 4181 C 401.475 -1.03907 2.10334 0
M  V30 4182 C 402.491 -1.39257 1.04323 0
M  V30 4183 O 403.667 -1.48462 1.36091 0
M  V30 4184 C 400.732 -2.31938 2.57693 0
M  V30 4185 C 399.793 -2.03117 3.78209 0
M  V30 4186 C 399.026 -3.25043 4.233 0
M  V30 4187 O 399.249 -4.35916 3.67876 0
M  V30 4188 O 398.183 -3.10411 5.15683 0
M  V30 4189 H 402.009 -0.620748 2.97288 0
M  V30 4190 H 399.594 -0.240743 1.47448 0
M  V30 4191 H 401.476 -3.07196 2.88458 0
M  V30 4192 H 400.151 -2.73055 1.73847 0
M  V30 4193 H 399.058 -1.25408 3.52454 0
M  V30 4194 H 400.391 -1.66852 4.63056 0
M  V30 4195 N 402.043 -1.548 -0.295768 0
M  V30 4196 C 403.292 -1.73538 -1.02798 0
M  V30 4197 C 403.605 -0.531159 -1.8825 0
M  V30 4198 O 404.811 -0.600458 -2.64777 0
M  V30 4199 C 403.267 -3.07051 -1.87744 0
M  V30 4200 C 402.875 -4.34968 -1.07269 0
M  V30 4201 C 404.619 -3.35146 -2.60533 0
M  V30 4202 C 402.526 -5.5953 -1.91521 0
M  V30 4203 H 401.456 -0.646794 -0.387522 0
M  V30 4204 H 404.107 -1.81278 -0.284718 0
M  V30 4205 H 402.489 -2.93289 -2.66078 0
M  V30 4206 H 403.663 -4.5958 -0.335117 0
M  V30 4207 H 401.978 -4.13847 -0.460384 0
M  V30 4208 H 404.575 -4.2541 -3.23929 0
M  V30 4209 H 404.918 -2.54255 -3.29636 0
M  V30 4210 H 405.451 -3.49902 -1.89244 0
M  V30 4211 H 402.19 -6.43103 -1.26878 0
M  V30 4212 H 401.71 -5.39096 -2.62937 0
M  V30 4213 H 403.389 -5.96982 -2.49442 0
M  V30 4214 N 403.521 0.559213 -1.47345 0
M  V30 4215 C 404.77 1.31281 -1.53128 0
M  V30 4216 C 405.083 1.94602 -0.197344 0
M  V30 4217 O 406.289 2.71173 -0.133154 0
M  V30 4218 C 404.745 2.38051 -2.69925 0
M  V30 4219 C 404.353 1.8093 -4.0984 0
M  V30 4220 C 406.097 3.14604 -2.84999 0
M  V30 4221 C 404.004 2.85468 -5.1794 0
M  V30 4222 H 402.934 0.493614 -0.569966 0
M  V30 4223 H 405.585 0.594155 -1.73615 0
M  V30 4224 H 403.967 3.12822 -2.42814 0
M  V30 4225 H 405.141 1.12544 -4.46845 0
M  V30 4226 H 403.456 1.16967 -3.99634 0
M  V30 4227 H 406.053 3.92666 -3.62929 0
M  V30 4228 H 406.396 3.68665 -1.93369 0
M  V30 4229 H 406.929 2.46945 -3.1187 0
M  V30 4230 H 403.668 2.36264 -6.1144 0
M  V30 4231 H 403.188 3.52269 -4.85455 0
M  V30 4232 H 404.867 3.48996 -5.44803 0
M  V30 4233 N 404.999 1.35443 0.805782 0
M  V30 4234 C 406.247 1.28507 1.55982 0
M  V30 4235 C 406.568 -0.140046 1.94496 0
M  V30 4236 O 405.838 -1.07666 1.63661 0
M  V30 4237 H 404.418 0.472676 0.578434 0
M  V30 4238 H 407.08 1.69555 0.961098 0
M  V30 4239 H 406.176 1.90148 2.47488 0
M  V30 4240 N 406.477 -1.02803 1.19454 0
M  V30 4241 C 407.424 -2.11099 0.933046 0
M  V30 4242 C 408.394 -1.65571 -0.132447 0
M  V30 4243 O 409.579 -1.90797 0.00987576 0
M  V30 4244 C 406.719 -3.41763 0.478747 0
M  V30 4245 C 405.832 -4.00833 1.6111 0
M  V30 4246 C 404.967 -5.19511 1.10825 0
M  V30 4247 C 404.006 -5.70639 2.21445 0
M  V30 4248 N 403.143 -6.80589 1.72461 0
M  V30 4249 H 407.983 -2.32804 1.86028 0
M  V30 4250 H 405.52 -1.14179 0.927441 0
M  V30 4251 H 407.478 -4.16736 0.196745 0
M  V30 4252 H 406.108 -3.20166 -0.411493 0
M  V30 4253 H 405.16 -3.23066 2.00829 0
M  V30 4254 H 406.472 -4.34794 2.4445 0
M  V30 4255 H 405.626 -6.01645 0.781533 0
M  V30 4256 H 404.365 -4.87086 0.244606 0
M  V30 4257 H 403.37 -4.87116 2.54947 0
M  V30 4258 H 404.595 -6.05102 3.08267 0
M  V30 4259 H 402.541 -6.50016 0.884056 0
M  V30 4260 H 402.458 -7.13681 2.49389 0
M  V30 4261 H 403.726 -7.66317 1.42755 0
M  V30 4262 N 407.956 -0.998596 -1.21925 0
M  V30 4263 C 409.196 -0.685948 -1.92546 0
M  V30 4264 C 409.56 0.768441 -1.75952 0
M  V30 4265 O 410.761 1.19277 -2.40887 0
M  V30 4266 C 409.032 -1.08767 -3.40448 0
M  V30 4267 S 410.591 -0.894251 -4.29591 0
M  V30 4268 H 407.409 -0.250622 -0.665364 0
M  V30 4269 H 410.011 -1.28207 -1.47591 0
M  V30 4270 H 408.715 -2.14242 -3.50041 0
M  V30 4271 H 408.246 -0.48357 -3.90417 0
M  V30 4272 H 410.261 0.212149 -4.95746 0
M  V30 4273 N 409.434 1.37368 -0.772513 0
M  V30 4274 C 410.662 2.03942 -0.348588 0
M  V30 4275 C 411.077 1.58264 1.02947 0
M  V30 4276 O 410.434 0.764246 1.65727 0
M  V30 4277 C 410.485 3.5946 -0.38351 0
M  V30 4278 O 410.206 4.03468 -1.70721 0
M  V30 4279 C 411.707 4.4327 0.0519152 0
M  V30 4280 H 408.927 0.654931 -0.145966 0
M  V30 4281 H 411.471 1.75686 -1.04665 0
M  V30 4282 H 409.626 3.86486 0.265978 0
M  V30 4283 H 410.04 4.97991 -1.64636 0
M  V30 4284 H 411.514 5.51995 -0.0236733 0
M  V30 4285 H 411.991 4.2514 1.10238 0
M  V30 4286 H 412.597 4.21471 -0.569415 0
M  V30 4287 N 410.912 0.523116 1.48665 0
M  V30 4288 C 412.14 -0.0096312 2.06898 0
M  V30 4289 C 412.555 -1.28784 1.38059 0
M  V30 4290 O 411.912 -1.76453 0.465893 0
M  V30 4291 C 411.963 -0.244386 3.60673 0
M  V30 4292 O 411.684 0.983172 4.26925 0
M  V30 4293 C 413.185 -0.818289 4.35682 0
M  V30 4294 H 410.405 0.0304161 0.67031 0
M  V30 4295 H 412.949 0.726799 1.91149 0
M  V30 4296 H 411.104 -0.930847 3.76051 0
M  V30 4297 H 411.518 0.759653 5.1897 0
M  V30 4298 H 412.992 -0.93201 5.44075 0
M  V30 4299 H 413.469 -1.82153 3.99646 0
M  V30 4300 H 414.075 -0.168609 4.24966 0
M  V30 4301 N 412.39 -1.55475 0.257931 0
M  V30 4302 C 413.353 -2.20551 -0.623706 0
M  V30 4303 C 414.353 -1.17809 -1.09443 0
M  V30 4304 O 415.543 -1.42823 -0.997362 0
M  V30 4305 C 412.675 -2.85784 -1.8585 0
M  V30 4306 H 413.868 -2.99848 -0.0557743 0
M  V30 4307 H 411.421 -1.56298 0.0084422 0
M  V30 4308 H 412.156 -2.10453 -2.46739 0
M  V30 4309 H 411.941 -3.61057 -1.52907 0
M  V30 4310 H 413.431 -3.35553 -2.48584 0
M  V30 4311 N 413.868 0.0150385 -1.57593 0
M  V30 4312 C 415.098 0.713359 -1.93894 0
M  V30 4313 C 415.506 1.68663 -0.857289 0
M  V30 4314 O 414.849 1.82876 0.173788 0
M  V30 4315 C 414.911 1.51348 -3.26089 0
M  V30 4316 C 414.575 0.703451 -4.51554 0
M  V30 4317 C 415.572 -0.00237924 -5.199 0
M  V30 4318 C 413.257 0.653854 -4.98026 0
M  V30 4319 C 415.251 -0.746955 -6.33008 0
M  V30 4320 C 412.938 -0.0944578 -6.11027 0
M  V30 4321 C 413.936 -0.793609 -6.78374 0
M  V30 4322 O 413.624 -1.52974 -7.89211 0
M  V30 4323 H 413.356 0.204637 -0.644282 0
M  V30 4324 H 415.91 -0.0276411 -2.05381 0
M  V30 4325 H 414.14 2.29862 -3.10967 0
M  V30 4326 H 415.829 2.09572 -3.47612 0
M  V30 4327 H 416.595 0.0268803 -4.84993 0
M  V30 4328 H 412.474 1.18756 -4.45441 0
M  V30 4329 H 416.018 -1.2932 -6.85509 0
M  V30 4330 H 411.915 -0.125591 -6.45378 0
M  V30 4331 H 412.683 -1.44488 -8.05646 0
M  V30 4332 N 415.346 1.54954 0.287554 0
M  V30 4333 C 416.592 1.75132 1.02257 0
M  V30 4334 C 416.925 0.542858 1.86458 0
M  V30 4335 O 416.2 -0.459856 1.88986 0
M  V30 4336 C 416.483 3.04812 1.91733 0
M  V30 4337 C 416.336 4.35985 1.10622 0
M  V30 4338 C 417.655 3.30438 2.90687 0
M  V30 4339 H 414.774 0.637194 0.370341 0
M  V30 4340 H 417.416 1.87678 0.296111 0
M  V30 4341 H 415.566 2.94247 2.53675 0
M  V30 4342 H 417.238 4.58487 0.508636 0
M  V30 4343 H 415.481 4.31865 0.409271 0
M  V30 4344 H 416.152 5.23017 1.76513 0
M  V30 4345 H 418.628 3.40701 2.38877 0
M  V30 4346 H 417.504 4.22467 3.50447 0
M  V30 4347 H 417.765 2.49377 3.65053 0
M  V30 4348 N 416.824 -0.551391 1.4764 0
M  V30 4349 C 417.754 -1.66757 1.63445 0
M  V30 4350 C 418.735 -1.63077 0.483742 0
M  V30 4351 O 419.92 -1.80607 0.71377 0
M  V30 4352 C 417.05 -3.05387 1.65396 0
M  V30 4353 C 416.004 -3.23918 2.79752 0
M  V30 4354 C 415.33 -4.63393 2.66779 0
M  V30 4355 C 416.63 -3.08735 4.21284 0
M  V30 4356 H 418.324 -1.53786 2.56886 0
M  V30 4357 H 415.87 -0.738415 1.23626 0
M  V30 4358 H 417.823 -3.83325 1.75043 0
M  V30 4359 H 416.547 -3.19332 0.685195 0
M  V30 4360 H 415.206 -2.48391 2.69625 0
M  V30 4361 H 414.854 -4.74144 1.67918 0
M  V30 4362 H 414.554 -4.7674 3.43501 0
M  V30 4363 H 416.078 -5.43458 2.78364 0
M  V30 4364 H 417.492 -3.76484 4.32357 0
M  V30 4365 H 415.889 -3.33588 4.98838 0
M  V30 4366 H 416.959 -2.0541 4.39243 0
M  V30 4367 N 418.302 -1.35869 -0.798587 0
M  V30 4368 C 419.542 -1.30961 -1.56935 0
M  V30 4369 C 419.906 0.112404 -1.91671 0
M  V30 4370 O 421.107 0.285937 -2.67275 0
M  V30 4371 C 419.378 -2.19811 -2.81811 0
M  V30 4372 S 420.937 -2.32498 -3.72143 0
M  V30 4373 H 417.755 -0.465297 -0.537606 0
M  V30 4374 H 420.357 -1.71344 -0.941346 0
M  V30 4375 H 419.061 -3.22095 -2.54329 0
M  V30 4376 H 418.592 -1.80415 -3.49591 0
M  V30 4377 H 420.607 -1.5157 -4.72484 0
M  V30 4378 N 419.78 1.02168 -1.19998 0
M  V30 4379 C 421.01 1.79036 -1.031 0
M  V30 4380 C 421.418 1.84409 0.423078 0
M  V30 4381 O 420.761 1.29228 1.30559 0
M  V30 4382 C 420.823 3.25185 -1.53281 0
M  V30 4383 C 420.487 3.43431 -3.01503 0
M  V30 4384 C 421.484 3.33063 -3.99206 0
M  V30 4385 C 419.169 3.69412 -3.40353 0
M  V30 4386 C 421.163 3.48413 -5.33748 0
M  V30 4387 C 418.85 3.84406 -4.75053 0
M  V30 4388 C 419.848 3.7391 -5.71559 0
M  V30 4389 O 419.536 3.88452 -7.03818 0
M  V30 4390 H 419.268 0.570043 -0.363355 0
M  V30 4391 H 421.822 1.29524 -1.59414 0
M  V30 4392 H 420.052 3.75756 -0.913483 0
M  V30 4393 H 421.741 3.83671 -1.32481 0
M  V30 4394 H 422.507 3.12934 -3.70537 0
M  V30 4395 H 418.386 3.76671 -2.65782 0
M  V30 4396 H 421.93 3.40137 -6.09059 0
M  V30 4397 H 417.827 4.04035 -5.03415 0
M  V30 4398 H 418.595 4.055 -7.10993 0
M  V30 4399 N 421.258 1.00505 1.21394 0
M  V30 4400 C 422.669 0.721082 1.72213 0
M  V30 4401 C 423.02 -0.761263 1.80829 0
M  V30 4402 O 422.145 -1.59464 1.46288 0
M  V30 4403 C 422.74 1.30228 3.12772 0
M  V30 4404 C 421.299 1.06743 3.60947 0
M  V30 4405 C 420.446 1.41507 2.38477 0
M  V30 4406 H 423.397 1.17594 1.06571 0
M  V30 4407 H 423.418 0.686955 3.74247 0
M  V30 4408 H 422.93 2.38115 3.06468 0
M  V30 4409 H 421.031 0.00572162 3.726 0
M  V30 4410 H 421.144 1.73936 4.46411 0
M  V30 4411 H 419.508 0.833852 2.40664 0
M  V30 4412 H 420.291 2.50424 2.34824 0
M  V30 4413 N 422.737 -1.36956 0.779787 0
M  V30 4414 C 423.685 -2.32053 0.15942 0
M  V30 4415 C 424.679 -1.55333 -0.675878 0
M  V30 4416 O 425.885 -1.70668 -0.57204 0
M  V30 4417 H 422.26 -0.751286 0.0327707 0
M  V30 4418 H 424.231 -2.8195 0.977078 0
M  V30 4419 C 422.98 -3.40602 -0.698977 0
M  V30 4420 H 422.303 -3.99746 -0.0655966 0
M  V30 4421 H 423.743 -4.09486 -1.09989 0
M  V30 4422 C 422.202 -2.81359 -1.85307 0
M  V30 4423 O 422.732 -2.72751 -2.94906 0
M  V30 4424 N 420.938 -2.38786 -1.65619 0
M  V30 4425 H 420.485 -2.45987 -0.764725 0
M  V30 4426 H 420.443 -1.99493 -2.43002 0
M  V30 4427 N 424.215 -0.530993 -1.48385 0
M  V30 4428 C 425.178 0.220497 -2.28137 0
M  V30 4429 C 426.178 0.866851 -1.35434 0
M  V30 4430 O 427.368 0.726746 -1.58316 0
M  V30 4431 C 424.5 1.31921 -3.1434 0
M  V30 4432 H 425.693 -0.479714 -2.96038 0
M  V30 4433 H 423.246 -0.286968 -1.53643 0
M  V30 4434 H 423.981 2.05264 -2.51072 0
M  V30 4435 H 423.766 0.86085 -3.82533 0
M  V30 4436 H 425.256 1.84776 -3.74497 0
M  V30 4437 N 425.693 1.55336 -0.266172 0
M  V30 4438 C 426.941 1.99003 0.35246 0
M  V30 4439 C 427.262 1.15591 1.57047 0
M  V30 4440 O 426.532 0.243268 1.94384 0
M  V30 4441 H 425.112 0.735025 0.133217 0
M  V30 4442 H 427.774 1.91367 -0.369434 0
M  V30 4443 H 426.87 3.05289 0.648453 0
M  V30 4444 N 427.171 -0.0066808 1.57599 0
M  V30 4445 C 428.101 -0.999296 2.11036 0
M  V30 4446 C 429.082 -1.36278 1.01795 0
M  V30 4447 O 430.267 -1.4477 1.29442 0
M  V30 4448 C 427.397 -2.29328 2.60818 0
M  V30 4449 C 426.351 -2.07159 3.74525 0
M  V30 4450 C 425.677 -3.42512 4.10596 0
M  V30 4451 C 426.977 -1.43959 5.02069 0
M  V30 4452 H 428.671 -0.554382 2.94223 0
M  V30 4453 H 426.217 -0.265221 1.41536 0
M  V30 4454 H 428.17 -2.99117 2.96828 0
M  V30 4455 H 426.894 -2.7592 1.74745 0
M  V30 4456 H 425.553 -1.39797 3.38899 0
M  V30 4457 H 425.201 -3.86795 3.21556 0
M  V30 4458 H 424.901 -3.28498 4.87199 0
M  V30 4459 H 426.425 -4.13628 4.4916 0
M  V30 4460 H 427.839 -2.03696 5.35893 0
M  V30 4461 H 426.236 -1.40452 5.83432 0
M  V30 4462 H 427.306 -0.407992 4.83181 0
M  V30 4463 N 428.649 -1.55105 -0.279332 0
M  V30 4464 C 430.06 -1.66186 -0.850832 0
M  V30 4465 C 430.411 -0.584707 -1.87285 0
M  V30 4466 O 429.536 0.274919 -2.14647 0
M  V30 4467 C 430.131 -3.01264 -1.55001 0
M  V30 4468 C 428.69 -3.14394 -2.06963 0
M  V30 4469 C 427.837 -2.61959 -0.909536 0
M  V30 4470 H 430.788 -1.58602 -0.0558235 0
M  V30 4471 H 430.809 -2.93899 -2.41669 0
M  V30 4472 H 430.321 -3.7964 -0.805931 0
M  V30 4473 H 428.422 -2.4078 -2.84352 0
M  V30 4474 H 428.535 -4.20867 -2.28928 0
M  V30 4475 H 426.899 -2.18957 -1.30116 0
M  V30 4476 H 427.682 -3.42833 -0.179062 0
M  V30 4477 N 430.127 0.543554 -1.4793 0
M  V30 4478 C 431.075 1.67039 -1.61866 0
M  V30 4479 C 432.069 1.62294 -0.48549 0
M  V30 4480 O 433.275 1.67315 -0.66376 0
M  V30 4481 H 429.65 0.552954 -0.509652 0
M  V30 4482 H 431.621 1.52426 -2.56533 0
M  V30 4483 C 430.37 3.05357 -1.6629 0
M  V30 4484 H 429.693 3.09696 -2.5284 0
M  V30 4485 H 431.133 3.83855 -1.80088 0
M  V30 4486 C 429.592 3.34531 -0.398861 0
M  V30 4487 O 430.122 3.98649 0.494162 0
M  V30 4488 N 428.328 2.89299 -0.2747 0
M  V30 4489 H 427.875 2.37298 -1.00236 0
M  V30 4490 H 427.833 3.09188 0.570075 0
M  V30 4491 N 431.605 1.3629 0.791371 0
M  V30 4492 C 432.833 1.33562 1.58016 0
M  V30 4493 C 433.248 -0.0835616 1.88615 0
M  V30 4494 O 432.605 -1.0399 1.49974 0
M  V30 4495 C 432.656 2.15517 2.90232 0
M  V30 4496 O 432.377 3.51902 2.60953 0
M  V30 4497 C 433.878 2.20546 3.84544 0
M  V30 4498 H 431.098 0.458226 0.490173 0
M  V30 4499 H 433.642 1.79361 0.982345 0
M  V30 4500 H 431.797 1.73278 3.46487 0
M  V30 4501 H 432.211 3.94644 3.4548 0
M  V30 4502 H 433.685 2.82252 4.74382 0
M  V30 4503 H 434.162 1.20838 4.2225 0
M  V30 4504 H 434.768 2.63013 3.34222 0
M  V30 4505 N 433.083 -1.0153 1.20538 0
M  V30 4506 C 434.33 -1.75149 1.01633 0
M  V30 4507 C 434.658 -1.89189 -0.451399 0
M  V30 4508 O 433.913 -1.41551 -1.35136 0
M  V30 4509 C 434.212 -3.17213 1.64654 0
M  V30 4510 C 433.878 -3.23146 3.14464 0
M  V30 4511 C 432.54 -3.24472 3.55347 0
M  V30 4512 C 434.892 -3.21207 4.10458 0
M  V30 4513 C 432.22 -3.21532 4.90748 0
M  V30 4514 C 434.572 -3.19808 5.45807 0
M  V30 4515 C 433.236 -3.19439 5.86102 0
M  V30 4516 H 432.506 -0.640914 0.3719 0
M  V30 4517 H 435.153 -1.19071 1.49981 0
M  V30 4518 H 433.458 -3.76457 1.08571 0
M  V30 4519 H 435.155 -3.72871 1.4754 0
M  V30 4520 H 431.745 -3.2285 2.81897 0
M  V30 4521 H 435.929 -3.19351 3.79906 0
M  V30 4522 H 431.185 -3.19578 5.21229 0
M  V30 4523 H 435.359 -3.1726 6.19935 0
M  V30 4524 H 432.986 -3.16915 6.90991 0
M  V30 4525 N 434.561 -1.01147 -1.20859 0
M  V30 4526 C 435.809 -0.696486 -1.89719 0
M  V30 4527 C 436.13 0.775788 -1.78904 0
M  V30 4528 O 435.4 1.55759 -1.18811 0
M  V30 4529 H 433.98 -0.254628 -0.702263 0
M  V30 4530 H 436.642 -1.28197 -1.46804 0
M  V30 4531 H 435.738 -0.975357 -2.96468 0
M  V30 4532 N 436.039 1.36541 -0.78704 0
M  V30 4533 C 437.316 1.9355 -0.282424 0
M  V30 4534 C 437.696 1.71919 1.22503 0
M  V30 4535 O 437.044 1.07677 2.01539 0
M  V30 4536 C 437.254 3.4246 -0.672462 0
M  V30 4537 C 438.602 4.19582 -0.650863 0
M  V30 4538 O 439.626 3.50889 -0.612789 0
M  V30 4539 O 438.485 5.42106 -0.691623 0
M  V30 4540 H 435.579 0.824091 -0.0693 0
M  V30 4541 H 438.125 1.45736 -0.869423 0
M  V30 4542 H 436.897 3.51851 -1.71221 0
M  V30 4543 H 436.52 3.97556 -0.0592211 0
M  V30 4544 N 437.518 0.538854 1.48102 0
M  V30 4545 C 438.748 0.0122958 2.06596 0
M  V30 4546 C 439.156 -1.27861 1.39457 0
M  V30 4547 O 438.499 -1.77348 0.478907 0
M  V30 4548 C 438.561 -0.273131 3.58461 0
M  V30 4549 C 438.225 0.92561 4.47528 0
M  V30 4550 C 439.222 1.82637 4.86765 0
M  V30 4551 C 436.907 1.13511 4.89306 0
M  V30 4552 C 438.901 2.92047 5.66558 0
M  V30 4553 C 436.588 2.23233 5.68868 0
M  V30 4554 C 437.586 3.12333 6.07402 0
M  V30 4555 O 437.274 4.20155 6.85365 0
M  V30 4556 H 437.006 0.0344283 0.675123 0
M  V30 4557 H 439.56 0.746494 1.91355 0
M  V30 4558 H 437.79 -1.06141 3.71848 0
M  V30 4559 H 439.479 -0.742842 3.99045 0
M  V30 4560 H 440.245 1.67649 4.55103 0
M  V30 4561 H 436.124 0.450835 4.5879 0
M  V30 4562 H 439.668 3.6162 5.96554 0
M  V30 4563 H 435.565 2.38201 5.99942 0
M  V30 4564 H 436.333 4.17975 7.03732 0
M  V30 4565 N 438.996 -1.55193 0.274407 0
M  V30 4566 C 440.273 -1.91584 -0.394331 0
M  V30 4567 C 440.653 -1.19858 -1.73774 0
M  V30 4568 O 440.001 -0.3252 -2.26174 0
M  V30 4569 C 440.211 -3.4487 -0.535311 0
M  V30 4570 C 441.559 -4.16636 -0.818534 0
M  V30 4571 O 442.583 -3.5076 -0.620146 0
M  V30 4572 O 441.442 -5.33209 -1.19792 0
M  V30 4573 H 438.536 -0.798349 -0.215794 0
M  V30 4574 H 441.082 -1.66646 0.320507 0
M  V30 4575 H 439.854 -3.89145 0.410141 0
M  V30 4576 H 439.477 -3.75759 -1.29964 0
M  V30 4577 N 440.474 -0.00167713 -1.576 0
M  V30 4578 C 441.384 1.00548 -2.1196 0
M  V30 4579 C 442.4 1.3758 -1.06526 0
M  V30 4580 O 443.576 1.46278 -1.38436 0
M  V30 4581 C 440.641 2.27809 -2.6135 0
M  V30 4582 C 439.702 1.97074 -3.81393 0
M  V30 4583 C 438.935 3.18267 -4.28417 0
M  V30 4584 O 439.158 4.30009 -3.74765 0
M  V30 4585 O 438.092 3.02167 -5.20556 0
M  V30 4586 H 441.918 0.573373 -2.98238 0
M  V30 4587 H 439.503 0.217255 -1.47812 0
M  V30 4588 H 441.385 3.02568 -2.93309 0
M  V30 4589 H 440.06 2.70254 -1.78169 0
M  V30 4590 H 438.967 1.19785 -3.54404 0
M  V30 4591 H 440.3 1.59464 -4.65652 0
M  V30 4592 N 441.952 1.55251 0.271103 0
M  V30 4593 C 443.18 1.79974 1.02064 0
M  V30 4594 C 443.595 0.574003 1.79863 0
M  V30 4595 O 442.952 -0.456962 1.76686 0
M  V30 4596 C 443.003 3.02603 1.97772 0
M  V30 4597 O 442.724 4.20443 1.23124 0
M  V30 4598 C 444.225 3.39944 2.84522 0
M  V30 4599 H 441.445 0.599489 0.301419 0
M  V30 4600 H 443.989 2.02268 0.301313 0
M  V30 4601 H 442.144 2.8243 2.65165 0
M  V30 4602 H 442.558 4.89783 1.87651 0
M  V30 4603 H 444.032 4.28915 3.47471 0
M  V30 4604 H 444.509 2.59432 3.54389 0
M  V30 4605 H 445.115 3.62383 2.22618 0
M  V30 4606 N 443.43 -0.535701 1.48216 0
M  V30 4607 C 444.841 -1.11769 1.49548 0
M  V30 4608 C 445.192 -1.94442 0.26207 0
M  V30 4609 O 444.317 -2.06987 -0.631287 0
M  V30 4610 C 444.912 -2.03367 2.70975 0
M  V30 4611 C 443.471 -2.56795 2.75196 0
M  V30 4612 C 442.618 -1.33631 2.42977 0
M  V30 4613 H 445.569 -0.321232 1.55415 0
M  V30 4614 H 445.59 -2.87569 2.49167 0
M  V30 4615 H 445.102 -1.43169 3.60727 0
M  V30 4616 H 443.203 -3.20731 1.89638 0
M  V30 4617 H 443.316 -2.9632 3.76472 0
M  V30 4618 H 441.68 -1.6502 1.94012 0
M  V30 4619 H 442.463 -0.75194 3.34964 0
M  V30 4620 N 444.908 -1.36708 -0.784132 0
M  V30 4621 C 446.133 -1.34565 -1.5782 0
M  V30 4622 C 446.558 0.0695257 -1.87971 0
M  V30 4623 O 445.916 1.04302 -1.48293 0
M  V30 4624 C 445.964 -2.17952 -2.87279 0
M  V30 4625 O 445.068 -1.57563 -3.81114 0
M  V30 4626 H 444.409 -0.460337 -0.478524 0
M  V30 4627 H 446.939 -1.80064 -0.971495 0
M  V30 4628 H 446.949 -2.30721 -3.365 0
M  V30 4629 H 445.624 -3.20823 -2.64661 0
M  V30 4630 H 444.201 -1.53764 -3.39722 0
M  V30 4631 N 446.386 1.0089 -1.21074 0
M  V30 4632 C 447.319 2.09279 -0.909806 0
M  V30 4633 C 448.297 1.61986 0.141145 0
M  V30 4634 O 449.481 1.88495 0.0130332 0
M  V30 4635 C 446.608 3.36723 -0.365374 0
M  V30 4636 C 445.654 4.02919 -1.39852 0
M  V30 4637 S 446.487 4.45835 -2.96633 0
M  V30 4638 C 447.643 5.76471 -2.43786 0
M  V30 4639 H 447.876 2.34484 -1.82769 0
M  V30 4640 H 445.409 1.14115 -1.04006 0
M  V30 4641 H 447.367 4.10459 -0.0578203 0
M  V30 4642 H 446.028 3.09577 0.531136 0
M  V30 4643 H 445.221 4.94634 -0.967117 0
M  V30 4644 H 444.823 3.35441 -1.65395 0
M  V30 4645 H 447.115 6.52027 -1.84029 0
M  V30 4646 H 448.058 6.24418 -3.33928 0
M  V30 4647 H 448.466 5.33104 -1.85636 0
M  V30 4648 N 447.864 1.01787 1.20321 0
M  V30 4649 C 448.797 0.533882 2.21867 0
M  V30 4650 C 449.775 -0.419361 1.57099 0
M  V30 4651 O 450.959 -0.339062 1.85426 0
M  V30 4652 C 448.086 -0.222899 3.37966 0
M  V30 4653 C 447.132 0.680091 4.21043 0
M  V30 4654 S 447.965 2.14997 4.90445 0
M  V30 4655 C 449.121 1.40339 6.09964 0
M  V30 4656 H 449.354 1.39429 2.62577 0
M  V30 4657 H 446.887 0.826867 1.30393 0
M  V30 4658 H 448.845 -0.653425 4.05266 0
M  V30 4659 H 447.506 -1.0589 2.95713 0
M  V30 4660 H 446.699 0.0964704 5.03908 0
M  V30 4661 H 446.301 1.04845 3.59004 0
M  V30 4662 H 448.593 0.68407 6.74038 0
M  V30 4663 H 449.536 2.20823 6.72787 0
M  V30 4664 H 449.944 0.905716 5.57187 0
M  V30 4665 N 449.342 -1.36122 0.79427 0
M  V30 4666 C 450.305 -2.28309 0.201889 0
M  V30 4667 C 451.305 -1.49041 -0.603603 0
M  V30 4668 O 452.495 -1.68964 -0.423888 0
M  V30 4669 C 449.627 -3.3321 -0.719978 0
M  V30 4670 H 450.82 -2.82208 1.01481 0
M  V30 4671 H 448.373 -1.45768 0.564037 0
M  V30 4672 H 449.108 -2.84475 -1.55706 0
M  V30 4673 H 448.893 -3.91835 -0.144266 0
M  V30 4674 H 450.383 -4.02044 -1.12916 0
M  V30 4675 N 450.82 -0.546701 -1.47814 0
M  V30 4676 C 451.767 0.206854 -2.29871 0
M  V30 4677 C 452.737 0.918235 -1.38411 0
M  V30 4678 O 453.922 0.915991 -1.67375 0
M  V30 4679 C 451.062 1.23746 -3.22151 0
M  V30 4680 C 450.175 0.533216 -4.28697 0
M  V30 4681 C 449.31 1.5482 -5.08138 0
M  V30 4682 C 448.349 0.828347 -6.06469 0
M  V30 4683 N 447.486 1.78966 -6.78908 0
M  V30 4684 H 452.326 -0.499037 -2.93792 0
M  V30 4685 H 449.863 -0.25793 -1.44821 0
M  V30 4686 H 451.821 1.84746 -3.74065 0
M  V30 4687 H 450.451 1.91151 -2.60117 0
M  V30 4688 H 449.503 -0.191089 -3.7992 0
M  V30 4689 H 450.815 -0.0311987 -4.9879 0
M  V30 4690 H 449.969 2.23202 -5.6415 0
M  V30 4691 H 448.708 2.14652 -4.37922 0
M  V30 4692 H 447.713 0.130539 -5.49645 0
M  V30 4693 H 448.938 0.235907 -6.7869 0
M  V30 4694 H 446.884 2.37675 -6.1143 0
M  V30 4695 H 446.801 1.27712 -7.45135 0
M  V30 4696 H 448.069 2.46496 -7.395 0
M  V30 4697 N 452.299 1.55045 -0.282633 0
M  V30 4698 C 453.249 2.19514 0.616249 0
M  V30 4699 C 454.233 1.16216 1.11277 0
M  V30 4700 O 455.425 1.42004 1.05659 0
M  V30 4701 C 452.554 2.92548 1.7964 0
M  V30 4702 C 451.64 4.03142 1.31671 0
M  V30 4703 N 452.031 5.0276 0.553695 0
M  V30 4704 C 450.329 4.1635 1.59903 0
M  V30 4705 C 451.03 5.80923 0.30054 0
M  V30 4706 N 450.006 5.3651 0.875116 0
M  V30 4707 H 453.808 2.93889 0.0255363 0
M  V30 4708 H 451.322 1.62169 -0.0865362 0
M  V30 4709 H 453.319 3.37188 2.45173 0
M  V30 4710 H 451.979 2.19685 2.39099 0
M  V30 4711 H 452.99 5.17512 0.20032 0
M  V30 4712 H 449.667 3.54682 2.20243 0
M  V30 4713 H 451.057 6.7118 -0.311053 0
M  V30 4714 N 453.777 0.010035 1.57597 0
M  V30 4715 C 454.707 -0.976857 2.12084 0
M  V30 4716 C 455.688 -1.35191 1.03235 0
M  V30 4717 O 456.873 -1.43389 1.3097 0
M  V30 4718 C 454.003 -2.26548 2.63236 0
M  V30 4719 C 452.957 -2.03175 3.76701 0
M  V30 4720 C 452.283 -3.38138 4.14206 0
M  V30 4721 C 453.583 -1.38625 5.03568 0
M  V30 4722 H 455.277 -0.523145 2.94794 0
M  V30 4723 H 452.823 -0.250195 1.4181 0
M  V30 4724 H 454.776 -2.95952 2.99984 0
M  V30 4725 H 453.5 -2.74051 1.77661 0
M  V30 4726 H 452.159 -1.36195 3.40362 0
M  V30 4727 H 451.807 -3.83363 3.25641 0
M  V30 4728 H 451.507 -3.23312 4.90656 0
M  V30 4729 H 453.031 -4.08841 4.53521 0
M  V30 4730 H 454.445 -1.98 5.38023 0
M  V30 4731 H 452.842 -1.34256 5.84889 0
M  V30 4732 H 453.912 -0.356722 4.83586 0
M  V30 4733 N 455.255 -1.55392 -0.262866 0
M  V30 4734 C 456.202 -1.88966 -1.32516 0
M  V30 4735 C 457.172 -0.742187 -1.48596 0
M  V30 4736 O 458.357 -0.99439 -1.62839 0
M  V30 4737 C 455.497 -2.17592 -2.67858 0
M  V30 4738 C 454.61 -3.45061 -2.59917 0
M  V30 4739 C 453.745 -3.63336 -3.87505 0
M  V30 4740 C 452.784 -4.84462 -3.74116 0
M  V30 4741 N 451.921 -4.99342 -4.93561 0
M  V30 4742 H 456.761 -2.79566 -1.03184 0
M  V30 4743 H 454.298 -1.38404 -0.498285 0
M  V30 4744 H 456.256 -2.3219 -3.46617 0
M  V30 4745 H 454.886 -1.30215 -2.95371 0
M  V30 4746 H 453.938 -3.38881 -1.72812 0
M  V30 4747 H 455.25 -4.3396 -2.45926 0
M  V30 4748 H 454.404 -3.77807 -4.74707 0
M  V30 4749 H 453.143 -2.72641 -4.04374 0
M  V30 4750 H 452.148 -4.69985 -2.85297 0
M  V30 4751 H 453.373 -5.76603 -3.58757 0
M  V30 4752 H 451.319 -4.1158 -5.10821 0
M  V30 4753 H 451.236 -5.82303 -4.82141 0
M  V30 4754 H 452.504 -5.18208 -5.82306 0
M  V30 4755 N 456.733 0.527833 -1.48498 0
M  V30 4756 C 458.01 1.28905 -1.47115 0
M  V30 4757 C 458.39 2.10297 -0.184007 0
M  V30 4758 O 457.738 2.12728 0.834218 0
M  V30 4759 C 457.948 2.16866 -2.73441 0
M  V30 4760 C 459.296 2.76936 -3.21857 0
M  V30 4761 O 460.32 2.27152 -2.74373 0
M  V30 4762 O 459.179 3.67496 -4.04486 0
M  V30 4763 H 456.273 0.581918 -0.587623 0
M  V30 4764 H 458.819 0.544311 -1.60734 0
M  V30 4765 H 457.591 1.56521 -3.58632 0
M  V30 4766 H 457.214 2.98583 -2.62553 0
M  V30 4767 N 458.211 1.37122 0.776871 0
M  V30 4768 C 459.458 1.32047 1.53524 0
M  V30 4769 C 459.786 -0.0965631 1.9426 0
M  V30 4770 O 459.041 -1.06866 1.63945 0
M  V30 4771 C 459.34 2.20068 2.81611 0
M  V30 4772 C 459.006 3.68423 2.59953 0
M  V30 4773 C 457.668 4.08854 2.53755 0
M  V30 4774 C 460.02 4.62431 2.40431 0
M  V30 4775 C 457.348 5.41417 2.26018 0
M  V30 4776 C 459.7 5.95225 2.14219 0
M  V30 4777 C 458.364 6.34767 2.06462 0
M  V30 4778 H 457.634 0.483196 0.561785 0
M  V30 4779 H 460.281 1.69284 0.895268 0
M  V30 4780 H 458.586 1.75809 3.50141 0
M  V30 4781 H 460.283 2.13458 3.39465 0
M  V30 4782 H 456.873 3.36354 2.65638 0
M  V30 4783 H 461.057 4.32057 2.44213 0
M  V30 4784 H 456.313 5.71022 2.18504 0
M  V30 4785 H 460.487 6.67626 1.98112 0
M  V30 4786 H 458.114 7.37413 1.84733 0
M  V30 4787 N 459.689 -1.00246 1.21608 0
M  V30 4788 C 460.652 -2.07233 0.979133 0
M  V30 4789 C 461.652 -1.6072 -0.0508219 0
M  V30 4790 O 462.842 -1.73196 0.186712 0
M  V30 4791 C 459.974 -3.37546 0.477016 0
M  V30 4792 H 461.167 -2.29687 1.92831 0
M  V30 4793 H 458.72 -1.17261 1.03342 0
M  V30 4794 H 459.455 -3.20773 -0.476966 0
M  V30 4795 H 459.24 -3.72638 1.21997 0
M  V30 4796 H 460.73 -4.16285 0.331181 0
M  V30 4797 N 461.167 -1.02423 -1.1978 0
M  V30 4798 C 462.1 -0.545641 -2.21581 0
M  V30 4799 C 463.078 0.411024 -1.57319 0
M  V30 4800 O 464.262 0.329223 -1.85603 0
M  V30 4801 C 461.389 0.204973 -3.38079 0
M  V30 4802 C 460.435 -0.70241 -4.20676 0
M  V30 4803 S 461.268 -2.17595 -4.89298 0
M  V30 4804 C 462.424 -1.43572 -6.09211 0
M  V30 4805 H 462.657 -1.4082 -2.61834 0
M  V30 4806 H 460.19 -0.833771 -1.29952 0
M  V30 4807 H 462.148 0.631924 -4.05607 0
M  V30 4808 H 460.809 1.0432 -2.9627 0
M  V30 4809 H 460.002 -0.123193 -5.03849 0
M  V30 4810 H 459.604 -1.06747 -3.58442 0
M  V30 4811 H 461.896 -0.719806 -6.73665 0
M  V30 4812 H 462.839 -2.24388 -6.71607 0
M  V30 4813 H 463.247 -0.935252 -5.56699 0
M  V30 4814 N 462.645 1.35699 -0.801477 0
M  V30 4815 C 463.922 1.9324 -0.302937 0
M  V30 4816 C 464.302 1.73209 1.20672 0
M  V30 4817 O 463.65 1.09809 2.00385 0
M  V30 4818 C 463.86 3.41728 -0.708747 0
M  V30 4819 C 465.208 4.18868 -0.695328 0
M  V30 4820 O 466.232 3.5022 -0.649971 0
M  V30 4821 O 465.091 5.41342 -0.749081 0
M  V30 4822 H 462.185 0.82331 -0.0780367 0
M  V30 4823 H 464.731 1.44806 -0.884832 0
M  V30 4824 H 463.503 3.50015 -1.74944 0
M  V30 4825 H 463.126 3.97471 -0.101384 0
M  V30 4826 N 464.123 0.554532 1.47522 0
M  V30 4827 C 465.371 0.0294208 2.02079 0
M  V30 4828 C 465.692 -1.32411 1.43151 0
M  V30 4829 O 464.962 -1.863 0.605728 0
M  V30 4830 H 463.542 0.00788672 0.746958 0
M  V30 4831 H 466.204 0.723934 1.80956 0
M  V30 4832 H 465.3 -0.0606745 3.12041 0
M  V30 4833 N 465.601 -1.54893 0.290851 0
M  V30 4834 C 466.531 -2.26103 -0.583084 0
M  V30 4835 C 467.512 -1.25684 -1.14619 0
M  V30 4836 O 468.697 -1.54436 -1.17741 0
M  V30 4837 C 465.827 -2.99409 -1.75987 0
M  V30 4838 C 464.781 -4.0689 -1.32758 0
M  V30 4839 C 464.107 -4.67856 -2.58872 0
M  V30 4840 C 465.407 -5.20215 -0.46624 0
M  V30 4841 H 467.101 -2.99398 0.0108214 0
M  V30 4842 H 464.647 -1.43998 0.00664468 0
M  V30 4843 H 466.6 -3.47943 -2.37727 0
M  V30 4844 H 465.324 -2.23675 -2.37985 0
M  V30 4845 H 463.983 -3.59191 -0.733299 0
M  V30 4846 H 463.631 -3.88772 -3.19163 0
M  V30 4847 H 463.331 -5.40438 -2.30653 0
M  V30 4848 H 464.855 -5.19147 -3.21433 0
M  V30 4849 H 466.269 -5.64704 -0.989047 0
M  V30 4850 H 464.666 -5.99455 -0.27826 0
M  V30 4851 H 465.736 -4.82198 0.511173 0
M  V30 4852 N 467.08 -0.0183926 -1.57589 0
M  V30 4853 C 468.326 0.663543 -1.91638 0
M  V30 4854 C 468.659 1.72392 -0.894134 0
M  V30 4855 O 467.934 1.94316 0.0846449 0
M  V30 4856 C 468.217 1.28984 -3.36207 0
M  V30 4857 C 468.07 0.239761 -4.49161 0
M  V30 4858 C 469.389 2.2109 -3.80536 0
M  V30 4859 H 466.508 0.239746 -0.696915 0
M  V30 4860 H 469.15 -0.073456 -1.89858 0
M  V30 4861 H 467.3 1.91799 -3.37854 0
M  V30 4862 H 468.972 -0.390119 -4.59647 0
M  V30 4863 H 467.215 -0.435972 -4.31604 0
M  V30 4864 H 467.886 0.717383 -5.47319 0
M  V30 4865 H 470.362 1.68273 -3.80557 0
M  V30 4866 H 469.238 2.61869 -4.82406 0
M  V30 4867 H 469.499 3.09764 -3.15434 0
M  V30 4868 N 468.558 1.5553 0.254621 0
M  V30 4869 C 469.506 1.9048 1.33492 0
M  V30 4870 C 470.5 0.78304 1.50216 0
M  V30 4871 O 471.706 0.967582 1.51782 0
M  V30 4872 H 468.081 0.604846 0.44684 0
M  V30 4873 H 470.052 2.80688 1.01275 0
M  V30 4874 C 468.801 2.20928 2.68489 0
M  V30 4875 H 468.124 3.06742 2.56417 0
M  V30 4876 H 469.564 2.49291 3.42972 0
M  V30 4877 C 468.023 1.023 3.20993 0
M  V30 4878 O 468.553 0.267027 4.00811 0
M  V30 4879 N 466.759 0.815714 2.78917 0
M  V30 4880 H 466.306 1.43217 2.14119 0
M  V30 4881 H 466.264 0.0236532 3.14391 0
M  V30 4882 N 470.036 -0.519951 1.48776 0
M  V30 4883 C 471.285 -1.27175 1.56555 0
M  V30 4884 C 471.598 -1.9401 0.248869 0
M  V30 4885 O 472.804 -2.70725 0.205004 0
M  V30 4886 C 471.26 -2.30811 2.76142 0
M  V30 4887 C 470.868 -1.7 4.14493 0
M  V30 4888 C 472.612 -3.06937 2.9324 0
M  V30 4889 C 470.519 -2.71635 5.25327 0
M  V30 4890 H 469.449 -0.478329 0.582853 0
M  V30 4891 H 472.1 -0.547916 1.75129 0
M  V30 4892 H 470.482 -3.06274 2.51023 0
M  V30 4893 H 471.656 -1.00658 4.49672 0
M  V30 4894 H 469.971 -1.06331 4.02595 0
M  V30 4895 H 472.568 -3.82905 3.73213 0
M  V30 4896 H 472.911 -3.63409 2.03075 0
M  V30 4897 H 473.444 -2.38589 3.18308 0
M  V30 4898 H 470.183 -2.1997 6.1749 0
M  V30 4899 H 469.703 -3.39275 4.94624 0
M  V30 4900 H 471.382 -3.34429 5.53865 0
M  V30 4901 N 471.514 -1.37532 -0.769588 0
M  V30 4902 C 472.76 -1.33057 -1.53048 0
M  V30 4903 C 473.093 0.0841865 -1.94017 0
M  V30 4904 O 472.368 1.04198 -1.64235 0
M  V30 4905 C 472.651 -2.27166 -2.79406 0
M  V30 4906 C 472.504 -3.77429 -2.44677 0
M  V30 4907 C 473.823 -2.19683 -3.81349 0
M  V30 4908 H 470.942 -0.484655 -0.555228 0
M  V30 4909 H 473.584 -1.68251 -0.882702 0
M  V30 4910 H 471.734 -1.97283 -3.34682 0
M  V30 4911 H 473.406 -4.17918 -1.953 0
M  V30 4912 H 471.649 -3.95892 -1.77346 0
M  V30 4913 H 472.32 -4.38716 -3.35011 0
M  V30 4914 H 474.796 -2.46029 -3.35573 0
M  V30 4915 H 473.672 -2.87668 -4.67481 0
M  V30 4916 H 473.933 -1.19045 -4.25771 0
M  V30 4917 N 472.992 0.995999 -1.22138 0
M  V30 4918 C 474.24 1.73167 -1.042 0
M  V30 4919 C 474.561 1.90329 0.42423 0
M  V30 4920 O 473.831 1.4607 1.30539 0
M  V30 4921 H 472.411 0.641593 -0.38258 0
M  V30 4922 H 475.073 1.19974 -1.53598 0
M  V30 4923 H 474.169 2.72734 -1.51731 0
M  V30 4924 N 474.47 1.03057 1.19235 0
M  V30 4925 C 475.718 0.726581 1.88587 0
M  V30 4926 C 476.039 -0.747227 1.80115 0
M  V30 4927 O 475.309 -1.53849 1.21274 0
M  V30 4928 H 473.889 0.265768 0.698124 0
M  V30 4929 H 476.551 1.30516 1.44746 0
M  V30 4930 H 475.647 1.0224 2.94879 0
M  V30 4931 N 475.948 -1.35272 0.808662 0
M  V30 4932 C 477.188 -2.00534 0.395668 0
M  V30 4933 C 477.552 -1.62755 -1.01857 0
M  V30 4934 O 478.753 -2.20752 -1.53368 0
M  V30 4935 C 477.024 -3.52732 0.575771 0
M  V30 4936 S 478.583 -4.38067 0.253507 0
M  V30 4937 H 475.401 -0.694962 0.150165 0
M  V30 4938 H 478.003 -1.64823 1.05137 0
M  V30 4939 H 476.707 -3.77714 1.60499 0
M  V30 4940 H 476.238 -3.93285 -0.0951739 0
M  V30 4941 H 478.253 -4.87252 -0.938068 0
M  V30 4942 N 477.426 -0.562348 -1.47226 0
M  V30 4943 C 478.666 -0.0426374 -2.04356 0
M  V30 4944 C 479.03 1.28487 -1.42671 0
M  V30 4945 O 480.231 1.89259 -1.90878 0
M  V30 4946 C 478.502 0.0433826 -3.57374 0
M  V30 4947 S 480.061 0.508472 -4.35844 0
M  V30 4948 H 476.879 -0.0276234 -0.710463 0
M  V30 4949 H 479.481 -0.750245 -1.80531 0
M  V30 4950 H 478.185 -0.927072 -3.99792 0
M  V30 4951 H 477.716 0.774387 -3.85703 0
M  V30 4952 H 479.731 1.76719 -4.63665 0
M  V30 4953 N 478.904 1.54736 -0.299062 0
M  V30 4954 C 480.152 1.99706 0.31017 0
M  V30 4955 C 480.473 1.18896 1.54559 0
M  V30 4956 O 479.743 0.284445 1.93824 0
M  V30 4957 H 478.323 0.737686 0.117596 0
M  V30 4958 H 480.985 1.9054 -0.409943 0
M  V30 4959 H 480.081 3.06596 0.58355 0
M  V30 4960 N 480.382 0.0267497 1.57577 0
M  V30 4961 C 481.607 -0.666227 1.96408 0
M  V30 4962 C 482.032 -1.65004 0.903071 0
M  V30 4963 O 481.39 -1.80787 -0.136263 0
M  V30 4964 C 481.438 -1.35101 3.34335 0
M  V30 4965 O 480.542 -2.46623 3.30531 0
M  V30 4966 H 479.883 -0.175206 0.640468 0
M  V30 4967 H 482.413 0.0878977 2.04411 0
M  V30 4968 H 482.423 -1.70834 3.70513 0
M  V30 4969 H 481.098 -0.629844 4.11103 0
M  V30 4970 H 479.675 -2.13019 3.06068 0
M  V30 4971 N 481.861 -1.55662 -0.24637 0
M  V30 4972 C 483.089 -1.81575 -0.991876 0
M  V30 4973 C 483.504 -0.602545 -1.78927 0
M  V30 4974 O 482.861 0.428795 -1.77391 0
M  V30 4975 C 482.912 -3.05711 -1.92933 0
M  V30 4976 O 482.633 -4.22348 -1.1642 0
M  V30 4977 C 484.134 -3.44428 -2.79078 0
M  V30 4978 H 481.354 -0.604209 -0.291844 0
M  V30 4979 H 483.898 -2.02722 -0.269095 0
M  V30 4980 H 482.053 -2.86612 -2.60638 0
M  V30 4981 H 482.467 -4.92706 -1.79835 0
M  V30 4982 H 483.941 -4.34388 -3.40603 0
M  V30 4983 H 484.418 -2.65037 -3.50217 0
M  V30 4984 H 485.024 -3.65879 -2.16824 0
M  V30 4985 N 483.339 0.512053 -1.4905 0
M  V30 4986 C 484.75 1.09376 -1.51307 0
M  V30 4987 C 485.101 1.94 -0.292971 0
M  V30 4988 O 484.226 2.07965 0.598277 0
M  V30 4989 C 484.821 1.99031 -2.74176 0
M  V30 4990 C 483.38 2.52385 -2.79247 0
M  V30 4991 C 482.527 1.29749 -2.45073 0
M  V30 4992 H 485.478 0.296467 -1.55906 0
M  V30 4993 H 485.499 2.83569 -2.53711 0
M  V30 4994 H 485.011 1.37412 -3.62959 0
M  V30 4995 H 483.112 3.17673 -1.94716 0
M  V30 4996 H 483.225 2.90293 -3.81139 0
M  V30 4997 H 481.589 1.61912 -1.96612 0
M  V30 4998 H 482.372 0.698555 -3.36118 0
M  V30 4999 N 484.817 1.37938 0.762283 0
M  V30 5000 C 486.094 1.24196 1.51112 0
M  V30 5001 C 486.474 -0.160409 2.1049 0
M  V30 5002 O 485.822 -1.16904 1.96331 0
M  V30 5003 C 486.032 2.34537 2.58445 0
M  V30 5004 C 487.38 2.7254 3.25588 0
M  V30 5005 O 488.404 2.33783 2.68745 0
M  V30 5006 O 487.263 3.39343 4.28379 0
M  V30 5007 H 484.357 0.485175 0.669727 0
M  V30 5008 H 486.903 1.49743 0.798438 0
M  V30 5009 H 485.675 3.28406 2.12756 0
M  V30 5010 H 485.298 2.10505 3.37303 0
M  V30 5011 N 486.295 -0.989507 1.22664 0
M  V30 5012 C 487.245 -2.06478 0.967005 0
M  V30 5013 C 488.229 -1.60682 -0.0836374 0
M  V30 5014 O 489.421 -1.76541 0.127322 0
M  V30 5015 C 486.55 -3.38861 0.550313 0
M  V30 5016 C 485.636 -3.9128 1.63587 0
M  V30 5017 N 486.027 -4.16884 2.86429 0
M  V30 5018 C 484.325 -4.1972 1.50834 0
M  V30 5019 C 485.026 -4.5954 3.56648 0
M  V30 5020 N 484.002 -4.63434 2.84131 0
M  V30 5021 H 487.804 -2.24219 1.90008 0
M  V30 5022 H 485.318 -1.17153 1.12467 0
M  V30 5023 H 487.315 -4.15465 0.345612 0
M  V30 5024 H 485.975 -3.22518 -0.375822 0
M  V30 5025 H 486.986 -4.04976 3.22823 0
M  V30 5026 H 483.663 -4.1243 0.648643 0
M  V30 5027 H 485.053 -4.87944 4.61909 0
M  V30 5028 N 487.773 -1.03688 -1.18687 0
M  V30 5029 C 489.022 -0.733235 -1.879 0
M  V30 5030 C 489.335 0.741745 -1.8099 0
M  V30 5031 O 490.541 1.15875 -2.4553 0
M  V30 5032 C 488.997 -1.26127 -3.37076 0
M  V30 5033 C 488.605 -2.76461 -3.52524 0
M  V30 5034 C 490.349 -1.03398 -4.11715 0
M  V30 5035 C 488.256 -3.22642 -4.95637 0
M  V30 5036 H 487.186 -0.270584 -0.703776 0
M  V30 5037 H 489.837 -1.25222 -1.34133 0
M  V30 5038 H 488.219 -0.670165 -3.90288 0
M  V30 5039 H 489.393 -3.41296 -3.09602 0
M  V30 5040 H 487.708 -2.97559 -2.91286 0
M  V30 5041 H 490.305 -1.3542 -5.17267 0
M  V30 5042 H 490.648 0.0289246 -4.1629 0
M  V30 5043 H 491.181 -1.5895 -3.64664 0
M  V30 5044 H 487.92 -4.28296 -4.96228 0
M  V30 5045 H 487.44 -2.62539 -5.39289 0
M  V30 5046 H 489.119 -3.16444 -5.64333 0
M  V30 5047 N 489.251 1.34841 -0.815825 0
M  V30 5048 C 490.667 1.51543 -0.500697 0
M  V30 5049 C 490.867 1.76261 0.976444 0
M  V30 5050 O 489.923 1.8094 1.76117 0
M  V30 5051 C 491.236 2.68487 -1.35407 0
M  V30 5052 C 492.784 2.82368 -1.35046 0
M  V30 5053 C 493.259 4.02347 -2.18816 0
M  V30 5054 N 494.75 4.09542 -2.16402 0
M  V30 5055 C 495.485 5.01517 -2.77971 0
M  V30 5056 N 494.981 5.98763 -3.48503 0
M  V30 5057 N 496.774 4.94334 -2.67563 0
M  V30 5058 H 488.925 1.17055 -1.77234 0
M  V30 5059 H 491.188 0.573481 -0.754866 0
M  V30 5060 H 490.894 2.56829 -2.40274 0
M  V30 5061 H 490.768 3.63321 -1.01377 0
M  V30 5062 H 493.155 2.93471 -0.309604 0
M  V30 5063 H 493.236 1.88363 -1.73069 0
M  V30 5064 H 492.88 3.92004 -3.22948 0
M  V30 5065 H 492.81 4.95551 -1.78148 0
M  V30 5066 H 495.301 3.39932 -1.65091 0
M  V30 5067 H 495.614 6.6556 -3.92747 0
M  V30 5068 H 493.959 5.98909 -3.52609 0
M  V30 5069 H 497.15 4.1732 -2.12041 0
M  V30 5070 H 497.323 5.6582 -3.15834 0
M  V30 5071 N 490.729 0.570148 1.46925 0
M  V30 5072 C 491.639 -0.173061 2.33961 0
M  V30 5073 C 492.655 -0.898825 1.48987 0
M  V30 5074 O 493.831 -0.864825 1.81887 0
M  V30 5075 C 490.896 -1.18177 3.25937 0
M  V30 5076 C 489.957 -0.462041 4.26806 0
M  V30 5077 C 489.19 -1.4227 5.14388 0
M  V30 5078 O 489.413 -2.65842 5.04662 0
M  V30 5079 O 488.347 -0.940127 5.94513 0
M  V30 5080 H 492.173 0.541216 2.98839 0
M  V30 5081 H 489.758 0.330647 1.45695 0
M  V30 5082 H 491.64 -1.76372 3.82715 0
M  V30 5083 H 490.315 -1.87774 2.63671 0
M  V30 5084 H 489.222 0.161429 3.73752 0
M  V30 5085 H 490.555 0.192719 4.91823 0
M  V30 5086 N 492.207 -1.54576 0.307264 0
M  V30 5087 C 493.456 -1.99442 -0.300976 0
M  V30 5088 C 493.769 -1.19928 -1.5452 0
M  V30 5089 O 494.975 -1.55092 -2.22842 0
M  V30 5090 C 493.431 -3.55084 -0.586809 0
M  V30 5091 C 493.039 -4.43413 0.639438 0
M  V30 5092 C 494.783 -4.0846 -1.1559 0
M  V30 5093 C 492.69 -5.90499 0.326411 0
M  V30 5094 H 491.62 -0.744986 -0.116238 0
M  V30 5095 H 494.271 -1.787 0.416947 0
M  V30 5096 H 492.653 -3.71749 -1.36449 0
M  V30 5097 H 493.827 -4.38522 1.41545 0
M  V30 5098 H 492.142 -4.00842 1.1276 0
M  V30 5099 H 494.739 -5.15926 -1.40445 0
M  V30 5100 H 495.082 -3.59443 -2.10015 0
M  V30 5101 H 495.615 -3.95362 -0.439778 0
M  V30 5102 H 492.354 -6.43676 1.23939 0
M  V30 5103 H 491.874 -5.98382 -0.412212 0
M  V30 5104 H 493.553 -6.46962 -0.0697393 0
M  V30 5105 N 493.685 -0.035106 -1.57561 0
M  V30 5106 C 494.648 0.929819 -2.09492 0
M  V30 5107 C 495.648 1.25026 -1.01119 0
M  V30 5108 O 496.838 1.18961 -1.27255 0
M  V30 5109 C 493.97 2.24457 -2.56577 0
M  V30 5110 H 495.163 0.479935 -2.96035 0
M  V30 5111 H 492.716 0.213033 -1.54841 0
M  V30 5112 H 493.451 2.74061 -1.73382 0
M  V30 5113 H 493.236 2.02508 -3.35757 0
M  V30 5114 H 494.726 2.93607 -2.96959 0
M  V30 5115 N 495.163 1.55791 0.238111 0
M  V30 5116 C 496.073 1.94196 1.31625 0
M  V30 5117 C 497.089 0.843545 1.52185 0
M  V30 5118 O 498.265 1.1457 1.65637 0
M  V30 5119 C 495.33 2.2365 2.64918 0
M  V30 5120 C 494.391 3.46971 2.52804 0
M  V30 5121 C 493.624 3.7501 3.79741 0
M  V30 5122 O 493.847 3.04982 4.82019 0
M  V30 5123 O 492.781 4.68525 3.77846 0
M  V30 5124 H 496.607 2.86044 1.02043 0
M  V30 5125 H 494.192 1.42786 0.439603 0
M  V30 5126 H 496.074 2.43863 3.4367 0
M  V30 5127 H 494.749 1.34979 2.94215 0
M  V30 5128 H 493.656 3.32055 1.72309 0
M  V30 5129 H 494.989 4.35971 2.28451 0
M  V30 5130 N 496.642 -0.504142 1.49319 0
M  V30 5131 C 497.605 -1.5883 1.65244 0
M  V30 5132 C 498.605 -1.52009 0.524386 0
M  V30 5133 O 499.795 -1.55218 0.79077 0
M  V30 5134 C 496.927 -2.98481 1.64687 0
M  V30 5135 H 498.12 -1.4604 2.61939 0
M  V30 5136 H 495.673 -0.728144 1.38303 0
M  V30 5137 H 496.408 -3.16751 0.695644 0
M  V30 5138 H 496.193 -3.0484 2.46607 0
M  V30 5139 H 497.683 -3.77256 1.79075 0
M  V30 5140 N 498.12 -1.38341 -0.754957 0
M  V30 5141 C 499.366 -1.34672 -1.51628 0
M  V30 5142 C 499.699 0.0636036 -1.94096 0
M  V30 5143 O 498.974 1.0245 -1.6533 0
M  V30 5144 C 499.257 -2.30116 -2.76981 0
M  V30 5145 C 499.11 -3.80003 -2.4066 0
M  V30 5146 C 500.429 -2.23715 -3.78998 0
M  V30 5147 H 497.548 -0.490517 -0.550056 0
M  V30 5148 H 500.19 -1.69178 -0.864807 0
M  V30 5149 H 498.34 -2.00821 -3.3257 0
M  V30 5150 H 500.012 -4.19966 -1.90856 0
M  V30 5151 H 498.255 -3.97751 -1.73137 0
M  V30 5152 H 498.926 -4.42244 -3.30339 0
M  V30 5153 H 501.402 -2.49574 -3.32945 0
M  V30 5154 H 500.278 -2.9261 -4.64403 0
M  V30 5155 H 500.539 -1.23554 -4.24484 0
M  V30 5156 N 499.598 0.982988 -1.23187 0
M  V30 5157 C 500.545 2.07491 -1.01075 0
M  V30 5158 C 501.515 1.65949 0.070905 0
M  V30 5159 O 502.7 1.90629 -0.0806822 0
M  V30 5160 C 499.84 3.39751 -0.605261 0
M  V30 5161 C 498.953 3.94578 -1.75876 0
M  V30 5162 C 498.088 5.15039 -1.3003 0
M  V30 5163 C 497.127 5.62027 -2.42472 0
M  V30 5164 N 496.264 6.73719 -1.97602 0
M  V30 5165 H 501.104 2.25739 -1.9454 0
M  V30 5166 H 498.641 1.10659 -0.969179 0
M  V30 5167 H 500.599 4.15719 -0.351279 0
M  V30 5168 H 499.229 3.21473 0.292382 0
M  V30 5169 H 498.281 3.1539 -2.12681 0
M  V30 5170 H 499.593 4.25422 -2.60418 0
M  V30 5171 H 498.747 5.9833 -1.00429 0
M  V30 5172 H 497.486 4.85843 -0.425216 0
M  V30 5173 H 496.491 4.77318 -2.7285 0
M  V30 5174 H 497.716 5.93244 -3.30512 0
M  V30 5175 H 495.662 6.46287 -1.1247 0
M  V30 5176 H 495.579 7.03934 -2.75705 0
M  V30 5177 H 496.847 7.6049 -1.71098 0
M  V30 5178 N 501.076 1.04316 1.18135 0
M  V30 5179 C 502.024 0.630175 2.23901 0
M  V30 5180 C 503.018 -0.344254 1.65865 0
M  V30 5181 O 504.224 -0.211273 1.78756 0
M  V30 5182 H 500.599 0.185578 0.728742 0
M  V30 5183 H 502.57 1.53253 2.56039 0
M  V30 5184 C 501.319 0.011666 3.47698 0
M  V30 5185 H 500.642 0.752526 3.92654 0
M  V30 5186 H 502.082 -0.240046 4.2332 0
M  V30 5187 C 500.541 -1.23913 3.13285 0
M  V30 5188 O 501.071 -2.32959 3.27251 0
M  V30 5189 N 499.277 -1.13338 2.67587 0
M  V30 5190 H 498.824 -0.246006 2.56423 0
M  V30 5191 H 498.782 -1.97116 2.44934 0
M  V30 5192 N 502.554 -1.34406 0.822964 0
M  V30 5193 C 503.794 -2.00103 0.416915 0
M  V30 5194 C 504.158 -1.63826 -1.00125 0
M  V30 5195 O 505.359 -2.22367 -1.51018 0
M  V30 5196 C 503.63 -3.52101 0.613151 0
M  V30 5197 S 505.189 -4.37774 0.299956 0
M  V30 5198 H 502.007 -0.69333 0.157527 0
M  V30 5199 H 504.609 -1.63698 1.06879 0
M  V30 5200 H 503.313 -3.75991 1.64496 0
M  V30 5201 H 502.844 -3.93364 -0.0534554 0
M  V30 5202 H 504.859 -4.8822 -0.886336 0
M  V30 5203 N 504.032 -0.577932 -1.46621 0
M  V30 5204 C 504.979 0.158048 -2.30258 0
M  V30 5205 C 505.949 0.888669 -1.40328 0
M  V30 5206 O 507.134 0.880283 -1.6928 0
M  V30 5207 C 504.274 1.16884 -3.24703 0
M  V30 5208 C 503.387 0.442163 -4.29731 0
M  V30 5209 C 502.522 1.44007 -5.11308 0
M  V30 5210 C 501.561 0.69952 -6.0809 0
M  V30 5211 N 500.698 1.64525 -6.82551 0
M  V30 5212 H 505.538 -0.561242 -2.92667 0
M  V30 5213 H 503.075 -0.288591 -1.44241 0
M  V30 5214 H 505.033 1.7677 -3.779 0
M  V30 5215 H 503.663 1.85591 -2.64113 0
M  V30 5216 H 502.715 -0.271632 -3.79429 0
M  V30 5217 H 504.027 -0.136992 -4.98612 0
M  V30 5218 H 503.181 2.11186 -5.68758 0
M  V30 5219 H 501.92 2.05315 -4.42377 0
M  V30 5220 H 500.925 0.0139217 -5.49798 0
M  V30 5221 H 502.15 0.091894 -6.79038 0
M  V30 5222 H 500.096 2.24653 -6.16334 0
M  V30 5223 H 500.013 1.11878 -7.47676 0
M  V30 5224 H 501.281 2.30754 -7.44562 0
M  V30 5225 N 505.51 1.54411 -0.315457 0
M  V30 5226 C 506.921 1.85885 0.174265 0
M  V30 5227 C 507.272 1.23723 1.52273 0
M  V30 5228 O 506.397 0.540246 2.09548 0
M  V30 5229 C 506.992 3.37257 0.322981 0
M  V30 5230 C 505.551 3.68711 0.756922 0
M  V30 5231 C 504.698 2.77013 -0.126195 0
M  V30 5232 H 507.649 1.49374 -0.536007 0
M  V30 5233 H 507.67 3.62539 1.15522 0
M  V30 5234 H 507.182 3.82471 -0.658602 0
M  V30 5235 H 505.283 3.29024 1.74854 0
M  V30 5236 H 505.396 4.75741 0.566291 0
M  V30 5237 H 503.76 2.51588 0.39692 0
M  V30 5238 H 504.543 3.25051 -1.1044 0
M  V30 5239 N 506.988 0.0434614 1.5754 0
M  V30 5240 C 508.404 -0.313039 1.565 0
M  V30 5241 C 508.604 -1.71954 1.05043 0
M  V30 5242 O 507.66 -2.425 0.703564 0
M  V30 5243 C 508.973 -0.148544 3.00333 0
M  V30 5244 C 510.521 -0.220231 3.12224 0
M  V30 5245 C 510.996 -0.0843565 4.57922 0
M  V30 5246 N 512.487 -0.140881 4.62986 0
M  V30 5247 C 513.222 -0.0597443 5.73369 0
M  V30 5248 N 512.718 0.0733004 6.92761 0
M  V30 5249 N 514.511 -0.11477 5.61983 0
M  V30 5250 H 506.662 0.96303 1.89313 0
M  V30 5251 H 508.925 0.373164 0.871466 0
M  V30 5252 H 508.631 0.820894 3.41986 0
M  V30 5253 H 508.505 -0.912798 3.65989 0
M  V30 5254 H 510.892 -1.18014 2.70475 0
M  V30 5255 H 510.973 0.574646 2.49262 0
M  V30 5256 H 510.617 0.872192 5.00355 0
M  V30 5257 H 510.547 -0.898281 5.18882 0
M  V30 5258 H 513.038 -0.243273 3.77116 0
M  V30 5259 H 513.351 0.128128 7.72694 0
M  V30 5260 H 511.696 0.10828 6.94916 0
M  V30 5261 H 514.887 -0.217212 4.67596 0
M  V30 5262 H 515.06 -0.0480779 6.47982 0
M  V30 5263 N 508.466 -1.55915 -0.229846 0
M  V30 5264 C 509.712 -1.78807 -0.956868 0
M  V30 5265 C 510.045 -0.611687 -1.84315 0
M  V30 5266 O 509.32 0.389398 -1.90562 0
M  V30 5267 C 509.603 -3.11718 -1.80288 0
M  V30 5268 C 509.456 -4.3979 -0.943649 0
M  V30 5269 C 510.775 -3.40999 -2.78222 0
M  V30 5270 H 507.894 -0.6505 -0.346437 0
M  V30 5271 H 510.536 -1.88648 -0.226252 0
M  V30 5272 H 508.686 -3.03459 -2.42579 0
M  V30 5273 H 510.358 -4.60059 -0.338121 0
M  V30 5274 H 508.601 -4.33086 -0.248705 0
M  V30 5275 H 509.272 -5.29208 -1.5698 0
M  V30 5276 H 511.748 -3.49332 -2.26067 0
M  V30 5277 H 510.624 -4.35183 -3.34526 0
M  V30 5278 H 510.885 -2.62754 -3.55546 0
M  V30 5279 N 509.944 0.496216 -1.49584 0
M  V30 5280 C 511.355 1.07765 -1.52459 0
M  V30 5281 C 511.706 1.93679 -0.31353 0
M  V30 5282 O 510.831 2.08588 0.576186 0
M  V30 5283 C 511.426 1.96111 -2.76271 0
M  V30 5284 C 509.985 2.49409 -2.81908 0
M  V30 5285 C 509.132 1.27142 -2.46435 0
M  V30 5286 H 512.083 0.279914 -1.56212 0
M  V30 5287 H 512.104 2.80862 -2.56704 0
M  V30 5288 H 511.616 1.33555 -3.64396 0
M  V30 5289 H 509.717 3.1559 -1.98074 0
M  V30 5290 H 509.83 2.86234 -3.84196 0
M  V30 5291 H 508.194 1.59818 -1.98319 0
M  V30 5292 H 508.977 0.662866 -3.3684 0
M  V30 5293 N 511.423 1.38739 0.74761 0
M  V30 5294 C 512.834 1.31507 1.32524 0
M  V30 5295 C 513.185 -0.0263963 1.96182 0
M  V30 5296 O 512.31 -0.92849 1.95469 0
M  V30 5297 C 512.905 2.38162 2.40966 0
M  V30 5298 C 511.464 2.34489 2.94434 0
M  V30 5299 C 510.611 2.20712 1.67873 0
M  V30 5300 H 513.562 1.4901 0.546043 0
M  V30 5301 H 513.583 2.04222 3.21051 0
M  V30 5302 H 513.095 3.35783 1.94605 0
M  V30 5303 H 511.196 1.40467 3.45108 0
M  V30 5304 H 511.309 3.28861 3.48407 0
M  V30 5305 H 509.673 1.67667 1.91729 0
M  V30 5306 H 510.456 3.20285 1.23582 0
M  V30 5307 N 512.901 -0.976442 1.23707 0
M  V30 5308 C 513.864 -2.0511 1.02287 0
M  V30 5309 C 514.864 -1.60791 -0.0167195 0
M  V30 5310 O 516.054 -1.72761 0.223408 0
M  V30 5311 C 513.186 -3.36458 0.548507 0
M  V30 5312 H 514.379 -2.25545 1.9766 0
M  V30 5313 H 511.932 -1.15042 1.05806 0
M  V30 5314 H 512.667 -3.21713 -0.408818 0
M  V30 5315 H 512.452 -3.69967 1.29874 0
M  V30 5316 H 513.942 -4.15489 0.419406 0
M  V30 5317 N 514.379 -1.04941 -1.1758 0
M  V30 5318 C 515.607 -0.778294 -1.91703 0
M  V30 5319 C 516.022 0.665697 -1.76675 0
M  V30 5320 O 515.379 1.45456 -1.10222 0
M  V30 5321 C 515.43 -1.14628 -3.42845 0
M  V30 5322 O 515.151 -2.53359 -3.57409 0
M  V30 5323 C 516.652 -0.900931 -4.34049 0
M  V30 5324 H 513.872 -0.283167 -0.608323 0
M  V30 5325 H 516.416 -1.39942 -1.49119 0
M  V30 5326 H 514.571 -0.569953 -3.83184 0
M  V30 5327 H 514.985 -2.67709 -4.51035 0
M  V30 5328 H 516.459 -1.20817 -5.38616 0
M  V30 5329 H 516.936 0.163966 -4.38894 0
M  V30 5330 H 517.542 -1.46097 -3.99419 0
M  V30 5331 N 515.857 1.33968 -0.830081 0
M  V30 5332 C 516.82 2.27694 -0.26235 0
M  V30 5333 C 517.82 1.50589 0.563876 0
M  V30 5334 O 519.01 1.70028 0.378941 0
M  V30 5335 C 516.142 3.35002 0.63138 0
M  V30 5336 H 517.335 2.79419 -1.08928 0
M  V30 5337 H 514.888 1.44221 -0.602486 0
M  V30 5338 H 515.623 2.88504 1.48109 0
M  V30 5339 H 515.408 3.92079 0.0403276 0
M  V30 5340 H 516.898 4.04897 1.02217 0
M  V30 5341 N 517.335 0.585699 1.46312 0
M  V30 5342 C 518.582 0.0724211 2.0237 0
M  V30 5343 C 518.91 -1.28868 1.45683 0
M  V30 5344 O 518.165 -1.85853 0.612945 0
M  V30 5345 C 518.464 -0.0401312 3.57377 0
M  V30 5346 C 518.13 1.25376 4.33119 0
M  V30 5347 C 516.792 1.60824 4.5353 0
M  V30 5348 C 519.144 2.10987 4.76586 0
M  V30 5349 C 516.472 2.81676 5.14661 0
M  V30 5350 C 518.824 3.31068 5.39052 0
M  V30 5351 C 517.488 3.66794 5.5769 0
M  V30 5352 H 516.758 0.0265007 0.740526 0
M  V30 5353 H 519.405 0.762935 1.75646 0
M  V30 5354 H 517.71 -0.813791 3.83255 0
M  V30 5355 H 519.407 -0.453078 3.98432 0
M  V30 5356 H 515.997 0.967808 4.1753 0
M  V30 5357 H 520.181 1.84904 4.60569 0
M  V30 5358 H 515.437 3.0949 5.27282 0
M  V30 5359 H 519.611 3.97672 5.71691 0
M  V30 5360 H 517.238 4.60529 6.04828 0
M  V30 5361 N 518.813 -1.54241 0.323641 0
M  V30 5362 C 519.723 -2.28033 -0.551205 0
M  V30 5363 C 520.739 -1.32388 -1.12913 0
M  V30 5364 O 521.915 -1.65403 -1.14908 0
M  V30 5365 C 518.98 -3.02382 -1.69606 0
M  V30 5366 C 518.041 -4.13612 -1.14993 0
M  V30 5367 C 517.274 -4.84407 -2.24022 0
M  V30 5368 O 517.497 -4.54716 -3.44368 0
M  V30 5369 O 516.431 -5.71312 -1.89436 0
M  V30 5370 H 520.257 -3.03662 0.048066 0
M  V30 5371 H 517.842 -1.49133 0.0893289 0
M  V30 5372 H 519.724 -3.48941 -2.36259 0
M  V30 5373 H 518.399 -2.29628 -2.28151 0
M  V30 5374 H 517.306 -3.71402 -0.448484 0
M  V30 5375 H 518.639 -4.8841 -0.609608 0
M  V30 5376 N 520.291 -0.0518155 -1.57515 0
M  V30 5377 C 521.539 0.620595 -1.92336 0
M  V30 5378 C 521.86 1.71345 -0.930907 0
M  V30 5379 O 521.13 1.95885 0.0241341 0
M  V30 5380 H 519.71 0.232226 -0.709986 0
M  V30 5381 H 522.372 -0.104969 -1.94617 0
M  V30 5382 H 521.468 1.05879 -2.93592 0
M  V30 5383 N 521.769 1.56035 0.221574 0
M  V30 5384 C 522.719 1.8881 1.27807 0
M  V30 5385 C 523.703 0.751177 1.42289 0
M  V30 5386 O 524.895 1.01359 1.45104 0
M  V30 5387 C 522.024 2.20828 2.6285 0
M  V30 5388 C 521.11 3.40912 2.52269 0
M  V30 5389 N 521.501 4.59531 2.1134 0
M  V30 5390 C 519.799 3.44526 2.83228 0
M  V30 5391 C 520.5 5.41689 2.1201 0
M  V30 5392 N 519.476 4.814 2.52497 0
M  V30 5393 H 523.278 2.78036 0.952529 0
M  V30 5394 H 520.792 1.566 0.430134 0
M  V30 5395 H 522.789 2.42483 3.39127 0
M  V30 5396 H 521.449 1.32914 2.9625 0
M  V30 5397 H 522.46 4.8469 1.82472 0
M  V30 5398 H 519.137 2.66956 3.21 0
M  V30 5399 H 520.527 6.46643 1.82491 0
M  V30 5400 N 523.247 -0.488276 1.49845 0
M  V30 5401 C 524.18 -1.60651 1.62069 0
M  V30 5402 C 525.158 -1.5568 0.469308 0
M  V30 5403 O 526.342 -1.75553 0.686551 0
M  V30 5404 C 523.469 -2.99197 1.58741 0
M  V30 5405 C 522.515 -3.22385 2.79232 0
M  V30 5406 S 523.348 -3.04133 4.40753 0
M  V30 5407 C 524.504 -4.45052 4.4009 0
M  V30 5408 H 524.737 -1.50039 2.56662 0
M  V30 5409 H 522.27 -0.674371 1.38894 0
M  V30 5410 H 524.228 -3.79081 1.57506 0
M  V30 5411 H 522.889 -3.07213 0.654136 0
M  V30 5412 H 522.082 -4.23557 2.73159 0
M  V30 5413 H 521.684 -2.50245 2.77945 0
M  V30 5414 H 523.976 -5.37375 4.12594 0
M  V30 5415 H 524.919 -4.56172 5.41583 0
M  V30 5416 H 525.327 -4.26327 3.70008 0
M  V30 5417 N 524.725 -1.39134 -0.740242 0
M  V30 5418 C 525.655 -1.40165 -1.86751 0
M  V30 5419 C 526.636 -0.265708 -1.68012 0
M  V30 5420 O 527.821 -0.47076 -1.88408 0
M  V30 5421 C 524.951 -1.2392 -3.2444 0
M  V30 5422 C 523.905 -2.34858 -3.57807 0
M  V30 5423 C 523.231 -2.03707 -4.94376 0
M  V30 5424 C 524.531 -3.77159 -3.61315 0
M  V30 5425 H 526.225 -2.345 -1.86145 0
M  V30 5426 H 523.771 -1.12875 -0.89416 0
M  V30 5427 H 525.724 -1.23263 -4.02969 0
M  V30 5428 H 524.448 -0.26051 -3.25559 0
M  V30 5429 H 523.107 -2.34723 -2.81604 0
M  V30 5430 H 522.755 -1.04289 -4.9207 0
M  V30 5431 H 522.455 -2.78016 -5.17669 0
M  V30 5432 H 523.979 -2.04691 -5.75268 0
M  V30 5433 H 525.393 -3.79252 -4.29931 0
M  V30 5434 H 523.79 -4.50784 -3.96124 0
M  V30 5435 H 524.86 -4.08513 -2.61238 0
M  V30 5436 N 526.204 0.969867 -1.24223 0
M  V30 5437 C 527.134 2.08191 -1.05729 0
M  V30 5438 C 528.115 1.70075 0.0290765 0
M  V30 5439 O 529.3 1.93712 -0.137583 0
M  V30 5440 C 526.43 3.40991 -0.658995 0
M  V30 5441 C 525.384 3.93054 -1.69389 0
M  V30 5442 C 524.71 5.22171 -1.15072 0
M  V30 5443 C 526.01 4.21137 -3.08935 0
M  V30 5444 H 527.704 2.23921 -1.98746 0
M  V30 5445 H 525.25 1.07602 -0.956967 0
M  V30 5446 H 527.203 4.18221 -0.51662 0
M  V30 5447 H 525.927 3.25155 0.30686 0
M  V30 5448 H 524.586 3.17977 -1.82444 0
M  V30 5449 H 524.234 5.02694 -0.175539 0
M  V30 5450 H 523.934 5.57973 -1.84229 0
M  V30 5451 H 525.458 6.02013 -1.02042 0
M  V30 5452 H 526.872 4.8908 -2.99121 0
M  V30 5453 H 525.269 4.68163 -3.75425 0
M  V30 5454 H 526.339 3.27996 -3.57137 0
M  V30 5455 N 527.682 1.05563 1.17022 0
M  V30 5456 C 528.907 0.788437 1.91829 0
M  V30 5457 C 529.332 -0.650356 1.76499 0
M  V30 5458 O 528.69 -1.45229 1.08527 0
M  V30 5459 C 528.738 1.1786 3.40795 0
M  V30 5460 O 527.842 0.312965 4.11211 0
M  V30 5461 H 527.183 0.288794 0.597908 0
M  V30 5462 H 529.713 1.40948 1.48307 0
M  V30 5463 H 529.723 1.14697 3.91546 0
M  V30 5464 H 528.398 2.22666 3.51273 0
M  V30 5465 H 526.975 0.405515 3.70689 0
M  V30 5466 N 529.16 -1.33526 0.837174 0
M  V30 5467 C 530.408 -1.97446 0.431211 0
M  V30 5468 C 530.729 -1.6665 -1.01255 0
M  V30 5469 O 529.999 -0.964559 -1.70508 0
M  V30 5470 H 528.579 -0.73043 0.156463 0
M  V30 5471 H 531.241 -1.62918 1.06976 0
M  V30 5472 H 530.337 -3.07001 0.561877 0
M  V30 5473 N 530.638 -0.59345 -1.46 0
M  V30 5474 C 531.568 0.121192 -2.33185 0
M  V30 5475 C 532.549 0.872977 -1.4599 0
M  V30 5476 O 533.734 0.846321 -1.74789 0
M  V30 5477 C 530.864 1.12844 -3.28456 0
M  V30 5478 C 529.818 0.4908 -4.25177 0
M  V30 5479 C 529.144 1.60529 -5.10034 0
M  V30 5480 C 530.444 -0.578949 -5.19081 0
M  V30 5481 H 532.138 -0.606767 -2.93187 0
M  V30 5482 H 529.684 -0.293242 -1.40983 0
M  V30 5483 H 531.637 1.63684 -3.88311 0
M  V30 5484 H 530.361 1.88681 -2.66584 0
M  V30 5485 H 529.02 0.00339328 -3.666 0
M  V30 5486 H 528.668 2.35359 -4.44539 0
M  V30 5487 H 528.368 1.18422 -5.75543 0
M  V30 5488 H 529.892 2.11623 -5.72755 0
M  V30 5489 H 531.306 -0.155199 -5.7309 0
M  V30 5490 H 529.703 -0.920947 -5.92991 0
M  V30 5491 H 530.773 -1.46109 -4.62364 0
M  V30 5492 N 532.116 1.54067 -0.331816 0
M  V30 5493 C 533.026 2.28322 0.539104 0
M  V30 5494 C 534.042 1.32985 1.1221 0
M  V30 5495 O 535.218 1.6601 1.1403 0
M  V30 5496 C 532.283 3.03277 1.68 0
M  V30 5497 C 531.344 4.14216 1.12798 0
M  V30 5498 C 530.577 4.85588 2.2145 0
M  V30 5499 O 530.8 4.56536 3.41952 0
M  V30 5500 O 529.734 5.72309 1.86404 0
M  V30 5501 H 533.56 3.03632 -0.0641692 0
M  V30 5502 H 531.145 1.49083 -0.0972365 0
M  V30 5503 H 533.027 3.50189 2.34405 0
M  V30 5504 H 531.702 2.30834 2.2693 0
M  V30 5505 H 530.609 3.71635 0.428782 0
M  V30 5506 H 531.942 4.88727 0.583698 0
M  V30 5507 N 533.594 0.0601682 1.57485 0
M  V30 5508 C 535.005 -0.474217 1.80577 0
M  V30 5509 C 535.356 -1.70365 0.973147 0
M  V30 5510 O 534.481 -2.15544 0.192306 0
M  V30 5511 C 535.076 -0.867102 3.27516 0
M  V30 5512 C 533.635 -1.34642 3.51495 0
M  V30 5513 C 532.782 -0.32594 2.75378 0
M  V30 5514 H 535.733 0.285973 1.56102 0
M  V30 5515 H 535.754 -1.72938 3.38929 0
M  V30 5516 H 535.266 0.0278927 3.8809 0
M  V30 5517 H 533.367 -2.2603 2.96212 0
M  V30 5518 H 533.48 -1.33237 4.60201 0
M  V30 5519 H 531.844 -0.800749 2.41785 0
M  V30 5520 H 532.627 0.561125 3.38683 0
M  V30 5521 N 535.072 -1.5615 -0.213296 0
M  V30 5522 C 536.319 -1.79546 -0.936462 0
M  V30 5523 C 536.647 -0.630337 -1.84003 0
M  V30 5524 O 535.902 0.384883 -1.91878 0
M  V30 5525 C 536.201 -3.08772 -1.79985 0
M  V30 5526 C 535.867 -4.38532 -1.04882 0
M  V30 5527 C 534.529 -4.73787 -0.841393 0
M  V30 5528 C 536.881 -5.18609 -0.51907 0
M  V30 5529 C 534.209 -5.86627 -0.0924403 0
M  V30 5530 C 536.561 -6.32229 0.216581 0
M  V30 5531 C 535.225 -6.6608 0.435191 0
M  V30 5532 H 534.495 -0.657004 -0.342676 0
M  V30 5533 H 537.142 -1.9041 -0.204051 0
M  V30 5534 H 535.447 -2.93065 -2.60038 0
M  V30 5535 H 537.144 -3.24077 -2.36168 0
M  V30 5536 H 533.734 -4.10855 -1.22048 0
M  V30 5537 H 537.918 -4.91801 -0.666775 0
M  V30 5538 H 533.174 -6.11338 0.087081 0
M  V30 5539 H 537.348 -6.93503 0.634538 0
M  V30 5540 H 534.975 -7.5336 1.01746 0
M  V30 5541 N 536.55 0.480323 -1.50102 0
M  V30 5542 C 537.966 0.813295 -1.37323 0
M  V30 5543 C 538.166 1.97027 -0.422206 0
M  V30 5544 O 537.222 2.5212 0.138563 0
M  V30 5545 C 538.535 1.13404 -2.78496 0
M  V30 5546 C 540.083 1.24104 -2.87345 0
M  V30 5547 C 540.558 1.59497 -4.29331 0
M  V30 5548 N 542.049 1.66507 -4.32238 0
M  V30 5549 C 542.784 1.95378 -5.39087 0
M  V30 5550 N 542.28 2.22333 -6.56155 0
M  V30 5551 N 544.073 1.96803 -5.26522 0
M  V30 5552 H 536.224 -0.282291 -2.10516 0
M  V30 5553 H 538.487 -0.063752 -0.945854 0
M  V30 5554 H 538.193 0.357064 -3.49883 0
M  V30 5555 H 538.067 2.07251 -3.15162 0
M  V30 5556 H 540.454 2.00871 -2.16183 0
M  V30 5557 H 540.535 0.282593 -2.54234 0
M  V30 5558 H 540.179 0.832736 -5.01027 0
M  V30 5559 H 540.109 2.56477 -4.59921 0
M  V30 5560 H 542.6 1.47753 -3.47818 0
M  V30 5561 H 542.913 2.43611 -7.33399 0
M  V30 5562 H 541.258 2.19745 -6.59346 0
M  V30 5563 H 544.449 1.75235 -4.34062 0
M  V30 5564 H 544.622 2.18969 -6.09883 0
M  V30 5565 N 538.028 1.39524 0.732853 0
M  V30 5566 C 539.277 1.36175 1.48792 0
M  V30 5567 C 539.59 -0.0388195 1.95561 0
M  V30 5568 O 540.796 -0.194899 2.708 0
M  V30 5569 C 539.252 2.39242 2.68871 0
M  V30 5570 C 538.86 3.85024 2.29042 0
M  V30 5571 C 540.604 2.44972 3.46683 0
M  V30 5572 C 538.511 4.79727 3.45856 0
M  V30 5573 H 537.441 0.506267 0.558757 0
M  V30 5574 H 540.092 1.65181 0.799226 0
M  V30 5575 H 538.474 2.0331 3.39825 0
M  V30 5576 H 539.648 4.30008 1.6562 0
M  V30 5577 H 537.963 3.82609 1.64316 0
M  V30 5578 H 540.56 3.12918 4.33574 0
M  V30 5579 H 540.903 1.4749 3.89297 0
M  V30 5580 H 541.436 2.79808 2.82759 0
M  V30 5581 H 538.175 5.78479 3.08289 0
M  V30 5582 H 537.695 4.39421 4.08251 0
M  V30 5583 H 539.374 4.98731 4.12161 0
M  V30 5584 N 539.506 -0.963266 1.24736 0
M  V30 5585 C 540.754 -1.70343 1.08755 0
M  V30 5586 C 541.075 -1.91387 -0.373619 0
M  V30 5587 O 540.345 -1.4948 -1.2662 0
M  V30 5588 H 538.925 -0.631224 0.399456 0
M  V30 5589 H 541.587 -1.15859 1.56725 0
M  V30 5590 H 540.683 -2.68616 1.58909 0
M  V30 5591 N 540.985 -1.06182 -1.16461 0
M  V30 5592 C 542.396 -0.802426 -1.68576 0
M  V30 5593 C 542.747 0.67412 -1.84255 0
M  V30 5594 O 541.872 1.52303 -1.5373 0
M  V30 5595 C 542.467 -1.45002 -3.06202 0
M  V30 5596 C 541.026 -1.23843 -3.55443 0
M  V30 5597 C 540.173 -1.52724 -2.31454 0
M  V30 5598 H 543.124 -1.22545 -1.00839 0
M  V30 5599 H 543.145 -0.864731 -3.70544 0
M  V30 5600 H 542.657 -2.52466 -2.94759 0
M  V30 5601 H 540.758 -0.183487 -3.72148 0
M  V30 5602 H 540.871 -1.95036 -4.37604 0
M  V30 5603 H 539.235 -0.947726 -2.36411 0
M  V30 5604 H 540.018 -2.61343 -2.22609 0
M  V30 5605 N 542.463 1.3308 -0.844243 0
M  V30 5606 C 543.693 2.01515 -0.455541 0
M  V30 5607 C 544.101 1.63655 0.949406 0
M  V30 5608 O 543.444 0.84848 1.62931 0
M  V30 5609 C 543.506 3.55967 -0.502801 0
M  V30 5610 C 543.17 4.17222 -1.86481 0
M  V30 5611 C 544.167 4.36205 -2.8288 0
M  V30 5612 C 541.852 4.53528 -2.15911 0
M  V30 5613 C 543.846 4.90649 -4.06869 0
M  V30 5614 C 541.533 5.07679 -3.40155 0
M  V30 5615 C 542.531 5.26186 -4.35451 0
M  V30 5616 O 542.219 5.79183 -5.57496 0
M  V30 5617 H 541.951 0.65199 -0.178565 0
M  V30 5618 H 544.505 1.70867 -1.1399 0
M  V30 5619 H 542.735 3.85965 0.23836 0
M  V30 5620 H 544.424 4.05688 -0.131169 0
M  V30 5621 H 545.19 4.085 -2.61444 0
M  V30 5622 H 541.069 4.38414 -1.42528 0
M  V30 5623 H 544.613 5.0501 -4.81259 0
M  V30 5624 H 540.51 5.34815 -3.61446 0
M  V30 5625 H 541.278 5.97591 -5.5931 0
M  V30 5626 N 543.941 0.601185 1.45683 0
M  V30 5627 C 545.169 0.100054 2.06658 0
M  V30 5628 C 545.584 -1.21285 1.44691 0
M  V30 5629 O 544.941 -1.73735 0.558772 0
M  V30 5630 C 544.992 -0.0528579 3.61461 0
M  V30 5631 O 544.713 1.20809 4.21114 0
M  V30 5632 C 546.214 -0.586193 4.39407 0
M  V30 5633 H 543.434 0.065905 0.667756 0
M  V30 5634 H 545.978 0.827101 1.87028 0
M  V30 5635 H 544.133 -0.730203 3.80456 0
M  V30 5636 H 544.547 1.03368 5.14213 0
M  V30 5637 H 546.021 -0.642297 5.4825 0
M  V30 5638 H 546.498 -1.60713 4.0874 0
M  V30 5639 H 547.104 0.0568935 4.25262 0
M  V30 5640 N 545.419 -1.53889 0.339982 0
M  V30 5641 C 546.367 -2.26391 -0.533822 0
M  V30 5642 C 547.361 -1.28404 -1.10493 0
M  V30 5643 O 548.567 -1.46124 -1.05108 0
M  V30 5644 H 544.942 -0.727385 -0.190828 0
M  V30 5645 H 546.913 -2.98233 0.0997484 0
M  V30 5646 C 545.662 -3.04707 -1.67479 0
M  V30 5647 H 544.985 -3.79934 -1.2446 0
M  V30 5648 H 546.425 -3.58657 -2.26144 0
M  V30 5649 C 544.884 -2.13989 -2.60212 0
M  V30 5650 O 545.414 -1.73361 -3.62366 0
M  V30 5651 N 543.62 -1.79141 -2.28816 0
M  V30 5652 H 543.167 -2.12378 -1.45785 0
M  V30 5653 H 543.125 -1.18725 -2.91121 0
M  V30 5654 N 546.897 -0.0685191 -1.57451 0
M  V30 5655 C 548.144 0.601348 -1.93365 0
M  V30 5656 C 548.472 1.69816 -0.948294 0
M  V30 5657 O 547.727 1.95666 0.0366199 0
M  V30 5658 C 548.026 1.22051 -3.35914 0
M  V30 5659 C 547.692 0.250165 -4.50205 0
M  V30 5660 C 546.354 -0.0167954 -4.81197 0
M  V30 5661 C 548.706 -0.413867 -5.19554 0
M  V30 5662 C 546.034 -0.95493 -5.78876 0
M  V30 5663 C 548.386 -1.3403 -6.18238 0
M  V30 5664 C 547.05 -1.61576 -6.47649 0
M  V30 5665 H 546.32 0.220049 -0.707573 0
M  V30 5666 H 548.967 -0.138697 -1.90997 0
M  V30 5667 H 547.272 2.03622 -3.34732 0
M  V30 5668 H 548.969 1.74605 -3.6099 0
M  V30 5669 H 545.559 0.468421 -4.26033 0
M  V30 5670 H 549.743 -0.220733 -4.95809 0
M  V30 5671 H 544.999 -1.17563 -5.99991 0
M  V30 5672 H 549.173 -1.86081 -6.71079 0
M  V30 5673 H 546.8 -2.34431 -7.2315 0
M  V30 5674 N 548.375 1.56261 0.205012 0
M  V30 5675 C 549.621 1.80306 0.9283 0
M  V30 5676 C 549.954 0.640932 1.83319 0
M  V30 5677 O 549.229 -0.359032 1.91158 0
M  V30 5678 C 549.512 3.14547 1.75306 0
M  V30 5679 C 549.365 4.41236 0.873562 0
M  V30 5680 C 550.684 3.45382 2.72762 0
M  V30 5681 H 547.803 0.655929 0.336044 0
M  V30 5682 H 550.445 1.88984 0.196211 0
M  V30 5683 H 548.595 3.0728 2.37721 0
M  V30 5684 H 550.267 4.60539 0.264887 0
M  V30 5685 H 548.51 4.33427 0.179773 0
M  V30 5686 H 549.181 5.31639 1.48541 0
M  V30 5687 H 551.657 3.52884 2.20481 0
M  V30 5688 H 550.533 4.40449 3.2756 0
M  V30 5689 H 550.794 2.68377 3.51321 0
M  V30 5690 N 549.853 -0.472356 1.50355 0
M  V30 5691 C 550.801 -1.59126 1.69651 0
M  V30 5692 C 551.795 -1.59793 0.56237 0
M  V30 5693 O 553.001 -1.63957 0.742832 0
M  V30 5694 H 549.376 -0.528008 0.535454 0
M  V30 5695 H 551.347 -1.40013 2.63513 0
M  V30 5696 C 550.096 -2.97075 1.8067 0
M  V30 5697 H 549.419 -2.9728 2.67329 0
M  V30 5698 H 550.859 -3.74825 1.98197 0
M  V30 5699 C 549.318 -3.32247 0.558016 0
M  V30 5700 O 549.848 -4.00553 -0.303399 0
M  V30 5701 N 548.054 -2.87659 0.412415 0
M  V30 5702 H 547.601 -2.32246 1.11443 0
M  V30 5703 H 547.559 -3.11556 -0.421908 0
M  V30 5704 N 551.331 -1.39911 -0.725443 0
M  V30 5705 C 552.58 -1.36963 -1.48068 0
M  V30 5706 C 552.893 0.0284478 -1.95579 0
M  V30 5707 O 554.099 0.180535 -2.70899 0
M  V30 5708 C 552.555 -2.40664 -2.67598 0
M  V30 5709 C 552.163 -3.86234 -2.26997 0
M  V30 5710 C 553.907 -2.46807 -3.45379 0
M  V30 5711 C 551.814 -4.81554 -3.43307 0
M  V30 5712 H 550.744 -0.509223 -0.556065 0
M  V30 5713 H 553.395 -1.65602 -0.790454 0
M  V30 5714 H 551.777 -2.05109 -3.38742 0
M  V30 5715 H 552.951 -4.3088 -1.63337 0
M  V30 5716 H 551.266 -3.83475 -1.62284 0
M  V30 5717 H 553.863 -3.15213 -4.31909 0
M  V30 5718 H 554.206 -1.49552 -3.8851 0
M  V30 5719 H 554.739 -2.81303 -2.81271 0
M  V30 5720 H 551.478 -5.80106 -3.05217 0
M  V30 5721 H 550.998 -4.4158 -4.05915 0
M  V30 5722 H 552.677 -5.0091 -4.0951 0
M  V30 5723 N 552.809 0.956637 -1.25245 0
M  V30 5724 C 554.057 1.69764 -1.09657 0
M  V30 5725 C 554.378 1.91583 0.363464 0
M  V30 5726 O 553.648 1.50149 1.25825 0
M  V30 5727 H 552.228 0.629097 -0.402798 0
M  V30 5728 H 554.89 1.15026 -1.57337 0
M  V30 5729 H 553.986 2.67769 -1.60331 0
M  V30 5730 N 554.287 1.06798 1.15896 0
M  V30 5731 C 555.197 0.694564 2.24083 0
M  V30 5732 C 556.213 -0.291687 1.71538 0
M  V30 5733 O 557.389 -0.139723 2.00915 0
M  V30 5734 C 554.454 0.0921014 3.46578 0
M  V30 5735 C 553.515 1.13087 4.14137 0
M  V30 5736 C 552.748 0.557064 5.30785 0
M  V30 5737 O 552.971 -0.628623 5.66925 0
M  V30 5738 O 551.905 1.29924 5.8771 0
M  V30 5739 H 555.731 1.59663 2.58344 0
M  V30 5740 H 553.316 0.840575 1.2351 0
M  V30 5741 H 555.198 -0.241884 4.20705 0
M  V30 5742 H 553.873 -0.78337 3.14078 0
M  V30 5743 H 552.78 1.51712 3.41957 0
M  V30 5744 H 554.113 1.97805 4.50704 0
M  V30 5745 N 555.766 -1.3263 0.851289 0
M  V30 5746 C 557.182 -1.50162 0.5407 0
M  V30 5747 C 557.382 -1.78788 -0.929369 0
M  V30 5748 O 556.438 -1.85545 -1.71258 0
M  V30 5749 C 557.751 -2.64803 1.42478 0
M  V30 5750 C 559.299 -2.78688 1.42485 0
M  V30 5751 C 559.774 -3.96405 2.29407 0
M  V30 5752 N 561.265 -4.0366 2.27184 0
M  V30 5753 C 562 -4.93971 2.9117 0
M  V30 5754 N 561.496 -5.89313 3.64256 0
M  V30 5755 N 563.289 -4.87066 2.80576 0
M  V30 5756 H 555.44 -1.12315 1.80275 0
M  V30 5757 H 557.703 -0.553266 0.769806 0
M  V30 5758 H 557.409 -2.50368 2.46999 0
M  V30 5759 H 557.283 -3.60506 1.10974 0
M  V30 5760 H 559.67 -2.92547 0.387304 0
M  V30 5761 H 559.751 -1.83708 1.78002 0
M  V30 5762 H 559.395 -3.83304 3.33228 0
M  V30 5763 H 559.325 -4.90654 1.91224 0
M  V30 5764 H 561.816 -3.35435 1.74045 0
M  V30 5765 H 562.129 -6.54913 4.10255 0
M  V30 5766 H 560.474 -5.8935 3.68364 0
M  V30 5767 H 563.665 -4.11552 2.23031 0
M  V30 5768 H 563.838 -5.57248 3.30725 0
M  V30 5769 N 557.244 -0.608902 -1.45362 0
M  V30 5770 C 558.484 -0.10763 -2.04116 0
M  V30 5771 C 558.848 1.23883 -1.46686 0
M  V30 5772 O 560.049 1.83091 -1.96803 0
M  V30 5773 C 558.32 -0.0703351 -3.57331 0
M  V30 5774 S 559.879 0.369554 -4.37241 0
M  V30 5775 H 556.697 -0.0502123 -0.709225 0
M  V30 5776 H 559.299 -0.8073 -1.78053 0
M  V30 5777 H 558.003 -1.05379 -3.9664 0
M  V30 5778 H 557.534 0.651287 -3.87971 0
M  V30 5779 H 559.549 1.61878 -4.69052 0
M  V30 5780 N 558.722 1.53707 -0.348139 0
M  V30 5781 C 559.67 2.26671 0.521808 0
M  V30 5782 C 560.664 1.28988 1.09811 0
M  V30 5783 O 561.87 1.4668 1.04332 0
M  V30 5784 H 558.245 0.728387 0.186968 0
M  V30 5785 H 560.216 2.98176 -0.115563 0
M  V30 5786 C 558.965 3.05591 1.6586 0
M  V30 5787 H 558.288 3.80589 1.22443 0
M  V30 5788 H 559.728 3.59851 2.24239 0
M  V30 5789 C 558.187 2.15366 2.59073 0
M  V30 5790 O 558.717 1.7528 3.61441 0
M  V30 5791 N 556.923 1.80352 2.27863 0
M  V30 5792 H 556.47 2.13149 1.44656 0
M  V30 5793 H 556.428 1.20268 2.90488 0
M  V30 5794 N 560.2 0.0768682 1.57412 0
M  V30 5795 C 561.446 -0.591961 1.93968 0
M  V30 5796 C 561.779 -1.68954 0.9575 0
M  V30 5797 O 561.054 -1.94496 -0.0124675 0
M  V30 5798 C 561.337 -1.16418 3.40762 0
M  V30 5799 C 561.19 -0.0728933 4.49741 0
M  V30 5800 C 562.509 -2.06814 3.88479 0
M  V30 5801 H 559.628 -0.213716 0.705333 0
M  V30 5802 H 562.27 0.14387 1.89455 0
M  V30 5803 H 560.42 -1.79128 3.4474 0
M  V30 5804 H 562.092 0.560446 4.57883 0
M  V30 5805 H 560.335 0.595859 4.29688 0
M  V30 5806 H 561.006 -0.513755 5.49604 0
M  V30 5807 H 563.482 -1.54033 3.8654 0
M  V30 5808 H 562.358 -2.43785 4.91793 0
M  V30 5809 H 562.619 -2.97844 3.26713 0
M  V30 5810 N 561.678 -1.56367 -0.196722 0
M  V30 5811 C 562.641 -1.93561 -1.22746 0
M  V30 5812 C 563.641 -0.816566 -1.38524 0
M  V30 5813 O 564.831 -1.084 -1.36363 0
M  V30 5814 C 561.963 -2.20823 -2.59712 0
M  V30 5815 H 563.156 -2.85774 -0.909586 0
M  V30 5816 H 560.709 -1.50032 -0.438174 0
M  V30 5817 H 561.444 -1.31243 -2.96557 0
M  V30 5818 H 561.229 -3.02368 -2.49632 0
M  V30 5819 H 562.719 -2.50608 -3.34044 0
M  V30 5820 N 563.156 0.464375 -1.50603 0
M  V30 5821 C 564.404 1.21356 -1.61608 0
M  V30 5822 C 564.725 1.92329 -0.321643 0
M  V30 5823 O 563.995 1.84403 0.661232 0
M  V30 5824 H 562.575 0.45094 -0.595535 0
M  V30 5825 H 565.237 0.535046 -1.87412 0
M  V30 5826 H 564.333 1.95783 -2.43054 0
M  V30 5827 N 564.634 1.40294 0.718013 0
M  V30 5828 C 565.859 1.41941 1.5122 0
M  V30 5829 C 566.284 0.0202371 1.88089 0
M  V30 5830 O 565.642 -0.971078 1.53101 0
M  V30 5831 C 565.69 2.3141 2.76554 0
M  V30 5832 O 564.794 1.75567 3.73162 0
M  V30 5833 H 564.135 0.482644 0.456016 0
M  V30 5834 H 566.665 1.84494 0.884478 0
M  V30 5835 H 566.675 2.46513 3.25108 0
M  V30 5836 H 565.35 3.33085 2.49053 0
M  V30 5837 H 563.927 1.69798 3.31999 0
M  V30 5838 N 566.112 -0.949982 1.2575 0
M  V30 5839 C 567.528 -1.22191 1.02672 0
M  V30 5840 C 567.728 -1.99898 -0.253588 0
M  V30 5841 O 566.784 -2.33329 -0.965076 0
M  V30 5842 C 568.097 -1.99175 2.25277 0
M  V30 5843 C 569.645 -2.12201 2.30087 0
M  V30 5844 C 570.12 -2.92586 3.5236 0
M  V30 5845 N 571.611 -3.00163 3.52784 0
M  V30 5846 C 572.346 -3.62766 4.44059 0
M  V30 5847 N 571.842 -4.26943 5.45611 0
M  V30 5848 N 573.635 -3.59953 4.3173 0
M  V30 5849 H 565.786 -0.430258 2.07996 0
M  V30 5850 H 568.049 -0.252844 0.91366 0
M  V30 5851 H 567.755 -1.49479 3.18354 0
M  V30 5852 H 567.629 -2.99868 2.28821 0
M  V30 5853 H 570.016 -2.61093 1.3753 0
M  V30 5854 H 570.097 -1.10799 2.30559 0
M  V30 5855 H 569.741 -2.44383 4.45241 0
M  V30 5856 H 569.671 -3.94224 3.49134 0
M  V30 5857 H 572.162 -2.54529 2.79327 0
M  V30 5858 H 572.475 -4.72583 6.11461 0
M  V30 5859 H 570.82 -4.25557 5.49478 0
M  V30 5860 H 574.011 -3.09003 3.51617 0
M  V30 5861 H 574.184 -4.08455 5.03059 0
M  V30 5862 N 567.59 -1.07411 -1.15328 0
M  V30 5863 C 568.537 -0.694995 -2.20087 0
M  V30 5864 C 569.507 0.313904 -1.63107 0
M  V30 5865 O 570.692 0.200216 -1.89747 0
M  V30 5866 C 567.832 -0.0996218 -3.44956 0
M  V30 5867 C 566.945 -1.16007 -4.16133 0
M  V30 5868 C 566.08 -0.529636 -5.28553 0
M  V30 5869 C 565.119 -1.57283 -5.91548 0
M  V30 5870 N 564.256 -0.964932 -6.95438 0
M  V30 5871 H 569.096 -1.5927 -2.51867 0
M  V30 5872 H 566.633 -0.796115 -1.23695 0
M  V30 5873 H 568.591 0.263197 -4.16369 0
M  V30 5874 H 567.221 0.761435 -3.13691 0
M  V30 5875 H 566.273 -1.64045 -3.4321 0
M  V30 5876 H 567.585 -1.95101 -4.59061 0
M  V30 5877 H 566.739 -0.114487 -6.06592 0
M  V30 5878 H 565.478 0.29307 -4.86819 0
M  V30 5879 H 564.483 -1.99775 -5.12221 0
M  V30 5880 H 565.708 -2.39783 -6.35359 0
M  V30 5881 H 563.654 -0.16314 -6.55797 0
M  V30 5882 H 563.571 -1.69311 -7.36797 0
M  V30 5883 H 564.839 -0.575305 -7.77374 0
M  V30 5884 N 569.068 1.32177 -0.85831 0
M  V30 5885 C 570.315 1.97125 -0.463484 0
M  V30 5886 C 570.643 1.67907 0.981705 0
M  V30 5887 O 569.898 0.961717 1.70439 0
M  V30 5888 C 570.197 3.51372 -0.653658 0
M  V30 5889 C 569.863 4.00584 -2.06987 0
M  V30 5890 C 568.525 4.13733 -2.4572 0
M  V30 5891 C 570.877 4.26624 -2.99402 0
M  V30 5892 C 568.205 4.50268 -3.76132 0
M  V30 5893 C 570.557 4.64618 -4.29316 0
M  V30 5894 C 569.221 4.75975 -4.67979 0
M  V30 5895 H 568.491 0.72133 -0.169601 0
M  V30 5896 H 571.138 1.57517 -1.08907 0
M  V30 5897 H 569.443 3.91761 0.0551328 0
M  V30 5898 H 571.14 3.99655 -0.328163 0
M  V30 5899 H 567.73 3.90837 -1.75911 0
M  V30 5900 H 571.914 4.1597 -2.70708 0
M  V30 5901 H 567.17 4.57256 -4.05865 0
M  V30 5902 H 571.344 4.83722 -5.00985 0
M  V30 5903 H 568.971 5.04041 -5.69076 0
M  V30 5904 N 570.547 0.616602 1.45037 0
M  V30 5905 C 571.51 -0.0871112 2.29034 0
M  V30 5906 C 572.51 -0.786414 1.40258 0
M  V30 5907 O 573.7 -0.633207 1.62284 0
M  V30 5908 C 570.832 -1.13369 3.21497 0
M  V30 5909 H 572.025 0.651497 2.92738 0
M  V30 5910 H 569.578 0.376058 1.51709 0
M  V30 5911 H 570.313 -1.90277 2.62612 0
M  V30 5912 H 570.098 -0.636358 3.86902 0
M  V30 5913 H 571.588 -1.62627 3.84633 0
M  V30 5914 N 572.025 -1.5352 0.356285 0
M  V30 5915 C 572.972 -2.25439 -0.494569 0
M  V30 5916 C 573.942 -1.25752 -1.08516 0
M  V30 5917 O 575.127 -1.54513 -1.1194 0
M  V30 5918 C 572.267 -3.04011 -1.63313 0
M  V30 5919 C 571.38 -4.18574 -1.06862 0
M  V30 5920 C 570.515 -4.84607 -2.17552 0
M  V30 5921 C 569.554 -5.91218 -1.58518 0
M  V30 5922 N 568.691 -6.50979 -2.63003 0
M  V30 5923 H 573.531 -2.97737 0.125244 0
M  V30 5924 H 571.068 -1.46916 0.0735789 0
M  V30 5925 H 573.026 -3.47834 -2.30363 0
M  V30 5926 H 571.656 -2.33986 -2.22374 0
M  V30 5927 H 570.708 -3.79303 -0.288672 0
M  V30 5928 H 572.02 -4.95215 -0.596924 0
M  V30 5929 H 571.174 -5.31566 -2.92442 0
M  V30 5930 H 569.913 -4.07418 -2.6807 0
M  V30 5931 H 568.918 -5.4363 -0.821391 0
M  V30 5932 H 570.143 -6.70322 -1.08836 0
M  V30 5933 H 568.089 -5.76648 -3.12751 0
M  V30 5934 H 568.006 -7.23131 -2.20493 0
M  V30 5935 H 569.274 -7.02589 -3.37623 0
M  V30 5936 N 573.503 -0.0852151 -1.57369 0
M  V30 5937 C 574.433 0.874556 -2.16503 0
M  V30 5938 C 575.414 1.30111 -1.09568 0
M  V30 5939 O 576.599 1.36977 -1.37662 0
M  V30 5940 C 573.729 2.13731 -2.73745 0
M  V30 5941 C 572.683 1.84971 -3.85966 0
M  V30 5942 C 572.009 3.17991 -4.29867 0
M  V30 5943 C 573.309 1.14442 -5.09608 0
M  V30 5944 H 575.003 0.381899 -2.96954 0
M  V30 5945 H 572.549 0.18225 -1.42842 0
M  V30 5946 H 574.502 2.81302 -3.13763 0
M  V30 5947 H 573.226 2.65263 -1.90534 0
M  V30 5948 H 571.885 1.19801 -3.46473 0
M  V30 5949 H 571.533 3.6739 -3.4356 0
M  V30 5950 H 571.233 2.99534 -5.05523 0
M  V30 5951 H 572.757 3.86737 -4.72511 0
M  V30 5952 H 574.171 1.72105 -5.46857 0
M  V30 5953 H 572.568 1.06197 -5.90629 0
M  V30 5954 H 573.638 0.12559 -4.84737 0
M  V30 5955 N 574.981 1.5647 0.188427 0
M  V30 5956 C 576.23 1.80207 0.905995 0
M  V30 5957 C 576.543 0.659579 1.84144 0
M  V30 5958 O 577.749 0.781431 2.60011 0
M  V30 5959 C 576.205 3.19255 1.66145 0
M  V30 5960 C 575.813 4.41324 0.770504 0
M  V30 5961 C 577.557 3.52298 2.36826 0
M  V30 5962 C 575.464 5.71394 1.52521 0
M  V30 5963 H 574.394 0.671953 0.342045 0
M  V30 5964 H 577.045 1.82808 0.159164 0
M  V30 5965 H 575.427 3.10922 2.45242 0
M  V30 5966 H 576.601 4.60797 0.0177261 0
M  V30 5967 H 574.916 4.16035 0.174199 0
M  V30 5968 H 577.513 4.46715 2.93854 0
M  V30 5969 H 577.856 2.76359 3.11338 0
M  V30 5970 H 578.389 3.62108 1.6469 0
M  V30 5971 H 575.128 6.50316 0.82275 0
M  V30 5972 H 574.648 5.55928 2.25175 0
M  V30 5973 H 576.327 6.12747 2.07725 0
M  V30 5974 N 576.459 -0.456382 1.50847 0
M  V30 5975 C 577.392 -1.57177 1.65441 0
M  V30 5976 C 578.37 -1.54649 0.502224 0
M  V30 5977 O 579.554 -1.74057 0.723633 0
M  V30 5978 C 576.681 -2.95763 1.65052 0
M  V30 5979 C 575.727 -3.16389 2.86007 0
M  V30 5980 S 576.56 -2.94716 4.47105 0
M  V30 5981 C 577.716 -4.35617 4.49432 0
M  V30 5982 H 577.949 -1.44561 2.59787 0
M  V30 5983 H 575.482 -0.644758 1.40293 0
M  V30 5984 H 577.44 -3.75654 1.65512 0
M  V30 5985 H 576.101 -3.05756 0.719153 0
M  V30 5986 H 575.294 -4.17667 2.82081 0
M  V30 5987 H 574.896 -2.44293 2.8319 0
M  V30 5988 H 577.188 -5.28503 4.239 0
M  V30 5989 H 578.131 -4.44582 5.51137 0
M  V30 5990 H 578.539 -4.18382 3.78967 0
M  V30 5991 N 577.937 -1.40673 -0.710563 0
M  V30 5992 C 578.9 -1.4108 -1.80635 0
M  V30 5993 C 579.9 -0.303783 -1.57904 0
M  V30 5994 O 581.09 -0.562937 -1.64853 0
M  V30 5995 C 578.222 -1.20748 -3.18799 0
M  V30 5996 H 579.415 -2.38612 -1.81671 0
M  V30 5997 H 576.968 -1.26595 -0.916704 0
M  V30 5998 H 577.703 -0.239964 -3.23411 0
M  V30 5999 H 577.488 -2.00941 -3.36698 0
M  V30 6000 H 578.978 -1.23833 -3.98817 0
M  V30 6001 N 579.415 0.9433 -1.26252 0
M  V30 6002 C 580.663 1.68592 -1.11451 0
M  V30 6003 C 580.984 1.91957 0.343123 0
M  V30 6004 O 580.254 1.51475 1.24226 0
M  V30 6005 H 578.834 0.624789 -0.409448 0
M  V30 6006 H 581.496 1.13351 -1.58548 0
M  V30 6007 H 580.592 2.66054 -1.63162 0
M  V30 6008 N 580.893 1.08022 1.14757 0
M  V30 6009 C 581.841 0.701088 2.21783 0
M  V30 6010 C 582.835 -0.291311 1.66876 0
M  V30 6011 O 584.041 -0.154296 1.79337 0
M  V30 6012 H 580.416 0.208668 0.722469 0
M  V30 6013 H 582.387 1.61321 2.51034 0
M  V30 6014 C 581.136 0.122278 3.47485 0
M  V30 6015 H 580.459 0.877065 3.90061 0
M  V30 6016 H 581.899 -0.105248 4.23869 0
M  V30 6017 C 580.358 -1.13883 3.17068 0
M  V30 6018 O 580.888 -2.22429 3.34497 0
M  V30 6019 N 579.094 -1.04767 2.71058 0
M  V30 6020 H 578.641 -0.164302 2.57075 0
M  V30 6021 H 578.599 -1.89224 2.51081 0
M  V30 6022 N 582.371 -1.3172 0.865308 0
M  V30 6023 C 583.601 -2.00765 0.487543 0
M  V30 6024 C 584.009 -1.65145 -0.92325 0
M  V30 6025 O 583.352 -0.874294 -1.61561 0
M  V30 6026 C 583.414 -3.55122 0.559369 0
M  V30 6027 C 583.078 -4.14202 1.93095 0
M  V30 6028 C 584.075 -4.3165 2.89784 0
M  V30 6029 C 581.76 -4.50036 2.23099 0
M  V30 6030 C 583.754 -4.84114 4.14623 0
M  V30 6031 C 581.441 -5.02203 3.48189 0
M  V30 6032 C 582.439 -5.19192 4.43767 0
M  V30 6033 O 582.127 -5.70241 5.6664 0
M  V30 6034 H 581.859 -0.649066 0.188915 0
M  V30 6035 H 584.413 -1.69032 1.16694 0
M  V30 6036 H 582.643 -3.86295 -0.176926 0
M  V30 6037 H 584.332 -4.05428 0.195694 0
M  V30 6038 H 585.098 -4.04288 2.6791 0
M  V30 6039 H 580.977 -4.36091 1.49485 0
M  V30 6040 H 584.521 -4.9729 4.89233 0
M  V30 6041 H 580.418 -5.28997 3.69908 0
M  V30 6042 H 581.186 -5.88617 5.68746 0
M  V30 6043 N 583.85 -0.624285 -1.44708 0
M  V30 6044 C 584.76 0.0861083 -2.34442 0
M  V30 6045 C 585.776 0.84291 -1.5222 0
M  V30 6046 O 586.952 0.796723 -1.84971 0
M  V30 6047 C 584.017 1.05999 -3.30099 0
M  V30 6048 C 583.077 0.303316 -4.28227 0
M  V30 6049 C 582.311 1.23081 -5.19314 0
M  V30 6050 O 582.534 2.46929 -5.14181 0
M  V30 6051 O 581.468 0.71883 -5.97592 0
M  V30 6052 H 585.293 -0.651756 -2.96624 0
M  V30 6053 H 582.879 -0.384493 -1.44368 0
M  V30 6054 H 584.76 1.62046 -3.88997 0
M  V30 6055 H 583.436 1.77859 -2.70459 0
M  V30 6056 H 582.343 -0.300033 -3.72895 0
M  V30 6057 H 583.676 -0.375123 -4.90768 0
M  V30 6058 N 585.328 1.53329 -0.364422 0
M  V30 6059 C 586.238 2.29414 0.490552 0
M  V30 6060 C 587.254 1.35335 1.09363 0
M  V30 6061 O 588.43 1.68391 1.10483 0
M  V30 6062 C 585.495 3.06772 1.61529 0
M  V30 6063 C 584.556 4.16516 1.03986 0
M  V30 6064 C 583.789 4.90176 2.111 0
M  V30 6065 O 584.012 4.63687 3.32191 0
M  V30 6066 O 582.946 5.76134 1.74222 0
M  V30 6067 H 586.772 3.03428 -0.12856 0
M  V30 6068 H 584.357 1.48843 -0.128837 0
M  V30 6069 H 586.239 3.55082 2.26924 0
M  V30 6070 H 584.914 2.35596 2.21983 0
M  V30 6071 H 583.821 3.7246 0.349856 0
M  V30 6072 H 585.154 4.89855 0.4799 0
M  V30 6073 N 586.806 0.0935595 1.57322 0
M  V30 6074 C 587.769 -0.851426 2.12799 0
M  V30 6075 C 588.769 -1.21187 1.0569 0
M  V30 6076 O 589.959 -1.14156 1.31583 0
M  V30 6077 C 587.091 -2.14779 2.64731 0
M  V30 6078 H 588.284 -0.369733 2.97612 0
M  V30 6079 H 585.837 -0.155417 1.55525 0
M  V30 6080 H 586.572 -2.67437 1.83434 0
M  V30 6081 H 586.357 -1.89907 3.43042 0
M  V30 6082 H 587.847 -2.82383 3.07651 0
M  V30 6083 N 588.284 -1.56567 -0.180126 0
M  V30 6084 C 589.214 -1.98753 -1.22553 0
M  V30 6085 C 590.195 -0.86175 -1.46656 0
M  V30 6086 O 591.38 -1.12719 -1.58139 0
M  V30 6087 C 588.51 -2.33988 -2.56645 0
M  V30 6088 C 587.464 -3.49445 -2.47128 0
M  V30 6089 C 586.79 -3.70397 -3.8563 0
M  V30 6090 C 588.09 -4.83171 -1.98352 0
M  V30 6091 H 589.784 -2.86332 -0.874896 0
M  V30 6092 H 587.33 -1.37757 -0.419414 0
M  V30 6093 H 589.283 -2.62097 -3.29974 0
M  V30 6094 H 588.007 -1.43309 -2.93479 0
M  V30 6095 H 586.666 -3.2145 -1.76254 0
M  V30 6096 H 586.314 -2.77023 -4.19842 0
M  V30 6097 H 586.014 -4.48077 -3.80132 0
M  V30 6098 H 587.538 -4.00897 -4.60558 0
M  V30 6099 H 588.952 -5.10213 -2.61449 0
M  V30 6100 H 587.349 -5.64425 -2.03823 0
M  V30 6101 H 588.419 -4.75753 -0.937402 0
M  V30 6102 N 589.762 0.448376 -1.51087 0
M  V30 6103 C 591.002 1.20832 -1.64861 0
M  V30 6104 C 591.366 1.88748 -0.351873 0
M  V30 6105 O 592.567 2.66307 -0.365265 0
M  V30 6106 C 590.838 2.20674 -2.81137 0
M  V30 6107 S 592.397 3.05303 -3.15176 0
M  V30 6108 H 589.215 0.40992 -0.580936 0
M  V30 6109 H 591.817 0.501624 -1.88955 0
M  V30 6110 H 590.521 1.69399 -3.73808 0
M  V30 6111 H 590.052 2.9594 -2.59198 0
M  V30 6112 H 592.067 4.22162 -2.60756 0
M  V30 6113 N 591.24 1.41047 0.703093 0
M  V30 6114 C 592.486 1.40207 1.46526 0
M  V30 6115 C 592.819 0.00847763 1.94198 0
M  V30 6116 O 592.094 -0.962437 1.69019 0
M  V30 6117 C 592.377 2.40238 2.6825 0
M  V30 6118 C 592.23 3.88674 2.26391 0
M  V30 6119 C 593.549 2.37627 3.70434 0
M  V30 6120 H 590.668 0.510594 0.531472 0
M  V30 6121 H 593.31 1.72271 0.801422 0
M  V30 6122 H 591.46 2.13026 3.24888 0
M  V30 6123 H 593.132 4.2676 1.75138 0
M  V30 6124 H 591.375 4.03903 1.58255 0
M  V30 6125 H 592.046 4.542 3.13698 0
M  V30 6126 H 594.522 2.61759 3.23452 0
M  V30 6127 H 593.398 3.09645 4.53223 0
M  V30 6128 H 593.659 1.39223 4.19606 0
M  V30 6129 N 592.718 -0.936591 1.26751 0
M  V30 6130 C 593.681 -2.01752 1.08761 0
M  V30 6131 C 594.681 -1.60763 0.0344435 0
M  V30 6132 O 595.871 -1.71963 0.278258 0
M  V30 6133 C 593.003 -3.34543 0.655271 0
M  V30 6134 H 594.196 -2.19143 2.04735 0
M  V30 6135 H 591.749 -1.11618 1.09413 0
M  V30 6136 H 592.484 -3.22851 -0.30626 0
M  V30 6137 H 592.269 -3.65647 1.41578 0
M  V30 6138 H 593.759 -4.13944 0.551378 0
M  V30 6139 N 594.196 -1.08629 -1.14182 0
M  V30 6140 C 595.143 -0.718299 -2.19338 0
M  V30 6141 C 596.113 0.296587 -1.63431 0
M  V30 6142 O 597.298 0.180079 -1.89948 0
M  V30 6143 C 594.438 -0.136203 -3.44831 0
M  V30 6144 C 593.551 -1.20414 -4.14879 0
M  V30 6145 C 592.686 -0.585666 -5.27962 0
M  V30 6146 C 591.725 -1.63548 -5.89846 0
M  V30 6147 N 590.862 -1.03864 -6.94375 0
M  V30 6148 H 595.702 -1.61932 -2.50164 0
M  V30 6149 H 593.239 -0.80919 -1.22844 0
M  V30 6150 H 595.197 0.219021 -4.16625 0
M  V30 6151 H 593.827 0.728121 -3.14481 0
M  V30 6152 H 592.879 -1.67676 -3.41451 0
M  V30 6153 H 594.191 -1.99959 -4.56966 0
M  V30 6154 H 593.345 -0.178818 -6.06436 0
M  V30 6155 H 592.084 0.24142 -4.87102 0
M  V30 6156 H 591.089 -2.05197 -5.10073 0
M  V30 6157 H 592.314 -2.46509 -6.3278 0
M  V30 6158 H 590.26 -0.232687 -6.55587 0
M  V30 6159 H 590.177 -1.77116 -7.3496 0
M  V30 6160 H 591.445 -0.657724 -7.7672 0
M  V30 6161 N 595.674 1.31259 -0.872281 0
M  V30 6162 C 596.92 1.96913 -0.485083 0
M  V30 6163 C 597.253 1.68774 0.960667 0
M  V30 6164 O 596.528 0.985495 1.67685 0
M  V30 6165 C 596.811 3.52299 -0.745502 0
M  V30 6166 C 596.664 3.90002 -2.24095 0
M  V30 6167 C 597.983 4.39582 -0.213516 0
M  V30 6168 H 595.102 0.715252 -0.177716 0
M  V30 6169 H 597.744 1.55347 -1.09395 0
M  V30 6170 H 595.894 3.87835 -0.227276 0
M  V30 6171 H 597.566 3.64555 -2.82661 0
M  V30 6172 H 595.809 3.38526 -2.71261 0
M  V30 6173 H 596.48 4.98352 -2.37381 0
M  V30 6174 H 598.956 4.10882 -0.656902 0
M  V30 6175 H 597.832 5.47251 -0.42516 0
M  V30 6176 H 598.093 4.33158 0.884666 0
M  V30 6177 N 597.152 0.631951 1.44375 0
M  V30 6178 C 598.084 -0.110911 2.28931 0
M  V30 6179 C 599.097 -0.808086 1.41329 0
M  V30 6180 O 600.286 -0.669396 1.65473 0
M  V30 6181 C 597.386 -1.17928 3.1772 0
M  V30 6182 C 596.559 -0.564458 4.33743 0
M  V30 6183 C 595.618 -1.5269 5.0356 0
M  V30 6184 O 594.644 -1.04372 5.59549 0
M  V30 6185 N 595.846 -2.86123 5.05088 0
M  V30 6186 H 598.611 0.614758 2.93327 0
M  V30 6187 H 596.172 0.473171 1.54831 0
M  V30 6188 H 598.164 -1.82348 3.61291 0
M  V30 6189 H 596.734 -1.80717 2.55069 0
M  V30 6190 H 595.954 0.258373 3.93352 0
M  V30 6191 H 597.242 -0.134355 5.08623 0
M  V30 6192 H 596.64 -3.27959 4.60933 0
M  V30 6193 H 595.197 -3.45901 5.52445 0
M  V30 6194 N 598.631 -1.53133 0.372548 0
M  V30 6195 C 599.877 -2.01654 -0.215277 0
M  V30 6196 C 600.21 -1.25914 -1.47849 0
M  V30 6197 O 599.485 -0.3548 -1.91237 0
M  V30 6198 C 599.768 -3.56609 -0.500187 0
M  V30 6199 C 599.621 -4.43036 0.777145 0
M  V30 6200 C 600.94 -4.20528 -1.29786 0
M  V30 6201 H 598.059 -0.732991 -0.0767686 0
M  V30 6202 H 600.701 -1.83335 0.498814 0
M  V30 6203 H 598.851 -3.7235 -1.10852 0
M  V30 6204 H 600.523 -4.39079 1.41447 0
M  V30 6205 H 598.766 -4.10723 1.39604 0
M  V30 6206 H 599.437 -5.49424 0.532662 0
M  V30 6207 H 601.913 -4.08663 -0.783198 0
M  V30 6208 H 600.789 -5.28962 -1.46596 0
M  V30 6209 H 601.05 -3.77051 -2.30836 0
M  V30 6210 N 600.109 -0.101901 -1.5727 0
M  V30 6211 C 601.019 0.868647 -2.17926 0
M  V30 6212 C 602.035 1.30527 -1.1506 0
M  V30 6213 O 603.211 1.37178 -1.47459 0
M  V30 6214 C 600.276 2.10727 -2.75309 0
M  V30 6215 C 599.337 1.7242 -3.93154 0
M  V30 6216 C 598.57 2.90377 -4.47791 0
M  V30 6217 O 598.793 4.05305 -4.01353 0
M  V30 6218 O 597.727 2.6845 -5.38719 0
M  V30 6219 H 601.553 0.382544 -3.01281 0
M  V30 6220 H 599.138 0.122812 -1.48894 0
M  V30 6221 H 601.02 2.83303 -3.11958 0
M  V30 6222 H 599.695 2.58376 -1.94996 0
M  V30 6223 H 598.602 0.970039 -3.61305 0
M  V30 6224 H 599.935 1.29528 -4.74851 0
M  V30 6225 N 601.587 1.56661 0.17182 0
M  V30 6226 C 602.52 1.91474 1.24149 0
M  V30 6227 C 603.498 0.777485 1.42807 0
M  V30 6228 O 604.682 1.03075 1.57822 0
M  V30 6229 C 601.809 2.16523 2.60453 0
M  V30 6230 C 600.855 3.39209 2.58533 0
M  V30 6231 S 601.688 4.93594 2.07665 0
M  V30 6232 C 602.844 5.21737 3.45747 0
M  V30 6233 H 603.077 2.81903 0.944346 0
M  V30 6234 H 600.61 1.49743 0.376364 0
M  V30 6235 H 602.568 2.31635 3.38903 0
M  V30 6236 H 601.229 1.26802 2.87368 0
M  V30 6237 H 600.422 3.53935 3.58812 0
M  V30 6238 H 600.024 3.2321 1.88178 0
M  V30 6239 H 602.316 5.13684 4.41741 0
M  V30 6240 H 603.259 6.23361 3.35896 0
M  V30 6241 H 603.667 4.49307 3.41736 0
M  V30 6242 N 603.065 -0.440357 1.51323 0
M  V30 6243 C 604.313 -1.18769 1.63518 0
M  V30 6244 C 604.634 -1.91793 0.352201 0
M  V30 6245 O 603.904 -1.85432 -0.631811 0
M  V30 6246 H 602.484 -0.441408 0.602634 0
M  V30 6247 H 605.146 -0.505162 1.8824 0
M  V30 6248 H 604.242 -1.91892 2.46138 0
M  V30 6249 N 604.543 -1.41418 -0.695603 0
M  V30 6250 C 605.506 -1.42988 -1.79129 0
M  V30 6251 C 606.506 -0.320514 -1.57573 0
M  V30 6252 O 607.696 -0.58039 -1.64247 0
M  V30 6253 C 604.828 -1.24122 -3.175 0
M  V30 6254 H 606.021 -2.40526 -1.7913 0
M  V30 6255 H 603.574 -1.2756 -0.903225 0
M  V30 6256 H 604.309 -0.274253 -3.23138 0
M  V30 6257 H 604.094 -2.045 -3.34547 0
M  V30 6258 H 605.584 -1.28056 -3.97481 0
M  V30 6259 N 606.021 0.929856 -1.27246 0
M  V30 6260 C 606.953 2.03434 -1.0558 0
M  V30 6261 C 607.966 1.62795 -0.0125762 0
M  V30 6262 O 609.155 1.76685 -0.2539 0
M  V30 6263 C 606.255 3.33915 -0.57912 0
M  V30 6264 C 605.428 4.03259 -1.69415 0
M  V30 6265 C 604.487 5.12014 -1.21357 0
M  V30 6266 O 603.513 5.36097 -1.91282 0
M  V30 6267 N 604.715 5.8046 -0.0680622 0
M  V30 6268 H 607.48 2.22583 -2.00691 0
M  V30 6269 H 605.041 1.1001 -1.18783 0
M  V30 6270 H 607.033 4.03978 -0.241563 0
M  V30 6271 H 605.603 3.11355 0.278703 0
M  V30 6272 H 604.823 3.26958 -2.20209 0
M  V30 6273 H 606.111 4.46337 -2.44255 0
M  V30 6274 H 605.509 5.63345 0.515626 0
M  V30 6275 H 604.066 6.51461 0.210332 0
M  V30 6276 N 607.499 1.09233 1.13605 0
M  V30 6277 C 608.745 0.828385 1.8511 0
M  V30 6278 C 609.078 -0.64437 1.83198 0
M  V30 6279 O 608.353 -1.47428 1.26867 0
M  V30 6280 C 608.636 1.36167 3.33363 0
M  V30 6281 C 608.489 2.90038 3.438 0
M  V30 6282 C 609.808 0.993819 4.28732 0
M  V30 6283 H 606.927 0.30239 0.672108 0
M  V30 6284 H 609.569 1.35339 1.33355 0
M  V30 6285 H 607.719 0.9151 3.77569 0
M  V30 6286 H 609.391 3.43128 3.08319 0
M  V30 6287 H 607.634 3.27271 2.84739 0
M  V30 6288 H 608.305 3.22428 4.48045 0
M  V30 6289 H 610.781 1.37893 3.92587 0
M  V30 6290 H 609.657 1.39403 5.30903 0
M  V30 6291 H 609.918 -0.0982206 4.41991 0
M  V30 6292 N 608.977 -1.30795 0.87923 0
M  V30 6293 C 609.907 -2.30742 0.357796 0
M  V30 6294 C 610.888 -1.60747 -0.556283 0
M  V30 6295 O 612.073 -1.88393 -0.47135 0
M  V30 6296 C 609.203 -3.44583 -0.433555 0
M  V30 6297 C 608.157 -4.26235 0.388251 0
M  V30 6298 C 607.483 -5.32073 -0.529352 0
M  V30 6299 C 608.783 -4.96303 1.62729 0
M  V30 6300 H 610.477 -2.74605 1.19299 0
M  V30 6301 H 608.023 -1.32017 0.575104 0
M  V30 6302 H 609.976 -4.13563 -0.808934 0
M  V30 6303 H 608.7 -2.99511 -1.30234 0
M  V30 6304 H 607.359 -3.58936 0.745695 0
M  V30 6305 H 607.007 -4.83249 -1.39569 0
M  V30 6306 H 606.707 -5.87598 0.0166741 0
M  V30 6307 H 608.231 -6.0391 -0.901373 0
M  V30 6308 H 609.645 -5.5783 1.32283 0
M  V30 6309 H 608.042 -5.61666 2.11309 0
M  V30 6310 H 609.112 -4.22758 2.37494 0
M  V30 6311 N 610.455 -0.639598 -1.44038 0
M  V30 6312 C 611.732 -0.078012 -1.95444 0
M  V30 6313 C 612.112 1.39847 -1.58133 0
M  V30 6314 O 611.46 2.11714 -0.859614 0
M  V30 6315 C 611.67 -0.309832 -3.47622 0
M  V30 6316 C 613.018 -0.207521 -4.24093 0
M  V30 6317 O 614.042 -0.241653 -3.55379 0
M  V30 6318 O 612.901 -0.119641 -5.46369 0
M  V30 6319 H 609.995 0.0174534 -0.826816 0
M  V30 6320 H 612.541 -0.711891 -1.54046 0
M  V30 6321 H 611.313 -1.33401 -3.67858 0
M  V30 6322 H 610.936 0.357777 -3.95987 0
M  V30 6323 N 611.933 1.52934 -0.380664 0
M  V30 6324 C 613.179 2.01765 0.20458 0
M  V30 6325 C 613.512 1.26696 1.47179 0
M  V30 6326 O 612.787 0.364936 1.91046 0
M  V30 6327 C 613.07 3.56869 0.481269 0
M  V30 6328 C 612.923 4.42617 -0.800629 0
M  V30 6329 C 614.242 4.2121 1.27554 0
M  V30 6330 H 611.361 0.733388 0.0728803 0
M  V30 6331 H 614.003 1.83068 -0.50853 0
M  V30 6332 H 612.153 3.72932 1.08875 0
M  V30 6333 H 613.825 4.38323 -1.43773 0
M  V30 6334 H 612.068 4.09977 -1.4178 0
M  V30 6335 H 612.739 5.49134 -0.561791 0
M  V30 6336 H 615.215 4.09072 0.761514 0
M  V30 6337 H 614.091 5.29732 1.43788 0
M  V30 6338 H 614.352 3.78269 2.28833 0
M  V30 6339 N 613.412 0.11024 1.57214 0
M  V30 6340 C 614.36 -0.860586 2.16094 0
M  V30 6341 C 615.354 -1.28156 1.1078 0
M  V30 6342 O 616.56 -1.25433 1.29099 0
M  V30 6343 H 612.935 -0.295606 0.691463 0
M  V30 6344 H 614.906 -0.33942 2.96463 0
M  V30 6345 C 613.655 -2.10421 2.768 0
M  V30 6346 H 612.978 -1.7892 3.5753 0
M  V30 6347 H 614.418 -2.76375 3.21547 0
M  V30 6348 C 612.877 -2.88823 1.73444 0
M  V30 6349 O 613.407 -3.839 1.18251 0
M  V30 6350 N 611.613 -2.52649 1.43586 0
M  V30 6351 H 611.16 -1.754 1.8866 0
M  V30 6352 H 611.118 -3.05403 0.746735 0
M  V30 6353 N 614.89 -1.56749 -0.16351 0
M  V30 6354 C 615.823 -1.9213 -1.23132 0
M  V30 6355 C 616.801 -0.785047 -1.42393 0
M  V30 6356 O 617.985 -1.0391 -1.57273 0
M  V30 6357 C 615.112 -2.17901 -2.59301 0
M  V30 6358 C 614.158 -3.40576 -2.5673 0
M  V30 6359 S 614.991 -4.94689 -2.05045 0
M  V30 6360 C 616.147 -5.23564 -3.42975 0
M  V30 6361 H 616.38 -2.824 -0.929383 0
M  V30 6362 H 613.913 -1.4994 -0.368418 0
M  V30 6363 H 615.871 -2.33429 -3.3767 0
M  V30 6364 H 614.532 -1.28324 -2.86691 0
M  V30 6365 H 613.725 -3.55833 -3.5693 0
M  V30 6366 H 613.327 -3.24204 -1.86462 0
M  V30 6367 H 615.619 -5.16019 -4.3901 0
M  V30 6368 H 616.562 -6.25134 -3.32586 0
M  V30 6369 H 616.97 -4.51113 -3.39348 0
M  V30 6370 N 616.368 0.432326 -1.51554 0
M  V30 6371 C 617.645 1.19288 -1.55015 0
M  V30 6372 C 618.025 2.08701 -0.317375 0
M  V30 6373 O 617.373 2.17602 0.697243 0
M  V30 6374 C 617.583 1.99037 -2.86679 0
M  V30 6375 C 618.931 2.55907 -3.38817 0
M  V30 6376 O 619.955 2.09243 -2.88263 0
M  V30 6377 O 618.814 3.41029 -4.27038 0
M  V30 6378 H 615.908 0.543369 -0.623441 0
M  V30 6379 H 618.454 0.440988 -1.6387 0
M  V30 6380 H 617.226 1.33397 -3.6786 0
M  V30 6381 H 616.849 2.81281 -2.8101 0
M  V30 6382 N 617.846 1.41785 0.688094 0
M  V30 6383 C 619.123 1.32031 1.44316 0
M  V30 6384 C 619.503 -0.0486079 2.11044 0
M  V30 6385 O 618.851 -1.06332 2.02252 0
M  V30 6386 C 619.061 2.47906 2.45649 0
M  V30 6387 C 620.409 2.89415 3.10683 0
M  V30 6388 O 621.433 2.477 2.55975 0
M  V30 6389 O 620.292 3.61573 4.09789 0
M  V30 6390 H 617.386 0.519994 0.643067 0
M  V30 6391 H 619.932 1.53765 0.71794 0
M  V30 6392 H 618.704 3.39222 1.95048 0
M  V30 6393 H 618.327 2.28089 3.25671 0
M  V30 6394 N 619.324 -0.923095 1.27737 0
M  V30 6395 C 620.572 -1.66797 1.14119 0
M  V30 6396 C 620.893 -1.92479 -0.312541 0
M  V30 6397 O 620.163 -1.53432 -1.218 0
M  V30 6398 H 618.743 -0.618196 0.419336 0
M  V30 6399 H 621.405 -1.10815 1.60331 0
M  V30 6400 H 620.501 -2.63424 1.67374 0
M  V30 6401 N 620.802 -1.09834 -1.13024 0
M  V30 6402 C 621.735 -0.685453 -2.17662 0
M  V30 6403 C 622.713 0.310142 -1.59615 0
M  V30 6404 O 623.897 0.21052 -1.87321 0
M  V30 6405 C 621.024 -0.0104476 -3.38698 0
M  V30 6406 C 620.07 -0.968522 -4.15358 0
M  V30 6407 S 620.903 -2.48272 -4.74469 0
M  V30 6408 C 622.059 -1.82025 -5.98847 0
M  V30 6409 H 622.292 -1.57187 -2.52348 0
M  V30 6410 H 619.825 -0.914728 -1.24387 0
M  V30 6411 H 621.783 0.372694 -4.08805 0
M  V30 6412 H 620.444 0.852673 -3.02305 0
M  V30 6413 H 619.637 -0.443373 -5.02046 0
M  V30 6414 H 619.239 -1.29327 -3.50928 0
M  V30 6415 H 621.531 -1.14678 -6.67724 0
M  V30 6416 H 622.474 -2.66645 -6.55977 0
M  V30 6417 H 622.882 -1.2874 -5.49624 0
M  V30 6418 N 622.28 1.30327 -0.886154 0
M  V30 6419 C 623.21 2.30549 -0.370028 0
M  V30 6420 C 624.191 1.61039 0.547751 0
M  V30 6421 O 625.376 1.8864 0.461353 0
M  V30 6422 C 622.506 3.44808 0.415275 0
M  V30 6423 C 621.46 4.26024 -0.41085 0
M  V30 6424 C 620.786 5.32347 0.501128 0
M  V30 6425 C 622.086 4.95433 -1.65359 0
M  V30 6426 H 623.78 2.73969 -1.20754 0
M  V30 6427 H 621.326 1.3171 -0.582097 0
M  V30 6428 H 623.279 4.13986 0.78699 0
M  V30 6429 H 622.003 3.00197 1.28644 0
M  V30 6430 H 620.662 3.58535 -0.764719 0
M  V30 6431 H 620.31 4.83982 1.37004 0
M  V30 6432 H 620.01 5.87581 -0.0478356 0
M  V30 6433 H 621.534 6.0438 0.869333 0
M  V30 6434 H 622.948 5.5712 -1.35239 0
M  V30 6435 H 621.345 5.60537 -2.14284 0
M  V30 6436 H 622.415 4.21493 -2.39733 0
M  V30 6437 N 623.758 0.647228 1.43697 0
M  V30 6438 C 625.035 0.0883758 1.954 0
M  V30 6439 C 625.415 -1.39006 1.58873 0
M  V30 6440 O 624.763 -2.11255 0.87083 0
M  V30 6441 C 624.973 0.328263 3.47453 0
M  V30 6442 C 626.321 0.230009 4.23977 0
M  V30 6443 O 627.345 0.260496 3.55246 0
M  V30 6444 O 626.204 0.148615 5.46298 0
M  V30 6445 H 623.298 -0.0130683 0.826897 0
M  V30 6446 H 625.844 0.72005 1.53666 0
M  V30 6447 H 624.616 1.3535 3.67146 0
M  V30 6448 H 624.239 -0.336772 3.96171 0
M  V30 6449 N 625.236 -1.5273 0.388769 0
M  V30 6450 C 626.484 -2.01174 -0.193208 0
M  V30 6451 C 626.805 -1.27705 -1.47365 0
M  V30 6452 O 626.075 -0.396966 -1.91836 0
M  V30 6453 H 624.655 -0.743287 -0.0743871 0
M  V30 6454 H 627.317 -1.87826 0.520336 0
M  V30 6455 H 626.413 -3.09477 -0.403803 0
M  V30 6456 N 626.714 -0.118576 -1.57153 0
M  V30 6457 C 628.125 0.40687 -1.82213 0
M  V30 6458 C 628.476 1.66636 -1.03571 0
M  V30 6459 O 627.601 2.14682 -0.272171 0
M  V30 6460 C 628.196 0.744949 -3.30509 0
M  V30 6461 C 626.755 1.21503 -3.5625 0
M  V30 6462 C 625.902 0.223511 -2.76398 0
M  V30 6463 H 628.853 -0.343712 -1.54933 0
M  V30 6464 H 628.874 1.6024 -3.45114 0
M  V30 6465 H 628.386 -0.171911 -3.87719 0
M  V30 6466 H 626.487 2.1488 -3.04396 0
M  V30 6467 H 626.6 1.16065 -4.64829 0
M  V30 6468 H 624.964 0.71046 -2.44591 0
M  V30 6469 H 625.747 -0.686439 -3.36367 0
M  V30 6470 N 628.193 1.56834 0.155195 0
M  V30 6471 C 629.418 1.87412 0.888337 0
M  V30 6472 C 629.843 0.70671 1.74319 0
M  V30 6473 O 629.201 -0.343892 1.78009 0
M  V30 6474 C 629.249 3.1652 1.72765 0
M  V30 6475 O 628.353 2.99877 2.83103 0
M  V30 6476 H 627.694 0.615983 0.247914 0
M  V30 6477 H 630.224 2.04061 0.148478 0
M  V30 6478 H 630.234 3.48334 2.12433 0
M  V30 6479 H 628.909 4.01094 1.09985 0
M  V30 6480 H 627.486 2.79453 2.46902 0
M  V30 6481 N 629.671 -0.424282 1.51781 0
M  V30 6482 C 630.634 -1.49848 1.73431 0
M  V30 6483 C 631.634 -1.49016 0.604225 0
M  V30 6484 O 632.824 -1.50808 0.871935 0
M  V30 6485 C 629.956 -2.89332 1.80277 0
M  V30 6486 H 631.149 -1.3195 2.69312 0
M  V30 6487 H 628.702 -0.653809 1.41968 0
M  V30 6488 H 629.437 -3.12618 0.862568 0
M  V30 6489 H 629.222 -2.9134 2.62419 0
M  V30 6490 H 630.712 -3.67233 1.98821 0
M  V30 6491 N 631.149 -1.42148 -0.680565 0
M  V30 6492 C 632.082 -1.39602 -1.80517 0
M  V30 6493 C 633.06 -0.261098 -1.6049 0
M  V30 6494 O 634.244 -0.450404 -1.8304 0
M  V30 6495 C 631.371 -1.18134 -3.1743 0
M  V30 6496 C 630.417 -2.34543 -3.56219 0
M  V30 6497 S 631.25 -3.97063 -3.59306 0
M  V30 6498 C 632.406 -3.77926 -4.98921 0
M  V30 6499 H 632.639 -2.3477 -1.82402 0
M  V30 6500 H 630.172 -1.28851 -0.850691 0
M  V30 6501 H 632.13 -1.06434 -3.96462 0
M  V30 6502 H 630.791 -0.245611 -3.13138 0
M  V30 6503 H 629.984 -2.15255 -4.55721 0
M  V30 6504 H 629.586 -2.42728 -2.84533 0
M  V30 6505 H 631.878 -3.3856 -5.86842 0
M  V30 6506 H 632.821 -4.77084 -5.23256 0
M  V30 6507 H 633.229 -3.10904 -4.71167 0
M  V30 6508 N 632.627 0.916307 -1.28225 0
M  V30 6509 C 633.855 1.69901 -1.18073 0
M  V30 6510 C 634.27 1.86988 0.260968 0
M  V30 6511 O 633.627 1.39505 1.17663 0
M  V30 6512 C 633.678 3.09254 -1.87201 0
M  V30 6513 O 633.399 2.92959 -3.2574 0
M  V30 6514 C 634.9 4.0362 -1.83319 0
M  V30 6515 H 632.12 0.531181 -0.409985 0
M  V30 6516 H 634.664 1.14703 -1.69303 0
M  V30 6517 H 632.819 3.61277 -1.39848 0
M  V30 6518 H 633.233 3.81139 -3.60324 0
M  V30 6519 H 634.707 4.98873 -2.36282 0
M  V30 6520 H 635.184 4.3176 -0.805007 0
M  V30 6521 H 635.79 3.57524 -2.3034 0
M  V30 6522 N 634.105 1.10431 1.1244 0
M  V30 6523 C 635.521 0.836096 1.35947 0
M  V30 6524 C 635.721 -0.544475 1.94004 0
M  V30 6525 O 634.777 -1.29735 2.16622 0
M  V30 6526 C 636.09 1.93575 2.30107 0
M  V30 6527 C 637.638 1.9642 2.43697 0
M  V30 6528 C 638.113 3.05559 3.41171 0
M  V30 6529 N 639.604 3.04865 3.48728 0
M  V30 6530 C 640.339 3.85954 4.24061 0
M  V30 6531 N 639.835 4.76977 5.02458 0
M  V30 6532 N 641.628 3.74172 4.19466 0
M  V30 6533 H 633.779 1.9942 0.731124 0
M  V30 6534 H 636.042 0.866607 0.384312 0
M  V30 6535 H 635.748 2.92943 1.94621 0
M  V30 6536 H 635.622 1.8229 3.30227 0
M  V30 6537 H 638.009 0.97685 2.78463 0
M  V30 6538 H 638.09 2.11782 1.43465 0
M  V30 6539 H 637.734 4.04513 3.07135 0
M  V30 6540 H 637.664 2.87438 4.41234 0
M  V30 6541 H 640.155 2.38908 2.92799 0
M  V30 6542 H 640.468 5.35409 5.57277 0
M  V30 6543 H 638.813 4.81006 5.01655 0
M  V30 6544 H 642.004 3.02412 3.57302 0
M  V30 6545 H 642.177 4.37602 4.77921 0
M  V30 6546 N 635.583 -1.29855 0.893053 0
M  V30 6547 C 636.83 -1.95826 0.515585 0
M  V30 6548 C 637.158 -1.70451 -0.936842 0
M  V30 6549 O 636.413 -1.00657 -1.67829 0
M  V30 6550 C 636.712 -3.49515 0.746588 0
M  V30 6551 C 636.378 -3.94955 2.17535 0
M  V30 6552 C 635.04 -4.07073 2.56603 0
M  V30 6553 C 637.392 -4.18536 3.10607 0
M  V30 6554 C 634.72 -4.40138 3.87938 0
M  V30 6555 C 637.072 -4.53073 4.41484 0
M  V30 6556 C 635.736 -4.634 4.80434 0
M  V30 6557 H 635.006 -0.71658 0.188666 0
M  V30 6558 H 637.653 -1.54574 1.13045 0
M  V30 6559 H 635.958 -3.9177 0.0487551 0
M  V30 6560 H 637.655 -3.98644 0.434009 0
M  V30 6561 H 634.245 -3.86035 1.86212 0
M  V30 6562 H 638.429 -4.08646 2.81641 0
M  V30 6563 H 633.685 -4.46335 4.17846 0
M  V30 6564 H 637.859 -4.70269 5.13634 0
M  V30 6565 H 635.486 -4.88775 5.82239 0
M  V30 6566 N 637.061 -0.65484 -1.43351 0
M  V30 6567 C 638.301 -0.172514 -2.03671 0
M  V30 6568 C 638.665 1.19154 -1.50553 0
M  V30 6569 O 639.866 1.76737 -2.02528 0
M  V30 6570 C 638.137 -0.183982 -3.56926 0
M  V30 6571 S 639.696 0.230262 -4.38195 0
M  V30 6572 H 636.514 -0.0727503 -0.707268 0
M  V30 6573 H 639.116 -0.863537 -1.75395 0
M  V30 6574 H 637.82 -1.17945 -3.93087 0
M  V30 6575 H 637.351 0.527527 -3.89847 0
M  V30 6576 H 639.366 1.46874 -4.73965 0
M  V30 6577 N 638.539 1.52521 -0.396863 0
M  V30 6578 C 639.487 2.28217 0.44943 0
M  V30 6579 C 640.481 1.32416 1.05652 0
M  V30 6580 O 641.687 1.49925 0.996124 0
M  V30 6581 H 638.062 0.733966 0.1637 0
M  V30 6582 H 640.033 2.97658 -0.210367 0
M  V30 6583 C 638.782 3.10713 1.56054 0
M  V30 6584 H 638.105 3.84291 1.10273 0
M  V30 6585 H 639.545 3.66803 2.12677 0
M  V30 6586 C 638.004 2.23499 2.52091 0
M  V30 6587 O 638.534 1.8669 3.55682 0
M  V30 6588 N 636.74 1.8751 2.2201 0
M  V30 6589 H 636.287 2.17643 1.37802 0
M  V30 6590 H 636.245 1.29448 2.86514 0
M  V30 6591 N 640.017 0.126909 1.57088 0
M  V30 6592 C 640.947 -0.816847 2.18746 0
M  V30 6593 C 641.928 -1.27161 1.12979 0
M  V30 6594 O 643.113 -1.33279 1.41246 0
M  V30 6595 C 640.243 -2.06398 2.79315 0
M  V30 6596 C 639.197 -1.74673 3.90735 0
M  V30 6597 C 638.523 -3.06482 4.38147 0
M  V30 6598 C 639.823 -1.0089 5.12463 0
M  V30 6599 H 641.517 -0.303032 2.97863 0
M  V30 6600 H 639.063 -0.144314 1.43275 0
M  V30 6601 H 641.016 -2.72885 3.2111 0
M  V30 6602 H 639.74 -2.60118 1.975 0
M  V30 6603 H 638.399 -1.10572 3.49527 0
M  V30 6604 H 638.047 -3.58152 3.5318 0
M  V30 6605 H 637.747 -2.86025 5.13287 0
M  V30 6606 H 639.271 -3.74073 4.82599 0
M  V30 6607 H 640.685 -1.57546 5.51228 0
M  V30 6608 H 639.082 -0.905006 5.93237 0
M  V30 6609 H 640.152 0.00297335 4.849 0
M  V30 6610 N 641.495 -1.56914 -0.146875 0
M  V30 6611 C 642.744 -1.82546 -0.857898 0
M  V30 6612 C 643.057 -0.708169 -1.8233 0
M  V30 6613 O 644.263 -0.850093 -2.57848 0
M  V30 6614 C 642.719 -3.23548 -1.57623 0
M  V30 6615 C 642.327 -4.43212 -0.653224 0
M  V30 6616 C 644.071 -3.58453 -2.27402 0
M  V30 6617 C 641.978 -5.75237 -1.37318 0
M  V30 6618 H 640.908 -0.680786 -0.32411 0
M  V30 6619 H 643.559 -1.83166 -0.110639 0
M  V30 6620 H 641.941 -3.17315 -2.36912 0
M  V30 6621 H 643.115 -4.60682 0.104452 0
M  V30 6622 H 641.43 -4.16351 -0.0638336 0
M  V30 6623 H 644.027 -4.54349 -2.81907 0
M  V30 6624 H 644.37 -2.84516 -3.03901 0
M  V30 6625 H 644.903 -3.66347 -1.55032 0
M  V30 6626 H 641.642 -6.52269 -0.650041 0
M  V30 6627 H 641.162 -5.61703 -2.10357 0
M  V30 6628 H 642.841 -6.18039 -1.91406 0
M  V30 6629 N 642.974 0.416227 -1.52004 0
M  V30 6630 C 643.937 1.48926 -1.74223 0
M  V30 6631 C 644.937 1.48693 -0.612119 0
M  V30 6632 O 646.127 1.50343 -0.879921 0
M  V30 6633 C 643.259 2.88372 -1.81809 0
M  V30 6634 H 644.452 1.3052 -2.70008 0
M  V30 6635 H 642.005 0.646271 -1.42313 0
M  V30 6636 H 642.74 3.12157 -0.879135 0
M  V30 6637 H 642.525 2.89944 -2.6396 0
M  V30 6638 H 644.015 3.66173 -2.00766 0
M  V30 6639 N 644.452 1.42507 0.673017 0
M  V30 6640 C 645.677 1.4668 1.46627 0
M  V30 6641 C 646.102 0.080066 1.8793 0
M  V30 6642 O 645.46 -0.921879 1.56112 0
M  V30 6643 C 645.508 2.40091 2.69051 0
M  V30 6644 O 644.612 1.8735 3.67387 0
M  V30 6645 H 643.953 0.496908 0.44043 0
M  V30 6646 H 646.483 1.87215 0.825334 0
M  V30 6647 H 646.493 2.56731 3.17101 0
M  V30 6648 H 645.168 3.4084 2.3833 0
M  V30 6649 H 643.745 1.80274 3.26429 0
M  V30 6650 N 645.93 -0.909495 1.28709 0
M  V30 6651 C 646.84 -2.04558 1.14861 0
M  V30 6652 C 647.856 -1.73842 0.0741621 0
M  V30 6653 O 649.032 -1.99383 0.2843 0
M  V30 6654 C 646.097 -3.36957 0.816148 0
M  V30 6655 C 645.158 -3.81255 1.97341 0
M  V30 6656 C 644.391 -5.07335 1.65671 0
M  V30 6657 O 644.614 -5.67514 0.573053 0
M  V30 6658 O 643.548 -5.47449 2.50167 0
M  V30 6659 H 647.374 -2.19161 2.10243 0
M  V30 6660 H 644.959 -1.03159 1.08068 0
M  V30 6661 H 646.841 -4.16436 0.644873 0
M  V30 6662 H 645.516 -3.2352 -0.107983 0
M  V30 6663 H 644.423 -3.02584 2.19986 0
M  V30 6664 H 645.756 -3.99261 2.87839 0
M  V30 6665 N 647.408 -1.11026 -1.11852 0
M  V30 6666 C 648.819 -0.873203 -1.65021 0
M  V30 6667 C 649.17 0.595364 -1.86949 0
M  V30 6668 O 648.295 1.45645 -1.60051 0
M  V30 6669 C 648.89 -1.57859 -2.99777 0
M  V30 6670 C 647.449 -1.38807 -3.49871 0
M  V30 6671 C 646.596 -1.62403 -2.24768 0
M  V30 6672 H 649.547 -1.26712 -0.955503 0
M  V30 6673 H 649.568 -1.02111 -3.66543 0
M  V30 6674 H 649.08 -2.6474 -2.83786 0
M  V30 6675 H 647.181 -0.341163 -3.71035 0
M  V30 6676 H 647.294 -2.13421 -4.28938 0
M  V30 6677 H 645.658 -1.04714 -2.32179 0
M  V30 6678 H 646.441 -2.70549 -2.11324 0
M  V30 6679 N 648.886 1.2938 -0.899927 0
M  V30 6680 C 650.163 1.9046 -0.445443 0
M  V30 6681 C 650.543 1.81683 1.07492 0
M  V30 6682 O 649.891 1.24371 1.91688 0
M  V30 6683 C 650.101 3.35529 -0.960279 0
M  V30 6684 C 651.449 4.12556 -1.00412 0
M  V30 6685 O 652.473 3.44434 -0.907965 0
M  V30 6686 O 651.332 5.34294 -1.14857 0
M  V30 6687 H 648.426 0.815253 -0.138893 0
M  V30 6688 H 650.972 1.37844 -0.989808 0
M  V30 6689 H 649.744 3.36074 -2.00425 0
M  V30 6690 H 649.367 3.95624 -0.395939 0
M  V30 6691 N 650.364 0.662433 1.43002 0
M  V30 6692 C 651.613 0.176873 2.00923 0
M  V30 6693 C 651.926 -1.21954 1.52927 0
M  V30 6694 O 653.132 -1.80081 2.03182 0
M  V30 6695 C 651.588 0.265379 3.5892 0
M  V30 6696 C 651.196 1.66507 4.15908 0
M  V30 6697 C 652.94 -0.162103 4.2419 0
M  V30 6698 C 650.847 1.707 5.66229 0
M  V30 6699 H 649.777 0.0623627 0.751417 0
M  V30 6700 H 652.428 0.825813 1.63868 0
M  V30 6701 H 650.81 -0.451235 3.93421 0
M  V30 6702 H 651.984 2.40777 3.92891 0
M  V30 6703 H 650.299 2.03932 3.63044 0
M  V30 6704 H 652.896 -0.150745 5.34487 0
M  V30 6705 H 653.239 -1.19519 3.98774 0
M  V30 6706 H 653.772 0.503075 3.94606 0
M  V30 6707 H 650.511 2.7195 5.96426 0
M  V30 6708 H 650.031 1.00768 5.91275 0
M  V30 6709 H 651.71 1.45487 6.3043 0
M  V30 6710 N 651.842 -1.52309 0.404946 0
M  V30 6711 C 652.805 -2.25491 -0.410651 0
M  V30 6712 C 653.805 -1.27704 -0.977154 0
M  V30 6713 O 654.995 -1.51679 -0.856691 0
M  V30 6714 C 652.127 -3.02197 -1.57765 0
M  V30 6715 H 653.32 -2.99015 0.230277 0
M  V30 6716 H 650.873 -1.55506 0.157377 0
M  V30 6717 H 651.608 -2.33013 -2.25556 0
M  V30 6718 H 651.393 -3.73987 -1.17797 0
M  V30 6719 H 652.883 -3.57719 -2.15469 0
M  V30 6720 N 653.32 -0.135238 -1.57019 0
M  V30 6721 C 654.267 0.808908 -2.1616 0
M  V30 6722 C 655.237 1.25234 -1.09113 0
M  V30 6723 O 656.422 1.32697 -1.37099 0
M  V30 6724 C 653.562 2.04729 -2.77813 0
M  V30 6725 C 652.675 1.65074 -3.99218 0
M  V30 6726 C 651.81 2.84002 -4.48906 0
M  V30 6727 C 650.849 2.40663 -5.62803 0
M  V30 6728 N 649.986 3.5256 -6.07162 0
M  V30 6729 H 654.826 0.297751 -2.96509 0
M  V30 6730 H 652.363 0.135264 -1.46477 0
M  V30 6731 H 654.321 2.7731 -3.11697 0
M  V30 6732 H 652.951 2.53275 -2.00128 0
M  V30 6733 H 652.003 0.823029 -3.7139 0
M  V30 6734 H 653.315 1.29236 -4.81767 0
M  V30 6735 H 652.469 3.64788 -4.84783 0
M  V30 6736 H 651.208 3.23076 -3.65339 0
M  V30 6737 H 650.213 1.58314 -5.26514 0
M  V30 6738 H 651.438 2.02687 -6.48147 0
M  V30 6739 H 649.384 3.91278 -5.26534 0
M  V30 6740 H 649.301 3.20699 -6.84608 0
M  V30 6741 H 650.569 4.33738 -6.47682 0
M  V30 6742 N 654.798 1.5699 0.138552 0
M  V30 6743 C 656.044 1.84081 0.85099 0
M  V30 6744 C 656.377 0.718107 1.80435 0
M  V30 6745 O 655.652 -0.277633 1.92508 0
M  V30 6746 C 655.935 3.21699 1.61808 0
M  V30 6747 C 655.788 4.44544 0.685633 0
M  V30 6748 C 657.107 3.5664 2.57868 0
M  V30 6749 H 654.226 0.669592 0.307922 0
M  V30 6750 H 656.868 1.89646 0.11588 0
M  V30 6751 H 655.018 3.17086 2.24474 0
M  V30 6752 H 656.69 4.61248 0.0693179 0
M  V30 6753 H 654.933 4.338 -0.00421993 0
M  V30 6754 H 655.604 5.3746 1.25858 0
M  V30 6755 H 658.08 3.61918 2.05316 0
M  V30 6756 H 656.956 4.53946 3.08584 0
M  V30 6757 H 657.217 2.83036 3.39622 0
M  V30 6758 N 656.276 -0.40816 1.52223 0
M  V30 6759 C 657.687 -0.986929 1.58482 0
M  V30 6760 C 658.038 -1.91521 0.425917 0
M  V30 6761 O 657.163 -2.11593 -0.453593 0
M  V30 6762 C 657.758 -1.7967 2.87235 0
M  V30 6763 C 656.317 -2.32549 2.9597 0
M  V30 6764 C 655.464 -1.12558 2.53428 0
M  V30 6765 H 658.415 -0.188362 1.57578 0
M  V30 6766 H 658.436 -2.65417 2.72642 0
M  V30 6767 H 657.948 -1.12082 3.71563 0
M  V30 6768 H 656.049 -3.03505 2.16137 0
M  V30 6769 H 656.162 -2.63348 4.00231 0
M  V30 6770 H 654.526 -1.47984 2.07299 0
M  V30 6771 H 655.309 -0.465351 3.40131 0
M  V30 6772 N 657.755 -1.42862 -0.66545 0
M  V30 6773 C 658.685 -1.49867 -1.79059 0
M  V30 6774 C 659.666 -0.354394 -1.66367 0
M  V30 6775 O 660.851 -0.569969 -1.85647 0
M  V30 6776 C 657.981 -1.40943 -3.17415 0
M  V30 6777 C 656.935 -2.53495 -3.44854 0
M  V30 6778 C 656.261 -2.29626 -4.82883 0
M  V30 6779 C 657.561 -3.95781 -3.40815 0
M  V30 6780 H 659.255 -2.44037 -1.73453 0
M  V30 6781 H 656.801 -1.17456 -0.833071 0
M  V30 6782 H 658.754 -1.4445 -3.95869 0
M  V30 6783 H 657.478 -0.432716 -3.23721 0
M  V30 6784 H 656.137 -2.4932 -2.68766 0
M  V30 6785 H 655.785 -1.30226 -4.8585 0
M  V30 6786 H 655.485 -3.05065 -5.02204 0
M  V30 6787 H 657.009 -2.34897 -5.63609 0
M  V30 6788 H 658.423 -4.01508 -4.09224 0
M  V30 6789 H 656.82 -4.71148 -3.71672 0
M  V30 6790 H 657.89 -4.21786 -2.39216 0
M  V30 6791 N 659.233 0.902656 -1.29189 0
M  V30 6792 C 660.473 1.6672 -1.18254 0
M  V30 6793 C 660.837 1.90199 0.262336 0
M  V30 6794 O 662.038 2.6421 0.494612 0
M  V30 6795 C 660.309 2.98178 -1.9704 0
M  V30 6796 S 661.868 3.89226 -2.02605 0
M  V30 6797 H 658.686 0.572432 -0.421714 0
M  V30 6798 H 661.288 1.07279 -1.63436 0
M  V30 6799 H 659.992 2.788 -3.01163 0
M  V30 6800 H 659.523 3.62661 -1.5245 0
M  V30 6801 H 661.538 4.82913 -1.14059 0
M  V30 6802 N 660.711 1.11618 1.11262 0
M  V30 6803 C 661.96 0.860934 1.82403 0
M  V30 6804 C 662.273 -0.615303 1.8567 0
M  V30 6805 O 663.479 -0.986861 2.52929 0
M  V30 6806 C 661.935 1.49048 3.27586 0
M  V30 6807 C 661.543 3.00089 3.32642 0
M  V30 6808 C 663.287 1.31515 4.03614 0
M  V30 6809 C 661.194 3.56019 4.72234 0
M  V30 6810 H 660.124 0.318423 0.683464 0
M  V30 6811 H 662.775 1.34165 1.25188 0
M  V30 6812 H 661.157 0.937434 3.84744 0
M  V30 6813 H 662.331 3.61813 2.85356 0
M  V30 6814 H 660.646 3.16919 2.70096 0
M  V30 6815 H 663.243 1.70732 5.0671 0
M  V30 6816 H 663.586 0.257917 4.155 0
M  V30 6817 H 664.119 1.83694 3.52848 0
M  V30 6818 H 660.858 4.61463 4.65545 0
M  V30 6819 H 660.378 2.99066 5.19923 0
M  V30 6820 H 662.057 3.54568 5.41193 0
M  V30 6821 N 662.189 -1.289 0.906776 0
M  V30 6822 C 663.466 -1.90221 0.455537 0
M  V30 6823 C 663.846 -1.82251 -1.06527 0
M  V30 6824 O 663.194 -1.25385 -1.91026 0
M  V30 6825 C 663.404 -3.35015 0.97806 0
M  V30 6826 C 664.752 -4.12018 1.02598 0
M  V30 6827 O 665.776 -3.43947 0.926218 0
M  V30 6828 O 664.635 -5.33677 1.17689 0
M  V30 6829 H 661.729 -0.814505 0.143214 0
M  V30 6830 H 664.275 -1.37317 0.997104 0
M  V30 6831 H 663.047 -3.35006 2.02204 0
M  V30 6832 H 662.67 -3.95408 0.416914 0
M  V30 6833 N 663.667 -0.670007 -1.42649 0
M  V30 6834 C 664.892 -0.196955 -2.06463 0
M  V30 6835 C 665.317 1.1352 -1.49983 0
M  V30 6836 O 664.675 1.705 -0.616397 0
M  V30 6837 C 664.723 -0.137381 -3.60338 0
M  V30 6838 O 663.827 0.895523 -4.02559 0
M  V30 6839 H 663.168 -0.102579 -0.656029 0
M  V30 6840 H 665.698 -0.917669 -1.82866 0
M  V30 6841 H 665.708 0.0403625 -4.0798 0
M  V30 6842 H 664.383 -1.10977 -4.0082 0
M  V30 6843 H 662.96 0.689209 -3.66476 0
M  V30 6844 N 665.145 1.52092 -0.413018 0
M  V30 6845 C 666.37 2.06756 0.163338 0
M  V30 6846 C 666.795 1.28073 1.37764 0
M  V30 6847 O 666.153 0.312015 1.78595 0
M  V30 6848 C 666.201 3.57278 0.488322 0
M  V30 6849 O 665.305 3.80986 1.57871 0
M  V30 6850 H 664.646 0.663882 0.0125068 0
M  V30 6851 H 667.176 1.95988 -0.587339 0
M  V30 6852 H 667.186 4.01125 0.745836 0
M  V30 6853 H 665.861 4.13978 -0.399327 0
M  V30 6854 H 664.438 3.49017 1.31306 0
M  V30 6855 N 666.623 0.143563 1.56945 0
M  V30 6856 C 667.571 -0.814556 2.17871 0
M  V30 6857 C 668.565 -1.25778 1.13474 0
M  V30 6858 O 669.771 -1.22666 1.31731 0
M  V30 6859 H 666.146 -0.280873 0.697578 0
M  V30 6860 H 668.117 -0.276459 2.97117 0
M  V30 6861 C 666.866 -2.04503 2.81201 0
M  V30 6862 H 666.189 -1.71296 3.61245 0
M  V30 6863 H 667.629 -2.69493 3.27337 0
M  V30 6864 C 666.088 -2.85079 1.79532 0
M  V30 6865 O 666.618 -3.81306 1.26368 0
M  V30 6866 N 664.824 -2.49546 1.48913 0
M  V30 6867 H 664.371 -1.71359 1.92338 0
M  V30 6868 H 664.329 -3.03751 0.811348 0
M  V30 6869 N 668.101 -1.57061 -0.130224 0
M  V30 6870 C 669.348 -1.84257 -0.839972 0
M  V30 6871 C 669.676 -0.726986 -1.80403 0
M  V30 6872 O 668.931 0.282632 -1.93648 0
M  V30 6873 C 669.23 -3.17878 -1.63365 0
M  V30 6874 C 668.896 -4.43475 -0.814891 0
M  V30 6875 C 667.558 -4.77581 -0.589066 0
M  V30 6876 C 669.91 -5.20631 -0.243437 0
M  V30 6877 C 667.238 -5.86292 0.218648 0
M  V30 6878 C 669.59 -6.30192 0.551408 0
M  V30 6879 C 668.254 -6.62837 0.787653 0
M  V30 6880 H 667.524 -0.674245 -0.307367 0
M  V30 6881 H 670.171 -1.91224 -0.102832 0
M  V30 6882 H 668.476 -3.06437 -2.44138 0
M  V30 6883 H 670.173 -3.3614 -2.18658 0
M  V30 6884 H 666.763 -4.16747 -1.00098 0
M  V30 6885 H 670.947 -4.94644 -0.405145 0
M  V30 6886 H 666.203 -6.10017 0.411016 0
M  V30 6887 H 670.377 -6.89165 1.00126 0
M  V30 6888 H 668.004 -7.46908 1.41537 0
M  V30 6889 N 669.579 0.400081 -1.52437 0
M  V30 6890 C 670.542 1.4707 -1.75793 0
M  V30 6891 C 671.542 1.48036 -0.627856 0
M  V30 6892 O 672.732 1.49401 -0.895817 0
M  V30 6893 C 669.864 2.86427 -1.84858 0
M  V30 6894 H 671.057 1.27649 -2.71377 0
M  V30 6895 H 668.61 0.631141 -1.42991 0
M  V30 6896 H 669.345 3.11207 -0.912194 0
M  V30 6897 H 669.13 2.87128 -2.6702 0
M  V30 6898 H 670.62 3.64023 -2.04638 0
M  V30 6899 N 671.057 1.43213 0.657864 0
M  V30 6900 C 672.303 1.44798 1.41991 0
M  V30 6901 C 672.636 0.070256 1.94073 0
M  V30 6902 O 671.911 -0.908177 1.71995 0
M  V30 6903 C 672.194 2.4865 2.60471 0
M  V30 6904 C 672.047 3.95679 2.13911 0
M  V30 6905 C 673.366 2.49292 3.62686 0
M  V30 6906 H 670.485 0.527244 0.514959 0
M  V30 6907 H 673.127 1.74733 0.74621 0
M  V30 6908 H 671.277 2.23254 3.17946 0
M  V30 6909 H 672.949 4.32116 1.61472 0
M  V30 6910 H 671.192 4.08733 1.45325 0
M  V30 6911 H 671.863 4.6395 2.99089 0
M  V30 6912 H 674.339 2.71917 3.14961 0
M  V30 6913 H 673.215 3.23907 4.43143 0
M  V30 6914 H 673.476 1.52502 4.14964 0
M  V30 6915 N 672.536 -0.895792 1.29666 0
M  V30 6916 C 673.785 -1.64131 1.17234 0
M  V30 6917 C 674.098 -1.93665 -0.274416 0
M  V30 6918 O 675.304 -2.66472 -0.520105 0
M  V30 6919 C 673.76 -2.95764 2.05065 0
M  V30 6920 C 673.368 -2.7381 3.54587 0
M  V30 6921 C 675.112 -3.737 2.01367 0
M  V30 6922 C 673.019 -4.01194 4.34508 0
M  V30 6923 H 671.949 -0.615742 0.435175 0
M  V30 6924 H 674.6 -0.992626 1.54335 0
M  V30 6925 H 672.982 -3.61867 1.60837 0
M  V30 6926 H 674.156 -2.16277 4.06892 0
M  V30 6927 H 672.471 -2.09265 3.59996 0
M  V30 6928 H 675.068 -4.68152 2.58337 0
M  V30 6929 H 675.411 -4.04245 0.994575 0
M  V30 6930 H 675.944 -3.14444 2.43659 0
M  V30 6931 H 672.683 -3.75813 5.37071 0
M  V30 6932 H 672.203 -4.58272 3.86971 0
M  V30 6933 H 673.882 -4.69307 4.45376 0
M  V30 6934 N 674.014 -1.12206 -1.10668 0
M  V30 6935 C 674.924 -0.800686 -2.20513 0
M  V30 6936 C 675.94 0.209512 -1.72734 0
M  V30 6937 O 677.116 0.043705 -2.01353 0
M  V30 6938 C 674.181 -0.257353 -3.45744 0
M  V30 6939 C 673.242 -1.32718 -4.0827 0
M  V30 6940 C 672.475 -0.809674 -5.27522 0
M  V30 6941 O 672.698 0.35742 -5.69279 0
M  V30 6942 O 671.632 -1.57816 -5.80842 0
M  V30 6943 H 675.458 -1.71807 -2.50432 0
M  V30 6944 H 673.043 -0.898546 -1.19359 0
M  V30 6945 H 674.925 0.0408849 -4.2138 0
M  V30 6946 H 673.6 0.632627 -3.17458 0
M  V30 6947 H 672.507 -1.67855 -3.34329 0
M  V30 6948 H 673.84 -2.19083 -4.40753 0
M  V30 6949 N 675.492 1.28418 -0.913599 0
M  V30 6950 C 676.455 2.25564 -0.406624 0
M  V30 6951 C 677.455 1.5387 0.466965 0
M  V30 6952 O 678.645 1.72094 0.270042 0
M  V30 6953 C 675.777 3.38339 0.417053 0
M  V30 6954 H 676.97 2.71926 -1.26477 0
M  V30 6955 H 674.523 1.40098 -0.692986 0
M  V30 6956 H 675.258 2.97339 1.29461 0
M  V30 6957 H 675.043 3.91542 -0.209102 0
M  V30 6958 H 676.533 4.10578 0.762602 0
M  V30 6959 N 676.97 0.677563 1.42291 0
M  V30 6960 C 678.218 0.200578 2.01102 0
M  V30 6961 C 678.539 -1.19803 1.53858 0
M  V30 6962 O 677.809 -1.80496 0.761439 0
M  V30 6963 H 676.389 0.0711634 0.743603 0
M  V30 6964 H 679.051 0.874691 1.7417 0
M  V30 6965 H 678.147 0.204 3.11433 0
M  V30 6966 N 678.448 -1.51871 0.421078 0
M  V30 6967 C 679.378 -2.30231 -0.389363 0
M  V30 6968 C 680.359 -1.34946 -1.03555 0
M  V30 6969 O 681.544 -1.63859 -1.04229 0
M  V30 6970 C 678.674 -3.13247 -1.49979 0
M  V30 6971 C 677.628 -4.16677 -0.977966 0
M  V30 6972 C 676.954 -4.88112 -2.1829 0
M  V30 6973 C 678.254 -5.22295 -0.0236775 0
M  V30 6974 H 679.948 -2.98229 0.264524 0
M  V30 6975 H 677.494 -1.43424 0.12866 0
M  V30 6976 H 679.447 -3.66838 -2.07383 0
M  V30 6977 H 678.171 -2.4304 -2.18173 0
M  V30 6978 H 676.83 -3.64114 -0.426245 0
M  V30 6979 H 676.478 -4.14423 -2.85066 0
M  V30 6980 H 676.178 -5.58041 -1.84021 0
M  V30 6981 H 677.702 -5.44521 -2.76278 0
M  V30 6982 H 679.116 -5.71055 -0.506899 0
M  V30 6983 H 677.513 -5.99656 0.230782 0
M  V30 6984 H 678.583 -4.76131 0.917999 0
M  V30 6985 N 679.926 -0.151884 -1.56866 0
M  V30 6986 C 680.873 0.785936 -2.17006 0
M  V30 6987 C 681.843 1.2407 -1.10435 0
M  V30 6988 O 683.028 1.31235 -1.38499 0
M  V30 6989 C 680.168 2.01771 -2.79969 0
M  V30 6990 C 679.281 1.6083 -4.00946 0
M  V30 6991 C 678.416 2.79224 -4.51893 0
M  V30 6992 C 677.455 2.3468 -5.65324 0
M  V30 6993 N 676.592 3.461 -6.10867 0
M  V30 6994 H 681.432 0.266286 -2.96808 0
M  V30 6995 H 678.969 0.11972 -1.46612 0
M  V30 6996 H 680.927 2.73989 -3.14621 0
M  V30 6997 H 679.557 2.51139 -2.02803 0
M  V30 6998 H 678.609 0.783592 -3.72242 0
M  V30 6999 H 679.921 1.24119 -4.83111 0
M  V30 7000 H 679.075 3.59625 -4.88625 0
M  V30 7001 H 677.814 3.19183 -3.68746 0
M  V30 7002 H 676.819 1.52721 -5.28163 0
M  V30 7003 H 678.044 1.95801 -6.5026 0
M  V30 7004 H 675.99 3.85671 -5.30654 0
M  V30 7005 H 675.907 3.1342 -6.87971 0
M  V30 7006 H 677.175 4.26844 -6.52246 0
M  V30 7007 N 681.404 1.57128 0.121893 0
M  V30 7008 C 682.644 1.86517 0.836113 0
M  V30 7009 C 683.008 0.739497 1.77188 0
M  V30 7010 O 684.209 0.91508 2.52744 0
M  V30 7011 C 682.48 3.21129 1.56878 0
M  V30 7012 S 684.039 3.72143 2.32497 0
M  V30 7013 H 680.857 0.653923 0.279115 0
M  V30 7014 H 683.459 1.95271 0.0946254 0
M  V30 7015 H 682.163 4.01002 0.873255 0
M  V30 7016 H 681.694 3.15446 2.35069 0
M  V30 7017 H 683.709 3.43413 3.58164 0
M  V30 7018 N 682.882 -0.391992 1.52647 0
M  V30 7019 C 684.122 -1.1463 1.69232 0
M  V30 7020 C 684.486 -1.87312 0.421684 0
M  V30 7021 O 685.687 -2.64768 0.463852 0
M  V30 7022 C 683.958 -2.10088 2.89133 0
M  V30 7023 S 685.517 -2.93395 3.2629 0
M  V30 7024 H 682.335 -0.388076 0.59575 0
M  V30 7025 H 684.937 -0.431149 1.90687 0
M  V30 7026 H 683.641 -1.55408 3.79837 0
M  V30 7027 H 683.172 -2.86116 2.70003 0
M  V30 7028 H 685.187 -4.12193 2.76244 0
M  V30 7029 N 684.36 -1.4356 -0.65026 0
M  V30 7030 C 685.292 -1.44918 -1.77571 0
M  V30 7031 C 686.305 -0.344925 -1.59104 0
M  V30 7032 O 687.494 -0.609537 -1.6777 0
M  V30 7033 C 684.594 -1.24914 -3.15039 0
M  V30 7034 C 683.767 -2.48232 -3.60138 0
M  V30 7035 C 682.826 -2.23409 -4.76419 0
M  V30 7036 O 681.852 -2.9678 -4.85706 0
M  V30 7037 N 683.054 -1.25259 -5.66825 0
M  V30 7038 H 685.819 -2.41935 -1.76883 0
M  V30 7039 H 683.38 -1.38754 -0.834202 0
M  V30 7040 H 685.372 -1.06185 -3.90521 0
M  V30 7041 H 683.942 -0.363319 -3.10481 0
M  V30 7042 H 683.162 -2.82366 -2.75069 0
M  V30 7043 H 684.45 -3.30296 -3.87017 0
M  V30 7044 H 683.848 -0.646246 -5.61997 0
M  V30 7045 H 682.405 -1.12513 -6.42016 0
M  V30 7046 N 685.838 0.888903 -1.30139 0
M  V30 7047 C 687.086 1.63713 -1.18501 0
M  V30 7048 C 687.407 1.9324 0.261399 0
M  V30 7049 O 686.677 1.56608 1.17689 0
M  V30 7050 H 685.257 0.606861 -0.435579 0
M  V30 7051 H 687.919 1.06525 -1.63213 0
M  V30 7052 H 687.015 2.58894 -1.743 0
M  V30 7053 N 687.317 1.12792 1.10072 0
M  V30 7054 C 688.264 0.79921 2.16521 0
M  V30 7055 C 689.234 -0.235726 1.64419 0
M  V30 7056 O 690.419 -0.109457 1.90486 0
M  V30 7057 C 687.559 0.264091 3.44088 0
M  V30 7058 C 686.672 1.35729 4.10124 0
M  V30 7059 C 685.807 0.781212 5.25424 0
M  V30 7060 C 684.846 1.85327 5.8337 0
M  V30 7061 N 683.983 1.29564 6.90042 0
M  V30 7062 H 688.823 1.71105 2.43981 0
M  V30 7063 H 686.36 0.854225 1.19756 0
M  V30 7064 H 688.318 -0.0642423 4.17151 0
M  V30 7065 H 686.948 -0.610901 3.16967 0
M  V30 7066 H 686 1.80234 3.34993 0
M  V30 7067 H 687.312 2.16782 4.4923 0
M  V30 7068 H 686.466 0.403769 6.05355 0
M  V30 7069 H 685.205 -0.0604686 4.87663 0
M  V30 7070 H 684.21 2.23986 5.02106 0
M  V30 7071 H 685.435 2.69824 6.23195 0
M  V30 7072 H 683.381 0.475844 6.54272 0
M  V30 7073 H 683.298 2.04271 7.2788 0
M  V30 7074 H 684.566 0.945545 7.73744 0
M  V30 7075 N 688.795 -1.27931 0.920396 0
M  V30 7076 C 690.035 -1.96459 0.564198 0
M  V30 7077 C 690.399 -1.70802 -0.876967 0
M  V30 7078 O 691.6 -2.32956 -1.34107 0
M  V30 7079 C 689.871 -3.46583 0.872641 0
M  V30 7080 S 691.43 -4.34343 0.623859 0
M  V30 7081 H 688.248 -0.679735 0.208523 0
M  V30 7082 H 690.85 -1.55319 1.18727 0
M  V30 7083 H 689.554 -3.62753 1.91933 0
M  V30 7084 H 689.085 -3.92677 0.238479 0
M  V30 7085 H 691.1 -4.93449 -0.521744 0
M  V30 7086 N 690.273 -0.685099 -1.4193 0
M  V30 7087 C 691.522 -0.208816 -2.00616 0
M  V30 7088 C 691.835 1.19506 -1.54847 0
M  V30 7089 O 693.041 1.76826 -2.06021 0
M  V30 7090 C 691.497 -0.322446 -3.58453 0
M  V30 7091 C 691.105 -1.73102 -4.13206 0
M  V30 7092 C 692.849 0.0945979 -4.24395 0
M  V30 7093 C 690.756 -1.79687 -5.63442 0
M  V30 7094 H 689.686 -0.0743092 -0.750329 0
M  V30 7095 H 692.337 -0.851778 -1.62533 0
M  V30 7096 H 690.719 0.388588 -3.94089 0
M  V30 7097 H 691.893 -2.46997 -3.8901 0
M  V30 7098 H 690.208 -2.09682 -3.59753 0
M  V30 7099 H 692.805 0.0656937 -5.3466 0
M  V30 7100 H 693.148 1.1316 -4.00625 0
M  V30 7101 H 693.681 -0.56579 -3.93756 0
M  V30 7102 H 690.42 -2.81404 -5.92024 0
M  V30 7103 H 689.94 -1.10162 -5.89597 0
M  V30 7104 H 691.619 -1.55498 -6.28036 0
M  V30 7105 N 691.751 1.51645 -0.429126 0
M  V30 7106 C 692.997 2.02314 0.140286 0
M  V30 7107 C 693.33 1.31314 1.43074 0
M  V30 7108 O 692.605 0.425531 1.89788 0
M  V30 7109 C 692.888 3.5822 0.36749 0
M  V30 7110 C 692.741 4.39846 -0.941039 0
M  V30 7111 C 694.06 4.25055 1.14089 0
M  V30 7112 H 691.179 0.735335 0.0495112 0
M  V30 7113 H 693.821 1.81358 -0.566514 0
M  V30 7114 H 691.971 3.76207 0.969556 0
M  V30 7115 H 693.643 4.33527 -1.57646 0
M  V30 7116 H 691.886 4.05259 -1.54751 0
M  V30 7117 H 692.557 5.47069 -0.73621 0
M  V30 7118 H 695.033 4.11288 0.630986 0
M  V30 7119 H 693.909 5.34038 1.26863 0
M  V30 7120 H 694.17 3.85358 2.16683 0
M  V30 7121 N 693.229 0.160201 1.56784 0
M  V30 7122 C 694.177 -0.791402 2.18723 0
M  V30 7123 C 695.171 -1.24567 1.14801 0
M  V30 7124 O 696.377 -1.21262 1.33025 0
M  V30 7125 H 692.752 -0.273458 0.700517 0
M  V30 7126 H 694.723 -0.244931 2.97393 0
M  V30 7127 C 693.472 -2.01509 2.83354 0
M  V30 7128 H 692.795 -1.67454 3.63041 0
M  V30 7129 H 694.235 -2.66006 3.30177 0
M  V30 7130 C 692.694 -2.83159 1.82545 0
M  V30 7131 O 693.224 -3.79944 1.30405 0
M  V30 7132 N 691.43 -2.47953 1.51552 0
M  V30 7133 H 690.977 -1.69309 1.94144 0
M  V30 7134 H 690.935 -3.02873 0.843519 0
M  V30 7135 N 694.707 -1.5719 -0.113559 0
M  V30 7136 C 695.932 -1.89702 -0.838336 0
M  V30 7137 C 696.357 -0.752679 -1.72384 0
M  V30 7138 O 695.715 0.296575 -1.78858 0
M  V30 7139 C 695.763 -3.20989 -1.64312 0
M  V30 7140 O 694.867 -3.07278 -2.75053 0
M  V30 7141 H 694.208 -0.622339 -0.231496 0
M  V30 7142 H 696.738 -2.04382 -0.0943228 0
M  V30 7143 H 696.748 -3.53843 -2.03123 0
M  V30 7144 H 695.423 -4.03869 -0.993119 0
M  V30 7145 H 694 -2.85901 -2.39406 0
M  V30 7146 N 696.185 0.383891 -1.52853 0
M  V30 7147 C 697.434 1.12563 -1.67369 0
M  V30 7148 C 697.747 1.90982 -0.422533 0
M  V30 7149 O 698.953 2.6778 -0.447914 0
M  V30 7150 C 697.409 2.05011 -2.95801 0
M  V30 7151 C 697.017 1.31991 -4.28115 0
M  V30 7152 C 698.761 2.79289 -3.19684 0
M  V30 7153 C 696.668 2.23235 -5.4765 0
M  V30 7154 H 695.598 0.42391 -0.623552 0
M  V30 7155 H 698.249 0.388016 -1.79351 0
M  V30 7156 H 696.631 2.82429 -2.77578 0
M  V30 7157 H 697.805 0.597633 -4.56908 0
M  V30 7158 H 696.12 0.696517 -4.10533 0
M  V30 7159 H 698.717 3.47749 -4.06171 0
M  V30 7160 H 699.06 3.43649 -2.3497 0
M  V30 7161 H 699.593 2.08962 -3.38496 0
M  V30 7162 H 696.332 1.63482 -6.34786 0
M  V30 7163 H 695.852 2.93364 -5.23161 0
M  V30 7164 H 697.531 2.83205 -5.81725 0
M  V30 7165 N 697.663 1.43903 0.642637 0
M  V30 7166 C 698.888 1.49758 1.43483 0
M  V30 7167 C 699.313 0.119911 1.87717 0
M  V30 7168 O 698.671 -0.888558 1.58033 0
M  V30 7169 C 698.719 2.45744 2.63898 0
M  V30 7170 O 697.823 1.95101 3.63331 0
M  V30 7171 H 697.164 0.506138 0.429791 0
M  V30 7172 H 699.694 1.88923 0.785438 0
M  V30 7173 H 699.704 2.63399 3.11584 0
M  V30 7174 H 698.379 3.45818 2.31046 0
M  V30 7175 H 696.956 1.87158 3.22531 0
M  V30 7176 N 699.141 -0.881989 1.30609 0
M  V30 7177 C 700.071 -2.00413 1.1982 0
M  V30 7178 C 701.052 -1.69871 0.0881538 0
M  V30 7179 O 702.237 -1.92304 0.2707 0
M  V30 7180 C 699.367 -3.35641 0.89233 0
M  V30 7181 C 698.321 -3.80451 1.96064 0
M  V30 7182 C 697.647 -5.13003 1.5077 0
M  V30 7183 C 698.947 -3.98855 3.37213 0
M  V30 7184 H 700.641 -2.09698 2.13699 0
M  V30 7185 H 698.187 -1.00754 1.02882 0
M  V30 7186 H 700.14 -4.13669 0.803497 0
M  V30 7187 H 698.864 -3.26497 -0.0821381 0
M  V30 7188 H 697.523 -3.04654 2.03916 0
M  V30 7189 H 697.171 -5.0029 0.521417 0
M  V30 7190 H 696.871 -5.43956 2.22229 0
M  V30 7191 H 698.395 -5.93554 1.43271 0
M  V30 7192 H 699.809 -4.67312 3.32103 0
M  V30 7193 H 698.206 -4.41188 4.06784 0
M  V30 7194 H 699.276 -3.02614 3.78883 0
M  V30 7195 N 700.619 -1.13374 -1.09472 0
M  V30 7196 C 701.566 -0.810682 -2.16094 0
M  V30 7197 C 702.536 0.227003 -1.64541 0
M  V30 7198 O 703.721 0.0993538 -1.90541 0
M  V30 7199 C 700.861 -0.282336 -3.43943 0
M  V30 7200 C 699.974 -1.37902 -4.09398 0
M  V30 7201 C 699.109 -0.809066 -5.25002 0
M  V30 7202 C 698.148 -1.88419 -5.82379 0
M  V30 7203 N 697.285 -1.33221 -6.89345 0
M  V30 7204 H 702.125 -1.72397 -2.43071 0
M  V30 7205 H 699.662 -0.860564 -1.19301 0
M  V30 7206 H 701.62 0.0421189 -4.17179 0
M  V30 7207 H 700.25 0.594083 -3.17286 0
M  V30 7208 H 699.302 -1.82008 -3.34032 0
M  V30 7209 H 700.614 -2.19161 -4.48074 0
M  V30 7210 H 699.768 -0.435867 -6.05132 0
M  V30 7211 H 698.507 0.0346058 -4.87688 0
M  V30 7212 H 697.512 -2.26646 -5.00911 0
M  V30 7213 H 698.737 -2.73125 -6.21755 0
M  V30 7214 H 696.683 -0.510535 -6.5401 0
M  V30 7215 H 696.6 -2.08129 -7.26786 0
M  V30 7216 H 697.868 -0.986565 -7.73232 0
M  V30 7217 N 702.098 1.27442 -0.927168 0
M  V30 7218 C 703.008 2.30599 -0.431448 0
M  V30 7219 C 704.024 1.67028 0.48761 0
M  V30 7220 O 705.2 1.97962 0.370546 0
M  V30 7221 C 702.265 3.45327 0.308292 0
M  V30 7222 C 701.326 4.24418 -0.645615 0
M  V30 7223 C 700.559 5.33667 0.0589164 0
M  V30 7224 O 700.782 5.5589 1.27838 0
M  V30 7225 O 699.716 5.98774 -0.612638 0
M  V30 7226 H 703.542 2.75036 -1.28797 0
M  V30 7227 H 701.127 1.32382 -0.692495 0
M  V30 7228 H 703.009 4.15107 0.725555 0
M  V30 7229 H 701.684 3.02945 1.14043 0
M  V30 7230 H 700.591 3.57174 -1.11255 0
M  V30 7231 H 701.924 4.70512 -1.44496 0
M  V30 7232 N 703.576 0.692616 1.41565 0
M  V30 7233 C 704.824 0.221896 2.00878 0
M  V30 7234 C 705.145 -1.18164 1.5512 0
M  V30 7235 O 704.415 -1.79679 0.78054 0
M  V30 7236 H 702.995 0.0790463 0.742806 0
M  V30 7237 H 705.657 0.893115 1.73232 0
M  V30 7238 H 704.753 0.23702 3.11199 0
M  V30 7239 N 705.054 -1.51416 0.437162 0
M  V30 7240 C 705.964 -2.31493 -0.380537 0
M  V30 7241 C 706.98 -1.40399 -1.02782 0
M  V30 7242 O 708.156 -1.73471 -1.02323 0
M  V30 7243 C 705.221 -3.1413 -1.46709 0
M  V30 7244 C 704.282 -4.21003 -0.839953 0
M  V30 7245 C 703.515 -4.9969 -1.87473 0
M  V30 7246 O 703.738 -4.79008 -3.09689 0
M  V30 7247 O 702.672 -5.8379 -1.46536 0
M  V30 7248 H 706.498 -3.02469 0.273183 0
M  V30 7249 H 704.083 -1.48059 0.199706 0
M  V30 7250 H 705.965 -3.65505 -2.09724 0
M  V30 7251 H 704.64 -2.45919 -2.10489 0
M  V30 7252 H 703.547 -3.73706 -0.171752 0
M  V30 7253 H 704.88 -4.91587 -0.245638 0
M  V30 7254 N 706.532 -0.168513 -1.56696 0
M  V30 7255 C 707.809 0.523367 -1.88468 0
M  V30 7256 C 708.189 1.81503 -1.07796 0
M  V30 7257 O 707.537 2.27859 -0.171045 0
M  V30 7258 C 707.747 0.767991 -3.40445 0
M  V30 7259 C 709.095 1.09924 -4.10124 0
M  V30 7260 O 710.119 0.856625 -3.45746 0
M  V30 7261 O 708.978 1.55681 -5.23856 0
M  V30 7262 H 706.072 0.269447 -0.781874 0
M  V30 7263 H 708.618 -0.206739 -1.68436 0
M  V30 7264 H 707.39 -0.145254 -3.9103 0
M  V30 7265 H 707.013 1.55151 -3.66079 0
M  V30 7266 N 708.01 1.57248 0.105221 0
M  V30 7267 C 709.287 1.76566 0.841647 0
M  V30 7268 C 709.667 0.747566 1.9742 0
M  V30 7269 O 709.015 -0.225886 2.27381 0
M  V30 7270 C 709.225 3.22016 1.3456 0
M  V30 7271 C 710.573 3.84911 1.79244 0
M  V30 7272 O 711.597 3.25703 1.44207 0
M  V30 7273 O 710.456 4.89008 2.43995 0
M  V30 7274 H 707.55 0.723443 0.400698 0
M  V30 7275 H 710.096 1.69472 0.0878893 0
M  V30 7276 H 708.868 3.87644 0.533685 0
M  V30 7277 H 708.491 3.33703 2.16167 0
M  V30 7278 N 709.488 -0.375779 1.53054 0
M  V30 7279 C 710.735 -1.11948 1.68742 0
M  V30 7280 C 711.063 -1.89596 0.434015 0
M  V30 7281 O 710.318 -1.86787 -0.583867 0
M  V30 7282 C 710.617 -2.11356 2.88207 0
M  V30 7283 C 710.283 -1.50266 4.25124 0
M  V30 7284 C 708.945 -1.33333 4.62359 0
M  V30 7285 C 711.297 -1.05976 5.10312 0
M  V30 7286 C 708.625 -0.706765 5.82427 0
M  V30 7287 C 710.977 -0.447241 6.31017 0
M  V30 7288 C 709.641 -0.265314 6.66973 0
M  V30 7289 H 708.911 -0.409648 0.61747 0
M  V30 7290 H 711.558 -0.402492 1.87222 0
M  V30 7291 H 709.863 -2.89322 2.64197 0
M  V30 7292 H 711.56 -2.68833 2.97539 0
M  V30 7293 H 708.15 -1.64437 3.95801 0
M  V30 7294 H 712.334 -1.17855 4.82104 0
M  V30 7295 H 707.59 -0.554132 6.08884 0
M  V30 7296 H 711.764 -0.0958064 6.96334 0
M  V30 7297 H 709.391 0.222267 7.59875 0
M  V30 7298 N 710.966 -1.44241 -0.634997 0
M  V30 7299 C 711.896 -1.53632 -1.7584 0
M  V30 7300 C 712.877 -0.389603 -1.65578 0
M  V30 7301 O 714.062 -0.609219 -1.84397 0
M  V30 7302 C 711.192 -1.47644 -3.14354 0
M  V30 7303 C 710.146 -2.60752 -3.394 0
M  V30 7304 C 709.472 -2.39817 -4.77904 0
M  V30 7305 C 710.772 -4.02921 -3.32343 0
M  V30 7306 H 712.466 -2.47662 -1.68238 0
M  V30 7307 H 710.012 -1.19197 -0.807969 0
M  V30 7308 H 711.965 -1.52815 -3.92716 0
M  V30 7309 H 710.689 -0.501284 -3.2273 0
M  V30 7310 H 709.348 -2.54965 -2.63417 0
M  V30 7311 H 708.996 -1.40502 -4.82978 0
M  V30 7312 H 708.696 -3.15649 -4.9562 0
M  V30 7313 H 710.22 -2.46799 -5.585 0
M  V30 7314 H 711.634 -4.10098 -4.00615 0
M  V30 7315 H 710.031 -4.78925 -3.61595 0
M  V30 7316 H 711.101 -4.26766 -2.30215 0
M  V30 7317 N 712.444 0.87505 -1.31075 0
M  V30 7318 C 713.354 2.01441 -1.20244 0
M  V30 7319 C 714.37 1.73584 -0.120227 0
M  V30 7320 O 715.546 1.98559 -0.337063 0
M  V30 7321 C 712.611 3.34675 -0.905199 0
M  V30 7322 C 711.672 3.75889 -2.0738 0
M  V30 7323 C 710.905 5.02764 -1.79064 0
M  V30 7324 O 711.128 5.65795 -0.723318 0
M  V30 7325 O 710.062 5.40623 -2.64594 0
M  V30 7326 H 713.888 2.13509 -2.1598 0
M  V30 7327 H 711.473 1.00257 -1.10765 0
M  V30 7328 H 713.355 4.1458 -0.755057 0
M  V30 7329 H 712.03 3.23692 0.0221695 0
M  V30 7330 H 710.937 2.96645 -2.27931 0
M  V30 7331 H 712.27 3.91489 -2.98324 0
M  V30 7332 N 713.922 1.13953 1.08869 0
M  V30 7333 C 714.869 0.82213 2.15661 0
M  V30 7334 C 715.839 -0.218274 1.6466 0
M  V30 7335 O 717.024 -0.0892475 1.90591 0
M  V30 7336 C 714.164 0.300572 3.43789 0
M  V30 7337 C 713.277 1.40071 4.08661 0
M  V30 7338 C 712.412 0.836897 5.24566 0
M  V30 7339 C 711.451 1.91504 5.81371 0
M  V30 7340 N 710.588 1.36875 6.88629 0
M  V30 7341 H 715.428 1.73683 2.42153 0
M  V30 7342 H 712.965 0.866879 1.18843 0
M  V30 7343 H 714.923 -0.0199943 4.17195 0
M  V30 7344 H 713.553 -0.577248 3.17597 0
M  V30 7345 H 712.605 1.83776 3.33062 0
M  V30 7346 H 713.917 2.21534 4.46905 0
M  V30 7347 H 713.071 0.467953 6.04893 0
M  V30 7348 H 711.81 -0.00874207 4.87699 0
M  V30 7349 H 710.815 2.29299 4.99702 0
M  V30 7350 H 712.04 2.76419 6.20298 0
M  V30 7351 H 709.986 0.545211 6.5373 0
M  V30 7352 H 709.903 2.1198 7.25672 0
M  V30 7353 H 711.171 1.02756 7.72698 0
M  V30 7354 N 715.4 -1.26948 0.933913 0
M  V30 7355 C 716.363 -2.24889 0.442457 0
M  V30 7356 C 717.363 -1.54594 -0.442426 0
M  V30 7357 O 718.553 -1.72502 -0.242629 0
M  V30 7358 C 715.685 -3.3896 -0.363173 0
M  V30 7359 H 716.878 -2.69879 1.30787 0
M  V30 7360 H 714.431 -1.38978 0.715187 0
M  V30 7361 H 715.166 -2.99361 -1.24714 0
M  V30 7362 H 714.951 -3.9116 0.271366 0
M  V30 7363 H 716.441 -4.11739 -0.697186 0
M  V30 7364 N 716.879 -0.700114 -1.41195 0
M  V30 7365 C 718.295 -0.372114 -1.55201 0
M  V30 7366 C 718.495 1.12053 -1.6747 0
M  V30 7367 O 717.551 1.90642 -1.65566 0
M  V30 7368 C 718.864 -1.12462 -2.78878 0
M  V30 7369 C 720.412 -1.10941 -2.92679 0
M  V30 7370 C 720.887 -1.84376 -4.19249 0
M  V30 7371 N 722.378 -1.81368 -4.26216 0
M  V30 7372 C 723.113 -2.35024 -5.23021 0
M  V30 7373 N 722.609 -2.9717 -6.25829 0
M  V30 7374 N 724.402 -2.25254 -5.14992 0
M  V30 7375 H 716.553 -1.66816 -1.31477 0
M  V30 7376 H 718.816 -0.704223 -0.634644 0
M  V30 7377 H 718.522 -2.17937 -2.76037 0
M  V30 7378 H 718.396 -0.706152 -3.70531 0
M  V30 7379 H 720.783 -0.062911 -2.95033 0
M  V30 7380 H 720.864 -1.56698 -2.02187 0
M  V30 7381 H 720.508 -2.89008 -4.17656 0
M  V30 7382 H 720.438 -1.3605 -5.08722 0
M  V30 7383 H 722.929 -1.36062 -3.52556 0
M  V30 7384 H 723.242 -3.35668 -6.96094 0
M  V30 7385 H 721.587 -3.01249 -6.26318 0
M  V30 7386 H 724.778 -1.76372 -4.33602 0
M  V30 7387 H 724.951 -2.67373 -5.90268 0
M  V30 7388 N 718.357 1.51182 -0.445186 0
M  V30 7389 C 719.304 2.27939 0.362291 0
M  V30 7390 C 720.274 1.31864 1.01 0
M  V30 7391 O 721.459 1.60776 1.02741 0
M  V30 7392 C 718.599 3.13016 1.45311 0
M  V30 7393 C 717.712 4.24093 0.822757 0
M  V30 7394 C 716.847 4.96467 1.88928 0
M  V30 7395 C 715.886 5.99454 1.23778 0
M  V30 7396 N 715.023 6.65206 2.24602 0
M  V30 7397 H 719.863 2.965 -0.29862 0
M  V30 7398 H 717.4 1.46237 -0.15911 0
M  V30 7399 H 719.358 3.60673 2.09692 0
M  V30 7400 H 717.988 2.46553 2.08354 0
M  V30 7401 H 717.04 3.80341 0.0670364 0
M  V30 7402 H 718.352 4.97853 0.307184 0
M  V30 7403 H 717.506 5.47712 2.60953 0
M  V30 7404 H 716.245 4.22355 2.4386 0
M  V30 7405 H 715.25 5.47494 0.503042 0
M  V30 7406 H 716.475 6.75527 0.695694 0
M  V30 7407 H 714.421 5.93901 2.78599 0
M  V30 7408 H 714.338 7.34756 1.77958 0
M  V30 7409 H 715.606 7.21078 2.96085 0
M  V30 7410 N 719.835 0.176821 1.56605 0
M  V30 7411 C 721.084 -0.466833 1.96223 0
M  V30 7412 C 721.397 -1.64015 1.06576 0
M  V30 7413 O 722.603 -2.3504 1.35898 0
M  V30 7414 C 721.059 -0.881921 3.48927 0
M  V30 7415 C 720.667 0.266102 4.47209 0
M  V30 7416 C 722.411 -1.49368 3.97353 0
M  V30 7417 C 720.318 -0.168923 5.91159 0
M  V30 7418 H 719.248 -0.178178 0.732645 0
M  V30 7419 H 721.899 0.265929 1.81563 0
M  V30 7420 H 720.281 -1.67082 3.59026 0
M  V30 7421 H 721.455 1.04349 4.4883 0
M  V30 7422 H 719.77 0.788178 4.08872 0
M  V30 7423 H 722.367 -1.8313 5.02362 0
M  V30 7424 H 722.71 -2.3936 3.40606 0
M  V30 7425 H 723.243 -0.769114 3.90294 0
M  V30 7426 H 719.982 0.696351 6.51791 0
M  V30 7427 H 719.502 -0.911552 5.92833 0
M  V30 7428 H 721.181 -0.610938 6.44109 0
M  V30 7429 N 721.313 -1.57302 -0.09688 0
M  V30 7430 C 722.26 -2.01933 -1.11766 0
M  V30 7431 C 723.23 -0.895329 -1.39904 0
M  V30 7432 O 724.415 -1.16119 -1.51397 0
M  V30 7433 C 721.555 -2.44726 -2.43317 0
M  V30 7434 C 720.668 -3.70639 -2.21925 0
M  V30 7435 C 719.803 -4.02318 -3.46862 0
M  V30 7436 C 718.842 -5.21346 -3.20725 0
M  V30 7437 N 717.979 -5.48787 -4.37924 0
M  V30 7438 H 722.819 -2.88919 -0.730075 0
M  V30 7439 H 720.356 -1.42901 -0.348962 0
M  V30 7440 H 722.314 -2.6758 -3.20088 0
M  V30 7441 H 720.944 -1.60753 -2.79926 0
M  V30 7442 H 719.996 -3.55271 -1.35965 0
M  V30 7443 H 721.308 -4.57557 -1.98603 0
M  V30 7444 H 720.462 -4.25939 -4.32042 0
M  V30 7445 H 719.201 -3.13918 -3.73238 0
M  V30 7446 H 718.206 -4.97547 -2.33938 0
M  V30 7447 H 719.431 -6.11343 -2.95697 0
M  V30 7448 H 717.377 -4.63346 -4.64378 0
M  V30 7449 H 717.294 -6.30073 -4.17785 0
M  V30 7450 H 718.562 -5.76943 -5.24173 0
M  V30 7451 N 722.791 0.367657 -1.53252 0
M  V30 7452 C 723.738 1.45028 -1.79543 0
M  V30 7453 C 724.708 1.53288 -0.63969 0
M  V30 7454 O 725.893 1.69209 -0.881653 0
M  V30 7455 C 723.033 2.82 -1.98923 0
M  V30 7456 C 722.146 2.82722 -3.26638 0
M  V30 7457 C 721.281 4.11257 -3.36216 0
M  V30 7458 C 720.32 4.06113 -4.57972 0
M  V30 7459 N 719.457 5.26293 -4.64715 0
M  V30 7460 H 724.297 1.21908 -2.71923 0
M  V30 7461 H 721.834 0.591011 -1.34705 0
M  V30 7462 H 723.792 3.61568 -2.08146 0
M  V30 7463 H 722.422 3.03523 -1.09881 0
M  V30 7464 H 721.474 1.95399 -3.26379 0
M  V30 7465 H 722.786 2.74794 -4.16281 0
M  V30 7466 H 721.94 4.99239 -3.44739 0
M  V30 7467 H 720.679 4.21935 -2.44586 0
M  V30 7468 H 719.684 3.16517 -4.49552 0
M  V30 7469 H 720.909 3.97039 -5.50942 0
M  V30 7470 H 718.855 5.37561 -3.75985 0
M  V30 7471 H 718.772 5.20526 -5.4826 0
M  V30 7472 H 720.04 6.16113 -4.77519 0
M  V30 7473 N 724.269 1.44576 0.627338 0
M  V30 7474 C 725.499 1.50829 1.41189 0
M  V30 7475 C 725.907 0.133083 1.88731 0
M  V30 7476 O 725.25 -0.87199 1.61685 0
M  V30 7477 C 725.312 2.41449 2.66351 0
M  V30 7478 C 724.976 3.88549 2.40579 0
M  V30 7479 C 725.973 4.78981 2.0217 0
M  V30 7480 C 723.658 4.33287 2.54102 0
M  V30 7481 C 725.652 6.12153 1.77618 0
M  V30 7482 C 723.339 5.66505 2.29163 0
M  V30 7483 C 724.337 6.55756 1.9098 0
M  V30 7484 O 724.025 7.86506 1.66321 0
M  V30 7485 H 723.757 0.513797 0.439304 0
M  V30 7486 H 726.311 1.90256 0.774059 0
M  V30 7487 H 724.541 1.96955 3.32784 0
M  V30 7488 H 726.23 2.38608 3.28361 0
M  V30 7489 H 726.996 4.45689 1.91277 0
M  V30 7490 H 722.875 3.64074 2.82792 0
M  V30 7491 H 726.419 6.81776 1.47739 0
M  V30 7492 H 722.316 5.99358 2.39668 0
M  V30 7493 H 723.084 7.98341 1.80536 0
M  V30 7494 N 725.747 -0.868086 1.31537 0
M  V30 7495 C 726.995 -1.61807 1.21091 0
M  V30 7496 C 727.316 -1.93631 -0.230623 0
M  V30 7497 O 726.586 -1.5846 -1.15183 0
M  V30 7498 H 725.166 -0.599854 0.445178 0
M  V30 7499 H 727.828 -1.03915 1.64887 0
M  V30 7500 H 726.924 -2.56088 1.78396 0
M  V30 7501 N 727.225 -1.14528 -1.08264 0
M  V30 7502 C 728.188 -0.83632 -2.13397 0
M  V30 7503 C 729.188 0.159715 -1.60005 0
M  V30 7504 O 730.378 -0.0688098 -1.74064 0
M  V30 7505 C 727.51 -0.246973 -3.40004 0
M  V30 7506 H 728.703 -1.76808 -2.42237 0
M  V30 7507 H 726.256 -0.951509 -1.24 0
M  V30 7508 H 726.991 0.693436 -3.168 0
M  V30 7509 H 726.776 -0.964412 -3.80055 0
M  V30 7510 H 728.266 -0.0480679 -4.17572 0
M  V30 7511 N 728.703 1.26451 -0.940633 0
M  V30 7512 C 729.666 2.24651 -0.454378 0
M  V30 7513 C 730.666 1.54826 0.434222 0
M  V30 7514 O 731.856 1.72628 0.233477 0
M  V30 7515 C 728.988 3.39148 0.345192 0
M  V30 7516 H 730.181 2.69182 -1.32217 0
M  V30 7517 H 727.734 1.38596 -0.722547 0
M  V30 7518 H 728.469 3.00018 1.23125 0
M  V30 7519 H 728.254 3.9101 -0.292107 0
M  V30 7520 H 729.744 4.12103 0.675341 0
M  V30 7521 N 730.181 0.707592 1.40822 0
M  V30 7522 C 731.114 -0.000859377 2.282 0
M  V30 7523 C 732.092 -0.7758 1.42899 0
M  V30 7524 O 733.276 -0.76411 1.72318 0
M  V30 7525 C 730.403 -1.00861 3.23334 0
M  V30 7526 C 729.449 -0.32543 4.25257 0
M  V30 7527 S 730.282 0.940908 5.27169 0
M  V30 7528 C 731.438 -0.0649459 6.25866 0
M  V30 7529 H 731.671 0.740207 2.87938 0
M  V30 7530 H 729.204 0.498311 1.46138 0
M  V30 7531 H 731.162 -1.58485 3.78672 0
M  V30 7532 H 729.823 -1.72233 2.62668 0
M  V30 7533 H 729.016 -1.08697 4.92139 0
M  V30 7534 H 728.618 0.178044 3.73576 0
M  V30 7535 H 730.91 -0.914377 6.71301 0
M  V30 7536 H 731.853 0.570276 7.058 0
M  V30 7537 H 732.261 -0.425098 5.62897 0
M  V30 7538 N 731.66 -1.50943 0.453197 0
M  V30 7539 C 732.906 -2.02512 -0.108082 0
M  V30 7540 C 733.239 -1.33574 -1.40967 0
M  V30 7541 O 732.514 -0.455671 -1.89087 0
M  V30 7542 C 732.797 -3.58759 -0.310453 0
M  V30 7543 C 732.65 -4.38293 1.0109 0
M  V30 7544 C 733.969 -4.26816 -1.07313 0
M  V30 7545 H 731.088 -0.73603 -0.0378064 0
M  V30 7546 H 733.73 -1.80433 0.595295 0
M  V30 7547 H 731.88 -3.77702 -0.909582 0
M  V30 7548 H 733.552 -4.30964 1.64523 0
M  V30 7549 H 731.795 -4.02745 1.61179 0
M  V30 7550 H 732.466 -5.45828 0.82315 0
M  V30 7551 H 734.942 -4.1224 -0.565473 0
M  V30 7552 H 733.818 -5.35989 -1.1835 0
M  V30 7553 H 734.079 -3.88757 -2.10525 0
M  V30 7554 N 733.138 -0.185124 -1.56509 0
M  V30 7555 C 734.384 0.456934 -1.97585 0
M  V30 7556 C 734.717 1.61957 -1.07161 0
M  V30 7557 O 733.992 1.9412 -0.121546 0
M  V30 7558 C 734.275 0.926666 -3.47973 0
M  V30 7559 C 734.128 -0.237097 -4.49175 0
M  V30 7560 C 735.447 1.79561 -4.01803 0
M  V30 7561 H 732.566 0.164619 -0.71838 0
M  V30 7562 H 735.208 -0.274039 -1.88013 0
M  V30 7563 H 733.358 1.54954 -3.56261 0
M  V30 7564 H 735.03 -0.87454 -4.52934 0
M  V30 7565 H 733.273 -0.890446 -4.24563 0
M  V30 7566 H 733.944 0.133924 -5.51838 0
M  V30 7567 H 736.42 1.27039 -3.96232 0
M  V30 7568 H 735.296 2.09327 -5.07418 0
M  V30 7569 H 735.557 2.74629 -3.46455 0
M  V30 7570 N 734.616 1.57351 0.0885366 0
M  V30 7571 C 735.549 1.97786 1.13825 0
M  V30 7572 C 736.527 0.852091 1.38485 0
M  V30 7573 O 737.711 1.11296 1.52137 0
M  V30 7574 C 734.838 2.30024 2.48609 0
M  V30 7575 C 733.884 3.52437 2.40189 0
M  V30 7576 S 734.717 5.03908 1.81209 0
M  V30 7577 C 735.873 5.39331 3.17605 0
M  V30 7578 H 736.106 2.86513 0.793587 0
M  V30 7579 H 733.639 1.51527 0.29646 0
M  V30 7580 H 735.597 2.49274 3.26148 0
M  V30 7581 H 734.258 1.41856 2.80242 0
M  V30 7582 H 733.451 3.72457 3.39546 0
M  V30 7583 H 733.053 3.32731 1.70781 0
M  V30 7584 H 735.345 5.36378 4.13891 0
M  V30 7585 H 736.288 6.4029 3.02381 0
M  V30 7586 H 736.696 4.6679 3.17438 0
M  V30 7587 N 736.094 -0.359525 1.53444 0
M  V30 7588 C 737.057 -1.42357 1.7963 0
M  V30 7589 C 738.057 -1.46319 0.666884 0
M  V30 7590 O 739.247 -1.46974 0.935113 0
M  V30 7591 C 736.379 -2.81425 1.92387 0
M  V30 7592 H 737.572 -1.20409 2.74666 0
M  V30 7593 H 735.125 -0.593007 1.44614 0
M  V30 7594 H 735.86 -3.08679 0.994384 0
M  V30 7595 H 735.645 -2.79947 2.74539 0
M  V30 7596 H 737.135 -3.5847 2.14218 0
M  V30 7597 N 737.572 -1.44907 -0.619662 0
M  V30 7598 C 738.819 -1.48292 -1.37898 0
M  V30 7599 C 739.147 -0.119933 -1.9413 0
M  V30 7600 O 738.402 0.879834 -1.74807 0
M  V30 7601 C 738.701 -2.50002 -2.55409 0
M  V30 7602 C 738.367 -3.95031 -2.17397 0
M  V30 7603 C 737.029 -4.34524 -2.06743 0
M  V30 7604 C 739.381 -4.86287 -1.87548 0
M  V30 7605 C 736.709 -5.63183 -1.64445 0
M  V30 7606 C 739.061 -6.15346 -1.4674 0
M  V30 7607 C 737.725 -6.53781 -1.34636 0
M  V30 7608 H 736.995 -0.542638 -0.504603 0
M  V30 7609 H 739.642 -1.78186 -0.701581 0
M  V30 7610 H 737.947 -2.13634 -3.28433 0
M  V30 7611 H 739.644 -2.49864 -3.13639 0
M  V30 7612 H 736.234 -3.63793 -2.26611 0
M  V30 7613 H 740.418 -4.56522 -1.94682 0
M  V30 7614 H 735.674 -5.91769 -1.53687 0
M  V30 7615 H 739.848 -6.85508 -1.22685 0
M  V30 7616 H 737.475 -7.53375 -1.01634 0
M  V30 7617 N 739.05 0.861098 -1.31996 0
M  V30 7618 C 740.327 1.59788 -1.12814 0
M  V30 7619 C 740.707 2.08753 0.313882 0
M  V30 7620 O 740.055 1.87258 1.30946 0
M  V30 7621 C 740.265 2.74901 -2.15012 0
M  V30 7622 C 741.613 3.44643 -2.48004 0
M  V30 7623 O 742.637 2.85119 -2.13508 0
M  V30 7624 O 741.496 4.52044 -3.07113 0
M  V30 7625 H 738.59 0.703408 -0.434909 0
M  V30 7626 H 741.136 0.905788 -1.43505 0
M  V30 7627 H 739.908 2.36198 -3.11971 0
M  V30 7628 H 739.531 3.51792 -1.85279 0
M  V30 7629 N 740.528 1.15101 1.07655 0
M  V30 7630 C 741.438 0.858869 2.18313 0
M  V30 7631 C 742.454 -0.163641 1.73229 0
M  V30 7632 O 743.63 0.00969541 2.01398 0
M  V30 7633 C 740.695 0.34893 3.4494 0
M  V30 7634 C 739.756 1.43495 4.04608 0
M  V30 7635 C 738.989 0.949253 5.2519 0
M  V30 7636 O 739.212 -0.20636 5.70027 0
M  V30 7637 O 738.146 1.73161 5.76454 0
M  V30 7638 H 741.972 1.78386 2.45788 0
M  V30 7639 H 739.557 0.929876 1.16934 0
M  V30 7640 H 741.439 0.070851 4.2134 0
M  V30 7641 H 740.114 -0.548237 3.19024 0
M  V30 7642 H 739.021 1.7666 3.29761 0
M  V30 7643 H 740.354 2.30692 4.3479 0
M  V30 7644 N 742.006 -1.2595 0.947325 0
M  V30 7645 C 742.916 -2.29883 0.468079 0
M  V30 7646 C 743.932 -1.67783 -0.460975 0
M  V30 7647 O 745.108 -1.98526 -0.339006 0
M  V30 7648 C 742.173 -3.45773 -0.253315 0
M  V30 7649 C 741.234 -4.23337 0.713054 0
M  V30 7650 C 740.467 -5.33694 0.025993 0
M  V30 7651 O 740.69 -5.57853 -1.18978 0
M  V30 7652 O 739.624 -5.97724 0.70782 0
M  V30 7653 H 743.45 -2.72952 1.33156 0
M  V30 7654 H 741.035 -1.31263 0.713468 0
M  V30 7655 H 742.917 -4.16209 -0.659423 0
M  V30 7656 H 741.592 -3.04721 -1.09209 0
M  V30 7657 H 740.499 -3.55359 1.16923 0
M  V30 7658 H 741.832 -4.68154 1.51963 0
M  V30 7659 N 743.484 -0.715051 -1.40445 0
M  V30 7660 C 744.732 -0.253826 -2.005 0
M  V30 7661 C 745.053 1.15681 -1.5698 0
M  V30 7662 O 744.323 1.78414 -0.809027 0
M  V30 7663 H 742.903 -0.0908537 -0.741454 0
M  V30 7664 H 745.565 -0.920561 -1.7179 0
M  V30 7665 H 744.661 -0.286499 -3.10782 0
M  V30 7666 N 744.962 1.50701 -0.461195 0
M  V30 7667 C 745.894 2.26124 0.374244 0
M  V30 7668 C 746.907 1.31064 0.965715 0
M  V30 7669 O 748.096 1.56647 0.855801 0
M  V30 7670 C 745.196 3.01996 1.5379 0
M  V30 7671 C 744.369 4.24336 1.06101 0
M  V30 7672 C 743.428 4.82585 2.09756 0
M  V30 7673 O 742.454 5.43775 1.68219 0
M  V30 7674 N 743.656 4.68712 3.42475 0
M  V30 7675 H 746.421 2.9846 -0.2723 0
M  V30 7676 H 743.982 1.59256 -0.291415 0
M  V30 7677 H 745.974 3.37846 2.22806 0
M  V30 7678 H 744.544 2.32521 2.08933 0
M  V30 7679 H 743.764 3.93707 0.197085 0
M  V30 7680 H 745.052 5.03678 0.720156 0
M  V30 7681 H 744.45 4.20026 3.78938 0
M  V30 7682 H 743.007 5.08858 4.07317 0
M  V30 7683 N 746.441 0.193421 1.56409 0
M  V30 7684 C 747.404 -0.714371 2.17783 0
M  V30 7685 C 748.404 -1.1422 1.13183 0
M  V30 7686 O 749.594 -1.05557 1.38576 0
M  V30 7687 C 746.726 -1.97509 2.77855 0
M  V30 7688 H 747.919 -0.179714 2.99361 0
M  V30 7689 H 745.472 -0.0561944 1.56199 0
M  V30 7690 H 746.207 -2.5523 2.0007 0
M  V30 7691 H 745.992 -1.67706 3.54425 0
M  V30 7692 H 747.482 -2.62246 3.24987 0
M  V30 7693 N 747.919 -1.57396 -0.0801906 0
M  V30 7694 C 749.147 -1.91055 -0.794075 0
M  V30 7695 C 749.562 -0.788583 -1.71542 0
M  V30 7696 O 748.919 0.238587 -1.80934 0
M  V30 7697 C 748.97 -3.24418 -1.59484 0
M  V30 7698 O 748.691 -4.323 -0.710532 0
M  V30 7699 C 750.192 -3.72037 -2.41046 0
M  V30 7700 H 747.412 -0.63171 -0.226238 0
M  V30 7701 H 749.956 -2.04431 -0.0529685 0
M  V30 7702 H 748.111 -3.12595 -2.2883 0
M  V30 7703 H 748.525 -5.08976 -1.26663 0
M  V30 7704 H 749.999 -4.68006 -2.92702 0
M  V30 7705 H 750.476 -3.00624 -3.2019 0
M  V30 7706 H 751.082 -3.86777 -1.76871 0
M  V30 7707 N 749.397 0.351382 -1.53633 0
M  V30 7708 C 750.307 1.45471 -1.84052 0
M  V30 7709 C 751.323 1.57945 -0.730015 0
M  V30 7710 O 752.499 1.73571 -1.02153 0
M  V30 7711 C 749.564 2.80562 -2.03681 0
M  V30 7712 C 748.625 2.77497 -3.27558 0
M  V30 7713 C 747.858 4.06144 -3.46241 0
M  V30 7714 O 748.081 5.03028 -2.68922 0
M  V30 7715 O 747.015 4.11092 -4.39645 0
M  V30 7716 H 750.841 1.22684 -2.77817 0
M  V30 7717 H 748.426 0.542827 -1.3919 0
M  V30 7718 H 750.308 3.6058 -2.18082 0
M  V30 7719 H 748.983 3.03296 -1.13106 0
M  V30 7720 H 747.89 1.96126 -3.18568 0
M  V30 7721 H 749.223 2.59716 -4.18101 0
M  V30 7722 N 750.875 1.45233 0.611969 0
M  V30 7723 C 752.103 1.52539 1.39784 0
M  V30 7724 C 752.518 0.156533 1.8815 0
M  V30 7725 O 751.875 -0.84112 1.61961 0
M  V30 7726 C 751.926 2.50614 2.60528 0
M  V30 7727 O 751.647 3.8218 2.14173 0
M  V30 7728 C 753.148 2.67574 3.53439 0
M  V30 7729 H 750.368 0.51674 0.428043 0
M  V30 7730 H 752.912 1.90379 0.746727 0
M  V30 7731 H 751.067 2.15858 3.2169 0
M  V30 7732 H 751.481 4.35305 2.92592 0
M  V30 7733 H 752.955 3.40184 4.34717 0
M  V30 7734 H 753.432 1.73458 4.03496 0
M  V30 7735 H 754.038 3.0331 2.98133 0
M  V30 7736 N 752.353 -0.854086 1.3245 0
M  V30 7737 C 753.63 -1.59188 1.1366 0
M  V30 7738 C 754.01 -2.08917 -0.302807 0
M  V30 7739 O 753.358 -1.8795 -1.29951 0
M  V30 7740 C 753.568 -2.73757 2.16467 0
M  V30 7741 C 754.916 -3.43323 2.49829 0
M  V30 7742 O 755.94 -2.83983 2.15017 0
M  V30 7743 O 754.799 -4.50409 3.09506 0
M  V30 7744 H 751.893 -0.701092 0.438633 0
M  V30 7745 H 754.439 -0.898165 1.43983 0
M  V30 7746 H 753.211 -2.3454 3.1322 0
M  V30 7747 H 752.834 -3.50804 1.87142 0
M  V30 7748 N 753.831 -1.1567 -1.07043 0
M  V30 7749 C 755.059 -0.957471 -1.83412 0
M  V30 7750 C 755.474 0.494271 -1.82215 0
M  V30 7751 O 754.831 1.34288 -1.23584 0
M  V30 7752 C 754.882 -1.46784 -3.30359 0
M  V30 7753 O 754.603 -2.86271 -3.31633 0
M  V30 7754 C 756.104 -1.31054 -4.23485 0
M  V30 7755 H 753.324 -0.33986 -0.578564 0
M  V30 7756 H 755.868 -1.53518 -1.35102 0
M  V30 7757 H 754.023 -0.932586 -3.76007 0
M  V30 7758 H 754.437 -3.0948 -4.23465 0
M  V30 7759 H 755.911 -1.71605 -5.24648 0
M  V30 7760 H 756.388 -0.255107 -4.38458 0
M  V30 7761 H 756.994 -1.83503 -3.83676 0
M  V30 7762 N 755.309 1.25446 -0.953992 0
M  V30 7763 C 756.256 2.25912 -0.472485 0
M  V30 7764 C 757.226 1.59173 0.47469 0
M  V30 7765 O 758.411 1.86812 0.388082 0
M  V30 7766 C 755.551 3.44235 0.244218 0
M  V30 7767 C 754.664 4.25613 -0.740121 0
M  V30 7768 C 753.799 5.312 -0.000922267 0
M  V30 7769 C 752.838 6.04265 -0.976236 0
M  V30 7770 N 751.975 7.01589 -0.267952 0
M  V30 7771 H 756.815 2.66469 -1.3341 0
M  V30 7772 H 754.352 1.31005 -0.669045 0
M  V30 7773 H 756.31 4.11682 0.676314 0
M  V30 7774 H 754.94 3.04554 1.06988 0
M  V30 7775 H 753.992 3.57834 -1.2907 0
M  V30 7776 H 755.304 4.762 -1.48441 0
M  V30 7777 H 754.458 6.04719 0.48984 0
M  V30 7778 H 753.197 4.81484 0.776159 0
M  V30 7779 H 752.202 5.29561 -1.478 0
M  V30 7780 H 753.427 6.5607 -1.75354 0
M  V30 7781 H 751.373 6.54164 0.490403 0
M  V30 7782 H 751.29 7.4999 -0.951344 0
M  V30 7783 H 752.558 7.7924 0.201294 0
M  V30 7784 N 756.787 0.722489 1.40064 0
M  V30 7785 C 758.036 0.261932 1.99992 0
M  V30 7786 C 758.349 -1.15358 1.57961 0
M  V30 7787 O 759.555 -1.71301 2.10637 0
M  V30 7788 C 758.011 0.41737 3.57472 0
M  V30 7789 C 757.619 1.83997 4.08472 0
M  V30 7790 C 759.363 0.0179561 4.24496 0
M  V30 7791 C 757.27 1.94563 5.5848 0
M  V30 7792 H 756.2 0.0941768 0.748095 0
M  V30 7793 H 758.851 0.894572 1.60218 0
M  V30 7794 H 757.233 -0.283965 3.94981 0
M  V30 7795 H 758.407 2.57224 3.82325 0
M  V30 7796 H 756.722 2.19147 3.54067 0
M  V30 7797 H 759.319 0.076085 5.34646 0
M  V30 7798 H 759.662 -1.02498 4.03485 0
M  V30 7799 H 760.195 0.669988 3.92117 0
M  V30 7800 H 756.934 2.97001 5.84355 0
M  V30 7801 H 756.454 1.25756 5.86469 0
M  V30 7802 H 758.133 1.72095 6.23692 0
M  V30 7803 N 758.265 -1.50454 0.469181 0
M  V30 7804 C 759.681 -1.59124 0.123226 0
M  V30 7805 C 759.881 -1.47749 -1.37013 0
M  V30 7806 O 758.937 -1.335 -2.14322 0
M  V30 7807 C 760.25 -2.93101 0.67172 0
M  V30 7808 C 761.798 -3.06491 0.634978 0
M  V30 7809 C 762.273 -4.43041 1.16098 0
M  V30 7810 N 763.764 -4.49448 1.12031 0
M  V30 7811 C 764.499 -5.53491 1.49784 0
M  V30 7812 N 763.995 -6.64798 1.94976 0
M  V30 7813 N 765.788 -5.44025 1.41399 0
M  V30 7814 H 757.939 -1.56091 1.44046 0
M  V30 7815 H 760.202 -0.737564 0.59557 0
M  V30 7816 H 759.908 -3.06895 1.7178 0
M  V30 7817 H 759.782 -3.77027 0.114222 0
M  V30 7818 H 762.169 -2.92346 -0.402187 0
M  V30 7819 H 762.25 -2.24328 1.22926 0
M  V30 7820 H 761.894 -4.57935 2.19677 0
M  V30 7821 H 761.824 -5.23794 0.542939 0
M  V30 7822 H 764.315 -3.69575 0.788828 0
M  V30 7823 H 764.628 -7.40246 2.21936 0
M  V30 7824 H 762.973 -6.65923 1.98927 0
M  V30 7825 H 766.164 -4.55955 1.05935 0
M  V30 7826 H 766.337 -6.2499 1.71147 0
M  V30 7827 N 759.743 -0.201713 -1.56304 0
M  V30 7828 C 760.989 0.435952 -1.98059 0
M  V30 7829 C 761.322 1.60811 -1.08873 0
M  V30 7830 O 760.597 1.9398 -0.142128 0
M  V30 7831 C 760.88 0.889706 -3.48936 0
M  V30 7832 C 760.733 -0.284725 -4.48898 0
M  V30 7833 C 762.052 1.7529 -4.03685 0
M  V30 7834 H 759.171 0.15699 -0.720085 0
M  V30 7835 H 761.813 -0.293965 -1.87712 0
M  V30 7836 H 759.963 1.51166 -3.57884 0
M  V30 7837 H 761.635 -0.922531 -4.51981 0
M  V30 7838 H 759.878 -0.935427 -4.23594 0
M  V30 7839 H 760.549 0.0753865 -5.51949 0
M  V30 7840 H 763.025 1.2283 -3.97558 0
M  V30 7841 H 761.901 2.03933 -5.0961 0
M  V30 7842 H 762.162 2.70939 -3.49348 0
M  V30 7843 N 761.222 1.57436 0.0718424 0
M  V30 7844 C 762.462 1.89082 0.776351 0
M  V30 7845 C 762.826 0.795494 1.74745 0
M  V30 7846 O 764.027 0.995025 2.49705 0
M  V30 7847 C 762.298 3.25958 1.46582 0
M  V30 7848 S 763.857 3.79352 2.2054 0
M  V30 7849 H 760.675 0.662472 0.25817 0
M  V30 7850 H 763.277 1.95473 0.0324536 0
M  V30 7851 H 761.981 4.03577 0.745237 0
M  V30 7852 H 761.512 3.22764 2.24915 0
M  V30 7853 H 763.527 3.54634 3.47058 0
M  V30 7854 N 762.7 -0.34323 1.53817 0
M  V30 7855 C 763.928 -1.10348 1.75017 0
M  V30 7856 C 764.343 -1.82345 0.489475 0
M  V30 7857 O 763.7 -1.74362 -0.538886 0
M  V30 7858 C 763.751 -2.11672 2.93048 0
M  V30 7859 O 763.472 -1.42603 4.14241 0
M  V30 7860 C 764.973 -3.0007 3.26301 0
M  V30 7861 H 762.193 -0.329056 0.584776 0
M  V30 7862 H 764.737 -0.395339 2.00642 0
M  V30 7863 H 762.892 -2.78051 2.69753 0
M  V30 7864 H 763.306 -2.10294 4.80496 0
M  V30 7865 H 764.78 -3.67101 4.12239 0
M  V30 7866 H 765.257 -3.66105 2.42618 0
M  V30 7867 H 765.863 -2.3928 3.51604 0
M  V30 7868 N 764.178 -1.45556 -0.604258 0
M  V30 7869 C 765.594 -1.30035 -0.925368 0
M  V30 7870 C 765.794 -0.255833 -1.99869 0
M  V30 7871 O 764.85 0.349076 -2.50075 0
M  V30 7872 C 766.163 -2.68028 -1.36314 0
M  V30 7873 C 767.711 -2.75951 -1.47717 0
M  V30 7874 C 768.186 -4.14476 -1.94868 0
M  V30 7875 N 769.677 -4.16787 -2.02097 0
M  V30 7876 C 770.412 -5.20845 -2.39809 0
M  V30 7877 N 769.908 -6.35246 -2.76467 0
M  V30 7878 N 771.701 -5.08204 -2.40177 0
M  V30 7879 H 763.852 -2.1214 0.10512 0
M  V30 7880 H 766.115 -0.947871 -0.0156303 0
M  V30 7881 H 765.821 -3.45667 -0.648628 0
M  V30 7882 H 765.695 -2.96711 -2.329 0
M  V30 7883 H 768.082 -1.98613 -2.18258 0
M  V30 7884 H 768.163 -2.50977 -0.494371 0
M  V30 7885 H 767.807 -4.923 -1.24912 0
M  V30 7886 H 767.737 -4.36843 -2.94068 0
M  V30 7887 H 770.228 -3.34233 -1.76343 0
M  V30 7888 H 770.541 -7.10438 -3.04134 0
M  V30 7889 H 768.886 -6.38642 -2.74155 0
M  V30 7890 H 772.077 -4.17874 -2.10947 0
M  V30 7891 H 772.25 -5.89417 -2.69242 0
M  V30 7892 N 765.656 0.84705 -1.32902 0
M  V30 7893 C 766.619 1.9378 -1.224 0
M  V30 7894 C 767.619 1.60144 -0.145108 0
M  V30 7895 O 768.809 1.69638 -0.396058 0
M  V30 7896 C 765.941 3.29234 -0.884174 0
M  V30 7897 H 767.134 2.04518 -2.19345 0
M  V30 7898 H 764.687 1.03816 -1.16842 0
M  V30 7899 H 765.422 3.24193 0.0831277 0
M  V30 7900 H 765.207 3.55026 -1.6643 0
M  V30 7901 H 766.697 4.09162 -0.835226 0
M  V30 7902 N 767.134 1.16236 1.06428 0
M  V30 7903 C 768.364 0.965782 1.82637 0
M  V30 7904 C 768.772 -0.489284 1.82764 0
M  V30 7905 O 768.115 -1.35133 1.24438 0
M  V30 7906 C 768.177 1.41458 3.30499 0
M  V30 7907 C 767.841 2.88926 3.54077 0
M  V30 7908 C 768.838 3.86939 3.47238 0
M  V30 7909 C 766.523 3.26814 3.81442 0
M  V30 7910 C 768.517 5.20841 3.67428 0
M  V30 7911 C 766.204 4.60886 4.01282 0
M  V30 7912 C 767.202 5.57708 3.94272 0
M  V30 7913 O 766.89 6.89357 4.13573 0
M  V30 7914 H 766.622 0.342569 0.582772 0
M  V30 7915 H 769.176 1.54641 1.35187 0
M  V30 7916 H 767.406 0.777426 3.78805 0
M  V30 7917 H 769.095 1.18563 3.88198 0
M  V30 7918 H 769.861 3.59014 3.26089 0
M  V30 7919 H 765.74 2.5203 3.86008 0
M  V30 7920 H 769.284 5.96401 3.61873 0
M  V30 7921 H 765.181 4.88522 4.21921 0
M  V30 7922 H 765.949 6.95913 4.30869 0
M  V30 7923 N 768.612 -1.24939 0.960631 0
M  V30 7924 C 769.562 -2.23388 0.456266 0
M  V30 7925 C 770.546 -1.54249 -0.45782 0
M  V30 7926 O 771.738 -1.7461 -0.289894 0
M  V30 7927 C 768.867 -3.42321 -0.259024 0
M  V30 7928 C 767.953 -4.18718 0.673478 0
M  V30 7929 N 768.344 -4.72394 1.8077 0
M  V30 7930 C 766.642 -4.43378 0.482859 0
M  V30 7931 C 767.343 -5.30316 2.3904 0
M  V30 7932 N 766.319 -5.17109 1.67629 0
M  V30 7933 H 770.121 -2.62499 1.32179 0
M  V30 7934 H 767.635 -1.40245 0.818851 0
M  V30 7935 H 769.632 -4.11997 -0.637527 0
M  V30 7936 H 768.292 -3.04732 -1.12108 0
M  V30 7937 H 769.303 -4.69345 2.18942 0
M  V30 7938 H 765.98 -4.16147 -0.335821 0
M  V30 7939 H 767.37 -5.82594 3.34715 0
M  V30 7940 N 770.09 -0.729906 -1.39679 0
M  V30 7941 C 771.02 -0.101618 -2.33279 0
M  V30 7942 C 772.001 0.729854 -1.53646 0
M  V30 7943 O 773.186 0.67587 -1.82059 0
M  V30 7944 C 770.316 0.81024 -3.37716 0
M  V30 7945 C 769.27 0.0833126 -4.27919 0
M  V30 7946 C 768.596 1.11185 -5.23012 0
M  V30 7947 C 769.896 -1.07107 -5.112 0
M  V30 7948 H 771.59 -0.883452 -2.86069 0
M  V30 7949 H 769.136 -0.426283 -1.37546 0
M  V30 7950 H 771.089 1.25927 -4.02145 0
M  V30 7951 H 769.813 1.62413 -2.83354 0
M  V30 7952 H 768.472 -0.346043 -3.64963 0
M  V30 7953 H 768.12 1.91917 -4.64948 0
M  V30 7954 H 767.82 0.63026 -5.8421 0
M  V30 7955 H 769.344 1.56068 -5.90318 0
M  V30 7956 H 770.758 -0.700726 -5.69002 0
M  V30 7957 H 769.155 -1.48196 -5.81514 0
M  V30 7958 H 770.225 -1.89513 -4.46332 0
M  V30 7959 N 771.568 1.50203 -0.477153 0
M  V30 7960 C 772.498 2.31517 0.303646 0
M  V30 7961 C 773.479 1.38696 0.984753 0
M  V30 7962 O 774.664 1.67615 0.980758 0
M  V30 7963 C 771.794 3.18598 1.38249 0
M  V30 7964 C 770.748 4.2002 0.822645 0
M  V30 7965 C 770.074 4.95878 2.00024 0
M  V30 7966 C 771.374 5.22023 -0.170185 0
M  V30 7967 H 773.068 2.97042 -0.375027 0
M  V30 7968 H 770.614 1.42848 -0.181802 0
M  V30 7969 H 772.567 3.74282 1.93625 0
M  V30 7970 H 771.291 2.5097 2.09002 0
M  V30 7971 H 769.95 3.65445 0.290813 0
M  V30 7972 H 769.598 4.24717 2.69489 0
M  V30 7973 H 769.298 5.64487 1.63183 0
M  V30 7974 H 770.822 5.54399 2.55878 0
M  V30 7975 H 772.236 5.72543 0.294606 0
M  V30 7976 H 770.633 5.98386 -0.453181 0
M  V30 7977 H 771.703 4.72396 -1.09408 0
M  V30 7978 N 773.046 0.209999 1.56195 0
M  V30 7979 C 774.292 -0.425442 1.98287 0
M  V30 7980 C 774.625 -1.60232 1.09724 0
M  V30 7981 O 773.9 -1.93902 0.152414 0
M  V30 7982 C 774.183 -0.871189 3.49403 0
M  V30 7983 C 774.036 0.308527 4.48741 0
M  V30 7984 C 775.355 -1.73146 4.04609 0
M  V30 7985 H 772.474 -0.153169 0.720908 0
M  V30 7986 H 775.116 0.303916 1.87554 0
M  V30 7987 H 773.266 -1.49266 3.58681 0
M  V30 7988 H 774.938 0.946487 4.51486 0
M  V30 7989 H 773.181 0.957878 4.23092 0
M  V30 7990 H 773.852 -0.0461143 5.51981 0
M  V30 7991 H 776.328 -1.2072 3.98203 0
M  V30 7992 H 775.204 -2.01228 5.10684 0
M  V30 7993 H 775.465 -2.69083 3.5078 0
M  V30 7994 N 774.524 -1.57472 -0.0634922 0
M  V30 7995 C 775.471 -2.04258 -1.07457 0
M  V30 7996 C 776.441 -0.924804 -1.37973 0
M  V30 7997 O 777.626 -1.19305 -1.48899 0
M  V30 7998 C 774.766 -2.49832 -2.38071 0
M  V30 7999 C 773.879 -3.75263 -2.14014 0
M  V30 8000 C 773.014 -4.09585 -3.38251 0
M  V30 8001 C 772.053 -5.28032 -3.09594 0
M  V30 8002 N 771.19 -5.57953 -4.26185 0
M  V30 8003 H 776.03 -2.90402 -0.668626 0
M  V30 8004 H 773.567 -1.43609 -0.318572 0
M  V30 8005 H 775.525 -2.7431 -3.14341 0
M  V30 8006 H 774.155 -1.66654 -2.76453 0
M  V30 8007 H 773.207 -3.58075 -1.28399 0
M  V30 8008 H 774.519 -4.61667 -1.88852 0
M  V30 8009 H 773.673 -4.35008 -4.2291 0
M  V30 8010 H 772.412 -3.21765 -3.66495 0
M  V30 8011 H 771.417 -5.02397 -2.23332 0
M  V30 8012 H 772.642 -6.17477 -2.82663 0
M  V30 8013 H 770.588 -4.73092 -4.54445 0
M  V30 8014 H 770.505 -6.38793 -4.04326 0
M  V30 8015 H 771.773 -5.87931 -5.11817 0
M  V30 8016 N 776.003 0.335068 -1.53997 0
M  V30 8017 C 776.95 1.41187 -1.82579 0
M  V30 8018 C 777.92 1.51897 -0.672061 0
M  V30 8019 O 779.105 1.673 -0.917346 0
M  V30 8020 C 776.245 2.77717 -2.0486 0
M  V30 8021 C 775.358 2.7573 -3.32561 0
M  V30 8022 C 774.493 4.04032 -3.44864 0
M  V30 8023 C 773.532 3.96308 -4.66483 0
M  V30 8024 N 772.669 5.16317 -4.75774 0
M  V30 8025 H 777.509 1.16113 -2.74448 0
M  V30 8026 H 775.046 0.562305 -1.35928 0
M  V30 8027 H 777.004 3.57071 -2.15768 0
M  V30 8028 H 775.634 3.01124 -1.16294 0
M  V30 8029 H 774.686 1.88432 -3.3045 0
M  V30 8030 H 775.998 2.65902 -4.22016 0
M  V30 8031 H 775.152 4.91814 -3.55251 0
M  V30 8032 H 773.891 4.16652 -2.53481 0
M  V30 8033 H 772.896 3.06911 -4.56164 0
M  V30 8034 H 774.121 3.85263 -5.5924 0
M  V30 8035 H 772.067 5.29464 -3.87303 0
M  V30 8036 H 771.984 5.08779 -5.59178 0
M  V30 8037 H 773.252 6.05846 -4.9048 0
M  V30 8038 N 777.481 1.45874 0.596531 0
M  V30 8039 C 778.411 1.5824 1.71705 0
M  V30 8040 C 779.392 0.433366 1.64487 0
M  V30 8041 O 780.577 0.657895 1.82717 0
M  V30 8042 C 777.707 1.55927 3.10329 0
M  V30 8043 C 776.661 2.69659 3.32367 0
M  V30 8044 C 775.987 2.52403 4.71377 0
M  V30 8045 C 777.287 4.11591 3.21544 0
M  V30 8046 H 778.981 2.52035 1.61613 0
M  V30 8047 H 776.527 1.21297 0.776082 0
M  V30 8048 H 778.48 1.63173 3.88526 0
M  V30 8049 H 777.204 0.586674 3.21288 0
M  V30 8050 H 775.863 2.61859 2.56564 0
M  V30 8051 H 775.511 1.53258 4.79083 0
M  V30 8052 H 775.211 3.28679 4.87077 0
M  V30 8053 H 776.735 2.6152 5.5176 0
M  V30 8054 H 778.149 4.20576 3.89601 0
M  V30 8055 H 776.546 4.88344 3.4877 0
M  V30 8056 H 777.616 4.32719 2.1882 0
M  V30 8057 N 778.959 -0.83999 1.33349 0
M  V30 8058 C 780.207 -1.59202 1.24496 0
M  V30 8059 C 780.528 -1.94077 -0.189499 0
M  V30 8060 O 779.798 -1.60868 -1.11796 0
M  V30 8061 H 778.378 -0.590276 0.457802 0
M  V30 8062 H 781.04 -1.00394 1.67054 0
M  V30 8063 H 780.136 -2.52247 1.83788 0
M  V30 8064 N 780.437 -1.16799 -1.0581 0
M  V30 8065 C 781.684 -0.952524 -1.78699 0
M  V30 8066 C 782.012 0.51931 -1.87439 0
M  V30 8067 O 781.267 1.40151 -1.36587 0
M  V30 8068 C 781.566 -1.53111 -3.22942 0
M  V30 8069 C 781.232 -3.0261 -3.34273 0
M  V30 8070 C 779.894 -3.43418 -3.37072 0
M  V30 8071 C 782.246 -3.98611 -3.35795 0
M  V30 8072 C 779.574 -4.78838 -3.39015 0
M  V30 8073 C 781.926 -5.33923 -3.39277 0
M  V30 8074 C 780.59 -5.74205 -3.40361 0
M  V30 8075 H 779.86 -0.348553 -0.653905 0
M  V30 8076 H 782.507 -1.45591 -1.244 0
M  V30 8077 H 780.812 -0.949286 -3.80126 0
M  V30 8078 H 782.509 -1.34002 -3.77948 0
M  V30 8079 H 779.099 -2.70075 -3.32803 0
M  V30 8080 H 783.283 -3.68146 -3.32839 0
M  V30 8081 H 778.539 -5.09369 -3.38161 0
M  V30 8082 H 782.713 -6.08094 -3.39403 0
M  V30 8083 H 780.34 -6.79117 -3.4162 0
M  V30 8084 N 781.915 1.24427 -0.967243 0
M  V30 8085 C 782.863 2.27403 -0.488927 0
M  V30 8086 C 783.857 1.63388 0.447302 0
M  V30 8087 O 785.063 1.77085 0.322643 0
M  V30 8088 H 781.438 0.738921 -0.139643 0
M  V30 8089 H 783.409 2.65122 -1.36942 0
M  V30 8090 C 782.158 3.4709 0.205787 0
M  V30 8091 H 781.481 3.96591 -0.50551 0
M  V30 8092 H 782.921 4.2099 0.504296 0
M  V30 8093 C 781.38 3.04923 1.43261 0
M  V30 8094 O 781.91 3.12043 2.52967 0
M  V30 8095 N 780.116 2.59976 1.29849 0
M  V30 8096 H 779.663 2.54382 0.405876 0
M  V30 8097 H 779.621 2.32128 2.12047 0
M  V30 8098 N 783.393 0.737304 1.3929 0
M  V30 8099 C 784.804 0.355966 1.83275 0
M  V30 8100 C 785.155 -1.11295 1.6158 0
M  V30 8101 O 784.28 -1.85871 1.10819 0
M  V30 8102 C 784.875 0.63931 3.32713 0
M  V30 8103 C 783.434 0.31144 3.75109 0
M  V30 8104 C 782.581 0.900765 2.62262 0
M  V30 8105 H 785.532 0.934763 1.28249 0
M  V30 8106 H 785.553 -0.0881293 3.80398 0
M  V30 8107 H 785.065 1.70847 3.48472 0
M  V30 8108 H 783.166 -0.751791 3.64937 0
M  V30 8109 H 783.279 0.795611 4.72448 0
M  V30 8110 H 781.643 0.327239 2.52589 0
M  V30 8111 H 782.426 1.97463 2.80826 0
M  V30 8112 N 784.871 -1.49948 0.485112 0
M  V30 8113 C 785.819 -2.30449 -0.315609 0
M  V30 8114 C 786.813 -1.38351 -0.977516 0
M  V30 8115 O 788.019 -1.55477 -0.907019 0
M  V30 8116 H 784.394 -0.742262 -0.120629 0
M  V30 8117 H 786.365 -2.95925 0.383552 0
M  V30 8118 C 785.114 -3.19283 -1.37673 0
M  V30 8119 H 784.437 -3.90067 -0.876801 0
M  V30 8120 H 785.877 -3.78579 -1.90929 0
M  V30 8121 C 784.336 -2.37817 -2.38631 0
M  V30 8122 O 784.866 -2.0711 -3.44192 0
M  V30 8123 N 783.072 -2.00135 -2.107 0
M  V30 8124 H 782.619 -2.25307 -1.24878 0
M  V30 8125 H 782.577 -1.45933 -2.7848 0
M  V30 8126 N 786.349 -0.21828 -1.56081 0
M  V30 8127 C 787.626 0.463143 -1.90038 0
M  V30 8128 C 788.006 1.77982 -1.13515 0
M  V30 8129 O 787.354 2.27199 -0.24345 0
M  V30 8130 C 787.564 0.659292 -3.42716 0
M  V30 8131 C 788.912 0.968203 -4.13414 0
M  V30 8132 O 789.936 0.746195 -3.48296 0
M  V30 8133 O 788.795 1.38936 -5.28544 0
M  V30 8134 H 785.889 0.244435 -0.790051 0
M  V30 8135 H 788.435 -0.260221 -1.67693 0
M  V30 8136 H 787.207 -0.269584 -3.9037 0
M  V30 8137 H 786.83 1.43426 -3.7083 0
M  V30 8138 N 787.827 1.57504 0.0551401 0
M  V30 8139 C 789.076 1.87237 0.750009 0
M  V30 8140 C 789.389 0.813268 1.77891 0
M  V30 8141 O 790.595 0.99898 2.52453 0
M  V30 8142 C 789.051 3.32187 1.38491 0
M  V30 8143 C 788.659 4.46267 0.393707 0
M  V30 8144 C 790.403 3.71101 2.06117 0
M  V30 8145 C 788.31 5.82265 1.03547 0
M  V30 8146 H 787.24 0.698524 0.283866 0
M  V30 8147 H 789.891 1.835 0.00365997 0
M  V30 8148 H 788.273 3.30588 2.18008 0
M  V30 8149 H 789.447 4.59289 -0.372865 0
M  V30 8150 H 787.762 4.16015 -0.17902 0
M  V30 8151 H 790.359 4.70012 2.54937 0
M  V30 8152 H 790.702 3.01751 2.86796 0
M  V30 8153 H 791.235 3.74762 1.33409 0
M  V30 8154 H 787.974 6.54949 0.268644 0
M  V30 8155 H 787.494 5.73012 1.7725 0
M  V30 8156 H 789.173 6.28148 1.55047 0
M  V30 8157 N 789.305 -0.326896 1.54172 0
M  V30 8158 C 790.554 -1.06274 1.71431 0
M  V30 8159 C 790.867 -1.89282 0.493123 0
M  V30 8160 O 792.073 -2.65933 0.54699 0
M  V30 8161 C 790.529 -1.93892 3.03206 0
M  V30 8162 C 790.137 -1.16011 4.32719 0
M  V30 8163 C 791.881 -2.67232 3.29829 0
M  V30 8164 C 789.788 -2.02755 5.55558 0
M  V30 8165 H 788.718 -0.400475 0.638855 0
M  V30 8166 H 791.369 -0.321184 1.80667 0
M  V30 8167 H 789.751 -2.71933 2.87869 0
M  V30 8168 H 790.925 -0.427643 4.58811 0
M  V30 8169 H 789.24 -0.54367 4.12836 0
M  V30 8170 H 791.837 -3.32434 4.18798 0
M  V30 8171 H 792.18 -3.34692 2.47562 0
M  V30 8172 H 792.713 -1.96255 3.46018 0
M  V30 8173 H 789.452 -1.3981 6.40417 0
M  V30 8174 H 788.972 -2.73745 5.33689 0
M  V30 8175 H 790.651 -2.61419 5.91835 0
M  V30 8176 N 790.784 -1.46188 -0.588786 0
M  V30 8177 C 792.031 -1.51184 -1.34721 0
M  V30 8178 C 792.359 -0.161084 -1.93832 0
M  V30 8179 O 791.614 0.842557 -1.76634 0
M  V30 8180 C 791.913 -2.55364 -2.50048 0
M  V30 8181 C 791.579 -3.99553 -2.08969 0
M  V30 8182 C 790.241 -4.38811 -1.9748 0
M  V30 8183 C 792.593 -4.90156 -1.77191 0
M  V30 8184 C 789.921 -5.66544 -1.52463 0
M  V30 8185 C 792.273 -6.1832 -1.33654 0
M  V30 8186 C 790.937 -6.5649 -1.20738 0
M  V30 8187 H 790.207 -0.55322 -0.49298 0
M  V30 8188 H 792.854 -1.79634 -0.663627 0
M  V30 8189 H 791.159 -2.20552 -3.23827 0
M  V30 8190 H 792.856 -2.5646 -3.08268 0
M  V30 8191 H 789.446 -3.68518 -2.18843 0
M  V30 8192 H 793.63 -4.60549 -1.84955 0
M  V30 8193 H 788.886 -5.94895 -1.411 0
M  V30 8194 H 793.06 -6.87956 -1.08117 0
M  V30 8195 H 790.687 -7.55362 -0.856307 0
M  V30 8196 N 792.262 0.832906 -1.33792 0
M  V30 8197 C 793.539 1.57359 -1.16178 0
M  V30 8198 C 793.919 2.09372 0.269532 0
M  V30 8199 O 793.267 1.89993 1.26944 0
M  V30 8200 C 793.477 2.70279 -2.20795 0
M  V30 8201 C 794.825 3.39305 -2.55259 0
M  V30 8202 O 795.849 2.80526 -2.19508 0
M  V30 8203 O 794.708 4.45428 -3.16632 0
M  V30 8204 H 791.802 0.694025 -0.449731 0
M  V30 8205 H 794.348 0.875144 -1.45394 0
M  V30 8206 H 793.12 2.29527 -3.16911 0
M  V30 8207 H 792.743 3.47782 -1.927 0
M  V30 8208 N 793.74 1.17359 1.05189 0
M  V30 8209 C 795.151 0.96793 1.5965 0
M  V30 8210 C 795.502 -0.485355 1.90102 0
M  V30 8211 O 794.627 -1.36066 1.6827 0
M  V30 8212 C 795.222 1.75068 2.90063 0
M  V30 8213 C 793.781 1.58969 3.41183 0
M  V30 8214 C 792.928 1.75231 2.14917 0
M  V30 8215 H 795.879 1.32067 0.880001 0
M  V30 8216 H 795.9 1.23308 3.59966 0
M  V30 8217 H 795.412 2.80835 2.67868 0
M  V30 8218 H 793.513 0.556906 3.68415 0
M  V30 8219 H 793.626 2.38067 4.15766 0
M  V30 8220 H 791.99 1.18073 2.25679 0
M  V30 8221 H 792.773 2.8241 1.95191 0
M  V30 8222 N 795.218 -1.23913 0.973828 0
M  V30 8223 C 796.166 -2.27141 0.50098 0
M  V30 8224 C 797.16 -1.63623 -0.438631 0
M  V30 8225 O 798.366 -1.77253 -0.313247 0
M  V30 8226 H 794.741 -0.73817 0.14356 0
M  V30 8227 H 796.712 -2.64392 1.38346 0
M  V30 8228 C 795.461 -3.47195 -0.187377 0
M  V30 8229 H 794.784 -3.96318 0.526535 0
M  V30 8230 H 796.224 -4.21252 -0.481962 0
M  V30 8231 C 794.683 -3.05678 -1.41642 0
M  V30 8232 O 795.213 -3.1338 -2.51309 0
M  V30 8233 N 793.419 -2.60661 -1.28469 0
M  V30 8234 H 792.966 -2.54594 -0.39238 0
M  V30 8235 H 792.924 -2.33249 -2.10813 0
M  V30 8236 N 796.696 -0.74468 -1.38897 0
M  V30 8237 C 797.945 -0.293716 -1.9955 0
M  V30 8238 C 798.258 1.12831 -1.59777 0
M  V30 8239 O 799.464 1.67929 -2.13336 0
M  V30 8240 C 797.92 -0.474188 -3.56762 0
M  V30 8241 C 797.528 -1.90472 -4.05493 0
M  V30 8242 C 799.272 -0.0854875 -4.24414 0
M  V30 8243 C 797.179 -2.03423 -5.55314 0
M  V30 8244 H 796.109 -0.106066 -0.746502 0
M  V30 8245 H 798.76 -0.919948 -1.58774 0
M  V30 8246 H 797.142 0.221092 -3.95382 0
M  V30 8247 H 798.316 -2.63274 -3.78184 0
M  V30 8248 H 796.631 -2.24752 -3.50536 0
M  V30 8249 H 799.228 -0.161133 -5.34457 0
M  V30 8250 H 799.571 0.96066 -4.05064 0
M  V30 8251 H 800.104 -0.732286 -3.91002 0
M  V30 8252 H 796.843 -3.0626 -5.79556 0
M  V30 8253 H 796.363 -1.3507 -5.84394 0
M  V30 8254 H 798.042 -1.81996 -6.20876 0
M  V30 8255 N 798.174 1.49689 -0.493057 0
M  V30 8256 C 799.104 2.31826 0.279073 0
M  V30 8257 C 800.085 1.39733 0.969987 0
M  V30 8258 O 801.27 1.68646 0.962925 0
M  V30 8259 C 798.4 3.20046 1.34862 0
M  V30 8260 C 797.354 4.20869 0.77805 0
M  V30 8261 C 796.68 4.97971 1.94753 0
M  V30 8262 C 797.98 5.21813 -0.225543 0
M  V30 8263 H 799.674 2.96627 -0.406512 0
M  V30 8264 H 797.22 1.42647 -0.196943 0
M  V30 8265 H 799.173 3.76315 1.89645 0
M  V30 8266 H 797.897 2.53172 2.06328 0
M  V30 8267 H 796.556 3.65733 0.252036 0
M  V30 8268 H 796.204 4.27552 2.64969 0
M  V30 8269 H 795.904 5.66186 1.57187 0
M  V30 8270 H 797.428 5.57082 2.49984 0
M  V30 8271 H 798.842 5.72823 0.233864 0
M  V30 8272 H 797.239 5.97872 -0.516622 0
M  V30 8273 H 798.309 4.71209 -1.14412 0
M  V30 8274 N 799.652 0.226554 1.55963 0
M  V30 8275 C 800.88 -0.408507 2.02827 0
M  V30 8276 C 801.295 -1.52994 1.10627 0
M  V30 8277 O 800.652 -1.82126 0.116809 0
M  V30 8278 C 800.703 -0.93545 3.49187 0
M  V30 8279 O 800.424 0.141273 4.37872 0
M  V30 8280 C 801.925 -1.64325 4.11719 0
M  V30 8281 H 799.145 -0.099442 0.66359 0
M  V30 8282 H 801.689 0.344471 2.01578 0
M  V30 8283 H 799.844 -1.63868 3.51036 0
M  V30 8284 H 800.258 -0.25558 5.23877 0
M  V30 8285 H 801.732 -1.9639 5.15883 0
M  V30 8286 H 802.209 -2.55815 3.57009 0
M  V30 8287 H 802.815 -0.9851 4.13734 0
M  V30 8288 N 801.13 -1.57531 -0.0467866 0
M  V30 8289 C 802.379 -1.87632 -0.740069 0
M  V30 8290 C 802.692 -0.822691 -1.77457 0
M  V30 8291 O 803.898 -1.01235 -2.5192 0
M  V30 8292 C 802.354 -3.32917 -1.36727 0
M  V30 8293 C 801.962 -4.46469 -0.370035 0
M  V30 8294 C 803.706 -3.72189 -2.04146 0
M  V30 8295 C 801.613 -5.82806 -1.00457 0
M  V30 8296 H 800.543 -0.70002 -0.280158 0
M  V30 8297 H 803.194 -1.83499 0.00607151 0
M  V30 8298 H 801.576 -3.31739 -2.16252 0
M  V30 8299 H 802.75 -4.59085 0.397217 0
M  V30 8300 H 801.065 -4.15914 0.201079 0
M  V30 8301 H 803.662 -4.71357 -2.52441 0
M  V30 8302 H 804.005 -3.03268 -2.85192 0
M  V30 8303 H 804.538 -3.75465 -1.3142 0
M  V30 8304 H 801.277 -6.55083 -0.233907 0
M  V30 8305 H 800.797 -5.73944 -1.74209 0
M  V30 8306 H 802.476 -6.28961 -1.51713 0
M  V30 8307 N 802.608 0.318715 -1.54344 0
M  V30 8308 C 803.856 1.054 -1.72439 0
M  V30 8309 C 804.177 1.88388 -0.503495 0
M  V30 8310 O 803.447 1.89866 0.48246 0
M  V30 8311 H 802.027 0.392124 -0.635805 0
M  V30 8312 H 804.689 0.35398 -1.91659 0
M  V30 8313 H 803.785 1.71726 -2.60608 0
M  V30 8314 N 804.086 1.46499 0.581025 0
M  V30 8315 C 805.314 1.5547 1.36517 0
M  V30 8316 C 805.729 0.196407 1.87776 0
M  V30 8317 O 805.086 -0.806577 1.63709 0
M  V30 8318 C 805.137 2.56084 2.55154 0
M  V30 8319 O 804.858 3.86637 2.06018 0
M  V30 8320 C 806.359 2.75011 3.47683 0
M  V30 8321 H 803.579 0.525703 0.416986 0
M  V30 8322 H 806.123 1.9192 0.706177 0
M  V30 8323 H 804.278 2.22633 3.17039 0
M  V30 8324 H 804.692 4.41413 2.83292 0
M  V30 8325 H 806.166 3.49329 4.27403 0
M  V30 8326 H 806.643 1.81978 3.99726 0
M  V30 8327 H 807.249 3.09565 2.91632 0
M  V30 8328 N 805.565 -0.825799 1.34232 0
M  V30 8329 C 806.813 -1.57873 1.26177 0
M  V30 8330 C 807.134 -1.94267 -0.168904 0
M  V30 8331 O 806.404 -1.62045 -1.10084 0
M  V30 8332 H 804.984 -0.585388 0.464037 0
M  V30 8333 H 807.646 -0.986163 1.6811 0
M  V30 8334 H 806.742 -2.50283 1.86453 0
M  V30 8335 N 807.043 -1.17915 -1.04565 0
M  V30 8336 C 807.976 -0.845021 -2.11978 0
M  V30 8337 C 808.954 0.19089 -1.61476 0
M  V30 8338 O 810.138 0.0709905 -1.88366 0
M  V30 8339 C 807.265 -0.261657 -3.37688 0
M  V30 8340 C 806.311 -1.27396 -4.07029 0
M  V30 8341 S 807.144 -2.82783 -4.54746 0
M  V30 8342 C 808.3 -2.25944 -5.83695 0
M  V30 8343 H 808.533 -1.75472 -2.39993 0
M  V30 8344 H 806.066 -1.00447 -1.17259 0
M  V30 8345 H 808.024 0.0684257 -4.10443 0
M  V30 8346 H 806.685 0.626082 -3.07797 0
M  V30 8347 H 805.878 -0.814557 -4.97374 0
M  V30 8348 H 805.48 -1.55002 -3.40368 0
M  V30 8349 H 807.772 -1.63892 -6.57378 0
M  V30 8350 H 808.715 -3.14569 -6.34391 0
M  V30 8351 H 809.123 -1.69155 -5.3856 0
M  V30 8352 N 808.521 1.23394 -0.980386 0
M  V30 8353 C 809.431 2.28561 -0.528864 0
M  V30 8354 C 810.447 1.68946 0.416329 0
M  V30 8355 O 811.623 1.99355 0.286251 0
M  V30 8356 C 808.688 3.46323 0.16155 0
M  V30 8357 C 807.749 4.21297 -0.825044 0
M  V30 8358 C 806.982 5.33437 -0.167483 0
M  V30 8359 O 807.205 5.60812 1.04146 0
M  V30 8360 O 806.139 5.95637 -0.866047 0
M  V30 8361 H 809.965 2.69326 -1.40346 0
M  V30 8362 H 807.55 1.29325 -0.748019 0
M  V30 8363 H 809.432 4.17811 0.548841 0
M  V30 8364 H 808.107 3.0751 1.01092 0
M  V30 8365 H 807.014 3.52134 -1.26303 0
M  V30 8366 H 808.347 4.6396 -1.64322 0
M  V30 8367 N 809.999 0.752036 1.385 0
M  V30 8368 C 810.909 0.125318 2.34265 0
M  V30 8369 C 811.925 -0.702437 1.59191 0
M  V30 8370 O 813.101 -0.626951 1.91393 0
M  V30 8371 C 810.166 -0.758486 3.38301 0
M  V30 8372 C 809.227 0.0834636 4.29219 0
M  V30 8373 C 808.46 -0.758252 5.28286 0
M  V30 8374 O 808.683 -1.99632 5.34325 0
M  V30 8375 O 807.617 -0.177878 6.01637 0
M  V30 8376 H 811.443 0.91617 2.89551 0
M  V30 8377 H 809.028 0.512911 1.4032 0
M  V30 8378 H 810.91 -1.26365 4.02007 0
M  V30 8379 H 809.585 -1.52786 2.85374 0
M  V30 8380 H 808.492 0.634545 3.68679 0
M  V30 8381 H 809.825 0.815455 4.85398 0
M  V30 8382 N 811.477 -1.49425 0.500989 0
M  V30 8383 C 812.427 -2.26061 -0.296698 0
M  V30 8384 C 813.411 -1.30906 -0.935541 0
M  V30 8385 O 814.603 -1.55628 -0.843142 0
M  V30 8386 C 811.732 -3.15189 -1.36055 0
M  V30 8387 C 810.818 -4.17806 -0.727952 0
M  V30 8388 N 811.209 -5.05516 0.169408 0
M  V30 8389 C 809.507 -4.34907 -0.988535 0
M  V30 8390 C 810.208 -5.79267 0.531509 0
M  V30 8391 N 809.184 -5.43507 -0.100564 0
M  V30 8392 H 812.986 -2.91246 0.394103 0
M  V30 8393 H 810.5 -1.59275 0.317065 0
M  V30 8394 H 812.497 -3.68724 -1.94547 0
M  V30 8395 H 811.157 -2.51556 -2.05303 0
M  V30 8396 H 812.168 -5.15075 0.540218 0
M  V30 8397 H 808.845 -3.82481 -1.67376 0
M  V30 8398 H 810.235 -6.59872 1.26564 0
M  V30 8399 N 812.955 -0.234822 -1.55841 0
M  V30 8400 C 813.903 0.686145 -2.22249 0
M  V30 8401 C 814.897 1.18948 -1.20614 0
M  V30 8402 O 816.103 1.14777 -1.38659 0
M  V30 8403 H 812.478 0.239724 -0.712767 0
M  V30 8404 H 814.449 0.102762 -2.98223 0
M  V30 8405 C 813.198 1.8776 -2.92646 0
M  V30 8406 H 812.521 1.49943 -3.70617 0
M  V30 8407 H 813.961 2.4995 -3.42493 0
M  V30 8408 C 812.42 2.74127 -1.95847 0
M  V30 8409 O 812.95 3.7329 -1.48384 0
M  V30 8410 N 811.156 2.4044 -1.63209 0
M  V30 8411 H 810.703 1.59854 -2.02001 0
M  V30 8412 H 810.661 2.98504 -0.987063 0
M  V30 8413 N 814.433 1.57553 0.0384317 0
M  V30 8414 C 815.363 2.0898 1.04161 0
M  V30 8415 C 816.344 0.99029 1.38301 0
M  V30 8416 O 817.529 1.26499 1.47349 0
M  V30 8417 C 814.659 2.56145 2.34536 0
M  V30 8418 C 813.613 3.70275 2.14663 0
M  V30 8419 C 812.939 4.03612 3.50715 0
M  V30 8420 C 814.239 4.99067 1.54045 0
M  V30 8421 H 815.933 2.93046 0.613548 0
M  V30 8422 H 813.479 1.40973 0.293684 0
M  V30 8423 H 815.432 2.90741 3.05037 0
M  V30 8424 H 814.156 1.6915 2.79385 0
M  V30 8425 H 812.815 3.36013 1.46597 0
M  V30 8426 H 812.463 3.13698 3.93195 0
M  V30 8427 H 812.163 4.80482 3.38247 0
M  V30 8428 H 813.687 4.40735 4.22593 0
M  V30 8429 H 815.101 5.3168 2.14451 0
M  V30 8430 H 813.498 5.80484 1.52178 0
M  V30 8431 H 814.568 4.8226 0.505259 0
M  V30 8432 N 815.911 -0.310526 1.54511 0
M  V30 8433 C 817.141 -1.06456 1.77061 0
M  V30 8434 C 817.549 -1.81755 0.525528 0
M  V30 8435 O 816.892 -1.76365 -0.513904 0
M  V30 8436 C 816.954 -2.09856 2.91892 0
M  V30 8437 C 816.618 -1.53838 4.30329 0
M  V30 8438 C 817.615 -0.973358 5.10707 0
M  V30 8439 C 815.3 -1.57688 4.76906 0
M  V30 8440 C 817.294 -0.454283 6.35779 0
M  V30 8441 C 814.981 -1.05393 6.01943 0
M  V30 8442 C 815.979 -0.493595 6.81214 0
M  V30 8443 O 815.667 0.0214506 8.03897 0
M  V30 8444 H 815.399 -0.321913 0.594431 0
M  V30 8445 H 817.953 -0.358289 2.02251 0
M  V30 8446 H 816.183 -2.84137 2.62304 0
M  V30 8447 H 817.872 -2.71085 3.02106 0
M  V30 8448 H 818.638 -0.936588 4.75871 0
M  V30 8449 H 814.517 -2.00242 4.1524 0
M  V30 8450 H 818.061 -0.0162657 6.97598 0
M  V30 8451 H 813.958 -1.08782 6.36268 0
M  V30 8452 H 814.726 -0.0927478 8.18447 0
M  V30 8453 N 817.389 -1.46805 -0.573248 0
M  V30 8454 C 818.352 -1.57655 -1.66366 0
M  V30 8455 C 819.352 -0.452905 -1.5429 0
M  V30 8456 O 820.542 -0.717502 -1.58737 0
M  V30 8457 C 817.674 -1.50584 -3.05839 0
M  V30 8458 H 818.867 -2.54842 -1.581 0
M  V30 8459 H 816.42 -1.34756 -0.791868 0
M  V30 8460 H 817.155 -0.547127 -3.19651 0
M  V30 8461 H 816.94 -2.32118 -3.16012 0
M  V30 8462 H 818.43 -1.61282 -3.85199 0
M  V30 8463 N 818.867 0.818669 -1.34668 0
M  V30 8464 C 820.116 1.57017 -1.26604 0
M  V30 8465 C 820.429 1.94936 0.161036 0
M  V30 8466 O 821.635 2.69051 0.36386 0
M  V30 8467 C 820.091 2.83305 -2.2196 0
M  V30 8468 C 819.699 2.52671 -3.69948 0
M  V30 8469 C 821.443 3.61324 -2.22813 0
M  V30 8470 C 819.35 3.75178 -4.5716 0
M  V30 8471 H 818.28 0.589323 -0.470335 0
M  V30 8472 H 820.931 0.900956 -1.59859 0
M  V30 8473 H 819.313 3.51874 -1.81661 0
M  V30 8474 H 820.487 1.92186 -4.18809 0
M  V30 8475 H 818.802 1.8792 -3.71584 0
M  V30 8476 H 821.399 4.52294 -2.85192 0
M  V30 8477 H 821.742 3.97759 -1.22857 0
M  V30 8478 H 822.275 2.99703 -2.61578 0
M  V30 8479 H 819.014 3.43861 -5.58068 0
M  V30 8480 H 818.534 4.34931 -4.13031 0
M  V30 8481 H 820.213 4.42542 -4.71981 0
M  V30 8482 N 820.346 1.18468 1.03938 0
M  V30 8483 C 821.294 0.909286 2.14091 0
M  V30 8484 C 822.288 -0.130928 1.68893 0
M  V30 8485 O 823.494 0.0173403 1.79992 0
M  V30 8486 H 819.869 0.27658 0.699291 0
M  V30 8487 H 821.84 1.84514 2.34515 0
M  V30 8488 C 820.589 0.452922 3.44737 0
M  V30 8489 H 819.912 1.24485 3.79926 0
M  V30 8490 H 821.352 0.299238 4.22943 0
M  V30 8491 C 819.811 -0.831435 3.26479 0
M  V30 8492 O 820.341 -1.89535 3.54174 0
M  V30 8493 N 818.547 -0.784545 2.79809 0
M  V30 8494 H 818.094 0.0814746 2.57471 0
M  V30 8495 H 818.052 -1.64431 2.67973 0
M  V30 8496 N 821.824 -1.22873 0.986916 0
M  V30 8497 C 823.071 -1.91462 0.659424 0
M  V30 8498 C 823.399 -1.76931 -0.807825 0
M  V30 8499 O 822.654 -1.12829 -1.59901 0
M  V30 8500 C 822.953 -3.43014 1.00379 0
M  V30 8501 C 822.619 -3.77731 2.46232 0
M  V30 8502 C 821.281 -3.86918 2.86091 0
M  V30 8503 C 823.633 -3.94343 3.40798 0
M  V30 8504 C 820.961 -4.10149 4.19518 0
M  V30 8505 C 823.313 -4.19076 4.73875 0
M  V30 8506 C 821.977 -4.26486 5.13484 0
M  V30 8507 H 821.247 -0.700611 0.2413 0
M  V30 8508 H 823.894 -1.45763 1.24199 0
M  V30 8509 H 822.199 -3.90329 0.339226 0
M  V30 8510 H 823.896 -3.94327 0.728518 0
M  V30 8511 H 820.486 -3.71159 2.14334 0
M  V30 8512 H 824.67 -3.86629 3.11178 0
M  V30 8513 H 819.926 -4.1411 4.49803 0
M  V30 8514 H 824.1 -4.30873 5.47102 0
M  V30 8515 H 821.727 -4.4424 6.16891 0
M  V30 8516 N 823.302 -0.75937 -1.38099 0
M  V30 8517 C 824.551 -0.314864 -1.99227 0
M  V30 8518 C 824.864 1.1113 -1.60964 0
M  V30 8519 O 826.07 1.65657 -2.15105 0
M  V30 8520 C 824.526 -0.512001 -3.56239 0
M  V30 8521 C 824.134 -1.94762 -4.0345 0
M  V30 8522 C 825.878 -0.130497 -4.24299 0
M  V30 8523 C 823.785 -2.09301 -5.53125 0
M  V30 8524 H 822.715 -0.113978 -0.745335 0
M  V30 8525 H 825.366 -0.936736 -1.57789 0
M  V30 8526 H 823.748 0.179144 -3.95595 0
M  V30 8527 H 824.922 -2.67271 -3.75371 0
M  V30 8528 H 823.237 -2.28457 -3.48133 0
M  V30 8529 H 825.834 -0.21781 -5.34256 0
M  V30 8530 H 826.177 0.917644 -4.0606 0
M  V30 8531 H 826.71 -0.773716 -3.90203 0
M  V30 8532 H 823.449 -3.1239 -5.76275 0
M  V30 8533 H 822.969 -1.41261 -5.82928 0
M  V30 8534 H 824.648 -1.88571 -6.1891 0
M  V30 8535 N 824.78 1.49157 -0.508906 0
M  V30 8536 C 825.73 2.26215 0.284705 0
M  V30 8537 C 826.714 1.31401 0.928586 0
M  V30 8538 O 827.906 1.56073 0.834877 0
M  V30 8539 C 825.035 3.15906 1.34382 0
M  V30 8540 C 824.121 4.18186 0.705785 0
M  V30 8541 N 824.512 5.05419 -0.196214 0
M  V30 8542 C 822.81 4.35425 0.965457 0
M  V30 8543 C 823.511 5.78977 -0.562222 0
M  V30 8544 N 822.487 5.43553 0.0717389 0
M  V30 8545 H 826.289 2.91033 -0.409543 0
M  V30 8546 H 823.803 1.59104 -0.325508 0
M  V30 8547 H 825.8 3.6975 1.92589 0
M  V30 8548 H 824.46 2.52642 2.03966 0
M  V30 8549 H 825.471 5.14781 -0.567526 0
M  V30 8550 H 822.148 3.83363 1.65346 0
M  V30 8551 H 823.538 6.59192 -1.30062 0
M  V30 8552 N 826.258 0.243083 1.55714 0
M  V30 8553 C 827.221 -0.644723 2.19945 0
M  V30 8554 C 828.221 -1.10562 1.16759 0
M  V30 8555 O 829.411 -1.01095 1.41865 0
M  V30 8556 C 826.543 -1.88569 2.83997 0
M  V30 8557 H 827.736 -0.0843839 2.99781 0
M  V30 8558 H 825.289 -0.00647246 1.56299 0
M  V30 8559 H 826.024 -2.48736 2.08089 0
M  V30 8560 H 825.809 -1.56345 3.59581 0
M  V30 8561 H 827.299 -2.51774 3.33166 0
M  V30 8562 N 827.736 -1.57571 -0.0300757 0
M  V30 8563 C 828.964 -1.93485 -0.732891 0
M  V30 8564 C 829.379 -0.842758 -1.68947 0
M  V30 8565 O 828.736 0.180904 -1.81601 0
M  V30 8566 C 828.787 -3.29328 -1.49082 0
M  V30 8567 O 828.508 -4.34341 -0.572639 0
M  V30 8568 C 830.009 -3.79517 -2.29088 0
M  V30 8569 H 827.229 -0.638588 -0.206026 0
M  V30 8570 H 829.773 -2.04496 0.0120966 0
M  V30 8571 H 827.928 -3.19716 -2.1877 0
M  V30 8572 H 828.342 -5.12748 -1.10406 0
M  V30 8573 H 829.816 -4.77081 -2.77665 0
M  V30 8574 H 830.293 -3.10659 -3.10464 0
M  V30 8575 H 830.899 -3.92208 -1.64477 0
M  V30 8576 N 829.214 0.302327 -1.54673 0
M  V30 8577 C 830.161 1.37282 -1.85532 0
M  V30 8578 C 831.131 1.50437 -0.704129 0
M  V30 8579 O 832.316 1.65317 -0.952627 0
M  V30 8580 C 829.456 2.73309 -2.10704 0
M  V30 8581 C 828.569 2.68614 -3.38335 0
M  V30 8582 C 827.704 3.96626 -3.53357 0
M  V30 8583 C 826.743 3.86324 -4.74784 0
M  V30 8584 N 825.88 5.06109 -4.86619 0
M  V30 8585 H 830.72 1.10265 -2.76849 0
M  V30 8586 H 828.257 0.533346 -1.37091 0
M  V30 8587 H 830.215 3.52414 -2.23294 0
M  V30 8588 H 828.845 2.98589 -1.22656 0
M  V30 8589 H 827.897 1.81381 -3.34373 0
M  V30 8590 H 829.209 2.56891 -4.27561 0
M  V30 8591 H 828.363 4.84168 -3.65604 0
M  V30 8592 H 827.102 4.11182 -2.62261 0
M  V30 8593 H 826.107 2.97166 -4.62572 0
M  V30 8594 H 827.332 3.73315 -5.67286 0
M  V30 8595 H 825.278 5.2113 -3.98446 0
M  V30 8596 H 825.195 4.96804 -5.69844 0
M  V30 8597 H 826.463 5.95306 -5.03221 0
M  V30 8598 N 830.692 1.47107 0.565454 0
M  V30 8599 C 831.938 1.53535 1.32495 0
M  V30 8600 C 832.271 0.193537 1.93233 0
M  V30 8601 O 831.546 -0.796956 1.77423 0
M  V30 8602 C 831.829 2.64712 2.4413 0
M  V30 8603 C 831.682 4.08482 1.88314 0
M  V30 8604 C 833.001 2.71853 3.46098 0
M  V30 8605 H 830.12 0.558926 0.480386 0
M  V30 8606 H 832.762 1.79125 0.633575 0
M  V30 8607 H 830.912 2.43023 3.03104 0
M  V30 8608 H 832.584 4.4151 1.33665 0
M  V30 8609 H 830.827 4.17148 1.19037 0
M  V30 8610 H 831.498 4.82032 2.68978 0
M  V30 8611 H 833.974 2.91397 2.97031 0
M  V30 8612 H 832.85 3.51433 4.21646 0
M  V30 8613 H 833.111 1.78584 4.04426 0
M  V30 8614 N 832.17 -0.811516 1.35101 0
M  V30 8615 C 833.419 -1.56343 1.27435 0
M  V30 8616 C 833.732 -1.95019 -0.150696 0
M  V30 8617 O 834.938 -2.6924 -0.349586 0
M  V30 8618 C 833.394 -2.82124 2.23459 0
M  V30 8619 C 833.002 -2.50706 3.71283 0
M  V30 8620 C 834.746 -3.60137 2.24726 0
M  V30 8621 C 832.653 -3.72748 4.59143 0
M  V30 8622 H 831.583 -0.58682 0.473453 0
M  V30 8623 H 834.234 -0.892465 1.60335 0
M  V30 8624 H 832.616 -3.50905 1.83525 0
M  V30 8625 H 833.79 -1.89962 4.19823 0
M  V30 8626 H 832.105 -1.85947 3.72576 0
M  V30 8627 H 834.702 -4.50775 2.87587 0
M  V30 8628 H 835.045 -3.97101 1.24965 0
M  V30 8629 H 835.578 -2.98311 2.63164 0
M  V30 8630 H 832.317 -3.40896 5.59884 0
M  V30 8631 H 831.837 -4.32735 4.15332 0
M  V30 8632 H 833.516 -4.40033 4.74321 0
M  V30 8633 N 833.648 -1.19017 -1.03309 0
M  V30 8634 C 834.595 -0.924088 -2.11493 0
M  V30 8635 C 835.565 0.139464 -1.65513 0
M  V30 8636 O 836.75 -0.00178761 -1.908 0
M  V30 8637 C 833.89 -0.464255 -3.41963 0
M  V30 8638 C 833.003 -1.5941 -4.01513 0
M  V30 8639 C 832.138 -1.08622 -5.19976 0
M  V30 8640 C 831.177 -2.19024 -5.71572 0
M  V30 8641 N 830.314 -1.69575 -6.81314 0
M  V30 8642 H 835.154 -1.85039 -2.33591 0
M  V30 8643 H 832.691 -0.922593 -1.14572 0
M  V30 8644 H 834.649 -0.179078 -4.16815 0
M  V30 8645 H 833.279 0.425062 -3.19989 0
M  V30 8646 H 832.331 -1.99458 -3.23915 0
M  V30 8647 H 833.643 -2.42604 -4.35826 0
M  V30 8648 H 832.797 -0.756022 -6.01971 0
M  V30 8649 H 831.536 -0.223955 -4.87186 0
M  V30 8650 H 830.541 -2.5288 -4.88193 0
M  V30 8651 H 831.766 -3.05699 -6.06403 0
M  V30 8652 H 829.712 -0.856494 -6.50385 0
M  V30 8653 H 829.629 -2.46361 -7.14732 0
M  V30 8654 H 830.897 -1.39505 -7.66915 0
M  V30 8655 N 835.127 1.22348 -0.993418 0
M  V30 8656 C 836.037 2.27987 -0.553076 0
M  V30 8657 C 837.053 1.69378 0.398386 0
M  V30 8658 O 838.229 1.99648 0.26509 0
M  V30 8659 C 835.294 3.46475 0.124809 0
M  V30 8660 C 834.355 4.20399 -0.869682 0
M  V30 8661 C 833.588 5.33229 -0.224052 0
M  V30 8662 O 833.811 5.61885 0.981915 0
M  V30 8663 O 832.745 5.94685 -0.929174 0
M  V30 8664 H 836.571 2.67822 -1.43195 0
M  V30 8665 H 834.156 1.28525 -0.761694 0
M  V30 8666 H 836.038 4.18369 0.504496 0
M  V30 8667 H 834.713 3.08565 0.978243 0
M  V30 8668 H 833.62 3.50774 -1.30031 0
M  V30 8669 H 834.953 4.62191 -1.69233 0
M  V30 8670 N 836.605 0.766683 1.37694 0
M  V30 8671 C 837.833 0.339939 2.04088 0
M  V30 8672 C 838.248 -1.03617 1.57826 0
M  V30 8673 O 837.605 -1.6605 0.757214 0
M  V30 8674 C 837.656 0.368269 3.59619 0
M  V30 8675 O 837.377 1.69009 4.04188 0
M  V30 8676 C 838.878 -0.0707053 4.43244 0
M  V30 8677 H 836.098 0.143189 0.655544 0
M  V30 8678 H 838.642 1.03919 1.76128 0
M  V30 8679 H 836.797 -0.282359 3.8637 0
M  V30 8680 H 837.211 1.62523 4.98685 0
M  V30 8681 H 838.685 0.000273538 5.52 0
M  V30 8682 H 839.162 -1.1204 4.24669 0
M  V30 8683 H 839.768 0.551543 4.21709 0
M  V30 8684 N 838.083 -1.48885 0.516809 0
M  V30 8685 C 839.013 -2.32241 -0.242157 0
M  V30 8686 C 839.994 -1.41258 -0.947633 0
M  V30 8687 O 841.179 -1.70156 -0.935973 0
M  V30 8688 C 838.309 -3.22151 -1.29754 0
M  V30 8689 C 837.263 -4.22053 -0.710995 0
M  V30 8690 C 836.589 -5.01007 -1.86806 0
M  V30 8691 C 837.889 -5.21388 0.30853 0
M  V30 8692 H 839.583 -2.95943 0.453651 0
M  V30 8693 H 837.129 -1.42316 0.219612 0
M  V30 8694 H 839.082 -3.79284 -1.83634 0
M  V30 8695 H 837.806 -2.56423 -2.02274 0
M  V30 8696 H 836.465 -3.66087 -0.193819 0
M  V30 8697 H 836.113 -4.31713 -2.58133 0
M  V30 8698 H 835.813 -5.68615 -1.48159 0
M  V30 8699 H 837.337 -5.60989 -2.4109 0
M  V30 8700 H 838.751 -5.73122 -0.142703 0
M  V30 8701 H 837.148 -5.96975 0.611673 0
M  V30 8702 H 838.218 -4.69329 1.21894 0
M  V30 8703 N 839.561 -0.251338 -1.55583 0
M  V30 8704 C 840.972 0.25098 -1.85005 0
M  V30 8705 C 841.323 1.57259 -1.17321 0
M  V30 8706 O 840.448 2.11603 -0.453136 0
M  V30 8707 C 841.043 0.462161 -3.35633 0
M  V30 8708 C 839.602 0.908737 -3.65266 0
M  V30 8709 C 838.749 -0.0115418 -2.77298 0
M  V30 8710 H 841.7 -0.473782 -1.51463 0
M  V30 8711 H 841.721 1.30415 -3.57452 0
M  V30 8712 H 841.233 -0.499886 -3.84867 0
M  V30 8713 H 839.334 1.8831 -3.21512 0
M  V30 8714 H 839.447 0.762526 -4.72993 0
M  V30 8715 H 837.811 0.500612 -2.49732 0
M  V30 8716 H 838.594 -0.969042 -3.29339 0
M  V30 8717 N 841.039 1.57585 0.0217189 0
M  V30 8718 C 842.287 1.89231 0.709641 0
M  V30 8719 C 842.608 0.849964 1.75501 0
M  V30 8720 O 841.878 -0.115485 1.95559 0
M  V30 8721 H 840.458 0.69838 0.265092 0
M  V30 8722 H 843.12 1.94895 -0.0140688 0
M  V30 8723 H 842.216 2.88333 1.19459 0
M  V30 8724 N 842.517 -0.29412 1.54831 0
M  V30 8725 C 843.48 -1.3461 1.85507 0
M  V30 8726 C 844.48 -1.43359 0.728343 0
M  V30 8727 O 845.67 -1.42875 0.996609 0
M  V30 8728 C 842.802 -2.73012 2.0415 0
M  V30 8729 H 843.995 -1.08651 2.79526 0
M  V30 8730 H 841.548 -0.531138 1.46999 0
M  V30 8731 H 842.283 -3.04183 1.12441 0
M  V30 8732 H 842.068 -2.68051 2.86166 0
M  V30 8733 H 843.558 -3.49061 2.29229 0
M  V30 8734 N 843.995 -1.47404 -0.557645 0
M  V30 8735 C 845.411 -1.32913 -0.88353 0
M  V30 8736 C 845.611 -0.31929 -1.98954 0
M  V30 8737 O 844.667 0.26934 -2.51059 0
M  V30 8738 C 845.98 -2.72229 -1.27718 0
M  V30 8739 C 847.528 -2.8051 -1.38863 0
M  V30 8740 C 848.003 -4.20466 -1.81583 0
M  V30 8741 N 849.494 -4.23005 -1.88735 0
M  V30 8742 C 850.229 -5.2821 -2.23118 0
M  V30 8743 N 849.725 -6.4372 -2.56117 0
M  V30 8744 N 851.518 -5.15588 -2.23888 0
M  V30 8745 H 843.669 -2.11698 0.172557 0
M  V30 8746 H 845.932 -0.947889 0.0145334 0
M  V30 8747 H 845.638 -3.47556 -0.538329 0
M  V30 8748 H 845.512 -3.03971 -2.23342 0
M  V30 8749 H 847.899 -2.05457 -2.11829 0
M  V30 8750 H 847.98 -2.52423 -0.414274 0
M  V30 8751 H 847.624 -4.96025 -1.09187 0
M  V30 8752 H 847.554 -4.45977 -2.80021 0
M  V30 8753 H 850.045 -3.39674 -1.65621 0
M  V30 8754 H 850.358 -7.19754 -2.81378 0
M  V30 8755 H 848.703 -6.47041 -2.53698 0
M  V30 8756 H 851.894 -4.24374 -1.97546 0
M  V30 8757 H 852.067 -5.97685 -2.50353 0
M  V30 8758 N 845.473 0.80434 -1.35529 0
M  V30 8759 C 846.722 1.55665 -1.28263 0
M  V30 8760 C 847.035 1.95096 0.140352 0
M  V30 8761 O 848.241 2.69422 0.335303 0
M  V30 8762 C 846.697 2.80935 -2.24952 0
M  V30 8763 C 846.305 2.48733 -3.72607 0
M  V30 8764 C 848.049 3.5894 -2.26632 0
M  V30 8765 C 845.956 3.70308 -4.61114 0
M  V30 8766 H 844.886 0.584301 -0.476559 0
M  V30 8767 H 847.537 0.88395 -1.60806 0
M  V30 8768 H 845.919 3.49927 -1.85383 0
M  V30 8769 H 847.093 1.87733 -4.20824 0
M  V30 8770 H 845.408 1.83969 -3.73557 0
M  V30 8771 H 848.005 4.49244 -2.89973 0
M  V30 8772 H 848.348 3.96433 -1.27069 0
M  V30 8773 H 848.881 2.96912 -2.64742 0
M  V30 8774 H 845.62 3.37922 -5.61684 0
M  V30 8775 H 845.14 4.30526 -4.17621 0
M  V30 8776 H 846.819 4.37511 -4.76648 0
M  V30 8777 N 846.951 1.19563 1.02676 0
M  V30 8778 C 848.176 1.02556 1.80269 0
M  V30 8779 C 848.601 -0.421056 1.83327 0
M  V30 8780 O 847.959 -1.30279 1.26084 0
M  V30 8781 C 848.007 1.60165 3.23078 0
M  V30 8782 O 847.111 0.832404 4.03912 0
M  V30 8783 H 846.452 0.362354 0.556413 0
M  V30 8784 H 848.982 1.58633 1.29216 0
M  V30 8785 H 848.992 1.6347 3.7382 0
M  V30 8786 H 847.667 2.65454 3.20167 0
M  V30 8787 H 846.244 0.872768 3.62543 0
M  V30 8788 N 848.429 -1.21819 0.999893 0
M  V30 8789 C 849.677 -1.90375 0.678351 0
M  V30 8790 C 849.998 -1.78155 -0.792824 0
M  V30 8791 O 849.268 -1.17319 -1.56885 0
M  V30 8792 H 847.848 -0.704661 0.247915 0
M  V30 8793 H 850.51 -1.48021 1.2679 0
M  V30 8794 H 849.606 -2.97385 0.947023 0
M  V30 8795 N 849.908 -0.773975 -1.37286 0
M  V30 8796 C 851.156 -0.338636 -1.99243 0
M  V30 8797 C 851.477 1.08919 -1.61746 0
M  V30 8798 O 850.747 1.74822 -0.88397 0
M  V30 8799 H 849.327 -0.12222 -0.736934 0
M  V30 8800 H 851.989 -0.992595 -1.67731 0
M  V30 8801 H 851.085 -0.418055 -3.09287 0
M  V30 8802 N 851.386 1.48609 -0.524698 0
M  V30 8803 C 852.316 2.32366 0.229837 0
M  V30 8804 C 853.297 1.41759 0.940129 0
M  V30 8805 O 854.482 1.7065 0.926936 0
M  V30 8806 C 851.612 3.22835 1.28043 0
M  V30 8807 C 850.566 4.22424 0.688603 0
M  V30 8808 C 849.892 5.0199 1.84146 0
M  V30 8809 C 851.192 5.21217 -0.336176 0
M  V30 8810 H 852.886 2.95698 -0.469339 0
M  V30 8811 H 850.432 1.42197 -0.227156 0
M  V30 8812 H 852.385 3.80253 1.8162 0
M  V30 8813 H 851.109 2.57492 2.00912 0
M  V30 8814 H 849.768 3.66185 0.174402 0
M  V30 8815 H 849.416 4.33076 2.5584 0
M  V30 8816 H 849.116 5.69392 1.45142 0
M  V30 8817 H 850.64 5.62259 2.38111 0
M  V30 8818 H 852.054 5.7319 0.112307 0
M  V30 8819 H 850.451 5.96642 -0.643324 0
M  V30 8820 H 851.521 4.68676 -1.24381 0
M  V30 8821 N 852.864 0.259585 1.55447 0
M  V30 8822 C 854.089 -0.368317 2.04103 0
M  V30 8823 C 854.514 -1.49827 1.13725 0
M  V30 8824 O 853.872 -1.80814 0.132705 0
M  V30 8825 C 853.92 -0.841506 3.50644 0
M  V30 8826 O 853.024 -1.95008 3.63381 0
M  V30 8827 H 852.365 -0.0785227 0.659341 0
M  V30 8828 H 854.895 0.389349 2.00861 0
M  V30 8829 H 854.905 -1.14138 3.9171 0
M  V30 8830 H 853.58 -0.0147001 4.15897 0
M  V30 8831 H 852.157 -1.65393 3.34215 0
M  V30 8832 N 854.342 -1.57594 -0.0133615 0
M  V30 8833 C 855.29 -2.08682 -1.02736 0
M  V30 8834 C 856.284 -1.00391 -1.36448 0
M  V30 8835 O 857.49 -1.18868 -1.35168 0
M  V30 8836 H 853.865 -0.666158 -0.34891 0
M  V30 8837 H 855.836 -2.9289 -0.570815 0
M  V30 8838 C 854.585 -2.5945 -2.31476 0
M  V30 8839 H 853.908 -3.42401 -2.06401 0
M  V30 8840 H 855.348 -2.98888 -3.00735 0
M  V30 8841 C 853.807 -1.50266 -3.01533 0
M  V30 8842 O 854.337 -0.877875 -3.9199 0
M  V30 8843 N 852.543 -1.23336 -2.63129 0
M  V30 8844 H 852.09 -1.74327 -1.89652 0
M  V30 8845 H 852.048 -0.504987 -3.10318 0
M  V30 8846 N 855.82 0.285905 -1.54985 0
M  V30 8847 C 856.75 1.35752 -1.89983 0
M  V30 8848 C 857.731 1.52163 -0.760295 0
M  V30 8849 O 858.916 1.65421 -1.01733 0
M  V30 8850 C 856.046 2.71925 -2.16042 0
M  V30 8851 C 855 2.70261 -3.31878 0
M  V30 8852 C 854.326 4.09864 -3.43388 0
M  V30 8853 C 855.626 2.30667 -4.68604 0
M  V30 8854 H 857.32 1.06709 -2.79738 0
M  V30 8855 H 854.866 0.511884 -1.34595 0
M  V30 8856 H 856.819 3.46992 -2.39113 0
M  V30 8857 H 855.543 3.02523 -1.23074 0
M  V30 8858 H 854.202 1.97651 -3.08755 0
M  V30 8859 H 853.85 4.37664 -2.47909 0
M  V30 8860 H 853.55 4.09648 -4.21262 0
M  V30 8861 H 855.074 4.86689 -3.68736 0
M  V30 8862 H 856.488 2.95453 -4.91305 0
M  V30 8863 H 854.885 2.41637 -5.49301 0
M  V30 8864 H 855.955 1.25793 -4.68299 0
M  V30 8865 N 857.298 1.47698 0.54982 0
M  V30 8866 C 858.523 1.58579 1.33669 0
M  V30 8867 C 858.948 0.239049 1.86575 0
M  V30 8868 O 858.306 -0.786256 1.63364 0
M  V30 8869 C 858.354 2.62029 2.47736 0
M  V30 8870 O 857.458 2.17813 3.50188 0
M  V30 8871 H 856.799 0.532447 0.396732 0
M  V30 8872 H 859.329 1.93536 0.6637 0
M  V30 8873 H 859.339 2.82682 2.94202 0
M  V30 8874 H 858.014 3.59812 2.08586 0
M  V30 8875 H 856.591 2.07291 3.09976 0
M  V30 8876 N 858.776 -0.797141 1.35954 0
M  V30 8877 C 860.023 -1.55468 1.29754 0
M  V30 8878 C 860.351 -1.94095 -0.125391 0
M  V30 8879 O 859.606 -1.62341 -1.09288 0
M  V30 8880 C 859.905 -2.84847 2.15863 0
M  V30 8881 C 859.571 -2.65394 3.64523 0
M  V30 8882 C 858.233 -2.59796 4.05042 0
M  V30 8883 C 860.585 -2.4727 4.58811 0
M  V30 8884 C 857.913 -2.3403 5.38002 0
M  V30 8885 C 860.265 -2.23032 5.91979 0
M  V30 8886 C 858.929 -2.15862 6.31633 0
M  V30 8887 H 858.199 -0.568897 0.474803 0
M  V30 8888 H 860.846 -0.920299 1.67937 0
M  V30 8889 H 859.151 -3.52712 1.70591 0
M  V30 8890 H 860.848 -3.42597 2.08395 0
M  V30 8891 H 857.438 -2.70602 3.32374 0
M  V30 8892 H 861.622 -2.506 4.28384 0
M  V30 8893 H 856.878 -2.26956 5.67715 0
M  V30 8894 H 861.052 -2.08001 6.64612 0
M  V30 8895 H 858.679 -1.9566 7.34589 0
M  V30 8896 N 860.254 -1.20106 -1.0204 0
M  V30 8897 C 861.479 -1.0351 -1.79723 0
M  V30 8898 C 861.904 0.411328 -1.83548 0
M  V30 8899 O 861.262 1.29608 -1.26773 0
M  V30 8900 C 861.31 -1.61876 -3.22224 0
M  V30 8901 O 860.414 -0.853813 -4.03465 0
M  V30 8902 H 859.755 -0.365299 -0.554484 0
M  V30 8903 H 862.285 -1.59316 -1.28373 0
M  V30 8904 H 862.295 -1.65451 -3.72948 0
M  V30 8905 H 860.97 -2.67148 -3.18755 0
M  V30 8906 H 859.547 -0.891983 -3.62075 0
M  V30 8907 N 861.732 1.21287 -1.00634 0
M  V30 8908 C 862.979 1.90389 -0.6898 0
M  V30 8909 C 863.307 1.78193 0.779574 0
M  V30 8910 O 862.562 1.15358 1.58085 0
M  V30 8911 C 862.861 3.41374 -1.05824 0
M  V30 8912 C 862.527 3.73766 -2.5221 0
M  V30 8913 C 861.189 3.82317 -2.92211 0
M  V30 8914 C 863.541 3.88871 -3.47028 0
M  V30 8915 C 860.869 4.03423 -4.2599 0
M  V30 8916 C 863.221 4.11484 -4.80483 0
M  V30 8917 C 861.885 4.18263 -5.20204 0
M  V30 8918 H 861.155 0.696683 -0.252416 0
M  V30 8919 H 863.802 1.43769 -1.26502 0
M  V30 8920 H 862.107 3.8974 -0.401281 0
M  V30 8921 H 863.804 3.93118 -0.79116 0
M  V30 8922 H 860.394 3.67702 -2.20212 0
M  V30 8923 H 864.578 3.8163 -3.17289 0
M  V30 8924 H 859.834 4.06902 -4.56334 0
M  V30 8925 H 864.008 4.22115 -5.53888 0
M  V30 8926 H 861.635 4.34369 -6.23881 0
M  V30 8927 N 863.21 0.781244 1.36873 0
M  V30 8928 C 864.626 0.461968 1.52768 0
M  V30 8929 C 864.826 -1.02099 1.73719 0
M  V30 8930 O 863.882 -1.80665 1.76399 0
M  V30 8931 C 865.195 1.2853 2.71846 0
M  V30 8932 C 866.743 1.27817 2.85713 0
M  V30 8933 C 867.218 2.08506 4.07786 0
M  V30 8934 N 868.709 2.05909 4.14917 0
M  V30 8935 C 869.444 2.65118 5.08429 0
M  V30 8936 N 868.94 3.33152 6.07438 0
M  V30 8937 N 870.733 2.54896 5.00983 0
M  V30 8938 H 862.884 1.74198 1.21527 0
M  V30 8939 H 865.147 0.740027 0.592506 0
M  V30 8940 H 864.853 2.3366 2.62861 0
M  V30 8941 H 864.727 0.920981 3.65784 0
M  V30 8942 H 867.114 0.234817 2.94164 0
M  V30 8943 H 867.195 1.68219 1.92707 0
M  V30 8944 H 866.839 3.12867 4.00096 0
M  V30 8945 H 866.769 1.65479 4.99924 0
M  V30 8946 H 869.26 1.56386 3.44023 0
M  V30 8947 H 869.573 3.75681 6.75339 0
M  V30 8948 H 867.918 3.37253 6.07689 0
M  V30 8949 H 871.109 2.01352 4.22581 0
M  V30 8950 H 871.282 3.01332 5.73675 0
M  V30 8951 N 864.689 -1.48329 0.532571 0
M  V30 8952 C 865.937 -2.021 -0.000581206 0
M  V30 8953 C 866.258 -1.4117 -1.34522 0
M  V30 8954 O 865.528 -0.578005 -1.87179 0
M  V30 8955 H 864.108 -0.746993 -0.00320281 0
M  V30 8956 H 866.77 -1.82011 0.696991 0
M  V30 8957 H 865.866 -3.11917 -0.106991 0
M  V30 8958 N 866.167 -0.267825 -1.55308 0
M  V30 8959 C 867.1 0.663973 -2.18327 0
M  V30 8960 C 868.078 1.15759 -1.14187 0
M  V30 8961 O 869.262 1.23189 -1.42677 0
M  V30 8962 C 866.389 1.9047 -2.8007 0
M  V30 8963 C 865.435 1.54718 -3.97447 0
M  V30 8964 S 866.268 0.631654 -5.31762 0
M  V30 8965 C 867.424 1.88092 -5.96969 0
M  V30 8966 H 867.657 0.128486 -2.97022 0
M  V30 8967 H 865.19 -0.052129 -1.54312 0
M  V30 8968 H 867.148 2.61688 -3.16275 0
M  V30 8969 H 865.809 2.41132 -2.01281 0
M  V30 8970 H 865.002 2.47022 -4.39313 0
M  V30 8971 H 864.604 0.915254 -3.62628 0
M  V30 8972 H 866.896 2.82572 -6.15759 0
M  V30 8973 H 867.839 1.50539 -6.91913 0
M  V30 8974 H 868.247 2.04254 -5.26252 0
M  V30 8975 N 867.645 1.57599 0.00500368 0
M  V30 8976 C 868.555 2.11532 1.01446 0
M  V30 8977 C 869.571 1.05941 1.3803 0
M  V30 8978 O 870.747 1.37815 1.46864 0
M  V30 8979 C 867.812 2.60382 2.28915 0
M  V30 8980 C 866.873 3.80554 1.98689 0
M  V30 8981 C 866.106 4.27064 3.20081 0
M  V30 8982 O 866.329 3.72939 4.31593 0
M  V30 8983 O 865.263 5.1927 3.04371 0
M  V30 8984 H 869.089 2.97993 0.586011 0
M  V30 8985 H 866.674 1.47718 0.223519 0
M  V30 8986 H 868.556 2.92024 3.03809 0
M  V30 8987 H 867.231 1.77022 2.71007 0
M  V30 8988 H 866.138 3.53893 1.21286 0
M  V30 8989 H 867.471 4.64972 1.61437 0
M  V30 8990 N 869.123 -0.277682 1.55134 0
M  V30 8991 C 870.086 -1.32635 1.86924 0
M  V30 8992 C 871.086 -1.42578 0.743507 0
M  V30 8993 O 872.276 -1.4181 1.01171 0
M  V30 8994 C 869.408 -2.70832 2.07034 0
M  V30 8995 H 870.601 -1.0568 2.80663 0
M  V30 8996 H 868.154 -0.515517 1.47554 0
M  V30 8997 H 868.889 -3.02974 1.15661 0
M  V30 8998 H 868.674 -2.65001 2.88993 0
M  V30 8999 H 870.164 -3.46611 2.32918 0
M  V30 9000 N 870.601 -1.47988 -0.541979 0
M  V30 9001 C 871.85 -1.5465 -1.29485 0
M  V30 9002 C 872.163 -0.220041 -1.94358 0
M  V30 9003 O 873.369 -0.164792 -2.70999 0
M  V30 9004 C 871.825 -2.72685 -2.34885 0
M  V30 9005 C 871.433 -4.11923 -1.76134 0
M  V30 9006 C 873.177 -2.88651 -3.11257 0
M  V30 9007 C 871.084 -5.21237 -2.79404 0
M  V30 9008 H 870.014 -0.575688 -0.486928 0
M  V30 9009 H 872.665 -1.74296 -0.573853 0
M  V30 9010 H 871.047 -2.46448 -3.09966 0
M  V30 9011 H 872.221 -4.48128 -1.07322 0
M  V30 9012 H 870.536 -4.00972 -1.12295 0
M  V30 9013 H 873.133 -3.67487 -3.88404 0
M  V30 9014 H 873.476 -1.97658 -3.66384 0
M  V30 9015 H 874.009 -3.14731 -2.43288 0
M  V30 9016 H 870.748 -6.14156 -2.29113 0
M  V30 9017 H 870.268 -4.89533 -3.4658 0
M  V30 9018 H 871.947 -5.48839 -3.42615 0
M  V30 9019 N 872.079 0.78992 -1.36375 0
M  V30 9020 C 873.495 1.0879 -1.16777 0
M  V30 9021 C 873.695 2.01498 0.00848236 0
M  V30 9022 O 872.751 2.43338 0.674007 0
M  V30 9023 C 874.064 1.70285 -2.47837 0
M  V30 9024 C 875.612 1.82629 -2.54196 0
M  V30 9025 C 876.087 2.47539 -3.85342 0
M  V30 9026 N 877.578 2.55008 -3.86685 0
M  V30 9027 C 878.313 3.06041 -4.84898 0
M  V30 9028 N 877.809 3.57385 -5.93505 0
M  V30 9029 N 879.602 3.04748 -4.72319 0
M  V30 9030 H 871.753 0.173985 -2.11686 0
M  V30 9031 H 874.016 0.139798 -0.937636 0
M  V30 9032 H 873.722 1.09633 -3.34176 0
M  V30 9033 H 873.596 2.69799 -2.63607 0
M  V30 9034 H 875.983 2.42419 -1.68276 0
M  V30 9035 H 876.064 0.81923 -2.42327 0
M  V30 9036 H 875.708 1.88393 -4.71668 0
M  V30 9037 H 875.638 3.48815 -3.94507 0
M  V30 9038 H 878.129 2.18651 -3.08221 0
M  V30 9039 H 878.442 3.94674 -6.64419 0
M  V30 9040 H 876.787 3.55538 -5.97175 0
M  V30 9041 H 879.978 2.63925 -3.86602 0
M  V30 9042 H 880.151 3.44212 -5.49019 0
M  V30 9043 N 873.557 1.20646 1.01402 0
M  V30 9044 C 874.467 0.973385 2.13453 0
M  V30 9045 C 875.483 -0.0715865 1.73853 0
M  V30 9046 O 876.659 0.116438 2.01063 0
M  V30 9047 C 873.724 0.531285 3.42605 0
M  V30 9048 C 872.785 1.64741 3.96433 0
M  V30 9049 C 872.018 1.22631 5.1942 0
M  V30 9050 O 872.241 0.0960891 5.70319 0
M  V30 9051 O 871.175 2.03474 5.66465 0
M  V30 9052 H 875.001 1.91164 2.35987 0
M  V30 9053 H 872.586 0.990553 1.11841 0
M  V30 9054 H 874.468 0.294095 4.20373 0
M  V30 9055 H 873.143 -0.378358 3.21481 0
M  V30 9056 H 872.05 1.93891 3.19933 0
M  V30 9057 H 873.383 2.53415 4.2195 0
M  V30 9058 N 875.035 -1.20752 1.01276 0
M  V30 9059 C 875.998 -2.2162 0.584583 0
M  V30 9060 C 876.998 -1.57094 -0.343215 0
M  V30 9061 O 878.188 -1.73696 -0.132433 0
M  V30 9062 C 875.32 -3.40583 -0.146872 0
M  V30 9063 H 876.513 -2.61015 1.47686 0
M  V30 9064 H 874.066 -1.34148 0.802123 0
M  V30 9065 H 874.801 -3.06686 -1.05424 0
M  V30 9066 H 874.586 -3.88642 0.51958 0
M  V30 9067 H 876.076 -4.15339 -0.433924 0
M  V30 9068 N 876.513 -0.788492 -1.36457 0
M  V30 9069 C 877.446 -0.132189 -2.27817 0
M  V30 9070 C 878.424 0.691166 -1.47179 0
M  V30 9071 O 879.608 0.662344 -1.7648 0
M  V30 9072 C 876.735 0.818386 -3.28664 0
M  V30 9073 C 875.781 0.0769392 -4.26431 0
M  V30 9074 S 876.614 -1.24666 -5.20786 0
M  V30 9075 C 877.77 -0.300063 -6.2518 0
M  V30 9076 H 878.003 -0.906824 -2.83132 0
M  V30 9077 H 875.536 -0.582666 -1.42984 0
M  V30 9078 H 877.494 1.36138 -3.87268 0
M  V30 9079 H 876.155 1.56626 -2.72263 0
M  V30 9080 H 875.348 0.79819 -4.97639 0
M  V30 9081 H 874.95 -0.395547 -3.71902 0
M  V30 9082 H 877.242 0.521434 -6.7549 0
M  V30 9083 H 878.185 -0.980808 -7.01274 0
M  V30 9084 H 878.593 0.0961898 -5.64418 0
M  V30 9085 N 877.991 1.48044 -0.54043 0
M  V30 9086 C 878.941 2.26768 0.236657 0
M  V30 9087 C 879.925 1.33341 0.900505 0
M  V30 9088 O 881.117 1.57809 0.801584 0
M  V30 9089 C 878.246 3.18685 1.27651 0
M  V30 9090 C 877.332 4.19589 0.616923 0
M  V30 9091 N 877.723 5.04889 -0.303377 0
M  V30 9092 C 876.021 4.37375 0.872879 0
M  V30 9093 C 876.722 5.77654 -0.684905 0
M  V30 9094 N 875.698 5.43583 -0.0435728 0
M  V30 9095 H 879.5 2.90098 -0.471183 0
M  V30 9096 H 877.014 1.58378 -0.359183 0
M  V30 9097 H 879.011 3.73752 1.84702 0
M  V30 9098 H 877.671 2.56911 1.98562 0
M  V30 9099 H 878.682 5.13461 -0.676591 0
M  V30 9100 H 875.359 3.86784 1.57177 0
M  V30 9101 H 876.749 6.56285 -1.44015 0
M  V30 9102 N 879.47 0.276058 1.55163 0
M  V30 9103 C 880.718 -0.339782 1.99223 0
M  V30 9104 C 881.039 -1.56307 1.16589 0
M  V30 9105 O 880.309 -1.94225 0.25564 0
M  V30 9106 H 878.889 -0.128534 0.735859 0
M  V30 9107 H 881.551 0.381612 1.91128 0
M  V30 9108 H 880.647 -0.629 3.05696 0
M  V30 9109 N 880.948 -1.576 0.00335426 0
M  V30 9110 C 882.194 -1.90996 -0.681799 0
M  V30 9111 C 882.527 -0.877643 -1.73237 0
M  V30 9112 O 881.802 0.103183 -1.94226 0
M  V30 9113 C 882.085 -3.34961 -1.32187 0
M  V30 9114 C 881.938 -4.48911 -0.28261 0
M  V30 9115 C 883.257 -3.78408 -2.24711 0
M  V30 9116 H 880.376 -0.694596 -0.246386 0
M  V30 9117 H 883.018 -1.89919 0.055336 0
M  V30 9118 H 881.168 -3.36008 -1.95014 0
M  V30 9119 H 882.84 -4.59999 0.346241 0
M  V30 9120 H 881.083 -4.32 0.394768 0
M  V30 9121 H 881.754 -5.46609 -0.769576 0
M  V30 9122 H 884.23 -3.78934 -1.71897 0
M  V30 9123 H 883.106 -4.79885 -2.66461 0
M  V30 9124 H 883.367 -3.12464 -3.1276 0
M  V30 9125 N 882.426 0.269451 -1.5528 0
M  V30 9126 C 883.673 1.00058 -1.76053 0
M  V30 9127 C 884.001 1.86156 -0.563592 0
M  V30 9128 O 883.256 1.90366 0.453806 0
M  V30 9129 C 883.555 1.91 -3.02082 0
M  V30 9130 C 883.221 1.20623 -4.34466 0
M  V30 9131 C 881.883 1.01165 -4.70446 0
M  V30 9132 C 884.235 0.705695 -5.164 0
M  V30 9133 C 881.563 0.303865 -5.85913 0
M  V30 9134 C 883.915 0.0114838 -6.32599 0
M  V30 9135 C 882.579 -0.19478 -6.67216 0
M  V30 9136 H 881.849 0.366138 -0.644223 0
M  V30 9137 H 884.496 0.272563 -1.8955 0
M  V30 9138 H 882.801 2.70435 -2.835 0
M  V30 9139 H 884.498 2.47698 -3.15352 0
M  V30 9140 H 881.088 1.36781 -4.06188 0
M  V30 9141 H 885.272 0.84364 -4.89077 0
M  V30 9142 H 880.528 0.133368 -6.11255 0
M  V30 9143 H 884.702 -0.384111 -6.9534 0
M  V30 9144 H 882.329 -0.745201 -7.56539 0
M  V30 9145 N 883.904 1.48273 0.534124 0
M  V30 9146 C 884.834 1.6538 1.64839 0
M  V30 9147 C 885.815 0.502741 1.62501 0
M  V30 9148 O 887 0.734799 1.79762 0
M  V30 9149 C 884.13 1.68949 3.03436 0
M  V30 9150 C 883.084 2.83513 3.20631 0
M  V30 9151 C 882.41 2.72169 4.60248 0
M  V30 9152 C 883.71 4.24858 3.03797 0
M  V30 9153 H 885.404 2.58663 1.50777 0
M  V30 9154 H 882.95 1.24479 0.723937 0
M  V30 9155 H 884.903 1.79505 3.81256 0
M  V30 9156 H 883.627 0.722415 3.1851 0
M  V30 9157 H 882.286 2.72505 2.45227 0
M  V30 9158 H 881.934 1.7344 4.72152 0
M  V30 9159 H 881.634 3.49042 4.72698 0
M  V30 9160 H 883.158 2.84687 5.40172 0
M  V30 9161 H 884.572 4.36721 3.71413 0
M  V30 9162 H 882.969 5.02697 3.27743 0
M  V30 9163 H 884.039 4.41611 2.0027 0
M  V30 9164 N 885.382 -0.782676 1.36792 0
M  V30 9165 C 886.612 -1.56934 1.3437 0
M  V30 9166 C 887.02 -1.89049 -0.0754828 0
M  V30 9167 O 886.363 -1.51103 -1.04467 0
M  V30 9168 C 886.425 -2.91311 2.10661 0
M  V30 9169 C 886.089 -2.81889 3.59705 0
M  V30 9170 C 887.086 -2.53668 4.53815 0
M  V30 9171 C 884.771 -3.00254 4.02682 0
M  V30 9172 C 886.765 -2.43925 5.8888 0
M  V30 9173 C 884.452 -2.90132 5.37835 0
M  V30 9174 C 885.45 -2.62006 6.30747 0
M  V30 9175 O 885.138 -2.5189 7.63418 0
M  V30 9176 H 884.87 -0.493194 0.462316 0
M  V30 9177 H 887.424 -0.978791 1.80579 0
M  V30 9178 H 885.654 -3.52443 1.59125 0
M  V30 9179 H 887.343 -3.52632 2.01012 0
M  V30 9180 H 888.109 -2.39176 4.21924 0
M  V30 9181 H 883.988 -3.21151 3.30731 0
M  V30 9182 H 887.532 -2.21892 6.6137 0
M  V30 9183 H 883.429 -3.04189 5.69332 0
M  V30 9184 H 884.197 -2.67321 7.73616 0
M  V30 9185 N 886.86 -1.21182 -1.00761 0
M  V30 9186 C 887.81 -0.936247 -2.0789 0
M  V30 9187 C 888.794 0.107482 -1.60541 0
M  V30 9188 O 889.986 -0.1011 -1.76711 0
M  V30 9189 C 887.115 -0.499949 -3.3964 0
M  V30 9190 C 886.201 -1.5776 -3.93666 0
M  V30 9191 N 886.592 -2.80208 -4.2109 0
M  V30 9192 C 884.89 -1.44586 -4.21913 0
M  V30 9193 C 885.591 -3.49787 -4.64784 0
M  V30 9194 N 884.567 -2.7722 -4.676 0
M  V30 9195 H 888.369 -1.86659 -2.27015 0
M  V30 9196 H 885.883 -1.10716 -1.1881 0
M  V30 9197 H 887.88 -0.283897 -4.15932 0
M  V30 9198 H 886.54 0.423659 -3.21924 0
M  V30 9199 H 887.551 -3.16776 -4.09724 0
M  V30 9200 H 884.228 -0.587346 -4.13348 0
M  V30 9201 H 885.618 -4.54615 -4.94747 0
M  V30 9202 N 888.338 1.20213 -1.01915 0
M  V30 9203 C 889.301 2.21307 -0.596327 0
M  V30 9204 C 890.301 1.57274 0.334879 0
M  V30 9205 O 891.491 1.73764 0.12322 0
M  V30 9206 C 888.623 3.40657 0.128808 0
M  V30 9207 H 889.816 2.60228 -1.49068 0
M  V30 9208 H 887.369 1.33721 -0.809226 0
M  V30 9209 H 888.104 3.07241 1.03796 0
M  V30 9210 H 887.889 3.88361 -0.540183 0
M  V30 9211 H 889.379 4.15564 0.411892 0
M  V30 9212 N 889.816 0.795718 1.36037 0
M  V30 9213 C 891.065 0.367575 1.98322 0
M  V30 9214 C 891.378 -1.06823 1.63854 0
M  V30 9215 O 892.584 -1.59895 2.19421 0
M  V30 9216 C 891.04 0.606272 3.54757 0
M  V30 9217 C 890.648 2.0539 3.98144 0
M  V30 9218 C 892.392 0.242947 4.23804 0
M  V30 9219 C 890.299 2.23893 5.47381 0
M  V30 9220 H 889.229 0.133699 0.742052 0
M  V30 9221 H 891.88 0.978242 1.5525 0
M  V30 9222 H 890.262 -0.0741957 3.9593 0
M  V30 9223 H 891.436 2.77129 3.68152 0
M  V30 9224 H 889.751 2.37607 3.41953 0
M  V30 9225 H 892.348 0.359382 5.33491 0
M  V30 9226 H 892.691 -0.809661 4.08351 0
M  V30 9227 H 893.224 0.876899 3.88015 0
M  V30 9228 H 889.963 3.27559 5.6779 0
M  V30 9229 H 889.483 1.56666 5.78978 0
M  V30 9230 H 891.162 2.04914 6.13693 0
M  V30 9231 N 891.294 -1.47756 0.548274 0
M  V30 9232 C 892.241 -2.29893 -0.204408 0
M  V30 9233 C 893.211 -1.38509 -0.916761 0
M  V30 9234 O 894.396 -1.67472 -0.91421 0
M  V30 9235 C 891.536 -3.22282 -1.23403 0
M  V30 9236 C 890.649 -4.28753 -0.528654 0
M  V30 9237 C 889.784 -5.08303 -1.54279 0
M  V30 9238 C 888.823 -6.06557 -0.821893 0
M  V30 9239 N 887.96 -6.79098 -1.78243 0
M  V30 9240 H 892.8 -2.93739 0.502163 0
M  V30 9241 H 890.337 -1.44793 0.259471 0
M  V30 9242 H 892.295 -3.74262 -1.84348 0
M  V30 9243 H 890.925 -2.6032 -1.90875 0
M  V30 9244 H 889.977 -3.79899 0.195132 0
M  V30 9245 H 891.289 -4.98787 0.0365066 0
M  V30 9246 H 890.443 -5.64388 -2.22602 0
M  V30 9247 H 889.182 -4.3815 -2.14186 0
M  V30 9248 H 888.187 -5.49659 -0.12469 0
M  V30 9249 H 889.412 -6.78715 -0.228685 0
M  V30 9250 H 887.358 -6.11682 -2.37025 0
M  V30 9251 H 887.275 -7.4527 -1.26919 0
M  V30 9252 H 888.543 -7.39762 -2.45709 0
M  V30 9253 N 892.772 -0.284283 -1.55015 0
M  V30 9254 C 893.997 0.335799 -2.04664 0
M  V30 9255 C 894.422 1.47999 -1.16094 0
M  V30 9256 O 893.78 1.8058 -0.161454 0
M  V30 9257 C 893.828 0.785615 -3.51938 0
M  V30 9258 O 892.932 1.89202 -3.66437 0
M  V30 9259 H 892.273 0.0680233 -0.660506 0
M  V30 9260 H 894.803 -0.421255 -2.00216 0
M  V30 9261 H 894.813 1.07892 -3.93476 0
M  V30 9262 H 893.488 -0.0514675 -4.15868 0
M  V30 9263 H 892.065 1.60055 -3.36804 0
M  V30 9264 N 894.251 1.57596 -0.0117121 0
M  V30 9265 C 895.499 1.90694 0.669342 0
M  V30 9266 C 895.82 0.886999 1.73659 0
M  V30 9267 O 895.09 -0.0739779 1.9576 0
M  V30 9268 H 893.67 0.703846 0.250219 0
M  V30 9269 H 896.332 1.94821 -0.0554057 0
M  V30 9270 H 895.428 2.90802 1.13316 0
M  V30 9271 N 895.729 -0.261212 1.5542 0
M  V30 9272 C 896.662 -1.34906 1.84054 0
M  V30 9273 C 897.64 -1.47024 0.694466 0
M  V30 9274 O 898.824 -1.63463 0.938719 0
M  V30 9275 C 895.951 -2.7242 2.01259 0
M  V30 9276 C 894.997 -2.77526 3.23855 0
M  V30 9277 S 895.83 -2.35578 4.80898 0
M  V30 9278 C 896.986 -3.75045 5.01091 0
M  V30 9279 H 897.219 -1.10416 2.76035 0
M  V30 9280 H 894.752 -0.461461 1.47343 0
M  V30 9281 H 896.71 -3.51606 2.11857 0
M  V30 9282 H 895.371 -2.94155 1.10145 0
M  V30 9283 H 894.564 -3.78483 3.32816 0
M  V30 9284 H 894.166 -2.0637 3.11909 0
M  V30 9285 H 896.458 -4.7042 4.87556 0
M  V30 9286 H 897.401 -3.71027 6.03112 0
M  V30 9287 H 897.809 -3.66894 4.29009 0
M  V30 9288 N 897.207 -1.48554 -0.526253 0
M  V30 9289 C 898.484 -1.47252 -1.28748 0
M  V30 9290 C 898.864 -0.186245 -2.10277 0
M  V30 9291 O 898.212 0.831954 -2.12816 0
M  V30 9292 C 898.422 -2.73672 -2.16575 0
M  V30 9293 C 899.77 -3.22151 -2.76593 0
M  V30 9294 O 900.794 -2.74614 -2.2686 0
M  V30 9295 O 899.653 -4.04877 -3.67066 0
M  V30 9296 H 896.747 -0.588242 -0.581292 0
M  V30 9297 H 899.293 -1.60792 -0.5426 0
M  V30 9298 H 898.065 -3.58798 -1.56139 0
M  V30 9299 H 897.688 -2.6287 -2.98304 0
M  V30 9300 N 898.685 0.775411 -1.37205 0
M  V30 9301 C 899.618 1.8957 -1.27037 0
M  V30 9302 C 900.596 1.61891 -0.151643 0
M  V30 9303 O 901.78 1.85673 -0.325218 0
M  V30 9304 C 898.907 3.24712 -0.963316 0
M  V30 9305 C 897.953 3.71306 -2.09842 0
M  V30 9306 S 898.786 3.8541 -3.71778 0
M  V30 9307 C 899.942 5.23406 -3.43216 0
M  V30 9308 H 900.175 1.97905 -2.21857 0
M  V30 9309 H 897.708 0.936127 -1.22784 0
M  V30 9310 H 899.666 4.02768 -0.792983 0
M  V30 9311 H 898.327 3.14083 -0.0326561 0
M  V30 9312 H 897.52 4.69271 -1.83849 0
M  V30 9313 H 897.122 3.00341 -2.2287 0
M  V30 9314 H 899.414 6.08454 -2.97977 0
M  V30 9315 H 900.357 5.54409 -4.40495 0
M  V30 9316 H 900.765 4.9117 -2.78231 0
M  V30 9317 N 900.163 1.21714 1.00117 0
M  V30 9318 C 901.411 1.03465 1.73607 0
M  V30 9319 C 901.732 -0.432295 1.90148 0
M  V30 9320 O 901.002 -1.31157 1.45515 0
M  V30 9321 H 899.582 0.379857 0.643209 0
M  V30 9322 H 902.244 1.53088 1.20624 0
M  V30 9323 H 901.34 1.50574 2.73375 0
M  V30 9324 N 901.641 -1.19671 1.02551 0
M  V30 9325 C 902.89 -1.88591 0.715272 0
M  V30 9326 C 903.203 -1.80274 -0.758982 0
M  V30 9327 O 904.409 -2.44413 -1.18213 0
M  V30 9328 C 902.865 -3.38264 1.22905 0
M  V30 9329 C 902.473 -3.55146 2.73084 0
M  V30 9330 C 904.217 -4.12683 0.994649 0
M  V30 9331 C 902.124 -4.98693 3.17897 0
M  V30 9332 H 901.054 -0.706326 0.263857 0
M  V30 9333 H 903.705 -1.35322 1.23936 0
M  V30 9334 H 902.087 -3.9091 0.632892 0
M  V30 9335 H 903.261 -3.12845 3.38326 0
M  V30 9336 H 901.576 -2.94112 2.94766 0
M  V30 9337 H 904.173 -5.18536 1.30478 0
M  V30 9338 H 904.516 -4.16243 -0.0686466 0
M  V30 9339 H 905.049 -3.66164 1.55464 0
M  V30 9340 H 901.788 -5.00293 4.23542 0
M  V30 9341 H 901.308 -5.4177 2.57381 0
M  V30 9342 H 902.987 -5.67327 3.11045 0
M  V30 9343 N 903.119 -0.802921 -1.35613 0
M  V30 9344 C 904.365 -0.382141 -1.99167 0
M  V30 9345 C 904.698 1.04704 -1.63556 0
M  V30 9346 O 903.973 1.72578 -0.89706 0
M  V30 9347 C 904.256 -0.561493 -3.55695 0
M  V30 9348 C 904.109 -2.03534 -4.01116 0
M  V30 9349 C 905.428 0.0151135 -4.40097 0
M  V30 9350 H 902.547 -0.140322 -0.723518 0
M  V30 9351 H 905.189 -1.01177 -1.6082 0
M  V30 9352 H 903.339 -0.0255083 -3.88492 0
M  V30 9353 H 905.011 -2.63343 -3.78746 0
M  V30 9354 H 903.254 -2.5331 -3.52159 0
M  V30 9355 H 903.925 -2.11173 -5.1001 0
M  V30 9356 H 906.401 -0.442582 -4.1374 0
M  V30 9357 H 905.277 -0.140316 -5.48721 0
M  V30 9358 H 905.538 1.10848 -4.27978 0
M  V30 9359 N 904.597 1.47463 -0.556102 0
M  V30 9360 C 905.545 2.31692 0.205299 0
M  V30 9361 C 906.539 1.42857 0.910394 0
M  V30 9362 O 907.745 1.59628 0.831806 0
M  V30 9363 H 904.12 0.747172 0.0850775 0
M  V30 9364 H 906.091 2.93758 -0.524305 0
M  V30 9365 C 904.84 3.25487 1.22283 0
M  V30 9366 H 904.163 3.93806 0.689697 0
M  V30 9367 H 905.603 3.87257 1.7265 0
M  V30 9368 C 904.062 2.48931 2.27013 0
M  V30 9369 O 904.592 2.23296 3.33919 0
M  V30 9370 N 902.798 2.0996 2.00911 0
M  V30 9371 H 902.345 2.31008 1.13986 0
M  V30 9372 H 902.303 1.59053 2.712 0
M  V30 9373 N 906.075 0.2925 1.54862 0
M  V30 9374 C 907.038 -0.574423 2.21885 0
M  V30 9375 C 908.038 -1.06791 1.20218 0
M  V30 9376 O 909.228 -0.9653 1.45009 0
M  V30 9377 C 906.36 -1.79438 2.89853 0
M  V30 9378 H 907.553 0.0110319 2.99898 0
M  V30 9379 H 905.106 0.043256 1.5624 0
M  V30 9380 H 905.841 -2.4199 2.15897 0
M  V30 9381 H 905.626 -1.44827 3.64373 0
M  V30 9382 H 907.116 -2.41048 3.41007 0
M  V30 9383 N 907.553 -1.57587 0.0200696 0
M  V30 9384 C 908.801 -1.91046 -0.65922 0
M  V30 9385 C 909.122 -0.896197 -1.73186 0
M  V30 9386 O 908.392 0.0635952 -1.95797 0
M  V30 9387 H 906.972 -0.705163 -0.246483 0
M  V30 9388 H 909.634 -1.94789 0.0657368 0
M  V30 9389 H 908.73 -2.91399 -1.11773 0
M  V30 9390 N 909.032 0.252966 -1.55557 0
M  V30 9391 C 909.98 1.33289 -1.90622 0
M  V30 9392 C 910.974 1.50133 -0.784638 0
M  V30 9393 O 912.18 1.51679 -0.969196 0
M  V30 9394 H 908.555 0.446196 -0.605321 0
M  V30 9395 H 910.526 1.00977 -2.80796 0
M  V30 9396 C 909.275 2.68254 -2.21213 0
M  V30 9397 H 908.598 2.5609 -3.07014 0
M  V30 9398 H 910.038 3.42707 -2.49656 0
M  V30 9399 C 908.497 3.20884 -1.02642 0
M  V30 9400 O 909.027 4.00783 -0.271292 0
M  V30 9401 N 907.233 2.7883 -0.818682 0
M  V30 9402 H 906.78 2.13966 -1.43444 0
M  V30 9403 H 906.738 3.14388 -0.0269989 0
M  V30 9404 N 910.51 1.48831 0.518367 0
M  V30 9405 C 911.44 1.67119 1.63075 0
M  V30 9406 C 912.421 0.519948 1.61958 0
M  V30 9407 O 913.606 0.753824 1.78972 0
M  V30 9408 C 910.736 1.72158 3.01627 0
M  V30 9409 C 909.69 2.86898 3.17606 0
M  V30 9410 C 909.016 2.77035 4.57335 0
M  V30 9411 C 910.316 4.28057 2.99274 0
M  V30 9412 H 912.01 2.60248 1.48025 0
M  V30 9413 H 909.556 1.2524 0.710694 0
M  V30 9414 H 911.509 1.83539 3.7933 0
M  V30 9415 H 910.233 0.756157 3.17726 0
M  V30 9416 H 908.892 2.75091 2.42323 0
M  V30 9417 H 908.54 1.78438 4.70286 0
M  V30 9418 H 908.24 3.54036 4.6897 0
M  V30 9419 H 909.764 2.904 5.37122 0
M  V30 9420 H 911.178 4.40636 3.6676 0
M  V30 9421 H 909.575 5.06145 3.22393 0
M  V30 9422 H 910.645 4.4371 1.95574 0
M  V30 9423 N 911.988 -0.768124 1.37614 0
M  V30 9424 C 913.399 -1.34462 1.29525 0
M  V30 9425 C 913.75 -1.96121 -0.0555168 0
M  V30 9426 O 912.875 -1.94069 -0.957406 0
M  V30 9427 C 913.47 -2.44475 2.34558 0
M  V30 9428 C 912.029 -2.97883 2.30093 0
M  V30 9429 C 911.176 -1.71131 2.18196 0
M  V30 9430 H 914.127 -0.568103 1.48183 0
M  V30 9431 H 914.148 -3.24047 1.99434 0
M  V30 9432 H 913.66 -1.99568 3.32858 0
M  V30 9433 H 911.761 -3.47156 1.35328 0
M  V30 9434 H 911.874 -3.53251 3.23652 0
M  V30 9435 H 910.238 -1.94197 1.64802 0
M  V30 9436 H 911.021 -1.28323 3.18415 0
M  V30 9437 N 913.466 -1.22244 -0.994698 0
M  V30 9438 C 914.712 -1.04746 -1.73655 0
M  V30 9439 C 915.045 0.41668 -1.89677 0
M  V30 9440 O 914.32 1.30897 -1.43862 0
M  V30 9441 C 914.603 -1.75716 -3.14318 0
M  V30 9442 C 914.456 -3.29714 -3.05955 0
M  V30 9443 C 915.775 -1.50809 -4.13455 0
M  V30 9444 H 912.894 -0.381921 -0.630322 0
M  V30 9445 H 915.536 -1.50559 -1.15897 0
M  V30 9446 H 913.686 -1.3677 -3.63629 0
M  V30 9447 H 915.358 -3.78093 -2.64279 0
M  V30 9448 H 913.601 -3.59484 -2.42804 0
M  V30 9449 H 914.272 -3.74547 -4.05485 0
M  V30 9450 H 916.748 -1.84636 -3.72892 0
M  V30 9451 H 915.624 -2.02964 -5.09997 0
M  V30 9452 H 915.885 -0.440292 -4.39902 0
M  V30 9453 N 914.944 1.19125 -1.03184 0
M  V30 9454 C 916.174 1.92558 -0.748663 0
M  V30 9455 C 916.582 1.759 0.696837 0
M  V30 9456 O 915.925 1.08019 1.48585 0
M  V30 9457 C 915.987 3.4461 -1.02391 0
M  V30 9458 C 915.651 3.85041 -2.46155 0
M  V30 9459 C 916.648 3.89554 -3.44302 0
M  V30 9460 C 914.333 4.16594 -2.80633 0
M  V30 9461 C 916.327 4.25055 -4.74981 0
M  V30 9462 C 914.014 4.51767 -4.11521 0
M  V30 9463 C 915.012 4.55972 -5.08506 0
M  V30 9464 O 914.7 4.9033 -6.37049 0
M  V30 9465 H 914.432 0.618397 -0.273059 0
M  V30 9466 H 916.986 1.52122 -1.38015 0
M  V30 9467 H 915.216 3.85244 -0.335284 0
M  V30 9468 H 916.905 3.99283 -0.729927 0
M  V30 9469 H 917.671 3.65324 -3.19003 0
M  V30 9470 H 913.55 4.12503 -2.05821 0
M  V30 9471 H 917.094 4.28252 -5.50678 0
M  V30 9472 H 912.991 4.75455 -4.36592 0
M  V30 9473 H 913.759 5.08266 -6.41566 0
M  V30 9474 N 916.422 0.810101 1.35185 0
M  V30 9475 C 917.699 0.315235 1.93043 0
M  V30 9476 C 918.079 -1.19567 1.73974 0
M  V30 9477 O 917.427 -1.99682 1.11083 0
M  V30 9478 C 917.637 0.730492 3.41269 0
M  V30 9479 C 918.985 0.721985 4.18417 0
M  V30 9480 O 920.009 0.672258 3.49799 0
M  V30 9481 O 918.868 0.783535 5.40854 0
M  V30 9482 H 915.962 0.0832774 0.822796 0
M  V30 9483 H 918.508 0.894034 1.4424 0
M  V30 9484 H 917.28 1.77169 3.48894 0
M  V30 9485 H 916.903 0.12669 3.97398 0
M  V30 9486 N 917.9 -1.47166 0.563914 0
M  V30 9487 C 919.177 -1.95586 -0.0236172 0
M  V30 9488 C 919.557 -1.50655 -1.47872 0
M  V30 9489 O 918.905 -0.748479 -2.15894 0
M  V30 9490 C 919.115 -3.48762 0.128841 0
M  V30 9491 C 920.463 -4.24598 -0.0130544 0
M  V30 9492 O 921.487 -3.56155 0.0567242 0
M  V30 9493 O 920.346 -5.46253 -0.164332 0
M  V30 9494 H 917.44 -0.824793 -0.0603789 0
M  V30 9495 H 919.986 -1.57536 0.63091 0
M  V30 9496 H 918.758 -3.74291 1.14113 0
M  V30 9497 H 918.381 -3.93594 -0.56299 0
M  V30 9498 N 919.378 -0.300708 -1.54705 0
M  V30 9499 C 920.627 0.309428 -1.99312 0
M  V30 9500 C 920.94 1.55027 -1.19272 0
M  V30 9501 O 922.146 2.23498 -1.54146 0
M  V30 9502 C 920.602 0.601856 -3.54832 0
M  V30 9503 C 920.21 -0.620636 -4.4368 0
M  V30 9504 C 921.954 1.1732 -4.07966 0
M  V30 9505 C 919.861 -0.301376 -5.90632 0
M  V30 9506 H 918.791 0.119395 -0.744487 0
M  V30 9507 H 921.442 -0.409368 -1.78875 0
M  V30 9508 H 919.824 1.38024 -3.71168 0
M  V30 9509 H 920.998 -1.39685 -4.39118 0
M  V30 9510 H 919.313 -1.1106 -4.01316 0
M  V30 9511 H 921.91 1.42631 -5.15326 0
M  V30 9512 H 922.253 2.11537 -3.5855 0
M  V30 9513 H 922.786 0.456534 -3.95172 0
M  V30 9514 H 919.525 -1.21209 -6.44196 0
M  V30 9515 H 919.045 0.437574 -5.98202 0
M  V30 9516 H 920.724 0.097164 -6.46927 0
M  V30 9517 N 920.856 1.57574 -0.0284266 0
M  V30 9518 C 921.806 2.06674 0.962804 0
M  V30 9519 C 922.79 0.967115 1.28591 0
M  V30 9520 O 923.982 1.23068 1.27214 0
M  V30 9521 C 921.111 2.59682 2.24545 0
M  V30 9522 C 920.197 3.76573 1.95073 0
M  V30 9523 N 920.588 4.8721 1.35869 0
M  V30 9524 C 918.886 3.85046 2.25068 0
M  V30 9525 C 919.587 5.68436 1.23514 0
M  V30 9526 N 918.563 5.15323 1.73041 0
M  V30 9527 H 922.365 2.89615 0.500013 0
M  V30 9528 H 919.879 1.61437 0.176604 0
M  V30 9529 H 921.876 2.93148 2.96428 0
M  V30 9530 H 920.536 1.7817 2.71451 0
M  V30 9531 H 921.547 5.07477 1.03379 0
M  V30 9532 H 918.224 3.14439 2.74653 0
M  V30 9533 H 919.614 6.67387 0.777403 0
M  V30 9534 N 922.334 -0.244713 1.55689 0
M  V30 9535 C 923.281 -1.30301 1.905 0
M  V30 9536 C 924.251 -1.4772 0.759478 0
M  V30 9537 O 925.436 -1.61667 1.01333 0
M  V30 9538 C 922.576 -2.653 2.20703 0
M  V30 9539 C 921.689 -2.55872 3.48071 0
M  V30 9540 C 920.824 -3.83238 3.67834 0
M  V30 9541 C 919.863 -3.68436 4.88796 0
M  V30 9542 N 919 -4.877 5.05068 0
M  V30 9543 H 923.84 -0.999143 2.80751 0
M  V30 9544 H 921.377 -0.482099 1.38976 0
M  V30 9545 H 923.335 -3.43884 2.36219 0
M  V30 9546 H 921.965 -2.93831 1.33653 0
M  V30 9547 H 921.017 -1.68846 3.40874 0
M  V30 9548 H 922.329 -2.40845 4.36801 0
M  V30 9549 H 921.483 -4.70266 3.83321 0
M  V30 9550 H 920.222 -4.01165 2.77341 0
M  V30 9551 H 919.227 -2.79793 4.73282 0
M  V30 9552 H 920.452 -3.52003 5.8075 0
M  V30 9553 H 918.398 -5.05983 4.17513 0
M  V30 9554 H 918.315 -4.75312 5.8789 0
M  V30 9555 H 919.583 -5.76219 5.24969 0
M  V30 9556 N 923.813 -1.49104 -0.510467 0
M  V30 9557 C 924.723 -1.67792 -1.6396 0
M  V30 9558 C 925.739 -0.560454 -1.64727 0
M  V30 9559 O 926.915 -0.833985 -1.83321 0
M  V30 9560 C 923.98 -1.73154 -3.00364 0
M  V30 9561 C 923.041 -2.9667 -3.10299 0
M  V30 9562 C 922.274 -3.01767 -4.40196 0
M  V30 9563 O 922.497 -2.1472 -5.28443 0
M  V30 9564 O 921.431 -3.94137 -4.54906 0
M  V30 9565 H 925.257 -2.63428 -1.51126 0
M  V30 9566 H 922.842 -1.32734 -0.685719 0
M  V30 9567 H 924.724 -1.79089 -3.81451 0
M  V30 9568 H 923.399 -0.806952 -3.1348 0
M  V30 9569 H 922.306 -2.96257 -2.28435 0
M  V30 9570 H 923.639 -3.88578 -3.02106 0
M  V30 9571 N 925.291 0.760815 -1.38019 0
M  V30 9572 C 926.221 1.88811 -1.37377 0
M  V30 9573 C 927.202 1.68388 -0.240737 0
M  V30 9574 O 928.387 1.89086 -0.442739 0
M  V30 9575 C 925.517 3.26244 -1.1909 0
M  V30 9576 C 924.471 3.61254 -2.29521 0
M  V30 9577 C 923.797 4.97346 -1.96345 0
M  V30 9578 C 925.097 3.66874 -3.71753 0
M  V30 9579 H 926.791 1.89606 -2.31711 0
M  V30 9580 H 924.337 0.910818 -1.11535 0
M  V30 9581 H 926.29 4.04755 -1.17267 0
M  V30 9582 H 925.014 3.2591 -0.212152 0
M  V30 9583 H 923.673 2.85057 -2.30517 0
M  V30 9584 H 923.321 4.93564 -0.969728 0
M  V30 9585 H 923.021 5.21739 -2.703 0
M  V30 9586 H 924.545 5.78244 -1.96129 0
M  V30 9587 H 925.959 4.35514 -3.72828 0
M  V30 9588 H 924.356 4.02772 -4.44853 0
M  V30 9589 H 925.426 2.67273 -4.0459 0
M  V30 9590 N 926.769 1.22769 0.988202 0
M  V30 9591 C 927.699 1.02627 2.09738 0
M  V30 9592 C 928.68 -0.0543211 1.70013 0
M  V30 9593 O 929.865 0.108811 1.93895 0
M  V30 9594 C 926.995 0.608302 3.41931 0
M  V30 9595 C 925.949 1.63536 3.95525 0
M  V30 9596 C 925.275 1.07308 5.23822 0
M  V30 9597 C 926.575 3.02649 4.25677 0
M  V30 9598 H 928.269 1.954 2.26847 0
M  V30 9599 H 925.815 0.940888 1.09011 0
M  V30 9600 H 927.768 0.454478 4.18942 0
M  V30 9601 H 926.492 -0.355095 3.24664 0
M  V30 9602 H 925.151 1.77704 3.20651 0
M  V30 9603 H 924.799 0.100894 5.02899 0
M  V30 9604 H 924.499 1.75925 5.60646 0
M  V30 9605 H 926.023 0.930938 6.03462 0
M  V30 9606 H 927.437 2.91828 4.93467 0
M  V30 9607 H 925.834 3.68434 4.73684 0
M  V30 9608 H 926.904 3.52228 3.33262 0
M  V30 9609 N 928.247 -1.18576 1.03814 0
M  V30 9610 C 929.179 -2.21607 0.585055 0
M  V30 9611 C 930.192 -1.59125 -0.343963 0
M  V30 9612 O 931.381 -1.77959 -0.138882 0
M  V30 9613 C 928.481 -3.38495 -0.165602 0
M  V30 9614 C 927.654 -4.30557 0.770662 0
M  V30 9615 C 926.713 -5.26161 0.0637534 0
M  V30 9616 O 925.739 -5.64961 0.693359 0
M  V30 9617 N 926.941 -5.67882 -1.20377 0
M  V30 9618 H 929.706 -2.61104 1.47121 0
M  V30 9619 H 927.267 -1.33336 0.918316 0
M  V30 9620 H 929.259 -3.99474 -0.648292 0
M  V30 9621 H 927.829 -2.97711 -0.953268 0
M  V30 9622 H 927.049 -3.67221 1.43326 0
M  V30 9623 H 928.337 -4.88969 1.40667 0
M  V30 9624 H 927.735 -5.38409 -1.73586 0
M  V30 9625 H 926.292 -6.31069 -1.63079 0
M  V30 9626 N 929.725 -0.817259 -1.34754 0
M  V30 9627 C 930.655 -0.249769 -2.3216 0
M  V30 9628 C 931.636 0.630663 -1.57977 0
M  V30 9629 O 932.821 0.558719 -1.85989 0
M  V30 9630 C 929.951 0.593825 -3.42186 0
M  V30 9631 C 928.905 -0.188997 -4.27583 0
M  V30 9632 C 928.231 0.776979 -5.29025 0
M  V30 9633 C 929.531 -1.39401 -5.03354 0
M  V30 9634 H 931.225 -1.06359 -2.79872 0
M  V30 9635 H 928.771 -0.512894 -1.34556 0
M  V30 9636 H 930.724 1.00097 -4.09339 0
M  V30 9637 H 929.448 1.44064 -2.93109 0
M  V30 9638 H 928.107 -0.577445 -3.62024 0
M  V30 9639 H 927.755 1.61959 -4.76212 0
M  V30 9640 H 927.455 0.257448 -5.87036 0
M  V30 9641 H 928.979 1.18211 -5.99048 0
M  V30 9642 H 930.393 -1.06117 -5.63393 0
M  V30 9643 H 928.79 -1.84878 -5.70912 0
M  V30 9644 H 929.86 -2.17515 -4.33377 0
M  V30 9645 N 931.203 1.46865 -0.571711 0
M  V30 9646 C 932.443 2.04324 -0.0556487 0
M  V30 9647 C 932.807 1.43486 1.27576 0
M  V30 9648 O 934.008 1.92079 1.8804 0
M  V30 9649 C 932.279 3.57394 0.0206263 0
M  V30 9650 S 933.838 4.36159 0.480709 0
M  V30 9651 H 930.656 0.710273 -0.0321467 0
M  V30 9652 H 933.258 1.8005 -0.761725 0
M  V30 9653 H 931.962 3.99193 -0.952509 0
M  V30 9654 H 931.493 3.86188 0.749812 0
M  V30 9655 H 933.508 4.6478 1.73763 0
M  V30 9656 N 932.681 0.308908 1.54543 0
M  V30 9657 C 933.591 -0.572939 2.27496 0
M  V30 9658 C 934.607 -1.14171 1.31305 0
M  V30 9659 O 935.783 -1.16481 1.64299 0
M  V30 9660 C 932.848 -1.72483 3.0075 0
M  V30 9661 C 931.909 -1.18934 4.12496 0
M  V30 9662 C 931.142 -2.28634 4.82247 0
M  V30 9663 O 931.365 -3.48691 4.5141 0
M  V30 9664 O 930.299 -1.94879 5.69478 0
M  V30 9665 H 934.125 0.0190877 3.03694 0
M  V30 9666 H 931.71 0.0750943 1.49211 0
M  V30 9667 H 933.592 -2.39578 3.46671 0
M  V30 9668 H 932.267 -2.30332 2.2744 0
M  V30 9669 H 931.174 -0.483904 3.70957 0
M  V30 9670 H 932.507 -0.656185 4.87806 0
M  V30 9671 N 934.159 -1.57557 0.0367827 0
M  V30 9672 C 935.436 -1.83427 -0.679261 0
M  V30 9673 C 935.816 -0.922274 -1.89888 0
M  V30 9674 O 935.164 0.02025 -2.28491 0
M  V30 9675 C 935.374 -3.32823 -1.05022 0
M  V30 9676 C 936.722 -3.99486 -1.43861 0
M  V30 9677 O 937.746 -3.37364 -1.14297 0
M  V30 9678 O 936.605 -5.0899 -1.98977 0
M  V30 9679 H 933.699 -0.756581 -0.333936 0
M  V30 9680 H 936.245 -1.69575 0.0650494 0
M  V30 9681 H 935.017 -3.90874 -0.182509 0
M  V30 9682 H 934.64 -3.5181 -1.85244 0
M  V30 9683 N 935.637 0.236453 -1.55816 0
M  V30 9684 C 936.567 1.29639 -1.94206 0
M  V30 9685 C 937.548 1.49667 -0.808319 0
M  V30 9686 O 938.733 1.621 -1.06945 0
M  V30 9687 C 935.863 2.64914 -2.24584 0
M  V30 9688 C 934.817 2.59565 -3.40308 0
M  V30 9689 C 934.143 3.98732 -3.56254 0
M  V30 9690 C 935.443 2.15642 -4.75706 0
M  V30 9691 H 937.137 0.977552 -2.82992 0
M  V30 9692 H 934.683 0.468804 -1.36155 0
M  V30 9693 H 936.636 3.39209 -2.50031 0
M  V30 9694 H 935.36 2.98455 -1.32636 0
M  V30 9695 H 934.019 1.87728 -3.14887 0
M  V30 9696 H 933.667 4.29556 -2.61707 0
M  V30 9697 H 933.367 3.96039 -4.34082 0
M  V30 9698 H 934.891 4.74711 -3.84033 0
M  V30 9699 H 936.305 2.79673 -5.00456 0
M  V30 9700 H 934.702 2.24039 -5.56711 0
M  V30 9701 H 935.772 1.10831 -4.72064 0
M  V30 9702 N 937.115 1.49373 0.502552 0
M  V30 9703 C 938.364 1.58028 1.25339 0
M  V30 9704 C 938.677 0.271494 1.93707 0
M  V30 9705 O 939.883 0.236584 2.70467 0
M  V30 9706 C 938.339 2.78817 2.27572 0
M  V30 9707 C 937.947 4.16448 1.65151 0
M  V30 9708 C 939.691 2.96802 3.03494 0
M  V30 9709 C 937.598 5.28461 2.65486 0
M  V30 9710 H 936.528 0.588396 0.471494 0
M  V30 9711 H 939.179 1.75756 0.52744 0
M  V30 9712 H 937.561 2.5458 3.03323 0
M  V30 9713 H 938.735 4.50816 0.954029 0
M  V30 9714 H 937.05 4.03809 1.01625 0
M  V30 9715 H 939.647 3.77656 3.78524 0
M  V30 9716 H 939.99 2.07303 3.61014 0
M  V30 9717 H 940.523 3.21071 2.34858 0
M  V30 9718 H 937.262 6.20015 2.12749 0
M  V30 9719 H 936.782 4.9855 3.33479 0
M  V30 9720 H 938.461 5.5773 3.27943 0
M  V30 9721 N 938.594 -0.753485 1.38421 0
M  V30 9722 C 939.84 -1.51391 1.35839 0
M  V30 9723 C 940.195 -1.92331 -0.0513518 0
M  V30 9724 O 939.488 -1.62568 -1.01401 0
M  V30 9725 C 939.682 -2.77836 2.24816 0
M  V30 9726 C 939.511 -2.49257 3.74301 0
M  V30 9727 C 938.281 -2.42471 4.43324 0
M  V30 9728 C 940.479 -2.16027 4.6673 0
M  V30 9729 N 938.461 -2.06168 5.78246 0
M  V30 9730 C 939.832 -1.90016 5.90164 0
M  V30 9731 C 941.887 -2.02337 4.54933 0
M  V30 9732 C 940.59 -1.51696 7.03122 0
M  V30 9733 C 942.616 -1.65419 5.67794 0
M  V30 9734 C 941.978 -1.40281 6.9029 0
M  V30 9735 H 938.077 -0.553561 0.552354 0
M  V30 9736 H 940.661 -0.877409 1.73809 0
M  V30 9737 H 938.832 -3.39295 1.89034 0
M  V30 9738 H 940.564 -3.43889 2.13359 0
M  V30 9739 H 937.319 -2.58946 3.9654 0
M  V30 9740 H 937.743 -1.90662 6.49598 0
M  V30 9741 H 942.385 -2.20447 3.60781 0
M  V30 9742 H 940.103 -1.32325 7.97192 0
M  V30 9743 H 943.689 -1.55459 5.60646 0
M  V30 9744 H 942.569 -1.12139 7.76141 0
M  V30 9745 N 940.072 -1.23292 -0.981677 0
M  V30 9746 C 941.02 -1.0104 -2.09508 0
M  V30 9747 C 942.014 0.0501977 -1.69326 0
M  V30 9748 O 943.22 -0.103197 -1.79704 0
M  V30 9749 H 939.595 -0.309629 -0.685298 0
M  V30 9750 H 941.566 -1.95493 -2.25444 0
M  V30 9751 C 940.315 -0.616885 -3.42184 0
M  V30 9752 H 939.638 -1.4247 -3.73554 0
M  V30 9753 H 941.078 -0.500688 -4.21033 0
M  V30 9754 C 939.537 0.674721 -3.30074 0
M  V30 9755 O 940.067 1.72421 -3.62814 0
M  V30 9756 N 938.273 0.650151 -2.83234 0
M  V30 9757 H 937.82 -0.204225 -2.56789 0
M  V30 9758 H 937.778 1.51458 -2.75514 0
M  V30 9759 N 941.55 1.18024 -1.04442 0
M  V30 9760 C 942.497 2.21785 -0.638759 0
M  V30 9761 C 943.467 1.62255 0.355312 0
M  V30 9762 O 944.652 1.89176 0.24844 0
M  V30 9763 C 941.792 3.45098 -0.0118002 0
M  V30 9764 C 940.905 4.1895 -1.05379 0
M  V30 9765 C 940.04 5.2973 -0.394951 0
M  V30 9766 C 939.079 5.95359 -1.42178 0
M  V30 9767 N 938.216 6.97668 -0.787635 0
M  V30 9768 H 943.056 2.55839 -1.52808 0
M  V30 9769 H 940.593 1.25681 -0.764378 0
M  V30 9770 H 942.551 4.15564 0.369075 0
M  V30 9771 H 941.181 3.11652 0.84102 0
M  V30 9772 H 940.233 3.47274 -1.55258 0
M  V30 9773 H 941.545 4.63877 -1.83355 0
M  V30 9774 H 940.699 6.06687 0.0399244 0
M  V30 9775 H 939.438 4.85915 0.416867 0
M  V30 9776 H 938.443 5.17139 -1.86675 0
M  V30 9777 H 939.668 6.41255 -2.23536 0
M  V30 9778 H 937.614 6.56 0.00380893 0
M  V30 9779 H 937.531 7.40867 -1.50505 0
M  V30 9780 H 938.799 7.78586 -0.377282 0
M  V30 9781 N 943.028 0.824394 1.34319 0
M  V30 9782 C 944.305 0.335692 1.92698 0
M  V30 9783 C 944.685 -1.17715 1.75232 0
M  V30 9784 O 944.033 -1.98493 1.13194 0
M  V30 9785 C 944.243 0.766647 3.40475 0
M  V30 9786 C 945.591 0.766323 4.17627 0
M  V30 9787 O 946.615 0.709321 3.49066 0
M  V30 9788 O 945.474 0.840856 5.39992 0
M  V30 9789 H 942.568 0.0919996 0.821867 0
M  V30 9790 H 945.114 0.909282 1.43283 0
M  V30 9791 H 943.886 1.80859 3.46995 0
M  V30 9792 H 943.509 0.168833 3.97241 0
M  V30 9793 N 944.506 -1.46559 0.579492 0
M  V30 9794 C 945.917 -1.8608 0.152052 0
M  V30 9795 C 946.268 -1.48346 -1.28405 0
M  V30 9796 O 945.393 -0.89685 -1.9694 0
M  V30 9797 C 945.988 -3.37729 0.269171 0
M  V30 9798 C 944.547 -3.76258 -0.103376 0
M  V30 9799 C 943.694 -2.70584 0.60659 0
M  V30 9800 H 946.645 -1.3776 0.787904 0
M  V30 9801 H 946.666 -3.77116 -0.506339 0
M  V30 9802 H 946.178 -3.65162 1.31448 0
M  V30 9803 H 944.279 -3.54443 -1.14895 0
M  V30 9804 H 944.392 -4.78335 0.270701 0
M  V30 9805 H 942.756 -2.54656 0.0471984 0
M  V30 9806 H 943.539 -3.00856 1.65349 0
M  V30 9807 N 945.984 -0.3171 -1.54377 0
M  V30 9808 C 946.894 0.560867 -2.27797 0
M  V30 9809 C 947.91 1.13473 -1.31908 0
M  V30 9810 O 949.086 1.15608 -1.64914 0
M  V30 9811 C 946.151 1.70886 -3.0166 0
M  V30 9812 C 945.212 1.16745 -4.13121 0
M  V30 9813 C 944.445 2.26073 -4.83453 0
M  V30 9814 O 944.668 3.46292 -4.53252 0
M  V30 9815 O 943.602 1.91856 -5.70504 0
M  V30 9816 H 947.428 -0.035193 -3.0368 0
M  V30 9817 H 945.013 -0.0830062 -1.49169 0
M  V30 9818 H 946.895 2.37736 -3.47936 0
M  V30 9819 H 945.57 2.29122 -2.28658 0
M  V30 9820 H 944.477 0.464224 -3.71209 0
M  V30 9821 H 945.81 0.630307 -4.88147 0
M  V30 9822 N 947.462 1.57535 -0.0451378 0
M  V30 9823 C 948.425 2.1008 0.916461 0
M  V30 9824 C 949.425 1.01913 1.2438 0
M  V30 9825 O 950.615 1.2801 1.18148 0
M  V30 9826 C 947.747 2.58001 2.22818 0
M  V30 9827 H 948.94 2.96334 0.461076 0
M  V30 9828 H 946.493 1.54974 0.203169 0
M  V30 9829 H 947.228 1.75123 2.72951 0
M  V30 9830 H 947.013 3.3704 2.00366 0
M  V30 9831 H 948.503 2.98822 2.9171 0
M  V30 9832 N 948.94 -0.228186 1.55939 0
M  V30 9833 C 950.168 -0.970618 1.8272 0
M  V30 9834 C 950.583 -1.78212 0.623385 0
M  V30 9835 O 949.94 -1.77879 -0.408063 0
M  V30 9836 C 949.991 -1.89352 3.07942 0
M  V30 9837 O 949.712 -1.11483 4.23678 0
M  V30 9838 C 951.213 -2.75039 3.47661 0
M  V30 9839 H 948.433 -0.284772 0.607574 0
M  V30 9840 H 950.977 -0.245419 2.03022 0
M  V30 9841 H 949.132 -2.57275 2.89635 0
M  V30 9842 H 949.546 -1.74073 4.94772 0
M  V30 9843 H 951.02 -3.35511 4.38334 0
M  V30 9844 H 951.497 -3.471 2.69106 0
M  V30 9845 H 952.103 -2.1254 3.68384 0
M  V30 9846 N 950.418 -1.49637 -0.494624 0
M  V30 9847 C 951.328 -1.69522 -1.62172 0
M  V30 9848 C 952.344 -0.577894 -1.64123 0
M  V30 9849 O 953.52 -0.853382 -1.82426 0
M  V30 9850 C 950.585 -1.7633 -2.9851 0
M  V30 9851 C 949.646 -2.99944 -3.07135 0
M  V30 9852 C 948.879 -3.06419 -4.36971 0
M  V30 9853 O 949.102 -2.20312 -5.26136 0
M  V30 9854 O 948.036 -3.9894 -4.507 0
M  V30 9855 H 951.862 -2.65017 -1.48324 0
M  V30 9856 H 949.447 -1.33454 -0.671603 0
M  V30 9857 H 951.329 -1.83125 -3.7953 0
M  V30 9858 H 950.004 -0.840155 -3.12607 0
M  V30 9859 H 948.911 -2.98664 -2.2528 0
M  V30 9860 H 950.244 -3.9176 -2.97968 0
M  V30 9861 N 951.896 0.746133 -1.38819 0
M  V30 9862 C 952.843 1.86001 -1.36647 0
M  V30 9863 C 953.813 1.6453 -0.227849 0
M  V30 9864 O 954.998 1.86092 -0.421241 0
M  V30 9865 C 952.138 3.23388 -1.20474 0
M  V30 9866 C 951.251 3.5664 -2.43786 0
M  V30 9867 C 950.386 4.8337 -2.20287 0
M  V30 9868 C 949.425 5.09431 -3.39332 0
M  V30 9869 N 948.562 6.2736 -3.1522 0
M  V30 9870 H 953.402 1.87192 -2.31869 0
M  V30 9871 H 950.939 0.914838 -1.15192 0
M  V30 9872 H 952.897 4.02679 -1.09112 0
M  V30 9873 H 951.527 3.21505 -0.288874 0
M  V30 9874 H 950.579 2.72135 -2.65794 0
M  V30 9875 H 951.891 3.71823 -3.3249 0
M  V30 9876 H 951.045 5.70619 -2.06103 0
M  V30 9877 H 949.784 4.70341 -1.28961 0
M  V30 9878 H 948.789 4.20648 -3.54027 0
M  V30 9879 H 950.014 5.24354 -4.31544 0
M  V30 9880 H 947.96 6.15639 -2.26549 0
M  V30 9881 H 947.877 6.43078 -3.97476 0
M  V30 9882 H 949.145 7.17477 -3.04707 0
M  V30 9883 N 953.375 1.23811 0.975125 0
M  V30 9884 C 954.305 1.04846 2.08638 0
M  V30 9885 C 955.286 -0.0362859 1.70061 0
M  V30 9886 O 956.471 0.12937 1.93769 0
M  V30 9887 C 953.601 0.644534 3.41267 0
M  V30 9888 C 952.555 1.67722 3.93768 0
M  V30 9889 C 951.881 1.12857 5.22654 0
M  V30 9890 C 953.181 3.07147 4.22443 0
M  V30 9891 H 954.875 1.97795 2.24761 0
M  V30 9892 H 952.421 0.952397 1.08006 0
M  V30 9893 H 954.374 0.498887 4.18436 0
M  V30 9894 H 953.098 -0.320641 3.25022 0
M  V30 9895 H 951.757 1.81095 3.18748 0
M  V30 9896 H 951.405 0.154227 5.02764 0
M  V30 9897 H 951.105 1.81862 5.58749 0
M  V30 9898 H 952.629 0.994891 6.0244 0
M  V30 9899 H 954.043 2.97045 4.90344 0
M  V30 9900 H 952.44 3.73437 4.6975 0
M  V30 9901 H 953.51 3.55743 3.29507 0
M  V30 9902 N 954.853 -1.17469 1.05066 0
M  V30 9903 C 955.783 -2.23635 0.671552 0
M  V30 9904 C 956.764 -1.66867 -0.33006 0
M  V30 9905 O 957.949 -1.93084 -0.207933 0
M  V30 9906 C 955.079 -3.47272 0.0441845 0
M  V30 9907 C 954.033 -4.16854 0.97042 0
M  V30 9908 C 953.359 -5.34299 0.206998 0
M  V30 9909 C 954.659 -4.69225 2.29401 0
M  V30 9910 H 956.353 -2.55602 1.55911 0
M  V30 9911 H 953.899 -1.2286 0.751101 0
M  V30 9912 H 955.852 -4.20756 -0.23282 0
M  V30 9913 H 954.576 -3.14568 -0.878311 0
M  V30 9914 H 953.235 -3.4528 1.23197 0
M  V30 9915 H 952.883 -4.97846 -0.718222 0
M  V30 9916 H 952.583 -5.81792 0.82416 0
M  V30 9917 H 954.107 -6.10568 -0.0627525 0
M  V30 9918 H 955.521 -5.34353 2.077 0
M  V30 9919 H 953.918 -5.27291 2.86503 0
M  V30 9920 H 954.988 -3.86102 2.93348 0
M  V30 9921 N 956.331 -0.831506 -1.3388 0
M  V30 9922 C 957.747 -0.518349 -1.50948 0
M  V30 9923 C 957.947 0.955807 -1.77388 0
M  V30 9924 O 957.003 1.73993 -1.82983 0
M  V30 9925 C 958.316 -1.38531 -2.66889 0
M  V30 9926 C 959.864 -1.38332 -2.80772 0
M  V30 9927 C 960.339 -2.23497 -3.99766 0
M  V30 9928 N 961.83 -2.21167 -4.06988 0
M  V30 9929 C 962.565 -2.83805 -4.98239 0
M  V30 9930 N 962.061 -3.55468 -5.94655 0
M  V30 9931 N 963.854 -2.73314 -4.91178 0
M  V30 9932 H 956.005 -1.78588 -1.14978 0
M  V30 9933 H 958.268 -0.761508 -0.564633 0
M  V30 9934 H 957.974 -2.43255 -2.54007 0
M  V30 9935 H 957.848 -1.05611 -3.62114 0
M  V30 9936 H 960.235 -0.343832 -2.9309 0
M  V30 9937 H 960.316 -1.75256 -1.86331 0
M  V30 9938 H 959.96 -3.27501 -3.88208 0
M  V30 9939 H 959.89 -1.83919 -4.93438 0
M  V30 9940 H 962.381 -1.69046 -3.37982 0
M  V30 9941 H 962.694 -4.00487 -6.60931 0
M  V30 9942 H 961.039 -3.59575 -5.94753 0
M  V30 9943 H 964.23 -2.16897 -4.14817 0
M  V30 9944 H 964.403 -3.22416 -5.62096 0
M  V30 9945 N 957.809 1.4625 -0.587256 0
M  V30 9946 C 959.039 2.06444 -0.0802135 0
M  V30 9947 C 959.447 1.43585 1.23207 0
M  V30 9948 O 958.79 0.536956 1.75677 0
M  V30 9949 C 958.852 3.59165 0.155129 0
M  V30 9950 C 958.516 4.44243 -1.07225 0
M  V30 9951 C 959.513 4.80497 -1.98542 0
M  V30 9952 C 957.198 4.8531 -1.29537 0
M  V30 9953 C 959.192 5.56649 -3.10516 0
M  V30 9954 C 956.879 5.61221 -2.41815 0
M  V30 9955 C 957.877 5.96805 -3.32134 0
M  V30 9956 O 957.565 6.71181 -4.42461 0
M  V30 9957 H 957.297 0.673626 -0.0566063 0
M  V30 9958 H 959.851 1.88797 -0.809004 0
M  V30 9959 H 958.081 3.75137 0.938583 0
M  V30 9960 H 959.77 4.01271 0.611243 0
M  V30 9961 H 960.536 4.49345 -1.82522 0
M  V30 9962 H 956.415 4.5706 -0.601431 0
M  V30 9963 H 959.959 5.84343 -3.81037 0
M  V30 9964 H 955.856 5.91786 -2.57797 0
M  V30 9965 H 956.624 6.8961 -4.40886 0
M  V30 9966 N 959.287 0.325282 1.54207 0
M  V30 9967 C 960.25 -0.527228 2.23054 0
M  V30 9968 C 961.25 -1.04217 1.22456 0
M  V30 9969 O 962.44 -0.934325 1.47024 0
M  V30 9970 C 959.572 -1.7325 2.93594 0
M  V30 9971 H 960.765 0.0746423 2.99807 0
M  V30 9972 H 958.318 0.0763872 1.56113 0
M  V30 9973 H 959.053 -2.37356 2.20981 0
M  V30 9974 H 958.838 -1.37065 3.67363 0
M  V30 9975 H 960.328 -2.3376 3.46043 0
M  V30 9976 N 960.765 -1.57509 0.0534917 0
M  V30 9977 C 961.697 -2.08616 -0.949322 0
M  V30 9978 C 962.71 -1.01446 -1.27328 0
M  V30 9979 O 963.899 -1.29007 -1.23367 0
M  V30 9980 C 960.999 -2.51622 -2.27024 0
M  V30 9981 C 960.172 -3.82154 -2.12785 0
M  V30 9982 C 959.231 -4.11448 -3.2802 0
M  V30 9983 O 958.257 -4.81333 -3.03822 0
M  V30 9984 N 959.459 -3.63543 -4.52567 0
M  V30 9985 H 962.224 -2.95275 -0.5131 0
M  V30 9986 H 959.785 -1.61355 -0.132693 0
M  V30 9987 H 961.777 -2.68293 -3.02986 0
M  V30 9988 H 960.347 -1.70198 -2.62205 0
M  V30 9989 H 959.567 -3.75041 -1.21399 0
M  V30 9990 H 960.855 -4.67629 -2.00501 0
M  V30 9991 H 960.253 -3.07051 -4.75117 0
M  V30 9992 H 958.81 -3.85448 -5.25617 0
M  V30 9993 N 962.243 0.219913 -1.56058 0
M  V30 9994 C 963.471 0.960915 -1.83232 0
M  V30 9995 C 963.886 1.77878 -0.632828 0
M  V30 9996 O 963.243 1.78093 0.398624 0
M  V30 9997 C 963.294 1.87716 -3.08942 0
M  V30 9998 O 963.015 1.09235 -4.24263 0
M  V30 9999 C 964.516 2.73192 -3.49115 0
M  V30 10000 H 961.736 0.281546 -0.609075 0
M  V30 10001 H 964.28 0.234648 -2.03149 0
M  V30 10002 H 962.435 2.55736 -2.90995 0
M  V30 10003 H 962.849 1.71446 -4.95688 0
M  V30 10004 H 964.323 3.33181 -4.40107 0
M  V30 10005 H 964.8 3.45668 -2.70943 0
M  V30 10006 H 965.406 2.10583 -3.69506 0
M  V30 10007 N 963.721 1.49897 0.486681 0
M  V30 10008 C 964.653 1.63755 1.60365 0
M  V30 10009 C 965.666 0.519614 1.54285 0
M  V30 10010 O 966.855 0.792219 1.59957 0
M  V30 10011 C 963.955 1.59153 2.99205 0
M  V30 10012 C 963.128 2.8672 3.30319 0
M  V30 10013 C 962.187 2.74974 4.48638 0
M  V30 10014 O 961.213 3.48922 4.49714 0
M  V30 10015 N 962.415 1.87479 5.49392 0
M  V30 10016 H 965.18 2.60094 1.48899 0
M  V30 10017 H 962.741 1.47166 0.674825 0
M  V30 10018 H 964.733 1.4893 3.76301 0
M  V30 10019 H 963.303 0.706133 3.0452 0
M  V30 10020 H 962.523 3.11188 2.41983 0
M  V30 10021 H 963.811 3.71262 3.47911 0
M  V30 10022 H 963.209 1.26684 5.51333 0
M  V30 10023 H 961.766 1.83169 6.25534 0
M  V30 10024 N 965.199 -0.738761 1.39212 0
M  V30 10025 C 966.447 -1.49529 1.35962 0
M  V30 10026 C 966.768 -1.94948 -0.0450152 0
M  V30 10027 O 966.038 -1.68717 -0.995552 0
M  V30 10028 H 964.618 -0.554692 0.500326 0
M  V30 10029 H 967.28 -0.877255 1.74041 0
M  V30 10030 H 966.376 -2.37919 2.01993 0
M  V30 10031 N 966.677 -1.24326 -0.968545 0
M  V30 10032 C 967.905 -1.10947 -1.74638 0
M  V30 10033 C 968.32 0.338064 -1.85749 0
M  V30 10034 O 967.677 1.23331 -1.3452 0
M  V30 10035 C 967.728 -1.74254 -3.1673 0
M  V30 10036 O 967.449 -3.13347 -3.06178 0
M  V30 10037 C 968.95 -1.66473 -4.10855 0
M  V30 10038 H 966.17 -0.38767 -0.547679 0
M  V30 10039 H 968.714 -1.64415 -1.21605 0
M  V30 10040 H 966.869 -1.2479 -3.66751 0
M  V30 10041 H 967.283 -3.44255 -3.95713 0
M  V30 10042 H 968.757 -2.15452 -5.08217 0
M  V30 10043 H 969.234 -0.625785 -4.34719 0
M  V30 10044 H 969.84 -2.15359 -3.66743 0
M  V30 10045 N 968.156 1.1691 -1.05688 0
M  V30 10046 C 969.404 1.86922 -0.768409 0
M  V30 10047 C 969.725 1.81735 0.706921 0
M  V30 10048 O 968.995 1.24671 1.51109 0
M  V30 10049 H 967.575 0.69203 -0.281253 0
M  V30 10050 H 970.237 1.41803 -1.33708 0
M  V30 10051 H 969.333 2.92528 -1.08783 0
M  V30 10052 N 969.634 0.838594 1.33437 0
M  V30 10053 C 970.882 0.433312 1.974 0
M  V30 10054 C 971.203 -1.01078 1.66758 0
M  V30 10055 O 970.473 -1.70406 0.966373 0
M  V30 10056 H 969.053 0.15724 0.730263 0
M  V30 10057 H 971.715 1.07149 1.62804 0
M  V30 10058 H 970.811 0.565144 3.06941 0
M  V30 10059 N 971.112 -1.45937 0.595003 0
M  V30 10060 C 972.059 -2.30427 -0.131165 0
M  V30 10061 C 973.029 -1.41355 -0.872232 0
M  V30 10062 O 974.214 -1.70296 -0.860467 0
M  V30 10063 C 971.354 -3.26045 -1.13087 0
M  V30 10064 C 970.467 -4.30218 -0.391982 0
M  V30 10065 C 969.602 -5.12953 -1.3803 0
M  V30 10066 C 968.641 -6.08865 -0.628505 0
M  V30 10067 N 967.778 -6.84425 -1.56548 0
M  V30 10068 H 972.618 -2.91992 0.595359 0
M  V30 10069 H 970.155 -1.43895 0.305405 0
M  V30 10070 H 972.113 -3.79937 -1.72348 0
M  V30 10071 H 970.743 -2.66261 -1.82496 0
M  V30 10072 H 969.795 -3.79086 0.315895 0
M  V30 10073 H 971.107 -4.98418 0.195173 0
M  V30 10074 H 970.261 -5.71184 -2.04534 0
M  V30 10075 H 969 -4.44743 -2.00138 0
M  V30 10076 H 968.005 -5.49777 0.0502431 0
M  V30 10077 H 969.23 -6.79099 -0.012641 0
M  V30 10078 H 967.176 -6.18913 -2.17444 0
M  V30 10079 H 967.093 -7.48931 -1.03145 0
M  V30 10080 H 968.361 -7.47204 -2.22049 0
M  V30 10081 N 972.59 -0.333456 -1.54032 0
M  V30 10082 C 973.537 0.527981 -2.2468 0
M  V30 10083 C 974.507 1.10371 -1.24127 0
M  V30 10084 O 975.692 1.14221 -1.52834 0
M  V30 10085 C 972.832 1.67808 -3.01553 0
M  V30 10086 C 971.945 1.13064 -4.16942 0
M  V30 10087 C 971.08 2.24722 -4.81325 0
M  V30 10088 C 970.119 1.67277 -5.88799 0
M  V30 10089 N 969.256 2.72638 -6.47003 0
M  V30 10090 H 974.096 -0.0810308 -2.9789 0
M  V30 10091 H 971.633 -0.051761 -1.47009 0
M  V30 10092 H 973.591 2.35502 -3.44376 0
M  V30 10093 H 972.221 2.25823 -2.30659 0
M  V30 10094 H 971.273 0.344948 -3.78833 0
M  V30 10095 H 972.585 0.670373 -4.94275 0
M  V30 10096 H 971.739 3.00301 -5.27166 0
M  V30 10097 H 970.478 2.74089 -4.03394 0
M  V30 10098 H 969.483 0.902002 -5.4235 0
M  V30 10099 H 970.708 1.18775 -6.68632 0
M  V30 10100 H 968.654 3.21277 -5.71941 0
M  V30 10101 H 968.571 2.31204 -7.19778 0
M  V30 10102 H 969.839 3.48015 -6.97499 0
M  V30 10103 N 974.068 1.57479 -0.061844 0
M  V30 10104 C 975.314 1.93395 0.610443 0
M  V30 10105 C 975.647 0.941334 1.6986 0
M  V30 10106 O 974.922 -0.0310262 1.94475 0
M  V30 10107 C 975.205 3.39636 1.19664 0
M  V30 10108 C 975.058 4.49651 0.115805 0
M  V30 10109 C 976.377 3.86488 2.10512 0
M  V30 10110 H 973.496 0.703262 0.220436 0
M  V30 10111 H 976.138 1.89583 -0.125785 0
M  V30 10112 H 974.288 3.43015 1.82409 0
M  V30 10113 H 975.96 4.58397 -0.516728 0
M  V30 10114 H 974.203 4.30237 -0.55483 0
M  V30 10115 H 974.874 5.49089 0.566176 0
M  V30 10116 H 977.35 3.85052 1.57715 0
M  V30 10117 H 976.226 4.89444 2.48466 0
M  V30 10118 H 976.487 3.23856 3.00948 0
M  V30 10119 N 975.546 -0.211634 1.56173 0
M  V30 10120 C 976.795 -0.932647 1.78842 0
M  V30 10121 C 977.108 -1.85103 0.63217 0
M  V30 10122 O 978.314 -2.61143 0.742746 0
M  V30 10123 C 976.77 -1.70866 3.16753 0
M  V30 10124 C 976.378 -0.835934 4.40132 0
M  V30 10125 C 978.122 -2.4203 3.48743 0
M  V30 10126 C 976.029 -1.60987 5.69067 0
M  V30 10127 H 974.959 -0.351983 0.666801 0
M  V30 10128 H 977.61 -0.186284 1.82552 0
M  V30 10129 H 975.992 -2.4983 3.07247 0
M  V30 10130 H 977.166 -0.0861298 4.60719 0
M  V30 10131 H 975.481 -0.235941 4.15731 0
M  V30 10132 H 978.078 -3.00453 4.42303 0
M  V30 10133 H 978.421 -3.15406 2.71707 0
M  V30 10134 H 978.954 -1.70048 3.59623 0
M  V30 10135 H 975.693 -0.9192 6.49023 0
M  V30 10136 H 975.213 -2.33403 5.52524 0
M  V30 10137 H 976.892 -2.16798 6.09596 0
M  V30 10138 N 977.024 -1.50153 -0.478725 0
M  V30 10139 C 977.956 -1.64603 -1.59494 0
M  V30 10140 C 978.969 -0.527789 -1.54007 0
M  V30 10141 O 980.158 -0.80069 -1.59534 0
M  V30 10142 C 977.258 -1.60738 -2.98356 0
M  V30 10143 C 976.431 -2.88468 -3.28794 0
M  V30 10144 C 975.49 -2.77349 -4.47173 0
M  V30 10145 O 974.516 -3.51302 -4.47857 0
M  V30 10146 N 975.718 -1.9039 -5.4839 0
M  V30 10147 H 978.483 -2.6088 -1.47518 0
M  V30 10148 H 976.044 -1.47521 -0.667011 0
M  V30 10149 H 978.036 -1.50923 -3.75505 0
M  V30 10150 H 976.606 -0.722273 -3.04141 0
M  V30 10151 H 975.826 -3.12467 -2.40329 0
M  V30 10152 H 977.114 -3.73102 -3.45937 0
M  V30 10153 H 976.512 -1.29606 -5.50653 0
M  V30 10154 H 975.069 -1.86484 -6.24553 0
M  V30 10155 N 978.502 0.731368 -1.39602 0
M  V30 10156 C 979.73 1.52059 -1.40305 0
M  V30 10157 C 980.145 1.888 0.00147921 0
M  V30 10158 O 979.502 1.54354 0.973715 0
M  V30 10159 C 979.553 2.80588 -2.27931 0
M  V30 10160 O 979.274 2.45406 -3.62915 0
M  V30 10161 C 980.775 3.74592 -2.37056 0
M  V30 10162 H 977.995 0.469787 -0.479104 0
M  V30 10163 H 980.539 0.903436 -1.83462 0
M  V30 10164 H 978.694 3.38626 -1.88178 0
M  V30 10165 H 979.108 3.27996 -4.09291 0
M  V30 10166 H 980.582 4.61662 -3.02609 0
M  V30 10167 H 981.059 4.16597 -1.39081 0
M  V30 10168 H 981.665 3.22471 -2.77295 0
M  V30 10169 N 979.98 1.24838 0.961938 0
M  V30 10170 C 981.257 0.99939 1.68141 0
M  V30 10171 C 981.637 -0.476588 2.0565 0
M  V30 10172 O 980.985 -1.45224 1.76415 0
M  V30 10173 C 981.195 1.92797 2.90913 0
M  V30 10174 C 982.543 2.20219 3.63027 0
M  V30 10175 O 983.567 1.90496 3.00981 0
M  V30 10176 O 982.426 2.70725 4.74731 0
M  V30 10177 H 979.52 0.37842 0.735342 0
M  V30 10178 H 982.066 1.35961 1.01551 0
M  V30 10179 H 980.838 2.92492 2.59931 0
M  V30 10180 H 980.461 1.57127 3.65235 0
M  V30 10181 N 981.458 -1.16348 1.06306 0
M  V30 10182 C 982.368 -2.24375 0.685059 0
M  V30 10183 C 983.384 -1.71413 -0.298956 0
M  V30 10184 O 984.56 -2.00854 -0.148239 0
M  V30 10185 C 981.625 -3.46614 0.0774088 0
M  V30 10186 C 980.686 -4.14613 1.11331 0
M  V30 10187 C 979.919 -5.31016 0.534559 0
M  V30 10188 O 980.142 -5.66654 -0.65265 0
M  V30 10189 O 979.076 -5.88256 1.27431 0
M  V30 10190 H 982.902 -2.59018 1.58566 0
M  V30 10191 H 980.487 -1.23865 0.835332 0
M  V30 10192 H 982.369 -4.20599 -0.259716 0
M  V30 10193 H 981.044 -3.13743 -0.796677 0
M  V30 10194 H 979.951 -3.42597 1.50261 0
M  V30 10195 H 981.284 -4.51538 1.95893 0
M  V30 10196 N 982.937 -0.845659 -1.3299 0
M  V30 10197 C 984.183 -0.454563 -1.98256 0
M  V30 10198 C 984.538 0.976983 -1.65749 0
M  V30 10199 O 983.831 1.67481 -0.930631 0
M  V30 10200 C 984.025 -0.6201 -3.51979 0
M  V30 10201 C 983.854 -2.06619 -3.99423 0
M  V30 10202 C 982.624 -2.70283 -4.26937 0
M  V30 10203 C 984.822 -3.03573 -4.15148 0
M  V30 10204 N 982.804 -4.05896 -4.60567 0
M  V30 10205 C 984.175 -4.24149 -4.52214 0
M  V30 10206 C 986.23 -2.99888 -3.97457 0
M  V30 10207 C 984.933 -5.41527 -4.73435 0
M  V30 10208 C 986.959 -4.16502 -4.19858 0
M  V30 10209 C 986.321 -5.35835 -4.57231 0
M  V30 10210 H 982.42 -0.214896 -0.751893 0
M  V30 10211 H 985.004 -1.09515 -1.6098 0
M  V30 10212 H 983.175 -0.00926528 -3.88399 0
M  V30 10213 H 984.907 -0.199782 -4.04207 0
M  V30 10214 H 981.662 -2.21377 -4.18676 0
M  V30 10215 H 982.086 -4.75824 -4.81581 0
M  V30 10216 H 986.728 -2.08753 -3.67671 0
M  V30 10217 H 984.446 -6.332 -5.02079 0
M  V30 10218 H 988.032 -4.15075 -4.07681 0
M  V30 10219 H 986.912 -6.24568 -4.74219 0
M  V30 10220 N 984.415 1.45619 -0.602734 0
M  V30 10221 C 985.831 1.57368 -0.26599 0
M  V30 10222 C 986.031 1.59485 1.23154 0
M  V30 10223 O 985.087 1.52254 2.01432 0
M  V30 10224 C 986.4 2.85863 -0.932881 0
M  V30 10225 C 987.948 2.9953 -0.908344 0
M  V30 10226 C 988.423 4.30789 -1.55515 0
M  V30 10227 N 989.914 4.37536 -1.52042 0
M  V30 10228 C 990.649 5.37758 -1.99008 0
M  V30 10229 N 990.145 6.44544 -2.54038 0
M  V30 10230 N 991.938 5.29085 -1.89805 0
M  V30 10231 H 984.089 1.42489 -1.57514 0
M  V30 10232 H 986.352 0.680948 -0.659556 0
M  V30 10233 H 986.058 2.90183 -1.98713 0
M  V30 10234 H 985.932 3.74467 -0.453209 0
M  V30 10235 H 988.319 2.9478 0.137344 0
M  V30 10236 H 988.4 2.12349 -1.42623 0
M  V30 10237 H 988.044 4.36297 -2.60014 0
M  V30 10238 H 987.974 5.16778 -1.01232 0
M  V30 10239 H 990.465 3.60972 -1.11837 0
M  V30 10240 H 990.778 7.17258 -2.87682 0
M  V30 10241 H 989.123 6.45308 -2.58075 0
M  V30 10242 H 992.314 4.44566 -1.46556 0
M  V30 10243 H 992.487 6.07043 -2.26722 0
M  V30 10244 N 985.893 0.34162 1.53853 0
M  V30 10245 C 986.841 -0.531412 2.26448 0
M  V30 10246 C 987.835 -1.10357 1.28521 0
M  V30 10247 O 989.041 -1.04953 1.46236 0
M  V30 10248 H 985.416 -0.190054 0.727588 0
M  V30 10249 H 987.387 0.102922 2.98222 0
M  V30 10250 C 986.136 -1.67154 3.04885 0
M  V30 10251 H 985.459 -1.24055 3.80066 0
M  V30 10252 H 986.899 -2.25762 3.58898 0
M  V30 10253 C 985.358 -2.59984 2.14266 0
M  V30 10254 O 985.888 -3.62181 1.73746 0
M  V30 10255 N 984.094 -2.28625 1.79385 0
M  V30 10256 H 983.641 -1.45559 2.12533 0
M  V30 10257 H 983.599 -2.90995 1.19035 0
M  V30 10258 N 987.371 -1.57444 0.0701946 0
M  V30 10259 C 988.619 -1.93047 -0.598106 0
M  V30 10260 C 988.94 -0.950841 -1.70247 0
M  V30 10261 O 988.21 0.00127177 -1.959 0
M  V30 10262 H 986.79 -0.712648 -0.223924 0
M  V30 10263 H 989.452 -1.94481 0.127674 0
M  V30 10264 H 988.548 -2.94807 -1.02445 0
M  V30 10265 N 988.849 0.203349 -1.56283 0
M  V30 10266 C 990.26 0.768764 -1.70138 0
M  V30 10267 C 990.611 1.8421 -0.675358 0
M  V30 10268 O 989.736 2.15732 0.1699 0
M  V30 10269 C 990.331 1.40123 -3.08466 0
M  V30 10270 C 988.89 1.91382 -3.24114 0
M  V30 10271 C 988.037 0.780685 -2.66084 0
M  V30 10272 H 990.988 -0.0215997 -1.58685 0
M  V30 10273 H 991.009 2.27046 -3.05336 0
M  V30 10274 H 990.521 0.619805 -3.83119 0
M  V30 10275 H 988.622 2.7227 -2.54362 0
M  V30 10276 H 988.735 2.08128 -4.31531 0
M  V30 10277 H 987.099 1.19281 -2.25042 0
M  V30 10278 H 987.882 0.0116351 -3.43298 0
M  V30 10279 N 990.327 1.50405 0.470755 0
M  V30 10280 C 991.573 1.6165 1.22462 0
M  V30 10281 C 991.906 0.316034 1.91611 0
M  V30 10282 O 991.181 -0.682509 1.82132 0
M  V30 10283 C 991.464 2.79702 2.26801 0
M  V30 10284 C 991.317 4.19631 1.61955 0
M  V30 10285 C 992.636 2.93313 3.28109 0
M  V30 10286 H 989.755 0.588345 0.443868 0
M  V30 10287 H 992.397 1.82792 0.518376 0
M  V30 10288 H 990.547 2.61807 2.87036 0
M  V30 10289 H 992.219 4.49117 1.05316 0
M  V30 10290 H 990.462 4.23874 0.922674 0
M  V30 10291 H 991.133 4.98162 2.37779 0
M  V30 10292 H 993.609 3.09697 2.77897 0
M  V30 10293 H 992.485 3.77537 3.98443 0
M  V30 10294 H 992.746 2.03942 3.9225 0
M  V30 10295 N 991.805 -0.723954 1.39988 0
M  V30 10296 C 992.715 -1.86829 1.41887 0
M  V30 10297 C 993.731 -1.71173 0.312401 0
M  V30 10298 O 994.907 -1.93583 0.555651 0
M  V30 10299 C 991.972 -3.22541 1.27154 0
M  V30 10300 C 991.033 -3.50512 2.47871 0
M  V30 10301 C 990.266 -4.79749 2.33831 0
M  V30 10302 O 990.489 -5.54251 1.34765 0
M  V30 10303 O 989.423 -5.07868 3.23039 0
M  V30 10304 H 993.249 -1.88183 2.38371 0
M  V30 10305 H 990.834 -0.873259 1.21221 0
M  V30 10306 H 992.716 -4.0362 1.21114 0
M  V30 10307 H 991.391 -3.21933 0.337715 0
M  V30 10308 H 990.298 -2.69475 2.59488 0
M  V30 10309 H 991.631 -3.55909 3.39985 0
M  V30 10310 N 993.283 -1.25346 -0.955304 0
M  V30 10311 C 994.193 -1.07412 -2.08566 0
M  V30 10312 C 995.209 -0.0114424 -1.73996 0
M  V30 10313 O 996.385 -0.212236 -2.00279 0
M  V30 10314 C 993.45 -0.694141 -3.3968 0
M  V30 10315 C 992.511 -1.83468 -3.88121 0
M  V30 10316 C 991.744 -1.47274 -5.12978 0
M  V30 10317 O 991.967 -0.368086 -5.69211 0
M  V30 10318 O 990.901 -2.30269 -5.56111 0
M  V30 10319 H 994.727 -2.02206 -2.26598 0
M  V30 10320 H 992.312 -1.04279 -1.06988 0
M  V30 10321 H 994.194 -0.494325 -4.18491 0
M  V30 10322 H 992.869 0.224545 -3.2292 0
M  V30 10323 H 991.776 -2.08935 -3.10318 0
M  V30 10324 H 993.109 -2.73258 -4.09379 0
M  V30 10325 N 994.761 1.15782 -1.06922 0
M  V30 10326 C 996.177 1.38454 -0.793896 0
M  V30 10327 C 996.377 1.92238 0.603875 0
M  V30 10328 O 995.433 2.1253 1.36335 0
M  V30 10329 C 996.746 2.3595 -1.86408 0
M  V30 10330 C 998.294 2.49622 -1.88833 0
M  V30 10331 C 998.769 3.50406 -2.94923 0
M  V30 10332 N 1000.26 3.57938 -2.93997 0
M  V30 10333 C 1001 4.35728 -3.72731 0
M  V30 10334 N 1000.49 5.16888 -4.61301 0
M  V30 10335 N 1002.28 4.30774 -3.61096 0
M  V30 10336 H 994.435 0.792101 -1.97077 0
M  V30 10337 H 996.698 0.410779 -0.85438 0
M  V30 10338 H 996.404 2.03537 -2.86819 0
M  V30 10339 H 996.278 3.35677 -1.72049 0
M  V30 10340 H 998.665 2.81335 -0.890759 0
M  V30 10341 H 998.746 1.49909 -2.0727 0
M  V30 10342 H 998.39 3.19429 -3.94877 0
M  V30 10343 H 998.32 4.49864 -2.73734 0
M  V30 10344 H 1000.81 3.00007 -2.29791 0
M  V30 10345 H 1001.12 5.73477 -5.18019 0
M  V30 10346 H 999.469 5.16209 -4.65353 0
M  V30 10347 H 1002.66 3.66432 -2.91282 0
M  V30 10348 H 1002.83 4.91151 -4.22699 0
M  V30 10349 N 996.239 0.8527 1.3254 0
M  V30 10350 C 997.169 0.311234 2.31416 0
M  V30 10351 C 998.15 -0.588557 1.59593 0
M  V30 10352 O 999.335 -0.509211 1.87405 0
M  V30 10353 C 996.465 -0.502892 3.4364 0
M  V30 10354 C 995.419 0.302296 4.26931 0
M  V30 10355 C 994.745 -0.636445 5.30899 0
M  V30 10356 C 996.045 1.52697 4.99481 0
M  V30 10357 H 997.739 1.13742 2.76953 0
M  V30 10358 H 995.285 0.548389 1.33149 0
M  V30 10359 H 997.238 -0.892092 4.11849 0
M  V30 10360 H 995.962 -1.36242 2.96826 0
M  V30 10361 H 994.621 0.673226 3.60365 0
M  V30 10362 H 994.269 -1.49277 4.80339 0
M  V30 10363 H 993.969 -0.101716 5.87512 0
M  V30 10364 H 995.493 -1.02286 6.01972 0
M  V30 10365 H 996.907 1.21017 5.60382 0
M  V30 10366 H 995.304 1.9995 5.65809 0
M  V30 10367 H 996.374 2.28929 4.27457 0
M  V30 10368 N 997.718 -1.45297 0.610449 0
M  V30 10369 C 998.628 -2.34349 -0.108475 0
M  V30 10370 C 999.644 -1.51409 -0.857397 0
M  V30 10371 O 1000.82 -1.84202 -0.814337 0
M  V30 10372 C 997.885 -3.29072 -1.09144 0
M  V30 10373 C 996.946 -4.27918 -0.344165 0
M  V30 10374 C 996.179 -5.18116 -1.28031 0
M  V30 10375 O 996.402 -5.11802 -2.51824 0
M  V30 10376 O 995.336 -5.96879 -0.775821 0
M  V30 10377 H 999.162 -2.97232 0.623421 0
M  V30 10378 H 996.747 -1.44728 0.3707 0
M  V30 10379 H 998.629 -3.87433 -1.65751 0
M  V30 10380 H 997.304 -2.68749 -1.80431 0
M  V30 10381 H 996.211 -3.73164 0.264437 0
M  V30 10382 H 997.544 -4.91104 0.328275 0
M  V30 10383 N 999.196 -0.349774 -1.5367 0
M  V30 10384 C 1000.43 0.245682 -2.05134 0
M  V30 10385 C 1000.83 1.44269 -1.22406 0
M  V30 10386 O 1000.18 1.81938 -0.25379 0
M  V30 10387 C 1000.24 0.718439 -3.52248 0
M  V30 10388 C 999.903 -0.35975 -4.55582 0
M  V30 10389 C 1000.9 -1.20449 -5.05755 0
M  V30 10390 C 998.585 -0.515463 -4.99648 0
M  V30 10391 C 1000.58 -2.19043 -5.98581 0
M  V30 10392 C 998.266 -1.50479 -5.92283 0
M  V30 10393 C 999.264 -2.34072 -6.41638 0
M  V30 10394 O 998.952 -3.31319 -7.3245 0
M  V30 10395 H 998.684 0.0501122 -0.67414 0
M  V30 10396 H 1001.24 -0.5018 -1.99176 0
M  V30 10397 H 999.468 1.51727 -3.55691 0
M  V30 10398 H 1001.16 1.23513 -3.86651 0
M  V30 10399 H 1001.92 -1.09531 -4.7247 0
M  V30 10400 H 997.802 0.12537 -4.60829 0
M  V30 10401 H 1001.35 -2.84327 -6.37027 0
M  V30 10402 H 997.243 -1.61451 -6.24983 0
M  V30 10403 H 998.011 -3.26863 -7.50402 0
M  V30 10404 N 1000.67 1.57404 -0.0785433 0
M  V30 10405 C 1001.64 2.11977 0.871693 0
M  V30 10406 C 1002.64 1.04529 1.2219 0
M  V30 10407 O 1003.83 1.30488 1.15406 0
M  V30 10408 C 1000.96 2.6267 2.17296 0
M  V30 10409 H 1002.15 2.97246 0.398115 0
M  V30 10410 H 999.705 1.5537 0.170251 0
M  V30 10411 H 1000.44 1.80873 2.69175 0
M  V30 10412 H 1000.22 3.41214 1.93171 0
M  V30 10413 H 1001.71 3.04943 2.85306 0
M  V30 10414 N 1002.15 -0.195058 1.56388 0
M  V30 10415 C 1003.08 -1.24444 1.97575 0
M  V30 10416 C 1004.06 -1.47471 0.847717 0
M  V30 10417 O 1005.25 -1.59208 1.11205 0
M  V30 10418 C 1002.38 -2.58866 2.31529 0
M  V30 10419 C 1001.33 -2.50451 3.47071 0
M  V30 10420 C 1000.66 -3.89146 3.667 0
M  V30 10421 C 1001.96 -2.02953 4.81256 0
M  V30 10422 H 1003.65 -0.902178 2.85484 0
M  V30 10423 H 1001.2 -0.43254 1.3735 0
M  V30 10424 H 1003.15 -3.3246 2.58936 0
M  V30 10425 H 1001.87 -2.94833 1.40502 0
M  V30 10426 H 1000.53 -1.79313 3.19754 0
M  V30 10427 H 1000.18 -4.22466 2.73004 0
M  V30 10428 H 999.882 -3.84391 4.44429 0
M  V30 10429 H 1001.41 -4.64363 3.96484 0
M  V30 10430 H 1002.82 -2.66306 5.07695 0
M  V30 10431 H 1001.22 -2.092 5.62455 0
M  V30 10432 H 1002.29 -0.982757 4.74837 0
M  V30 10433 N 1003.63 -1.50653 -0.462772 0
M  V30 10434 C 1004.88 -1.62297 -1.21603 0
M  V30 10435 C 1005.21 -0.326191 -1.91441 0
M  V30 10436 O 1004.48 0.67284 -1.82491 0
M  V30 10437 C 1004.77 -2.80901 -2.25315 0
M  V30 10438 C 1004.62 -4.20484 -1.59728 0
M  V30 10439 C 1005.94 -2.95049 -3.26549 0
M  V30 10440 H 1003.06 -0.590691 -0.440741 0
M  V30 10441 H 1005.7 -1.83064 -0.508675 0
M  V30 10442 H 1003.85 -2.63325 -2.85643 0
M  V30 10443 H 1005.52 -4.49669 -1.02932 0
M  V30 10444 H 1003.76 -4.24357 -0.900181 0
M  V30 10445 H 1004.44 -4.99416 -2.35133 0
M  V30 10446 H 1006.91 -3.11166 -2.76251 0
M  V30 10447 H 1005.79 -3.79645 -3.96435 0
M  V30 10448 H 1006.05 -2.06019 -3.91163 0
M  V30 10449 N 1005.11 0.71652 -1.4037 0
M  V30 10450 C 1006.06 1.8306 -1.40562 0
M  V30 10451 C 1007.03 1.64009 -0.262697 0
M  V30 10452 O 1008.21 1.85157 -0.460619 0
M  V30 10453 C 1005.35 3.2076 -1.27307 0
M  V30 10454 C 1004.46 3.51389 -2.51296 0
M  V30 10455 C 1003.6 4.78589 -2.30491 0
M  V30 10456 C 1002.64 5.02119 -3.50061 0
M  V30 10457 N 1001.77 6.20533 -3.28457 0
M  V30 10458 H 1006.61 1.82231 -2.35788 0
M  V30 10459 H 1004.15 0.890198 -1.17106 0
M  V30 10460 H 1006.11 4.00274 -1.17628 0
M  V30 10461 H 1004.74 3.2082 -0.357005 0
M  V30 10462 H 1003.79 2.66436 -2.71507 0
M  V30 10463 H 1005.1 3.64686 -3.40302 0
M  V30 10464 H 1004.26 5.66119 -2.1816 0
M  V30 10465 H 1003 4.67499 -1.38909 0
M  V30 10466 H 1002 4.13044 -3.6287 0
M  V30 10467 H 1003.23 5.15082 -4.42569 0
M  V30 10468 H 1001.17 6.10695 -2.39556 0
M  V30 10469 H 1001.09 6.34502 -4.11027 0
M  V30 10470 H 1002.36 7.10853 -3.19857 0
M  V30 10471 N 1006.59 1.25851 0.948643 0
M  V30 10472 C 1007.83 1.10735 1.69062 0
M  V30 10473 C 1008.16 -0.351257 1.9181 0
M  V30 10474 O 1007.43 -1.24867 1.50947 0
M  V30 10475 H 1006.01 0.406796 0.626519 0
M  V30 10476 H 1008.67 1.58066 1.14022 0
M  V30 10477 H 1007.76 1.62033 2.66743 0
M  V30 10478 N 1008.06 -1.15214 1.07534 0
M  V30 10479 C 1009.31 -1.85388 0.794617 0
M  V30 10480 C 1009.63 -1.83331 -0.681838 0
M  V30 10481 O 1010.83 -2.49207 -1.0774 0
M  V30 10482 C 1009.29 -3.32747 1.37141 0
M  V30 10483 C 1008.9 -3.43244 2.87902 0
M  V30 10484 C 1010.64 -4.08093 1.16879 0
M  V30 10485 C 1008.55 -4.84762 3.38763 0
M  V30 10486 H 1007.48 -0.694499 0.293577 0
M  V30 10487 H 1010.13 -1.29944 1.29564 0
M  V30 10488 H 1008.51 -3.87874 0.798121 0
M  V30 10489 H 1009.68 -2.98214 3.51291 0
M  V30 10490 H 1008 -2.81345 3.06975 0
M  V30 10491 H 1010.6 -5.12535 1.52353 0
M  V30 10492 H 1010.94 -4.1616 0.107958 0
M  V30 10493 H 1011.47 -3.59241 1.70854 0
M  V30 10494 H 1008.21 -4.81879 4.4438 0
M  V30 10495 H 1007.73 -5.30366 2.80128 0
M  V30 10496 H 1009.41 -5.53624 3.34827 0
M  V30 10497 N 1009.54 -0.859717 -1.32086 0
M  V30 10498 C 1010.45 -0.31108 -2.32528 0
M  V30 10499 C 1011.47 0.573714 -1.6427 0
M  V30 10500 O 1012.64 0.472878 -1.9577 0
M  V30 10501 C 1009.71 0.487256 -3.43259 0
M  V30 10502 C 1008.77 -0.424279 -4.27198 0
M  V30 10503 C 1008 0.336051 -5.32641 0
M  V30 10504 O 1008.23 1.56541 -5.48499 0
M  V30 10505 O 1007.16 -0.300777 -6.01148 0
M  V30 10506 H 1010.99 -1.14336 -2.81355 0
M  V30 10507 H 1008.57 -0.622794 -1.358 0
M  V30 10508 H 1010.45 0.940203 -4.10777 0
M  V30 10509 H 1009.13 1.29626 -2.96612 0
M  V30 10510 H 1008.04 -0.925509 -3.62471 0
M  V30 10511 H 1009.37 -1.1986 -4.77383 0
M  V30 10512 N 1011.02 1.44971 -0.618145 0
M  V30 10513 C 1011.97 2.30606 0.09449 0
M  V30 10514 C 1012.94 1.42725 0.849633 0
M  V30 10515 O 1014.12 1.71643 0.833266 0
M  V30 10516 C 1011.26 3.27803 1.07886 0
M  V30 10517 C 1010.38 4.30787 0.323488 0
M  V30 10518 C 1009.51 5.15085 1.29851 0
M  V30 10519 C 1008.55 6.09788 0.531561 0
M  V30 10520 N 1007.69 6.86829 1.4564 0
M  V30 10521 H 1012.53 2.91008 -0.641738 0
M  V30 10522 H 1010.06 1.43391 -0.328259 0
M  V30 10523 H 1012.02 3.82631 1.66281 0
M  V30 10524 H 1010.65 2.69131 1.78237 0
M  V30 10525 H 1009.7 3.78536 -0.376164 0
M  V30 10526 H 1011.02 4.98044 -0.274443 0
M  V30 10527 H 1010.17 5.74365 1.95421 0
M  V30 10528 H 1008.91 4.4787 1.93037 0
M  V30 10529 H 1007.91 5.49628 -0.137702 0
M  V30 10530 H 1009.14 6.79033 -0.0953993 0
M  V30 10531 H 1007.08 6.22295 2.07571 0
M  V30 10532 H 1007 7.50477 0.912167 0
M  V30 10533 H 1008.27 7.50642 2.10134 0
M  V30 10534 N 1012.5 0.357919 1.53482 0
M  V30 10535 C 1013.45 -0.50845 2.22258 0
M  V30 10536 C 1014.43 -1.05476 1.21506 0
M  V30 10537 O 1015.62 -0.986075 1.46988 0
M  V30 10538 C 1012.75 -1.65157 3.00962 0
M  V30 10539 C 1011.84 -1.11851 4.09084 0
M  V30 10540 N 1012.23 -0.307818 5.04862 0
M  V30 10541 C 1010.53 -1.39405 4.23653 0
M  V30 10542 C 1011.23 -0.016842 5.81698 0
M  V30 10543 N 1010.21 -0.612396 5.40139 0
M  V30 10544 H 1014.01 0.117836 2.93664 0
M  V30 10545 H 1011.52 0.16553 1.61554 0
M  V30 10546 H 1013.52 -2.28435 3.48745 0
M  V30 10547 H 1012.18 -2.281 2.31086 0
M  V30 10548 H 1013.19 0.0523313 5.17874 0
M  V30 10549 H 1009.87 -2.02682 3.65002 0
M  V30 10550 H 1011.26 0.638046 6.68864 0
M  V30 10551 N 1013.98 -1.5736 0.0868897 0
M  V30 10552 C 1015.23 -1.93229 -0.578387 0
M  V30 10553 C 1015.54 -0.970127 -1.69847 0
M  V30 10554 O 1016.74 -1.22222 -2.42434 0
M  V30 10555 C 1015.2 -3.43307 -1.0802 0
M  V30 10556 C 1014.81 -4.47999 0.00968135 0
M  V30 10557 C 1016.55 -3.88151 -1.71868 0
M  V30 10558 C 1014.46 -5.89223 -0.507029 0
M  V30 10559 H 1013.39 -0.721245 -0.219823 0
M  V30 10560 H 1016.04 -1.82787 0.161566 0
M  V30 10561 H 1014.42 -3.48873 -1.87359 0
M  V30 10562 H 1015.6 -4.54067 0.784865 0
M  V30 10563 H 1013.91 -4.12714 0.552845 0
M  V30 10564 H 1016.51 -4.91056 -2.11585 0
M  V30 10565 H 1016.85 -3.26347 -2.58464 0
M  V30 10566 H 1017.38 -3.85252 -0.991259 0
M  V30 10567 H 1014.12 -6.54708 0.322121 0
M  V30 10568 H 1013.64 -5.86643 -1.2494 0
M  V30 10569 H 1015.32 -6.39556 -0.978628 0
M  V30 10570 N 1015.45 0.186762 -1.56489 0
M  V30 10571 C 1016.7 0.904077 -1.80303 0
M  V30 10572 C 1017.02 1.84073 -0.661538 0
M  V30 10573 O 1018.22 2.59928 -0.784197 0
M  V30 10574 C 1016.68 1.65806 -3.19432 0
M  V30 10575 C 1016.29 0.765807 -4.41406 0
M  V30 10576 C 1018.03 2.36451 -3.52549 0
M  V30 10577 C 1015.94 1.51913 -5.71556 0
M  V30 10578 H 1014.87 0.34133 -0.672317 0
M  V30 10579 H 1017.52 0.157218 -1.82825 0
M  V30 10580 H 1015.9 2.44911 -3.11183 0
M  V30 10581 H 1017.07 0.0128225 -4.60798 0
M  V30 10582 H 1015.39 0.169772 -4.16054 0
M  V30 10583 H 1017.99 2.93378 -4.47027 0
M  V30 10584 H 1018.33 3.11044 -2.7669 0
M  V30 10585 H 1018.86 1.64305 -3.62283 0
M  V30 10586 H 1015.6 0.815829 -6.50403 0
M  V30 10587 H 1015.12 2.24583 -5.56168 0
M  V30 10588 H 1016.8 2.07073 -6.12968 0
M  V30 10589 N 1016.93 1.50896 0.454776 0
M  V30 10590 C 1017.84 1.73762 1.5762 0
M  V30 10591 C 1018.86 0.621206 1.62533 0
M  V30 10592 O 1020.03 0.901449 1.801 0
M  V30 10593 C 1017.1 1.84183 2.9373 0
M  V30 10594 C 1016.16 3.07982 2.99075 0
M  V30 10595 C 1015.39 3.17896 4.28693 0
M  V30 10596 O 1015.62 2.34184 5.20109 0
M  V30 10597 O 1014.55 4.10749 4.39964 0
M  V30 10598 H 1018.38 2.68856 1.41245 0
M  V30 10599 H 1015.96 1.35187 0.635984 0
M  V30 10600 H 1017.84 1.93123 3.74542 0
M  V30 10601 H 1016.52 0.922742 3.10269 0
M  V30 10602 H 1015.43 3.04531 2.17282 0
M  V30 10603 H 1016.76 3.99523 2.87476 0
M  V30 10604 N 1018.41 -0.709066 1.40748 0
M  V30 10605 C 1019.69 -1.4626 1.29874 0
M  V30 10606 C 1020.07 -2.10949 -0.0799322 0
M  V30 10607 O 1019.42 -2.00651 -1.09323 0
M  V30 10608 C 1019.63 -2.49302 2.44232 0
M  V30 10609 C 1020.97 -3.14945 2.84771 0
M  V30 10610 O 1022 -2.59623 2.43873 0
M  V30 10611 O 1020.86 -4.15111 3.5545 0
M  V30 10612 H 1017.95 -0.650716 0.51039 0
M  V30 10613 H 1020.5 -0.740687 1.52682 0
M  V30 10614 H 1019.27 -2.00063 3.36289 0
M  V30 10615 H 1018.89 -3.29021 2.23229 0
M  V30 10616 N 1019.89 -1.26353 -0.941956 0
M  V30 10617 C 1021.12 -1.14626 -1.72245 0
M  V30 10618 C 1021.53 0.298588 -1.86424 0
M  V30 10619 O 1020.89 1.2045 -1.37106 0
M  V30 10620 C 1020.94 -1.80933 -3.12963 0
M  V30 10621 O 1020.66 -3.19771 -2.99463 0
M  V30 10622 C 1022.16 -1.7515 -4.07231 0
M  V30 10623 H 1019.38 -0.3992 -0.539333 0
M  V30 10624 H 1021.93 -1.66958 -1.1809 0
M  V30 10625 H 1020.08 -1.32541 -3.64021 0
M  V30 10626 H 1020.5 -3.52571 -3.88322 0
M  V30 10627 H 1021.97 -2.26183 -5.03533 0
M  V30 10628 H 1022.45 -0.717855 -4.33294 0
M  V30 10629 H 1023.05 -2.2309 -3.62093 0
M  V30 10630 N 1021.37 1.14642 -1.08144 0
M  V30 10631 C 1022.28 2.23257 -0.720668 0
M  V30 10632 C 1023.29 1.71866 0.271648 0
M  V30 10633 O 1024.47 2.01064 0.116266 0
M  V30 10634 C 1021.53 3.46447 -0.132542 0
M  V30 10635 C 1020.6 4.12789 -1.17913 0
M  V30 10636 C 1019.83 5.30099 -0.618971 0
M  V30 10637 O 1020.05 5.6762 0.562418 0
M  V30 10638 O 1018.99 5.86154 -1.36774 0
M  V30 10639 H 1022.81 2.56463 -1.62667 0
M  V30 10640 H 1020.4 1.22521 -0.854932 0
M  V30 10641 H 1022.28 4.20959 0.19277 0
M  V30 10642 H 1020.95 3.14971 0.746662 0
M  V30 10643 H 1019.86 3.40163 -1.55693 0
M  V30 10644 H 1021.19 4.48365 -2.03051 0
M  V30 10645 N 1022.85 0.866709 1.31628 0
M  V30 10646 C 1023.76 0.323408 2.3236 0
M  V30 10647 C 1024.77 -0.564995 1.64572 0
M  V30 10648 O 1025.95 -0.462489 1.96018 0
M  V30 10649 C 1023.01 -0.469045 3.43513 0
M  V30 10650 C 1022.07 0.446928 4.26967 0
M  V30 10651 C 1021.31 -0.307799 5.32812 0
M  V30 10652 O 1021.53 -1.5363 5.49321 0
M  V30 10653 O 1020.46 0.332653 6.0098 0
M  V30 10654 H 1024.29 1.15827 2.80745 0
M  V30 10655 H 1021.87 0.629987 1.35468 0
M  V30 10656 H 1023.76 -0.918405 4.1127 0
M  V30 10657 H 1022.43 -1.28051 2.97296 0
M  V30 10658 H 1021.34 0.944719 3.61975 0
M  V30 10659 H 1022.67 1.2239 4.76741 0
M  V30 10660 N 1024.32 -1.44642 0.625825 0
M  V30 10661 C 1025.29 -2.29085 -0.072526 0
M  V30 10662 C 1026.29 -1.40755 -0.777467 0
M  V30 10663 O 1027.48 -1.62684 -0.622861 0
M  V30 10664 C 1024.61 -3.22212 -1.1132 0
M  V30 10665 H 1025.8 -2.92317 0.670124 0
M  V30 10666 H 1023.35 -1.51466 0.38571 0
M  V30 10667 H 1024.09 -2.63819 -1.88601 0
M  V30 10668 H 1023.87 -3.87299 -0.611709 0
M  V30 10669 H 1025.36 -3.8566 -1.60175 0
M  V30 10670 N 1025.8 -0.366053 -1.5329 0
M  V30 10671 C 1027.22 -0.0150149 -1.59593 0
M  V30 10672 C 1027.42 1.46719 -1.38116 0
M  V30 10673 O 1026.47 2.22884 -1.18656 0
M  V30 10674 C 1027.79 -0.471374 -2.96982 0
M  V30 10675 C 1029.33 -0.425634 -3.10092 0
M  V30 10676 C 1029.81 -0.857812 -4.49895 0
M  V30 10677 N 1031.3 -0.81289 -4.56011 0
M  V30 10678 C 1032.04 -1.11898 -5.62376 0
M  V30 10679 N 1031.53 -1.49436 -6.76491 0
M  V30 10680 N 1033.32 -1.04174 -5.52362 0
M  V30 10681 H 1025.48 -1.33127 -1.65502 0
M  V30 10682 H 1027.74 -0.544172 -0.776261 0
M  V30 10683 H 1027.44 -1.50569 -3.1784 0
M  V30 10684 H 1027.32 0.141764 -3.76934 0
M  V30 10685 H 1029.71 0.599548 -2.88945 0
M  V30 10686 H 1029.79 -1.07427 -2.32149 0
M  V30 10687 H 1029.43 -1.88111 -4.7178 0
M  V30 10688 H 1029.36 -0.186419 -5.2627 0
M  V30 10689 H 1031.85 -0.536343 -3.74075 0
M  V30 10690 H 1032.16 -1.71217 -7.53594 0
M  V30 10691 H 1030.51 -1.53302 -6.77882 0
M  V30 10692 H 1033.7 -0.747654 -4.62091 0
M  V30 10693 H 1033.87 -1.28362 -6.35159 0
M  V30 10694 N 1027.28 1.57312 -0.0952337 0
M  V30 10695 C 1028.21 2.17056 0.860753 0
M  V30 10696 C 1029.19 1.10394 1.29411 0
M  V30 10697 O 1030.38 1.38532 1.36098 0
M  V30 10698 C 1027.51 2.751 2.11984 0
M  V30 10699 C 1026.46 3.87136 1.8251 0
M  V30 10700 C 1025.79 4.31883 3.15247 0
M  V30 10701 C 1027.09 5.10326 1.11194 0
M  V30 10702 H 1028.78 2.97192 0.362983 0
M  V30 10703 H 1026.33 1.42955 0.173151 0
M  V30 10704 H 1028.28 3.15547 2.79299 0
M  V30 10705 H 1027 1.92219 2.64044 0
M  V30 10706 H 1025.66 3.47229 1.17592 0
M  V30 10707 H 1025.31 3.45893 3.65195 0
M  V30 10708 H 1025.01 5.0742 2.96309 0
M  V30 10709 H 1026.53 4.74964 3.83721 0
M  V30 10710 H 1027.95 5.47942 1.6862 0
M  V30 10711 H 1026.34 5.91293 1.02435 0
M  V30 10712 H 1027.41 4.84807 0.0947227 0
M  V30 10713 N 1028.76 -0.17846 1.56586 0
M  V30 10714 C 1029.71 -1.24042 1.96765 0
M  V30 10715 C 1030.7 -1.46218 0.855375 0
M  V30 10716 O 1031.91 -1.46882 1.04046 0
M  V30 10717 H 1028.28 -0.416807 0.62592 0
M  V30 10718 H 1030.25 -0.874644 2.85294 0
M  V30 10719 C 1029 -2.57394 2.3376 0
M  V30 10720 H 1028.32 -2.41151 3.18883 0
M  V30 10721 H 1029.76 -3.30405 2.65723 0
M  V30 10722 C 1028.22 -3.15621 1.17835 0
M  V30 10723 O 1028.75 -3.99032 0.462202 0
M  V30 10724 N 1026.96 -2.74606 0.950783 0
M  V30 10725 H 1026.51 -2.06878 1.5349 0
M  V30 10726 H 1026.46 -3.13902 0.176967 0
M  V30 10727 N 1030.24 -1.51135 -0.446768 0
M  V30 10728 C 1031.17 -1.67949 -1.55967 0
M  V30 10729 C 1032.18 -0.560337 -1.52853 0
M  V30 10730 O 1033.37 -0.83435 -1.578 0
M  V30 10731 C 1030.47 -1.6703 -2.9488 0
M  V30 10732 C 1029.64 -2.95377 -3.22601 0
M  V30 10733 C 1028.7 -2.86772 -4.4119 0
M  V30 10734 O 1027.73 -3.60722 -4.40304 0
M  V30 10735 N 1028.93 -2.01979 -5.44228 0
M  V30 10736 H 1031.69 -2.63951 -1.41951 0
M  V30 10737 H 1029.26 -1.48903 -0.635569 0
M  V30 10738 H 1031.25 -1.58854 -3.7222 0
M  V30 10739 H 1029.82 -0.786623 -3.02541 0
M  V30 10740 H 1029.04 -3.17494 -2.33647 0
M  V30 10741 H 1030.33 -3.80356 -3.37945 0
M  V30 10742 H 1029.72 -1.41257 -5.4778 0
M  V30 10743 H 1028.28 -1.99689 -6.20457 0
M  V30 10744 N 1031.71 0.701592 -1.41122 0
M  V30 10745 C 1032.66 1.81559 -1.42495 0
M  V30 10746 C 1033.63 1.63722 -0.280078 0
M  V30 10747 O 1034.82 1.84658 -0.480231 0
M  V30 10748 C 1031.96 3.19392 -1.30702 0
M  V30 10749 C 1031.07 3.48704 -2.55009 0
M  V30 10750 C 1030.2 4.76118 -2.35554 0
M  V30 10751 C 1029.24 4.98378 -3.55367 0
M  V30 10752 N 1028.38 6.17014 -3.3502 0
M  V30 10753 H 1033.22 1.7972 -2.37707 0
M  V30 10754 H 1030.76 0.877727 -1.18044 0
M  V30 10755 H 1032.71 3.99004 -1.21867 0
M  V30 10756 H 1031.34 3.20423 -0.391012 0
M  V30 10757 H 1030.4 2.63542 -2.74317 0
M  V30 10758 H 1031.71 3.61057 -3.44151 0
M  V30 10759 H 1030.86 5.63774 -2.24152 0
M  V30 10760 H 1029.6 4.66 -1.43859 0
M  V30 10761 H 1028.61 4.09172 -3.6723 0
M  V30 10762 H 1029.83 5.10359 -4.48007 0
M  V30 10763 H 1027.78 6.0812 -2.4602 0
M  V30 10764 H 1027.69 6.30107 -4.17733 0
M  V30 10765 H 1028.96 7.0742 -3.27379 0
M  V30 10766 N 1033.19 1.2685 0.935242 0
M  V30 10767 C 1034.14 1.08923 2.03481 0
M  V30 10768 C 1035.11 -0.00749786 1.66098 0
M  V30 10769 O 1036.29 0.153401 1.90182 0
M  V30 10770 C 1033.43 0.734529 3.37192 0
M  V30 10771 C 1032.55 1.90812 3.87576 0
M  V30 10772 C 1031.68 1.49599 5.097 0
M  V30 10773 C 1030.72 2.63752 5.5236 0
M  V30 10774 N 1029.86 2.23179 6.65684 0
M  V30 10775 H 1034.7 2.03016 2.18148 0
M  V30 10776 H 1032.23 1.01072 1.06878 0
M  V30 10777 H 1034.19 0.509734 4.14074 0
M  V30 10778 H 1032.82 -0.169438 3.22355 0
M  V30 10779 H 1031.87 2.24567 3.0704 0
M  V30 10780 H 1033.19 2.7647 4.1517 0
M  V30 10781 H 1032.34 1.23199 5.9406 0
M  V30 10782 H 1031.08 0.61039 4.83865 0
M  V30 10783 H 1030.08 2.90874 4.66554 0
M  V30 10784 H 1031.31 3.5292 5.80193 0
M  V30 10785 H 1029.26 1.37061 6.41522 0
M  V30 10786 H 1029.17 3.02379 6.92895 0
M  V30 10787 H 1030.44 2.00007 7.53404 0
M  V30 10788 N 1034.67 -1.14067 1.0875 0
M  V30 10789 C 1035.9 -1.88767 0.839682 0
M  V30 10790 C 1036.31 -1.79024 -0.612119 0
M  V30 10791 O 1035.65 -1.14986 -1.43262 0
M  V30 10792 C 1035.71 -3.39333 1.18716 0
M  V30 10793 C 1035.38 -3.72858 2.64245 0
M  V30 10794 C 1036.37 -3.72683 3.62496 0
M  V30 10795 C 1034.06 -4.0273 3.0019 0
M  V30 10796 C 1036.05 -4.01909 4.9472 0
M  V30 10797 C 1033.74 -4.31618 4.32607 0
M  V30 10798 C 1034.74 -4.31192 5.29682 0
M  V30 10799 O 1034.43 -4.59377 6.59718 0
M  V30 10800 H 1034.16 -0.604665 0.302253 0
M  V30 10801 H 1036.71 -1.45364 1.45115 0
M  V30 10802 H 1034.94 -3.83205 0.518707 0
M  V30 10803 H 1036.63 -3.95346 0.919599 0
M  V30 10804 H 1037.4 -3.49688 3.3607 0
M  V30 10805 H 1033.28 -4.02213 2.25268 0
M  V30 10806 H 1036.82 -4.01491 5.70483 0
M  V30 10807 H 1032.72 -4.54083 4.58779 0
M  V30 10808 H 1033.49 -4.77078 6.65086 0
M  V30 10809 N 1036.15 -0.873678 -1.31166 0
M  V30 10810 C 1037.56 -0.53852 -1.78765 0
M  V30 10811 C 1037.91 0.944765 -1.71955 0
M  V30 10812 O 1037.04 1.73781 -1.28954 0
M  V30 10813 C 1037.63 -0.970749 -3.24595 0
M  V30 10814 C 1036.19 -0.687189 -3.70074 0
M  V30 10815 C 1035.34 -1.16001 -2.51871 0
M  V30 10816 H 1038.29 -1.05903 -1.18196 0
M  V30 10817 H 1038.31 -0.294966 -3.79355 0
M  V30 10818 H 1037.82 -2.05034 -3.29519 0
M  V30 10819 H 1035.92 0.380881 -3.70648 0
M  V30 10820 H 1036.03 -1.26682 -4.62048 0
M  V30 10821 H 1034.4 -0.579663 -2.48016 0
M  V30 10822 H 1035.18 -2.2471 -2.59539 0
M  V30 10823 N 1037.63 1.44308 -0.633487 0
M  V30 10824 C 1039.04 1.56768 -0.29931 0
M  V30 10825 C 1039.24 1.62061 1.19743 0
M  V30 10826 O 1038.3 1.56492 1.98158 0
M  V30 10827 C 1039.61 2.8382 -0.993307 0
M  V30 10828 C 1041.16 2.97536 -0.971674 0
M  V30 10829 C 1041.63 4.27393 -1.64618 0
M  V30 10830 N 1043.13 4.34212 -1.61288 0
M  V30 10831 C 1043.86 5.33415 -2.1037 0
M  V30 10832 N 1043.36 6.3901 -2.67653 0
M  V30 10833 N 1045.15 5.24939 -2.00985 0
M  V30 10834 H 1037.3 1.39115 -1.60501 0
M  V30 10835 H 1039.56 0.666804 -0.673852 0
M  V30 10836 H 1039.27 2.85902 -2.04823 0
M  V30 10837 H 1039.14 3.73422 -0.532537 0
M  V30 10838 H 1041.53 2.95005 0.0747854 0
M  V30 10839 H 1041.61 2.09276 -1.47096 0
M  V30 10840 H 1041.26 4.30683 -2.6921 0
M  V30 10841 H 1041.19 5.14515 -1.12171 0
M  V30 10842 H 1043.68 3.58519 -1.19468 0
M  V30 10843 H 1043.99 7.10994 -3.02831 0
M  V30 10844 H 1042.33 6.39689 -2.71705 0
M  V30 10845 H 1045.53 4.41357 -1.55953 0
M  V30 10846 H 1045.7 6.02097 -2.39547 0
M  V30 10847 N 1039.1 0.374177 1.53094 0
M  V30 10848 C 1040.52 -0.103172 1.86415 0
M  V30 10849 C 1040.87 -1.47439 1.29446 0
M  V30 10850 O 1039.99 -2.07333 0.619853 0
M  V30 10851 C 1040.59 -0.193988 3.38244 0
M  V30 10852 C 1039.15 -0.615605 3.71332 0
M  V30 10853 C 1038.29 0.23186 2.76329 0
M  V30 10854 H 1041.24 0.592644 1.47219 0
M  V30 10855 H 1041.26 -1.01597 3.66686 0
M  V30 10856 H 1040.78 0.80414 3.79678 0
M  V30 10857 H 1038.88 -1.62165 3.3546 0
M  V30 10858 H 1038.99 -0.38425 4.77557 0
M  V30 10859 H 1037.35 -0.300579 2.5292 0
M  V30 10860 H 1038.14 1.22769 3.20597 0
M  V30 10861 N 1040.58 -1.57259 0.103575 0
M  V30 10862 C 1041.51 -2.17509 -0.84923 0
M  V30 10863 C 1042.49 -1.11079 -1.28824 0
M  V30 10864 O 1043.68 -1.39252 -1.35361 0
M  V30 10865 C 1040.81 -2.76221 -2.10522 0
M  V30 10866 C 1039.76 -3.88098 -1.80454 0
M  V30 10867 C 1039.09 -4.33549 -3.12952 0
M  V30 10868 C 1040.39 -5.10909 -1.08486 0
M  V30 10869 H 1042.08 -2.9738 -0.347217 0
M  V30 10870 H 1039.63 -1.43045 -0.165568 0
M  V30 10871 H 1041.58 -3.17024 -2.77621 0
M  V30 10872 H 1040.31 -1.93617 -2.63021 0
M  V30 10873 H 1038.96 -3.47847 -1.15749 0
M  V30 10874 H 1038.61 -3.47825 -3.63355 0
M  V30 10875 H 1038.31 -5.08984 -2.93614 0
M  V30 10876 H 1039.84 -4.76992 -3.81196 0
M  V30 10877 H 1041.25 -5.48828 -1.65711 0
M  V30 10878 H 1039.65 -5.91828 -0.992973 0
M  V30 10879 H 1040.72 -4.84851 -0.0690108 0
M  V30 10880 N 1042.06 0.170153 -1.56679 0
M  V30 10881 C 1043.01 1.22997 -1.9742 0
M  V30 10882 C 1044 1.45762 -0.863117 0
M  V30 10883 O 1045.21 1.46328 -1.04824 0
M  V30 10884 H 1041.58 0.413482 -0.628122 0
M  V30 10885 H 1043.55 0.859502 -2.85754 0
M  V30 10886 C 1042.3 2.5615 -2.35122 0
M  V30 10887 H 1041.63 2.39456 -3.20158 0
M  V30 10888 H 1043.07 3.28991 -2.67471 0
M  V30 10889 C 1041.53 3.14992 -1.19507 0
M  V30 10890 O 1042.06 3.98781 -0.483357 0
M  V30 10891 N 1040.26 2.74098 -0.965332 0
M  V30 10892 H 1039.81 2.06062 -1.54585 0
M  V30 10893 H 1039.77 3.13803 -0.193611 0
M  V30 10894 N 1043.54 1.5137 0.438746 0
M  V30 10895 C 1044.79 1.63202 1.18524 0
M  V30 10896 C 1045.1 0.353408 1.92381 0
M  V30 10897 O 1046.31 0.351086 2.6922 0
M  V30 10898 C 1044.76 2.88218 2.15542 0
M  V30 10899 C 1044.37 4.23078 1.47339 0
M  V30 10900 C 1046.11 3.09407 2.90633 0
M  V30 10901 C 1044.02 5.39246 2.42833 0
M  V30 10902 H 1042.95 0.607864 0.446114 0
M  V30 10903 H 1045.6 1.77835 0.452421 0
M  V30 10904 H 1043.98 2.67216 2.92253 0
M  V30 10905 H 1045.16 4.54457 0.761964 0
M  V30 10906 H 1043.47 4.07755 0.844065 0
M  V30 10907 H 1046.07 3.9337 3.62165 0
M  V30 10908 H 1046.41 2.22428 3.51897 0
M  V30 10909 H 1046.95 3.30743 2.21029 0
M  V30 10910 H 1043.69 6.2848 1.8626 0
M  V30 10911 H 1043.21 5.12245 3.12034 0
M  V30 10912 H 1044.88 5.71137 3.03992 0
M  V30 10913 N 1045.02 -0.694098 1.41492 0
M  V30 10914 C 1046.27 -1.4498 1.40227 0
M  V30 10915 C 1046.58 -1.95594 0.0151253 0
M  V30 10916 O 1047.78 -2.71234 -0.120146 0
M  V30 10917 C 1046.24 -2.62171 2.46565 0
M  V30 10918 C 1045.85 -2.18337 3.91194 0
M  V30 10919 C 1047.59 -3.39796 2.54439 0
M  V30 10920 C 1045.5 -3.32495 4.89082 0
M  V30 10921 H 1044.43 -0.544584 0.521483 0
M  V30 10922 H 1047.08 -0.75337 1.67322 0
M  V30 10923 H 1045.46 -3.34089 2.12604 0
M  V30 10924 H 1046.64 -1.53698 4.34412 0
M  V30 10925 H 1044.95 -1.53702 3.86994 0
M  V30 10926 H 1047.55 -4.2478 3.24755 0
M  V30 10927 H 1047.89 -3.85082 1.5817 0
M  V30 10928 H 1048.42 -2.74935 2.87499 0
M  V30 10929 H 1045.16 -2.92219 5.86761 0
M  V30 10930 H 1044.68 -3.95978 4.50512 0
M  V30 10931 H 1046.36 -3.98251 5.09907 0
M  V30 10932 N 1046.49 -1.27344 -0.928501 0
M  V30 10933 C 1047.4 -1.11812 -2.06241 0
M  V30 10934 C 1048.42 -0.048347 -1.73933 0
M  V30 10935 O 1049.6 -0.25467 -1.99783 0
M  V30 10936 C 1046.66 -0.766036 -3.38131 0
M  V30 10937 C 1045.72 -1.91659 -3.84142 0
M  V30 10938 C 1044.96 -1.58121 -5.09738 0
M  V30 10939 O 1045.18 -0.488742 -5.68302 0
M  V30 10940 O 1044.11 -2.42013 -5.51102 0
M  V30 10941 H 1047.94 -2.06967 -2.22258 0
M  V30 10942 H 1045.52 -1.06524 -1.04752 0
M  V30 10943 H 1047.41 -0.582982 -4.17348 0
M  V30 10944 H 1046.08 0.155998 -3.23324 0
M  V30 10945 H 1044.99 -2.1547 -3.05816 0
M  V30 10946 H 1046.32 -2.8188 -4.0349 0
M  V30 10947 N 1047.97 1.13488 -1.09353 0
M  V30 10948 C 1049.22 1.84383 -0.827488 0
M  V30 10949 C 1049.54 1.83892 0.648745 0
M  V30 10950 O 1048.81 1.29415 1.47066 0
M  V30 10951 H 1047.39 0.682732 -0.303127 0
M  V30 10952 H 1050.05 1.37477 -1.38152 0
M  V30 10953 H 1049.15 2.88919 -1.18035 0
M  V30 10954 N 1049.45 0.880621 1.30701 0
M  V30 10955 C 1050.86 0.547993 1.78477 0
M  V30 10956 C 1051.21 -0.935633 1.72454 0
M  V30 10957 O 1050.34 -1.73094 1.29874 0
M  V30 10958 C 1050.93 0.98795 3.24076 0
M  V30 10959 C 1049.49 0.706805 3.69704 0
M  V30 10960 C 1048.64 1.17335 2.51252 0
M  V30 10961 H 1051.59 1.06528 1.17633 0
M  V30 10962 H 1051.61 0.31508 3.79193 0
M  V30 10963 H 1051.12 2.06778 3.28427 0
M  V30 10964 H 1049.22 -0.36122 3.70845 0
M  V30 10965 H 1049.34 1.2913 4.6137 0
M  V30 10966 H 1047.7 0.592808 2.47705 0
M  V30 10967 H 1048.48 2.26083 2.58343 0
M  V30 10968 N 1050.93 -1.4397 0.641131 0
M  V30 10969 C 1051.86 -2.33458 -0.04446 0
M  V30 10970 C 1052.84 -1.48781 -0.824507 0
M  V30 10971 O 1054.03 -1.77477 -0.788397 0
M  V30 10972 C 1051.16 -3.31989 -1.01984 0
M  V30 10973 C 1050.11 -4.2656 -0.350745 0
M  V30 10974 C 1049.44 -5.15036 -1.43673 0
M  V30 10975 C 1050.74 -5.16897 0.749299 0
M  V30 10976 H 1052.43 -2.91034 0.702832 0
M  V30 10977 H 1049.98 -1.39942 0.339435 0
M  V30 10978 H 1051.93 -3.93483 -1.50828 0
M  V30 10979 H 1050.65 -2.72643 -1.79815 0
M  V30 10980 H 1049.31 -3.66413 0.117139 0
M  V30 10981 H 1048.96 -4.52037 -2.20617 0
M  V30 10982 H 1048.66 -5.79125 -0.994358 0
M  V30 10983 H 1050.18 -5.79403 -1.92678 0
M  V30 10984 H 1051.6 -5.7227 0.343534 0
M  V30 10985 H 1049.99 -5.89643 1.11541 0
M  V30 10986 H 1051.06 -4.5731 1.61232 0
M  V30 10987 N 1052.41 -0.382291 -1.52893 0
M  V30 10988 C 1053.34 0.500194 -2.22651 0
M  V30 10989 C 1054.32 1.06969 -1.22459 0
M  V30 10990 O 1055.5 1.12267 -1.51422 0
M  V30 10991 C 1052.63 1.6917 -2.93427 0
M  V30 10992 C 1051.68 1.24811 -4.07829 0
M  V30 10993 S 1052.51 0.235466 -5.34982 0
M  V30 10994 C 1053.66 1.43292 -6.09277 0
M  V30 10995 H 1053.9 -0.0921913 -2.97157 0
M  V30 10996 H 1051.43 -0.16645 -1.535 0
M  V30 10997 H 1053.39 2.37507 -3.34815 0
M  V30 10998 H 1052.05 2.25537 -2.18613 0
M  V30 10999 H 1051.24 2.13754 -4.56426 0
M  V30 11000 H 1050.84 0.643744 -3.68418 0
M  V30 11001 H 1053.14 2.36118 -6.35023 0
M  V30 11002 H 1054.08 0.988003 -7.01173 0
M  V30 11003 H 1054.49 1.64655 -5.39953 0
M  V30 11004 N 1053.89 1.57202 -0.111913 0
M  V30 11005 C 1054.83 2.16186 0.858286 0
M  V30 11006 C 1055.83 1.10917 1.28039 0
M  V30 11007 O 1057.03 1.29233 1.25295 0
M  V30 11008 H 1053.41 0.691777 0.29487 0
M  V30 11009 H 1055.38 2.96499 0.336265 0
M  V30 11010 C 1054.13 2.77024 2.10127 0
M  V30 11011 H 1053.45 3.5772 1.78539 0
M  V30 11012 H 1054.89 3.21841 2.76033 0
M  V30 11013 C 1053.35 1.73752 2.88638 0
M  V30 11014 O 1053.88 1.18659 3.83774 0
M  V30 11015 N 1052.09 1.43855 2.52496 0
M  V30 11016 H 1051.63 1.88846 1.75199 0
M  V30 11017 H 1051.59 0.749985 3.05324 0
M  V30 11018 N 1055.36 -0.161842 1.56767 0
M  V30 11019 C 1056.61 -0.875192 1.82167 0
M  V30 11020 C 1056.93 -1.82367 0.690444 0
M  V30 11021 O 1056.2 -1.93756 -0.289023 0
M  V30 11022 H 1054.78 -0.326178 0.672024 0
M  V30 11023 H 1057.44 -0.159392 1.94247 0
M  V30 11024 H 1056.54 -1.44639 2.76561 0
M  V30 11025 N 1056.84 -1.516 -0.430713 0
M  V30 11026 C 1057.77 -1.68084 -1.54347 0
M  V30 11027 C 1058.75 -0.528401 -1.53775 0
M  V30 11028 O 1059.94 -0.753072 -1.72804 0
M  V30 11029 C 1057.06 -1.70048 -2.92919 0
M  V30 11030 C 1056.11 -2.91336 -3.11489 0
M  V30 11031 S 1056.94 -4.52043 -2.87084 0
M  V30 11032 C 1058.1 -4.56761 -4.27926 0
M  V30 11033 H 1058.33 -2.62203 -1.40131 0
M  V30 11034 H 1055.86 -1.41368 -0.620853 0
M  V30 11035 H 1057.82 -1.71864 -3.72791 0
M  V30 11036 H 1056.48 -0.770946 -3.04492 0
M  V30 11037 H 1055.68 -2.8913 -4.1282 0
M  V30 11038 H 1055.28 -2.87296 -2.39451 0
M  V30 11039 H 1057.57 -4.32809 -5.21232 0
M  V30 11040 H 1058.51 -5.58604 -4.35163 0
M  V30 11041 H 1058.92 -3.86014 -4.1189 0
M  V30 11042 N 1058.32 0.686584 -1.41858 0
M  V30 11043 C 1059.27 1.80038 -1.44413 0
M  V30 11044 C 1060.24 1.63415 -0.297427 0
M  V30 11045 O 1061.42 1.84138 -0.499789 0
M  V30 11046 C 1058.56 3.17988 -1.34082 0
M  V30 11047 C 1057.67 3.45979 -2.58693 0
M  V30 11048 C 1056.81 4.73592 -2.4059 0
M  V30 11049 C 1055.85 4.94581 -3.60633 0
M  V30 11050 N 1054.99 6.13426 -3.41545 0
M  V30 11051 H 1059.83 1.77189 -2.396 0
M  V30 11052 H 1057.36 0.865158 -1.18968 0
M  V30 11053 H 1059.32 3.97689 -1.26092 0
M  V30 11054 H 1057.95 3.1999 -0.424975 0
M  V30 11055 H 1057 2.60617 -2.77097 0
M  V30 11056 H 1058.31 3.57386 -3.47961 0
M  V30 11057 H 1057.47 5.61364 -2.30119 0
M  V30 11058 H 1056.21 4.64448 -1.48794 0
M  V30 11059 H 1055.21 4.05254 -3.71549 0
M  V30 11060 H 1056.44 5.05578 -4.53395 0
M  V30 11061 H 1054.38 6.05477 -2.52456 0
M  V30 11062 H 1054.3 6.25641 -4.24393 0
M  V30 11063 H 1055.57 7.03908 -3.34864 0
M  V30 11064 N 1059.8 1.27835 0.921735 0
M  V30 11065 C 1061.05 1.13904 1.6646 0
M  V30 11066 C 1061.36 -0.313379 1.93073 0
M  V30 11067 O 1062.57 -0.573687 2.6537 0
M  V30 11068 C 1061.02 1.99064 2.99836 0
M  V30 11069 C 1060.63 3.48998 2.80899 0
M  V30 11070 C 1062.37 1.93797 3.77681 0
M  V30 11071 C 1060.28 4.26337 4.09867 0
M  V30 11072 H 1059.21 0.422681 0.624385 0
M  V30 11073 H 1061.86 1.52303 1.02352 0
M  V30 11074 H 1060.24 1.53514 3.65034 0
M  V30 11075 H 1061.42 4.02452 2.24431 0
M  V30 11076 H 1059.73 3.55707 2.16476 0
M  V30 11077 H 1062.33 2.48852 4.73262 0
M  V30 11078 H 1062.67 0.912928 4.06167 0
M  V30 11079 H 1063.21 2.37275 3.19289 0
M  V30 11080 H 1059.94 5.2939 3.86557 0
M  V30 11081 H 1059.46 3.77659 4.65976 0
M  V30 11082 H 1061.14 4.3583 4.78185 0
M  V30 11083 N 1061.28 -1.12907 1.09954 0
M  V30 11084 C 1062.52 -1.84579 0.840155 0
M  V30 11085 C 1062.85 -1.83605 -0.632692 0
M  V30 11086 O 1062.13 -1.27803 -1.46617 0
M  V30 11087 C 1062.41 -3.32489 1.38286 0
M  V30 11088 C 1062.27 -3.41946 2.92221 0
M  V30 11089 C 1063.58 -4.28091 1.0211 0
M  V30 11090 H 1060.7 -0.670169 0.306663 0
M  V30 11091 H 1063.35 -1.3249 1.36185 0
M  V30 11092 H 1061.5 -3.76978 0.939123 0
M  V30 11093 H 1063.17 -3.06128 3.45085 0
M  V30 11094 H 1061.41 -2.8265 3.29077 0
M  V30 11095 H 1062.08 -4.45983 3.25274 0
M  V30 11096 H 1064.56 -3.91701 1.4039 0
M  V30 11097 H 1063.43 -5.30005 1.42781 0
M  V30 11098 H 1063.69 -4.42044 -0.0700753 0
M  V30 11099 N 1062.75 -0.88754 -1.30232 0
M  V30 11100 C 1064 -0.506277 -1.95656 0
M  V30 11101 C 1064.32 0.948191 -1.70395 0
M  V30 11102 O 1063.59 1.66701 -1.02895 0
M  V30 11103 H 1062.17 -0.184235 -0.723924 0
M  V30 11104 H 1064.83 -1.13118 -1.58715 0
M  V30 11105 H 1063.93 -0.678673 -3.04632 0
M  V30 11106 N 1064.23 1.43628 -0.648757 0
M  V30 11107 C 1065.51 1.95391 -0.0904551 0
M  V30 11108 C 1065.89 1.59021 1.38837 0
M  V30 11109 O 1065.24 0.873078 2.11163 0
M  V30 11110 C 1065.45 3.47418 -0.33196 0
M  V30 11111 C 1066.8 4.23952 -0.234521 0
M  V30 11112 O 1067.82 3.55218 -0.264276 0
M  V30 11113 O 1066.68 5.46282 -0.154428 0
M  V30 11114 H 1063.77 0.82691 0.0121884 0
M  V30 11115 H 1066.32 1.5359 -0.721685 0
M  V30 11116 H 1065.09 3.67001 -1.35741 0
M  V30 11117 H 1064.71 3.96207 0.332556 0
M  V30 11118 N 1065.71 0.390394 1.52688 0
M  V30 11119 C 1066.64 -0.43567 2.294 0
M  V30 11120 C 1067.62 -1.06253 1.32832 0
M  V30 11121 O 1068.81 -1.07509 1.61726 0
M  V30 11122 C 1065.94 -1.56259 3.10162 0
M  V30 11123 C 1064.89 -1.06172 4.14622 0
M  V30 11124 C 1064.22 -2.2808 4.83615 0
M  V30 11125 C 1065.52 -0.128902 5.22141 0
M  V30 11126 H 1067.21 0.204384 2.98702 0
M  V30 11127 H 1064.76 0.0997377 1.43654 0
M  V30 11128 H 1066.71 -2.14732 3.62585 0
M  V30 11129 H 1065.43 -2.23025 2.38595 0
M  V30 11130 H 1064.09 -0.499518 3.63181 0
M  V30 11131 H 1063.74 -2.93358 4.08595 0
M  V30 11132 H 1063.44 -1.95227 5.5422 0
M  V30 11133 H 1064.96 -2.87193 5.38844 0
M  V30 11134 H 1066.38 -0.621849 5.69917 0
M  V30 11135 H 1064.78 0.109919 5.99999 0
M  V30 11136 H 1065.85 0.821884 4.77884 0
M  V30 11137 N 1067.19 -1.57141 0.120249 0
M  V30 11138 C 1068.44 -1.95238 -0.537449 0
M  V30 11139 C 1068.76 -1.00361 -1.66607 0
M  V30 11140 O 1068.02 -0.0277306 -1.9568 0
M  V30 11141 C 1068.32 -3.39745 -1.10941 0
M  V30 11142 C 1067.98 -4.50785 -0.102012 0
M  V30 11143 C 1066.65 -4.80882 0.174994 0
M  V30 11144 C 1069 -5.17913 0.584462 0
M  V30 11145 C 1066.33 -5.75424 1.14474 0
M  V30 11146 C 1068.68 -6.13497 1.54284 0
M  V30 11147 C 1067.34 -6.41987 1.82782 0
M  V30 11148 H 1066.61 -0.714425 -0.196666 0
M  V30 11149 H 1069.26 -1.90438 0.201418 0
M  V30 11150 H 1067.56 -3.41246 -1.92506 0
M  V30 11151 H 1069.26 -3.66536 -1.62642 0
M  V30 11152 H 1065.85 -4.27342 -0.328097 0
M  V30 11153 H 1070.03 -4.94815 0.383625 0
M  V30 11154 H 1065.29 -5.95801 1.37226 0
M  V30 11155 H 1069.46 -6.64598 2.08044 0
M  V30 11156 H 1067.09 -7.15052 2.5808 0
M  V30 11157 N 1068.67 0.153526 -1.5685 0
M  V30 11158 C 1069.91 0.865519 -1.82629 0
M  V30 11159 C 1070.24 1.81999 -0.700105 0
M  V30 11160 O 1069.51 1.93907 0.278744 0
M  V30 11161 H 1068.09 0.32261 -0.673745 0
M  V30 11162 H 1070.75 0.149088 -1.94329 0
M  V30 11163 H 1069.84 1.43171 -2.77324 0
M  V30 11164 N 1070.14 1.51827 0.422667 0
M  V30 11165 C 1071.11 1.7359 1.49663 0
M  V30 11166 C 1072.11 0.605811 1.48952 0
M  V30 11167 O 1073.3 0.87354 1.50715 0
M  V30 11168 C 1070.43 1.80585 2.8914 0
M  V30 11169 H 1071.62 2.69453 1.31664 0
M  V30 11170 H 1069.18 1.42038 0.652298 0
M  V30 11171 H 1069.91 0.865895 3.12526 0
M  V30 11172 H 1069.7 2.62729 2.9106 0
M  V30 11173 H 1071.19 1.99212 3.67021 0
M  V30 11174 N 1071.62 -0.679052 1.4222 0
M  V30 11175 C 1072.87 -1.43627 1.42182 0
M  V30 11176 C 1073.19 -1.94964 0.0377095 0
M  V30 11177 O 1072.46 -1.72788 -0.923098 0
M  V30 11178 H 1071.04 -0.532972 0.523402 0
M  V30 11179 H 1073.7 -0.802649 1.77605 0
M  V30 11180 H 1072.8 -2.29137 2.11902 0
M  V30 11181 N 1073.1 -1.28322 -0.914942 0
M  V30 11182 C 1074.05 -1.12146 -2.01722 0
M  V30 11183 C 1075.02 -0.0189279 -1.66089 0
M  V30 11184 O 1076.2 -0.183638 -1.89914 0
M  V30 11185 C 1073.34 -0.78808 -3.35981 0
M  V30 11186 C 1072.46 -1.96954 -3.84491 0
M  V30 11187 C 1071.59 -1.57688 -5.07255 0
M  V30 11188 C 1070.63 -2.72506 -5.48094 0
M  V30 11189 N 1069.77 -2.33741 -6.62049 0
M  V30 11190 H 1074.61 -2.06461 -2.1489 0
M  V30 11191 H 1072.14 -1.0276 -1.05256 0
M  V30 11192 H 1074.1 -0.575546 -4.13211 0
M  V30 11193 H 1072.73 0.118132 -3.22584 0
M  V30 11194 H 1071.78 -2.29423 -3.03429 0
M  V30 11195 H 1073.1 -2.8304 -4.10719 0
M  V30 11196 H 1072.25 -1.32634 -5.92025 0
M  V30 11197 H 1070.99 -0.687291 -4.82833 0
M  V30 11198 H 1069.99 -2.9826 -4.61867 0
M  V30 11199 H 1071.22 -3.62106 -5.74505 0
M  V30 11200 H 1069.16 -1.4725 -6.3926 0
M  V30 11201 H 1069.08 -3.13364 -6.87997 0
M  V30 11202 H 1070.35 -2.11968 -7.50127 0
M  V30 11203 N 1074.58 1.12322 -1.10551 0
M  V30 11204 C 1075.51 2.17221 -0.699299 0
M  V30 11205 C 1076.49 1.59809 0.299973 0
M  V30 11206 O 1077.67 1.87451 0.198589 0
M  V30 11207 C 1074.8 3.38685 -0.0320136 0
M  V30 11208 C 1073.85 4.14732 -0.99495 0
M  V30 11209 S 1074.68 4.72879 -2.51288 0
M  V30 11210 C 1075.84 5.97676 -1.85834 0
M  V30 11211 H 1076.07 2.51342 -1.5879 0
M  V30 11212 H 1073.6 1.23802 -0.92263 0
M  V30 11213 H 1075.56 4.09034 0.346656 0
M  V30 11214 H 1074.22 3.02842 0.833407 0
M  V30 11215 H 1073.41 5.01754 -0.475331 0
M  V30 11216 H 1073.02 3.50098 -1.31559 0
M  V30 11217 H 1075.31 6.6698 -1.18927 0
M  V30 11218 H 1076.25 6.54266 -2.70817 0
M  V30 11219 H 1076.66 5.48793 -1.32237 0
M  V30 11220 N 1076.06 0.894434 1.2976 0
M  V30 11221 C 1077.3 0.517669 1.95771 0
M  V30 11222 C 1077.63 -0.935028 1.70551 0
M  V30 11223 O 1076.89 -1.67722 1.00835 0
M  V30 11224 C 1077.19 0.750307 3.49435 0
M  V30 11225 C 1076.85 2.17955 3.94723 0
M  V30 11226 C 1075.51 2.57036 4.068 0
M  V30 11227 C 1077.87 3.11053 4.18205 0
M  V30 11228 C 1075.19 3.88406 4.39724 0
M  V30 11229 C 1077.55 4.41966 4.52602 0
M  V30 11230 C 1076.21 4.80927 4.62888 0
M  V30 11231 H 1075.48 0.189428 0.716378 0
M  V30 11232 H 1078.13 1.13209 1.54454 0
M  V30 11233 H 1076.43 0.0529242 3.91764 0
M  V30 11234 H 1078.13 0.438251 3.98598 0
M  V30 11235 H 1074.72 1.86622 3.85837 0
M  V30 11236 H 1078.9 2.82076 4.08347 0
M  V30 11237 H 1074.16 4.18321 4.4589 0
M  V30 11238 H 1078.33 5.14134 4.69722 0
M  V30 11239 H 1075.96 5.82759 4.88156 0
M  V30 11240 N 1077.53 -1.43282 0.656365 0
M  V30 11241 C 1078.46 -2.33492 -0.0196962 0
M  V30 11242 C 1079.45 -1.49647 -0.80868 0
M  V30 11243 O 1080.63 -1.78303 -0.769529 0
M  V30 11244 C 1077.76 -3.33052 -0.984574 0
M  V30 11245 C 1076.71 -4.26908 -0.305483 0
M  V30 11246 C 1076.04 -5.16531 -1.38202 0
M  V30 11247 C 1077.34 -5.16073 0.804081 0
M  V30 11248 H 1079.03 -2.90272 0.733661 0
M  V30 11249 H 1076.58 -1.39574 0.354259 0
M  V30 11250 H 1078.53 -3.9506 -1.46647 0
M  V30 11251 H 1077.26 -2.74535 -1.76913 0
M  V30 11252 H 1075.92 -3.66268 0.155995 0
M  V30 11253 H 1075.56 -4.54351 -2.1581 0
M  V30 11254 H 1075.26 -5.80148 -0.932878 0
M  V30 11255 H 1076.79 -5.81414 -1.86522 0
M  V30 11256 H 1078.2 -5.71873 0.404212 0
M  V30 11257 H 1076.6 -5.88427 1.17789 0
M  V30 11258 H 1077.67 -4.55574 1.66073 0
M  V30 11259 N 1079.01 -0.398486 -1.52479 0
M  V30 11260 C 1080.42 0.0735015 -1.86555 0
M  V30 11261 C 1080.78 1.45361 -1.31775 0
M  V30 11262 O 1079.9 2.0632 -0.652759 0
M  V30 11263 C 1080.5 0.140152 -3.3851 0
M  V30 11264 C 1079.05 0.556451 -3.72264 0
M  V30 11265 C 1078.2 -0.275792 -2.75925 0
M  V30 11266 H 1081.15 -0.615991 -1.46257 0
M  V30 11267 H 1081.17 0.957507 -3.68255 0
M  V30 11268 H 1080.69 -0.864442 -3.7835 0
M  V30 11269 H 1078.79 1.56808 -3.37997 0
M  V30 11270 H 1078.9 0.308227 -4.78107 0
M  V30 11271 H 1077.26 0.260304 -2.53366 0
M  V30 11272 H 1078.05 -1.27854 -3.18604 0
M  V30 11273 N 1080.49 1.57075 -0.12858 0
M  V30 11274 C 1081.42 2.12907 0.848708 0
M  V30 11275 C 1082.44 1.07406 1.22343 0
M  V30 11276 O 1083.63 1.34746 1.17071 0
M  V30 11277 C 1080.73 2.62167 2.1476 0
M  V30 11278 C 1079.9 3.91871 1.94309 0
M  V30 11279 C 1078.96 4.26629 3.08016 0
M  V30 11280 O 1077.98 4.9528 2.80511 0
M  V30 11281 N 1079.19 3.84721 4.34706 0
M  V30 11282 H 1081.95 2.97387 0.371636 0
M  V30 11283 H 1079.51 1.61805 0.0555574 0
M  V30 11284 H 1081.5 2.82444 2.89841 0
M  V30 11285 H 1080.07 1.82514 2.53786 0
M  V30 11286 H 1079.29 3.80406 1.03367 0
M  V30 11287 H 1080.58 4.76662 1.77962 0
M  V30 11288 H 1079.98 3.2937 4.59926 0
M  V30 11289 H 1078.54 4.10087 5.06628 0
M  V30 11290 N 1081.97 -0.145205 1.5693 0
M  V30 11291 C 1083.22 -0.858786 1.83719 0
M  V30 11292 C 1083.55 -1.80738 0.710452 0
M  V30 11293 O 1082.82 -1.92389 -0.285791 0
M  V30 11294 C 1083.11 -1.6317 3.2101 0
M  V30 11295 C 1082.96 -0.704472 4.44249 0
M  V30 11296 C 1084.28 -2.59377 3.55544 0
M  V30 11297 H 1081.4 -0.310757 0.66828 0
M  V30 11298 H 1084.04 -0.123918 1.89595 0
M  V30 11299 H 1082.19 -2.25816 3.16132 0
M  V30 11300 H 1083.86 -0.08887 4.61214 0
M  V30 11301 H 1082.1 -0.0141693 4.33798 0
M  V30 11302 H 1082.78 -1.28135 5.36922 0
M  V30 11303 H 1085.25 -2.06848 3.61044 0
M  V30 11304 H 1084.13 -3.10506 4.52634 0
M  V30 11305 H 1084.39 -3.40819 2.81594 0
M  V30 11306 N 1083.45 -1.52049 -0.414609 0
M  V30 11307 C 1084.7 -1.65067 -1.15912 0
M  V30 11308 C 1085.01 -0.383969 -1.91794 0
M  V30 11309 O 1086.22 -0.393872 -2.68628 0
M  V30 11310 C 1084.67 -2.91611 -2.1093 0
M  V30 11311 C 1084.28 -4.25369 -1.4059 0
M  V30 11312 C 1086.02 -3.13992 -2.85674 0
M  V30 11313 C 1083.93 -5.43041 -2.34223 0
M  V30 11314 H 1082.86 -0.614884 -0.436387 0
M  V30 11315 H 1085.51 -1.78533 -0.424072 0
M  V30 11316 H 1083.89 -2.71831 -2.87965 0
M  V30 11317 H 1085.07 -4.55611 -0.689568 0
M  V30 11318 H 1083.38 -4.09047 -0.779088 0
M  V30 11319 H 1085.98 -3.99082 -3.55861 0
M  V30 11320 H 1086.32 -2.27998 -3.48314 0
M  V30 11321 H 1086.86 -3.34217 -2.1574 0
M  V30 11322 H 1083.59 -6.31364 -1.76238 0
M  V30 11323 H 1083.11 -5.17144 -3.03845 0
M  V30 11324 H 1084.79 -5.75901 -2.94868 0
M  V30 11325 N 1084.93 0.6715 -1.42579 0
M  V30 11326 C 1085.87 1.78496 -1.46314 0
M  V30 11327 C 1086.84 1.63091 -0.314743 0
M  V30 11328 O 1088.03 1.83597 -0.519292 0
M  V30 11329 C 1085.17 3.16548 -1.37447 0
M  V30 11330 C 1084.28 3.43216 -2.62348 0
M  V30 11331 C 1083.42 4.71014 -2.456 0
M  V30 11332 C 1082.45 4.90728 -3.65859 0
M  V30 11333 N 1081.59 6.09769 -3.48032 0
M  V30 11334 H 1086.43 1.74638 -2.41466 0
M  V30 11335 H 1083.97 0.852491 -1.19879 0
M  V30 11336 H 1085.93 3.96329 -1.30303 0
M  V30 11337 H 1084.56 3.19522 -0.458891 0
M  V30 11338 H 1083.61 2.57664 -2.79846 0
M  V30 11339 H 1084.92 3.53675 -3.51732 0
M  V30 11340 H 1084.07 5.58892 -2.3606 0
M  V30 11341 H 1082.81 4.62843 -1.53712 0
M  V30 11342 H 1081.82 4.01291 -3.75827 0
M  V30 11343 H 1083.04 5.00741 -4.58732 0
M  V30 11344 H 1080.99 6.02765 -2.58864 0
M  V30 11345 H 1080.91 6.21104 -4.31005 0
M  V30 11346 H 1082.17 7.00317 -3.42311 0
M  V30 11347 N 1086.4 1.28806 0.908124 0
M  V30 11348 C 1087.63 1.19271 1.69674 0
M  V30 11349 C 1088.05 -0.244403 1.86505 0
M  V30 11350 O 1087.41 -1.17668 1.37927 0
M  V30 11351 C 1087.46 1.9023 3.06341 0
M  V30 11352 O 1086.56 1.2136 3.94139 0
M  V30 11353 H 1085.9 0.413738 0.519343 0
M  V30 11354 H 1088.43 1.70227 1.13508 0
M  V30 11355 H 1088.44 1.98356 3.56537 0
M  V30 11356 H 1087.12 2.94762 2.93408 0
M  V30 11357 H 1085.7 1.21435 3.52573 0
M  V30 11358 N 1087.88 -1.11734 1.11145 0
M  V30 11359 C 1088.84 -2.15868 0.770303 0
M  V30 11360 C 1089.84 -1.59438 -0.208842 0
M  V30 11361 O 1091.03 -1.74193 0.0152516 0
M  V30 11362 C 1088.17 -3.40603 0.142303 0
M  V30 11363 H 1089.36 -2.4756 1.69276 0
M  V30 11364 H 1086.91 -1.26867 0.912929 0
M  V30 11365 H 1087.65 -3.14517 -0.790526 0
M  V30 11366 H 1087.43 -3.8284 0.847087 0
M  V30 11367 H 1088.92 -4.17523 -0.0803608 0
M  V30 11368 N 1089.36 -0.901303 -1.29284 0
M  V30 11369 C 1090.78 -0.597634 -1.47988 0
M  V30 11370 C 1090.98 0.860434 -1.82205 0
M  V30 11371 O 1090.03 1.64049 -1.91948 0
M  V30 11372 C 1091.34 -1.52484 -2.5917 0
M  V30 11373 C 1092.89 -1.53021 -2.73045 0
M  V30 11374 C 1093.37 -2.44373 -3.87357 0
M  V30 11375 N 1094.86 -2.42429 -3.94693 0
M  V30 11376 C 1095.59 -3.09817 -4.82495 0
M  V30 11377 N 1095.09 -3.86489 -5.74976 0
M  V30 11378 N 1096.88 -2.98966 -4.76 0
M  V30 11379 H 1089.03 -1.84432 -1.0535 0
M  V30 11380 H 1091.3 -0.790367 -0.523473 0
M  V30 11381 H 1091 -2.56378 -2.40756 0
M  V30 11382 H 1090.88 -1.24657 -3.56006 0
M  V30 11383 H 1093.26 -0.498709 -2.90855 0
M  V30 11384 H 1093.34 -1.84886 -1.76779 0
M  V30 11385 H 1092.99 -3.47618 -3.70302 0
M  V30 11386 H 1092.92 -2.09817 -4.82995 0
M  V30 11387 H 1095.41 -1.86724 -3.28546 0
M  V30 11388 H 1095.72 -4.34959 -6.38773 0
M  V30 11389 H 1094.07 -3.90596 -5.74857 0
M  V30 11390 H 1097.26 -2.38581 -4.02737 0
M  V30 11391 H 1097.43 -3.51758 -5.44215 0
M  V30 11392 N 1090.84 1.42931 -0.663954 0
M  V30 11393 C 1092.08 2.01982 -0.182007 0
M  V30 11394 C 1092.42 1.52323 1.20463 0
M  V30 11395 O 1091.69 0.720834 1.80649 0
M  V30 11396 C 1091.97 3.59518 -0.204671 0
M  V30 11397 C 1091.83 4.19382 -1.62599 0
M  V30 11398 C 1093.15 4.37762 0.45308 0
M  V30 11399 H 1090.27 0.733892 -0.0676115 0
M  V30 11400 H 1092.91 1.70092 -0.84668 0
M  V30 11401 H 1091.06 3.86816 0.361295 0
M  V30 11402 H 1092.73 4.03076 -2.24337 0
M  V30 11403 H 1090.97 3.75623 -2.17001 0
M  V30 11404 H 1091.64 5.28496 -1.59362 0
M  V30 11405 H 1094.12 4.1609 -0.0285774 0
M  V30 11406 H 1093 5.47392 0.406538 0
M  V30 11407 H 1093.26 4.1482 1.52895 0
M  V30 11408 N 1092.32 0.406567 1.52266 0
M  V30 11409 C 1093.25 -0.464709 2.23418 0
M  V30 11410 C 1094.23 -1.05008 1.24146 0
M  V30 11411 O 1095.41 -1.09843 1.53188 0
M  V30 11412 C 1092.54 -1.64481 2.96081 0
M  V30 11413 C 1091.58 -1.18307 4.09763 0
M  V30 11414 S 1092.42 -0.150326 5.35289 0
M  V30 11415 C 1093.57 -1.3358 6.11479 0
M  V30 11416 H 1093.81 0.139455 2.96973 0
M  V30 11417 H 1091.34 0.19085 1.53216 0
M  V30 11418 H 1093.3 -2.3215 3.38551 0
M  V30 11419 H 1091.96 -2.22031 2.22174 0
M  V30 11420 H 1091.15 -2.06466 4.59769 0
M  V30 11421 H 1090.75 -0.58505 3.69396 0
M  V30 11422 H 1093.04 -2.25986 6.38699 0
M  V30 11423 H 1093.99 -0.876328 7.02656 0
M  V30 11424 H 1094.4 -1.56044 5.42504 0
M  V30 11425 N 1093.79 -1.57004 0.136909 0
M  V30 11426 C 1094.74 -2.16246 -0.806607 0
M  V30 11427 C 1095.71 -1.09246 -1.25118 0
M  V30 11428 O 1096.9 -1.3724 -1.32551 0
M  V30 11429 C 1094.04 -2.78031 -2.04433 0
M  V30 11430 C 1093.15 -3.99393 -1.64649 0
M  V30 11431 C 1092.28 -4.49208 -2.83524 0
M  V30 11432 C 1091.32 -5.63059 -2.40064 0
M  V30 11433 N 1090.46 -6.07537 -3.51913 0
M  V30 11434 H 1095.3 -2.9654 -0.294596 0
M  V30 11435 H 1092.84 -1.46491 -0.133705 0
M  V30 11436 H 1094.8 -3.11992 -2.76978 0
M  V30 11437 H 1093.43 -2.00398 -2.53062 0
M  V30 11438 H 1092.48 -3.71477 -0.819077 0
M  V30 11439 H 1093.79 -4.81904 -1.28723 0
M  V30 11440 H 1092.94 -4.85171 -3.64271 0
M  V30 11441 H 1091.68 -3.65683 -3.22688 0
M  V30 11442 H 1090.69 -5.26682 -1.57754 0
M  V30 11443 H 1091.91 -6.48362 -2.01997 0
M  V30 11444 H 1089.86 -5.2695 -3.90717 0
M  V30 11445 H 1089.78 -6.84949 -3.1997 0
M  V30 11446 H 1091.04 -6.48143 -4.33048 0
M  V30 11447 N 1095.27 0.136881 -1.57004 0
M  V30 11448 C 1096.22 1.16869 -1.99023 0
M  V30 11449 C 1097.19 1.42137 -0.859435 0
M  V30 11450 O 1098.37 1.54303 -1.12229 0
M  V30 11451 C 1095.51 2.49466 -2.38455 0
M  V30 11452 C 1094.63 2.31286 -3.64871 0
M  V30 11453 C 1093.76 3.56989 -3.9336 0
M  V30 11454 C 1092.8 3.33889 -5.13015 0
M  V30 11455 N 1091.94 4.51748 -5.37464 0
M  V30 11456 H 1096.78 0.803366 -2.86967 0
M  V30 11457 H 1094.32 0.385216 -1.41967 0
M  V30 11458 H 1096.27 3.26794 -2.59348 0
M  V30 11459 H 1094.9 2.83926 -1.53577 0
M  V30 11460 H 1093.96 1.44962 -3.51696 0
M  V30 11461 H 1095.27 2.10183 -4.52355 0
M  V30 11462 H 1094.42 4.42742 -4.14806 0
M  V30 11463 H 1093.16 3.81106 -3.04318 0
M  V30 11464 H 1092.17 2.46525 -4.91432 0
M  V30 11465 H 1093.39 3.1116 -6.03619 0
M  V30 11466 H 1091.34 4.76019 -4.51377 0
M  V30 11467 H 1091.25 4.33684 -6.19237 0
M  V30 11468 H 1092.52 5.38686 -5.63416 0
M  V30 11469 N 1096.75 1.52266 0.40654 0
M  V30 11470 C 1097.71 1.75168 1.47814 0
M  V30 11471 C 1098.71 0.621575 1.48301 0
M  V30 11472 O 1099.9 0.889476 1.4978 0
M  V30 11473 C 1097.04 1.83642 2.87208 0
M  V30 11474 H 1098.23 2.70834 1.28798 0
M  V30 11475 H 1095.78 1.42722 0.637196 0
M  V30 11476 H 1096.52 0.898994 3.1159 0
M  V30 11477 H 1096.3 2.65801 2.88257 0
M  V30 11478 H 1097.79 2.03093 3.64888 0
M  V30 11479 N 1098.23 -0.663929 1.42933 0
M  V30 11480 C 1099.47 -1.42603 1.44195 0
M  V30 11481 C 1099.81 -1.94101 0.0620284 0
M  V30 11482 O 1099.08 -1.71609 -0.91546 0
M  V30 11483 C 1099.37 -2.61522 2.47544 0
M  V30 11484 C 1099.22 -2.15587 3.94769 0
M  V30 11485 C 1100.54 -3.6374 2.47753 0
M  V30 11486 H 1097.66 -0.517189 0.525056 0
M  V30 11487 H 1100.3 -0.75361 1.74415 0
M  V30 11488 H 1098.45 -3.1889 2.21904 0
M  V30 11489 H 1100.12 -1.63303 4.31428 0
M  V30 11490 H 1098.36 -1.47057 4.08114 0
M  V30 11491 H 1099.03 -3.01053 4.62678 0
M  V30 11492 H 1101.51 -3.16111 2.70579 0
M  V30 11493 H 1100.39 -4.44512 3.22025 0
M  V30 11494 H 1100.65 -4.15607 1.50742 0
M  V30 11495 N 1099.71 -1.29285 -0.901281 0
M  V30 11496 C 1100.95 -1.16934 -1.64836 0
M  V30 11497 C 1101.28 0.279826 -1.92982 0
M  V30 11498 O 1100.55 1.19179 -1.55478 0
M  V30 11499 H 1099.13 -0.429768 -0.61099 0
M  V30 11500 H 1101.79 -1.62189 -1.08077 0
M  V30 11501 H 1100.88 -1.71821 -2.60545 0
M  V30 11502 N 1101.18 1.11143 -1.11736 0
M  V30 11503 C 1102.13 2.15396 -0.747566 0
M  V30 11504 C 1103.12 1.58948 0.249894 0
M  V30 11505 O 1104.31 1.7691 0.0565267 0
M  V30 11506 C 1101.44 3.42741 -0.195776 0
M  V30 11507 C 1100.53 4.06141 -1.22109 0
M  V30 11508 N 1100.92 4.44351 -2.41631 0
M  V30 11509 C 1099.21 4.33104 -1.06474 0
M  V30 11510 C 1099.92 4.94062 -3.07046 0
M  V30 11511 N 1098.89 4.90411 -2.34516 0
M  V30 11512 H 1102.69 2.42722 -1.6572 0
M  V30 11513 H 1100.21 1.28189 -0.997059 0
M  V30 11514 H 1102.2 4.16809 0.0872984 0
M  V30 11515 H 1100.86 3.16878 0.708406 0
M  V30 11516 H 1101.88 4.36283 -2.79065 0
M  V30 11517 H 1098.55 4.16934 -0.217246 0
M  V30 11518 H 1099.94 5.33234 -4.08792 0
M  V30 11519 N 1102.66 0.908147 1.28804 0
M  V30 11520 C 1103.59 0.409106 2.29888 0
M  V30 11521 C 1104.57 -0.520338 1.61946 0
M  V30 11522 O 1105.76 -0.429268 1.89396 0
M  V30 11523 C 1102.89 -0.35669 3.45463 0
M  V30 11524 C 1101.84 0.4831 4.25265 0
M  V30 11525 C 1101.17 -0.4107 5.3312 0
M  V30 11526 C 1102.47 1.73744 4.92555 0
M  V30 11527 H 1104.16 1.25386 2.7188 0
M  V30 11528 H 1101.71 0.604368 1.30703 0
M  V30 11529 H 1103.66 -0.71661 4.15262 0
M  V30 11530 H 1102.39 -1.2353 3.02337 0
M  V30 11531 H 1101.04 0.825464 3.57186 0
M  V30 11532 H 1100.69 -1.28769 4.86238 0
M  V30 11533 H 1100.39 0.14756 5.87415 0
M  V30 11534 H 1101.92 -0.766626 6.05768 0
M  V30 11535 H 1103.33 1.44676 5.54745 0
M  V30 11536 H 1101.73 2.23767 5.5682 0
M  V30 11537 H 1102.8 2.46853 4.17363 0
M  V30 11538 N 1104.14 -1.42577 0.671525 0
M  V30 11539 C 1105.39 -2.00806 0.189663 0
M  V30 11540 C 1105.7 -1.537 -1.20978 0
M  V30 11541 O 1106.91 -2.04325 -1.78784 0
M  V30 11542 C 1105.36 -3.58744 0.288227 0
M  V30 11543 C 1104.97 -4.14839 1.69152 0
M  V30 11544 C 1106.72 -4.24285 -0.13509 0
M  V30 11545 C 1104.62 -5.65131 1.74302 0
M  V30 11546 H 1103.55 -0.751004 0.067146 0
M  V30 11547 H 1106.2 -1.63338 0.83623 0
M  V30 11548 H 1104.59 -3.937 -0.426175 0
M  V30 11549 H 1105.76 -3.91349 2.43274 0
M  V30 11550 H 1104.08 -3.61738 2.0624 0
M  V30 11551 H 1106.67 -5.34573 -0.116709 0
M  V30 11552 H 1107.02 -3.99527 -1.16977 0
M  V30 11553 H 1107.55 -3.94278 0.528191 0
M  V30 11554 H 1104.29 -5.94682 2.75742 0
M  V30 11555 H 1103.81 -5.90621 1.04531 0
M  V30 11556 H 1105.49 -6.29491 1.49498 0
M  V30 11557 N 1105.62 -0.414636 -1.52048 0
M  V30 11558 C 1107.03 0.0537107 -1.86623 0
M  V30 11559 C 1107.38 1.43955 -1.3331 0
M  V30 11560 O 1106.51 2.05616 -0.674606 0
M  V30 11561 C 1107.1 0.104241 -3.3864 0
M  V30 11562 C 1105.66 0.516936 -3.72833 0
M  V30 11563 C 1104.81 -0.305042 -2.75617 0
M  V30 11564 H 1107.76 -0.631469 -1.45596 0
M  V30 11565 H 1107.78 0.918395 -3.6925 0
M  V30 11566 H 1107.29 -0.904523 -3.77412 0
M  V30 11567 H 1105.39 1.53214 -3.39641 0
M  V30 11568 H 1105.5 0.2575 -4.78408 0
M  V30 11569 H 1103.87 0.233416 -2.53628 0
M  V30 11570 H 1104.65 -1.31226 -3.1723 0
M  V30 11571 N 1107.1 1.56929 -0.145233 0
M  V30 11572 C 1108.34 1.96068 0.50632 0
M  V30 11573 C 1108.67 1.02999 1.64989 0
M  V30 11574 O 1107.93 0.0588581 1.95611 0
M  V30 11575 C 1108.23 3.41467 1.05522 0
M  V30 11576 C 1107.89 4.5089 0.0302827 0
M  V30 11577 C 1106.55 4.80542 -0.251475 0
M  V30 11578 C 1108.91 5.16917 -0.666783 0
M  V30 11579 C 1106.23 5.7353 -1.23614 0
M  V30 11580 C 1108.59 6.10965 -1.64025 0
M  V30 11581 C 1107.25 6.38998 -1.92973 0
M  V30 11582 H 1106.52 0.717464 0.185276 0
M  V30 11583 H 1109.17 1.90093 -0.23169 0
M  V30 11584 H 1107.47 3.44265 1.87053 0
M  V30 11585 H 1109.17 3.69077 1.5679 0
M  V30 11586 H 1105.76 4.2781 0.260069 0
M  V30 11587 H 1109.94 4.94142 -0.462297 0
M  V30 11588 H 1105.2 5.93543 -1.46687 0
M  V30 11589 H 1109.37 6.61204 -2.18591 0
M  V30 11590 H 1107 7.10855 -2.69423 0
M  V30 11591 N 1108.58 -0.128553 1.57075 0
M  V30 11592 C 1109.51 -1.18822 1.94825 0
M  V30 11593 C 1110.49 -1.40609 0.816571 0
M  V30 11594 O 1111.67 -1.5492 1.07388 0
M  V30 11595 C 1108.8 -2.54383 2.23623 0
M  V30 11596 C 1107.84 -2.4908 3.4621 0
M  V30 11597 S 1108.68 -1.93974 4.99133 0
M  V30 11598 C 1109.83 -3.31228 5.31074 0
M  V30 11599 H 1110.07 -0.866246 2.844 0
M  V30 11600 H 1107.6 -0.334927 1.50724 0
M  V30 11601 H 1109.56 -3.32386 2.40893 0
M  V30 11602 H 1108.22 -2.83761 1.34678 0
M  V30 11603 H 1107.41 -3.48915 3.63695 0
M  V30 11604 H 1107.01 -1.79193 3.28277 0
M  V30 11605 H 1109.3 -4.27407 5.25671 0
M  V30 11606 H 1110.25 -3.18578 6.32387 0
M  V30 11607 H 1110.66 -3.29215 4.5856 0
M  V30 11608 N 1110.05 -1.5248 -0.398459 0
M  V30 11609 C 1110.96 -1.79492 -1.51062 0
M  V30 11610 C 1111.98 -0.681101 -1.60116 0
M  V30 11611 O 1113.16 -0.967671 -1.7663 0
M  V30 11612 C 1110.22 -1.94958 -2.86692 0
M  V30 11613 C 1109.28 -3.1887 -2.87438 0
M  V30 11614 C 1108.51 -3.33588 -4.16599 0
M  V30 11615 O 1108.74 -2.53327 -5.11059 0
M  V30 11616 O 1107.67 -4.26795 -4.24416 0
M  V30 11617 H 1111.5 -2.73913 -1.31169 0
M  V30 11618 H 1109.08 -1.37455 -0.585372 0
M  V30 11619 H 1110.96 -2.06891 -3.67116 0
M  V30 11620 H 1109.64 -1.03726 -3.06631 0
M  V30 11621 H 1108.55 -3.12386 -2.0583 0
M  V30 11622 H 1109.88 -4.09917 -2.7245 0
M  V30 11623 N 1111.53 0.65634 -1.43283 0
M  V30 11624 C 1112.48 1.76934 -1.48199 0
M  V30 11625 C 1113.45 1.62748 -0.332023 0
M  V30 11626 O 1114.63 1.83036 -0.538735 0
M  V30 11627 C 1111.77 3.15072 -1.40797 0
M  V30 11628 C 1110.89 3.40414 -2.65974 0
M  V30 11629 C 1110.02 4.68383 -2.50582 0
M  V30 11630 C 1109.06 4.8682 -3.71043 0
M  V30 11631 N 1108.2 6.06043 -3.5448 0
M  V30 11632 H 1113.04 1.72067 -2.43304 0
M  V30 11633 H 1110.57 0.839728 -1.20777 0
M  V30 11634 H 1112.53 3.94925 -1.345 0
M  V30 11635 H 1111.16 3.19017 -0.492754 0
M  V30 11636 H 1110.21 2.54681 -2.82563 0
M  V30 11637 H 1111.53 3.49925 -3.55463 0
M  V30 11638 H 1110.68 5.56357 -2.41975 0
M  V30 11639 H 1109.42 4.61187 -1.58612 0
M  V30 11640 H 1108.42 3.97282 -3.80062 0
M  V30 11641 H 1109.65 4.95847 -4.64017 0
M  V30 11642 H 1107.6 5.99985 -2.65242 0
M  V30 11643 H 1107.51 6.16498 -4.37568 0
M  V30 11644 H 1108.78 6.96647 -3.49719 0
M  V30 11645 N 1113.01 1.29761 0.894412 0
M  V30 11646 C 1113.92 1.1724 2.03204 0
M  V30 11647 C 1114.94 0.0944452 1.73743 0
M  V30 11648 O 1116.11 0.307549 1.99038 0
M  V30 11649 C 1113.18 0.855416 3.35981 0
M  V30 11650 C 1112.24 2.01777 3.78926 0
M  V30 11651 C 1111.47 1.71581 5.05367 0
M  V30 11652 O 1111.69 0.639245 5.66807 0
M  V30 11653 O 1110.63 2.56539 5.44492 0
M  V30 11654 H 1114.45 2.12787 2.16692 0
M  V30 11655 H 1112.04 1.09264 1.0189 0
M  V30 11656 H 1113.92 0.693429 4.15656 0
M  V30 11657 H 1112.6 -0.0702195 3.23624 0
M  V30 11658 H 1111.5 2.23502 2.99996 0
M  V30 11659 H 1112.84 2.92479 3.95875 0
M  V30 11660 N 1114.49 -1.10549 1.12324 0
M  V30 11661 C 1115.9 -1.34508 0.85905 0
M  V30 11662 C 1116.1 -1.94901 -0.511468 0
M  V30 11663 O 1115.16 -2.18793 -1.2604 0
M  V30 11664 C 1116.47 -2.26788 1.97453 0
M  V30 11665 C 1118.02 -2.40328 2.00528 0
M  V30 11666 C 1118.5 -3.35936 3.11305 0
M  V30 11667 N 1119.99 -3.43504 3.1074 0
M  V30 11668 C 1120.72 -4.17449 3.93096 0
M  V30 11669 N 1120.22 -4.9429 4.85437 0
M  V30 11670 N 1122.01 -4.13055 3.81237 0
M  V30 11671 H 1114.16 -0.697171 2.00632 0
M  V30 11672 H 1116.42 -0.369548 0.873005 0
M  V30 11673 H 1116.13 -1.89621 2.96204 0
M  V30 11674 H 1116 -3.27086 1.87869 0
M  V30 11675 H 1118.39 -2.76765 1.02397 0
M  V30 11676 H 1118.47 -1.39849 2.14186 0
M  V30 11677 H 1118.12 -3.00225 4.09667 0
M  V30 11678 H 1118.05 -4.36291 2.94886 0
M  V30 11679 H 1120.54 -2.88702 2.43843 0
M  V30 11680 H 1120.85 -5.48109 5.4479 0
M  V30 11681 H 1119.2 -4.93419 4.89452 0
M  V30 11682 H 1122.39 -3.52117 3.08433 0
M  V30 11683 H 1122.56 -4.70424 4.45651 0
M  V30 11684 N 1115.97 -0.914965 -1.28321 0
M  V30 11685 C 1116.88 -0.409424 -2.31 0
M  V30 11686 C 1117.89 0.503526 -1.66555 0
M  V30 11687 O 1119.07 0.38942 -1.97599 0
M  V30 11688 C 1116.13 0.34123 -3.45017 0
M  V30 11689 C 1115.19 -0.605087 -4.25014 0
M  V30 11690 C 1114.43 0.109837 -5.33587 0
M  V30 11691 O 1114.65 1.33136 -5.54645 0
M  V30 11692 O 1113.58 -0.555474 -5.99331 0
M  V30 11693 H 1117.41 -1.26167 -2.76253 0
M  V30 11694 H 1114.99 -0.679831 -1.33036 0
M  V30 11695 H 1116.88 0.765132 -4.14396 0
M  V30 11696 H 1115.55 1.16929 -3.01843 0
M  V30 11697 H 1114.46 -1.07841 -3.58219 0
M  V30 11698 H 1115.79 -1.39999 -4.7187 0
M  V30 11699 N 1117.44 1.42219 -0.679077 0
M  V30 11700 C 1118.35 2.346 -0.00345919 0
M  V30 11701 C 1119.37 1.55327 0.784181 0
M  V30 11702 O 1120.55 1.87878 0.725524 0
M  V30 11703 C 1117.61 3.33905 0.933194 0
M  V30 11704 C 1116.67 4.29073 0.139607 0
M  V30 11705 C 1115.9 5.23634 1.03165 0
M  V30 11706 O 1116.13 5.23234 2.27119 0
M  V30 11707 O 1115.06 5.99901 0.490159 0
M  V30 11708 H 1118.89 2.9392 -0.764525 0
M  V30 11709 H 1116.47 1.42794 -0.439329 0
M  V30 11710 H 1118.35 3.949 1.47077 0
M  V30 11711 H 1117.03 2.77052 1.67404 0
M  V30 11712 H 1115.94 3.71478 -0.442177 0
M  V30 11713 H 1117.27 4.88979 -0.562214 0
M  V30 11714 N 1118.92 0.422693 1.51826 0
M  V30 11715 C 1120.15 -0.147744 2.06372 0
M  V30 11716 C 1120.56 -1.37714 1.29152 0
M  V30 11717 O 1119.92 -1.7917 0.347046 0
M  V30 11718 C 1119.97 -0.484642 3.58237 0
M  V30 11719 O 1119.69 0.695944 4.32537 0
M  V30 11720 C 1121.19 -1.10734 4.29247 0
M  V30 11721 H 1118.41 -0.0144047 0.670845 0
M  V30 11722 H 1120.96 0.597558 1.95575 0
M  V30 11723 H 1119.11 -1.17984 3.68997 0
M  V30 11724 H 1119.53 0.411471 5.22884 0
M  V30 11725 H 1121 -1.29318 5.36639 0
M  V30 11726 H 1121.48 -2.08429 3.86593 0
M  V30 11727 H 1122.08 -0.451958 4.22892 0
M  V30 11728 N 1120.4 -1.5685 0.153553 0
M  V30 11729 C 1121.82 -1.58306 -0.202801 0
M  V30 11730 C 1122.02 -1.16813 -1.64186 0
M  V30 11731 O 1121.07 -0.871468 -2.36985 0
M  V30 11732 C 1122.38 -3.00636 0.0619012 0
M  V30 11733 C 1123.93 -3.13 -0.00129219 0
M  V30 11734 C 1124.41 -4.57391 0.236164 0
M  V30 11735 N 1125.9 -4.62837 0.18332 0
M  V30 11736 C 1126.63 -5.72382 0.341471 0
M  V30 11737 N 1126.13 -6.90552 0.557704 0
M  V30 11738 N 1127.92 -5.61409 0.278615 0
M  V30 11739 H 1120.07 -1.82113 1.09309 0
M  V30 11740 H 1122.34 -0.843228 0.433209 0
M  V30 11741 H 1122.04 -3.35406 1.0581 0
M  V30 11742 H 1121.92 -3.71477 -0.654555 0
M  V30 11743 H 1124.3 -2.78068 -0.98805 0
M  V30 11744 H 1124.38 -2.44632 0.747596 0
M  V30 11745 H 1124.03 -4.93029 1.22005 0
M  V30 11746 H 1123.96 -5.23894 -0.533125 0
M  V30 11747 H 1126.45 -3.77894 0.0211138 0
M  V30 11748 H 1126.76 -7.69905 0.66831 0
M  V30 11749 H 1125.11 -6.92456 0.594105 0
M  V30 11750 H 1128.3 -4.6797 0.110401 0
M  V30 11751 H 1128.47 -6.46731 0.4053 0
M  V30 11752 N 1121.88 0.120221 -1.57141 0
M  V30 11753 C 1123.12 0.829449 -1.85062 0
M  V30 11754 C 1123.46 1.79585 -0.739116 0
M  V30 11755 O 1122.73 1.92819 0.255147 0
M  V30 11756 C 1123.01 1.58042 -3.23566 0
M  V30 11757 C 1122.87 0.633706 -4.45314 0
M  V30 11758 C 1124.19 2.53688 -3.59625 0
M  V30 11759 H 1121.31 0.300086 -0.67314 0
M  V30 11760 H 1123.95 0.0937393 -1.89769 0
M  V30 11761 H 1122.1 2.20758 -3.19684 0
M  V30 11762 H 1123.77 0.0154836 -4.61297 0
M  V30 11763 H 1122.01 -0.054846 -4.33765 0
M  V30 11764 H 1122.68 1.19577 -5.38893 0
M  V30 11765 H 1125.16 2.01078 -3.6429 0
M  V30 11766 H 1124.04 3.03265 -4.57516 0
M  V30 11767 H 1124.3 3.36296 -2.8698 0
M  V30 11768 N 1123.36 1.52689 0.390367 0
M  V30 11769 C 1124.29 1.80338 1.48325 0
M  V30 11770 C 1125.27 0.655338 1.56969 0
M  V30 11771 O 1126.45 0.902792 1.7194 0
M  V30 11772 C 1123.58 1.97101 2.85952 0
M  V30 11773 C 1122.54 3.12783 2.92148 0
M  V30 11774 C 1121.86 3.14798 4.32211 0
M  V30 11775 C 1123.16 4.5188 2.61919 0
M  V30 11776 H 1124.86 2.71857 1.25437 0
M  V30 11777 H 1122.4 1.30813 0.601995 0
M  V30 11778 H 1124.36 2.15027 3.62411 0
M  V30 11779 H 1123.08 1.02271 3.10174 0
M  V30 11780 H 1121.74 2.94638 2.18137 0
M  V30 11781 H 1121.39 2.17653 4.53471 0
M  V30 11782 H 1121.09 3.92507 4.37278 0
M  V30 11783 H 1122.61 3.34877 5.10578 0
M  V30 11784 H 1124.02 4.70134 3.28096 0
M  V30 11785 H 1122.42 5.31647 2.78337 0
M  V30 11786 H 1123.49 4.58689 1.57266 0
M  V30 11787 N 1124.83 -0.648732 1.43629 0
M  V30 11788 C 1125.78 -1.78269 1.49409 0
M  V30 11789 C 1126.78 -1.6537 0.367288 0
M  V30 11790 O 1127.98 -1.71663 0.541476 0
M  V30 11791 H 1124.36 -0.58824 0.468484 0
M  V30 11792 H 1126.33 -1.70514 2.44883 0
M  V30 11793 C 1125.08 -3.16545 1.43856 0
M  V30 11794 H 1124.4 -3.2711 2.29868 0
M  V30 11795 H 1125.84 -3.95833 1.51961 0
M  V30 11796 C 1124.3 -3.36535 0.156779 0
M  V30 11797 O 1124.83 -3.94052 -0.780124 0
M  V30 11798 N 1123.04 -2.90526 0.0655319 0
M  V30 11799 H 1122.58 -2.43904 0.828768 0
M  V30 11800 H 1122.54 -3.04277 -0.791379 0
M  V30 11801 N 1126.31 -1.30234 -0.887518 0
M  V30 11802 C 1127.56 -1.18675 -1.63587 0
M  V30 11803 C 1127.88 0.259342 -1.93268 0
M  V30 11804 O 1127.15 1.17523 -1.56733 0
M  V30 11805 H 1125.73 -0.436224 -0.606397 0
M  V30 11806 H 1128.39 -1.63326 -1.06351 0
M  V30 11807 H 1127.49 -1.74575 -2.58708 0
M  V30 11808 N 1127.79 1.09952 -1.12909 0
M  V30 11809 C 1129.02 1.8579 -0.910483 0
M  V30 11810 C 1129.43 1.80898 0.540484 0
M  V30 11811 O 1128.79 1.20126 1.3739 0
M  V30 11812 C 1128.84 3.33987 -1.38329 0
M  V30 11813 O 1128.56 3.38811 -2.77739 0
M  V30 11814 C 1130.06 4.26683 -1.20234 0
M  V30 11815 H 1127.28 0.587026 -0.325025 0
M  V30 11816 H 1129.83 1.38965 -1.5003 0
M  V30 11817 H 1127.98 3.78259 -0.836592 0
M  V30 11818 H 1128.4 4.31204 -2.98603 0
M  V30 11819 H 1129.87 5.28846 -1.58197 0
M  V30 11820 H 1130.35 4.38966 -0.14344 0
M  V30 11821 H 1130.95 3.88221 -1.73679 0
M  V30 11822 N 1129.27 0.921757 1.27833 0
M  V30 11823 C 1130.51 0.559906 1.94918 0
M  V30 11824 C 1130.85 -0.895532 1.72319 0
M  V30 11825 O 1130.12 -1.638 1.04879 0
M  V30 11826 C 1130.41 0.879458 3.49196 0
M  V30 11827 C 1130.26 2.38821 3.81162 0
M  V30 11828 C 1131.58 0.381183 4.38446 0
M  V30 11829 H 1128.7 0.204893 0.707946 0
M  V30 11830 H 1131.34 1.15246 1.51058 0
M  V30 11831 H 1129.49 0.375177 3.86684 0
M  V30 11832 H 1131.16 2.96373 3.53498 0
M  V30 11833 H 1129.4 2.83988 3.27923 0
M  V30 11834 H 1130.07 2.56234 4.88926 0
M  V30 11835 H 1132.55 0.813289 4.08075 0
M  V30 11836 H 1131.43 0.633778 5.45229 0
M  V30 11837 H 1131.69 -0.718651 4.3622 0
M  V30 11838 N 1130.75 -1.41857 0.686609 0
M  V30 11839 C 1131.66 -2.34595 0.0159005 0
M  V30 11840 C 1132.67 -1.55741 -0.775933 0
M  V30 11841 O 1133.85 -1.8826 -0.71555 0
M  V30 11842 C 1130.91 -3.34395 -0.915473 0
M  V30 11843 C 1129.97 -4.29141 -0.116851 0
M  V30 11844 C 1129.21 -5.24174 -1.00386 0
M  V30 11845 O 1129.43 -5.24431 -2.2434 0
M  V30 11846 O 1128.36 -6.00152 -0.458337 0
M  V30 11847 H 1132.19 -2.9351 0.780101 0
M  V30 11848 H 1129.78 -1.42559 0.446896 0
M  V30 11849 H 1131.66 -3.95675 -1.44981 0
M  V30 11850 H 1130.33 -2.77936 -1.65932 0
M  V30 11851 H 1129.24 -3.71238 0.461871 0
M  V30 11852 H 1130.57 -4.88673 0.588138 0
M  V30 11853 N 1132.22 -0.430739 -1.51599 0
M  V30 11854 C 1133.13 0.390347 -2.3133 0
M  V30 11855 C 1134.15 1.03376 -1.39962 0
M  V30 11856 O 1135.33 1.03057 -1.73035 0
M  V30 11857 C 1132.39 1.48039 -3.13505 0
M  V30 11858 C 1131.45 0.857792 -4.20643 0
M  V30 11859 C 1130.69 1.89589 -4.9889 0
M  V30 11860 O 1130.91 3.11717 -4.77691 0
M  V30 11861 O 1129.84 1.49009 -5.83164 0
M  V30 11862 H 1133.67 -0.260358 -3.02582 0
M  V30 11863 H 1131.25 -0.193428 -1.48143 0
M  V30 11864 H 1133.14 2.11272 -3.64612 0
M  V30 11865 H 1131.81 2.1153 -2.45024 0
M  V30 11866 H 1130.72 0.187592 -3.73629 0
M  V30 11867 H 1132.05 0.266474 -4.91478 0
M  V30 11868 N 1133.7 1.56767 -0.161869 0
M  V30 11869 C 1134.61 2.21083 0.784814 0
M  V30 11870 C 1135.63 1.19959 1.26039 0
M  V30 11871 O 1136.8 1.52588 1.31449 0
M  V30 11872 C 1133.87 2.83153 2.00063 0
M  V30 11873 C 1132.93 3.9945 1.57285 0
M  V30 11874 C 1132.16 4.5855 2.7307 0
M  V30 11875 O 1132.39 4.16534 3.89686 0
M  V30 11876 O 1131.32 5.48575 2.47688 0
M  V30 11877 H 1135.15 3.02522 0.267243 0
M  V30 11878 H 1132.73 1.49255 0.0658783 0
M  V30 11879 H 1134.61 3.22546 2.71186 0
M  V30 11880 H 1133.29 2.04718 2.50744 0
M  V30 11881 H 1132.2 3.64745 0.831393 0
M  V30 11882 H 1133.53 4.7945 1.11304 0
M  V30 11883 N 1135.18 -0.111886 1.57202 0
M  V30 11884 C 1136.46 -0.849125 1.76208 0
M  V30 11885 C 1136.84 -1.97735 0.73919 0
M  V30 11886 O 1136.19 -2.27283 -0.235523 0
M  V30 11887 C 1136.4 -1.35924 3.21443 0
M  V30 11888 C 1137.74 -1.80874 3.84148 0
M  V30 11889 O 1138.77 -1.45587 3.25089 0
M  V30 11890 O 1137.63 -2.46065 4.87969 0
M  V30 11891 H 1134.72 -0.403761 0.721738 0
M  V30 11892 H 1137.27 -0.0950726 1.69433 0
M  V30 11893 H 1136.04 -0.550113 3.87414 0
M  V30 11894 H 1135.66 -2.17579 3.32784 0
M  V30 11895 N 1136.66 -1.52894 -0.382264 0
M  V30 11896 C 1138.07 -1.60135 -0.959887 0
M  V30 11897 C 1138.42 -0.458363 -1.90771 0
M  V30 11898 O 1137.55 0.417614 -2.12332 0
M  V30 11899 C 1138.14 -2.90243 -1.74769 0
M  V30 11900 C 1136.7 -2.99874 -2.27491 0
M  V30 11901 C 1135.85 -2.55302 -1.0824 0
M  V30 11902 H 1138.8 -1.57875 -0.161589 0
M  V30 11903 H 1138.82 -2.77108 -2.60751 0
M  V30 11904 H 1138.33 -3.73412 -1.0576 0
M  V30 11905 H 1136.43 -2.21258 -2.99793 0
M  V30 11906 H 1136.54 -4.04643 -2.56516 0
M  V30 11907 H 1134.91 -2.09781 -1.44444 0
M  V30 11908 H 1135.69 -3.40872 -0.407553 0
M  V30 11909 N 1138.14 0.641106 -1.43971 0
M  V30 11910 C 1139.37 1.42622 -1.49475 0
M  V30 11911 C 1139.78 1.8885 -0.115068 0
M  V30 11912 O 1139.12 1.60846 0.887378 0
M  V30 11913 C 1139.18 2.68643 -2.38896 0
M  V30 11914 C 1138.84 2.44276 -3.86236 0
M  V30 11915 C 1139.84 2.06732 -4.7703 0
M  V30 11916 C 1137.53 2.58225 -4.30842 0
M  V30 11917 C 1139.52 1.83451 -6.1043 0
M  V30 11918 C 1137.21 2.34559 -5.64292 0
M  V30 11919 C 1138.21 1.97229 -6.53903 0
M  V30 11920 O 1137.89 1.73819 -7.84884 0
M  V30 11921 H 1137.63 0.444187 -0.509582 0
M  V30 11922 H 1140.18 0.792179 -1.89509 0
M  V30 11923 H 1138.41 3.34649 -1.93771 0
M  V30 11924 H 1140.1 3.30623 -2.35464 0
M  V30 11925 H 1140.86 1.95521 -4.43843 0
M  V30 11926 H 1136.74 2.86253 -3.61359 0
M  V30 11927 H 1140.29 1.54238 -6.80335 0
M  V30 11928 H 1136.18 2.45376 -5.97043 0
M  V30 11929 H 1136.95 1.88146 -7.96582 0
M  V30 11930 N 1139.62 1.30703 0.880598 0
M  V30 11931 C 1140.55 1.1327 1.99255 0
M  V30 11932 C 1141.56 0.0747186 1.62628 0
M  V30 11933 O 1142.75 0.321169 1.75587 0
M  V30 11934 C 1139.85 0.706179 3.31461 0
M  V30 11935 C 1139.02 1.84687 3.96497 0
M  V30 11936 C 1138.08 1.40817 5.07008 0
M  V30 11937 O 1137.11 2.1161 5.28403 0
M  V30 11938 N 1138.31 0.289619 5.79777 0
M  V30 11939 H 1141.07 2.09043 2.14759 0
M  V30 11940 H 1138.64 1.22896 1.05395 0
M  V30 11941 H 1140.63 0.395617 4.02762 0
M  V30 11942 H 1139.2 -0.159631 3.12192 0
M  V30 11943 H 1138.42 2.32531 3.18312 0
M  V30 11944 H 1139.71 2.61117 4.36687 0
M  V30 11945 H 1139.1 -0.300177 5.64903 0
M  V30 11946 H 1137.66 0.0385346 6.51789 0
M  V30 11947 N 1141.09 -1.09351 1.1349 0
M  V30 11948 C 1142.34 -1.81185 0.89535 0
M  V30 11949 C 1142.66 -1.86173 -0.580048 0
M  V30 11950 O 1141.93 -1.34784 -1.42162 0
M  V30 11951 H 1140.51 -0.671011 0.328257 0
M  V30 11952 H 1143.17 -1.32255 1.43159 0
M  V30 11953 H 1142.27 -2.84339 1.28676 0
M  V30 11954 N 1142.57 -0.928524 -1.27343 0
M  V30 11955 C 1143.8 -0.585734 -1.98436 0
M  V30 11956 C 1144.21 0.83644 -1.69261 0
M  V30 11957 O 1143.57 1.55603 -0.953626 0
M  V30 11958 C 1143.62 -0.803092 -3.52467 0
M  V30 11959 O 1143.34 -2.16932 -3.80621 0
M  V30 11960 C 1144.84 -0.469127 -4.40811 0
M  V30 11961 H 1142.06 -0.221887 -0.633251 0
M  V30 11962 H 1144.61 -1.24577 -1.62175 0
M  V30 11963 H 1142.76 -0.189846 -3.86935 0
M  V30 11964 H 1143.18 -2.21992 -4.75205 0
M  V30 11965 H 1144.65 -0.671906 -5.47895 0
M  V30 11966 H 1145.13 0.595365 -4.35146 0
M  V30 11967 H 1145.73 -1.06055 -4.11865 0
M  V30 11968 N 1144.05 1.41491 -0.694123 0
M  V30 11969 C 1145.3 2.00479 -0.221585 0
M  V30 11970 C 1145.61 1.55605 1.18518 0
M  V30 11971 O 1146.82 2.07143 1.7551 0
M  V30 11972 C 1145.27 3.5824 -0.345264 0
M  V30 11973 C 1144.88 4.12096 -1.7573 0
M  V30 11974 C 1146.63 4.24446 0.0675731 0
M  V30 11975 C 1144.53 5.62286 -1.83271 0
M  V30 11976 H 1143.46 0.749841 -0.0790854 0
M  V30 11977 H 1146.11 1.61987 -0.86211 0
M  V30 11978 H 1144.5 3.94328 0.363487 0
M  V30 11979 H 1145.67 3.8743 -2.49469 0
M  V30 11980 H 1143.98 3.58411 -2.11969 0
M  V30 11981 H 1146.58 5.34691 0.0316485 0
M  V30 11982 H 1146.92 4.01338 1.10606 0
M  V30 11983 H 1147.46 3.93388 -0.59085 0
M  V30 11984 H 1144.2 5.9022 -2.85168 0
M  V30 11985 H 1143.72 5.88883 -1.13914 0
M  V30 11986 H 1145.4 6.27033 -1.59494 0
M  V30 11987 N 1145.53 0.438773 1.51369 0
M  V30 11988 C 1146.77 -0.127401 2.02399 0
M  V30 11989 C 1147.11 -1.42235 1.32223 0
M  V30 11990 O 1146.38 -1.89513 0.437607 0
M  V30 11991 C 1146.66 -0.344673 3.58447 0
M  V30 11992 C 1146.52 0.969027 4.39238 0
M  V30 11993 C 1147.84 -1.11381 4.25773 0
M  V30 11994 H 1144.96 -0.0448281 0.735635 0
M  V30 11995 H 1147.6 0.57805 1.80993 0
M  V30 11996 H 1145.75 -0.945582 3.76817 0
M  V30 11997 H 1147.42 1.60403 4.32514 0
M  V30 11998 H 1145.66 1.57329 4.04265 0
M  V30 11999 H 1146.33 0.771029 5.46589 0
M  V30 12000 H 1148.81 -0.604785 4.11681 0
M  V30 12001 H 1147.69 -1.23459 5.34835 0
M  V30 12002 H 1147.95 -2.14225 3.8673 0
M  V30 12003 N 1147.01 -1.56678 0.170181 0
M  V30 12004 C 1147.94 -2.20916 -0.756213 0
M  V30 12005 C 1148.92 -1.16442 -1.23997 0
M  V30 12006 O 1150.1 -1.44867 -1.29333 0
M  V30 12007 C 1147.23 -2.84901 -1.98617 0
M  V30 12008 C 1146.19 -3.95403 -1.63831 0
M  V30 12009 C 1145.51 -4.46432 -2.94282 0
M  V30 12010 C 1146.81 -5.15051 -0.867195 0
M  V30 12011 H 1148.51 -2.98585 -0.220776 0
M  V30 12012 H 1146.05 -1.43619 -0.104748 0
M  V30 12013 H 1148 -3.28514 -2.63926 0
M  V30 12014 H 1146.73 -2.04598 -2.54572 0
M  V30 12015 H 1145.39 -3.52444 -1.00891 0
M  V30 12016 H 1145.04 -3.62923 -3.48276 0
M  V30 12017 H 1144.74 -5.20979 -2.71762 0
M  V30 12018 H 1146.26 -4.92731 -3.60622 0
M  V30 12019 H 1147.67 -5.55363 -1.42285 0
M  V30 12020 H 1146.07 -5.95507 -0.741065 0
M  V30 12021 H 1147.14 -4.84707 0.136693 0
M  V30 12022 N 1148.48 0.103547 -1.57259 0
M  V30 12023 C 1149.45 1.11039 -2.00507 0
M  V30 12024 C 1150.45 1.33432 -0.897361 0
M  V30 12025 O 1151.64 1.29688 -1.16304 0
M  V30 12026 C 1148.77 2.46144 -2.35851 0
M  V30 12027 H 1149.96 0.738332 -2.90669 0
M  V30 12028 H 1147.51 0.348334 -1.52369 0
M  V30 12029 H 1148.25 2.88242 -1.48617 0
M  V30 12030 H 1148.03 2.31241 -3.16654 0
M  V30 12031 H 1149.52 3.18577 -2.69997 0
M  V30 12032 N 1149.96 1.53094 0.37415 0
M  V30 12033 C 1151.19 1.72758 1.13852 0
M  V30 12034 C 1151.6 0.452638 1.83294 0
M  V30 12035 O 1150.96 -0.573906 1.73241 0
M  V30 12036 C 1151.01 2.88724 2.17534 0
M  V30 12037 O 1150.73 4.11284 1.5092 0
M  V30 12038 C 1152.23 3.2019 3.06584 0
M  V30 12039 H 1149.45 0.578028 0.340771 0
M  V30 12040 H 1152 1.99805 0.435683 0
M  V30 12041 H 1150.15 2.64096 2.83429 0
M  V30 12042 H 1150.57 4.76162 2.19932 0
M  V30 12043 H 1152.04 4.04759 3.75332 0
M  V30 12044 H 1152.52 2.35193 3.70919 0
M  V30 12045 H 1153.12 3.46712 2.46315 0
M  V30 12046 N 1151.44 -0.633461 1.44309 0
M  V30 12047 C 1152.69 -1.39513 1.47187 0
M  V30 12048 C 1153.02 -1.93926 0.103186 0
M  V30 12049 O 1152.29 -1.73512 -0.878853 0
M  V30 12050 C 1152.58 -2.56213 2.53036 0
M  V30 12051 C 1152.43 -2.07164 3.99253 0
M  V30 12052 C 1153.75 -3.58403 2.55412 0
M  V30 12053 H 1150.87 -0.505936 0.535908 0
M  V30 12054 H 1153.51 -0.716445 1.75975 0
M  V30 12055 H 1151.66 -3.14111 2.28619 0
M  V30 12056 H 1153.33 -1.54115 4.34795 0
M  V30 12057 H 1151.57 -1.38367 4.11141 0
M  V30 12058 H 1152.25 -2.91172 4.6896 0
M  V30 12059 H 1154.72 -3.103 2.77224 0
M  V30 12060 H 1153.6 -4.37581 3.31382 0
M  V30 12061 H 1153.86 -4.12316 1.59523 0
M  V30 12062 N 1152.92 -1.31168 -0.873655 0
M  V30 12063 C 1153.87 -1.18507 -1.98052 0
M  V30 12064 C 1154.84 -0.0717583 -1.65945 0
M  V30 12065 O 1156.02 -0.243965 -1.89234 0
M  V30 12066 C 1153.16 -0.894571 -3.33304 0
M  V30 12067 C 1152.27 -2.09086 -3.7803 0
M  V30 12068 C 1151.41 -1.73747 -5.01982 0
M  V30 12069 C 1150.45 -2.89805 -5.39147 0
M  V30 12070 N 1149.58 -2.54686 -6.54278 0
M  V30 12071 H 1154.42 -2.13193 -2.08213 0
M  V30 12072 H 1151.96 -1.06056 -1.01934 0
M  V30 12073 H 1153.92 -0.706714 -4.11171 0
M  V30 12074 H 1152.55 0.0154449 -3.22796 0
M  V30 12075 H 1151.6 -2.38961 -2.95976 0
M  V30 12076 H 1152.91 -2.95963 -4.01506 0
M  V30 12077 H 1152.07 -1.51402 -5.87505 0
M  V30 12078 H 1150.81 -0.840553 -4.80402 0
M  V30 12079 H 1149.81 -3.12803 -4.52144 0
M  V30 12080 H 1151.04 -3.802 -5.62694 0
M  V30 12081 H 1148.98 -1.67513 -6.34252 0
M  V30 12082 H 1148.9 -3.35093 -6.77679 0
M  V30 12083 H 1150.17 -2.35725 -7.43003 0
M  V30 12084 N 1154.4 1.08748 -1.14068 0
M  V30 12085 C 1155.64 1.80707 -0.904947 0
M  V30 12086 C 1155.97 1.86478 0.570167 0
M  V30 12087 O 1155.24 1.35536 1.41445 0
M  V30 12088 H 1153.82 0.669261 -0.331811 0
M  V30 12089 H 1156.48 1.31494 -1.43859 0
M  V30 12090 H 1155.57 2.83653 -1.30182 0
M  V30 12091 N 1155.87 0.935264 1.26849 0
M  V30 12092 C 1157.15 0.497797 1.8916 0
M  V30 12093 C 1157.53 -1.02441 1.84578 0
M  V30 12094 O 1156.88 -1.88185 1.29609 0
M  V30 12095 C 1157.09 1.05244 3.32753 0
M  V30 12096 C 1158.44 1.11751 4.0963 0
M  V30 12097 O 1159.46 1.0026 3.41799 0
M  V30 12098 O 1158.32 1.29548 5.30923 0
M  V30 12099 H 1155.41 0.161322 0.811113 0
M  V30 12100 H 1157.96 1.02744 1.35062 0
M  V30 12101 H 1156.73 2.09617 3.30419 0
M  V30 12102 H 1156.36 0.504889 3.94381 0
M  V30 12103 N 1157.35 -1.41121 0.701616 0
M  V30 12104 C 1158.6 -2.01428 0.235495 0
M  V30 12105 C 1158.93 -1.55463 -1.16382 0
M  V30 12106 O 1158.21 -0.768477 -1.78675 0
M  V30 12107 C 1158.49 -3.58849 0.299919 0
M  V30 12108 C 1158.34 -4.14924 1.73661 0
M  V30 12109 C 1159.66 -4.38809 -0.336856 0
M  V30 12110 H 1156.78 -0.731842 0.0870456 0
M  V30 12111 H 1159.42 -1.67787 0.891479 0
M  V30 12112 H 1157.57 -3.87638 -0.258611 0
M  V30 12113 H 1159.24 -3.96987 2.34945 0
M  V30 12114 H 1157.49 -3.69738 2.26884 0
M  V30 12115 H 1158.16 -5.24085 1.73318 0
M  V30 12116 H 1160.63 -4.15868 0.138886 0
M  V30 12117 H 1159.51 -5.48278 -0.261264 0
M  V30 12118 H 1159.77 -4.18728 -1.41843 0
M  V30 12119 N 1158.83 -0.446794 -1.51134 0
M  V30 12120 C 1159.78 0.378002 -2.24845 0
M  V30 12121 C 1160.76 0.982126 -1.27448 0
M  V30 12122 O 1161.96 0.8987 -1.52487 0
M  V30 12123 C 1159.09 1.4733 -3.10079 0
M  V30 12124 C 1158.17 0.878102 -4.1491 0
M  V30 12125 N 1158.56 0.0129452 -5.05798 0
M  V30 12126 C 1156.86 1.14468 -4.3106 0
M  V30 12127 C 1157.56 -0.322333 -5.80806 0
M  V30 12128 N 1156.54 0.296438 -5.42791 0
M  V30 12129 H 1160.34 -0.28885 -2.92477 0
M  V30 12130 H 1157.85 -0.259439 -1.60314 0
M  V30 12131 H 1159.85 2.07713 -3.6147 0
M  V30 12132 H 1158.51 2.14239 -2.43992 0
M  V30 12133 H 1159.52 -0.354177 -5.16688 0
M  V30 12134 H 1156.2 1.81056 -3.76198 0
M  V30 12135 H 1157.59 -1.02693 -6.64006 0
M  V30 12136 N 1160.31 1.56586 -0.178487 0
M  V30 12137 C 1161.59 1.88798 0.511356 0
M  V30 12138 C 1161.97 1.08949 1.80813 0
M  V30 12139 O 1161.31 0.185551 2.27745 0
M  V30 12140 C 1161.52 3.40927 0.746298 0
M  V30 12141 C 1162.87 4.10816 1.0731 0
M  V30 12142 O 1163.9 3.46285 0.834592 0
M  V30 12143 O 1162.75 5.24837 1.52343 0
M  V30 12144 H 1159.85 0.783574 0.264463 0
M  V30 12145 H 1162.39 1.68301 -0.21746 0
M  V30 12146 H 1161.17 3.9093 -0.17015 0
M  V30 12147 H 1160.79 3.67059 1.52817 0
M  V30 12148 N 1161.79 -0.095206 1.57312 0
M  V30 12149 C 1163.04 -0.797417 1.85268 0
M  V30 12150 C 1163.35 -1.79903 0.767733 0
M  V30 12151 O 1164.55 -2.54914 0.934409 0
M  V30 12152 C 1163.01 -1.469 3.28555 0
M  V30 12153 C 1162.62 -0.507152 4.4512 0
M  V30 12154 C 1164.36 -2.15494 3.65735 0
M  V30 12155 C 1162.27 -1.18331 5.79441 0
M  V30 12156 H 1161.2 -0.301552 0.691074 0
M  V30 12157 H 1163.85 -0.0503584 1.83431 0
M  V30 12158 H 1162.23 -2.26351 3.24933 0
M  V30 12159 H 1163.41 0.255858 4.60089 0
M  V30 12160 H 1161.72 0.0730882 4.16336 0
M  V30 12161 H 1164.32 -2.66816 4.63371 0
M  V30 12162 H 1164.66 -2.94383 2.94354 0
M  V30 12163 H 1165.19 -1.42903 3.71246 0
M  V30 12164 H 1161.93 -0.435238 6.54053 0
M  V30 12165 H 1161.45 -1.91775 5.68315 0
M  V30 12166 H 1163.13 -1.70983 6.23998 0
M  V30 12167 N 1163.26 -1.53291 -0.366026 0
M  V30 12168 C 1164.51 -1.69117 -1.10653 0
M  V30 12169 C 1164.83 -0.445327 -1.89847 0
M  V30 12170 O 1164.1 0.540616 -1.88293 0
M  V30 12171 H 1162.68 -0.623446 -0.41149 0
M  V30 12172 H 1165.35 -1.90479 -0.412749 0
M  V30 12173 H 1164.44 -2.55205 -1.79658 0
M  V30 12174 N 1164.74 0.6258 -1.44643 0
M  V30 12175 C 1165.69 1.73751 -1.51919 0
M  V30 12176 C 1166.66 1.62007 -0.36647 0
M  V30 12177 O 1167.84 1.81852 -0.577439 0
M  V30 12178 C 1164.98 3.12015 -1.47448 0
M  V30 12179 C 1164.1 3.34696 -2.73135 0
M  V30 12180 C 1163.23 4.62962 -2.6046 0
M  V30 12181 C 1162.27 4.7884 -3.81286 0
M  V30 12182 N 1161.41 5.98388 -3.67255 0
M  V30 12183 H 1166.25 1.66867 -2.46899 0
M  V30 12184 H 1163.79 0.813921 -1.22531 0
M  V30 12185 H 1165.74 3.91983 -1.42846 0
M  V30 12186 H 1164.37 3.179 -0.560312 0
M  V30 12187 H 1163.43 2.4863 -2.87901 0
M  V30 12188 H 1164.74 3.42306 -3.62806 0
M  V30 12189 H 1163.89 5.51099 -2.53722 0
M  V30 12190 H 1162.63 4.57719 -1.68359 0
M  V30 12191 H 1161.64 3.89131 -3.88403 0
M  V30 12192 H 1162.86 4.85893 -4.74431 0
M  V30 12193 H 1160.81 5.94224 -2.77909 0
M  V30 12194 H 1160.72 6.07078 -4.50547 0
M  V30 12195 H 1161.99 6.89072 -3.64417 0
M  V30 12196 N 1166.22 1.31629 0.866686 0
M  V30 12197 C 1167.17 1.19492 1.99561 0
M  V30 12198 C 1168.16 0.102456 1.6909 0
M  V30 12199 O 1169.37 0.264571 1.78045 0
M  V30 12200 H 1165.74 0.370071 0.654638 0
M  V30 12201 H 1167.71 2.14996 2.06928 0
M  V30 12202 C 1166.46 0.92246 3.3524 0
M  V30 12203 H 1165.79 1.75524 3.59209 0
M  V30 12204 H 1167.23 0.877726 4.14816 0
M  V30 12205 C 1165.69 -0.374803 3.34809 0
M  V30 12206 O 1166.22 -1.39055 3.76864 0
M  V30 12207 N 1164.42 -0.392506 2.87937 0
M  V30 12208 H 1163.97 0.434591 2.53908 0
M  V30 12209 H 1163.93 -1.26038 2.88031 0
M  V30 12210 N 1167.7 -1.08142 1.14644 0
M  V30 12211 C 1168.95 -1.79959 0.910908 0
M  V30 12212 C 1169.26 -1.87296 -0.563866 0
M  V30 12213 O 1170.47 -2.55555 -0.916735 0
M  V30 12214 C 1168.92 -3.23351 1.58025 0
M  V30 12215 C 1168.53 -3.2424 3.09148 0
M  V30 12216 C 1170.28 -3.99834 1.42595 0
M  V30 12217 C 1168.18 -4.62236 3.68906 0
M  V30 12218 H 1167.11 -0.674423 0.33715 0
M  V30 12219 H 1169.76 -1.21441 1.37566 0
M  V30 12220 H 1168.15 -3.82013 1.04318 0
M  V30 12221 H 1169.32 -2.75269 3.69545 0
M  V30 12222 H 1167.63 -2.61253 3.24246 0
M  V30 12223 H 1170.23 -5.01809 1.8464 0
M  V30 12224 H 1170.57 -4.14631 0.372402 0
M  V30 12225 H 1171.11 -3.47648 1.93354 0
M  V30 12226 H 1167.85 -4.52642 4.74126 0
M  V30 12227 H 1167.37 -5.11477 3.1329 0
M  V30 12228 H 1169.05 -5.3121 3.69358 0
M  V30 12229 N 1169.18 -0.941978 -1.26351 0
M  V30 12230 C 1170.42 -0.590845 -1.94002 0
M  V30 12231 C 1170.76 0.868004 -1.73722 0
M  V30 12232 O 1170.03 1.62111 -1.07472 0
M  V30 12233 C 1170.31 -0.934901 -3.47752 0
M  V30 12234 C 1170.17 -2.44855 -3.77314 0
M  V30 12235 C 1171.49 -0.450888 -4.37784 0
M  V30 12236 H 1168.61 -0.21613 -0.704597 0
M  V30 12237 H 1171.25 -1.17634 -1.49205 0
M  V30 12238 H 1169.4 -0.436648 -3.86038 0
M  V30 12239 H 1171.07 -3.01959 -3.48738 0
M  V30 12240 H 1169.31 -2.89169 -3.23363 0
M  V30 12241 H 1169.98 -2.6398 -4.84787 0
M  V30 12242 H 1172.46 -0.878107 -4.06729 0
M  V30 12243 H 1171.34 -0.720439 -5.44152 0
M  V30 12244 H 1171.6 0.649162 -4.37308 0
M  V30 12245 N 1170.66 1.40747 -0.709091 0
M  V30 12246 C 1171.9 2.00606 -0.245324 0
M  V30 12247 C 1172.22 1.56489 1.16346 0
M  V30 12248 O 1171.49 0.801456 1.78755 0
M  V30 12249 H 1170.07 0.741833 -0.0877098 0
M  V30 12250 H 1172.74 1.72178 -0.913271 0
M  V30 12251 H 1171.83 3.10901 -0.273322 0
M  V30 12252 N 1172.13 0.454803 1.50895 0
M  V30 12253 C 1173.38 -0.105927 2.02523 0
M  V30 12254 C 1173.71 -1.40825 1.33724 0
M  V30 12255 O 1172.99 -1.89038 0.457683 0
M  V30 12256 C 1173.27 -0.306635 3.58792 0
M  V30 12257 C 1173.12 1.01556 4.38185 0
M  V30 12258 C 1174.44 -1.06858 4.2693 0
M  V30 12259 H 1171.56 -0.0370232 0.736069 0
M  V30 12260 H 1174.2 0.597215 1.8037 0
M  V30 12261 H 1172.35 -0.905563 3.77799 0
M  V30 12262 H 1174.03 1.64981 4.30789 0
M  V30 12263 H 1172.27 1.61608 4.02574 0
M  V30 12264 H 1172.94 0.828959 5.4574 0
M  V30 12265 H 1175.42 -0.561086 4.123 0
M  V30 12266 H 1174.29 -1.1778 5.36115 0
M  V30 12267 H 1174.55 -2.10111 3.8898 0
M  V30 12268 N 1173.61 -1.56489 0.186789 0
M  V30 12269 C 1174.86 -1.97634 -0.454831 0
M  V30 12270 C 1175.19 -1.07334 -1.61843 0
M  V30 12271 O 1174.47 -0.123612 -1.94107 0
M  V30 12272 C 1174.75 -3.48071 -0.922962 0
M  V30 12273 C 1174.6 -4.49149 0.241877 0
M  V30 12274 C 1175.92 -4.01994 -1.79134 0
M  V30 12275 H 1173.04 -0.718555 -0.163854 0
M  V30 12276 H 1175.68 -1.87984 0.27604 0
M  V30 12277 H 1173.83 -3.56425 -1.54575 0
M  V30 12278 H 1175.5 -4.52841 0.87936 0
M  V30 12279 H 1173.75 -4.24468 0.894964 0
M  V30 12280 H 1174.42 -5.51851 -0.128051 0
M  V30 12281 H 1176.89 -3.96367 -1.26618 0
M  V30 12282 H 1175.77 -5.07641 -2.08787 0
M  V30 12283 H 1176.03 -3.46747 -2.74261 0
M  V30 12284 N 1175.09 0.086862 -1.5736 0
M  V30 12285 C 1176.02 1.10538 -2.05678 0
M  V30 12286 C 1177 1.41281 -0.947293 0
M  V30 12287 O 1178.19 1.51169 -1.21908 0
M  V30 12288 C 1175.32 2.42302 -2.48812 0
M  V30 12289 C 1174.27 2.25948 -3.63499 0
M  V30 12290 C 1173.6 3.62961 -3.92637 0
M  V30 12291 C 1174.9 1.69319 -4.94094 0
M  V30 12292 H 1176.59 0.703371 -2.91021 0
M  V30 12293 H 1174.14 0.336895 -1.40004 0
M  V30 12294 H 1176.09 3.13833 -2.81224 0
M  V30 12295 H 1174.81 2.84454 -1.60479 0
M  V30 12296 H 1173.47 1.5686 -3.31347 0
M  V30 12297 H 1173.12 4.02656 -3.01459 0
M  V30 12298 H 1172.82 3.52862 -4.69853 0
M  V30 12299 H 1174.34 4.35946 -4.27531 0
M  V30 12300 H 1175.76 2.30699 -5.24834 0
M  V30 12301 H 1174.15 1.69957 -5.7553 0
M  V30 12302 H 1175.22 0.653318 -4.80479 0
M  V30 12303 N 1176.57 1.53483 0.357892 0
M  V30 12304 C 1177.82 1.69701 1.09754 0
M  V30 12305 C 1178.14 0.455389 1.89608 0
M  V30 12306 O 1177.41 -0.530623 1.88577 0
M  V30 12307 H 1175.99 0.62562 0.408178 0
M  V30 12308 H 1178.65 1.90696 0.402641 0
M  V30 12309 H 1177.74 2.56154 1.78302 0
M  V30 12310 N 1178.05 -0.61812 1.44973 0
M  V30 12311 C 1179.29 -1.38882 1.4997 0
M  V30 12312 C 1179.65 -1.91533 0.133841 0
M  V30 12313 O 1180.85 -2.68736 0.0585012 0
M  V30 12314 C 1179.12 -2.5136 2.54073 0
M  V30 12315 S 1180.68 -3.39324 2.78216 0
M  V30 12316 H 1177.5 -0.473631 0.530278 0
M  V30 12317 H 1180.1 -0.714299 1.81984 0
M  V30 12318 H 1178.8 -2.11012 3.51997 0
M  V30 12319 H 1178.34 -3.23625 2.23675 0
M  V30 12320 H 1180.35 -4.49198 2.10797 0
M  V30 12321 N 1179.52 -1.32087 -0.859693 0
M  V30 12322 C 1180.47 -1.20549 -1.98924 0
M  V30 12323 C 1181.47 -0.111422 -1.69033 0
M  V30 12324 O 1182.67 -0.27401 -1.77902 0
M  V30 12325 H 1179.05 -0.373538 -0.652667 0
M  V30 12326 H 1181.02 -2.16091 -2.05785 0
M  V30 12327 C 1179.77 -0.940226 -3.34746 0
M  V30 12328 H 1179.09 -1.77427 -3.58273 0
M  V30 12329 H 1180.53 -0.899712 -4.14344 0
M  V30 12330 C 1178.99 0.357042 -3.35003 0
M  V30 12331 O 1179.52 1.37054 -3.77596 0
M  V30 12332 N 1177.72 0.37723 -2.88141 0
M  V30 12333 H 1177.27 -0.448051 -2.53674 0
M  V30 12334 H 1177.23 1.24509 -2.88695 0
M  V30 12335 N 1181 1.07532 -1.15215 0
M  V30 12336 C 1181.95 2.16785 -0.843022 0
M  V30 12337 C 1182.94 1.68411 0.182802 0
M  V30 12338 O 1184.15 1.7996 0.0380164 0
M  V30 12339 H 1180.52 0.707465 -0.254945 0
M  V30 12340 H 1182.5 2.40078 -1.77215 0
M  V30 12341 C 1181.24 3.45967 -0.346699 0
M  V30 12342 H 1180.57 3.83574 -1.12744 0
M  V30 12343 H 1182.01 4.23663 -0.169039 0
M  V30 12344 C 1180.47 3.23768 0.931437 0
M  V30 12345 O 1181 3.48179 2.00336 0
M  V30 12346 N 1179.2 2.77264 0.870217 0
M  V30 12347 H 1178.75 2.576 -0.00226223 0
M  V30 12348 H 1178.71 2.6279 1.72594 0
M  V30 12349 N 1182.48 0.948665 1.2585 0
M  V30 12350 C 1183.73 0.600236 1.934 0
M  V30 12351 C 1184.06 -0.86185 1.74363 0
M  V30 12352 O 1183.31 -1.63294 1.07858 0
M  V30 12353 C 1183.61 0.89784 3.45939 0
M  V30 12354 C 1183.28 2.345 3.85124 0
M  V30 12355 C 1181.94 2.74058 3.95532 0
M  V30 12356 C 1184.29 3.2851 4.04636 0
M  V30 12357 C 1181.62 4.06707 4.22855 0
M  V30 12358 C 1183.97 4.60764 4.3345 0
M  V30 12359 C 1182.63 5.00127 4.42074 0
M  V30 12360 H 1181.9 0.219642 0.707699 0
M  V30 12361 H 1184.55 1.19658 1.49513 0
M  V30 12362 H 1182.86 0.219037 3.91187 0
M  V30 12363 H 1184.55 0.606916 3.96381 0
M  V30 12364 H 1181.14 2.02819 3.77574 0
M  V30 12365 H 1185.33 2.99141 3.96015 0
M  V30 12366 H 1180.58 4.36856 4.27746 0
M  V30 12367 H 1184.76 5.33594 4.47493 0
M  V30 12368 H 1182.38 6.02939 4.63 0
M  V30 12369 N 1183.96 -1.40369 0.716545 0
M  V30 12370 C 1185.37 -1.54757 0.390202 0
M  V30 12371 C 1185.57 -1.68767 -1.10091 0
M  V30 12372 O 1184.63 -1.67779 -1.88697 0
M  V30 12373 C 1185.94 -2.77546 1.15709 0
M  V30 12374 C 1187.49 -2.91364 1.14349 0
M  V30 12375 C 1187.97 -4.17068 1.89256 0
M  V30 12376 N 1189.46 -4.2407 1.8633 0
M  V30 12377 C 1190.19 -5.20243 2.41112 0
M  V30 12378 N 1189.69 -6.22318 3.04454 0
M  V30 12379 N 1191.48 -5.12328 2.31249 0
M  V30 12380 H 1183.63 -1.29521 1.68339 0
M  V30 12381 H 1185.9 -0.626382 0.711582 0
M  V30 12382 H 1185.6 -2.73474 2.21144 0
M  V30 12383 H 1185.48 -3.69682 0.749347 0
M  V30 12384 H 1187.86 -2.94939 0.0973383 0
M  V30 12385 H 1187.94 -2.00344 1.59047 0
M  V30 12386 H 1187.59 -4.14255 2.93863 0
M  V30 12387 H 1187.52 -5.07099 1.41978 0
M  V30 12388 H 1190.01 -3.50944 1.40168 0
M  V30 12389 H 1190.32 -6.92129 3.43769 0
M  V30 12390 H 1188.67 -6.22759 3.08538 0
M  V30 12391 H 1191.86 -4.31514 1.8142 0
M  V30 12392 H 1192.03 -5.87107 2.74243 0
M  V30 12393 N 1185.44 -0.462799 -1.50652 0
M  V30 12394 C 1186.68 0.0951853 -2.02576 0
M  V30 12395 C 1187.02 1.40113 -1.34469 0
M  V30 12396 O 1186.29 1.88793 -0.467702 0
M  V30 12397 C 1186.57 0.287603 -3.5895 0
M  V30 12398 C 1186.43 -1.03878 -4.37641 0
M  V30 12399 C 1187.75 1.04593 -4.27491 0
M  V30 12400 H 1184.86 0.0331191 -0.736255 0
M  V30 12401 H 1187.51 -0.606772 -1.80051 0
M  V30 12402 H 1185.66 0.885514 -3.78274 0
M  V30 12403 H 1187.33 -1.67263 -4.29908 0
M  V30 12404 H 1185.57 -1.6374 -4.01711 0
M  V30 12405 H 1186.24 -0.857889 -5.45293 0
M  V30 12406 H 1188.72 0.539213 -4.12591 0
M  V30 12407 H 1187.59 1.14935 -5.36732 0
M  V30 12408 H 1187.86 2.08045 -3.90089 0
M  V30 12409 N 1186.91 1.56388 -0.195085 0
M  V30 12410 C 1188.16 1.96755 0.443901 0
M  V30 12411 C 1188.48 1.08483 1.6276 0
M  V30 12412 O 1189.68 1.38632 2.33438 0
M  V30 12413 C 1188.14 3.49933 0.841139 0
M  V30 12414 C 1187.75 4.46868 -0.318275 0
M  V30 12415 C 1189.49 3.99069 1.44721 0
M  V30 12416 C 1187.4 5.91316 0.0999211 0
M  V30 12417 H 1186.33 0.734674 0.169616 0
M  V30 12418 H 1188.98 1.8124 -0.287101 0
M  V30 12419 H 1187.36 3.60951 1.62881 0
M  V30 12420 H 1188.53 4.47581 -1.0958 0
M  V30 12421 H 1186.85 4.07925 -0.835842 0
M  V30 12422 H 1189.45 5.04465 1.77255 0
M  V30 12423 H 1189.79 3.43376 2.35369 0
M  V30 12424 H 1190.32 3.91165 0.723513 0
M  V30 12425 H 1187.06 6.50934 -0.77237 0
M  V30 12426 H 1186.58 5.93856 0.842304 0
M  V30 12427 H 1188.26 6.44778 0.535726 0
M  V30 12428 N 1188.39 -0.0785156 1.57404 0
M  V30 12429 C 1189.67 -0.811557 1.77969 0
M  V30 12430 C 1190.05 -1.96123 0.780966 0
M  V30 12431 O 1189.4 -2.27731 -0.18726 0
M  V30 12432 C 1189.61 -1.29075 3.24254 0
M  V30 12433 C 1190.96 -1.72685 3.87898 0
M  V30 12434 O 1191.98 -1.38658 3.28104 0
M  V30 12435 O 1190.84 -2.3566 4.93079 0
M  V30 12436 H 1187.93 -0.388361 0.73014 0
M  V30 12437 H 1190.48 -0.0591118 1.69597 0
M  V30 12438 H 1189.25 -0.467813 3.88494 0
M  V30 12439 H 1188.87 -2.10472 3.37324 0
M  V30 12440 N 1189.87 -1.5367 -0.349747 0
M  V30 12441 C 1190.8 -1.84208 -1.43492 0
M  V30 12442 C 1191.78 -0.696725 -1.55177 0
M  V30 12443 O 1192.97 -0.948061 -1.69486 0
M  V30 12444 C 1190.1 -2.04613 -2.80625 0
M  V30 12445 C 1189.05 -3.20419 -2.83753 0
M  V30 12446 C 1188.38 -3.26147 -4.23713 0
M  V30 12447 C 1189.68 -4.58666 -2.49846 0
M  V30 12448 H 1191.37 -2.75087 -1.18185 0
M  V30 12449 H 1188.92 -1.32363 -0.567101 0
M  V30 12450 H 1190.87 -2.2456 -3.56582 0
M  V30 12451 H 1189.59 -1.10459 -3.07354 0
M  V30 12452 H 1188.25 -3.00318 -2.10249 0
M  V30 12453 H 1187.9 -2.29599 -4.47541 0
M  V30 12454 H 1187.6 -4.03963 -4.26717 0
M  V30 12455 H 1189.12 -3.48296 -5.0152 0
M  V30 12456 H 1190.54 -4.78668 -3.15516 0
M  V30 12457 H 1188.94 -5.3884 -2.64144 0
M  V30 12458 H 1190.01 -4.62697 -1.4505 0
M  V30 12459 N 1191.35 0.610423 -1.45298 0
M  V30 12460 C 1192.6 1.3668 -1.48872 0
M  V30 12461 C 1192.92 1.94562 -0.130686 0
M  V30 12462 O 1192.19 1.76996 0.839607 0
M  V30 12463 H 1190.77 0.507393 -0.548235 0
M  V30 12464 H 1193.43 0.716997 -1.81232 0
M  V30 12465 H 1192.53 2.18766 -2.22593 0
M  V30 12466 N 1192.83 1.32541 0.852676 0
M  V30 12467 C 1194.07 1.23397 1.60938 0
M  V30 12468 C 1194.41 -0.203294 1.93133 0
M  V30 12469 O 1193.68 -1.14097 1.57519 0
M  V30 12470 C 1193.96 2.0956 2.92842 0
M  V30 12471 C 1193.82 3.61675 2.67416 0
M  V30 12472 C 1195.14 1.95825 3.94133 0
M  V30 12473 H 1192.25 0.449608 0.583971 0
M  V30 12474 H 1194.9 1.62507 0.98446 0
M  V30 12475 H 1193.05 1.76336 3.46176 0
M  V30 12476 H 1194.72 4.05122 2.20621 0
M  V30 12477 H 1192.96 3.84242 2.01347 0
M  V30 12478 H 1193.63 4.17292 3.61347 0
M  V30 12479 H 1196.11 2.24935 3.50062 0
M  V30 12480 H 1194.98 2.58387 4.8428 0
M  V30 12481 H 1195.25 0.926466 4.32284 0
M  V30 12482 N 1194.3 -1.0692 1.15784 0
M  V30 12483 C 1195.24 -2.13637 0.802141 0
M  V30 12484 C 1196.22 -1.61058 -0.223384 0
M  V30 12485 O 1197.4 -1.88185 -0.108927 0
M  V30 12486 C 1194.53 -3.38146 0.193568 0
M  V30 12487 C 1193.57 -4.09513 1.19169 0
M  V30 12488 S 1194.41 -4.60351 2.73564 0
M  V30 12489 C 1195.56 -5.88129 2.14138 0
M  V30 12490 H 1195.79 -2.4348 1.70601 0
M  V30 12491 H 1193.33 -1.19259 0.980646 0
M  V30 12492 H 1195.29 -4.10222 -0.151106 0
M  V30 12493 H 1193.95 -3.06473 -0.687968 0
M  V30 12494 H 1193.14 -4.98914 0.714183 0
M  V30 12495 H 1192.74 -3.43422 1.48113 0
M  V30 12496 H 1195.03 -6.60547 1.50614 0
M  V30 12497 H 1195.98 -6.406 3.01724 0
M  V30 12498 H 1196.38 -5.41859 1.5827 0
M  V30 12499 N 1195.78 -0.955326 -1.25345 0
M  V30 12500 C 1197.01 -0.627693 -1.97149 0
M  V30 12501 C 1197.43 0.800349 -1.70997 0
M  V30 12502 O 1196.78 1.53545 -0.986417 0
M  V30 12503 C 1196.83 -0.877675 -3.50684 0
M  V30 12504 O 1196.55 -2.24957 -3.75934 0
M  V30 12505 C 1198.06 -0.562524 -4.39716 0
M  V30 12506 H 1195.28 -0.235269 -0.628402 0
M  V30 12507 H 1197.82 -1.27989 -1.59496 0
M  V30 12508 H 1195.97 -0.271878 -3.86445 0
M  V30 12509 H 1196.39 -2.32022 -4.70389 0
M  V30 12510 H 1197.86 -0.787972 -5.46347 0
M  V30 12511 H 1198.34 0.50293 -4.36311 0
M  V30 12512 H 1198.95 -1.14767 -4.09522 0
M  V30 12513 N 1197.26 1.39987 -0.723979 0
M  V30 12514 C 1198.67 1.83606 -0.338461 0
M  V30 12515 C 1199.02 1.6051 1.12831 0
M  V30 12516 O 1198.15 1.09041 1.8692 0
M  V30 12517 C 1198.74 3.33308 -0.607533 0
M  V30 12518 C 1197.3 3.75389 -0.275632 0
M  V30 12519 C 1196.45 2.6311 -0.875699 0
M  V30 12520 H 1199.4 1.29135 -0.922483 0
M  V30 12521 H 1199.42 3.80297 0.124424 0
M  V30 12522 H 1198.93 3.50087 -1.67514 0
M  V30 12523 H 1197.03 3.64203 0.786579 0
M  V30 12524 H 1197.15 4.73185 -0.750492 0
M  V30 12525 H 1195.51 2.5289 -0.303122 0
M  V30 12526 H 1196.29 2.82698 -1.94774 0
M  V30 12527 N 1198.74 0.470782 1.50404 0
M  V30 12528 C 1199.98 -0.0830648 2.04231 0
M  V30 12529 C 1200.34 -1.37015 1.34503 0
M  V30 12530 O 1201.54 -2.00635 1.78883 0
M  V30 12531 C 1199.82 -0.262986 3.56431 0
M  V30 12532 S 1201.37 -0.775432 4.31894 0
M  V30 12533 H 1198.19 -0.0161025 0.710818 0
M  V30 12534 H 1200.79 0.63785 1.84802 0
M  V30 12535 H 1199.5 0.679558 4.04735 0
M  V30 12536 H 1199.03 -1.01002 3.80213 0
M  V30 12537 H 1201.04 -2.04887 4.51924 0
M  V30 12538 N 1200.22 -1.56282 0.203376 0
M  V30 12539 C 1201.49 -1.89587 -0.481256 0
M  V30 12540 C 1201.87 -1.11812 -1.79057 0
M  V30 12541 O 1201.22 -0.221759 -2.27421 0
M  V30 12542 C 1201.43 -3.42071 -0.691965 0
M  V30 12543 C 1202.78 -4.12471 -1.00761 0
M  V30 12544 O 1203.8 -3.47568 -0.779396 0
M  V30 12545 O 1202.66 -5.27194 -1.43974 0
M  V30 12546 H 1199.76 -0.787682 -0.251963 0
M  V30 12547 H 1202.3 -1.67934 0.244207 0
M  V30 12548 H 1201.08 -3.9061 0.232322 0
M  V30 12549 H 1200.7 -3.69444 -1.46958 0
M  V30 12550 N 1201.7 0.070167 -1.57444 0
M  V30 12551 C 1202.64 1.08322 -2.03801 0
M  V30 12552 C 1203.61 1.38364 -0.918946 0
M  V30 12553 O 1204.8 1.49404 -1.18672 0
M  V30 12554 C 1201.94 2.39128 -2.48821 0
M  V30 12555 C 1201.05 2.15603 -3.74352 0
M  V30 12556 C 1200.19 3.39984 -4.08148 0
M  V30 12557 C 1199.22 3.1183 -5.26715 0
M  V30 12558 N 1198.36 4.28546 -5.56141 0
M  V30 12559 H 1203.2 0.680931 -2.90116 0
M  V30 12560 H 1200.74 0.324657 -1.43473 0
M  V30 12561 H 1202.7 3.15501 -2.72975 0
M  V30 12562 H 1201.33 2.77157 -1.65481 0
M  V30 12563 H 1200.38 1.29915 -3.57528 0
M  V30 12564 H 1201.69 1.90808 -4.60862 0
M  V30 12565 H 1200.84 4.2475 -4.33211 0
M  V30 12566 H 1199.58 3.67856 -3.20208 0
M  V30 12567 H 1198.59 2.2546 -5.01446 0
M  V30 12568 H 1199.81 2.85278 -6.16273 0
M  V30 12569 H 1197.76 4.56447 -4.71161 0
M  V30 12570 H 1197.68 4.0703 -6.37073 0
M  V30 12571 H 1198.94 5.14305 -5.85757 0
M  V30 12572 N 1203.17 1.53854 0.341593 0
M  V30 12573 C 1204.42 1.7041 1.07905 0
M  V30 12574 C 1204.74 0.475039 1.89744 0
M  V30 12575 O 1205.94 0.521589 2.66443 0
M  V30 12576 C 1204.4 3.01342 1.96776 0
M  V30 12577 C 1204.01 4.31592 1.20135 0
M  V30 12578 C 1205.75 3.27264 2.70367 0
M  V30 12579 C 1203.66 5.53598 2.08047 0
M  V30 12580 H 1202.59 0.635005 0.406553 0
M  V30 12581 H 1205.24 1.80353 0.338409 0
M  V30 12582 H 1203.62 2.85261 2.74667 0
M  V30 12583 H 1204.79 4.58382 0.471404 0
M  V30 12584 H 1203.11 4.12298 0.583039 0
M  V30 12585 H 1205.71 4.15607 3.36415 0
M  V30 12586 H 1206.05 2.44357 3.37039 0
M  V30 12587 H 1206.58 3.4413 1.99548 0
M  V30 12588 H 1203.32 6.39053 1.45914 0
M  V30 12589 H 1202.84 5.31052 2.78825 0
M  V30 12590 H 1204.52 5.89314 2.67055 0
M  V30 12591 N 1204.65 -0.602709 1.4562 0
M  V30 12592 C 1205.58 -1.72374 1.5751 0
M  V30 12593 C 1206.56 -1.64669 0.426389 0
M  V30 12594 O 1207.75 -1.82994 0.650143 0
M  V30 12595 C 1204.88 -3.10987 1.5461 0
M  V30 12596 C 1203.83 -3.33507 2.68248 0
M  V30 12597 C 1203.16 -4.72443 2.50403 0
M  V30 12598 C 1204.46 -3.23285 4.10224 0
M  V30 12599 H 1206.15 -1.62679 2.51348 0
M  V30 12600 H 1203.7 -0.781217 1.20967 0
M  V30 12601 H 1205.65 -3.89214 1.61525 0
M  V30 12602 H 1204.37 -3.21533 0.573049 0
M  V30 12603 H 1203.03 -2.57672 2.60769 0
M  V30 12604 H 1202.68 -4.79729 1.51226 0
M  V30 12605 H 1202.38 -4.88466 3.26611 0
M  V30 12606 H 1203.91 -5.52864 2.59179 0
M  V30 12607 H 1205.32 -3.91381 4.1892 0
M  V30 12608 H 1203.72 -3.50837 4.86861 0
M  V30 12609 H 1204.79 -2.20652 4.31788 0
M  V30 12610 N 1206.13 -1.32992 -0.845635 0
M  V30 12611 C 1207.08 -1.22682 -1.95494 0
M  V30 12612 C 1208.05 -0.106942 -1.65755 0
M  V30 12613 O 1209.23 -0.28405 -1.88674 0
M  V30 12614 C 1206.37 -0.965068 -3.31331 0
M  V30 12615 C 1205.48 -2.17058 -3.7351 0
M  V30 12616 C 1204.62 -1.84355 -4.98183 0
M  V30 12617 C 1203.66 -3.01176 -5.32878 0
M  V30 12618 N 1202.8 -2.68506 -6.48729 0
M  V30 12619 H 1207.64 -2.17562 -2.03644 0
M  V30 12620 H 1205.17 -1.08194 -0.996613 0
M  V30 12621 H 1207.13 -0.793771 -4.09579 0
M  V30 12622 H 1205.76 -0.0530285 -3.22756 0
M  V30 12623 H 1204.81 -2.45185 -2.90841 0
M  V30 12624 H 1206.12 -3.04413 -3.95138 0
M  V30 12625 H 1205.28 -1.6383 -5.84162 0
M  V30 12626 H 1204.02 -0.942264 -4.78511 0
M  V30 12627 H 1203.02 -3.22323 -4.45408 0
M  V30 12628 H 1204.25 -3.9205 -5.54503 0
M  V30 12629 H 1202.19 -1.80929 -6.30556 0
M  V30 12630 H 1202.11 -3.49392 -6.70419 0
M  V30 12631 H 1203.38 -2.51432 -7.37836 0
M  V30 12632 N 1207.61 1.06304 -1.1635 0
M  V30 12633 C 1208.57 2.11947 -0.872419 0
M  V30 12634 C 1209.57 1.60253 0.132534 0
M  V30 12635 O 1210.76 1.73922 -0.0983441 0
M  V30 12636 C 1207.89 3.39536 -0.304646 0
M  V30 12637 H 1209.09 2.39201 -1.80894 0
M  V30 12638 H 1206.64 1.22367 -0.972419 0
M  V30 12639 H 1207.37 3.17931 0.639565 0
M  V30 12640 H 1207.16 3.78363 -1.02878 0
M  V30 12641 H 1208.65 4.17431 -0.118936 0
M  V30 12642 N 1209.09 0.96196 1.24836 0
M  V30 12643 C 1210.05 0.492443 2.23847 0
M  V30 12644 C 1211.05 -0.40788 1.55541 0
M  V30 12645 O 1212.24 -0.204143 1.73 0
M  V30 12646 C 1209.37 -0.287578 3.39685 0
M  V30 12647 H 1210.56 1.36767 2.66899 0
M  V30 12648 H 1208.12 0.745967 1.3735 0
M  V30 12649 H 1208.85 -1.18015 3.02064 0
M  V30 12650 H 1208.64 0.358431 3.90458 0
M  V30 12651 H 1210.13 -0.605297 4.1319 0
M  V30 12652 N 1210.56 -1.39601 0.731392 0
M  V30 12653 C 1211.49 -2.33268 0.1041 0
M  V30 12654 C 1212.47 -1.53724 -0.728219 0
M  V30 12655 O 1213.66 -1.82131 -0.673933 0
M  V30 12656 C 1210.79 -3.37802 -0.806646 0
M  V30 12657 C 1209.74 -4.27928 -0.0787588 0
M  V30 12658 C 1209.07 -5.23131 -1.10628 0
M  V30 12659 C 1210.37 -5.11086 1.07651 0
M  V30 12660 H 1212.06 -2.85975 0.886496 0
M  V30 12661 H 1209.61 -1.375 0.427746 0
M  V30 12662 H 1211.56 -4.02278 -1.25499 0
M  V30 12663 H 1210.29 -2.83527 -1.62112 0
M  V30 12664 H 1208.95 -3.64926 0.349926 0
M  V30 12665 H 1208.59 -4.65152 -1.91422 0
M  V30 12666 H 1208.29 -5.84277 -0.624043 0
M  V30 12667 H 1209.82 -5.90483 -1.5544 0
M  V30 12668 H 1211.23 -5.68927 0.706781 0
M  V30 12669 H 1209.63 -5.81356 1.48814 0
M  V30 12670 H 1210.7 -4.46131 1.89988 0
M  V30 12671 N 1212.04 -0.478751 -1.50152 0
M  V30 12672 C 1213.32 0.135533 -1.9513 0
M  V30 12673 C 1213.7 1.56253 -1.41944 0
M  V30 12674 O 1213.05 2.19824 -0.623673 0
M  V30 12675 C 1213.26 0.0710037 -3.48928 0
M  V30 12676 C 1214.61 0.256075 -4.23827 0
M  V30 12677 O 1215.63 0.147234 -3.55896 0
M  V30 12678 O 1214.49 0.476741 -5.44417 0
M  V30 12679 H 1211.58 0.107491 -0.819985 0
M  V30 12680 H 1214.13 -0.539701 -1.60889 0
M  V30 12681 H 1212.9 -0.925012 -3.80209 0
M  V30 12682 H 1212.52 0.787362 -3.89726 0
M  V30 12683 N 1213.52 1.56172 -0.211661 0
M  V30 12684 C 1214.47 2.16477 0.715675 0
M  V30 12685 C 1215.45 1.11023 1.16459 0
M  V30 12686 O 1216.65 1.3704 1.12023 0
M  V30 12687 C 1213.78 2.84055 1.92789 0
M  V30 12688 C 1212.86 3.96721 1.49911 0
M  V30 12689 N 1213.25 4.99714 0.782304 0
M  V30 12690 C 1211.55 4.08628 1.78716 0
M  V30 12691 C 1212.25 5.78949 0.565043 0
M  V30 12692 N 1211.23 5.31963 1.11878 0
M  V30 12693 H 1215.03 2.93467 0.15948 0
M  V30 12694 H 1212.54 1.62395 -0.012521 0
M  V30 12695 H 1214.54 3.25662 2.60289 0
M  V30 12696 H 1213.2 2.08558 2.48865 0
M  V30 12697 H 1214.21 5.16061 0.436021 0
M  V30 12698 H 1210.89 3.44273 2.36183 0
M  V30 12699 H 1212.28 6.719 -0.00477074 0
M  V30 12700 N 1215 -0.0618163 1.57479 0
M  V30 12701 C 1215.95 -1.0724 2.04373 0
M  V30 12702 C 1216.92 -1.37875 0.926271 0
M  V30 12703 O 1218.1 -1.48772 1.19463 0
M  V30 12704 C 1215.24 -2.37805 2.50085 0
M  V30 12705 C 1214.35 -2.13614 3.7549 0
M  V30 12706 C 1213.49 -3.37814 4.09945 0
M  V30 12707 C 1212.53 -3.09032 5.28361 0
M  V30 12708 N 1211.66 -4.25591 5.58406 0
M  V30 12709 H 1216.5 -0.665536 2.90473 0
M  V30 12710 H 1214.04 -0.317043 1.43643 0
M  V30 12711 H 1216 -3.14048 2.74644 0
M  V30 12712 H 1214.63 -2.76275 1.66948 0
M  V30 12713 H 1213.68 -1.28017 3.58212 0
M  V30 12714 H 1214.99 -1.88361 4.61867 0
M  V30 12715 H 1214.15 -4.22447 4.35458 0
M  V30 12716 H 1212.89 -3.66153 3.22154 0
M  V30 12717 H 1211.89 -2.22797 5.02635 0
M  V30 12718 H 1213.12 -2.82006 6.17778 0
M  V30 12719 H 1211.06 -4.53941 4.73575 0
M  V30 12720 H 1210.98 -4.03646 6.39223 0
M  V30 12721 H 1212.25 -5.11191 5.88476 0
M  V30 12722 N 1216.48 -1.54033 -0.333429 0
M  V30 12723 C 1217.44 -1.82021 -1.39288 0
M  V30 12724 C 1218.44 -0.691623 -1.45166 0
M  V30 12725 O 1219.63 -0.959925 -1.45365 0
M  V30 12726 C 1216.76 -1.97136 -2.78119 0
M  V30 12727 H 1217.95 -2.76671 -1.1573 0
M  V30 12728 H 1215.51 -1.45599 -0.568376 0
M  V30 12729 H 1216.24 -1.04663 -3.06946 0
M  V30 12730 H 1216.03 -2.79251 -2.75247 0
M  V30 12731 H 1217.52 -2.20271 -3.54782 0
M  V30 12732 N 1217.95 0.594978 -1.45938 0
M  V30 12733 C 1219.23 1.35477 -1.41086 0
M  V30 12734 C 1219.61 2.10917 -0.0879512 0
M  V30 12735 O 1218.96 2.08704 0.930323 0
M  V30 12736 C 1219.17 2.29106 -2.63271 0
M  V30 12737 C 1220.52 2.9132 -3.08898 0
M  V30 12738 O 1221.54 2.39423 -2.63733 0
M  V30 12739 O 1220.4 3.85553 -3.87313 0
M  V30 12740 H 1217.49 0.6081 -0.560485 0
M  V30 12741 H 1220.04 0.617016 -1.58085 0
M  V30 12742 H 1218.81 1.72707 -3.51124 0
M  V30 12743 H 1218.44 3.10241 -2.48669 0
M  V30 12744 N 1219.43 1.33438 0.838571 0
M  V30 12745 C 1220.68 1.24259 1.58879 0
M  V30 12746 C 1220.99 -0.189957 1.94675 0
M  V30 12747 O 1222.2 -0.40376 2.68481 0
M  V30 12748 C 1220.66 2.1773 2.86569 0
M  V30 12749 C 1220.26 3.66156 2.58135 0
M  V30 12750 C 1222.01 2.17424 3.64591 0
M  V30 12751 C 1219.92 4.5154 3.81923 0
M  V30 12752 H 1218.85 0.461534 0.59624 0
M  V30 12753 H 1221.5 1.58504 0.924588 0
M  V30 12754 H 1219.88 1.76418 3.54532 0
M  V30 12755 H 1221.05 4.1591 1.98382 0
M  V30 12756 H 1219.37 3.68754 1.93416 0
M  V30 12757 H 1221.96 2.78446 4.56478 0
M  V30 12758 H 1222.31 1.16939 3.99539 0
M  V30 12759 H 1222.84 2.571 3.03553 0
M  V30 12760 H 1219.58 5.52902 3.52107 0
M  V30 12761 H 1219.1 4.06529 4.41015 0
M  V30 12762 H 1220.78 4.65359 4.495 0
M  V30 12763 N 1220.91 -1.05686 1.16912 0
M  V30 12764 C 1222.16 -1.77987 0.948875 0
M  V30 12765 C 1222.47 -1.8845 -0.524011 0
M  V30 12766 O 1223.68 -2.57442 -0.862322 0
M  V30 12767 C 1222.13 -3.19927 1.64848 0
M  V30 12768 C 1221.74 -3.1761 3.15956 0
M  V30 12769 C 1223.49 -3.96719 1.51044 0
M  V30 12770 C 1221.39 -4.54307 3.78628 0
M  V30 12771 H 1220.32 -0.667119 0.35138 0
M  V30 12772 H 1222.97 -1.18496 1.40111 0
M  V30 12773 H 1221.36 -3.79714 1.12397 0
M  V30 12774 H 1222.53 -2.67369 3.75301 0
M  V30 12775 H 1220.85 -2.54317 3.29715 0
M  V30 12776 H 1223.44 -4.97779 1.95243 0
M  V30 12777 H 1223.79 -4.13748 0.460268 0
M  V30 12778 H 1224.32 -3.43468 2.00685 0
M  V30 12779 H 1221.06 -4.42484 4.8362 0
M  V30 12780 H 1220.58 -5.04717 3.24069 0
M  V30 12781 H 1222.26 -5.23255 3.80543 0
M  V30 12782 N 1222.39 -0.968567 -1.24324 0
M  V30 12783 C 1223.64 -0.629682 -1.9204 0
M  V30 12784 C 1223.96 0.837906 -1.7608 0
M  V30 12785 O 1223.23 1.5982 -1.13289 0
M  V30 12786 H 1221.81 -0.229901 -0.710742 0
M  V30 12787 H 1224.47 -1.22982 -1.512 0
M  V30 12788 H 1223.57 -0.871034 -2.99699 0
M  V30 12789 N 1223.87 1.39211 -0.738786 0
M  V30 12790 C 1224.8 2.33209 -0.11647 0
M  V30 12791 C 1225.78 1.54108 0.720056 0
M  V30 12792 O 1226.96 1.82486 0.664264 0
M  V30 12793 C 1224.09 3.38226 0.78872 0
M  V30 12794 C 1223.05 4.27963 0.0560636 0
M  V30 12795 C 1222.37 5.2371 1.07852 0
M  V30 12796 C 1223.67 5.10508 -1.1036 0
M  V30 12797 H 1225.37 2.85501 -0.901649 0
M  V30 12798 H 1222.91 1.37272 -0.435032 0
M  V30 12799 H 1224.87 4.02938 1.23364 0
M  V30 12800 H 1223.59 2.84382 1.60606 0
M  V30 12801 H 1222.25 3.64735 -0.369274 0
M  V30 12802 H 1221.9 4.66161 1.88953 0
M  V30 12803 H 1221.6 5.846 0.593048 0
M  V30 12804 H 1223.12 5.91299 1.52307 0
M  V30 12805 H 1224.53 5.68544 -0.736943 0
M  V30 12806 H 1222.93 5.80558 -1.51895 0
M  V30 12807 H 1224 4.45117 -1.92352 0
M  V30 12808 N 1225.34 0.486708 1.49896 0
M  V30 12809 C 1226.57 -0.0622999 2.07306 0
M  V30 12810 C 1226.99 -1.31353 1.3464 0
M  V30 12811 O 1226.35 -1.76861 0.398752 0
M  V30 12812 C 1226.4 -0.313481 3.59235 0
M  V30 12813 O 1225.5 -1.39101 3.88233 0
M  V30 12814 H 1224.85 0.0198885 0.663702 0
M  V30 12815 H 1227.38 0.682232 1.92891 0
M  V30 12816 H 1227.39 -0.549302 4.04285 0
M  V30 12817 H 1226.06 0.600767 4.11538 0
M  V30 12818 H 1224.64 -1.14127 3.55006 0
M  V30 12819 N 1226.82 -1.56058 0.219941 0
M  V30 12820 C 1228.07 -1.97869 -0.411383 0
M  V30 12821 C 1228.39 -1.10878 -1.60409 0
M  V30 12822 O 1227.66 -0.185454 -1.9502 0
M  V30 12823 H 1226.24 -0.730747 -0.154979 0
M  V30 12824 H 1228.9 -1.92379 0.312461 0
M  V30 12825 H 1228 -3.0323 -0.738798 0
M  V30 12826 N 1228.3 0.053464 -1.57509 0
M  V30 12827 C 1229.23 1.06151 -2.07977 0
M  V30 12828 C 1230.21 1.3924 -0.977047 0
M  V30 12829 O 1231.4 1.48549 -1.25087 0
M  V30 12830 C 1228.53 2.36969 -2.53895 0
M  V30 12831 C 1227.48 2.18186 -3.6821 0
M  V30 12832 C 1226.81 3.54551 -4.00247 0
M  V30 12833 C 1228.11 1.588 -4.97574 0
M  V30 12834 H 1229.8 0.641483 -2.92447 0
M  V30 12835 H 1227.35 0.307122 -1.40687 0
M  V30 12836 H 1229.3 3.07797 -2.87817 0
M  V30 12837 H 1228.02 2.80986 -1.66476 0
M  V30 12838 H 1226.68 1.49796 -3.34599 0
M  V30 12839 H 1226.33 3.96171 -3.09932 0
M  V30 12840 H 1226.03 3.42816 -4.77232 0
M  V30 12841 H 1227.56 4.2678 -4.36682 0
M  V30 12842 H 1228.97 2.19515 -5.29609 0
M  V30 12843 H 1227.37 1.57711 -5.79006 0
M  V30 12844 H 1228.44 0.551254 -4.81756 0
M  V30 12845 N 1229.78 1.54207 0.325255 0
M  V30 12846 C 1231.03 1.71544 1.06091 0
M  V30 12847 C 1231.34 0.495137 1.89229 0
M  V30 12848 O 1232.55 0.54982 2.65874 0
M  V30 12849 C 1231 3.03412 1.93569 0
M  V30 12850 C 1230.61 4.32842 1.1555 0
M  V30 12851 C 1232.36 3.30113 2.66881 0
M  V30 12852 C 1230.26 5.55773 2.02164 0
M  V30 12853 H 1229.19 0.639281 0.399795 0
M  V30 12854 H 1231.84 1.80701 0.319261 0
M  V30 12855 H 1230.23 2.88158 2.71626 0
M  V30 12856 H 1231.4 4.58857 0.42276 0
M  V30 12857 H 1229.71 4.12893 0.539277 0
M  V30 12858 H 1232.31 4.19151 3.31988 0
M  V30 12859 H 1232.65 2.47918 3.34428 0
M  V30 12860 H 1233.19 3.46227 1.95887 0
M  V30 12861 H 1229.93 6.40565 1.39128 0
M  V30 12862 H 1229.45 5.3398 2.73177 0
M  V30 12863 H 1231.13 5.92113 2.60789 0
M  V30 12864 N 1231.26 -0.58723 1.46251 0
M  V30 12865 C 1232.49 -1.37174 1.5489 0
M  V30 12866 C 1232.9 -1.87857 0.188445 0
M  V30 12867 O 1232.26 -1.63365 -0.813509 0
M  V30 12868 C 1232.31 -2.56237 2.55 0
M  V30 12869 O 1232.03 -2.07655 3.8576 0
M  V30 12870 C 1233.53 -3.48846 2.73535 0
M  V30 12871 H 1230.75 -0.419211 0.523931 0
M  V30 12872 H 1233.29 -0.714307 1.91619 0
M  V30 12873 H 1231.45 -3.1798 2.21287 0
M  V30 12874 H 1231.86 -2.85161 4.40208 0
M  V30 12875 H 1233.34 -4.2888 3.47514 0
M  V30 12876 H 1233.81 -4.00493 1.80282 0
M  V30 12877 H 1234.42 -2.92942 3.08326 0
M  V30 12878 N 1232.74 -1.33881 -0.831482 0
M  V30 12879 C 1234.15 -1.23112 -1.40358 0
M  V30 12880 C 1234.5 0.146944 -1.95649 0
M  V30 12881 O 1233.62 1.04689 -1.89391 0
M  V30 12882 C 1234.22 -2.22899 -2.5515 0
M  V30 12883 C 1232.78 -2.15946 -3.08292 0
M  V30 12884 C 1231.92 -2.09975 -1.81124 0
M  V30 12885 H 1234.87 -1.45372 -0.63661 0
M  V30 12886 H 1234.9 -1.841 -3.32997 0
M  V30 12887 H 1234.41 -3.23186 -2.14878 0
M  V30 12888 H 1232.51 -1.18987 -3.53091 0
M  V30 12889 H 1232.62 -3.06822 -3.67964 0
M  V30 12890 H 1230.99 -1.55564 -2.01673 0
M  V30 12891 H 1231.77 -3.12082 -1.43037 0
M  V30 12892 N 1234.21 1.05064 -1.1747 0
M  V30 12893 C 1235.44 1.82299 -0.98903 0
M  V30 12894 C 1235.86 1.82441 0.457907 0
M  V30 12895 O 1235.22 1.23433 1.32793 0
M  V30 12896 C 1235.27 3.26239 -1.53624 0
M  V30 12897 O 1234.37 4.05507 -0.750857 0
M  V30 12898 H 1233.71 0.563601 -0.35107 0
M  V30 12899 H 1236.24 1.32386 -1.55997 0
M  V30 12900 H 1236.25 3.77038 -1.55906 0
M  V30 12901 H 1234.93 3.25451 -2.58949 0
M  V30 12902 H 1233.51 3.64227 -0.799548 0
M  V30 12903 N 1235.69 0.975146 1.23809 0
M  V30 12904 C 1236.62 0.530389 2.27396 0
M  V30 12905 C 1237.6 -0.433763 1.64476 0
M  V30 12906 O 1238.79 -0.32827 1.91405 0
M  V30 12907 C 1235.92 -0.173066 3.46869 0
M  V30 12908 C 1234.87 0.707844 4.22106 0
M  V30 12909 C 1234.2 -0.127527 5.34548 0
M  V30 12910 C 1235.5 1.99609 4.82652 0
M  V30 12911 H 1237.19 1.39622 2.64851 0
M  V30 12912 H 1234.74 0.672802 1.27316 0
M  V30 12913 H 1236.69 -0.495481 4.18477 0
M  V30 12914 H 1235.41 -1.0733 3.0846 0
M  V30 12915 H 1234.07 1.01364 3.52308 0
M  V30 12916 H 1233.72 -1.02814 4.9238 0
M  V30 12917 H 1233.42 0.458728 5.85807 0
M  V30 12918 H 1234.95 -0.444443 6.0898 0
M  V30 12919 H 1236.36 1.73878 5.46296 0
M  V30 12920 H 1234.76 2.52969 5.44175 0
M  V30 12921 H 1235.83 2.68629 4.03691 0
M  V30 12922 N 1237.17 -1.38817 0.746158 0
M  V30 12923 C 1238.45 -1.94303 0.224841 0
M  V30 12924 C 1238.83 -1.68207 -1.27552 0
M  V30 12925 O 1238.17 -1.01647 -2.04646 0
M  V30 12926 C 1238.38 -3.44306 0.5705 0
M  V30 12927 C 1239.73 -4.21329 0.526015 0
M  V30 12928 O 1240.76 -3.52554 0.508351 0
M  V30 12929 O 1239.62 -5.4392 0.530383 0
M  V30 12930 H 1236.71 -0.825785 0.0448047 0
M  V30 12931 H 1239.26 -1.48253 0.825775 0
M  V30 12932 H 1238.03 -3.56779 1.60701 0
M  V30 12933 H 1237.65 -3.97556 -0.0588271 0
M  V30 12934 N 1238.65 -0.49465 -1.49636 0
M  V30 12935 C 1239.56 0.291881 -2.32777 0
M  V30 12936 C 1240.57 0.973468 -1.44221 0
M  V30 12937 O 1241.75 0.956252 -1.77251 0
M  V30 12938 C 1238.81 1.34609 -3.19502 0
M  V30 12939 C 1237.88 0.678611 -4.23903 0
M  V30 12940 C 1237.11 1.68259 -5.06483 0
M  V30 12941 O 1237.33 2.91176 -4.90482 0
M  V30 12942 O 1236.27 1.24141 -5.88959 0
M  V30 12943 H 1240.09 -0.388459 -3.01205 0
M  V30 12944 H 1237.68 -0.256086 -1.47189 0
M  V30 12945 H 1239.56 1.95617 -3.73245 0
M  V30 12946 H 1238.23 2.00947 -2.53775 0
M  V30 12947 H 1237.14 0.0289541 -3.74089 0
M  V30 12948 H 1238.47 0.0577817 -4.92166 0
M  V30 12949 N 1240.13 1.55939 -0.228214 0
M  V30 12950 C 1241.06 2.16566 0.719321 0
M  V30 12951 C 1242.04 1.11204 1.18627 0
M  V30 12952 O 1243.22 1.39495 1.2678 0
M  V30 12953 C 1240.35 2.75132 1.97536 0
M  V30 12954 C 1239.39 3.93381 1.64783 0
M  V30 12955 S 1240.23 5.29982 0.76678 0
M  V30 12956 C 1241.38 5.91989 2.03223 0
M  V30 12957 H 1241.62 2.96599 0.204035 0
M  V30 12958 H 1239.15 1.54395 -0.0128406 0
M  V30 12959 H 1241.11 3.09512 2.69652 0
M  V30 12960 H 1239.77 1.95079 2.46176 0
M  V30 12961 H 1238.96 4.32884 2.58122 0
M  V30 12962 H 1238.56 3.60181 1.00724 0
M  V30 12963 H 1240.85 6.08368 2.98152 0
M  V30 12964 H 1241.8 6.87858 1.68099 0
M  V30 12965 H 1242.21 5.20883 2.1758 0
M  V30 12966 N 1241.6 -0.0451101 1.57535 0
M  V30 12967 C 1242.85 -0.738072 1.87711 0
M  V30 12968 C 1243.17 -1.7737 0.824579 0
M  V30 12969 O 1244.37 -2.51812 1.01503 0
M  V30 12970 C 1242.83 -1.36373 3.33062 0
M  V30 12971 C 1242.44 -0.365283 4.46508 0
M  V30 12972 C 1244.18 -2.0375 3.72406 0
M  V30 12973 C 1242.09 -0.998371 5.82912 0
M  V30 12974 H 1241.02 -0.279413 0.700317 0
M  V30 12975 H 1243.67 0.00802425 1.83498 0
M  V30 12976 H 1242.05 -2.15899 3.31969 0
M  V30 12977 H 1243.22 0.402102 4.59042 0
M  V30 12978 H 1241.54 0.205505 4.15893 0
M  V30 12979 H 1244.14 -2.51939 4.71625 0
M  V30 12980 H 1244.48 -2.84869 3.03571 0
M  V30 12981 H 1245.01 -1.3102 3.75604 0
M  V30 12982 H 1241.75 -0.226935 6.55107 0
M  V30 12983 H 1241.27 -1.73598 5.74129 0
M  V30 12984 H 1242.95 -1.51044 6.29122 0
M  V30 12985 N 1243.08 -1.54377 -0.317073 0
M  V30 12986 C 1244.33 -1.72893 -1.05424 0
M  V30 12987 C 1244.66 -0.506082 -1.87801 0
M  V30 12988 O 1243.91 0.51213 -1.8888 0
M  V30 12989 C 1244.21 -2.96066 -2.00199 0
M  V30 12990 C 1243.88 -4.30551 -1.33927 0
M  V30 12991 C 1242.54 -4.67112 -1.15584 0
M  V30 12992 C 1244.89 -5.13986 -0.864158 0
M  V30 12993 C 1242.22 -5.84701 -0.483892 0
M  V30 12994 C 1244.57 -6.32264 -0.206006 0
M  V30 12995 C 1243.24 -6.67499 -0.0104849 0
M  V30 12996 H 1242.51 -0.63266 -0.385776 0
M  V30 12997 H 1245.15 -1.88623 -0.330722 0
M  V30 12998 H 1243.46 -2.7505 -2.79024 0
M  V30 12999 H 1245.15 -3.07586 -2.57278 0
M  V30 13000 H 1241.74 -4.0179 -1.49207 0
M  V30 13001 H 1245.93 -4.86252 -0.993635 0
M  V30 13002 H 1241.18 -6.10555 -0.32127 0
M  V30 13003 H 1245.36 -6.96192 0.170108 0
M  V30 13004 H 1242.99 -7.58472 0.512209 0
M  V30 13005 N 1244.56 0.579466 -1.4656 0
M  V30 13006 C 1245.81 1.33954 -1.52264 0
M  V30 13007 C 1246.14 1.93409 -0.175089 0
M  V30 13008 O 1245.41 1.76654 0.81385 0
M  V30 13009 C 1245.7 2.46645 -2.6237 0
M  V30 13010 C 1245.55 1.92204 -4.06667 0
M  V30 13011 C 1246.87 3.48676 -2.68538 0
M  V30 13012 H 1243.99 0.485697 -0.554317 0
M  V30 13013 H 1246.63 0.650639 -1.78512 0
M  V30 13014 H 1244.78 3.0541 -2.40119 0
M  V30 13015 H 1246.45 1.37871 -4.40215 0
M  V30 13016 H 1244.7 1.23012 -4.15993 0
M  V30 13017 H 1245.37 2.73566 -4.79443 0
M  V30 13018 H 1247.84 2.99798 -2.88549 0
M  V30 13019 H 1246.72 4.24981 -3.47394 0
M  V30 13020 H 1246.98 4.06112 -1.74716 0
M  V30 13021 N 1246.04 1.3432 0.824371 0
M  V30 13022 C 1247 1.25672 1.91675 0
M  V30 13023 C 1248 0.172269 1.59875 0
M  V30 13024 O 1249.19 0.424794 1.68941 0
M  V30 13025 C 1246.32 0.939928 3.27686 0
M  V30 13026 H 1247.52 2.22785 2.00766 0
M  V30 13027 H 1245.07 1.18587 1.01817 0
M  V30 13028 H 1245.8 -0.0280898 3.24288 0
M  V30 13029 H 1245.59 1.72432 3.5215 0
M  V30 13030 H 1247.08 0.904553 4.07686 0
M  V30 13031 N 1247.52 -1.0444 1.18026 0
M  V30 13032 C 1248.46 -2.12365 0.903865 0
M  V30 13033 C 1249.43 -1.65373 -0.155252 0
M  V30 13034 O 1250.62 -1.90793 -0.016419 0
M  V30 13035 C 1247.76 -3.4239 0.431603 0
M  V30 13036 C 1246.87 -4.03016 1.55571 0
M  V30 13037 C 1246.01 -5.20988 1.03655 0
M  V30 13038 C 1245.05 -5.73636 2.1356 0
M  V30 13039 N 1244.18 -6.82901 1.63066 0
M  V30 13040 H 1249.02 -2.35346 1.82802 0
M  V30 13041 H 1246.56 -1.15447 0.911618 0
M  V30 13042 H 1248.52 -4.16967 0.139296 0
M  V30 13043 H 1247.15 -3.19569 -0.455576 0
M  V30 13044 H 1246.2 -3.25803 1.96358 0
M  V30 13045 H 1247.51 -4.38122 2.38434 0
M  V30 13046 H 1246.67 -6.02665 0.698546 0
M  V30 13047 H 1245.4 -4.87377 0.177457 0
M  V30 13048 H 1244.41 -4.90583 2.4821 0
M  V30 13049 H 1245.63 -6.09293 2.99899 0
M  V30 13050 H 1243.58 -6.51172 0.794394 0
M  V30 13051 H 1243.5 -7.1705 2.3953 0
M  V30 13052 H 1244.77 -7.68211 1.32181 0
M  V30 13053 N 1248.99 -0.981699 -1.2329 0
M  V30 13054 C 1249.9 -0.531296 -2.28505 0
M  V30 13055 C 1250.92 0.414531 -1.6899 0
M  V30 13056 O 1252.1 0.284129 -1.99386 0
M  V30 13057 C 1249.16 0.157864 -3.4634 0
M  V30 13058 C 1248.22 -0.829527 -4.21209 0
M  V30 13059 C 1247.46 -0.17316 -5.33419 0
M  V30 13060 O 1247.68 1.03549 -5.60922 0
M  V30 13061 O 1246.61 -0.872385 -5.95544 0
M  V30 13062 H 1250.44 -1.40633 -2.69177 0
M  V30 13063 H 1248.02 -0.749395 -1.29246 0
M  V30 13064 H 1249.91 0.544394 -4.17869 0
M  V30 13065 H 1248.58 1.00764 -3.07617 0
M  V30 13066 H 1247.49 -1.26678 -3.51999 0
M  V30 13067 H 1248.82 -1.64815 -4.63785 0
M  V30 13068 N 1250.47 1.3842 -0.753509 0
M  V30 13069 C 1251.41 2.28079 -0.0741683 0
M  V30 13070 C 1252.38 1.45372 0.728398 0
M  V30 13071 O 1253.57 1.74737 0.707043 0
M  V30 13072 C 1250.69 3.26475 0.901764 0
M  V30 13073 C 1249.74 4.26097 0.185438 0
M  V30 13074 S 1250.57 5.23791 -1.11372 0
M  V30 13075 C 1251.73 6.25741 -0.140861 0
M  V30 13076 H 1251.96 2.85349 -0.834475 0
M  V30 13077 H 1249.5 1.4442 -0.546089 0
M  V30 13078 H 1251.45 3.83678 1.4595 0
M  V30 13079 H 1250.11 2.68189 1.63504 0
M  V30 13080 H 1249.31 4.95447 0.924578 0
M  V30 13081 H 1248.91 3.72789 -0.300772 0
M  V30 13082 H 1251.2 6.73945 0.693174 0
M  V30 13083 H 1252.14 7.03543 -0.80202 0
M  V30 13084 H 1252.55 5.6399 0.2398 0
M  V30 13085 N 1251.95 0.502579 1.49372 0
M  V30 13086 C 1252.86 -0.279532 2.32929 0
M  V30 13087 C 1253.88 -0.965806 1.44735 0
M  V30 13088 O 1255.05 -0.946839 1.77755 0
M  V30 13089 C 1252.12 -1.32913 3.20211 0
M  V30 13090 C 1251.18 -0.656121 4.24256 0
M  V30 13091 C 1250.41 -1.65571 5.07368 0
M  V30 13092 O 1250.63 -2.88571 4.92019 0
M  V30 13093 O 1249.57 -1.21016 5.89609 0
M  V30 13094 H 1253.39 0.404427 3.00995 0
M  V30 13095 H 1250.98 0.263888 1.47051 0
M  V30 13096 H 1252.86 -1.93635 3.74277 0
M  V30 13097 H 1251.54 -1.99598 2.54837 0
M  V30 13098 H 1250.44 -0.00911489 3.74099 0
M  V30 13099 H 1251.78 -0.0316802 4.9219 0
M  V30 13100 N 1253.43 -1.55816 0.23648 0
M  V30 13101 C 1254.84 -1.59159 -0.118601 0
M  V30 13102 C 1255.04 -1.25352 -1.57763 0
M  V30 13103 O 1254.1 -0.995863 -2.32032 0
M  V30 13104 C 1255.41 -2.99885 0.221175 0
M  V30 13105 C 1256.96 -3.12567 0.164624 0
M  V30 13106 C 1257.44 -4.55496 0.478285 0
M  V30 13107 N 1258.93 -4.61215 0.428402 0
M  V30 13108 C 1259.66 -5.69768 0.644398 0
M  V30 13109 N 1259.16 -6.86624 0.922966 0
M  V30 13110 N 1260.95 -5.59143 0.575814 0
M  V30 13111 H 1253.1 -1.76063 1.18809 0
M  V30 13112 H 1255.37 -0.819079 0.477297 0
M  V30 13113 H 1255.07 -3.29326 1.2344 0
M  V30 13114 H 1254.95 -3.74425 -0.456723 0
M  V30 13115 H 1257.33 -2.82914 -0.839263 0
M  V30 13116 H 1257.41 -2.40325 0.876219 0
M  V30 13117 H 1257.06 -4.85868 1.47968 0
M  V30 13118 H 1256.99 -5.25984 -0.254671 0
M  V30 13119 H 1259.48 -3.77251 0.221398 0
M  V30 13120 H 1259.79 -7.6528 1.07548 0
M  V30 13121 H 1258.14 -6.88333 0.960325 0
M  V30 13122 H 1261.33 -4.66727 0.358307 0
M  V30 13123 H 1261.5 -6.43674 0.747548 0
M  V30 13124 N 1254.91 0.036755 -1.57557 0
M  V30 13125 C 1255.84 1.03939 -2.09091 0
M  V30 13126 C 1256.82 1.38196 -0.991761 0
M  V30 13127 O 1258 1.47214 -1.26656 0
M  V30 13128 C 1255.13 2.34263 -2.56394 0
M  V30 13129 C 1254.09 2.14269 -3.70504 0
M  V30 13130 C 1253.41 3.50286 -4.03985 0
M  V30 13131 C 1254.71 1.53514 -4.9923 0
M  V30 13132 H 1256.41 0.610429 -2.93111 0
M  V30 13133 H 1253.95 0.292183 -1.41005 0
M  V30 13134 H 1255.91 3.04727 -2.91066 0
M  V30 13135 H 1254.63 2.79205 -1.69447 0
M  V30 13136 H 1253.29 1.46239 -3.36169 0
M  V30 13137 H 1252.94 3.92861 -3.14116 0
M  V30 13138 H 1252.64 3.37735 -4.80842 0
M  V30 13139 H 1254.16 4.22124 -4.41184 0
M  V30 13140 H 1255.57 2.13885 -5.31908 0
M  V30 13141 H 1253.97 1.51561 -5.80646 0
M  V30 13142 H 1255.04 0.500126 -4.82314 0
M  V30 13143 N 1256.39 1.54543 0.308881 0
M  V30 13144 C 1257.35 1.84214 1.36374 0
M  V30 13145 C 1258.35 0.71463 1.44047 0
M  V30 13146 O 1259.54 0.98293 1.4382 0
M  V30 13147 C 1256.67 2.01535 2.74948 0
M  V30 13148 H 1257.86 2.78477 1.11314 0
M  V30 13149 H 1255.42 1.46485 0.545141 0
M  V30 13150 H 1256.15 1.09533 3.05242 0
M  V30 13151 H 1255.94 2.83595 2.7077 0
M  V30 13152 H 1257.43 2.25888 3.51233 0
M  V30 13153 N 1257.86 -0.571685 1.46866 0
M  V30 13154 C 1259.11 -1.32574 1.5201 0
M  V30 13155 C 1259.43 -1.94762 0.180838 0
M  V30 13156 O 1260.63 -2.71276 0.110158 0
M  V30 13157 C 1259.09 -2.40331 2.67897 0
M  V30 13158 C 1258.7 -1.84398 4.08291 0
M  V30 13159 C 1260.44 -3.17009 2.82321 0
M  V30 13160 C 1258.35 -2.89849 5.15501 0
M  V30 13161 H 1257.28 -0.498428 0.565761 0
M  V30 13162 H 1259.93 -0.608853 1.73105 0
M  V30 13163 H 1258.31 -3.14869 2.40153 0
M  V30 13164 H 1259.48 -1.16329 4.45875 0
M  V30 13165 H 1257.8 -1.20351 3.98628 0
M  V30 13166 H 1260.4 -3.95729 3.59587 0
M  V30 13167 H 1260.74 -3.70292 1.90236 0
M  V30 13168 H 1261.27 -2.4958 3.09765 0
M  V30 13169 H 1258.01 -2.4144 6.09415 0
M  V30 13170 H 1257.53 -3.56372 4.82451 0
M  V30 13171 H 1259.21 -3.53603 5.41825 0
M  V30 13172 N 1259.34 -1.34755 -0.817236 0
M  V30 13173 C 1260.76 -1.14561 -1.11121 0
M  V30 13174 C 1260.96 0.0490776 -2.0144 0
M  V30 13175 O 1260.01 0.722897 -2.41931 0
M  V30 13176 C 1261.33 -2.44356 -1.75244 0
M  V30 13177 C 1262.87 -2.50465 -1.87713 0
M  V30 13178 C 1263.35 -3.80276 -2.55253 0
M  V30 13179 N 1264.84 -3.81468 -2.62747 0
M  V30 13180 C 1265.58 -4.78634 -3.15749 0
M  V30 13181 N 1265.07 -5.86184 -3.6927 0
M  V30 13182 N 1266.86 -4.66083 -3.14203 0
M  V30 13183 H 1259.02 -2.11293 -0.2166 0
M  V30 13184 H 1261.28 -0.934629 -0.158661 0
M  V30 13185 H 1260.98 -3.31899 -1.16344 0
M  V30 13186 H 1260.86 -2.58117 -2.75055 0
M  V30 13187 H 1263.25 -1.63358 -2.45761 0
M  V30 13188 H 1263.33 -2.40627 -0.867887 0
M  V30 13189 H 1262.97 -4.67776 -1.97858 0
M  V30 13190 H 1262.9 -3.87399 -3.56693 0
M  V30 13191 H 1265.39 -3.03753 -2.24817 0
M  V30 13192 H 1265.7 -6.56332 -4.0798 0
M  V30 13193 H 1264.05 -5.8989 -3.67498 0
M  V30 13194 H 1267.24 -3.81206 -2.7166 0
M  V30 13195 H 1267.41 -5.41973 -3.55203 0
M  V30 13196 N 1260.82 1.03812 -1.18578 0
M  V30 13197 C 1262.07 1.76455 -0.977071 0
M  V30 13198 C 1262.38 1.8926 0.493964 0
M  V30 13199 O 1263.59 2.58781 0.821256 0
M  V30 13200 C 1262.04 3.17264 -1.69917 0
M  V30 13201 C 1261.65 3.12543 -3.20969 0
M  V30 13202 C 1263.4 3.94266 -1.57337 0
M  V30 13203 C 1261.3 4.48226 -3.85807 0
M  V30 13204 H 1260.23 0.661445 -0.361949 0
M  V30 13205 H 1262.88 1.16252 -1.41978 0
M  V30 13206 H 1261.27 3.77878 -1.18424 0
M  V30 13207 H 1262.44 2.61364 -3.79507 0
M  V30 13208 H 1260.75 2.49039 -3.33719 0
M  V30 13209 H 1263.35 4.9461 -2.03137 0
M  V30 13210 H 1263.69 4.12963 -0.526033 0
M  V30 13211 H 1264.23 3.40232 -2.06124 0
M  V30 13212 H 1260.97 4.34734 -4.90599 0
M  V30 13213 H 1260.49 4.99497 -3.32058 0
M  V30 13214 H 1262.17 5.17135 -3.88819 0
M  V30 13215 N 1262.3 0.988223 1.22768 0
M  V30 13216 C 1263.71 0.697281 1.7319 0
M  V30 13217 C 1264.06 -0.786111 1.79763 0
M  V30 13218 O 1263.18 -1.61465 1.44077 0
M  V30 13219 C 1263.78 1.25905 3.14537 0
M  V30 13220 C 1262.34 1.01759 3.62384 0
M  V30 13221 C 1261.49 1.38207 2.40404 0
M  V30 13222 H 1264.44 1.16114 1.08181 0
M  V30 13223 H 1264.46 0.635315 3.75159 0
M  V30 13224 H 1263.97 2.33869 3.09721 0
M  V30 13225 H 1262.07 -0.045627 3.72572 0
M  V30 13226 H 1262.18 1.67767 4.48766 0
M  V30 13227 H 1260.55 0.800607 2.4179 0
M  V30 13228 H 1261.33 2.47165 2.38253 0
M  V30 13229 N 1263.78 -1.38018 0.760839 0
M  V30 13230 C 1264.71 -2.32995 0.153557 0
M  V30 13231 C 1265.69 -1.55234 -0.695448 0
M  V30 13232 O 1266.87 -1.8352 -0.635148 0
M  V30 13233 C 1264 -3.39437 -0.734811 0
M  V30 13234 C 1262.96 -4.27998 0.0120287 0
M  V30 13235 C 1262.28 -5.25359 -0.995067 0
M  V30 13236 C 1263.58 -5.08687 1.18468 0
M  V30 13237 H 1265.28 -2.8403 0.946956 0
M  V30 13238 H 1262.82 -1.36562 0.456816 0
M  V30 13239 H 1264.77 -4.0485 -1.16938 0
M  V30 13240 H 1263.5 -2.86901 -1.56061 0
M  V30 13241 H 1262.16 -3.64102 0.427254 0
M  V30 13242 H 1261.81 -4.69108 -1.81512 0
M  V30 13243 H 1261.51 -5.85469 -0.499969 0
M  V30 13244 H 1263.03 -5.93648 -1.4288 0
M  V30 13245 H 1264.44 -5.67299 0.8273 0
M  V30 13246 H 1262.84 -5.78068 1.61112 0
M  V30 13247 H 1263.91 -4.42 1.99409 0
M  V30 13248 N 1265.25 -0.510493 -1.49103 0
M  V30 13249 C 1266.18 0.251999 -2.32136 0
M  V30 13250 C 1267.16 0.953613 -1.40855 0
M  V30 13251 O 1268.35 0.943178 -1.69758 0
M  V30 13252 C 1265.48 1.31118 -3.21598 0
M  V30 13253 C 1264.43 0.72888 -4.21748 0
M  V30 13254 C 1263.76 1.88928 -5.0021 0
M  V30 13255 C 1265.06 -0.286425 -5.21514 0
M  V30 13256 H 1266.75 -0.441102 -2.96133 0
M  V30 13257 H 1264.3 -0.213577 -1.42407 0
M  V30 13258 H 1266.25 1.8524 -3.78503 0
M  V30 13259 H 1264.98 2.0336 -2.55563 0
M  V30 13260 H 1263.64 0.209336 -3.66002 0
M  V30 13261 H 1263.28 2.59961 -4.30615 0
M  V30 13262 H 1262.98 1.50568 -5.67981 0
M  V30 13263 H 1264.51 2.43465 -5.59962 0
M  V30 13264 H 1265.92 0.166997 -5.73057 0
M  V30 13265 H 1264.32 -0.586361 -5.97228 0
M  V30 13266 H 1265.39 -1.19904 -4.69842 0
M  V30 13267 N 1266.73 1.55688 -0.24474 0
M  V30 13268 C 1267.98 1.98067 0.381081 0
M  V30 13269 C 1268.29 1.13606 1.59227 0
M  V30 13270 O 1269.5 1.45988 2.2891 0
M  V30 13271 C 1267.96 3.52432 0.729385 0
M  V30 13272 C 1267.56 4.45629 -0.460282 0
M  V30 13273 C 1269.31 4.03471 1.31952 0
M  V30 13274 C 1267.21 5.91334 -0.088252 0
M  V30 13275 H 1266.14 0.739699 0.146157 0
M  V30 13276 H 1268.8 1.80235 -0.344615 0
M  V30 13277 H 1267.18 3.65951 1.51315 0
M  V30 13278 H 1268.35 4.43868 -1.23764 0
M  V30 13279 H 1266.67 4.05059 -0.965197 0
M  V30 13280 H 1269.26 5.09849 1.61116 0
M  V30 13281 H 1269.61 3.50691 2.24325 0
M  V30 13282 H 1270.14 3.93269 0.5987 0
M  V30 13283 H 1266.88 6.48147 -0.979069 0
M  V30 13284 H 1266.4 5.96235 0.652947 0
M  V30 13285 H 1268.08 6.46156 0.330324 0
M  V30 13286 N 1268.21 -0.0283989 1.57574 0
M  V30 13287 C 1269.46 -0.717656 1.88929 0
M  V30 13288 C 1269.78 -1.7586 0.842517 0
M  V30 13289 O 1269.05 -1.95509 -0.123774 0
M  V30 13290 H 1267.63 -0.268051 0.69725 0
M  V30 13291 H 1270.29 0.00580691 1.94899 0
M  V30 13292 H 1269.39 -1.2068 2.87824 0
M  V30 13293 N 1269.69 -1.54705 -0.300681 0
M  V30 13294 C 1270.94 -1.73658 -1.0338 0
M  V30 13295 C 1271.26 -0.525447 -1.87787 0
M  V30 13296 O 1270.53 0.460269 -1.90416 0
M  V30 13297 H 1269.11 -0.640338 -0.384677 0
M  V30 13298 H 1271.77 -1.92059 -0.331588 0
M  V30 13299 H 1270.86 -2.62595 -1.68672 0
M  V30 13300 N 1271.17 0.563888 -1.47167 0
M  V30 13301 C 1272.13 1.65359 -1.58711 0
M  V30 13302 C 1273.13 1.53999 -0.46272 0
M  V30 13303 O 1274.32 1.58277 -0.727595 0
M  V30 13304 C 1271.45 3.04874 -1.52529 0
M  V30 13305 H 1272.64 1.56475 -2.55843 0
M  V30 13306 H 1270.2 0.783271 -1.35257 0
M  V30 13307 H 1270.93 3.19297 -0.56747 0
M  V30 13308 H 1270.72 3.14528 -2.34125 0
M  V30 13309 H 1272.21 3.84164 -1.63731 0
M  V30 13310 N 1272.64 1.35187 0.810078 0
M  V30 13311 C 1273.87 1.31371 1.59841 0
M  V30 13312 C 1274.29 -0.109547 1.88482 0
M  V30 13313 O 1273.64 -1.06047 1.48527 0
M  V30 13314 C 1273.7 2.11496 2.93175 0
M  V30 13315 O 1273.42 3.48273 2.65777 0
M  V30 13316 C 1274.92 2.15226 3.87547 0
M  V30 13317 H 1272.14 0.451428 0.496441 0
M  V30 13318 H 1274.68 1.7799 1.00697 0
M  V30 13319 H 1272.84 1.68486 3.48843 0
M  V30 13320 H 1273.25 3.89845 3.50886 0
M  V30 13321 H 1274.72 2.75687 4.78226 0
M  V30 13322 H 1275.2 1.15007 4.23875 0
M  V30 13323 H 1275.81 2.58382 3.37815 0
M  V30 13324 N 1274.12 -1.03182 1.19127 0
M  V30 13325 C 1275.35 -1.80165 1.01726 0
M  V30 13326 C 1275.77 -1.83742 -0.434095 0
M  V30 13327 O 1275.12 -1.27932 -1.30152 0
M  V30 13328 C 1275.17 -3.25354 1.57566 0
M  V30 13329 O 1274.89 -3.22042 2.9702 0
M  V30 13330 C 1276.4 -4.18948 1.44906 0
M  V30 13331 H 1273.62 -0.567078 0.358698 0
M  V30 13332 H 1276.16 -1.29982 1.57877 0
M  V30 13333 H 1274.31 -3.72738 1.0557 0
M  V30 13334 H 1274.73 -4.13061 3.23235 0
M  V30 13335 H 1276.2 -5.18723 1.88762 0
M  V30 13336 H 1276.68 -4.37383 0.399125 0
M  V30 13337 H 1277.29 -3.77435 1.96018 0
M  V30 13338 N 1275.6 -0.99472 -1.22242 0
M  V30 13339 C 1276.83 -0.689809 -1.95592 0
M  V30 13340 C 1277.25 0.739321 -1.72961 0
M  V30 13341 O 1276.61 1.50563 -1.00997 0
M  V30 13342 C 1276.66 -1.00367 -3.46351 0
M  V30 13343 O 1275.76 -0.103326 -4.12271 0
M  V30 13344 H 1275.1 -0.257997 -0.611828 0
M  V30 13345 H 1277.63 -1.33219 -1.55286 0
M  V30 13346 H 1277.64 -0.946259 -3.96875 0
M  V30 13347 H 1276.32 -2.04504 -3.62148 0
M  V30 13348 H 1274.89 -0.216374 -3.72272 0
M  V30 13349 N 1277.08 1.37613 -0.768148 0
M  V30 13350 C 1278.03 2.30311 -0.150176 0
M  V30 13351 C 1279 1.50918 0.69376 0
M  V30 13352 O 1280.18 1.795 0.64687 0
M  V30 13353 C 1277.32 3.37382 0.72576 0
M  V30 13354 C 1276.43 4.31791 -0.13439 0
M  V30 13355 C 1275.57 5.25937 0.745915 0
M  V30 13356 C 1274.61 6.11988 -0.116988 0
M  V30 13357 N 1273.74 6.98387 0.721091 0
M  V30 13358 H 1278.58 2.82579 -0.946212 0
M  V30 13359 H 1276.12 1.3911 -0.478217 0
M  V30 13360 H 1278.08 3.98084 1.24839 0
M  V30 13361 H 1276.71 2.86488 1.48743 0
M  V30 13362 H 1275.76 3.72426 -0.774793 0
M  V30 13363 H 1277.07 4.9234 -0.800163 0
M  V30 13364 H 1276.23 5.91826 1.33516 0
M  V30 13365 H 1274.97 4.6579 1.44538 0
M  V30 13366 H 1273.97 5.45081 -0.7188 0
M  V30 13367 H 1275.2 6.74207 -0.813732 0
M  V30 13368 H 1273.14 6.40772 1.40524 0
M  V30 13369 H 1273.06 7.55916 0.112536 0
M  V30 13370 H 1274.33 7.6867 1.29485 0
M  V30 13371 N 1278.56 0.518393 1.4883 0
M  V30 13372 C 1279.78 -0.0162 2.06894 0
M  V30 13373 C 1280.2 -1.29222 1.37649 0
M  V30 13374 O 1279.56 -1.766 0.460288 0
M  V30 13375 C 1279.61 -0.255836 3.60594 0
M  V30 13376 O 1279.33 0.969612 4.27235 0
M  V30 13377 C 1280.83 -0.832117 4.3542 0
M  V30 13378 H 1278.05 0.0282877 0.670403 0
M  V30 13379 H 1280.59 0.720726 1.91379 0
M  V30 13380 H 1278.75 -0.942782 3.75753 0
M  V30 13381 H 1279.16 0.743172 5.19208 0
M  V30 13382 H 1280.64 -0.949279 5.43776 0
M  V30 13383 H 1281.11 -1.83421 3.99066 0
M  V30 13384 H 1281.72 -0.1821 4.2491 0
M  V30 13385 N 1280.03 -1.55556 0.252993 0
M  V30 13386 C 1280.98 -2.18298 -0.658028 0
M  V30 13387 C 1281.97 -1.14072 -1.13474 0
M  V30 13388 O 1283.16 -1.39962 -1.0835 0
M  V30 13389 C 1280.29 -2.89067 -1.8519 0
M  V30 13390 C 1279.38 -4.00556 -1.3934 0
M  V30 13391 N 1279.77 -5.01612 -0.649538 0
M  V30 13392 C 1278.06 -4.13222 -1.67819 0
M  V30 13393 C 1278.77 -5.80244 -0.411347 0
M  V30 13394 N 1277.74 -5.34742 -0.977342 0
M  V30 13395 H 1281.54 -2.93787 -0.0816162 0
M  V30 13396 H 1279.06 -1.62305 0.0555728 0
M  V30 13397 H 1281.05 -3.32448 -2.51563 0
M  V30 13398 H 1279.71 -2.15082 -2.43248 0
M  V30 13399 H 1280.73 -5.17036 -0.299043 0
M  V30 13400 H 1277.4 -3.50414 -2.26972 0
M  V30 13401 H 1278.79 -6.71651 0.182911 0
M  V30 13402 N 1281.51 0.0200419 -1.57587 0
M  V30 13403 C 1282.74 0.720556 -1.93947 0
M  V30 13404 C 1283.16 1.68407 -0.853499 0
M  V30 13405 O 1282.51 1.81713 0.169337 0
M  V30 13406 C 1282.56 1.46982 -3.3027 0
M  V30 13407 O 1282.28 0.544971 -4.34697 0
M  V30 13408 C 1283.79 2.26667 -3.80968 0
M  V30 13409 H 1281.01 0.201956 -0.639887 0
M  V30 13410 H 1283.55 -0.0251175 -2.04485 0
M  V30 13411 H 1281.7 2.16729 -3.21103 0
M  V30 13412 H 1282.12 1.07139 -5.13441 0
M  V30 13413 H 1283.59 2.74621 -4.78839 0
M  V30 13414 H 1284.07 3.0848 -3.12629 0
M  V30 13415 H 1284.68 1.61976 -3.93248 0
M  V30 13416 N 1282.99 1.54862 0.292472 0
M  V30 13417 C 1283.95 1.8565 1.34413 0
M  V30 13418 C 1284.95 0.729868 1.43281 0
M  V30 13419 O 1286.14 0.998128 1.42769 0
M  V30 13420 C 1283.28 2.0444 2.72795 0
M  V30 13421 H 1284.47 2.79642 1.08354 0
M  V30 13422 H 1282.02 1.47055 0.529574 0
M  V30 13423 H 1282.76 1.12765 3.04063 0
M  V30 13424 H 1282.54 2.86451 2.67747 0
M  V30 13425 H 1284.03 2.296 3.48817 0
M  V30 13426 N 1284.47 -0.556076 1.47464 0
M  V30 13427 C 1285.71 -1.31515 1.54375 0
M  V30 13428 C 1286.05 -1.93106 0.205837 0
M  V30 13429 O 1285.32 -1.77927 -0.785643 0
M  V30 13430 C 1285.61 -2.4244 2.66261 0
M  V30 13431 C 1285.46 -1.8571 4.09673 0
M  V30 13432 C 1286.78 -3.4436 2.74051 0
M  V30 13433 H 1283.9 -0.476817 0.561974 0
M  V30 13434 H 1286.54 -0.622157 1.79525 0
M  V30 13435 H 1284.69 -3.01551 2.44948 0
M  V30 13436 H 1286.36 -1.30851 4.42353 0
M  V30 13437 H 1284.6 -1.16379 4.17898 0
M  V30 13438 H 1285.27 -2.65904 4.83735 0
M  V30 13439 H 1287.75 -2.95169 2.93282 0
M  V30 13440 H 1286.63 -4.194 3.54111 0
M  V30 13441 H 1286.89 -4.03281 1.81155 0
M  V30 13442 N 1285.95 -1.35615 -0.802897 0
M  V30 13443 C 1286.89 -1.28839 -1.91492 0
M  V30 13444 C 1287.86 -0.159621 -1.65331 0
M  V30 13445 O 1289.05 -0.343931 -1.87675 0
M  V30 13446 C 1286.19 -1.06999 -3.28093 0
M  V30 13447 C 1285.3 -2.28831 -3.66416 0
M  V30 13448 C 1284.44 -2.00111 -4.92066 0
M  V30 13449 C 1283.48 -3.17977 -5.23027 0
M  V30 13450 N 1282.61 -2.89009 -6.39858 0
M  V30 13451 H 1287.45 -2.2393 -1.96619 0
M  V30 13452 H 1284.99 -1.1131 -0.961687 0
M  V30 13453 H 1286.95 -0.923673 -4.06847 0
M  V30 13454 H 1285.58 -0.155684 -3.22424 0
M  V30 13455 H 1284.63 -2.54314 -2.82893 0
M  V30 13456 H 1285.94 -3.1683 -3.85253 0
M  V30 13457 H 1285.1 -1.82331 -5.78654 0
M  V30 13458 H 1283.84 -1.09402 -4.75271 0
M  V30 13459 H 1282.84 -3.3633 -4.34928 0
M  V30 13460 H 1284.07 -4.09493 -5.41749 0
M  V30 13461 H 1282.01 -2.00898 -6.24481 0
M  V30 13462 H 1281.93 -3.70544 -6.58964 0
M  V30 13463 H 1283.2 -2.74779 -7.29463 0
M  V30 13464 N 1287.43 1.02549 -1.19673 0
M  V30 13465 C 1288.67 1.75408 -0.995732 0
M  V30 13466 C 1288.99 1.89773 0.473863 0
M  V30 13467 O 1290.19 2.59638 0.793762 0
M  V30 13468 C 1288.65 3.15444 -1.73273 0
M  V30 13469 C 1288.26 3.09121 -3.24266 0
M  V30 13470 C 1290 3.92575 -1.61509 0
M  V30 13471 C 1287.91 4.44109 -3.9054 0
M  V30 13472 H 1286.84 0.657569 -0.368944 0
M  V30 13473 H 1289.49 1.14739 -1.43203 0
M  V30 13474 H 1287.87 3.76601 -1.22425 0
M  V30 13475 H 1289.05 2.57325 -3.82257 0
M  V30 13476 H 1287.36 2.45485 -3.36342 0
M  V30 13477 H 1289.96 4.92428 -2.08372 0
M  V30 13478 H 1290.3 4.12382 -0.569804 0
M  V30 13479 H 1290.83 3.38027 -2.09721 0
M  V30 13480 H 1287.57 4.29506 -4.95182 0
M  V30 13481 H 1287.09 4.95947 -3.37337 0
M  V30 13482 H 1288.77 5.12982 -3.94282 0
M  V30 13483 N 1288.9 1.00119 1.21713 0
M  V30 13484 C 1289.87 0.563409 2.22167 0
M  V30 13485 C 1290.87 -0.35819 1.5676 0
M  V30 13486 O 1292.06 -0.149001 1.73562 0
M  V30 13487 C 1289.19 -0.179365 3.40428 0
M  V30 13488 H 1290.38 1.45189 2.62412 0
M  V30 13489 H 1287.93 0.789286 1.34907 0
M  V30 13490 H 1288.67 -1.08345 3.05666 0
M  V30 13491 H 1288.45 0.482471 3.8912 0
M  V30 13492 H 1289.94 -0.473537 4.14906 0
M  V30 13493 N 1290.38 -1.37203 0.775435 0
M  V30 13494 C 1291.79 -1.82224 0.406372 0
M  V30 13495 C 1292.14 -1.64587 -1.06796 0
M  V30 13496 O 1291.27 -1.15903 -1.82744 0
M  V30 13497 C 1291.86 -3.30824 0.730819 0
M  V30 13498 C 1290.42 -3.74108 0.414766 0
M  V30 13499 C 1289.57 -2.59679 0.972747 0
M  V30 13500 H 1292.52 -1.25623 0.969775 0
M  V30 13501 H 1292.54 -3.80496 0.0168066 0
M  V30 13502 H 1292.05 -3.43628 1.80392 0
M  V30 13503 H 1290.15 -3.66871 -0.650866 0
M  V30 13504 H 1290.27 -4.70074 0.925595 0
M  V30 13505 H 1288.63 -2.51591 0.396772 0
M  V30 13506 H 1289.41 -2.75274 2.05132 0
M  V30 13507 N 1291.86 -0.526279 -1.48553 0
M  V30 13508 C 1293.28 -0.183886 -1.58537 0
M  V30 13509 C 1293.48 1.31272 -1.52872 0
M  V30 13510 O 1292.53 2.09069 -1.41585 0
M  V30 13511 C 1293.84 -0.78313 -2.90323 0
M  V30 13512 C 1295.39 -0.751527 -3.03844 0
M  V30 13513 C 1295.87 -1.32928 -4.38285 0
M  V30 13514 N 1297.36 -1.29109 -4.44843 0
M  V30 13515 C 1298.09 -1.70806 -5.47369 0
M  V30 13516 N 1297.59 -2.20215 -6.56869 0
M  V30 13517 N 1299.38 -1.62065 -5.3823 0
M  V30 13518 H 1291.53 -1.499 -1.50478 0
M  V30 13519 H 1293.8 -0.623294 -0.714289 0
M  V30 13520 H 1293.5 -1.83371 -3.00113 0
M  V30 13521 H 1293.38 -0.25808 -3.76316 0
M  V30 13522 H 1295.76 0.290282 -2.93669 0
M  V30 13523 H 1295.84 -1.314 -2.19471 0
M  V30 13524 H 1295.49 -2.37 -4.49214 0
M  V30 13525 H 1295.42 -0.742516 -5.21339 0
M  V30 13526 H 1297.91 -0.929348 -3.66294 0
M  V30 13527 H 1298.22 -2.50035 -7.31233 0
M  V30 13528 H 1296.57 -2.24206 -6.57842 0
M  V30 13529 H 1299.76 -1.23265 -4.51579 0
M  V30 13530 H 1299.93 -1.94883 -6.18001 0
M  V30 13531 N 1293.34 1.5542 -0.261239 0
M  V30 13532 C 1294.57 2.03391 0.362698 0
M  V30 13533 C 1294.98 1.13947 1.51039 0
M  V30 13534 O 1294.32 0.149231 1.83093 0
M  V30 13535 C 1294.38 3.47558 0.918889 0
M  V30 13536 C 1294.04 4.56894 -0.0983829 0
M  V30 13537 C 1295.04 5.1182 -0.913018 0
M  V30 13538 C 1292.73 5.01779 -0.228616 0
M  V30 13539 C 1294.72 6.10138 -1.84421 0
M  V30 13540 C 1292.41 5.99926 -1.16329 0
M  V30 13541 C 1293.41 6.53984 -1.9696 0
M  V30 13542 O 1293.09 7.50214 -2.8885 0
M  V30 13543 H 1292.83 0.670166 0.0886182 0
M  V30 13544 H 1295.38 2.01722 -0.386967 0
M  V30 13545 H 1293.61 3.46423 1.71838 0
M  V30 13546 H 1295.3 3.78947 1.45443 0
M  V30 13547 H 1296.06 4.77965 -0.823066 0
M  V30 13548 H 1291.94 4.59356 0.388945 0
M  V30 13549 H 1295.49 6.52258 -2.47397 0
M  V30 13550 H 1291.38 6.332 -1.25412 0
M  V30 13551 H 1292.15 7.67881 -2.83374 0
M  V30 13552 N 1294.82 -0.0116844 1.57596 0
M  V30 13553 C 1296.04 -0.713924 1.94725 0
M  V30 13554 C 1296.47 -1.67157 0.862565 0
M  V30 13555 O 1295.82 -1.80401 -0.180308 0
M  V30 13556 C 1295.87 -1.43214 3.30941 0
M  V30 13557 O 1294.98 -2.5461 3.24419 0
M  V30 13558 H 1294.32 -0.190772 0.636005 0
M  V30 13559 H 1296.85 0.0380247 2.04565 0
M  V30 13560 H 1296.86 -1.79819 3.66237 0
M  V30 13561 H 1295.53 -0.729906 4.09445 0
M  V30 13562 H 1294.11 -2.20419 3.00782 0
M  V30 13563 N 1296.29 -1.55015 -0.284256 0
M  V30 13564 C 1297.26 -1.8636 -1.33426 0
M  V30 13565 C 1298.26 -0.737457 -1.42892 0
M  V30 13566 O 1299.45 -1.00569 -1.42238 0
M  V30 13567 C 1296.58 -2.05884 -2.71707 0
M  V30 13568 H 1297.77 -2.80212 -1.06869 0
M  V30 13569 H 1295.32 -1.47334 -0.521767 0
M  V30 13570 H 1296.06 -1.14376 -3.03461 0
M  V30 13571 H 1295.84 -2.87867 -2.66224 0
M  V30 13572 H 1297.33 -2.31447 -3.47595 0
M  V30 13573 N 1297.77 0.548248 -1.47757 0
M  V30 13574 C 1299.18 1.13033 -1.48595 0
M  V30 13575 C 1299.53 1.94657 -0.245575 0
M  V30 13576 O 1298.66 2.06445 0.648813 0
M  V30 13577 C 1299.25 2.05657 -2.69241 0
M  V30 13578 C 1297.81 2.59119 -2.73009 0
M  V30 13579 C 1296.96 1.35686 -2.41836 0
M  V30 13580 H 1299.91 0.334397 -1.55137 0
M  V30 13581 H 1299.93 2.89671 -2.4672 0
M  V30 13582 H 1299.44 1.46222 -3.595 0
M  V30 13583 H 1297.54 3.22327 -1.86912 0
M  V30 13584 H 1297.66 2.99501 -3.73946 0
M  V30 13585 H 1296.02 1.66659 -1.92606 0
M  V30 13586 H 1296.8 0.780311 -3.34314 0
M  V30 13587 N 1299.25 1.36039 0.795694 0
M  V30 13588 C 1300.5 1.30112 1.5556 0
M  V30 13589 C 1300.83 -0.121197 1.93821 0
M  V30 13590 O 1300.1 -1.07313 1.62216 0
M  V30 13591 C 1300.39 2.21792 2.8369 0
M  V30 13592 C 1300.24 3.72691 2.51836 0
M  V30 13593 C 1301.56 2.12365 3.85472 0
M  V30 13594 H 1298.68 0.473971 0.564376 0
M  V30 13595 H 1301.32 1.66536 0.91465 0
M  V30 13596 H 1299.47 1.9086 3.38386 0
M  V30 13597 H 1301.14 4.14115 2.0324 0
M  V30 13598 H 1299.38 3.92436 1.84869 0
M  V30 13599 H 1300.06 4.32242 3.43323 0
M  V30 13600 H 1302.53 2.3958 3.40207 0
M  V30 13601 H 1301.41 2.78695 4.72885 0
M  V30 13602 H 1301.67 1.10898 4.27965 0
M  V30 13603 N 1300.73 -1.01913 1.20215 0
M  V30 13604 C 1301.98 -1.74878 1.00502 0
M  V30 13605 C 1302.29 -1.90022 -0.463792 0
M  V30 13606 O 1303.5 -2.60055 -0.779982 0
M  V30 13607 C 1301.95 -3.1452 1.74943 0
M  V30 13608 C 1301.56 -3.07397 3.259 0
M  V30 13609 C 1303.3 -3.91713 1.63589 0
M  V30 13610 C 1301.21 -4.42032 3.92889 0
M  V30 13611 H 1300.14 -0.655603 0.372426 0
M  V30 13612 H 1302.79 -1.13978 1.4381 0
M  V30 13613 H 1301.17 -3.75946 1.24421 0
M  V30 13614 H 1302.35 -2.55294 3.83617 0
M  V30 13615 H 1300.66 -2.43698 3.37639 0
M  V30 13616 H 1303.26 -4.91316 2.1098 0
M  V30 13617 H 1303.6 -4.12074 0.591665 0
M  V30 13618 H 1304.14 -3.3691 2.11511 0
M  V30 13619 H 1300.88 -4.26874 4.97453 0
M  V30 13620 H 1300.4 -4.94151 3.39962 0
M  V30 13621 H 1302.07 -5.10884 3.96997 0
M  V30 13622 N 1302.21 -1.00763 -1.2118 0
M  V30 13623 C 1303.16 -0.541218 -2.21483 0
M  V30 13624 C 1304.14 0.398597 -1.55885 0
M  V30 13625 O 1305.33 0.22302 -1.75589 0
M  V30 13626 C 1302.46 0.128145 -3.43061 0
M  V30 13627 C 1301.55 -0.832845 -4.15842 0
M  V30 13628 N 1301.94 -1.98673 -4.65148 0
M  V30 13629 C 1300.24 -0.651779 -4.41212 0
M  V30 13630 C 1300.94 -2.59112 -5.20803 0
M  V30 13631 N 1299.91 -1.87249 -5.10332 0
M  V30 13632 H 1303.72 -1.42105 -2.57262 0
M  V30 13633 H 1301.23 -0.871796 -1.37016 0
M  V30 13634 H 1303.23 0.479771 -4.1413 0
M  V30 13635 H 1301.89 1.00392 -3.0879 0
M  V30 13636 H 1302.9 -2.36701 -4.60644 0
M  V30 13637 H 1299.57 0.1767 -4.17126 0
M  V30 13638 H 1300.96 -3.56713 -5.69391 0
M  V30 13639 N 1303.68 1.3679 -0.7827 0
M  V30 13640 C 1304.93 1.99712 -0.352533 0
M  V30 13641 C 1305.26 1.61984 1.0712 0
M  V30 13642 O 1304.54 0.871342 1.7389 0
M  V30 13643 C 1304.82 3.5649 -0.508628 0
M  V30 13644 C 1304.67 4.04093 -1.97557 0
M  V30 13645 C 1305.99 4.40026 0.0804447 0
M  V30 13646 H 1303.11 0.725522 -0.129566 0
M  V30 13647 H 1305.75 1.62305 -0.987788 0
M  V30 13648 H 1303.9 3.88487 0.0321664 0
M  V30 13649 H 1305.58 3.82613 -2.57691 0
M  V30 13650 H 1303.82 3.55881 -2.48055 0
M  V30 13651 H 1304.49 5.13088 -2.03579 0
M  V30 13652 H 1306.97 4.14351 -0.381113 0
M  V30 13653 H 1305.84 5.48868 -0.0588424 0
M  V30 13654 H 1306.1 4.26285 1.17189 0
M  V30 13655 N 1305.16 0.53415 1.48272 0
M  V30 13656 C 1306.09 -0.215037 2.32508 0
M  V30 13657 C 1307.07 -0.931083 1.42355 0
M  V30 13658 O 1308.26 -0.916051 1.71237 0
M  V30 13659 C 1305.39 -1.25985 3.23643 0
M  V30 13660 C 1304.34 -0.661692 4.22854 0
M  V30 13661 C 1303.67 -1.80946 5.03153 0
M  V30 13662 C 1304.97 0.369358 5.20992 0
M  V30 13663 H 1306.66 0.488158 2.95394 0
M  V30 13664 H 1304.21 0.236206 1.4205 0
M  V30 13665 H 1306.16 -1.79195 3.81402 0
M  V30 13666 H 1304.89 -1.99268 2.58766 0
M  V30 13667 H 1303.54 -0.151082 3.66289 0
M  V30 13668 H 1303.19 -2.53077 4.34696 0
M  V30 13669 H 1302.89 -1.41513 5.70305 0
M  V30 13670 H 1304.42 -2.34526 5.63764 0
M  V30 13671 H 1305.83 -0.0758076 5.7325 0
M  V30 13672 H 1304.23 0.681301 5.9622 0
M  V30 13673 H 1305.3 1.27363 4.67875 0
M  V30 13674 N 1306.64 -1.55279 0.269478 0
M  V30 13675 C 1307.92 -1.91458 -0.400412 0
M  V30 13676 C 1308.3 -1.19306 -1.74153 0
M  V30 13677 O 1307.65 -0.318017 -2.26276 0
M  V30 13678 C 1307.86 -3.44698 -0.546258 0
M  V30 13679 C 1309.2 -4.16374 -0.831758 0
M  V30 13680 O 1310.23 -3.50561 -0.631279 0
M  V30 13681 O 1309.09 -5.32826 -1.21484 0
M  V30 13682 H 1306.18 -0.79766 -0.218328 0
M  V30 13683 H 1308.73 -1.66747 0.315214 0
M  V30 13684 H 1307.5 -3.89273 0.397784 0
M  V30 13685 H 1307.12 -3.75345 -1.31157 0
M  V30 13686 N 1308.12 0.00332656 -1.576 0
M  V30 13687 C 1309.08 0.980628 -2.07163 0
M  V30 13688 C 1310.08 1.27455 -0.980402 0
M  V30 13689 O 1311.27 1.22029 -1.24317 0
M  V30 13690 C 1308.4 2.30647 -2.51028 0
M  V30 13691 H 1309.6 0.551982 -2.94776 0
M  V30 13692 H 1307.15 0.250728 -1.54276 0
M  V30 13693 H 1307.88 2.78207 -1.66647 0
M  V30 13694 H 1307.67 2.10635 -3.30719 0
M  V30 13695 H 1309.16 3.00761 -2.89711 0
M  V30 13696 N 1309.6 1.55164 0.276031 0
M  V30 13697 C 1310.82 1.7998 1.03063 0
M  V30 13698 C 1311.25 0.569769 1.79263 0
M  V30 13699 O 1310.6 -0.48054 1.74816 0
M  V30 13700 C 1310.65 3.02209 1.96728 0
M  V30 13701 O 1309.76 2.77083 3.05449 0
M  V30 13702 H 1309.1 0.594963 0.294814 0
M  V30 13703 H 1311.63 2.02301 0.305861 0
M  V30 13704 H 1311.64 3.3086 2.38738 0
M  V30 13705 H 1310.31 3.91386 1.40677 0
M  V30 13706 H 1308.89 2.5952 2.67776 0
M  V30 13707 N 1311.07 -0.540404 1.48045 0
M  V30 13708 C 1312.02 -1.64598 1.61791 0
M  V30 13709 C 1312.99 -1.59595 0.460301 0
M  V30 13710 O 1314.18 -1.78176 0.682482 0
M  V30 13711 C 1311.32 -3.02887 1.65389 0
M  V30 13712 C 1310.43 -3.18202 2.92184 0
M  V30 13713 C 1309.56 -4.46989 2.87009 0
M  V30 13714 C 1308.6 -4.55795 4.08555 0
M  V30 13715 N 1307.74 -5.75958 4.01518 0
M  V30 13716 H 1312.58 -1.52188 2.56208 0
M  V30 13717 H 1310.12 -0.741097 1.27068 0
M  V30 13718 H 1312.08 -3.82988 1.65457 0
M  V30 13719 H 1310.71 -3.14092 0.744703 0
M  V30 13720 H 1309.76 -2.31422 3.01907 0
M  V30 13721 H 1311.07 -3.20571 3.82146 0
M  V30 13722 H 1310.22 -5.35369 2.85421 0
M  V30 13723 H 1308.96 -4.47125 1.94759 0
M  V30 13724 H 1307.97 -3.65824 4.1043 0
M  V30 13725 H 1309.19 -4.57406 5.01953 0
M  V30 13726 H 1307.14 -5.77011 3.12081 0
M  V30 13727 H 1307.06 -5.79777 4.85175 0
M  V30 13728 H 1308.32 -6.66653 4.03972 0
M  V30 13729 N 1312.55 -1.36459 -0.788468 0
M  V30 13730 C 1313.78 -1.34063 -1.58246 0
M  V30 13731 C 1314.2 0.0754933 -1.87948 0
M  V30 13732 O 1313.56 1.04772 -1.47961 0
M  V30 13733 C 1313.61 -2.17038 -2.8797 0
M  V30 13734 O 1312.71 -1.56353 -3.81612 0
M  V30 13735 H 1312.05 -0.458816 -0.479983 0
M  V30 13736 H 1314.58 -1.79755 -0.977207 0
M  V30 13737 H 1314.59 -2.29651 -3.3723 0
M  V30 13738 H 1313.27 -3.19981 -2.65678 0
M  V30 13739 H 1311.85 -1.52685 -3.40208 0
M  V30 13740 N 1314.03 1.01274 -1.20754 0
M  V30 13741 C 1315.28 1.75191 -1.02156 0
M  V30 13742 C 1315.61 1.89038 0.444791 0
M  V30 13743 O 1314.88 1.41903 1.33018 0
M  V30 13744 C 1315.17 3.16892 -1.71031 0
M  V30 13745 C 1315.02 3.10816 -3.25136 0
M  V30 13746 C 1316.34 4.15648 -1.44654 0
M  V30 13747 H 1313.46 0.635922 -0.372521 0
M  V30 13748 H 1316.1 1.18119 -1.48822 0
M  V30 13749 H 1314.25 3.6562 -1.31357 0
M  V30 13750 H 1315.92 2.69863 -3.74128 0
M  V30 13751 H 1314.17 2.48113 -3.5584 0
M  V30 13752 H 1314.84 4.11001 -3.68487 0
M  V30 13753 H 1317.31 3.75592 -1.7908 0
M  V30 13754 H 1316.19 5.12954 -1.95371 0
M  V30 13755 H 1316.45 4.40507 -0.37494 0
M  V30 13756 N 1315.51 1.01404 1.20644 0
M  V30 13757 C 1316.76 0.702949 1.90227 0
M  V30 13758 C 1317.09 -0.765243 1.78487 0
M  V30 13759 O 1316.36 -1.55569 1.16741 0
M  V30 13760 C 1316.65 1.13606 3.4171 0
M  V30 13761 C 1316.5 2.66437 3.62397 0
M  V30 13762 C 1317.82 0.705361 4.34411 0
M  V30 13763 H 1314.94 0.256842 0.690797 0
M  V30 13764 H 1317.58 1.26133 1.42093 0
M  V30 13765 H 1315.73 0.660977 3.82836 0
M  V30 13766 H 1317.4 3.21778 3.3054 0
M  V30 13767 H 1315.64 3.0753 3.05954 0
M  V30 13768 H 1316.32 2.91795 4.68572 0
M  V30 13769 H 1318.79 1.11375 4.00918 0
M  V30 13770 H 1317.67 1.03647 5.39026 0
M  V30 13771 H 1317.93 -0.393094 4.40349 0
M  V30 13772 N 1316.99 -1.36373 0.789944 0
M  V30 13773 C 1318.23 -1.99523 0.363119 0
M  V30 13774 C 1318.57 -1.6255 -1.0626 0
M  V30 13775 O 1317.84 -0.880551 -1.73426 0
M  V30 13776 C 1318.12 -3.56215 0.527526 0
M  V30 13777 C 1317.98 -4.0304 1.99697 0
M  V30 13778 C 1319.3 -4.40063 -0.0571079 0
M  V30 13779 H 1316.42 -0.724824 0.133412 0
M  V30 13780 H 1319.06 -1.61778 0.996381 0
M  V30 13781 H 1317.21 -3.88498 -0.0115636 0
M  V30 13782 H 1318.88 -3.81241 2.59717 0
M  V30 13783 H 1317.12 -3.54561 2.49939 0
M  V30 13784 H 1317.79 -5.12001 2.06297 0
M  V30 13785 H 1320.27 -4.14143 0.403082 0
M  V30 13786 H 1319.15 -5.4883 0.0879494 0
M  V30 13787 H 1319.41 -4.26901 -1.14926 0
M  V30 13788 N 1318.47 -0.542005 -1.47987 0
M  V30 13789 C 1319.71 -0.0144711 -2.04395 0
M  V30 13790 C 1320.07 1.30441 -1.40887 0
M  V30 13791 O 1321.27 1.91872 -1.88252 0
M  V30 13792 C 1319.54 0.0926282 -3.5728 0
M  V30 13793 S 1321.1 0.568487 -4.35102 0
M  V30 13794 H 1317.92 -0.0178299 -0.710776 0
M  V30 13795 H 1320.52 -0.725294 -1.81548 0
M  V30 13796 H 1319.22 -0.871888 -4.01032 0
M  V30 13797 H 1318.76 0.827468 -3.84599 0
M  V30 13798 H 1320.77 1.83092 -4.61185 0
M  V30 13799 N 1319.94 1.55134 -0.277709 0
M  V30 13800 C 1321.17 2.04519 0.344472 0
M  V30 13801 C 1321.59 1.15466 1.4849 0
M  V30 13802 O 1320.95 0.153798 1.80646 0
M  V30 13803 C 1321 3.51602 0.800527 0
M  V30 13804 O 1320.1 3.65632 1.90754 0
M  V30 13805 H 1319.44 0.660212 0.0708226 0
M  V30 13806 H 1321.97 2.00393 -0.412764 0
M  V30 13807 H 1321.98 3.93015 1.09559 0
M  V30 13808 H 1320.66 4.15886 -0.033838 0
M  V30 13809 H 1319.24 3.36122 1.61481 0
M  V30 13810 N 1321.42 0.00503138 1.57599 0
M  V30 13811 C 1322.35 -1.01302 2.05598 0
M  V30 13812 C 1323.37 -1.30388 0.974829 0
M  V30 13813 O 1324.56 -1.27275 1.25153 0
M  V30 13814 C 1321.66 -2.34654 2.44522 0
M  V30 13815 C 1320.83 -2.24436 3.7543 0
M  V30 13816 C 1319.89 -3.40517 4.01166 0
M  V30 13817 O 1318.91 -3.18479 4.71762 0
M  V30 13818 N 1320.12 -4.63532 3.49454 0
M  V30 13819 H 1322.88 -0.603656 2.93558 0
M  V30 13820 H 1320.44 -0.182248 1.60871 0
M  V30 13821 H 1322.43 -3.11093 2.5885 0
M  V30 13822 H 1321 -2.67315 1.62055 0
M  V30 13823 H 1320.22 -1.32875 3.71131 0
M  V30 13824 H 1321.51 -2.14786 4.61242 0
M  V30 13825 H 1320.91 -4.84334 2.92296 0
M  V30 13826 H 1319.47 -5.37221 3.69103 0
M  V30 13827 N 1322.9 -1.55308 -0.267798 0
M  V30 13828 C 1323.83 -1.91555 -1.33525 0
M  V30 13829 C 1324.81 -0.778001 -1.51265 0
M  V30 13830 O 1326 -1.03657 -1.64222 0
M  V30 13831 C 1323.13 -2.19201 -2.69385 0
M  V30 13832 C 1322.08 -3.3501 -2.66369 0
M  V30 13833 C 1321.41 -3.48148 -4.05829 0
M  V30 13834 C 1322.71 -4.71265 -2.25182 0
M  V30 13835 H 1324.4 -2.80965 -1.03437 0
M  V30 13836 H 1321.95 -1.35183 -0.496141 0
M  V30 13837 H 1323.9 -2.43146 -3.44177 0
M  V30 13838 H 1322.62 -1.26596 -3.01067 0
M  V30 13839 H 1321.28 -3.11041 -1.94034 0
M  V30 13840 H 1320.93 -2.53 -4.34741 0
M  V30 13841 H 1320.63 -4.26014 -4.04704 0
M  V30 13842 H 1322.15 -3.74391 -4.82352 0
M  V30 13843 H 1323.57 -4.94719 -2.89699 0
M  V30 13844 H 1321.96 -5.52084 -2.3521 0
M  V30 13845 H 1323.03 -4.69735 -1.20319 0
M  V30 13846 N 1324.38 0.532545 -1.4833 0
M  V30 13847 C 1325.31 1.64662 -1.65555 0
M  V30 13848 C 1326.29 1.62447 -0.50447 0
M  V30 13849 O 1327.47 1.79684 -0.736712 0
M  V30 13850 C 1324.6 3.03256 -1.69272 0
M  V30 13851 C 1323.56 3.20329 -2.83854 0
M  V30 13852 C 1322.88 4.59958 -2.72659 0
M  V30 13853 C 1324.18 3.03345 -4.25181 0
M  V30 13854 H 1325.88 1.50502 -2.58823 0
M  V30 13855 H 1323.42 0.722612 -1.24556 0
M  V30 13856 H 1325.38 3.81064 -1.79911 0
M  V30 13857 H 1324.1 3.18433 -0.725805 0
M  V30 13858 H 1322.76 2.44937 -2.72766 0
M  V30 13859 H 1322.41 4.71967 -1.73942 0
M  V30 13860 H 1322.11 4.72327 -3.49544 0
M  V30 13861 H 1323.63 5.39869 -2.85262 0
M  V30 13862 H 1325.05 3.70948 -4.37116 0
M  V30 13863 H 1323.44 3.27208 -5.03045 0
M  V30 13864 H 1324.51 1.998 -4.41824 0
M  V30 13865 N 1325.86 1.36875 0.78122 0
M  V30 13866 C 1327.13 1.22101 1.52809 0
M  V30 13867 C 1327.51 -0.189402 2.10249 0
M  V30 13868 O 1326.86 -1.19598 1.94701 0
M  V30 13869 C 1327.07 2.30953 2.61652 0
M  V30 13870 C 1328.42 2.68027 3.29313 0
M  V30 13871 O 1329.44 2.30058 2.71941 0
M  V30 13872 O 1328.3 3.33407 4.33015 0
M  V30 13873 H 1325.4 0.4759 0.676349 0
M  V30 13874 H 1327.94 1.48629 0.818998 0
M  V30 13875 H 1326.71 3.25443 2.17261 0
M  V30 13876 H 1326.34 2.05837 3.40172 0
M  V30 13877 N 1327.33 -1.00632 1.21289 0
M  V30 13878 C 1328.24 -2.12829 0.986957 0
M  V30 13879 C 1329.26 -1.73895 -0.0605152 0
M  V30 13880 O 1330.44 -2.00985 0.129238 0
M  V30 13881 C 1327.5 -3.4226 0.553089 0
M  V30 13882 C 1326.56 -3.95376 1.67262 0
M  V30 13883 C 1325.79 -5.18629 1.25936 0
M  V30 13884 O 1326.02 -5.70246 0.132402 0
M  V30 13885 O 1324.95 -5.65157 2.07077 0
M  V30 13886 H 1328.78 -2.34765 1.92663 0
M  V30 13887 H 1326.36 -1.11208 0.997654 0
M  V30 13888 H 1328.24 -4.20177 0.320856 0
M  V30 13889 H 1326.92 -3.21716 -0.357881 0
M  V30 13890 H 1325.83 -3.18692 1.95924 0
M  V30 13891 H 1327.16 -4.20328 2.56097 0
M  V30 13892 N 1328.81 -1.02043 -1.20104 0
M  V30 13893 C 1329.76 -0.587332 -2.25063 0
M  V30 13894 C 1330.75 0.375844 -1.65178 0
M  V30 13895 O 1331.96 0.245347 -1.7832 0
M  V30 13896 H 1328.33 -0.171637 -0.732151 0
M  V30 13897 H 1330.31 -1.48339 -2.58917 0
M  V30 13898 C 1329.05 0.0546893 -3.47657 0
M  V30 13899 H 1328.38 -0.677457 -3.94018 0
M  V30 13900 H 1329.82 0.320786 -4.22785 0
M  V30 13901 C 1328.28 1.29869 -3.10863 0
M  V30 13902 O 1328.81 2.39161 -3.22746 0
M  V30 13903 N 1327.01 1.18423 -2.65376 0
M  V30 13904 H 1326.56 0.294895 -2.55906 0
M  V30 13905 H 1326.52 2.01755 -2.41128 0
M  V30 13906 N 1330.29 1.35952 -0.797165 0
M  V30 13907 C 1331.22 2.32506 -0.215277 0
M  V30 13908 C 1332.2 1.57023 0.654046 0
M  V30 13909 O 1333.39 1.85139 0.586268 0
M  V30 13910 C 1330.52 3.41266 0.644557 0
M  V30 13911 C 1329.47 4.27816 -0.125501 0
M  V30 13912 C 1328.8 5.27813 0.855428 0
M  V30 13913 C 1330.1 5.05367 -1.31913 0
M  V30 13914 H 1331.79 2.8142 -1.02193 0
M  V30 13915 H 1329.34 1.35303 -0.492862 0
M  V30 13916 H 1331.29 4.07808 1.06163 0
M  V30 13917 H 1330.01 2.90938 1.484 0
M  V30 13918 H 1328.67 3.62841 -0.523639 0
M  V30 13919 H 1328.32 4.73755 1.69011 0
M  V30 13920 H 1328.02 5.86589 0.344566 0
M  V30 13921 H 1329.54 5.97227 1.2709 0
M  V30 13922 H 1330.96 5.64907 -0.977418 0
M  V30 13923 H 1329.36 5.73593 -1.76382 0
M  V30 13924 H 1330.43 4.36558 -2.11057 0
M  V30 13925 N 1331.77 0.549846 1.47697 0
M  V30 13926 C 1332.72 -0.201961 2.29915 0
M  V30 13927 C 1333.69 -0.915287 1.38606 0
M  V30 13928 O 1334.87 -0.912427 1.67569 0
M  V30 13929 C 1332.01 -1.2306 3.22413 0
M  V30 13930 C 1331.12 -0.524091 4.28809 0
M  V30 13931 C 1330.26 -1.53738 5.08466 0
M  V30 13932 C 1329.3 -0.815437 6.06644 0
M  V30 13933 N 1328.43 -1.77521 6.79287 0
M  V30 13934 H 1333.27 0.505289 2.93685 0
M  V30 13935 H 1330.81 0.261012 1.44766 0
M  V30 13936 H 1332.77 -1.83949 3.74458 0
M  V30 13937 H 1331.4 -1.90597 2.60523 0
M  V30 13938 H 1330.45 0.199174 3.79878 0
M  V30 13939 H 1331.76 0.0418145 4.98782 0
M  V30 13940 H 1330.92 -2.22001 5.64624 0
M  V30 13941 H 1329.66 -2.1372 4.38378 0
M  V30 13942 H 1328.66 -0.11884 5.49672 0
M  V30 13943 H 1329.89 -0.221462 6.78739 0
M  V30 13944 H 1327.83 -2.36374 6.11934 0
M  V30 13945 H 1327.75 -1.26126 7.45405 0
M  V30 13946 H 1329.02 -2.44921 7.40023 0
M  V30 13947 N 1333.25 -1.54984 0.285932 0
M  V30 13948 C 1334.52 -1.91872 -0.380083 0
M  V30 13949 C 1334.9 -1.21146 -1.72878 0
M  V30 13950 O 1334.25 -0.341999 -2.25926 0
M  V30 13951 C 1334.46 -3.45258 -0.509667 0
M  V30 13952 C 1335.81 -4.17232 -0.787549 0
M  V30 13953 O 1336.83 -3.51211 -0.594062 0
M  V30 13954 O 1335.69 -5.34085 -1.15826 0
M  V30 13955 H 1332.79 -0.799931 -0.209856 0
M  V30 13956 H 1335.33 -1.66403 0.332882 0
M  V30 13957 H 1334.1 -3.88829 0.439049 0
M  V30 13958 H 1333.73 -3.76715 -1.27168 0
M  V30 13959 N 1334.72 -0.0133892 -1.57594 0
M  V30 13960 C 1335.63 0.989701 -2.12702 0
M  V30 13961 C 1336.65 1.36785 -1.07545 0
M  V30 13962 O 1337.83 1.45246 -1.39519 0
M  V30 13963 C 1334.89 2.2586 -2.63036 0
M  V30 13964 C 1333.95 1.94234 -3.82847 0
M  V30 13965 C 1333.19 3.15075 -4.30771 0
M  V30 13966 O 1333.41 4.27212 -3.7795 0
M  V30 13967 O 1332.34 2.98291 -5.22787 0
M  V30 13968 H 1336.17 0.551194 -2.98656 0
M  V30 13969 H 1333.75 0.206264 -1.47969 0
M  V30 13970 H 1335.64 3.0038 -2.9555 0
M  V30 13971 H 1334.31 2.68923 -1.80173 0
M  V30 13972 H 1333.22 1.17148 -3.55285 0
M  V30 13973 H 1334.55 1.55999 -4.66824 0
M  V30 13974 N 1336.2 1.55448 0.259558 0
M  V30 13975 C 1337.43 1.80465 1.00577 0
M  V30 13976 C 1337.84 0.585001 1.79929 0
M  V30 13977 O 1337.18 -0.455641 1.7796 0
M  V30 13978 C 1337.25 2.98634 2.00146 0
M  V30 13979 C 1336.91 4.35154 1.39607 0
M  V30 13980 C 1337.91 5.13631 0.804923 0
M  V30 13981 C 1335.59 4.81833 1.41923 0
M  V30 13982 C 1337.59 6.36929 0.245007 0
M  V30 13983 C 1335.27 6.05083 0.855458 0
M  V30 13984 C 1336.27 6.82469 0.269359 0
M  V30 13985 O 1335.96 8.03392 -0.285743 0
M  V30 13986 H 1335.69 0.604693 0.302196 0
M  V30 13987 H 1338.24 2.0332 0.291599 0
M  V30 13988 H 1336.47 2.71504 2.75359 0
M  V30 13989 H 1338.16 3.10855 2.61006 0
M  V30 13990 H 1338.93 4.78693 0.779625 0
M  V30 13991 H 1334.81 4.21599 1.86481 0
M  V30 13992 H 1338.35 6.97274 -0.213098 0
M  V30 13993 H 1334.25 6.395 0.878041 0
M  V30 13994 H 1335.02 8.1831 -0.17639 0
M  V30 13995 N 1337.68 -0.524672 1.4861 0
M  V30 13996 C 1338.93 -1.28021 1.56898 0
M  V30 13997 C 1339.26 -1.92948 0.245203 0
M  V30 13998 O 1338.51 -1.8013 -0.764966 0
M  V30 13999 C 1338.81 -2.3871 2.65993 0
M  V30 14000 C 1338.48 -1.914 4.08261 0
M  V30 14001 C 1337.14 -1.78215 4.46982 0
M  V30 14002 C 1339.49 -1.55713 4.97396 0
M  V30 14003 C 1336.82 -1.27687 5.72637 0
M  V30 14004 C 1339.17 -1.06645 6.23546 0
M  V30 14005 C 1337.83 -0.920818 6.61118 0
M  V30 14006 H 1337.1 -0.468461 0.57413 0
M  V30 14007 H 1339.75 -0.584901 1.82349 0
M  V30 14008 H 1338.06 -3.13932 2.34422 0
M  V30 14009 H 1339.75 -2.96827 2.6962 0
M  V30 14010 H 1336.34 -2.02614 3.77684 0
M  V30 14011 H 1340.53 -1.64757 4.68155 0
M  V30 14012 H 1335.78 -1.15103 6.00468 0
M  V30 14013 H 1339.96 -0.781048 6.92006 0
M  V30 14014 H 1337.58 -0.527091 7.5837 0
M  V30 14015 N 1339.16 -1.37287 -0.77395 0
M  V30 14016 C 1340.07 -1.35059 -1.91823 0
M  V30 14017 C 1341.08 -0.250489 -1.72188 0
M  V30 14018 O 1342.26 -0.485501 -1.95461 0
M  V30 14019 C 1339.33 -1.15444 -3.26915 0
M  V30 14020 C 1338.39 -2.35073 -3.5922 0
M  V30 14021 C 1337.62 -2.16384 -4.87867 0
M  V30 14022 O 1337.84 -1.14696 -5.58749 0
M  V30 14023 O 1336.78 -3.0452 -5.19183 0
M  V30 14024 H 1340.6 -2.31432 -1.96654 0
M  V30 14025 H 1338.19 -1.17994 -0.916392 0
M  V30 14026 H 1340.07 -1.06484 -4.07724 0
M  V30 14027 H 1338.74 -0.221435 -3.22942 0
M  V30 14028 H 1337.65 -2.49604 -2.78655 0
M  V30 14029 H 1338.98 -3.26933 -3.67934 0
M  V30 14030 N 1340.64 0.999871 -1.21821 0
M  V30 14031 C 1341.55 2.12303 -0.99823 0
M  V30 14032 C 1342.56 1.73924 0.0512923 0
M  V30 14033 O 1343.74 2.00914 -0.139895 0
M  V30 14034 C 1340.8 3.41962 -0.571232 0
M  V30 14035 C 1339.86 3.94483 -1.69356 0
M  V30 14036 C 1339.1 5.17954 -1.28685 0
M  V30 14037 O 1339.32 5.70168 -0.162641 0
M  V30 14038 O 1338.25 5.64051 -2.10071 0
M  V30 14039 H 1342.08 2.3374 -1.93905 0
M  V30 14040 H 1339.67 1.10677 -1.00354 0
M  V30 14041 H 1341.55 4.20001 -0.343134 0
M  V30 14042 H 1340.22 3.21901 0.340814 0
M  V30 14043 H 1339.13 3.17648 -1.97612 0
M  V30 14044 H 1340.46 4.18964 -2.58322 0
M  V30 14045 N 1342.11 1.02678 1.19562 0
M  V30 14046 C 1343.36 0.717279 1.88515 0
M  V30 14047 C 1343.68 -0.757063 1.80355 0
M  V30 14048 O 1344.88 -1.17953 2.44539 0
M  V30 14049 C 1343.34 1.23265 3.38133 0
M  V30 14050 C 1342.95 2.73462 3.54856 0
M  V30 14051 C 1344.69 0.99904 4.12577 0
M  V30 14052 C 1342.6 3.18428 4.98355 0
M  V30 14053 H 1341.53 0.264608 0.706044 0
M  V30 14054 H 1344.18 1.2408 1.3519 0
M  V30 14055 H 1342.56 0.637052 3.90842 0
M  V30 14056 H 1343.73 3.38659 3.12485 0
M  V30 14057 H 1342.05 2.95079 2.93798 0
M  V30 14058 H 1344.65 1.3103 5.18397 0
M  V30 14059 H 1344.99 -0.064217 4.1625 0
M  V30 14060 H 1345.52 1.55853 3.65998 0
M  V30 14061 H 1342.26 4.24074 4.99842 0
M  V30 14062 H 1341.78 2.57958 5.41496 0
M  V30 14063 H 1343.46 3.11649 5.66996 0
M  V30 14064 N 1343.59 -1.35528 0.804364 0
M  V30 14065 C 1344.53 -2.27647 0.158767 0
M  V30 14066 C 1345.5 -1.47976 -0.673942 0
M  V30 14067 O 1346.69 -1.77241 -0.641703 0
M  V30 14068 C 1343.81 -3.29597 -0.779973 0
M  V30 14069 C 1342.86 -4.26491 -0.0271676 0
M  V30 14070 S 1343.69 -5.19296 1.30736 0
M  V30 14071 C 1344.85 -6.24788 0.373003 0
M  V30 14072 H 1345.08 -2.82055 0.939805 0
M  V30 14073 H 1342.62 -1.42294 0.599313 0
M  V30 14074 H 1344.57 -3.88831 -1.31609 0
M  V30 14075 H 1343.23 -2.74072 -1.53438 0
M  V30 14076 H 1342.43 -4.98537 -0.740059 0
M  V30 14077 H 1342.03 -3.71415 0.438923 0
M  V30 14078 H 1344.32 -6.76053 -0.442566 0
M  V30 14079 H 1345.26 -7.00082 1.06258 0
M  V30 14080 H 1345.67 -5.64492 -0.0303131 0
M  V30 14081 N 1345.07 -0.557671 -1.47404 0
M  V30 14082 C 1345.98 0.19289 -2.33806 0
M  V30 14083 C 1347 0.911424 -1.4822 0
M  V30 14084 O 1348.17 0.880214 -1.81147 0
M  V30 14085 C 1345.24 1.20937 -3.24923 0
M  V30 14086 C 1344.3 0.498209 -4.26399 0
M  V30 14087 C 1343.53 1.46626 -5.13163 0
M  V30 14088 O 1343.76 2.70111 -5.0239 0
M  V30 14089 O 1342.69 0.990497 -5.93694 0
M  V30 14090 H 1346.52 -0.515861 -2.99287 0
M  V30 14091 H 1344.1 -0.318283 -1.4597 0
M  V30 14092 H 1345.98 1.7961 -3.81206 0
M  V30 14093 H 1344.66 1.90003 -2.6207 0
M  V30 14094 H 1343.56 -0.129736 -3.73875 0
M  V30 14095 H 1344.9 -0.151015 -4.91968 0
M  V30 14096 N 1346.55 1.54831 -0.294147 0
M  V30 14097 C 1347.46 2.26939 0.594621 0
M  V30 14098 C 1348.48 1.30209 1.15419 0
M  V30 14099 O 1349.65 1.6318 1.18044 0
M  V30 14100 C 1346.72 2.9909 1.75345 0
M  V30 14101 C 1345.78 4.11342 1.22865 0
M  V30 14102 C 1345.01 4.80043 2.33225 0
M  V30 14103 O 1345.23 4.48062 3.52983 0
M  V30 14104 O 1344.17 5.67593 2.00304 0
M  V30 14105 H 1347.99 3.03698 0.00989235 0
M  V30 14106 H 1345.58 1.49276 -0.0608528 0
M  V30 14107 H 1347.46 3.44369 2.42875 0
M  V30 14108 H 1346.14 2.25232 2.32492 0
M  V30 14109 H 1345.04 3.70478 0.519279 0
M  V30 14110 H 1346.38 4.87158 0.702703 0
M  V30 14111 N 1348.03 0.0217466 1.57585 0
M  V30 14112 C 1349.26 -0.667911 1.95506 0
M  V30 14113 C 1349.67 -1.66616 0.89642 0
M  V30 14114 O 1349.01 -1.83232 -0.131059 0
M  V30 14115 C 1349.07 -1.43696 3.29533 0
M  V30 14116 C 1348.73 -0.59787 4.53072 0
M  V30 14117 C 1349.73 0.12372 5.19753 0
M  V30 14118 C 1347.42 -0.53744 4.99417 0
M  V30 14119 C 1349.41 0.894491 6.31092 0
M  V30 14120 C 1347.1 0.237041 6.1064 0
M  V30 14121 C 1348.1 0.95172 6.76337 0
M  V30 14122 O 1347.78 1.71352 7.85426 0
M  V30 14123 H 1347.52 -0.189544 0.648883 0
M  V30 14124 H 1350.07 0.0755682 2.05261 0
M  V30 14125 H 1348.3 -2.22541 3.16247 0
M  V30 14126 H 1349.99 -2.01402 3.52409 0
M  V30 14127 H 1350.75 0.0863208 4.84923 0
M  V30 14128 H 1346.63 -1.08327 4.48092 0
M  V30 14129 H 1350.18 1.45285 6.82304 0
M  V30 14130 H 1346.07 0.276183 6.44909 0
M  V30 14131 H 1346.84 1.63252 8.02054 0
M  V30 14132 N 1349.51 -1.55583 -0.251311 0
M  V30 14133 C 1350.42 -1.93073 -1.33266 0
M  V30 14134 C 1351.43 -0.830612 -1.52895 0
M  V30 14135 O 1352.61 -1.13162 -1.66602 0
M  V30 14136 C 1349.67 -2.21396 -2.66805 0
M  V30 14137 C 1348.73 -3.44815 -2.55737 0
M  V30 14138 C 1347.97 -3.71777 -3.82907 0
M  V30 14139 O 1348.19 -3.00884 -4.84587 0
M  V30 14140 O 1347.12 -4.65305 -3.81805 0
M  V30 14141 H 1350.95 -2.85168 -1.04465 0
M  V30 14142 H 1348.53 -1.42408 -0.451693 0
M  V30 14143 H 1350.42 -2.4094 -3.45725 0
M  V30 14144 H 1349.09 -1.3248 -2.95348 0
M  V30 14145 H 1348 -3.30582 -1.75118 0
M  V30 14146 H 1349.33 -4.34019 -2.32139 0
M  V30 14147 N 1350.98 0.516783 -1.48886 0
M  V30 14148 C 1352.26 1.27808 -1.48069 0
M  V30 14149 C 1352.64 2.10154 -0.19963 0
M  V30 14150 O 1351.99 2.13342 0.818386 0
M  V30 14151 C 1352.2 2.14828 -2.75045 0
M  V30 14152 C 1353.55 2.74536 -3.23906 0
M  V30 14153 O 1354.57 2.25107 -2.76053 0
M  V30 14154 O 1353.43 3.6448 -4.07206 0
M  V30 14155 H 1350.52 0.577535 -0.591931 0
M  V30 14156 H 1353.07 0.532351 -1.61134 0
M  V30 14157 H 1351.84 1.53852 -3.59785 0
M  V30 14158 H 1351.46 2.96624 -2.64764 0
M  V30 14159 N 1352.46 1.37696 0.766659 0
M  V30 14160 C 1353.71 1.32507 1.52069 0
M  V30 14161 C 1354.02 -0.0864967 1.95409 0
M  V30 14162 O 1355.23 -0.260877 2.70244 0
M  V30 14163 C 1353.69 2.32614 2.74625 0
M  V30 14164 C 1353.29 3.79325 2.38363 0
M  V30 14165 C 1355.04 2.36445 3.52554 0
M  V30 14166 C 1352.94 4.7115 3.57451 0
M  V30 14167 H 1351.87 0.492491 0.570937 0
M  V30 14168 H 1354.53 1.63183 0.839268 0
M  V30 14169 H 1352.91 1.94963 3.44682 0
M  V30 14170 H 1354.08 4.25841 1.76056 0
M  V30 14171 H 1352.4 3.78488 1.73597 0
M  V30 14172 H 1354.99 3.02252 4.41076 0
M  V30 14173 H 1355.34 1.37953 3.92778 0
M  V30 14174 H 1355.87 2.72829 2.89498 0
M  V30 14175 H 1352.61 5.70789 3.22304 0
M  V30 14176 H 1352.13 4.29335 4.18846 0
M  V30 14177 H 1353.81 4.88532 4.242 0
M  V30 14178 N 1353.94 -0.993397 1.22349 0
M  V30 14179 C 1355.36 -1.25708 0.983345 0
M  V30 14180 C 1355.56 -1.98888 -0.323372 0
M  V30 14181 O 1354.61 -2.2981 -1.04612 0
M  V30 14182 C 1355.92 -2.06935 2.1817 0
M  V30 14183 C 1357.47 -2.20121 2.22521 0
M  V30 14184 C 1357.95 -3.04735 3.41907 0
M  V30 14185 N 1359.44 -3.12322 3.42066 0
M  V30 14186 C 1360.17 -3.78081 4.31095 0
M  V30 14187 N 1359.67 -4.45771 5.3034 0
M  V30 14188 N 1361.46 -3.74837 4.18872 0
M  V30 14189 H 1353.61 -0.502767 2.06364 0
M  V30 14190 H 1355.88 -0.284656 0.904254 0
M  V30 14191 H 1355.58 -1.60525 3.12929 0
M  V30 14192 H 1355.46 -3.0769 2.18189 0
M  V30 14193 H 1357.84 -2.65745 1.28311 0
M  V30 14194 H 1357.92 -1.18798 2.26541 0
M  V30 14195 H 1357.57 -2.59811 4.36418 0
M  V30 14196 H 1357.5 -4.06198 3.35128 0
M  V30 14197 H 1359.99 -2.64146 2.7025 0
M  V30 14198 H 1360.3 -4.93687 5.94553 0
M  V30 14199 H 1358.65 -4.44521 5.34253 0
M  V30 14200 H 1361.84 -3.21116 3.40591 0
M  V30 14201 H 1362.01 -4.25806 4.8846 0
M  V30 14202 N 1355.42 -1.03311 -1.19015 0
M  V30 14203 C 1356.35 -0.575655 -2.21853 0
M  V30 14204 C 1357.36 0.350705 -1.58978 0
M  V30 14205 O 1358.55 0.146425 -1.77898 0
M  V30 14206 C 1355.65 0.179949 -3.38422 0
M  V30 14207 C 1354.82 -0.752403 -4.3088 0
M  V30 14208 C 1353.88 -0.0414484 -5.26184 0
M  V30 14209 O 1352.91 -0.669403 -5.6525 0
M  V30 14210 N 1354.11 1.22783 -5.67366 0
M  V30 14211 H 1356.88 -1.46013 -2.61726 0
M  V30 14212 H 1354.44 -0.912655 -1.33724 0
M  V30 14213 H 1356.43 0.66522 -3.99195 0
M  V30 14214 H 1355 0.965879 -2.97304 0
M  V30 14215 H 1354.22 -1.41768 -3.67825 0
M  V30 14216 H 1355.51 -1.38592 -4.89561 0
M  V30 14217 H 1354.91 1.75867 -5.37668 0
M  V30 14218 H 1353.46 1.65752 -6.30372 0
M  V30 14219 N 1356.9 1.35099 -0.81154 0
M  V30 14220 C 1358.17 1.93009 -0.317289 0
M  V30 14221 C 1358.55 1.74101 1.19382 0
M  V30 14222 O 1357.9 1.11295 1.99564 0
M  V30 14223 C 1358.11 3.41191 -0.734123 0
M  V30 14224 C 1359.46 4.1834 -0.726437 0
M  V30 14225 O 1360.48 3.49727 -0.67598 0
M  V30 14226 O 1359.34 5.4077 -0.789291 0
M  V30 14227 H 1356.44 0.822707 -0.084153 0
M  V30 14228 H 1358.98 1.44145 -0.895569 0
M  V30 14229 H 1357.75 3.48705 -1.7754 0
M  V30 14230 H 1357.38 3.97384 -0.130919 0
M  V30 14231 N 1358.37 0.56548 1.47106 0
M  V30 14232 C 1359.32 -0.198133 2.27137 0
M  V30 14233 C 1360.31 -0.877743 1.3485 0
M  V30 14234 O 1361.5 -0.774683 1.59147 0
M  V30 14235 C 1358.63 -1.22223 3.20806 0
M  V30 14236 C 1357.71 -0.545616 4.20576 0
M  V30 14237 N 1358.11 0.389029 5.04302 0
M  V30 14238 C 1356.4 -0.798517 4.38793 0
M  V30 14239 C 1357.1 0.782852 5.76408 0
M  V30 14240 N 1356.08 0.13583 5.4343 0
M  V30 14241 H 1359.88 0.520354 2.89257 0
M  V30 14242 H 1357.4 0.386013 1.57746 0
M  V30 14243 H 1359.39 -1.78332 3.76833 0
M  V30 14244 H 1358.05 -1.94172 2.60244 0
M  V30 14245 H 1359.06 0.763644 5.12239 0
M  V30 14246 H 1355.74 -1.50589 3.89396 0
M  V30 14247 H 1357.13 1.55133 6.53746 0
M  V30 14248 N 1359.85 -1.54672 0.302354 0
M  V30 14249 C 1361.08 -2.04282 -0.308645 0
M  V30 14250 C 1361.49 -1.17912 -1.47965 0
M  V30 14251 O 1360.83 -0.197723 -1.82633 0
M  V30 14252 C 1360.9 -3.49872 -0.826417 0
M  V30 14253 C 1360.56 -4.56473 0.219486 0
M  V30 14254 C 1361.56 -5.0922 1.0484 0
M  V30 14255 C 1359.24 -5.00997 0.361574 0
M  V30 14256 C 1361.24 -6.05033 2.00533 0
M  V30 14257 C 1358.92 -5.9663 1.32195 0
M  V30 14258 C 1359.92 -6.48532 2.1423 0
M  V30 14259 O 1359.61 -7.42292 3.08639 0
M  V30 14260 H 1359.34 -0.67228 -0.0708187 0
M  V30 14261 H 1361.89 -2.00625 0.440314 0
M  V30 14262 H 1360.12 -3.50857 -1.62593 0
M  V30 14263 H 1361.81 -3.8267 -1.35345 0
M  V30 14264 H 1362.58 -4.75615 0.949501 0
M  V30 14265 H 1358.46 -4.60226 -0.267018 0
M  V30 14266 H 1362 -6.45469 2.64604 0
M  V30 14267 H 1357.9 -6.29652 1.42156 0
M  V30 14268 H 1358.67 -7.60098 3.03633 0
M  V30 14269 N 1361.33 -0.0301034 -1.57571 0
M  V30 14270 C 1362.24 0.967086 -2.1374 0
M  V30 14271 C 1363.26 1.35636 -1.0899 0
M  V30 14272 O 1364.43 1.43758 -1.41052 0
M  V30 14273 C 1361.5 2.23058 -2.65417 0
M  V30 14274 C 1360.56 1.90163 -3.84885 0
M  V30 14275 C 1359.79 3.10488 -4.34088 0
M  V30 14276 O 1360.01 4.23179 -3.8246 0
M  V30 14277 O 1358.95 2.92729 -5.25921 0
M  V30 14278 H 1362.77 0.519486 -2.99224 0
M  V30 14279 H 1360.36 0.190559 -1.4818 0
M  V30 14280 H 1362.24 2.97229 -2.98719 0
M  V30 14281 H 1360.92 2.66997 -1.83015 0
M  V30 14282 H 1359.82 1.13373 -3.56507 0
M  V30 14283 H 1361.16 1.51039 -4.68453 0
M  V30 14284 N 1362.81 1.55714 0.243056 0
M  V30 14285 C 1364.03 1.82126 0.992219 0
M  V30 14286 C 1364.46 0.607665 1.78014 0
M  V30 14287 O 1363.82 -0.443351 1.75796 0
M  V30 14288 C 1363.86 3.06314 1.90274 0
M  V30 14289 O 1362.97 2.83499 2.99503 0
M  V30 14290 H 1362.31 0.601082 0.282128 0
M  V30 14291 H 1364.84 2.02904 0.262881 0
M  V30 14292 H 1364.85 3.35849 2.31666 0
M  V30 14293 H 1363.52 3.94282 1.32344 0
M  V30 14294 H 1362.1 2.65141 2.62211 0
M  V30 14295 N 1364.29 -0.50888 1.49158 0
M  V30 14296 C 1365.22 -1.62008 1.68154 0
M  V30 14297 C 1366.2 -1.61624 0.53025 0
M  V30 14298 O 1367.38 -1.78489 0.765205 0
M  V30 14299 C 1364.51 -3.00525 1.74075 0
M  V30 14300 C 1363.47 -3.15773 2.88915 0
M  V30 14301 C 1362.79 -4.55562 2.79942 0
M  V30 14302 C 1364.09 -2.96542 4.29953 0
M  V30 14303 H 1365.79 -1.46365 2.61185 0
M  V30 14304 H 1363.33 -0.702705 1.2569 0
M  V30 14305 H 1365.29 -3.78154 1.8595 0
M  V30 14306 H 1364.01 -3.17238 0.776373 0
M  V30 14307 H 1362.67 -2.40567 2.76628 0
M  V30 14308 H 1362.32 -4.6914 1.81429 0
M  V30 14309 H 1362.02 -4.66706 3.57015 0
M  V30 14310 H 1363.54 -5.35262 2.93814 0
M  V30 14311 H 1364.95 -3.63947 4.42963 0
M  V30 14312 H 1363.35 -3.19164 5.08187 0
M  V30 14313 H 1364.42 -1.92745 4.44946 0
M  V30 14314 N 1365.76 -1.381 -0.759346 0
M  V30 14315 C 1366.71 -1.34866 -1.87296 0
M  V30 14316 C 1367.68 -0.212139 -1.6474 0
M  V30 14317 O 1368.87 -0.403464 -1.86485 0
M  V30 14318 C 1366.01 -1.17383 -3.24523 0
M  V30 14319 C 1365.12 -2.40372 -3.5895 0
M  V30 14320 C 1364.25 -2.15665 -4.8545 0
M  V30 14321 C 1363.29 -3.34455 -5.12646 0
M  V30 14322 N 1362.43 -3.0922 -6.30339 0
M  V30 14323 H 1367.27 -2.30072 -1.89396 0
M  V30 14324 H 1364.81 -1.14314 -0.925788 0
M  V30 14325 H 1366.77 -1.05264 -4.03702 0
M  V30 14326 H 1365.4 -0.258182 -3.21766 0
M  V30 14327 H 1364.45 -2.63185 -2.74659 0
M  V30 14328 H 1365.76 -3.28926 -3.74978 0
M  V30 14329 H 1364.91 -2.00649 -5.7256 0
M  V30 14330 H 1363.65 -1.24467 -4.7155 0
M  V30 14331 H 1362.66 -3.49997 -4.24007 0
M  V30 14332 H 1363.88 -4.26521 -5.28448 0
M  V30 14333 H 1361.83 -2.20664 -6.17773 0
M  V30 14334 H 1361.75 -3.91321 -6.46841 0
M  V30 14335 H 1363.01 -2.97847 -7.20352 0
M  V30 14336 N 1367.24 0.986894 -1.22875 0
M  V30 14337 C 1368.15 2.11232 -1.02069 0
M  V30 14338 C 1369.17 1.73969 0.0328424 0
M  V30 14339 O 1370.34 2.00754 -0.161197 0
M  V30 14340 C 1367.41 3.41337 -0.60747 0
M  V30 14341 C 1366.47 3.92665 -1.73531 0
M  V30 14342 C 1365.7 5.1656 -1.34171 0
M  V30 14343 O 1365.93 5.69964 -0.223106 0
M  V30 14344 O 1364.86 5.61791 -2.16041 0
M  V30 14345 H 1368.69 2.3167 -1.96374 0
M  V30 14346 H 1366.27 1.09607 -1.01522 0
M  V30 14347 H 1368.15 4.19613 -0.387661 0
M  V30 14348 H 1366.83 3.22244 0.306653 0
M  V30 14349 H 1365.74 3.15534 -2.0097 0
M  V30 14350 H 1367.07 4.162 -2.62751 0
M  V30 14351 N 1368.72 1.0394 1.18466 0
M  V30 14352 C 1370.14 0.758404 1.40429 0
M  V30 14353 C 1370.34 -0.652603 1.90639 0
M  V30 14354 O 1369.39 -1.417 2.08991 0
M  V30 14355 C 1370.71 1.80343 2.40618 0
M  V30 14356 C 1372.25 1.82419 2.54347 0
M  V30 14357 C 1372.73 2.8591 3.57798 0
M  V30 14358 N 1374.22 2.84793 3.65304 0
M  V30 14359 C 1374.95 3.61521 4.45073 0
M  V30 14360 N 1374.45 4.47997 5.28461 0
M  V30 14361 N 1376.24 3.50016 4.39824 0
M  V30 14362 H 1368.39 1.94998 0.842 0
M  V30 14363 H 1370.66 0.843649 0.43239 0
M  V30 14364 H 1370.36 2.81547 2.10771 0
M  V30 14365 H 1370.24 1.63451 3.39947 0
M  V30 14366 H 1372.62 0.818872 2.83511 0
M  V30 14367 H 1372.71 2.03388 1.55136 0
M  V30 14368 H 1372.35 3.8662 3.29375 0
M  V30 14369 H 1372.28 2.62196 4.56684 0
M  V30 14370 H 1374.77 2.22082 3.05758 0
M  V30 14371 H 1375.08 5.03257 5.86475 0
M  V30 14372 H 1373.43 4.52065 5.27885 0
M  V30 14373 H 1376.62 2.81862 3.73726 0
M  V30 14374 H 1376.79 4.10063 5.0175 0
M  V30 14375 N 1370.2 -1.34667 0.818693 0
M  V30 14376 C 1371.61 -1.51436 0.503921 0
M  V30 14377 C 1371.81 -1.76468 -0.972691 0
M  V30 14378 O 1370.87 -1.81314 -1.75731 0
M  V30 14379 C 1372.18 -2.68198 1.35978 0
M  V30 14380 C 1373.73 -2.8208 1.35647 0
M  V30 14381 C 1374.21 -4.01881 2.19672 0
M  V30 14382 N 1375.7 -4.0908 2.17273 0
M  V30 14383 C 1376.43 -5.00925 2.79038 0
M  V30 14384 N 1375.93 -5.9802 3.49777 0
M  V30 14385 N 1377.72 -4.93764 2.68615 0
M  V30 14386 H 1369.87 -1.16677 1.77483 0
M  V30 14387 H 1372.14 -0.571873 0.756085 0
M  V30 14388 H 1371.84 -2.56317 2.4082 0
M  V30 14389 H 1371.72 -3.63105 1.0215 0
M  V30 14390 H 1374.1 -2.93405 0.315849 0
M  V30 14391 H 1374.18 -1.87994 1.7347 0
M  V30 14392 H 1373.83 -3.91316 3.23781 0
M  V30 14393 H 1373.76 -4.95171 1.79202 0
M  V30 14394 H 1376.25 -3.3958 1.65814 0
M  V30 14395 H 1376.56 -6.64722 3.94162 0
M  V30 14396 H 1374.91 -5.98157 3.53883 0
M  V30 14397 H 1378.1 -4.16868 2.12929 0
M  V30 14398 H 1378.27 -5.65147 3.17038 0
M  V30 14399 N 1371.68 -0.573274 -1.46804 0
M  V30 14400 C 1372.91 -0.0605105 -2.06511 0
M  V30 14401 C 1373.31 1.24572 -1.42403 0
M  V30 14402 O 1372.66 1.76182 -0.520168 0
M  V30 14403 C 1372.72 0.189394 -3.59001 0
M  V30 14404 C 1372.38 -1.02981 -4.45246 0
M  V30 14405 C 1373.38 -1.93948 -4.82369 0
M  V30 14406 C 1371.07 -1.249 -4.86524 0
M  V30 14407 C 1373.06 -3.0519 -5.59587 0
M  V30 14408 C 1370.75 -2.36449 -5.63503 0
M  V30 14409 C 1371.74 -3.26424 -5.99947 0
M  V30 14410 O 1371.43 -4.36037 -6.75372 0
M  V30 14411 H 1371.16 -0.0501758 -0.674135 0
M  V30 14412 H 1373.72 -0.790951 -1.8956 0
M  V30 14413 H 1371.95 0.974337 -3.74224 0
M  V30 14414 H 1373.64 0.649506 -4.0067 0
M  V30 14415 H 1374.4 -1.78226 -4.51066 0
M  V30 14416 H 1370.28 -0.55779 -4.57613 0
M  V30 14417 H 1373.83 -3.75444 -5.87952 0
M  V30 14418 H 1369.72 -2.52138 -5.94219 0
M  V30 14419 H 1370.49 -4.34285 -6.93786 0
M  V30 14420 N 1373.15 1.5451 -0.310553 0
M  V30 14421 C 1374.08 2.26827 0.554243 0
M  V30 14422 C 1375.07 1.27133 1.13009 0
M  V30 14423 O 1376.25 1.55923 1.15765 0
M  V30 14424 C 1373.38 3.01626 1.7216 0
M  V30 14425 C 1372.33 4.08547 1.27566 0
M  V30 14426 C 1371.66 4.71115 2.52893 0
M  V30 14427 C 1372.96 5.20766 0.399955 0
M  V30 14428 H 1374.65 2.9936 -0.0489475 0
M  V30 14429 H 1372.2 1.43978 -0.0249817 0
M  V30 14430 H 1374.15 3.50942 2.33276 0
M  V30 14431 H 1372.88 2.26688 2.35118 0
M  V30 14432 H 1371.54 3.60096 0.687499 0
M  V30 14433 H 1371.18 3.92805 3.14186 0
M  V30 14434 H 1370.88 5.43331 2.23752 0
M  V30 14435 H 1372.41 5.23198 3.14796 0
M  V30 14436 H 1373.82 5.65918 0.917054 0
M  V30 14437 H 1372.22 5.9976 0.2019 0
M  V30 14438 H 1373.29 4.81508 -0.572537 0
M  V30 14439 N 1374.63 0.0384594 1.57553 0
M  V30 14440 C 1376.04 -0.499057 1.79906 0
M  V30 14441 C 1376.4 -1.7169 0.949577 0
M  V30 14442 O 1375.52 -2.15788 0.162584 0
M  V30 14443 C 1376.12 -0.912155 3.2629 0
M  V30 14444 C 1374.67 -1.39473 3.49606 0
M  V30 14445 C 1373.82 -0.363859 2.74902 0
M  V30 14446 H 1376.77 0.264433 1.56481 0
M  V30 14447 H 1376.79 -1.77592 3.36513 0
M  V30 14448 H 1376.31 -0.0255928 3.88092 0
M  V30 14449 H 1374.41 -2.3009 2.93068 0
M  V30 14450 H 1374.52 -1.39566 4.58321 0
M  V30 14451 H 1372.88 -0.833993 2.40659 0
M  V30 14452 H 1373.67 0.514398 3.39424 0
M  V30 14453 N 1376.11 -1.55841 -0.234795 0
M  V30 14454 C 1377.04 -1.94344 -1.29432 0
M  V30 14455 C 1378.02 -0.809912 -1.49581 0
M  V30 14456 O 1379.21 -1.07117 -1.61986 0
M  V30 14457 C 1376.34 -2.24866 -2.64675 0
M  V30 14458 C 1375.29 -3.40584 -2.59203 0
M  V30 14459 C 1374.62 -3.56678 -3.98353 0
M  V30 14460 C 1375.92 -4.75935 -2.15135 0
M  V30 14461 H 1377.61 -2.83096 -0.97454 0
M  V30 14462 H 1375.16 -1.36205 -0.467355 0
M  V30 14463 H 1377.11 -2.50392 -3.38942 0
M  V30 14464 H 1375.83 -1.32953 -2.98314 0
M  V30 14465 H 1374.49 -3.15087 -1.87393 0
M  V30 14466 H 1374.14 -2.62164 -4.29277 0
M  V30 14467 H 1373.84 -4.34503 -3.95577 0
M  V30 14468 H 1375.37 -3.84538 -4.74302 0
M  V30 14469 H 1376.78 -5.00753 -2.7914 0
M  V30 14470 H 1375.18 -5.56949 -2.23446 0
M  V30 14471 H 1376.25 -4.72182 -1.10328 0
M  V30 14472 N 1377.59 0.500963 -1.49426 0
M  V30 14473 C 1378.81 1.28383 -1.62888 0
M  V30 14474 C 1379.24 1.85688 -0.300262 0
M  V30 14475 O 1378.6 1.6586 0.73212 0
M  V30 14476 C 1378.65 2.38987 -2.70033 0
M  V30 14477 O 1377.75 3.42837 -2.29208 0
M  V30 14478 H 1377.09 0.379012 -0.545202 0
M  V30 14479 H 1379.62 0.59971 -1.95613 0
M  V30 14480 H 1379.63 2.84749 -2.92202 0
M  V30 14481 H 1378.31 1.96643 -3.66475 0
M  V30 14482 H 1376.88 3.02993 -2.1737 0
M  V30 14483 N 1379.07 1.38501 0.752011 0
M  V30 14484 C 1380 1.31746 1.87551 0
M  V30 14485 C 1381.01 0.229386 1.61176 0
M  V30 14486 O 1382.2 0.487066 1.71726 0
M  V30 14487 C 1379.3 1.01889 3.23221 0
M  V30 14488 C 1378.47 2.21637 3.77088 0
M  V30 14489 C 1377.53 1.885 4.91278 0
M  V30 14490 O 1376.56 2.61011 5.05828 0
M  V30 14491 N 1377.76 0.840909 5.74377 0
M  V30 14492 H 1380.53 2.28561 1.93856 0
M  V30 14493 H 1378.09 1.32383 0.932013 0
M  V30 14494 H 1380.08 0.777704 3.97157 0
M  V30 14495 H 1378.65 0.138658 3.12292 0
M  V30 14496 H 1377.87 2.61812 2.947 0
M  V30 14497 H 1379.16 3.01551 4.0981 0
M  V30 14498 H 1378.56 0.23962 5.65192 0
M  V30 14499 H 1377.11 0.659604 6.48454 0
M  V30 14500 N 1380.55 -0.980364 1.23396 0
M  V30 14501 C 1381.51 -2.05433 1.01635 0
M  V30 14502 C 1382.51 -1.60785 -0.0218244 0
M  V30 14503 O 1383.7 -1.72832 0.217922 0
M  V30 14504 C 1380.83 -3.36631 0.537822 0
M  V30 14505 H 1382.02 -2.26172 1.96943 0
M  V30 14506 H 1379.58 -1.15378 1.05441 0
M  V30 14507 H 1380.31 -3.21581 -0.41903 0
M  V30 14508 H 1380.1 -3.70377 1.28698 0
M  V30 14509 H 1381.59 -4.1562 0.406213 0
M  V30 14510 N 1382.02 -1.04567 -1.17913 0
M  V30 14511 C 1383.44 -0.76584 -1.40025 0
M  V30 14512 C 1383.64 0.642484 -1.90983 0
M  V30 14513 O 1382.7 1.40589 -2.0974 0
M  V30 14514 C 1384.01 -1.81616 -2.39658 0
M  V30 14515 C 1385.56 -1.83765 -2.53376 0
M  V30 14516 C 1386.03 -2.87803 -3.56277 0
M  V30 14517 N 1387.52 -2.86726 -3.63789 0
M  V30 14518 C 1388.26 -3.63876 -4.4315 0
M  V30 14519 N 1387.75 -4.50793 -5.26077 0
M  V30 14520 N 1389.55 -3.52344 -4.37962 0
M  V30 14521 H 1381.7 -1.95442 -0.831647 0
M  V30 14522 H 1383.96 -0.84593 -0.42791 0
M  V30 14523 H 1383.67 -2.8266 -2.09275 0
M  V30 14524 H 1383.54 -1.65251 -3.39075 0
M  V30 14525 H 1385.93 -0.833896 -2.83073 0
M  V30 14526 H 1386.01 -2.04208 -1.54055 0
M  V30 14527 H 1385.65 -3.88361 -3.2732 0
M  V30 14528 H 1385.58 -2.64614 -4.55288 0
M  V30 14529 H 1388.07 -2.237 -3.04576 0
M  V30 14530 H 1388.39 -5.0636 -5.83798 0
M  V30 14531 H 1386.73 -4.54858 -5.2548 0
M  V30 14532 H 1389.92 -2.8384 -3.72226 0
M  V30 14533 H 1390.1 -4.12718 -4.99568 0
M  V30 14534 N 1383.5 1.34231 -0.825823 0
M  V30 14535 C 1384.45 2.29467 -0.247724 0
M  V30 14536 C 1385.42 1.53724 0.629127 0
M  V30 14537 O 1386.6 1.82082 0.570156 0
M  V30 14538 C 1383.74 3.40157 0.582012 0
M  V30 14539 C 1382.86 4.30832 -0.317406 0
M  V30 14540 C 1381.99 5.28627 0.522176 0
M  V30 14541 C 1381.03 6.10941 -0.376448 0
M  V30 14542 N 1380.17 7.00817 0.424232 0
M  V30 14543 H 1385.01 2.78311 -1.06521 0
M  V30 14544 H 1382.54 1.36956 -0.536788 0
M  V30 14545 H 1384.5 4.03021 1.07843 0
M  V30 14546 H 1383.13 2.92539 1.36459 0
M  V30 14547 H 1382.18 3.68805 -0.932054 0
M  V30 14548 H 1383.5 4.88503 -1.00826 0
M  V30 14549 H 1382.65 5.96957 1.08295 0
M  V30 14550 H 1381.39 4.71501 1.24652 0
M  V30 14551 H 1380.39 5.41542 -0.94934 0
M  V30 14552 H 1381.62 6.70149 -1.09895 0
M  V30 14553 H 1379.57 6.46156 1.1322 0
M  V30 14554 H 1379.48 7.55713 -0.208175 0
M  V30 14555 H 1380.75 7.7347 0.967664 0
M  V30 14556 N 1384.98 0.581051 1.46498 0
M  V30 14557 C 1386.2 0.0696654 2.07283 0
M  V30 14558 C 1386.63 -1.22525 1.42721 0
M  V30 14559 O 1385.99 -1.73967 0.510421 0
M  V30 14560 C 1386.04 -0.0843864 3.60501 0
M  V30 14561 O 1385.14 -1.14129 3.96293 0
M  V30 14562 H 1384.48 0.0620572 0.661094 0
M  V30 14563 H 1387.01 0.803522 1.88161 0
M  V30 14564 H 1387.02 -0.29108 4.0696 0
M  V30 14565 H 1385.7 0.861274 4.06884 0
M  V30 14566 H 1384.27 -0.913186 3.61546 0
M  V30 14567 N 1386.46 -1.54343 0.318742 0
M  V30 14568 C 1387.71 -2.00084 -0.284713 0
M  V30 14569 C 1388.03 -1.20855 -1.53033 0
M  V30 14570 O 1387.3 -0.309104 -1.93446 0
M  V30 14571 H 1385.88 -0.739123 -0.108193 0
M  V30 14572 H 1388.54 -1.90002 0.434174 0
M  V30 14573 H 1387.63 -3.07314 -0.544459 0
M  V30 14574 N 1387.94 -0.0468143 -1.5753 0
M  V30 14575 C 1389.18 0.627939 -1.92518 0
M  V30 14576 C 1389.51 1.71107 -0.924801 0
M  V30 14577 O 1388.77 1.95597 0.0635812 0
M  V30 14578 C 1389.06 1.26669 -3.342 0
M  V30 14579 C 1388.73 0.312184 -4.49818 0
M  V30 14580 C 1387.39 0.0495202 -4.81175 0
M  V30 14581 C 1389.74 -0.342228 -5.20075 0
M  V30 14582 C 1387.07 -0.875064 -5.80137 0
M  V30 14583 C 1389.42 -1.25498 -6.20027 0
M  V30 14584 C 1388.09 -1.52636 -6.49814 0
M  V30 14585 H 1387.36 0.229779 -0.704473 0
M  V30 14586 H 1390.01 -0.112363 -1.9117 0
M  V30 14587 H 1388.31 2.08215 -3.31894 0
M  V30 14588 H 1390.01 1.79563 -3.5855 0
M  V30 14589 H 1386.6 0.527088 -4.25347 0
M  V30 14590 H 1390.78 -0.152384 -4.96066 0
M  V30 14591 H 1386.04 -1.09284 -6.01554 0
M  V30 14592 H 1390.21 -1.76815 -6.7358 0
M  V30 14593 H 1387.84 -2.24443 -7.26312 0
M  V30 14594 N 1389.41 1.55964 0.226527 0
M  V30 14595 C 1390.35 1.88487 1.30405 0
M  V30 14596 C 1391.36 0.772723 1.43293 0
M  V30 14597 O 1392.55 1.05099 1.44279 0
M  V30 14598 C 1389.65 2.074 2.68027 0
M  V30 14599 C 1388.82 3.38389 2.77149 0
M  V30 14600 C 1387.88 3.46795 3.95752 0
M  V30 14601 O 1386.91 4.19862 3.84323 0
M  V30 14602 N 1388.11 2.77573 5.09836 0
M  V30 14603 H 1390.87 2.81506 1.02833 0
M  V30 14604 H 1388.43 1.56449 0.416581 0
M  V30 14605 H 1390.43 2.10344 3.45742 0
M  V30 14606 H 1389 1.2103 2.8822 0
M  V30 14607 H 1388.22 3.47586 1.8595 0
M  V30 14608 H 1389.5 4.24688 2.8021 0
M  V30 14609 H 1388.9 2.17979 5.22017 0
M  V30 14610 H 1387.46 2.86185 5.85612 0
M  V30 14611 N 1390.89 -0.493031 1.4969 0
M  V30 14612 C 1391.83 -1.61165 1.61558 0
M  V30 14613 C 1392.8 -1.55828 0.464363 0
M  V30 14614 O 1393.99 -1.7577 0.680973 0
M  V30 14615 C 1391.11 -2.997 1.5779 0
M  V30 14616 C 1390.16 -3.2327 2.78207 0
M  V30 14617 S 1390.99 -3.05531 4.39785 0
M  V30 14618 C 1392.15 -4.46447 4.38675 0
M  V30 14619 H 1392.38 -1.50854 2.56185 0
M  V30 14620 H 1389.92 -0.678777 1.38679 0
M  V30 14621 H 1391.87 -3.79579 1.56302 0
M  V30 14622 H 1390.53 -3.07419 0.644379 0
M  V30 14623 H 1389.73 -4.24422 2.71812 0
M  V30 14624 H 1389.33 -2.51126 2.77149 0
M  V30 14625 H 1391.62 -5.38683 4.10886 0
M  V30 14626 H 1392.56 -4.5789 5.40132 0
M  V30 14627 H 1392.97 -4.27499 3.68652 0
M  V30 14628 N 1392.37 -1.38898 -0.744656 0
M  V30 14629 C 1393.65 -1.2611 -1.49518 0
M  V30 14630 C 1394.03 0.133592 -2.10677 0
M  V30 14631 O 1393.38 1.14394 -1.97804 0
M  V30 14632 C 1393.59 -2.37809 -2.55437 0
M  V30 14633 C 1394.93 -2.76664 -3.22091 0
M  V30 14634 O 1395.96 -2.37187 -2.65746 0
M  V30 14635 O 1394.82 -3.44771 -4.24023 0
M  V30 14636 H 1391.91 -0.493664 -0.663494 0
M  V30 14637 H 1394.46 -1.50748 -0.779304 0
M  V30 14638 H 1393.23 -3.31089 -2.08556 0
M  V30 14639 H 1392.85 -2.14783 -3.34595 0
M  V30 14640 N 1393.85 0.973806 -1.23914 0
M  V30 14641 C 1395.09 1.71927 -1.08685 0
M  V30 14642 C 1395.45 1.88781 0.371428 0
M  V30 14643 O 1394.74 1.43378 1.27095 0
M  V30 14644 C 1394.94 3.11441 -1.75326 0
M  V30 14645 C 1394.77 3.08196 -3.27483 0
M  V30 14646 C 1393.54 3.13018 -3.96671 0
M  V30 14647 C 1395.73 2.90848 -4.2416 0
M  V30 14648 N 1393.72 2.99727 -5.35758 0
M  V30 14649 C 1395.09 2.85789 -5.50204 0
M  V30 14650 C 1397.14 2.75382 -4.14812 0
M  V30 14651 C 1395.84 2.66847 -6.67971 0
M  V30 14652 C 1397.87 2.57806 -5.3225 0
M  V30 14653 C 1397.23 2.53451 -6.57223 0
M  V30 14654 H 1393.33 0.637935 -0.452286 0
M  V30 14655 H 1395.92 1.15502 -1.5674 0
M  V30 14656 H 1394.09 3.66071 -1.29794 0
M  V30 14657 H 1395.82 3.74659 -1.53012 0
M  V30 14658 H 1392.57 3.21458 -3.47795 0
M  V30 14659 H 1393 2.96339 -6.08697 0
M  V30 14660 H 1397.64 2.77535 -3.18958 0
M  V30 14661 H 1395.36 2.63438 -7.63954 0
M  V30 14662 H 1398.94 2.46793 -5.26863 0
M  V30 14663 H 1397.82 2.40023 -7.46565 0
M  V30 14664 N 1395.33 1.05191 1.17357 0
M  V30 14665 C 1396.26 0.673931 2.23563 0
M  V30 14666 C 1397.24 -0.328284 1.66902 0
M  V30 14667 O 1398.42 -0.205878 1.93106 0
M  V30 14668 C 1395.55 0.0478801 3.47267 0
M  V30 14669 C 1394.51 0.974855 4.1675 0
M  V30 14670 C 1393.83 0.212684 5.34277 0
M  V30 14671 C 1395.13 2.299 4.68981 0
M  V30 14672 H 1396.83 1.56183 2.55436 0
M  V30 14673 H 1394.37 0.752408 1.2278 0
M  V30 14674 H 1396.33 -0.228343 4.20781 0
M  V30 14675 H 1395.05 -0.874963 3.14662 0
M  V30 14676 H 1393.71 1.23564 3.45148 0
M  V30 14677 H 1393.36 -0.712924 4.97922 0
M  V30 14678 H 1393.06 0.830351 5.81703 0
M  V30 14679 H 1394.58 -0.056255 6.10574 0
M  V30 14680 H 1395.99 2.08269 5.34132 0
M  V30 14681 H 1394.39 2.87064 5.26986 0
M  V30 14682 H 1395.46 2.93759 3.8579 0
M  V30 14683 N 1396.8 -1.33791 0.83293 0
M  V30 14684 C 1398.03 -2.0272 0.438111 0
M  V30 14685 C 1398.45 -1.62279 -0.951163 0
M  V30 14686 O 1397.81 -0.812406 -1.62079 0
M  V30 14687 C 1397.86 -3.5623 0.559698 0
M  V30 14688 O 1396.96 -4.10292 -0.41646 0
M  V30 14689 H 1396.31 -0.639438 0.178928 0
M  V30 14690 H 1398.84 -1.70821 1.12612 0
M  V30 14691 H 1398.85 -4.0563 0.439148 0
M  V30 14692 H 1397.52 -3.8501 1.5729 0
M  V30 14693 H 1396.1 -3.72034 -0.25396 0
M  V30 14694 N 1398.28 -0.588812 -1.46187 0
M  V30 14695 C 1399.19 0.143253 -2.34162 0
M  V30 14696 C 1400.21 0.879779 -1.5012 0
M  V30 14697 O 1401.38 0.841592 -1.82973 0
M  V30 14698 C 1398.45 1.14017 -3.27416 0
M  V30 14699 C 1397.51 0.407651 -4.2736 0
M  V30 14700 C 1396.74 1.35708 -5.16158 0
M  V30 14701 O 1396.97 2.59394 -5.08007 0
M  V30 14702 O 1395.9 0.864343 -5.95662 0
M  V30 14703 H 1399.73 -0.579228 -2.98125 0
M  V30 14704 H 1397.31 -0.349174 -1.45262 0
M  V30 14705 H 1399.19 1.71484 -3.8493 0
M  V30 14706 H 1397.87 1.84401 -2.66041 0
M  V30 14707 H 1396.78 -0.209011 -3.73516 0
M  V30 14708 H 1398.11 -0.255334 -4.91537 0
M  V30 14709 N 1399.76 1.54172 -0.326923 0
M  V30 14710 C 1401.17 1.86009 0.160446 0
M  V30 14711 C 1401.52 1.24851 1.51349 0
M  V30 14712 O 1400.65 0.555804 2.09141 0
M  V30 14713 C 1401.24 3.37488 0.297909 0
M  V30 14714 C 1399.8 3.69263 0.7295 0
M  V30 14715 C 1398.95 2.76911 -0.146778 0
M  V30 14716 H 1401.9 1.48972 -0.547093 0
M  V30 14717 H 1401.92 3.63388 1.12825 0
M  V30 14718 H 1401.43 3.81971 -0.687007 0
M  V30 14719 H 1399.53 3.30314 1.72404 0
M  V30 14720 H 1399.65 4.76149 0.53092 0
M  V30 14721 H 1398.01 2.51876 0.378212 0
M  V30 14722 H 1398.79 3.24221 -1.12852 0
M  V30 14723 N 1401.24 0.0551678 1.57503 0
M  V30 14724 C 1402.19 -0.927586 2.08278 0
M  V30 14725 C 1403.17 -1.26931 0.988802 0
M  V30 14726 O 1404.36 -1.25107 1.25209 0
M  V30 14727 C 1401.49 -2.20105 2.63456 0
M  V30 14728 C 1400.58 -1.88654 3.7983 0
M  V30 14729 N 1400.97 -1.2758 4.89446 0
M  V30 14730 C 1399.27 -2.185 3.8881 0
M  V30 14731 C 1399.97 -1.13848 5.7045 0
M  V30 14732 N 1398.95 -1.6427 5.18186 0
M  V30 14733 H 1402.75 -0.450784 2.90422 0
M  V30 14734 H 1400.26 -0.149178 1.61713 0
M  V30 14735 H 1402.26 -2.9141 2.98137 0
M  V30 14736 H 1400.92 -2.68388 1.82752 0
M  V30 14737 H 1401.93 -0.947506 5.09159 0
M  V30 14738 H 1398.61 -2.69276 3.19056 0
M  V30 14739 H 1400 -0.664014 6.68611 0
M  V30 14740 N 1402.72 -1.56081 -0.218252 0
M  V30 14741 C 1404.13 -1.69397 -0.784964 0
M  V30 14742 C 1404.48 -0.65775 -1.84846 0
M  V30 14743 O 1403.6 0.190478 -2.1556 0
M  V30 14744 C 1404.2 -3.07114 -1.4306 0
M  V30 14745 C 1402.76 -3.22273 -1.94466 0
M  V30 14746 C 1401.9 -2.65327 -0.80604 0
M  V30 14747 H 1404.86 -1.58699 0.0064566 0
M  V30 14748 H 1404.88 -3.03156 -2.2995 0
M  V30 14749 H 1404.39 -3.8251 -0.656335 0
M  V30 14750 H 1402.49 -2.51752 -2.74684 0
M  V30 14751 H 1402.6 -4.29526 -2.12237 0
M  V30 14752 H 1400.97 -2.23894 -1.21423 0
M  V30 14753 H 1401.75 -3.43271 -0.0443928 0
M  V30 14754 N 1404.2 0.485086 -1.49949 0
M  V30 14755 C 1405.44 1.23999 -1.60474 0
M  V30 14756 C 1405.77 1.91904 -0.297736 0
M  V30 14757 O 1405.05 1.81472 0.699857 0
M  V30 14758 C 1405.33 2.2946 -2.77525 0
M  V30 14759 C 1405.19 1.65952 -4.18067 0
M  V30 14760 C 1406.5 3.30893 -2.90169 0
M  V30 14761 H 1403.62 0.449462 -0.584083 0
M  V30 14762 H 1406.27 0.535795 -1.82289 0
M  V30 14763 H 1404.42 2.89521 -2.59056 0
M  V30 14764 H 1406.09 1.09596 -4.48092 0
M  V30 14765 H 1404.33 0.963079 -4.22974 0
M  V30 14766 H 1405 2.42521 -4.9587 0
M  V30 14767 H 1407.48 2.8084 -3.07031 0
M  V30 14768 H 1406.35 4.02027 -3.73718 0
M  V30 14769 H 1406.61 3.94178 -2.0019 0
M  V30 14770 N 1405.67 1.39291 0.737279 0
M  V30 14771 C 1406.62 1.37829 1.85127 0
M  V30 14772 C 1407.59 0.238321 1.64381 0
M  V30 14773 O 1408.78 0.433081 1.8582 0
M  V30 14774 C 1405.92 1.22531 3.22615 0
M  V30 14775 C 1405.03 2.46052 3.55081 0
M  V30 14776 C 1404.16 2.2336 4.81958 0
M  V30 14777 C 1403.2 3.42569 5.0726 0
M  V30 14778 N 1402.34 3.19209 6.2534 0
M  V30 14779 H 1407.18 2.33056 1.85712 0
M  V30 14780 H 1404.72 1.15772 0.907484 0
M  V30 14781 H 1406.67 1.11673 4.01976 0
M  V30 14782 H 1405.3 0.30934 3.21314 0
M  V30 14783 H 1404.36 2.67521 2.70438 0
M  V30 14784 H 1405.67 3.3485 3.69698 0
M  V30 14785 H 1404.82 2.09732 5.69295 0
M  V30 14786 H 1403.56 1.31953 4.6951 0
M  V30 14787 H 1402.57 3.56698 4.18386 0
M  V30 14788 H 1403.79 4.34874 5.21595 0
M  V30 14789 H 1401.74 2.30464 6.14184 0
M  V30 14790 H 1401.65 4.01562 6.40534 0
M  V30 14791 H 1402.92 3.09269 7.15523 0
M  V30 14792 N 1407.15 -0.967221 1.24429 0
M  V30 14793 C 1408.56 -1.52488 1.07723 0
M  V30 14794 C 1408.91 -1.93031 -0.351191 0
M  V30 14795 O 1408.04 -1.77376 -1.23963 0
M  V30 14796 C 1408.63 -2.77107 1.94929 0
M  V30 14797 C 1407.19 -3.29227 1.82446 0
M  V30 14798 C 1406.34 -2.02133 1.89835 0
M  V30 14799 H 1409.29 -0.785465 1.37899 0
M  V30 14800 H 1409.31 -3.50459 1.48186 0
M  V30 14801 H 1408.82 -2.47567 2.98885 0
M  V30 14802 H 1406.92 -3.63617 0.813246 0
M  V30 14803 H 1407.04 -3.98095 2.66566 0
M  V30 14804 H 1405.4 -2.16867 1.3357 0
M  V30 14805 H 1406.18 -1.74958 2.95372 0
M  V30 14806 N 1408.63 -1.05812 -1.16797 0
M  V30 14807 C 1409.86 -0.792519 -1.9112 0
M  V30 14808 C 1410.27 0.652549 -1.77164 0
M  V30 14809 O 1409.63 1.44633 -1.113 0
M  V30 14810 C 1409.68 -1.17172 -3.41984 0
M  V30 14811 O 1409.4 -2.56008 -3.55516 0
M  V30 14812 C 1410.9 -0.933162 -4.33367 0
M  V30 14813 H 1408.12 -0.28768 -0.606202 0
M  V30 14814 H 1410.67 -1.41046 -1.48075 0
M  V30 14815 H 1408.82 -0.598413 -3.8275 0
M  V30 14816 H 1409.24 -2.71053 -4.49033 0
M  V30 14817 H 1410.71 -1.24817 -5.37703 0
M  V30 14818 H 1411.19 0.131345 -4.39004 0
M  V30 14819 H 1411.79 -1.49062 -3.98322 0
M  V30 14820 N 1410.11 1.33347 -0.840014 0
M  V30 14821 C 1411.35 1.97745 -0.436274 0
M  V30 14822 C 1411.68 1.66538 1.00475 0
M  V30 14823 O 1410.94 0.938137 1.71748 0
M  V30 14824 C 1411.24 3.52239 -0.605173 0
M  V30 14825 C 1410.9 4.03398 -2.01446 0
M  V30 14826 C 1409.56 4.1708 -2.39994 0
M  V30 14827 C 1411.92 4.3071 -2.93494 0
M  V30 14828 C 1409.24 4.55409 -3.69891 0
M  V30 14829 C 1411.6 4.70491 -4.22873 0
M  V30 14830 C 1410.26 4.82379 -4.61375 0
M  V30 14831 H 1409.53 0.723599 -0.159644 0
M  V30 14832 H 1412.18 1.59003 -1.06725 0
M  V30 14833 H 1410.48 3.91648 0.109116 0
M  V30 14834 H 1412.18 4.00069 -0.273056 0
M  V30 14835 H 1408.77 3.93224 -1.70508 0
M  V30 14836 H 1412.95 4.19661 -2.64949 0
M  V30 14837 H 1408.21 4.62806 -3.99525 0
M  V30 14838 H 1412.38 4.9058 -4.94271 0
M  V30 14839 H 1410.01 5.11835 -5.62075 0
M  V30 14840 N 1411.59 0.596556 1.45873 0
M  V30 14841 C 1412.83 0.0850976 2.0152 0
M  V30 14842 C 1413.15 -1.28799 1.47208 0
M  V30 14843 O 1414.35 -1.89156 1.94762 0
M  V30 14844 C 1412.81 0.101488 3.59757 0
M  V30 14845 C 1412.42 1.47374 4.23066 0
M  V30 14846 C 1414.16 -0.355303 4.2301 0
M  V30 14847 C 1412.07 1.44711 5.73422 0
M  V30 14848 H 1411 0.0280444 0.753478 0
M  V30 14849 H 1413.65 0.750255 1.67462 0
M  V30 14850 H 1412.03 -0.630108 3.90955 0
M  V30 14851 H 1413.21 2.22617 4.03458 0
M  V30 14852 H 1411.52 1.87171 3.71962 0
M  V30 14853 H 1414.12 -0.394236 5.33245 0
M  V30 14854 H 1414.46 -1.37573 3.92911 0
M  V30 14855 H 1414.99 0.32267 3.96489 0
M  V30 14856 H 1411.73 2.44479 6.08203 0
M  V30 14857 H 1411.25 0.737102 5.95254 0
M  V30 14858 H 1412.93 1.16598 6.36407 0
M  V30 14859 N 1413.06 -1.53996 0.335095 0
M  V30 14860 C 1414.31 -2.00375 -0.263475 0
M  V30 14861 C 1414.63 -1.22471 -1.51742 0
M  V30 14862 O 1413.9 -0.329604 -1.93107 0
M  V30 14863 H 1412.48 -0.740229 -0.100347 0
M  V30 14864 H 1415.14 -1.89531 0.454302 0
M  V30 14865 H 1414.24 -3.07874 -0.511834 0
M  V30 14866 N 1414.54 -0.0635198 -1.57472 0
M  V30 14867 C 1415.77 0.616735 -1.97494 0
M  V30 14868 C 1416.18 1.63646 -0.941568 0
M  V30 14869 O 1415.54 1.82355 0.0727768 0
M  V30 14870 C 1415.59 1.29268 -3.37597 0
M  V30 14871 O 1415.31 0.313781 -4.36975 0
M  V30 14872 C 1416.81 2.06154 -3.92448 0
M  V30 14873 H 1414.03 0.167753 -0.649692 0
M  V30 14874 H 1416.58 -0.133475 -2.04064 0
M  V30 14875 H 1414.73 1.99404 -3.3214 0
M  V30 14876 H 1415.15 0.797723 -5.18398 0
M  V30 14877 H 1416.62 2.48853 -4.92723 0
M  V30 14878 H 1417.1 2.91474 -3.28541 0
M  V30 14879 H 1417.7 1.40903 -4.01281 0
M  V30 14880 N 1416.02 1.56195 0.209972 0
M  V30 14881 C 1416.95 1.89859 1.28398 0
M  V30 14882 C 1417.96 0.787878 1.42465 0
M  V30 14883 O 1419.15 1.06623 1.43156 0
M  V30 14884 C 1416.25 2.10231 2.65812 0
M  V30 14885 C 1415.43 3.41309 2.73545 0
M  V30 14886 C 1414.49 3.50973 3.92052 0
M  V30 14887 O 1413.51 4.23915 3.79849 0
M  V30 14888 N 1414.71 2.82965 5.06864 0
M  V30 14889 H 1417.48 2.82581 0.998411 0
M  V30 14890 H 1415.04 1.56882 0.399964 0
M  V30 14891 H 1417.03 2.13999 3.43492 0
M  V30 14892 H 1415.6 1.2408 2.8692 0
M  V30 14893 H 1414.82 3.49539 1.82253 0
M  V30 14894 H 1416.11 4.27636 2.7569 0
M  V30 14895 H 1415.51 2.23504 5.19676 0
M  V30 14896 H 1414.06 2.9238 5.82544 0
M  V30 14897 N 1417.5 -0.477127 1.50204 0
M  V30 14898 C 1418.74 -1.23147 1.6113 0
M  V30 14899 C 1419.08 -1.91743 0.307909 0
M  V30 14900 O 1418.35 -1.81841 -0.690223 0
M  V30 14901 C 1418.63 -2.27985 2.78738 0
M  V30 14902 C 1418.49 -1.63733 4.18941 0
M  V30 14903 C 1419.81 -3.29349 2.9192 0
M  V30 14904 H 1416.93 -0.446358 0.586459 0
M  V30 14905 H 1419.57 -0.52612 1.8257 0
M  V30 14906 H 1417.72 -2.88143 2.60588 0
M  V30 14907 H 1419.39 -1.07218 4.48667 0
M  V30 14908 H 1417.63 -0.940634 4.23479 0
M  V30 14909 H 1418.3 -2.39888 4.9715 0
M  V30 14910 H 1420.78 -2.79208 3.08516 0
M  V30 14911 H 1419.66 -4.0004 3.75845 0
M  V30 14912 H 1419.92 -3.93111 2.02278 0
M  V30 14913 N 1418.98 -1.3968 -0.729882 0
M  V30 14914 C 1420.22 -1.37182 -1.48954 0
M  V30 14915 C 1420.55 0.0305728 -1.94476 0
M  V30 14916 O 1419.81 1.0124 -1.67478 0
M  V30 14917 C 1420.11 -2.29499 -2.7398 0
M  V30 14918 C 1419.77 -3.77034 -2.47298 0
M  V30 14919 C 1418.43 -4.17232 -2.39731 0
M  V30 14920 C 1420.79 -4.70325 -2.24597 0
M  V30 14921 C 1418.11 -5.48777 -2.07511 0
M  V30 14922 C 1420.47 -6.02153 -1.93893 0
M  V30 14923 C 1419.13 -6.41409 -1.84798 0
M  V30 14924 H 1418.4 -0.501985 -0.545061 0
M  V30 14925 H 1421.05 -1.72226 -0.837294 0
M  V30 14926 H 1419.35 -1.87592 -3.43972 0
M  V30 14927 H 1421.05 -2.24857 -3.32024 0
M  V30 14928 H 1417.64 -3.45177 -2.54069 0
M  V30 14929 H 1421.82 -4.40097 -2.29408 0
M  V30 14930 H 1417.08 -5.78109 -1.98996 0
M  V30 14931 H 1421.25 -6.73966 -1.75337 0
M  V30 14932 H 1418.88 -7.43258 -1.59598 0
M  V30 14933 N 1420.45 0.960609 -1.2494 0
M  V30 14934 C 1421.36 2.0902 -1.06527 0
M  V30 14935 C 1422.38 1.74 -0.00406641 0
M  V30 14936 O 1423.56 2.00367 -0.203744 0
M  V30 14937 C 1420.62 3.39971 -0.679736 0
M  V30 14938 C 1419.68 3.88895 -1.81821 0
M  V30 14939 C 1418.92 5.13597 -1.45098 0
M  V30 14940 O 1419.14 5.69362 -0.343954 0
M  V30 14941 O 1418.07 5.57083 -2.27909 0
M  V30 14942 H 1421.9 2.27453 -2.01243 0
M  V30 14943 H 1419.48 1.07429 -1.03824 0
M  V30 14944 H 1421.37 4.18696 -0.47658 0
M  V30 14945 H 1420.04 3.22822 0.238231 0
M  V30 14946 H 1418.95 3.11201 -2.07617 0
M  V30 14947 H 1420.28 4.10533 -2.7152 0
M  V30 14948 N 1421.93 1.0643 1.16234 0
M  V30 14949 C 1423.21 0.695256 1.82827 0
M  V30 14950 C 1423.59 -0.823242 1.94386 0
M  V30 14951 O 1422.94 -1.73406 1.48804 0
M  V30 14952 C 1423.15 1.3988 3.19741 0
M  V30 14953 C 1424.5 1.54489 3.95498 0
M  V30 14954 O 1425.52 1.35882 3.29264 0
M  V30 14955 O 1424.38 1.85027 5.14225 0
M  V30 14956 H 1421.47 0.246285 0.789476 0
M  V30 14957 H 1424.02 1.16466 1.23426 0
M  V30 14958 H 1422.79 2.43419 3.06371 0
M  V30 14959 H 1422.41 0.91957 3.8682 0
M  V30 14960 N 1423.41 -1.329 0.847073 0
M  V30 14961 C 1424.64 -2.01418 0.459829 0
M  V30 14962 C 1425.05 -1.63857 -0.945921 0
M  V30 14963 O 1424.39 -0.851946 -1.6275 0
M  V30 14964 C 1424.45 -3.55859 0.510376 0
M  V30 14965 C 1424.12 -4.16824 1.87368 0
M  V30 14966 C 1425.11 -4.35602 2.83808 0
M  V30 14967 C 1422.8 -4.53067 2.16876 0
M  V30 14968 C 1424.79 -4.89782 4.07912 0
M  V30 14969 C 1422.48 -5.06953 3.41235 0
M  V30 14970 C 1423.48 -5.25258 4.36569 0
M  V30 14971 O 1423.17 -5.77995 5.58728 0
M  V30 14972 H 1422.9 -0.651608 0.179952 0
M  V30 14973 H 1425.45 -1.70624 1.14353 0
M  V30 14974 H 1423.68 -3.86015 -0.230145 0
M  V30 14975 H 1425.37 -4.05659 0.139804 0
M  V30 14976 H 1426.14 -4.07942 2.62313 0
M  V30 14977 H 1422.02 -4.3811 1.43461 0
M  V30 14978 H 1425.56 -5.03985 4.82333 0
M  V30 14979 H 1421.46 -5.34045 3.62583 0
M  V30 14980 H 1422.23 -5.96399 5.60581 0
M  V30 14981 N 1424.89 -0.604284 -1.45555 0
M  V30 14982 C 1426.17 -0.0303285 -1.95576 0
M  V30 14983 C 1426.55 1.43661 -1.54676 0
M  V30 14984 O 1425.89 2.13747 -0.807731 0
M  V30 14985 C 1426.1 -0.22497 -3.48274 0
M  V30 14986 C 1427.45 -0.104042 -4.24473 0
M  V30 14987 O 1428.48 -0.154919 -3.55863 0
M  V30 14988 O 1427.33 0.0136297 -5.46498 0
M  V30 14989 H 1424.43 0.0376106 -0.826144 0
M  V30 14990 H 1426.97 -0.674114 -1.55736 0
M  V30 14991 H 1425.75 -1.24391 -3.71002 0
M  V30 14992 H 1425.37 0.454234 -3.94997 0
M  V30 14993 N 1426.37 1.53816 -0.343257 0
M  V30 14994 C 1427.3 2.27951 0.506005 0
M  V30 14995 C 1428.28 1.29502 1.10287 0
M  V30 14996 O 1429.46 1.58344 1.12432 0
M  V30 14997 C 1426.59 3.0521 1.65723 0
M  V30 14998 C 1425.55 4.11161 1.18871 0
M  V30 14999 C 1424.87 4.76373 2.42843 0
M  V30 15000 C 1426.17 5.21498 0.289403 0
M  V30 15001 H 1427.87 2.99189 -0.112435 0
M  V30 15002 H 1425.41 1.43893 -0.055516 0
M  V30 15003 H 1427.37 3.55811 2.2578 0
M  V30 15004 H 1426.09 2.31624 2.30256 0
M  V30 15005 H 1424.75 3.61473 0.610962 0
M  V30 15006 H 1424.4 3.99381 3.05784 0
M  V30 15007 H 1424.1 5.47955 2.12177 0
M  V30 15008 H 1425.62 5.29758 3.03627 0
M  V30 15009 H 1427.03 5.67736 0.796808 0
M  V30 15010 H 1425.43 6.00054 0.0746366 0
M  V30 15011 H 1426.5 4.80185 -0.674543 0
M  V30 15012 N 1427.84 0.0718701 1.57436 0
M  V30 15013 C 1428.78 -0.924911 2.09709 0
M  V30 15014 C 1429.79 -1.26136 1.02925 0
M  V30 15015 O 1430.98 -1.21853 1.30438 0
M  V30 15016 C 1428.08 -2.24072 2.54254 0
M  V30 15017 C 1427.25 -2.0831 3.84611 0
M  V30 15018 C 1426.31 -3.23196 4.15248 0
M  V30 15019 O 1425.34 -2.98184 4.84846 0
M  V30 15020 N 1426.54 -4.48293 3.688 0
M  V30 15021 H 1429.3 -0.478605 2.95854 0
M  V30 15022 H 1426.86 -0.113853 1.61499 0
M  V30 15023 H 1428.86 -2.99835 2.71811 0
M  V30 15024 H 1427.43 -2.60201 1.73246 0
M  V30 15025 H 1426.65 -1.17014 3.76432 0
M  V30 15026 H 1427.93 -1.9503 4.69937 0
M  V30 15027 H 1427.33 -4.71501 3.12575 0
M  V30 15028 H 1425.89 -5.21082 3.91556 0
M  V30 15029 N 1429.32 -1.56304 -0.201686 0
M  V30 15030 C 1430.27 -1.94021 -1.24999 0
M  V30 15031 C 1431.24 -0.799926 -1.45569 0
M  V30 15032 O 1432.42 -1.05752 -1.58811 0
M  V30 15033 C 1429.56 -2.27935 -2.59113 0
M  V30 15034 C 1428.68 -3.54995 -2.46176 0
M  V30 15035 C 1427.81 -3.78262 -3.72949 0
M  V30 15036 C 1426.85 -4.9877 -3.54817 0
M  V30 15037 N 1425.99 -5.18325 -4.73586 0
M  V30 15038 H 1430.83 -2.834 -0.92134 0
M  V30 15039 H 1428.37 -1.40252 -0.44359 0
M  V30 15040 H 1430.32 -2.45613 -3.37239 0
M  V30 15041 H 1428.95 -1.41705 -2.90034 0
M  V30 15042 H 1428.01 -3.45401 -1.59381 0
M  V30 15043 H 1429.32 -4.43277 -2.28708 0
M  V30 15044 H 1428.47 -3.96144 -4.59516 0
M  V30 15045 H 1427.21 -2.88299 -3.93364 0
M  V30 15046 H 1426.22 -4.80818 -2.66635 0
M  V30 15047 H 1427.44 -5.90237 -3.35854 0
M  V30 15048 H 1425.39 -4.31308 -4.94277 0
M  V30 15049 H 1425.3 -6.00774 -4.58919 0
M  V30 15050 H 1426.57 -5.40659 -5.61523 0
M  V30 15051 N 1430.8 0.469154 -1.50455 0
M  V30 15052 C 1431.73 1.57493 -1.7239 0
M  V30 15053 C 1432.71 1.60161 -0.572915 0
M  V30 15054 O 1433.9 1.76397 -0.812259 0
M  V30 15055 C 1431.03 2.95804 -1.81981 0
M  V30 15056 C 1429.98 3.08001 -2.97185 0
M  V30 15057 C 1429.31 4.4798 -2.91922 0
M  V30 15058 C 1430.61 2.85039 -4.37665 0
M  V30 15059 H 1432.3 1.39389 -2.64974 0
M  V30 15060 H 1429.85 0.669133 -1.27509 0
M  V30 15061 H 1431.8 3.73091 -1.95911 0
M  V30 15062 H 1430.52 3.15068 -0.86021 0
M  V30 15063 H 1429.18 2.33148 -2.82909 0
M  V30 15064 H 1428.83 4.64165 -1.93803 0
M  V30 15065 H 1428.53 4.57076 -3.69263 0
M  V30 15066 H 1430.05 5.27284 -3.07903 0
M  V30 15067 H 1431.47 3.52074 -4.52456 0
M  V30 15068 H 1429.87 3.05578 -5.16471 0
M  V30 15069 H 1430.94 1.8088 -4.499 0
M  V30 15070 N 1432.28 1.40065 0.722464 0
M  V30 15071 C 1433.52 1.38175 1.48444 0
M  V30 15072 C 1433.86 -0.0182857 1.94191 0
M  V30 15073 O 1433.13 -0.985638 1.67677 0
M  V30 15074 C 1433.42 2.36518 2.71535 0
M  V30 15075 C 1433.27 3.85517 2.31726 0
M  V30 15076 C 1434.59 2.325 3.73673 0
M  V30 15077 H 1431.71 0.503221 0.538458 0
M  V30 15078 H 1434.35 1.7115 0.825087 0
M  V30 15079 H 1432.5 2.08529 3.27793 0
M  V30 15080 H 1434.17 4.24306 1.81003 0
M  V30 15081 H 1432.41 4.01684 1.63807 0
M  V30 15082 H 1433.08 4.49834 3.19928 0
M  V30 15083 H 1435.56 2.57277 3.27029 0
M  V30 15084 H 1434.44 3.03369 4.57447 0
M  V30 15085 H 1434.7 1.33427 4.21485 0
M  V30 15086 N 1433.76 -0.95397 1.25448 0
M  V30 15087 C 1435.03 -1.67502 1.01008 0
M  V30 15088 C 1435.41 -2.05949 -0.463483 0
M  V30 15089 O 1434.76 -1.77336 -1.44098 0
M  V30 15090 C 1434.97 -2.89679 1.94645 0
M  V30 15091 C 1436.32 -3.61617 2.22526 0
M  V30 15092 O 1437.34 -2.99762 1.92409 0
M  V30 15093 O 1436.2 -4.72998 2.73743 0
M  V30 15094 H 1433.3 -0.732917 0.383094 0
M  V30 15095 H 1435.84 -1.00684 1.36605 0
M  V30 15096 H 1434.62 -2.58063 2.94141 0
M  V30 15097 H 1434.24 -3.64228 1.59449 0
M  V30 15098 N 1435.24 -1.07045 -1.15668 0
M  V30 15099 C 1436.47 -0.811567 -1.89992 0
M  V30 15100 C 1436.87 0.638628 -1.78096 0
M  V30 15101 O 1436.22 1.44953 -1.12846 0
M  V30 15102 C 1436.28 -1.13665 -3.41058 0
M  V30 15103 C 1435.94 -2.58681 -3.7674 0
M  V30 15104 C 1436.94 -3.56923 -3.78023 0
M  V30 15105 C 1434.62 -2.94178 -4.07142 0
M  V30 15106 C 1436.62 -4.88699 -4.09209 0
M  V30 15107 C 1434.31 -4.26152 -4.37993 0
M  V30 15108 C 1435.3 -5.23222 -4.39007 0
M  V30 15109 O 1434.99 -6.52826 -4.6912 0
M  V30 15110 H 1434.72 -0.293243 -0.609085 0
M  V30 15111 H 1437.28 -1.42941 -1.47502 0
M  V30 15112 H 1435.51 -0.461762 -3.83933 0
M  V30 15113 H 1437.2 -0.860808 -3.96667 0
M  V30 15114 H 1437.96 -3.30842 -3.54639 0
M  V30 15115 H 1433.84 -2.19272 -4.05513 0
M  V30 15116 H 1437.39 -5.6446 -4.09915 0
M  V30 15117 H 1433.28 -4.51988 -4.60844 0
M  V30 15118 H 1434.05 -6.5793 -4.86898 0
M  V30 15119 N 1436.71 1.32449 -0.85411 0
M  V30 15120 C 1437.96 1.96537 -0.453451 0
M  V30 15121 C 1438.28 1.68344 0.995982 0
M  V30 15122 O 1439.48 2.26166 1.50204 0
M  V30 15123 C 1437.94 3.51785 -0.759934 0
M  V30 15124 C 1437.55 3.88838 -2.22506 0
M  V30 15125 C 1439.29 4.22347 -0.426973 0
M  V30 15126 C 1437.2 5.37129 -2.47479 0
M  V30 15127 H 1436.13 0.735537 -0.165835 0
M  V30 15128 H 1438.78 1.50851 -1.04481 0
M  V30 15129 H 1437.16 3.95879 -0.0980116 0
M  V30 15130 H 1438.33 3.55756 -2.92873 0
M  V30 15131 H 1436.65 3.31299 -2.52249 0
M  V30 15132 H 1439.25 5.31424 -0.590986 0
M  V30 15133 H 1439.59 4.11485 0.631359 0
M  V30 15134 H 1440.12 3.83835 -1.04477 0
M  V30 15135 H 1436.86 5.53012 -3.51935 0
M  V30 15136 H 1436.38 5.71619 -1.8169 0
M  V30 15137 H 1438.06 6.04204 -2.31401 0
M  V30 15138 N 1438.19 0.611994 1.45232 0
M  V30 15139 C 1439.47 0.0407 1.95558 0
M  V30 15140 C 1439.85 -1.42839 1.55436 0
M  V30 15141 O 1439.2 -2.13316 0.819055 0
M  V30 15142 C 1439.41 0.243436 3.4815 0
M  V30 15143 C 1440.75 0.126551 4.24411 0
M  V30 15144 O 1441.78 0.17379 3.55776 0
M  V30 15145 O 1440.64 0.0153526 5.46498 0
M  V30 15146 H 1437.73 -0.0332288 0.826332 0
M  V30 15147 H 1440.28 0.682364 1.55377 0
M  V30 15148 H 1439.05 1.26357 3.70337 0
M  V30 15149 H 1438.67 -0.43328 3.95232 0
M  V30 15150 N 1439.67 -1.53632 0.351409 0
M  V30 15151 C 1440.92 -2.0203 -0.235687 0
M  V30 15152 C 1441.27 -1.23456 -1.47569 0
M  V30 15153 O 1440.56 -0.315958 -1.88977 0
M  V30 15154 C 1440.76 -3.5242 -0.594561 0
M  V30 15155 C 1440.59 -4.45556 0.60911 0
M  V30 15156 C 1439.36 -4.92803 1.11684 0
M  V30 15157 C 1441.55 -4.92845 1.46999 0
M  V30 15158 N 1439.54 -5.6991 2.28201 0
M  V30 15159 C 1440.91 -5.68153 2.48198 0
M  V30 15160 C 1442.96 -4.7494 1.49452 0
M  V30 15161 C 1441.67 -6.27461 3.51689 0
M  V30 15162 C 1443.69 -5.35104 2.51829 0
M  V30 15163 C 1443.05 -6.10286 3.51753 0
M  V30 15164 H 1439.15 -0.780442 -0.0493383 0
M  V30 15165 H 1441.74 -1.88361 0.492752 0
M  V30 15166 H 1439.91 -3.66278 -1.29209 0
M  V30 15167 H 1441.64 -3.87553 -1.16552 0
M  V30 15168 H 1438.39 -4.68639 0.683686 0
M  V30 15169 H 1438.82 -6.13131 2.87053 0
M  V30 15170 H 1443.46 -4.16352 0.73557 0
M  V30 15171 H 1441.18 -6.85153 4.28475 0
M  V30 15172 H 1444.76 -5.23153 2.54563 0
M  V30 15173 H 1443.64 -6.56012 4.29672 0
M  V30 15174 N 1441.15 -0.0802183 -1.57396 0
M  V30 15175 C 1442.09 0.884041 -2.13198 0
M  V30 15176 C 1443.06 1.28975 -1.04664 0
M  V30 15177 O 1444.25 1.37413 -1.32372 0
M  V30 15178 C 1441.39 2.14323 -2.7048 0
M  V30 15179 C 1440.5 1.7894 -3.93198 0
M  V30 15180 C 1439.64 2.99534 -4.38695 0
M  V30 15181 C 1438.68 2.60207 -5.54039 0
M  V30 15182 N 1437.81 3.73587 -5.94455 0
M  V30 15183 H 1442.65 0.40131 -2.95285 0
M  V30 15184 H 1440.19 0.186429 -1.45914 0
M  V30 15185 H 1442.15 2.88046 -3.01804 0
M  V30 15186 H 1440.78 2.60122 -1.91144 0
M  V30 15187 H 1439.83 0.952465 -3.68283 0
M  V30 15188 H 1441.14 1.46012 -4.76951 0
M  V30 15189 H 1440.3 3.81526 -4.71724 0
M  V30 15190 H 1439.04 3.35661 -3.53812 0
M  V30 15191 H 1438.04 1.76638 -5.20652 0
M  V30 15192 H 1439.27 2.2524 -6.40659 0
M  V30 15193 H 1437.21 4.0946 -5.12521 0
M  V30 15194 H 1437.13 3.44455 -6.72969 0
M  V30 15195 H 1438.4 4.56133 -6.3211 0
M  V30 15196 N 1442.63 1.56409 0.193394 0
M  V30 15197 C 1444.04 1.70624 0.757915 0
M  V30 15198 C 1444.39 0.687074 1.83776 0
M  V30 15199 O 1443.51 -0.15616 2.15836 0
M  V30 15200 C 1444.11 3.09352 1.38156 0
M  V30 15201 C 1442.67 3.25326 1.89315 0
M  V30 15202 C 1441.81 2.66576 0.763727 0
M  V30 15203 H 1444.76 1.58668 -0.0317034 0
M  V30 15204 H 1444.79 3.06776 2.25098 0
M  V30 15205 H 1444.3 3.83506 0.595398 0
M  V30 15206 H 1442.4 2.5609 2.70644 0
M  V30 15207 H 1442.51 4.32848 2.05376 0
M  V30 15208 H 1440.88 2.25797 1.17846 0
M  V30 15209 H 1441.66 3.43298 -0.0102243 0
M  V30 15210 N 1444.1 -0.461169 1.50702 0
M  V30 15211 C 1445.35 -1.21251 1.62186 0
M  V30 15212 C 1445.68 -1.91735 0.326818 0
M  V30 15213 O 1444.93 -1.83212 -0.687879 0
M  V30 15214 C 1445.23 -2.27213 2.75879 0
M  V30 15215 C 1444.9 -1.73912 4.16011 0
M  V30 15216 C 1443.56 -1.59097 4.54138 0
M  V30 15217 C 1445.91 -1.34477 5.03553 0
M  V30 15218 C 1443.24 -1.03285 5.77537 0
M  V30 15219 C 1445.59 -0.801027 6.27508 0
M  V30 15220 C 1444.26 -0.639586 6.64429 0
M  V30 15221 H 1443.53 -0.443689 0.593482 0
M  V30 15222 H 1446.17 -0.507035 1.84666 0
M  V30 15223 H 1444.48 -3.03707 2.47526 0
M  V30 15224 H 1446.18 -2.85124 2.81967 0
M  V30 15225 H 1442.77 -1.86413 3.85938 0
M  V30 15226 H 1446.95 -1.44753 4.74721 0
M  V30 15227 H 1442.21 -0.895316 6.04809 0
M  V30 15228 H 1446.38 -0.486842 6.94696 0
M  V30 15229 H 1444.01 -0.204966 7.59924 0
M  V30 15230 N 1445.58 -1.40446 -0.715026 0
M  V30 15231 C 1446.83 -1.38754 -1.47491 0
M  V30 15232 C 1447.16 0.0099443 -1.94497 0
M  V30 15233 O 1446.41 0.99458 -1.68543 0
M  V30 15234 C 1446.71 -2.32392 -2.7153 0
M  V30 15235 C 1446.38 -3.79635 -2.43286 0
M  V30 15236 C 1445.04 -4.19751 -2.35293 0
M  V30 15237 C 1447.39 -4.72681 -2.19596 0
M  V30 15238 C 1444.72 -5.50947 -2.01679 0
M  V30 15239 C 1447.07 -6.04176 -1.87495 0
M  V30 15240 C 1445.73 -6.43333 -1.77985 0
M  V30 15241 H 1445 -0.507738 -0.539706 0
M  V30 15242 H 1447.65 -1.73104 -0.81898 0
M  V30 15243 H 1445.96 -1.91229 -3.41963 0
M  V30 15244 H 1447.65 -2.28366 -3.29621 0
M  V30 15245 H 1444.24 -3.47852 -2.50393 0
M  V30 15246 H 1448.43 -4.42506 -2.24727 0
M  V30 15247 H 1443.68 -5.80187 -1.92854 0
M  V30 15248 H 1447.86 -6.75788 -1.68179 0
M  V30 15249 H 1445.48 -7.44909 -1.51706 0
M  V30 15250 N 1447.06 0.947303 -1.25952 0
M  V30 15251 C 1448.34 1.66964 -1.01894 0
M  V30 15252 C 1448.72 2.06192 0.452555 0
M  V30 15253 O 1448.06 1.78098 1.43156 0
M  V30 15254 C 1448.27 2.88643 -1.96179 0
M  V30 15255 C 1449.62 3.60432 -2.24441 0
M  V30 15256 O 1450.65 2.98737 -1.93996 0
M  V30 15257 O 1449.51 4.7154 -2.76247 0
M  V30 15258 H 1446.6 0.730875 -0.386976 0
M  V30 15259 H 1449.15 0.999577 -1.37137 0
M  V30 15260 H 1447.92 2.565 -2.95506 0
M  V30 15261 H 1447.54 3.63377 -1.61379 0
M  V30 15262 N 1448.54 1.07657 1.15099 0
M  V30 15263 C 1449.78 0.802796 1.86234 0
M  V30 15264 C 1450.12 -0.669555 1.82293 0
M  V30 15265 O 1449.39 -1.49162 1.24823 0
M  V30 15266 C 1449.68 1.3156 3.35208 0
M  V30 15267 C 1449.53 2.85272 3.47764 0
M  V30 15268 C 1450.85 0.934641 4.30061 0
M  V30 15269 H 1447.97 0.293099 0.676212 0
M  V30 15270 H 1450.61 1.33488 1.35207 0
M  V30 15271 H 1448.76 0.86298 3.78794 0
M  V30 15272 H 1450.43 3.38847 3.13018 0
M  V30 15273 H 1448.67 3.23316 2.89222 0
M  V30 15274 H 1449.34 3.16223 4.52446 0
M  V30 15275 H 1451.82 1.3247 3.9445 0
M  V30 15276 H 1450.7 1.32074 5.32774 0
M  V30 15277 H 1450.96 -0.159122 4.41814 0
M  V30 15278 N 1450.02 -1.31994 0.861122 0
M  V30 15279 C 1451.26 -1.97712 0.477669 0
M  V30 15280 C 1451.62 -1.66878 -0.957573 0
M  V30 15281 O 1450.91 -0.950114 -1.66383 0
M  V30 15282 C 1451.1 -3.51232 0.661135 0
M  V30 15283 C 1450.93 -3.96985 2.11266 0
M  V30 15284 C 1449.7 -4.23753 2.75247 0
M  V30 15285 C 1451.9 -4.11577 3.08397 0
M  V30 15286 N 1449.88 -4.55798 4.11243 0
M  V30 15287 C 1451.25 -4.47233 4.29398 0
M  V30 15288 C 1453.31 -3.9393 3.04506 0
M  V30 15289 C 1452.01 -4.67083 5.47015 0
M  V30 15290 C 1454.04 -4.14968 4.21373 0
M  V30 15291 C 1453.4 -4.50947 5.41134 0
M  V30 15292 H 1449.5 -0.749334 0.223657 0
M  V30 15293 H 1452.08 -1.59691 1.11387 0
M  V30 15294 H 1450.25 -3.88362 0.0545925 0
M  V30 15295 H 1451.99 -4.03946 0.246941 0
M  V30 15296 H 1448.74 -4.16064 2.26248 0
M  V30 15297 H 1449.17 -4.75995 4.81412 0
M  V30 15298 H 1453.81 -3.6521 2.1303 0
M  V30 15299 H 1451.53 -4.94655 6.39016 0
M  V30 15300 H 1455.11 -4.02809 4.19805 0
M  V30 15301 H 1453.99 -4.66898 6.3006 0
M  V30 15302 N 1451.49 -0.619688 -1.44906 0
M  V30 15303 C 1452.43 0.130316 -2.28829 0
M  V30 15304 C 1453.44 0.820039 -1.40639 0
M  V30 15305 O 1454.63 0.683401 -1.649 0
M  V30 15306 C 1451.73 1.20618 -3.16709 0
M  V30 15307 C 1450.9 0.60121 -4.33248 0
M  V30 15308 C 1449.96 1.56954 -5.02247 0
M  V30 15309 O 1448.99 1.09112 -5.58644 0
M  V30 15310 N 1450.19 2.90395 -5.02644 0
M  V30 15311 H 1452.95 -0.589867 -2.93838 0
M  V30 15312 H 1450.51 -0.460028 -1.55227 0
M  V30 15313 H 1452.51 1.85404 -3.59732 0
M  V30 15314 H 1451.08 1.82873 -2.53528 0
M  V30 15315 H 1450.3 -0.225015 -3.93557 0
M  V30 15316 H 1451.58 0.177471 -5.0849 0
M  V30 15317 H 1450.98 3.31855 -4.58136 0
M  V30 15318 H 1449.54 3.50572 -5.49493 0
M  V30 15319 N 1452.97 1.53444 -0.359552 0
M  V30 15320 C 1453.9 2.28475 0.4818 0
M  V30 15321 C 1454.88 1.30664 1.08908 0
M  V30 15322 O 1456.07 1.59527 1.10746 0
M  V30 15323 C 1453.2 3.06951 1.62477 0
M  V30 15324 C 1452.15 4.12399 1.14504 0
M  V30 15325 C 1451.48 4.78922 2.37777 0
M  V30 15326 C 1452.78 5.21775 0.234075 0
M  V30 15327 H 1454.47 2.99053 -0.144162 0
M  V30 15328 H 1452.02 1.43826 -0.0707746 0
M  V30 15329 H 1453.97 3.58186 2.21993 0
M  V30 15330 H 1452.7 2.34053 2.27787 0
M  V30 15331 H 1451.35 3.62101 0.572589 0
M  V30 15332 H 1451 4.02602 3.0153 0
M  V30 15333 H 1450.7 5.50175 2.06353 0
M  V30 15334 H 1452.23 5.32948 2.97991 0
M  V30 15335 H 1453.64 5.68549 0.736548 0
M  V30 15336 H 1452.04 6.00099 0.0109887 0
M  V30 15337 H 1453.11 4.79443 -0.725435 0
M  V30 15338 N 1454.45 0.0885642 1.57351 0
M  V30 15339 C 1455.87 -0.268088 1.57332 0
M  V30 15340 C 1456.07 -1.68875 1.09924 0
M  V30 15341 O 1455.12 -2.40385 0.772729 0
M  V30 15342 C 1456.44 -0.0624654 3.00635 0
M  V30 15343 C 1457.98 -0.130717 3.12727 0
M  V30 15344 C 1458.46 0.0468305 4.57976 0
M  V30 15345 N 1459.95 -0.00822093 4.63199 0
M  V30 15346 C 1460.68 0.104497 5.73305 0
M  V30 15347 N 1460.18 0.271682 6.92267 0
M  V30 15348 N 1461.97 0.0462333 5.62081 0
M  V30 15349 H 1454.12 1.01686 1.86477 0
M  V30 15350 H 1456.39 0.397971 0.86042 0
M  V30 15351 H 1456.09 0.918505 3.39494 0
M  V30 15352 H 1455.97 -0.807602 3.68453 0
M  V30 15353 H 1458.35 -1.10219 2.73744 0
M  V30 15354 H 1458.44 0.645801 2.47514 0
M  V30 15355 H 1458.08 1.01514 4.97652 0
M  V30 15356 H 1458.01 -0.7493 5.21242 0
M  V30 15357 H 1460.5 -0.135164 3.77658 0
M  V30 15358 H 1460.81 0.349381 7.7201 0
M  V30 15359 H 1459.16 0.307265 6.9432 0
M  V30 15360 H 1462.35 -0.0831995 4.68026 0
M  V30 15361 H 1462.52 0.137529 6.47854 0
M  V30 15362 N 1455.93 -1.56509 -0.185096 0
M  V30 15363 C 1457.18 -1.80848 -0.902139 0
M  V30 15364 C 1457.5 -0.663295 -1.83372 0
M  V30 15365 O 1456.77 0.317754 -1.93306 0
M  V30 15366 H 1455.35 -0.667108 -0.336119 0
M  V30 15367 H 1458.01 -1.93989 -0.188211 0
M  V30 15368 H 1457.11 -2.74383 -1.48729 0
M  V30 15369 N 1457.41 0.45317 -1.50944 0
M  V30 15370 C 1458.35 1.54885 -1.71112 0
M  V30 15371 C 1459.32 1.56639 -0.552566 0
M  V30 15372 O 1460.51 1.73894 -0.785203 0
M  V30 15373 C 1457.65 2.92729 -1.82766 0
M  V30 15374 C 1456.76 3.00626 -3.10239 0
M  V30 15375 C 1455.9 4.29495 -3.12582 0
M  V30 15376 C 1454.94 4.312 -4.34434 0
M  V30 15377 N 1454.07 5.51568 -4.34415 0
M  V30 15378 H 1458.91 1.36992 -2.64645 0
M  V30 15379 H 1456.45 0.665753 -1.31172 0
M  V30 15380 H 1458.41 3.7269 -1.87505 0
M  V30 15381 H 1457.04 3.09216 -0.926561 0
M  V30 15382 H 1456.09 2.13426 -3.14886 0
M  V30 15383 H 1457.4 2.97746 -4.00186 0
M  V30 15384 H 1456.56 5.17817 -3.16149 0
M  V30 15385 H 1455.29 4.35009 -2.20496 0
M  V30 15386 H 1454.3 3.41272 -4.3106 0
M  V30 15387 H 1455.52 4.27363 -5.27767 0
M  V30 15388 H 1453.47 5.57834 -3.45192 0
M  V30 15389 H 1453.39 5.50504 -5.18152 0
M  V30 15390 H 1454.66 6.41966 -4.42153 0
M  V30 15391 N 1458.88 1.40823 0.707568 0
M  V30 15392 C 1460.11 1.42659 1.49439 0
M  V30 15393 C 1460.52 0.0268475 1.89181 0
M  V30 15394 O 1459.87 -0.961444 1.56531 0
M  V30 15395 C 1459.93 2.26104 2.79494 0
M  V30 15396 C 1459.59 3.7442 2.62027 0
M  V30 15397 C 1460.59 4.66867 2.28759 0
M  V30 15398 C 1458.27 4.18328 2.78042 0
M  V30 15399 C 1460.27 6.01208 2.11727 0
M  V30 15400 C 1457.95 5.52736 2.60627 0
M  V30 15401 C 1458.95 6.43991 2.27518 0
M  V30 15402 O 1458.64 7.75921 2.10243 0
M  V30 15403 H 1458.37 0.488307 0.467475 0
M  V30 15404 H 1460.93 1.85607 0.879719 0
M  V30 15405 H 1459.16 1.77949 3.43323 0
M  V30 15406 H 1460.85 2.19785 3.41247 0
M  V30 15407 H 1461.61 4.34239 2.16012 0
M  V30 15408 H 1457.49 3.47612 3.02798 0
M  V30 15409 H 1461.03 6.724 1.85807 0
M  V30 15410 H 1456.93 5.84947 2.7296 0
M  V30 15411 H 1457.7 7.86938 2.251 0
M  V30 15412 N 1460.36 -0.94061 1.26453 0
M  V30 15413 C 1461.77 -1.50169 1.10934 0
M  V30 15414 C 1462.12 -1.93733 -0.310167 0
M  V30 15415 O 1461.25 -1.79966 -1.20172 0
M  V30 15416 C 1461.84 -2.7291 2.00763 0
M  V30 15417 C 1460.4 -3.25283 1.89388 0
M  V30 15418 C 1459.55 -1.98061 1.9408 0
M  V30 15419 H 1462.5 -0.756038 1.39534 0
M  V30 15420 H 1462.52 -3.47237 1.55586 0
M  V30 15421 H 1462.03 -2.41172 3.04069 0
M  V30 15422 H 1460.14 -3.6181 0.890192 0
M  V30 15423 H 1460.25 -3.92351 2.7495 0
M  V30 15424 H 1458.61 -2.13985 1.3814 0
M  V30 15425 H 1459.4 -1.68654 2.99016 0
M  V30 15426 N 1461.84 -1.08266 -1.14527 0
M  V30 15427 C 1462.79 -0.705807 -2.21633 0
M  V30 15428 C 1463.78 0.287758 -1.66938 0
M  V30 15429 O 1464.99 0.150479 -1.7937 0
M  V30 15430 H 1461.36 -0.210206 -0.722023 0
M  V30 15431 H 1463.33 -1.61855 -2.5069 0
M  V30 15432 C 1462.08 -0.129673 -3.47458 0
M  V30 15433 H 1461.41 -0.885365 -3.89873 0
M  V30 15434 H 1462.85 0.0962264 -4.23891 0
M  V30 15435 C 1461.31 1.13208 -3.1731 0
M  V30 15436 O 1461.84 2.21717 -3.34969 0
M  V30 15437 N 1460.04 1.0419 -2.7128 0
M  V30 15438 H 1459.59 0.15883 -2.5711 0
M  V30 15439 H 1459.55 1.88689 -2.51483 0
M  V30 15440 N 1463.32 1.31536 -0.86811 0
M  V30 15441 C 1464.74 1.49461 -0.559778 0
M  V30 15442 C 1464.94 1.79957 0.906525 0
M  V30 15443 O 1463.99 1.87711 1.68881 0
M  V30 15444 C 1465.3 2.62967 -1.45839 0
M  V30 15445 C 1466.85 2.76851 -1.46023 0
M  V30 15446 C 1467.33 3.93451 -2.34436 0
M  V30 15447 N 1468.82 4.00735 -2.32306 0
M  V30 15448 C 1469.55 4.90223 -2.97437 0
M  V30 15449 N 1469.05 5.84626 -3.71731 0
M  V30 15450 N 1470.84 4.83454 -2.86755 0
M  V30 15451 H 1462.99 1.1001 -1.81691 0
M  V30 15452 H 1465.26 0.543418 -0.776789 0
M  V30 15453 H 1464.96 2.47203 -2.50168 0
M  V30 15454 H 1464.84 3.59063 -1.15556 0
M  V30 15455 H 1467.22 2.9203 -0.424527 0
M  V30 15456 H 1467.3 1.81427 -1.80327 0
M  V30 15457 H 1466.95 3.79029 -3.38082 0
M  V30 15458 H 1466.88 4.88179 -1.97457 0
M  V30 15459 H 1469.37 3.33191 -1.78303 0
M  V30 15460 H 1469.68 6.49635 -4.18562 0
M  V30 15461 H 1468.03 5.84611 -3.75839 0
M  V30 15462 H 1471.22 4.08678 -2.28254 0
M  V30 15463 H 1471.39 5.52991 -3.37795 0
M  V30 15464 N 1464.8 0.627364 1.44575 0
M  V30 15465 C 1466.05 0.130094 2.01681 0
M  V30 15466 C 1466.37 -1.25112 1.49572 0
M  V30 15467 O 1465.64 -1.8305 0.697822 0
M  V30 15468 H 1464.22 0.0451032 0.745637 0
M  V30 15469 H 1466.88 0.813218 1.77124 0
M  V30 15470 H 1465.97 0.0949131 3.11956 0
M  V30 15471 N 1466.28 -1.53251 0.367684 0
M  V30 15472 C 1467.52 -2.01287 -0.221351 0
M  V30 15473 C 1467.85 -1.25489 -1.48603 0
M  V30 15474 O 1467.11 -0.337392 -1.9277 0
M  V30 15475 C 1467.4 -3.53031 -0.557149 0
M  V30 15476 C 1467.07 -4.46708 0.613444 0
M  V30 15477 C 1465.73 -4.72036 0.934633 0
M  V30 15478 C 1468.08 -5.02112 1.3976 0
M  V30 15479 C 1465.41 -5.50021 2.04191 0
M  V30 15480 C 1467.76 -5.81306 2.49531 0
M  V30 15481 C 1466.43 -6.04921 2.82182 0
M  V30 15482 H 1465.7 -0.73656 -0.080998 0
M  V30 15483 H 1468.35 -1.84842 0.500581 0
M  V30 15484 H 1466.65 -3.67434 -1.36012 0
M  V30 15485 H 1468.35 -3.87674 -1.02519 0
M  V30 15486 H 1464.94 -4.27143 0.353075 0
M  V30 15487 H 1469.12 -4.82488 1.1627 0
M  V30 15488 H 1464.38 -5.66536 2.29884 0
M  V30 15489 H 1468.55 -6.23245 3.10707 0
M  V30 15490 H 1466.18 -6.65134 3.68104 0
M  V30 15491 N 1467.75 -0.0969077 -1.57302 0
M  V30 15492 C 1469.16 0.431942 -1.81635 0
M  V30 15493 C 1469.52 1.68047 -1.01264 0
M  V30 15494 O 1468.64 2.15036 -0.24256 0
M  V30 15495 C 1469.24 0.790426 -3.29451 0
M  V30 15496 C 1467.79 1.26401 -3.54542 0
M  V30 15497 C 1466.94 0.26158 -2.76063 0
M  V30 15498 H 1469.89 -0.322328 -1.55392 0
M  V30 15499 H 1469.91 1.64981 -3.42873 0
M  V30 15500 H 1469.43 -0.118463 -3.87919 0
M  V30 15501 H 1467.53 2.19055 -3.01406 0
M  V30 15502 H 1467.64 1.22459 -4.63185 0
M  V30 15503 H 1466 0.7441 -2.43588 0
M  V30 15504 H 1466.79 -0.640018 -3.37281 0
M  V30 15505 N 1469.23 1.56605 0.176793 0
M  V30 15506 C 1470.18 1.95985 1.21896 0
M  V30 15507 C 1471.15 0.822983 1.44278 0
M  V30 15508 O 1472.33 1.08266 1.57109 0
M  V30 15509 C 1469.47 2.32029 2.55454 0
M  V30 15510 C 1468.59 3.58867 2.40497 0
M  V30 15511 C 1467.72 3.84148 3.66884 0
M  V30 15512 C 1466.76 5.04352 3.46837 0
M  V30 15513 N 1465.9 5.25794 4.6528 0
M  V30 15514 H 1470.74 2.84829 0.876137 0
M  V30 15515 H 1468.27 1.4094 0.421221 0
M  V30 15516 H 1470.23 2.50947 3.33289 0
M  V30 15517 H 1468.86 1.46301 2.87743 0
M  V30 15518 H 1467.91 3.47893 1.53866 0
M  V30 15519 H 1469.23 4.46859 2.21627 0
M  V30 15520 H 1468.38 4.03404 4.53155 0
M  V30 15521 H 1467.12 2.9452 3.88727 0
M  V30 15522 H 1466.12 4.84999 2.58952 0
M  V30 15523 H 1467.35 5.95505 3.26421 0
M  V30 15524 H 1465.3 4.39117 4.87352 0
M  V30 15525 H 1465.21 6.07999 4.49303 0
M  V30 15526 H 1466.48 5.49524 5.5285 0
M  V30 15527 N 1470.71 -0.445159 1.51182 0
M  V30 15528 C 1471.96 -1.19215 1.62698 0
M  V30 15529 C 1472.27 -1.92529 0.345249 0
M  V30 15530 O 1473.48 -2.69367 0.33967 0
M  V30 15531 C 1471.93 -2.16762 2.87302 0
M  V30 15532 C 1471.54 -1.49131 4.2245 0
M  V30 15533 C 1473.29 -2.91942 3.08172 0
M  V30 15534 C 1471.19 -2.45117 5.38212 0
M  V30 15535 H 1470.12 -0.448687 0.605967 0
M  V30 15536 H 1472.77 -0.459956 1.77642 0
M  V30 15537 H 1471.16 -2.93383 2.65975 0
M  V30 15538 H 1472.33 -0.781222 4.54129 0
M  V30 15539 H 1470.64 -0.861342 4.07394 0
M  V30 15540 H 1473.24 -3.6383 3.91832 0
M  V30 15541 H 1473.58 -3.52837 2.20934 0
M  V30 15542 H 1474.12 -2.22429 3.29803 0
M  V30 15543 H 1470.86 -1.88923 6.27685 0
M  V30 15544 H 1470.38 -3.14202 5.10918 0
M  V30 15545 H 1472.06 -3.06411 5.69843 0
M  V30 15546 N 1472.19 -1.41197 -0.700089 0
M  V30 15547 C 1473.43 -1.40311 -1.46011 0
M  V30 15548 C 1473.76 -0.0106853 -1.94497 0
M  V30 15549 O 1473.02 0.976648 -1.69588 0
M  V30 15550 C 1473.32 -2.35259 -2.6905 0
M  V30 15551 C 1472.98 -3.82194 -2.39245 0
M  V30 15552 C 1471.64 -4.22223 -2.30827 0
M  V30 15553 C 1474 -4.74983 -2.1457 0
M  V30 15554 C 1471.32 -5.53055 -1.95824 0
M  V30 15555 C 1473.68 -6.0613 -1.81077 0
M  V30 15556 C 1472.34 -6.45185 -1.71151 0
M  V30 15557 H 1471.61 -0.513434 -0.534291 0
M  V30 15558 H 1474.26 -1.73963 -0.800574 0
M  V30 15559 H 1472.56 -1.94845 -3.39915 0
M  V30 15560 H 1474.26 -2.31849 -3.2718 0
M  V30 15561 H 1470.85 -3.50488 -2.4669 0
M  V30 15562 H 1475.03 -4.44864 -2.20021 0
M  V30 15563 H 1470.29 -5.822 -1.86689 0
M  V30 15564 H 1474.46 -6.77533 -1.61002 0
M  V30 15565 H 1472.09 -7.46476 -1.43796 0
M  V30 15566 N 1473.67 0.933891 -1.2695 0
M  V30 15567 C 1474.61 2.05498 -1.08964 0
M  V30 15568 C 1475.61 1.69394 -0.0144837 0
M  V30 15569 O 1476.81 1.79179 -0.171729 0
M  V30 15570 H 1473.19 0.672978 -0.335566 0
M  V30 15571 H 1475.16 2.17817 -2.03957 0
M  V30 15572 C 1473.91 3.39579 -0.747074 0
M  V30 15573 H 1473.23 3.67842 -1.56628 0
M  V30 15574 H 1474.67 4.18815 -0.661064 0
M  V30 15575 C 1473.13 3.3241 0.548214 0
M  V30 15576 O 1473.66 3.69132 1.58443 0
M  V30 15577 N 1471.87 2.85509 0.541545 0
M  V30 15578 H 1471.41 2.55822 -0.302112 0
M  V30 15579 H 1471.37 2.81095 1.4083 0
M  V30 15580 N 1475.14 1.08871 1.13951 0
M  V30 15581 C 1476.42 0.73388 1.81311 0
M  V30 15582 C 1476.8 -0.781824 1.96089 0
M  V30 15583 O 1476.15 -1.70211 1.52448 0
M  V30 15584 C 1476.36 1.46631 3.16702 0
M  V30 15585 C 1477.71 1.62843 3.92132 0
M  V30 15586 O 1478.73 1.42836 3.26307 0
M  V30 15587 O 1477.59 1.95893 5.10185 0
M  V30 15588 H 1474.68 0.262976 0.784074 0
M  V30 15589 H 1477.23 1.19057 1.20927 0
M  V30 15590 H 1476 2.49863 3.01138 0
M  V30 15591 H 1475.62 1.00141 3.84782 0
M  V30 15592 N 1476.62 -1.31073 0.875073 0
M  V30 15593 C 1477.57 -2.28389 0.332718 0
M  V30 15594 C 1478.54 -1.55954 -0.571639 0
M  V30 15595 O 1479.72 -1.84073 -0.502185 0
M  V30 15596 C 1476.86 -3.42083 -0.455364 0
M  V30 15597 C 1475.98 -4.29358 0.477088 0
M  V30 15598 C 1475.11 -5.30201 -0.325619 0
M  V30 15599 C 1474.15 -6.09123 0.602935 0
M  V30 15600 N 1473.29 -7.01909 -0.163836 0
M  V30 15601 H 1478.13 -2.74166 1.16777 0
M  V30 15602 H 1475.66 -1.3487 0.587248 0
M  V30 15603 H 1477.62 -4.06746 -0.928104 0
M  V30 15604 H 1476.25 -2.97402 -1.25507 0
M  V30 15605 H 1475.3 -3.65091 1.06829 0
M  V30 15606 H 1476.62 -4.84425 1.18887 0
M  V30 15607 H 1475.77 -6.00565 -0.860647 0
M  V30 15608 H 1474.51 -4.75802 -1.07067 0
M  V30 15609 H 1473.51 -5.37645 1.14968 0
M  V30 15610 H 1474.74 -6.65609 1.34692 0
M  V30 15611 H 1472.69 -6.49913 -0.891604 0
M  V30 15612 H 1472.6 -7.5442 0.48851 0
M  V30 15613 H 1473.87 -7.76529 -0.679929 0
M  V30 15614 N 1478.1 -0.635022 -1.4424 0
M  V30 15615 C 1479.33 -0.14826 -2.06368 0
M  V30 15616 C 1479.74 1.17875 -1.47482 0
M  V30 15617 O 1479.1 1.72384 -0.599168 0
M  V30 15618 C 1479.15 -0.031519 -3.61486 0
M  V30 15619 O 1478.87 -1.30605 -4.18179 0
M  V30 15620 C 1480.37 0.483479 -4.40656 0
M  V30 15621 H 1477.59 -0.081472 -0.666036 0
M  V30 15622 H 1480.14 -0.870526 -1.85046 0
M  V30 15623 H 1478.29 0.641208 -3.82057 0
M  V30 15624 H 1478.71 -1.15341 -5.11661 0
M  V30 15625 H 1480.18 0.514164 -5.496 0
M  V30 15626 H 1480.66 1.51129 -4.12379 0
M  V30 15627 H 1481.26 -0.156131 -4.25013 0
M  V30 15628 N 1479.58 1.53054 -0.375806 0
M  V30 15629 C 1480.82 2.017 0.210985 0
M  V30 15630 C 1481.16 1.26228 1.47581 0
M  V30 15631 O 1480.43 0.358869 1.91161 0
M  V30 15632 C 1480.72 3.56715 0.492596 0
M  V30 15633 C 1480.57 4.42869 -0.786573 0
M  V30 15634 C 1481.89 4.20803 1.28891 0
M  V30 15635 H 1479.01 0.733153 0.0752084 0
M  V30 15636 H 1481.65 1.83229 -0.502715 0
M  V30 15637 H 1479.8 3.72585 1.10059 0
M  V30 15638 H 1481.47 4.38777 -1.42381 0
M  V30 15639 H 1479.71 4.10425 -1.40478 0
M  V30 15640 H 1480.38 5.49309 -0.544354 0
M  V30 15641 H 1482.86 4.08828 0.774498 0
M  V30 15642 H 1481.74 5.29273 1.45469 0
M  V30 15643 H 1482 3.77541 2.30033 0
M  V30 15644 N 1481.06 0.105248 1.57248 0
M  V30 15645 C 1482.3 -0.554956 1.94331 0
M  V30 15646 C 1482.63 -1.68087 0.988528 0
M  V30 15647 O 1481.9 -1.95854 0.042366 0
M  V30 15648 H 1480.48 -0.207994 0.717459 0
M  V30 15649 H 1483.14 0.170964 1.94149 0
M  V30 15650 H 1482.23 -0.95853 2.97016 0
M  V30 15651 N 1482.53 -1.56697 -0.168486 0
M  V30 15652 C 1483.78 -1.81794 -0.882907 0
M  V30 15653 C 1484.1 -0.682707 -1.82658 0
M  V30 15654 O 1483.37 0.297234 -1.93632 0
M  V30 15655 H 1481.95 -0.670636 -0.329024 0
M  V30 15656 H 1484.62 -1.94178 -0.167625 0
M  V30 15657 H 1483.71 -2.75945 -1.45811 0
M  V30 15658 N 1484.01 0.437135 -1.51416 0
M  V30 15659 C 1484.92 1.55581 -1.75589 0
M  V30 15660 C 1485.94 1.61797 -0.640132 0
M  V30 15661 O 1487.11 1.79035 -0.922406 0
M  V30 15662 C 1484.18 2.91561 -1.87598 0
M  V30 15663 C 1483.24 2.9546 -3.11451 0
M  V30 15664 C 1482.47 4.24954 -3.22878 0
M  V30 15665 O 1482.7 5.17341 -2.40238 0
M  V30 15666 O 1481.63 4.35141 -4.15856 0
M  V30 15667 H 1485.46 1.38098 -2.70486 0
M  V30 15668 H 1483.04 0.620163 -1.3592 0
M  V30 15669 H 1484.92 3.72262 -1.97481 0
M  V30 15670 H 1483.6 3.09171 -0.958889 0
M  V30 15671 H 1482.51 2.13713 -3.07046 0
M  V30 15672 H 1483.84 2.82794 -4.0285 0
M  V30 15673 N 1485.49 1.41566 0.692592 0
M  V30 15674 C 1486.45 1.43369 1.78824 0
M  V30 15675 C 1487.45 0.323867 1.57505 0
M  V30 15676 O 1488.64 0.583885 1.64123 0
M  V30 15677 C 1485.78 1.24798 3.17235 0
M  V30 15678 H 1486.97 2.40906 1.78617 0
M  V30 15679 H 1484.52 1.27752 0.900508 0
M  V30 15680 H 1485.26 0.281129 3.23079 0
M  V30 15681 H 1485.04 2.05212 3.34111 0
M  V30 15682 H 1486.53 1.28902 3.97208 0
M  V30 15683 N 1486.97 -0.927146 1.27443 0
M  V30 15684 C 1488.38 -1.20319 1.0486 0
M  V30 15685 C 1488.58 -2.00323 -0.217491 0
M  V30 15686 O 1487.64 -2.35032 -0.922833 0
M  V30 15687 C 1488.95 -1.9508 2.28833 0
M  V30 15688 C 1490.5 -2.08016 2.33877 0
M  V30 15689 C 1490.98 -2.86183 3.5758 0
M  V30 15690 N 1492.47 -2.93751 3.58141 0
M  V30 15691 C 1493.2 -3.54698 4.5053 0
M  V30 15692 N 1492.7 -4.17032 5.53223 0
M  V30 15693 N 1494.49 -3.52107 4.38152 0
M  V30 15694 H 1486.64 -0.392671 2.08739 0
M  V30 15695 H 1488.91 -0.236323 0.918072 0
M  V30 15696 H 1488.61 -1.43712 3.20998 0
M  V30 15697 H 1488.49 -2.95692 2.34193 0
M  V30 15698 H 1490.87 -2.5857 1.42217 0
M  V30 15699 H 1490.95 -1.06622 2.3252 0
M  V30 15700 H 1490.6 -2.36312 4.49576 0
M  V30 15701 H 1490.53 -3.87863 3.56188 0
M  V30 15702 H 1493.02 -2.49449 2.83872 0
M  V30 15703 H 1493.33 -4.61477 6.19886 0
M  V30 15704 H 1491.68 -4.15576 5.57065 0
M  V30 15705 H 1494.87 -3.02611 3.57134 0
M  V30 15706 H 1495.04 -3.99315 5.10344 0
M  V30 15707 N 1488.45 -1.09474 -1.13372 0
M  V30 15708 C 1489.39 -0.73458 -2.18798 0
M  V30 15709 C 1490.36 0.284433 -1.63647 0
M  V30 15710 O 1491.55 0.165958 -1.90077 0
M  V30 15711 C 1488.69 -0.161826 -3.4472 0
M  V30 15712 C 1487.8 -1.23494 -4.13973 0
M  V30 15713 C 1486.94 -0.624886 -5.27512 0
M  V30 15714 C 1485.98 -1.67927 -5.88614 0
M  V30 15715 N 1485.11 -1.09021 -6.93584 0
M  V30 15716 H 1489.95 -1.63787 -2.48954 0
M  V30 15717 H 1487.49 -0.818297 -1.22239 0
M  V30 15718 H 1489.45 0.188053 -4.16776 0
M  V30 15719 H 1488.08 0.70473 -3.15013 0
M  V30 15720 H 1487.13 -1.70209 -3.40196 0
M  V30 15721 H 1488.44 -2.0335 -4.55467 0
M  V30 15722 H 1487.6 -0.22388 -6.06287 0
M  V30 15723 H 1486.33 0.205214 -4.87268 0
M  V30 15724 H 1485.34 -2.08982 -5.08534 0
M  V30 15725 H 1486.56 -2.51204 -6.3093 0
M  V30 15726 H 1484.51 -0.281401 -6.55396 0
M  V30 15727 H 1484.43 -1.82573 -7.33623 0
M  V30 15728 H 1485.7 -0.715428 -7.7621 0
M  V30 15729 N 1489.92 1.30607 -0.882012 0
M  V30 15730 C 1491.17 1.96547 -0.499703 0
M  V30 15731 C 1491.5 1.69484 0.948098 0
M  V30 15732 O 1490.78 0.997929 1.66948 0
M  V30 15733 C 1491.06 3.51735 -0.771662 0
M  V30 15734 C 1490.91 3.88326 -2.26987 0
M  V30 15735 C 1492.23 4.39411 -0.246178 0
M  V30 15736 H 1489.35 0.713912 -0.183026 0
M  V30 15737 H 1491.99 1.5453 -1.10546 0
M  V30 15738 H 1490.14 3.87655 -0.256092 0
M  V30 15739 H 1491.82 3.62444 -2.85362 0
M  V30 15740 H 1490.06 3.36501 -2.7377 0
M  V30 15741 H 1490.73 4.96574 -2.41078 0
M  V30 15742 H 1493.21 4.10382 -0.687419 0
M  V30 15743 H 1492.08 5.4692 -0.465817 0
M  V30 15744 H 1492.34 4.33804 0.852452 0
M  V30 15745 N 1491.4 0.642663 1.43901 0
M  V30 15746 C 1492.63 0.158971 2.05987 0
M  V30 15747 C 1493.04 -1.17635 1.48184 0
M  V30 15748 O 1492.38 -1.73499 0.603634 0
M  V30 15749 C 1492.45 -0.0178946 3.59496 0
M  V30 15750 C 1492.11 1.24107 4.39826 0
M  V30 15751 C 1493.11 2.16742 4.72566 0
M  V30 15752 C 1490.79 1.47971 4.8001 0
M  V30 15753 C 1492.79 3.31541 5.44389 0
M  V30 15754 C 1490.47 2.63065 5.5158 0
M  V30 15755 C 1491.47 3.54676 5.8369 0
M  V30 15756 O 1491.16 4.67763 6.53799 0
M  V30 15757 H 1490.89 0.0822826 0.670974 0
M  V30 15758 H 1493.44 0.880492 1.85571 0
M  V30 15759 H 1491.67 -0.79468 3.78446 0
M  V30 15760 H 1493.36 -0.457601 4.03312 0
M  V30 15761 H 1494.13 1.99543 4.42049 0
M  V30 15762 H 1490.01 0.775488 4.54431 0
M  V30 15763 H 1493.55 4.03069 5.69369 0
M  V30 15764 H 1489.45 2.80202 5.81513 0
M  V30 15765 H 1490.22 4.66892 6.72275 0
M  V30 15766 N 1492.88 -1.52852 0.383918 0
M  V30 15767 C 1494.16 -1.939 -0.25729 0
M  V30 15768 C 1494.54 -1.31895 -1.64824 0
M  V30 15769 O 1493.89 -0.484987 -2.23294 0
M  V30 15770 C 1494.1 -3.47801 -0.289064 0
M  V30 15771 C 1495.44 -4.21396 -0.520611 0
M  V30 15772 O 1496.47 -3.54278 -0.369502 0
M  V30 15773 O 1495.33 -5.4037 -0.816254 0
M  V30 15774 H 1492.42 -0.811658 -0.158558 0
M  V30 15775 H 1494.97 -1.63949 0.438034 0
M  V30 15776 H 1493.74 -3.8525 0.685441 0
M  V30 15777 H 1493.36 -3.8404 -1.02953 0
M  V30 15778 N 1494.36 -0.113586 -1.5719 0
M  V30 15779 C 1495.64 0.588987 -1.86522 0
M  V30 15780 C 1496.02 1.85163 -1.01379 0
M  V30 15781 O 1495.36 2.28318 -0.0912188 0
M  V30 15782 C 1495.57 0.886633 -3.3755 0
M  V30 15783 C 1496.92 1.24206 -4.06027 0
M  V30 15784 O 1497.95 0.977068 -3.42537 0
M  V30 15785 O 1496.81 1.73914 -5.18089 0
M  V30 15786 H 1493.9 0.296637 -0.771968 0
M  V30 15787 H 1496.45 -0.147681 -1.69056 0
M  V30 15788 H 1495.22 -0.00835421 -3.91299 0
M  V30 15789 H 1494.84 1.67865 -3.60426 0
M  V30 15790 N 1495.84 1.56784 0.160173 0
M  V30 15791 C 1496.8 1.96373 1.18195 0
M  V30 15792 C 1497.8 0.848674 1.3658 0
M  V30 15793 O 1498.99 1.11553 1.33796 0
M  V30 15794 C 1496.12 2.26824 2.54487 0
M  V30 15795 H 1497.32 2.87819 0.842641 0
M  V30 15796 H 1494.87 1.51014 0.403038 0
M  V30 15797 H 1495.6 1.38129 2.93413 0
M  V30 15798 H 1495.39 3.08112 2.42507 0
M  V30 15799 H 1496.88 2.58337 3.28104 0
M  V30 15800 N 1497.32 -0.429099 1.51646 0
M  V30 15801 C 1498.27 -1.52004 1.69937 0
M  V30 15802 C 1499.25 -1.51087 0.5533 0
M  V30 15803 O 1500.44 -1.57401 0.809558 0
M  V30 15804 C 1497.57 -2.90123 1.83531 0
M  V30 15805 C 1496.66 -2.95764 3.03948 0
M  V30 15806 N 1497.05 -2.71135 4.26989 0
M  V30 15807 C 1495.35 -3.26927 3.03372 0
M  V30 15808 C 1496.05 -2.82831 5.08312 0
M  V30 15809 N 1495.02 -3.14856 4.43133 0
M  V30 15810 H 1498.82 -1.31726 2.62727 0
M  V30 15811 H 1496.34 -0.63653 1.49406 0
M  V30 15812 H 1498.34 -3.68618 1.94747 0
M  V30 15813 H 1497 -3.11415 0.919285 0
M  V30 15814 H 1498.01 -2.45906 4.55797 0
M  V30 15815 H 1494.68 -3.53941 2.21432 0
M  V30 15816 H 1496.07 -2.67673 6.1628 0
M  V30 15817 N 1498.79 -1.41931 -0.685074 0
M  V30 15818 C 1499.74 -1.44824 -1.82013 0
M  V30 15819 C 1500.74 -0.325083 -1.66252 0
M  V30 15820 O 1501.94 -0.497614 -1.72985 0
M  V30 15821 H 1498.32 -0.453362 -0.599972 0
M  V30 15822 H 1500.29 -2.40464 -1.76691 0
M  V30 15823 C 1499.04 -1.35753 -3.20104 0
M  V30 15824 H 1498.36 -2.21469 -3.32854 0
M  V30 15825 H 1499.8 -1.41838 -3.99572 0
M  V30 15826 C 1498.26 -0.0710816 -3.36825 0
M  V30 15827 O 1498.79 0.880155 -3.91939 0
M  V30 15828 N 1496.99 0.00842652 -2.90599 0
M  V30 15829 H 1496.54 -0.766427 -2.45934 0
M  V30 15830 H 1496.5 0.868559 -3.02165 0
M  V30 15831 N 1500.27 0.920374 -1.27933 0
M  V30 15832 C 1501.2 2.0229 -1.05612 0
M  V30 15833 C 1502.18 1.6258 0.0257603 0
M  V30 15834 O 1503.37 1.88112 -0.120852 0
M  V30 15835 C 1500.49 3.33279 -0.603563 0
M  V30 15836 C 1499.54 3.91971 -1.6811 0
M  V30 15837 S 1500.37 4.23645 -3.27544 0
M  V30 15838 C 1501.53 5.57704 -2.84107 0
M  V30 15839 H 1501.76 2.20913 -1.98959 0
M  V30 15840 H 1499.29 1.06441 -1.11847 0
M  V30 15841 H 1501.25 4.09012 -0.349146 0
M  V30 15842 H 1499.91 3.12567 0.309962 0
M  V30 15843 H 1499.11 4.86518 -1.31592 0
M  V30 15844 H 1498.71 3.22849 -1.88797 0
M  V30 15845 H 1501 6.37313 -2.29866 0
M  V30 15846 H 1501.94 5.99129 -3.77426 0
M  V30 15847 H 1502.35 5.18576 -2.23024 0
M  V30 15848 N 1501.75 1.10074 1.1279 0
M  V30 15849 C 1502.68 0.768146 2.20503 0
M  V30 15850 C 1503.66 -0.257199 1.68144 0
M  V30 15851 O 1504.85 -0.12379 1.93805 0
M  V30 15852 C 1501.98 0.195125 3.46751 0
M  V30 15853 C 1500.93 1.15074 4.1224 0
M  V30 15854 C 1500.26 0.439098 5.32894 0
M  V30 15855 C 1501.56 2.49584 4.58808 0
M  V30 15856 H 1503.25 1.66876 2.48581 0
M  V30 15857 H 1500.8 0.803806 1.19478 0
M  V30 15858 H 1502.75 -0.0496695 4.21371 0
M  V30 15859 H 1501.47 -0.740717 3.1809 0
M  V30 15860 H 1500.13 1.38092 3.39597 0
M  V30 15861 H 1499.78 -0.501096 5.00498 0
M  V30 15862 H 1499.48 1.07632 5.77658 0
M  V30 15863 H 1501 0.202761 6.10263 0
M  V30 15864 H 1502.42 2.30736 5.24818 0
M  V30 15865 H 1500.81 3.09157 5.14336 0
M  V30 15866 H 1501.88 3.09857 3.72984 0
M  V30 15867 N 1503.23 -1.30138 0.888926 0
M  V30 15868 C 1504.18 -2.29979 0.348212 0
M  V30 15869 C 1505.17 -1.60329 -0.546894 0
M  V30 15870 O 1506.38 -1.74767 -0.43089 0
M  V30 15871 H 1502.75 -0.746107 0.0939563 0
M  V30 15872 H 1504.72 -2.73038 1.20385 0
M  V30 15873 C 1503.47 -3.45169 -0.418762 0
M  V30 15874 H 1502.79 -3.98949 0.260761 0
M  V30 15875 H 1504.23 -4.17094 -0.762133 0
M  V30 15876 C 1502.69 -2.95539 -1.61734 0
M  V30 15877 O 1503.22 -2.95902 -2.7167 0
M  V30 15878 N 1501.43 -2.51502 -1.45585 0
M  V30 15879 H 1500.98 -2.51406 -0.561483 0
M  V30 15880 H 1500.93 -2.18654 -2.25916 0
M  V30 15881 N 1504.71 -0.650285 -1.43559 0
M  V30 15882 C 1505.93 -0.170139 -2.06199 0
M  V30 15883 C 1506.35 1.16304 -1.48724 0
M  V30 15884 O 1505.71 1.71739 -0.617418 0
M  V30 15885 C 1505.76 -0.0698577 -3.61432 0
M  V30 15886 O 1505.48 -1.35033 -4.16771 0
M  V30 15887 C 1506.98 0.436714 -4.41144 0
M  V30 15888 H 1504.2 -0.0885316 -0.665134 0
M  V30 15889 H 1506.74 -0.890104 -1.84112 0
M  V30 15890 H 1504.9 0.60065 -3.82715 0
M  V30 15891 H 1505.31 -1.20762 -5.10409 0
M  V30 15892 H 1506.79 0.455843 -5.50115 0
M  V30 15893 H 1507.26 1.46747 -4.13959 0
M  V30 15894 H 1507.87 -0.201201 -4.24824 0
M  V30 15895 N 1506.18 1.52647 -0.392018 0
M  V30 15896 C 1507.11 2.29446 0.433228 0
M  V30 15897 C 1508.09 1.32945 1.06111 0
M  V30 15898 O 1509.28 1.61841 1.07337 0
M  V30 15899 C 1506.41 3.10328 1.55929 0
M  V30 15900 C 1505.36 4.14735 1.05731 0
M  V30 15901 C 1504.69 4.83858 2.27565 0
M  V30 15902 C 1505.99 5.22154 0.123346 0
M  V30 15903 H 1507.68 2.9868 -0.207563 0
M  V30 15904 H 1505.23 1.43643 -0.101266 0
M  V30 15905 H 1507.18 3.62814 2.14346 0
M  V30 15906 H 1505.91 2.38832 2.22771 0
M  V30 15907 H 1504.57 3.63234 0.495653 0
M  V30 15908 H 1504.21 4.08907 2.92923 0
M  V30 15909 H 1503.91 5.54428 1.94637 0
M  V30 15910 H 1505.44 5.39149 2.86619 0
M  V30 15911 H 1506.85 5.69983 0.615784 0
M  V30 15912 H 1505.25 5.99987 -0.116304 0
M  V30 15913 H 1506.32 4.77796 -0.826969 0
M  V30 15914 N 1507.66 0.121921 1.57128 0
M  V30 15915 C 1508.91 -0.535201 1.9447 0
M  V30 15916 C 1509.22 -1.67644 1.00772 0
M  V30 15917 O 1510.43 -2.39651 1.27592 0
M  V30 15918 C 1508.89 -1.00346 3.45628 0
M  V30 15919 C 1508.49 0.109473 4.47866 0
M  V30 15920 C 1510.24 -1.63179 3.91884 0
M  V30 15921 C 1508.15 -0.375651 5.90206 0
M  V30 15922 H 1507.08 -0.203702 0.725962 0
M  V30 15923 H 1509.73 0.202243 1.82382 0
M  V30 15924 H 1508.11 -1.79541 3.5296 0
M  V30 15925 H 1509.28 0.885815 4.52206 0
M  V30 15926 H 1507.6 0.644642 4.1138 0
M  V30 15927 H 1510.19 -2.00594 4.95647 0
M  V30 15928 H 1510.54 -2.5113 3.32023 0
M  V30 15929 H 1511.07 -0.905197 3.87364 0
M  V30 15930 H 1507.81 0.46788 6.53828 0
M  V30 15931 H 1507.33 -1.11841 5.89281 0
M  V30 15932 H 1509.01 -0.835921 6.41577 0
M  V30 15933 N 1509.14 -1.56867 -0.151857 0
M  V30 15934 C 1510.37 -1.87601 -0.884347 0
M  V30 15935 C 1510.79 -0.710419 -1.74168 0
M  V30 15936 O 1510.15 0.340103 -1.78081 0
M  V30 15937 C 1510.2 -3.16887 -1.72091 0
M  V30 15938 O 1509.3 -3.00479 -2.82464 0
M  V30 15939 H 1508.64 -0.616509 -0.246603 0
M  V30 15940 H 1511.17 -2.04092 -0.144135 0
M  V30 15941 H 1511.18 -3.48785 -2.11691 0
M  V30 15942 H 1509.86 -4.01327 -1.09131 0
M  V30 15943 H 1508.43 -2.79978 -2.46306 0
M  V30 15944 N 1510.62 0.421051 -1.51871 0
M  V30 15945 C 1511.55 1.53094 -1.70572 0
M  V30 15946 C 1512.56 1.5188 -0.586201 0
M  V30 15947 O 1513.75 1.56361 -0.861013 0
M  V30 15948 C 1510.85 2.92002 -1.72011 0
M  V30 15949 C 1510.03 3.17541 -3.0081 0
M  V30 15950 C 1509.08 4.36259 -2.94219 0
M  V30 15951 O 1508.11 4.34118 -3.68144 0
M  V30 15952 N 1509.31 5.40722 -2.11188 0
M  V30 15953 H 1512.08 1.3745 -2.66322 0
M  V30 15954 H 1509.64 0.610204 -1.4996 0
M  V30 15955 H 1511.63 3.6947 -1.65149 0
M  V30 15956 H 1510.2 3.01162 -0.837861 0
M  V30 15957 H 1509.42 2.28225 -3.21414 0
M  V30 15958 H 1510.71 3.3144 -3.86037 0
M  V30 15959 H 1510.11 5.45304 -1.50534 0
M  V30 15960 H 1508.66 6.16979 -2.10192 0
M  V30 15961 N 1512.1 1.42293 0.677538 0
M  V30 15962 C 1513.04 1.45556 1.79114 0
M  V30 15963 C 1514.01 0.307826 1.63223 0
M  V30 15964 O 1515.2 0.511504 1.83816 0
M  V30 15965 C 1512.34 1.36104 3.17127 0
M  V30 15966 C 1511.45 2.60891 3.44325 0
M  V30 15967 C 1510.59 2.43601 4.72051 0
M  V30 15968 C 1509.63 3.63775 4.92274 0
M  V30 15969 N 1508.76 3.45444 6.11239 0
M  V30 15970 H 1513.6 2.40723 1.7566 0
M  V30 15971 H 1511.14 1.19517 0.857565 0
M  V30 15972 H 1513.1 1.28622 3.96878 0
M  V30 15973 H 1511.73 0.445342 3.19713 0
M  V30 15974 H 1510.78 2.78751 2.58848 0
M  V30 15975 H 1512.09 3.50229 3.55163 0
M  V30 15976 H 1511.25 2.33689 5.59888 0
M  V30 15977 H 1509.98 1.51748 4.63491 0
M  V30 15978 H 1508.99 3.74122 4.0288 0
M  V30 15979 H 1510.21 4.56605 5.02681 0
M  V30 15980 H 1508.16 2.56306 6.03857 0
M  V30 15981 H 1508.08 4.28368 6.22926 0
M  V30 15982 H 1509.35 3.39339 7.01762 0
M  V30 15983 N 1513.57 -0.913576 1.28419 0
M  V30 15984 C 1514.52 -2.01603 1.12361 0
M  V30 15985 C 1515.49 -1.66087 0.0206953 0
M  V30 15986 O 1516.68 -1.89895 0.185659 0
M  V30 15987 C 1513.82 -3.35897 0.791655 0
M  V30 15988 C 1512.93 -3.84281 1.97363 0
M  V30 15989 C 1512.06 -5.07087 1.58228 0
M  V30 15990 C 1511.1 -5.47804 2.73089 0
M  V30 15991 N 1510.24 -6.618 2.34446 0
M  V30 15992 H 1515.08 -2.1467 2.0669 0
M  V30 15993 H 1512.62 -1.05147 1.02871 0
M  V30 15994 H 1514.58 -4.13149 0.579943 0
M  V30 15995 H 1513.21 -3.22596 -0.114699 0
M  V30 15996 H 1512.26 -3.03184 2.29746 0
M  V30 15997 H 1513.57 -4.10417 2.83477 0
M  V30 15998 H 1512.72 -5.91883 1.33264 0
M  V30 15999 H 1511.46 -4.82759 0.692429 0
M  V30 16000 H 1510.47 -4.61549 2.98751 0
M  V30 16001 H 1511.69 -5.74119 3.62717 0
M  V30 16002 H 1509.64 -6.39103 1.4793 0
M  V30 16003 H 1509.56 -6.87663 3.14096 0
M  V30 16004 H 1510.82 -7.49901 2.12766 0
M  V30 16005 N 1515.05 -1.1067 -1.12204 0
M  V30 16006 C 1515.98 -0.779829 -2.20093 0
M  V30 16007 C 1516.96 0.248279 -1.68278 0
M  V30 16008 O 1518.15 0.113511 -1.93868 0
M  V30 16009 C 1515.28 -0.213511 -3.46643 0
M  V30 16010 C 1514.23 -1.17258 -4.11624 0
M  V30 16011 C 1513.56 -0.467352 -5.32654 0
M  V30 16012 C 1514.86 -2.52014 -4.57478 0
M  V30 16013 H 1516.55 -1.68192 -2.47693 0
M  V30 16014 H 1514.1 -0.810131 -1.1905 0
M  V30 16015 H 1516.05 0.0273225 -4.21391 0
M  V30 16016 H 1514.78 0.723837 -3.18478 0
M  V30 16017 H 1513.43 -1.39891 -3.3886 0
M  V30 16018 H 1513.08 0.474547 -5.00756 0
M  V30 16019 H 1512.78 -1.10694 -5.77079 0
M  V30 16020 H 1514.31 -0.235122 -6.10147 0
M  V30 16021 H 1515.72 -2.33516 -5.23587 0
M  V30 16022 H 1514.12 -3.1188 -5.1269 0
M  V30 16023 H 1515.19 -3.11831 -3.71335 0
M  V30 16024 N 1516.53 1.29665 -0.895815 0
M  V30 16025 C 1517.95 1.4824 -0.591355 0
M  V30 16026 C 1518.15 1.81839 0.86815 0
M  V30 16027 O 1517.2 1.91251 1.64861 0
M  V30 16028 C 1518.52 2.59814 -1.51384 0
M  V30 16029 C 1520.06 2.73691 -1.51862 0
M  V30 16030 C 1520.54 3.8839 -2.42729 0
M  V30 16031 N 1522.03 3.95717 -2.40754 0
M  V30 16032 C 1522.76 4.83804 -3.07769 0
M  V30 16033 N 1522.26 5.7661 -3.84048 0
M  V30 16034 N 1524.05 4.77263 -2.96946 0
M  V30 16035 H 1516.2 1.06131 -1.83984 0
M  V30 16036 H 1518.47 0.526819 -0.788141 0
M  V30 16037 H 1518.17 2.4184 -2.55355 0
M  V30 16038 H 1518.05 3.56532 -1.23147 0
M  V30 16039 H 1520.43 2.91064 -0.486375 0
M  V30 16040 H 1520.52 1.77561 -1.84135 0
M  V30 16041 H 1520.16 3.71773 -3.46045 0
M  V30 16042 H 1520.09 4.8388 -2.07767 0
M  V30 16043 H 1522.58 3.29334 -1.8533 0
M  V30 16044 H 1522.89 6.40611 -4.32247 0
M  V30 16045 H 1521.24 5.76507 -3.88155 0
M  V30 16046 H 1524.43 4.03744 -2.36871 0
M  V30 16047 H 1524.6 5.45701 -3.49448 0
M  V30 16048 N 1518.01 0.657889 1.43212 0
M  V30 16049 C 1518.97 -0.0214783 2.2919 0
M  V30 16050 C 1519.97 -0.745921 1.42452 0
M  V30 16051 O 1521.16 -0.586468 1.64031 0
M  V30 16052 C 1518.29 -1.04115 3.24612 0
M  V30 16053 H 1519.49 0.735072 2.90752 0
M  V30 16054 H 1517.04 0.419354 1.50569 0
M  V30 16055 H 1517.77 -1.82677 2.67954 0
M  V30 16056 H 1517.56 -0.525285 3.88566 0
M  V30 16057 H 1519.05 -1.51544 3.89132 0
M  V30 16058 N 1519.49 -1.52437 0.400108 0
M  V30 16059 C 1520.9 -1.5952 0.0505611 0
M  V30 16060 C 1521.1 -1.4135 -1.43606 0
M  V30 16061 O 1520.16 -1.23591 -2.20185 0
M  V30 16062 C 1521.47 -2.95859 0.537411 0
M  V30 16063 C 1523.02 -3.09067 0.494603 0
M  V30 16064 C 1523.49 -4.47873 0.957815 0
M  V30 16065 N 1524.99 -4.54087 0.914267 0
M  V30 16066 C 1525.72 -5.59744 1.24397 0
M  V30 16067 N 1525.22 -6.72995 1.64469 0
M  V30 16068 N 1527.01 -5.49905 1.16452 0
M  V30 16069 H 1519.16 -1.62496 1.36781 0
M  V30 16070 H 1521.42 -0.763947 0.561328 0
M  V30 16071 H 1521.13 -3.14407 1.57611 0
M  V30 16072 H 1521 -3.77156 -0.0577652 0
M  V30 16073 H 1523.39 -2.90209 -0.535035 0
M  V30 16074 H 1523.47 -2.29698 1.12572 0
M  V30 16075 H 1523.12 -4.67473 1.98574 0
M  V30 16076 H 1523.05 -5.25724 0.303602 0
M  V30 16077 H 1525.54 -3.72787 0.619536 0
M  V30 16078 H 1525.85 -7.49594 1.87961 0
M  V30 16079 H 1524.19 -6.74298 1.68364 0
M  V30 16080 H 1527.39 -4.60311 0.850401 0
M  V30 16081 H 1527.56 -6.32142 1.42478 0
M  V30 16082 N 1520.96 -0.130252 -1.57061 0
M  V30 16083 C 1522.21 0.523969 -1.9519 0
M  V30 16084 C 1522.53 1.66493 -1.01514 0
M  V30 16085 O 1521.8 1.95762 -0.0735194 0
M  V30 16086 H 1520.38 0.196553 -0.720677 0
M  V30 16087 H 1523.05 -0.20183 -1.93852 0
M  V30 16088 H 1522.14 0.911156 -2.98504 0
M  V30 16089 N 1522.44 1.56945 0.143535 0
M  V30 16090 C 1523.69 1.8381 0.856831 0
M  V30 16091 C 1524.02 0.712375 1.80662 0
M  V30 16092 O 1523.3 -0.283743 1.92419 0
M  V30 16093 C 1523.58 3.21184 1.62828 0
M  V30 16094 C 1523.43 4.44324 0.699744 0
M  V30 16095 C 1524.75 3.5582 2.58999 0
M  V30 16096 H 1521.87 0.668611 0.310046 0
M  V30 16097 H 1524.51 1.89609 0.1219 0
M  V30 16098 H 1522.66 3.16372 2.2548 0
M  V30 16099 H 1524.34 4.61224 0.0839619 0
M  V30 16100 H 1522.58 4.33799 0.0095529 0
M  V30 16101 H 1523.25 5.37058 1.27564 0
M  V30 16102 H 1525.73 3.61264 2.06464 0
M  V30 16103 H 1524.6 4.52964 3.10024 0
M  V30 16104 H 1524.86 2.81956 3.40519 0
M  V30 16105 N 1523.92 -0.412991 1.52093 0
M  V30 16106 C 1525.17 -1.16202 1.66208 0
M  V30 16107 C 1525.5 -1.90265 0.388957 0
M  V30 16108 O 1524.78 -1.84605 -0.612477 0
M  V30 16109 C 1525.06 -2.15958 2.88157 0
M  V30 16110 C 1524.91 -1.45817 4.25509 0
M  V30 16111 C 1526.23 -3.16671 3.05626 0
M  V30 16112 H 1523.35 -0.421083 0.604862 0
M  V30 16113 H 1525.99 -0.448212 1.84638 0
M  V30 16114 H 1524.14 -2.76831 2.72574 0
M  V30 16115 H 1525.81 -0.880925 4.52811 0
M  V30 16116 H 1524.06 -0.760175 4.27088 0
M  V30 16117 H 1524.73 -2.18587 5.06877 0
M  V30 16118 H 1527.2 -2.65871 3.20081 0
M  V30 16119 H 1526.08 -3.83739 3.92474 0
M  V30 16120 H 1526.34 -3.84178 2.18769 0
M  V30 16121 N 1525.4 -1.4265 -0.669982 0
M  V30 16122 C 1526.65 -1.43093 -1.42719 0
M  V30 16123 C 1526.97 -0.0501228 -1.94936 0
M  V30 16124 O 1526.24 0.912077 -1.73372 0
M  V30 16125 H 1524.82 -0.526785 -0.529628 0
M  V30 16126 H 1527.48 -1.78113 -0.791324 0
M  V30 16127 H 1526.58 -2.13357 -2.27783 0
M  V30 16128 N 1526.88 0.906753 -1.28902 0
M  V30 16129 C 1528.12 1.65658 -1.16464 0
M  V30 16130 C 1528.45 1.92396 0.285342 0
M  V30 16131 O 1527.71 1.52755 1.22329 0
M  V30 16132 C 1528.01 3.0171 -1.91588 0
M  V30 16133 C 1527.67 2.94606 -3.41347 0
M  V30 16134 C 1526.33 2.92376 -3.8219 0
M  V30 16135 C 1528.69 2.84335 -4.3681 0
M  V30 16136 C 1526.01 2.77685 -5.16825 0
M  V30 16137 C 1528.37 2.71184 -5.71526 0
M  V30 16138 C 1527.03 2.67316 -6.11636 0
M  V30 16139 H 1526.3 0.606184 -0.426171 0
M  V30 16140 H 1528.95 1.05592 -1.59758 0
M  V30 16141 H 1527.25 3.65602 -1.40863 0
M  V30 16142 H 1528.95 3.58645 -1.79374 0
M  V30 16143 H 1525.54 2.97141 -3.08878 0
M  V30 16144 H 1529.72 2.85141 -4.06212 0
M  V30 16145 H 1524.98 2.7309 -5.47021 0
M  V30 16146 H 1529.15 2.62206 -6.45152 0
M  V30 16147 H 1526.78 2.5569 -7.1591 0
M  V30 16148 N 1528.36 1.11264 1.11616 0
M  V30 16149 C 1529.6 0.871546 1.83781 0
M  V30 16150 C 1529.96 -0.596417 1.82922 0
M  V30 16151 O 1529.25 -1.43461 1.27002 0
M  V30 16152 C 1529.44 1.36481 3.30315 0
M  V30 16153 C 1529.27 2.87919 3.45446 0
M  V30 16154 C 1528.04 3.5602 3.58577 0
M  V30 16155 C 1530.24 3.85983 3.39885 0
M  V30 16156 N 1528.22 4.95695 3.6216 0
M  V30 16157 C 1529.59 5.11716 3.50066 0
M  V30 16158 C 1531.65 3.78568 3.23405 0
M  V30 16159 C 1530.35 6.30908 3.45467 0
M  V30 16160 C 1532.38 4.97268 3.20122 0
M  V30 16161 C 1531.74 6.21854 3.30873 0
M  V30 16162 H 1527.84 0.372039 0.687831 0
M  V30 16163 H 1530.42 1.41664 1.33564 0
M  V30 16164 H 1528.59 0.84692 3.79054 0
M  V30 16165 H 1530.33 1.06705 3.90379 0
M  V30 16166 H 1527.08 3.06483 3.61061 0
M  V30 16167 H 1527.5 5.6851 3.67595 0
M  V30 16168 H 1532.15 2.83154 3.13981 0
M  V30 16169 H 1529.86 7.26602 3.5366 0
M  V30 16170 H 1533.45 4.93249 3.0854 0
M  V30 16171 H 1532.33 7.12163 3.28319 0
M  V30 16172 N 1529.83 -1.29188 0.902679 0
M  V30 16173 C 1531.24 -1.77521 0.578207 0
M  V30 16174 C 1531.6 -1.74017 -0.906227 0
M  V30 16175 O 1530.72 -1.32793 -1.70865 0
M  V30 16176 C 1531.32 -3.22352 1.04281 0
M  V30 16177 C 1529.87 -3.68451 0.769454 0
M  V30 16178 C 1529.02 -2.49225 1.21583 0
M  V30 16179 H 1531.97 -1.15807 1.0851 0
M  V30 16180 H 1531.99 -3.78604 0.379396 0
M  V30 16181 H 1531.51 -3.2487 2.12323 0
M  V30 16182 H 1529.61 -3.71405 -0.298223 0
M  V30 16183 H 1529.72 -4.59112 1.36943 0
M  V30 16184 H 1528.08 -2.46663 0.634766 0
M  V30 16185 H 1528.87 -2.54469 2.30436 0
M  V30 16186 N 1531.31 -0.665475 -1.42861 0
M  V30 16187 C 1532.27 0.00932351 -2.29198 0
M  V30 16188 C 1533.27 0.738356 -1.42846 0
M  V30 16189 O 1534.46 0.57776 -1.6434 0
M  V30 16190 C 1531.6 1.02392 -3.25159 0
M  V30 16191 H 1532.79 -0.750481 -2.90358 0
M  V30 16192 H 1530.34 -0.427334 -1.50345 0
M  V30 16193 H 1531.08 1.81254 -2.68919 0
M  V30 16194 H 1530.86 0.504671 -3.88839 0
M  V30 16195 H 1532.35 1.49479 -3.89931 0
M  V30 16196 N 1532.79 1.52222 -0.408187 0
M  V30 16197 C 1533.72 2.24676 0.453129 0
M  V30 16198 C 1534.73 1.27605 1.01098 0
M  V30 16199 O 1535.92 1.53557 0.910084 0
M  V30 16200 C 1533.02 2.96431 1.64262 0
M  V30 16201 C 1532.2 4.20364 1.20883 0
M  V30 16202 C 1531.26 4.74951 2.26512 0
M  V30 16203 O 1530.28 5.37556 1.87142 0
M  V30 16204 N 1531.48 4.56443 3.58665 0
M  V30 16205 H 1534.25 2.9923 -0.16771 0
M  V30 16206 H 1531.81 1.60178 -0.235517 0
M  V30 16207 H 1533.8 3.29844 2.3449 0
M  V30 16208 H 1532.37 2.25068 2.1694 0
M  V30 16209 H 1531.59 3.92776 0.334712 0
M  V30 16210 H 1532.88 5.0085 0.895939 0
M  V30 16211 H 1532.28 4.06511 3.93402 0
M  V30 16212 H 1530.83 4.94295 4.24871 0
M  V30 16213 N 1534.27 0.138579 1.5699 0
M  V30 16214 C 1535.49 -0.525074 2.00643 0
M  V30 16215 C 1535.92 -1.58174 1.01796 0
M  V30 16216 O 1535.28 -1.81298 -0.00754003 0
M  V30 16217 C 1535.32 -1.11019 3.43085 0
M  V30 16218 O 1534.43 -2.22529 3.4721 0
M  V30 16219 H 1533.77 -0.129283 0.651292 0
M  V30 16220 H 1536.3 0.23283 2.03271 0
M  V30 16221 H 1536.31 -1.44093 3.81708 0
M  V30 16222 H 1534.98 -0.336325 4.14538 0
M  V30 16223 H 1533.56 -1.90747 3.20422 0
M  V30 16224 N 1535.75 -1.57019 -0.13521 0
M  V30 16225 C 1536.99 -1.83178 -0.844308 0
M  V30 16226 C 1537.31 -0.7217 -1.81799 0
M  V30 16227 O 1538.51 -0.869232 -2.57209 0
M  V30 16228 C 1536.97 -3.2471 -1.55214 0
M  V30 16229 C 1536.58 -4.43685 -0.620268 0
M  V30 16230 C 1538.32 -3.60133 -2.24732 0
M  V30 16231 C 1536.23 -5.76242 -1.3304 0
M  V30 16232 H 1535.16 -0.683175 -0.319041 0
M  V30 16233 H 1537.81 -1.83243 -0.0970242 0
M  V30 16234 H 1536.19 -3.19067 -2.34547 0
M  V30 16235 H 1537.37 -4.60591 0.138685 0
M  V30 16236 H 1535.68 -4.16387 -0.0328906 0
M  V30 16237 H 1538.28 -4.56431 -2.78522 0
M  V30 16238 H 1538.62 -2.86767 -3.01779 0
M  V30 16239 H 1539.15 -3.67489 -1.52305 0
M  V30 16240 H 1535.89 -6.52734 -0.60155 0
M  V30 16241 H 1535.41 -5.63251 -2.06176 0
M  V30 16242 H 1537.09 -6.19445 -1.86808 0
M  V30 16243 N 1537.22 0.404919 -1.52309 0
M  V30 16244 C 1538.16 1.51276 -1.72186 0
M  V30 16245 C 1539.17 1.5125 -0.602276 0
M  V30 16246 O 1540.36 1.55439 -0.877549 0
M  V30 16247 C 1537.46 2.90162 -1.75099 0
M  V30 16248 C 1536.63 3.14333 -3.04161 0
M  V30 16249 C 1535.69 4.33113 -2.9883 0
M  V30 16250 O 1534.72 4.30189 -3.72728 0
M  V30 16251 N 1535.92 5.38451 -2.16911 0
M  V30 16252 H 1538.68 1.34618 -2.67765 0
M  V30 16253 H 1536.24 0.594264 -1.50599 0
M  V30 16254 H 1538.24 3.67697 -1.69058 0
M  V30 16255 H 1536.81 3.00257 -0.869756 0
M  V30 16256 H 1536.03 2.24803 -3.23817 0
M  V30 16257 H 1537.31 3.27327 -3.89531 0
M  V30 16258 H 1536.71 5.43676 -1.56309 0
M  V30 16259 H 1535.27 6.14715 -2.16724 0
M  V30 16260 N 1538.7 1.43003 0.662408 0
M  V30 16261 C 1539.98 1.34613 1.41911 0
M  V30 16262 C 1540.36 -0.0105336 2.11097 0
M  V30 16263 O 1539.71 -1.02667 2.04137 0
M  V30 16264 C 1539.92 2.52297 2.41137 0
M  V30 16265 C 1541.27 2.94972 3.05412 0
M  V30 16266 O 1542.29 2.52277 2.51465 0
M  V30 16267 O 1541.15 3.68906 4.03201 0
M  V30 16268 H 1538.24 0.531508 0.633583 0
M  V30 16269 H 1540.79 1.55035 0.690088 0
M  V30 16270 H 1539.56 3.42685 1.88898 0
M  V30 16271 H 1539.18 2.33926 3.21503 0
M  V30 16272 N 1540.18 -0.899904 1.29381 0
M  V30 16273 C 1541.46 -1.63067 1.08021 0
M  V30 16274 C 1541.84 -2.0773 -0.375716 0
M  V30 16275 O 1541.19 -1.83288 -1.36447 0
M  V30 16276 C 1541.4 -2.81163 2.06757 0
M  V30 16277 C 1542.74 -3.51854 2.37664 0
M  V30 16278 O 1543.77 -2.91332 2.0495 0
M  V30 16279 O 1542.63 -4.60962 2.93558 0
M  V30 16280 H 1539.72 -0.71601 0.413835 0
M  V30 16281 H 1542.27 -0.947991 1.40752 0
M  V30 16282 H 1541.04 -2.45355 3.04822 0
M  V30 16283 H 1540.66 -3.57137 1.74754 0
M  V30 16284 N 1541.66 -1.11854 -1.11024 0
M  V30 16285 C 1542.91 -0.864814 -1.82219 0
M  V30 16286 C 1543.22 0.611349 -1.85801 0
M  V30 16287 O 1544.43 0.981475 -2.53139 0
M  V30 16288 C 1542.88 -1.49745 -3.27268 0
M  V30 16289 C 1542.49 -3.00796 -3.32003 0
M  V30 16290 C 1544.23 -1.32374 -4.03333 0
M  V30 16291 C 1542.14 -3.57023 -4.71475 0
M  V30 16292 H 1541.07 -0.319877 -0.682784 0
M  V30 16293 H 1543.72 -1.34431 -1.24903 0
M  V30 16294 H 1542.1 -0.94562 -3.84544 0
M  V30 16295 H 1543.28 -3.6242 -2.84585 0
M  V30 16296 H 1541.59 -3.17493 -2.6942 0
M  V30 16297 H 1544.19 -1.7181 -5.06345 0
M  V30 16298 H 1544.53 -0.26676 -4.15444 0
M  V30 16299 H 1545.07 -1.84444 -3.52456 0
M  V30 16300 H 1541.81 -4.62453 -4.64562 0
M  V30 16301 H 1541.33 -3.00172 -5.19285 0
M  V30 16302 H 1543 -3.5572 -5.40437 0
M  V30 16303 N 1543.14 1.28707 -0.909517 0
M  V30 16304 C 1544.09 2.25045 -0.365899 0
M  V30 16305 C 1545.07 1.5228 0.51959 0
M  V30 16306 O 1546.26 1.733 0.360004 0
M  V30 16307 C 1543.39 3.41 0.396725 0
M  V30 16308 C 1542.48 4.21092 -0.504243 0
M  V30 16309 N 1542.87 4.79293 -1.61592 0
M  V30 16310 C 1541.17 4.44964 -0.303843 0
M  V30 16311 C 1541.87 5.39516 -2.17481 0
M  V30 16312 N 1540.84 5.23442 -1.4666 0
M  V30 16313 H 1544.65 2.67611 -1.21497 0
M  V30 16314 H 1542.16 1.4343 -0.761686 0
M  V30 16315 H 1544.16 4.09094 0.80299 0
M  V30 16316 H 1542.82 2.99969 1.24294 0
M  V30 16317 H 1543.83 4.77785 -1.99856 0
M  V30 16318 H 1540.5 4.14456 0.503201 0
M  V30 16319 H 1541.89 5.95606 -3.10972 0
M  V30 16320 N 1544.61 0.673042 1.42506 0
M  V30 16321 C 1545.54 0.00755467 2.33499 0
M  V30 16322 C 1546.53 -0.791161 1.50581 0
M  V30 16323 O 1547.71 -0.748668 1.79189 0
M  V30 16324 C 1544.84 -0.945638 3.34178 0
M  V30 16325 C 1543.79 -0.25564 4.27236 0
M  V30 16326 C 1543.12 -1.32165 5.18109 0
M  V30 16327 C 1544.42 0.864254 5.151 0
M  V30 16328 H 1546.11 0.767487 2.89396 0
M  V30 16329 H 1543.66 0.370524 1.39151 0
M  V30 16330 H 1545.61 -1.42026 3.96745 0
M  V30 16331 H 1544.34 -1.73697 2.76581 0
M  V30 16332 H 1543 0.19873 3.66061 0
M  V30 16333 H 1542.64 -2.10492 4.56839 0
M  V30 16334 H 1542.34 -0.865109 5.81197 0
M  V30 16335 H 1543.87 -1.79724 5.83551 0
M  V30 16336 H 1545.28 0.470924 5.71363 0
M  V30 16337 H 1543.68 1.24648 5.87012 0
M  V30 16338 H 1544.75 1.71378 4.53605 0
M  V30 16339 N 1546.09 -1.52004 0.416254 0
M  V30 16340 C 1547.32 -2.06008 -0.156264 0
M  V30 16341 C 1547.73 -1.28562 -1.3881 0
M  V30 16342 O 1547.07 -0.33265 -1.80663 0
M  V30 16343 C 1547.14 -3.55039 -0.564614 0
M  V30 16344 C 1546.8 -4.53587 0.557481 0
M  V30 16345 C 1547.8 -5.0004 1.42324 0
M  V30 16346 C 1545.48 -4.96935 0.732205 0
M  V30 16347 C 1547.48 -5.88492 2.4486 0
M  V30 16348 C 1545.16 -5.85181 1.76087 0
M  V30 16349 C 1546.16 -6.30855 2.61747 0
M  V30 16350 O 1545.85 -7.17353 3.6285 0
M  V30 16351 H 1545.58 -0.675681 -0.0207555 0
M  V30 16352 H 1548.13 -1.96806 0.58792 0
M  V30 16353 H 1546.36 -3.61951 -1.36119 0
M  V30 16354 H 1548.05 -3.91656 -1.06586 0
M  V30 16355 H 1548.82 -4.67261 1.29968 0
M  V30 16356 H 1544.7 -4.60939 0.0751016 0
M  V30 16357 H 1548.24 -6.24063 3.11754 0
M  V30 16358 H 1544.14 -6.17373 1.8847 0
M  V30 16359 H 1544.91 -7.35481 3.59179 0
M  V30 16360 N 1547.57 -0.146903 -1.56914 0
M  V30 16361 C 1548.53 0.778709 -2.15566 0
M  V30 16362 C 1549.53 1.1753 -1.09742 0
M  V30 16363 O 1550.72 1.09624 -1.35382 0
M  V30 16364 C 1547.86 2.0567 -2.71869 0
M  V30 16365 H 1549.05 0.268506 -2.98696 0
M  V30 16366 H 1546.6 0.10254 -1.55963 0
M  V30 16367 H 1547.34 2.61057 -1.92405 0
M  V30 16368 H 1547.12 1.78154 -3.4929 0
M  V30 16369 H 1548.61 2.71779 -3.17059 0
M  V30 16370 N 1549.05 1.57088 0.126881 0
M  V30 16371 C 1549.96 2.03053 1.17502 0
M  V30 16372 C 1550.97 0.949484 1.45811 0
M  V30 16373 O 1552.15 1.26043 1.57083 0
M  V30 16374 C 1549.22 2.41897 2.48368 0
M  V30 16375 C 1548.28 3.64047 2.27527 0
M  V30 16376 C 1547.51 4.01029 3.52153 0
M  V30 16377 O 1547.73 3.38441 4.59145 0
M  V30 16378 O 1546.67 4.94174 3.43622 0
M  V30 16379 H 1550.49 2.92568 0.814733 0
M  V30 16380 H 1548.08 1.45547 0.3371 0
M  V30 16381 H 1549.96 2.67652 3.25485 0
M  V30 16382 H 1548.63 1.55531 2.83887 0
M  V30 16383 H 1547.54 3.43452 1.48294 0
M  V30 16384 H 1548.87 4.51093 1.96916 0
M  V30 16385 N 1550.53 -0.396836 1.52522 0
M  V30 16386 C 1551.49 -1.46695 1.76106 0
M  V30 16387 C 1552.49 -1.47902 0.631005 0
M  V30 16388 O 1553.68 -1.4921 0.898995 0
M  V30 16389 C 1550.81 -2.86033 1.85467 0
M  V30 16390 H 1552 -1.27071 2.71649 0
M  V30 16391 H 1549.56 -0.628096 1.43125 0
M  V30 16392 H 1550.29 -3.11012 0.918816 0
M  V30 16393 H 1550.08 -2.86559 2.67631 0
M  V30 16394 H 1551.57 -3.63587 2.05412 0
M  V30 16395 N 1552.01 -1.43353 -0.654814 0
M  V30 16396 C 1552.97 -1.4806 -1.7496 0
M  V30 16397 C 1553.97 -0.365513 -1.56591 0
M  V30 16398 O 1555.16 -0.627194 -1.62517 0
M  V30 16399 C 1552.29 -1.33165 -3.13815 0
M  V30 16400 H 1553.48 -2.45557 -1.72167 0
M  V30 16401 H 1551.04 -1.30094 -0.86632 0
M  V30 16402 H 1551.77 -0.366689 -3.2222 0
M  V30 16403 H 1551.56 -2.13998 -3.28553 0
M  V30 16404 H 1553.05 -1.39388 -3.93651 0
M  V30 16405 N 1553.48 0.89303 -1.29857 0
M  V30 16406 C 1554.73 1.64657 -1.18389 0
M  V30 16407 C 1555.06 1.92417 0.262587 0
M  V30 16408 O 1554.34 1.53936 1.18887 0
M  V30 16409 C 1554.62 2.99148 -2.00456 0
M  V30 16410 C 1554.47 2.78411 -3.53281 0
M  V30 16411 C 1555.79 3.99968 -1.83613 0
M  V30 16412 H 1552.91 0.59752 -0.431438 0
M  V30 16413 H 1555.55 1.03397 -1.59402 0
M  V30 16414 H 1553.7 3.51435 -1.65607 0
M  V30 16415 H 1555.38 2.32974 -3.98147 0
M  V30 16416 H 1553.62 2.13067 -3.77869 0
M  V30 16417 H 1554.29 3.74008 -4.05983 0
M  V30 16418 H 1556.77 3.56813 -2.14064 0
M  V30 16419 H 1555.64 4.91997 -2.43373 0
M  V30 16420 H 1555.9 4.34928 -0.793098 0
M  V30 16421 N 1554.96 1.12442 1.10429 0
M  V30 16422 C 1556.37 0.894147 1.63896 0
M  V30 16423 C 1556.72 -0.571509 1.87692 0
M  V30 16424 O 1555.85 -1.43595 1.61893 0
M  V30 16425 C 1556.44 1.61664 2.97742 0
M  V30 16426 C 1555 1.43251 3.48075 0
M  V30 16427 C 1554.15 1.65252 2.22682 0
M  V30 16428 H 1557.1 1.27918 0.939289 0
M  V30 16429 H 1557.12 1.06771 3.65213 0
M  V30 16430 H 1556.63 2.68333 2.80391 0
M  V30 16431 H 1554.73 0.388385 3.7057 0
M  V30 16432 H 1554.85 2.18866 4.26186 0
M  V30 16433 H 1553.21 1.07663 2.30827 0
M  V30 16434 H 1553.99 2.73219 2.07862 0
M  V30 16435 N 1556.44 -1.28223 0.91633 0
M  V30 16436 C 1557.37 -2.26291 0.363986 0
M  V30 16437 C 1558.38 -1.54964 -0.498988 0
M  V30 16438 O 1559.57 -1.75726 -0.31345 0
M  V30 16439 C 1556.67 -3.35219 -0.498126 0
M  V30 16440 C 1555.85 -4.36054 0.34293 0
M  V30 16441 C 1554.91 -5.24232 -0.454688 0
M  V30 16442 O 1553.93 -5.69043 0.133649 0
M  V30 16443 N 1555.13 -5.53268 -1.75714 0
M  V30 16444 H 1557.9 -2.74323 1.20694 0
M  V30 16445 H 1555.46 -1.41731 0.782551 0
M  V30 16446 H 1557.45 -3.91148 -1.03852 0
M  V30 16447 H 1556.02 -2.86876 -1.2418 0
M  V30 16448 H 1555.24 -3.7955 1.06468 0
M  V30 16449 H 1556.53 -5.00444 0.918322 0
M  V30 16450 H 1555.93 -5.18698 -2.25762 0
M  V30 16451 H 1554.48 -6.11943 -2.2443 0
M  V30 16452 N 1557.92 -0.68059 -1.42147 0
M  V30 16453 C 1558.88 -0.0149865 -2.29195 0
M  V30 16454 C 1559.88 0.723163 -1.43621 0
M  V30 16455 O 1561.07 0.560297 -1.64943 0
M  V30 16456 C 1558.2 0.989375 -3.26227 0
M  V30 16457 H 1559.4 -0.781236 -2.89546 0
M  V30 16458 H 1556.95 -0.443256 -1.49883 0
M  V30 16459 H 1557.68 1.78391 -2.70827 0
M  V30 16460 H 1557.47 0.463401 -3.89352 0
M  V30 16461 H 1558.96 1.45334 -3.91494 0
M  V30 16462 N 1559.4 1.51781 -0.424309 0
M  V30 16463 C 1560.36 2.25996 0.381903 0
M  V30 16464 C 1561.36 1.28938 0.960813 0
M  V30 16465 O 1562.55 1.52757 0.837306 0
M  V30 16466 C 1559.68 3.04181 1.53904 0
M  V30 16467 H 1560.87 2.98697 -0.268336 0
M  V30 16468 H 1558.43 1.55293 -0.177167 0
M  V30 16469 H 1559.16 2.35866 2.22571 0
M  V30 16470 H 1558.95 3.75457 1.13025 0
M  V30 16471 H 1560.44 3.60434 2.10896 0
M  V30 16472 N 1560.87 0.155222 1.56834 0
M  V30 16473 C 1561.78 -0.794179 2.20749 0
M  V30 16474 C 1562.8 -1.26546 1.19424 0
M  V30 16475 O 1563.98 -1.32094 1.5203 0
M  V30 16476 C 1561.04 -2.01261 2.82303 0
M  V30 16477 C 1560.1 -1.58976 3.98779 0
M  V30 16478 C 1559.33 -2.75011 4.57389 0
M  V30 16479 O 1559.56 -3.91449 4.14879 0
M  V30 16480 O 1558.49 -2.50011 5.4752 0
M  V30 16481 H 1562.32 -0.280064 3.02406 0
M  V30 16482 H 1559.9 -0.0722048 1.49225 0
M  V30 16483 H 1561.78 -2.72551 3.21394 0
M  V30 16484 H 1560.46 -2.51609 2.03653 0
M  V30 16485 H 1559.37 -0.846848 3.64389 0
M  V30 16486 H 1560.7 -1.13336 4.78974 0
M  V30 16487 N 1562.35 -1.57153 -0.118549 0
M  V30 16488 C 1563.76 -1.74046 -0.675645 0
M  V30 16489 C 1564.11 -0.773974 -1.80289 0
M  V30 16490 O 1563.24 0.0530041 -2.16335 0
M  V30 16491 C 1563.83 -3.15591 -1.23239 0
M  V30 16492 C 1562.39 -3.33988 -1.73577 0
M  V30 16493 C 1561.54 -2.69916 -0.63567 0
M  V30 16494 H 1564.49 -1.58336 0.10737 0
M  V30 16495 H 1564.51 -3.17166 -2.10205 0
M  V30 16496 H 1564.02 -3.8591 -0.411744 0
M  V30 16497 H 1562.12 -2.68712 -2.58118 0
M  V30 16498 H 1562.24 -4.42154 -1.84491 0
M  V30 16499 H 1560.6 -2.31163 -1.06939 0
M  V30 16500 H 1561.38 -3.42859 0.174005 0
M  V30 16501 N 1563.83 0.388742 -1.5273 0
M  V30 16502 C 1565.08 1.13094 -1.67011 0
M  V30 16503 C 1565.39 1.91115 -0.416467 0
M  V30 16504 O 1566.6 2.67921 -0.43941 0
M  V30 16505 C 1565.05 2.0595 -2.95149 0
M  V30 16506 C 1564.66 1.3335 -4.27694 0
M  V30 16507 C 1566.41 2.80303 -3.18795 0
M  V30 16508 C 1564.31 2.24973 -5.46938 0
M  V30 16509 H 1563.24 0.425887 -0.622203 0
M  V30 16510 H 1565.89 0.393708 -1.79227 0
M  V30 16511 H 1564.28 2.83309 -2.7668 0
M  V30 16512 H 1565.45 0.612137 -4.56716 0
M  V30 16513 H 1563.76 0.709547 -4.1031 0
M  V30 16514 H 1566.36 3.49036 -4.05065 0
M  V30 16515 H 1566.7 3.44394 -2.33877 0
M  V30 16516 H 1567.24 2.10036 -3.37831 0
M  V30 16517 H 1563.98 1.65497 -6.34264 0
M  V30 16518 H 1563.5 2.95024 -5.22227 0
M  V30 16519 H 1565.18 2.8505 -5.80823 0
M  V30 16520 N 1565.31 1.43698 0.647203 0
M  V30 16521 C 1566.27 1.48986 1.74172 0
M  V30 16522 C 1567.27 0.373812 1.56395 0
M  V30 16523 O 1568.46 0.635804 1.62183 0
M  V30 16524 C 1565.59 1.34827 3.13104 0
M  V30 16525 H 1566.79 2.46467 1.70863 0
M  V30 16526 H 1564.34 1.30552 0.859409 0
M  V30 16527 H 1565.07 0.383772 3.22021 0
M  V30 16528 H 1564.86 2.15738 3.27414 0
M  V30 16529 H 1566.35 1.41473 3.92906 0
M  V30 16530 N 1566.79 -0.886131 1.30328 0
M  V30 16531 C 1568.01 -1.67099 1.22007 0
M  V30 16532 C 1568.43 -1.87546 -0.217255 0
M  V30 16533 O 1567.79 -1.42213 -1.14375 0
M  V30 16534 C 1567.84 -3.048 1.94368 0
M  V30 16535 O 1567.56 -2.85277 3.32489 0
M  V30 16536 C 1569.06 -3.99231 1.9269 0
M  V30 16537 H 1566.28 -0.521467 0.422271 0
M  V30 16538 H 1568.82 -1.1072 1.71934 0
M  V30 16539 H 1566.98 -3.57915 1.48242 0
M  V30 16540 H 1567.39 -3.72626 3.69121 0
M  V30 16541 H 1568.87 -4.93223 2.47861 0
M  V30 16542 H 1569.34 -4.29763 0.905558 0
M  V30 16543 H 1569.95 -3.52051 2.38621 0
M  V30 16544 N 1568.26 -1.13026 -1.09832 0
M  V30 16545 C 1569.51 -0.889419 -1.81922 0
M  V30 16546 C 1569.84 0.584572 -1.85507 0
M  V30 16547 O 1569.09 1.44844 -1.316 0
M  V30 16548 C 1569.39 -1.41718 -3.28102 0
M  V30 16549 C 1569.06 -2.90729 -3.44655 0
M  V30 16550 C 1567.72 -3.31415 -3.48881 0
M  V30 16551 C 1570.07 -3.86619 -3.49536 0
M  V30 16552 C 1567.4 -4.66683 -3.55561 0
M  V30 16553 C 1569.75 -5.21726 -3.5775 0
M  V30 16554 C 1568.42 -5.61945 -3.60242 0
M  V30 16555 H 1567.69 -0.325461 -0.6657 0
M  V30 16556 H 1570.33 -1.4115 -1.29418 0
M  V30 16557 H 1568.64 -0.815709 -3.83215 0
M  V30 16558 H 1570.34 -1.20696 -3.82405 0
M  V30 16559 H 1566.93 -2.58266 -3.42048 0
M  V30 16560 H 1571.11 -3.56276 -3.45516 0
M  V30 16561 H 1566.37 -4.97226 -3.55776 0
M  V30 16562 H 1570.54 -5.95847 -3.60471 0
M  V30 16563 H 1568.17 -6.66749 -3.65171 0
M  V30 16564 N 1569.74 1.27735 -0.923117 0
M  V30 16565 C 1570.97 1.98394 -0.57648 0
M  V30 16566 C 1571.38 1.69093 0.848778 0
M  V30 16567 O 1570.72 0.945385 1.57506 0
M  V30 16568 C 1570.79 3.52278 -0.716984 0
M  V30 16569 C 1570.45 4.05191 -2.11351 0
M  V30 16570 C 1571.45 4.18314 -3.08722 0
M  V30 16571 C 1569.13 4.39652 -2.42922 0
M  V30 16572 C 1571.13 4.65166 -4.35774 0
M  V30 16573 C 1568.81 4.86196 -3.70211 0
M  V30 16574 C 1569.81 4.98911 -4.66451 0
M  V30 16575 O 1569.5 5.44437 -5.91476 0
M  V30 16576 H 1569.23 0.640008 -0.217636 0
M  V30 16577 H 1571.78 1.63666 -1.24107 0
M  V30 16578 H 1570.01 3.867 0.00469601 0
M  V30 16579 H 1571.7 4.04154 -0.376077 0
M  V30 16580 H 1572.47 3.91955 -2.85651 0
M  V30 16581 H 1568.35 4.29 -1.6876 0
M  V30 16582 H 1571.89 4.75006 -5.10896 0
M  V30 16583 H 1567.79 5.11997 -3.93103 0
M  V30 16584 H 1568.56 5.62701 -5.94399 0
M  V30 16585 N 1571.22 0.688118 1.41784 0
M  V30 16586 C 1572.47 0.215517 2.00948 0
M  V30 16587 C 1572.79 -1.18656 1.54744 0
M  V30 16588 O 1572.06 -1.79925 0.774831 0
M  V30 16589 H 1570.64 0.0766876 0.743053 0
M  V30 16590 H 1573.3 0.88761 1.73515 0
M  V30 16591 H 1572.4 0.227139 3.11272 0
M  V30 16592 N 1572.7 -1.51554 0.432352 0
M  V30 16593 C 1573.63 -2.30514 -0.372243 0
M  V30 16594 C 1574.61 -1.35712 -1.02549 0
M  V30 16595 O 1575.79 -1.6463 -1.03009 0
M  V30 16596 C 1572.92 -3.14353 -1.47646 0
M  V30 16597 C 1571.88 -4.17392 -0.946974 0
M  V30 16598 C 1571.2 -4.89721 -2.14656 0
M  V30 16599 C 1572.5 -5.22298 0.0151377 0
M  V30 16600 H 1574.2 -2.98024 0.28668 0
M  V30 16601 H 1571.74 -1.43325 0.139315 0
M  V30 16602 H 1573.7 -3.68369 -2.04651 0
M  V30 16603 H 1572.42 -2.44654 -2.1636 0
M  V30 16604 H 1571.08 -3.6442 -0.399174 0
M  V30 16605 H 1570.73 -4.1653 -2.81978 0
M  V30 16606 H 1570.43 -5.59393 -1.79869 0
M  V30 16607 H 1571.95 -5.46559 -2.72224 0
M  V30 16608 H 1573.37 -5.71416 -0.464447 0
M  V30 16609 H 1571.76 -5.99468 0.275339 0
M  V30 16610 H 1572.83 -4.75436 0.953357 0
M  V30 16611 N 1574.18 -0.163538 -1.56749 0
M  V30 16612 C 1575.59 0.192717 -1.58432 0
M  V30 16613 C 1575.79 1.63438 -1.17856 0
M  V30 16614 O 1574.85 2.36425 -0.88654 0
M  V30 16615 C 1576.16 -0.0810427 -3.00591 0
M  V30 16616 C 1577.71 -0.0186378 -3.12994 0
M  V30 16617 C 1578.18 -0.265283 -4.57231 0
M  V30 16618 N 1579.68 -0.212787 -4.62711 0
M  V30 16619 C 1580.41 -0.37791 -5.72153 0
M  V30 16620 N 1579.91 -0.601663 -6.90182 0
M  V30 16621 N 1581.7 -0.314357 -5.6122 0
M  V30 16622 H 1573.85 -1.10467 -1.81413 0
M  V30 16623 H 1576.11 -0.438569 -0.840453 0
M  V30 16624 H 1575.82 -1.07944 -3.34725 0
M  V30 16625 H 1575.69 0.630888 -3.71887 0
M  V30 16626 H 1578.08 0.970324 -2.78691 0
M  V30 16627 H 1578.16 -0.763158 -2.44151 0
M  V30 16628 H 1577.81 -1.25142 -4.92242 0
M  V30 16629 H 1577.74 0.499756 -5.24223 0
M  V30 16630 H 1580.23 -0.0451754 -3.77873 0
M  V30 16631 H 1580.54 -0.717319 -7.69464 0
M  V30 16632 H 1578.88 -0.638184 -6.92064 0
M  V30 16633 H 1582.08 -0.140197 -4.6789 0
M  V30 16634 H 1582.25 -0.446472 -6.4646 0
M  V30 16635 N 1575.65 1.57214 0.110213 0
M  V30 16636 C 1576.59 1.97641 1.16064 0
M  V30 16637 C 1577.6 0.876886 1.37166 0
M  V30 16638 O 1578.79 1.15512 1.36086 0
M  V30 16639 C 1575.89 2.2671 2.51904 0
M  V30 16640 C 1575.06 3.58015 2.51285 0
M  V30 16641 C 1574.12 3.75195 3.68938 0
M  V30 16642 O 1573.15 4.47214 3.5212 0
M  V30 16643 N 1574.35 3.14627 4.87842 0
M  V30 16644 H 1577.11 2.88358 0.816679 0
M  V30 16645 H 1574.67 1.59108 0.299383 0
M  V30 16646 H 1576.67 2.35411 3.29187 0
M  V30 16647 H 1575.24 1.42076 2.78448 0
M  V30 16648 H 1574.46 3.60422 1.59655 0
M  V30 16649 H 1575.74 4.44303 2.47936 0
M  V30 16650 H 1575.14 2.56101 5.0441 0
M  V30 16651 H 1573.7 3.28836 5.6277 0
M  V30 16652 N 1577.13 -0.380637 1.52934 0
M  V30 16653 C 1578.06 -1.48518 1.74571 0
M  V30 16654 C 1579.08 -1.50272 0.626263 0
M  V30 16655 O 1580.27 -1.54023 0.902167 0
M  V30 16656 C 1577.37 -2.87339 1.79693 0
M  V30 16657 C 1576.54 -3.09454 3.09123 0
M  V30 16658 C 1575.6 -4.28305 3.05682 0
M  V30 16659 O 1574.62 -4.24205 3.79524 0
M  V30 16660 N 1575.83 -5.34932 2.2545 0
M  V30 16661 H 1578.59 -1.30341 2.69873 0
M  V30 16662 H 1576.15 -0.57023 1.51526 0
M  V30 16663 H 1578.14 -3.64961 1.74887 0
M  V30 16664 H 1576.71 -2.98835 0.917414 0
M  V30 16665 H 1575.93 -2.19623 3.27352 0
M  V30 16666 H 1577.22 -3.21089 3.94689 0
M  V30 16667 H 1576.62 -5.41121 1.64939 0
M  V30 16668 H 1575.18 -6.11189 2.26476 0
M  V30 16669 N 1578.61 -1.44039 -0.639573 0
M  V30 16670 C 1579.57 -1.49907 -1.7338 0
M  V30 16671 C 1580.57 -0.382101 -1.56194 0
M  V30 16672 O 1581.76 -0.644396 -1.61843 0
M  V30 16673 C 1578.9 -1.36486 -3.12385 0
M  V30 16674 H 1580.09 -2.4737 -1.69553 0
M  V30 16675 H 1577.64 -1.31006 -0.852474 0
M  V30 16676 H 1578.38 -0.400845 -3.21813 0
M  V30 16677 H 1578.16 -2.17471 -3.26265 0
M  V30 16678 H 1579.65 -1.43555 -3.9215 0
M  V30 16679 N 1580.09 0.879207 -1.30796 0
M  V30 16680 C 1581 2.01822 -1.19604 0
M  V30 16681 C 1582.01 1.73621 -0.114715 0
M  V30 16682 O 1583.19 1.98665 -0.330757 0
M  V30 16683 C 1580.26 3.3496 -0.894569 0
M  V30 16684 C 1579.32 3.76545 -2.06185 0
M  V30 16685 C 1578.55 5.0333 -1.77467 0
M  V30 16686 O 1578.77 5.66022 -0.70535 0
M  V30 16687 O 1577.71 5.41461 -2.62876 0
M  V30 16688 H 1581.53 2.14194 -2.15301 0
M  V30 16689 H 1579.12 1.00608 -1.10446 0
M  V30 16690 H 1581 4.14818 -0.741891 0
M  V30 16691 H 1579.67 3.23684 0.0324464 0
M  V30 16692 H 1578.58 2.97367 -2.26988 0
M  V30 16693 H 1579.91 3.92434 -2.97079 0
M  V30 16694 N 1581.57 1.13606 1.09231 0
M  V30 16695 C 1582.51 0.815279 2.15921 0
M  V30 16696 C 1583.48 -0.223501 1.64589 0
M  V30 16697 O 1584.67 -0.0952982 1.90562 0
M  V30 16698 C 1581.81 0.289655 3.43882 0
M  V30 16699 C 1580.92 1.38773 4.09104 0
M  V30 16700 C 1580.06 0.820238 5.24829 0
M  V30 16701 C 1579.1 1.89658 5.81976 0
M  V30 16702 N 1578.23 1.34688 6.8906 0
M  V30 16703 H 1583.07 1.72914 2.42703 0
M  V30 16704 H 1580.61 0.863101 1.19117 0
M  V30 16705 H 1582.57 -0.0332398 4.17187 0
M  V30 16706 H 1581.2 -0.587329 3.17412 0
M  V30 16707 H 1580.25 1.82718 3.33644 0
M  V30 16708 H 1581.56 2.20114 4.47606 0
M  V30 16709 H 1580.72 0.448745 6.05038 0
M  V30 16710 H 1579.46 -0.0242261 4.87694 0
M  V30 16711 H 1578.46 2.27712 5.00427 0
M  V30 16712 H 1579.69 2.74448 6.21172 0
M  V30 16713 H 1577.63 0.524453 6.539 0
M  V30 16714 H 1577.55 2.09675 7.26342 0
M  V30 16715 H 1578.82 1.00302 7.7302 0
M  V30 16716 N 1583.05 -1.27244 0.929878 0
M  V30 16717 C 1584.32 -1.89369 0.489774 0
M  V30 16718 C 1584.7 -1.84142 -1.03222 0
M  V30 16719 O 1584.05 -1.2881 -1.88733 0
M  V30 16720 C 1584.26 -3.33196 1.03833 0
M  V30 16721 C 1585.61 -4.101 1.10013 0
M  V30 16722 O 1586.63 -3.42221 0.988106 0
M  V30 16723 O 1585.49 -5.31468 1.27296 0
M  V30 16724 H 1582.59 -0.811789 0.157882 0
M  V30 16725 H 1585.13 -1.35496 1.02171 0
M  V30 16726 H 1583.9 -3.31304 2.08214 0
M  V30 16727 H 1583.53 -3.94592 0.488167 0
M  V30 16728 N 1584.52 -0.695628 -1.41417 0
M  V30 16729 C 1585.75 -0.234163 -2.06074 0
M  V30 16730 C 1586.17 1.10796 -1.52006 0
M  V30 16731 O 1585.53 1.6936 -0.64705 0
M  V30 16732 C 1585.58 -0.202353 -3.60032 0
M  V30 16733 O 1584.68 0.822767 -4.04109 0
M  V30 16734 H 1584.02 -0.114395 -0.654072 0
M  V30 16735 H 1586.55 -0.950503 -1.81181 0
M  V30 16736 H 1586.56 -0.0332321 -4.07986 0
M  V30 16737 H 1585.24 -1.18188 -3.98754 0
M  V30 16738 H 1583.82 0.622995 -3.67659 0
M  V30 16739 N 1586 1.51322 -0.440383 0
M  V30 16740 C 1586.96 2.26388 0.357911 0
M  V30 16741 C 1587.96 1.2995 0.947083 0
M  V30 16742 O 1589.15 1.53637 0.821057 0
M  V30 16743 C 1586.29 3.05797 1.50669 0
M  V30 16744 H 1587.48 2.98396 -0.300002 0
M  V30 16745 H 1585.03 1.55096 -0.193628 0
M  V30 16746 H 1585.77 2.38213 2.20057 0
M  V30 16747 H 1585.55 3.76634 1.09037 0
M  V30 16748 H 1587.04 3.6265 2.07062 0
M  V30 16749 N 1587.48 0.171848 1.5666 0
M  V30 16750 C 1588.7 -0.482396 2.01712 0
M  V30 16751 C 1589.13 -1.5598 1.05128 0
M  V30 16752 O 1588.49 -1.81274 0.0309178 0
M  V30 16753 C 1588.54 -1.03716 3.45363 0
M  V30 16754 O 1587.64 -2.15114 3.51852 0
M  V30 16755 H 1586.98 -0.115439 0.653888 0
M  V30 16756 H 1589.51 0.275895 2.02731 0
M  V30 16757 H 1589.52 -1.35964 3.84679 0
M  V30 16758 H 1588.2 -0.24832 4.15158 0
M  V30 16759 H 1586.77 -1.83907 3.24396 0
M  V30 16760 N 1588.96 -1.5727 -0.101874 0
M  V30 16761 C 1590.19 -1.89943 -0.820329 0
M  V30 16762 C 1590.6 -0.764867 -1.72613 0
M  V30 16763 O 1589.96 0.263499 -1.80588 0
M  V30 16764 C 1590.01 -3.2219 -1.63939 0
M  V30 16765 O 1589.73 -4.31279 -0.770039 0
M  V30 16766 C 1591.23 -3.6868 -2.46151 0
M  V30 16767 H 1588.45 -0.628532 -0.234922 0
M  V30 16768 H 1590.99 -2.04339 -0.0811362 0
M  V30 16769 H 1589.15 -3.09411 -2.33117 0
M  V30 16770 H 1589.56 -5.07182 -1.33665 0
M  V30 16771 H 1591.04 -4.63928 -2.99124 0
M  V30 16772 H 1591.51 -2.96183 -3.24303 0
M  V30 16773 H 1592.12 -3.84303 -1.82185 0
M  V30 16774 N 1590.44 0.372521 -1.53134 0
M  V30 16775 C 1591.35 1.47994 -1.8203 0
M  V30 16776 C 1592.36 1.58937 -0.708179 0
M  V30 16777 O 1593.54 1.74962 -0.997511 0
M  V30 16778 C 1590.6 2.83342 -1.99796 0
M  V30 16779 C 1589.66 2.81984 -3.23702 0
M  V30 16780 C 1588.9 4.10877 -3.40611 0
M  V30 16781 O 1589.12 5.06686 -2.61964 0
M  V30 16782 O 1588.05 4.17111 -4.33938 0
M  V30 16783 H 1591.88 1.26501 -2.761 0
M  V30 16784 H 1589.46 0.561957 -1.38428 0
M  V30 16785 H 1591.35 3.63551 -2.13092 0
M  V30 16786 H 1590.02 3.04826 -1.08916 0
M  V30 16787 H 1588.93 2.00498 -3.15834 0
M  V30 16788 H 1590.26 2.65453 -4.14482 0
M  V30 16789 N 1591.91 1.44376 0.631925 0
M  V30 16790 C 1593.32 1.41881 1.21353 0
M  V30 16791 C 1593.68 0.13375 1.95744 0
M  V30 16792 O 1592.8 -0.765919 2.02392 0
M  V30 16793 C 1593.4 2.57027 2.20732 0
M  V30 16794 C 1591.95 2.5773 2.74322 0
M  V30 16795 C 1591.1 2.33672 1.49307 0
M  V30 16796 H 1594.05 1.52968 0.42265 0
M  V30 16797 H 1594.07 2.29735 3.03319 0
M  V30 16798 H 1593.59 3.50541 1.66561 0
M  V30 16799 H 1591.69 1.68155 3.32498 0
M  V30 16800 H 1591.8 3.5619 3.20415 0
M  V30 16801 H 1590.16 1.8275 1.7741 0
M  V30 16802 H 1590.95 3.293 0.970395 0
M  V30 16803 N 1593.39 -0.872258 1.31261 0
M  V30 16804 C 1594.62 -1.65555 1.23593 0
M  V30 16805 C 1595.03 -1.88124 -0.201532 0
M  V30 16806 O 1594.37 -1.43792 -1.14323 0
M  V30 16807 C 1594.43 -3.04726 1.90742 0
M  V30 16808 C 1594.1 -3.05276 3.40082 0
M  V30 16809 C 1595.1 -2.83401 4.35867 0
M  V30 16810 C 1592.78 -3.26469 3.81737 0
M  V30 16811 C 1594.77 -2.82697 5.71281 0
M  V30 16812 C 1592.46 -3.25393 5.17265 0
M  V30 16813 C 1593.46 -3.03533 6.11847 0
M  V30 16814 O 1593.15 -3.02297 7.44897 0
M  V30 16815 H 1592.88 -0.52296 0.428356 0
M  V30 16816 H 1595.43 -1.09717 1.73641 0
M  V30 16817 H 1593.66 -3.62281 1.35239 0
M  V30 16818 H 1595.35 -3.65265 1.7702 0
M  V30 16819 H 1596.12 -2.66812 4.05014 0
M  V30 16820 H 1592 -3.42515 3.08552 0
M  V30 16821 H 1595.54 -2.65553 6.45079 0
M  V30 16822 H 1591.44 -3.41522 5.47753 0
M  V30 16823 H 1592.21 -3.18375 7.54042 0
M  V30 16824 N 1594.87 -1.14184 -1.08627 0
M  V30 16825 C 1596.1 -0.930752 -1.84447 0
M  V30 16826 C 1596.51 0.524072 -1.81797 0
M  V30 16827 O 1595.85 1.37483 -1.21836 0
M  V30 16828 C 1595.91 -1.35125 -3.33139 0
M  V30 16829 C 1595.58 -2.82117 -3.59526 0
M  V30 16830 C 1596.57 -3.80242 -3.54559 0
M  V30 16831 C 1594.26 -3.19475 -3.87609 0
M  V30 16832 C 1596.25 -5.13734 -3.77301 0
M  V30 16833 C 1593.94 -4.53144 -4.10005 0
M  V30 16834 C 1594.94 -5.50082 -4.04844 0
M  V30 16835 O 1594.63 -6.81339 -4.26653 0
M  V30 16836 H 1594.36 -0.331385 -0.589203 0
M  V30 16837 H 1596.91 -1.52033 -1.38113 0
M  V30 16838 H 1595.14 -0.704995 -3.80219 0
M  V30 16839 H 1596.83 -1.11133 -3.9039 0
M  V30 16840 H 1597.6 -3.52726 -3.32881 0
M  V30 16841 H 1593.48 -2.44617 -3.90747 0
M  V30 16842 H 1597.02 -5.89386 -3.73188 0
M  V30 16843 H 1592.92 -4.80381 -4.31166 0
M  V30 16844 H 1593.68 -6.87563 -4.44071 0
M  V30 16845 N 1596.35 1.26749 -0.936613 0
M  V30 16846 C 1597.59 1.95725 -0.58917 0
M  V30 16847 C 1597.95 1.71905 0.855145 0
M  V30 16848 O 1599.15 2.34645 1.3113 0
M  V30 16849 C 1597.42 3.45444 -0.916706 0
M  V30 16850 S 1598.98 4.33513 -0.67912 0
M  V30 16851 H 1595.8 0.677024 -0.217162 0
M  V30 16852 H 1598.4 1.53795 -1.20695 0
M  V30 16853 H 1597.11 3.60279 -1.96537 0
M  V30 16854 H 1596.64 3.92341 -0.288466 0
M  V30 16855 H 1598.65 4.94074 0.458864 0
M  V30 16856 N 1597.83 0.703118 1.41046 0
M  V30 16857 C 1598.76 0.0570815 2.3343 0
M  V30 16858 C 1599.74 -0.759042 1.52225 0
M  V30 16859 O 1600.92 -0.710491 1.80736 0
M  V30 16860 C 1598.05 -0.874541 3.36109 0
M  V30 16861 C 1597.01 -0.16496 4.27682 0
M  V30 16862 C 1596.33 -1.21145 5.20795 0
M  V30 16863 C 1597.63 0.97332 5.13151 0
M  V30 16864 H 1599.33 0.828699 2.87703 0
M  V30 16865 H 1596.87 0.399956 1.38334 0
M  V30 16866 H 1598.83 -1.33579 3.99668 0
M  V30 16867 H 1597.55 -1.67791 2.80203 0
M  V30 16868 H 1596.21 0.276332 3.65557 0
M  V30 16869 H 1595.86 -2.00755 4.61201 0
M  V30 16870 H 1595.56 -0.741633 5.82901 0
M  V30 16871 H 1597.08 -1.67305 5.87232 0
M  V30 16872 H 1598.49 0.592013 5.70235 0
M  V30 16873 H 1596.89 1.37071 5.84236 0
M  V30 16874 H 1597.96 1.80961 4.49868 0
M  V30 16875 N 1599.3 -1.51086 0.448402 0
M  V30 16876 C 1600.53 -2.07081 -0.115038 0
M  V30 16877 C 1600.95 -1.31253 -1.34737 0
M  V30 16878 O 1600.31 -0.353613 -1.77818 0
M  V30 16879 C 1600.36 -3.58321 -0.404803 0
M  V30 16880 O 1599.46 -3.84567 -1.48936 0
M  V30 16881 H 1598.81 -0.663993 0.00299118 0
M  V30 16882 H 1601.34 -1.94564 0.632921 0
M  V30 16883 H 1601.35 -4.02756 -0.652013 0
M  V30 16884 H 1600.02 -4.12934 0.495838 0
M  V30 16885 H 1598.6 -3.51987 -1.23124 0
M  V30 16886 N 1600.78 -0.180154 -1.56567 0
M  V30 16887 C 1602.06 0.509347 -1.88852 0
M  V30 16888 C 1602.44 1.80697 -1.09141 0
M  V30 16889 O 1601.79 2.27726 -0.187974 0
M  V30 16890 C 1602 0.742669 -3.41006 0
M  V30 16891 C 1603.35 1.06873 -4.1093 0
M  V30 16892 O 1604.37 0.830907 -3.46373 0
M  V30 16893 O 1603.23 1.51784 -5.24999 0
M  V30 16894 H 1600.32 0.263629 -0.783855 0
M  V30 16895 H 1602.87 -0.219251 -1.68278 0
M  V30 16896 H 1601.64 -0.17431 -3.90912 0
M  V30 16897 H 1601.26 1.52427 -3.67222 0
M  V30 16898 N 1602.26 1.57322 0.0935319 0
M  V30 16899 C 1603.51 1.86167 0.796739 0
M  V30 16900 C 1603.84 0.768893 1.78657 0
M  V30 16901 O 1603.09 -0.237358 1.94255 0
M  V30 16902 C 1603.39 3.21605 1.55901 0
M  V30 16903 C 1603.06 4.45256 0.711165 0
M  V30 16904 C 1601.72 4.78826 0.477442 0
M  V30 16905 C 1604.07 5.21058 0.121859 0
M  V30 16906 C 1601.4 5.85622 -0.355425 0
M  V30 16907 C 1603.75 6.28734 -0.69834 0
M  V30 16908 C 1602.41 6.60818 -0.94214 0
M  V30 16909 H 1601.68 0.681235 0.291547 0
M  V30 16910 H 1604.33 1.91412 0.0581736 0
M  V30 16911 H 1602.64 3.12052 2.36919 0
M  V30 16912 H 1604.33 3.41151 2.10753 0
M  V30 16913 H 1600.92 4.1897 0.903444 0
M  V30 16914 H 1605.11 4.95454 0.289588 0
M  V30 16915 H 1600.36 6.08891 -0.553277 0
M  V30 16916 H 1604.54 6.8664 -1.16183 0
M  V30 16917 H 1602.16 7.43401 -1.5893 0
M  V30 16918 N 1603.74 -0.364395 1.53329 0
M  V30 16919 C 1604.99 -1.10423 1.68789 0
M  V30 16920 C 1605.3 -1.90428 0.446819 0
M  V30 16921 O 1606.51 -2.67188 0.481978 0
M  V30 16922 C 1604.96 -2.01228 2.98388 0
M  V30 16923 C 1604.57 -1.26529 4.29761 0
M  V30 16924 C 1606.31 -2.75196 3.23214 0
M  V30 16925 C 1604.22 -2.16243 5.50448 0
M  V30 16926 H 1603.15 -0.415935 0.628899 0
M  V30 16927 H 1605.8 -0.365145 1.7983 0
M  V30 16928 H 1604.18 -2.78872 2.81152 0
M  V30 16929 H 1605.36 -0.5394 4.57632 0
M  V30 16930 H 1603.67 -0.644181 4.11387 0
M  V30 16931 H 1606.27 -3.42548 4.10567 0
M  V30 16932 H 1606.61 -3.40629 2.39327 0
M  V30 16933 H 1607.15 -2.04635 3.4113 0
M  V30 16934 H 1603.89 -1.55385 6.36817 0
M  V30 16935 H 1603.41 -2.86678 5.26855 0
M  V30 16936 H 1605.08 -2.75774 5.85284 0
M  V30 16937 N 1605.22 -1.44709 -0.62426 0
M  V30 16938 C 1606.18 -1.51738 -1.7178 0
M  V30 16939 C 1607.18 -0.398646 -1.5578 0
M  V30 16940 O 1608.37 -0.661525 -1.61151 0
M  V30 16941 C 1605.5 -1.39792 -3.1092 0
M  V30 16942 H 1606.69 -2.49154 -1.6692 0
M  V30 16943 H 1604.25 -1.31903 -0.838531 0
M  V30 16944 H 1604.98 -0.434955 -3.2137 0
M  V30 16945 H 1604.77 -2.20919 -3.2394 0
M  V30 16946 H 1606.26 -1.47706 -3.90606 0
M  V30 16947 N 1606.69 0.865285 -1.31722 0
M  V30 16948 C 1608.11 1.43445 -1.195 0
M  V30 16949 C 1608.46 1.95212 0.196688 0
M  V30 16950 O 1607.58 1.86666 1.09475 0
M  V30 16951 C 1608.18 2.6074 -2.16333 0
M  V30 16952 C 1606.74 3.13688 -2.08031 0
M  V30 16953 C 1605.88 1.86409 -2.05298 0
M  V30 16954 H 1608.83 0.6734 -1.43705 0
M  V30 16955 H 1608.85 3.37575 -1.75566 0
M  V30 16956 H 1608.37 2.23033 -3.17612 0
M  V30 16957 H 1606.47 3.56004 -1.09962 0
M  V30 16958 H 1606.58 3.75653 -2.97358 0
M  V30 16959 H 1604.94 2.05567 -1.50381 0
M  V30 16960 H 1605.73 1.50933 -3.08341 0
M  V30 16961 N 1608.17 1.14759 1.0802 0
M  V30 16962 C 1609.1 0.860977 2.17047 0
M  V30 16963 C 1610.08 -0.185652 1.69084 0
M  V30 16964 O 1611.27 -0.0414797 1.94156 0
M  V30 16965 C 1608.4 0.342018 3.45612 0
M  V30 16966 C 1607.35 1.32455 4.06989 0
M  V30 16967 C 1606.68 0.664721 5.30552 0
M  V30 16968 C 1607.98 2.68819 4.4781 0
M  V30 16969 H 1609.67 1.77269 2.4128 0
M  V30 16970 H 1607.22 0.853757 1.15961 0
M  V30 16971 H 1609.17 0.129093 4.21202 0
M  V30 16972 H 1607.9 -0.605138 3.20945 0
M  V30 16973 H 1606.55 1.52371 3.33435 0
M  V30 16974 H 1606.2 -0.288367 5.02173 0
M  V30 16975 H 1605.9 1.32036 5.72573 0
M  V30 16976 H 1607.43 0.461412 6.08854 0
M  V30 16977 H 1608.84 2.52787 5.14559 0
M  V30 16978 H 1607.24 3.30694 5.00761 0
M  V30 16979 H 1608.31 3.25398 3.59506 0
M  V30 16980 N 1609.65 -1.26251 0.943322 0
M  V30 16981 C 1610.6 -2.23996 0.425437 0
M  V30 16982 C 1611.58 -1.53604 -0.479033 0
M  V30 16983 O 1612.78 -1.74194 -0.313929 0
M  V30 16984 C 1609.91 -3.41932 -0.306175 0
M  V30 16985 C 1608.99 -4.19607 0.615711 0
M  V30 16986 N 1609.38 -4.7484 1.74243 0
M  V30 16987 C 1607.68 -4.44002 0.421711 0
M  V30 16988 C 1608.38 -5.3356 2.31709 0
M  V30 16989 N 1607.36 -5.1937 1.60487 0
M  V30 16990 H 1611.16 -2.64296 1.28549 0
M  V30 16991 H 1608.67 -1.4136 0.799446 0
M  V30 16992 H 1610.67 -4.11079 -0.694243 0
M  V30 16993 H 1609.33 -3.03159 -1.16297 0
M  V30 16994 H 1610.34 -4.72318 2.12453 0
M  V30 16995 H 1607.02 -4.15645 -0.393138 0
M  V30 16996 H 1608.41 -5.87151 3.26654 0
M  V30 16997 N 1611.13 -0.710588 -1.40671 0
M  V30 16998 C 1612.35 -0.256007 -2.05814 0
M  V30 16999 C 1612.78 1.09178 -1.53173 0
M  V30 17000 O 1612.14 1.68665 -0.664977 0
M  V30 17001 C 1612.19 -0.240528 -3.59797 0
M  V30 17002 O 1611.29 0.779859 -4.04959 0
M  V30 17003 H 1610.63 -0.121326 -0.652822 0
M  V30 17004 H 1613.16 -0.969667 -1.80163 0
M  V30 17005 H 1613.17 -0.0765027 -4.07928 0
M  V30 17006 H 1611.85 -1.22411 -3.97478 0
M  V30 17007 H 1610.42 0.583965 -3.68299 0
M  V30 17008 N 1612.61 1.50847 -0.456408 0
M  V30 17009 C 1613.86 2.01835 0.103414 0
M  V30 17010 C 1614.18 1.34142 1.4153 0
M  V30 17011 O 1613.45 0.482015 1.89877 0
M  V30 17012 H 1612.03 0.745863 0.0412074 0
M  V30 17013 H 1614.69 1.85322 -0.603477 0
M  V30 17014 H 1613.78 3.10968 0.265562 0
M  V30 17015 N 1614.09 0.188454 1.56469 0
M  V30 17016 C 1615.33 -0.452238 1.96565 0
M  V30 17017 C 1615.65 -1.63219 1.07792 0
M  V30 17018 O 1616.85 -2.34024 1.37641 0
M  V30 17019 C 1615.31 -0.855966 3.49573 0
M  V30 17020 C 1614.92 0.299329 4.46999 0
M  V30 17021 C 1616.66 -1.46411 3.98452 0
M  V30 17022 C 1614.57 -0.124987 5.91268 0
M  V30 17023 H 1613.5 -0.172729 0.733949 0
M  V30 17024 H 1616.15 0.279415 1.8136 0
M  V30 17025 H 1614.53 -1.64409 3.60258 0
M  V30 17026 H 1615.71 1.07681 4.48042 0
M  V30 17027 H 1614.02 0.818542 4.08275 0
M  V30 17028 H 1616.62 -1.79392 5.03709 0
M  V30 17029 H 1616.96 -2.36822 3.42376 0
M  V30 17030 H 1617.49 -0.740088 3.90855 0
M  V30 17031 H 1614.23 0.744769 6.51255 0
M  V30 17032 H 1613.75 -0.86747 5.93494 0
M  V30 17033 H 1615.43 -0.563054 6.44545 0
M  V30 17034 N 1615.56 -1.5737 -0.0851874 0
M  V30 17035 C 1616.98 -1.53425 -0.439651 0
M  V30 17036 C 1617.18 -0.906663 -1.7995 0
M  V30 17037 O 1616.24 -0.503414 -2.47431 0
M  V30 17038 C 1617.55 -2.9812 -0.393028 0
M  V30 17039 C 1619.1 -3.09387 -0.474175 0
M  V30 17040 C 1619.57 -4.55708 -0.457598 0
M  V30 17041 N 1621.06 -4.60294 -0.518065 0
M  V30 17042 C 1621.8 -5.70971 -0.527237 0
M  V30 17043 N 1621.29 -6.91051 -0.492023 0
M  V30 17044 N 1623.09 -5.59174 -0.572792 0
M  V30 17045 H 1615.24 -1.96538 0.805399 0
M  V30 17046 H 1617.5 -0.899 0.300836 0
M  V30 17047 H 1617.21 -3.47542 0.539204 0
M  V30 17048 H 1617.08 -3.57324 -1.20829 0
M  V30 17049 H 1619.47 -2.59948 -1.39683 0
M  V30 17050 H 1619.55 -2.53119 0.369411 0
M  V30 17051 H 1619.19 -5.05802 0.46115 0
M  V30 17052 H 1619.12 -5.09826 -1.31853 0
M  V30 17053 H 1621.61 -3.73875 -0.550072 0
M  V30 17054 H 1621.93 -7.71164 -0.502578 0
M  V30 17055 H 1620.27 -6.93483 -0.458917 0
M  V30 17056 H 1623.46 -4.64266 -0.597901 0
M  V30 17057 H 1623.64 -6.45431 -0.576471 0
M  V30 17058 N 1617.04 0.356258 -1.53521 0
M  V30 17059 C 1618.32 1.11414 -1.60768 0
M  V30 17060 C 1618.7 2.0686 -0.420991 0
M  V30 17061 O 1618.05 2.20807 0.587929 0
M  V30 17062 C 1618.26 1.84503 -2.96243 0
M  V30 17063 C 1619.6 2.38703 -3.5115 0
M  V30 17064 O 1620.63 1.94617 -2.98333 0
M  V30 17065 O 1619.49 3.19322 -4.43504 0
M  V30 17066 H 1616.58 0.511623 -0.649747 0
M  V30 17067 H 1619.13 0.358772 -1.65864 0
M  V30 17068 H 1617.9 1.14898 -3.74051 0
M  V30 17069 H 1617.52 2.66927 -2.94679 0
M  V30 17070 N 1618.52 1.45038 0.616577 0
M  V30 17071 C 1619.75 1.51874 1.40064 0
M  V30 17072 C 1620.16 0.147105 1.88627 0
M  V30 17073 O 1619.5 -0.85995 1.62329 0
M  V30 17074 C 1619.56 2.43421 2.64549 0
M  V30 17075 C 1619.23 3.90326 2.37685 0
M  V30 17076 C 1620.22 4.80471 1.98605 0
M  V30 17077 C 1617.91 4.35163 2.50875 0
M  V30 17078 C 1619.9 6.13456 1.73064 0
M  V30 17079 C 1617.59 5.68192 2.24947 0
M  V30 17080 C 1618.59 6.57157 1.86102 0
M  V30 17081 O 1618.28 7.87721 1.60472 0
M  V30 17082 H 1618.01 0.517048 0.435474 0
M  V30 17083 H 1620.56 1.90826 0.759899 0
M  V30 17084 H 1618.79 1.99423 3.31312 0
M  V30 17085 H 1620.48 2.41042 3.26579 0
M  V30 17086 H 1621.25 4.47098 1.87959 0
M  V30 17087 H 1617.13 3.66165 2.80078 0
M  V30 17088 H 1620.67 6.82855 1.42669 0
M  V30 17089 H 1616.57 6.01122 2.35207 0
M  V30 17090 H 1617.33 7.99661 1.74598 0
M  V30 17091 N 1620 -0.858287 1.32179 0
M  V30 17092 C 1620.93 -1.98219 1.23415 0
M  V30 17093 C 1621.91 -1.69685 0.118779 0
M  V30 17094 O 1623.09 -1.91785 0.305342 0
M  V30 17095 C 1620.22 -3.33977 0.952725 0
M  V30 17096 C 1619.18 -3.76853 2.02894 0
M  V30 17097 C 1618.5 -5.10201 1.59999 0
M  V30 17098 C 1619.8 -3.92707 3.44352 0
M  V30 17099 H 1621.5 -2.05809 2.17446 0
M  V30 17100 H 1619.04 -0.988817 1.04682 0
M  V30 17101 H 1621 -4.12152 0.87798 0
M  V30 17102 H 1619.72 -3.26592 -0.023234 0
M  V30 17103 H 1618.38 -3.00926 2.09378 0
M  V30 17104 H 1618.03 -4.99268 0.61157 0
M  V30 17105 H 1617.73 -5.39859 2.32004 0
M  V30 17106 H 1619.25 -5.90873 1.53954 0
M  V30 17107 H 1620.67 -4.61246 3.40477 0
M  V30 17108 H 1619.06 -4.33779 4.14675 0
M  V30 17109 H 1620.13 -2.95731 3.8428 0
M  V30 17110 N 1621.48 -1.1533 -1.07409 0
M  V30 17111 C 1622.72 -0.925974 -1.79639 0
M  V30 17112 C 1623.04 0.548365 -1.87131 0
M  V30 17113 O 1622.31 1.39854 -1.37178 0
M  V30 17114 H 1620.89 -0.339599 -0.665343 0
M  V30 17115 H 1623.56 -1.45383 -1.29806 0
M  V30 17116 H 1622.65 -1.33484 -2.82114 0
M  V30 17117 N 1622.95 1.25748 -0.950004 0
M  V30 17118 C 1623.88 2.28419 -0.484467 0
M  V30 17119 C 1624.86 1.63569 0.466813 0
M  V30 17120 O 1626.05 1.90705 0.366766 0
M  V30 17121 C 1623.18 3.46449 0.242916 0
M  V30 17122 C 1622.13 4.23447 -0.622657 0
M  V30 17123 C 1621.46 5.34182 0.235199 0
M  V30 17124 C 1622.76 4.86576 -1.89845 0
M  V30 17125 H 1624.45 2.6761 -1.34257 0
M  V30 17126 H 1622 1.28646 -0.647014 0
M  V30 17127 H 1623.95 4.17394 0.579693 0
M  V30 17128 H 1622.68 3.06235 1.13523 0
M  V30 17129 H 1621.34 3.54279 -0.942453 0
M  V30 17130 H 1620.98 4.90209 1.12713 0
M  V30 17131 H 1620.68 5.86612 -0.340609 0
M  V30 17132 H 1622.21 6.07961 0.567048 0
M  V30 17133 H 1623.62 5.49688 -1.62837 0
M  V30 17134 H 1622.02 5.49162 -2.41954 0
M  V30 17135 H 1623.09 4.09021 -2.60441 0
M  V30 17136 N 1624.43 0.718038 1.40292 0
M  V30 17137 C 1625.68 0.258603 2.00842 0
M  V30 17138 C 1626.01 -1.14894 1.56938 0
M  V30 17139 O 1625.26 -1.79414 0.781606 0
M  V30 17140 C 1625.56 0.289374 3.56227 0
M  V30 17141 C 1625.23 1.64756 4.19722 0
M  V30 17142 C 1623.89 2.01934 4.36779 0
M  V30 17143 C 1626.24 2.54008 4.55115 0
M  V30 17144 C 1623.57 3.27905 4.86513 0
M  V30 17145 C 1625.92 3.79334 5.06249 0
M  V30 17146 C 1624.58 4.16626 5.21516 0
M  V30 17147 H 1623.85 0.0946296 0.734933 0
M  V30 17148 H 1626.5 0.921552 1.67868 0
M  V30 17149 H 1624.81 -0.457147 3.89124 0
M  V30 17150 H 1626.5 -0.0839832 4.00912 0
M  V30 17151 H 1623.09 1.34846 4.06835 0
M  V30 17152 H 1627.28 2.2656 4.4157 0
M  V30 17153 H 1622.53 3.56763 4.96518 0
M  V30 17154 H 1626.71 4.48663 5.32611 0
M  V30 17155 H 1624.33 5.14306 5.59815 0
M  V30 17156 N 1625.91 -1.50602 0.464402 0
M  V30 17157 C 1626.87 -2.26929 -0.32185 0
M  V30 17158 C 1627.87 -1.3144 -0.926289 0
M  V30 17159 O 1629.06 -1.54924 -0.796511 0
M  V30 17160 C 1626.2 -3.08155 -1.45785 0
M  V30 17161 H 1627.39 -2.97881 0.347436 0
M  V30 17162 H 1624.94 -1.54768 0.218278 0
M  V30 17163 H 1625.68 -2.41684 -2.16239 0
M  V30 17164 H 1625.46 -3.78321 -1.03031 0
M  V30 17165 H 1626.95 -3.65899 -2.01266 0
M  V30 17166 N 1627.39 -0.19675 -1.56367 0
M  V30 17167 C 1628.63 0.442238 -1.97919 0
M  V30 17168 C 1628.97 1.61156 -1.08362 0
M  V30 17169 O 1628.24 1.94024 -0.135969 0
M  V30 17170 C 1628.53 0.90078 -3.48652 0
M  V30 17171 C 1628.38 -0.270471 -4.48986 0
M  V30 17172 C 1629.7 1.7657 -4.03126 0
M  V30 17173 H 1626.82 0.159276 -0.719583 0
M  V30 17174 H 1629.46 -0.288004 -1.87805 0
M  V30 17175 H 1627.61 1.52302 -3.57402 0
M  V30 17176 H 1629.28 -0.908176 -4.52272 0
M  V30 17177 H 1627.52 -0.921973 -4.23889 0
M  V30 17178 H 1628.19 0.0929101 -5.51922 0
M  V30 17179 H 1630.67 1.24091 -3.97166 0
M  V30 17180 H 1629.55 2.0555 -5.0896 0
M  V30 17181 H 1629.81 2.72047 -3.48486 0
M  V30 17182 N 1628.87 1.57413 0.0768405 0
M  V30 17183 C 1629.83 2.02363 1.0762 0
M  V30 17184 C 1630.83 0.919879 1.3189 0
M  V30 17185 O 1632.02 1.18489 1.27695 0
M  V30 17186 C 1629.15 2.39995 2.42106 0
M  V30 17187 H 1630.34 2.91881 0.688889 0
M  V30 17188 H 1627.9 1.52938 0.322422 0
M  V30 17189 H 1628.63 1.53488 2.85678 0
M  V30 17190 H 1628.42 3.20534 2.25833 0
M  V30 17191 H 1629.91 2.75365 3.13948 0
M  V30 17192 N 1630.34 -0.348112 1.53707 0
M  V30 17193 C 1631.58 -1.09736 1.72445 0
M  V30 17194 C 1631.95 -1.86028 0.475158 0
M  V30 17195 O 1633.15 -2.6333 0.539493 0
M  V30 17196 C 1631.42 -2.01721 2.95032 0
M  V30 17197 S 1632.98 -2.83929 3.34559 0
M  V30 17198 H 1629.8 -0.370854 0.60662 0
M  V30 17199 H 1632.4 -0.376358 1.91843 0
M  V30 17200 H 1631.1 -1.44466 3.84133 0
M  V30 17201 H 1630.63 -2.78265 2.78086 0
M  V30 17202 H 1632.65 -4.04113 2.87937 0
M  V30 17203 N 1631.82 -1.45363 -0.608876 0
M  V30 17204 C 1633.07 -1.49313 -1.36792 0
M  V30 17205 C 1633.4 -0.134357 -1.94035 0
M  V30 17206 O 1632.65 0.866819 -1.75456 0
M  V30 17207 C 1632.95 -2.51893 -2.53544 0
M  V30 17208 C 1632.62 -3.96636 -2.14455 0
M  V30 17209 C 1631.28 -4.36048 -2.03508 0
M  V30 17210 C 1633.63 -4.87668 -1.83929 0
M  V30 17211 C 1630.96 -5.64389 -1.60256 0
M  V30 17212 C 1633.31 -6.16419 -1.42163 0
M  V30 17213 C 1631.98 -6.54763 -1.29774 0
M  V30 17214 H 1631.25 -0.546373 -0.500557 0
M  V30 17215 H 1633.89 -1.78702 -0.68832 0
M  V30 17216 H 1632.2 -2.16068 -3.26836 0
M  V30 17217 H 1633.89 -2.52187 -3.11773 0
M  V30 17218 H 1630.48 -3.65467 -2.23901 0
M  V30 17219 H 1634.67 -4.57956 -1.91284 0
M  V30 17220 H 1629.92 -5.92894 -1.49285 0
M  V30 17221 H 1634.1 -6.86401 -1.17588 0
M  V30 17222 H 1631.73 -7.5411 -0.960322 0
M  V30 17223 N 1633.3 0.851265 -1.32632 0
M  V30 17224 C 1634.55 1.60252 -1.23141 0
M  V30 17225 C 1634.87 1.93909 0.205946 0
M  V30 17226 O 1634.14 1.59914 1.13156 0
M  V30 17227 H 1632.72 0.594137 -0.452781 0
M  V30 17228 H 1635.38 1.01806 -1.66197 0
M  V30 17229 H 1634.48 2.53796 -1.81643 0
M  V30 17230 N 1634.78 1.15898 1.06796 0
M  V30 17231 C 1636.02 0.938728 1.79766 0
M  V30 17232 C 1636.36 -0.53249 1.86757 0
M  V30 17233 O 1635.63 -1.39492 1.35544 0
M  V30 17234 C 1635.92 1.56062 3.24525 0
M  V30 17235 C 1635.77 3.10283 3.25645 0
M  V30 17236 C 1637.09 1.25108 4.21943 0
M  V30 17237 H 1634.21 0.342451 0.652607 0
M  V30 17238 H 1636.85 1.4315 1.24933 0
M  V30 17239 H 1635 1.14158 3.71349 0
M  V30 17240 H 1636.67 3.61132 2.87021 0
M  V30 17241 H 1634.91 3.43879 2.64443 0
M  V30 17242 H 1635.58 3.48913 4.27743 0
M  V30 17243 H 1638.06 1.61364 3.83537 0
M  V30 17244 H 1636.94 1.7123 5.21509 0
M  V30 17245 H 1637.2 0.169043 4.41777 0
M  V30 17246 N 1636.26 -1.25243 0.956659 0
M  V30 17247 C 1637.17 -2.29529 0.48515 0
M  V30 17248 C 1638.18 -1.68121 -0.448494 0
M  V30 17249 O 1639.36 -1.98773 -0.324243 0
M  V30 17250 C 1636.42 -3.45952 -0.227611 0
M  V30 17251 C 1635.48 -4.22795 0.744495 0
M  V30 17252 C 1634.72 -5.3366 0.0656539 0
M  V30 17253 O 1634.94 -5.58722 -1.14829 0
M  V30 17254 O 1633.87 -5.97181 0.75222 0
M  V30 17255 H 1637.7 -2.71955 1.35181 0
M  V30 17256 H 1635.29 -1.30729 0.723203 0
M  V30 17257 H 1637.17 -4.16687 -0.628474 0
M  V30 17258 H 1635.84 -3.05524 -1.06942 0
M  V30 17259 H 1634.75 -3.5448 1.1956 0
M  V30 17260 H 1636.08 -4.67012 1.55438 0
M  V30 17261 N 1637.73 -0.725468 -1.3991 0
M  V30 17262 C 1638.64 -0.0805887 -2.34462 0
M  V30 17263 C 1639.66 0.732689 -1.57822 0
M  V30 17264 O 1640.84 0.663362 -1.90162 0
M  V30 17265 C 1637.9 0.822908 -3.36792 0
M  V30 17266 C 1636.96 -0.00153812 -4.293 0
M  V30 17267 C 1636.2 0.85893 -5.26743 0
M  V30 17268 O 1636.42 2.09793 -5.30418 0
M  V30 17269 O 1635.35 0.292659 -6.01188 0
M  V30 17270 H 1639.18 -0.860746 -2.91247 0
M  V30 17271 H 1636.76 -0.48604 -1.41273 0
M  V30 17272 H 1638.65 1.34014 -3.99522 0
M  V30 17273 H 1637.32 1.58204 -2.82406 0
M  V30 17274 H 1636.23 -0.564072 -3.69823 0
M  V30 17275 H 1637.56 -0.722675 -4.86866 0
M  V30 17276 N 1639.21 1.50354 -0.472382 0
M  V30 17277 C 1640.14 2.3142 0.310995 0
M  V30 17278 C 1641.12 1.38383 0.989151 0
M  V30 17279 O 1642.31 1.67303 0.986074 0
M  V30 17280 C 1639.44 3.18157 1.3926 0
M  V30 17281 C 1638.39 4.19756 0.835977 0
M  V30 17282 C 1637.72 4.9524 2.01597 0
M  V30 17283 C 1639.02 5.22074 -0.15361 0
M  V30 17284 H 1640.71 2.97159 -0.365595 0
M  V30 17285 H 1638.26 1.42905 -0.177266 0
M  V30 17286 H 1640.21 3.73666 1.94813 0
M  V30 17287 H 1638.94 2.50305 2.09798 0
M  V30 17288 H 1637.59 3.65351 0.302414 0
M  V30 17289 H 1637.24 4.2386 2.70836 0
M  V30 17290 H 1636.94 5.63966 1.64974 0
M  V30 17291 H 1638.47 5.53584 2.57637 0
M  V30 17292 H 1639.88 5.72446 0.312783 0
M  V30 17293 H 1638.28 5.98527 -0.43418 0
M  V30 17294 H 1639.35 4.72741 -1.07908 0
M  V30 17295 N 1640.69 0.205039 1.56261 0
M  V30 17296 C 1641.92 -0.439502 2.0269 0
M  V30 17297 C 1642.34 -1.53715 1.08413 0
M  V30 17298 O 1641.7 -1.81167 0.0693616 0
M  V30 17299 C 1641.75 -0.963672 3.47485 0
M  V30 17300 O 1640.85 -2.07602 3.56336 0
M  V30 17301 H 1640.19 -0.101543 0.65619 0
M  V30 17302 H 1642.72 0.318835 2.021 0
M  V30 17303 H 1642.73 -1.27773 3.87476 0
M  V30 17304 H 1641.41 -0.160203 4.15591 0
M  V30 17305 H 1639.98 -1.76985 3.28224 0
M  V30 17306 N 1642.17 -1.57451 -0.0684915 0
M  V30 17307 C 1643.12 -2.03916 -1.08105 0
M  V30 17308 C 1644.09 -0.920418 -1.38266 0
M  V30 17309 O 1645.27 -1.18831 -1.49277 0
M  V30 17310 C 1642.41 -2.49075 -2.38863 0
M  V30 17311 C 1641.52 -3.74581 -2.15204 0
M  V30 17312 C 1640.66 -4.08509 -3.39549 0
M  V30 17313 C 1639.7 -5.27046 -3.11269 0
M  V30 17314 N 1638.84 -5.56597 -4.27954 0
M  V30 17315 H 1643.68 -2.90188 -0.677843 0
M  V30 17316 H 1641.21 -1.43507 -0.32313 0
M  V30 17317 H 1643.17 -2.7331 -3.1521 0
M  V30 17318 H 1641.8 -1.65776 -2.76981 0
M  V30 17319 H 1640.85 -3.57666 -1.29535 0
M  V30 17320 H 1642.16 -4.61065 -1.90317 0
M  V30 17321 H 1641.32 -4.33663 -4.24289 0
M  V30 17322 H 1640.06 -3.20599 -3.67515 0
M  V30 17323 H 1639.06 -5.01686 -2.24926 0
M  V30 17324 H 1640.29 -6.16577 -2.84622 0
M  V30 17325 H 1638.23 -4.71646 -4.55945 0
M  V30 17326 H 1638.15 -6.37506 -4.06352 0
M  V30 17327 H 1639.42 -5.86303 -5.13681 0
M  V30 17328 N 1643.65 0.339955 -1.5389 0
M  V30 17329 C 1644.61 1.40058 -1.81429 0
M  V30 17330 C 1645.61 1.45458 -0.685463 0
M  V30 17331 O 1646.8 1.45771 -0.953754 0
M  V30 17332 C 1643.93 2.78952 -1.95955 0
M  V30 17333 H 1645.13 1.16902 -2.76178 0
M  V30 17334 H 1642.68 0.574543 -1.45357 0
M  V30 17335 H 1643.41 3.07387 -1.03361 0
M  V30 17336 H 1643.2 2.76429 -2.78082 0
M  V30 17337 H 1644.69 3.55713 -2.18765 0
M  V30 17338 N 1645.13 1.45684 0.601159 0
M  V30 17339 C 1646.36 1.53351 1.38445 0
M  V30 17340 C 1646.76 0.167103 1.88461 0
M  V30 17341 O 1646.11 -0.842684 1.63231 0
M  V30 17342 C 1646.17 2.46214 2.61952 0
M  V30 17343 C 1645.83 3.92826 2.33532 0
M  V30 17344 C 1646.83 4.8255 1.93498 0
M  V30 17345 C 1644.51 4.378 2.46245 0
M  V30 17346 C 1646.51 6.15257 1.66547 0
M  V30 17347 C 1644.2 5.70546 2.18908 0
M  V30 17348 C 1645.19 6.59094 1.79121 0
M  V30 17349 O 1644.88 7.89378 1.52108 0
M  V30 17350 H 1644.61 0.521638 0.429965 0
M  V30 17351 H 1647.17 1.91622 0.739617 0
M  V30 17352 H 1645.4 2.02926 3.29178 0
M  V30 17353 H 1647.09 2.44492 3.24004 0
M  V30 17354 H 1647.85 4.49066 1.83207 0
M  V30 17355 H 1643.73 3.69115 2.76179 0
M  V30 17356 H 1647.28 6.8433 1.35418 0
M  V30 17357 H 1643.17 6.03583 2.28818 0
M  V30 17358 H 1643.94 8.01468 1.66107 0
M  V30 17359 N 1646.6 -0.84422 1.33082 0
M  V30 17360 C 1647.51 -1.9858 1.24913 0
M  V30 17361 C 1648.53 -1.73256 0.160708 0
M  V30 17362 O 1649.71 -1.97719 0.383313 0
M  V30 17363 C 1646.77 -3.32471 0.983063 0
M  V30 17364 C 1645.83 -3.70946 2.16096 0
M  V30 17365 C 1645.06 -4.98448 1.90749 0
M  V30 17366 O 1645.29 -5.63953 0.855173 0
M  V30 17367 O 1644.22 -5.34301 2.7714 0
M  V30 17368 H 1648.05 -2.0841 2.20905 0
M  V30 17369 H 1645.63 -0.976447 1.13075 0
M  V30 17370 H 1647.51 -4.12705 0.851612 0
M  V30 17371 H 1646.19 -3.23656 0.053384 0
M  V30 17372 H 1645.1 -2.91244 2.34793 0
M  V30 17373 H 1646.43 -3.8442 3.07379 0
M  V30 17374 N 1648.08 -1.16463 -1.0618 0
M  V30 17375 C 1649.36 -0.857038 -1.75824 0
M  V30 17376 C 1649.74 0.644886 -2.01009 0
M  V30 17377 O 1649.09 1.59305 -1.63812 0
M  V30 17378 C 1649.3 -1.681 -3.05849 0
M  V30 17379 C 1650.64 -1.8947 -3.79982 0
M  V30 17380 O 1651.67 -1.64975 -3.15692 0
M  V30 17381 O 1650.53 -2.30573 -4.95478 0
M  V30 17382 H 1647.62 -0.316364 -0.764096 0
M  V30 17383 H 1650.17 -1.27105 -1.12438 0
M  V30 17384 H 1648.94 -2.70014 -2.8321 0
M  V30 17385 H 1648.56 -1.2641 -3.7697 0
M  V30 17386 N 1649.56 1.24734 -0.963288 0
M  V30 17387 C 1650.84 1.88004 -0.539809 0
M  V30 17388 C 1651.22 1.86814 0.983035 0
M  V30 17389 O 1650.56 1.33769 1.85251 0
M  V30 17390 C 1650.77 3.30326 -1.1263 0
M  V30 17391 C 1652.12 4.07039 -1.20848 0
M  V30 17392 O 1653.15 3.3948 -1.07849 0
M  V30 17393 O 1652.01 5.27906 -1.41342 0
M  V30 17394 H 1649.1 0.807318 -0.17935 0
M  V30 17395 H 1651.65 1.3274 -1.05727 0
M  V30 17396 H 1650.42 3.25668 -2.16925 0
M  V30 17397 H 1650.04 3.93159 -0.592614 0
M  V30 17398 N 1651.04 0.732878 1.39523 0
M  V30 17399 C 1652.29 0.279338 2.0016 0
M  V30 17400 C 1652.61 -1.13673 1.58441 0
M  V30 17401 O 1651.88 -1.77369 0.831681 0
M  V30 17402 H 1650.46 0.100288 0.740237 0
M  V30 17403 H 1653.12 0.942363 1.70603 0
M  V30 17404 H 1652.21 0.326053 3.10392 0
M  V30 17405 N 1652.52 -1.50101 0.480349 0
M  V30 17406 C 1653.79 -1.95144 -0.133456 0
M  V30 17407 C 1654.17 -1.4211 -1.56102 0
M  V30 17408 O 1653.52 -0.626012 -2.19757 0
M  V30 17409 C 1653.73 -3.48935 -0.0672904 0
M  V30 17410 C 1655.08 -4.23854 -0.251564 0
M  V30 17411 O 1656.1 -3.55911 -0.143446 0
M  V30 17412 O 1654.96 -5.44467 -0.470947 0
M  V30 17413 H 1652.06 -0.820098 -0.106619 0
M  V30 17414 H 1654.6 -1.60832 0.541413 0
M  V30 17415 H 1653.37 -3.80111 0.929058 0
M  V30 17416 H 1653 -3.8981 -0.783214 0
M  V30 17417 N 1653.99 -0.213323 -1.5615 0
M  V30 17418 C 1655.27 0.469174 -1.8989 0
M  V30 17419 C 1655.65 1.78341 -1.1295 0
M  V30 17420 O 1655 2.27276 -0.236236 0
M  V30 17421 C 1655.21 0.67017 -3.42505 0
M  V30 17422 C 1656.56 0.981324 -4.13104 0
M  V30 17423 O 1657.58 0.757249 -3.48058 0
M  V30 17424 O 1656.44 1.40614 -5.281 0
M  V30 17425 H 1653.53 0.246943 -0.789271 0
M  V30 17426 H 1656.08 -0.254896 -1.67775 0
M  V30 17427 H 1654.85 -0.257189 -3.90454 0
M  V30 17428 H 1654.47 1.44603 -3.70372 0
M  V30 17429 N 1655.47 1.57485 0.0601405 0
M  V30 17430 C 1656.7 1.91772 0.768565 0
M  V30 17431 C 1657.11 0.808661 1.71048 0
M  V30 17432 O 1656.45 -0.226062 1.82304 0
M  V30 17433 C 1656.52 3.21623 1.6062 0
M  V30 17434 C 1656.18 4.49355 0.832411 0
M  V30 17435 C 1657.18 5.19694 0.146434 0
M  V30 17436 C 1654.86 4.95951 0.796137 0
M  V30 17437 C 1656.86 6.34887 -0.565461 0
M  V30 17438 C 1654.54 6.11047 0.0804763 0
M  V30 17439 C 1655.54 6.80367 -0.599112 0
M  V30 17440 O 1655.23 7.93266 -1.30322 0
M  V30 17441 H 1654.96 0.638161 0.222994 0
M  V30 17442 H 1657.51 2.05376 0.0311569 0
M  V30 17443 H 1655.74 3.0426 2.38668 0
M  V30 17444 H 1657.43 3.41471 2.19436 0
M  V30 17445 H 1658.2 4.84717 0.16569 0
M  V30 17446 H 1654.08 4.4186 1.31457 0
M  V30 17447 H 1657.62 6.88929 -1.09646 0
M  V30 17448 H 1653.52 6.45473 0.0591881 0
M  V30 17449 H 1654.29 8.09452 -1.21369 0
M  V30 17450 N 1656.95 -0.331789 1.54068 0
M  V30 17451 C 1658.18 -1.09484 1.76148 0
M  V30 17452 C 1658.6 -1.81201 0.504772 0
M  V30 17453 O 1657.96 -1.7297 -0.54325 0
M  V30 17454 C 1658.01 -2.07495 2.94921 0
M  V30 17455 O 1657.11 -3.15239 2.65891 0
M  V30 17456 H 1656.45 -0.316071 0.583948 0
M  V30 17457 H 1658.98 -0.378593 2.01067 0
M  V30 17458 H 1658.99 -2.5051 3.22038 0
M  V30 17459 H 1657.67 -1.54696 3.8606 0
M  V30 17460 H 1656.24 -2.76958 2.49697 0
M  V30 17461 N 1658.43 -1.46001 -0.593424 0
M  V30 17462 C 1659.65 -1.54541 -1.38318 0
M  V30 17463 C 1660.08 -0.183555 -1.87202 0
M  V30 17464 O 1659.44 0.834407 -1.60958 0
M  V30 17465 C 1659.48 -2.54559 -2.55405 0
M  V30 17466 O 1658.59 -2.07321 -3.56499 0
M  V30 17467 H 1657.93 -0.520434 -0.412364 0
M  V30 17468 H 1660.46 -1.9148 -0.720862 0
M  V30 17469 H 1660.47 -2.73823 -3.02465 0
M  V30 17470 H 1659.14 -3.53461 -2.19176 0
M  V30 17471 H 1657.72 -1.97997 -3.15993 0
M  V30 17472 N 1659.91 0.83715 -1.33527 0
M  V30 17473 C 1661.16 1.58747 -1.24428 0
M  V30 17474 C 1661.47 1.94696 0.187885 0
M  V30 17475 O 1662.67 2.68524 0.400903 0
M  V30 17476 C 1661.13 2.86337 -2.18035 0
M  V30 17477 C 1660.74 2.57745 -3.66431 0
M  V30 17478 C 1662.48 3.6436 -2.17812 0
M  V30 17479 C 1660.39 3.81443 -4.51946 0
M  V30 17480 H 1659.32 0.595749 -0.462168 0
M  V30 17481 H 1661.97 0.922901 -1.58603 0
M  V30 17482 H 1660.35 3.54344 -1.76795 0
M  V30 17483 H 1661.53 1.97939 -4.16121 0
M  V30 17484 H 1659.84 1.93023 -3.68959 0
M  V30 17485 H 1662.44 4.56181 -2.78932 0
M  V30 17486 H 1662.78 3.99414 -1.17364 0
M  V30 17487 H 1663.31 3.03279 -2.57423 0
M  V30 17488 H 1660.05 3.51519 -5.53276 0
M  V30 17489 H 1659.57 4.40582 -4.06998 0
M  V30 17490 H 1661.25 4.49004 -4.65837 0
M  V30 17491 N 1661.38 1.17024 1.05561 0
M  V30 17492 C 1662.32 0.827019 2.12687 0
M  V30 17493 C 1663.3 -0.204573 1.61308 0
M  V30 17494 O 1664.48 -0.0869578 1.88299 0
M  V30 17495 C 1661.61 0.233018 3.37897 0
M  V30 17496 C 1660.65 1.2394 4.08094 0
M  V30 17497 S 1661.49 2.78918 4.57127 0
M  V30 17498 C 1662.64 2.20988 5.8559 0
M  V30 17499 H 1662.87 1.73431 2.41472 0
M  V30 17500 H 1660.41 0.994498 1.18106 0
M  V30 17501 H 1662.37 -0.103221 4.1037 0
M  V30 17502 H 1661.03 -0.652154 3.07255 0
M  V30 17503 H 1660.22 0.772359 4.98047 0
M  V30 17504 H 1659.82 1.5211 3.4167 0
M  V30 17505 H 1662.11 1.58313 6.58744 0
M  V30 17506 H 1663.06 3.0918 6.37035 0
M  V30 17507 H 1663.46 1.64583 5.39975 0
M  V30 17508 N 1662.86 -1.24221 0.969889 0
M  V30 17509 C 1664.11 -1.92638 0.633913 0
M  V30 17510 C 1664.44 -1.75612 -0.829092 0
M  V30 17511 O 1663.72 -1.11057 -1.59677 0
M  V30 17512 C 1664 -3.45583 1.01213 0
M  V30 17513 C 1663.85 -3.71766 2.53199 0
M  V30 17514 C 1665.17 -4.36671 0.548294 0
M  V30 17515 H 1662.29 -0.699608 0.231772 0
M  V30 17516 H 1664.93 -1.46548 1.20929 0
M  V30 17517 H 1663.08 -3.8497 0.522531 0
M  V30 17518 H 1664.75 -3.41925 3.09653 0
M  V30 17519 H 1663 -3.16842 2.963 0
M  V30 17520 H 1663.67 -4.78787 2.74713 0
M  V30 17521 H 1666.14 -4.04672 0.968489 0
M  V30 17522 H 1665.02 -5.42412 0.841472 0
M  V30 17523 H 1665.28 -4.38646 -0.551588 0
M  V30 17524 N 1664.34 -0.740267 -1.39132 0
M  V30 17525 C 1665.29 -0.103744 -2.30567 0
M  V30 17526 C 1666.26 0.724026 -1.49489 0
M  V30 17527 O 1667.44 0.682904 -1.7816 0
M  V30 17528 C 1664.58 0.793587 -3.35851 0
M  V30 17529 C 1663.7 -0.0473671 -4.31974 0
M  V30 17530 C 1662.83 0.851726 -5.24327 0
M  V30 17531 C 1661.87 0.00633633 -6.121 0
M  V30 17532 N 1661.01 0.861652 -6.96793 0
M  V30 17533 H 1665.85 -0.889087 -2.84428 0
M  V30 17534 H 1663.38 -0.450093 -1.40045 0
M  V30 17535 H 1665.34 1.32834 -3.95488 0
M  V30 17536 H 1663.97 1.54485 -2.83433 0
M  V30 17537 H 1663.02 -0.699601 -3.73911 0
M  V30 17538 H 1664.34 -0.700806 -4.93852 0
M  V30 17539 H 1663.49 1.45413 -5.89016 0
M  V30 17540 H 1662.23 1.53893 -4.62783 0
M  V30 17541 H 1661.23 -0.608833 -5.46419 0
M  V30 17542 H 1662.46 -0.677731 -6.7571 0
M  V30 17543 H 1660.4 1.53405 -6.37811 0
M  V30 17544 H 1660.32 0.264812 -7.55536 0
M  V30 17545 H 1661.59 1.44945 -7.65905 0
M  V30 17546 N 1665.82 1.49844 -0.488302 0
M  V30 17547 C 1666.78 2.27412 0.285706 0
M  V30 17548 C 1667.78 1.32897 0.905261 0
M  V30 17549 O 1668.97 1.56171 0.771763 0
M  V30 17550 C 1666.1 3.10435 1.40864 0
M  V30 17551 H 1667.3 2.9729 -0.394782 0
M  V30 17552 H 1664.85 1.54401 -0.242873 0
M  V30 17553 H 1665.58 2.45094 2.12367 0
M  V30 17554 H 1665.37 3.79913 0.969991 0
M  V30 17555 H 1666.86 3.69054 1.95419 0
M  V30 17556 N 1667.3 0.221601 1.56034 0
M  V30 17557 C 1668.23 -0.683171 2.23282 0
M  V30 17558 C 1669.21 -1.20101 1.20456 0
M  V30 17559 O 1670.39 -1.245 1.49041 0
M  V30 17560 C 1667.52 -1.89143 2.91277 0
M  V30 17561 C 1666.48 -1.50742 4.00576 0
M  V30 17562 C 1665.8 -2.79446 4.55867 0
M  V30 17563 C 1667.1 -0.697388 5.17623 0
M  V30 17564 H 1668.8 -0.122488 2.99149 0
M  V30 17565 H 1666.34 -0.0574732 1.43885 0
M  V30 17566 H 1668.3 -2.52982 3.37013 0
M  V30 17567 H 1667.02 -2.47708 2.12858 0
M  V30 17568 H 1665.68 -0.892492 3.5557 0
M  V30 17569 H 1665.33 -3.36155 3.74177 0
M  V30 17570 H 1665.03 -2.54486 5.29633 0
M  V30 17571 H 1666.55 -3.44228 5.04321 0
M  V30 17572 H 1667.96 -1.23948 5.59741 0
M  V30 17573 H 1666.36 -0.544875 5.97621 0
M  V30 17574 H 1667.43 0.295981 4.83996 0
M  V30 17575 N 1668.77 -1.57515 -0.0517878 0
M  V30 17576 C 1670.02 -1.87843 -0.745624 0
M  V30 17577 C 1670.34 -0.816318 -1.77091 0
M  V30 17578 O 1669.61 0.152784 -1.95303 0
M  V30 17579 H 1668.19 -0.693194 -0.278372 0
M  V30 17580 H 1670.86 -1.94886 -0.0231267 0
M  V30 17581 H 1669.95 -2.86001 -1.2494 0
M  V30 17582 N 1670.25 0.323614 -1.54242 0
M  V30 17583 C 1671.53 1.07979 -1.63095 0
M  V30 17584 C 1671.91 2.0592 -0.464774 0
M  V30 17585 O 1671.26 2.22004 0.540961 0
M  V30 17586 C 1671.47 1.78178 -3.0009 0
M  V30 17587 C 1672.82 2.31201 -3.56134 0
M  V30 17588 O 1673.84 1.88245 -3.02394 0
M  V30 17589 O 1672.7 3.09843 -4.50177 0
M  V30 17590 H 1669.79 0.497726 -0.660453 0
M  V30 17591 H 1672.34 0.323509 -1.66588 0
M  V30 17592 H 1671.11 1.06938 -3.76404 0
M  V30 17593 H 1670.73 2.60616 -3.00275 0
M  V30 17594 N 1671.73 1.46313 0.585673 0
M  V30 17595 C 1673.15 1.31203 0.908733 0
M  V30 17596 C 1673.35 0.281265 1.99527 0
M  V30 17597 O 1672.4 -0.317202 2.505 0
M  V30 17598 C 1673.72 2.69742 1.3289 0
M  V30 17599 C 1675.26 2.77809 1.44191 0
M  V30 17600 C 1675.74 4.16924 1.89574 0
M  V30 17601 N 1677.23 4.19327 1.96773 0
M  V30 17602 C 1677.97 5.23856 2.33157 0
M  V30 17603 N 1677.46 6.38716 2.68355 0
M  V30 17604 N 1679.25 5.11221 2.33686 0
M  V30 17605 H 1671.41 2.11989 -0.132126 0
M  V30 17606 H 1673.67 0.947993 0.00355835 0
M  V30 17607 H 1673.37 3.46465 0.604557 0
M  V30 17608 H 1673.25 2.99653 2.29102 0
M  V30 17609 H 1675.64 2.01377 2.15712 0
M  V30 17610 H 1675.72 2.51587 0.46237 0
M  V30 17611 H 1675.36 4.93851 1.18633 0
M  V30 17612 H 1675.29 4.40552 2.88481 0
M  V30 17613 H 1677.78 3.36451 1.72073 0
M  V30 17614 H 1678.09 7.14253 2.95063 0
M  V30 17615 H 1676.44 6.42082 2.66 0
M  V30 17616 H 1679.63 4.20527 2.05609 0
M  V30 17617 H 1679.8 5.92798 2.61714 0
M  V30 17618 N 1673.21 -0.830057 1.33969 0
M  V30 17619 C 1674.14 -1.95557 1.27592 0
M  V30 17620 C 1675.12 -1.69395 0.154745 0
M  V30 17621 O 1676.31 -1.91094 0.345954 0
M  V30 17622 C 1673.44 -3.31881 1.02335 0
M  V30 17623 C 1672.39 -3.72464 2.10842 0
M  V30 17624 C 1671.72 -5.06692 1.70785 0
M  V30 17625 C 1673.02 -3.85315 3.52604 0
M  V30 17626 H 1674.71 -2.0115 2.21763 0
M  V30 17627 H 1672.26 -0.96639 1.06756 0
M  V30 17628 H 1674.21 -4.10197 0.965206 0
M  V30 17629 H 1672.93 -3.26568 0.0460462 0
M  V30 17630 H 1671.59 -2.96417 2.15714 0
M  V30 17631 H 1671.24 -4.97859 0.717334 0
M  V30 17632 H 1670.94 -5.34817 2.43403 0
M  V30 17633 H 1672.46 -5.87474 1.66452 0
M  V30 17634 H 1673.88 -4.5392 3.50185 0
M  V30 17635 H 1672.27 -4.24886 4.23783 0
M  V30 17636 H 1673.34 -2.87514 3.90466 0
M  V30 17637 N 1674.69 -1.17582 -1.04939 0
M  V30 17638 C 1675.65 -0.897095 -2.10914 0
M  V30 17639 C 1676.65 0.113823 -1.60397 0
M  V30 17640 O 1677.84 -0.118635 -1.73796 0
M  V30 17641 C 1674.97 -0.344251 -3.39157 0
M  V30 17642 H 1676.17 -1.83674 -2.37074 0
M  V30 17643 H 1673.72 -0.986634 -1.21224 0
M  V30 17644 H 1674.45 0.602417 -3.18656 0
M  V30 17645 H 1674.24 -1.07287 -3.77137 0
M  V30 17646 H 1675.73 -0.167644 -4.17263 0
M  V30 17647 N 1676.17 1.23705 -0.976463 0
M  V30 17648 C 1677.08 2.28728 -0.521605 0
M  V30 17649 C 1678.09 1.68813 0.421691 0
M  V30 17650 O 1679.27 1.99263 0.292579 0
M  V30 17651 C 1676.33 3.4627 0.172545 0
M  V30 17652 C 1675.39 4.21557 -0.811664 0
M  V30 17653 C 1674.63 5.33488 -0.150546 0
M  V30 17654 O 1674.85 5.60478 1.05926 0
M  V30 17655 O 1673.78 5.95909 -0.847132 0
M  V30 17656 H 1677.61 2.6977 -1.39491 0
M  V30 17657 H 1675.19 1.29562 -0.743909 0
M  V30 17658 H 1677.08 4.17634 0.562103 0
M  V30 17659 H 1675.75 3.07187 1.02067 0
M  V30 17660 H 1674.66 3.52533 -1.25185 0
M  V30 17661 H 1675.99 4.6448 -1.62848 0
M  V30 17662 N 1677.64 0.747635 1.38738 0
M  V30 17663 C 1678.61 0.124321 2.28863 0
M  V30 17664 C 1679.61 -0.653816 1.46908 0
M  V30 17665 O 1680.8 -0.480963 1.67429 0
M  V30 17666 C 1677.93 -0.832601 3.30576 0
M  V30 17667 H 1679.12 0.918492 2.85489 0
M  V30 17668 H 1676.67 0.514262 1.47598 0
M  V30 17669 H 1677.41 -1.65267 2.79029 0
M  V30 17670 H 1677.19 -0.277109 3.9112 0
M  V30 17671 H 1678.68 -1.2649 3.97982 0
M  V30 17672 N 1679.12 -1.49583 0.496242 0
M  V30 17673 C 1680.37 -2.02438 -0.049963 0
M  V30 17674 C 1680.7 -1.37632 -1.37433 0
M  V30 17675 O 1679.95 -0.499552 -1.89217 0
M  V30 17676 C 1680.25 -3.56482 -0.255949 0
M  V30 17677 C 1679.92 -4.39901 0.989824 0
M  V30 17678 C 1678.58 -4.62417 1.33132 0
M  V30 17679 C 1680.93 -4.88461 1.81811 0
M  V30 17680 C 1678.26 -5.30737 2.50071 0
M  V30 17681 C 1680.61 -5.58067 2.97899 0
M  V30 17682 C 1679.27 -5.7883 3.32434 0
M  V30 17683 H 1678.54 -0.740774 -0.0182828 0
M  V30 17684 H 1681.19 -1.79934 0.655434 0
M  V30 17685 H 1679.5 -3.77639 -1.04383 0
M  V30 17686 H 1681.19 -3.94967 -0.692943 0
M  V30 17687 H 1677.78 -4.22614 0.713811 0
M  V30 17688 H 1681.97 -4.70898 1.56743 0
M  V30 17689 H 1677.22 -5.45015 2.77072 0
M  V30 17690 H 1681.4 -5.9467 3.6241 0
M  V30 17691 H 1679.02 -6.31544 4.23151 0
M  V30 17692 N 1680.6 -0.229873 -1.55915 0
M  V30 17693 C 1681.56 0.663347 -2.19391 0
M  V30 17694 C 1682.56 1.11548 -1.15818 0
M  V30 17695 O 1683.75 1.02294 -1.41002 0
M  V30 17696 C 1680.88 1.9097 -2.82389 0
M  V30 17697 H 1682.08 0.109797 -2.99699 0
M  V30 17698 H 1679.63 0.0197234 -1.56288 0
M  V30 17699 H 1680.37 2.50491 -2.05973 0
M  V30 17700 H 1680.15 1.59388 -3.58243 0
M  V30 17701 H 1681.64 2.5459 -3.31019 0
M  V30 17702 N 1682.08 1.5754 0.0434337 0
M  V30 17703 C 1682.99 2.08996 1.06574 0
M  V30 17704 C 1684 1.02544 1.40573 0
M  V30 17705 O 1685.18 1.34192 1.50181 0
M  V30 17706 C 1682.24 2.54723 2.35196 0
M  V30 17707 C 1681.31 3.75595 2.0791 0
M  V30 17708 C 1680.54 4.19132 3.304 0
M  V30 17709 O 1680.76 3.62303 4.40559 0
M  V30 17710 O 1679.7 5.11694 3.16944 0
M  V30 17711 H 1683.52 2.96475 0.658503 0
M  V30 17712 H 1681.11 1.47129 0.259475 0
M  V30 17713 H 1682.99 2.84529 3.1084 0
M  V30 17714 H 1681.66 1.70361 2.75243 0
M  V30 17715 H 1680.57 3.5083 1.2988 0
M  V30 17716 H 1681.9 4.60897 1.72727 0
M  V30 17717 N 1683.56 -0.31543 1.54411 0
M  V30 17718 C 1684.47 -1.41136 1.87397 0
M  V30 17719 C 1685.48 -1.56199 0.76668 0
M  V30 17720 O 1686.66 -1.71139 1.06176 0
M  V30 17721 C 1683.72 -2.75731 2.10174 0
M  V30 17722 C 1682.78 -2.69776 3.33945 0
M  V30 17723 C 1682.02 -3.97952 3.55626 0
M  V30 17724 O 1682.24 -4.96614 2.80589 0
M  V30 17725 O 1681.17 -4.00719 4.49119 0
M  V30 17726 H 1685 -1.16167 2.80605 0
M  V30 17727 H 1682.58 -0.510193 1.40419 0
M  V30 17728 H 1684.47 -3.55392 2.26439 0
M  V30 17729 H 1683.14 -3.00574 1.20154 0
M  V30 17730 H 1682.05 -1.88638 3.23058 0
M  V30 17731 H 1683.38 -2.49887 4.24049 0
M  V30 17732 N 1685.03 -1.46622 -0.577906 0
M  V30 17733 C 1685.96 -1.60413 -1.69676 0
M  V30 17734 C 1686.95 -0.454277 -1.63922 0
M  V30 17735 O 1688.13 -0.68111 -1.81864 0
M  V30 17736 C 1685.26 -1.59866 -3.08318 0
M  V30 17737 C 1684.21 -2.7387 -3.28906 0
M  V30 17738 C 1683.54 -2.58386 -4.68125 0
M  V30 17739 C 1684.84 -4.15652 -3.16276 0
M  V30 17740 H 1686.53 -2.54073 -1.5839 0
M  V30 17741 H 1684.08 -1.22275 -0.760572 0
M  V30 17742 H 1686.03 -1.68108 -3.86417 0
M  V30 17743 H 1684.76 -0.627541 -3.20514 0
M  V30 17744 H 1683.42 -2.65105 -2.53209 0
M  V30 17745 H 1683.06 -1.59347 -4.77093 0
M  V30 17746 H 1682.76 -3.34855 -4.82852 0
M  V30 17747 H 1684.29 -2.68525 -5.48385 0
M  V30 17748 H 1685.7 -4.25503 -3.84214 0
M  V30 17749 H 1684.1 -4.92746 -3.42523 0
M  V30 17750 H 1685.17 -4.35471 -2.13291 0
M  V30 17751 N 1686.51 0.822941 -1.34408 0
M  V30 17752 C 1687.46 1.92272 -1.22537 0
M  V30 17753 C 1688.45 1.60418 -0.124416 0
M  V30 17754 O 1689.64 1.73422 -0.354077 0
M  V30 17755 C 1686.77 3.28926 -0.982998 0
M  V30 17756 C 1685.85 3.66898 -2.12712 0
M  V30 17757 N 1686.24 3.76436 -3.37831 0
M  V30 17758 C 1684.54 3.96746 -2.03736 0
M  V30 17759 C 1685.24 4.09674 -4.12968 0
M  V30 17760 N 1684.22 4.22893 -3.41559 0
M  V30 17761 H 1688.02 1.97824 -2.17354 0
M  V30 17762 H 1685.54 1.0166 -1.26645 0
M  V30 17763 H 1687.53 4.07531 -0.878862 0
M  V30 17764 H 1686.19 3.24671 -0.0435162 0
M  V30 17765 H 1687.2 3.59931 -3.72384 0
M  V30 17766 H 1683.88 4.00611 -1.17544 0
M  V30 17767 H 1685.27 4.24257 -5.21014 0
M  V30 17768 N 1687.99 1.18137 1.04314 0
M  V30 17769 C 1688.9 0.921044 2.15764 0
M  V30 17770 C 1689.92 -0.11396 1.73626 0
M  V30 17771 O 1691.09 0.0673733 2.01287 0
M  V30 17772 C 1688.16 0.447581 3.43799 0
M  V30 17773 C 1687.22 1.55025 4.00332 0
M  V30 17774 C 1686.45 1.09928 5.22256 0
M  V30 17775 O 1686.67 -0.0430152 5.70384 0
M  V30 17776 O 1685.61 1.896 5.71258 0
M  V30 17777 H 1689.43 1.85353 2.40579 0
M  V30 17778 H 1687.02 0.962985 1.14223 0
M  V30 17779 H 1688.9 0.191497 4.20965 0
M  V30 17780 H 1687.58 -0.456641 3.20463 0
M  V30 17781 H 1686.48 1.86032 3.24566 0
M  V30 17782 H 1687.82 2.4305 4.28004 0
M  V30 17783 N 1689.47 -1.23186 0.98301 0
M  V30 17784 C 1690.88 -1.43814 0.69207 0
M  V30 17785 C 1691.08 -1.87387 -0.740823 0
M  V30 17786 O 1690.14 -2.02154 -1.51295 0
M  V30 17787 C 1691.45 -2.48769 1.68922 0
M  V30 17788 C 1693 -2.62579 1.70356 0
M  V30 17789 C 1693.48 -3.70746 2.68908 0
M  V30 17790 N 1694.97 -3.78192 2.67442 0
M  V30 17791 C 1695.7 -4.61453 3.40366 0
M  V30 17792 N 1695.2 -5.48784 4.22857 0
M  V30 17793 N 1696.99 -4.55673 3.29118 0
M  V30 17794 H 1689.14 -0.932046 1.90858 0
M  V30 17795 H 1691.41 -0.471274 0.82256 0
M  V30 17796 H 1691.11 -2.23675 2.71408 0
M  V30 17797 H 1690.99 -3.47201 1.47415 0
M  V30 17798 H 1693.37 -2.87022 0.685728 0
M  V30 17799 H 1693.45 -1.64454 1.9593 0
M  V30 17800 H 1693.1 -3.47051 3.70834 0
M  V30 17801 H 1693.03 -4.68418 2.40607 0
M  V30 17802 H 1695.52 -3.15785 2.07577 0
M  V30 17803 H 1695.83 -6.09312 4.75351 0
M  V30 17804 H 1694.18 -5.48398 4.26948 0
M  V30 17805 H 1697.37 -3.86468 2.64122 0
M  V30 17806 H 1697.54 -5.20332 3.8621 0
M  V30 17807 N 1690.95 -0.754982 -1.38339 0
M  V30 17808 C 1692.19 -0.312224 -2.00382 0
M  V30 17809 C 1692.53 1.10362 -1.59793 0
M  V30 17810 O 1691.8 1.75611 -0.83613 0
M  V30 17811 C 1692.08 -0.436701 -3.57442 0
M  V30 17812 C 1691.94 -1.89376 -4.07991 0
M  V30 17813 C 1693.26 0.169083 -4.39775 0
M  V30 17814 H 1690.37 -0.114922 -0.727985 0
M  V30 17815 H 1693.02 -0.954887 -1.64262 0
M  V30 17816 H 1691.17 0.11043 -3.88343 0
M  V30 17817 H 1692.84 -2.4993 -3.87728 0
M  V30 17818 H 1691.08 -2.40834 -3.60807 0
M  V30 17819 H 1691.75 -1.932 -5.17086 0
M  V30 17820 H 1694.23 -0.297554 -4.15035 0
M  V30 17821 H 1693.1 0.0517531 -5.48876 0
M  V30 17822 H 1693.37 1.25754 -4.23838 0
M  V30 17823 N 1692.42 1.49318 -0.504168 0
M  V30 17824 C 1693.84 1.58793 -0.160331 0
M  V30 17825 C 1694.04 1.50906 1.33527 0
M  V30 17826 O 1693.1 1.38466 2.11148 0
M  V30 17827 C 1694.41 2.91454 -0.739945 0
M  V30 17828 C 1695.96 3.04926 -0.706338 0
M  V30 17829 C 1696.43 4.4021 -1.26407 0
M  V30 17830 N 1697.92 4.46711 -1.22491 0
M  V30 17831 C 1698.66 5.49844 -1.62661 0
M  V30 17832 N 1698.15 6.60066 -2.10439 0
M  V30 17833 N 1699.95 5.40576 -1.54058 0
M  V30 17834 H 1692.1 1.52687 -1.4765 0
M  V30 17835 H 1694.36 0.723463 -0.612622 0
M  V30 17836 H 1694.07 3.02802 -1.78896 0
M  V30 17837 H 1693.94 3.76658 -0.202187 0
M  V30 17838 H 1696.33 2.93206 0.333845 0
M  V30 17839 H 1696.41 2.21398 -1.28128 0
M  V30 17840 H 1696.05 4.52683 -2.30305 0
M  V30 17841 H 1695.98 5.22384 -0.665041 0
M  V30 17842 H 1698.47 3.67634 -0.874869 0
M  V30 17843 H 1698.79 7.34865 -2.39153 0
M  V30 17844 H 1697.13 6.61098 -2.14415 0
M  V30 17845 H 1700.32 4.53359 -1.16548 0
M  V30 17846 H 1700.5 6.20826 -1.85687 0
M  V30 17847 N 1693.9 0.238138 1.5579 0
M  V30 17848 C 1695.32 -0.116908 1.59171 0
M  V30 17849 C 1695.52 -1.57629 1.2552 0
M  V30 17850 O 1694.57 -2.31926 0.998332 0
M  V30 17851 C 1695.89 0.224366 2.99862 0
M  V30 17852 C 1697.44 0.16795 3.12549 0
M  V30 17853 C 1697.91 0.483132 4.55445 0
M  V30 17854 N 1699.4 0.43331 4.61169 0
M  V30 17855 C 1700.14 0.650461 5.69699 0
M  V30 17856 N 1699.63 0.930272 6.86526 0
M  V30 17857 N 1701.43 0.581764 5.59081 0
M  V30 17858 H 1693.58 1.18996 1.75936 0
M  V30 17859 H 1695.84 0.478169 0.818571 0
M  V30 17860 H 1695.55 1.23791 3.29194 0
M  V30 17861 H 1695.42 -0.452738 3.74473 0
M  V30 17862 H 1697.81 -0.836252 2.83003 0
M  V30 17863 H 1697.89 0.878776 2.40231 0
M  V30 17864 H 1697.53 1.48485 4.8571 0
M  V30 17865 H 1697.46 -0.249073 5.26011 0
M  V30 17866 H 1699.95 0.225412 3.77227 0
M  V30 17867 H 1700.27 1.08362 7.65165 0
M  V30 17868 H 1698.61 0.96765 6.88231 0
M  V30 17869 H 1701.8 0.363273 4.66688 0
M  V30 17870 H 1701.97 0.754398 6.43594 0
M  V30 17871 N 1695.38 -1.57561 -0.0350783 0
M  V30 17872 C 1696.29 -2.09558 -1.05464 0
M  V30 17873 C 1697.31 -1.03288 -1.40027 0
M  V30 17874 O 1698.48 -1.34987 -1.49467 0
M  V30 17875 C 1695.55 -2.55966 -2.33842 0
M  V30 17876 C 1694.61 -3.76693 -2.05915 0
M  V30 17877 C 1693.84 -4.20878 -3.28172 0
M  V30 17878 O 1694.06 -3.64634 -4.38632 0
M  V30 17879 O 1693 -5.13367 -3.14225 0
M  V30 17880 H 1696.82 -2.9682 -0.642771 0
M  V30 17881 H 1694.41 -1.47265 -0.251668 0
M  V30 17882 H 1696.29 -2.86173 -3.09327 0
M  V30 17883 H 1694.97 -1.71818 -2.74336 0
M  V30 17884 H 1693.87 -3.51514 -1.28018 0
M  V30 17885 H 1695.21 -4.61807 -1.70281 0
M  V30 17886 N 1696.86 0.307236 -1.54576 0
M  V30 17887 C 1697.79 1.38357 -1.88095 0
M  V30 17888 C 1698.77 1.53196 -0.739253 0
M  V30 17889 O 1699.95 1.66807 -0.99444 0
M  V30 17890 C 1697.08 2.74876 -2.12274 0
M  V30 17891 C 1696.04 2.74809 -3.28122 0
M  V30 17892 C 1695.36 4.14557 -3.37707 0
M  V30 17893 C 1696.66 2.37103 -4.65381 0
M  V30 17894 H 1698.36 1.10554 -2.78241 0
M  V30 17895 H 1695.9 0.530383 -1.33877 0
M  V30 17896 H 1697.86 3.50254 -2.34308 0
M  V30 17897 H 1696.58 3.04191 -1.18893 0
M  V30 17898 H 1695.24 2.01887 -3.06002 0
M  V30 17899 H 1694.89 4.41039 -2.41854 0
M  V30 17900 H 1694.59 4.15415 -4.15577 0
M  V30 17901 H 1696.11 4.91724 -3.61994 0
M  V30 17902 H 1697.53 3.02196 -4.87186 0
M  V30 17903 H 1695.92 2.49184 -5.45919 0
M  V30 17904 H 1696.99 1.32235 -4.66521 0
M  V30 17905 N 1698.34 1.46926 0.570122 0
M  V30 17906 C 1699.58 1.54099 1.3276 0
M  V30 17907 C 1699.94 0.195237 1.91407 0
M  V30 17908 O 1699.23 -0.797593 1.7421 0
M  V30 17909 C 1699.42 2.58527 2.46776 0
M  V30 17910 C 1699.25 4.03125 1.993 0
M  V30 17911 C 1698.02 4.70712 1.83735 0
M  V30 17912 C 1700.22 4.90541 1.54513 0
M  V30 17913 N 1698.2 5.99877 1.30462 0
M  V30 17914 C 1699.57 6.09631 1.12917 0
M  V30 17915 C 1701.63 4.77089 1.42446 0
M  V30 17916 C 1700.33 7.16755 0.604555 0
M  V30 17917 C 1702.36 5.84297 0.913863 0
M  V30 17918 C 1701.72 7.02568 0.507763 0
M  V30 17919 H 1697.82 0.618661 0.478312 0
M  V30 17920 H 1700.4 1.8361 0.647733 0
M  V30 17921 H 1698.57 2.30906 3.12309 0
M  V30 17922 H 1700.31 2.55619 3.13753 0
M  V30 17923 H 1697.06 4.26421 2.06062 0
M  V30 17924 H 1697.49 6.68658 1.05951 0
M  V30 17925 H 1702.13 3.86029 1.72458 0
M  V30 17926 H 1699.85 8.07572 0.29204 0
M  V30 17927 H 1703.43 5.75932 0.824229 0
M  V30 17928 H 1702.31 7.8411 0.118778 0
M  V30 17929 N 1699.82 -0.815801 1.34842 0
M  V30 17930 C 1700.78 -1.90871 1.2689 0
M  V30 17931 C 1701.78 -1.59762 0.182445 0
M  V30 17932 O 1702.97 -1.68667 0.435543 0
M  V30 17933 C 1700.1 -3.27081 0.960774 0
M  V30 17934 H 1701.29 -1.99343 2.24059 0
M  V30 17935 H 1698.85 -1.0106 1.19233 0
M  V30 17936 H 1699.58 -3.24299 -0.00744059 0
M  V30 17937 H 1699.37 -3.51045 1.74671 0
M  V30 17938 H 1700.86 -4.07101 0.930494 0
M  V30 17939 N 1701.29 -1.18689 -1.03686 0
M  V30 17940 C 1702.52 -1.00814 -1.80333 0
M  V30 17941 C 1702.93 0.446495 -1.83856 0
M  V30 17942 O 1702.27 1.32192 -1.27558 0
M  V30 17943 C 1702.34 -1.49133 -3.27108 0
M  V30 17944 C 1702 -2.97112 -3.47237 0
M  V30 17945 C 1703 -3.94938 -3.38113 0
M  V30 17946 C 1700.68 -3.35628 -3.7371 0
M  V30 17947 C 1702.68 -5.29274 -3.55172 0
M  V30 17948 C 1700.36 -4.70126 -3.90416 0
M  V30 17949 C 1701.36 -5.66758 -3.81148 0
M  V30 17950 O 1701.05 -6.98821 -3.97371 0
M  V30 17951 H 1700.78 -0.356077 -0.574617 0
M  V30 17952 H 1703.34 -1.57754 -1.31541 0
M  V30 17953 H 1701.57 -0.865624 -3.76887 0
M  V30 17954 H 1703.25 -1.27591 -3.85325 0
M  V30 17955 H 1704.02 -3.66527 -3.17621 0
M  V30 17956 H 1699.9 -2.6097 -3.8002 0
M  V30 17957 H 1703.44 -6.04684 -3.47854 0
M  V30 17958 H 1699.34 -4.98236 -4.10404 0
M  V30 17959 H 1700.11 -7.05779 -4.14509 0
M  V30 17960 N 1702.77 1.22662 -0.989529 0
M  V30 17961 C 1704.01 1.9305 -0.671653 0
M  V30 17962 C 1704.38 1.75377 0.781465 0
M  V30 17963 O 1705.58 2.39996 1.2106 0
M  V30 17964 C 1703.85 3.41245 -1.0624 0
M  V30 17965 S 1705.41 4.30242 -0.862376 0
M  V30 17966 H 1702.22 0.667204 -0.245682 0
M  V30 17967 H 1704.83 1.48537 -1.2711 0
M  V30 17968 H 1703.53 3.51619 -2.11641 0
M  V30 17969 H 1703.06 3.90764 -0.454611 0
M  V30 17970 H 1705.08 4.95575 0.248897 0
M  V30 17971 N 1704.25 0.762308 1.37937 0
M  V30 17972 C 1705.5 0.321732 1.99523 0
M  V30 17973 C 1705.82 -1.10286 1.60816 0
M  V30 17974 O 1705.09 -1.75565 0.869117 0
M  V30 17975 H 1703.67 0.115967 0.737943 0
M  V30 17976 H 1706.33 0.978339 1.68566 0
M  V30 17977 H 1705.43 0.391818 3.09631 0
M  V30 17978 N 1705.73 -1.49049 0.51208 0
M  V30 17979 C 1706.95 -2.07382 -0.0271044 0
M  V30 17980 C 1707.38 -1.3685 -1.29049 0
M  V30 17981 O 1706.74 -0.428713 -1.76158 0
M  V30 17982 C 1706.78 -3.59715 -0.252462 0
M  V30 17983 O 1705.89 -3.90538 -1.32491 0
M  V30 17984 H 1705.23 -0.663269 0.0311507 0
M  V30 17985 H 1707.76 -1.91705 0.714873 0
M  V30 17986 H 1707.77 -4.05159 -0.480603 0
M  V30 17987 H 1706.44 -4.10459 0.670531 0
M  V30 17988 H 1705.02 -3.56892 -1.08085 0
M  V30 17989 N 1707.21 -0.246397 -1.55662 0
M  V30 17990 C 1708.12 0.664125 -2.25003 0
M  V30 17991 C 1709.13 1.19368 -1.26598 0
M  V30 17992 O 1710.31 1.23006 -1.59473 0
M  V30 17993 C 1707.37 1.8446 -2.93557 0
M  V30 17994 C 1706.43 1.35456 -4.0737 0
M  V30 17995 C 1705.67 2.47877 -4.72645 0
M  V30 17996 O 1705.89 3.66594 -4.36995 0
M  V30 17997 O 1704.82 2.17663 -5.61165 0
M  V30 17998 H 1708.65 0.103277 -3.03524 0
M  V30 17999 H 1706.23 -0.0149207 -1.49393 0
M  V30 18000 H 1708.12 2.53349 -3.36737 0
M  V30 18001 H 1706.79 2.39308 -2.17976 0
M  V30 18002 H 1705.7 0.632958 -3.68706 0
M  V30 18003 H 1707.03 0.852175 -4.84767 0
M  V30 18004 N 1708.68 1.57577 0.026722 0
M  V30 18005 C 1709.62 2.03515 1.05424 0
M  V30 18006 C 1710.63 0.948362 1.32325 0
M  V30 18007 O 1711.82 1.22563 1.29771 0
M  V30 18008 C 1708.92 2.39744 2.39533 0
M  V30 18009 C 1708.09 3.70832 2.31954 0
M  V30 18010 C 1707.15 3.94224 3.48531 0
M  V30 18011 O 1706.18 4.6525 3.27919 0
M  V30 18012 N 1707.38 3.40044 4.70479 0
M  V30 18013 H 1710.14 2.92282 0.662678 0
M  V30 18014 H 1707.7 1.60471 0.214623 0
M  V30 18015 H 1709.7 2.52529 3.16245 0
M  V30 18016 H 1708.27 1.56636 2.70525 0
M  V30 18017 H 1707.49 3.68378 1.40325 0
M  V30 18018 H 1708.77 4.56821 2.24035 0
M  V30 18019 H 1708.17 2.82478 4.90125 0
M  V30 18020 H 1706.73 3.58205 5.44548 0
M  V30 18021 N 1710.16 -0.299034 1.54737 0
M  V30 18022 C 1711.09 -1.37358 1.88826 0
M  V30 18023 C 1712.07 -1.52802 0.747367 0
M  V30 18024 O 1713.26 -1.66277 1.00327 0
M  V30 18025 C 1710.39 -2.73746 2.13729 0
M  V30 18026 C 1709.34 -2.73065 3.29575 0
M  V30 18027 C 1708.67 -4.12761 3.39901 0
M  V30 18028 C 1709.97 -2.34631 4.66632 0
M  V30 18029 H 1711.66 -1.09077 2.78824 0
M  V30 18030 H 1709.21 -0.523276 1.34156 0
M  V30 18031 H 1711.16 -3.49006 2.36162 0
M  V30 18032 H 1709.88 -3.03556 1.20504 0
M  V30 18033 H 1708.54 -2.00261 3.07068 0
M  V30 18034 H 1708.19 -4.39751 2.44189 0
M  V30 18035 H 1707.89 -4.13205 4.17774 0
M  V30 18036 H 1709.42 -4.89797 3.64597 0
M  V30 18037 H 1710.83 -2.99608 4.88782 0
M  V30 18038 H 1709.23 -2.46285 5.47233 0
M  V30 18039 H 1710.3 -1.29759 4.67216 0
M  V30 18040 N 1711.64 -1.47227 -0.562322 0
M  V30 18041 C 1712.92 -1.44069 -1.32301 0
M  V30 18042 C 1713.3 -0.134912 -2.10668 0
M  V30 18043 O 1712.64 0.883603 -2.10724 0
M  V30 18044 C 1712.85 -2.68309 -2.23184 0
M  V30 18045 C 1714.2 -3.1531 -2.84367 0
M  V30 18046 O 1715.23 -2.69001 -2.33489 0
M  V30 18047 O 1714.09 -3.95805 -3.7683 0
M  V30 18048 H 1711.18 -0.573892 -0.595464 0
M  V30 18049 H 1713.73 -1.59421 -0.581648 0
M  V30 18050 H 1712.5 -3.54884 -1.64842 0
M  V30 18051 H 1712.12 -2.55518 -3.04625 0
M  V30 18052 N 1713.12 0.808639 -1.35273 0
M  V30 18053 C 1714.36 1.56794 -1.28621 0
M  V30 18054 C 1714.7 1.93697 0.139686 0
M  V30 18055 O 1713.97 1.61185 1.08856 0
M  V30 18056 C 1714.25 2.85794 -2.19075 0
M  V30 18057 C 1714.11 2.5538 -3.70271 0
M  V30 18058 C 1715.43 3.87481 -2.08678 0
M  V30 18059 H 1712.55 0.568873 -0.468564 0
M  V30 18060 H 1715.19 0.930499 -1.65655 0
M  V30 18061 H 1713.34 3.40191 -1.87622 0
M  V30 18062 H 1715.01 2.07182 -4.12157 0
M  V30 18063 H 1713.25 1.88605 -3.90654 0
M  V30 18064 H 1713.92 3.47432 -4.28947 0
M  V30 18065 H 1716.4 3.42478 -2.36323 0
M  V30 18066 H 1715.28 4.75523 -2.7417 0
M  V30 18067 H 1715.54 4.29004 -1.06809 0
M  V30 18068 N 1714.6 1.19237 1.03055 0
M  V30 18069 C 1715.56 0.930536 2.0946 0
M  V30 18070 C 1716.56 -0.0882907 1.60557 0
M  V30 18071 O 1717.75 0.146269 1.73585 0
M  V30 18072 C 1714.88 0.398165 3.38567 0
M  V30 18073 H 1716.07 1.87422 2.34122 0
M  V30 18074 H 1713.63 1.00579 1.19639 0
M  V30 18075 H 1714.36 -0.551646 3.19574 0
M  V30 18076 H 1714.15 1.13273 3.75382 0
M  V30 18077 H 1715.64 0.234006 4.16944 0
M  V30 18078 N 1716.07 -1.22136 0.99602 0
M  V30 18079 C 1717.35 -1.86506 0.589466 0
M  V30 18080 C 1717.73 -1.89355 -0.933159 0
M  V30 18081 O 1717.08 -1.38634 -1.8164 0
M  V30 18082 C 1717.29 -3.27224 1.21349 0
M  V30 18083 C 1718.64 -4.03692 1.31597 0
M  V30 18084 O 1719.66 -3.36502 1.16812 0
M  V30 18085 O 1718.52 -5.23973 1.55289 0
M  V30 18086 H 1715.61 -0.802279 0.200692 0
M  V30 18087 H 1718.16 -1.2989 1.0921 0
M  V30 18088 H 1716.93 -3.19802 2.25483 0
M  V30 18089 H 1716.56 -3.91449 0.696645 0
M  V30 18090 N 1717.55 -0.769612 -1.37531 0
M  V30 18091 C 1718.48 -0.168389 -2.32892 0
M  V30 18092 C 1719.46 0.685549 -1.55673 0
M  V30 18093 O 1720.65 0.62345 -1.8392 0
M  V30 18094 C 1717.78 0.713183 -3.39898 0
M  V30 18095 C 1716.73 -0.0392808 -4.27982 0
M  V30 18096 C 1716.06 0.961596 -5.25982 0
M  V30 18097 C 1717.36 -1.21704 -5.07923 0
M  V30 18098 H 1719.05 -0.965022 -2.83421 0
M  V30 18099 H 1716.6 -0.465502 -1.36268 0
M  V30 18100 H 1718.55 1.14358 -4.05586 0
M  V30 18101 H 1717.28 1.54231 -2.87889 0
M  V30 18102 H 1715.93 -0.450429 -3.63822 0
M  V30 18103 H 1715.58 1.78522 -4.70254 0
M  V30 18104 H 1715.28 0.462679 -5.85776 0
M  V30 18105 H 1716.81 1.39097 -5.94545 0
M  V30 18106 H 1718.22 -0.863405 -5.66761 0
M  V30 18107 H 1716.62 -1.6479 -5.77031 0
M  V30 18108 H 1717.69 -2.02219 -4.40722 0
M  V30 18109 N 1719.03 1.48775 -0.519977 0
M  V30 18110 C 1720.45 1.58614 -0.177164 0
M  V30 18111 C 1720.65 1.52314 1.31919 0
M  V30 18112 O 1719.7 1.40697 2.09668 0
M  V30 18113 C 1721.02 2.90653 -0.770816 0
M  V30 18114 C 1722.56 3.0416 -0.73864 0
M  V30 18115 C 1723.04 4.38845 -1.31069 0
M  V30 18116 N 1724.53 4.45386 -1.27222 0
M  V30 18117 C 1725.26 5.48088 -1.68484 0
M  V30 18118 N 1724.76 6.57797 -2.17428 0
M  V30 18119 N 1726.55 5.38912 -1.59782 0
M  V30 18120 H 1718.7 1.51112 -1.49261 0
M  V30 18121 H 1720.97 0.716925 -0.62026 0
M  V30 18122 H 1720.67 3.00888 -1.82097 0
M  V30 18123 H 1720.55 3.76422 -0.242125 0
M  V30 18124 H 1722.93 2.93543 0.302728 0
M  V30 18125 H 1723.02 2.20026 -1.30469 0
M  V30 18126 H 1722.66 4.50215 -2.35093 0
M  V30 18127 H 1722.59 5.21649 -0.720409 0
M  V30 18128 H 1725.08 3.66685 -0.913813 0
M  V30 18129 H 1725.39 7.32287 -2.46933 0
M  V30 18130 H 1723.74 6.58787 -2.21415 0
M  V30 18131 H 1726.93 4.52097 -1.2135 0
M  V30 18132 H 1727.1 6.18821 -1.92261 0
M  V30 18133 N 1720.51 0.254649 1.55529 0
M  V30 18134 C 1721.92 -0.100019 1.59286 0
M  V30 18135 C 1722.12 -1.56289 1.27185 0
M  V30 18136 O 1721.18 -2.30854 1.02287 0
M  V30 18137 C 1722.49 0.256158 2.99607 0
M  V30 18138 C 1724.04 0.201091 3.12353 0
M  V30 18139 C 1724.52 0.531411 4.54907 0
M  V30 18140 N 1726.01 0.482199 4.60683 0
M  V30 18141 C 1726.74 0.710848 5.68977 0
M  V30 18142 N 1726.24 1.00304 6.85501 0
M  V30 18143 N 1728.03 0.641029 5.58433 0
M  V30 18144 H 1720.18 1.20856 1.74664 0
M  V30 18145 H 1722.45 0.486824 0.813453 0
M  V30 18146 H 1722.15 1.27275 3.27863 0
M  V30 18147 H 1722.03 -0.412994 3.74932 0
M  V30 18148 H 1724.41 -0.806189 2.83874 0
M  V30 18149 H 1724.49 0.904206 2.39286 0
M  V30 18150 H 1724.14 1.53628 4.84108 0
M  V30 18151 H 1724.07 -0.193269 5.26245 0
M  V30 18152 H 1726.56 0.265409 3.76967 0
M  V30 18153 H 1726.87 1.16472 7.63973 0
M  V30 18154 H 1725.22 1.04059 6.87166 0
M  V30 18155 H 1728.41 0.412751 4.66277 0
M  V30 18156 H 1728.58 0.822617 6.42757 0
M  V30 18157 N 1721.99 -1.57589 -0.0183649 0
M  V30 18158 C 1722.92 -2.1029 -1.01492 0
M  V30 18159 C 1723.9 -1.00782 -1.37029 0
M  V30 18160 O 1725.08 -1.28365 -1.45726 0
M  V30 18161 C 1722.21 -2.59111 -2.31255 0
M  V30 18162 C 1721.17 -3.72979 -2.0993 0
M  V30 18163 C 1720.49 -4.08046 -3.45547 0
M  V30 18164 C 1721.79 -5.00988 -1.47677 0
M  V30 18165 H 1723.49 -2.93804 -0.57618 0
M  V30 18166 H 1721.03 -1.41336 -0.275708 0
M  V30 18167 H 1722.99 -2.94602 -3.0131 0
M  V30 18168 H 1721.71 -1.72694 -2.77208 0
M  V30 18169 H 1720.37 -3.37853 -1.42306 0
M  V30 18170 H 1720.02 -3.1868 -3.89169 0
M  V30 18171 H 1719.72 -4.8475 -3.32101 0
M  V30 18172 H 1721.24 -4.46081 -4.16947 0
M  V30 18173 H 1722.65 -5.34368 -2.07663 0
M  V30 18174 H 1721.05 -5.82375 -1.44774 0
M  V30 18175 H 1722.12 -4.82865 -0.443804 0
M  V30 18176 N 1723.46 0.290824 -1.54893 0
M  V30 18177 C 1724.88 0.637054 -1.46334 0
M  V30 18178 C 1725.08 1.90285 -0.66285 0
M  V30 18179 O 1724.14 2.51896 -0.174589 0
M  V30 18180 C 1725.45 0.780585 -2.90392 0
M  V30 18181 C 1727 0.875807 -3.00497 0
M  V30 18182 C 1727.47 1.05126 -4.45772 0
M  V30 18183 N 1728.96 1.11721 -4.49525 0
M  V30 18184 C 1729.7 1.27145 -5.59126 0
M  V30 18185 N 1729.19 1.39401 -6.7863 0
M  V30 18186 N 1730.99 1.30114 -5.46833 0
M  V30 18187 H 1723.14 -0.540707 -2.05402 0
M  V30 18188 H 1725.4 -0.180344 -0.930688 0
M  V30 18189 H 1725.11 -0.0787855 -3.51612 0
M  V30 18190 H 1724.98 1.66644 -3.38392 0
M  V30 18191 H 1727.37 1.72566 -2.39385 0
M  V30 18192 H 1727.45 -0.0342844 -2.55777 0
M  V30 18193 H 1727.09 0.206135 -5.07482 0
M  V30 18194 H 1727.02 1.97573 -4.88132 0
M  V30 18195 H 1729.51 1.03562 -3.63433 0
M  V30 18196 H 1729.83 1.50953 -7.57914 0
M  V30 18197 H 1728.17 1.36438 -6.81476 0
M  V30 18198 H 1731.36 1.20157 -4.52416 0
M  V30 18199 H 1731.54 1.4179 -6.32297 0
M  V30 18200 N 1724.94 1.47523 0.554506 0
M  V30 18201 C 1726.17 1.57678 1.33496 0
M  V30 18202 C 1726.58 0.226976 1.87834 0
M  V30 18203 O 1725.92 -0.790327 1.6583 0
M  V30 18204 C 1725.99 2.54423 2.53987 0
M  V30 18205 C 1725.65 4.00056 2.20916 0
M  V30 18206 C 1726.65 4.88462 1.78048 0
M  V30 18207 C 1724.33 4.45412 2.32192 0
M  V30 18208 C 1726.33 6.20244 1.46889 0
M  V30 18209 C 1724.01 5.77221 2.00646 0
M  V30 18210 C 1725.01 6.64459 1.58062 0
M  V30 18211 O 1724.7 7.93818 1.26917 0
M  V30 18212 H 1724.43 0.535053 0.413152 0
M  V30 18213 H 1726.98 1.93878 0.678279 0
M  V30 18214 H 1725.21 2.13296 3.22555 0
M  V30 18215 H 1726.9 2.54676 3.16061 0
M  V30 18216 H 1727.67 4.54667 1.68827 0
M  V30 18217 H 1723.55 3.77715 2.64296 0
M  V30 18218 H 1727.09 6.88292 1.13578 0
M  V30 18219 H 1722.99 6.10557 2.095 0
M  V30 18220 H 1723.76 8.06347 1.40525 0
M  V30 18221 N 1726.42 -0.801453 1.357 0
M  V30 18222 C 1727.37 -1.91355 1.29043 0
M  V30 18223 C 1728.34 -1.65314 0.161381 0
M  V30 18224 O 1729.52 -1.87638 0.345928 0
M  V30 18225 C 1726.66 -3.27979 1.07348 0
M  V30 18226 C 1725.78 -3.66172 2.29221 0
M  V30 18227 C 1724.91 -4.91853 2.00635 0
M  V30 18228 C 1723.95 -5.22688 3.18533 0
M  V30 18229 N 1723.09 -6.3955 2.8969 0
M  V30 18230 H 1727.93 -1.96381 2.24139 0
M  V30 18231 H 1725.46 -0.960502 1.11413 0
M  V30 18232 H 1727.42 -4.06748 0.928002 0
M  V30 18233 H 1726.05 -3.22408 0.159115 0
M  V30 18234 H 1725.1 -2.82623 2.54615 0
M  V30 18235 H 1726.42 -3.84916 3.1724 0
M  V30 18236 H 1725.57 -5.78459 1.82947 0
M  V30 18237 H 1724.31 -4.75154 1.09908 0
M  V30 18238 H 1723.31 -4.34569 3.36793 0
M  V30 18239 H 1724.54 -5.41313 4.10069 0
M  V30 18240 H 1722.48 -6.24266 2.01562 0
M  V30 18241 H 1722.4 -6.58569 3.71245 0
M  V30 18242 H 1723.67 -7.29171 2.75555 0
M  V30 18243 N 1727.9 -1.19782 -1.02421 0
M  V30 18244 C 1729.15 -1.00133 -1.7555 0
M  V30 18245 C 1729.47 0.468503 -1.89288 0
M  V30 18246 O 1728.74 1.3391 -1.42986 0
M  V30 18247 H 1727.32 -0.367513 -0.650341 0
M  V30 18248 H 1729.98 -1.50758 -1.23523 0
M  V30 18249 H 1729.08 -1.45329 -2.76199 0
M  V30 18250 N 1729.38 1.21606 -1.00248 0
M  V30 18251 C 1730.63 1.89922 -0.679152 0
M  V30 18252 C 1730.94 1.78793 0.793246 0
M  V30 18253 O 1732.15 2.42113 1.22856 0
M  V30 18254 C 1730.6 3.40548 -1.16427 0
M  V30 18255 C 1730.21 3.60293 -2.66257 0
M  V30 18256 C 1731.95 4.14506 -0.915714 0
M  V30 18257 C 1729.86 5.04669 -3.08323 0
M  V30 18258 H 1728.79 0.711232 -0.250329 0
M  V30 18259 H 1731.44 1.37663 -1.21331 0
M  V30 18260 H 1729.82 3.92046 -0.558177 0
M  V30 18261 H 1731 3.19245 -3.32294 0
M  V30 18262 H 1729.31 2.99683 -2.891 0
M  V30 18263 H 1731.91 5.20932 -1.20558 0
M  V30 18264 H 1732.25 4.16037 0.148068 0
M  V30 18265 H 1732.79 3.69064 -1.48448 0
M  V30 18266 H 1729.52 5.08284 -4.13917 0
M  V30 18267 H 1729.04 5.46583 -2.46996 0
M  V30 18268 H 1730.72 5.7316 -3.00162 0
M  V30 18269 N 1730.86 0.776895 1.37121 0
M  V30 18270 C 1732.27 0.457116 1.52914 0
M  V30 18271 C 1732.47 -1.0265 1.73394 0
M  V30 18272 O 1731.53 -1.81224 1.75824 0
M  V30 18273 C 1732.84 1.27667 2.72253 0
M  V30 18274 C 1734.39 1.26909 2.86117 0
M  V30 18275 C 1734.86 2.0721 4.08446 0
M  V30 18276 N 1736.35 2.04591 4.15568 0
M  V30 18277 C 1737.09 2.63502 5.09268 0
M  V30 18278 N 1736.59 3.31222 6.08493 0
M  V30 18279 N 1738.38 2.53304 5.0179 0
M  V30 18280 H 1730.53 1.73811 1.2208 0
M  V30 18281 H 1732.79 0.738142 0.594853 0
M  V30 18282 H 1732.5 2.32825 2.63601 0
M  V30 18283 H 1732.37 0.909363 3.66074 0
M  V30 18284 H 1734.76 0.225476 2.94237 0
M  V30 18285 H 1734.84 1.67607 1.9324 0
M  V30 18286 H 1734.48 3.11595 4.01087 0
M  V30 18287 H 1734.41 1.63891 5.00447 0
M  V30 18288 H 1736.91 1.55293 3.44518 0
M  V30 18289 H 1737.22 3.73535 6.76529 0
M  V30 18290 H 1735.56 3.35322 6.08756 0
M  V30 18291 H 1738.75 2.00009 4.23218 0
M  V30 18292 H 1738.93 2.99509 5.74629 0
M  V30 18293 N 1732.33 -1.48497 0.527859 0
M  V30 18294 C 1733.74 -1.86498 0.0868541 0
M  V30 18295 C 1734.1 -1.43763 -1.33517 0
M  V30 18296 O 1733.22 -0.827397 -1.99958 0
M  V30 18297 C 1733.82 -3.38464 0.150843 0
M  V30 18298 C 1732.37 -3.75666 -0.234956 0
M  V30 18299 C 1731.52 -2.72541 0.511549 0
M  V30 18300 H 1734.47 -1.40432 0.739223 0
M  V30 18301 H 1734.49 -3.75114 -0.637972 0
M  V30 18302 H 1734.01 -3.69537 1.18592 0
M  V30 18303 H 1732.11 -3.50206 -1.27225 0
M  V30 18304 H 1732.22 -4.78989 0.103178 0
M  V30 18305 H 1730.58 -2.54665 -0.0419281 0
M  V30 18306 H 1731.37 -3.06457 1.54722 0
M  V30 18307 N 1733.81 -0.262893 -1.55392 0
M  V30 18308 C 1734.77 0.616662 -2.20749 0
M  V30 18309 C 1735.77 1.09066 -1.18158 0
M  V30 18310 O 1736.96 0.992797 -1.4314 0
M  V30 18311 C 1734.1 1.84937 -2.86376 0
M  V30 18312 H 1735.29 0.0462013 -2.99864 0
M  V30 18313 H 1732.84 -0.013432 -1.56294 0
M  V30 18314 H 1733.58 2.46066 -2.1124 0
M  V30 18315 H 1733.36 1.51754 -3.61543 0
M  V30 18316 H 1734.85 2.47511 -3.36345 0
M  V30 18317 N 1735.29 1.57597 0.0100073 0
M  V30 18318 C 1736.7 1.78287 0.554143 0
M  V30 18319 C 1737.05 0.896332 1.74529 0
M  V30 18320 O 1736.18 0.0961505 2.16186 0
M  V30 18321 C 1736.77 3.23331 1.01206 0
M  V30 18322 C 1735.33 3.45152 1.50157 0
M  V30 18323 C 1734.48 2.73654 0.448221 0
M  V30 18324 H 1737.43 1.57221 -0.216189 0
M  V30 18325 H 1737.45 3.30893 1.87856 0
M  V30 18326 H 1736.96 3.87829 0.144921 0
M  V30 18327 H 1735.06 2.85854 2.38994 0
M  V30 18328 H 1735.18 4.53813 1.53594 0
M  V30 18329 H 1733.54 2.3798 0.907603 0
M  V30 18330 H 1734.32 3.40846 -0.40978 0
M  V30 18331 N 1736.77 -0.282606 1.55045 0
M  V30 18332 C 1738.02 -1.01346 1.74852 0
M  V30 18333 C 1738.34 -1.87161 0.547327 0
M  V30 18334 O 1737.61 -1.9094 -0.438015 0
M  V30 18335 H 1736.19 -0.377178 0.644784 0
M  V30 18336 H 1738.85 -0.309152 1.92432 0
M  V30 18337 H 1737.94 -1.65596 2.64545 0
M  V30 18338 N 1738.25 -1.47815 -0.546675 0
M  V30 18339 C 1739.48 -1.58384 -1.32658 0
M  V30 18340 C 1739.88 -0.236934 -1.87711 0
M  V30 18341 O 1739.23 0.781521 -1.66247 0
M  V30 18342 C 1739.29 -2.55766 -2.52634 0
M  V30 18343 C 1738.95 -4.01222 -2.18791 0
M  V30 18344 C 1739.95 -4.89399 -1.75455 0
M  V30 18345 C 1737.63 -4.46637 -2.29827 0
M  V30 18346 C 1739.63 -6.21014 -1.43598 0
M  V30 18347 C 1737.32 -5.78277 -1.97582 0
M  V30 18348 C 1738.31 -6.65288 -1.54536 0
M  V30 18349 O 1738 -7.9448 -1.22706 0
M  V30 18350 H 1737.73 -0.537236 -0.410309 0
M  V30 18351 H 1740.29 -1.94235 -0.667988 0
M  V30 18352 H 1738.52 -2.15003 -3.2142 0
M  V30 18353 H 1740.21 -2.56349 -3.14706 0
M  V30 18354 H 1740.97 -4.55556 -1.66414 0
M  V30 18355 H 1736.85 -3.79111 -2.62289 0
M  V30 18356 H 1740.4 -6.88885 -1.09926 0
M  V30 18357 H 1736.29 -6.1166 -2.06259 0
M  V30 18358 H 1737.06 -8.07081 -1.36246 0
M  V30 18359 N 1739.72 0.794246 -1.36123 0
M  V30 18360 C 1741.13 1.36909 -1.26936 0
M  V30 18361 C 1741.49 1.9598 0.0929337 0
M  V30 18362 O 1740.61 1.92206 0.994266 0
M  V30 18363 C 1741.21 2.48906 -2.2985 0
M  V30 18364 C 1739.76 3.0222 -2.24366 0
M  V30 18365 C 1738.91 1.75264 -2.1489 0
M  V30 18366 H 1741.86 0.596278 -1.47072 0
M  V30 18367 H 1741.88 3.27794 -1.93213 0
M  V30 18368 H 1741.4 2.05884 -3.28988 0
M  V30 18369 H 1739.5 3.49675 -1.28679 0
M  V30 18370 H 1739.61 3.59363 -3.16852 0
M  V30 18371 H 1737.97 1.97306 -1.61066 0
M  V30 18372 H 1738.76 1.34377 -3.15908 0
M  V30 18373 N 1741.2 1.20323 1.01785 0
M  V30 18374 C 1742.43 1.03893 1.79502 0
M  V30 18375 C 1742.85 -0.407421 1.83635 0
M  V30 18376 O 1742.21 -1.29338 1.27049 0
M  V30 18377 C 1742.26 1.62562 3.21879 0
M  V30 18378 O 1741.36 0.862398 4.03282 0
M  V30 18379 H 1740.7 0.366479 0.553705 0
M  V30 18380 H 1743.23 1.59589 1.28034 0
M  V30 18381 H 1743.24 1.66244 3.72595 0
M  V30 18382 H 1741.92 2.67826 3.18186 0
M  V30 18383 H 1740.49 0.899687 3.61884 0
M  V30 18384 N 1742.68 -1.21073 1.00892 0
M  V30 18385 C 1743.61 -2.22968 0.530841 0
M  V30 18386 C 1744.62 -1.58239 -0.382664 0
M  V30 18387 O 1745.81 -1.77567 -0.182237 0
M  V30 18388 C 1742.91 -3.37991 -0.248096 0
M  V30 18389 C 1742.09 -4.32309 0.665439 0
M  V30 18390 C 1741.15 -5.2616 -0.0645731 0
M  V30 18391 O 1740.17 -5.66484 0.555383 0
M  V30 18392 N 1741.37 -5.64777 -1.3419 0
M  V30 18393 H 1744.14 -2.64614 1.4071 0
M  V30 18394 H 1741.7 -1.35536 0.885528 0
M  V30 18395 H 1743.69 -3.97774 -0.745513 0
M  V30 18396 H 1742.26 -2.95297 -1.02558 0
M  V30 18397 H 1741.48 -3.70607 1.34329 0
M  V30 18398 H 1742.77 -4.92254 1.28701 0
M  V30 18399 H 1742.17 -5.34016 -1.86664 0
M  V30 18400 H 1740.72 -6.26905 -1.78419 0
M  V30 18401 N 1744.16 -0.784156 -1.36707 0
M  V30 18402 C 1745.57 -0.417967 -1.81961 0
M  V30 18403 C 1745.92 1.05746 -1.65264 0
M  V30 18404 O 1745.05 1.82003 -1.17064 0
M  V30 18405 C 1745.64 -0.751869 -3.30352 0
M  V30 18406 C 1744.2 -0.438578 -3.73836 0
M  V30 18407 C 1743.35 -0.989262 -2.59054 0
M  V30 18408 H 1746.3 -0.977754 -1.25003 0
M  V30 18409 H 1746.32 -0.041034 -3.80478 0
M  V30 18410 H 1745.83 -1.82576 -3.42473 0
M  V30 18411 H 1743.93 0.627493 -3.67278 0
M  V30 18412 H 1744.04 -0.955508 -4.69475 0
M  V30 18413 H 1742.41 -0.412783 -2.51333 0
M  V30 18414 H 1743.19 -2.06881 -2.73962 0
M  V30 18415 N 1745.64 1.48215 -0.535727 0
M  V30 18416 C 1746.91 1.95505 0.0609376 0
M  V30 18417 C 1747.29 1.47806 1.5072 0
M  V30 18418 O 1746.64 0.707142 2.17283 0
M  V30 18419 C 1746.85 3.48944 -0.0622609 0
M  V30 18420 C 1748.2 4.24496 0.0940805 0
M  V30 18421 O 1749.22 3.56198 0.0112532 0
M  V30 18422 O 1748.08 5.4584 0.268547 0
M  V30 18423 H 1745.18 0.82349 0.0761079 0
M  V30 18424 H 1747.72 1.58711 -0.600732 0
M  V30 18425 H 1746.49 3.76401 -1.06949 0
M  V30 18426 H 1746.12 3.92448 0.637999 0
M  V30 18427 N 1747.11 0.27113 1.5525 0
M  V30 18428 C 1748.06 -0.632507 2.19051 0
M  V30 18429 C 1749.05 -1.12135 1.15388 0
M  V30 18430 O 1750.24 -1.06709 1.41217 0
M  V30 18431 C 1747.37 -1.81804 2.91208 0
M  V30 18432 C 1746.46 -1.34656 4.02155 0
M  V30 18433 N 1746.85 -0.590954 5.02336 0
M  V30 18434 C 1745.14 -1.62985 4.15153 0
M  V30 18435 C 1745.85 -0.343602 5.80684 0
M  V30 18436 N 1744.82 -0.914869 5.35846 0
M  V30 18437 H 1748.62 -0.0473244 2.93862 0
M  V30 18438 H 1746.14 0.0745107 1.62229 0
M  V30 18439 H 1748.13 -2.47666 3.35361 0
M  V30 18440 H 1746.79 -2.40721 2.17907 0
M  V30 18441 H 1747.81 -0.238682 5.1735 0
M  V30 18442 H 1744.48 -2.22867 3.53039 0
M  V30 18443 H 1745.87 0.261284 6.71392 0
M  V30 18444 N 1748.59 -1.576 -0.00164943 0
M  V30 18445 C 1749.82 -1.94775 -0.697872 0
M  V30 18446 C 1750.24 -0.873094 -1.67399 0
M  V30 18447 O 1749.59 0.148119 -1.81898 0
M  V30 18448 C 1749.64 -3.31963 -1.43117 0
M  V30 18449 O 1749.36 -4.35304 -0.494203 0
M  V30 18450 C 1750.87 -3.83588 -2.22206 0
M  V30 18451 H 1748.09 -0.6422 -0.194474 0
M  V30 18452 H 1750.63 -2.04441 0.04898 0
M  V30 18453 H 1748.78 -3.2361 -2.12967 0
M  V30 18454 H 1749.2 -5.14656 -1.0114 0
M  V30 18455 H 1750.67 -4.82012 -2.69014 0
M  V30 18456 H 1751.15 -3.16208 -3.0481 0
M  V30 18457 H 1751.76 -3.95111 -1.57376 0
M  V30 18458 N 1750.07 0.274379 -1.55193 0
M  V30 18459 C 1750.98 1.36118 -1.91073 0
M  V30 18460 C 1752 1.54111 -0.807823 0
M  V30 18461 O 1753.17 1.68264 -1.10676 0
M  V30 18462 C 1750.24 2.70062 -2.17411 0
M  V30 18463 C 1749.3 2.60827 -3.4098 0
M  V30 18464 C 1748.53 3.88384 -3.66052 0
M  V30 18465 O 1748.75 4.89 -2.93657 0
M  V30 18466 O 1747.69 3.8867 -4.59586 0
M  V30 18467 H 1751.51 1.08686 -2.83586 0
M  V30 18468 H 1749.1 0.472784 -1.41722 0
M  V30 18469 H 1750.98 3.49264 -2.35782 0
M  V30 18470 H 1749.66 2.97283 -1.28081 0
M  V30 18471 H 1748.56 1.80006 -3.27946 0
M  V30 18472 H 1749.9 2.38556 -4.30525 0
M  V30 18473 N 1751.55 1.48103 0.538828 0
M  V30 18474 C 1752.5 1.61966 1.64425 0
M  V30 18475 C 1753.47 0.461999 1.59546 0
M  V30 18476 O 1754.65 0.684377 1.78104 0
M  V30 18477 C 1751.79 1.65711 3.02711 0
M  V30 18478 C 1750.9 2.92522 3.17891 0
M  V30 18479 C 1750.04 2.87485 4.46683 0
M  V30 18480 C 1749.08 4.0904 4.5536 0
M  V30 18481 N 1748.21 4.02131 5.7553 0
M  V30 18482 H 1753.05 2.5637 1.51916 0
M  V30 18483 H 1750.59 1.27146 0.739745 0
M  V30 18484 H 1752.55 1.65864 3.82812 0
M  V30 18485 H 1751.18 0.748045 3.14013 0
M  V30 18486 H 1750.23 3.02154 2.311 0
M  V30 18487 H 1751.54 3.82487 3.20165 0
M  V30 18488 H 1750.7 2.8599 5.35065 0
M  V30 18489 H 1749.44 1.95234 4.46917 0
M  V30 18490 H 1748.44 4.10819 3.65387 0
M  V30 18491 H 1749.67 5.02439 4.56872 0
M  V30 18492 H 1747.61 3.12695 5.76678 0
M  V30 18493 H 1747.53 4.85791 5.7926 0
M  V30 18494 H 1748.8 4.04682 6.66223 0
M  V30 18495 N 1753.03 -0.787016 1.36542 0
M  V30 18496 C 1753.96 -1.91399 1.33749 0
M  V30 18497 C 1754.94 -1.68817 0.208559 0
M  V30 18498 O 1756.12 -1.89896 0.406574 0
M  V30 18499 C 1753.25 -3.28457 1.12842 0
M  V30 18500 C 1752.21 -3.65568 2.22585 0
M  V30 18501 C 1751.53 -5.01002 1.86818 0
M  V30 18502 C 1752.83 -3.73902 3.64684 0
M  V30 18503 H 1754.53 -1.93993 2.2805 0
M  V30 18504 H 1752.07 -0.931937 1.09777 0
M  V30 18505 H 1754.03 -4.06919 1.09522 0
M  V30 18506 H 1752.75 -3.26256 0.149918 0
M  V30 18507 H 1751.41 -2.89405 2.25035 0
M  V30 18508 H 1751.06 -4.95325 0.875361 0
M  V30 18509 H 1750.76 -5.26802 2.60294 0
M  V30 18510 H 1752.28 -5.81881 1.85058 0
M  V30 18511 H 1753.69 -4.4255 3.64448 0
M  V30 18512 H 1752.09 -4.11188 4.37086 0
M  V30 18513 H 1753.16 -2.74946 3.99416 0
M  V30 18514 N 1754.5 -1.20861 -1.01145 0
M  V30 18515 C 1755.73 -1.04769 -1.78413 0
M  V30 18516 C 1756.15 0.402846 -1.84452 0
M  V30 18517 O 1755.5 1.27962 -1.30123 0
M  V30 18518 C 1755.56 -1.63065 -3.22633 0
M  V30 18519 O 1755.28 -3.02443 -3.16954 0
M  V30 18520 C 1756.78 -1.51996 -4.16428 0
M  V30 18521 H 1754 -0.368271 -0.560908 0
M  V30 18522 H 1756.54 -1.6006 -1.27283 0
M  V30 18523 H 1754.7 -1.11882 -3.70892 0
M  V30 18524 H 1755.11 -3.30199 -4.07515 0
M  V30 18525 H 1756.58 -1.97539 -5.15444 0
M  V30 18526 H 1757.06 -0.473305 -4.36642 0
M  V30 18527 H 1757.67 -2.02396 -3.74054 0
M  V30 18528 N 1755.98 1.20536 -1.01532 0
M  V30 18529 C 1756.92 2.21979 -0.529198 0
M  V30 18530 C 1757.89 1.5701 0.422676 0
M  V30 18531 O 1759.08 1.85354 0.342975 0
M  V30 18532 C 1756.2 3.37918 0.230033 0
M  V30 18533 C 1755.25 4.21185 -0.671202 0
M  V30 18534 S 1756.08 4.90898 -2.13962 0
M  V30 18535 C 1757.24 6.10259 -1.39051 0
M  V30 18536 H 1757.47 2.62871 -1.38875 0
M  V30 18537 H 1755.01 1.30567 -0.824113 0
M  V30 18538 H 1756.96 4.05127 0.661978 0
M  V30 18539 H 1755.62 2.95489 1.06514 0
M  V30 18540 H 1754.82 5.03927 -0.085834 0
M  V30 18541 H 1754.42 3.59224 -1.04087 0
M  V30 18542 H 1756.71 6.74181 -0.669841 0
M  V30 18543 H 1757.65 6.73252 -2.19402 0
M  V30 18544 H 1758.06 5.57377 -0.893953 0
M  V30 18545 N 1757.46 0.791395 1.36289 0
M  V30 18546 C 1758.71 0.374323 1.99926 0
M  V30 18547 C 1759.06 -1.04297 1.61679 0
M  V30 18548 O 1758.35 -1.71094 0.862403 0
M  V30 18549 C 1758.55 0.477795 3.54192 0
M  V30 18550 C 1758.38 1.90359 4.07423 0
M  V30 18551 C 1757.15 2.52864 4.37479 0
M  V30 18552 C 1759.35 2.86601 4.27041 0
M  V30 18553 N 1757.33 3.87012 4.76545 0
M  V30 18554 C 1758.7 4.05587 4.68934 0
M  V30 18555 C 1760.75 2.83632 4.09216 0
M  V30 18556 C 1759.46 5.22014 4.94867 0
M  V30 18557 C 1761.48 3.99249 4.36296 0
M  V30 18558 C 1760.84 5.16979 4.78447 0
M  V30 18559 H 1756.94 0.184431 0.75994 0
M  V30 18560 H 1759.53 1.02941 1.65261 0
M  V30 18561 H 1757.7 -0.147216 3.88121 0
M  V30 18562 H 1759.43 0.0367774 4.04683 0
M  V30 18563 H 1756.19 2.0433 4.27254 0
M  V30 18564 H 1756.61 4.56037 5.00359 0
M  V30 18565 H 1761.25 1.93772 3.75782 0
M  V30 18566 H 1758.97 6.12459 5.27181 0
M  V30 18567 H 1762.56 3.98314 4.24072 0
M  V30 18568 H 1761.44 6.04957 4.98996 0
M  V30 18569 N 1758.94 -1.47929 0.54358 0
M  V30 18570 C 1760.36 -1.58312 0.202376 0
M  V30 18571 C 1760.56 -1.54394 -1.29479 0
M  V30 18572 O 1759.61 -1.44015 -2.07403 0
M  V30 18573 C 1760.92 -2.89389 0.816958 0
M  V30 18574 C 1762.47 -3.02946 0.786935 0
M  V30 18575 C 1762.95 -4.36704 1.38034 0
M  V30 18576 N 1764.44 -4.43306 1.34291 0
M  V30 18577 C 1765.17 -5.45339 1.77182 0
M  V30 18578 N 1764.67 -6.54255 2.27866 0
M  V30 18579 N 1766.46 -5.36302 1.68336 0
M  V30 18580 H 1758.61 -1.48719 1.51646 0
M  V30 18581 H 1760.88 -0.706966 0.631587 0
M  V30 18582 H 1760.58 -2.97953 1.86861 0
M  V30 18583 H 1760.46 -3.75989 0.30198 0
M  V30 18584 H 1762.84 -2.93988 -0.25599 0
M  V30 18585 H 1762.92 -2.17923 1.33953 0
M  V30 18586 H 1762.57 -4.46418 2.42226 0
M  V30 18587 H 1762.5 -5.20437 0.803308 0
M  V30 18588 H 1764.99 -3.65185 0.972033 0
M  V30 18589 H 1765.3 -7.28265 2.58552 0
M  V30 18590 H 1763.65 -6.55181 2.31868 0
M  V30 18591 H 1766.84 -4.50109 1.28527 0
M  V30 18592 H 1767.01 -6.15684 2.02082 0
M  V30 18593 N 1760.42 -0.27936 -1.55104 0
M  V30 18594 C 1761.35 0.599831 -2.25664 0
M  V30 18595 C 1762.33 1.15548 -1.24831 0
M  V30 18596 O 1763.51 1.18883 -1.53559 0
M  V30 18597 C 1760.64 1.78202 -2.98096 0
M  V30 18598 C 1759.6 1.35771 -4.05894 0
M  V30 18599 C 1758.92 2.62334 -4.65924 0
M  V30 18600 C 1760.22 0.504795 -5.19855 0
M  V30 18601 H 1761.92 0.0113761 -2.99398 0
M  V30 18602 H 1759.46 0.00403149 -1.43999 0
M  V30 18603 H 1761.42 2.403 -3.4617 0
M  V30 18604 H 1760.14 2.39637 -2.21905 0
M  V30 18605 H 1758.8 0.75991 -3.58638 0
M  V30 18606 H 1758.45 3.22036 -3.86396 0
M  V30 18607 H 1758.15 2.34654 -5.38713 0
M  V30 18608 H 1759.67 3.25273 -5.16749 0
M  V30 18609 H 1761.09 1.03089 -5.63955 0
M  V30 18610 H 1759.48 0.322696 -5.99232 0
M  V30 18611 H 1760.55 -0.475409 -4.82564 0
M  V30 18612 N 1761.9 1.57599 -0.0067085 0
M  V30 18613 C 1762.86 2.07783 0.967417 0
M  V30 18614 C 1763.86 0.988498 1.26828 0
M  V30 18615 O 1765.05 1.25091 1.21235 0
M  V30 18616 C 1762.18 2.52491 2.29044 0
M  V30 18617 H 1763.37 2.95122 0.533201 0
M  V30 18618 H 1760.93 1.54432 0.2409 0
M  V30 18619 H 1761.66 1.68415 2.77141 0
M  V30 18620 H 1761.45 3.32054 2.08525 0
M  V30 18621 H 1762.94 2.9162 2.98911 0
M  V30 18622 N 1763.37 -0.266145 1.55336 0
M  V30 18623 C 1764.65 -1.01852 1.6699 0
M  V30 18624 C 1765.03 -2.04053 0.54088 0
M  V30 18625 O 1764.38 -2.23859 -0.458193 0
M  V30 18626 C 1764.59 -1.66917 3.06496 0
M  V30 18627 C 1765.94 -2.17824 3.64469 0
M  V30 18628 O 1766.96 -1.76892 3.09173 0
M  V30 18629 O 1765.82 -2.92922 4.61367 0
M  V30 18630 H 1762.91 -0.472871 0.67847 0
M  V30 18631 H 1765.46 -0.261458 1.67674 0
M  V30 18632 H 1764.23 -0.928941 3.80114 0
M  V30 18633 H 1763.85 -2.49292 3.0974 0
M  V30 18634 N 1764.85 -1.48386 -0.530967 0
M  V30 18635 C 1766.1 -1.55608 -1.28332 0
M  V30 18636 C 1766.41 -0.234479 -1.94189 0
M  V30 18637 O 1767.62 -0.184926 -2.70869 0
M  V30 18638 C 1766.08 -2.74423 -2.32852 0
M  V30 18639 C 1765.68 -4.13221 -1.73068 0
M  V30 18640 C 1767.43 -2.90956 -3.09103 0
M  V30 18641 C 1765.33 -5.23299 -2.75522 0
M  V30 18642 H 1764.26 -0.579291 -0.482637 0
M  V30 18643 H 1766.92 -1.74718 -0.560885 0
M  V30 18644 H 1765.3 -2.48745 -3.08126 0
M  V30 18645 H 1766.47 -4.48913 -1.03989 0
M  V30 18646 H 1764.79 -4.01796 -1.09312 0
M  V30 18647 H 1767.38 -3.70363 -3.85662 0
M  V30 18648 H 1767.73 -2.00376 -3.64905 0
M  V30 18649 H 1768.26 -3.1653 -2.40943 0
M  V30 18650 H 1765 -6.15842 -2.24542 0
M  V30 18651 H 1764.52 -4.92095 -3.42932 0
M  V30 18652 H 1766.2 -5.5137 -3.38526 0
M  V30 18653 N 1766.33 0.779763 -1.36958 0
M  V30 18654 C 1767.24 1.92394 -1.34245 0
M  V30 18655 C 1768.26 1.72292 -0.243187 0
M  V30 18656 O 1769.43 1.95665 -0.477211 0
M  V30 18657 C 1766.5 3.27402 -1.14057 0
M  V30 18658 C 1765.56 3.60213 -2.33548 0
M  V30 18659 C 1764.79 4.88779 -2.14314 0
M  V30 18660 O 1765.01 5.59231 -1.12327 0
M  V30 18661 O 1763.95 5.20469 -3.02316 0
M  V30 18662 H 1767.77 1.97633 -2.30596 0
M  V30 18663 H 1765.36 0.921386 -1.17605 0
M  V30 18664 H 1767.24 4.08172 -1.04755 0
M  V30 18665 H 1765.92 3.23033 -0.207744 0
M  V30 18666 H 1764.82 2.7971 -2.48421 0
M  V30 18667 H 1766.16 3.69317 -3.25371 0
M  V30 18668 N 1767.81 1.21396 1.00503 0
M  V30 18669 C 1768.74 0.930982 2.09441 0
M  V30 18670 C 1769.75 -0.0857912 1.62574 0
M  V30 18671 O 1770.94 0.146701 1.77896 0
M  V30 18672 C 1768.04 0.376344 3.36804 0
M  V30 18673 C 1767.21 1.44744 4.12756 0
M  V30 18674 C 1766.27 0.902051 5.18411 0
M  V30 18675 O 1765.3 1.58548 5.46673 0
M  V30 18676 N 1766.5 -0.282718 5.79811 0
M  V30 18677 H 1769.27 1.86879 2.343 0
M  V30 18678 H 1766.83 1.1192 1.16985 0
M  V30 18679 H 1768.82 -0.00292068 4.047 0
M  V30 18680 H 1767.39 -0.466283 3.09103 0
M  V30 18681 H 1766.61 2.00056 3.39664 0
M  V30 18682 H 1767.9 2.16846 4.60277 0
M  V30 18683 H 1767.3 -0.855 5.59201 0
M  V30 18684 H 1765.85 -0.603494 6.49 0
M  V30 18685 N 1769.29 -1.19996 1.0217 0
M  V30 18686 C 1770.51 -1.94007 0.733207 0
M  V30 18687 C 1770.94 -1.74565 -0.70061 0
M  V30 18688 O 1770.29 -1.04326 -1.48276 0
M  V30 18689 C 1770.34 -3.44029 1.08057 0
M  V30 18690 O 1769.45 -4.11938 0.195135 0
M  V30 18691 H 1768.79 -0.605929 0.271562 0
M  V30 18692 H 1771.32 -1.5228 1.36645 0
M  V30 18693 H 1771.33 -3.94669 1.03443 0
M  V30 18694 H 1770 -3.57502 2.1252 0
M  V30 18695 H 1768.58 -3.71697 0.299246 0
M  V30 18696 N 1770.76 -0.798611 -1.35867 0
M  V30 18697 C 1771.99 -0.387479 -2.03239 0
M  V30 18698 C 1772.41 0.999052 -1.60201 0
M  V30 18699 O 1771.76 1.64237 -0.795763 0
M  V30 18700 C 1771.81 -0.452101 -3.58662 0
M  V30 18701 O 1771.54 -1.78396 -4.00133 0
M  V30 18702 C 1773.04 -0.0327638 -4.43288 0
M  V30 18703 H 1770.26 -0.15845 -0.652024 0
M  V30 18704 H 1772.8 -1.08002 -1.73655 0
M  V30 18705 H 1770.96 0.192107 -3.86923 0
M  V30 18706 H 1771.37 -1.74118 -4.94756 0
M  V30 18707 H 1772.84 -0.129106 -5.51849 0
M  V30 18708 H 1773.32 1.02098 -4.27168 0
M  V30 18709 H 1773.93 -0.649817 -4.20306 0
M  V30 18710 N 1772.24 1.47639 -0.551417 0
M  V30 18711 C 1773.49 2.02084 -0.0251553 0
M  V30 18712 C 1773.81 1.42872 1.32713 0
M  V30 18713 O 1773.08 0.601794 1.86428 0
M  V30 18714 H 1771.66 0.746973 -0.00631005 0
M  V30 18715 H 1774.32 1.81109 -0.720113 0
M  V30 18716 H 1773.42 3.12028 0.0672608 0
M  V30 18717 N 1773.72 0.287581 1.54954 0
M  V30 18718 C 1774.97 -0.326315 1.99043 0
M  V30 18719 C 1775.28 -1.56033 1.17954 0
M  V30 18720 O 1776.49 -2.24797 1.52246 0
M  V30 18721 C 1774.94 -0.631918 3.54309 0
M  V30 18722 C 1774.55 0.582998 4.4419 0
M  V30 18723 C 1776.3 -1.20775 4.06957 0
M  V30 18724 C 1774.2 0.251291 5.90866 0
M  V30 18725 H 1773.13 -0.125703 0.743448 0
M  V30 18726 H 1775.78 0.394188 1.79216 0
M  V30 18727 H 1774.17 -1.41166 3.69984 0
M  V30 18728 H 1775.34 1.35957 4.40287 0
M  V30 18729 H 1773.66 1.07653 4.02243 0
M  V30 18730 H 1776.25 -1.46995 5.14098 0
M  V30 18731 H 1776.6 -2.14569 3.56743 0
M  V30 18732 H 1777.13 -0.490021 3.9477 0
M  V30 18733 H 1773.87 1.15744 6.452 0
M  V30 18734 H 1773.39 -0.488274 5.97809 0
M  V30 18735 H 1775.07 -0.152008 6.46821 0
M  V30 18736 N 1775.2 -1.57593 0.0150662 0
M  V30 18737 C 1776.61 -1.5591 -0.341189 0
M  V30 18738 C 1776.81 -1.01927 -1.73819 0
M  V30 18739 O 1775.87 -0.659752 -2.43728 0
M  V30 18740 C 1777.18 -3.00016 -0.202639 0
M  V30 18741 C 1778.73 -3.11777 -0.276457 0
M  V30 18742 C 1779.21 -4.57696 -0.166859 0
M  V30 18743 N 1780.7 -4.62657 -0.224287 0
M  V30 18744 C 1781.43 -5.73168 -0.163053 0
M  V30 18745 N 1780.93 -6.92781 -0.0515442 0
M  V30 18746 N 1782.72 -5.61685 -0.216018 0
M  V30 18747 H 1774.87 -1.91018 0.92876 0
M  V30 18748 H 1777.14 -0.878048 0.3574 0
M  V30 18749 H 1776.84 -3.43409 0.759136 0
M  V30 18750 H 1776.72 -3.64285 -0.978599 0
M  V30 18751 H 1779.1 -2.68305 -1.22868 0
M  V30 18752 H 1779.18 -2.50257 0.529637 0
M  V30 18753 H 1778.83 -5.01846 0.781888 0
M  V30 18754 H 1778.76 -5.17179 -0.991635 0
M  V30 18755 H 1781.25 -3.76617 -0.311188 0
M  V30 18756 H 1781.56 -7.72799 -0.0111287 0
M  V30 18757 H 1779.91 -6.94998 -0.0169584 0
M  V30 18758 H 1783.1 -4.67128 -0.301435 0
M  V30 18759 H 1783.27 -6.4779 -0.164834 0
M  V30 18760 N 1776.68 0.257904 -1.55475 0
M  V30 18761 C 1777.61 1.32303 -1.92401 0
M  V30 18762 C 1778.59 1.50767 -0.787617 0
M  V30 18763 O 1779.77 1.63559 -1.047 0
M  V30 18764 C 1776.9 2.67984 -2.20912 0
M  V30 18765 C 1775.86 2.64231 -3.36699 0
M  V30 18766 C 1775.18 4.03604 -3.50725 0
M  V30 18767 C 1776.48 2.22177 -4.72689 0
M  V30 18768 H 1778.18 1.01646 -2.81618 0
M  V30 18769 H 1775.72 0.487523 -1.35496 0
M  V30 18770 H 1777.68 3.42622 -2.45332 0
M  V30 18771 H 1776.4 3.00254 -1.2851 0
M  V30 18772 H 1775.06 1.92049 -3.1227 0
M  V30 18773 H 1774.71 4.33122 -2.55763 0
M  V30 18774 H 1774.41 4.01983 -4.28583 0
M  V30 18775 H 1775.93 4.79959 -3.77455 0
M  V30 18776 H 1777.34 2.86543 -4.96554 0
M  V30 18777 H 1775.74 2.3169 -5.5357 0
M  V30 18778 H 1776.81 1.17326 -4.70492 0
M  V30 18779 N 1778.15 1.48666 0.52309 0
M  V30 18780 C 1779.38 1.60707 1.30311 0
M  V30 18781 C 1779.8 0.269941 1.8686 0
M  V30 18782 O 1779.15 -0.741714 1.66748 0
M  V30 18783 C 1779.21 2.65899 2.44908 0
M  V30 18784 O 1778.93 3.94423 1.90688 0
M  V30 18785 C 1780.43 2.88443 3.36624 0
M  V30 18786 H 1777.65 0.541661 0.396035 0
M  V30 18787 H 1780.19 1.94544 0.630322 0
M  V30 18788 H 1778.35 2.34902 3.08058 0
M  V30 18789 H 1778.76 4.5219 2.65753 0
M  V30 18790 H 1780.23 3.65831 4.13366 0
M  V30 18791 H 1780.71 1.97524 3.92277 0
M  V30 18792 H 1781.32 3.20771 2.7926 0
M  V30 18793 N 1779.63 -0.772489 1.37369 0
M  V30 18794 C 1780.54 -1.91679 1.35263 0
M  V30 18795 C 1781.56 -1.72161 0.252321 0
M  V30 18796 O 1782.73 -1.95409 0.487581 0
M  V30 18797 C 1779.8 -3.26792 1.15792 0
M  V30 18798 C 1778.86 -3.5897 2.35455 0
M  V30 18799 C 1778.09 -4.87636 2.16903 0
M  V30 18800 O 1778.32 -5.58627 1.15291 0
M  V30 18801 O 1777.25 -5.18859 3.05072 0
M  V30 18802 H 1781.08 -1.96408 2.31641 0
M  V30 18803 H 1778.66 -0.915136 1.18092 0
M  V30 18804 H 1780.54 -4.07611 1.06918 0
M  V30 18805 H 1779.22 -3.22918 0.224872 0
M  V30 18806 H 1778.13 -2.78389 2.49901 0
M  V30 18807 H 1779.46 -3.67586 3.27325 0
M  V30 18808 N 1781.11 -1.21927 -0.998575 0
M  V30 18809 C 1782.34 -1.06735 -1.77827 0
M  V30 18810 C 1782.76 0.378154 -1.8426 0
M  V30 18811 O 1782.12 1.27301 -1.2909 0
M  V30 18812 C 1782.17 -1.67662 -3.19252 0
M  V30 18813 O 1781.27 -0.926448 -4.01859 0
M  V30 18814 H 1780.61 -0.375241 -0.547805 0
M  V30 18815 H 1783.14 -1.61605 -1.25478 0
M  V30 18816 H 1783.15 -1.72151 -3.69903 0
M  V30 18817 H 1781.83 -2.72854 -3.13885 0
M  V30 18818 H 1780.4 -0.957145 -3.60407 0
M  V30 18819 N 1782.59 1.19452 -1.02805 0
M  V30 18820 C 1783.52 2.24875 -0.628752 0
M  V30 18821 C 1784.5 1.66207 0.361844 0
M  V30 18822 O 1785.68 1.92652 0.244743 0
M  V30 18823 C 1782.81 3.47293 0.0220954 0
M  V30 18824 C 1781.77 4.1863 -0.890693 0
M  V30 18825 C 1781.09 5.34597 -0.104997 0
M  V30 18826 C 1782.39 4.73518 -2.20405 0
M  V30 18827 H 1784.09 2.5853 -1.51005 0
M  V30 18828 H 1781.63 1.24271 -0.727518 0
M  V30 18829 H 1783.59 4.20235 0.313073 0
M  V30 18830 H 1782.31 3.12835 0.938182 0
M  V30 18831 H 1780.97 3.47568 -1.16585 0
M  V30 18832 H 1780.62 4.96385 0.813098 0
M  V30 18833 H 1780.32 5.83258 -0.712983 0
M  V30 18834 H 1781.84 6.10337 0.179259 0
M  V30 18835 H 1783.26 5.3822 -1.97465 0
M  V30 18836 H 1781.65 5.32663 -2.76388 0
M  V30 18837 H 1782.72 3.9163 -2.85926 0
M  V30 18838 N 1784.07 0.805805 1.35442 0
M  V30 18839 C 1785.03 0.221278 2.28129 0
M  V30 18840 C 1786.03 -0.590919 1.49549 0
M  V30 18841 O 1787.22 -0.409518 1.69318 0
M  V30 18842 C 1784.35 -0.691643 3.3381 0
M  V30 18843 H 1785.54 1.03875 2.81336 0
M  V30 18844 H 1783.1 0.5764 1.45284 0
M  V30 18845 H 1783.83 -1.53283 2.85788 0
M  V30 18846 H 1783.62 -0.110972 3.91943 0
M  V30 18847 H 1785.11 -1.09497 4.02989 0
M  V30 18848 N 1785.54 -1.47344 0.559239 0
M  V30 18849 C 1786.48 -2.26985 -0.235197 0
M  V30 18850 C 1787.46 -1.34177 -0.918443 0
M  V30 18851 O 1788.64 -1.63561 -0.937027 0
M  V30 18852 C 1785.77 -3.11267 -1.33532 0
M  V30 18853 C 1784.81 -4.19667 -0.760412 0
M  V30 18854 S 1785.65 -5.34044 0.394576 0
M  V30 18855 C 1786.8 -6.21891 -0.707314 0
M  V30 18856 H 1787.03 -2.94017 0.440606 0
M  V30 18857 H 1784.57 -1.50482 0.345606 0
M  V30 18858 H 1786.53 -3.60395 -1.96534 0
M  V30 18859 H 1785.19 -2.43593 -1.98296 0
M  V30 18860 H 1784.38 -4.78375 -1.58661 0
M  V30 18861 H 1783.98 -3.73429 -0.206528 0
M  V30 18862 H 1786.27 -6.58362 -1.59891 0
M  V30 18863 H 1787.22 -7.07925 -0.157535 0
M  V30 18864 H 1787.62 -5.55556 -1.0009 0
M  V30 18865 N 1787.02 -0.295795 -1.54799 0
M  V30 18866 C 1787.99 0.569699 -2.22007 0
M  V30 18867 C 1788.99 1.06535 -1.20445 0
M  V30 18868 O 1790.18 0.962212 -1.45214 0
M  V30 18869 C 1787.31 1.78821 -2.90234 0
M  V30 18870 H 1788.5 -0.0174148 -2.99895 0
M  V30 18871 H 1786.05 -0.0465813 -1.56231 0
M  V30 18872 H 1786.79 2.4153 -2.16412 0
M  V30 18873 H 1786.57 1.44051 -3.6468 0
M  V30 18874 H 1788.06 2.40321 -3.41519 0
M  V30 18875 N 1788.5 1.57583 -0.0234236 0
M  V30 18876 C 1789.91 1.79422 0.516201 0
M  V30 18877 C 1790.26 0.933151 1.72588 0
M  V30 18878 O 1789.39 0.141985 2.15934 0
M  V30 18879 C 1789.98 3.25405 0.943248 0
M  V30 18880 C 1788.54 3.48259 1.42802 0
M  V30 18881 C 1787.69 2.74543 0.390074 0
M  V30 18882 H 1790.64 1.56727 -0.24949 0
M  V30 18883 H 1790.66 3.34803 1.80795 0
M  V30 18884 H 1790.17 3.88049 0.0626242 0
M  V30 18885 H 1788.27 2.9086 2.32877 0
M  V30 18886 H 1788.39 4.56968 1.43933 0
M  V30 18887 H 1786.75 2.39852 0.856919 0
M  V30 18888 H 1787.53 3.399 -0.481986 0
M  V30 18889 N 1789.98 -0.249655 1.5561 0
M  V30 18890 C 1790.94 -1.29242 1.89286 0
M  V30 18891 C 1791.94 -1.41214 0.769104 0
M  V30 18892 O 1793.13 -1.39962 1.03712 0
M  V30 18893 C 1790.26 -2.67053 2.11885 0
M  V30 18894 H 1791.46 -1.00601 2.82523 0
M  V30 18895 H 1789.01 -0.488819 1.4846 0
M  V30 18896 H 1789.75 -3.00838 1.21107 0
M  V30 18897 H 1789.53 -2.59745 2.93726 0
M  V30 18898 H 1791.02 -3.42353 2.39132 0
M  V30 18899 N 1791.46 -1.48941 -0.515198 0
M  V30 18900 C 1792.68 -1.61656 -1.29931 0
M  V30 18901 C 1793.11 -0.282529 -1.85966 0
M  V30 18902 O 1792.47 0.747914 -1.65154 0
M  V30 18903 C 1792.51 -2.6774 -2.41553 0
M  V30 18904 O 1791.62 -2.25926 -3.45009 0
M  V30 18905 H 1790.96 -0.541561 -0.384197 0
M  V30 18906 H 1793.49 -1.95032 -0.618349 0
M  V30 18907 H 1793.5 -2.89471 -2.87525 0
M  V30 18908 H 1792.17 -3.64582 -2.00131 0
M  V30 18909 H 1790.75 -2.14469 -3.05053 0
M  V30 18910 N 1792.94 0.765193 -1.37777 0
M  V30 18911 C 1793.9 1.8603 -1.33886 0
M  V30 18912 C 1794.9 1.58974 -0.241614 0
M  V30 18913 O 1796.09 1.66935 -0.497843 0
M  V30 18914 C 1793.22 3.2329 -1.08151 0
M  V30 18915 H 1794.41 1.9089 -2.31303 0
M  V30 18916 H 1791.97 0.965653 -1.22902 0
M  V30 18917 H 1792.7 3.24103 -0.112926 0
M  V30 18918 H 1792.49 3.4432 -1.8758 0
M  V30 18919 H 1793.98 4.03367 -1.08095 0
M  V30 18920 N 1794.41 1.22455 0.992094 0
M  V30 18921 C 1795.66 1.05115 1.73432 0
M  V30 18922 C 1795.99 -0.412642 1.89765 0
M  V30 18923 O 1795.27 -1.3059 1.44141 0
M  V30 18924 C 1795.55 1.76385 3.13943 0
M  V30 18925 C 1795.4 3.30364 3.05253 0
M  V30 18926 C 1796.72 1.51688 4.13133 0
M  V30 18927 H 1793.84 0.383261 0.629508 0
M  V30 18928 H 1796.48 1.50805 1.15576 0
M  V30 18929 H 1794.63 1.37544 3.63337 0
M  V30 18930 H 1796.31 3.78655 2.63474 0
M  V30 18931 H 1794.55 3.6 2.42038 0
M  V30 18932 H 1795.22 3.75409 4.04687 0
M  V30 18933 H 1797.7 1.85429 3.72499 0
M  V30 18934 H 1796.57 2.04049 5.09564 0
M  V30 18935 H 1796.83 0.449654 4.39807 0
M  V30 18936 N 1795.89 -1.18905 1.03437 0
M  V30 18937 C 1797.12 -1.93219 0.753743 0
M  V30 18938 C 1797.54 -1.75299 -0.682055 0
M  V30 18939 O 1796.9 -1.05892 -1.47161 0
M  V30 18940 C 1796.95 -3.42864 1.117 0
M  V30 18941 O 1796.05 -4.11708 0.238816 0
M  V30 18942 H 1795.39 -0.603015 0.277973 0
M  V30 18943 H 1797.92 -1.50823 1.38252 0
M  V30 18944 H 1797.93 -3.9355 1.07623 0
M  V30 18945 H 1796.61 -3.55228 2.163 0
M  V30 18946 H 1795.18 -3.71359 0.338652 0
M  V30 18947 N 1797.37 -0.812977 -1.35013 0
M  V30 18948 C 1798.62 -0.395562 -1.98191 0
M  V30 18949 C 1798.94 1.04242 -1.64799 0
M  V30 18950 O 1798.21 1.72219 -0.933678 0
M  V30 18951 H 1796.79 -0.143276 -0.733131 0
M  V30 18952 H 1799.45 -1.04023 -1.64819 0
M  V30 18953 H 1798.55 -0.506466 -3.07963 0
M  V30 18954 N 1798.85 1.47045 -0.567045 0
M  V30 18955 C 1799.78 2.32929 0.163191 0
M  V30 18956 C 1800.76 1.44393 0.899142 0
M  V30 18957 O 1801.94 1.73235 0.87768 0
M  V30 18958 C 1799.07 3.26369 1.18745 0
M  V30 18959 C 1798.03 4.24223 0.567335 0
M  V30 18960 C 1797.35 5.07058 1.69693 0
M  V30 18961 C 1798.65 5.2004 -0.485319 0
M  V30 18962 H 1800.35 2.94233 -0.553837 0
M  V30 18963 H 1797.89 1.41488 -0.267789 0
M  V30 18964 H 1799.85 3.85299 1.70654 0
M  V30 18965 H 1798.57 2.6314 1.93455 0
M  V30 18966 H 1797.23 3.66534 0.0694525 0
M  V30 18967 H 1796.88 4.40226 2.43331 0
M  V30 18968 H 1796.58 5.73316 1.28774 0
M  V30 18969 H 1798.1 5.68848 2.2191 0
M  V30 18970 H 1799.52 5.73277 -0.0519049 0
M  V30 18971 H 1797.91 5.94554 -0.813942 0
M  V30 18972 H 1798.98 4.64921 -1.37754 0
M  V30 18973 N 1800.33 0.304 1.5464 0
M  V30 18974 C 1801.56 -0.306471 2.04314 0
M  V30 18975 C 1801.96 -1.47839 1.18069 0
M  V30 18976 O 1801.31 -1.82612 0.199666 0
M  V30 18977 C 1801.37 -0.822694 3.4996 0
M  V30 18978 C 1801.03 0.224343 4.56449 0
M  V30 18979 C 1802.03 1.05382 5.09108 0
M  V30 18980 C 1799.71 0.366905 5.00958 0
M  V30 18981 C 1801.71 2.01176 6.0482 0
M  V30 18982 C 1799.4 1.32829 5.96489 0
M  V30 18983 C 1800.39 2.1492 6.48304 0
M  V30 18984 O 1800.08 3.09429 7.41963 0
M  V30 18985 H 1799.81 -0.0701033 0.672355 0
M  V30 18986 H 1802.37 0.442449 2.00578 0
M  V30 18987 H 1800.6 -1.62219 3.5103 0
M  V30 18988 H 1802.29 -1.34938 3.82814 0
M  V30 18989 H 1803.05 0.954561 4.75514 0
M  V30 18990 H 1798.93 -0.262121 4.60254 0
M  V30 18991 H 1802.48 2.65291 6.45187 0
M  V30 18992 H 1798.37 1.42826 6.29501 0
M  V30 18993 H 1799.14 3.04442 7.59774 0
M  V30 18994 N 1801.8 -1.57568 0.0317802 0
M  V30 18995 C 1803.05 -1.9191 -0.646281 0
M  V30 18996 C 1803.38 -0.908432 -1.71982 0
M  V30 18997 O 1802.63 0.0822426 -1.95527 0
M  V30 18998 C 1802.93 -3.32976 -1.29852 0
M  V30 18999 C 1802.6 -4.495 -0.355092 0
M  V30 19000 C 1801.26 -4.81105 -0.0954326 0
M  V30 19001 C 1803.61 -5.20378 0.292586 0
M  V30 19002 C 1800.94 -5.80946 0.819667 0
M  V30 19003 C 1803.29 -6.21196 1.19576 0
M  V30 19004 C 1801.96 -6.51241 1.46428 0
M  V30 19005 H 1801.23 -0.702249 -0.236491 0
M  V30 19006 H 1803.87 -1.91269 0.0941159 0
M  V30 19007 H 1802.18 -3.29892 -2.11373 0
M  V30 19008 H 1803.88 -3.5682 -1.82977 0
M  V30 19009 H 1800.47 -4.24824 -0.567652 0
M  V30 19010 H 1804.65 -4.96189 0.105041 0
M  V30 19011 H 1799.91 -6.02569 1.03538 0
M  V30 19012 H 1804.08 -6.75236 1.7038 0
M  V30 19013 H 1801.71 -7.28421 2.17502 0
M  V30 19014 N 1803.28 0.241399 -1.5574 0
M  V30 19015 C 1804.51 0.99028 -1.82231 0
M  V30 19016 C 1804.93 1.77949 -0.609559 0
M  V30 19017 O 1804.29 1.75843 0.44148 0
M  V30 19018 C 1804.34 1.89947 -3.06516 0
M  V30 19019 O 1803.44 2.99201 -2.83818 0
M  V30 19020 H 1802.78 0.281488 -0.601382 0
M  V30 19021 H 1805.31 0.260721 -2.02932 0
M  V30 19022 H 1805.32 2.31308 -3.36096 0
M  V30 19023 H 1804 1.31924 -3.94422 0
M  V30 19024 H 1802.58 2.61929 -2.6542 0
M  V30 19025 N 1804.76 1.49212 0.507292 0
M  V30 19026 C 1805.71 1.65894 1.6304 0
M  V30 19027 C 1806.7 0.524951 1.61061 0
M  V30 19028 O 1807.91 0.704392 1.65645 0
M  V30 19029 H 1804.28 0.522994 0.540353 0
M  V30 19030 H 1806.25 2.60176 1.4612 0
M  V30 19031 C 1805 1.73692 3.01208 0
M  V30 19032 H 1804.33 2.60323 3.03434 0
M  V30 19033 H 1805.77 1.89402 3.79346 0
M  V30 19034 C 1804.23 0.480378 3.33458 0
M  V30 19035 O 1804.76 -0.396732 3.99736 0
M  V30 19036 N 1802.96 0.345216 2.88542 0
M  V30 19037 H 1802.51 1.05997 2.34782 0
M  V30 19038 H 1802.47 -0.494453 3.10488 0
M  V30 19039 N 1806.24 -0.757876 1.38181 0
M  V30 19040 C 1807.17 -1.88519 1.37779 0
M  V30 19041 C 1808.15 -1.68336 0.24432 0
M  V30 19042 O 1809.33 -1.88991 0.446762 0
M  V30 19043 C 1806.46 -3.2599 1.19784 0
M  V30 19044 C 1805.42 -3.60764 2.30289 0
M  V30 19045 C 1804.74 -4.96927 1.97403 0
M  V30 19046 C 1806.04 -3.66082 3.72533 0
M  V30 19047 H 1807.74 -1.89112 2.32114 0
M  V30 19048 H 1805.28 -0.908442 1.11729 0
M  V30 19049 H 1807.24 -4.04504 1.18129 0
M  V30 19050 H 1805.96 -3.25864 0.219088 0
M  V30 19051 H 1804.62 -2.84566 2.31123 0
M  V30 19052 H 1804.27 -4.93356 0.98023 0
M  V30 19053 H 1803.97 -5.21162 2.7141 0
M  V30 19054 H 1805.49 -5.77825 1.97359 0
M  V30 19055 H 1806.91 -4.3472 3.73754 0
M  V30 19056 H 1805.3 -4.01824 4.4571 0
M  V30 19057 H 1806.37 -2.66412 4.05158 0
M  V30 19058 N 1807.72 -1.22979 -0.985586 0
M  V30 19059 C 1808.66 -1.00637 -2.07704 0
M  V30 19060 C 1809.63 0.0744076 -1.65933 0
M  V30 19061 O 1810.82 -0.0766583 -1.90646 0
M  V30 19062 C 1807.96 -0.598088 -3.39878 0
M  V30 19063 C 1807.07 -1.75043 -3.94948 0
M  V30 19064 C 1806.21 -1.28943 -5.15313 0
M  V30 19065 C 1805.25 -2.41285 -5.62537 0
M  V30 19066 N 1804.38 -1.9618 -6.74135 0
M  V30 19067 H 1809.22 -1.94063 -2.26149 0
M  V30 19068 H 1806.76 -0.966841 -1.10863 0
M  V30 19069 H 1808.72 -0.342503 -4.15792 0
M  V30 19070 H 1807.35 0.299167 -3.21411 0
M  V30 19071 H 1806.4 -2.12015 -3.15838 0
M  V30 19072 H 1807.71 -2.5952 -4.25971 0
M  V30 19073 H 1806.87 -0.99166 -5.98541 0
M  V30 19074 H 1805.6 -0.41496 -4.85931 0
M  V30 19075 H 1804.61 -2.71842 -4.77893 0
M  V30 19076 H 1805.83 -3.2926 -5.9394 0
M  V30 19077 H 1803.78 -1.11105 -6.46523 0
M  V30 19078 H 1803.7 -2.74219 -7.04514 0
M  V30 19079 H 1804.97 -1.69492 -7.6085 0
M  V30 19080 N 1809.19 1.18355 -1.04066 0
M  V30 19081 C 1810.42 1.92816 -0.763979 0
M  V30 19082 C 1810.84 1.75658 0.672749 0
M  V30 19083 O 1810.2 1.06671 1.46598 0
M  V30 19084 C 1810.25 3.42267 -1.13516 0
M  V30 19085 O 1809.35 4.11576 -0.260646 0
M  V30 19086 H 1808.7 0.601532 -0.281167 0
M  V30 19087 H 1811.23 1.50087 -1.3905 0
M  V30 19088 H 1811.24 3.92973 -1.09709 0
M  V30 19089 H 1809.91 3.54076 -2.18181 0
M  V30 19090 H 1808.49 3.71174 -0.358342 0
M  V30 19091 N 1810.67 0.820125 1.3458 0
M  V30 19092 C 1811.62 0.237994 2.2957 0
M  V30 19093 C 1812.59 -0.635637 1.53456 0
M  V30 19094 O 1813.77 -0.57787 1.81839 0
M  V30 19095 C 1810.91 -0.596426 3.39907 0
M  V30 19096 C 1810.03 0.29914 4.30963 0
M  V30 19097 C 1809.16 -0.54458 5.28401 0
M  V30 19098 C 1808.2 0.350546 6.11095 0
M  V30 19099 N 1807.34 -0.453936 7.00631 0
M  V30 19100 H 1812.18 1.0534 2.7876 0
M  V30 19101 H 1809.72 0.530977 1.37183 0
M  V30 19102 H 1811.67 -1.0955 4.0256 0
M  V30 19103 H 1810.3 -1.37697 2.91958 0
M  V30 19104 H 1809.36 0.916412 3.69196 0
M  V30 19105 H 1810.67 0.987544 4.88926 0
M  V30 19106 H 1809.82 -1.10825 5.96492 0
M  V30 19107 H 1808.56 -1.2665 4.70968 0
M  V30 19108 H 1807.57 0.926375 5.41939 0
M  V30 19109 H 1808.79 1.07054 6.70609 0
M  V30 19110 H 1806.74 -1.15958 6.4567 0
M  V30 19111 H 1806.65 0.176138 7.55795 0
M  V30 19112 H 1807.92 -1.00044 7.73053 0
M  V30 19113 N 1812.15 -1.46743 0.574835 0
M  V30 19114 C 1813.38 -2.06505 0.0627081 0
M  V30 19115 C 1813.79 -1.42535 -1.2442 0
M  V30 19116 O 1813.13 -0.522043 -1.76126 0
M  V30 19117 C 1813.19 -3.59021 -0.185574 0
M  V30 19118 C 1812.86 -4.45136 1.03455 0
M  V30 19119 C 1813.85 -4.82163 1.94461 0
M  V30 19120 C 1811.54 -4.8639 1.25418 0
M  V30 19121 C 1813.53 -5.59262 3.05786 0
M  V30 19122 C 1811.22 -5.63251 2.37049 0
M  V30 19123 C 1812.22 -5.99599 3.27062 0
M  V30 19124 O 1811.91 -6.74908 4.36755 0
M  V30 19125 H 1811.64 -0.674082 0.0508932 0
M  V30 19126 H 1814.19 -1.89476 0.792968 0
M  V30 19127 H 1812.42 -3.74327 -0.970354 0
M  V30 19128 H 1814.11 -4.00739 -0.645242 0
M  V30 19129 H 1814.88 -4.50876 1.78705 0
M  V30 19130 H 1810.76 -4.57553 0.56266 0
M  V30 19131 H 1814.3 -5.87552 3.7607 0
M  V30 19132 H 1810.2 -5.93951 2.5277 0
M  V30 19133 H 1810.97 -6.93323 4.35024 0
M  V30 19134 N 1813.63 -0.312197 -1.54477 0
M  V30 19135 C 1814.88 0.293772 -2.00358 0
M  V30 19136 C 1815.2 1.5303 -1.2005 0
M  V30 19137 O 1814.46 1.93861 -0.267678 0
M  V30 19138 C 1814.76 0.684057 -3.50793 0
M  V30 19139 C 1814.42 -0.452004 -4.48629 0
M  V30 19140 C 1813.09 -0.763853 -4.75099 0
M  V30 19141 C 1815.44 -1.21567 -5.06824 0
M  V30 19142 C 1812.77 -1.84229 -5.57025 0
M  V30 19143 C 1815.12 -2.28412 -5.89924 0
M  V30 19144 C 1813.78 -2.60191 -6.14701 0
M  V30 19145 H 1813.05 0.107499 -0.733161 0
M  V30 19146 H 1815.7 -0.433618 -1.86526 0
M  V30 19147 H 1814 1.4917 -3.62292 0
M  V30 19148 H 1815.7 1.16428 -3.83726 0
M  V30 19149 H 1812.29 -0.198857 -4.28138 0
M  V30 19150 H 1816.47 -0.988007 -4.86366 0
M  V30 19151 H 1811.73 -2.09311 -5.74455 0
M  V30 19152 H 1815.9 -2.88037 -6.34041 0
M  V30 19153 H 1813.53 -3.43887 -6.77972 0
M  V30 19154 N 1815.11 1.57549 -0.040136 0
M  V30 19155 C 1816.07 2.09788 0.923126 0
M  V30 19156 C 1817.07 1.01518 1.24703 0
M  V30 19157 O 1818.26 1.27635 1.18554 0
M  V30 19158 C 1815.39 2.57293 2.23636 0
M  V30 19159 H 1816.58 2.96187 0.470482 0
M  V30 19160 H 1814.14 1.54909 0.208088 0
M  V30 19161 H 1814.87 1.74256 2.73506 0
M  V30 19162 H 1814.66 3.36402 2.01435 0
M  V30 19163 H 1816.15 2.97895 2.92658 0
M  V30 19164 N 1816.58 -0.233136 1.55866 0
M  V30 19165 C 1817.83 -0.96064 1.78604 0
M  V30 19166 C 1818.16 -1.84444 0.607795 0
M  V30 19167 O 1817.44 -1.9048 -0.39342 0
M  V30 19168 C 1817.72 -1.80946 3.11337 0
M  V30 19169 C 1817.57 -0.952929 4.3959 0
M  V30 19170 C 1818.89 -2.78941 3.40411 0
M  V30 19171 H 1816.01 -0.347809 0.649767 0
M  V30 19172 H 1818.65 -0.230233 1.886 0
M  V30 19173 H 1816.8 -2.43219 3.02946 0
M  V30 19174 H 1818.48 -0.347831 4.59987 0
M  V30 19175 H 1816.72 -0.257846 4.33033 0
M  V30 19176 H 1817.39 -1.58096 5.28876 0
M  V30 19177 H 1819.87 -2.26804 3.48854 0
M  V30 19178 H 1818.74 -3.35443 4.34475 0
M  V30 19179 H 1819 -3.561 2.62003 0
M  V30 19180 N 1818.06 -1.49479 -0.499372 0
M  V30 19181 C 1819.31 -1.58734 -1.25092 0
M  V30 19182 C 1819.63 -0.276701 -1.93027 0
M  V30 19183 O 1818.9 0.704058 -1.82811 0
M  V30 19184 H 1817.48 -0.584857 -0.464706 0
M  V30 19185 H 1820.14 -1.86113 -0.578608 0
M  V30 19186 H 1819.24 -2.38422 -2.01399 0
M  V30 19187 N 1819.54 0.750537 -1.38581 0
M  V30 19188 C 1820.49 1.86434 -1.36056 0
M  V30 19189 C 1821.46 1.64601 -0.222625 0
M  V30 19190 O 1822.64 1.86225 -0.41533 0
M  V30 19191 C 1819.78 3.23769 -1.19447 0
M  V30 19192 C 1818.9 3.57412 -2.42653 0
M  V30 19193 C 1818.03 4.84067 -2.18751 0
M  V30 19194 C 1817.07 5.10506 -3.37713 0
M  V30 19195 N 1816.21 6.28358 -3.13227 0
M  V30 19196 H 1821.05 1.87927 -2.31274 0
M  V30 19197 H 1818.58 0.91849 -1.14901 0
M  V30 19198 H 1820.54 4.03024 -1.07832 0
M  V30 19199 H 1819.17 3.21595 -0.278665 0
M  V30 19200 H 1818.22 2.72978 -2.64929 0
M  V30 19201 H 1819.54 3.72876 -3.31307 0
M  V30 19202 H 1818.69 5.71271 -2.0429 0
M  V30 19203 H 1817.43 4.70748 -1.27467 0
M  V30 19204 H 1816.43 4.2177 -3.5269 0
M  V30 19205 H 1817.66 5.25721 -4.29877 0
M  V30 19206 H 1815.61 6.16355 -2.24593 0
M  V30 19207 H 1815.52 6.44337 -3.95432 0
M  V30 19208 H 1816.79 7.18441 -3.02428 0
M  V30 19209 N 1821.02 1.235 0.979051 0
M  V30 19210 C 1822.27 1.06197 1.71479 0
M  V30 19211 C 1822.58 -0.401066 1.91444 0
M  V30 19212 O 1823.79 -0.69406 2.62479 0
M  V30 19213 C 1822.24 1.85189 3.08598 0
M  V30 19214 C 1821.85 3.35831 2.96516 0
M  V30 19215 C 1823.6 1.76379 3.86122 0
M  V30 19216 C 1821.5 4.0721 4.28875 0
M  V30 19217 H 1820.43 0.393779 0.643004 0
M  V30 19218 H 1823.08 1.47479 1.09188 0
M  V30 19219 H 1821.47 1.36714 3.71652 0
M  V30 19220 H 1822.64 3.91803 2.42543 0
M  V30 19221 H 1820.95 3.45469 2.32466 0
M  V30 19222 H 1823.55 2.2702 4.84114 0
M  V30 19223 H 1823.89 0.726826 4.09906 0
M  V30 19224 H 1824.43 2.22473 3.29773 0
M  V30 19225 H 1821.17 5.11218 4.10288 0
M  V30 19226 H 1820.69 3.56025 4.82707 0
M  V30 19227 H 1822.37 4.13579 4.97555 0
M  V30 19228 N 1822.5 -1.17802 1.04693 0
M  V30 19229 C 1823.72 -1.92408 0.774194 0
M  V30 19230 C 1824.15 -1.76012 -0.663424 0
M  V30 19231 O 1823.51 -1.07447 -1.4603 0
M  V30 19232 C 1823.55 -3.4166 1.1533 0
M  V30 19233 O 1822.66 -4.11431 0.282469 0
M  V30 19234 H 1822 -0.600033 0.284353 0
M  V30 19235 H 1824.53 -1.49348 1.39844 0
M  V30 19236 H 1824.54 -3.92386 1.11791 0
M  V30 19237 H 1823.21 -3.52914 2.20056 0
M  V30 19238 H 1821.79 -3.70979 0.378021 0
M  V30 19239 N 1823.98 -0.827251 -1.34143 0
M  V30 19240 C 1824.92 -0.250166 -2.2944 0
M  V30 19241 C 1825.89 0.62749 -1.53791 0
M  V30 19242 O 1827.08 0.568218 -1.82143 0
M  V30 19243 C 1824.22 0.578392 -3.40219 0
M  V30 19244 C 1823.33 -0.321991 -4.30798 0
M  V30 19245 C 1822.47 0.51655 -5.28683 0
M  V30 19246 C 1821.5 -0.382949 -6.10901 0
M  V30 19247 N 1820.64 0.416774 -7.00862 0
M  V30 19248 H 1825.48 -1.06817 -2.78198 0
M  V30 19249 H 1823.02 -0.538245 -1.36899 0
M  V30 19250 H 1824.98 1.07414 -4.03135 0
M  V30 19251 H 1823.61 1.36147 -2.92684 0
M  V30 19252 H 1822.66 -0.935979 -3.68705 0
M  V30 19253 H 1823.97 -1.01346 -4.88396 0
M  V30 19254 H 1823.12 1.0766 -5.97071 0
M  V30 19255 H 1821.86 1.2415 -4.71633 0
M  V30 19256 H 1820.87 -0.955103 -5.41441 0
M  V30 19257 H 1822.09 -1.10609 -6.70032 0
M  V30 19258 H 1820.04 1.12532 -6.46276 0
M  V30 19259 H 1819.96 -0.216217 -7.55691 0
M  V30 19260 H 1821.22 0.959432 -7.73573 0
M  V30 19261 N 1825.45 1.46436 -0.582609 0
M  V30 19262 C 1826.73 1.956 -0.00129167 0
M  V30 19263 C 1827.11 1.52526 1.45942 0
M  V30 19264 O 1826.46 0.775911 2.14923 0
M  V30 19265 C 1826.67 3.4857 -0.173243 0
M  V30 19266 C 1828.02 4.2458 -0.0410173 0
M  V30 19267 O 1829.04 3.56054 -0.102074 0
M  V30 19268 O 1827.9 5.46418 0.0947564 0
M  V30 19269 H 1824.99 0.825495 0.0498706 0
M  V30 19270 H 1827.54 1.5672 -0.650921 0
M  V30 19271 H 1826.31 3.72808 -1.1887 0
M  V30 19272 H 1825.93 3.94279 0.512822 0
M  V30 19273 N 1826.93 0.320385 1.54309 0
M  V30 19274 C 1827.86 -0.580992 2.21714 0
M  V30 19275 C 1828.88 -1.08236 1.21609 0
M  V30 19276 O 1830.07 -0.996489 1.48096 0
M  V30 19277 C 1827.17 -1.80961 2.86542 0
M  V30 19278 C 1826.34 -1.44746 4.12756 0
M  V30 19279 C 1825.4 -2.53327 4.61207 0
M  V30 19280 O 1824.42 -2.17605 5.25963 0
M  V30 19281 N 1825.63 -3.84204 4.35164 0
M  V30 19282 H 1828.39 -0.00384608 2.997 0
M  V30 19283 H 1825.95 0.143444 1.61263 0
M  V30 19284 H 1827.94 -2.52985 3.1588 0
M  V30 19285 H 1826.51 -2.29468 2.12281 0
M  V30 19286 H 1825.73 -0.55899 3.90217 0
M  V30 19287 H 1827.02 -1.18116 4.949 0
M  V30 19288 H 1826.42 -4.16026 3.83326 0
M  V30 19289 H 1824.98 -4.52468 4.69165 0
M  V30 19290 N 1828.41 -1.57525 0.0484906 0
M  V30 19291 C 1829.66 -1.9287 -0.626817 0
M  V30 19292 C 1829.99 -0.926899 -1.70652 0
M  V30 19293 O 1829.26 0.0475129 -1.94442 0
M  V30 19294 C 1829.55 -3.38609 -1.22539 0
M  V30 19295 C 1829.4 -4.49537 -0.153923 0
M  V30 19296 C 1830.72 -3.84689 -2.13781 0
M  V30 19297 H 1827.84 -0.701367 -0.226391 0
M  V30 19298 H 1830.48 -1.89683 0.109708 0
M  V30 19299 H 1828.63 -3.41456 -1.85311 0
M  V30 19300 H 1830.3 -4.58818 0.477846 0
M  V30 19301 H 1828.54 -4.30692 0.518334 0
M  V30 19302 H 1829.22 -5.48589 -0.612708 0
M  V30 19303 H 1831.69 -3.83701 -1.60974 0
M  V30 19304 H 1830.57 -4.8732 -2.52607 0
M  V30 19305 H 1830.83 -3.21293 -3.03682 0
M  V30 19306 N 1829.89 0.224867 -1.55988 0
M  V30 19307 C 1830.8 1.2997 -1.95307 0
M  V30 19308 C 1831.81 1.51463 -0.856444 0
M  V30 19309 O 1832.99 1.64658 -1.15973 0
M  V30 19310 C 1830.05 2.63009 -2.25892 0
M  V30 19311 C 1829.12 2.49847 -3.49106 0
M  V30 19312 C 1828.35 3.76541 -3.78223 0
M  V30 19313 O 1828.57 4.7941 -3.09066 0
M  V30 19314 O 1827.51 3.73852 -4.71718 0
M  V30 19315 H 1831.33 0.996093 -2.869 0
M  V30 19316 H 1828.92 0.427457 -1.43154 0
M  V30 19317 H 1830.8 3.41586 -2.46774 0
M  V30 19318 H 1829.47 2.93057 -1.37474 0
M  V30 19319 H 1828.38 1.69482 -3.33507 0
M  V30 19320 H 1829.71 2.24739 -4.37896 0
M  V30 19321 N 1831.37 1.49742 0.491438 0
M  V30 19322 C 1832.64 1.50217 1.25277 0
M  V30 19323 C 1833.02 0.235271 2.09785 0
M  V30 19324 O 1832.37 -0.782057 2.147 0
M  V30 19325 C 1832.58 2.78652 2.10129 0
M  V30 19326 C 1833.93 3.28519 2.68999 0
M  V30 19327 O 1834.95 2.79834 2.20389 0
M  V30 19328 O 1833.81 4.13333 3.57516 0
M  V30 19329 H 1830.91 0.601649 0.567405 0
M  V30 19330 H 1833.45 1.62014 0.504924 0
M  V30 19331 H 1832.22 3.62345 1.47723 0
M  V30 19332 H 1831.85 2.69761 2.92087 0
M  V30 19333 N 1832.84 -0.743177 1.38977 0
M  V30 19334 C 1834.07 -1.53021 1.3881 0
M  V30 19335 C 1834.48 -1.89188 -0.0213066 0
M  V30 19336 O 1833.83 -1.54033 -1.00097 0
M  V30 19337 C 1833.89 -2.85158 2.18918 0
M  V30 19338 C 1833.55 -2.71471 3.67631 0
M  V30 19339 C 1834.55 -2.40567 4.60894 0
M  V30 19340 C 1832.23 -2.88598 4.11116 0
M  V30 19341 C 1834.23 -2.26959 5.95625 0
M  V30 19342 C 1831.91 -2.74609 5.45924 0
M  V30 19343 C 1832.91 -2.43833 6.37992 0
M  V30 19344 O 1832.6 -2.29922 7.70319 0
M  V30 19345 H 1832.33 -0.47975 0.476252 0
M  V30 19346 H 1834.89 -0.92667 1.83308 0
M  V30 19347 H 1833.12 -3.47741 1.69154 0
M  V30 19348 H 1834.81 -3.4673 2.11029 0
M  V30 19349 H 1835.57 -2.26994 4.28601 0
M  V30 19350 H 1831.45 -3.11547 3.39794 0
M  V30 19351 H 1834.99 -2.02859 6.67453 0
M  V30 19352 H 1830.89 -2.87758 5.77811 0
M  V30 19353 H 1831.66 -2.45054 7.80955 0
M  V30 19354 N 1834.32 -1.24018 -0.972487 0
M  V30 19355 C 1835.29 -1.02941 -2.04782 0
M  V30 19356 C 1836.29 0.0115861 -1.60796 0
M  V30 19357 O 1837.48 -0.228922 -1.72689 0
M  V30 19358 C 1834.61 -0.559246 -3.36282 0
M  V30 19359 H 1835.8 -1.98379 -2.24913 0
M  V30 19360 H 1833.35 -1.06173 -1.14704 0
M  V30 19361 H 1834.09 0.398545 -3.21842 0
M  V30 19362 H 1833.87 -1.31054 -3.6955 0
M  V30 19363 H 1835.36 -0.432669 -4.15353 0
M  V30 19364 N 1835.8 1.17245 -1.05316 0
M  V30 19365 C 1836.73 2.23491 -0.67631 0
M  V30 19366 C 1837.71 1.66937 0.326507 0
M  V30 19367 O 1838.9 1.93127 0.203823 0
M  V30 19368 C 1836.03 3.47262 -0.0515755 0
M  V30 19369 C 1834.98 4.16646 -0.97929 0
M  V30 19370 C 1834.31 5.34254 -0.218369 0
M  V30 19371 C 1835.61 4.68736 -2.30399 0
M  V30 19372 H 1837.3 2.55269 -1.56455 0
M  V30 19373 H 1834.85 1.22699 -0.753714 0
M  V30 19374 H 1836.8 4.20805 0.223865 0
M  V30 19375 H 1835.52 3.14755 0.871614 0
M  V30 19376 H 1834.18 3.45017 -1.23931 0
M  V30 19377 H 1833.83 4.97998 0.707624 0
M  V30 19378 H 1833.53 5.81615 -0.83654 0
M  V30 19379 H 1835.05 6.1058 0.0497574 0
M  V30 19380 H 1836.47 5.3391 -2.08837 0
M  V30 19381 H 1834.87 5.2668 -2.87625 0
M  V30 19382 H 1835.94 3.85477 -2.94169 0
M  V30 19383 N 1837.28 0.834353 1.33702 0
M  V30 19384 C 1838.69 0.52156 1.50837 0
M  V30 19385 C 1838.89 -0.95203 1.77591 0
M  V30 19386 O 1837.95 -1.73603 1.83353 0
M  V30 19387 C 1839.26 1.39099 2.66593 0
M  V30 19388 C 1840.81 1.3893 2.80477 0
M  V30 19389 C 1841.29 2.24347 3.9929 0
M  V30 19390 N 1842.78 2.22032 4.06517 0
M  V30 19391 C 1843.51 2.84865 4.97634 0
M  V30 19392 N 1843.01 3.56732 5.93897 0
M  V30 19393 N 1844.8 2.74359 4.90595 0
M  V30 19394 H 1836.95 1.78832 1.14598 0
M  V30 19395 H 1839.22 0.762708 0.563011 0
M  V30 19396 H 1838.92 2.43795 2.53489 0
M  V30 19397 H 1838.8 1.06381 3.61888 0
M  V30 19398 H 1841.18 0.350069 2.93016 0
M  V30 19399 H 1841.26 1.75652 1.85957 0
M  V30 19400 H 1840.91 3.28326 3.8751 0
M  V30 19401 H 1840.84 1.84969 4.93046 0
M  V30 19402 H 1843.33 1.69765 3.37621 0
M  V30 19403 H 1843.64 4.01893 6.60077 0
M  V30 19404 H 1841.99 3.6084 5.93986 0
M  V30 19405 H 1845.18 2.17779 4.14355 0
M  V30 19406 H 1845.35 3.23612 5.61408 0
M  V30 19407 N 1838.76 -1.46125 0.590367 0
M  V30 19408 C 1839.7 -2.30384 -0.138481 0
M  V30 19409 C 1840.67 -1.41078 -0.876715 0
M  V30 19410 O 1841.86 -1.70022 -0.86587 0
M  V30 19411 C 1839 -3.25684 -1.14122 0
M  V30 19412 C 1838.11 -4.30091 -0.405639 0
M  V30 19413 C 1837.25 -5.12513 -1.39657 0
M  V30 19414 C 1836.29 -6.08662 -0.647833 0
M  V30 19415 N 1835.42 -6.83924 -1.5872 0
M  V30 19416 H 1840.26 -2.9218 0.586086 0
M  V30 19417 H 1837.8 -1.43991 0.300835 0
M  V30 19418 H 1839.76 -3.79388 -1.73553 0
M  V30 19419 H 1838.39 -2.6568 -1.8334 0
M  V30 19420 H 1837.44 -3.79184 0.303858 0
M  V30 19421 H 1838.75 -4.98477 0.179348 0
M  V30 19422 H 1837.91 -5.70531 -2.06346 0
M  V30 19423 H 1836.64 -4.44105 -2.01549 0
M  V30 19424 H 1835.65 -5.4979 0.0327878 0
M  V30 19425 H 1836.87 -6.79091 -0.0342018 0
M  V30 19426 H 1834.82 -6.1822 -2.19408 0
M  V30 19427 H 1834.74 -7.48599 -1.05522 0
M  V30 19428 H 1836.01 -7.46496 -2.2442 0
M  V30 19429 N 1840.23 -0.328564 -1.54137 0
M  V30 19430 C 1841.18 0.550592 -2.25989 0
M  V30 19431 C 1842.18 1.11442 -1.27581 0
M  V30 19432 O 1843.38 1.06189 -1.45341 0
M  V30 19433 H 1839.76 0.196215 -0.72595 0
M  V30 19434 H 1841.73 -0.0776348 -2.98299 0
M  V30 19435 C 1840.48 1.69733 -3.03457 0
M  V30 19436 H 1839.8 1.27273 -3.79001 0
M  V30 19437 H 1841.24 2.28797 -3.56971 0
M  V30 19438 C 1839.7 2.61791 -2.12054 0
M  V30 19439 O 1840.23 3.63641 -1.7067 0
M  V30 19440 N 1838.44 2.30138 -1.7744 0
M  V30 19441 H 1837.98 1.47355 -2.11292 0
M  V30 19442 H 1837.94 2.91994 -1.16564 0
M  V30 19443 N 1841.71 1.57497 -0.0568439 0
M  V30 19444 C 1842.96 1.9209 0.615157 0
M  V30 19445 C 1843.27 0.937538 1.71667 0
M  V30 19446 O 1844.48 1.17573 2.44722 0
M  V30 19447 C 1842.94 3.41183 1.14552 0
M  V30 19448 C 1842.54 4.47936 0.0758146 0
M  V30 19449 C 1844.29 3.84801 1.79244 0
M  V30 19450 C 1842.2 5.88148 0.619381 0
M  V30 19451 H 1841.13 0.716918 0.233547 0
M  V30 19452 H 1843.78 1.83062 -0.126654 0
M  V30 19453 H 1842.16 3.45234 1.93983 0
M  V30 19454 H 1843.33 4.55482 -0.69807 0
M  V30 19455 H 1841.65 4.13694 -0.473984 0
M  V30 19456 H 1844.24 4.86929 2.20918 0
M  V30 19457 H 1844.59 3.21355 2.64645 0
M  V30 19458 H 1845.12 3.8329 1.0646 0
M  V30 19459 H 1841.86 6.55204 -0.19712 0
M  V30 19460 H 1841.38 5.84152 1.36112 0
M  V30 19461 H 1843.06 6.37572 1.1005 0
M  V30 19462 N 1843.19 -0.216591 1.56105 0
M  V30 19463 C 1844.42 -0.961164 1.83784 0
M  V30 19464 C 1844.84 -1.76957 0.637792 0
M  V30 19465 O 1844.2 -1.76523 -0.413449 0
M  V30 19466 C 1844.25 -1.85047 3.095 0
M  V30 19467 O 1843.35 -2.94648 2.88542 0
M  V30 19468 H 1842.69 -0.271885 0.605784 0
M  V30 19469 H 1845.22 -0.228404 2.03321 0
M  V30 19470 H 1845.23 -2.25932 3.39733 0
M  V30 19471 H 1843.91 -1.25633 3.96471 0
M  V30 19472 H 1842.48 -2.57673 2.69554 0
M  V30 19473 N 1844.67 -1.5 -0.48349 0
M  V30 19474 C 1845.91 -1.60606 -1.23829 0
M  V30 19475 C 1846.25 -0.299778 -1.91872 0
M  V30 19476 O 1845.52 0.697925 -1.81547 0
M  V30 19477 C 1845.81 -2.77769 -2.29165 0
M  V30 19478 C 1845.66 -4.18243 -1.65507 0
M  V30 19479 C 1846.98 -2.90521 -3.30584 0
M  V30 19480 H 1844.1 -0.584561 -0.44884 0
M  V30 19481 H 1846.74 -1.82346 -0.533855 0
M  V30 19482 H 1844.89 -2.59364 -2.89245 0
M  V30 19483 H 1846.56 -4.48208 -1.09119 0
M  V30 19484 H 1844.8 -4.23077 -0.958577 0
M  V30 19485 H 1845.47 -4.96128 -2.41994 0
M  V30 19486 H 1847.95 -3.0733 -2.80513 0
M  V30 19487 H 1846.83 -3.74146 -4.0163 0
M  V30 19488 H 1847.09 -2.00609 -3.93965 0
M  V30 19489 N 1846.15 0.735796 -1.39369 0
M  V30 19490 C 1847.11 1.83148 -1.37802 0
M  V30 19491 C 1848.11 1.58426 -0.27528 0
M  V30 19492 O 1849.3 1.65841 -0.53314 0
M  V30 19493 C 1846.43 3.20923 -1.14984 0
M  V30 19494 H 1847.62 1.85941 -2.353 0
M  V30 19495 H 1845.18 0.939367 -1.24922 0
M  V30 19496 H 1845.91 3.23791 -0.181648 0
M  V30 19497 H 1845.7 3.40264 -1.94841 0
M  V30 19498 H 1847.19 4.00984 -1.16626 0
M  V30 19499 N 1847.63 1.24532 0.965897 0
M  V30 19500 C 1848.54 1.0564 2.09469 0
M  V30 19501 C 1849.55 -0.00330962 1.74 0
M  V30 19502 O 1850.73 0.195248 2.00451 0
M  V30 19503 C 1847.79 0.665318 3.40256 0
M  V30 19504 C 1846.85 1.80171 3.89663 0
M  V30 19505 C 1846.09 1.42919 5.14208 0
M  V30 19506 O 1846.31 0.319815 5.69503 0
M  V30 19507 O 1845.24 2.25546 5.58044 0
M  V30 19508 H 1849.07 2.00277 2.28304 0
M  V30 19509 H 1846.65 1.03368 1.07868 0
M  V30 19510 H 1848.54 0.458827 4.18895 0
M  V30 19511 H 1847.21 -0.251914 3.22718 0
M  V30 19512 H 1846.12 2.06296 3.12078 0
M  V30 19513 H 1847.45 2.69778 4.11681 0
M  V30 19514 N 1849.1 -1.16685 1.05936 0
M  V30 19515 C 1850.35 -1.87405 0.775061 0
M  V30 19516 C 1850.68 -1.81279 -0.696543 0
M  V30 19517 O 1849.96 -1.22595 -1.50999 0
M  V30 19518 C 1850.24 -3.37124 1.26569 0
M  V30 19519 C 1850.09 -3.5196 2.80078 0
M  V30 19520 C 1851.41 -4.31401 0.870695 0
M  V30 19521 H 1848.53 -0.680488 0.283028 0
M  V30 19522 H 1851.17 -1.37174 1.31466 0
M  V30 19523 H 1849.32 -3.80033 0.806653 0
M  V30 19524 H 1851 -3.18014 3.34163 0
M  V30 19525 H 1849.24 -2.9399 3.18986 0
M  V30 19526 H 1849.91 -4.5709 3.09471 0
M  V30 19527 H 1852.39 -3.96373 1.266 0
M  V30 19528 H 1851.26 -5.34676 1.2415 0
M  V30 19529 H 1851.52 -4.41529 -0.224692 0
M  V30 19530 N 1850.58 -0.841432 -1.33258 0
M  V30 19531 C 1851.49 -0.279006 -2.32935 0
M  V30 19532 C 1852.51 0.596298 -1.63463 0
M  V30 19533 O 1853.68 0.499812 -1.951 0
M  V30 19534 C 1850.75 0.534514 -3.42555 0
M  V30 19535 C 1849.81 -0.365366 -4.27742 0
M  V30 19536 C 1849.04 0.409423 -5.32127 0
M  V30 19537 O 1849.27 1.64085 -5.4629 0
M  V30 19538 O 1848.2 -0.217904 -6.01505 0
M  V30 19539 H 1852.03 -1.10448 -2.82904 0
M  V30 19540 H 1849.61 -0.60402 -1.36645 0
M  V30 19541 H 1851.49 0.996723 -4.09443 0
M  V30 19542 H 1850.17 1.33701 -2.94798 0
M  V30 19543 H 1849.07 -0.875469 -3.63712 0
M  V30 19544 H 1850.41 -1.1327 -4.78989 0
M  V30 19545 N 1852.06 1.4581 -0.598108 0
M  V30 19546 C 1853.01 2.30454 0.126261 0
M  V30 19547 C 1853.98 1.41541 0.869221 0
M  V30 19548 O 1855.16 1.70478 0.856841 0
M  V30 19549 C 1852.3 3.26285 1.12393 0
M  V30 19550 C 1851.41 4.303 0.382824 0
M  V30 19551 C 1850.55 5.13246 1.36937 0
M  V30 19552 C 1849.59 6.08997 0.615545 0
M  V30 19553 N 1848.73 6.84756 1.55091 0
M  V30 19554 H 1853.57 2.91865 -0.601573 0
M  V30 19555 H 1851.1 1.43829 -0.308467 0
M  V30 19556 H 1853.06 3.80303 1.71539 0
M  V30 19557 H 1851.69 2.66649 1.81929 0
M  V30 19558 H 1850.74 3.79018 -0.323962 0
M  V30 19559 H 1852.05 4.98375 -0.205781 0
M  V30 19560 H 1851.21 5.71618 2.03318 0
M  V30 19561 H 1849.95 4.45168 1.99191 0
M  V30 19562 H 1848.95 5.49765 -0.0619441 0
M  V30 19563 H 1850.18 6.791 -0.00181251 0
M  V30 19564 H 1848.12 6.19375 2.16127 0
M  V30 19565 H 1848.04 7.49149 1.0155 0
M  V30 19566 H 1849.31 7.47675 2.20458 0
M  V30 19567 N 1853.54 0.336733 1.53961 0
M  V30 19568 C 1854.78 -0.254954 2.01796 0
M  V30 19569 C 1855.14 -1.4874 1.22042 0
M  V30 19570 O 1854.43 -1.8927 0.297911 0
M  V30 19571 C 1854.63 -0.628163 3.51836 0
M  V30 19572 C 1854.45 0.566566 4.46117 0
M  V30 19573 C 1853.22 1.06977 4.93846 0
M  V30 19574 C 1855.42 1.42289 4.94225 0
M  V30 19575 N 1853.4 2.22753 5.72062 0
M  V30 19576 C 1854.78 2.42765 5.70495 0
M  V30 19577 C 1856.83 1.44913 4.76345 0
M  V30 19578 C 1855.53 3.45686 6.30788 0
M  V30 19579 C 1857.56 2.46711 5.37483 0
M  V30 19580 C 1856.92 3.45913 6.13615 0
M  V30 19581 H 1853.02 -0.0567832 0.779936 0
M  V30 19582 H 1855.6 0.474756 1.88823 0
M  V30 19583 H 1853.78 -1.32699 3.65028 0
M  V30 19584 H 1855.51 -1.20245 3.86424 0
M  V30 19585 H 1852.26 0.638937 4.6927 0
M  V30 19586 H 1852.69 2.81189 6.15842 0
M  V30 19587 H 1857.33 0.695807 4.17035 0
M  V30 19588 H 1855.05 4.21917 6.89211 0
M  V30 19589 H 1858.63 2.4956 5.25558 0
M  V30 19590 H 1857.51 4.23393 6.60082 0
M  V30 19591 N 1855.02 -1.57465 0.0651956 0
M  V30 19592 C 1855.95 -2.15374 -0.902018 0
M  V30 19593 C 1856.93 -1.07904 -1.31494 0
M  V30 19594 O 1858.11 -1.35909 -1.38717 0
M  V30 19595 C 1855.24 -2.71005 -2.17195 0
M  V30 19596 C 1854.2 -3.83583 -1.89864 0
M  V30 19597 C 1853.52 -4.25789 -3.23432 0
M  V30 19598 C 1854.82 -5.08112 -1.20913 0
M  V30 19599 H 1856.52 -2.96445 -0.419631 0
M  V30 19600 H 1854.06 -1.42599 -0.200401 0
M  V30 19601 H 1856.01 -3.1016 -2.8527 0
M  V30 19602 H 1854.74 -1.87146 -2.67664 0
M  V30 19603 H 1853.4 -3.44921 -1.24197 0
M  V30 19604 H 1853.05 -3.38861 -3.71729 0
M  V30 19605 H 1852.75 -5.01673 -3.05938 0
M  V30 19606 H 1854.27 -4.67555 -3.92715 0
M  V30 19607 H 1855.68 -5.44624 -1.79046 0
M  V30 19608 H 1854.08 -5.8923 -1.137 0
M  V30 19609 H 1855.15 -4.84538 -0.187224 0
M  V30 19610 N 1856.49 0.20831 -1.56217 0
M  V30 19611 C 1857.74 0.928886 -1.79488 0
M  V30 19612 C 1858.06 1.84337 -0.636 0
M  V30 19613 O 1857.33 1.92813 0.346416 0
M  V30 19614 H 1855.91 0.345985 -0.662045 0
M  V30 19615 H 1858.57 0.216988 -1.93688 0
M  V30 19616 H 1857.67 1.52786 -2.72145 0
M  V30 19617 N 1857.97 1.50255 0.475528 0
M  V30 19618 C 1859.38 1.53931 1.05651 0
M  V30 19619 C 1859.73 0.340226 1.93228 0
M  V30 19620 O 1858.86 -0.547349 2.09363 0
M  V30 19621 C 1859.45 2.78951 1.92281 0
M  V30 19622 C 1858.01 2.85323 2.45495 0
M  V30 19623 C 1857.16 2.48166 1.2373 0
M  V30 19624 H 1860.11 1.56583 0.258332 0
M  V30 19625 H 1860.13 2.60555 2.77293 0
M  V30 19626 H 1859.64 3.66205 1.28514 0
M  V30 19627 H 1857.74 2.0241 3.12827 0
M  V30 19628 H 1857.86 3.88109 2.80906 0
M  V30 19629 H 1856.22 2.00505 1.57066 0
M  V30 19630 H 1857 3.37722 0.616324 0
M  V30 19631 N 1859.45 -0.728395 1.39758 0
M  V30 19632 C 1860.7 -1.48357 1.3665 0
M  V30 19633 C 1861.01 -1.95573 -0.0325759 0
M  V30 19634 O 1862.22 -2.7086 -0.186252 0
M  V30 19635 C 1860.67 -2.68105 2.40099 0
M  V30 19636 C 1860.28 -2.27812 3.85754 0
M  V30 19637 C 1862.03 -3.45899 2.46077 0
M  V30 19638 C 1859.93 -3.44322 4.80828 0
M  V30 19639 H 1858.86 -0.557138 0.508048 0
M  V30 19640 H 1861.51 -0.793948 1.65435 0
M  V30 19641 H 1859.9 -3.39174 2.04394 0
M  V30 19642 H 1861.07 -1.64246 4.30534 0
M  V30 19643 H 1859.38 -1.63094 3.83131 0
M  V30 19644 H 1861.98 -4.32573 3.143 0
M  V30 19645 H 1862.32 -3.88824 1.48732 0
M  V30 19646 H 1862.86 -2.81864 2.80709 0
M  V30 19647 H 1859.6 -3.06441 5.7946 0
M  V30 19648 H 1859.12 -4.06847 4.40722 0
M  V30 19649 H 1860.8 -4.10567 5.00044 0
M  V30 19650 N 1860.93 -1.25042 -0.959279 0
M  V30 19651 C 1861.86 -1.07494 -2.07285 0
M  V30 19652 C 1862.84 0.0146264 -1.70094 0
M  V30 19653 O 1864.02 -0.154035 -1.93588 0
M  V30 19654 C 1861.15 -0.68794 -3.40418 0
M  V30 19655 C 1860.11 -1.72722 -3.91601 0
M  V30 19656 C 1859.43 -1.19504 -5.21175 0
M  V30 19657 C 1860.73 -3.12502 -4.18497 0
M  V30 19658 H 1862.43 -2.00641 -2.22224 0
M  V30 19659 H 1859.97 -0.966074 -1.06785 0
M  V30 19660 H 1861.93 -0.552133 -4.17767 0
M  V30 19661 H 1860.65 0.279224 -3.25404 0
M  V30 19662 H 1859.31 -1.85139 -3.16416 0
M  V30 19663 H 1858.96 -0.218239 -5.02526 0
M  V30 19664 H 1858.66 -1.88962 -5.56387 0
M  V30 19665 H 1860.18 -1.07153 -6.01124 0
M  V30 19666 H 1861.6 -3.03266 -4.86521 0
M  V30 19667 H 1859.99 -3.79389 -4.64956 0
M  V30 19668 H 1861.06 -3.5991 -3.2495 0
M  V30 19669 N 1862.41 1.16121 -1.06553 0
M  V30 19670 C 1863.65 1.86346 -0.782279 0
M  V30 19671 C 1863.98 1.82255 0.693395 0
M  V30 19672 O 1863.25 1.2579 1.50179 0
M  V30 19673 H 1861.83 0.689921 -0.286388 0
M  V30 19674 H 1864.49 1.40805 -1.34758 0
M  V30 19675 H 1863.58 2.91712 -1.10954 0
M  V30 19676 N 1863.88 0.848487 1.3281 0
M  V30 19677 C 1865.11 0.461973 2.01369 0
M  V30 19678 C 1865.52 -0.944176 1.63957 0
M  V30 19679 O 1864.87 -1.62659 0.853677 0
M  V30 19680 C 1864.93 0.514163 3.55804 0
M  V30 19681 C 1864.59 1.87812 4.16624 0
M  V30 19682 C 1865.59 2.84271 4.353 0
M  V30 19683 C 1863.27 2.17358 4.52836 0
M  V30 19684 C 1865.27 4.08433 4.89348 0
M  V30 19685 C 1862.95 3.41774 5.0659 0
M  V30 19686 C 1863.95 4.37128 5.24793 0
M  V30 19687 O 1863.64 5.59342 5.774 0
M  V30 19688 H 1863.37 0.180645 0.651416 0
M  V30 19689 H 1865.93 1.14535 1.70502 0
M  V30 19690 H 1864.16 -0.226037 3.86039 0
M  V30 19691 H 1865.85 0.14412 4.05644 0
M  V30 19692 H 1866.61 2.62747 4.07663 0
M  V30 19693 H 1862.49 1.43927 4.37957 0
M  V30 19694 H 1866.03 4.82869 5.03471 0
M  V30 19695 H 1861.93 3.63151 5.33659 0
M  V30 19696 H 1862.7 5.61215 5.95802 0
M  V30 19697 N 1865.36 -1.4549 0.605832 0
M  V30 19698 C 1866.64 -1.95573 0.0324098 0
M  V30 19699 C 1867.02 -1.54829 -1.43496 0
M  V30 19700 O 1866.37 -0.810005 -2.13661 0
M  V30 19701 C 1866.58 -3.4825 0.228676 0
M  V30 19702 C 1867.93 -4.24461 0.108559 0
M  V30 19703 O 1868.95 -3.55846 0.158706 0
M  V30 19704 O 1867.81 -5.46499 -0.00781404 0
M  V30 19705 H 1864.9 -0.826184 -0.0367314 0
M  V30 19706 H 1867.45 -1.55664 0.675771 0
M  V30 19707 H 1866.22 -3.70869 1.24786 0
M  V30 19708 H 1865.84 -3.95045 -0.450031 0
M  V30 19709 N 1866.84 -0.344893 -1.5378 0
M  V30 19710 C 1868.07 0.252559 -2.05353 0
M  V30 19711 C 1868.48 1.44107 -1.21978 0
M  V30 19712 O 1867.84 1.80704 -0.25543 0
M  V30 19713 C 1867.89 0.666294 -3.55307 0
M  V30 19714 O 1867.61 -0.474957 -4.35518 0
M  V30 19715 C 1869.11 1.32432 -4.23056 0
M  V30 19716 H 1866.33 0.0485202 -0.669243 0
M  V30 19717 H 1868.88 -0.497271 -1.98362 0
M  V30 19718 H 1867.03 1.36606 -3.62515 0
M  V30 19719 H 1867.45 -0.144883 -5.243 0
M  V30 19720 H 1868.92 1.56456 -5.29363 0
M  V30 19721 H 1869.4 2.27829 -3.75487 0
M  V30 19722 H 1870 0.66655 -4.20044 0
M  V30 19723 N 1868.32 1.57428 -0.0735454 0
M  V30 19724 C 1869.6 1.84962 0.636265 0
M  V30 19725 C 1869.98 0.966341 1.87683 0
M  V30 19726 O 1869.32 0.0330837 2.28476 0
M  V30 19727 C 1869.53 3.35184 0.972251 0
M  V30 19728 C 1870.88 4.02735 1.34499 0
M  V30 19729 O 1871.91 3.3994 1.06393 0
M  V30 19730 O 1870.76 5.13495 1.87043 0
M  V30 19731 H 1867.86 0.764169 0.316187 0
M  V30 19732 H 1870.4 1.69377 -0.104609 0
M  V30 19733 H 1869.18 3.91194 0.0912319 0
M  V30 19734 H 1868.8 3.56038 1.76983 0
M  V30 19735 O 1869.84 -0.0670369 1.61361 0
M  V30 19736 H 1870.53 -0.692353 1.80904 0
M  V30 END ATOM
M  V30 BEGIN BOND
M  V30 END BOND
M  V30 END CTAB
M  END
$$$$
