drugbank_target|Q9NZQ7 Programmed cell death 1 ligand 1 (DB11595; DB11714; DB11945; DB15769; DB15770; DB15771; DB15772; DB15773)
 OpenBabel12092120323D

  0  0  0     0  0            999 V3000
M  V30 BEGIN CTAB
M  V30 COUNTS 4701 4747 0 0 0
M  V30 BEGIN ATOM
M  V30 1 H -0.908 1.98254 -0.117106 0
M  V30 2 N 0 1.576 0 0
M  V30 3 C 0.933 2.03868 1.02534 0
M  V30 4 C 1.911 0.928543 1.3348 0
M  V30 5 O 3.095 1.19667 1.45644 0
M  V30 6 C 0.222 2.43627 2.35294 0
M  V30 7 C -0.732 3.65373 2.2001 0
M  V30 8 S 0.101 5.13292 1.52614 0
M  V30 9 C 1.257 5.56322 2.86805 0
M  V30 10 H 1.49 2.90518 0.631377 0
M  V30 11 H -0.977 1.52953 0.210867 0
M  V30 12 H 0.981 2.67203 3.11629 0
M  V30 13 H -0.358 1.57376 2.7183 0
M  V30 14 H -1.165 3.90944 3.18086 0
M  V30 15 H -1.563 3.418 1.51819 0
M  V30 16 H 0.729 5.58782 3.83104 0
M  V30 17 H 1.672 6.56266 2.65933 0
M  V30 18 H 2.08 4.83886 2.90714 0
M  V30 19 N 1.4781 -0.272755 1.55222 0
M  V30 20 C 2.8941 -0.619959 1.47067 0
M  V30 21 C 3.0941 -1.895 0.684978 0
M  V30 22 O 2.1501 -2.51675 0.203931 0
M  V30 23 C 3.4631 -0.746693 2.91282 0
M  V30 24 C 5.0111 -0.840731 3.01497 0
M  V30 25 C 5.4861 -0.99924 4.46967 0
M  V30 26 N 6.9771 -1.06476 4.50796 0
M  V30 27 C 7.7121 -1.20621 5.6057 0
M  V30 28 N 7.2081 -1.31483 6.80209 0
M  V30 29 N 9.0011 -1.23733 5.48312 0
M  V30 30 H 1.1521 0.564606 2.04758 0
M  V30 31 H 3.4151 0.191177 0.928523 0
M  V30 32 H 3.1211 0.119753 3.51496 0
M  V30 33 H 2.9951 -1.6269 3.40311 0
M  V30 34 H 5.3821 -1.69764 2.41379 0
M  V30 35 H 5.4631 0.0640874 2.5572 0
M  V30 36 H 5.1071 -0.146984 5.07687 0
M  V30 37 H 5.0371 -1.91871 4.90401 0
M  V30 38 H 7.5281 -0.993196 3.64615 0
M  V30 39 H 7.8411 -1.42111 7.59621 0
M  V30 40 H 6.1861 -1.28487 6.8302 0
M  V30 41 H 9.3771 -1.14877 4.53785 0
M  V30 42 H 9.5501 -1.34412 6.33906 0
M  V30 43 N 2.9562 -1.48159 -0.537278 0
M  V30 44 C 4.2052 -1.5506 -1.28993 0
M  V30 45 C 4.5182 -0.226211 -1.94288 0
M  V30 46 O 5.7242 -0.173395 -2.70946 0
M  V30 47 C 4.1802 -2.73429 -2.34018 0
M  V30 48 C 3.7882 -4.1248 -1.74825 0
M  V30 49 C 5.5322 -2.89638 -3.10339 0
M  V30 50 C 3.4392 -5.22121 -2.77747 0
M  V30 51 H 2.3692 -0.577231 -0.485098 0
M  V30 52 H 5.0202 -1.74478 -0.568317 0
M  V30 53 H 3.4022 -2.47431 -3.09182 0
M  V30 54 H 4.5762 -4.48466 -1.05899 0
M  V30 55 H 2.8912 -4.01327 -1.11022 0
M  V30 56 H 5.4882 -3.68718 -3.87235 0
M  V30 57 H 5.8312 -1.9882 -3.65754 0
M  V30 58 H 6.3642 -3.15502 -2.42288 0
M  V30 59 H 3.1032 -6.1488 -2.27161 0
M  V30 60 H 2.6232 -4.90631 -3.45024 0
M  V30 61 H 4.3022 -5.49924 -3.4087 0
M  V30 62 N 4.4343 0.785586 -1.36625 0
M  V30 63 C 5.6813 1.54362 -1.31067 0
M  V30 64 C 6.0093 1.94195 0.10893 0
M  V30 65 O 5.2643 1.63262 1.07908 0
M  V30 66 C 5.5633 2.83007 -2.1827 0
M  V30 67 C 5.2293 2.62294 -3.6676 0
M  V30 68 C 3.8913 2.56353 -4.0723 0
M  V30 69 C 6.2433 2.43371 -4.6089 0
M  V30 70 C 3.5713 2.29461 -5.39967 0
M  V30 71 C 5.9233 2.18005 -5.93849 0
M  V30 72 C 4.5873 2.105 -6.3344 0
M  V30 73 H 3.8573 0.564851 -0.479609 0
M  V30 74 H 6.5043 0.906028 -1.68711 0
M  V30 75 H 4.8093 3.51253 -1.73576 0
M  V30 76 H 6.5063 3.40817 -2.11292 0
M  V30 77 H 3.0963 2.67774 -3.34656 0
M  V30 78 H 7.2803 2.46959 -4.30494 0
M  V30 79 H 2.5363 2.22135 -5.69619 0
M  V30 80 H 6.7103 2.02359 -6.66351 0
M  V30 81 H 4.3373 1.89425 -7.36222 0
M  V30 82 N 5.9124 1.20967 1.01018 0
M  V30 83 C 6.8754 0.965918 2.07853 0
M  V30 84 C 7.8754 -0.0610545 1.60684 0
M  V30 85 O 9.0654 0.175681 1.73312 0
M  V30 86 C 6.1974 0.455513 3.37843 0
M  V30 87 H 7.3904 1.91365 2.3091 0
M  V30 88 H 4.9434 1.02594 1.17916 0
M  V30 89 H 5.6784 -0.497381 3.20463 0
M  V30 90 H 5.4634 1.19622 3.73407 0
M  V30 91 H 6.9534 0.304667 4.16487 0
M  V30 92 N 7.3905 -1.2043 1.01659 0
M  V30 93 C 8.6365 -1.90079 0.706963 0
M  V30 94 C 8.9695 -1.78648 -0.761474 0
M  V30 95 O 8.2445 -1.17069 -1.55323 0
M  V30 96 C 8.5275 -3.41469 1.14327 0
M  V30 97 C 8.3805 -3.61833 2.67201 0
M  V30 98 C 9.6995 -4.34261 0.714529 0
M  V30 99 H 6.8185 -0.690254 0.2583 0
M  V30 100 H 9.4605 -1.41826 1.26433 0
M  V30 101 H 7.6105 -3.82696 0.669056 0
M  V30 102 H 9.2825 -3.2986 3.22475 0
M  V30 103 H 7.5255 -3.05304 3.08175 0
M  V30 104 H 8.1965 -4.67955 2.92783 0
M  V30 105 H 10.6725 -4.00682 1.12221 0
M  V30 106 H 9.5485 -5.38806 1.04784 0
M  V30 107 H 9.8095 -4.40431 -0.383799 0
M  V30 108 N 8.8686 -0.792821 -1.36206 0
M  V30 109 C 10.1156 -0.366786 -1.99151 0
M  V30 110 C 10.4436 1.06243 -1.62919 0
M  V30 111 O 9.6986 1.74927 -0.877442 0
M  V30 112 C 9.9976 -0.481501 -3.54142 0
M  V30 113 C 9.6636 -1.87202 -4.10203 0
M  V30 114 C 8.3256 -2.25248 -4.25226 0
M  V30 115 C 10.6776 -2.78237 -4.40719 0
M  V30 116 C 8.0056 -3.53723 -4.68078 0
M  V30 117 C 10.3576 -4.06144 -4.85005 0
M  V30 118 C 9.0216 -4.44207 -4.98234 0
M  V30 119 H 8.2916 -0.134217 -0.728743 0
M  V30 120 H 10.9386 -1.01094 -1.62641 0
M  V30 121 H 9.2436 0.246146 -3.91026 0
M  V30 122 H 10.9406 -0.132844 -4.0078 0
M  V30 123 H 7.5306 -1.56639 -3.98951 0
M  V30 124 H 11.7146 -2.50097 -4.28679 0
M  V30 125 H 6.9706 -3.8308 -4.76508 0
M  V30 126 H 11.1446 -4.76796 -5.07581 0
M  V30 127 H 8.7716 -5.43814 -5.31197 0
M  V30 128 N 10.3467 1.47872 -0.545128 0
M  V30 129 C 11.5957 2.01695 -0.0145033 0
M  V30 130 C 11.9087 1.42609 1.33873 0
M  V30 131 O 13.1147 1.88021 1.95858 0
M  V30 132 C 11.5707 3.59892 0.0245068 0
M  V30 133 C 11.1787 4.27966 -1.32475 0
M  V30 134 C 12.9227 4.21507 0.50316 0
M  V30 135 C 10.8297 5.78136 -1.2455 0
M  V30 136 H 9.7597 0.753998 -0.00165172 0
M  V30 137 H 12.4107 1.69985 -0.691175 0
M  V30 138 H 10.7927 3.88509 0.766575 0
M  V30 139 H 11.9667 4.11003 -2.08357 0
M  V30 140 H 10.2817 3.78286 -1.74036 0
M  V30 141 H 12.8787 5.31538 0.580656 0
M  V30 142 H 13.2217 3.87855 1.51243 0
M  V30 143 H 13.7547 3.97376 -0.183681 0
M  V30 144 H 10.4937 6.16388 -2.23039 0
M  V30 145 H 10.0137 5.97469 -0.528282 0
M  V30 146 H 11.6927 6.40099 -0.942488 0
M  V30 147 N 11.8248 0.280983 1.55075 0
M  V30 148 C 13.0718 -0.334115 1.99725 0
M  V30 149 C 13.3998 -1.5542 1.1694 0
M  V30 150 O 12.6548 -1.94361 0.228531 0
M  V30 151 C 12.9538 -0.754656 3.49342 0
M  V30 152 C 12.6198 0.361445 4.49449 0
M  V30 153 C 11.2818 0.667893 4.76542 0
M  V30 154 C 13.6338 1.11322 5.09173 0
M  V30 155 C 10.9618 1.7296 5.60626 0
M  V30 156 C 13.3138 2.1647 5.9441 0
M  V30 157 C 11.9778 2.47742 6.19822 0
M  V30 158 H 11.2478 -0.122261 0.730844 0
M  V30 159 H 13.8948 0.395917 1.87363 0
M  V30 160 H 12.1998 -1.56446 3.5921 0
M  V30 161 H 13.8968 -1.24142 3.813 0
M  V30 162 H 10.4868 0.112481 4.28452 0
M  V30 163 H 14.6708 0.88973 4.8826 0
M  V30 164 H 9.9268 1.97684 5.78559 0
M  V30 165 H 14.1008 2.75193 6.3972 0
M  V30 166 H 11.7278 3.30145 6.84769 0
M  V30 167 N 13.3029 -1.57598 0.00835791 0
M  V30 168 C 14.2359 -2.04409 -1.01451 0
M  V30 169 C 15.2139 -0.935609 -1.32985 0
M  V30 170 O 16.3979 -1.20437 -1.45007 0
M  V30 171 C 13.5249 -2.44872 -2.33999 0
M  V30 172 C 12.5709 -3.66535 -2.18069 0
M  V30 173 S 13.4039 -5.14095 -1.4989 0
M  V30 174 C 14.5599 -5.57835 -2.8385 0
M  V30 175 H 14.7929 -2.90849 -0.615961 0
M  V30 176 H 12.3259 -1.53063 -0.202752 0
M  V30 177 H 14.2839 -2.68852 -3.10208 0
M  V30 178 H 12.9449 -1.58815 -2.70992 0
M  V30 179 H 12.1379 -3.92626 -3.16008 0
M  V30 180 H 11.7399 -3.426 -1.50004 0
M  V30 181 H 14.0319 -5.60806 -3.80136 0
M  V30 182 H 14.9749 -6.57667 -2.62449 0
M  V30 183 H 15.3829 -4.85421 -2.88144 0
M  V30 184 N 14.781 0.264519 -1.55364 0
M  V30 185 C 16.009 1.013 -1.80405 0
M  V30 186 C 16.424 1.79618 -0.581622 0
M  V30 187 O 15.781 1.76879 0.449468 0
M  V30 188 C 15.832 1.96487 -3.03439 0
M  V30 189 O 15.553 1.21341 -4.20961 0
M  V30 190 C 17.054 2.83079 -3.41147 0
M  V30 191 H 14.274 0.298875 -0.600762 0
M  V30 192 H 16.818 0.292736 -2.02394 0
M  V30 193 H 14.973 2.63965 -2.83551 0
M  V30 194 H 15.387 1.85573 -4.90574 0
M  V30 195 H 16.861 3.4565 -4.30384 0
M  V30 196 H 17.338 3.53286 -2.60932 0
M  V30 197 H 17.944 2.2108 -3.63323 0
M  V30 198 N 16.2591 1.48442 0.529413 0
M  V30 199 C 17.4891 1.59919 1.30804 0
M  V30 200 C 17.8971 0.258792 1.87422 0
M  V30 201 O 17.2401 -0.762096 1.67146 0
M  V30 202 C 17.3021 2.58693 2.49636 0
M  V30 203 C 16.9661 4.03745 2.14101 0
M  V30 204 C 17.9631 4.9141 1.6974 0
M  V30 205 C 15.6481 4.49285 2.24607 0
M  V30 206 C 17.6421 6.22645 1.36351 0
M  V30 207 C 15.3291 5.8054 1.9083 0
M  V30 208 C 16.3271 6.67043 1.46773 0
M  V30 209 O 16.0151 7.95856 1.1344 0
M  V30 210 H 15.7471 0.541981 0.404021 0
M  V30 211 H 18.3011 1.95 0.645309 0
M  V30 212 H 16.5311 2.18734 3.18892 0
M  V30 213 H 18.2201 2.59999 3.11698 0
M  V30 214 H 18.9861 4.57465 1.61094 0
M  V30 215 H 14.8651 3.82142 2.57854 0
M  V30 216 H 18.4091 6.90119 1.01891 0
M  V30 217 H 14.3061 6.14022 1.99117 0
M  V30 218 H 15.0741 8.08613 1.26832 0
M  V30 219 N 17.7372 -0.778329 1.37039 0
M  V30 220 C 18.9832 -1.53817 1.33086 0
M  V30 221 C 19.3382 -1.92208 -0.0860346 0
M  V30 222 O 18.6312 -1.60713 -1.04316 0
M  V30 223 C 18.8252 -2.81845 2.19768 0
M  V30 224 C 18.6542 -2.55967 3.69744 0
M  V30 225 C 17.4242 -2.50428 4.38878 0
M  V30 226 C 19.6222 -2.2441 4.62758 0
M  V30 227 N 17.6042 -2.16564 5.74433 0
M  V30 228 C 18.9752 -2.0063 5.86641 0
M  V30 229 C 21.0302 -2.1051 4.5121 0
M  V30 230 C 19.7332 -1.64354 7.00272 0
M  V30 231 C 21.7592 -1.75634 5.64718 0
M  V30 232 C 21.1212 -1.52709 6.87648 0
M  V30 233 H 17.2202 -0.563434 0.542279 0
M  V30 234 H 19.8042 -0.908617 1.72198 0
M  V30 235 H 17.9752 -3.42649 1.82883 0
M  V30 236 H 19.7072 -3.47682 2.07122 0
M  V30 237 H 16.4622 -2.66056 3.91805 0
M  V30 238 H 16.8862 -2.02348 6.46053 0
M  V30 239 H 21.5282 -2.26919 3.56746 0
M  V30 240 H 19.2462 -1.46683 7.94676 0
M  V30 241 H 22.8322 -1.65546 5.57751 0
M  V30 242 H 21.7122 -1.2612 7.73992 0
M  V30 243 N 19.2153 -1.21501 -1.00376 0
M  V30 244 C 20.1653 -0.942843 -2.07592 0
M  V30 245 C 21.1493 0.102384 -1.60574 0
M  V30 246 O 22.3413 -0.10671 -1.76678 0
M  V30 247 C 19.4703 -0.510729 -3.3948 0
M  V30 248 C 18.5563 -1.59009 -3.93163 0
M  V30 249 N 18.9473 -2.81544 -4.20198 0
M  V30 250 C 17.2453 -1.45925 -4.21452 0
M  V30 251 C 17.9463 -3.51261 -4.63671 0
M  V30 252 N 16.9223 -2.78703 -4.66718 0
M  V30 253 H 20.7243 -1.87378 -2.26421 0
M  V30 254 H 18.2383 -1.11093 -1.18458 0
M  V30 255 H 20.2353 -0.297101 -4.1584 0
M  V30 256 H 18.8953 0.413436 -3.22057 0
M  V30 257 H 19.9063 -3.18075 -4.08716 0
M  V30 258 H 16.5833 -0.600467 -4.13159 0
M  V30 259 H 17.9733 -4.56183 -4.93302 0
M  V30 260 N 20.6934 1.19889 -1.02296 0
M  V30 261 C 21.6234 2.25141 -0.619174 0
M  V30 262 C 22.6044 1.66051 0.368915 0
M  V30 263 O 23.7894 1.92546 0.252941 0
M  V30 264 C 20.9194 3.4728 0.0368783 0
M  V30 265 C 19.8734 4.19005 -0.872865 0
M  V30 266 C 19.1994 5.34637 -0.0822402 0
M  V30 267 C 20.4994 4.74452 -2.18387 0
M  V30 268 H 22.1934 2.59171 -1.49903 0
M  V30 269 H 19.7394 1.24579 -0.722222 0
M  V30 270 H 21.6924 4.20098 0.330958 0
M  V30 271 H 20.4164 3.12433 0.95149 0
M  V30 272 H 19.0754 3.48061 -1.15105 0
M  V30 273 H 18.7234 4.96034 0.83422 0
M  V30 274 H 18.4234 5.83557 -0.688149 0
M  V30 275 H 19.9474 6.10255 0.205238 0
M  V30 276 H 21.3614 5.39055 -1.95172 0
M  V30 277 H 19.7584 5.33834 -2.74119 0
M  V30 278 H 20.8284 3.92844 -2.84257 0
M  V30 279 N 22.1715 0.800033 1.35784 0
M  V30 280 C 23.1015 0.220184 2.3246 0
M  V30 281 C 24.0825 -0.65073 1.57161 0
M  V30 282 O 25.2675 -0.582359 1.85263 0
M  V30 283 C 22.3975 -0.637353 3.41402 0
M  V30 284 C 21.3515 0.134531 4.27789 0
M  V30 285 C 20.6775 -0.844285 5.27992 0
M  V30 286 C 21.9775 1.32979 5.05088 0
M  V30 287 H 23.6715 1.02787 2.81203 0
M  V30 288 H 21.2175 0.495717 1.35199 0
M  V30 289 H 23.1705 -1.05302 4.08031 0
M  V30 290 H 21.8945 -1.47785 2.91251 0
M  V30 291 H 20.5535 0.531296 3.6273 0
M  V30 292 H 20.2015 -1.68011 4.74111 0
M  V30 293 H 19.9015 -0.332184 5.8666 0
M  V30 294 H 21.4255 -1.2583 5.97494 0
M  V30 295 H 22.8395 0.98934 5.64699 0
M  V30 296 H 21.2365 1.77593 5.7322 0
M  V30 297 H 22.3065 2.11978 4.36111 0
M  V30 298 N 23.6496 -1.47581 0.552962 0
M  V30 299 C 24.5976 -2.31648 -0.21023 0
M  V30 300 C 25.5916 -1.42663 -0.913432 0
M  V30 301 O 26.7976 -1.5945 -0.835201 0
M  V30 302 H 23.1726 -0.746989 -0.0866676 0
M  V30 303 H 25.1436 -2.93869 0.518051 0
M  V30 304 C 23.8926 -3.25226 -1.22976 0
M  V30 305 H 23.2156 -3.93658 -0.698077 0
M  V30 306 H 24.6556 -3.86889 -1.73473 0
M  V30 307 C 23.1146 -2.48448 -2.27542 0
M  V30 308 O 23.6446 -2.22585 -3.34393 0
M  V30 309 N 21.8506 -2.09532 -2.01357 0
M  V30 310 H 21.3976 -2.30765 -1.14478 0
M  V30 311 H 21.3556 -1.58476 -2.71538 0
M  V30 312 N 25.1277 -0.289203 -1.54924 0
M  V30 313 C 26.0907 0.579144 -2.21762 0
M  V30 314 C 27.0907 1.07047 -1.1999 0
M  V30 315 O 28.2807 0.968384 -1.44803 0
M  V30 316 C 25.4127 1.80055 -2.8947 0
M  V30 317 H 26.6057 -0.00464908 -2.999 0
M  V30 318 H 24.1587 -0.0399306 -1.56249 0
M  V30 319 H 24.8937 2.42449 -2.15381 0
M  V30 320 H 24.6787 1.45602 -3.64064 0
M  V30 321 H 26.1687 2.41773 -3.40493 0
M  V30 322 N 26.6058 1.57591 -0.0167156 0
M  V30 323 C 27.8528 1.91283 0.664597 0
M  V30 324 C 28.1808 0.891949 1.72842 0
M  V30 325 O 27.4358 -0.100931 1.9544 0
M  V30 326 C 27.7348 3.3172 1.33029 0
M  V30 327 C 27.4008 4.4914 0.398047 0
M  V30 328 C 26.0628 4.80992 0.141421 0
M  V30 329 C 28.4148 5.20634 -0.242825 0
M  V30 330 C 25.7428 5.81703 -0.764092 0
M  V30 331 C 28.0948 6.22311 -1.13632 0
M  V30 332 C 26.7588 6.52611 -1.40196 0
M  V30 333 H 26.0288 0.699956 0.243193 0
M  V30 334 H 28.6758 1.9135 -0.0758267 0
M  V30 335 H 26.9808 3.27856 2.14517 0
M  V30 336 H 28.6778 3.55055 1.86379 0
M  V30 337 H 25.2678 4.24262 0.608238 0
M  V30 338 H 29.4518 4.96267 -0.0576019 0
M  V30 339 H 24.7078 6.03532 -0.977732 0
M  V30 340 H 28.8818 6.76834 -1.63917 0
M  V30 341 H 26.5088 7.30467 -2.10529 0
M  V30 342 N 28.0839 -0.256276 1.55502 0
M  V30 343 C 29.3119 -1.00342 1.8094 0
M  V30 344 C 29.7269 -1.79307 0.59114 0
M  V30 345 O 29.0839 -1.77114 -0.440081 0
M  V30 346 C 29.1349 -1.94875 3.04476 0
M  V30 347 O 28.8559 -1.19107 4.21598 0
M  V30 348 C 30.3569 -2.81266 3.42644 0
M  V30 349 H 27.5769 -0.295685 0.602338 0
M  V30 350 H 30.1209 -0.281998 2.02546 0
M  V30 351 H 28.2759 -2.62457 2.84947 0
M  V30 352 H 28.6899 -1.82969 4.91551 0
M  V30 353 H 30.1639 -3.43362 4.32211 0
M  V30 354 H 30.6409 -3.51897 2.62802 0
M  V30 355 H 31.2469 -2.1915 3.64491 0
M  V30 356 N 29.562 -1.4872 -0.521534 0
M  V30 357 C 30.808 -1.574 -1.27879 0
M  V30 358 C 31.141 -0.250817 -1.92573 0
M  V30 359 O 30.416 0.743934 -1.79711 0
M  V30 360 C 30.699 -2.71843 -2.36164 0
M  V30 361 C 30.552 -4.13893 -1.76105 0
M  V30 362 C 31.871 -2.82008 -3.37875 0
M  V30 363 H 28.99 -0.572941 -0.463581 0
M  V30 364 H 31.632 -1.80927 -0.580119 0
M  V30 365 H 29.782 -2.51914 -2.95756 0
M  V30 366 H 31.454 -4.45284 -1.20499 0
M  V30 367 H 29.697 -4.20498 -1.06601 0
M  V30 368 H 30.368 -4.89804 -2.5455 0
M  V30 369 H 32.844 -3.00086 -2.88249 0
M  V30 370 H 31.72 -3.63796 -4.11028 0
M  V30 371 H 31.981 -1.90511 -3.98946 0
M  V30 372 N 31.0401 0.771051 -1.3745 0
M  V30 373 C 32.2681 1.56015 -1.35893 0
M  V30 374 C 32.6831 1.88718 0.0555523 0
M  V30 375 O 32.0401 1.51502 1.01752 0
M  V30 376 C 32.0911 2.87001 -2.19801 0
M  V30 377 O 31.8121 2.557 -3.55738 0
M  V30 378 C 33.3131 3.81228 -2.26231 0
M  V30 379 H 30.5331 0.483317 -0.465453 0
M  V30 380 H 33.0771 0.955611 -1.80799 0
M  V30 381 H 31.2321 3.43877 -1.78402 0
M  V30 382 H 31.6461 3.39584 -3.99729 0
M  V30 383 H 33.1201 4.70139 -2.89263 0
M  V30 384 H 33.5971 4.20409 -1.27093 0
M  V30 385 H 34.2031 3.30281 -2.67945 0
M  V30 386 N 32.5182 1.22032 0.997298 0
M  V30 387 C 33.7642 1.04376 1.73878 0
M  V30 388 C 34.0972 -0.420716 1.89588 0
M  V30 389 O 33.3722 -1.31202 1.43583 0
M  V30 390 C 33.6552 1.75047 3.14691 0
M  V30 391 C 33.5082 3.29062 3.06656 0
M  V30 392 C 34.8272 1.49928 4.13775 0
M  V30 393 H 31.9462 0.380578 0.631133 0
M  V30 394 H 34.5882 1.50312 1.16217 0
M  V30 395 H 32.7382 1.35996 3.63919 0
M  V30 396 H 34.4102 3.7753 2.65083 0
M  V30 397 H 32.6532 3.58967 2.43568 0
M  V30 398 H 33.3242 3.73683 4.06282 0
M  V30 399 H 35.8002 1.83842 3.73285 0
M  V30 400 H 34.6762 2.01878 5.10428 0
M  V30 401 H 34.9372 0.430929 4.39995 0
M  V30 402 N 33.9963 -1.19345 1.0293 0
M  V30 403 C 35.4073 -1.70725 0.755633 0
M  V30 404 C 35.7583 -1.82326 -0.724676 0
M  V30 405 O 34.8833 -1.49471 -1.56484 0
M  V30 406 C 35.4783 -3.10084 1.36503 0
M  V30 407 C 34.0373 -3.58723 1.13994 0
M  V30 408 C 33.1843 -2.35577 1.46283 0
M  V30 409 H 36.1353 -1.0418 1.19718 0
M  V30 410 H 36.1563 -3.72787 0.762217 0
M  V30 411 H 35.6683 -3.01609 2.44241 0
M  V30 412 H 33.7693 -3.72512 0.0807901 0
M  V30 413 H 33.8823 -4.42816 1.82894 0
M  V30 414 H 32.2463 -2.38935 0.88217 0
M  V30 415 H 33.0293 -2.29731 2.55105 0
M  V30 416 N 35.4744 -0.807222 -1.35358 0
M  V30 417 C 36.4214 -0.216037 -2.29787 0
M  V30 418 C 37.3914 0.650278 -1.52842 0
M  V30 419 O 38.5764 0.595227 -1.81278 0
M  V30 420 C 35.7164 0.628893 -3.39321 0
M  V30 421 C 34.8294 -0.257927 -4.31229 0
M  V30 422 C 33.9644 0.595069 -5.27856 0
M  V30 423 C 33.0034 -0.292111 -6.11403 0
M  V30 424 N 32.1404 0.520895 -7.00165 0
M  V30 425 H 36.9804 -1.02671 -2.79755 0
M  V30 426 H 34.5174 -0.517839 -1.37684 0
M  V30 427 H 36.4754 1.13393 -4.01494 0
M  V30 428 H 35.1054 1.40482 -2.90628 0
M  V30 429 H 34.1574 -0.881076 -3.70056 0
M  V30 430 H 35.4694 -0.940759 -4.89848 0
M  V30 431 H 34.6234 1.16522 -5.95405 0
M  V30 432 H 33.3624 1.31146 -4.69736 0
M  V30 433 H 32.3674 -0.874525 -5.428 0
M  V30 434 H 33.5924 -1.00638 -6.71602 0
M  V30 435 H 31.5384 1.22125 -6.44532 0
M  V30 436 H 31.4554 -0.103877 -7.55929 0
M  V30 437 H 32.7234 1.0743 -7.72062 0
M  V30 438 N 36.9525 1.47285 -0.560781 0
M  V30 439 C 38.2295 1.9558 0.0277798 0
M  V30 440 C 38.6095 1.5034 1.48192 0
M  V30 441 O 37.9575 0.743882 2.16052 0
M  V30 442 C 38.1675 3.48789 -0.121418 0
M  V30 443 C 39.5155 4.24594 0.0220912 0
M  V30 444 O 40.5395 3.56166 -0.0491439 0
M  V30 445 O 39.3985 5.46217 0.175958 0
M  V30 446 H 36.4925 0.824663 0.0621342 0
M  V30 447 H 39.0385 1.5767 -0.627556 0
M  V30 448 H 37.8105 3.74533 -1.13316 0
M  V30 449 H 37.4335 3.93473 0.571366 0
M  V30 450 N 38.4306 0.297415 1.54768 0
M  V30 451 C 39.3606 -0.573494 2.26348 0
M  V30 452 C 40.3416 -1.14085 1.26169 0
M  V30 453 O 41.5266 -1.17086 1.54934 0
M  V30 454 C 38.6566 -1.74716 3.00153 0
M  V30 455 C 37.6106 -1.31032 4.07449 0
M  V30 456 C 36.9366 -2.56887 4.68949 0
M  V30 457 C 38.2366 -0.444183 5.20408 0
M  V30 458 H 39.9306 0.0235131 2.99391 0
M  V30 459 H 37.4766 0.0127488 1.43994 0
M  V30 460 H 39.4296 -2.3625 3.48947 0
M  V30 461 H 38.1536 -2.37035 2.24682 0
M  V30 462 H 36.8126 -0.718066 3.59499 0
M  V30 463 H 36.4606 -3.17512 3.90122 0
M  V30 464 H 36.1606 -2.2836 5.41411 0
M  V30 465 H 37.6846 -3.19229 5.20505 0
M  V30 466 H 39.0986 -0.9651 5.65118 0
M  V30 467 H 37.4956 -0.252846 5.99567 0
M  V30 468 H 38.5656 0.531609 4.81977 0
M  V30 469 N 39.9087 -1.5758 0.0250728 0
M  V30 470 C 41.1387 -1.95646 -0.663783 0
M  V30 471 C 41.5467 -0.899935 -1.66427 0
M  V30 472 O 40.8897 0.127191 -1.83259 0
M  V30 473 C 40.9517 -3.29835 -1.43 0
M  V30 474 C 40.6157 -4.53197 -0.588305 0
M  V30 475 C 41.6127 -5.19726 0.13469 0
M  V30 476 C 39.2977 -4.99529 -0.526897 0
M  V30 477 C 41.2917 -6.30902 0.90781 0
M  V30 478 C 38.9787 -6.10589 0.24993 0
M  V30 479 C 39.9767 -6.76134 0.965994 0
M  V30 480 O 39.6647 -7.85062 1.7301 0
M  V30 481 H 39.3967 -0.649282 -0.188174 0
M  V30 482 H 41.9507 -2.05245 0.0799006 0
M  V30 483 H 40.1807 -3.16716 -2.21873 0
M  V30 484 H 41.8697 -3.52833 -2.00658 0
M  V30 485 H 42.6357 -4.84904 0.0965562 0
M  V30 486 H 38.5147 -4.48319 -1.07381 0
M  V30 487 H 42.0587 -6.81995 1.46724 0
M  V30 488 H 37.9557 -6.44849 0.289795 0
M  V30 489 H 38.7237 -8.01708 1.64944 0
M  V30 490 N 41.3868 0.248026 -1.55636 0
M  V30 491 C 42.6328 0.97767 -1.77678 0
M  V30 492 C 42.9658 1.85016 -0.590135 0
M  V30 493 O 42.2408 1.90095 0.411611 0
M  V30 494 C 42.5238 1.83914 -3.09593 0
M  V30 495 C 42.3768 0.99491 -4.38659 0
M  V30 496 C 43.6958 2.82183 -3.37729 0
M  V30 497 H 40.8148 0.354005 -0.646413 0
M  V30 498 H 43.4568 0.248253 -1.88371 0
M  V30 499 H 41.6068 2.46104 -3.00608 0
M  V30 500 H 43.2788 0.391789 -4.59633 0
M  V30 501 H 41.5218 0.299231 -4.32767 0
M  V30 502 H 42.1928 1.63145 -5.2734 0
M  V30 503 H 44.6688 2.30129 -3.4667 0
M  V30 504 H 43.5448 3.39582 -4.31249 0
M  V30 505 H 43.8058 3.58588 -2.58586 0
M  V30 506 N 42.8649 1.48995 0.513639 0
M  V30 507 C 44.1109 1.58076 1.27042 0
M  V30 508 C 44.4439 0.261026 1.92438 0
M  V30 509 O 43.7189 -0.734393 1.80103 0
M  V30 510 C 44.0019 2.73091 2.34719 0
M  V30 511 C 43.8549 4.14821 1.73907 0
M  V30 512 C 45.1739 2.83796 3.36375 0
M  V30 513 H 42.2929 0.575391 0.460536 0
M  V30 514 H 44.9349 1.81232 0.570516 0
M  V30 515 H 43.0849 2.53479 2.94416 0
M  V30 516 H 44.7569 4.45917 1.18135 0
M  V30 517 H 42.9999 4.21058 1.0437 0
M  V30 518 H 43.6709 4.91147 2.51949 0
M  V30 519 H 46.1469 3.01611 2.86653 0
M  V30 520 H 45.0229 3.65971 4.09093 0
M  V30 521 H 45.2839 1.92624 3.9793 0
M  V30 522 N 44.343 -0.763751 1.37857 0
M  V30 523 C 45.253 -1.90817 1.36478 0
M  V30 524 C 46.269 -1.71997 0.263248 0
M  V30 525 O 47.445 -1.95095 0.499979 0
M  V30 526 C 44.51 -3.2605 1.17864 0
M  V30 527 C 43.571 -3.57467 2.3773 0
M  V30 528 C 42.804 -4.86249 2.19995 0
M  V30 529 O 43.027 -5.57884 1.18836 0
M  V30 530 O 41.961 -5.16911 3.08361 0
M  V30 531 H 45.787 -1.94933 2.32884 0
M  V30 532 H 43.372 -0.907619 1.1867 0
M  V30 533 H 45.254 -4.06924 1.09504 0
M  V30 534 H 43.929 -3.22769 0.245372 0
M  V30 535 H 42.836 -2.76796 2.51664 0
M  V30 536 H 44.169 -3.655 3.29652 0
M  V30 537 N 45.8211 -1.22559 -0.990812 0
M  V30 538 C 47.0511 -1.07623 -1.76355 0
M  V30 539 C 47.4591 0.37601 -1.85426 0
M  V30 540 O 46.8021 1.27228 -1.32509 0
M  V30 541 C 46.8641 -1.61507 -3.21179 0
M  V30 542 C 46.5281 -3.10146 -3.35646 0
M  V30 543 C 47.5251 -4.07553 -3.22796 0
M  V30 544 C 45.2101 -3.49644 -3.60631 0
M  V30 545 C 47.2041 -5.42442 -3.34716 0
M  V30 546 C 44.8911 -4.84682 -3.72192 0
M  V30 547 C 45.8891 -5.8089 -3.59243 0
M  V30 548 O 45.5771 -7.13476 -3.70415 0
M  V30 549 H 45.3091 -0.377745 -0.560611 0
M  V30 550 H 47.8631 -1.62658 -1.25425 0
M  V30 551 H 46.0931 -1.00881 -3.73309 0
M  V30 552 H 47.7821 -1.42202 -3.80175 0
M  V30 553 H 48.5481 -3.78381 -3.03403 0
M  V30 554 H 44.4271 -2.75282 -3.69785 0
M  V30 555 H 47.9711 -6.17518 -3.24526 0
M  V30 556 H 43.8681 -5.13534 -3.91092 0
M  V30 557 H 44.6361 -7.21083 -3.87275 0
M  V30 558 N 47.2992 1.18797 -1.03562 0
M  V30 559 C 48.5472 1.88278 -0.734569 0
M  V30 560 C 48.8682 1.8043 0.739586 0
M  V30 561 O 48.1382 1.21925 1.53333 0
M  V30 562 H 46.7182 0.696991 -0.268725 0
M  V30 563 H 49.3802 1.44192 -1.31129 0
M  V30 564 H 48.4762 2.94443 -1.03489 0
M  V30 565 N 48.7773 0.814389 1.34928 0
M  V30 566 C 50.0023 0.410097 2.03305 0
M  V30 567 C 50.4273 -0.973464 1.60951 0
M  V30 568 O 49.7853 -1.63185 0.789964 0
M  V30 569 C 49.8333 0.51049 3.56968 0
M  V30 570 O 48.9373 -0.473035 4.09678 0
M  V30 571 H 48.2783 0.170088 0.641846 0
M  V30 572 H 50.8083 1.10244 1.72358 0
M  V30 573 H 50.8183 0.383135 4.06197 0
M  V30 574 H 49.4933 1.51963 3.87144 0
M  V30 575 H 48.0703 -0.305272 3.71648 0
M  V30 576 N 50.2554 -1.46986 0.568584 0
M  V30 577 C 51.2034 -2.31858 -0.185649 0
M  V30 578 C 52.1974 -1.43624 -0.898249 0
M  V30 579 O 53.4034 -1.60327 -0.818242 0
M  V30 580 H 49.7784 -0.747866 -0.0787399 0
M  V30 581 H 51.7494 -2.93303 0.549191 0
M  V30 582 C 50.4984 -3.26513 -1.19519 0
M  V30 583 H 49.8214 -3.94377 -0.656285 0
M  V30 584 H 51.2614 -3.88707 -1.6936 0
M  V30 585 C 49.7204 -2.50847 -2.24894 0
M  V30 586 O 50.2504 -2.26119 -3.32014 0
M  V30 587 N 48.4564 -2.11656 -1.99124 0
M  V30 588 H 48.0034 -2.31966 -1.12024 0
M  V30 589 H 47.9614 -1.61347 -2.69842 0
M  V30 590 N 51.7335 -0.305618 -1.54608 0
M  V30 591 C 52.6665 0.610536 -2.19881 0
M  V30 592 C 53.6445 1.1294 -1.16976 0
M  V30 593 O 54.8285 1.19673 -1.45638 0
M  V30 594 C 51.9555 1.83583 -2.84631 0
M  V30 595 C 51.0015 1.4498 -4.01102 0
M  V30 596 S 51.8345 0.501793 -5.33144 0
M  V30 597 C 52.9905 1.73478 -6.01379 0
M  V30 598 H 53.2235 0.0560177 -2.97247 0
M  V30 599 H 50.7565 -0.0897434 -1.54139 0
M  V30 600 H 52.7145 2.53898 -3.22562 0
M  V30 601 H 51.3755 2.36152 -2.07102 0
M  V30 602 H 50.5685 2.36236 -4.45206 0
M  V30 603 H 50.1705 0.826553 -3.64752 0
M  V30 604 H 52.4625 2.67473 -6.22467 0
M  V30 605 H 53.4055 1.33622 -6.95378 0
M  V30 606 H 53.8135 1.9136 -5.31076 0
M  V30 607 N 53.2116 1.57565 -0.0334293 0
M  V30 608 C 54.4396 1.9628 0.654347 0
M  V30 609 C 54.8546 0.910138 1.65414 0
M  V30 610 O 54.2116 -0.107595 1.82183 0
M  V30 611 C 54.2626 3.35067 1.35693 0
M  V30 612 O 53.9836 4.36296 0.397191 0
M  V30 613 C 55.4846 3.88439 2.13613 0
M  V30 614 H 52.7046 0.646369 0.180132 0
M  V30 615 H 55.2486 2.04282 -0.0944721 0
M  V30 616 H 53.4036 3.2827 2.05712 0
M  V30 617 H 53.8176 5.1678 0.896597 0
M  V30 618 H 55.2916 4.8788 2.58219 0
M  V30 619 H 55.7686 3.22914 2.97696 0
M  V30 620 H 56.3746 3.98516 1.48543 0
M  V30 621 N 54.6897 -0.239769 1.55765 0
M  V30 622 C 55.9387 -0.964754 1.77131 0
M  V30 623 C 56.2517 -1.86213 0.59868 0
M  V30 624 O 57.4577 -2.6244 0.695522 0
M  V30 625 C 55.9137 -1.76552 3.1362 0
M  V30 626 C 55.5217 -0.915185 4.38553 0
M  V30 627 C 57.2657 -2.48281 3.44321 0
M  V30 628 C 55.1727 -1.71225 5.66071 0
M  V30 629 H 54.1027 -0.363953 0.660344 0
M  V30 630 H 56.7537 -0.219181 1.82186 0
M  V30 631 H 55.1357 -2.55331 3.02691 0
M  V30 632 H 56.3097 -0.169217 4.60489 0
M  V30 633 H 54.6247 -0.310889 4.15238 0
M  V30 634 H 57.2217 -3.08382 4.36812 0
M  V30 635 H 57.5647 -3.20256 2.65973 0
M  V30 636 H 58.0977 -1.76507 3.56497 0
M  V30 637 H 54.8367 -1.03612 6.4726 0
M  V30 638 H 54.3567 -2.43331 5.48224 0
M  V30 639 H 56.0357 -2.27758 6.05587 0
M  V30 640 N 56.1678 -1.49265 -0.50573 0
M  V30 641 C 57.0778 -1.68312 -1.63427 0
M  V30 642 C 58.0938 -0.565682 -1.64548 0
M  V30 643 O 59.2698 -0.839801 -1.83055 0
M  V30 644 C 56.3348 -1.74107 -2.99813 0
M  V30 645 C 55.3958 -2.97653 -3.09356 0
M  V30 646 C 54.6288 -3.03163 -4.39236 0
M  V30 647 O 54.8518 -2.16396 -5.27758 0
M  V30 648 O 53.7858 -3.9558 -4.53652 0
M  V30 649 H 57.6118 -2.63907 -1.50289 0
M  V30 650 H 55.1968 -1.32951 -0.681502 0
M  V30 651 H 57.0788 -1.803 -3.80881 0
M  V30 652 H 55.7538 -0.816901 -3.13223 0
M  V30 653 H 54.6608 -2.96981 -2.27493 0
M  V30 654 H 55.9938 -3.89535 -3.00871 0
M  V30 655 N 57.6459 0.756429 -1.3826 0
M  V30 656 C 58.8859 1.52833 -1.35725 0
M  V30 657 C 59.2499 1.91926 0.0534106 0
M  V30 658 O 60.4509 2.68028 0.203613 0
M  V30 659 C 58.7219 2.74919 -2.28373 0
M  V30 660 S 60.2809 3.64817 -2.43832 0
M  V30 661 H 57.0989 0.523043 -0.481608 0
M  V30 662 H 59.7009 0.888212 -1.74158 0
M  V30 663 H 58.4049 2.44304 -3.29763 0
M  V30 664 H 57.9359 3.43878 -1.91079 0
M  V30 665 H 59.9509 4.676 -1.66027 0
M  V30 666 N 59.124 1.23083 0.984299 0
M  V30 667 C 60.071 1.00854 2.07598 0
M  V30 668 C 61.041 -0.0726709 1.65941 0
M  V30 669 O 62.226 0.0786535 1.90638 0
M  V30 670 C 59.366 0.601645 3.39815 0
M  V30 671 C 58.479 1.75456 3.94765 0
M  V30 672 C 57.614 1.29482 5.15177 0
M  V30 673 C 56.653 2.41873 5.62284 0
M  V30 674 N 55.79 1.96885 6.73929 0
M  V30 675 H 60.63 1.943 2.25946 0
M  V30 676 H 58.167 0.968001 1.10762 0
M  V30 677 H 60.125 0.346854 4.15756 0
M  V30 678 H 58.755 -0.295803 3.21442 0
M  V30 679 H 57.807 2.12346 3.15616 0
M  V30 680 H 59.119 2.59965 4.25699 0
M  V30 681 H 58.273 0.997923 5.98437 0
M  V30 682 H 57.012 0.420046 4.85888 0
M  V30 683 H 56.017 2.72342 4.77608 0
M  V30 684 H 57.242 3.29881 5.93595 0
M  V30 685 H 55.188 1.11782 6.46406 0
M  V30 686 H 55.105 2.74956 7.04227 0
M  V30 687 H 56.373 1.70289 7.60672 0
M  V30 688 N 60.6021 -1.18246 1.0419 0
M  V30 689 C 61.8491 -1.88257 0.746017 0
M  V30 690 C 62.1771 -1.80429 -0.726331 0
M  V30 691 O 61.4321 -1.2 -1.54591 0
M  V30 692 C 61.7311 -3.38082 1.15911 0
M  V30 693 C 61.3971 -3.66114 2.63195 0
M  V30 694 C 60.0591 -3.73474 3.03432 0
M  V30 695 C 62.4111 -3.78398 3.5842 0
M  V30 696 C 59.7391 -3.90599 4.37778 0
M  V30 697 C 62.0911 -3.97039 4.92487 0
M  V30 698 C 60.7551 -4.02635 5.32392 0
M  V30 699 H 60.0251 -0.688883 0.272987 0
M  V30 700 H 62.6721 -1.3995 1.30715 0
M  V30 701 H 60.9771 -3.88377 0.516806 0
M  V30 702 H 62.6741 -3.90596 0.907516 0
M  V30 703 H 59.2641 -3.61003 2.3103 0
M  V30 704 H 63.4481 -3.72042 3.28479 0
M  V30 705 H 58.7041 -3.93175 4.68213 0
M  V30 706 H 62.8781 -4.05486 5.66175 0
M  V30 707 H 60.5051 -4.15657 6.36501 0
M  V30 708 N 62.0802 -0.821533 -1.34494 0
M  V30 709 C 63.4912 -0.467956 -1.8074 0
M  V30 710 C 63.8422 1.01151 -1.68116 0
M  V30 711 O 62.9672 1.78707 -1.22036 0
M  V30 712 C 63.5622 -0.842627 -3.28154 0
M  V30 713 C 62.1212 -0.541439 -3.72485 0
M  V30 714 C 61.2682 -1.06028 -2.56229 0
M  V30 715 H 64.2192 -1.01183 -1.22261 0
M  V30 716 H 64.2402 -0.145876 -3.8022 0
M  V30 717 H 63.7522 -1.91945 -3.37311 0
M  V30 718 H 61.8532 0.526034 -3.68868 0
M  V30 719 H 61.9662 -1.08453 -4.66663 0
M  V30 720 H 60.3302 -0.481892 -2.501 0
M  V30 721 H 61.1132 -2.14352 -2.68157 0
M  V30 722 N 63.5583 1.46682 -0.576371 0
M  V30 723 C 64.8043 2.02712 -0.0596221 0
M  V30 724 C 65.1373 1.44765 1.29448 0
M  V30 725 O 64.4123 0.610355 1.84675 0
M  V30 726 C 64.6953 3.60098 0.0129503 0
M  V30 727 C 64.5483 4.28441 -1.3696 0
M  V30 728 C 65.8673 4.34224 0.71678 0
M  V30 729 H 62.9863 0.736637 -0.0231407 0
M  V30 730 H 65.6283 1.74898 -0.742351 0
M  V30 731 H 63.7783 3.83926 0.594378 0
M  V30 732 H 65.4503 4.15896 -1.9957 0
M  V30 733 H 63.6933 3.8805 -1.93907 0
M  V30 734 H 64.3643 5.3716 -1.27135 0
M  V30 735 H 66.8403 4.15503 0.222908 0
M  V30 736 H 65.7163 5.43936 0.73657 0
M  V30 737 H 65.9773 4.04823 1.77682 0
M  V30 738 N 65.0364 0.313813 1.54444 0
M  V30 739 C 65.9464 -0.565714 2.27677 0
M  V30 740 C 66.9624 -1.13754 1.31666 0
M  V30 741 O 68.1384 -1.15959 1.64668 0
M  V30 742 C 65.2034 -1.71528 3.01296 0
M  V30 743 C 64.2644 -1.17624 4.12872 0
M  V30 744 C 63.4974 -2.27102 4.8297 0
M  V30 745 O 63.7204 -3.47256 4.52514 0
M  V30 746 O 62.6544 -1.9307 5.70094 0
M  V30 747 H 66.4804 0.0287296 3.03686 0
M  V30 748 H 64.0654 0.0798312 1.49187 0
M  V30 749 H 65.9474 -2.38476 3.4743 0
M  V30 750 H 64.6224 -2.29608 2.2817 0
M  V30 751 H 63.5294 -0.472124 3.71109 0
M  V30 752 H 64.8624 -0.640695 4.88012 0
M  V30 753 N 66.5145 -1.57545 0.0417849 0
M  V30 754 C 67.4615 -2.10977 -0.935805 0
M  V30 755 C 68.4315 -1.01486 -1.31491 0
M  V30 756 O 69.6165 -1.2898 -1.40602 0
M  V30 757 C 66.7565 -2.65169 -2.2086 0
M  V30 758 C 65.8695 -3.88714 -1.88482 0
M  V30 759 C 65.0045 -4.31254 -3.1015 0
M  V30 760 C 64.0435 -5.47524 -2.7365 0
M  V30 761 N 63.1805 -5.85162 -3.87982 0
M  V30 762 H 68.0205 -2.94218 -0.473249 0
M  V30 763 H 65.5575 -1.45415 -0.221981 0
M  V30 764 H 67.5155 -2.94685 -2.95325 0
M  V30 765 H 66.1455 -1.8474 -2.64709 0
M  V30 766 H 65.1975 -3.65849 -1.04205 0
M  V30 767 H 66.5095 -4.73245 -1.57608 0
M  V30 768 H 65.6635 -4.62273 -3.92923 0
M  V30 769 H 64.4025 -3.45516 -3.44195 0
M  V30 770 H 63.4075 -5.16187 -1.89291 0
M  V30 771 H 64.6325 -6.34971 -2.40807 0
M  V30 772 H 62.5785 -5.02377 -4.21846 0
M  V30 773 H 62.4955 -6.64362 -3.60775 0
M  V30 774 H 63.7635 -6.20791 -4.71422 0
M  V30 775 N 67.9926 0.231505 -1.5589 0
M  V30 776 C 68.9246 1.31006 -1.8807 0
M  V30 777 C 69.9376 1.43539 -0.768145 0
M  V30 778 O 71.1266 1.44614 -1.04638 0
M  V30 779 C 68.2266 2.68688 -2.06543 0
M  V30 780 C 67.3996 2.78228 -3.37502 0
M  V30 781 C 66.4586 3.96857 -3.4553 0
M  V30 782 O 65.4846 3.85662 -4.18633 0
M  V30 783 N 66.6866 5.1072 -2.75944 0
M  V30 784 H 69.4516 1.03731 -2.81176 0
M  V30 785 H 67.0126 0.421573 -1.56315 0
M  V30 786 H 69.0046 3.46412 -2.09239 0
M  V30 787 H 67.5746 2.88605 -1.20109 0
M  V30 788 H 66.7946 1.87059 -3.46991 0
M  V30 789 H 68.0826 2.81564 -4.23791 0
M  V30 790 H 67.4806 5.2271 -2.16311 0
M  V30 791 H 66.0376 5.86523 -2.84314 0
M  V30 792 N 69.4707 1.49531 0.497807 0
M  V30 793 C 70.4007 1.6935 1.60757 0
M  V30 794 C 71.3817 0.542218 1.61227 0
M  V30 795 O 72.5667 0.778417 1.77917 0
M  V30 796 C 69.6967 1.76298 2.99226 0
M  V30 797 C 68.6507 2.91248 3.13622 0
M  V30 798 C 67.9767 2.83312 4.53474 0
M  V30 799 C 69.2767 4.3214 2.93346 0
M  V30 800 H 70.9707 2.62263 1.44425 0
M  V30 801 H 68.5167 1.26208 0.693367 0
M  V30 802 H 70.4697 1.88749 3.76765 0
M  V30 803 H 69.1937 0.799871 3.16654 0
M  V30 804 H 67.8527 2.78404 2.38509 0
M  V30 805 H 67.5007 1.84902 4.67782 0
M  V30 806 H 67.2007 3.60465 4.64046 0
M  V30 807 H 68.7247 2.97775 5.33069 0
M  V30 808 H 70.1387 4.45649 3.60652 0
M  V30 809 H 68.5357 5.1054 3.15387 0
M  V30 810 H 69.6057 4.46363 1.89441 0
M  V30 811 N 70.9488 -0.749086 1.3866 0
M  V30 812 C 72.2258 -1.4992 1.25632 0
M  V30 813 C 72.6058 -2.10633 -0.140317 0
M  V30 814 O 71.9538 -1.97437 -1.15025 0
M  V30 815 C 72.1638 -2.56195 2.36992 0
M  V30 816 C 73.5118 -3.22972 2.75634 0
M  V30 817 O 74.5358 -2.66502 2.36337 0
M  V30 818 O 73.3948 -4.25122 3.43415 0
M  V30 819 H 70.4888 -0.665067 0.491544 0
M  V30 820 H 73.0348 -0.784113 1.50498 0
M  V30 821 H 71.8068 -2.09612 3.30422 0
M  V30 822 H 71.4298 -3.35279 2.13714 0
M  V30 823 N 72.4269 -1.23603 -0.977757 0
M  V30 824 C 73.3569 -1.04401 -2.0886 0
M  V30 825 C 74.3379 0.0399052 -1.70053 0
M  V30 826 O 75.5229 -0.125246 -1.93796 0
M  V30 827 C 72.6529 -0.637269 -3.41403 0
M  V30 828 C 71.6069 -1.66883 -3.94124 0
M  V30 829 C 70.9329 -1.11745 -5.22893 0
M  V30 830 C 72.2329 -3.06247 -4.23096 0
M  V30 831 H 73.9269 -1.97316 -2.25182 0
M  V30 832 H 71.4729 -0.950096 -1.08209 0
M  V30 833 H 73.4259 -0.48998 -4.18542 0
M  V30 834 H 72.1499 0.327557 -3.24953 0
M  V30 835 H 70.8089 -1.80416 -3.19133 0
M  V30 836 H 70.4569 -0.143527 -5.02795 0
M  V30 837 H 70.1569 -1.80672 -5.59134 0
M  V30 838 H 71.6809 -0.982067 -6.02651 0
M  V30 839 H 73.0949 -2.96001 -4.90975 0
M  V30 840 H 71.4919 -3.72436 -4.70544 0
M  V30 841 H 72.5619 -3.55041 -3.30263 0
M  V30 842 N 73.905 1.17692 -1.04816 0
M  V30 843 C 74.868 2.19787 -0.650117 0
M  V30 844 C 75.868 1.58044 0.296427 0
M  V30 845 O 77.058 1.74012 0.0808097 0
M  V30 846 C 74.19 3.40869 0.0456987 0
M  V30 847 H 75.383 2.56516 -1.5537 0
M  V30 848 H 72.936 1.31708 -0.841594 0
M  V30 849 H 73.671 3.09681 0.962726 0
M  V30 850 H 73.456 3.86928 -0.634727 0
M  V30 851 H 74.946 4.16445 0.310432 0
M  V30 852 N 75.3831 0.828654 1.34056 0
M  V30 853 C 76.3461 0.259927 2.27721 0
M  V30 854 C 77.3461 -0.565478 1.50529 0
M  V30 855 O 78.5361 -0.38075 1.69988 0
M  V30 856 C 75.6681 -0.634944 3.34935 0
M  V30 857 H 76.8611 1.0863 2.79534 0
M  V30 858 H 74.4141 0.600951 1.44285 0
M  V30 859 H 75.1491 -1.48416 2.88346 0
M  V30 860 H 74.9341 -0.0444999 3.92075 0
M  V30 861 H 76.4241 -1.02648 4.04788 0
M  V30 862 N 76.8612 -1.46375 0.584142 0
M  V30 863 C 77.7912 -2.33103 -0.136037 0
M  V30 864 C 78.7722 -1.45431 -0.882255 0
M  V30 865 O 79.9572 -1.74246 -0.857434 0
M  V30 866 C 77.0872 -3.27731 -1.14933 0
M  V30 867 C 76.0412 -4.24855 -0.517862 0
M  V30 868 C 75.3672 -5.09001 -1.63773 0
M  V30 869 C 76.6672 -5.19439 0.545886 0
M  V30 870 H 78.3612 -2.93568 0.588086 0
M  V30 871 H 75.9072 -1.41166 0.284259 0
M  V30 872 H 77.8602 -3.87261 -1.66153 0
M  V30 873 H 76.5842 -2.65377 -1.90375 0
M  V30 874 H 75.2432 -3.6659 -0.0267361 0
M  V30 875 H 74.8912 -4.43031 -2.38185 0
M  V30 876 H 74.5912 -5.74777 -1.22085 0
M  V30 877 H 76.1152 -5.71396 -2.15266 0
M  V30 878 H 77.5292 -5.73177 0.118704 0
M  V30 879 H 75.9262 -5.93566 0.88317 0
M  V30 880 H 76.9962 -4.63285 1.43162 0
M  V30 881 N 78.3393 -0.321999 -1.54275 0
M  V30 882 C 79.5883 0.281931 -1.9972 0
M  V30 883 C 79.9013 1.53369 -1.21397 0
M  V30 884 O 81.1073 2.21352 -1.57211 0
M  V30 885 C 79.5633 0.5529 -3.55628 0
M  V30 886 C 79.1713 -0.681721 -4.42783 0
M  V30 887 C 80.9153 1.11687 -4.09544 0
M  V30 888 C 78.8223 -0.382742 -5.9016 0
M  V30 889 H 77.7523 0.109124 -0.746062 0
M  V30 890 H 80.4033 -0.43398 -1.78294 0
M  V30 891 H 78.7853 1.32896 -3.73035 0
M  V30 892 H 79.9593 -1.45723 -4.37151 0
M  V30 893 H 78.2743 -1.1658 -3.99748 0
M  V30 894 H 80.8713 1.35515 -5.17242 0
M  V30 895 H 81.2143 2.06575 -3.61431 0
M  V30 896 H 81.7473 0.402032 -3.95763 0
M  V30 897 H 78.4863 -1.30076 -6.42464 0
M  V30 898 H 78.0063 0.355094 -5.98748 0
M  V30 899 H 79.6853 0.00800157 -6.47 0
M  V30 900 N 79.8174 1.5752 -0.0501392 0
M  V30 901 C 81.0634 1.92936 0.624798 0
M  V30 902 C 81.3964 0.928685 1.70555 0
M  V30 903 O 80.6714 -0.0454779 1.94447 0
M  V30 904 C 80.9544 3.38737 1.22185 0
M  V30 905 C 80.8074 4.49552 0.149218 0
M  V30 906 C 82.1264 3.84913 2.13378 0
M  V30 907 H 79.2454 0.701604 0.225657 0
M  V30 908 H 81.8874 1.89671 -0.111693 0
M  V30 909 H 80.0374 3.4165 1.84953 0
M  V30 910 H 81.7094 4.58768 -0.482648 0
M  V30 911 H 79.9524 4.30638 -0.522841 0
M  V30 912 H 80.6234 5.48653 0.606966 0
M  V30 913 H 83.0994 3.8387 1.60572 0
M  V30 914 H 81.9754 4.87584 2.52097 0
M  V30 915 H 82.2364 3.21611 3.03346 0
M  V30 916 N 81.2955 -0.223234 1.56011 0
M  V30 917 C 82.5255 -0.963413 1.82762 0
M  V30 918 C 82.9335 -1.78516 0.626804 0
M  V30 919 O 82.2765 -1.78974 -0.414014 0
M  V30 920 C 82.3385 -1.93126 3.0322 0
M  V30 921 C 82.0025 -1.2942 4.38291 0
M  V30 922 C 82.9995 -0.684916 5.15369 0
M  V30 923 C 80.6845 -1.30647 4.85012 0
M  V30 924 C 82.6785 -0.0963971 6.37327 0
M  V30 925 C 80.3655 -0.71411 6.06913 0
M  V30 926 C 81.3635 -0.110123 6.82911 0
M  V30 927 O 81.0515 0.47303 8.02507 0
M  V30 928 H 80.7835 -0.288011 0.611576 0
M  V30 929 H 83.3375 -0.244103 2.03944 0
M  V30 930 H 81.5675 -2.68952 2.77852 0
M  V30 931 H 83.2565 -2.53685 3.16857 0
M  V30 932 H 84.0225 -0.667774 4.80381 0
M  V30 933 H 79.9015 -1.76598 4.25833 0
M  V30 934 H 83.4455 0.375657 6.96588 0
M  V30 935 H 79.3425 -0.728659 6.41374 0
M  V30 936 H 80.1105 0.367186 8.17676 0
M  V30 937 N 82.7736 -1.49793 -0.48987 0
M  V30 938 C 84.0196 -1.61049 -1.24236 0
M  V30 939 C 84.3746 -0.298412 -1.90072 0
M  V30 940 O 83.6676 0.702262 -1.78266 0
M  V30 941 C 83.8616 -2.71488 -2.32441 0
M  V30 942 C 83.6906 -4.13308 -1.77218 0
M  V30 943 C 82.4606 -4.79955 -1.58023 0
M  V30 944 C 84.6586 -4.98176 -1.27772 0
M  V30 945 N 82.6406 -6.06052 -0.978465 0
M  V30 946 C 84.0116 -6.14843 -0.798 0
M  V30 947 C 86.0666 -4.84091 -1.16449 0
M  V30 948 C 84.7696 -7.18975 -0.216245 0
M  V30 949 C 86.7956 -5.88382 -0.596698 0
M  V30 950 C 86.1576 -7.04285 -0.127262 0
M  V30 951 H 82.2566 -0.643611 -0.444172 0
M  V30 952 H 84.8406 -1.86842 -0.54754 0
M  V30 953 H 83.0116 -2.47449 -2.99372 0
M  V30 954 H 84.7436 -2.72205 -2.99477 0
M  V30 955 H 81.4986 -4.36936 -1.82712 0
M  V30 956 H 81.9226 -6.73407 -0.696534 0
M  V30 957 H 86.5646 -3.94786 -1.5134 0
M  V30 958 H 84.2826 -8.0797 0.144903 0
M  V30 959 H 87.8686 -5.79545 -0.511716 0
M  V30 960 H 86.7486 -7.83606 0.30523 0
M  V30 961 N 84.2517 0.741722 -1.39055 0
M  V30 962 C 85.1617 1.88621 -1.39496 0
M  V30 963 C 86.1777 1.71557 -0.290578 0
M  V30 964 O 87.3537 1.94275 -0.530954 0
M  V30 965 C 84.4187 3.24134 -1.23037 0
M  V30 966 C 83.4797 3.5364 -2.43387 0
M  V30 967 C 82.7127 4.82687 -2.27703 0
M  V30 968 O 82.9357 5.55922 -1.27696 0
M  V30 969 O 81.8697 5.1194 -3.16545 0
M  V30 970 H 85.6957 1.91203 -2.35956 0
M  V30 971 H 83.2807 0.888625 -1.20099 0
M  V30 972 H 85.1627 4.0513 -1.15964 0
M  V30 973 H 83.8377 3.22337 -0.296691 0
M  V30 974 H 82.7447 2.72758 -2.56035 0
M  V30 975 H 84.0777 3.60209 -3.35425 0
M  V30 976 N 85.7298 1.2412 0.971189 0
M  V30 977 C 86.6628 0.97373 2.06382 0
M  V30 978 C 87.6408 -0.0912662 1.62344 0
M  V30 979 O 88.8248 0.0449365 1.88446 0
M  V30 980 C 85.9518 0.468746 3.35441 0
M  V30 981 C 84.9978 1.52176 3.98428 0
M  V30 982 S 85.8308 3.10203 4.36503 0
M  V30 983 C 86.9868 2.61398 5.68702 0
M  V30 984 H 87.2198 1.89893 2.28753 0
M  V30 985 H 84.7528 1.07466 1.10862 0
M  V30 986 H 86.7108 0.184012 4.10087 0
M  V30 987 H 85.3718 -0.435688 3.11064 0
M  V30 988 H 84.5648 1.11876 4.91426 0
M  V30 989 H 84.1668 1.75632 3.30196 0
M  V30 990 H 86.4588 2.03992 6.4606 0
M  V30 991 H 87.4018 3.52972 6.13854 0
M  V30 992 H 87.8098 2.01941 5.27143 0
M  V30 993 N 87.2079 -1.17134 1.05439 0
M  V30 994 C 88.1179 -2.24878 0.668365 0
M  V30 995 C 89.1339 -1.71186 -0.311687 0
M  V30 996 O 90.3099 -2.00738 -0.163161 0
M  V30 997 C 87.3749 -3.46662 0.051648 0
M  V30 998 C 86.4359 -4.15429 1.08246 0
M  V30 999 C 85.6689 -5.31399 0.495082 0
M  V30 1000 O 85.8919 -5.66153 -0.694743 0
M  V30 1001 O 84.8259 -5.89187 1.23056 0
M  V30 1002 H 88.6519 -2.60189 1.56637 0
M  V30 1003 H 86.2369 -1.24482 0.826104 0
M  V30 1004 H 88.1189 -4.20394 -0.290966 0
M  V30 1005 H 86.7939 -3.13142 -0.819971 0
M  V30 1006 H 85.7009 -3.43704 1.47711 0
M  V30 1007 H 87.0339 -4.52982 1.92532 0
M  V30 1008 N 88.686 -0.835752 -1.33615 0
M  V30 1009 C 89.963 -0.352017 -1.92406 0
M  V30 1010 C 90.343 1.16225 -1.76224 0
M  V30 1011 O 89.691 1.97526 -1.14873 0
M  V30 1012 C 89.901 -0.795485 -3.39813 0
M  V30 1013 C 91.249 -0.801703 -4.16963 0
M  V30 1014 O 92.273 -0.738889 -3.48452 0
M  V30 1015 O 91.132 -0.886607 -5.3926 0
M  V30 1016 H 88.226 -0.0989641 -0.821057 0
M  V30 1017 H 90.772 -0.921397 -1.42507 0
M  V30 1018 H 89.544 -1.83795 -3.45449 0
M  V30 1019 H 89.167 -0.202505 -3.97084 0
M  V30 1020 N 90.1641 1.46063 -0.591896 0
M  V30 1021 C 91.1111 2.30399 0.136069 0
M  V30 1022 C 92.0811 1.41169 0.875238 0
M  V30 1023 O 93.2661 1.70112 0.86409 0
M  V30 1024 C 90.4061 3.25804 1.13781 0
M  V30 1025 C 89.5191 4.30134 0.401137 0
M  V30 1026 C 88.6541 5.12659 1.39121 0
M  V30 1027 C 87.6931 6.0873 0.641462 0
M  V30 1028 N 86.8301 6.8409 1.58004 0
M  V30 1029 H 91.6701 2.92118 -0.589144 0
M  V30 1030 H 89.2071 1.43959 -0.302342 0
M  V30 1031 H 91.1651 3.79569 1.73156 0
M  V30 1032 H 89.7951 2.65872 1.83062 0
M  V30 1033 H 88.8471 3.79152 -0.307826 0
M  V30 1034 H 90.1591 4.98458 -0.184565 0
M  V30 1035 H 89.3131 5.70747 2.05749 0
M  V30 1036 H 88.0521 4.44316 2.01084 0
M  V30 1037 H 87.0571 5.49786 -0.0385419 0
M  V30 1038 H 88.2821 6.79095 0.0270945 0
M  V30 1039 H 86.2281 6.18449 2.18761 0
M  V30 1040 H 86.1451 7.48709 1.04738 0
M  V30 1041 H 87.4131 7.4673 2.23639 0
M  V30 1042 N 91.6422 0.330177 1.54103 0
M  V30 1043 C 92.5902 -0.548226 2.26047 0
M  V30 1044 C 93.5842 -1.11309 1.27698 0
M  V30 1045 O 94.7902 -1.06036 1.45452 0
M  V30 1046 H 91.1652 -0.195456 0.726155 0
M  V30 1047 H 93.1362 0.0807567 2.98291 0
M  V30 1048 C 91.8852 -1.69415 3.03634 0
M  V30 1049 H 91.2082 -1.26876 3.79134 0
M  V30 1050 H 92.6482 -2.28423 3.5721 0
M  V30 1051 C 91.1072 -2.61569 2.12328 0
M  V30 1052 O 91.6372 -3.63462 1.7105 0
M  V30 1053 N 89.8432 -2.29952 1.77681 0
M  V30 1054 H 89.3902 -1.47134 2.11446 0
M  V30 1055 H 89.3482 -2.91871 1.16869 0
M  V30 1056 N 93.1203 -1.57491 0.0584922 0
M  V30 1057 C 94.3693 -1.92155 -0.613146 0
M  V30 1058 C 94.6823 -0.939334 -1.71569 0
M  V30 1059 O 95.8883 -1.17829 -2.44599 0
M  V30 1060 C 94.3443 -3.41303 -1.14195 0
M  V30 1061 C 93.9523 -4.47944 -0.0711265 0
M  V30 1062 C 95.6963 -3.84988 -1.78841 0
M  V30 1063 C 93.6033 -5.88212 -0.613225 0
M  V30 1064 H 92.5333 -0.717162 -0.232796 0
M  V30 1065 H 95.1843 -1.83049 0.12857 0
M  V30 1066 H 93.5663 -3.45437 -1.93621 0
M  V30 1067 H 94.7403 -4.55408 0.702836 0
M  V30 1068 H 93.0553 -4.13644 0.478313 0
M  V30 1069 H 95.6523 -4.87159 -2.20408 0
M  V30 1070 H 95.9953 -3.21632 -2.64308 0
M  V30 1071 H 96.5283 -3.83401 -1.06059 0
M  V30 1072 H 93.2673 -6.55183 0.203978 0
M  V30 1073 H 92.7873 -5.84294 -1.35501 0
M  V30 1074 H 94.4663 -6.37687 -1.09383 0
M  V30 1075 N 94.5984 0.214957 -1.56127 0
M  V30 1076 C 95.8474 0.936451 -1.78643 0
M  V30 1077 C 96.1604 1.85237 -0.628229 0
M  V30 1078 O 97.3664 2.613 -0.737186 0
M  V30 1079 C 95.8224 1.7154 -3.16389 0
M  V30 1080 C 95.4304 0.845299 -4.39953 0
M  V30 1081 C 97.1744 2.42772 -3.48227 0
M  V30 1082 C 95.0814 1.62198 -5.68723 0
M  V30 1083 H 94.0114 0.353401 -0.666051 0
M  V30 1084 H 96.6624 0.190169 -1.82512 0
M  V30 1085 H 95.0444 2.50484 -3.06715 0
M  V30 1086 H 96.2184 0.0959353 -4.607 0
M  V30 1087 H 94.5334 0.244789 -4.1568 0
M  V30 1088 H 97.1304 3.01394 -4.41663 0
M  V30 1089 H 97.4734 3.15984 -2.71035 0
M  V30 1090 H 98.0064 1.70813 -3.5926 0
M  V30 1091 H 94.7454 0.933011 -6.48826 0
M  V30 1092 H 94.2654 2.34579 -5.52026 0
M  V30 1093 H 95.9444 2.18095 -6.09133 0
M  V30 1094 N 96.0765 1.50051 0.48192 0
M  V30 1095 C 97.0085 1.64263 1.59844 0
M  V30 1096 C 98.0215 0.52451 1.54119 0
M  V30 1097 O 99.2105 0.797293 1.59704 0
M  V30 1098 C 96.3105 1.60102 2.98698 0
M  V30 1099 C 95.4835 2.87767 3.29407 0
M  V30 1100 C 94.5425 2.76397 4.47762 0
M  V30 1101 O 93.5685 3.50348 4.48603 0
M  V30 1102 N 94.7705 1.89222 5.48794 0
M  V30 1103 H 97.5355 2.60566 1.48073 0
M  V30 1104 H 95.0965 1.47379 0.670149 0
M  V30 1105 H 97.0885 1.50123 3.75826 0
M  V30 1106 H 95.6585 0.715798 3.04294 0
M  V30 1107 H 94.8785 3.11954 2.40994 0
M  V30 1108 H 96.1665 3.72365 3.4673 0
M  V30 1109 H 95.5645 1.28434 5.50928 0
M  V30 1110 H 94.1215 1.85154 6.24949 0
M  V30 1111 N 97.5546 -0.734337 1.39446 0
M  V30 1112 C 98.8016 -1.49391 1.36706 0
M  V30 1113 C 99.1296 -1.94465 -0.0367813 0
M  V30 1114 O 98.3846 -1.67154 -1.01774 0
M  V30 1115 C 98.6836 -2.74711 2.28623 0
M  V30 1116 C 98.3496 -2.48501 3.76242 0
M  V30 1117 C 97.0116 -2.41062 4.16464 0
M  V30 1118 C 99.3636 -2.26098 4.69606 0
M  V30 1119 C 96.6916 -2.09262 5.48112 0
M  V30 1120 C 99.0436 -1.95814 6.01531 0
M  V30 1121 C 97.7076 -1.86845 6.40816 0
M  V30 1122 H 96.9776 -0.546661 0.500243 0
M  V30 1123 H 99.6246 -0.842788 1.71957 0
M  V30 1124 H 97.9296 -3.44569 1.86492 0
M  V30 1125 H 99.6266 -3.32741 2.23796 0
M  V30 1126 H 96.2166 -2.55169 3.44364 0
M  V30 1127 H 100.401 -2.30812 4.39363 0
M  V30 1128 H 95.6566 -2.00841 5.77471 0
M  V30 1129 H 99.8306 -1.77488 6.73403 0
M  V30 1130 H 97.4576 -1.6197 7.42745 0
M  V30 1131 N 99.0327 -1.24633 -0.964593 0
M  V30 1132 C 100.279 -1.08949 -1.71049 0
M  V30 1133 C 100.612 0.370302 -1.90637 0
M  V30 1134 O 99.8867 1.27349 -1.47011 0
M  V30 1135 C 100.17 -1.83329 -3.0994 0
M  V30 1136 C 100.023 -3.37077 -2.97824 0
M  V30 1137 C 101.342 -1.60846 -4.09654 0
M  V30 1138 H 98.4607 -0.397178 -0.620821 0
M  V30 1139 H 101.103 -1.5334 -1.12191 0
M  V30 1140 H 99.2527 -1.45597 -3.60186 0
M  V30 1141 H 100.925 -3.84425 -2.5498 0
M  V30 1142 H 99.1677 -3.65298 -2.33965 0
M  V30 1143 H 99.8387 -3.84324 -3.96231 0
M  V30 1144 H 102.315 -1.93674 -3.68279 0
M  V30 1145 H 101.191 -2.1534 -5.04896 0
M  V30 1146 H 101.452 -0.547434 -4.38698 0
M  V30 1147 N 100.511 1.16574 -1.06058 0
M  V30 1148 C 101.461 2.18854 -0.63929 0
M  V30 1149 C 102.445 1.57505 0.328798 0
M  V30 1150 O 103.637 1.76408 0.144623 0
M  V30 1151 C 100.766 3.43291 -0.0247203 0
M  V30 1152 C 99.8518 4.11722 -1.01716 0
M  V30 1153 N 100.243 4.55841 -2.19186 0
M  V30 1154 C 98.5408 4.37872 -0.847569 0
M  V30 1155 C 99.2418 5.08751 -2.82042 0
M  V30 1156 N 98.2178 5.01489 -2.09784 0
M  V30 1157 H 102.02 2.5068 -1.53417 0
M  V30 1158 H 99.5338 1.32999 -0.931935 0
M  V30 1159 H 101.531 4.15856 0.294915 0
M  V30 1160 H 100.191 3.12954 0.865448 0
M  V30 1161 H 101.202 4.49649 -2.56975 0
M  V30 1162 H 97.8788 4.17499 -0.00918848 0
M  V30 1163 H 99.2688 5.52944 -3.81709 0
M  V30 1164 N 101.989 0.842826 1.3317 0
M  V30 1165 C 103.237 0.439577 1.97262 0
M  V30 1166 C 103.558 -1.00548 1.67078 0
M  V30 1167 O 102.828 -1.70098 0.971779 0
M  V30 1168 H 101.408 0.159558 0.72976 0
M  V30 1169 H 104.07 1.07665 1.62463 0
M  V30 1170 H 103.166 0.574886 3.0676 0
M  V30 1171 N 103.467 -1.45747 0.599634 0
M  V30 1172 C 104.377 -2.34262 -0.125888 0
M  V30 1173 C 105.393 -1.50768 -0.868625 0
M  V30 1174 O 106.569 -1.83592 -0.828003 0
M  V30 1175 C 103.634 -3.28252 -1.11587 0
M  V30 1176 C 102.695 -4.27651 -0.375956 0
M  V30 1177 C 101.928 -5.1715 -1.31877 0
M  V30 1178 O 102.151 -5.09916 -2.55621 0
M  V30 1179 O 101.085 -5.96286 -0.820157 0
M  V30 1180 H 104.911 -2.97688 0.601315 0
M  V30 1181 H 102.496 -1.44999 0.359934 0
M  V30 1182 H 104.378 -3.86191 -1.68626 0
M  V30 1183 H 103.053 -2.67401 -1.82424 0
M  V30 1184 H 101.96 -3.7335 0.236698 0
M  V30 1185 H 103.293 -4.91334 0.29177 0
M  V30 1186 N 104.945 -0.338344 -1.53925 0
M  V30 1187 C 105.855 0.529421 -2.28548 0
M  V30 1188 C 106.871 1.11645 -1.3346 0
M  V30 1189 O 108.047 1.13325 -1.66492 0
M  V30 1190 C 105.112 1.66713 -3.03987 0
M  V30 1191 C 104.173 1.11041 -4.14691 0
M  V30 1192 C 103.406 2.19389 -4.86522 0
M  V30 1193 O 103.629 3.40013 -4.57982 0
M  V30 1194 O 102.563 1.83976 -5.73094 0
M  V30 1195 H 106.389 -0.0770399 -3.03602 0
M  V30 1196 H 103.974 -0.103555 -1.49041 0
M  V30 1197 H 105.856 2.32918 -3.5118 0
M  V30 1198 H 104.531 2.25949 -2.31794 0
M  V30 1199 H 103.438 0.413024 -3.71813 0
M  V30 1200 H 104.771 0.562975 -4.8897 0
M  V30 1201 N 106.423 1.57458 -0.0668435 0
M  V30 1202 C 107.7 1.8469 0.644132 0
M  V30 1203 C 108.08 0.958343 1.88093 0
M  V30 1204 O 107.428 0.0233579 2.28488 0
M  V30 1205 C 107.638 3.34767 0.986509 0
M  V30 1206 C 108.986 4.02159 1.36212 0
M  V30 1207 O 110.01 3.39484 1.07839 0
M  V30 1208 O 108.869 5.12694 1.89227 0
M  V30 1209 H 105.963 0.762816 0.319437 0
M  V30 1210 H 108.509 1.6942 -0.0973986 0
M  V30 1211 H 107.281 3.91151 0.107883 0
M  V30 1212 H 106.904 3.55281 1.78497 0
M  V30 1213 N 107.901 -0.206675 1.56239 0
M  V30 1214 C 108.831 -1.25909 1.96645 0
M  V30 1215 C 109.812 -1.48097 0.836734 0
M  V30 1216 O 110.997 -1.6003 1.10019 0
M  V30 1217 C 108.127 -2.6058 2.29599 0
M  V30 1218 C 107.081 -2.53024 3.452 0
M  V30 1219 C 106.407 -3.91861 3.63798 0
M  V30 1220 C 107.707 -2.06524 4.79734 0
M  V30 1221 H 109.401 -0.923369 2.84806 0
M  V30 1222 H 106.947 -0.442735 1.37025 0
M  V30 1223 H 108.9 -3.34375 2.56459 0
M  V30 1224 H 107.624 -2.95869 1.38307 0
M  V30 1225 H 106.283 -1.81684 3.18412 0
M  V30 1226 H 105.931 -4.24483 2.69857 0
M  V30 1227 H 105.631 -3.87683 4.4156 0
M  V30 1228 H 107.155 -4.67296 3.93022 0
M  V30 1229 H 108.569 -2.70072 5.05702 0
M  V30 1230 H 106.966 -2.13374 5.60885 0
M  V30 1231 H 108.036 -1.01802 4.74093 0
M  V30 1232 N 109.379 -1.50304 -0.473955 0
M  V30 1233 C 110.326 -1.68959 -1.57231 0
M  V30 1234 C 111.296 -0.530899 -1.57387 0
M  V30 1235 O 112.481 -0.761133 -1.74961 0
M  V30 1236 C 109.621 -1.7871 -2.95223 0
M  V30 1237 C 108.734 -3.06061 -3.04878 0
M  V30 1238 C 107.869 -3.06626 -4.33767 0
M  V30 1239 C 106.908 -4.28443 -4.37154 0
M  V30 1240 N 106.045 -4.26763 -5.5751 0
M  V30 1241 H 110.885 -2.6273 -1.40631 0
M  V30 1242 H 108.422 -1.30241 -0.683789 0
M  V30 1243 H 110.38 -1.82344 -3.75242 0
M  V30 1244 H 109.01 -0.883806 -3.10465 0
M  V30 1245 H 108.062 -3.11911 -2.17751 0
M  V30 1246 H 109.374 -3.96039 -3.0324 0
M  V30 1247 H 108.528 -3.08973 -5.22131 0
M  V30 1248 H 107.267 -2.14473 -4.3801 0
M  V30 1249 H 106.272 -4.2631 -3.47188 0
M  V30 1250 H 107.497 -5.2182 -4.34605 0
M  V30 1251 H 105.443 -3.37462 -5.62544 0
M  V30 1252 H 105.36 -5.10507 -5.57601 0
M  V30 1253 H 106.628 -4.33253 -6.48006 0
M  V30 1254 N 110.857 0.726932 -1.39834 0
M  V30 1255 C 112.103 1.48884 -1.377 0
M  V30 1256 C 112.436 1.94185 0.0244852 0
M  V30 1257 O 111.711 1.67361 0.990986 0
M  V30 1258 C 111.994 2.72288 -2.3565 0
M  V30 1259 C 111.847 2.32956 -3.84775 0
M  V30 1260 C 113.166 3.74414 -2.31306 0
M  V30 1261 H 110.285 0.540062 -0.5015 0
M  V30 1262 H 112.927 0.830547 -1.70886 0
M  V30 1263 H 111.077 3.28457 -2.07481 0
M  V30 1264 H 112.749 1.82356 -4.23726 0
M  V30 1265 H 110.992 1.65088 -4.01159 0
M  V30 1266 H 111.663 3.21362 -4.4881 0
M  V30 1267 H 114.139 3.27849 -2.56231 0
M  V30 1268 H 113.015 4.58414 -3.01907 0
M  V30 1269 H 113.276 4.21909 -1.32081 0
M  V30 1270 N 112.336 1.25143 0.95797 0
M  V30 1271 C 113.268 1.01023 2.05735 0
M  V30 1272 C 114.281 -0.0236902 1.62783 0
M  V30 1273 O 115.47 0.21448 1.77207 0
M  V30 1274 C 112.57 0.504595 3.35122 0
M  V30 1275 C 111.743 1.6039 4.06932 0
M  V30 1276 C 110.802 1.09922 5.14591 0
M  V30 1277 O 109.828 1.79293 5.40225 0
M  V30 1278 N 111.03 -0.0612545 5.80468 0
M  V30 1279 H 113.795 1.95683 2.26998 0
M  V30 1280 H 111.356 1.16303 1.12629 0
M  V30 1281 H 113.348 0.151516 4.04416 0
M  V30 1282 H 111.918 -0.347989 3.10657 0
M  V30 1283 H 111.138 2.12872 3.31782 0
M  V30 1284 H 112.426 2.34252 4.51667 0
M  V30 1285 H 111.824 -0.640985 5.62057 0
M  V30 1286 H 110.381 -0.355395 6.5083 0
M  V30 1287 N 113.814 -1.1601 1.06675 0
M  V30 1288 C 114.764 -2.18512 0.650888 0
M  V30 1289 C 115.748 -1.57677 -0.320441 0
M  V30 1290 O 116.94 -1.76482 -0.135266 0
M  V30 1291 C 114.069 -3.43273 0.0429255 0
M  V30 1292 C 113.155 -4.11176 1.03898 0
M  V30 1293 N 113.546 -4.54672 2.216 0
M  V30 1294 C 111.844 -4.37417 0.870779 0
M  V30 1295 C 112.545 -5.07248 2.84736 0
M  V30 1296 N 111.521 -5.0037 2.12441 0
M  V30 1297 H 115.323 -2.49863 1.54745 0
M  V30 1298 H 112.837 -1.32503 0.938975 0
M  V30 1299 H 114.834 -4.16006 -0.272857 0
M  V30 1300 H 113.494 -3.13408 -0.84884 0
M  V30 1301 H 114.505 -4.4828 2.59356 0
M  V30 1302 H 111.182 -4.17488 0.0313293 0
M  V30 1303 H 112.572 -5.50912 3.84636 0
M  V30 1304 N 115.292 -0.849877 -1.32721 0
M  V30 1305 C 116.517 -0.463856 -2.02146 0
M  V30 1306 C 116.942 0.930449 -1.63476 0
M  V30 1307 O 116.3 1.61033 -0.832952 0
M  V30 1308 C 116.348 -0.604955 -3.55489 0
M  V30 1309 O 115.452 0.36425 -4.10788 0
M  V30 1310 H 114.793 -0.187046 -0.637111 0
M  V30 1311 H 117.323 -1.14775 -1.69375 0
M  V30 1312 H 117.333 -0.490696 -4.05038 0
M  V30 1313 H 116.008 -1.62174 -3.82978 0
M  V30 1314 H 114.585 0.206628 -3.72327 0
M  V30 1315 N 116.77 1.45427 -0.607355 0
M  V30 1316 C 117.995 2.07124 -0.107006 0
M  V30 1317 C 118.42 1.44906 1.19933 0
M  V30 1318 O 117.778 0.541687 1.73019 0
M  V30 1319 C 117.826 3.60595 0.0194119 0
M  V30 1320 O 116.93 3.98285 1.0697 0
M  V30 1321 H 116.271 0.659868 -0.0739597 0
M  V30 1322 H 118.801 1.86683 -0.837297 0
M  V30 1323 H 118.811 4.07419 0.2177 0
M  V30 1324 H 117.486 4.05266 -0.934453 0
M  V30 1325 H 116.063 3.63133 0.847889 0
M  V30 1326 N 118.248 0.346503 1.53744 0
M  V30 1327 C 119.478 -0.250047 2.05081 0
M  V30 1328 C 119.886 -1.44529 1.22098 0
M  V30 1329 O 119.229 -1.81992 0.249917 0
M  V30 1330 C 119.291 -0.725934 3.52094 0
M  V30 1331 C 118.955 0.350053 4.55657 0
M  V30 1332 C 119.952 1.19372 5.0601 0
M  V30 1333 C 117.637 0.504827 4.99757 0
M  V30 1334 C 119.631 2.17768 5.99046 0
M  V30 1335 C 117.318 1.49218 5.92602 0
M  V30 1336 C 118.316 2.32706 6.42135 0
M  V30 1337 O 118.004 3.2976 7.33153 0
M  V30 1338 H 117.736 -0.0515469 0.674032 0
M  V30 1339 H 120.29 0.497559 1.99282 0
M  V30 1340 H 118.52 -1.52483 3.55367 0
M  V30 1341 H 120.209 -1.24336 3.86388 0
M  V30 1342 H 120.975 1.08525 4.72702 0
M  V30 1343 H 116.854 -0.135178 4.60802 0
M  V30 1344 H 120.398 2.82971 6.37631 0
M  V30 1345 H 116.295 1.6012 6.25325 0
M  V30 1346 H 117.063 3.25265 7.51096 0
M  V30 1347 N 119.726 -1.57421 0.075193 0
M  V30 1348 C 121.142 -1.57099 -0.281444 0
M  V30 1349 C 121.342 -1.08486 -1.69803 0
M  V30 1350 O 120.398 -0.752279 -2.41033 0
M  V30 1351 C 121.711 -3.00571 -0.0880041 0
M  V30 1352 C 123.259 -3.12605 -0.157281 0
M  V30 1353 C 123.734 -4.57999 0.0079207 0
M  V30 1354 N 125.225 -4.63176 -0.0475725 0
M  V30 1355 C 125.96 -5.73373 0.0557876 0
M  V30 1356 N 125.456 -6.92473 0.21286 0
M  V30 1357 N 127.249 -5.621 -0.00152098 0
M  V30 1358 H 119.4 -1.87335 1.00098 0
M  V30 1359 H 121.663 -0.86377 0.390646 0
M  V30 1360 H 121.369 -3.40262 0.889629 0
M  V30 1361 H 121.243 -3.67754 -0.838875 0
M  V30 1362 H 123.63 -2.72798 -1.1254 0
M  V30 1363 H 123.711 -2.48053 0.62475 0
M  V30 1364 H 123.355 -4.98496 0.972824 0
M  V30 1365 H 123.285 -5.20586 -0.793556 0
M  V30 1366 H 125.776 -3.7753 -0.167244 0
M  V30 1367 H 126.089 -7.72279 0.283781 0
M  V30 1368 H 124.434 -6.94556 0.248267 0
M  V30 1369 H 127.625 -4.67938 -0.122958 0
M  V30 1370 H 127.798 -6.47948 0.0824844 0
M  V30 1371 N 121.204 0.198386 -1.56346 0
M  V30 1372 C 122.136 1.26987 -1.90806 0
M  V30 1373 C 123.149 1.41877 -0.798419 0
M  V30 1374 O 124.338 1.42362 -1.07682 0
M  V30 1375 C 121.438 2.64246 -2.12196 0
M  V30 1376 C 120.611 2.71007 -3.43328 0
M  V30 1377 C 119.67 3.89439 -3.5387 0
M  V30 1378 O 118.696 3.76695 -4.26719 0
M  V30 1379 N 119.898 5.04752 -2.86715 0
M  V30 1380 H 122.663 0.977433 -2.83313 0
M  V30 1381 H 120.224 0.388322 -1.57174 0
M  V30 1382 H 122.216 3.41896 -2.1654 0
M  V30 1383 H 120.786 2.85992 -1.26204 0
M  V30 1384 H 120.006 1.79657 -3.50881 0
M  V30 1385 H 121.294 2.72512 -4.29668 0
M  V30 1386 H 120.692 5.18004 -2.2735 0
M  V30 1387 H 119.249 5.8036 -2.96691 0
M  V30 1388 N 122.682 1.50554 0.465978 0
M  V30 1389 C 124.098 1.38093 0.800154 0
M  V30 1390 C 124.298 0.440988 1.96615 0
M  V30 1391 O 123.354 -0.114499 2.5224 0
M  V30 1392 C 124.667 2.79565 1.10742 0
M  V30 1393 C 126.215 2.88516 1.21357 0
M  V30 1394 C 126.69 4.30833 1.55393 0
M  V30 1395 N 128.181 4.33807 1.62375 0
M  V30 1396 C 128.916 5.40927 1.90225 0
M  V30 1397 N 128.412 6.58247 2.16062 0
M  V30 1398 N 130.205 5.28376 1.9177 0
M  V30 1399 H 122.356 2.10237 -0.302366 0
M  V30 1400 H 124.619 0.945203 -0.0727746 0
M  V30 1401 H 124.325 3.50208 0.323661 0
M  V30 1402 H 124.199 3.17125 2.04234 0
M  V30 1403 H 126.586 2.1809 1.98799 0
M  V30 1404 H 126.667 2.54492 0.258321 0
M  V30 1405 H 126.311 5.01799 0.784889 0
M  V30 1406 H 126.241 4.62347 2.52076 0
M  V30 1407 H 128.732 3.49212 1.44427 0
M  V30 1408 H 129.045 7.3569 2.36601 0
M  V30 1409 H 127.39 6.61413 2.13444 0
M  V30 1410 H 130.581 4.35715 1.71085 0
M  V30 1411 H 130.754 6.11944 2.13139 0
M  V30 1412 N 124.16 -0.719506 1.40217 0
M  V30 1413 C 125.123 -1.8153 1.39927 0
M  V30 1414 C 126.123 -1.58095 0.293723 0
M  V30 1415 O 127.313 -1.65209 0.552429 0
M  V30 1416 C 124.445 -3.19561 1.18716 0
M  V30 1417 H 125.638 -1.83186 2.37451 0
M  V30 1418 H 123.191 -0.924746 1.26008 0
M  V30 1419 H 123.926 -3.23557 0.219366 0
M  V30 1420 H 123.711 -3.3797 1.98793 0
M  V30 1421 H 125.201 -3.99598 1.21291 0
M  V30 1422 N 125.638 -1.25649 -0.95132 0
M  V30 1423 C 127.054 -1.02542 -1.223 0
M  V30 1424 C 127.254 0.255715 -1.99871 0
M  V30 1425 O 126.31 0.967558 -2.33226 0
M  V30 1426 C 127.623 -2.25065 -1.99415 0
M  V30 1427 C 129.171 -2.29861 -2.12446 0
M  V30 1428 C 129.646 -3.52048 -2.92961 0
M  V30 1429 N 131.137 -3.52465 -3.00538 0
M  V30 1430 C 131.872 -4.43672 -3.63239 0
M  V30 1431 N 131.368 -5.45157 -4.27523 0
M  V30 1432 N 133.161 -4.31346 -3.60412 0
M  V30 1433 H 125.312 -2.07951 -0.432471 0
M  V30 1434 H 127.575 -0.91339 -0.253816 0
M  V30 1435 H 127.281 -3.18194 -1.49817 0
M  V30 1436 H 127.155 -2.28502 -3.00111 0
M  V30 1437 H 129.542 -1.37252 -2.61239 0
M  V30 1438 H 129.623 -2.3044 -1.11044 0
M  V30 1439 H 129.267 -4.44981 -2.44856 0
M  V30 1440 H 129.197 -3.48715 -3.94596 0
M  V30 1441 H 131.688 -2.79056 -2.54826 0
M  V30 1442 H 132.001 -6.10958 -4.73234 0
M  V30 1443 H 130.346 -5.49025 -4.26141 0
M  V30 1444 H 133.537 -3.51288 -3.09377 0
M  V30 1445 H 133.71 -5.02624 -4.0899 0
M  V30 1446 N 127.117 1.15442 -1.07289 0
M  V30 1447 C 128.047 2.22312 -0.714107 0
M  V30 1448 C 129.028 1.67467 0.298155 0
M  V30 1449 O 130.213 1.93445 0.171048 0
M  V30 1450 C 127.343 3.47124 -0.110448 0
M  V30 1451 C 126.297 4.14926 -1.04979 0
M  V30 1452 C 125.623 5.33807 -0.308924 0
M  V30 1453 C 126.923 4.64762 -2.38314 0
M  V30 1454 H 128.617 2.5258 -1.6076 0
M  V30 1455 H 126.163 1.21404 -0.77441 0
M  V30 1456 H 128.116 4.21124 0.152482 0
M  V30 1457 H 126.84 3.16187 0.81812 0
M  V30 1458 H 125.499 3.42866 -1.29764 0
M  V30 1459 H 125.147 4.99126 0.623084 0
M  V30 1460 H 124.847 5.80113 -0.935036 0
M  V30 1461 H 126.371 6.10576 -0.0537771 0
M  V30 1462 H 127.785 5.30292 -2.1786 0
M  V30 1463 H 126.182 5.21728 -2.96514 0
M  V30 1464 H 127.252 3.80434 -3.00663 0
M  V30 1465 N 128.595 0.856903 1.32268 0
M  V30 1466 C 129.525 0.31858 2.31316 0
M  V30 1467 C 130.506 -0.583487 1.59779 0
M  V30 1468 O 131.691 -0.503259 1.87566 0
M  V30 1469 C 128.821 -0.491979 3.43798 0
M  V30 1470 C 127.775 0.315849 4.26833 0
M  V30 1471 C 127.101 -0.619586 5.31098 0
M  V30 1472 C 128.401 1.54282 4.98993 0
M  V30 1473 H 130.095 1.14621 2.76591 0
M  V30 1474 H 127.641 0.552613 1.32974 0
M  V30 1475 H 129.594 -0.879012 4.1213 0
M  V30 1476 H 128.318 -1.35299 2.97257 0
M  V30 1477 H 126.977 0.684664 3.6015 0
M  V30 1478 H 126.625 -1.47751 4.8081 0
M  V30 1479 H 126.325 -0.0830621 5.87541 0
M  V30 1480 H 127.849 -1.00375 6.02293 0
M  V30 1481 H 129.263 1.22796 5.59995 0
M  V30 1482 H 127.66 2.01745 5.65172 0
M  V30 1483 H 128.73 2.30285 4.26728 0
M  V30 1484 N 130.073 -1.45103 0.615059 0
M  V30 1485 C 131.02 -2.30586 -0.0993978 0
M  V30 1486 C 131.99 -1.42544 -0.852669 0
M  V30 1487 O 133.175 -1.71465 -0.836917 0
M  V30 1488 C 130.315 -3.27572 -1.08583 0
M  V30 1489 C 129.428 -4.30717 -0.332656 0
M  V30 1490 C 128.563 -5.14807 -1.30947 0
M  V30 1491 C 127.602 -6.09673 -0.544538 0
M  V30 1492 N 126.739 -6.86517 -1.47101 0
M  V30 1493 H 131.579 -2.91144 0.635542 0
M  V30 1494 H 129.116 -1.4346 0.325206 0
M  V30 1495 H 131.074 -3.82276 -1.67095 0
M  V30 1496 H 129.704 -2.68751 -1.78809 0
M  V30 1497 H 128.756 -3.78615 0.368107 0
M  V30 1498 H 130.068 -4.98102 0.263842 0
M  V30 1499 H 129.222 -5.73948 -1.96643 0
M  V30 1500 H 127.961 -4.47458 -1.9399 0
M  V30 1501 H 126.966 -5.49656 0.126003 0
M  V30 1502 H 128.191 -6.79052 0.080947 0
M  V30 1503 H 126.137 -6.21851 -2.08895 0
M  V30 1504 H 126.054 -7.50281 -0.928137 0
M  V30 1505 H 127.322 -7.50194 -2.11731 0
M  V30 1506 N 131.551 -0.354651 -1.53558 0
M  V30 1507 C 132.828 0.294281 -1.93374 0
M  V30 1508 C 133.208 1.67313 -1.28723 0
M  V30 1509 O 132.556 2.24179 -0.442247 0
M  V30 1510 C 132.766 0.355445 -3.47185 0
M  V30 1511 C 134.114 0.601007 -4.20325 0
M  V30 1512 O 135.138 0.437106 -3.53508 0
M  V30 1513 O 133.997 0.919322 -5.38712 0
M  V30 1514 H 131.091 0.174033 -0.808481 0
M  V30 1515 H 133.637 -0.406638 -1.64756 0
M  V30 1516 H 132.409 -0.611729 -3.86489 0
M  V30 1517 H 132.032 1.1027 -3.82003 0
M  V30 1518 N 133.029 1.57378 -0.0835403 0
M  V30 1519 C 133.961 2.10389 0.909338 0
M  V30 1520 C 134.974 1.03858 1.25369 0
M  V30 1521 O 136.163 1.31338 1.20882 0
M  V30 1522 C 133.263 2.55908 2.2218 0
M  V30 1523 C 132.436 3.86145 2.05453 0
M  V30 1524 C 131.495 4.17633 3.20108 0
M  V30 1525 O 130.521 4.87043 2.94581 0
M  V30 1526 N 131.723 3.72113 4.45547 0
M  V30 1527 H 134.488 2.962 0.456657 0
M  V30 1528 H 132.049 1.61579 0.101877 0
M  V30 1529 H 134.041 2.74027 2.97811 0
M  V30 1530 H 132.611 1.75171 2.58909 0
M  V30 1531 H 131.831 3.7729 1.1422 0
M  V30 1532 H 133.119 4.7137 1.91541 0
M  V30 1533 H 132.517 3.16062 4.69171 0
M  V30 1534 H 131.074 3.95409 5.18165 0
M  V30 1535 N 134.507 -0.190092 1.56449 0
M  V30 1536 C 135.437 -1.23816 1.97969 0
M  V30 1537 C 136.418 -1.47201 0.852395 0
M  V30 1538 O 137.603 -1.58854 1.1171 0
M  V30 1539 C 134.733 -2.5813 2.3235 0
M  V30 1540 C 133.687 -2.49348 3.47864 0
M  V30 1541 C 133.013 -3.8798 3.67934 0
M  V30 1542 C 134.313 -2.01424 4.81898 0
M  V30 1543 H 136.007 -0.89311 2.85769 0
M  V30 1544 H 133.553 -0.428177 1.37487 0
M  V30 1545 H 135.506 -3.31637 2.59991 0
M  V30 1546 H 134.23 -2.94386 1.41438 0
M  V30 1547 H 132.889 -1.78297 3.20321 0
M  V30 1548 H 132.537 -4.21597 2.74344 0
M  V30 1549 H 132.237 -3.82978 4.45648 0
M  V30 1550 H 133.761 -4.63101 3.97957 0
M  V30 1551 H 135.175 -2.64693 5.08538 0
M  V30 1552 H 133.572 -2.07413 5.63116 0
M  V30 1553 H 134.642 -0.967677 4.75146 0
M  V30 1554 N 135.985 -1.50799 -0.457987 0
M  V30 1555 C 137.21 -1.66496 -1.23668 0
M  V30 1556 C 137.635 -0.353288 -1.84752 0
M  V30 1557 O 136.993 0.684346 -1.67888 0
M  V30 1558 C 137.041 -2.76763 -2.3116 0
M  V30 1559 O 136.145 -2.38928 -3.36136 0
M  V30 1560 H 135.486 -0.555828 -0.363252 0
M  V30 1561 H 138.016 -1.9725 -0.543474 0
M  V30 1562 H 138.026 -3.00232 -2.76269 0
M  V30 1563 H 136.701 -3.71954 -1.86073 0
M  V30 1564 H 135.278 -2.25953 -2.96647 0
M  V30 1565 N 137.463 0.71206 -1.40597 0
M  V30 1566 C 138.393 1.83889 -1.43899 0
M  V30 1567 C 139.374 1.67442 -0.299504 0
M  V30 1568 O 140.559 1.87421 -0.508624 0
M  V30 1569 C 137.689 3.21877 -1.30431 0
M  V30 1570 C 136.643 3.53002 -2.42019 0
M  V30 1571 C 135.969 4.90172 -2.13626 0
M  V30 1572 C 137.269 3.53643 -3.84362 0
M  V30 1573 H 138.963 1.81383 -2.38203 0
M  V30 1574 H 136.509 0.871237 -1.14654 0
M  V30 1575 H 138.462 4.00404 -1.31357 0
M  V30 1576 H 137.186 3.24968 -0.326049 0
M  V30 1577 H 135.845 2.76818 -2.40349 0
M  V30 1578 H 135.493 4.89869 -1.14182 0
M  V30 1579 H 135.193 5.11962 -2.88389 0
M  V30 1580 H 136.717 5.71028 -2.1624 0
M  V30 1581 H 138.131 4.22203 -3.87837 0
M  V30 1582 H 136.528 3.86961 -4.58673 0
M  V30 1583 H 137.598 2.52954 -4.13693 0
M  V30 1584 N 138.941 1.26152 0.944643 0
M  V30 1585 C 140.189 1.11271 1.6871 0
M  V30 1586 C 140.51 -0.345166 1.91921 0
M  V30 1587 O 139.78 -1.24387 1.51343 0
M  V30 1588 H 138.36 0.408783 0.625224 0
M  V30 1589 H 141.022 1.58427 1.1352 0
M  V30 1590 H 140.118 1.62879 2.66227 0
M  V30 1591 N 140.419 -1.14872 1.07899 0
M  V30 1592 C 141.367 -2.21857 0.698727 0
M  V30 1593 C 142.361 -1.66845 -0.293086 0
M  V30 1594 O 143.567 -1.79321 -0.156204 0
M  V30 1595 H 139.942 -0.722691 0.207899 0
M  V30 1596 H 141.913 -2.51205 1.61054 0
M  V30 1597 C 140.662 -3.47498 0.11858 0
M  V30 1598 H 139.985 -3.90154 0.872914 0
M  V30 1599 H 141.425 -4.23858 -0.109759 0
M  V30 1600 C 139.884 -3.16947 -1.1422 0
M  V30 1601 O 140.414 -3.3426 -2.22785 0
M  V30 1602 N 138.62 -2.70946 -1.05055 0
M  V30 1603 H 138.167 -2.57058 -0.167038 0
M  V30 1604 H 138.125 -2.50879 -1.89491 0
M  V30 1605 N 141.898 -0.863906 -1.31812 0
M  V30 1606 C 142.861 -0.320212 -2.26952 0
M  V30 1607 C 143.861 0.525369 -1.51975 0
M  V30 1608 O 145.051 0.335547 -1.70938 0
M  V30 1609 C 142.183 0.545919 -3.365 0
M  V30 1610 H 143.376 -1.16004 -2.76556 0
M  V30 1611 H 140.929 -0.638995 -1.42641 0
M  V30 1612 H 141.664 1.40718 -2.92179 0
M  V30 1613 H 141.449 -0.0594674 -3.92055 0
M  V30 1614 H 142.939 0.918796 -4.07367 0
M  V30 1615 N 143.376 1.44774 -0.622745 0
M  V30 1616 C 144.339 2.29069 0.0774015 0
M  V30 1617 C 145.339 1.4059 0.780461 0
M  V30 1618 O 146.529 1.62551 0.626322 0
M  V30 1619 C 143.661 3.21974 1.12006 0
M  V30 1620 H 144.854 2.92459 -0.663901 0
M  V30 1621 H 142.407 1.51548 -0.382486 0
M  V30 1622 H 143.142 2.63417 1.89162 0
M  V30 1623 H 142.927 3.87168 0.619951 0
M  V30 1624 H 144.417 3.85318 1.60995 0
M  V30 1625 N 144.854 0.36279 1.53368 0
M  V30 1626 C 145.784 -0.476976 2.28576 0
M  V30 1627 C 146.765 -1.08631 1.30894 0
M  V30 1628 O 147.95 -1.10409 1.59761 0
M  V30 1629 C 145.08 -1.61828 3.07293 0
M  V30 1630 C 144.034 -1.13633 4.1264 0
M  V30 1631 C 143.36 -2.36766 4.79423 0
M  V30 1632 C 144.66 -0.223061 5.21823 0
M  V30 1633 H 146.354 0.150474 2.99022 0
M  V30 1634 H 143.9 0.0738103 1.43811 0
M  V30 1635 H 145.853 -2.21237 3.58653 0
M  V30 1636 H 144.577 -2.27292 2.34533 0
M  V30 1637 H 143.236 -0.564945 3.62221 0
M  V30 1638 H 142.884 -3.0068 4.03238 0
M  V30 1639 H 142.584 -2.05192 5.50609 0
M  V30 1640 H 144.108 -2.96865 5.33576 0
M  V30 1641 H 145.522 -0.724545 5.68703 0
M  V30 1642 H 143.919 0.001678 6.001 0
M  V30 1643 H 144.989 0.735553 4.79289 0
M  V30 1644 N 146.332 -1.57332 0.0918853 0
M  V30 1645 C 147.264 -2.10869 -0.898168 0
M  V30 1646 C 148.277 -1.04521 -1.24817 0
M  V30 1647 O 149.466 -1.31977 -1.20184 0
M  V30 1648 C 146.566 -2.57083 -2.2082 0
M  V30 1649 C 145.739 -3.87229 -2.03402 0
M  V30 1650 C 144.798 -4.19324 -3.17889 0
M  V30 1651 O 143.824 -4.88598 -2.91994 0
M  V30 1652 N 145.026 -3.74471 -4.43567 0
M  V30 1653 H 147.791 -2.96439 -0.440943 0
M  V30 1654 H 145.352 -1.61631 -0.0933064 0
M  V30 1655 H 147.344 -2.75602 -2.96354 0
M  V30 1656 H 145.914 -1.76541 -2.57977 0
M  V30 1657 H 145.134 -3.7789 -1.12218 0
M  V30 1658 H 146.422 -4.72379 -1.89038 0
M  V30 1659 H 145.82 -3.18546 -4.67488 0
M  V30 1660 H 144.377 -3.98151 -5.16061 0
M  V30 1661 N 147.81 0.181792 -1.56548 0
M  V30 1662 C 149.059 0.898348 -1.8059 0
M  V30 1663 C 149.372 1.83862 -0.667379 0
M  V30 1664 O 150.578 2.59678 -0.792446 0
M  V30 1665 C 149.034 1.64791 -3.19956 0
M  V30 1666 C 148.642 0.751789 -4.41647 0
M  V30 1667 C 150.386 2.35331 -3.53298 0
M  V30 1668 C 148.293 1.50098 -5.72035 0
M  V30 1669 H 147.223 0.339194 -0.673397 0
M  V30 1670 H 149.874 0.151413 -1.82874 0
M  V30 1671 H 148.256 2.43921 -3.11959 0
M  V30 1672 H 149.43 -0.0018076 -4.608 0
M  V30 1673 H 147.745 0.156562 -4.16106 0
M  V30 1674 H 150.342 2.91958 -4.47956 0
M  V30 1675 H 150.685 3.10164 -2.77676 0
M  V30 1676 H 151.218 1.63154 -3.62803 0
M  V30 1677 H 147.957 0.795175 -6.50659 0
M  V30 1678 H 147.477 2.22817 -5.56878 0
M  V30 1679 H 149.156 2.05125 -6.13622 0
M  V30 1680 N 149.288 1.51039 0.449983 0
M  V30 1681 C 150.516 1.66869 1.2232 0
M  V30 1682 C 150.931 0.360727 1.85322 0
M  V30 1683 O 150.288 -0.659531 1.70166 0
M  V30 1684 C 150.339 2.77524 2.31652 0
M  V30 1685 O 150.06 4.03252 1.7123 0
M  V30 1686 C 151.561 3.04512 3.2216 0
M  V30 1687 H 148.781 0.560326 0.369155 0
M  V30 1688 H 151.325 1.97385 0.534719 0
M  V30 1689 H 149.48 2.49642 2.96239 0
M  V30 1690 H 149.894 4.64609 2.43389 0
M  V30 1691 H 151.368 3.85551 3.95038 0
M  V30 1692 H 151.845 2.16415 3.8218 0
M  V30 1693 H 152.451 3.34005 2.63288 0
M  V30 1694 N 150.766 -0.704594 1.40972 0
M  V30 1695 C 152.043 -1.45847 1.30338 0
M  V30 1696 C 152.423 -2.10973 -0.0732344 0
M  V30 1697 O 151.771 -2.00997 -1.08685 0
M  V30 1698 C 151.981 -2.48525 2.45023 0
M  V30 1699 C 153.329 -3.1404 2.8577 0
M  V30 1700 O 154.353 -2.58848 2.44696 0
M  V30 1701 O 153.212 -4.13981 3.56766 0
M  V30 1702 H 150.306 -0.649092 0.512454 0
M  V30 1703 H 152.852 -0.735836 1.52917 0
M  V30 1704 H 151.624 -1.98994 3.36923 0
M  V30 1705 H 151.247 -3.2831 2.24272 0
M  V30 1706 N 152.244 -1.26651 -0.937939 0
M  V30 1707 C 153.49 -1.12553 -1.687 0
M  V30 1708 C 153.823 0.329782 -1.91379 0
M  V30 1709 O 153.098 1.24202 -1.4968 0
M  V30 1710 C 153.381 -1.89862 -3.05981 0
M  V30 1711 C 153.234 -3.43318 -2.90607 0
M  V30 1712 C 154.553 -1.69499 -4.0615 0
M  V30 1713 H 151.672 -0.410257 -0.612257 0
M  V30 1714 H 154.314 -1.55685 -1.08913 0
M  V30 1715 H 152.464 -1.53204 -3.57017 0
M  V30 1716 H 154.136 -3.89747 -2.46769 0
M  V30 1717 H 152.379 -3.70179 -2.26164 0
M  V30 1718 H 153.05 -3.92642 -3.8799 0
M  V30 1719 H 155.526 -2.01442 -3.64088 0
M  V30 1720 H 154.402 -2.26002 -5.00214 0
M  V30 1721 H 154.663 -0.640365 -4.37438 0
M  V30 1722 N 153.722 1.14298 -1.08507 0
M  V30 1723 C 154.669 2.19414 -0.715965 0
M  V30 1724 C 155.639 1.63399 0.298326 0
M  V30 1725 O 156.824 1.89929 0.182101 0
M  V30 1726 C 153.964 3.44845 -0.132534 0
M  V30 1727 C 153.077 4.15007 -1.19973 0
M  V30 1728 C 152.212 5.28024 -0.580048 0
M  V30 1729 C 151.251 5.9002 -1.62921 0
M  V30 1730 N 150.388 6.94485 -1.03125 0
M  V30 1731 H 155.228 2.50336 -1.61666 0
M  V30 1732 H 152.765 1.2293 -0.807882 0
M  V30 1733 H 154.723 4.16601 0.223454 0
M  V30 1734 H 153.353 3.14403 0.731467 0
M  V30 1735 H 152.405 3.41629 -1.67313 0
M  V30 1736 H 153.717 4.57178 -1.99473 0
M  V30 1737 H 152.871 6.06455 -0.172364 0
M  V30 1738 H 151.61 4.87076 0.246603 0
M  V30 1739 H 150.615 5.10291 -2.04654 0
M  V30 1740 H 151.84 6.33042 -2.45835 0
M  V30 1741 H 149.786 6.55612 -0.225711 0
M  V30 1742 H 149.703 7.35148 -1.76334 0
M  V30 1743 H 150.971 7.7679 -0.649458 0
M  V30 1744 N 155.201 0.870884 1.31352 0
M  V30 1745 C 156.131 0.343096 2.30966 0
M  V30 1746 C 157.112 -0.566507 1.60389 0
M  V30 1747 O 158.297 -0.483336 1.88089 0
M  V30 1748 C 155.427 -0.455487 3.443 0
M  V30 1749 C 154.381 0.361103 4.26474 0
M  V30 1750 C 153.707 -0.563221 5.31725 0
M  V30 1751 C 155.007 1.59566 4.97329 0
M  V30 1752 H 156.701 1.17548 2.75359 0
M  V30 1753 H 154.247 0.566686 1.32381 0
M  V30 1754 H 156.2 -0.83525 4.13039 0
M  V30 1755 H 154.924 -1.32139 2.98675 0
M  V30 1756 H 153.583 0.722825 3.59403 0
M  V30 1757 H 153.231 -1.42643 4.82351 0
M  V30 1758 H 152.931 -0.0207409 5.87596 0
M  V30 1759 H 154.455 -0.939808 6.03324 0
M  V30 1760 H 155.869 1.28728 5.58661 0
M  V30 1761 H 154.266 2.07728 5.63 0
M  V30 1762 H 155.336 2.34798 4.24262 0
M  V30 1763 N 156.679 -1.44442 0.630414 0
M  V30 1764 C 157.611 -2.2892 -0.113347 0
M  V30 1765 C 158.624 -1.41243 -0.80959 0
M  V30 1766 O 159.813 -1.65402 -0.671156 0
M  V30 1767 C 156.913 -3.17594 -1.18266 0
M  V30 1768 C 156.086 -4.33682 -0.569073 0
M  V30 1769 C 155.145 -5.03397 -1.53226 0
M  V30 1770 O 154.171 -5.59438 -1.04967 0
M  V30 1771 N 155.373 -5.04783 -2.86661 0
M  V30 1772 H 158.138 -2.93392 0.611636 0
M  V30 1773 H 155.699 -1.54881 0.471523 0
M  V30 1774 H 157.691 -3.61097 -1.82732 0
M  V30 1775 H 156.261 -2.54876 -1.80988 0
M  V30 1776 H 155.481 -3.9338 0.254187 0
M  V30 1777 H 156.769 -5.08608 -0.139767 0
M  V30 1778 H 156.167 -4.60584 -3.28449 0
M  V30 1779 H 154.724 -5.52077 -3.46489 0
M  V30 1780 N 158.157 -0.370918 -1.53173 0
M  V30 1781 C 159.434 0.273754 -1.93675 0
M  V30 1782 C 159.814 1.65938 -1.3049 0
M  V30 1783 O 159.162 2.23698 -0.465999 0
M  V30 1784 C 159.372 0.318602 -3.47543 0
M  V30 1785 C 160.72 0.556392 -4.20939 0
M  V30 1786 O 161.744 0.399587 -3.53952 0
M  V30 1787 O 160.603 0.862133 -5.39657 0
M  V30 1788 H 157.697 0.165448 -0.810281 0
M  V30 1789 H 160.243 -0.42409 -1.64315 0
M  V30 1790 H 159.015 -0.652687 -3.85818 0
M  V30 1791 H 158.638 1.06212 -3.83151 0
M  V30 1792 N 159.635 1.57281 -0.100228 0
M  V30 1793 C 160.598 2.13158 0.842398 0
M  V30 1794 C 161.598 1.06202 1.20738 0
M  V30 1795 O 162.788 1.32066 1.13597 0
M  V30 1796 C 159.92 2.65639 2.13655 0
M  V30 1797 H 161.113 2.97766 0.357114 0
M  V30 1798 H 158.666 1.5559 0.148823 0
M  V30 1799 H 159.401 1.84566 2.66657 0
M  V30 1800 H 159.186 3.43844 1.88451 0
M  V30 1801 H 160.676 3.08846 2.81077 0
M  V30 1802 N 161.113 -0.173488 1.56642 0
M  V30 1803 C 162.361 -0.888706 1.81512 0
M  V30 1804 C 162.682 -1.82875 0.676872 0
M  V30 1805 O 161.952 -1.93536 -0.303414 0
M  V30 1806 H 160.532 -0.331164 0.669582 0
M  V30 1807 H 163.194 -0.173823 1.94123 0
M  V30 1808 H 162.29 -1.46691 2.75478 0
M  V30 1809 N 162.591 -1.51276 -0.441967 0
M  V30 1810 C 163.837 -1.63958 -1.19355 0
M  V30 1811 C 164.17 -0.352543 -1.90973 0
M  V30 1812 O 163.445 0.647627 -1.83401 0
M  V30 1813 C 163.728 -2.83979 -2.21422 0
M  V30 1814 C 163.581 -4.22646 -1.53918 0
M  V30 1815 C 164.9 -2.99521 -3.22451 0
M  V30 1816 H 162.019 -0.596709 -0.432559 0
M  V30 1817 H 164.661 -1.83748 -0.483398 0
M  V30 1818 H 162.811 -2.67237 -2.81987 0
M  V30 1819 H 164.483 -4.51045 -0.967256 0
M  V30 1820 H 162.726 -4.25558 -0.841615 0
M  V30 1821 H 163.397 -5.02609 -2.28229 0
M  V30 1822 H 165.873 -3.14944 -2.71937 0
M  V30 1823 H 164.749 -3.85072 -3.91166 0
M  V30 1824 H 165.01 -2.11391 -3.88287 0
M  V30 1825 N 164.069 0.697108 -1.41344 0
M  V30 1826 C 165.299 1.48377 -1.43763 0
M  V30 1827 C 165.707 1.89156 -0.0408726 0
M  V30 1828 O 165.05 1.57239 0.949812 0
M  V30 1829 C 165.112 2.7781 -2.2817 0
M  V30 1830 C 164.776 2.59244 -3.76353 0
M  V30 1831 C 165.773 2.25292 -4.68551 0
M  V30 1832 C 163.458 2.74933 -4.20378 0
M  V30 1833 C 165.452 2.07264 -6.02761 0
M  V30 1834 C 163.139 2.56521 -5.54653 0
M  V30 1835 C 164.137 2.22737 -6.4566 0
M  V30 1836 O 163.825 2.04485 -7.77458 0
M  V30 1837 H 163.557 0.463842 -0.491759 0
M  V30 1838 H 166.111 0.865934 -1.86255 0
M  V30 1839 H 164.341 3.41995 -1.8049 0
M  V30 1840 H 166.03 3.39608 -2.22309 0
M  V30 1841 H 166.796 2.12787 -4.35829 0
M  V30 1842 H 162.675 3.00213 -3.49848 0
M  V30 1843 H 166.219 1.80817 -6.73759 0
M  V30 1844 H 162.116 2.68616 -5.86955 0
M  V30 1845 H 162.884 2.1926 -7.88586 0
M  V30 1846 N 165.547 1.27147 0.931209 0
M  V30 1847 C 166.963 1.04475 1.20653 0
M  V30 1848 C 167.163 -0.223885 2.00252 0
M  V30 1849 O 166.219 -0.930332 2.34736 0
M  V30 1850 C 167.532 2.28209 1.95809 0
M  V30 1851 C 169.08 2.33211 2.08762 0
M  V30 1852 C 169.555 3.56665 2.87323 0
M  V30 1853 N 171.046 3.57201 2.94892 0
M  V30 1854 C 171.781 4.49395 3.56134 0
M  V30 1855 N 171.277 5.51889 4.18796 0
M  V30 1856 N 173.07 4.37026 3.53504 0
M  V30 1857 H 165.221 2.08612 0.399333 0
M  V30 1858 H 167.484 0.917312 0.239253 0
M  V30 1859 H 167.19 3.20538 1.44736 0
M  V30 1860 H 167.064 2.33247 2.96438 0
M  V30 1861 H 169.451 1.41391 2.59023 0
M  V30 1862 H 169.532 2.32178 1.07364 0
M  V30 1863 H 169.176 4.4882 2.37746 0
M  V30 1864 H 169.106 3.54948 3.88998 0
M  V30 1865 H 171.597 2.83074 2.50354 0
M  V30 1866 H 171.91 6.18409 4.63454 0
M  V30 1867 H 170.255 5.55735 4.17353 0
M  V30 1868 H 173.446 3.56166 3.03749 0
M  V30 1869 H 173.619 5.09067 4.00942 0
M  V30 1870 N 167.025 -1.13721 1.09112 0
M  V30 1871 C 168.265 -1.86576 0.834801 0
M  V30 1872 C 168.629 -1.81435 -0.628122 0
M  V30 1873 O 169.83 -2.49497 -1.00024 0
M  V30 1874 C 168.101 -3.30872 1.35124 0
M  V30 1875 S 169.66 -4.21257 1.22832 0
M  V30 1876 H 166.478 -0.643666 0.302017 0
M  V30 1877 H 169.08 -1.37085 1.39385 0
M  V30 1878 H 167.784 -3.32166 2.41027 0
M  V30 1879 H 167.315 -3.85423 0.788185 0
M  V30 1880 H 169.33 -4.95884 0.177191 0
M  V30 1881 N 168.503 -0.877838 -1.30888 0
M  V30 1882 C 169.436 -0.283995 -2.26426 0
M  V30 1883 C 170.414 0.591361 -1.51465 0
M  V30 1884 O 171.598 0.54304 -1.80509 0
M  V30 1885 C 168.725 0.597129 -3.33395 0
M  V30 1886 C 167.771 -0.207937 -4.25993 0
M  V30 1887 S 168.604 -1.59158 -5.11301 0
M  V30 1888 C 169.76 -0.716791 -6.21782 0
M  V30 1889 H 169.993 -1.09383 -2.76446 0
M  V30 1890 H 167.526 -0.676828 -1.38775 0
M  V30 1891 H 169.484 1.09978 -3.95493 0
M  V30 1892 H 168.145 1.38099 -2.82113 0
M  V30 1893 H 167.338 0.464163 -5.01858 0
M  V30 1894 H 166.94 -0.642963 -3.68432 0
M  V30 1895 H 169.232 0.0692833 -6.77465 0
M  V30 1896 H 170.175 -1.44682 -6.93161 0
M  V30 1897 H 170.583 -0.280855 -5.63801 0
M  V30 1898 N 169.982 1.44106 -0.638065 0
M  V30 1899 C 171.231 2.01194 -0.142744 0
M  V30 1900 C 171.544 1.50835 1.24532 0
M  V30 1901 O 172.75 2.00096 1.83504 0
M  V30 1902 C 171.206 3.59319 -0.20442 0
M  V30 1903 C 170.814 4.18674 -1.59423 0
M  V30 1904 C 172.558 4.23854 0.234079 0
M  V30 1905 C 170.465 5.69045 -1.61065 0
M  V30 1906 H 169.395 0.752367 -0.0495998 0
M  V30 1907 H 172.046 1.65246 -0.797881 0
M  V30 1908 H 170.428 3.92598 0.517946 0
M  V30 1909 H 171.602 3.96921 -2.34074 0
M  V30 1910 H 169.917 3.66453 -1.97741 0
M  V30 1911 H 172.514 5.34155 0.241443 0
M  V30 1912 H 172.857 3.96688 1.2627 0
M  V30 1913 H 173.39 3.95403 -0.436025 0
M  V30 1914 H 170.129 6.00956 -2.61787 0
M  V30 1915 H 169.649 5.929 -0.90718 0
M  V30 1916 H 171.328 6.32809 -1.34766 0
M  V30 1917 N 171.46 0.379036 1.52974 0
M  V30 1918 C 172.685 -0.209353 2.06341 0
M  V30 1919 C 173.11 -1.40583 1.24972 0
M  V30 1920 O 172.468 -1.79246 0.272155 0
M  V30 1921 C 172.516 -0.567786 3.56102 0
M  V30 1922 O 171.62 -1.66318 3.77375 0
M  V30 1923 H 170.961 -0.0272919 0.663439 0
M  V30 1924 H 173.491 0.543536 1.97248 0
M  V30 1925 H 173.501 -0.835003 3.99364 0
M  V30 1926 H 172.176 0.307013 4.14765 0
M  V30 1927 H 170.753 -1.39048 3.46006 0
M  V30 1928 N 172.938 -1.57226 0.108567 0
M  V30 1929 C 174.168 -1.9889 -0.559142 0
M  V30 1930 C 174.576 -0.986889 -1.61422 0
M  V30 1931 O 173.919 0.0298705 -1.83676 0
M  V30 1932 C 173.981 -3.36952 -1.25315 0
M  V30 1933 C 173.645 -4.55679 -0.347248 0
M  V30 1934 C 174.642 -5.18281 0.409996 0
M  V30 1935 C 172.327 -5.0162 -0.261367 0
M  V30 1936 C 174.321 -6.25203 1.24096 0
M  V30 1937 C 172.008 -6.08405 0.573238 0
M  V30 1938 C 173.006 -6.70063 1.32304 0
M  V30 1939 O 172.694 -7.74788 2.14381 0
M  V30 1940 H 172.426 -0.658343 -0.153492 0
M  V30 1941 H 174.98 -2.04532 0.188584 0
M  V30 1942 H 173.21 -3.28032 -2.04773 0
M  V30 1943 H 174.899 -3.62974 -1.81673 0
M  V30 1944 H 175.665 -4.8371 0.353457 0
M  V30 1945 H 171.544 -4.53381 -0.834656 0
M  V30 1946 H 175.088 -6.73259 1.82669 0
M  V30 1947 H 170.985 -6.42406 0.631208 0
M  V30 1948 H 171.753 -7.91837 2.07209 0
M  V30 1949 N 174.416 0.165178 -1.56732 0
M  V30 1950 C 175.664 0.879068 -1.8198 0
M  V30 1951 C 175.985 1.82514 -0.686561 0
M  V30 1952 O 175.255 1.93694 0.293146 0
M  V30 1953 H 173.835 0.327608 -0.671329 0
M  V30 1954 H 176.497 0.163526 -1.94213 0
M  V30 1955 H 175.593 1.45228 -2.76252 0
M  V30 1956 N 175.894 1.51508 0.433938 0
M  V30 1957 C 177.142 1.6402 1.18075 0
M  V30 1958 C 177.463 0.360328 1.91642 0
M  V30 1959 O 176.733 -0.623945 1.85698 0
M  V30 1960 H 175.313 0.6045 0.43885 0
M  V30 1961 H 177.975 1.88452 0.497178 0
M  V30 1962 H 177.071 2.46949 1.90847 0
M  V30 1963 N 177.372 -0.689602 1.41712 0
M  V30 1964 C 178.335 -1.78521 1.43746 0
M  V30 1965 C 179.335 -1.57436 0.327191 0
M  V30 1966 O 180.525 -1.64 0.587348 0
M  V30 1967 C 177.657 -3.16971 1.25467 0
M  V30 1968 H 178.85 -1.78108 2.41283 0
M  V30 1969 H 176.403 -0.89781 1.27942 0
M  V30 1970 H 177.138 -3.23019 0.287948 0
M  V30 1971 H 176.923 -3.33678 2.05917 0
M  V30 1972 H 178.413 -3.96935 1.2974 0
M  V30 1973 N 178.85 -1.27639 -0.924453 0
M  V30 1974 C 180.127 -1.04887 -1.651 0
M  V30 1975 C 180.507 0.415327 -2.06974 0
M  V30 1976 O 179.855 1.39923 -1.80648 0
M  V30 1977 C 180.065 -2.01348 -2.85061 0
M  V30 1978 C 181.413 -2.30899 -3.56329 0
M  V30 1979 O 182.437 -1.99348 -2.95193 0
M  V30 1980 O 181.296 -2.84699 -4.66485 0
M  V30 1981 H 178.39 -0.400083 -0.723784 0
M  V30 1982 H 180.936 -1.38916 -0.974703 0
M  V30 1983 H 179.708 -3.0008 -2.51133 0
M  V30 1984 H 179.331 -1.679 -3.6041 0
M  V30 1985 N 180.328 1.1314 -1.09713 0
M  V30 1986 C 181.558 1.88048 -0.855656 0
M  V30 1987 C 181.966 1.79537 0.596919 0
M  V30 1988 O 181.309 1.16196 1.42282 0
M  V30 1989 C 181.371 3.38314 -1.21589 0
M  V30 1990 C 181.035 3.70605 -2.67397 0
M  V30 1991 C 182.032 3.69596 -3.65643 0
M  V30 1992 C 179.717 4.0017 -3.03593 0
M  V30 1993 C 181.711 3.977 -4.9811 0
M  V30 1994 C 179.398 4.27935 -4.36251 0
M  V30 1995 C 180.396 4.26685 -5.33318 0
M  V30 1996 O 180.084 4.53767 -6.63589 0
M  V30 1997 H 179.816 0.60208 -0.307368 0
M  V30 1998 H 182.37 1.44128 -1.46343 0
M  V30 1999 H 180.6 3.82752 -0.551177 0
M  V30 2000 H 182.289 3.94552 -0.953083 0
M  V30 2001 H 183.055 3.46826 -3.39023 0
M  V30 2002 H 178.934 4.00289 -2.2867 0
M  V30 2003 H 182.478 3.9664 -5.73866 0
M  V30 2004 H 178.375 4.50178 -4.62613 0
M  V30 2005 H 179.143 4.71422 -6.69107 0
M  V30 2006 N 181.806 0.884767 1.30421 0
M  V30 2007 C 182.753 0.349642 2.28136 0
M  V30 2008 C 183.723 -0.560061 1.56373 0
M  V30 2009 O 184.908 -0.488524 1.8444 0
M  V30 2010 C 182.048 -0.42999 3.42411 0
M  V30 2011 C 181.161 0.508907 4.28992 0
M  V30 2012 C 180.296 -0.286301 5.30428 0
M  V30 2013 C 179.335 0.648079 6.08659 0
M  V30 2014 N 178.472 -0.111792 7.02011 0
M  V30 2015 H 183.312 1.18807 2.73293 0
M  V30 2016 H 180.849 0.597231 1.3443 0
M  V30 2017 H 182.807 -0.897923 4.07423 0
M  V30 2018 H 181.437 -1.23299 2.98324 0
M  V30 2019 H 180.489 1.09533 3.64289 0
M  V30 2020 H 181.801 1.22475 4.8353 0
M  V30 2021 H 180.955 -0.816098 6.01186 0
M  V30 2022 H 179.694 -1.03536 4.76583 0
M  V30 2023 H 178.699 1.18951 5.36778 0
M  V30 2024 H 179.924 1.39623 6.64592 0
M  V30 2025 H 177.87 -0.843395 6.50556 0
M  V30 2026 H 177.787 0.544429 7.54037 0
M  V30 2027 H 179.055 -0.622339 7.77012 0
M  V30 2028 N 183.284 -1.43765 0.645699 0
M  V30 2029 C 184.7 -1.56509 0.312591 0
M  V30 2030 C 184.9 -1.6307 -1.18365 0
M  V30 2031 O 183.956 -1.58167 -1.96824 0
M  V30 2032 C 185.269 -2.82968 1.01733 0
M  V30 2033 C 186.817 -2.96701 0.996865 0
M  V30 2034 C 187.292 -4.25982 1.68236 0
M  V30 2035 N 188.783 -4.32829 1.64964 0
M  V30 2036 C 189.518 -5.31613 2.14885 0
M  V30 2037 N 189.014 -6.36718 2.73061 0
M  V30 2038 N 190.807 -5.23217 2.05428 0
M  V30 2039 H 182.958 -1.3775 1.61675 0
M  V30 2040 H 185.221 -0.661067 0.679481 0
M  V30 2041 H 184.927 -2.84156 2.0724 0
M  V30 2042 H 184.801 -3.72957 0.564177 0
M  V30 2043 H 187.188 -2.95058 -0.0497719 0
M  V30 2044 H 187.269 -2.08022 1.48865 0
M  V30 2045 H 186.913 -4.28386 2.72852 0
M  V30 2046 H 186.843 -5.13545 1.16529 0
M  V30 2047 H 189.334 -3.57493 1.22503 0
M  V30 2048 H 189.647 -7.08401 3.08848 0
M  V30 2049 H 187.992 -6.37362 2.77118 0
M  V30 2050 H 191.183 -4.40019 1.59689 0
M  V30 2051 H 191.356 -6.00045 2.44643 0
M  V30 2052 N 184.763 -0.387143 -1.52771 0
M  V30 2053 C 186.012 0.19697 -2.00736 0
M  V30 2054 C 186.325 1.48082 -1.27793 0
M  V30 2055 O 187.531 2.14485 -1.66458 0
M  V30 2056 C 185.987 0.401568 -3.57653 0
M  V30 2057 C 185.595 -0.868907 -4.39493 0
M  V30 2058 C 187.339 0.942164 -4.13912 0
M  V30 2059 C 185.246 -0.632705 -5.88006 0
M  V30 2060 H 184.176 0.0773827 -0.750019 0
M  V30 2061 H 186.827 -0.50921 -1.76293 0
M  V30 2062 H 185.209 1.16954 -3.78335 0
M  V30 2063 H 186.383 -1.64133 -4.30577 0
M  V30 2064 H 184.698 -1.33429 -3.94443 0
M  V30 2065 H 187.295 1.13455 -5.22525 0
M  V30 2066 H 187.638 1.9106 -3.69867 0
M  V30 2067 H 188.171 0.233814 -3.97112 0
M  V30 2068 H 184.91 -1.57208 -6.36369 0
M  V30 2069 H 184.43 0.100825 -5.99715 0
M  V30 2070 H 186.109 -0.26642 -6.46451 0
M  V30 2071 N 186.241 1.57166 -0.116904 0
M  V30 2072 C 187.469 1.99473 0.549383 0
M  V30 2073 C 187.884 0.996541 1.60357 0
M  V30 2074 O 187.241 -0.0108731 1.82497 0
M  V30 2075 C 187.292 3.41788 1.17741 0
M  V30 2076 O 187.013 4.37788 0.165362 0
M  V30 2077 C 188.514 3.99216 1.92722 0
M  V30 2078 H 185.734 0.655009 0.145616 0
M  V30 2079 H 188.278 2.03494 -0.202625 0
M  V30 2080 H 186.433 3.38713 1.88021 0
M  V30 2081 H 186.847 5.20806 0.621403 0
M  V30 2082 H 188.321 5.00882 2.31995 0
M  V30 2083 H 188.798 3.3824 2.80161 0
M  V30 2084 H 189.404 4.0583 1.27209 0
M  V30 2085 N 187.719 -0.156864 1.56817 0
M  V30 2086 C 188.965 -0.872416 1.83076 0
M  V30 2087 C 189.298 -1.81261 0.697001 0
M  V30 2088 O 188.573 -1.92171 -0.30008 0
M  V30 2089 C 188.856 -1.65551 3.19789 0
M  V30 2090 C 188.709 -0.737467 4.43713 0
M  V30 2091 C 190.028 -2.62012 3.53606 0
M  V30 2092 H 187.147 -0.315715 0.665953 0
M  V30 2093 H 189.789 -0.138004 1.89498 0
M  V30 2094 H 187.939 -2.28159 3.14445 0
M  V30 2095 H 189.611 -0.123143 4.61136 0
M  V30 2096 H 187.854 -0.0464067 4.33775 0
M  V30 2097 H 188.525 -1.32122 5.35955 0
M  V30 2098 H 191.001 -2.09525 3.59497 0
M  V30 2099 H 189.877 -3.13861 4.50314 0
M  V30 2100 H 190.138 -3.42902 2.79053 0
M  V30 2101 N 189.197 -1.51736 -0.425897 0
M  V30 2102 C 190.144 -1.73875 -1.51776 0
M  V30 2103 C 191.114 -0.580702 -1.55618 0
M  V30 2104 O 192.299 -0.81641 -1.72451 0
M  V30 2105 C 189.439 -1.88012 -2.89388 0
M  V30 2106 C 188.552 -3.15606 -2.94986 0
M  V30 2107 C 187.687 -3.20271 -4.23793 0
M  V30 2108 C 186.726 -4.42134 -4.23302 0
M  V30 2109 N 185.863 -4.44284 -5.43651 0
M  V30 2110 H 190.703 -2.67071 -1.32201 0
M  V30 2111 H 188.24 -1.32351 -0.642008 0
M  V30 2112 H 190.198 -1.9419 -3.69251 0
M  V30 2113 H 188.828 -0.98213 -3.07496 0
M  V30 2114 H 187.88 -3.18681 -2.07717 0
M  V30 2115 H 189.192 -4.05486 -2.90486 0
M  V30 2116 H 188.346 -3.25428 -5.12036 0
M  V30 2117 H 187.085 -2.28299 -4.30965 0
M  V30 2118 H 186.09 -4.3714 -3.3345 0
M  V30 2119 H 187.315 -5.35382 -4.17783 0
M  V30 2120 H 185.261 -3.55188 -5.51523 0
M  V30 2121 H 185.178 -5.27988 -5.41078 0
M  V30 2122 H 186.446 -4.53649 -6.33895 0
M  V30 2123 N 190.675 0.682077 -1.42076 0
M  V30 2124 C 191.921 1.44428 -1.42367 0
M  V30 2125 C 192.254 1.94164 -0.0373056 0
M  V30 2126 O 191.529 1.70429 0.937239 0
M  V30 2127 C 191.812 2.64654 -2.44194 0
M  V30 2128 C 191.665 2.20596 -3.91991 0
M  V30 2129 C 192.984 3.66865 -2.431 0
M  V30 2130 H 190.103 0.523834 -0.518428 0
M  V30 2131 H 192.745 0.77576 -1.73442 0
M  V30 2132 H 190.895 3.2169 -2.17826 0
M  V30 2133 H 192.567 1.68783 -4.29313 0
M  V30 2134 H 190.81 1.52242 -4.06208 0
M  V30 2135 H 191.481 3.06921 -4.58807 0
M  V30 2136 H 193.957 3.19531 -2.66532 0
M  V30 2137 H 192.833 4.48577 -3.16339 0
M  V30 2138 H 193.094 4.17493 -1.45437 0
M  V30 2139 N 192.153 1.28127 0.917671 0
M  V30 2140 C 193.101 1.11569 2.04096 0
M  V30 2141 C 194.095 0.0360242 1.69362 0
M  V30 2142 O 195.301 0.194501 1.78946 0
M  V30 2143 H 191.676 0.344097 0.668656 0
M  V30 2144 H 193.647 2.06711 2.15205 0
M  V30 2145 C 192.396 0.790197 3.38602 0
M  V30 2146 H 191.719 1.61293 3.6582 0
M  V30 2147 H 193.159 0.714271 4.1794 0
M  V30 2148 C 191.618 -0.505897 3.3308 0
M  V30 2149 O 192.148 -1.53736 3.71117 0
M  V30 2150 N 190.354 -0.505193 2.86175 0
M  V30 2151 H 189.901 0.334621 2.55417 0
M  V30 2152 H 189.859 -1.37243 2.82863 0
M  V30 2153 N 193.631 -1.12557 1.10312 0
M  V30 2154 C 194.594 -2.16434 0.75424 0
M  V30 2155 C 195.594 -1.59278 -0.220685 0
M  V30 2156 O 196.784 -1.742 0.00230591 0
M  V30 2157 C 193.916 -3.40699 0.116987 0
M  V30 2158 H 195.109 -2.48811 1.67431 0
M  V30 2159 H 192.662 -1.27542 0.903475 0
M  V30 2160 H 193.397 -3.13921 -0.813877 0
M  V30 2161 H 193.182 -3.83459 0.818613 0
M  V30 2162 H 194.672 -4.17451 -0.111387 0
M  V30 2163 N 195.109 -0.891671 -1.2995 0
M  V30 2164 C 196.52 -0.563104 -1.78006 0
M  V30 2165 C 196.871 0.920978 -1.73241 0
M  V30 2166 O 195.996 1.71987 -1.31337 0
M  V30 2167 C 196.591 -1.01539 -3.23226 0
M  V30 2168 C 195.15 -0.738124 -3.69092 0
M  V30 2169 C 194.297 -1.19461 -2.50249 0
M  V30 2170 H 197.248 -1.07522 -1.16725 0
M  V30 2171 H 197.269 -0.347217 -3.78912 0
M  V30 2172 H 196.781 -2.09555 -3.26662 0
M  V30 2173 H 194.882 0.329766 -3.71138 0
M  V30 2174 H 194.995 -1.33037 -4.60259 0
M  V30 2175 H 193.359 -0.613787 -2.47194 0
M  V30 2176 H 194.142 -2.28265 -2.56417 0
M  V30 2177 N 196.587 1.43421 -0.653314 0
M  V30 2178 C 197.817 2.05864 -0.174238 0
M  V30 2179 C 198.225 1.49052 1.16534 0
M  V30 2180 O 197.568 0.616481 1.73047 0
M  V30 2181 C 197.63 3.59499 -0.00875873 0
M  V30 2182 C 197.294 4.38893 -1.27364 0
M  V30 2183 C 198.291 4.70947 -2.20239 0
M  V30 2184 C 195.976 4.789 -1.51525 0
M  V30 2185 C 197.97 5.41916 -3.35568 0
M  V30 2186 C 195.657 5.49614 -2.67147 0
M  V30 2187 C 196.655 5.81044 -3.58994 0
M  V30 2188 O 196.343 6.50313 -4.72597 0
M  V30 2189 H 196.075 0.670345 -0.0872549 0
M  V30 2190 H 198.629 1.84913 -0.894226 0
M  V30 2191 H 196.859 3.79025 0.7666 0
M  V30 2192 H 198.548 4.0364 0.427687 0
M  V30 2193 H 199.314 4.40558 -2.02815 0
M  V30 2194 H 195.193 4.53843 -0.809158 0
M  V30 2195 H 198.737 5.66365 -4.07279 0
M  V30 2196 H 194.634 5.79419 -2.84505 0
M  V30 2197 H 195.402 6.68795 -4.71864 0
M  V30 2198 N 198.065 0.39524 1.52563 0
M  V30 2199 C 199.013 -0.451859 2.28169 0
M  V30 2200 C 200.007 -1.05792 1.32304 0
M  V30 2201 O 201.213 -0.997718 1.49818 0
M  V30 2202 H 197.588 -0.164481 0.733792 0
M  V30 2203 H 199.559 0.207199 2.9768 0
M  V30 2204 C 198.308 -1.56385 3.10546 0
M  V30 2205 H 197.631 -1.10682 3.84174 0
M  V30 2206 H 199.071 -2.13067 3.66577 0
M  V30 2207 C 197.53 -2.52328 2.23231 0
M  V30 2208 O 198.06 -3.5588 1.86312 0
M  V30 2209 N 196.266 -2.22209 1.87274 0
M  V30 2210 H 195.813 -1.38033 2.17496 0
M  V30 2211 H 195.771 -2.86652 1.29143 0
M  V30 2212 N 199.544 -1.57102 0.125237 0
M  V30 2213 C 200.491 -2.15641 -0.822655 0
M  V30 2214 C 201.461 -1.08313 -1.25927 0
M  V30 2215 O 202.646 -1.36251 -1.33567 0
M  V30 2216 C 199.786 -2.76504 -2.06494 0
M  V30 2217 C 198.899 -3.98158 -1.67612 0
M  V30 2218 C 198.034 -4.47088 -2.86854 0
M  V30 2219 C 197.073 -5.6126 -2.44242 0
M  V30 2220 N 196.21 -6.04905 -3.56419 0
M  V30 2221 H 201.05 -2.96313 -0.316625 0
M  V30 2222 H 198.587 -1.46388 -0.144588 0
M  V30 2223 H 200.545 -3.09925 -2.79289 0
M  V30 2224 H 199.175 -1.98512 -2.54545 0
M  V30 2225 H 198.227 -3.70858 -0.846661 0
M  V30 2226 H 199.539 -4.80934 -1.32301 0
M  V30 2227 H 198.693 -4.82451 -3.67867 0
M  V30 2228 H 197.432 -3.63275 -3.25396 0
M  V30 2229 H 196.437 -5.25495 -1.61663 0
M  V30 2230 H 197.662 -6.46843 -2.0681 0
M  V30 2231 H 195.608 -5.24032 -3.94623 0
M  V30 2232 H 195.525 -6.82552 -3.25051 0
M  V30 2233 H 196.793 -6.44907 -4.37853 0
M  V30 2234 N 201.022 0.148545 -1.56898 0
M  V30 2235 C 202.271 0.85984 -1.82454 0
M  V30 2236 C 202.584 1.82406 -0.706229 0
M  V30 2237 O 203.79 2.57938 -0.847349 0
M  V30 2238 C 202.246 1.57967 -3.2338 0
M  V30 2239 C 201.854 0.65794 -4.43142 0
M  V30 2240 C 203.598 2.27784 -3.58211 0
M  V30 2241 C 201.505 1.3793 -5.75091 0
M  V30 2242 H 200.435 0.324834 -0.68044 0
M  V30 2243 H 203.086 0.112588 -1.83154 0
M  V30 2244 H 201.468 2.37249 -3.17063 0
M  V30 2245 H 202.642 -0.0995497 -4.60692 0
M  V30 2246 H 200.957 0.0682643 -4.16344 0
M  V30 2247 H 203.554 2.8239 -4.54048 0
M  V30 2248 H 203.897 3.04204 -2.84193 0
M  V30 2249 H 204.43 1.55421 -3.66182 0
M  V30 2250 H 201.169 0.656982 -6.52199 0
M  V30 2251 H 200.689 2.10954 -5.61479 0
M  V30 2252 H 202.368 1.92063 -6.17835 0
M  V30 2253 N 202.5 1.5196 0.417844 0
M  V30 2254 C 203.448 1.75278 1.52907 0
M  V30 2255 C 204.442 0.619611 1.57662 0
M  V30 2256 O 205.648 0.801457 1.61173 0
M  V30 2257 H 202.023 0.554141 0.508362 0
M  V30 2258 H 203.994 2.68389 1.30422 0
M  V30 2259 C 202.743 1.91262 2.90369 0
M  V30 2260 H 202.066 2.77872 2.8745 0
M  V30 2261 H 203.506 2.11581 3.67436 0
M  V30 2262 C 201.965 0.677431 3.30019 0
M  V30 2263 O 202.495 -0.158799 4.01386 0
M  V30 2264 N 200.701 0.515851 2.85985 0
M  V30 2265 H 200.248 1.19744 2.28077 0
M  V30 2266 H 200.206 -0.309315 3.12875 0
M  V30 2267 N 203.978 -0.674533 1.42435 0
M  V30 2268 C 204.91 -1.80005 1.41883 0
M  V30 2269 C 205.923 -1.59667 0.31787 0
M  V30 2270 O 207.112 -1.68781 0.580973 0
M  V30 2271 C 204.212 -3.17114 1.19549 0
M  V30 2272 C 203.385 -3.64299 2.42084 0
M  V30 2273 C 202.444 -4.80142 2.15291 0
M  V30 2274 O 201.47 -4.90673 2.88493 0
M  V30 2275 N 202.672 -5.68869 1.1562 0
M  V30 2276 H 205.437 -1.80964 2.38898 0
M  V30 2277 H 202.998 -0.857633 1.37318 0
M  V30 2278 H 204.99 -3.92267 0.995417 0
M  V30 2279 H 203.56 -3.11053 0.310569 0
M  V30 2280 H 202.78 -2.79822 2.77657 0
M  V30 2281 H 204.068 -3.92567 3.23679 0
M  V30 2282 H 203.466 -5.63012 0.550765 0
M  V30 2283 H 202.023 -6.43833 1.016 0
M  V30 2284 N 205.456 -1.28612 -0.910864 0
M  V30 2285 C 206.872 -1.06381 -1.18976 0
M  V30 2286 C 207.072 0.191998 -2.00583 0
M  V30 2287 O 206.128 0.892869 -2.36187 0
M  V30 2288 C 207.441 -2.31295 -1.92154 0
M  V30 2289 C 208.989 -2.36503 -2.05025 0
M  V30 2290 C 209.464 -3.61191 -2.81612 0
M  V30 2291 N 210.955 -3.61847 -2.89172 0
M  V30 2292 C 211.69 -4.55004 -3.4894 0
M  V30 2293 N 211.186 -5.58482 -4.09963 0
M  V30 2294 N 212.979 -4.42594 -3.46506 0
M  V30 2295 H 205.13 -2.09221 -0.366094 0
M  V30 2296 H 207.393 -0.921003 -0.224629 0
M  V30 2297 H 207.099 -3.228 -1.39618 0
M  V30 2298 H 206.973 -2.37934 -2.9269 0
M  V30 2299 H 209.36 -1.45494 -2.5674 0
M  V30 2300 H 209.441 -2.33857 -1.03657 0
M  V30 2301 H 209.085 -4.52545 -2.30576 0
M  V30 2302 H 209.015 -3.61092 -3.83302 0
M  V30 2303 H 211.506 -2.87022 -2.45819 0
M  V30 2304 H 211.819 -6.25704 -4.53557 0
M  V30 2305 H 210.164 -5.62305 -4.08459 0
M  V30 2306 H 213.355 -3.60953 -2.98045 0
M  V30 2307 H 213.528 -5.15381 -3.92793 0
M  V30 2308 N 206.934 1.1197 -1.10907 0
M  V30 2309 C 208.183 1.82947 -0.849302 0
M  V30 2310 C 208.496 1.85275 0.627112 0
M  V30 2311 O 209.702 2.52296 1.00295 0
M  V30 2312 C 208.158 3.28529 -1.46959 0
M  V30 2313 C 207.766 3.34546 -2.97965 0
M  V30 2314 C 209.51 4.04443 -1.28942 0
M  V30 2315 C 207.417 4.74491 -3.53004 0
M  V30 2316 H 206.347 0.685477 -0.314065 0
M  V30 2317 H 208.998 1.2604 -1.33365 0
M  V30 2318 H 207.38 3.85333 -0.912917 0
M  V30 2319 H 208.554 2.87654 -3.59989 0
M  V30 2320 H 206.869 2.72108 -3.15192 0
M  V30 2321 H 209.466 5.07787 -1.67502 0
M  V30 2322 H 209.809 4.15656 -0.231456 0
M  V30 2323 H 210.342 3.5401 -1.81443 0
M  V30 2324 H 207.081 4.68474 -4.58489 0
M  V30 2325 H 206.601 5.21816 -2.9575 0
M  V30 2326 H 208.28 5.4344 -3.51115 0
M  V30 2327 N 208.412 0.89855 1.29475 0
M  V30 2328 C 209.342 0.39201 2.30186 0
M  V30 2329 C 210.323 -0.532359 1.61555 0
M  V30 2330 O 211.508 -0.443331 1.89072 0
M  V30 2331 C 208.638 -0.382353 3.45189 0
M  V30 2332 C 207.592 0.451483 4.25612 0
M  V30 2333 C 206.918 -0.450307 5.328 0
M  V30 2334 C 208.218 1.70079 4.93832 0
M  V30 2335 H 209.912 1.23362 2.72804 0
M  V30 2336 H 207.458 0.594638 1.31149 0
M  V30 2337 H 209.411 -0.747451 4.14718 0
M  V30 2338 H 208.135 -1.25774 3.01411 0
M  V30 2339 H 206.794 0.798897 3.57789 0
M  V30 2340 H 206.442 -1.32379 4.85268 0
M  V30 2341 H 206.142 0.103902 5.87508 0
M  V30 2342 H 207.666 -0.811623 6.05182 0
M  V30 2343 H 209.08 1.40549 5.55805 0
M  V30 2344 H 207.477 2.19623 5.58467 0
M  V30 2345 H 208.547 2.43744 4.19186 0
M  V30 2346 N 209.89 -1.43072 0.660911 0
M  V30 2347 C 211.136 -2.0202 0.177708 0
M  V30 2348 C 211.469 -1.52066 -1.20787 0
M  V30 2349 O 210.744 -0.716987 -1.80802 0
M  V30 2350 C 211.027 -3.59561 0.197019 0
M  V30 2351 C 210.88 -4.19727 1.61706 0
M  V30 2352 C 212.199 -4.37664 -0.462396 0
M  V30 2353 H 209.318 -0.734034 0.0660494 0
M  V30 2354 H 211.96 -1.70272 0.843058 0
M  V30 2355 H 210.11 -3.86739 -0.369527 0
M  V30 2356 H 211.782 -4.03553 2.23479 0
M  V30 2357 H 210.025 -3.76084 2.16201 0
M  V30 2358 H 210.696 -5.28834 1.58237 0
M  V30 2359 H 213.172 -4.16095 0.0197215 0
M  V30 2360 H 212.048 -5.47305 -0.418188 0
M  V30 2361 H 212.309 -4.14493 -1.53778 0
M  V30 2362 N 211.368 -0.403325 -1.52352 0
M  V30 2363 C 212.614 0.174605 -2.02047 0
M  V30 2364 C 212.947 1.45282 -1.28867 0
M  V30 2365 O 212.222 1.90483 -0.393257 0
M  V30 2366 C 212.505 0.428238 -3.57545 0
M  V30 2367 C 212.358 -0.866248 -4.4138 0
M  V30 2368 C 213.677 1.21287 -4.23057 0
M  V30 2369 H 210.796 0.0619851 -0.734389 0
M  V30 2370 H 213.438 -0.53565 -1.82293 0
M  V30 2371 H 211.588 1.03327 -3.74507 0
M  V30 2372 H 213.26 -1.50265 -4.3614 0
M  V30 2373 H 211.503 -1.47851 -4.07827 0
M  V30 2374 H 212.174 -0.643249 -5.48239 0
M  V30 2375 H 214.65 0.700703 -4.10158 0
M  V30 2376 H 213.526 1.35909 -5.31808 0
M  V30 2377 H 213.787 2.23193 -3.81625 0
M  V30 2378 N 212.846 1.57033 -0.133567 0
M  V30 2379 C 214.123 1.87256 0.56522 0
M  V30 2380 C 214.503 1.03726 1.83859 0
M  V30 2381 O 213.851 0.120247 2.28183 0
M  V30 2382 C 214.061 3.3865 0.843636 0
M  V30 2383 C 215.409 4.07574 1.19032 0
M  V30 2384 O 216.433 3.43752 0.933429 0
M  V30 2385 O 215.292 5.20259 1.67312 0
M  V30 2386 H 212.386 0.775678 0.286796 0
M  V30 2387 H 214.932 1.68855 -0.169168 0
M  V30 2388 H 213.704 3.91257 -0.0581149 0
M  V30 2389 H 213.327 3.62532 1.63268 0
M  V30 2390 N 214.325 -0.140222 1.56975 0
M  V30 2391 C 215.736 -0.699596 1.73097 0
M  V30 2392 C 216.087 -1.8134 0.749022 0
M  V30 2393 O 215.212 -2.16241 -0.0828503 0
M  V30 2394 C 215.807 -1.27582 3.1386 0
M  V30 2395 C 214.366 -1.78169 3.31561 0
M  V30 2396 C 213.513 -0.672855 2.69013 0
M  V30 2397 H 216.464 0.0855115 1.58469 0
M  V30 2398 H 216.485 -2.14561 3.14235 0
M  V30 2399 H 215.997 -0.464955 3.85305 0
M  V30 2400 H 214.098 -2.61801 2.65124 0
M  V30 2401 H 214.211 -1.90574 4.39566 0
M  V30 2402 H 212.575 -1.10118 2.29665 0
M  V30 2403 H 213.358 0.126679 3.43066 0
M  V30 2404 N 215.803 -1.52179 -0.40978 0
M  V30 2405 C 217.049 -1.66453 -1.15851 0
M  V30 2406 C 217.382 -0.392972 -1.90182 0
M  V30 2407 O 216.657 0.608579 -1.84734 0
M  V30 2408 C 216.94 -2.88612 -2.15349 0
M  V30 2409 C 216.793 -4.25815 -1.44918 0
M  V30 2410 C 218.112 -3.06294 -3.16026 0
M  V30 2411 H 215.231 -0.60575 -0.419805 0
M  V30 2412 H 217.873 -1.84732 -0.444314 0
M  V30 2413 H 216.023 -2.73158 -2.76255 0
M  V30 2414 H 217.695 -4.52995 -0.871365 0
M  V30 2415 H 215.938 -4.27247 -0.751159 0
M  V30 2416 H 216.609 -5.07337 -2.17516 0
M  V30 2417 H 219.085 -3.20641 -2.65195 0
M  V30 2418 H 217.961 -3.93283 -3.8291 0
M  V30 2419 H 218.222 -2.19579 -3.83715 0
M  V30 2420 N 217.281 0.66697 -1.42791 0
M  V30 2421 C 218.509 1.45505 -1.47091 0
M  V30 2422 C 218.924 1.8861 -0.0845873 0
M  V30 2423 O 218.281 1.58632 0.90234 0
M  V30 2424 C 218.332 2.69906 -2.40485 0
M  V30 2425 O 218.053 2.28608 -3.73725 0
M  V30 2426 C 219.554 3.63396 -2.53886 0
M  V30 2427 H 216.774 0.447459 -0.500022 0
M  V30 2428 H 219.318 0.818866 -1.8739 0
M  V30 2429 H 217.473 3.29696 -2.03419 0
M  V30 2430 H 217.887 3.08997 -4.23817 0
M  V30 2431 H 219.361 4.47387 -3.2334 0
M  V30 2432 H 219.838 4.09824 -1.57927 0
M  V30 2433 H 220.444 3.09495 -2.91706 0
M  V30 2434 N 218.759 1.29093 0.90403 0
M  V30 2435 C 219.984 1.19809 1.69294 0
M  V30 2436 C 220.409 -0.238481 1.86582 0
M  V30 2437 O 219.767 -1.1723 1.383 0
M  V30 2438 C 219.815 1.91202 3.05736 0
M  V30 2439 O 218.919 1.22611 3.93752 0
M  V30 2440 H 218.26 0.415385 0.518027 0
M  V30 2441 H 220.79 1.70586 1.12967 0
M  V30 2442 H 220.8 1.99487 3.55906 0
M  V30 2443 H 219.475 2.95692 2.92471 0
M  V30 2444 H 218.052 1.22554 3.52186 0
M  V30 2445 N 220.237 -1.11381 1.11499 0
M  V30 2446 C 221.147 -2.21019 0.786628 0
M  V30 2447 C 222.163 -1.72597 -0.220507 0
M  V30 2448 O 223.339 -2.01321 -0.0565251 0
M  V30 2449 C 220.404 -3.459 0.235333 0
M  V30 2450 C 219.465 -4.09107 1.30115 0
M  V30 2451 C 218.698 -5.28027 0.776068 0
M  V30 2452 O 218.921 -5.6904 -0.393661 0
M  V30 2453 O 217.855 -5.81835 1.54114 0
M  V30 2454 H 221.681 -2.51521 1.70209 0
M  V30 2455 H 219.266 -1.19928 0.890928 0
M  V30 2456 H 221.148 -4.21346 -0.067715 0
M  V30 2457 H 219.823 -3.17049 -0.652828 0
M  V30 2458 H 218.73 -3.35391 1.65722 0
M  V30 2459 H 220.063 -4.42139 2.16273 0
M  V30 2460 N 221.715 -0.905404 -1.28997 0
M  V30 2461 C 222.665 -0.358713 -2.25161 0
M  V30 2462 C 223.649 0.524449 -1.52113 0
M  V30 2463 O 224.841 0.365534 -1.73184 0
M  V30 2464 C 221.97 0.407609 -3.40872 0
M  V30 2465 C 221.056 -0.490797 -4.21251 0
M  V30 2466 N 221.447 -1.60061 -4.79806 0
M  V30 2467 C 219.745 -0.289636 -4.45059 0
M  V30 2468 C 220.446 -2.15757 -5.40207 0
M  V30 2469 N 219.422 -1.44988 -5.23908 0
M  V30 2470 H 223.224 -1.20642 -2.67998 0
M  V30 2471 H 220.738 -0.757103 -1.43672 0
M  V30 2472 H 222.735 0.816046 -4.08835 0
M  V30 2473 H 221.395 1.25251 -2.9957 0
M  V30 2474 H 222.406 -1.98329 -4.7842 0
M  V30 2475 H 219.083 0.51643 -4.14294 0
M  V30 2476 H 220.473 -3.09069 -5.96595 0
M  V30 2477 N 223.193 1.4272 -0.668489 0
M  V30 2478 C 224.103 2.34596 0.0139753 0
M  V30 2479 C 225.119 1.5474 0.795703 0
M  V30 2480 O 226.295 1.87334 0.739466 0
M  V30 2481 C 223.36 3.33202 0.957982 0
M  V30 2482 C 222.421 4.28957 0.17149 0
M  V30 2483 C 221.654 5.22853 1.07053 0
M  V30 2484 O 221.877 5.21531 2.31001 0
M  V30 2485 O 220.811 5.9952 0.534727 0
M  V30 2486 H 224.637 2.9448 -0.742661 0
M  V30 2487 H 222.222 1.43117 -0.428705 0
M  V30 2488 H 224.104 3.93796 1.50008 0
M  V30 2489 H 222.779 2.758 1.69458 0
M  V30 2490 H 221.686 3.71796 -0.414558 0
M  V30 2491 H 223.019 4.89383 -0.52586 0
M  V30 2492 N 224.671 0.411399 1.52136 0
M  V30 2493 C 225.601 -0.404015 2.29978 0
M  V30 2494 C 226.582 -1.04412 1.34284 0
M  V30 2495 O 227.767 -1.0527 1.63192 0
M  V30 2496 C 224.897 -1.5197 3.12286 0
M  V30 2497 C 223.851 -1.00448 4.16046 0
M  V30 2498 C 223.177 -2.21393 4.86712 0
M  V30 2499 C 224.477 -0.0569336 5.22269 0
M  V30 2500 H 226.171 0.245529 2.98392 0
M  V30 2501 H 223.717 0.119525 1.43503 0
M  V30 2502 H 225.67 -2.09715 3.6551 0
M  V30 2503 H 224.394 -2.19716 2.41646 0
M  V30 2504 H 223.053 -0.449421 3.63835 0
M  V30 2505 H 222.701 -2.87699 4.12599 0
M  V30 2506 H 222.401 -1.87571 5.56858 0
M  V30 2507 H 223.925 -2.7974 5.4275 0
M  V30 2508 H 225.339 -0.54325 5.7072 0
M  V30 2509 H 223.736 0.192594 5.99791 0
M  V30 2510 H 224.806 0.887663 4.76706 0
M  V30 2511 N 226.149 -1.5696 0.141893 0
M  V30 2512 C 227.377 -2.00322 -0.517579 0
M  V30 2513 C 227.792 -1.02193 -1.58752 0
M  V30 2514 O 227.149 -0.0181619 -1.82491 0
M  V30 2515 C 227.2 -3.43618 -1.12289 0
M  V30 2516 O 226.921 -4.37995 -0.0956929 0
M  V30 2517 C 228.422 -4.02231 -1.86347 0
M  V30 2518 H 225.642 -0.657243 -0.135177 0
M  V30 2519 H 228.186 -2.03146 0.234973 0
M  V30 2520 H 226.341 -3.41662 -1.82609 0
M  V30 2521 H 226.755 -5.21729 -0.538469 0
M  V30 2522 H 228.229 -5.04509 -2.23997 0
M  V30 2523 H 228.706 -3.42655 -2.74744 0
M  V30 2524 H 229.312 -4.07802 -1.20737 0
M  V30 2525 N 227.627 0.131896 -1.57047 0
M  V30 2526 C 228.867 0.847972 -1.85981 0
M  V30 2527 C 229.231 1.77655 -0.7282 0
M  V30 2528 O 230.432 2.53322 -0.898968 0
M  V30 2529 C 228.703 1.58919 -3.20124 0
M  V30 2530 S 230.262 2.34862 -3.70655 0
M  V30 2531 H 227.08 0.283273 -0.652133 0
M  V30 2532 H 229.682 0.107057 -1.95207 0
M  V30 2533 H 228.386 0.898771 -4.00438 0
M  V30 2534 H 227.917 2.37073 -3.13942 0
M  V30 2535 H 229.932 3.60344 -3.41126 0
M  V30 2536 N 229.106 1.52395 0.401703 0
M  V30 2537 C 230.038 1.72505 1.50912 0
M  V30 2538 C 231.051 0.605468 1.51122 0
M  V30 2539 O 232.24 0.880828 1.55254 0
M  V30 2540 C 229.34 1.75711 2.89791 0
M  V30 2541 C 228.513 3.04824 3.1369 0
M  V30 2542 C 227.572 2.99743 4.32482 0
M  V30 2543 O 226.598 3.73635 4.29402 0
M  V30 2544 N 227.8 2.18047 5.37992 0
M  V30 2545 H 230.565 2.68049 1.34052 0
M  V30 2546 H 228.126 1.50724 0.591084 0
M  V30 2547 H 230.118 1.69834 3.6734 0
M  V30 2548 H 228.688 0.876092 3.00072 0
M  V30 2549 H 227.908 3.2429 2.24119 0
M  V30 2550 H 229.196 3.90221 3.26504 0
M  V30 2551 H 228.594 1.57456 5.43345 0
M  V30 2552 H 227.151 2.18021 6.14256 0
M  V30 2553 N 230.584 -0.659388 1.43143 0
M  V30 2554 C 231.547 -1.75432 1.47501 0
M  V30 2555 C 232.547 -1.56707 0.360512 0
M  V30 2556 O 233.737 -1.62717 0.622002 0
M  V30 2557 C 230.869 -3.14239 1.32162 0
M  V30 2558 H 232.062 -1.7295 2.45006 0
M  V30 2559 H 229.615 -0.870469 1.29817 0
M  V30 2560 H 230.35 -3.22336 0.356401 0
M  V30 2561 H 230.135 -3.29235 2.12948 0
M  V30 2562 H 231.625 -3.94094 1.3813 0
M  V30 2563 N 232.062 -1.29571 -0.897171 0
M  V30 2564 C 232.972 -1.16808 -2.03453 0
M  V30 2565 C 233.988 -0.0907471 -1.73763 0
M  V30 2566 O 235.164 -0.303312 -1.99103 0
M  V30 2567 C 232.229 -0.848264 -3.36163 0
M  V30 2568 C 231.29 -2.0097 -3.79354 0
M  V30 2569 C 230.523 -1.70505 -5.05731 0
M  V30 2570 O 230.746 -0.62718 -5.66941 0
M  V30 2571 O 229.68 -2.5538 -5.45036 0
M  V30 2572 H 233.506 -2.12325 -2.17144 0
M  V30 2573 H 231.091 -1.09047 -1.02123 0
M  V30 2574 H 232.973 -0.684581 -4.15802 0
M  V30 2575 H 231.648 0.0771071 -3.23608 0
M  V30 2576 H 230.555 -2.22863 -3.00471 0
M  V30 2577 H 231.888 -2.91636 -3.96496 0
M  V30 2578 N 233.54 1.10788 -1.12088 0
M  V30 2579 C 234.788 1.8231 -0.872205 0
M  V30 2580 C 235.109 1.85419 0.603709 0
M  V30 2581 O 234.379 1.32963 1.43867 0
M  V30 2582 H 232.959 0.675137 -0.319686 0
M  V30 2583 H 235.621 1.34068 -1.41463 0
M  V30 2584 H 234.717 2.85955 -1.25045 0
M  V30 2585 N 235.018 0.912232 1.28515 0
M  V30 2586 C 236.248 0.559604 1.98877 0
M  V30 2587 C 236.656 -0.863113 1.68366 0
M  V30 2588 O 235.999 -1.58304 0.931969 0
M  V30 2589 C 236.061 0.68703 3.52874 0
M  V30 2590 C 235.725 2.07901 4.06972 0
M  V30 2591 C 236.722 3.05157 4.20922 0
M  V30 2592 C 234.407 2.39178 4.417 0
M  V30 2593 C 236.401 4.31806 4.68852 0
M  V30 2594 C 234.088 3.66068 4.89324 0
M  V30 2595 C 235.086 4.62195 5.02856 0
M  V30 2596 O 234.774 5.86829 5.49442 0
M  V30 2597 H 234.506 0.212191 0.641834 0
M  V30 2598 H 237.06 1.22712 1.64715 0
M  V30 2599 H 235.29 -0.0375486 3.86682 0
M  V30 2600 H 236.979 0.341727 4.04459 0
M  V30 2601 H 237.745 2.82311 3.94367 0
M  V30 2602 H 233.624 1.65109 4.30418 0
M  V30 2603 H 237.168 5.06842 4.79329 0
M  V30 2604 H 233.065 3.88739 5.15318 0
M  V30 2605 H 233.833 5.89597 5.6773 0
M  V30 2606 N 236.496 -1.42363 0.676048 0
M  V30 2607 C 237.907 -1.84649 0.275948 0
M  V30 2608 C 238.258 -1.56588 -1.18214 0
M  V30 2609 O 237.383 -1.02634 -1.90513 0
M  V30 2610 C 237.978 -3.35178 0.494053 0
M  V30 2611 C 236.537 -3.76109 0.148061 0
M  V30 2612 C 235.684 -2.65931 0.785891 0
M  V30 2613 H 238.635 -1.32192 0.878121 0
M  V30 2614 H 238.656 -3.79655 -0.25343 0
M  V30 2615 H 238.168 -3.55571 1.55535 0
M  V30 2616 H 236.269 -3.61323 -0.909742 0
M  V30 2617 H 236.382 -4.7546 0.589454 0
M  V30 2618 H 234.746 -2.53773 0.217113 0
M  V30 2619 H 235.529 -2.89146 1.85067 0
M  V30 2620 N 237.974 -0.419461 -1.51915 0
M  V30 2621 C 238.921 0.400927 -2.27291 0
M  V30 2622 C 239.891 1.03224 -1.30131 0
M  V30 2623 O 241.076 1.05455 -1.59009 0
M  V30 2624 C 238.216 1.50603 -3.10504 0
M  V30 2625 C 237.329 0.89462 -4.22635 0
M  V30 2626 C 236.464 1.97328 -4.93189 0
M  V30 2627 C 235.503 1.33935 -5.97267 0
M  V30 2628 N 234.64 2.3586 -6.61298 0
M  V30 2629 H 239.48 -0.248251 -2.96964 0
M  V30 2630 H 237.017 -0.134266 -1.46486 0
M  V30 2631 H 238.975 2.15783 -3.57062 0
M  V30 2632 H 237.605 2.12509 -2.42981 0
M  V30 2633 H 236.657 0.131583 -3.80172 0
M  V30 2634 H 237.969 0.391641 -4.9726 0
M  V30 2635 H 237.123 2.70211 -5.43204 0
M  V30 2636 H 235.862 2.50994 -4.18155 0
M  V30 2637 H 234.867 0.595896 -5.46561 0
M  V30 2638 H 236.092 0.810252 -6.74249 0
M  V30 2639 H 234.038 2.88639 -5.89087 0
M  V30 2640 H 233.955 1.90403 -7.3163 0
M  V30 2641 H 235.223 3.08282 -7.15949 0
M  V30 2642 N 239.452 1.56882 -0.150215 0
M  V30 2643 C 240.415 2.1573 0.774157 0
M  V30 2644 C 241.415 1.0999 1.17298 0
M  V30 2645 O 242.605 1.35613 1.09338 0
M  V30 2646 C 239.737 2.72302 2.05096 0
M  V30 2647 H 240.93 2.98752 0.262201 0
M  V30 2648 H 238.483 1.55985 0.099248 0
M  V30 2649 H 239.218 1.92956 2.6065 0
M  V30 2650 H 239.003 3.49665 1.77416 0
M  V30 2651 H 240.493 3.17632 2.71109 0
M  V30 2652 N 240.93 -0.123565 1.57115 0
M  V30 2653 C 241.84 -1.17074 2.033 0
M  V30 2654 C 242.856 -1.4561 0.952559 0
M  V30 2655 O 244.032 -1.56817 1.26374 0
M  V30 2656 C 241.097 -2.47857 2.42421 0
M  V30 2657 C 240.158 -2.26758 3.64526 0
M  V30 2658 C 239.391 -3.51305 4.01771 0
M  V30 2659 O 239.614 -4.5843 3.39409 0
M  V30 2660 O 238.548 -3.42578 4.94898 0
M  V30 2661 H 242.374 -0.808555 2.92739 0
M  V30 2662 H 239.959 -0.334027 1.45618 0
M  V30 2663 H 241.841 -3.2492 2.68338 0
M  V30 2664 H 240.516 -2.83558 1.5613 0
M  V30 2665 H 239.423 -1.47569 3.43765 0
M  V30 2666 H 240.756 -1.95963 4.51508 0
M  V30 2667 N 242.408 -1.52605 -0.393616 0
M  V30 2668 C 243.654 -1.67672 -1.14079 0
M  V30 2669 C 243.987 -0.413121 -1.89755 0
M  V30 2670 O 243.262 0.588952 -1.85369 0
M  V30 2671 C 243.545 -2.9088 -2.12276 0
M  V30 2672 C 243.398 -4.27329 -1.40394 0
M  V30 2673 C 244.717 -3.09628 -3.12759 0
M  V30 2674 H 241.836 -0.610168 -0.413356 0
M  V30 2675 H 244.478 -1.85193 -0.424696 0
M  V30 2676 H 242.628 -2.76073 -2.73342 0
M  V30 2677 H 244.3 -4.53894 -0.82327 0
M  V30 2678 H 242.543 -4.2802 -0.705801 0
M  V30 2679 H 243.214 -5.09615 -2.12123 0
M  V30 2680 H 245.69 -3.23436 -2.61779 0
M  V30 2681 H 244.566 -3.97322 -3.78717 0
M  V30 2682 H 244.827 -2.23637 -3.81365 0
M  V30 2683 N 243.887 0.651787 -1.4349 0
M  V30 2684 C 245.136 1.40754 -1.44469 0
M  V30 2685 C 245.449 1.95463 -0.0731845 0
M  V30 2686 O 246.655 2.71471 0.0395721 0
M  V30 2687 C 245.111 2.54735 -2.5424 0
M  V30 2688 C 244.719 2.06628 -3.97504 0
M  V30 2689 C 246.463 3.32092 -2.64414 0
M  V30 2690 C 244.37 3.17829 -4.98737 0
M  V30 2691 H 243.3 0.528862 -0.53742 0
M  V30 2692 H 245.951 0.703365 -1.69485 0
M  V30 2693 H 244.333 3.2763 -2.22428 0
M  V30 2694 H 245.507 1.40734 -4.38783 0
M  V30 2695 H 243.822 1.42146 -3.91387 0
M  V30 2696 H 246.419 4.14952 -3.37223 0
M  V30 2697 H 246.762 3.80217 -1.69532 0
M  V30 2698 H 247.295 2.66279 -2.95534 0
M  V30 2699 H 244.034 2.74671 -5.95177 0
M  V30 2700 H 243.554 3.82429 -4.62069 0
M  V30 2701 H 245.233 3.82937 -5.21505 0
M  V30 2702 N 245.365 1.30045 0.890287 0
M  V30 2703 C 246.611 1.19747 1.64415 0
M  V30 2704 C 246.966 -0.246591 1.90813 0
M  V30 2705 O 246.259 -1.174 1.51419 0
M  V30 2706 C 246.453 1.95409 2.99249 0
M  V30 2707 C 246.282 3.47025 2.86013 0
M  V30 2708 C 245.052 4.1638 2.86279 0
M  V30 2709 C 247.25 4.42353 2.62351 0
M  V30 2710 N 245.232 5.54293 2.63879 0
M  V30 2711 C 246.603 5.67792 2.49022 0
M  V30 2712 C 248.658 4.32009 2.47533 0
M  V30 2713 C 247.361 6.8406 2.22383 0
M  V30 2714 C 249.387 5.48038 2.22279 0
M  V30 2715 C 248.749 6.72455 2.09722 0
M  V30 2716 H 244.848 0.493223 0.60684 0
M  V30 2717 H 247.432 1.6399 1.04954 0
M  V30 2718 H 245.603 1.53565 3.56752 0
M  V30 2719 H 247.335 1.77298 3.63796 0
M  V30 2720 H 244.09 3.68164 2.97913 0
M  V30 2721 H 244.514 6.26852 2.55706 0
M  V30 2722 H 249.156 3.36503 2.55979 0
M  V30 2723 H 246.874 7.79612 2.12675 0
M  V30 2724 H 250.46 5.41939 2.11643 0
M  V30 2725 H 249.34 7.60722 1.90453 0
M  V30 2726 N 246.843 -1.10192 1.12674 0
M  V30 2727 C 248.071 -1.85983 0.906527 0
M  V30 2728 C 248.486 -1.80783 -0.544333 0
M  V30 2729 O 247.843 -1.19834 -1.37645 0
M  V30 2730 C 247.894 -3.34281 1.37618 0
M  V30 2731 O 247.615 -3.39401 2.77017 0
M  V30 2732 C 249.116 -4.26938 1.19325 0
M  V30 2733 H 246.336 -0.587716 0.323775 0
M  V30 2734 H 248.88 -1.39284 1.49734 0
M  V30 2735 H 247.035 -3.78436 0.828539 0
M  V30 2736 H 247.449 -4.31838 2.97684 0
M  V30 2737 H 248.923 -5.29181 1.57071 0
M  V30 2738 H 249.4 -4.38995 0.134097 0
M  V30 2739 H 250.006 -3.8859 1.72852 0
M  V30 2740 N 248.321 -0.919034 -1.28029 0
M  V30 2741 C 249.546 -0.570357 -1.99403 0
M  V30 2742 C 249.971 0.842486 -1.68178 0
M  V30 2743 O 249.329 1.56391 -0.917141 0
M  V30 2744 C 249.377 -0.792541 -3.51783 0
M  V30 2745 O 248.481 0.145988 -4.12142 0
M  V30 2746 H 247.822 -0.220555 -0.6263 0
M  V30 2747 H 250.352 -1.23592 -1.63053 0
M  V30 2748 H 250.362 -0.704708 -4.01868 0
M  V30 2749 H 249.037 -1.82247 -3.73844 0
M  V30 2750 H 247.614 0.00897528 -3.72899 0
M  V30 2751 N 249.799 1.42003 -0.683588 0
M  V30 2752 C 251.024 2.06265 -0.216647 0
M  V30 2753 C 251.449 1.51059 1.12083 0
M  V30 2754 O 250.807 0.632638 1.69904 0
M  V30 2755 C 250.855 3.60191 -0.171759 0
M  V30 2756 O 249.959 4.03396 0.857069 0
M  V30 2757 H 249.3 0.65502 -0.108834 0
M  V30 2758 H 251.83 1.81982 -0.935077 0
M  V30 2759 H 251.84 4.08 0.0014303 0
M  V30 2760 H 250.515 3.99743 -1.14796 0
M  V30 2761 H 249.092 3.67117 0.654208 0
M  V30 2762 N 251.277 0.427512 1.51691 0
M  V30 2763 C 252.554 -0.201684 1.94557 0
M  V30 2764 C 252.934 -1.60981 1.36559 0
M  V30 2765 O 252.282 -2.21814 0.548702 0
M  V30 2766 C 252.492 -0.189394 3.48486 0
M  V30 2767 C 253.84 -0.39978 4.22714 0
M  V30 2768 O 254.864 -0.267945 3.55191 0
M  V30 2769 O 253.723 -0.661249 5.42485 0
M  V30 2770 H 250.817 -0.135261 0.815864 0
M  V30 2771 H 253.363 0.484782 1.62628 0
M  V30 2772 H 252.135 0.795431 3.8313 0
M  V30 2773 H 251.758 -0.919187 3.86829 0
M  V30 2774 N 252.755 -1.56801 0.158532 0
M  V30 2775 C 253.705 -2.13923 -0.788738 0
M  V30 2776 C 254.689 -1.07006 -1.2016 0
M  V30 2777 O 255.881 -1.33159 -1.1661 0
M  V30 2778 C 253.01 -2.77348 -2.02319 0
M  V30 2779 C 252.096 -3.91404 -1.6329 0
M  V30 2780 N 252.487 -4.9677 -0.951463 0
M  V30 2781 C 250.785 -4.02326 -1.92482 0
M  V30 2782 C 251.486 -5.76698 -0.761221 0
M  V30 2783 N 250.462 -5.27859 -1.29869 0
M  V30 2784 H 254.264 -2.92757 -0.258995 0
M  V30 2785 H 251.778 -1.62344 -0.0426055 0
M  V30 2786 H 253.775 -3.16639 -2.71192 0
M  V30 2787 H 252.435 -1.99991 -2.558 0
M  V30 2788 H 253.446 -5.14284 -0.610928 0
M  V30 2789 H 250.123 -3.36059 -2.47732 0
M  V30 2790 H 251.513 -6.71529 -0.223284 0
M  V30 2791 N 254.233 0.115231 -1.57178 0
M  V30 2792 C 255.165 1.16694 -1.97269 0
M  V30 2793 C 256.178 1.37445 -0.872502 0
M  V30 2794 O 257.367 1.36454 -1.15077 0
M  V30 2795 C 254.467 2.52627 -2.25905 0
M  V30 2796 C 253.64 2.52427 -3.57211 0
M  V30 2797 C 252.699 3.70134 -3.74016 0
M  V30 2798 O 251.725 3.53546 -4.46087 0
M  V30 2799 N 252.927 4.88844 -3.13068 0
M  V30 2800 H 255.692 0.82588 -2.88096 0
M  V30 2801 H 253.253 0.304461 -1.59011 0
M  V30 2802 H 255.245 3.29937 -2.34359 0
M  V30 2803 H 253.815 2.789 -1.41186 0
M  V30 2804 H 253.035 1.60805 -3.5991 0
M  V30 2805 H 254.323 2.49353 -4.43509 0
M  V30 2806 H 253.721 5.05225 -2.54489 0
M  V30 2807 H 252.278 5.63817 -3.27037 0
M  V30 2808 N 255.711 1.52812 0.385517 0
M  V30 2809 C 256.957 1.68275 1.13188 0
M  V30 2810 C 257.29 0.423179 1.89533 0
M  V30 2811 O 256.565 -0.579113 1.85679 0
M  V30 2812 C 256.848 2.92001 2.1073 0
M  V30 2813 C 256.701 4.28067 1.38125 0
M  V30 2814 C 258.02 3.11283 3.11113 0
M  V30 2815 H 255.139 0.612352 0.410115 0
M  V30 2816 H 257.781 1.85415 0.414869 0
M  V30 2817 H 255.931 2.77519 2.71874 0
M  V30 2818 H 257.603 4.54324 0.799187 0
M  V30 2819 H 255.846 4.28388 0.683092 0
M  V30 2820 H 256.517 5.10733 2.09417 0
M  V30 2821 H 258.993 3.2482 2.6006 0
M  V30 2822 H 257.869 3.99325 3.76605 0
M  V30 2823 H 258.13 2.25656 3.80173 0
M  V30 2824 N 257.189 -0.644168 1.43834 0
M  V30 2825 C 258.119 -1.76814 1.52509 0
M  V30 2826 C 259.1 -1.65823 0.379052 0
M  V30 2827 O 260.285 -1.84781 0.597466 0
M  V30 2828 C 257.415 -3.15288 1.4564 0
M  V30 2829 C 256.369 -3.41053 2.58586 0
M  V30 2830 C 255.695 -4.79421 2.36769 0
M  V30 2831 C 256.995 -3.34902 4.00797 0
M  V30 2832 H 258.689 -1.69812 2.46586 0
M  V30 2833 H 256.235 -0.815542 1.1868 0
M  V30 2834 H 258.188 -3.93681 1.50311 0
M  V30 2835 H 256.912 -3.23043 0.480725 0
M  V30 2836 H 255.571 -2.65035 2.53282 0
M  V30 2837 H 255.219 -4.83863 1.37424 0
M  V30 2838 H 254.919 -4.9762 3.12487 0
M  V30 2839 H 256.443 -5.6006 2.43238 0
M  V30 2840 H 257.857 -4.03218 4.07539 0
M  V30 2841 H 256.254 -3.64637 4.76613 0
M  V30 2842 H 257.324 -2.32928 4.25291 0
M  V30 2843 N 258.668 -1.30515 -0.883378 0
M  V30 2844 C 259.893 -1.22487 -1.67367 0
M  V30 2845 C 260.318 0.208767 -1.86938 0
M  V30 2846 O 259.676 1.15015 -1.40148 0
M  V30 2847 C 259.724 -1.96041 -3.02655 0
M  V30 2848 O 258.828 -1.28859 -3.91751 0
M  V30 2849 H 258.169 -0.423573 -0.511353 0
M  V30 2850 H 260.699 -1.72362 -1.10239 0
M  V30 2851 H 260.709 -2.05124 -3.52687 0
M  V30 2852 H 259.384 -3.00307 -2.8773 0
M  V30 2853 H 257.961 -1.28141 -3.50192 0
M  V30 2854 N 260.146 1.09593 -1.13257 0
M  V30 2855 C 261.394 1.81375 -0.891492 0
M  V30 2856 C 261.715 1.86049 0.584009 0
M  V30 2857 O 260.985 1.34481 1.42449 0
M  V30 2858 H 259.565 0.671708 -0.326828 0
M  V30 2859 H 262.227 1.3256 -1.42877 0
M  V30 2860 H 261.323 2.84612 -1.28071 0
M  V30 2861 N 261.624 0.925811 1.2754 0
M  V30 2862 C 262.571 0.422045 2.26908 0
M  V30 2863 C 263.541 -0.510029 1.58076 0
M  V30 2864 O 264.726 -0.429599 1.85901 0
M  V30 2865 C 261.866 -0.320837 3.43605 0
M  V30 2866 C 260.979 0.64513 4.27156 0
M  V30 2867 C 260.114 -0.117405 5.3107 0
M  V30 2868 C 259.153 0.841391 6.0629 0
M  V30 2869 N 258.29 0.111604 7.02011 0
M  V30 2870 H 263.13 1.27441 2.69375 0
M  V30 2871 H 260.667 0.639697 1.32462 0
M  V30 2872 H 262.625 -0.76785 4.10073 0
M  V30 2873 H 261.255 -1.13745 3.02096 0
M  V30 2874 H 260.307 1.21067 3.6062 0
M  V30 2875 H 261.619 1.37797 4.79389 0
M  V30 2876 H 260.773 -0.624422 6.03478 0
M  V30 2877 H 259.512 -0.883219 4.79636 0
M  V30 2878 H 258.517 1.35967 5.32722 0
M  V30 2879 H 259.742 1.60696 6.59813 0
M  V30 2880 H 257.688 -0.635999 6.5291 0
M  V30 2881 H 257.605 0.784044 7.51923 0
M  V30 2882 H 258.873 -0.374823 7.78598 0
M  V30 2883 N 263.102 -1.41638 0.69111 0
M  V30 2884 C 264.33 -2.05628 0.22909 0
M  V30 2885 C 264.745 -1.51992 -1.11999 0
M  V30 2886 O 264.102 -0.666322 -1.69901 0
M  V30 2887 C 264.153 -3.61084 0.173283 0
M  V30 2888 O 263.874 -4.12735 1.46907 0
M  V30 2889 C 265.375 -4.42213 -0.310266 0
M  V30 2890 H 262.595 -0.662327 0.107534 0
M  V30 2891 H 265.139 -1.81489 0.942438 0
M  V30 2892 H 263.294 -3.84278 -0.490858 0
M  V30 2893 H 263.708 -5.06743 1.35322 0
M  V30 2894 H 265.182 -5.51194 -0.298196 0
M  V30 2895 H 265.659 -4.1799 -1.34838 0
M  V30 2896 H 266.265 -4.24074 0.322716 0
M  V30 2897 N 264.58 -0.43555 -1.51462 0
M  V30 2898 C 265.808 0.130242 -2.0649 0
M  V30 2899 C 266.223 1.36614 -1.30315 0
M  V30 2900 O 265.58 1.78869 -0.362223 0
M  V30 2901 C 265.631 0.454253 -3.58635 0
M  V30 2902 O 265.352 -0.73259 -4.31931 0
M  V30 2903 C 266.853 1.07091 -4.3017 0
M  V30 2904 H 264.073 0.00871669 -0.670943 0
M  V30 2905 H 266.617 -0.614117 -1.95061 0
M  V30 2906 H 264.772 1.14851 -3.69984 0
M  V30 2907 H 265.186 -0.455787 -5.22516 0
M  V30 2908 H 266.66 1.24764 -5.37716 0
M  V30 2909 H 267.137 2.05144 -3.88346 0
M  V30 2910 H 267.743 0.416089 -4.2326 0
M  V30 2911 N 266.058 1.56714 -0.166846 0
M  V30 2912 C 267.286 2.0112 0.485644 0
M  V30 2913 C 267.701 1.04705 1.57106 0
M  V30 2914 O 267.058 0.0471923 1.82439 0
M  V30 2915 C 267.109 3.45361 1.06808 0
M  V30 2916 O 266.83 4.38092 0.0259995 0
M  V30 2917 C 268.331 4.05145 1.79924 0
M  V30 2918 H 265.551 0.65931 0.124704 0
M  V30 2919 H 268.095 2.02746 -0.267262 0
M  V30 2920 H 266.25 3.44524 1.7715 0
M  V30 2921 H 266.664 5.22519 0.455398 0
M  V30 2922 H 268.138 5.08009 2.15942 0
M  V30 2923 H 268.615 3.46982 2.69258 0
M  V30 2924 H 269.221 4.09672 1.14234 0
M  V30 2925 N 267.536 -0.106894 1.57237 0
M  V30 2926 C 268.764 -0.826389 1.8968 0
M  V30 2927 C 269.179 -1.72856 0.759353 0
M  V30 2928 O 268.536 -1.80503 -0.269263 0
M  V30 2929 C 268.587 -1.64967 3.21665 0
M  V30 2930 O 268.308 -0.783804 4.31031 0
M  V30 2931 C 269.809 -2.47326 3.67892 0
M  V30 2932 H 267.029 -0.236927 0.627779 0
M  V30 2933 H 269.573 -0.0876593 2.04312 0
M  V30 2934 H 267.728 -2.34103 3.08666 0
M  V30 2935 H 268.142 -1.35284 5.06753 0
M  V30 2936 H 269.616 -3.00604 4.6297 0
M  V30 2937 H 270.093 -3.25247 2.95146 0
M  V30 2938 H 270.699 -1.83411 3.83719 0
M  V30 2939 N 269.014 -1.53014 -0.377408 0
M  V30 2940 C 269.962 -1.7927 -1.48206 0
M  V30 2941 C 270.956 -0.661195 -1.55963 0
M  V30 2942 O 272.162 -0.843908 -1.58991 0
M  V30 2943 H 268.537 -0.567425 -0.493491 0
M  V30 2944 H 270.508 -2.71753 -1.2326 0
M  V30 2945 C 269.257 -1.98894 -2.85196 0
M  V30 2946 H 268.58 -2.85395 -2.79981 0
M  V30 2947 H 270.02 -2.21249 -3.61698 0
M  V30 2948 C 268.479 -0.764691 -3.28107 0
M  V30 2949 O 269.009 0.0523226 -4.01666 0
M  V30 2950 N 267.215 -0.591493 -2.84517 0
M  V30 2951 H 266.762 -1.25749 -2.24822 0
M  V30 2952 H 266.72 0.226253 -3.13585 0
M  V30 2953 N 270.492 0.636531 -1.44174 0
M  V30 2954 C 271.717 1.42847 -1.50364 0
M  V30 2955 C 272.142 1.87665 -0.127867 0
M  V30 2956 O 271.5 1.58408 0.88185 0
M  V30 2957 C 271.548 2.62854 -2.4686 0
M  V30 2958 O 270.652 3.62501 -1.9664 0
M  V30 2959 H 269.993 0.427642 -0.507955 0
M  V30 2960 H 272.523 0.777422 -1.89255 0
M  V30 2961 H 272.533 3.10465 -2.64718 0
M  V30 2962 H 271.208 2.29578 -3.46795 0
M  V30 2963 H 269.785 3.21735 -1.88523 0
M  V30 2964 N 271.97 1.30982 0.876444 0
M  V30 2965 C 272.917 1.18085 1.98304 0
M  V30 2966 C 273.887 0.0682263 1.6596 0
M  V30 2967 O 275.072 0.239937 1.89285 0
M  V30 2968 C 272.212 0.887475 3.33493 0
M  V30 2969 C 271.325 2.08281 3.78475 0
M  V30 2970 C 270.46 1.72678 5.0235 0
M  V30 2971 C 269.499 2.88657 5.39762 0
M  V30 2972 N 268.636 2.53292 6.54819 0
M  V30 2973 H 273.476 2.1275 2.08666 0
M  V30 2974 H 271.013 1.05839 1.02159 0
M  V30 2975 H 272.971 0.697961 4.1132 0
M  V30 2976 H 271.601 -0.022315 3.22792 0
M  V30 2977 H 270.653 2.3833 2.96484 0
M  V30 2978 H 271.965 2.95108 4.02135 0
M  V30 2979 H 271.119 1.50151 5.87826 0
M  V30 2980 H 269.858 0.830327 4.8058 0
M  V30 2981 H 268.863 3.1184 4.52809 0
M  V30 2982 H 270.088 3.79002 5.63502 0
M  V30 2983 H 268.034 1.66163 6.34607 0
M  V30 2984 H 267.951 3.3365 6.7839 0
M  V30 2985 H 269.219 2.34143 7.43503 0
M  V30 2986 N 273.449 -1.08991 1.13837 0
M  V30 2987 C 274.865 -1.33312 0.877506 0
M  V30 2988 C 275.065 -1.95587 -0.48456 0
M  V30 2989 O 274.121 -2.20509 -1.23013 0
M  V30 2990 C 275.434 -2.24045 2.0056 0
M  V30 2991 C 276.982 -2.37542 2.03821 0
M  V30 2992 C 277.457 -3.31614 3.15905 0
M  V30 2993 N 278.948 -3.39189 3.15445 0
M  V30 2994 C 279.683 -4.11992 3.98811 0
M  V30 2995 N 279.179 -4.87553 4.92203 0
M  V30 2996 N 280.972 -4.07762 3.86894 0
M  V30 2997 H 273.123 -0.669456 2.01574 0
M  V30 2998 H 275.386 -0.357482 0.878015 0
M  V30 2999 H 275.092 -1.85521 2.98789 0
M  V30 3000 H 274.966 -3.24466 1.92359 0
M  V30 3001 H 277.353 -2.75327 1.06202 0
M  V30 3002 H 277.434 -1.36884 2.16093 0
M  V30 3003 H 277.078 -2.94551 4.13766 0
M  V30 3004 H 277.008 -4.32186 3.0087 0
M  V30 3005 H 279.499 -2.85314 2.47799 0
M  V30 3006 H 279.812 -5.40549 5.52292 0
M  V30 3007 H 278.157 -4.86627 4.96205 0
M  V30 3008 H 281.348 -3.47833 3.13257 0
M  V30 3009 H 281.521 -4.64238 4.52092 0
M  V30 3010 N 274.927 -0.932562 -1.27047 0
M  V30 3011 C 275.837 -0.441219 -2.30414 0
M  V30 3012 C 276.853 0.480525 -1.67233 0
M  V30 3013 O 278.029 0.362151 -1.98117 0
M  V30 3014 C 275.094 0.293651 -3.45454 0
M  V30 3015 C 274.155 -0.663601 -4.2414 0
M  V30 3016 C 273.388 0.0362932 -5.33688 0
M  V30 3017 O 273.611 1.2548 -5.56427 0
M  V30 3018 O 272.545 -0.638015 -5.98509 0
M  V30 3019 H 276.371 -1.29962 -2.74488 0
M  V30 3020 H 273.956 -0.6981 -1.32087 0
M  V30 3021 H 275.838 0.707951 -4.15411 0
M  V30 3022 H 274.513 1.12758 -3.03426 0
M  V30 3023 H 273.42 -1.12768 -3.56699 0
M  V30 3024 H 274.753 -1.46489 -4.69896 0
M  V30 3025 N 276.405 1.4127 -0.698611 0
M  V30 3026 C 277.315 2.34573 -0.0357891 0
M  V30 3027 C 278.331 1.56393 0.762701 0
M  V30 3028 O 279.507 1.8886 0.699564 0
M  V30 3029 C 276.572 3.35159 0.887089 0
M  V30 3030 C 275.633 4.29225 0.0804634 0
M  V30 3031 C 274.866 5.25006 0.959387 0
M  V30 3032 O 275.089 5.26314 2.19886 0
M  V30 3033 O 274.023 6.00519 0.407439 0
M  V30 3034 H 277.849 2.92838 -0.804957 0
M  V30 3035 H 275.434 1.42175 -0.458966 0
M  V30 3036 H 277.316 3.9689 1.41621 0
M  V30 3037 H 275.991 2.79333 1.6357 0
M  V30 3038 H 274.898 3.70833 -0.493328 0
M  V30 3039 H 276.231 4.88157 -0.629547 0
M  V30 3040 N 277.883 0.443576 1.51229 0
M  V30 3041 C 278.83 -0.364716 2.279 0
M  V30 3042 C 279.8 -1.0114 1.31757 0
M  V30 3043 O 280.985 -1.02912 1.60667 0
M  V30 3044 C 278.125 -1.45644 3.12861 0
M  V30 3045 C 277.238 -0.827269 4.24005 0
M  V30 3046 C 276.373 -1.89456 4.96266 0
M  V30 3047 C 275.412 -1.24416 5.99322 0
M  V30 3048 N 274.549 -2.25309 6.64966 0
M  V30 3049 H 279.389 0.295464 2.96532 0
M  V30 3050 H 276.926 0.157554 1.46254 0
M  V30 3051 H 278.884 -2.10076 3.6045 0
M  V30 3052 H 277.514 -2.08616 2.46331 0
M  V30 3053 H 276.566 -0.0710839 3.80334 0
M  V30 3054 H 277.878 -0.312481 4.9782 0
M  V30 3055 H 277.032 -2.61535 5.47434 0
M  V30 3056 H 275.771 -2.4431 4.22095 0
M  V30 3057 H 274.776 -0.508868 5.4744 0
M  V30 3058 H 276.001 -0.702882 6.75453 0
M  V30 3059 H 273.947 -2.79231 5.93604 0
M  V30 3060 H 273.864 -1.78739 7.34567 0
M  V30 3061 H 275.132 -2.96853 7.20763 0
M  V30 3062 N 279.361 -1.56624 0.175154 0
M  V30 3063 C 280.291 -2.21155 -0.749195 0
M  V30 3064 C 281.272 -1.16836 -1.23626 0
M  V30 3065 O 282.457 -1.45277 -1.28873 0
M  V30 3066 C 279.587 -2.8553 -1.97711 0
M  V30 3067 C 278.541 -3.95921 -1.62575 0
M  V30 3068 C 277.867 -4.47365 -2.92864 0
M  V30 3069 C 279.167 -5.15323 -0.850838 0
M  V30 3070 H 280.861 -2.98653 -0.211295 0
M  V30 3071 H 278.407 -1.43651 -0.100188 0
M  V30 3072 H 280.36 -3.2935 -2.62881 0
M  V30 3073 H 279.084 -2.05406 -2.53921 0
M  V30 3074 H 277.743 -3.52762 -0.997719 0
M  V30 3075 H 277.391 -3.64027 -3.47122 0
M  V30 3076 H 277.091 -5.21839 -2.70106 0
M  V30 3077 H 278.615 -4.93873 -3.59056 0
M  V30 3078 H 280.029 -5.55812 -1.40521 0
M  V30 3079 H 278.426 -5.95739 -0.722154 0
M  V30 3080 H 279.496 -4.84661 0.152082 0
M  V30 3081 N 280.839 0.0985539 -1.57292 0
M  V30 3082 C 282.086 0.802678 -1.85912 0
M  V30 3083 C 282.414 1.78901 -0.763186 0
M  V30 3084 O 281.669 1.94178 0.243559 0
M  V30 3085 C 281.968 1.56927 -3.21105 0
M  V30 3086 C 281.634 0.725376 -4.45027 0
M  V30 3087 C 280.296 0.492726 -4.78671 0
M  V30 3088 C 282.648 0.138493 -5.21016 0
M  V30 3089 C 279.976 -0.336727 -5.85733 0
M  V30 3090 C 282.328 -0.678264 -6.28953 0
M  V30 3091 C 280.992 -0.921039 -6.61115 0
M  V30 3092 H 280.262 0.293721 -0.680301 0
M  V30 3093 H 282.909 0.0642841 -1.91392 0
M  V30 3094 H 281.214 2.37914 -3.11294 0
M  V30 3095 H 282.911 2.11841 -3.40477 0
M  V30 3096 H 279.501 0.916815 -4.18679 0
M  V30 3097 H 283.685 0.305404 -4.95359 0
M  V30 3098 H 278.941 -0.533836 -6.09065 0
M  V30 3099 H 283.115 -1.1399 -6.87007 0
M  V30 3100 H 280.742 -1.56556 -7.43905 0
M  V30 3101 N 282.317 1.53212 0.369288 0
M  V30 3102 C 283.265 1.80054 1.47253 0
M  V30 3103 C 284.259 0.669456 1.55611 0
M  V30 3104 O 285.465 0.852328 1.58541 0
M  V30 3105 H 281.84 0.570034 0.490475 0
M  V30 3106 H 283.811 2.72403 1.21817 0
M  V30 3107 C 282.56 2.00403 2.84137 0
M  V30 3108 H 281.883 2.86876 2.78464 0
M  V30 3109 H 283.323 2.23164 3.60519 0
M  V30 3110 C 281.782 0.782081 3.27697 0
M  V30 3111 O 282.312 -0.0310205 4.01688 0
M  V30 3112 N 280.518 0.606573 2.84199 0
M  V30 3113 H 280.065 1.26939 2.24152 0
M  V30 3114 H 280.023 -0.20962 3.137 0
M  V30 3115 N 283.795 -0.628877 1.44509 0
M  V30 3116 C 285.041 -1.39045 1.47629 0
M  V30 3117 C 285.374 -1.93892 0.109343 0
M  V30 3118 O 284.649 -1.7379 -0.87334 0
M  V30 3119 C 284.932 -2.55408 2.53848 0
M  V30 3120 C 284.785 -2.05896 3.99909 0
M  V30 3121 C 286.104 -3.5759 2.56549 0
M  V30 3122 H 283.223 -0.504232 0.537512 0
M  V30 3123 H 285.865 -0.710854 1.76201 0
M  V30 3124 H 284.015 -3.13384 2.29615 0
M  V30 3125 H 285.687 -1.52734 4.35282 0
M  V30 3126 H 283.93 -1.37061 4.11578 0
M  V30 3127 H 284.601 -2.89681 4.69882 0
M  V30 3128 H 287.077 -3.09419 2.78207 0
M  V30 3129 H 285.953 -4.36527 3.32769 0
M  V30 3130 H 286.214 -4.11808 1.60832 0
M  V30 3131 N 285.273 -1.31445 -0.869486 0
M  V30 3132 C 286.501 -1.24122 -1.65534 0
M  V30 3133 C 286.916 0.193387 -1.87807 0
M  V30 3134 O 286.273 1.12557 -1.43656 0
M  V30 3135 C 286.324 -1.98229 -3.02304 0
M  V30 3136 O 286.045 -3.3609 -2.81026 0
M  V30 3137 C 287.546 -1.97751 -3.96749 0
M  V30 3138 H 284.766 -0.428868 -0.516055 0
M  V30 3139 H 287.31 -1.73328 -1.08525 0
M  V30 3140 H 285.465 -1.52782 -3.56001 0
M  V30 3141 H 285.879 -3.7383 -3.67902 0
M  V30 3142 H 287.353 -2.54114 -4.90031 0
M  V30 3143 H 287.83 -0.960137 -4.28577 0
M  V30 3144 H 288.436 -2.43079 -3.48988 0
M  V30 3145 N 286.751 1.08385 -1.14413 0
M  V30 3146 C 287.976 1.85057 -0.936413 0
M  V30 3147 C 288.401 1.81055 0.509971 0
M  V30 3148 O 287.759 1.1958 1.36273 0
M  V30 3149 C 287.807 3.30505 -1.44217 0
M  V30 3150 O 286.911 4.07491 -0.634409 0
M  V30 3151 H 286.252 0.573425 -0.334784 0
M  V30 3152 H 288.782 1.36799 -1.52142 0
M  V30 3153 H 288.792 3.81348 -1.45043 0
M  V30 3154 H 287.467 3.32734 -2.49522 0
M  V30 3155 H 286.044 3.66368 -0.694902 0
M  V30 3156 N 288.23 0.939286 1.26551 0
M  V30 3157 C 289.458 0.602536 1.97932 0
M  V30 3158 C 289.873 -0.82206 1.69964 0
M  V30 3159 O 289.23 -1.54789 0.966784 0
M  V30 3160 C 289.281 0.832946 3.51773 0
M  V30 3161 O 289.002 2.20151 3.78768 0
M  V30 3162 C 290.503 0.506483 4.40397 0
M  V30 3163 H 287.723 0.227248 0.631347 0
M  V30 3164 H 290.267 1.25948 1.61113 0
M  V30 3165 H 288.422 0.222644 3.8676 0
M  V30 3166 H 288.836 2.26013 4.73306 0
M  V30 3167 H 290.31 0.718333 5.47306 0
M  V30 3168 H 290.787 -0.558451 4.35635 0
M  V30 3169 H 291.393 1.09543 4.10951 0
M  V30 3170 N 289.708 -1.40897 0.706093 0
M  V30 3171 C 290.638 -2.33418 0.0620085 0
M  V30 3172 C 291.619 -1.52385 -0.755827 0
M  V30 3173 O 292.804 -1.80886 -0.706674 0
M  V30 3174 C 289.934 -3.36293 -0.867445 0
M  V30 3175 C 288.888 -4.27716 -0.155932 0
M  V30 3176 C 288.214 -5.2105 -1.20046 0
M  V30 3177 C 289.514 -5.12944 0.984149 0
M  V30 3178 H 291.208 -2.87527 0.83477 0
M  V30 3179 H 288.754 -1.38249 0.402875 0
M  V30 3180 H 290.707 -3.99949 -1.32735 0
M  V30 3181 H 289.431 -2.80556 -1.67199 0
M  V30 3182 H 288.09 -3.65498 0.284047 0
M  V30 3183 H 287.738 -4.61624 -1.99781 0
M  V30 3184 H 287.438 -5.83056 -0.729328 0
M  V30 3185 H 288.962 -5.87584 -1.66066 0
M  V30 3186 H 290.376 -5.70109 0.604048 0
M  V30 3187 H 288.773 -5.83945 1.38304 0
M  V30 3188 H 289.843 -4.49485 1.81911 0
M  V30 3189 N 291.186 -0.45159 -1.50991 0
M  V30 3190 C 292.602 -0.104647 -1.59257 0
M  V30 3191 C 292.802 1.38728 -1.4614 0
M  V30 3192 O 291.858 2.15866 -1.30989 0
M  V30 3193 C 293.171 -0.637468 -2.93865 0
M  V30 3194 C 294.719 -0.599166 -3.07212 0
M  V30 3195 C 295.194 -1.1092 -4.44366 0
M  V30 3196 N 296.685 -1.06778 -4.50725 0
M  V30 3197 C 297.42 -1.43314 -5.55201 0
M  V30 3198 N 296.916 -1.87204 -6.67028 0
M  V30 3199 N 298.709 -1.3504 -5.45638 0
M  V30 3200 H 290.86 -1.42214 -1.57762 0
M  V30 3201 H 293.123 -0.586921 -0.744465 0
M  V30 3202 H 292.829 -1.68187 -3.08879 0
M  V30 3203 H 292.703 -0.0702139 -3.77135 0
M  V30 3204 H 295.09 0.436277 -2.91857 0
M  V30 3205 H 295.171 -1.20299 -2.25747 0
M  V30 3206 H 294.815 -2.14318 -4.60467 0
M  V30 3207 H 294.745 -0.481773 -5.24392 0
M  V30 3208 H 297.236 -0.745643 -3.70471 0
M  V30 3209 H 297.549 -2.13282 -7.42786 0
M  V30 3210 H 295.894 -1.91142 -6.68199 0
M  V30 3211 H 299.085 -1.00607 -4.57161 0
M  V30 3212 H 299.258 -1.63841 -6.26945 0
M  V30 3213 N 292.664 1.56529 -0.183458 0
M  V30 3214 C 293.913 1.96419 0.458511 0
M  V30 3215 C 294.226 1.0727 1.63562 0
M  V30 3216 O 295.432 1.36893 2.34462 0
M  V30 3217 C 293.888 3.49298 0.867122 0
M  V30 3218 C 293.496 4.47092 -0.285057 0
M  V30 3219 C 295.24 3.97983 1.47683 0
M  V30 3220 C 293.147 5.91225 0.143862 0
M  V30 3221 H 292.077 0.733394 0.175071 0
M  V30 3222 H 294.728 1.81448 -0.273624 0
M  V30 3223 H 293.11 3.59731 1.65559 0
M  V30 3224 H 294.284 4.48383 -1.0625 0
M  V30 3225 H 292.599 4.08535 -0.805503 0
M  V30 3226 H 295.196 5.03134 1.80999 0
M  V30 3227 H 295.539 3.41618 2.37914 0
M  V30 3228 H 296.072 3.90617 0.752562 0
M  V30 3229 H 292.811 6.5149 -0.723974 0
M  V30 3230 H 292.331 5.93214 0.886413 0
M  V30 3231 H 294.01 6.44362 0.583628 0
M  V30 3232 N 294.142 -0.090211 1.57342 0
M  V30 3233 C 295.09 -1.12792 2.03422 0
M  V30 3234 C 296.084 -1.41182 0.936166 0
M  V30 3235 O 297.29 -1.40805 1.12133 0
M  V30 3236 H 293.665 -0.380986 0.648347 0
M  V30 3237 H 295.636 -0.71299 2.89757 0
M  V30 3238 C 294.385 -2.43855 2.47851 0
M  V30 3239 H 293.708 -2.22855 3.31927 0
M  V30 3240 H 295.148 -3.14955 2.83865 0
M  V30 3241 C 293.607 -3.08503 1.3538 0
M  V30 3242 O 294.137 -3.95805 0.685641 0
M  V30 3243 N 292.343 -2.68831 1.10355 0
M  V30 3244 H 291.89 -1.97929 1.64869 0
M  V30 3245 H 291.848 -3.12412 0.353031 0
M  V30 3246 N 295.62 -1.53406 -0.361157 0
M  V30 3247 C 296.848 -1.73717 -1.12383 0
M  V30 3248 C 297.263 -0.468161 -1.82904 0
M  V30 3249 O 296.62 0.559198 -1.73722 0
M  V30 3250 C 296.671 -2.90558 -2.15078 0
M  V30 3251 O 296.392 -4.12549 -1.47428 0
M  V30 3252 C 297.893 -3.22777 -3.03858 0
M  V30 3253 H 295.113 -0.580896 -0.335858 0
M  V30 3254 H 297.657 -2.00167 -0.418728 0
M  V30 3255 H 295.812 -2.66489 -2.8118 0
M  V30 3256 H 296.226 -4.78009 -2.15887 0
M  V30 3257 H 297.7 -4.07927 -3.71887 0
M  V30 3258 H 298.177 -2.38329 -3.68912 0
M  V30 3259 H 298.783 -3.48787 -2.43367 0
M  V30 3260 N 297.098 0.621204 -1.44841 0
M  V30 3261 C 298.326 1.40752 -1.51646 0
M  V30 3262 C 298.741 1.88246 -0.144549 0
M  V30 3263 O 298.098 1.61422 0.851416 0
M  V30 3264 C 298.149 2.62119 -2.4895 0
M  V30 3265 O 297.87 2.16602 -3.80808 0
M  V30 3266 C 299.371 3.55135 -2.65319 0
M  V30 3267 H 296.591 0.431325 -0.514004 0
M  V30 3268 H 299.135 0.758835 -1.899 0
M  V30 3269 H 297.29 3.23058 -2.13805 0
M  V30 3270 H 297.704 2.95358 -4.33433 0
M  V30 3271 H 299.178 4.36874 -3.37409 0
M  V30 3272 H 299.655 4.04592 -1.70886 0
M  V30 3273 H 300.261 3.00058 -3.01405 0
M  V30 3274 N 298.576 1.31904 0.862503 0
M  V30 3275 C 299.804 1.24998 1.64873 0
M  V30 3276 C 300.219 -0.183425 1.87907 0
M  V30 3277 O 299.576 -1.11794 1.44251 0
M  V30 3278 C 299.627 1.99829 3.01248 0
M  V30 3279 O 299.348 3.37575 2.79239 0
M  V30 3280 C 300.849 1.99852 3.95694 0
M  V30 3281 H 298.069 0.431599 0.513773 0
M  V30 3282 H 300.613 1.73901 1.07604 0
M  V30 3283 H 298.768 1.54668 3.55185 0
M  V30 3284 H 299.182 3.75776 3.65914 0
M  V30 3285 H 300.656 2.56709 4.88676 0
M  V30 3286 H 301.133 0.982852 4.28062 0
M  V30 3287 H 301.739 2.44926 3.47694 0
M  V30 3288 N 300.054 -1.07777 1.14986 0
M  V30 3289 C 301.002 -2.16964 0.838406 0
M  V30 3290 C 301.996 -1.68372 -0.186386 0
M  V30 3291 O 303.202 -1.79951 -0.0418465 0
M  V30 3292 H 299.577 -0.708006 0.253439 0
M  V30 3293 H 301.548 -2.40454 1.76704 0
M  V30 3294 C 300.297 -3.4604 0.339335 0
M  V30 3295 H 299.62 -3.83813 1.11927 0
M  V30 3296 H 301.06 -4.23698 0.160021 0
M  V30 3297 C 299.519 -3.23569 -0.938325 0
M  V30 3298 O 300.049 -3.47752 -2.01077 0
M  V30 3299 N 298.255 -2.77079 -0.876117 0
M  V30 3300 H 297.802 -2.576 -0.00322037 0
M  V30 3301 H 297.76 -2.62422 -1.73153 0
M  V30 3302 N 301.532 -0.945985 -1.26051 0
M  V30 3303 C 302.442 -0.465633 -2.29933 0
M  V30 3304 C 303.458 0.462761 -1.67733 0
M  V30 3305 O 304.634 0.341118 -1.9849 0
M  V30 3306 C 301.699 0.256994 -3.45746 0
M  V30 3307 C 300.76 -0.708549 -4.23412 0
M  V30 3308 C 299.993 -0.0203135 -5.33696 0
M  V30 3309 O 300.216 1.19571 -5.57726 0
M  V30 3310 O 299.15 -0.701459 -5.97799 0
M  V30 3311 H 302.976 -1.32866 -2.73094 0
M  V30 3312 H 300.561 -0.712071 -1.31339 0
M  V30 3313 H 302.443 0.663852 -4.16138 0
M  V30 3314 H 301.118 1.09533 -3.04605 0
M  V30 3315 H 300.025 -1.16545 -3.55483 0
M  V30 3316 H 301.358 -1.51465 -4.68315 0
M  V30 3317 N 303.011 1.40521 -0.713556 0
M  V30 3318 C 304.26 2.00155 -0.249192 0
M  V30 3319 C 304.573 1.57224 1.16362 0
M  V30 3320 O 305.779 2.09542 1.72639 0
M  V30 3321 C 304.235 3.5773 -0.3946 0
M  V30 3322 C 303.843 4.09635 -1.81392 0
M  V30 3323 C 305.587 4.24499 0.00907364 0
M  V30 3324 C 303.494 5.59707 -1.91003 0
M  V30 3325 H 302.424 0.74868 -0.0894114 0
M  V30 3326 H 305.075 1.60784 -0.884352 0
M  V30 3327 H 303.457 3.94792 0.30911 0
M  V30 3328 H 304.631 3.83955 -2.54785 0
M  V30 3329 H 302.946 3.55456 -2.16888 0
M  V30 3330 H 305.543 5.34683 -0.0420404 0
M  V30 3331 H 305.886 4.02824 1.05065 0
M  V30 3332 H 306.419 3.92536 -0.645007 0
M  V30 3333 H 303.158 5.86234 -2.93275 0
M  V30 3334 H 302.678 5.87258 -1.22019 0
M  V30 3335 H 304.357 6.24776 -1.6812 0
M  V30 3336 N 304.489 0.459591 1.5075 0
M  V30 3337 C 305.736 -0.0993495 2.02256 0
M  V30 3338 C 306.064 -1.40751 1.34237 0
M  V30 3339 O 305.319 -1.90379 0.453228 0
M  V30 3340 C 305.618 -0.342866 3.55752 0
M  V30 3341 C 305.284 0.88218 4.42186 0
M  V30 3342 C 303.946 1.21808 4.65528 0
M  V30 3343 C 306.298 1.69837 4.92752 0
M  V30 3344 C 303.626 2.37045 5.36681 0
M  V30 3345 C 305.978 2.84192 5.65171 0
M  V30 3346 C 304.642 3.1821 5.8677 0
M  V30 3347 H 303.912 -0.0363545 0.740108 0
M  V30 3348 H 306.559 0.611329 1.8148 0
M  V30 3349 H 304.864 -1.13567 3.7498 0
M  V30 3350 H 306.561 -0.789121 3.93159 0
M  V30 3351 H 303.151 0.610467 4.2423 0
M  V30 3352 H 307.335 1.45205 4.74583 0
M  V30 3353 H 302.591 2.63689 5.51614 0
M  V30 3354 H 306.765 3.4779 6.03337 0
M  V30 3355 H 304.392 4.07613 6.41682 0
M  V30 3356 N 305.967 -1.56429 0.191757 0
M  V30 3357 C 307.197 -2.01574 -0.452928 0
M  V30 3358 C 307.605 -1.07107 -1.55964 0
M  V30 3359 O 306.948 -0.067534 -1.83576 0
M  V30 3360 C 307.01 -3.43121 -1.07278 0
M  V30 3361 C 306.674 -4.56879 -0.105214 0
M  V30 3362 C 307.671 -5.15379 0.684149 0
M  V30 3363 C 305.356 -5.023 0.00489824 0
M  V30 3364 C 307.35 -6.17746 1.57062 0
M  V30 3365 C 305.037 -6.04511 0.894935 0
M  V30 3366 C 306.035 -6.62108 1.67637 0
M  V30 3367 O 305.723 -7.62335 2.55149 0
M  V30 3368 H 305.455 -0.665554 -0.118379 0
M  V30 3369 H 308.009 -2.03245 0.296737 0
M  V30 3370 H 306.239 -3.38425 -1.87097 0
M  V30 3371 H 307.928 -3.72093 -1.62177 0
M  V30 3372 H 308.694 -4.81157 0.609365 0
M  V30 3373 H 304.573 -4.57168 -0.593156 0
M  V30 3374 H 308.117 -6.6263 2.181 0
M  V30 3375 H 304.014 -6.38157 0.970847 0
M  V30 3376 H 304.782 -7.79741 2.48892 0
M  V30 3377 N 307.445 0.0818655 -1.57387 0
M  V30 3378 C 308.685 0.788375 -1.88584 0
M  V30 3379 C 309.049 1.75248 -0.784351 0
M  V30 3380 O 310.25 2.50334 -0.979105 0
M  V30 3381 C 308.521 1.48654 -3.25018 0
M  V30 3382 S 310.08 2.22951 -3.7794 0
M  V30 3383 H 306.898 0.262383 -0.660815 0
M  V30 3384 H 309.5 0.0448995 -1.95448 0
M  V30 3385 H 308.204 0.770919 -4.03094 0
M  V30 3386 H 307.735 2.26965 -3.21326 0
M  V30 3387 H 309.75 3.49309 -3.52417 0
M  V30 3388 N 308.923 1.53595 0.353017 0
M  V30 3389 C 310.151 1.74311 1.1146 0
M  V30 3390 C 310.566 0.477854 1.82653 0
M  V30 3391 O 309.923 -0.549977 1.74016 0
M  V30 3392 C 309.974 2.91694 2.13534 0
M  V30 3393 O 309.695 4.13325 1.45238 0
M  V30 3394 C 311.196 3.24384 3.02142 0
M  V30 3395 H 308.416 0.582669 0.332773 0
M  V30 3396 H 310.96 2.00386 0.408107 0
M  V30 3397 H 309.115 2.67977 2.79763 0
M  V30 3398 H 309.529 4.79148 2.13349 0
M  V30 3399 H 311.003 4.09893 3.69718 0
M  V30 3400 H 311.48 2.40282 3.67643 0
M  V30 3401 H 312.086 3.50073 2.41514 0
M  V30 3402 N 310.401 -0.613514 1.45168 0
M  V30 3403 C 311.648 -1.37268 1.48875 0
M  V30 3404 C 311.976 -1.94077 0.128161 0
M  V30 3405 O 311.231 -1.75178 -0.872416 0
M  V30 3406 C 311.53 -2.54347 2.51083 0
M  V30 3407 C 311.196 -2.1572 3.95949 0
M  V30 3408 C 309.858 -2.04899 4.35396 0
M  V30 3409 C 312.21 -1.85485 4.87078 0
M  V30 3410 C 309.538 -1.62057 5.63875 0
M  V30 3411 C 311.89 -1.4413 6.15962 0
M  V30 3412 C 310.554 -1.31863 6.54346 0
M  V30 3413 H 309.824 -0.502299 0.544773 0
M  V30 3414 H 312.471 -0.694021 1.78481 0
M  V30 3415 H 310.776 -3.27524 2.15024 0
M  V30 3416 H 312.473 -3.12577 2.51191 0
M  V30 3417 H 309.063 -2.25066 3.64751 0
M  V30 3418 H 313.247 -1.92745 4.57343 0
M  V30 3419 H 308.503 -1.51177 5.92415 0
M  V30 3420 H 312.677 -1.19778 6.86022 0
M  V30 3421 H 310.304 -0.984392 7.538 0
M  V30 3422 N 311.879 -1.3236 -0.855495 0
M  V30 3423 C 313.295 -1.11332 -1.14356 0
M  V30 3424 C 313.495 0.106751 -2.01217 0
M  V30 3425 O 312.551 0.791891 -2.39761 0
M  V30 3426 C 313.864 -2.39237 -1.82171 0
M  V30 3427 C 315.412 -2.44986 -1.9481 0
M  V30 3428 C 315.887 -3.7281 -2.66039 0
M  V30 3429 N 317.378 -3.73787 -2.73565 0
M  V30 3430 C 318.113 -4.69394 -3.29327 0
M  V30 3431 N 317.609 -5.75367 -3.85907 0
M  V30 3432 N 319.402 -4.56893 -3.27423 0
M  V30 3433 H 311.553 -2.10586 -0.277027 0
M  V30 3434 H 313.816 -0.929701 -0.185364 0
M  V30 3435 H 313.522 -3.28431 -1.25802 0
M  V30 3436 H 313.396 -2.50134 -2.82335 0
M  V30 3437 H 315.783 -1.56252 -2.50338 0
M  V30 3438 H 315.864 -2.38043 -0.936448 0
M  V30 3439 H 315.508 -4.61918 -2.11174 0
M  V30 3440 H 315.438 -3.77024 -3.67642 0
M  V30 3441 H 317.929 -2.97189 -2.33424 0
M  V30 3442 H 318.242 -6.44378 -4.26611 0
M  V30 3443 H 316.587 -5.79123 -3.84242 0
M  V30 3444 H 319.778 -3.73269 -2.82467 0
M  V30 3445 H 319.951 -5.31577 -3.7058 0
M  V30 3446 N 313.357 1.07166 -1.15556 0
M  V30 3447 C 314.773 1.31899 -0.898603 0
M  V30 3448 C 314.973 1.96333 0.453383 0
M  V30 3449 O 314.029 2.22438 1.19489 0
M  V30 3450 C 315.342 2.20826 -2.04099 0
M  V30 3451 C 316.89 2.34269 -2.07574 0
M  V30 3452 C 317.365 3.26546 -3.21141 0
M  V30 3453 N 318.856 3.34127 -3.20801 0
M  V30 3454 C 319.591 4.05595 -4.05315 0
M  V30 3455 N 319.087 4.79661 -4.99897 0
M  V30 3456 N 320.88 4.01555 -3.93332 0
M  V30 3457 H 313.031 0.637302 -2.02613 0
M  V30 3458 H 315.294 0.343468 -0.883591 0
M  V30 3459 H 315 1.80744 -3.01703 0
M  V30 3460 H 314.874 3.21364 -1.97496 0
M  V30 3461 H 317.261 2.73603 -1.10568 0
M  V30 3462 H 317.342 1.33429 -2.18244 0
M  V30 3463 H 316.986 2.87931 -4.184 0
M  V30 3464 H 316.916 4.27345 -3.07708 0
M  V30 3465 H 319.407 2.81336 -2.52306 0
M  V30 3466 H 319.72 5.31694 -5.60822 0
M  V30 3467 H 318.065 4.78671 -5.03884 0
M  V30 3468 H 321.256 3.42806 -3.18751 0
M  V30 3469 H 321.429 4.56987 -4.5942 0
M  V30 3470 N 314.835 0.952656 1.25548 0
M  V30 3471 C 315.765 0.489287 2.28316 0
M  V30 3472 C 316.746 -0.463359 1.63667 0
M  V30 3473 O 317.931 -0.36274 1.90782 0
M  V30 3474 C 315.061 -0.235603 3.465 0
M  V30 3475 C 314.015 0.631593 4.23314 0
M  V30 3476 C 313.341 -0.223923 5.34231 0
M  V30 3477 C 314.641 1.90871 4.86174 0
M  V30 3478 H 316.335 1.34822 2.67326 0
M  V30 3479 H 313.881 0.649728 1.28509 0
M  V30 3480 H 315.834 -0.570882 4.17515 0
M  V30 3481 H 314.558 -1.12877 3.06474 0
M  V30 3482 H 313.217 0.949929 3.54079 0
M  V30 3483 H 312.865 -1.11678 4.90446 0
M  V30 3484 H 312.565 0.35299 5.86539 0
M  V30 3485 H 314.089 -0.554214 6.0808 0
M  V30 3486 H 315.503 1.63997 5.49343 0
M  V30 3487 H 313.9 2.43112 5.4865 0
M  V30 3488 H 314.97 2.61304 4.08471 0
M  V30 3489 N 316.313 -1.40141 0.720998 0
M  V30 3490 C 317.59 -1.94677 0.189757 0
M  V30 3491 C 317.97 -1.65879 -1.30566 0
M  V30 3492 O 317.318 -0.979391 -2.06447 0
M  V30 3493 C 317.528 -3.45279 0.508304 0
M  V30 3494 C 318.876 -4.22209 0.449934 0
M  V30 3495 O 319.9 -3.53413 0.444677 0
M  V30 3496 O 318.759 -5.44788 0.432189 0
M  V30 3497 H 315.853 -0.826459 0.0299026 0
M  V30 3498 H 318.399 -1.49719 0.7989 0
M  V30 3499 H 317.171 -3.59619 1.54239 0
M  V30 3500 H 316.794 -3.97386 -0.130525 0
M  V30 3501 N 317.792 -0.46758 -1.50504 0
M  V30 3502 C 319.203 -0.0116166 -1.86696 0
M  V30 3503 C 319.554 1.39202 -1.38265 0
M  V30 3504 O 318.679 2.0313 -0.746132 0
M  V30 3505 C 319.274 -0.0143044 -3.38797 0
M  V30 3506 C 317.833 0.386175 -3.74414 0
M  V30 3507 C 316.98 -0.401287 -2.74381 0
M  V30 3508 H 319.931 -0.682022 -1.43297 0
M  V30 3509 H 319.952 0.788641 -3.72237 0
M  V30 3510 H 319.464 -1.03602 -3.74016 0
M  V30 3511 H 317.565 1.41237 -3.44794 0
M  V30 3512 H 317.678 0.0899596 -4.79016 0
M  V30 3513 H 316.042 0.144536 -2.5429 0
M  V30 3514 H 316.825 -1.42244 -3.12444 0
M  V30 3515 N 319.27 1.56325 -0.20005 0
M  V30 3516 C 320.18 2.22931 0.730668 0
M  V30 3517 C 321.196 1.22997 1.23076 0
M  V30 3518 O 322.372 1.55748 1.27689 0
M  V30 3519 C 319.437 2.87948 1.93098 0
M  V30 3520 C 318.498 4.03166 1.47497 0
M  V30 3521 C 317.731 4.65073 2.61807 0
M  V30 3522 O 317.954 4.25913 3.79413 0
M  V30 3523 O 316.888 5.54452 2.34237 0
M  V30 3524 H 320.714 3.03084 0.193391 0
M  V30 3525 H 318.299 1.49371 0.0294621 0
M  V30 3526 H 320.181 3.29063 2.6324 0
M  V30 3527 H 318.856 2.10771 2.45677 0
M  V30 3528 H 317.763 3.66664 0.742201 0
M  V30 3529 H 319.096 4.82022 0.995796 0
M  V30 3530 N 320.748 -0.0735177 1.57428 0
M  V30 3531 C 321.658 -1.10547 2.06922 0
M  V30 3532 C 322.674 -1.42506 0.998402 0
M  V30 3533 O 323.85 -1.52717 1.31299 0
M  V30 3534 C 320.915 -2.40019 2.50184 0
M  V30 3535 C 319.976 -2.15046 3.71556 0
M  V30 3536 C 319.209 -3.38345 4.12745 0
M  V30 3537 O 319.432 -4.47399 3.53822 0
M  V30 3538 O 318.366 -3.2666 5.05546 0
M  V30 3539 H 322.192 -0.715013 2.95163 0
M  V30 3540 H 319.777 -0.287531 1.46607 0
M  V30 3541 H 321.659 -3.16218 2.78539 0
M  V30 3542 H 320.334 -2.78447 1.65072 0
M  V30 3543 H 319.241 -1.36558 3.48285 0
M  V30 3544 H 320.574 -1.81499 4.57514 0
M  V30 3545 N 322.226 -1.5378 -0.344866 0
M  V30 3546 C 323.174 -1.82373 -1.4437 0
M  V30 3547 C 324.168 -0.694128 -1.54526 0
M  V30 3548 O 325.374 -0.877442 -1.57165 0
M  V30 3549 H 321.749 -0.577765 -0.481344 0
M  V30 3550 H 323.72 -2.74306 -1.17468 0
M  V30 3551 C 322.469 -2.04898 -2.80913 0
M  V30 3552 H 321.792 -2.9127 -2.73865 0
M  V30 3553 H 323.232 -2.28871 -3.56923 0
M  V30 3554 C 321.691 -0.834116 -3.26411 0
M  V30 3555 O 322.221 -0.0328885 -4.01687 0
M  V30 3556 N 320.427 -0.65171 -2.83198 0
M  V30 3557 H 319.974 -1.30489 -2.22104 0
M  V30 3558 H 319.932 0.159686 -3.13994 0
M  V30 3559 N 323.704 0.605807 -1.45491 0
M  V30 3560 C 324.654 1.71074 -1.50724 0
M  V30 3561 C 325.638 1.5658 -0.37033 0
M  V30 3562 O 326.83 1.65887 -0.617299 0
M  V30 3563 C 323.959 3.0983 -1.47852 0
M  V30 3564 C 323.045 3.29704 -2.66751 0
M  V30 3565 N 323.436 3.19831 -3.91844 0
M  V30 3566 C 321.734 3.60579 -2.62486 0
M  V30 3567 C 322.435 3.41083 -4.71208 0
M  V30 3568 N 321.411 3.65157 -4.02693 0
M  V30 3569 H 325.213 1.61937 -2.45263 0
M  V30 3570 H 322.727 0.80912 -1.40808 0
M  V30 3571 H 324.724 3.89101 -1.49686 0
M  V30 3572 H 323.384 3.20115 -0.543714 0
M  V30 3573 H 324.395 2.98194 -4.23439 0
M  V30 3574 H 321.072 3.7769 -1.77922 0
M  V30 3575 H 322.462 3.38828 -5.80211 0
M  V30 3576 N 325.182 1.32811 0.848464 0
M  V30 3577 C 326.41 1.26739 1.63538 0
M  V30 3578 C 326.825 -0.163484 1.88091 0
M  V30 3579 O 326.182 -1.10258 1.45429 0
M  V30 3580 C 326.233 2.03013 2.99112 0
M  V30 3581 O 325.954 3.40518 2.75643 0
M  V30 3582 C 327.455 2.04038 3.93552 0
M  V30 3583 H 324.675 0.437024 0.509167 0
M  V30 3584 H 327.219 1.75033 1.05753 0
M  V30 3585 H 325.374 1.58426 3.53525 0
M  V30 3586 H 325.788 3.79635 3.61908 0
M  V30 3587 H 327.262 2.61877 4.85926 0
M  V30 3588 H 327.739 1.0282 4.26995 0
M  V30 3589 H 328.345 2.486 3.45077 0
M  V30 3590 N 326.66 -1.06551 1.16123 0
M  V30 3591 C 327.623 -2.12132 0.867906 0
M  V30 3592 C 328.623 -1.60224 -0.135944 0
M  V30 3593 O 329.813 -1.73943 0.0946422 0
M  V30 3594 C 326.945 -3.396 0.297419 0
M  V30 3595 H 328.138 -2.39586 1.80385 0
M  V30 3596 H 325.691 -1.22574 0.969812 0
M  V30 3597 H 326.426 -3.17794 -0.64633 0
M  V30 3598 H 326.211 -3.78581 1.02073 0
M  V30 3599 H 327.701 -4.17455 0.110052 0
M  V30 3600 N 328.138 -0.959301 -1.25041 0
M  V30 3601 C 329.048 -0.489994 -2.29426 0
M  V30 3602 C 330.064 0.444944 -1.68215 0
M  V30 3603 O 331.24 0.320046 -1.98841 0
M  V30 3604 C 328.305 0.220309 -3.45999 0
M  V30 3605 C 327.366 -0.753418 -4.22637 0
M  V30 3606 C 326.599 -0.076918 -5.33645 0
M  V30 3607 O 326.822 1.13649 -5.58963 0
M  V30 3608 O 325.756 -0.764824 -5.97021 0
M  V30 3609 H 329.582 -1.35755 -2.71669 0
M  V30 3610 H 327.167 -0.725961 -1.30576 0
M  V30 3611 H 329.049 0.619677 -4.16819 0
M  V30 3612 H 327.724 1.06296 -3.0575 0
M  V30 3613 H 326.631 -1.20308 -3.54227 0
M  V30 3614 H 327.964 -1.56423 -4.66683 0
M  V30 3615 N 329.616 1.39756 -0.72842 0
M  V30 3616 C 330.546 2.33289 -0.0991354 0
M  V30 3617 C 331.527 1.53568 0.731489 0
M  V30 3618 O 332.712 1.81987 0.677807 0
M  V30 3619 C 329.842 3.3763 0.813834 0
M  V30 3620 C 328.796 4.2791 0.0878663 0
M  V30 3621 C 328.122 5.22894 1.11741 0
M  V30 3622 C 329.422 5.11314 -1.06563 0
M  V30 3623 H 331.116 2.86163 -0.880408 0
M  V30 3624 H 328.662 1.37591 -0.424819 0
M  V30 3625 H 330.615 4.0201 1.26355 0
M  V30 3626 H 329.339 2.83181 1.62715 0
M  V30 3627 H 327.998 3.65 -0.342159 0
M  V30 3628 H 327.646 4.64744 1.92412 0
M  V30 3629 H 327.346 5.84143 0.636477 0
M  V30 3630 H 328.87 5.90151 1.56697 0
M  V30 3631 H 330.284 5.69076 -0.694671 0
M  V30 3632 H 328.681 5.81671 -1.47577 0
M  V30 3633 H 329.751 4.46534 -1.89038 0
M  V30 3634 N 331.094 0.475555 1.50254 0
M  V30 3635 C 332.34 -0.0780073 2.0265 0
M  V30 3636 C 332.673 -1.38968 1.35652 0
M  V30 3637 O 331.948 -1.8839 0.483691 0
M  V30 3638 C 332.231 -0.257161 3.59181 0
M  V30 3639 C 332.084 1.07585 4.36744 0
M  V30 3640 C 333.403 -1.00965 4.28362 0
M  V30 3641 H 330.522 -0.0268758 0.73651 0
M  V30 3642 H 333.164 0.622015 1.7953 0
M  V30 3643 H 331.314 -0.853412 3.79011 0
M  V30 3644 H 332.986 1.70902 4.28474 0
M  V30 3645 H 331.229 1.6714 4.00308 0
M  V30 3646 H 331.9 0.904088 5.44546 0
M  V30 3647 H 334.376 -0.504214 4.13034 0
M  V30 3648 H 333.252 -1.10381 5.37687 0
M  V30 3649 H 333.513 -2.04731 3.91839 0
M  V30 3650 N 332.573 -1.56217 0.208337 0
M  V30 3651 C 333.822 -1.97124 -0.427204 0
M  V30 3652 C 334.135 -1.09859 -1.61835 0
M  V30 3653 O 335.341 -1.40606 -2.32255 0
M  V30 3654 C 333.797 -3.50633 -0.811442 0
M  V30 3655 C 333.405 -4.46582 0.35615 0
M  V30 3656 C 335.149 -4.00282 -1.41332 0
M  V30 3657 C 333.056 -5.91379 -0.0497852 0
M  V30 3658 H 331.986 -0.736086 -0.163381 0
M  V30 3659 H 334.637 -1.8099 0.302456 0
M  V30 3660 H 333.019 -3.62319 -1.59815 0
M  V30 3661 H 334.193 -4.46636 1.1337 0
M  V30 3662 H 332.508 -4.07202 0.870396 0
M  V30 3663 H 335.105 -5.0595 -1.72972 0
M  V30 3664 H 335.448 -3.45359 -2.32449 0
M  V30 3665 H 335.981 -3.91764 -0.690323 0
M  V30 3666 H 332.72 -6.50255 0.827529 0
M  V30 3667 H 332.24 -5.94549 -0.791926 0
M  V30 3668 H 333.919 -6.45209 -0.481042 0
M  V30 3669 N 334.051 0.0651679 -1.57465 0
M  V30 3670 C 335.462 0.616213 -1.76238 0
M  V30 3671 C 335.813 1.7756 -0.834689 0
M  V30 3672 O 334.938 2.1639 -0.0204156 0
M  V30 3673 C 335.533 1.12462 -3.1959 0
M  V30 3674 C 334.092 1.62147 -3.39684 0
M  V30 3675 C 333.239 0.543739 -2.71917 0
M  V30 3676 H 336.19 -0.161022 -1.57881 0
M  V30 3677 H 336.211 1.99324 -3.24114 0
M  V30 3678 H 335.723 0.280592 -3.87084 0
M  V30 3679 H 333.824 2.48854 -2.77313 0
M  V30 3680 H 333.937 1.69385 -4.48158 0
M  V30 3681 H 332.301 0.990352 -2.34657 0
M  V30 3682 H 333.084 -0.290216 -3.42071 0
M  V30 3683 N 335.529 1.53961 0.336706 0
M  V30 3684 C 336.439 1.85432 1.43708 0
M  V30 3685 C 337.455 0.745053 1.57242 0
M  V30 3686 O 338.631 1.03804 1.72588 0
M  V30 3687 C 335.696 2.06349 2.78605 0
M  V30 3688 C 334.757 3.30191 2.74358 0
M  V30 3689 C 333.99 3.50101 4.02822 0
M  V30 3690 O 334.213 2.7371 5.00439 0
M  V30 3691 O 333.147 4.43547 4.06878 0
M  V30 3692 H 336.973 2.78975 1.20028 0
M  V30 3693 H 334.558 1.39701 0.52952 0
M  V30 3694 H 336.44 2.21513 3.58483 0
M  V30 3695 H 335.115 1.15995 3.02203 0
M  V30 3696 H 334.022 3.20425 1.93078 0
M  V30 3697 H 335.355 4.2056 2.55715 0
M  V30 3698 N 337.007 -0.598083 1.45811 0
M  V30 3699 C 337.937 -1.71873 1.58057 0
M  V30 3700 C 338.918 -1.64533 0.431615 0
M  V30 3701 O 340.103 -1.82787 0.65595 0
M  V30 3702 C 337.233 -3.10495 1.55597 0
M  V30 3703 C 336.187 -3.32654 2.69305 0
M  V30 3704 C 335.513 -4.71646 2.51902 0
M  V30 3705 C 336.813 -3.21981 4.11248 0
M  V30 3706 H 338.507 -1.61881 2.51863 0
M  V30 3707 H 336.053 -0.777372 1.21214 0
M  V30 3708 H 338.006 -3.88699 1.6276 0
M  V30 3709 H 336.73 -3.2135 0.583255 0
M  V30 3710 H 335.389 -2.56843 2.61586 0
M  V30 3711 H 335.037 -4.79246 1.52748 0
M  V30 3712 H 334.737 -4.87426 3.2816 0
M  V30 3713 H 336.261 -5.52038 2.60933 0
M  V30 3714 H 337.675 -3.90049 4.20161 0
M  V30 3715 H 336.072 -3.49289 4.87972 0
M  V30 3716 H 337.142 -2.1928 4.32486 0
M  V30 3717 N 338.485 -1.33259 -0.841409 0
M  V30 3718 C 339.896 -1.22066 -1.41269 0
M  V30 3719 C 340.247 0.161479 -1.95534 0
M  V30 3720 O 339.372 1.06094 -1.88608 0
M  V30 3721 C 339.967 -2.20996 -2.568 0
M  V30 3722 C 338.526 -2.13649 -3.09888 0
M  V30 3723 C 337.673 -2.08623 -1.82679 0
M  V30 3724 H 340.624 -1.44895 -0.647395 0
M  V30 3725 H 340.645 -1.81621 -3.34356 0
M  V30 3726 H 340.157 -3.2158 -2.17274 0
M  V30 3727 H 338.258 -1.16359 -3.53965 0
M  V30 3728 H 338.371 -3.04079 -3.70234 0
M  V30 3729 H 336.735 -1.54061 -2.02824 0
M  V30 3730 H 337.518 -3.1101 -1.45353 0
M  V30 3731 N 339.963 1.05934 -1.16686 0
M  V30 3732 C 340.893 2.1546 -0.899949 0
M  V30 3733 C 341.874 1.69391 0.155154 0
M  V30 3734 O 343.059 1.94199 0.00648693 0
M  V30 3735 C 340.189 3.44939 -0.404241 0
M  V30 3736 C 339.143 4.04536 -1.39767 0
M  V30 3737 C 338.469 5.29268 -0.760216 0
M  V30 3738 C 339.769 4.42893 -2.76845 0
M  V30 3739 H 341.463 2.38046 -1.81588 0
M  V30 3740 H 339.009 1.14404 -0.874514 0
M  V30 3741 H 340.962 4.20901 -0.204971 0
M  V30 3742 H 339.686 3.21983 0.547206 0
M  V30 3743 H 338.345 3.30635 -1.58355 0
M  V30 3744 H 337.993 5.02611 0.197831 0
M  V30 3745 H 337.693 5.70101 -1.42332 0
M  V30 3746 H 339.217 6.07924 -0.57105 0
M  V30 3747 H 340.631 5.09921 -2.62019 0
M  V30 3748 H 339.028 4.94721 -3.39663 0
M  V30 3749 H 340.098 3.53584 -3.31823 0
M  V30 3750 N 341.441 0.965919 1.2453 0
M  V30 3751 C 342.404 0.499547 2.2369 0
M  V30 3752 C 343.404 -0.40294 1.5567 0
M  V30 3753 O 344.594 -0.19865 1.73064 0
M  V30 3754 C 341.726 -0.276792 3.39774 0
M  V30 3755 H 342.919 1.37613 2.66463 0
M  V30 3756 H 340.472 0.750324 1.37112 0
M  V30 3757 H 341.207 -1.17055 3.02438 0
M  V30 3758 H 340.992 0.370826 3.90343 0
M  V30 3759 H 342.482 -0.592175 4.1338 0
M  V30 3760 N 342.919 -1.39368 0.735821 0
M  V30 3761 C 343.869 -2.27885 0.0724287 0
M  V30 3762 C 344.853 -1.44301 -0.711756 0
M  V30 3763 O 346.045 -1.67206 -0.58063 0
M  V30 3764 C 343.174 -3.33029 -0.833454 0
M  V30 3765 C 342.26 -4.24078 -0.0433749 0
M  V30 3766 N 342.651 -4.96138 0.983903 0
M  V30 3767 C 340.949 -4.45164 -0.272905 0
M  V30 3768 C 341.65 -5.63069 1.4604 0
M  V30 3769 N 340.626 -5.37991 0.778857 0
M  V30 3770 H 344.428 -2.81052 0.859467 0
M  V30 3771 H 341.942 -1.5206 0.570227 0
M  V30 3772 H 343.939 -3.95311 -1.32419 0
M  V30 3773 H 342.599 -2.81421 -1.61964 0
M  V30 3774 H 343.61 -4.9958 1.36528 0
M  V30 3775 H 340.287 -4.04497 -1.03383 0
M  V30 3776 H 341.677 -6.30755 2.31511 0
M  V30 3777 N 344.397 -0.483516 -1.5 0
M  V30 3778 C 345.808 -0.0314176 -1.86674 0
M  V30 3779 C 346.159 1.37728 -1.39733 0
M  V30 3780 O 345.284 2.02327 -0.767635 0
M  V30 3781 C 345.879 -0.0502376 -3.38763 0
M  V30 3782 C 344.438 0.346442 -3.74802 0
M  V30 3783 C 343.585 -0.430366 -2.7394 0
M  V30 3784 H 346.536 -0.697182 -1.42566 0
M  V30 3785 H 346.557 0.749116 -3.73053 0
M  V30 3786 H 346.069 -1.07563 -3.72897 0
M  V30 3787 H 344.17 1.37572 -3.46273 0
M  V30 3788 H 344.283 0.0391486 -4.79084 0
M  V30 3789 H 342.647 0.117557 -2.54429 0
M  V30 3790 H 343.43 -1.4555 -3.10918 0
M  V30 3791 N 345.875 1.56104 -0.216619 0
M  V30 3792 C 347.286 1.844 0.292128 0
M  V30 3793 C 347.637 1.13788 1.59833 0
M  V30 3794 O 346.762 0.405888 2.12559 0
M  V30 3795 C 347.357 3.3452 0.53681 0
M  V30 3796 C 345.916 3.63151 0.989876 0
M  V30 3797 C 345.063 2.77255 0.0502302 0
M  V30 3798 H 348.014 1.52481 -0.439926 0
M  V30 3799 H 348.035 3.54459 1.38345 0
M  V30 3800 H 347.547 3.85885 -0.414031 0
M  V30 3801 H 345.648 3.17238 1.95425 0
M  V30 3802 H 345.761 4.71177 0.867698 0
M  V30 3803 H 344.125 2.48555 0.556117 0
M  V30 3804 H 344.908 3.31416 -0.89544 0
M  V30 3805 N 347.353 -0.0568162 1.57498 0
M  V30 3806 C 348.301 -1.08452 2.05769 0
M  V30 3807 C 349.295 -1.39164 0.965903 0
M  V30 3808 O 350.501 -1.38395 1.15095 0
M  V30 3809 H 346.876 -0.367148 0.656282 0
M  V30 3810 H 348.847 -0.651368 2.91204 0
M  V30 3811 C 347.596 -2.38543 2.52968 0
M  V30 3812 H 346.919 -2.15765 3.36579 0
M  V30 3813 H 348.359 -3.08863 2.90481 0
M  V30 3814 C 346.818 -3.05562 1.41893 0
M  V30 3815 O 347.348 -3.94262 0.769442 0
M  V30 3816 N 345.554 -2.6643 1.16032 0
M  V30 3817 H 345.101 -1.94387 1.6903 0
M  V30 3818 H 345.059 -3.11593 0.419219 0
M  V30 3819 N 348.832 -1.54138 -0.328536 0
M  V30 3820 C 349.742 -1.86192 -1.42723 0
M  V30 3821 C 350.758 -0.753382 -1.56844 0
M  V30 3822 O 351.934 -1.04718 -1.72035 0
M  V30 3823 C 348.999 -2.07824 -2.77507 0
M  V30 3824 C 348.06 -3.31641 -2.72603 0
M  V30 3825 C 347.293 -3.52232 -4.00959 0
M  V30 3826 O 347.516 -2.7636 -4.9898 0
M  V30 3827 O 346.45 -4.45699 -4.0452 0
M  V30 3828 H 350.276 -2.79608 -1.18547 0
M  V30 3829 H 347.861 -1.3998 -0.522104 0
M  V30 3830 H 349.743 -2.23411 -3.57303 0
M  V30 3831 H 348.418 -1.17596 -3.01584 0
M  V30 3832 H 347.325 -3.21444 -1.91376 0
M  V30 3833 H 348.658 -4.2191 -2.53481 0
M  V30 3834 N 350.31 0.590341 -1.46126 0
M  V30 3835 C 351.726 0.912917 -1.30912 0
M  V30 3836 C 351.926 1.99616 -0.274893 0
M  V30 3837 O 350.982 2.50397 0.325197 0
M  V30 3838 C 352.295 1.3375 -2.69317 0
M  V30 3839 C 353.843 1.45077 -2.77348 0
M  V30 3840 C 354.318 1.90904 -4.16317 0
M  V30 3841 N 355.809 1.9811 -4.18696 0
M  V30 3842 C 356.544 2.34828 -5.23109 0
M  V30 3843 N 356.04 2.70393 -6.37856 0
M  V30 3844 N 357.833 2.35317 -5.10473 0
M  V30 3845 H 349.984 -0.125358 -2.1203 0
M  V30 3846 H 352.247 0.00658481 -0.947977 0
M  V30 3847 H 351.953 0.615614 -3.4627 0
M  V30 3848 H 351.827 2.30058 -2.9892 0
M  V30 3849 H 354.214 2.16353 -2.00687 0
M  V30 3850 H 354.295 0.4704 -2.51438 0
M  V30 3851 H 353.939 1.20209 -4.9347 0
M  V30 3852 H 353.869 2.89886 -4.39629 0
M  V30 3853 H 356.36 1.73146 -3.359 0
M  V30 3854 H 356.673 2.97341 -7.13308 0
M  V30 3855 H 355.018 2.68048 -6.41229 0
M  V30 3856 H 358.209 2.0695 -4.19868 0
M  V30 3857 H 358.382 2.63605 -5.9196 0
M  V30 3858 N 351.788 1.33704 0.83433 0
M  V30 3859 C 353.016 1.28467 1.62185 0
M  V30 3860 C 353.431 -0.143526 1.88254 0
M  V30 3861 O 352.788 -1.08709 1.4659 0
M  V30 3862 C 352.839 2.06174 2.96942 0
M  V30 3863 O 352.56 3.43422 2.72016 0
M  V30 3864 C 354.061 2.08201 3.91366 0
M  V30 3865 H 351.281 0.4424 0.504503 0
M  V30 3866 H 353.825 1.76145 1.03891 0
M  V30 3867 H 351.98 1.62167 3.51825 0
M  V30 3868 H 352.394 3.83453 3.57861 0
M  V30 3869 H 353.868 2.67017 4.83121 0
M  V30 3870 H 354.345 1.07343 4.2588 0
M  V30 3871 H 354.951 2.52246 3.42421 0
M  V30 3872 N 353.266 -1.05314 1.17247 0
M  V30 3873 C 354.216 -2.11313 0.856196 0
M  V30 3874 C 355.2 -1.60013 -0.168694 0
M  V30 3875 O 356.392 -1.76968 0.0335624 0
M  V30 3876 C 353.521 -3.41301 0.369917 0
M  V30 3877 C 352.607 -3.99401 1.42616 0
M  V30 3878 N 352.998 -4.31481 2.63928 0
M  V30 3879 C 351.296 -4.27126 1.28373 0
M  V30 3880 C 351.997 -4.77799 3.31787 0
M  V30 3881 N 350.973 -4.77843 2.59166 0
M  V30 3882 H 354.775 -2.33976 1.77856 0
M  V30 3883 H 352.289 -1.2295 1.06099 0
M  V30 3884 H 354.286 -4.16713 0.124897 0
M  V30 3885 H 352.946 -3.20072 -0.546253 0
M  V30 3886 H 353.957 -4.21519 3.00902 0
M  V30 3887 H 350.634 -4.15289 0.429111 0
M  V30 3888 H 352.024 -5.11743 4.35395 0
M  V30 3889 N 354.744 -0.972509 -1.24016 0
M  V30 3890 C 355.674 -0.525548 -2.27509 0
M  V30 3891 C 356.655 0.437262 -1.64384 0
M  V30 3892 O 357.84 0.332343 -1.91335 0
M  V30 3893 C 354.97 0.180448 -3.46831 0
M  V30 3894 C 353.924 -0.698859 -4.22256 0
M  V30 3895 C 353.25 0.138903 -5.3452 0
M  V30 3896 C 354.55 -1.98582 -4.83076 0
M  V30 3897 H 356.244 -1.39058 -2.65148 0
M  V30 3898 H 353.79 -0.67009 -1.27459 0
M  V30 3899 H 355.743 0.504387 -4.18371 0
M  V30 3900 H 354.467 1.07987 -3.08231 0
M  V30 3901 H 353.126 -1.00614 -3.52523 0
M  V30 3902 H 352.774 1.03862 -4.9216 0
M  V30 3903 H 352.474 -0.446259 -5.85903 0
M  V30 3904 H 353.998 0.457404 -6.08884 0
M  V30 3905 H 355.412 -1.72715 -5.46665 0
M  V30 3906 H 353.809 -2.5181 -5.44713 0
M  V30 3907 H 354.879 -2.67769 -4.04262 0
M  V30 3908 N 356.222 1.38976 -0.743202 0
M  V30 3909 C 357.468 2.0064 -0.295189 0
M  V30 3910 C 357.801 1.5885 1.11716 0
M  V30 3911 O 357.076 0.821181 1.76315 0
M  V30 3912 C 357.359 3.578 -0.406318 0
M  V30 3913 C 357.212 4.09586 -1.85903 0
M  V30 3914 C 358.531 4.39616 0.206439 0
M  V30 3915 H 355.65 0.728935 -0.108733 0
M  V30 3916 H 358.292 1.65067 -0.940897 0
M  V30 3917 H 356.442 3.88235 0.143419 0
M  V30 3918 H 358.114 3.89837 -2.46627 0
M  V30 3919 H 356.357 3.6284 -2.3776 0
M  V30 3920 H 357.028 5.18708 -1.888 0
M  V30 3921 H 359.504 4.15273 -0.262283 0
M  V30 3922 H 358.38 5.48812 0.0983819 0
M  V30 3923 H 358.641 4.22754 1.2935 0
M  V30 3924 N 357.7 0.491464 1.49741 0
M  V30 3925 C 358.949 -0.0582189 2.01616 0
M  V30 3926 C 359.262 -1.38927 1.3769 0
M  V30 3927 O 360.468 -2.02509 1.80838 0
M  V30 3928 C 358.924 -0.154235 3.59569 0
M  V30 3929 C 358.532 1.1696 4.32463 0
M  V30 3930 C 360.276 -0.65479 4.1942 0
M  V30 3931 C 358.183 1.03627 5.8225 0
M  V30 3932 H 357.113 -0.0255317 0.753568 0
M  V30 3933 H 359.764 0.629445 1.72367 0
M  V30 3934 H 358.146 -0.906138 3.85493 0
M  V30 3935 H 359.32 1.93405 4.18248 0
M  V30 3936 H 357.635 1.60285 3.84315 0
M  V30 3937 H 360.232 -0.771903 5.29099 0
M  V30 3938 H 360.575 -1.65127 3.8215 0
M  V30 3939 H 361.108 0.040304 3.9778 0
M  V30 3940 H 357.847 2.00672 6.24028 0
M  V30 3941 H 357.367 0.312546 5.98985 0
M  V30 3942 H 359.046 0.711114 6.4308 0
M  V30 3943 N 359.178 -1.55987 0.224894 0
M  V30 3944 C 360.108 -2.23426 -0.678457 0
M  V30 3945 C 361.089 -1.20709 -1.19847 0
M  V30 3946 O 362.274 -1.49304 -1.24186 0
M  V30 3947 C 359.404 -2.91676 -1.88527 0
M  V30 3948 C 358.358 -4.00893 -1.49896 0
M  V30 3949 C 357.684 -4.56455 -2.78483 0
M  V30 3950 C 358.984 -5.17769 -0.686461 0
M  V30 3951 H 360.678 -2.99175 -0.116173 0
M  V30 3952 H 358.224 -1.43897 -0.054436 0
M  V30 3953 H 360.177 -3.37547 -2.5227 0
M  V30 3954 H 358.901 -2.1338 -2.47258 0
M  V30 3955 H 357.56 -3.55758 -0.884985 0
M  V30 3956 H 357.208 -3.74886 -3.35365 0
M  V30 3957 H 356.908 -5.30169 -2.53368 0
M  V30 3958 H 358.432 -5.05047 -3.43162 0
M  V30 3959 H 359.846 -5.60001 -1.22767 0
M  V30 3960 H 358.243 -5.97735 -0.532259 0
M  V30 3961 H 359.313 -4.83932 0.306196 0
M  V30 3962 N 360.656 0.0484629 -1.57525 0
M  V30 3963 C 361.904 0.741657 -1.88 0
M  V30 3964 C 362.225 1.76918 -0.820054 0
M  V30 3965 O 361.495 1.95335 0.148661 0
M  V30 3966 H 360.075 0.276908 -0.69378 0
M  V30 3967 H 362.737 0.019013 -1.94891 0
M  V30 3968 H 361.833 1.24336 -2.86264 0
M  V30 3969 N 362.134 1.5431 0.320358 0
M  V30 3970 C 363.097 1.83195 1.3774 0
M  V30 3971 C 364.097 0.703906 1.44575 0
M  V30 3972 O 365.287 0.972214 1.44546 0
M  V30 3973 C 362.419 1.99487 2.76438 0
M  V30 3974 H 363.612 2.77642 1.1338 0
M  V30 3975 H 361.165 1.46076 0.556012 0
M  V30 3976 H 361.9 1.07262 3.06048 0
M  V30 3977 H 361.685 2.81575 2.7287 0
M  V30 3978 H 363.175 2.23271 3.52902 0
M  V30 3979 N 363.613 -0.582584 1.46437 0
M  V30 3980 C 364.862 -1.337 1.5102 0
M  V30 3981 C 365.175 -1.94891 0.166359 0
M  V30 3982 O 366.381 -2.71351 0.0899954 0
M  V30 3983 C 364.837 -2.42315 2.66104 0
M  V30 3984 C 364.445 -1.87427 4.06909 0
M  V30 3985 C 366.189 -3.19099 2.79958 0
M  V30 3986 C 364.096 -2.93672 5.13333 0
M  V30 3987 H 363.026 -0.502619 0.562041 0
M  V30 3988 H 365.677 -0.621701 1.72647 0
M  V30 3989 H 364.059 -3.16645 2.37807 0
M  V30 3990 H 365.233 -1.19639 4.44998 0
M  V30 3991 H 363.548 -1.2331 3.97723 0
M  V30 3992 H 366.145 -3.9839 3.56636 0
M  V30 3993 H 366.488 -3.71695 1.87479 0
M  V30 3994 H 367.021 -2.51875 3.07902 0
M  V30 3995 H 363.76 -2.45962 6.07604 0
M  V30 3996 H 363.28 -3.59948 4.79789 0
M  V30 3997 H 364.959 -3.5762 5.39182 0
M  V30 3998 N 365.091 -1.34144 -0.827227 0
M  V30 3999 C 366.021 -1.28005 -1.95287 0
M  V30 4000 C 367.002 -0.158321 -1.69362 0
M  V30 4001 O 368.187 -0.349987 -1.9102 0
M  V30 4002 C 365.317 -1.03036 -3.31664 0
M  V30 4003 C 364.271 -2.11628 -3.72019 0
M  V30 4004 C 363.597 -1.71854 -5.0633 0
M  V30 4005 C 364.897 -3.53417 -3.8457 0
M  V30 4006 H 366.591 -2.22187 -2.00682 0
M  V30 4007 H 364.137 -1.0696 -0.964135 0
M  V30 4008 H 366.09 -0.973863 -4.09993 0
M  V30 4009 H 364.814 -0.0529391 -3.26557 0
M  V30 4010 H 363.473 -2.16339 -2.95961 0
M  V30 4011 H 363.121 -0.727841 -4.97706 0
M  V30 4012 H 362.821 -2.44531 -5.34302 0
M  V30 4013 H 364.345 -1.67692 -5.87122 0
M  V30 4014 H 365.759 -3.51142 -4.5318 0
M  V30 4015 H 364.156 -4.24679 -4.2399 0
M  V30 4016 H 365.226 -3.91072 -2.86689 0
M  V30 4017 N 366.569 1.04691 -1.17803 0
M  V30 4018 C 367.499 2.14494 -0.92275 0
M  V30 4019 C 368.48 1.69546 0.137179 0
M  V30 4020 O 369.665 1.94195 -0.0141108 0
M  V30 4021 C 366.795 3.44491 -0.440803 0
M  V30 4022 C 365.749 4.03031 -1.4405 0
M  V30 4023 C 365.075 5.28432 -0.81631 0
M  V30 4024 C 366.375 4.39932 -2.81527 0
M  V30 4025 H 368.069 2.36107 -1.84103 0
M  V30 4026 H 365.615 1.1347 -0.886599 0
M  V30 4027 H 367.568 4.2066 -0.249602 0
M  V30 4028 H 366.292 3.22546 0.513025 0
M  V30 4029 H 364.951 3.28937 -1.61853 0
M  V30 4030 H 364.599 5.02792 0.144511 0
M  V30 4031 H 364.299 5.68559 -1.48371 0
M  V30 4032 H 365.823 6.07284 -0.635496 0
M  V30 4033 H 367.237 5.07113 -2.67412 0
M  V30 4034 H 365.634 4.9109 -3.44892 0
M  V30 4035 H 366.704 3.50045 -3.35554 0
M  V30 4036 N 368.047 0.979072 1.23499 0
M  V30 4037 C 369.287 0.655228 1.93613 0
M  V30 4038 C 369.651 -0.796336 1.74707 0
M  V30 4039 O 370.852 -1.23094 2.38959 0
M  V30 4040 C 369.123 1.03337 3.42135 0
M  V30 4041 S 370.682 0.825793 4.3096 0
M  V30 4042 H 367.5 0.240004 0.669267 0
M  V30 4043 H 370.102 1.25843 1.49612 0
M  V30 4044 H 368.806 2.08646 3.53405 0
M  V30 4045 H 368.337 0.421397 3.91137 0
M  V30 4046 H 370.352 -0.290991 4.95346 0
M  V30 4047 N 369.525 -1.3858 0.750561 0
M  V30 4048 C 370.455 -2.33102 0.136237 0
M  V30 4049 C 371.436 -1.54713 -0.706965 0
M  V30 4050 O 372.621 -1.83043 -0.648769 0
M  V30 4051 C 369.751 -3.38882 -0.760017 0
M  V30 4052 C 368.705 -4.27995 -0.0197785 0
M  V30 4053 C 368.031 -5.24605 -1.03408 0
M  V30 4054 C 369.331 -5.09554 1.14684 0
M  V30 4055 H 371.025 -2.84726 0.925822 0
M  V30 4056 H 368.571 -1.36898 0.446654 0
M  V30 4057 H 370.524 -4.0397 -1.19943 0
M  V30 4058 H 369.248 -2.85734 -1.58189 0
M  V30 4059 H 367.907 -3.64409 0.400184 0
M  V30 4060 H 367.555 -4.67746 -1.84994 0
M  V30 4061 H 367.255 -5.85081 -0.543464 0
M  V30 4062 H 368.779 -5.9257 -1.47288 0
M  V30 4063 H 370.193 -5.67899 0.785118 0
M  V30 4064 H 368.59 -5.7925 1.56812 0
M  V30 4065 H 369.66 -4.4347 1.96118 0
M  V30 4066 N 371.003 -0.499398 -1.49478 0
M  V30 4067 C 372.251 0.0455996 -2.02049 0
M  V30 4068 C 372.572 1.37633 -1.38138 0
M  V30 4069 O 371.842 1.8842 -0.536166 0
M  V30 4070 H 370.422 0.0198416 -0.746736 0
M  V30 4071 H 373.084 -0.656274 -1.83519 0
M  V30 4072 H 372.18 0.176445 -3.11601 0
M  V30 4073 N 372.481 1.55866 -0.233164 0
M  V30 4074 C 373.727 1.98897 0.395959 0
M  V30 4075 C 374.06 1.12091 1.58585 0
M  V30 4076 O 373.335 0.181182 1.93654 0
M  V30 4077 C 373.618 3.50658 0.819224 0
M  V30 4078 C 373.471 4.48233 -0.375109 0
M  V30 4079 C 374.79 4.07135 1.67121 0
M  V30 4080 H 371.909 0.723102 0.142451 0
M  V30 4081 H 374.551 1.87082 -0.331725 0
M  V30 4082 H 372.701 3.60857 1.43925 0
M  V30 4083 H 374.373 4.50031 -1.01341 0
M  V30 4084 H 372.616 4.21624 -1.02058 0
M  V30 4085 H 373.287 5.51988 -0.0358328 0
M  V30 4086 H 375.763 3.99952 1.14795 0
M  V30 4087 H 374.639 5.13615 1.93625 0
M  V30 4088 H 374.9 3.54736 2.63846 0
M  V30 4089 N 373.959 -0.0401083 1.57549 0
M  V30 4090 C 374.922 -1.02871 2.04817 0
M  V30 4091 C 375.922 -1.29708 0.950388 0
M  V30 4092 O 377.112 -1.24897 1.21435 0
M  V30 4093 C 374.244 -2.36443 2.45576 0
M  V30 4094 H 375.437 -0.620631 2.93408 0
M  V30 4095 H 372.99 -0.286667 1.53649 0
M  V30 4096 H 373.725 -2.82021 1.60108 0
M  V30 4097 H 373.51 -2.18296 3.25713 0
M  V30 4098 H 375 -3.07441 2.82612 0
M  V30 4099 N 375.437 -1.54477 -0.31217 0
M  V30 4100 C 376.367 -1.87652 -1.38957 0
M  V30 4101 C 377.348 -0.734358 -1.53431 0
M  V30 4102 O 378.533 -0.98911 -1.67123 0
M  V30 4103 C 375.663 -2.11396 -2.75552 0
M  V30 4104 C 374.617 -3.27243 -2.75855 0
M  V30 4105 C 373.943 -3.36382 -4.15633 0
M  V30 4106 C 375.243 -4.64622 -2.38587 0
M  V30 4107 H 376.937 -2.77887 -1.11442 0
M  V30 4108 H 374.483 -1.33707 -0.534655 0
M  V30 4109 H 376.436 -2.33189 -3.51 0
M  V30 4110 H 375.16 -1.17921 -3.04569 0
M  V30 4111 H 373.819 -3.05356 -2.02863 0
M  V30 4112 H 373.467 -2.40445 -4.41809 0
M  V30 4113 H 373.167 -4.14249 -4.1674 0
M  V30 4114 H 374.691 -3.60422 -4.92877 0
M  V30 4115 H 376.105 -4.86219 -3.03749 0
M  V30 4116 H 374.502 -5.45121 -2.50925 0
M  V30 4117 H 375.572 -4.66097 -1.33723 0
M  V30 4118 N 376.915 0.57481 -1.46744 0
M  V30 4119 C 378.143 1.35856 -1.56047 0
M  V30 4120 C 378.558 1.87691 -0.204365 0
M  V30 4121 O 377.915 1.64049 0.79963 0
M  V30 4122 C 377.966 2.54066 -2.57163 0
M  V30 4123 O 377.687 2.04377 -3.87507 0
M  V30 4124 C 379.188 3.46514 -2.76483 0
M  V30 4125 H 376.408 0.414754 -0.527466 0
M  V30 4126 H 378.952 0.698035 -1.92218 0
M  V30 4127 H 377.107 3.16092 -2.23974 0
M  V30 4128 H 377.521 2.81419 -4.4261 0
M  V30 4129 H 378.995 4.25919 -3.51137 0
M  V30 4130 H 379.472 3.98951 -1.83671 0
M  V30 4131 H 380.078 2.90318 -3.10799 0
M  V30 4132 N 378.394 1.34581 0.820102 0
M  V30 4133 C 379.641 1.27096 1.57648 0
M  V30 4134 C 379.969 -0.158317 1.93855 0
M  V30 4135 O 379.224 -1.12028 1.60463 0
M  V30 4136 C 379.523 2.10997 2.8847 0
M  V30 4137 C 379.189 3.59966 2.71543 0
M  V30 4138 C 377.851 4.00575 2.66634 0
M  V30 4139 C 380.203 4.54548 2.55021 0
M  V30 4140 C 377.531 5.33953 2.43128 0
M  V30 4141 C 379.883 5.88109 2.33047 0
M  V30 4142 C 378.547 6.27878 2.26552 0
M  V30 4143 H 377.817 0.465078 0.576874 0
M  V30 4144 H 380.464 1.6635 0.948671 0
M  V30 4145 H 378.769 1.6458 3.55557 0
M  V30 4146 H 380.466 2.0255 3.46084 0
M  V30 4147 H 377.056 3.27733 2.76205 0
M  V30 4148 H 381.24 4.24069 2.57835 0
M  V30 4149 H 376.496 5.63781 2.3656 0
M  V30 4150 H 380.67 6.60985 2.19251 0
M  V30 4151 H 378.297 7.31162 2.081 0
M  V30 4152 N 379.872 -1.04064 1.18357 0
M  V30 4153 C 381.121 -1.76662 0.973313 0
M  V30 4154 C 381.434 -1.89154 -0.497991 0
M  V30 4155 O 382.64 -2.58606 -0.826762 0
M  V30 4156 C 381.096 -3.17624 1.69242 0
M  V30 4157 C 380.704 -3.13225 3.20303 0
M  V30 4158 C 382.448 -3.946 1.56497 0
M  V30 4159 C 380.355 -4.49046 3.84853 0
M  V30 4160 H 379.285 -0.662214 0.36054 0
M  V30 4161 H 381.936 -1.16553 1.41731 0
M  V30 4162 H 380.318 -3.78129 1.1762 0
M  V30 4163 H 381.492 -2.62172 3.78949 0
M  V30 4164 H 379.807 -2.49749 3.33189 0
M  V30 4165 H 382.404 -4.95042 2.02084 0
M  V30 4166 H 382.747 -4.13074 0.517243 0
M  V30 4167 H 383.28 -3.4067 2.05399 0
M  V30 4168 H 380.019 -4.35777 4.89672 0
M  V30 4169 H 379.539 -5.00203 3.30994 0
M  V30 4170 H 381.218 -5.17961 3.87718 0
M  V30 4171 N 381.35 -0.985608 -1.22978 0
M  V30 4172 C 382.597 -0.657386 -1.91532 0
M  V30 4173 C 382.925 0.809707 -1.76845 0
M  V30 4174 O 382.18 1.60021 -1.12658 0
M  V30 4175 C 382.479 -1.00014 -3.43121 0
M  V30 4176 C 382.145 -2.4583 -3.77993 0
M  V30 4177 C 380.807 -2.85679 -3.87222 0
M  V30 4178 C 383.159 -3.40378 -3.94705 0
M  V30 4179 C 380.487 -4.19081 -4.10595 0
M  V30 4180 C 382.839 -4.73429 -4.1958 0
M  V30 4181 C 381.503 -5.1303 -4.27032 0
M  V30 4182 H 380.773 -0.240555 -0.700867 0
M  V30 4183 H 383.42 -1.24044 -1.45895 0
M  V30 4184 H 381.725 -0.335072 -3.90365 0
M  V30 4185 H 383.422 -0.724322 -3.94404 0
M  V30 4186 H 380.012 -2.13939 -3.71387 0
M  V30 4187 H 384.196 -3.10766 -3.8696 0
M  V30 4188 H 379.452 -4.49362 -4.14589 0
M  V30 4189 H 383.626 -5.46644 -4.31455 0
M  V30 4190 H 381.253 -6.16418 -4.44896 0
M  V30 4191 N 382.828 1.3818 -0.7579 0
M  V30 4192 C 384.244 1.5353 -0.435972 0
M  V30 4193 C 384.444 1.71961 1.05032 0
M  V30 4194 O 383.5 1.73307 1.83633 0
M  V30 4195 C 384.813 2.73989 -1.23898 0
M  V30 4196 C 386.361 2.87841 -1.22949 0
M  V30 4197 C 386.836 4.11266 -2.01554 0
M  V30 4198 N 388.327 4.18352 -1.98837 0
M  V30 4199 C 389.062 5.12856 -2.5645 0
M  V30 4200 N 388.558 6.13005 -3.22794 0
M  V30 4201 N 390.351 5.05238 -2.46356 0
M  V30 4202 H 382.502 1.24467 -1.7211 0
M  V30 4203 H 384.765 0.604982 -0.729864 0
M  V30 4204 H 384.471 2.66789 -2.29165 0
M  V30 4205 H 384.345 3.67294 -0.858764 0
M  V30 4206 H 386.732 2.9452 -0.184854 0
M  V30 4207 H 386.813 1.95534 -1.64924 0
M  V30 4208 H 386.457 4.05349 -3.06031 0
M  V30 4209 H 386.387 5.02661 -1.5697 0
M  V30 4210 H 388.878 3.46628 -1.50524 0
M  V30 4211 H 389.191 6.81619 -3.64165 0
M  V30 4212 H 387.536 6.13325 -3.2689 0
M  V30 4213 H 390.727 4.25938 -1.9415 0
M  V30 4214 H 390.9 5.78707 -2.91552 0
M  V30 4215 N 384.306 0.507319 1.49211 0
M  V30 4216 C 385.236 -0.256939 2.32082 0
M  V30 4217 C 386.217 -0.956609 1.40652 0
M  V30 4218 O 387.402 -0.946788 1.69557 0
M  V30 4219 C 384.532 -1.31802 3.21318 0
M  V30 4220 C 383.486 -0.737855 4.21592 0
M  V30 4221 C 382.812 -1.89992 4.99807 0
M  V30 4222 C 384.112 0.275325 5.21574 0
M  V30 4223 H 385.806 0.434798 2.96226 0
M  V30 4224 H 383.352 0.210546 1.42452 0
M  V30 4225 H 385.305 -1.86045 3.78107 0
M  V30 4226 H 384.029 -2.03903 2.5513 0
M  V30 4227 H 382.688 -0.217126 3.65956 0
M  V30 4228 H 382.336 -2.60877 4.30061 0
M  V30 4229 H 382.036 -1.51777 5.6766 0
M  V30 4230 H 383.56 -2.44657 5.59442 0
M  V30 4231 H 384.974 -0.179193 5.7302 0
M  V30 4232 H 383.371 0.573649 5.97352 0
M  V30 4233 H 384.441 1.18903 4.70096 0
M  V30 4234 N 385.784 -1.5574 0.241426 0
M  V30 4235 C 387.2 -1.59196 -0.113548 0
M  V30 4236 C 387.4 -1.25852 -1.57364 0
M  V30 4237 O 386.456 -1.00322 -2.31715 0
M  V30 4238 C 387.769 -2.99814 0.230695 0
M  V30 4239 C 389.317 -3.12513 0.174547 0
M  V30 4240 C 389.792 -4.55342 0.492744 0
M  V30 4241 N 391.283 -4.61076 0.443043 0
M  V30 4242 C 392.018 -5.6956 0.662484 0
M  V30 4243 N 391.514 -6.86328 0.944761 0
M  V30 4244 N 393.307 -5.58957 0.593564 0
M  V30 4245 H 385.458 -1.75685 1.19368 0
M  V30 4246 H 387.721 -0.81756 0.479896 0
M  V30 4247 H 387.427 -3.28932 1.24485 0
M  V30 4248 H 387.301 -3.74568 -0.444833 0
M  V30 4249 H 389.688 -2.83179 -0.830277 0
M  V30 4250 H 389.769 -2.40045 0.883845 0
M  V30 4251 H 389.413 -4.85396 1.4951 0
M  V30 4252 H 389.343 -5.26062 -0.23797 0
M  V30 4253 H 391.834 -3.77179 0.233374 0
M  V30 4254 H 392.147 -7.64935 1.09977 0
M  V30 4255 H 390.492 -6.88025 0.982175 0
M  V30 4256 H 393.683 -4.66611 0.373123 0
M  V30 4257 H 393.856 -6.43433 0.767981 0
M  V30 4258 N 387.262 0.0317525 -1.57568 0
M  V30 4259 C 388.209 1.0332 -2.06382 0
M  V30 4260 C 389.179 1.36082 -0.952414 0
M  V30 4261 O 390.364 1.46466 -1.2228 0
M  V30 4262 C 387.504 2.32989 -2.54578 0
M  V30 4263 C 386.617 2.0641 -3.79498 0
M  V30 4264 C 385.752 3.2993 -4.16317 0
M  V30 4265 C 384.791 2.98893 -5.34162 0
M  V30 4266 N 383.928 4.14857 -5.66426 0
M  V30 4267 H 388.768 0.609982 -2.9169 0
M  V30 4268 H 386.305 0.289573 -1.44222 0
M  V30 4269 H 388.263 3.0875 -2.80587 0
M  V30 4270 H 386.893 2.73039 -1.7219 0
M  V30 4271 H 385.945 1.21158 -3.6059 0
M  V30 4272 H 387.257 1.79513 -4.65378 0
M  V30 4273 H 386.411 4.1406 -4.4344 0
M  V30 4274 H 385.15 3.59938 -3.29083 0
M  V30 4275 H 384.155 2.13164 -5.06795 0
M  V30 4276 H 385.38 2.70165 -6.23047 0
M  V30 4277 H 383.326 4.44821 -4.82151 0
M  V30 4278 H 383.243 3.91374 -6.4681 0
M  V30 4279 H 384.511 4.99868 -5.98124 0
M  V30 4280 N 388.74 1.54641 0.303973 0
M  V30 4281 C 389.988 1.73437 1.0375 0
M  V30 4282 C 390.309 0.521449 1.87899 0
M  V30 4283 O 389.579 -0.46432 1.90318 0
M  V30 4284 H 388.159 0.639518 0.386039 0
M  V30 4285 H 390.821 1.91988 0.335675 0
M  V30 4286 H 389.917 2.62235 1.69231 0
M  V30 4287 N 390.218 -0.567019 1.47046 0
M  V30 4288 C 391.634 -0.891975 1.32348 0
M  V30 4289 C 391.834 -1.99154 0.306616 0
M  V30 4290 O 390.89 -2.50883 -0.28532 0
M  V30 4291 C 392.203 -1.29449 2.7141 0
M  V30 4292 C 393.751 -1.40646 2.79621 0
M  V30 4293 C 394.226 -1.84257 4.19301 0
M  V30 4294 N 395.717 -1.91424 4.21795 0
M  V30 4295 C 396.452 -2.26476 5.26779 0
M  V30 4296 N 395.948 -2.60211 6.42077 0
M  V30 4297 N 397.741 -2.27166 5.14152 0
M  V30 4298 H 389.892 0.159074 2.11803 0
M  V30 4299 H 392.155 0.00849752 0.947962 0
M  V30 4300 H 391.861 -0.560448 3.47206 0
M  V30 4301 H 391.735 -2.25273 3.02542 0
M  V30 4302 H 394.122 -2.13133 2.04104 0
M  V30 4303 H 394.203 -0.430339 2.52154 0
M  V30 4304 H 393.847 -1.12343 4.95319 0
M  V30 4305 H 393.777 -2.82855 4.44185 0
M  V30 4306 H 396.268 -1.6778 3.38612 0
M  V30 4307 H 396.581 -2.85956 7.17948 0
M  V30 4308 H 394.926 -2.57813 6.45413 0
M  V30 4309 H 398.117 -2.00244 4.23107 0
M  V30 4310 H 398.29 -2.54154 5.96079 0
M  V30 4311 N 391.696 -1.35014 -0.812953 0
M  V30 4312 C 392.629 -1.21761 -1.93001 0
M  V30 4313 C 393.607 -0.10694 -1.62248 0
M  V30 4314 O 394.791 -0.273891 -1.865 0
M  V30 4315 C 391.918 -0.873404 -3.27245 0
M  V30 4316 C 390.964 -1.99523 -3.76952 0
M  V30 4317 S 391.797 -3.61009 -3.95516 0
M  V30 4318 C 392.953 -3.28651 -5.32672 0
M  V30 4319 H 393.186 -2.16315 -2.03948 0
M  V30 4320 H 390.719 -1.20156 -0.969631 0
M  V30 4321 H 392.677 -0.68161 -4.04802 0
M  V30 4322 H 391.338 0.053971 -3.14054 0
M  V30 4323 H 390.531 -1.70838 -4.74163 0
M  V30 4324 H 390.133 -2.14503 -3.06373 0
M  V30 4325 H 392.425 -2.81085 -6.1644 0
M  V30 4326 H 393.368 -4.25039 -5.66346 0
M  V30 4327 H 393.776 -2.6458 -4.98656 0
M  V30 4328 N 393.175 1.03435 -1.18907 0
M  V30 4329 C 394.108 2.11162 -0.86521 0
M  V30 4330 C 395.086 1.6165 0.175473 0
M  V30 4331 O 396.27 1.88425 0.0530129 0
M  V30 4332 C 393.397 3.37423 -0.293868 0
M  V30 4333 C 392.443 4.05795 -1.31274 0
M  V30 4334 S 393.276 4.52027 -2.8711 0
M  V30 4335 C 394.432 5.81513 -2.31504 0
M  V30 4336 H 394.665 2.38308 -1.77754 0
M  V30 4337 H 392.198 1.16295 -1.01562 0
M  V30 4338 H 394.156 4.1049 0.0292572 0
M  V30 4339 H 392.817 3.0838 0.596682 0
M  V30 4340 H 392.01 4.96574 -0.86198 0
M  V30 4341 H 391.612 3.38874 -1.58242 0
M  V30 4342 H 393.904 6.55784 -1.70157 0
M  V30 4343 H 394.847 6.3136 -3.20608 0
M  V30 4344 H 395.255 5.36921 -1.74286 0
M  V30 4345 N 394.653 0.992116 1.22453 0
M  V30 4346 C 395.93 0.583508 1.86694 0
M  V30 4347 C 396.31 -0.9392 1.89056 0
M  V30 4348 O 395.658 -1.82081 1.38053 0
M  V30 4349 C 395.868 1.20304 3.2761 0
M  V30 4350 C 397.216 1.30308 4.0411 0
M  V30 4351 O 398.24 1.15737 3.36873 0
M  V30 4352 O 397.099 1.53615 5.24466 0
M  V30 4353 H 394.193 0.198129 0.802916 0
M  V30 4354 H 396.739 1.08794 1.30238 0
M  V30 4355 H 395.511 2.24461 3.2052 0
M  V30 4356 H 395.134 0.684144 3.9167 0
M  V30 4357 N 396.131 -1.37776 0.765217 0
M  V30 4358 C 397.377 -2.00145 0.327072 0
M  V30 4359 C 397.71 -1.60607 -1.09175 0
M  V30 4360 O 396.985 -0.849127 -1.74986 0
M  V30 4361 C 397.268 -3.57109 0.46319 0
M  V30 4362 C 397.121 -4.06576 1.92395 0
M  V30 4363 C 398.44 -4.39888 -0.136473 0
M  V30 4364 H 395.559 -0.727113 0.120316 0
M  V30 4365 H 398.201 -1.63549 0.967039 0
M  V30 4366 H 396.351 -3.88414 -0.0816358 0
M  V30 4367 H 398.023 -3.85864 2.52798 0
M  V30 4368 H 396.266 -3.59011 2.43503 0
M  V30 4369 H 396.937 -5.15639 1.97028 0
M  V30 4370 H 399.413 -4.14803 0.328317 0
M  V30 4371 H 398.289 -5.48899 -0.0110582 0
M  V30 4372 H 398.55 -4.24758 -1.22608 0
M  V30 4373 N 397.609 -0.515225 -1.4894 0
M  V30 4374 C 398.556 0.255567 -2.29381 0
M  V30 4375 C 399.526 0.947387 -1.36432 0
M  V30 4376 O 400.711 0.951288 -1.65394 0
M  V30 4377 C 397.851 1.30551 -3.19453 0
M  V30 4378 C 396.964 0.624029 -4.27469 0
M  V30 4379 C 396.099 1.65563 -5.0474 0
M  V30 4380 C 395.138 0.956802 -6.04576 0
M  V30 4381 N 394.275 1.93326 -6.74959 0
M  V30 4382 H 399.115 -0.436607 -2.94784 0
M  V30 4383 H 396.652 -0.227154 -1.45336 0
M  V30 4384 H 398.61 1.92639 -3.70062 0
M  V30 4385 H 397.24 1.96626 -2.56004 0
M  V30 4386 H 396.292 -0.110459 -3.8024 0
M  V30 4387 H 397.604 0.0746092 -4.98744 0
M  V30 4388 H 396.758 2.35119 -5.59289 0
M  V30 4389 H 395.497 2.23893 -4.3327 0
M  V30 4390 H 394.502 0.247097 -5.49244 0
M  V30 4391 H 395.727 0.379814 -6.78037 0
M  V30 4392 H 393.673 2.50591 -6.06251 0
M  V30 4393 H 393.59 1.43489 -7.42258 0
M  V30 4394 H 394.858 2.62126 -7.34105 0
M  V30 4395 N 399.087 1.5561 -0.249682 0
M  V30 4396 C 400.034 2.21496 0.648694 0
M  V30 4397 C 401.004 1.17977 1.16921 0
M  V30 4398 O 402.189 1.46434 1.22318 0
M  V30 4399 C 399.329 2.92039 1.83868 0
M  V30 4400 C 398.442 4.10219 1.35442 0
M  V30 4401 C 397.577 4.6847 2.50419 0
M  V30 4402 C 396.616 5.78893 1.98869 0
M  V30 4403 N 395.753 6.31315 3.07223 0
M  V30 4404 H 400.593 2.97892 0.0801582 0
M  V30 4405 H 398.13 1.47074 0.0278031 0
M  V30 4406 H 400.088 3.31138 2.53778 0
M  V30 4407 H 398.718 2.18111 2.37965 0
M  V30 4408 H 397.77 3.76413 0.54928 0
M  V30 4409 H 399.082 4.89927 0.936649 0
M  V30 4410 H 398.236 5.10158 3.28366 0
M  V30 4411 H 396.975 3.87984 2.95499 0
M  V30 4412 H 395.98 5.3668 1.19393 0
M  V30 4413 H 397.205 6.61232 1.54755 0
M  V30 4414 H 395.151 5.53733 3.51732 0
M  V30 4415 H 395.068 7.06224 2.69784 0
M  V30 4416 H 396.336 6.77662 3.8522 0
M  V30 4417 N 400.565 -0.0233959 1.57583 0
M  V30 4418 C 401.805 -0.71784 1.9138 0
M  V30 4419 C 402.169 -1.72216 0.848853 0
M  V30 4420 O 403.37 -2.46527 1.07134 0
M  V30 4421 C 401.641 -1.36489 3.30311 0
M  V30 4422 S 403.2 -2.0877 3.85954 0
M  V30 4423 H 400.018 -0.237676 0.670098 0
M  V30 4424 H 402.62 0.0276709 1.9548 0
M  V30 4425 H 401.324 -0.620782 4.05678 0
M  V30 4426 H 400.855 -2.14883 3.29528 0
M  V30 4427 H 402.87 -3.35988 3.65139 0
M  V30 4428 N 402.043 -1.548 -0.295768 0
M  V30 4429 C 403.291 -1.73985 -1.02828 0
M  V30 4430 C 403.612 -0.531406 -1.87619 0
M  V30 4431 O 402.882 0.454221 -1.90561 0
M  V30 4432 H 401.462 -0.641556 -0.382642 0
M  V30 4433 H 404.124 -1.92163 -0.325489 0
M  V30 4434 H 403.22 -2.63129 -1.67838 0
M  V30 4435 N 403.521 0.559213 -1.47345 0
M  V30 4436 C 404.77 1.31281 -1.53128 0
M  V30 4437 C 405.083 1.94602 -0.197344 0
M  V30 4438 O 406.289 2.71173 -0.133154 0
M  V30 4439 C 404.745 2.38051 -2.69925 0
M  V30 4440 C 404.353 1.8093 -4.0984 0
M  V30 4441 C 406.097 3.14604 -2.84999 0
M  V30 4442 C 404.004 2.85468 -5.1794 0
M  V30 4443 H 402.934 0.493614 -0.569966 0
M  V30 4444 H 405.585 0.594155 -1.73615 0
M  V30 4445 H 403.967 3.12822 -2.42814 0
M  V30 4446 H 405.141 1.12544 -4.46845 0
M  V30 4447 H 403.456 1.16967 -3.99634 0
M  V30 4448 H 406.053 3.92666 -3.62929 0
M  V30 4449 H 406.396 3.68665 -1.93369 0
M  V30 4450 H 406.929 2.46945 -3.1187 0
M  V30 4451 H 403.668 2.36264 -6.1144 0
M  V30 4452 H 403.188 3.52269 -4.85455 0
M  V30 4453 H 404.867 3.48996 -5.44803 0
M  V30 4454 N 404.999 1.35443 0.805782 0
M  V30 4455 C 405.931 1.24285 1.92577 0
M  V30 4456 C 406.944 0.165962 1.61952 0
M  V30 4457 O 408.133 0.419303 1.73505 0
M  V30 4458 C 405.233 0.891272 3.2697 0
M  V30 4459 C 404.406 2.06669 3.85495 0
M  V30 4460 C 403.465 1.69077 4.98297 0
M  V30 4461 O 402.491 2.4096 5.15681 0
M  V30 4462 N 403.693 0.614869 5.77234 0
M  V30 4463 H 406.458 2.20777 2.02676 0
M  V30 4464 H 404.019 1.28623 0.983243 0
M  V30 4465 H 406.011 0.621256 3.99903 0
M  V30 4466 H 404.581 0.016004 3.12596 0
M  V30 4467 H 403.801 2.50046 3.04747 0
M  V30 4468 H 405.089 2.85237 4.21328 0
M  V30 4469 H 404.487 0.017648 5.65697 0
M  V30 4470 H 403.044 0.404636 6.50543 0
M  V30 4471 N 406.477 -1.02803 1.19454 0
M  V30 4472 C 407.754 -1.73299 0.907013 0
M  V30 4473 C 408.134 -2.02772 -0.587086 0
M  V30 4474 O 407.482 -1.68304 -1.54551 0
M  V30 4475 C 407.692 -3.00912 1.76785 0
M  V30 4476 C 409.04 -3.74403 2.00268 0
M  V30 4477 O 410.064 -3.10841 1.73943 0
M  V30 4478 O 408.923 -4.88675 2.4466 0
M  V30 4479 H 406.017 -0.754727 0.338106 0
M  V30 4480 H 408.563 -1.08754 1.30271 0
M  V30 4481 H 407.335 -2.75366 2.7801 0
M  V30 4482 H 406.958 -3.73197 1.37149 0
M  V30 4483 N 407.956 -0.998596 -1.21925 0
M  V30 4484 C 409.184 -0.696286 -1.94832 0
M  V30 4485 C 409.599 0.740032 -1.73692 0
M  V30 4486 O 408.956 1.5 -1.03953 0
M  V30 4487 C 409.007 -0.999833 -3.47398 0
M  V30 4488 O 408.728 -2.37972 -3.67833 0
M  V30 4489 C 410.229 -0.716025 -4.37479 0
M  V30 4490 H 407.449 -0.257111 -0.619786 0
M  V30 4491 H 409.993 -1.33491 -1.54921 0
M  V30 4492 H 408.148 -0.406918 -3.85257 0
M  V30 4493 H 408.562 -2.48338 -4.61983 0
M  V30 4494 H 410.036 -0.978642 -5.43256 0
M  V30 4495 H 410.513 0.349968 -4.37803 0
M  V30 4496 H 411.119 -1.29025 -4.05256 0
M  V30 4497 N 409.434 1.37368 -0.772513 0
M  V30 4498 C 410.382 2.32134 -0.147111 0
M  V30 4499 C 411.376 1.54972 0.684106 0
M  V30 4500 O 412.582 1.70363 0.581083 0
M  V30 4501 H 408.957 0.751449 -0.028786 0
M  V30 4502 H 410.928 2.82464 -0.962112 0
M  V30 4503 C 409.677 3.40226 0.71703 0
M  V30 4504 H 409 3.99706 0.0867951 0
M  V30 4505 H 410.44 4.08897 1.12159 0
M  V30 4506 C 408.899 2.80372 1.86797 0
M  V30 4507 O 409.429 2.71183 2.96349 0
M  V30 4508 N 407.635 2.37904 1.66883 0
M  V30 4509 H 407.182 2.45578 0.777759 0
M  V30 4510 H 407.14 1.98202 2.44056 0
M  V30 4511 N 410.912 0.523116 1.48665 0
M  V30 4512 C 412.137 -0.0117284 2.07397 0
M  V30 4513 C 412.562 -1.28031 1.37803 0
M  V30 4514 O 411.92 -1.75836 0.441762 0
M  V30 4515 C 411.968 -0.225786 3.59892 0
M  V30 4516 O 411.072 -1.29592 3.91509 0
M  V30 4517 H 410.413 0.0360673 0.66302 0
M  V30 4518 H 412.943 0.729066 1.9117 0
M  V30 4519 H 412.953 -0.450552 4.05505 0
M  V30 4520 H 411.628 0.700944 4.09951 0
M  V30 4521 H 410.205 -1.05436 3.57684 0
M  V30 4522 N 412.39 -1.55475 0.257931 0
M  V30 4523 C 413.337 -2.21837 -0.636939 0
M  V30 4524 C 414.307 -1.18596 -1.16294 0
M  V30 4525 O 415.492 -1.47081 -1.21539 0
M  V30 4526 C 412.632 -2.9301 -1.82317 0
M  V30 4527 C 411.745 -4.10931 -1.33265 0
M  V30 4528 C 410.88 -4.69791 -2.47931 0
M  V30 4529 C 409.919 -5.7994 -1.95796 0
M  V30 4530 N 409.056 -6.32935 -3.0387 0
M  V30 4531 H 413.896 -2.9793 -0.0643591 0
M  V30 4532 H 411.433 -1.47086 -0.0200031 0
M  V30 4533 H 413.391 -3.3248 -2.52018 0
M  V30 4534 H 412.021 -2.1937 -2.36805 0
M  V30 4535 H 411.073 -3.76699 -0.52931 0
M  V30 4536 H 412.385 -4.90417 -0.910654 0
M  V30 4537 H 411.539 -5.11892 -3.25656 0
M  V30 4538 H 410.278 -3.89545 -2.93438 0
M  V30 4539 H 409.283 -5.37305 -1.16546 0
M  V30 4540 H 410.508 -6.62043 -1.51246 0
M  V30 4541 H 408.454 -5.55591 -3.48791 0
M  V30 4542 H 408.371 -7.07645 -2.66035 0
M  V30 4543 H 409.639 -6.79695 -3.81621 0
M  V30 4544 N 413.868 0.0150385 -1.57593 0
M  V30 4545 C 414.815 1.01126 -2.07466 0
M  V30 4546 C 415.785 1.35064 -0.966794 0
M  V30 4547 O 416.97 1.4516 -1.23827 0
M  V30 4548 C 414.11 2.30276 -2.57035 0
M  V30 4549 C 413.223 2.02373 -3.81666 0
M  V30 4550 C 412.358 3.25496 -4.19793 0
M  V30 4551 C 411.397 2.93211 -5.37303 0
M  V30 4552 N 410.534 4.08826 -5.70794 0
M  V30 4553 H 415.374 0.57901 -2.92321 0
M  V30 4554 H 412.911 0.27426 -1.44521 0
M  V30 4555 H 414.869 3.05757 -2.83846 0
M  V30 4556 H 413.499 2.71197 -1.75077 0
M  V30 4557 H 412.551 1.17327 -3.61854 0
M  V30 4558 H 413.863 1.74567 -4.67256 0
M  V30 4559 H 413.017 4.09333 -4.47807 0
M  V30 4560 H 411.756 3.56428 -3.32882 0
M  V30 4561 H 410.761 2.07777 -5.09027 0
M  V30 4562 H 411.986 2.63542 -6.25877 0
M  V30 4563 H 409.932 4.39682 -4.86842 0
M  V30 4564 H 409.849 3.84491 -6.50924 0
M  V30 4565 H 411.117 4.93496 -6.03392 0
M  V30 4566 N 415.346 1.54954 0.287554 0
M  V30 4567 C 416.278 1.83224 1.37701 0
M  V30 4568 C 417.291 0.715898 1.46215 0
M  V30 4569 O 418.48 0.993565 1.48292 0
M  V30 4570 C 415.58 1.96723 2.75959 0
M  V30 4571 C 414.753 3.27253 2.90215 0
M  V30 4572 C 413.812 3.30998 4.09056 0
M  V30 4573 O 412.838 4.04457 4.00503 0
M  V30 4574 N 414.04 2.57353 5.20336 0
M  V30 4575 H 416.805 2.77254 1.138 0
M  V30 4576 H 414.366 1.54694 0.477652 0
M  V30 4577 H 416.358 1.96615 3.5373 0
M  V30 4578 H 414.928 1.09626 2.92747 0
M  V30 4579 H 414.148 3.40022 1.99447 0
M  V30 4580 H 415.436 4.13365 2.96659 0
M  V30 4581 H 414.834 1.97327 5.30169 0
M  V30 4582 H 413.391 2.62984 5.96391 0
M  V30 4583 N 416.824 -0.551391 1.4764 0
M  V30 4584 C 418.049 -1.33837 1.58437 0
M  V30 4585 C 418.474 -1.866 0.237063 0
M  V30 4586 O 417.832 -1.6328 -0.787994 0
M  V30 4587 C 417.88 -2.48014 2.61766 0
M  V30 4588 O 416.984 -3.50419 2.1744 0
M  V30 4589 H 416.325 -0.397299 0.532024 0
M  V30 4590 H 418.855 -0.665759 1.93465 0
M  V30 4591 H 418.865 -2.94503 2.82369 0
M  V30 4592 H 417.54 -2.08969 3.5959 0
M  V30 4593 H 416.117 -3.10196 2.06961 0
M  V30 4594 N 418.302 -1.35869 -0.798587 0
M  V30 4595 C 419.579 -1.20145 -1.54352 0
M  V30 4596 C 419.959 0.216161 -2.0999 0
M  V30 4597 O 419.307 1.22068 -1.93162 0
M  V30 4598 C 419.517 -2.27602 -2.64572 0
M  V30 4599 C 420.865 -2.63811 -3.32699 0
M  V30 4600 O 421.889 -2.26576 -2.74849 0
M  V30 4601 O 420.748 -3.27866 -4.37226 0
M  V30 4602 H 417.842 -0.467248 -0.682355 0
M  V30 4603 H 420.388 -1.47574 -0.837859 0
M  V30 4604 H 419.16 -3.2265 -2.21388 0
M  V30 4605 H 418.783 -2.01488 -3.42766 0
M  V30 4606 N 419.78 1.02168 -1.19998 0
M  V30 4607 C 421.008 1.79296 -1.03249 0
M  V30 4608 C 421.423 1.84103 0.418502 0
M  V30 4609 O 420.78 1.29031 1.29063 0
M  V30 4610 C 420.831 3.24007 -1.60319 0
M  V30 4611 O 420.552 3.19512 -2.99739 0
M  V30 4612 C 422.053 4.17704 -1.48453 0
M  V30 4613 H 419.273 0.564016 -0.363493 0
M  V30 4614 H 421.817 1.28639 -1.58973 0
M  V30 4615 H 419.972 3.7183 -1.08727 0
M  V30 4616 H 420.386 4.10306 -3.26725 0
M  V30 4617 H 421.86 5.17104 -1.93153 0
M  V30 4618 H 422.337 4.37029 -0.436193 0
M  V30 4619 H 422.943 3.7576 -1.99211 0
M  V30 4620 N 421.258 1.00505 1.21394 0
M  V30 4621 C 422.208 0.536503 2.21598 0
M  V30 4622 C 423.192 -0.401914 1.55799 0
M  V30 4623 O 424.384 -0.226757 1.75541 0
M  V30 4624 C 421.513 -0.135446 3.43033 0
M  V30 4625 C 420.599 0.823992 4.16018 0
M  V30 4626 N 420.99 1.97683 4.6557 0
M  V30 4627 C 419.288 0.642387 4.4135 0
M  V30 4628 C 419.989 2.58003 5.21354 0
M  V30 4629 N 418.965 1.86162 5.1073 0
M  V30 4630 H 422.767 1.41557 2.57563 0
M  V30 4631 H 420.281 0.868878 1.37202 0
M  V30 4632 H 422.278 -0.488584 4.14027 0
M  V30 4633 H 420.938 -1.01049 3.08576 0
M  V30 4634 H 421.949 2.3572 4.61147 0
M  V30 4635 H 418.626 -0.185578 4.17087 0
M  V30 4636 H 420.016 3.555 5.70149 0
M  V30 4637 N 422.737 -1.36956 0.779787 0
M  V30 4638 C 423.667 -2.32761 0.185651 0
M  V30 4639 C 424.648 -1.56177 -0.673989 0
M  V30 4640 O 425.833 -1.84378 -0.609797 0
M  V30 4641 C 422.963 -3.40418 -0.687964 0
M  V30 4642 C 421.917 -4.27941 0.0710102 0
M  V30 4643 C 421.243 -5.26681 -0.922573 0
M  V30 4644 C 422.543 -5.07006 1.25467 0
M  V30 4645 H 424.237 -2.82698 0.986008 0
M  V30 4646 H 421.783 -1.3592 0.475592 0
M  V30 4647 H 423.736 -4.06423 -1.11348 0
M  V30 4648 H 422.46 -2.89025 -1.52093 0
M  V30 4649 H 421.119 -3.63478 0.47739 0
M  V30 4650 H 420.767 -4.71565 -1.7503 0
M  V30 4651 H 420.467 -5.86103 -0.419237 0
M  V30 4652 H 421.991 -5.9556 -1.34686 0
M  V30 4653 H 423.405 -5.66105 0.905401 0
M  V30 4654 H 421.802 -5.75793 1.69063 0
M  V30 4655 H 422.872 -4.3921 2.05481 0
M  V30 4656 N 424.215 -0.530993 -1.48385 0
M  V30 4657 C 425.125 0.23503 -2.3342 0
M  V30 4658 C 426.141 0.93801 -1.46552 0
M  V30 4659 O 427.317 0.912745 -1.7953 0
M  V30 4660 C 424.382 1.26778 -3.22689 0
M  V30 4661 C 423.443 0.575038 -4.25431 0
M  V30 4662 C 422.676 1.55858 -5.10435 0
M  V30 4663 O 422.899 2.79129 -4.97437 0
M  V30 4664 O 421.833 1.09742 -5.91811 0
M  V30 4665 H 425.659 -0.461794 -3.00169 0
M  V30 4666 H 423.244 -0.291903 -1.46521 0
M  V30 4667 H 425.126 1.86457 -3.77904 0
M  V30 4668 H 423.801 1.94699 -2.586 0
M  V30 4669 H 422.708 -0.0622782 -3.74048 0
M  V30 4670 H 424.041 -0.062253 -4.92161 0
M  V30 4671 N 425.693 1.55336 -0.266172 0
M  V30 4672 C 426.603 2.2583 0.635458 0
M  V30 4673 C 427.619 1.28106 1.17749 0
M  V30 4674 O 428.795 1.61024 1.20968 0
M  V30 4675 C 425.86 2.95879 1.80712 0
M  V30 4676 C 424.921 4.09059 1.30265 0
M  V30 4677 C 424.154 4.75759 2.41846 0
M  V30 4678 O 424.377 4.41622 3.61007 0
M  V30 4679 O 423.311 5.63888 2.1051 0
M  V30 4680 H 427.137 3.03631 0.0646693 0
M  V30 4681 H 424.722 1.49361 -0.0339177 0
M  V30 4682 H 426.604 3.39932 2.49047 0
M  V30 4683 H 425.279 2.21002 2.36516 0
M  V30 4684 H 424.186 3.69482 0.586019 0
M  V30 4685 H 425.519 4.85811 0.790458 0
M  V30 4686 N 427.171 -0.0066808 1.57599 0
M  V30 4687 C 428.399 -0.704087 1.94551 0
M  V30 4688 C 428.814 -1.67677 0.867746 0
M  V30 4689 O 428.171 -1.8185 -0.153925 0
M  V30 4690 C 428.222 -1.44177 3.31505 0
M  V30 4691 O 427.943 -0.508097 4.35144 0
M  V30 4692 C 429.444 -2.23429 3.82876 0
M  V30 4693 H 426.664 -0.196523 0.641576 0
M  V30 4694 H 429.208 0.042453 2.04456 0
M  V30 4695 H 427.363 -2.13999 3.22929 0
M  V30 4696 H 427.777 -1.02782 5.14331 0
M  V30 4697 H 429.251 -2.70552 4.8115 0
M  V30 4698 H 429.728 -3.05818 3.15233 0
M  V30 4699 H 430.334 -1.58636 3.94607 0
M  V30 4700 O 428.688 -1.6081 -0.149083 0
M  V30 4701 H 429.379 -1.77145 -0.783536 0
M  V30 END ATOM
M  V30 BEGIN BOND
M  V30 END BOND
M  V30 END CTAB
M  END
$$$$
