drugbank_target|P48637 Glutathione synthetase (DB00143; DB00145; DB00151; DB03408; DB04395; DB06151; DB09130)
 OpenBabel12092119263D

  0  0  0     0  0            999 V3000
M  V30 BEGIN CTAB
M  V30 COUNTS 7407 7470 0 0 0
M  V30 BEGIN ATOM
M  V30 1 H -0.908 1.98254 -0.117106 0
M  V30 2 N 0 1.576 0 0
M  V30 3 C 0.933 2.03868 1.02534 0
M  V30 4 C 1.911 0.928543 1.3348 0
M  V30 5 O 3.095 1.19667 1.45644 0
M  V30 6 C 0.222 2.43627 2.35294 0
M  V30 7 C -0.732 3.65373 2.2001 0
M  V30 8 S 0.101 5.13292 1.52614 0
M  V30 9 C 1.257 5.56322 2.86805 0
M  V30 10 H 1.49 2.90518 0.631377 0
M  V30 11 H -0.977 1.52953 0.210867 0
M  V30 12 H 0.981 2.67203 3.11629 0
M  V30 13 H -0.358 1.57376 2.7183 0
M  V30 14 H -1.165 3.90944 3.18086 0
M  V30 15 H -1.563 3.418 1.51819 0
M  V30 16 H 0.729 5.58782 3.83104 0
M  V30 17 H 1.672 6.56266 2.65933 0
M  V30 18 H 2.08 4.83886 2.90714 0
M  V30 19 N 1.4781 -0.272755 1.55222 0
M  V30 20 C 2.4411 -1.32041 1.87344 0
M  V30 21 C 3.4411 -1.42342 0.74803 0
M  V30 22 O 4.6311 -1.41488 1.0162 0
M  V30 23 C 1.7631 -2.70173 2.07893 0
M  V30 24 H 2.9561 -1.04789 2.80997 0
M  V30 25 H 0.5091 -0.51083 1.47717 0
M  V30 26 H 1.2441 -3.02605 1.16622 0
M  V30 27 H 1.0291 -2.64082 2.89833 0
M  V30 28 H 2.5191 -3.45869 2.34017 0
M  V30 29 N 2.9562 -1.48159 -0.537278 0
M  V30 30 C 4.1842 -1.59454 -1.31841 0
M  V30 31 C 4.5992 -0.252065 -1.8711 0
M  V30 32 O 3.9562 0.757621 -1.66031 0
M  V30 33 C 4.0072 -2.63546 -2.47439 0
M  V30 34 O 3.7282 -3.92583 -1.94449 0
M  V30 35 C 5.2292 -2.85212 -3.39366 0
M  V30 36 H 2.4492 -0.53785 -0.401196 0
M  V30 37 H 4.9932 -1.93932 -0.648891 0
M  V30 38 H 3.1482 -2.31946 -3.1029 0
M  V30 39 H 3.5622 -4.49629 -2.70063 0
M  V30 40 H 5.0362 -3.61863 -4.16844 0
M  V30 41 H 5.5132 -1.93765 -3.94147 0
M  V30 42 H 6.1192 -3.18086 -2.82314 0
M  V30 43 N 4.4343 0.785586 -1.36625 0
M  V30 44 C 5.3823 1.91978 -1.31329 0
M  V30 45 C 6.3763 1.68162 -0.204416 0
M  V30 46 O 7.5823 1.76122 -0.371645 0
M  V30 47 H 3.9573 0.631087 -0.408942 0
M  V30 48 H 5.9283 1.93562 -2.27104 0
M  V30 49 C 4.6773 3.29055 -1.12329 0
M  V30 50 H 4.0003 3.4795 -1.96903 0
M  V30 51 H 5.4403 4.08756 -1.12671 0
M  V30 52 C 3.8993 3.36461 0.171861 0
M  V30 53 O 4.4293 3.84576 1.16035 0
M  V30 54 N 2.6353 2.89782 0.217846 0
M  V30 55 H 2.1823 2.50819 -0.587183 0
M  V30 56 H 2.1403 2.95119 1.08408 0
M  V30 57 N 5.9124 1.20967 1.01018 0
M  V30 58 C 7.1584 1.0353 1.7508 0
M  V30 59 C 7.5134 -0.42734 1.87594 0
M  V30 60 O 6.8064 -1.31298 1.3954 0
M  V30 61 C 7.0004 1.65997 3.16512 0
M  V30 62 C 6.8294 3.18184 3.17788 0
M  V30 63 C 5.5994 3.87198 3.24662 0
M  V30 64 C 7.7974 4.15334 3.03319 0
M  V30 65 N 5.7794 5.26618 3.15509 0
M  V30 66 C 7.1504 5.41472 3.02007 0
M  V30 67 C 9.2054 4.06449 2.87583 0
M  V30 68 C 7.9084 6.5975 2.86571 0
M  V30 69 C 9.9344 5.24357 2.73503 0
M  V30 70 C 9.2964 6.49404 2.72862 0
M  V30 71 H 5.3954 0.433137 0.651089 0
M  V30 72 H 7.9794 1.5324 1.20107 0
M  V30 73 H 6.1504 1.18863 3.69765 0
M  V30 74 H 7.8824 1.41816 3.79039 0
M  V30 75 H 4.6374 3.38093 3.31648 0
M  V30 76 H 5.0614 5.99626 3.14289 0
M  V30 77 H 9.7034 3.10573 2.86887 0
M  V30 78 H 7.4214 7.55792 2.86015 0
M  V30 79 H 11.0074 5.19299 2.62334 0
M  V30 80 H 9.8874 7.39105 2.62093 0
M  V30 81 N 7.3905 -1.2043 1.01659 0
M  V30 82 C 8.6385 -1.89423 0.704522 0
M  V30 83 C 8.9595 -1.79231 -0.768197 0
M  V30 84 O 8.2295 -1.1947 -1.55254 0
M  V30 85 H 6.8095 -0.701178 0.257602 0
M  V30 86 H 9.4715 -1.4626 1.28818 0
M  V30 87 H 8.5675 -2.96052 0.987916 0
M  V30 88 N 8.8686 -0.792821 -1.36206 0
M  V30 89 C 10.0936 -0.377701 -2.03932 0
M  V30 90 C 10.5186 0.998947 -1.59382 0
M  V30 91 O 9.8766 1.64421 -0.763903 0
M  V30 92 C 9.9246 -0.453635 -3.57735 0
M  V30 93 O 9.0286 0.538151 -4.08874 0
M  V30 94 H 8.3696 -0.159855 -0.644471 0
M  V30 95 H 10.8996 -1.07488 -1.7409 0
M  V30 96 H 10.9096 -0.318464 -4.06755 0
M  V30 97 H 9.5846 -1.45784 -3.89512 0
M  V30 98 H 8.1616 0.364359 -3.71116 0
M  V30 99 N 10.3467 1.47872 -0.545128 0
M  V30 100 C 11.2767 2.32661 0.197793 0
M  V30 101 C 12.2577 1.43041 0.920504 0
M  V30 102 O 13.4427 1.71912 0.90333 0
M  V30 103 C 10.5727 3.24569 1.23582 0
M  V30 104 C 9.5267 4.23333 0.630323 0
M  V30 105 C 8.8527 5.0448 1.77211 0
M  V30 106 C 10.1527 5.20704 -0.407974 0
M  V30 107 H 11.8467 2.95024 -0.510045 0
M  V30 108 H 9.3927 1.4187 -0.246731 0
M  V30 109 H 11.3457 3.8272 1.76362 0
M  V30 110 H 10.0697 2.60236 1.97344 0
M  V30 111 H 8.7287 3.6639 0.123922 0
M  V30 112 H 8.3767 4.36561 2.49847 0
M  V30 113 H 8.0767 5.71339 1.37281 0
M  V30 114 H 9.6007 5.65487 2.3034 0
M  V30 115 H 11.0147 5.7329 0.033305 0
M  V30 116 H 9.4117 5.95699 -0.725486 0
M  V30 117 H 10.4817 4.66917 -1.30828 0
M  V30 118 N 11.8248 0.280983 1.55075 0
M  V30 119 C 12.7548 -0.597469 2.25727 0
M  V30 120 C 13.7358 -1.15417 1.24952 0
M  V30 121 O 14.9208 -1.18722 1.53684 0
M  V30 122 C 12.0508 -1.7789 2.98283 0
M  V30 123 C 11.0048 -1.35347 4.06036 0
M  V30 124 C 10.3308 -2.61846 4.66198 0
M  V30 125 C 11.6308 -0.499354 5.19907 0
M  V30 126 H 13.3248 -0.00824265 2.99399 0
M  V30 127 H 10.8708 -0.0025244 1.44 0
M  V30 128 H 12.8238 -2.39937 3.46422 0
M  V30 129 H 11.5478 -2.39405 2.22155 0
M  V30 130 H 10.2068 -0.756156 3.58717 0
M  V30 131 H 9.8548 -3.21632 3.86732 0
M  V30 132 H 9.5548 -2.3409 5.38958 0
M  V30 133 H 11.0788 -3.24732 5.1709 0
M  V30 134 H 12.4928 -1.02498 5.64063 0
M  V30 135 H 10.8898 -0.316424 5.99265 0
M  V30 136 H 11.9598 0.480459 4.82514 0
M  V30 137 N 13.3029 -1.57598 0.00835791 0
M  V30 138 C 14.2349 -2.05811 -1.00868 0
M  V30 139 C 15.2479 -0.977579 -1.30182 0
M  V30 140 O 16.4369 -1.25421 -1.27011 0
M  V30 141 C 13.5369 -2.45016 -2.34137 0
M  V30 142 C 12.7099 -3.75903 -2.23643 0
M  V30 143 C 11.7689 -4.01884 -3.3967 0
M  V30 144 O 10.7949 -4.72433 -3.17483 0
M  V30 145 N 11.9969 -3.50432 -4.62793 0
M  V30 146 H 14.7619 -2.93684 -0.597458 0
M  V30 147 H 12.3229 -1.60909 -0.178852 0
M  V30 148 H 14.3149 -2.59506 -3.10546 0
M  V30 149 H 12.8849 -1.62618 -2.66972 0
M  V30 150 H 12.1049 -3.7141 -1.32091 0
M  V30 151 H 13.3929 -4.61695 -2.13812 0
M  V30 152 H 12.7909 -2.93317 -4.83716 0
M  V30 153 H 11.3479 -3.70236 -5.3644 0
M  V30 154 N 14.781 0.264519 -1.55364 0
M  V30 155 C 16.058 1.01677 -1.67096 0
M  V30 156 C 16.438 2.03996 -0.543015 0
M  V30 157 O 15.786 2.23907 0.45585 0
M  V30 158 C 15.996 1.66596 -3.0667 0
M  V30 159 C 17.344 2.17442 -3.64697 0
M  V30 160 O 18.368 1.76568 -3.09358 0
M  V30 161 O 17.227 2.92439 -4.61673 0
M  V30 162 H 14.321 0.472161 -0.678965 0
M  V30 163 H 16.867 0.259703 -1.67701 0
M  V30 164 H 15.639 0.924962 -3.80211 0
M  V30 165 H 15.262 2.48968 -3.10001 0
M  V30 166 N 16.2591 1.48442 0.529413 0
M  V30 167 C 17.2061 1.63007 1.63394 0
M  V30 168 C 18.1761 0.47212 1.59249 0
M  V30 169 O 19.3611 0.695673 1.77666 0
M  V30 170 C 16.5011 1.6763 3.01653 0
M  V30 171 C 15.6141 2.94535 3.16027 0
M  V30 172 C 14.7491 2.90316 4.44849 0
M  V30 173 C 13.7881 4.11923 4.52754 0
M  V30 174 N 12.9251 4.05777 5.72965 0
M  V30 175 H 17.7651 2.5733 1.50285 0
M  V30 176 H 15.3021 1.27613 0.731656 0
M  V30 177 H 17.2601 1.68292 3.81751 0
M  V30 178 H 15.8901 0.76797 3.13532 0
M  V30 179 H 14.9421 3.03615 2.29177 0
M  V30 180 H 16.2541 3.84512 3.17729 0
M  V30 181 H 15.4081 2.89382 5.33238 0
M  V30 182 H 14.1471 1.98068 4.45668 0
M  V30 183 H 13.1521 4.13131 3.62771 0
M  V30 184 H 14.3771 5.0533 4.53672 0
M  V30 185 H 12.3231 3.16351 5.74681 0
M  V30 186 H 12.2401 4.8946 5.76164 0
M  V30 187 H 13.5081 4.08904 6.6364 0
M  V30 188 N 17.7372 -0.778329 1.37039 0
M  V30 189 C 18.6692 -1.90034 1.2814 0
M  V30 190 C 19.6822 -1.61585 0.198558 0
M  V30 191 O 20.8712 -1.72625 0.454175 0
M  V30 192 C 17.9712 -3.25108 0.956968 0
M  V30 193 C 17.1442 -3.81253 2.14394 0
M  V30 194 C 16.2032 -4.94789 1.79082 0
M  V30 195 O 15.2292 -5.10721 2.51301 0
M  V30 196 N 16.4312 -5.75878 0.731043 0
M  V30 197 H 19.1962 -1.98186 2.24816 0
M  V30 198 H 16.7572 -0.957129 1.30578 0
M  V30 199 H 18.7492 -3.9857 0.701701 0
M  V30 200 H 17.3192 -3.125 0.0789812 0
M  V30 201 H 16.5392 -2.99647 2.56135 0
M  V30 202 H 17.8272 -4.15495 2.93668 0
M  V30 203 H 17.2252 -5.65547 0.131618 0
M  V30 204 H 15.7822 -6.49596 0.535622 0
M  V30 205 N 19.2153 -1.21501 -1.00376 0
M  V30 206 C 20.1473 -0.933174 -2.09343 0
M  V30 207 C 21.1603 0.0840896 -1.62583 0
M  V30 208 O 22.3493 -0.148563 -1.77881 0
M  V30 209 C 19.4493 -0.379869 -3.36764 0
M  V30 210 C 18.6223 -1.45176 -4.12605 0
M  V30 211 C 17.6813 -0.907476 -5.18316 0
M  V30 212 O 16.7073 -1.5912 -5.46507 0
M  V30 213 N 17.9093 0.276649 -5.7984 0
M  V30 214 H 20.6743 -1.87124 -2.34104 0
M  V30 215 H 18.2353 -1.12043 -1.16867 0
M  V30 216 H 20.2273 -0.00131488 -4.047 0
M  V30 217 H 18.7973 0.463048 -3.09151 0
M  V30 218 H 18.0173 -2.00411 -3.39454 0
M  V30 219 H 19.3053 -2.17328 -4.6005 0
M  V30 220 H 18.7033 0.849147 -5.59291 0
M  V30 221 H 17.2603 0.596702 -6.49063 0
M  V30 222 N 20.6934 1.19889 -1.02296 0
M  V30 223 C 21.6234 2.25141 -0.619174 0
M  V30 224 C 22.6044 1.66051 0.368915 0
M  V30 225 O 23.7894 1.92546 0.252941 0
M  V30 226 C 20.9194 3.4728 0.0368783 0
M  V30 227 C 19.8734 4.19005 -0.872865 0
M  V30 228 C 19.1994 5.34637 -0.0822402 0
M  V30 229 C 20.4994 4.74452 -2.18387 0
M  V30 230 H 22.1934 2.59171 -1.49903 0
M  V30 231 H 19.7394 1.24579 -0.722222 0
M  V30 232 H 21.6924 4.20098 0.330958 0
M  V30 233 H 20.4164 3.12433 0.95149 0
M  V30 234 H 19.0754 3.48061 -1.15105 0
M  V30 235 H 18.7234 4.96034 0.83422 0
M  V30 236 H 18.4234 5.83557 -0.688149 0
M  V30 237 H 19.9474 6.10255 0.205238 0
M  V30 238 H 21.3614 5.39055 -1.95172 0
M  V30 239 H 19.7584 5.33834 -2.74119 0
M  V30 240 H 20.8284 3.92844 -2.84257 0
M  V30 241 N 22.1715 0.800033 1.35784 0
M  V30 242 C 23.0815 0.207204 2.33683 0
M  V30 243 C 24.0975 -0.64631 1.61551 0
M  V30 244 O 25.2735 -0.559604 1.93469 0
M  V30 245 C 22.3385 -0.639659 3.40748 0
M  V30 246 C 21.3995 0.233585 4.28664 0
M  V30 247 C 20.6325 -0.572954 5.30616 0
M  V30 248 O 20.8555 -1.80816 5.40982 0
M  V30 249 O 19.7895 0.0327285 6.01891 0
M  V30 250 H 23.6155 1.01692 2.86169 0
M  V30 251 H 21.2005 0.561691 1.38439 0
M  V30 252 H 23.0825 -1.12223 4.06182 0
M  V30 253 H 21.7575 -1.42708 2.90544 0
M  V30 254 H 20.6645 0.763147 3.66233 0
M  V30 255 H 21.9975 0.984784 4.82248 0
M  V30 256 N 23.6496 -1.47581 0.552962 0
M  V30 257 C 24.5596 -2.33743 -0.200353 0
M  V30 258 C 25.5756 -1.47928 -0.916151 0
M  V30 259 O 26.7516 -1.80865 -0.885993 0
M  V30 260 C 23.8166 -3.24536 -1.21973 0
M  V30 261 C 22.8776 -4.26238 -0.511819 0
M  V30 262 C 22.1106 -5.12693 -1.48263 0
M  V30 263 O 22.3336 -5.01525 -2.71714 0
M  V30 264 O 21.2676 -5.93375 -1.00945 0
M  V30 265 H 25.0936 -2.9945 0.506304 0
M  V30 266 H 22.6786 -1.46071 0.313622 0
M  V30 267 H 24.5606 -3.80631 -1.80827 0
M  V30 268 H 23.2356 -2.61462 -1.90839 0
M  V30 269 H 22.1426 -3.73914 0.117799 0
M  V30 270 H 23.4756 -4.92014 0.135308 0
M  V30 271 N 25.1277 -0.289203 -1.54924 0
M  V30 272 C 26.0577 0.58549 -2.2604 0
M  V30 273 C 27.0387 1.14753 -1.25562 0
M  V30 274 O 28.2237 1.17906 -1.54311 0
M  V30 275 C 25.3537 1.76305 -2.99222 0
M  V30 276 C 24.3077 1.33191 -4.06748 0
M  V30 277 C 23.6337 2.5937 -4.6758 0
M  V30 278 C 24.9337 0.471775 -5.20165 0
M  V30 279 H 26.6277 -0.00763532 -2.99399 0
M  V30 280 H 24.1737 -0.00511229 -1.43999 0
M  V30 281 H 26.1267 2.38097 -3.47689 0
M  V30 282 H 24.8507 2.38223 -2.23422 0
M  V30 283 H 23.5097 0.737121 -3.59113 0
M  V30 284 H 23.1577 3.19576 -3.88433 0
M  V30 285 H 22.8577 2.31228 -5.40192 0
M  V30 286 H 24.3817 3.21985 -5.18804 0
M  V30 287 H 25.7957 0.995056 -5.64599 0
M  V30 288 H 24.1927 0.284639 -5.99425 0
M  V30 289 H 25.2627 -0.506041 -4.82252 0
M  V30 290 N 26.6058 1.57591 -0.0167156 0
M  V30 291 C 27.5688 2.08393 0.954204 0
M  V30 292 C 28.5688 0.996531 1.26198 0
M  V30 293 O 29.7588 1.25858 1.20438 0
M  V30 294 C 26.8908 2.5394 2.27436 0
M  V30 295 H 28.0838 2.95455 0.514451 0
M  V30 296 H 25.6368 1.54582 0.231089 0
M  V30 297 H 26.3718 1.70171 2.76066 0
M  V30 298 H 26.1568 3.33371 2.06412 0
M  V30 299 H 27.6468 2.93512 2.97053 0
M  V30 300 N 28.0839 -0.256276 1.55502 0
M  V30 301 C 29.4999 -0.604325 1.47716 0
M  V30 302 C 29.6999 -1.88763 0.705039 0
M  V30 303 O 28.7559 -2.51445 0.230613 0
M  V30 304 C 30.0689 -0.715756 2.92057 0
M  V30 305 C 31.6169 -0.808706 3.02372 0
M  V30 306 C 32.0919 -0.951777 4.48001 0
M  V30 307 N 33.5829 -1.01688 4.519 0
M  V30 308 C 34.3179 -1.14668 5.61817 0
M  V30 309 N 33.8139 -1.24261 6.81565 0
M  V30 310 N 35.6069 -1.1791 5.49594 0
M  V30 311 H 27.7579 0.586291 2.04148 0
M  V30 312 H 30.0209 0.201015 0.926443 0
M  V30 313 H 29.7269 0.157027 3.51349 0
M  V30 314 H 29.6009 -1.59071 3.42018 0
M  V30 315 H 31.9879 -1.67195 2.43166 0
M  V30 316 H 32.0689 0.0912063 2.55637 0
M  V30 317 H 31.7129 -0.0931291 5.07815 0
M  V30 318 H 31.6429 -1.86659 4.92408 0
M  V30 319 H 34.1339 -0.954468 3.65648 0
M  V30 320 H 34.4469 -1.34046 7.61086 0
M  V30 321 H 32.7919 -1.21236 6.84344 0
M  V30 322 H 35.9829 -1.10057 4.54978 0
M  V30 323 H 36.1559 -1.27681 6.35296 0
M  V30 324 N 29.562 -1.4872 -0.521534 0
M  V30 325 C 30.494 -1.59968 -1.64143 0
M  V30 326 C 31.507 -0.483463 -1.55456 0
M  V30 327 O 32.696 -0.75467 -1.61762 0
M  V30 328 C 29.796 -1.52127 -3.02838 0
M  V30 329 C 28.969 -2.78932 -3.36921 0
M  V30 330 C 28.028 -2.64428 -4.54933 0
M  V30 331 O 27.054 -3.38331 -4.57735 0
M  V30 332 N 28.256 -1.74606 -5.53618 0
M  V30 333 H 31.021 -2.56548 -1.54929 0
M  V30 334 H 28.582 -1.45551 -0.708988 0
M  V30 335 H 30.574 -1.40106 -3.79674 0
M  V30 336 H 29.144 -0.634868 -3.06085 0
M  V30 337 H 28.364 -3.05455 -2.4918 0
M  V30 338 H 29.652 -3.63041 -3.56481 0
M  V30 339 H 29.05 -1.13782 -5.54139 0
M  V30 340 H 27.607 -1.6852 -6.29638 0
M  V30 341 N 31.0401 0.771051 -1.3745 0
M  V30 342 C 32.0031 1.86598 -1.33093 0
M  V30 343 C 33.0031 1.59076 -0.234845 0
M  V30 344 O 34.1931 1.67145 -0.490732 0
M  V30 345 C 31.3251 3.23747 -1.06773 0
M  V30 346 H 32.5181 1.91873 -2.30488 0
M  V30 347 H 30.0711 0.970876 -1.2249 0
M  V30 348 H 30.8061 3.24148 -0.099129 0
M  V30 349 H 30.5911 3.45115 -1.86112 0
M  V30 350 H 32.0811 4.03824 -1.06377 0
M  V30 351 N 32.5182 1.22032 0.997298 0
M  V30 352 C 33.7642 1.04376 1.73878 0
M  V30 353 C 34.0972 -0.420716 1.89588 0
M  V30 354 O 33.3722 -1.31202 1.43583 0
M  V30 355 C 33.6552 1.75047 3.14691 0
M  V30 356 C 33.5082 3.29062 3.06656 0
M  V30 357 C 34.8272 1.49928 4.13775 0
M  V30 358 H 31.9462 0.380578 0.631133 0
M  V30 359 H 34.5882 1.50312 1.16217 0
M  V30 360 H 32.7382 1.35996 3.63919 0
M  V30 361 H 34.4102 3.7753 2.65083 0
M  V30 362 H 32.6532 3.58967 2.43568 0
M  V30 363 H 33.3242 3.73683 4.06282 0
M  V30 364 H 35.8002 1.83842 3.73285 0
M  V30 365 H 34.6762 2.01878 5.10428 0
M  V30 366 H 34.9372 0.430929 4.39995 0
M  V30 367 N 33.9963 -1.19345 1.0293 0
M  V30 368 C 35.2733 -1.84811 0.640642 0
M  V30 369 C 35.6533 -1.91855 -0.88062 0
M  V30 370 O 35.0013 -1.43587 -1.7775 0
M  V30 371 C 35.2113 -3.23755 1.30321 0
M  V30 372 C 36.5593 -3.99912 1.42673 0
M  V30 373 O 37.5833 -3.33155 1.26041 0
M  V30 374 O 36.4423 -5.19494 1.6967 0
M  V30 375 H 33.5363 -0.796443 0.222726 0
M  V30 376 H 36.0823 -1.26831 1.12748 0
M  V30 377 H 34.8543 -3.13466 2.34211 0
M  V30 378 H 34.4773 -3.89381 0.804261 0
M  V30 379 N 35.4744 -0.807222 -1.35358 0
M  V30 380 C 36.8904 -0.491038 -1.51858 0
M  V30 381 C 37.0904 0.987648 -1.75635 0
M  V30 382 O 36.1464 1.77265 -1.79815 0
M  V30 383 C 37.4594 -1.33695 -2.69344 0
M  V30 384 C 39.0074 -1.33246 -2.83222 0
M  V30 385 C 39.4824 -2.1625 -4.03733 0
M  V30 386 N 40.9734 -2.1379 -4.10911 0
M  V30 387 C 41.7084 -2.74772 -5.03277 0
M  V30 388 N 41.2044 -3.44684 -6.0097 0
M  V30 389 N 42.9974 -2.6441 -4.96028 0
M  V30 390 H 35.1484 -1.76485 -1.18181 0
M  V30 391 H 37.4114 -0.751199 -0.578276 0
M  V30 392 H 37.1174 -2.38634 -2.58354 0
M  V30 393 H 36.9914 -0.990618 -3.6396 0
M  V30 394 H 39.3784 -0.290911 -2.93663 0
M  V30 395 H 39.4594 -1.71866 -1.89461 0
M  V30 396 H 39.1034 -3.20445 -3.94052 0
M  V30 397 H 39.0334 -1.74989 -4.96675 0
M  V30 398 H 41.5244 -1.62923 -3.40976 0
M  V30 399 H 41.8374 -3.88501 -6.68047 0
M  V30 400 H 40.1824 -3.48788 -6.01142 0
M  V30 401 H 43.3734 -2.0938 -4.18662 0
M  V30 402 H 43.5464 -3.12225 -5.6782 0
M  V30 403 N 36.9525 1.47285 -0.560781 0
M  V30 404 C 37.9155 2.28535 0.174488 0
M  V30 405 C 38.9155 1.37153 0.839388 0
M  V30 406 O 40.1055 1.59748 0.694702 0
M  V30 407 C 37.2375 3.16934 1.25561 0
M  V30 408 H 38.4305 2.95012 -0.539262 0
M  V30 409 H 35.9835 1.53034 -0.317865 0
M  V30 410 H 36.7185 2.55157 2.00164 0
M  V30 411 H 36.5035 3.8419 0.783604 0
M  V30 412 H 37.9935 3.78143 1.77193 0
M  V30 413 N 38.4306 0.297415 1.54768 0
M  V30 414 C 39.3606 -0.573494 2.26348 0
M  V30 415 C 40.3416 -1.14085 1.26169 0
M  V30 416 O 41.5266 -1.17086 1.54934 0
M  V30 417 C 38.6566 -1.74716 3.00153 0
M  V30 418 C 37.6106 -1.31032 4.07449 0
M  V30 419 C 36.9366 -2.56887 4.68949 0
M  V30 420 C 38.2366 -0.444183 5.20408 0
M  V30 421 H 39.9306 0.0235131 2.99391 0
M  V30 422 H 37.4766 0.0127488 1.43994 0
M  V30 423 H 39.4296 -2.3625 3.48947 0
M  V30 424 H 38.1536 -2.37035 2.24682 0
M  V30 425 H 36.8126 -0.718066 3.59499 0
M  V30 426 H 36.4606 -3.17512 3.90122 0
M  V30 427 H 36.1606 -2.2836 5.41411 0
M  V30 428 H 37.6846 -3.19229 5.20505 0
M  V30 429 H 39.0986 -0.9651 5.65118 0
M  V30 430 H 37.4956 -0.252846 5.99567 0
M  V30 431 H 38.5656 0.531609 4.81977 0
M  V30 432 N 39.9087 -1.5758 0.0250728 0
M  V30 433 C 40.8717 -2.08896 -0.943139 0
M  V30 434 C 41.8717 -1.00321 -1.25668 0
M  V30 435 O 43.0617 -1.26495 -1.19769 0
M  V30 436 C 40.1937 -2.55143 -2.26086 0
M  V30 437 H 41.3867 -2.95723 -0.498775 0
M  V30 438 H 38.9397 -1.54703 -0.222888 0
M  V30 439 H 39.6747 -1.71633 -2.75159 0
M  V30 440 H 39.4597 -3.34461 -2.04641 0
M  V30 441 H 40.9497 -2.95083 -2.95492 0
M  V30 442 N 41.3868 0.248026 -1.55636 0
M  V30 443 C 42.2968 1.32859 -1.93354 0
M  V30 444 C 43.3128 1.52719 -0.833838 0
M  V30 445 O 44.4888 1.66363 -1.13513 0
M  V30 446 C 41.5538 2.66337 -2.21958 0
M  V30 447 C 40.6148 2.55008 -3.45354 0
M  V30 448 C 39.8478 3.82121 -3.72584 0
M  V30 449 O 40.0708 4.83951 -3.01907 0
M  V30 450 O 39.0048 3.80822 -4.6611 0
M  V30 451 H 42.8308 1.03862 -2.85388 0
M  V30 452 H 40.4158 0.448686 -1.42503 0
M  V30 453 H 42.2978 3.45216 -2.4167 0
M  V30 454 H 40.9728 2.95068 -1.33103 0
M  V30 455 H 39.8798 1.7442 -3.30951 0
M  V30 456 H 41.2128 2.31222 -4.34508 0
M  V30 457 N 42.8649 1.48995 0.513639 0
M  V30 458 C 44.1129 1.57531 1.26604 0
M  V30 459 C 44.4339 0.258236 1.93283 0
M  V30 460 O 43.7039 -0.721502 1.8213 0
M  V30 461 H 42.2839 0.580387 0.470276 0
M  V30 462 H 44.9459 1.85552 0.596373 0
M  V30 463 H 44.0419 2.36486 2.03669 0
M  V30 464 N 44.343 -0.763751 1.37857 0
M  V30 465 C 45.589 -1.52483 1.33704 0
M  V30 466 C 45.922 -1.94051 -0.0759612 0
M  V30 467 O 45.197 -1.64675 -1.03501 0
M  V30 468 C 45.48 -2.78441 2.28348 0
M  V30 469 C 45.333 -2.43075 3.78463 0
M  V30 470 C 46.652 -3.80415 2.21298 0
M  V30 471 H 43.771 -0.553169 0.487005 0
M  V30 472 H 46.413 -0.875562 1.68624 0
M  V30 473 H 44.563 -3.33842 1.987 0
M  V30 474 H 46.235 -1.93527 4.18742 0
M  V30 475 H 44.478 -1.75666 3.96641 0
M  V30 476 H 45.149 -3.33149 4.40132 0
M  V30 477 H 47.625 -3.34527 2.47449 0
M  V30 478 H 46.501 -4.66257 2.89647 0
M  V30 479 H 46.762 -4.25262 1.20849 0
M  V30 480 N 45.8211 -1.22559 -0.990812 0
M  V30 481 C 46.7511 -1.0218 -2.09956 0
M  V30 482 C 47.7321 0.0579394 -1.70001 0
M  V30 483 O 48.9171 -0.104684 -1.93918 0
M  V30 484 C 46.0471 -0.601023 -3.4206 0
M  V30 485 C 45.0011 -1.62694 -3.95872 0
M  V30 486 C 44.3271 -1.06193 -5.24049 0
M  V30 487 C 45.6271 -3.01743 -4.2632 0
M  V30 488 H 47.3211 -1.94916 -2.27262 0
M  V30 489 H 44.8671 -0.938566 -1.09211 0
M  V30 490 H 46.8201 -0.445561 -4.19038 0
M  V30 491 H 45.5441 0.362005 -3.24588 0
M  V30 492 H 44.2031 -1.77021 -3.21028 0
M  V30 493 H 43.8511 -0.0901903 -5.02919 0
M  V30 494 H 43.5511 -1.74732 -5.61019 0
M  V30 495 H 45.0751 -0.918092 -6.03658 0
M  V30 496 H 46.4891 -2.90777 -4.94087 0
M  V30 497 H 44.8861 -3.67425 -4.74467 0
M  V30 498 H 45.9561 -3.51518 -3.34011 0
M  V30 499 N 47.2992 1.18797 -1.03562 0
M  V30 500 C 48.2292 2.24472 -0.643019 0
M  V30 501 C 49.2102 1.66433 0.351283 0
M  V30 502 O 50.3952 1.92803 0.232505 0
M  V30 503 C 47.5252 3.473 4.24935e-05 0
M  V30 504 C 46.4792 4.18055 -0.917257 0
M  V30 505 C 45.8052 5.34519 -0.138941 0
M  V30 506 C 47.1052 4.72109 -2.23407 0
M  V30 507 H 48.7992 2.57566 -1.52643 0
M  V30 508 H 46.3452 1.23806 -0.735394 0
M  V30 509 H 48.2982 4.20426 0.286383 0
M  V30 510 H 47.0222 3.13424 0.918299 0
M  V30 511 H 45.6812 3.46821 -1.1879 0
M  V30 512 H 45.3292 4.96891 0.781562 0
M  V30 513 H 45.0292 5.82794 -0.750005 0
M  V30 514 H 46.5532 6.10438 0.1405 0
M  V30 515 H 47.9672 5.36955 -2.00879 0
M  V30 516 H 46.3642 5.30897 -2.79765 0
M  V30 517 H 47.4342 3.89807 -2.88407 0
M  V30 518 N 48.7773 0.814389 1.34928 0
M  V30 519 C 50.1933 0.499084 1.51596 0
M  V30 520 C 50.3933 -0.978319 1.76157 0
M  V30 521 O 49.4493 -1.76309 1.80752 0
M  V30 522 C 50.7623 1.35121 2.68631 0
M  V30 523 C 52.3103 1.34746 2.82511 0
M  V30 524 C 52.7853 2.18388 4.0258 0
M  V30 525 N 54.2763 2.15966 4.09772 0
M  V30 526 C 55.0113 2.77437 5.01813 0
M  V30 527 N 54.5073 3.47866 5.99134 0
M  V30 528 N 56.3003 2.67037 4.94619 0
M  V30 529 H 48.4513 1.7711 1.17243 0
M  V30 530 H 50.7143 0.754256 0.574284 0
M  V30 531 H 50.4203 2.40001 2.57085 0
M  V30 532 H 50.2943 1.00991 3.63429 0
M  V30 533 H 52.6813 0.30648 2.93504 0
M  V30 534 H 52.7623 1.72869 1.88547 0
M  V30 535 H 52.4063 3.2253 3.92347 0
M  V30 536 H 52.3363 1.77621 4.9574 0
M  V30 537 H 54.8273 1.64729 3.40107 0
M  V30 538 H 55.1403 3.92038 6.65977 0
M  V30 539 H 53.4853 3.51972 5.99284 0
M  V30 540 H 56.6763 2.11597 4.17546 0
M  V30 541 H 56.8493 3.15232 5.66156 0
M  V30 542 N 50.2554 -1.46986 0.568584 0
M  V30 543 C 51.4834 -2.0683 0.0539956 0
M  V30 544 C 51.8984 -1.41953 -1.24478 0
M  V30 545 O 51.2554 -0.519933 -1.74937 0
M  V30 546 C 51.3064 -3.61254 -0.133362 0
M  V30 547 O 51.0274 -4.237 1.11399 0
M  V30 548 C 52.5284 -4.37992 -0.683927 0
M  V30 549 H 49.7484 -0.669058 0.0510141 0
M  V30 550 H 52.2924 -1.88824 0.785234 0
M  V30 551 H 50.4474 -3.78735 -0.81477 0
M  V30 552 H 50.8614 -5.16388 0.91888 0
M  V30 553 H 52.3354 -5.46684 -0.764263 0
M  V30 554 H 52.8124 -4.05058 -1.69778 0
M  V30 555 H 53.4184 -4.25283 -0.0378494 0
M  V30 556 N 51.7335 -0.305618 -1.54608 0
M  V30 557 C 52.9585 0.307562 -2.05107 0
M  V30 558 C 53.3835 1.46385 -1.18123 0
M  V30 559 O 52.7415 1.8034 -0.186324 0
M  V30 560 C 52.7895 0.73704 -3.52987 0
M  V30 561 O 51.8935 1.84134 -3.6901 0
M  V30 562 H 51.2345 0.0589143 -0.661381 0
M  V30 563 H 53.7645 -0.448807 -1.99617 0
M  V30 564 H 53.7745 1.02459 -3.94925 0
M  V30 565 H 52.4495 -0.108773 -4.15758 0
M  V30 566 H 51.0265 1.55398 -3.38978 0
M  V30 567 N 53.2116 1.57565 -0.0334293 0
M  V30 568 C 54.1436 2.0739 0.975811 0
M  V30 569 C 55.1566 0.998166 1.2861 0
M  V30 570 O 56.3456 1.27426 1.25 0
M  V30 571 C 53.4456 2.4871 2.30209 0
M  V30 572 C 52.6186 3.79413 2.17634 0
M  V30 573 C 51.6776 4.07237 3.33233 0
M  V30 574 O 50.7036 4.77425 3.09927 0
M  V30 575 N 51.9056 3.5775 4.5716 0
M  V30 576 H 54.6706 2.94598 0.55066 0
M  V30 577 H 52.2316 1.61173 0.15323 0
M  V30 578 H 54.2236 2.64413 3.06378 0
M  V30 579 H 52.7936 1.66845 2.64351 0
M  V30 580 H 52.0136 3.73465 1.26165 0
M  V30 581 H 53.3016 4.65038 2.0644 0
M  V30 582 H 52.6996 3.00976 4.78989 0
M  V30 583 H 51.2566 3.78724 5.30482 0
M  V30 584 N 54.6897 -0.239769 1.55765 0
M  V30 585 C 55.5997 -1.31831 1.94056 0
M  V30 586 C 56.6157 -1.52275 0.841925 0
M  V30 587 O 57.7917 -1.65759 1.14394 0
M  V30 588 C 54.8567 -2.65156 2.23368 0
M  V30 589 C 53.9177 -2.53173 3.46701 0
M  V30 590 C 53.1507 -3.8014 3.74606 0
M  V30 591 O 53.3737 -4.82343 3.04469 0
M  V30 592 O 52.3077 -3.78344 4.68123 0
M  V30 593 H 56.1337 -1.02347 2.85935 0
M  V30 594 H 53.7187 -0.441123 1.42739 0
M  V30 595 H 55.6007 -3.43929 2.43497 0
M  V30 596 H 54.2757 -2.94358 1.34666 0
M  V30 597 H 53.1827 -1.72662 3.31871 0
M  V30 598 H 54.5157 -2.28915 4.35728 0
M  V30 599 N 56.1678 -1.49265 -0.50573 0
M  V30 600 C 57.5788 -1.51769 -1.08734 0
M  V30 601 C 57.9298 -0.301192 -1.93874 0
M  V30 602 O 57.0548 0.589456 -2.08217 0
M  V30 603 C 57.6498 -2.75017 -1.97867 0
M  V30 604 C 56.2088 -2.80314 -2.51199 0
M  V30 605 C 55.3558 -2.4562 -1.28709 0
M  V30 606 H 58.3068 -1.56031 -0.289855 0
M  V30 607 H 58.3278 -2.5491 -2.82491 0
M  V30 608 H 57.8398 -3.63539 -1.35873 0
M  V30 609 H 55.9408 -1.96061 -3.16845 0
M  V30 610 H 56.0538 -3.82366 -2.88675 0
M  V30 611 H 54.4178 -1.97297 -1.61078 0
M  V30 612 H 55.2008 -3.36411 -0.6843 0
M  V30 613 N 57.6459 0.756429 -1.3826 0
M  V30 614 C 58.8739 1.54565 -1.3754 0
M  V30 615 C 59.2889 1.88767 0.0355331 0
M  V30 616 O 58.6459 1.52572 1.0014 0
M  V30 617 C 58.6969 2.84654 -2.22833 0
M  V30 618 O 58.4179 2.51912 -3.5843 0
M  V30 619 C 59.9189 3.78807 -2.30261 0
M  V30 620 H 57.1389 0.478353 -0.470553 0
M  V30 621 H 59.6829 0.936381 -1.81803 0
M  V30 622 H 57.8379 3.41965 -1.8204 0
M  V30 623 H 58.2519 3.35325 -4.03308 0
M  V30 624 H 59.7259 4.67045 -2.94233 0
M  V30 625 H 60.2029 4.19038 -1.31545 0
M  V30 626 H 60.8089 3.2742 -2.71433 0
M  V30 627 N 59.124 1.23083 0.984299 0
M  V30 628 C 60.349 1.088 1.76571 0
M  V30 629 C 60.774 -0.356657 1.84688 0
M  V30 630 O 60.132 -1.25788 1.30565 0
M  V30 631 C 60.18 1.71371 3.17277 0
M  V30 632 O 59.284 0.973213 4.00752 0
M  V30 633 H 58.625 0.381599 0.543395 0
M  V30 634 H 61.155 1.63057 1.23587 0
M  V30 635 H 61.165 1.76449 3.67872 0
M  V30 636 H 59.84 2.76493 3.10684 0
M  V30 637 H 58.417 0.999078 3.59267 0
M  V30 638 N 60.6021 -1.18246 1.0419 0
M  V30 639 C 61.8271 -1.92736 0.765996 0
M  V30 640 C 62.2521 -1.75728 -0.67091 0
M  V30 641 O 61.6101 -1.06825 -1.46486 0
M  V30 642 C 61.6581 -3.42148 1.13875 0
M  V30 643 O 60.7621 -4.11548 0.264954 0
M  V30 644 H 60.1031 -0.601238 0.281797 0
M  V30 645 H 62.6331 -1.49942 1.39207 0
M  V30 646 H 62.6431 -3.92858 1.1012 0
M  V30 647 H 61.3181 -3.53848 2.18551 0
M  V30 648 H 59.8951 -3.71137 0.362226 0
M  V30 649 N 62.0802 -0.821533 -1.34494 0
M  V30 650 C 62.9902 -0.244355 -2.33324 0
M  V30 651 C 64.0062 0.620527 -1.62559 0
M  V30 652 O 65.1822 0.528754 -1.94335 0
M  V30 653 C 62.2472 0.585368 -3.41723 0
M  V30 654 C 61.3082 -0.301752 -4.28238 0
M  V30 655 C 60.5412 0.488466 -5.3146 0
M  V30 656 O 60.7642 1.72186 -5.4379 0
M  V30 657 O 59.6982 -0.12848 -6.01763 0
M  V30 658 H 63.5242 -1.06231 -2.84515 0
M  V30 659 H 61.1092 -0.583645 -1.37528 0
M  V30 660 H 62.9912 1.05747 -4.07916 0
M  V30 661 H 61.6662 1.38068 -2.92778 0
M  V30 662 H 60.5732 -0.821315 -3.64973 0
M  V30 663 H 61.9062 -1.06138 -4.8062 0
M  V30 664 N 63.5583 1.46682 -0.576371 0
M  V30 665 C 64.8043 2.02712 -0.0596221 0
M  V30 666 C 65.1373 1.44765 1.29448 0
M  V30 667 O 64.4123 0.610355 1.84675 0
M  V30 668 C 64.6953 3.60098 0.0129503 0
M  V30 669 C 64.5483 4.28441 -1.3696 0
M  V30 670 C 65.8673 4.34224 0.71678 0
M  V30 671 H 62.9863 0.736637 -0.0231407 0
M  V30 672 H 65.6283 1.74898 -0.742351 0
M  V30 673 H 63.7783 3.83926 0.594378 0
M  V30 674 H 65.4503 4.15896 -1.9957 0
M  V30 675 H 63.6933 3.8805 -1.93907 0
M  V30 676 H 64.3643 5.3716 -1.27135 0
M  V30 677 H 66.8403 4.15503 0.222908 0
M  V30 678 H 65.7163 5.43936 0.73657 0
M  V30 679 H 65.9773 4.04823 1.77682 0
M  V30 680 N 65.0364 0.313813 1.54444 0
M  V30 681 C 66.2824 -0.292108 2.00685 0
M  V30 682 C 66.6154 -1.52548 1.20177 0
M  V30 683 O 65.8904 -1.92452 0.281531 0
M  V30 684 C 66.1734 -0.635968 3.5444 0
M  V30 685 C 66.0264 0.607437 4.4568 0
M  V30 686 C 67.3454 -1.45747 4.15266 0
M  V30 687 H 64.4644 -0.104697 0.729526 0
M  V30 688 H 67.1064 0.428457 1.85106 0
M  V30 689 H 65.2564 -1.24986 3.67846 0
M  V30 690 H 66.9284 1.24581 4.44159 0
M  V30 691 H 65.1714 1.23822 4.15753 0
M  V30 692 H 65.8424 0.322515 5.51057 0
M  V30 693 H 68.3184 -0.938645 4.05375 0
M  V30 694 H 67.1944 -1.66683 5.2298 0
M  V30 695 H 67.4554 -2.45063 3.67963 0
M  V30 696 N 66.5145 -1.57545 0.0417849 0
M  V30 697 C 67.7395 -1.97035 -0.647455 0
M  V30 698 C 68.1645 -0.918775 -1.64135 0
M  V30 699 O 67.5225 0.119006 -1.80909 0
M  V30 700 C 67.5705 -3.35609 -1.31905 0
M  V30 701 O 66.6745 -3.3287 -2.43457 0
M  V30 702 H 66.0155 -0.64211 -0.169086 0
M  V30 703 H 68.5455 -2.04318 0.107399 0
M  V30 704 H 68.5555 -3.72126 -1.67291 0
M  V30 705 H 67.2305 -4.11685 -0.590586 0
M  V30 706 H 65.8075 -3.08087 -2.10088 0
M  V30 707 N 67.9926 0.231505 -1.5589 0
M  V30 708 C 69.2226 0.973092 -1.82248 0
M  V30 709 C 69.6306 1.78845 -0.617328 0
M  V30 710 O 68.9736 1.78752 0.423499 0
M  V30 711 C 69.0356 1.94732 -3.02192 0
M  V30 712 C 68.6996 1.31743 -4.37599 0
M  V30 713 C 69.6966 0.712238 -5.14998 0
M  V30 714 C 67.3816 1.33218 -4.84312 0
M  V30 715 C 69.3756 0.130195 -6.37267 0
M  V30 716 C 67.0626 0.746286 -6.06526 0
M  V30 717 C 68.0606 0.146337 -6.82843 0
M  V30 718 O 67.7486 -0.430465 -8.02747 0
M  V30 719 H 67.4806 0.29125 -0.61004 0
M  V30 720 H 70.0346 0.254915 -2.03812 0
M  V30 721 H 68.2646 2.70422 -2.76422 0
M  V30 722 H 69.9536 2.55362 -3.15508 0
M  V30 723 H 70.7196 0.69324 -4.8002 0
M  V30 724 H 66.5986 1.78854 -4.24891 0
M  V30 725 H 70.1426 -0.33871 -6.96777 0
M  V30 726 H 66.0396 0.762663 -6.40979 0
M  V30 727 H 66.8076 -0.323818 -8.17859 0
M  V30 728 N 69.4707 1.49531 0.497807 0
M  V30 729 C 70.4337 1.65916 1.58128 0
M  V30 730 C 71.4337 0.530825 1.51786 0
M  V30 731 O 72.6237 0.797342 1.54881 0
M  V30 732 C 69.7557 1.65951 2.9778 0
M  V30 733 H 70.9487 2.62556 1.44929 0
M  V30 734 H 68.5017 1.38611 0.722275 0
M  V30 735 H 69.2367 0.709065 3.16453 0
M  V30 736 H 69.0217 2.47897 3.03792 0
M  V30 737 H 70.5117 1.80673 3.76493 0
M  V30 738 N 70.9488 -0.749086 1.3866 0
M  V30 739 C 72.3598 -1.32664 1.31366 0
M  V30 740 C 72.7108 -1.96179 -0.028484 0
M  V30 741 O 71.8358 -1.9537 -0.93057 0
M  V30 742 C 72.4308 -2.41219 2.37905 0
M  V30 743 C 70.9898 -2.94684 2.34176 0
M  V30 744 C 70.1368 -1.68108 2.20533 0
M  V30 745 H 73.0878 -0.547628 1.48952 0
M  V30 746 H 73.1088 -3.21268 2.0388 0
M  V30 747 H 72.6208 -1.94962 3.35576 0
M  V30 748 H 70.7218 -3.45258 1.401 0
M  V30 749 H 70.8348 -3.48757 3.2849 0
M  V30 750 H 69.1988 -1.91907 1.67463 0
M  V30 751 H 69.9818 -1.23923 3.20153 0
M  V30 752 N 72.4269 -1.23603 -0.977757 0
M  V30 753 C 73.6739 -1.06971 -1.71941 0
M  V30 754 C 74.0019 0.393009 -1.90488 0
M  V30 755 O 73.2569 1.30719 -1.4564 0
M  V30 756 C 73.5559 -1.7433 -3.11999 0
M  V30 757 C 73.2219 -3.24252 -3.13323 0
M  V30 758 C 71.8839 -3.65156 -3.13392 0
M  V30 759 C 74.2359 -4.20141 -3.08433 0
M  V30 760 C 71.5639 -5.00403 -3.0629 0
M  V30 761 C 73.9159 -5.55384 -3.02873 0
M  V30 762 C 72.5799 -5.95647 -3.01265 0
M  V30 763 H 71.8499 -0.391433 -0.629175 0
M  V30 764 H 74.4969 -1.53572 -1.14403 0
M  V30 765 H 72.8019 -1.20096 -3.7294 0
M  V30 766 H 74.4989 -1.58936 -3.68158 0
M  V30 767 H 71.0889 -2.91692 -3.14029 0
M  V30 768 H 75.2729 -3.89547 -3.07517 0
M  V30 769 H 70.5289 -5.3081 -3.03399 0
M  V30 770 H 74.7029 -6.29398 -2.98046 0
M  V30 771 H 72.3299 -7.0041 -2.95516 0
M  V30 772 N 73.905 1.17692 -1.04816 0
M  V30 773 C 75.133 1.91786 -0.776254 0
M  V30 774 C 75.548 1.76604 0.667577 0
M  V30 775 O 74.905 1.10067 1.45573 0
M  V30 776 C 74.956 3.42967 -1.14263 0
M  V30 777 O 74.677 3.57678 -2.52978 0
M  V30 778 C 76.178 4.34144 -0.896311 0
M  V30 779 H 73.398 0.608624 -0.282519 0
M  V30 780 H 75.942 1.49268 -1.39783 0
M  V30 781 H 74.097 3.83245 -0.565874 0
M  V30 782 H 74.511 4.51319 -2.67229 0
M  V30 783 H 75.985 5.38744 -1.20244 0
M  V30 784 H 76.462 4.38876 0.168636 0
M  V30 785 H 77.068 3.99574 -1.45672 0
M  V30 786 N 75.3831 0.828654 1.34056 0
M  V30 787 C 76.3131 0.269443 2.3194 0
M  V30 788 C 77.2941 -0.617247 1.58506 0
M  V30 789 O 78.4791 -0.542931 1.86456 0
M  V30 790 C 75.6091 -0.564793 3.42677 0
M  V30 791 C 74.5631 0.225241 4.27407 0
M  V30 792 C 73.8891 -0.7321 5.29664 0
M  V30 793 C 75.1891 1.43663 5.02154 0
M  V30 794 H 76.8831 1.08728 2.7896 0
M  V30 795 H 74.4291 0.524283 1.34117 0
M  V30 796 H 76.3821 -0.966233 4.10173 0
M  V30 797 H 75.1061 -1.41574 2.9432 0
M  V30 798 H 73.7651 0.608117 3.61521 0
M  V30 799 H 73.4131 -1.57916 4.77568 0
M  V30 800 H 73.1131 -0.20767 5.87233 0
M  V30 801 H 74.6371 -1.13128 6.00029 0
M  V30 802 H 76.0511 1.1089 5.62473 0
M  V30 803 H 74.4481 1.89711 5.69324 0
M  V30 804 H 75.5181 2.21181 4.31517 0
M  V30 805 N 76.8612 -1.46375 0.584142 0
M  V30 806 C 78.1082 -2.02378 0.0702675 0
M  V30 807 C 78.4362 -1.45545 -1.29023 0
M  V30 808 O 77.6912 -0.610967 -1.85918 0
M  V30 809 C 77.9902 -3.57373 -0.0439342 0
M  V30 810 C 77.6562 -4.33252 1.24915 0
M  V30 811 C 76.3182 -4.53701 1.60341 0
M  V30 812 C 78.6702 -4.7681 2.1048 0
M  V30 813 C 75.9982 -5.1496 2.81128 0
M  V30 814 C 78.3502 -5.39404 3.30494 0
M  V30 815 C 77.0142 -5.5808 3.66201 0
M  V30 816 H 76.2842 -0.740554 0.0257127 0
M  V30 817 H 78.9312 -1.75727 0.761065 0
M  V30 818 H 77.2362 -3.83169 -0.817869 0
M  V30 819 H 78.9332 -3.98384 -0.457318 0
M  V30 820 H 75.5232 -4.17633 0.963364 0
M  V30 821 H 79.7072 -4.60766 1.84414 0
M  V30 822 H 74.9632 -5.27611 3.08928 0
M  V30 823 H 79.1372 -5.72114 3.97063 0
M  V30 824 H 76.7642 -6.05318 4.59885 0
M  V30 825 N 78.3393 -0.321999 -1.54275 0
M  V30 826 C 79.7503 0.166384 -1.85957 0
M  V30 827 C 80.1013 1.51747 -1.24367 0
M  V30 828 O 79.2263 2.09317 -0.549124 0
M  V30 829 C 79.8213 0.308681 -3.37391 0
M  V30 830 C 78.3803 0.741286 -3.69028 0
M  V30 831 C 77.5273 -0.137937 -2.76957 0
M  V30 832 H 80.4783 -0.542335 -1.49146 0
M  V30 833 H 80.4993 1.13984 -3.63026 0
M  V30 834 H 80.0113 -0.674809 -3.82188 0
M  V30 835 H 78.1123 1.73458 -3.29762 0
M  V30 836 H 78.2253 0.546118 -4.75977 0
M  V30 837 H 76.5893 0.386251 -2.51754 0
M  V30 838 H 77.3723 -1.11816 -3.2458 0
M  V30 839 N 79.8174 1.5752 -0.0501392 0
M  V30 840 C 81.0424 1.97376 0.636997 0
M  V30 841 C 81.4674 0.927466 1.63645 0
M  V30 842 O 80.8254 -0.10941 1.8097 0
M  V30 843 C 80.8734 3.36304 1.30123 0
M  V30 844 O 79.9774 3.34156 2.41689 0
M  V30 845 H 79.3184 0.642998 0.165679 0
M  V30 846 H 81.8484 2.04258 -0.118233 0
M  V30 847 H 81.8584 3.73008 1.65315 0
M  V30 848 H 80.5334 4.11993 0.568746 0
M  V30 849 H 79.1104 3.09196 2.08451 0
M  V30 850 N 81.2955 -0.223234 1.56011 0
M  V30 851 C 82.2255 -1.27988 1.95298 0
M  V30 852 C 83.2065 -1.48976 0.820979 0
M  V30 853 O 84.3915 -1.61188 1.08315 0
M  V30 854 C 81.5215 -2.63 2.26822 0
M  V30 855 C 80.4755 -2.56671 3.42497 0
M  V30 856 C 79.8015 -3.95697 3.59622 0
M  V30 857 C 81.1015 -2.11601 4.77517 0
M  V30 858 H 82.7955 -0.953525 2.8381 0
M  V30 859 H 80.3415 -0.457244 1.36548 0
M  V30 860 H 82.2945 -3.37077 2.52898 0
M  V30 861 H 81.0185 -2.9732 1.35161 0
M  V30 862 H 79.6775 -1.85051 3.16467 0
M  V30 863 H 79.3255 -4.27322 2.6534 0
M  V30 864 H 79.0255 -3.92345 4.37424 0
M  V30 865 H 80.5495 -4.71438 3.88044 0
M  V30 866 H 81.9635 -2.7542 5.02809 0
M  V30 867 H 80.3605 -2.19311 5.5859 0
M  V30 868 H 81.4305 -1.06824 4.72987 0
M  V30 869 N 82.7736 -1.49793 -0.48987 0
M  V30 870 C 84.0196 -1.60078 -1.24511 0
M  V30 871 C 84.3526 -0.291608 -1.91998 0
M  V30 872 O 83.6276 0.705647 -1.81248 0
M  V30 873 C 83.9106 -2.76791 -2.30345 0
M  V30 874 C 83.7636 -4.17535 -1.67286 0
M  V30 875 C 85.0826 -2.89111 -3.31817 0
M  V30 876 H 82.2016 -0.582645 -0.451324 0
M  V30 877 H 84.8436 -1.82117 -0.541612 0
M  V30 878 H 82.9936 -2.5813 -2.90346 0
M  V30 879 H 84.6656 -4.4774 -1.11026 0
M  V30 880 H 82.9086 -4.22665 -0.976577 0
M  V30 881 H 83.5796 -4.95094 -2.44103 0
M  V30 882 H 86.0556 -3.06133 -2.81819 0
M  V30 883 H 84.9316 -3.72433 -4.03219 0
M  V30 884 H 85.1926 -1.9893 -3.94815 0
M  V30 885 N 84.2517 0.741722 -1.39055 0
M  V30 886 C 85.6627 1.31966 -1.32068 0
M  V30 887 C 86.0137 1.96192 0.0180797 0
M  V30 888 O 85.1387 1.95861 0.920196 0
M  V30 889 C 85.7337 2.39954 -2.39181 0
M  V30 890 C 84.2927 2.93438 -2.35735 0
M  V30 891 C 83.4397 1.66936 -2.21422 0
M  V30 892 H 86.3907 0.539721 -1.4924 0
M  V30 893 H 86.4117 3.20182 -2.05581 0
M  V30 894 H 85.9237 1.9318 -3.36605 0
M  V30 895 H 84.0247 3.4451 -1.41929 0
M  V30 896 H 84.1377 3.4701 -3.30335 0
M  V30 897 H 82.5017 1.91016 -1.68478 0
M  V30 898 H 83.2847 1.22224 -3.20806 0
M  V30 899 N 85.7298 1.2412 0.971189 0
M  V30 900 C 86.9548 1.10667 1.75407 0
M  V30 901 C 87.3798 -0.337048 1.85056 0
M  V30 902 O 86.7378 -1.24396 1.31892 0
M  V30 903 C 86.7858 1.74726 3.15441 0
M  V30 904 O 85.8898 1.01566 3.99697 0
M  V30 905 H 85.2308 0.387341 0.539317 0
M  V30 906 H 87.7608 1.64358 1.2185 0
M  V30 907 H 87.7708 1.80341 3.6598 0
M  V30 908 H 86.4458 2.79773 3.07734 0
M  V30 909 H 85.0228 1.03713 3.58187 0
M  V30 910 N 87.2079 -1.17134 1.05439 0
M  V30 911 C 88.1709 -2.19439 0.661764 0
M  V30 912 C 89.1709 -1.58199 -0.288042 0
M  V30 913 O 90.3609 -1.74053 -0.0715803 0
M  V30 914 C 87.4929 -3.40889 -0.0276209 0
M  V30 915 H 88.6859 -2.55688 1.56728 0
M  V30 916 H 86.2389 -1.31259 0.848567 0
M  V30 917 H 86.9739 -3.10187 -0.94629 0
M  V30 918 H 86.7589 -3.86586 0.655238 0
M  V30 919 H 88.2489 -4.16603 -0.288342 0
M  V30 920 N 88.686 -0.835752 -1.33615 0
M  V30 921 C 89.616 -0.281739 -2.31794 0
M  V30 922 C 90.597 0.608833 -1.58831 0
M  V30 923 O 91.782 0.533035 -1.86741 0
M  V30 924 C 88.912 0.546612 -3.42971 0
M  V30 925 C 87.866 -0.247904 -4.27281 0
M  V30 926 C 87.192 0.704001 -5.30045 0
M  V30 927 C 88.492 -1.46324 -5.01385 0
M  V30 928 H 90.186 -1.10206 -2.78379 0
M  V30 929 H 87.732 -0.531388 -1.33837 0
M  V30 930 H 89.685 0.944467 -4.1068 0
M  V30 931 H 88.409 1.40011 -2.95067 0
M  V30 932 H 87.068 -0.627281 -3.61194 0
M  V30 933 H 86.716 1.55381 -4.78399 0
M  V30 934 H 86.416 0.176524 -5.87335 0
M  V30 935 H 87.94 1.09944 -6.0062 0
M  V30 936 H 89.354 -1.13871 -5.61877 0
M  V30 937 H 87.751 -1.92728 -5.6831 0
M  V30 938 H 88.821 -2.23467 -4.30338 0
M  V30 939 N 90.1641 1.46063 -0.591896 0
M  V30 940 C 91.0941 2.33172 0.123673 0
M  V30 941 C 92.0751 1.45897 0.87453 0
M  V30 942 O 93.2601 1.74698 0.848181 0
M  V30 943 C 90.3901 3.28336 1.13194 0
M  V30 944 C 89.3441 4.25124 0.495324 0
M  V30 945 C 88.6701 5.09863 1.61071 0
M  V30 946 C 89.9701 5.19143 -0.573425 0
M  V30 947 H 91.6641 2.93252 -0.603646 0
M  V30 948 H 89.2101 1.41014 -0.291741 0
M  V30 949 H 91.1631 3.88137 1.64097 0
M  V30 950 H 89.8871 2.66383 1.88965 0
M  V30 951 H 88.5461 3.66599 0.00729452 0
M  V30 952 H 88.1941 4.44288 2.35832 0
M  V30 953 H 87.8941 5.75417 1.19035 0
M  V30 954 H 89.4181 5.72529 2.12233 0
M  V30 955 H 90.8321 5.73106 -0.1491 0
M  V30 956 H 89.2291 5.93089 -0.914636 0
M  V30 957 H 90.2991 4.62519 -1.45617 0
M  V30 958 N 91.6422 0.330177 1.54103 0
M  V30 959 C 92.5522 -0.541534 2.28264 0
M  V30 960 C 93.5682 -1.12351 1.32866 0
M  V30 961 O 94.7442 -1.14206 1.65888 0
M  V30 962 C 91.8092 -1.68322 3.03098 0
M  V30 963 C 90.8702 -1.13238 4.14096 0
M  V30 964 C 90.1032 -2.21966 4.85352 0
M  V30 965 O 90.3262 -3.42437 4.56172 0
M  V30 966 O 89.2602 -1.87013 5.7211 0
M  V30 967 H 93.0862 0.060938 3.03639 0
M  V30 968 H 90.6712 0.09565 1.49093 0
M  V30 969 H 92.5532 -2.34777 3.49939 0
M  V30 970 H 91.2282 -2.27176 2.30593 0
M  V30 971 H 90.1352 -0.432736 3.71589 0
M  V30 972 H 91.4682 -0.588898 4.88664 0
M  V30 973 N 93.1203 -1.57491 0.0584922 0
M  V30 974 C 94.0523 -2.08916 -0.942694 0
M  V30 975 C 95.0653 -1.0185 -1.27006 0
M  V30 976 O 96.2543 -1.29398 -1.22957 0
M  V30 977 C 93.3543 -2.52341 -2.26224 0
M  V30 978 C 92.5273 -3.82827 -2.1157 0
M  V30 979 C 91.5863 -4.12487 -3.26712 0
M  V30 980 O 90.6123 -4.82295 -3.02292 0
M  V30 981 N 91.8143 -3.64978 -4.5141 0
M  V30 982 H 94.5793 -2.95437 -0.503722 0
M  V30 983 H 92.1403 -1.61397 -0.12757 0
M  V30 984 H 94.1323 -2.69254 -3.02133 0
M  V30 985 H 92.7023 -1.7103 -2.61663 0
M  V30 986 H 91.9223 -3.75425 -1.20208 0
M  V30 987 H 93.2103 -4.68263 -1.99015 0
M  V30 988 H 92.6083 -3.08558 -4.7414 0
M  V30 989 H 91.1653 -3.87115 -5.2439 0
M  V30 990 N 94.5984 0.214957 -1.56127 0
M  V30 991 C 95.5614 1.24997 -1.92116 0
M  V30 992 C 96.5614 1.39467 -0.800344 0
M  V30 993 O 97.7514 1.37619 -1.06802 0
M  V30 994 C 94.8834 2.62271 -2.17777 0
M  V30 995 H 96.0764 0.942875 -2.84693 0
M  V30 996 H 93.6294 0.455654 -1.49511 0
M  V30 997 H 94.3644 2.98068 -1.27773 0
M  V30 998 H 94.1494 2.53143 -2.99434 0
M  V30 999 H 95.6394 3.36946 -2.46693 0
M  V30 1000 N 96.0765 1.50051 0.48192 0
M  V30 1001 C 97.3065 1.63999 1.2565 0
M  V30 1002 C 97.7145 0.318288 1.86504 0
M  V30 1003 O 97.0575 -0.708534 1.69486 0
M  V30 1004 C 97.1195 2.66504 2.4128 0
M  V30 1005 C 96.7835 4.10352 2.01148 0
M  V30 1006 C 97.7805 4.96562 1.54021 0
M  V30 1007 C 95.4655 4.56203 2.10199 0
M  V30 1008 C 97.4595 6.26668 1.16473 0
M  V30 1009 C 95.1465 5.86318 1.72264 0
M  V30 1010 C 96.1445 6.71375 1.25477 0
M  V30 1011 O 95.8325 7.99062 0.880626 0
M  V30 1012 H 95.5645 0.55456 0.386574 0
M  V30 1013 H 98.1185 1.96954 0.582944 0
M  V30 1014 H 96.3485 2.28769 3.11772 0
M  V30 1015 H 98.0375 2.69783 3.03268 0
M  V30 1016 H 98.8035 4.62358 1.46458 0
M  V30 1017 H 94.6825 3.90152 2.45566 0
M  V30 1018 H 98.2265 6.93011 0.798841 0
M  V30 1019 H 94.1235 6.20046 1.79482 0
M  V30 1020 H 94.8915 8.12239 1.01043 0
M  V30 1021 N 97.5546 -0.734337 1.39446 0
M  V30 1022 C 98.5176 -1.83004 1.37994 0
M  V30 1023 C 99.5176 -1.58397 0.276938 0
M  V30 1024 O 100.708 -1.65785 0.534875 0
M  V30 1025 C 97.8396 -3.20802 1.1532 0
M  V30 1026 H 99.0326 -1.85694 2.35494 0
M  V30 1027 H 96.5856 -0.938059 1.25021 0
M  V30 1028 H 97.3206 -3.23772 0.185036 0
M  V30 1029 H 97.1056 -3.4006 1.95197 0
M  V30 1030 H 98.5956 -4.00862 1.17046 0
M  V30 1031 N 99.0327 -1.24633 -0.964593 0
M  V30 1032 C 100.279 -1.08949 -1.71049 0
M  V30 1033 C 100.612 0.370302 -1.90637 0
M  V30 1034 O 99.8867 1.27349 -1.47011 0
M  V30 1035 C 100.17 -1.83329 -3.0994 0
M  V30 1036 C 100.023 -3.37077 -2.97824 0
M  V30 1037 C 101.342 -1.60846 -4.09654 0
M  V30 1038 H 98.4607 -0.397178 -0.620821 0
M  V30 1039 H 101.103 -1.5334 -1.12191 0
M  V30 1040 H 99.2527 -1.45597 -3.60186 0
M  V30 1041 H 100.925 -3.84425 -2.5498 0
M  V30 1042 H 99.1677 -3.65298 -2.33965 0
M  V30 1043 H 99.8387 -3.84324 -3.96231 0
M  V30 1044 H 102.315 -1.93674 -3.68279 0
M  V30 1045 H 101.191 -2.1534 -5.04896 0
M  V30 1046 H 101.452 -0.547434 -4.38698 0
M  V30 1047 N 100.511 1.16574 -1.06058 0
M  V30 1048 C 101.443 2.2045 -0.627239 0
M  V30 1049 C 102.456 1.59752 0.313534 0
M  V30 1050 O 103.645 1.78192 0.104896 0
M  V30 1051 C 100.745 3.3875 0.100974 0
M  V30 1052 C 99.9178 4.29008 -0.852687 0
M  V30 1053 C 98.9768 5.25944 -0.164152 0
M  V30 1054 O 98.0028 5.63535 -0.801047 0
M  V30 1055 N 99.2048 5.70075 1.09518 0
M  V30 1056 H 101.97 2.58249 -1.52077 0
M  V30 1057 H 99.5308 1.3156 -0.943594 0
M  V30 1058 H 101.523 4.00638 0.57194 0
M  V30 1059 H 100.093 2.99476 0.89628 0
M  V30 1060 H 99.3128 3.64419 -1.50308 0
M  V30 1061 H 100.601 4.86195 -1.49972 0
M  V30 1062 H 99.9988 5.41624 1.6328 0
M  V30 1063 H 98.5558 6.34067 1.51006 0
M  V30 1064 N 101.989 0.842826 1.3317 0
M  V30 1065 C 102.922 0.223862 2.27099 0
M  V30 1066 C 103.9 -0.631311 1.49844 0
M  V30 1067 O 105.084 -0.590708 1.79005 0
M  V30 1068 C 102.211 -0.685313 3.31694 0
M  V30 1069 C 101.257 0.094919 4.26394 0
M  V30 1070 S 102.09 1.45546 5.15341 0
M  V30 1071 C 103.246 0.551685 6.23464 0
M  V30 1072 H 103.479 1.02015 2.79249 0
M  V30 1073 H 101.012 0.639797 1.4052 0
M  V30 1074 H 102.97 -1.20426 3.92438 0
M  V30 1075 H 101.631 -1.4553 2.78352 0
M  V30 1076 H 100.824 -0.597059 5.00451 0
M  V30 1077 H 100.426 0.545054 3.70007 0
M  V30 1078 H 102.718 -0.248877 6.77043 0
M  V30 1079 H 103.661 1.26253 6.96754 0
M  V30 1080 H 104.069 0.131275 5.64347 0
M  V30 1081 N 103.467 -1.45747 0.599634 0
M  V30 1082 C 104.744 -1.95585 0.0240846 0
M  V30 1083 C 105.124 -1.54217 -1.44154 0
M  V30 1084 O 104.472 -0.800903 -2.14004 0
M  V30 1085 C 104.682 -3.48344 0.21385 0
M  V30 1086 C 106.03 -4.24504 0.0904902 0
M  V30 1087 O 107.054 -3.55911 0.143558 0
M  V30 1088 O 105.913 -5.46491 -0.0310766 0
M  V30 1089 H 103.007 -0.82602 -0.0402478 0
M  V30 1090 H 105.553 -1.55951 0.669139 0
M  V30 1091 H 104.325 -3.71397 1.23206 0
M  V30 1092 H 103.948 -3.9485 -0.466842 0
M  V30 1093 N 104.945 -0.338344 -1.53925 0
M  V30 1094 C 106.192 0.259758 -2.00827 0
M  V30 1095 C 106.52 1.50973 -1.22628 0
M  V30 1096 O 105.775 1.93379 -0.300509 0
M  V30 1097 C 106.074 0.62448 -3.51902 0
M  V30 1098 C 105.74 -0.528006 -4.47798 0
M  V30 1099 C 104.402 -0.844298 -4.73735 0
M  V30 1100 C 106.754 -1.30143 -5.0469 0
M  V30 1101 C 104.082 -1.93648 -5.53821 0
M  V30 1102 C 106.434 -2.38382 -5.85967 0
M  V30 1103 C 105.098 -2.70576 -6.10201 0
M  V30 1104 H 104.368 0.0950523 -0.734878 0
M  V30 1105 H 107.015 -0.465182 -1.85764 0
M  V30 1106 H 105.32 1.43006 -3.64769 0
M  V30 1107 H 107.017 1.09905 -3.85645 0
M  V30 1108 H 103.607 -0.271421 -4.2774 0
M  V30 1109 H 107.791 -1.07033 -4.84621 0
M  V30 1110 H 103.047 -2.19021 -5.70824 0
M  V30 1111 H 107.221 -2.98746 -6.29066 0
M  V30 1112 H 104.848 -3.55333 -6.72044 0
M  V30 1113 N 106.423 1.57458 -0.0668435 0
M  V30 1114 C 107.371 2.13639 0.919851 0
M  V30 1115 C 108.365 1.07204 1.31163 0
M  V30 1116 O 109.571 1.25591 1.28945 0
M  V30 1117 H 105.946 0.683048 0.314562 0
M  V30 1118 H 107.917 2.95415 0.421047 0
M  V30 1119 C 106.666 2.70892 2.17975 0
M  V30 1120 H 105.989 3.5246 1.88711 0
M  V30 1121 H 107.429 3.13803 2.85138 0
M  V30 1122 C 105.888 1.65414 2.93496 0
M  V30 1123 O 106.418 1.07619 3.87015 0
M  V30 1124 N 104.624 1.36564 2.56512 0
M  V30 1125 H 104.171 1.83751 1.80536 0
M  V30 1126 H 104.129 0.66223 3.07347 0
M  V30 1127 N 107.901 -0.206675 1.56239 0
M  V30 1128 C 108.831 -1.25909 1.96645 0
M  V30 1129 C 109.812 -1.48097 0.836734 0
M  V30 1130 O 110.997 -1.6003 1.10019 0
M  V30 1131 C 108.127 -2.6058 2.29599 0
M  V30 1132 C 107.081 -2.53024 3.452 0
M  V30 1133 C 106.407 -3.91861 3.63798 0
M  V30 1134 C 107.707 -2.06524 4.79734 0
M  V30 1135 H 109.401 -0.923369 2.84806 0
M  V30 1136 H 106.947 -0.442735 1.37025 0
M  V30 1137 H 108.9 -3.34375 2.56459 0
M  V30 1138 H 107.624 -2.95869 1.38307 0
M  V30 1139 H 106.283 -1.81684 3.18412 0
M  V30 1140 H 105.931 -4.24483 2.69857 0
M  V30 1141 H 105.631 -3.87683 4.4156 0
M  V30 1142 H 107.155 -4.67296 3.93022 0
M  V30 1143 H 108.569 -2.70072 5.05702 0
M  V30 1144 H 106.966 -2.13374 5.60885 0
M  V30 1145 H 108.036 -1.01802 4.74093 0
M  V30 1146 N 109.379 -1.50304 -0.473955 0
M  V30 1147 C 110.309 -1.71886 -1.58042 0
M  V30 1148 C 111.29 -0.567799 -1.60344 0
M  V30 1149 O 112.475 -0.806623 -1.76656 0
M  V30 1150 C 109.605 -1.81036 -2.96384 0
M  V30 1151 C 108.559 -2.962 -3.08949 0
M  V30 1152 C 107.885 -2.9049 -4.48909 0
M  V30 1153 C 109.185 -4.36752 -2.86434 0
M  V30 1154 H 110.879 -2.64527 -1.40234 0
M  V30 1155 H 108.425 -1.27295 -0.673201 0
M  V30 1156 H 110.378 -1.94719 -3.73714 0
M  V30 1157 H 109.102 -0.850147 -3.15341 0
M  V30 1158 H 107.761 -2.82164 -2.3405 0
M  V30 1159 H 107.409 -1.92321 -4.64781 0
M  V30 1160 H 107.109 -3.67802 -4.58253 0
M  V30 1161 H 108.633 -3.06218 -5.28264 0
M  V30 1162 H 110.047 -4.5133 -3.53517 0
M  V30 1163 H 108.444 -5.15493 -3.07225 0
M  V30 1164 H 109.514 -4.49321 -1.82316 0
M  V30 1165 N 110.857 0.726932 -1.39834 0
M  V30 1166 C 112.103 1.48884 -1.377 0
M  V30 1167 C 112.436 1.94185 0.0244852 0
M  V30 1168 O 111.711 1.67361 0.990986 0
M  V30 1169 C 111.994 2.72288 -2.3565 0
M  V30 1170 C 111.847 2.32956 -3.84775 0
M  V30 1171 C 113.166 3.74414 -2.31306 0
M  V30 1172 H 110.285 0.540062 -0.5015 0
M  V30 1173 H 112.927 0.830547 -1.70886 0
M  V30 1174 H 111.077 3.28457 -2.07481 0
M  V30 1175 H 112.749 1.82356 -4.23726 0
M  V30 1176 H 110.992 1.65088 -4.01159 0
M  V30 1177 H 111.663 3.21362 -4.4881 0
M  V30 1178 H 114.139 3.27849 -2.56231 0
M  V30 1179 H 113.015 4.58414 -3.01907 0
M  V30 1180 H 113.276 4.21909 -1.32081 0
M  V30 1181 N 112.336 1.25143 0.95797 0
M  V30 1182 C 113.613 1.00472 1.67823 0
M  V30 1183 C 113.993 -0.470056 2.058 0
M  V30 1184 O 113.341 -1.44663 1.76875 0
M  V30 1185 C 113.551 1.9372 2.90299 0
M  V30 1186 C 114.899 2.21371 3.62326 0
M  V30 1187 O 115.923 1.91451 3.00375 0
M  V30 1188 O 114.782 2.72231 4.7387 0
M  V30 1189 H 111.876 0.380752 0.734137 0
M  V30 1190 H 114.422 1.36283 1.01119 0
M  V30 1191 H 113.194 2.93316 2.59001 0
M  V30 1192 H 112.817 1.58286 3.64735 0
M  V30 1193 N 113.814 -1.1601 1.06675 0
M  V30 1194 C 114.777 -2.18724 0.685001 0
M  V30 1195 C 115.777 -1.58496 -0.271246 0
M  V30 1196 O 116.967 -1.74119 -0.0531156 0
M  V30 1197 C 114.099 -3.40899 0.00853648 0
M  V30 1198 H 115.292 -2.54011 1.59431 0
M  V30 1199 H 112.845 -1.30352 0.862441 0
M  V30 1200 H 113.58 -3.11173 -0.913337 0
M  V30 1201 H 113.365 -3.8587 0.696204 0
M  V30 1202 H 114.855 -4.16886 -0.24414 0
M  V30 1203 N 115.292 -0.849877 -1.32721 0
M  V30 1204 C 116.538 -0.451591 -1.97708 0
M  V30 1205 C 116.871 0.989175 -1.6712 0
M  V30 1206 O 116.146 1.69334 -0.956891 0
M  V30 1207 C 116.429 -0.685598 -3.53513 0
M  V30 1208 C 116.282 -2.17444 -3.93749 0
M  V30 1209 C 117.601 -0.138874 -4.39881 0
M  V30 1210 H 114.72 -0.16555 -0.718166 0
M  V30 1211 H 117.362 -1.06742 -1.57182 0
M  V30 1212 H 115.512 -0.161416 -3.88165 0
M  V30 1213 H 117.184 -2.76433 -3.693 0
M  V30 1214 H 115.427 -2.65476 -3.43081 0
M  V30 1215 H 116.098 -2.28888 -5.02309 0
M  V30 1216 H 118.574 -0.587068 -4.11938 0
M  V30 1217 H 117.45 -0.332213 -5.47894 0
M  V30 1218 H 117.711 0.95806 -4.31594 0
M  V30 1219 N 116.77 1.45427 -0.607355 0
M  V30 1220 C 117.995 2.07124 -0.107006 0
M  V30 1221 C 118.42 1.44906 1.19933 0
M  V30 1222 O 117.778 0.541687 1.73019 0
M  V30 1223 C 117.826 3.60595 0.0194119 0
M  V30 1224 O 116.93 3.98285 1.0697 0
M  V30 1225 H 116.271 0.659868 -0.0739597 0
M  V30 1226 H 118.801 1.86683 -0.837297 0
M  V30 1227 H 118.811 4.07419 0.2177 0
M  V30 1228 H 117.486 4.05266 -0.934453 0
M  V30 1229 H 116.063 3.63133 0.847889 0
M  V30 1230 N 118.248 0.346503 1.53744 0
M  V30 1231 C 119.18 -0.543316 2.22667 0
M  V30 1232 C 120.193 -1.06159 1.23427 0
M  V30 1233 O 121.382 -0.971235 1.49764 0
M  V30 1234 C 118.482 -1.76076 2.89569 0
M  V30 1235 C 117.655 -1.37727 4.15151 0
M  V30 1236 C 116.714 -2.45471 4.65436 0
M  V30 1237 O 115.74 -2.08655 5.29577 0
M  V30 1238 N 116.942 -3.7677 4.41616 0
M  V30 1239 H 119.707 0.0469703 2.99663 0
M  V30 1240 H 117.268 0.170766 1.60997 0
M  V30 1241 H 119.26 -2.47593 3.20125 0
M  V30 1242 H 117.83 -2.25835 2.16142 0
M  V30 1243 H 117.05 -0.492746 3.91108 0
M  V30 1244 H 118.338 -1.09708 4.96832 0
M  V30 1245 H 117.736 -4.09467 3.90325 0
M  V30 1246 H 116.293 -4.44448 4.7677 0
M  V30 1247 N 119.726 -1.57421 0.075193 0
M  V30 1248 C 120.674 -2.14124 -0.908508 0
M  V30 1249 C 121.668 -1.07898 -1.30592 0
M  V30 1250 O 122.874 -1.26273 -1.28277 0
M  V30 1251 H 119.249 -0.684707 -0.310935 0
M  V30 1252 H 121.22 -2.95634 -0.405374 0
M  V30 1253 C 119.969 -2.72044 -2.16535 0
M  V30 1254 H 119.292 -3.53456 -1.86839 0
M  V30 1255 H 120.732 -3.15311 -2.83469 0
M  V30 1256 C 119.191 -1.66968 -2.92615 0
M  V30 1257 O 119.721 -1.0967 -3.86439 0
M  V30 1258 N 117.927 -1.37923 -2.55784 0
M  V30 1259 H 117.474 -1.84706 -1.79559 0
M  V30 1260 H 117.432 -0.67852 -3.06991 0
M  V30 1261 N 121.204 0.198386 -1.56346 0
M  V30 1262 C 122.167 1.22952 -1.93431 0
M  V30 1263 C 123.167 1.38611 -0.815092 0
M  V30 1264 O 124.357 1.36479 -1.08255 0
M  V30 1265 C 121.489 2.59946 -2.20546 0
M  V30 1266 H 122.682 0.912626 -2.85677 0
M  V30 1267 H 120.235 0.43977 -1.49986 0
M  V30 1268 H 120.97 2.96696 -1.30927 0
M  V30 1269 H 120.755 2.49953 -3.02102 0
M  V30 1270 H 122.245 3.3431 -2.50253 0
M  V30 1271 N 122.682 1.50554 0.465978 0
M  V30 1272 C 123.645 1.69233 1.54574 0
M  V30 1273 C 124.645 0.562901 1.50626 0
M  V30 1274 O 125.835 0.830016 1.53155 0
M  V30 1275 C 122.967 1.7223 2.94193 0
M  V30 1276 H 124.16 2.65571 1.39327 0
M  V30 1277 H 121.713 1.40111 0.692711 0
M  V30 1278 H 122.448 0.77603 3.14878 0
M  V30 1279 H 122.233 2.54285 2.98466 0
M  V30 1280 H 123.723 1.88618 3.72576 0
M  V30 1281 N 124.16 -0.719506 1.40217 0
M  V30 1282 C 125.407 -1.47933 1.38283 0
M  V30 1283 C 125.735 -1.94493 -0.0161536 0
M  V30 1284 O 124.99 -1.68224 -0.999956 0
M  V30 1285 C 125.289 -2.72271 2.31524 0
M  V30 1286 C 124.955 -2.44496 3.78857 0
M  V30 1287 C 123.617 -2.36631 4.18998 0
M  V30 1288 C 125.969 -2.21104 4.71977 0
M  V30 1289 C 123.297 -2.03437 5.503 0
M  V30 1290 C 125.649 -1.89423 6.03574 0
M  V30 1291 C 124.313 -1.80038 6.42762 0
M  V30 1292 H 123.583 -0.541325 0.506012 0
M  V30 1293 H 126.23 -0.824502 1.72842 0
M  V30 1294 H 124.535 -3.42572 1.90137 0
M  V30 1295 H 126.232 -3.30348 2.27313 0
M  V30 1296 H 122.822 -2.51503 3.47051 0
M  V30 1297 H 127.006 -2.26139 4.41786 0
M  V30 1298 H 122.262 -1.94705 5.79569 0
M  V30 1299 H 126.436 -1.70336 6.75247 0
M  V30 1300 H 124.063 -1.54083 7.44421 0
M  V30 1301 N 125.638 -1.25649 -0.95132 0
M  V30 1302 C 126.568 -1.08808 -2.06599 0
M  V30 1303 C 127.549 0.00382547 -1.701 0
M  V30 1304 O 128.734 -0.166325 -1.93486 0
M  V30 1305 C 125.864 -0.709542 -3.39975 0
M  V30 1306 C 124.818 -1.75206 -3.90496 0
M  V30 1307 C 124.144 -1.22811 -5.20405 0
M  V30 1308 C 125.444 -3.15153 -4.16504 0
M  V30 1309 H 127.138 -2.02048 -2.20946 0
M  V30 1310 H 124.684 -0.972835 -1.06169 0
M  V30 1311 H 126.637 -0.578649 -4.17408 0
M  V30 1312 H 125.361 0.258556 -3.25575 0
M  V30 1313 H 124.02 -1.87145 -3.15234 0
M  V30 1314 H 123.668 -0.250145 -5.02378 0
M  V30 1315 H 123.368 -1.92492 -5.55176 0
M  V30 1316 H 124.892 -1.10968 -6.00432 0
M  V30 1317 H 126.306 -3.06349 -4.84586 0
M  V30 1318 H 124.703 -3.82333 -4.62538 0
M  V30 1319 H 125.773 -3.61966 -3.22658 0
M  V30 1320 N 127.117 1.15442 -1.07289 0
M  V30 1321 C 128.027 2.23786 -0.704057 0
M  V30 1322 C 129.043 1.7166 0.284413 0
M  V30 1323 O 130.219 2.00972 0.131205 0
M  V30 1324 C 127.284 3.46535 -0.106792 0
M  V30 1325 C 126.345 4.13654 -1.14842 0
M  V30 1326 C 125.578 5.30544 -0.57956 0
M  V30 1327 O 125.801 5.67187 0.604585 0
M  V30 1328 O 124.735 5.87154 -1.32414 0
M  V30 1329 H 128.561 2.57664 -1.60757 0
M  V30 1330 H 126.146 1.23152 -0.845803 0
M  V30 1331 H 128.028 4.20804 0.224048 0
M  V30 1332 H 126.703 3.14407 0.770049 0
M  V30 1333 H 125.61 3.4131 -1.5316 0
M  V30 1334 H 126.943 4.49861 -1.99714 0
M  V30 1335 N 128.595 0.856903 1.32268 0
M  V30 1336 C 129.527 0.260412 2.27716 0
M  V30 1337 C 130.54 -0.569137 1.52528 0
M  V30 1338 O 131.729 -0.39326 1.74114 0
M  V30 1339 C 128.829 -0.650477 3.32599 0
M  V30 1340 C 128.002 0.14372 4.37164 0
M  V30 1341 C 127.061 -0.69328 5.21613 0
M  V30 1342 O 126.087 -0.12599 5.69061 0
M  V30 1343 N 127.289 -2.00761 5.44679 0
M  V30 1344 H 130.054 1.08059 2.79541 0
M  V30 1345 H 127.615 0.717103 1.45152 0
M  V30 1346 H 129.607 -1.21581 3.86005 0
M  V30 1347 H 128.177 -1.37133 2.80915 0
M  V30 1348 H 127.397 0.890486 3.8401 0
M  V30 1349 H 128.685 0.68915 5.04111 0
M  V30 1350 H 128.083 -2.49181 5.07863 0
M  V30 1351 H 126.64 -2.52103 6.01072 0
M  V30 1352 N 130.073 -1.45103 0.615059 0
M  V30 1353 C 131.301 -2.06553 0.11977 0
M  V30 1354 C 131.716 -1.45842 -1.19898 0
M  V30 1355 O 131.073 -0.575325 -1.73194 0
M  V30 1356 C 131.124 -3.61495 -0.018364 0
M  V30 1357 O 130.845 -4.19942 1.24822 0
M  V30 1358 C 132.346 -4.39947 -0.544237 0
M  V30 1359 H 129.566 -0.667096 0.0722739 0
M  V30 1360 H 132.11 -1.8623 0.84491 0
M  V30 1361 H 130.265 -3.81135 -0.693865 0
M  V30 1362 H 130.679 -5.13204 1.0827 0
M  V30 1363 H 132.153 -5.48838 -0.589953 0
M  V30 1364 H 132.63 -4.10255 -1.56805 0
M  V30 1365 H 133.236 -4.25188 0.0974703 0
M  V30 1366 N 131.551 -0.354651 -1.53558 0
M  V30 1367 C 132.481 0.489091 -2.2832 0
M  V30 1368 C 133.462 1.09324 -1.30316 0
M  V30 1369 O 134.647 1.11255 -1.59173 0
M  V30 1370 C 131.777 1.63456 -3.0643 0
M  V30 1371 C 130.731 1.1582 -4.12031 0
M  V30 1372 C 130.057 2.39305 -4.7816 0
M  V30 1373 C 131.357 0.250731 -5.21698 0
M  V30 1374 H 133.051 -0.134614 -2.99097 0
M  V30 1375 H 130.597 -0.0661826 -1.43848 0
M  V30 1376 H 132.55 2.23136 -3.57475 0
M  V30 1377 H 131.274 2.28533 -2.33325 0
M  V30 1378 H 129.933 0.584146 -3.61916 0
M  V30 1379 H 129.581 3.02814 -4.01637 0
M  V30 1380 H 129.281 2.08109 -5.49513 0
M  V30 1381 H 130.805 2.99691 -5.31994 0
M  V30 1382 H 132.219 0.754695 -5.68311 0
M  V30 1383 H 130.616 0.0301468 -6.00092 0
M  V30 1384 H 131.686 -0.710125 -4.79672 0
M  V30 1385 N 133.029 1.57378 -0.0835403 0
M  V30 1386 C 134.254 1.98682 0.594987 0
M  V30 1387 C 134.679 0.961969 1.61641 0
M  V30 1388 O 134.037 -0.0709989 1.81161 0
M  V30 1389 C 134.085 3.38988 1.2296 0
M  V30 1390 O 133.189 3.39208 2.34546 0
M  V30 1391 H 132.53 0.646368 0.152002 0
M  V30 1392 H 135.06 2.03961 -0.161533 0
M  V30 1393 H 135.07 3.76431 1.57366 0
M  V30 1394 H 133.745 4.13107 0.481228 0
M  V30 1395 H 132.322 3.13548 2.01846 0
M  V30 1396 N 134.507 -0.190092 1.56449 0
M  V30 1397 C 135.732 -0.929864 1.85387 0
M  V30 1398 C 136.157 -1.7585 0.667704 0
M  V30 1399 O 135.515 -1.77198 -0.383459 0
M  V30 1400 C 135.563 -1.79773 3.12593 0
M  V30 1401 O 134.667 -2.89713 2.93496 0
M  V30 1402 H 134.008 -0.261574 0.610307 0
M  V30 1403 H 136.538 -0.193896 2.03679 0
M  V30 1404 H 136.548 -2.20139 3.43515 0
M  V30 1405 H 135.223 -1.18892 3.98544 0
M  V30 1406 H 133.8 -2.53065 2.73884 0
M  V30 1407 N 135.985 -1.50799 -0.457987 0
M  V30 1408 C 137.213 -1.66218 -1.23203 0
M  V30 1409 C 137.628 -0.350894 -1.85511 0
M  V30 1410 O 136.985 0.668546 -1.69814 0
M  V30 1411 C 137.036 -2.76291 -2.33121 0
M  V30 1412 O 136.757 -4.02338 -1.73366 0
M  V30 1413 C 138.258 -3.028 -3.2377 0
M  V30 1414 H 135.478 -0.558361 -0.372121 0
M  V30 1415 H 138.022 -1.97099 -0.545179 0
M  V30 1416 H 136.177 -2.48068 -2.97558 0
M  V30 1417 H 136.591 -4.63312 -2.4585 0
M  V30 1418 H 138.065 -3.8345 -3.97077 0
M  V30 1419 H 138.542 -2.14385 -3.83322 0
M  V30 1420 H 139.148 -3.32604 -2.65056 0
M  V30 1421 N 137.463 0.71206 -1.40597 0
M  V30 1422 C 138.712 1.46754 -1.38369 0
M  V30 1423 C 139.025 1.95598 0.0097839 0
M  V30 1424 O 140.231 2.71059 0.154677 0
M  V30 1425 C 138.687 2.65289 -2.43207 0
M  V30 1426 C 138.295 2.23301 -3.88382 0
M  V30 1427 C 140.039 3.43008 -2.50091 0
M  V30 1428 C 137.946 3.38696 -4.84808 0
M  V30 1429 H 136.876 0.55118 -0.514506 0
M  V30 1430 H 139.527 0.774616 -1.66349 0
M  V30 1431 H 137.909 3.36769 -2.08332 0
M  V30 1432 H 139.083 1.59218 -4.32419 0
M  V30 1433 H 137.398 1.58618 -3.85006 0
M  V30 1434 H 139.995 4.28881 -3.1932 0
M  V30 1435 H 140.338 3.87065 -1.53253 0
M  V30 1436 H 140.871 2.78574 -2.83974 0
M  V30 1437 H 137.61 2.99668 -5.82992 0
M  V30 1438 H 137.13 4.01683 -4.45433 0
M  V30 1439 H 138.809 4.04712 -5.04794 0
M  V30 1440 N 138.941 1.26152 0.944643 0
M  V30 1441 C 139.888 1.07408 2.04285 0
M  V30 1442 C 140.858 -0.0198413 1.66088 0
M  V30 1443 O 142.043 0.139264 1.90291 0
M  V30 1444 C 139.183 0.70945 3.37729 0
M  V30 1445 C 138.296 1.87926 3.88983 0
M  V30 1446 C 137.431 1.45807 5.10797 0
M  V30 1447 C 136.47 2.5964 5.54305 0
M  V30 1448 N 135.607 2.18226 6.67324 0
M  V30 1449 H 140.447 2.01389 2.1965 0
M  V30 1450 H 137.984 1.00275 1.07626 0
M  V30 1451 H 139.942 0.478948 4.14442 0
M  V30 1452 H 138.572 -0.193389 3.2222 0
M  V30 1453 H 137.624 2.22279 3.08701 0
M  V30 1454 H 138.936 2.73377 4.17213 0
M  V30 1455 H 138.09 1.18781 5.94959 0
M  V30 1456 H 136.829 0.574414 4.84305 0
M  V30 1457 H 135.834 2.87399 4.68702 0
M  V30 1458 H 137.059 3.48599 5.828 0
M  V30 1459 H 135.005 1.3229 6.42523 0
M  V30 1460 H 134.922 2.97221 6.95123 0
M  V30 1461 H 136.19 1.94403 7.54869 0
M  V30 1462 N 140.419 -1.14872 1.07899 0
M  V30 1463 C 141.351 -2.19425 0.662231 0
M  V30 1464 C 142.364 -1.60231 -0.288079 0
M  V30 1465 O 143.553 -1.78336 -0.076534 0
M  V30 1466 C 140.653 -3.38867 -0.0470695 0
M  V30 1467 C 139.826 -4.27597 0.920831 0
M  V30 1468 C 138.885 -5.25616 0.247805 0
M  V30 1469 O 137.911 -5.62189 0.890599 0
M  V30 1470 N 139.113 -5.71746 -1.00435 0
M  V30 1471 H 141.878 -2.55797 1.56166 0
M  V30 1472 H 139.439 -1.30042 0.964404 0
M  V30 1473 H 141.431 -4.01497 -0.50813 0
M  V30 1474 H 140.001 -3.00864 -0.848523 0
M  V30 1475 H 139.221 -3.61982 1.56087 0
M  V30 1476 H 140.509 -4.83748 1.57688 0
M  V30 1477 H 139.907 -5.44153 -1.54642 0
M  V30 1478 H 138.464 -6.36389 -1.40899 0
M  V30 1479 N 141.898 -0.863906 -1.31812 0
M  V30 1480 C 143.175 -0.39275 -1.91616 0
M  V30 1481 C 143.555 1.12461 -1.7865 0
M  V30 1482 O 142.903 1.95045 -1.19037 0
M  V30 1483 C 143.113 -0.867385 -3.38049 0
M  V30 1484 C 144.461 -0.889966 -4.15168 0
M  V30 1485 O 145.485 -0.812635 -3.46806 0
M  V30 1486 O 144.344 -1.00079 -5.37258 0
M  V30 1487 H 141.438 -0.116358 -0.818773 0
M  V30 1488 H 143.984 -0.951418 -1.40521 0
M  V30 1489 H 142.756 -1.91081 -3.41473 0
M  V30 1490 H 142.379 -0.286687 -3.96565 0
M  V30 1491 N 143.376 1.44774 -0.622745 0
M  V30 1492 C 144.653 1.95522 -0.0551974 0
M  V30 1493 C 145.033 1.5649 1.41683 0
M  V30 1494 O 144.381 0.834848 2.12703 0
M  V30 1495 C 144.591 3.4796 -0.269242 0
M  V30 1496 C 145.939 4.24306 -0.158014 0
M  V30 1497 O 146.963 3.55637 -0.200162 0
M  V30 1498 O 145.822 5.46471 -0.0558693 0
M  V30 1499 H 142.916 0.826556 0.0271015 0
M  V30 1500 H 145.462 1.54866 -0.693864 0
M  V30 1501 H 144.234 3.6939 -1.29099 0
M  V30 1502 H 143.857 3.95543 0.403966 0
M  V30 1503 N 144.854 0.36279 1.53368 0
M  V30 1504 C 146.101 -0.227776 2.01215 0
M  V30 1505 C 146.429 -1.49003 1.25014 0
M  V30 1506 O 145.684 -1.92876 0.331236 0
M  V30 1507 C 145.983 -0.568417 3.52851 0
M  V30 1508 C 145.649 0.59918 4.46901 0
M  V30 1509 C 144.311 0.919559 4.72332 0
M  V30 1510 C 146.663 1.38156 5.02556 0
M  V30 1511 C 143.991 2.02434 5.5067 0
M  V30 1512 C 146.343 2.47674 5.821 0
M  V30 1513 C 145.007 2.8025 6.05819 0
M  V30 1514 H 144.277 -0.083349 0.736297 0
M  V30 1515 H 146.924 0.494677 1.85001 0
M  V30 1516 H 145.229 -1.37185 3.66998 0
M  V30 1517 H 146.926 -1.03756 3.87344 0
M  V30 1518 H 143.516 0.339437 4.27254 0
M  V30 1519 H 147.7 1.14729 4.82857 0
M  V30 1520 H 142.956 2.28075 5.67267 0
M  V30 1521 H 147.13 3.08716 6.24234 0
M  V30 1522 H 144.757 3.65979 6.66306 0
M  V30 1523 N 146.332 -1.57332 0.0918853 0
M  V30 1524 C 147.56 -1.98574 -0.581048 0
M  V30 1525 C 147.975 -0.970903 -1.61923 0
M  V30 1526 O 147.332 0.0399054 -1.82456 0
M  V30 1527 C 147.383 -3.39872 -1.23164 0
M  V30 1528 O 147.104 -4.37469 -0.234989 0
M  V30 1529 C 148.605 -3.96099 -1.99049 0
M  V30 1530 H 145.825 -0.65261 -0.156018 0
M  V30 1531 H 148.369 -2.0379 0.170225 0
M  V30 1532 H 146.524 -3.35679 -1.93386 0
M  V30 1533 H 146.938 -5.19751 -0.70418 0
M  V30 1534 H 148.412 -4.97127 -2.39934 0
M  V30 1535 H 148.889 -3.3374 -2.85507 0
M  V30 1536 H 149.495 -4.03755 -1.3365 0
M  V30 1537 N 147.81 0.181792 -1.56548 0
M  V30 1538 C 148.773 1.20894 -1.94724 0
M  V30 1539 C 149.773 1.37738 -0.829747 0
M  V30 1540 O 150.963 1.35323 -1.09697 0
M  V30 1541 C 148.095 2.57593 -2.23291 0
M  V30 1542 H 149.288 0.882275 -2.86629 0
M  V30 1543 H 146.841 0.423838 -1.50444 0
M  V30 1544 H 147.576 2.95291 -1.34067 0
M  V30 1545 H 147.361 2.46735 -3.04736 0
M  V30 1546 H 148.851 3.31637 -2.53785 0
M  V30 1547 N 149.288 1.51039 0.449983 0
M  V30 1548 C 150.704 1.38934 0.785462 0
M  V30 1549 C 150.904 0.461817 1.96136 0
M  V30 1550 O 149.96 -0.0877389 2.52348 0
M  V30 1551 C 151.273 2.80724 1.0777 0
M  V30 1552 C 152.821 2.89787 1.1829 0
M  V30 1553 C 153.296 4.32457 1.50815 0
M  V30 1554 N 154.787 4.35505 1.57764 0
M  V30 1555 C 155.522 5.42914 1.84477 0
M  V30 1556 N 155.018 6.60502 2.09068 0
M  V30 1557 N 156.811 5.3038 1.86155 0
M  V30 1558 H 148.962 2.09904 -0.324647 0
M  V30 1559 H 151.225 0.944378 -0.0827957 0
M  V30 1560 H 150.931 3.50531 0.286498 0
M  V30 1561 H 150.805 3.19273 2.00859 0
M  V30 1562 H 153.192 2.20186 1.96474 0
M  V30 1563 H 153.273 2.54752 0.231314 0
M  V30 1564 H 152.917 5.02603 0.731622 0
M  V30 1565 H 152.847 4.64995 2.47158 0
M  V30 1566 H 155.338 3.50724 1.40715 0
M  V30 1567 H 155.651 7.38158 2.28785 0
M  V30 1568 H 153.996 6.63639 2.06416 0
M  V30 1569 H 157.187 4.37505 1.66454 0
M  V30 1570 H 157.36 6.1417 2.06637 0
M  V30 1571 N 150.766 -0.704594 1.40972 0
M  V30 1572 C 151.696 -1.83124 1.44872 0
M  V30 1573 C 152.677 -1.67281 0.30838 0
M  V30 1574 O 153.862 -1.87149 0.518556 0
M  V30 1575 C 150.992 -3.21181 1.32136 0
M  V30 1576 C 149.946 -3.51714 2.43888 0
M  V30 1577 C 149.272 -4.89032 2.16222 0
M  V30 1578 C 150.572 -3.516 3.86232 0
M  V30 1579 H 152.266 -1.80117 2.39161 0
M  V30 1580 H 149.812 -0.865145 1.15114 0
M  V30 1581 H 151.765 -3.99702 1.33479 0
M  V30 1582 H 150.489 -3.24791 0.343279 0
M  V30 1583 H 149.148 -2.75539 2.41813 0
M  V30 1584 H 148.796 -4.89256 1.16778 0
M  V30 1585 H 148.496 -5.10426 2.911 0
M  V30 1586 H 150.02 -5.69873 2.19265 0
M  V30 1587 H 151.434 -4.2014 3.9007 0
M  V30 1588 H 149.831 -3.84523 4.60719 0
M  V30 1589 H 150.901 -2.50757 4.15029 0
M  V30 1590 N 152.244 -1.26651 -0.937939 0
M  V30 1591 C 153.491 -1.12387 -1.6845 0
M  V30 1592 C 153.819 0.332208 -1.91642 0
M  V30 1593 O 153.074 1.2602 -1.49725 0
M  V30 1594 C 153.373 -1.84168 -3.06295 0
M  V30 1595 C 153.039 -3.34056 -3.02849 0
M  V30 1596 C 151.701 -3.74942 -3.01616 0
M  V30 1597 C 154.053 -4.29741 -2.9491 0
M  V30 1598 C 151.381 -5.09894 -2.90215 0
M  V30 1599 C 153.733 -5.64738 -2.8505 0
M  V30 1600 C 152.397 -6.0493 -2.82162 0
M  V30 1601 H 151.667 -0.411252 -0.616403 0
M  V30 1602 H 154.314 -1.57134 -1.09459 0
M  V30 1603 H 152.619 -1.319 -3.6893 0
M  V30 1604 H 154.316 -1.70569 -3.62915 0
M  V30 1605 H 150.906 -3.01534 -3.0459 0
M  V30 1606 H 155.09 -3.99133 -2.94969 0
M  V30 1607 H 150.346 -5.40194 -2.86358 0
M  V30 1608 H 154.52 -6.38561 -2.77872 0
M  V30 1609 H 152.147 -7.09457 -2.73084 0
M  V30 1610 N 153.722 1.14298 -1.08507 0
M  V30 1611 C 154.999 1.81544 -0.728088 0
M  V30 1612 C 155.379 1.95838 0.78808 0
M  V30 1613 O 154.727 1.51904 1.70697 0
M  V30 1614 C 154.937 3.17169 -1.45619 0
M  V30 1615 C 156.285 3.9265 -1.61591 0
M  V30 1616 O 157.309 3.26762 -1.41793 0
M  V30 1617 O 156.168 5.10807 -1.94263 0
M  V30 1618 H 153.262 0.78491 -0.260471 0
M  V30 1619 H 155.808 1.21307 -1.18671 0
M  V30 1620 H 154.58 3.01934 -2.489 0
M  V30 1621 H 154.203 3.851 -0.989124 0
M  V30 1622 N 155.201 0.870884 1.31352 0
M  V30 1623 C 156.45 0.478408 1.95944 0
M  V30 1624 C 156.763 -0.974493 1.69597 0
M  V30 1625 O 157.969 -1.47316 2.28058 0
M  V30 1626 C 156.425 0.804609 3.50791 0
M  V30 1627 C 156.033 2.27433 3.85977 0
M  V30 1628 C 157.777 0.480648 4.2177 0
M  V30 1629 C 155.684 2.5429 5.33939 0
M  V30 1630 H 154.614 0.175175 0.733369 0
M  V30 1631 H 157.265 1.06391 1.4951 0
M  V30 1632 H 155.647 0.148347 3.95722 0
M  V30 1633 H 156.821 2.97373 3.52002 0
M  V30 1634 H 155.136 2.56442 3.28065 0
M  V30 1635 H 157.733 0.658519 5.30629 0
M  V30 1636 H 158.076 -0.578979 4.12254 0
M  V30 1637 H 158.609 1.09349 3.82476 0
M  V30 1638 H 155.348 3.58939 5.48491 0
M  V30 1639 H 154.868 1.88945 5.69263 0
M  V30 1640 H 156.547 2.39066 6.01212 0
M  V30 1641 N 156.679 -1.44442 0.630414 0
M  V30 1642 C 157.629 -2.27794 -0.0968103 0
M  V30 1643 C 158.613 -1.38624 -0.816834 0
M  V30 1644 O 159.805 -1.62438 -0.70306 0
M  V30 1645 C 156.934 -3.25929 -1.07819 0
M  V30 1646 C 156.02 -4.22588 -0.357826 0
M  V30 1647 N 156.411 -5.0207 0.613169 0
M  V30 1648 C 154.709 -4.41914 -0.602365 0
M  V30 1649 C 155.41 -5.72351 1.03871 0
M  V30 1650 N 154.386 -5.42287 0.377642 0
M  V30 1651 H 158.188 -2.86653 0.648621 0
M  V30 1652 H 155.702 -1.55871 0.455862 0
M  V30 1653 H 157.699 -3.84399 -1.61378 0
M  V30 1654 H 156.359 -2.68631 -1.82393 0
M  V30 1655 H 157.37 -5.08331 0.990947 0
M  V30 1656 H 154.047 -3.95714 -1.33103 0
M  V30 1657 H 155.437 -6.4619 1.84086 0
M  V30 1658 N 158.157 -0.370918 -1.53173 0
M  V30 1659 C 159.104 0.473035 -2.259 0
M  V30 1660 C 160.074 1.07311 -1.26781 0
M  V30 1661 O 161.259 1.1046 -1.55574 0
M  V30 1662 C 158.399 1.60405 -3.05556 0
M  V30 1663 C 157.512 1.02863 -4.19575 0
M  V30 1664 C 156.647 2.12918 -4.86661 0
M  V30 1665 C 155.686 1.52869 -5.92704 0
M  V30 1666 N 154.823 2.56779 -6.53459 0
M  V30 1667 H 159.663 -0.153649 -2.97604 0
M  V30 1668 H 157.2 -0.0875946 -1.46839 0
M  V30 1669 H 159.158 2.27034 -3.50016 0
M  V30 1670 H 157.788 2.20131 -2.36097 0
M  V30 1671 H 156.84 0.252465 -3.79561 0
M  V30 1672 H 158.152 0.549642 -4.95762 0
M  V30 1673 H 157.306 2.87356 -5.34333 0
M  V30 1674 H 156.045 2.6417 -4.09958 0
M  V30 1675 H 155.05 0.769479 -5.44389 0
M  V30 1676 H 156.275 1.02435 -6.7133 0
M  V30 1677 H 154.221 3.07235 -5.79606 0
M  V30 1678 H 154.138 2.13583 -7.25202 0
M  V30 1679 H 155.406 3.30903 -7.05779 0
M  V30 1680 N 159.635 1.57281 -0.100228 0
M  V30 1681 C 160.567 2.11342 0.886972 0
M  V30 1682 C 161.58 1.05182 1.24261 0
M  V30 1683 O 162.769 1.32613 1.19483 0
M  V30 1684 C 159.869 2.5825 2.19454 0
M  V30 1685 C 159.042 3.88302 2.01346 0
M  V30 1686 C 158.101 4.21004 3.15661 0
M  V30 1687 O 157.127 4.9014 2.89398 0
M  V30 1688 N 158.329 3.76818 4.41575 0
M  V30 1689 H 161.094 2.96668 0.425216 0
M  V30 1690 H 158.655 1.61678 0.0847334 0
M  V30 1691 H 160.647 2.7717 2.94888 0
M  V30 1692 H 159.217 1.77907 2.57037 0
M  V30 1693 H 158.437 3.7848 1.10212 0
M  V30 1694 H 159.725 4.73375 1.8653 0
M  V30 1695 H 159.123 3.2102 4.65792 0
M  V30 1696 H 157.68 4.00882 5.13942 0
M  V30 1697 N 161.113 -0.173488 1.56642 0
M  V30 1698 C 162.359 -0.891784 1.8214 0
M  V30 1699 C 162.692 -1.8199 0.677736 0
M  V30 1700 O 161.967 -1.91842 -0.320446 0
M  V30 1701 C 162.25 -1.68933 3.18015 0
M  V30 1702 C 162.103 -0.784487 4.42906 0
M  V30 1703 C 163.422 -2.65748 3.50808 0
M  V30 1704 H 160.541 -0.322761 0.662567 0
M  V30 1705 H 163.183 -0.158095 1.89341 0
M  V30 1706 H 161.333 -2.31482 3.12007 0
M  V30 1707 H 163.005 -0.172046 4.60979 0
M  V30 1708 H 161.248 -0.0924117 4.33702 0
M  V30 1709 H 161.919 -1.37799 5.34524 0
M  V30 1710 H 164.395 -2.13327 3.57255 0
M  V30 1711 H 163.271 -3.18619 4.4696 0
M  V30 1712 H 163.532 -3.45842 2.75401 0
M  V30 1713 N 162.591 -1.51276 -0.441967 0
M  V30 1714 C 163.521 -1.752 -1.54361 0
M  V30 1715 C 164.502 -0.601682 -1.59103 0
M  V30 1716 O 165.687 -0.843913 -1.74905 0
M  V30 1717 C 162.817 -1.87282 -2.92477 0
M  V30 1718 C 161.771 -3.02687 -3.02596 0
M  V30 1719 C 161.097 -2.99947 -4.42647 0
M  V30 1720 C 162.397 -4.4273 -2.77106 0
M  V30 1721 H 164.091 -2.67442 -1.34592 0
M  V30 1722 H 161.637 -1.28694 -0.646048 0
M  V30 1723 H 163.59 -2.02602 -3.695 0
M  V30 1724 H 162.314 -0.916844 -3.13467 0
M  V30 1725 H 160.973 -2.87065 -2.28012 0
M  V30 1726 H 160.621 -2.02136 -4.60597 0
M  V30 1727 H 160.321 -3.77439 -4.50348 0
M  V30 1728 H 161.845 -3.17354 -5.2165 0
M  V30 1729 H 163.259 -4.58727 -3.43864 0
M  V30 1730 H 161.656 -5.21893 -2.96222 0
M  V30 1731 H 162.726 -4.53087 -1.72744 0
M  V30 1732 N 164.069 0.697108 -1.41344 0
M  V30 1733 C 165.016 1.81106 -1.43071 0
M  V30 1734 C 165.986 1.63632 -0.285275 0
M  V30 1735 O 167.171 1.84504 -0.486091 0
M  V30 1736 C 164.311 3.18975 -1.31715 0
M  V30 1737 C 163.424 3.47892 -2.56115 0
M  V30 1738 C 162.559 4.75367 -2.37064 0
M  V30 1739 C 161.598 4.97247 -3.56948 0
M  V30 1740 N 160.735 6.15947 -3.36977 0
M  V30 1741 H 165.575 1.78965 -2.38276 0
M  V30 1742 H 163.112 0.873975 -1.18322 0
M  V30 1743 H 165.07 3.98615 -1.23133 0
M  V30 1744 H 163.7 3.20297 -0.401183 0
M  V30 1745 H 162.752 2.62669 -2.75153 0
M  V30 1746 H 164.064 3.59962 -3.45295 0
M  V30 1747 H 163.218 5.63059 -2.25941 0
M  V30 1748 H 161.957 4.65541 -1.45338 0
M  V30 1749 H 160.962 4.08004 -3.68527 0
M  V30 1750 H 162.187 5.08934 -4.49626 0
M  V30 1751 H 160.133 6.07336 -2.47949 0
M  V30 1752 H 160.05 6.28777 -4.19732 0
M  V30 1753 H 161.318 7.06377 -3.29623 0
M  V30 1754 N 165.547 1.27147 0.931209 0
M  V30 1755 C 166.457 1.11372 2.06478 0
M  V30 1756 C 167.473 0.044645 1.73943 0
M  V30 1757 O 168.649 0.250417 1.99837 0
M  V30 1758 C 165.714 0.758838 3.38294 0
M  V30 1759 C 164.775 1.90841 3.84549 0
M  V30 1760 C 164.008 1.57036 5.10074 0
M  V30 1761 O 164.231 0.476645 5.68405 0
M  V30 1762 O 163.165 2.40839 5.51616 0
M  V30 1763 H 166.991 2.06493 2.22698 0
M  V30 1764 H 164.576 1.06301 1.04978 0
M  V30 1765 H 166.458 0.574098 4.17471 0
M  V30 1766 H 165.133 -0.162879 3.2329 0
M  V30 1767 H 164.04 2.14819 3.06274 0
M  V30 1768 H 165.373 2.81021 4.04089 0
M  V30 1769 N 167.025 -1.13721 1.09112 0
M  V30 1770 C 168.273 -1.84559 0.823562 0
M  V30 1771 C 168.594 -1.83754 -0.652658 0
M  V30 1772 O 167.864 -1.29102 -1.47342 0
M  V30 1773 H 166.444 -0.683376 0.301673 0
M  V30 1774 H 169.106 -1.37771 1.37859 0
M  V30 1775 H 168.202 -2.8917 1.17419 0
M  V30 1776 N 168.503 -0.877838 -1.30888 0
M  V30 1777 C 169.752 -0.488793 -1.95688 0
M  V30 1778 C 170.065 0.965485 -1.70111 0
M  V30 1779 O 171.271 1.46104 -2.28836 0
M  V30 1780 C 169.727 -0.823201 -3.50359 0
M  V30 1781 C 169.335 -2.29477 -3.84765 0
M  V30 1782 C 171.079 -0.503009 -4.21509 0
M  V30 1783 C 168.986 -2.57118 -5.32583 0
M  V30 1784 H 167.916 -0.179062 -0.732429 0
M  V30 1785 H 170.567 -1.07183 -1.48943 0
M  V30 1786 H 168.949 -0.169331 -3.95638 0
M  V30 1787 H 170.123 -2.99236 -3.5042 0
M  V30 1788 H 168.438 -2.58178 -3.267 0
M  V30 1789 H 171.035 -0.68665 -5.30273 0
M  V30 1790 H 171.378 0.557109 -4.12555 0
M  V30 1791 H 171.911 -1.11376 -3.8189 0
M  V30 1792 H 168.65 -3.61843 -5.4658 0
M  V30 1793 H 168.17 -1.91961 -5.68253 0
M  V30 1794 H 169.849 -2.42251 -5.99936 0
M  V30 1795 N 169.982 1.44106 -0.638065 0
M  V30 1796 C 170.945 2.29138 0.0531013 0
M  V30 1797 C 171.945 1.41409 0.765506 0
M  V30 1798 O 173.135 1.63206 0.609046 0
M  V30 1799 C 170.267 3.23144 1.08584 0
M  V30 1800 H 171.46 2.91739 -0.694883 0
M  V30 1801 H 169.013 1.51134 -0.398538 0
M  V30 1802 H 169.748 2.65408 1.86357 0
M  V30 1803 H 169.533 3.87804 0.578852 0
M  V30 1804 H 171.023 3.87004 1.56899 0
M  V30 1805 N 171.46 0.379036 1.52974 0
M  V30 1806 C 172.392 -0.495963 2.2377 0
M  V30 1807 C 173.405 -1.03517 1.25651 0
M  V30 1808 O 174.594 -0.939249 1.51791 0
M  V30 1809 C 171.694 -1.69894 2.93239 0
M  V30 1810 C 170.867 -1.2889 4.17979 0
M  V30 1811 C 169.926 -2.35543 4.70538 0
M  V30 1812 O 168.952 -1.97375 5.33883 0
M  V30 1813 N 170.154 -3.67318 4.49508 0
M  V30 1814 H 172.919 0.110523 2.99496 0
M  V30 1815 H 170.48 0.204878 1.60598 0
M  V30 1816 H 172.472 -2.40747 3.25304 0
M  V30 1817 H 171.042 -2.212 2.20883 0
M  V30 1818 H 170.262 -0.409676 3.92065 0
M  V30 1819 H 171.55 -0.991443 4.99047 0
M  V30 1820 H 170.948 -4.01095 3.98923 0
M  V30 1821 H 169.505 -4.34235 4.8609 0
M  V30 1822 N 172.938 -1.57226 0.108567 0
M  V30 1823 C 174.166 -1.99179 -0.559954 0
M  V30 1824 C 174.581 -0.988022 -1.60884 0
M  V30 1825 O 173.938 0.0205512 -1.82488 0
M  V30 1826 C 173.989 -3.41159 -1.19552 0
M  V30 1827 O 173.71 -4.37694 -0.188577 0
M  V30 1828 C 175.211 -3.98188 -1.94837 0
M  V30 1829 H 172.431 -0.654228 -0.149088 0
M  V30 1830 H 174.975 -2.03598 0.19183 0
M  V30 1831 H 173.13 -3.37711 -1.89815 0
M  V30 1832 H 173.544 -5.20469 -0.649014 0
M  V30 1833 H 175.018 -4.99644 -2.34648 0
M  V30 1834 H 175.495 -3.3675 -2.81951 0
M  V30 1835 H 176.101 -4.0515 -1.2936 0
M  V30 1836 N 174.416 0.165178 -1.56732 0
M  V30 1837 C 175.662 0.882112 -1.82611 0
M  V30 1838 C 175.995 1.81628 -0.687378 0
M  V30 1839 O 175.27 1.92009 0.310267 0
M  V30 1840 C 175.553 1.67245 -3.18906 0
M  V30 1841 C 175.406 0.760987 -4.43316 0
M  V30 1842 C 176.725 2.63884 -3.52212 0
M  V30 1843 H 173.844 0.319242 -0.664269 0
M  V30 1844 H 176.486 0.148052 -1.89422 0
M  V30 1845 H 174.636 2.29824 -3.1323 0
M  V30 1846 H 176.308 0.147596 -4.61064 0
M  V30 1847 H 174.551 0.0694102 -4.33744 0
M  V30 1848 H 175.222 1.34962 -5.35247 0
M  V30 1849 H 177.698 2.11429 -3.58381 0
M  V30 1850 H 176.574 3.16245 -4.48643 0
M  V30 1851 H 176.835 3.44377 -2.77231 0
M  V30 1852 N 175.894 1.51508 0.433938 0
M  V30 1853 C 177.141 1.64345 1.18309 0
M  V30 1854 C 177.469 0.361315 1.91115 0
M  V30 1855 O 176.724 -0.654753 1.84422 0
M  V30 1856 C 177.023 2.79928 2.22205 0
M  V30 1857 C 176.689 4.19078 1.66387 0
M  V30 1858 C 175.351 4.56932 1.50887 0
M  V30 1859 C 177.703 5.05894 1.25381 0
M  V30 1860 C 175.031 5.79305 0.928608 0
M  V30 1861 C 177.383 6.2885 0.687823 0
M  V30 1862 C 176.047 6.65473 0.519755 0
M  V30 1863 H 175.317 0.601381 0.432923 0
M  V30 1864 H 177.964 1.85549 0.473676 0
M  V30 1865 H 176.269 2.52959 2.99197 0
M  V30 1866 H 177.966 2.87059 2.79997 0
M  V30 1867 H 174.556 3.89234 1.79428 0
M  V30 1868 H 178.74 4.77253 1.36175 0
M  V30 1869 H 173.996 6.06324 0.786186 0
M  V30 1870 H 178.17 6.95461 0.361581 0
M  V30 1871 H 175.797 7.6017 0.0679979 0
M  V30 1872 N 177.372 -0.689602 1.41712 0
M  V30 1873 C 178.302 -1.81577 1.46806 0
M  V30 1874 C 179.283 -1.66945 0.326105 0
M  V30 1875 O 180.468 -1.86588 0.538377 0
M  V30 1876 C 177.598 -3.19762 1.35535 0
M  V30 1877 C 176.552 -3.49107 2.47605 0
M  V30 1878 C 175.878 -4.86711 2.21397 0
M  V30 1879 C 177.178 -3.47483 3.89939 0
M  V30 1880 H 178.872 -1.7757 2.41058 0
M  V30 1881 H 176.418 -0.852887 1.16025 0
M  V30 1882 H 178.371 -3.98263 1.3771 0
M  V30 1883 H 177.095 -3.24409 0.377708 0
M  V30 1884 H 175.754 -2.72959 2.44722 0
M  V30 1885 H 175.402 -4.8799 1.21961 0
M  V30 1886 H 175.102 -5.0731 2.96497 0
M  V30 1887 H 176.626 -5.67515 2.25297 0
M  V30 1888 H 178.04 -4.1598 3.94505 0
M  V30 1889 H 176.437 -3.79615 4.64771 0
M  V30 1890 H 177.507 -2.46341 4.17665 0
M  V30 1891 N 178.85 -1.27639 -0.924453 0
M  V30 1892 C 180.098 -1.13941 -1.66918 0
M  V30 1893 C 180.419 0.314589 -1.92446 0
M  V30 1894 O 179.689 1.21964 -1.53303 0
M  V30 1895 H 178.269 -0.418678 -0.618642 0
M  V30 1896 H 180.931 -1.60213 -1.10985 0
M  V30 1897 H 180.027 -1.67094 -2.63602 0
M  V30 1898 N 180.328 1.1314 -1.09713 0
M  V30 1899 C 181.258 2.20748 -0.761102 0
M  V30 1900 C 182.239 1.68061 0.262566 0
M  V30 1901 O 183.424 1.93765 0.129977 0
M  V30 1902 C 180.554 3.46812 -0.184054 0
M  V30 1903 C 179.508 4.12606 -1.13757 0
M  V30 1904 C 178.834 5.33031 -0.422083 0
M  V30 1905 C 180.134 4.59603 -2.48118 0
M  V30 1906 H 181.828 2.49113 -1.66082 0
M  V30 1907 H 179.374 1.19734 -0.799987 0
M  V30 1908 H 181.327 4.21353 0.0631215 0
M  V30 1909 H 180.051 3.17851 0.750868 0
M  V30 1910 H 178.71 3.40036 -1.37007 0
M  V30 1911 H 178.358 5.00335 0.517072 0
M  V30 1912 H 178.058 5.77999 -1.05788 0
M  V30 1913 H 179.582 6.10325 -0.183277 0
M  V30 1914 H 180.996 5.25552 -2.29059 0
M  V30 1915 H 179.393 5.15321 -3.07514 0
M  V30 1916 H 180.463 3.73971 -3.08665 0
M  V30 1917 N 181.806 0.884767 1.30421 0
M  V30 1918 C 182.754 0.340869 2.30089 0
M  V30 1919 C 183.748 -0.55201 1.60154 0
M  V30 1920 O 184.954 -0.436467 1.74628 0
M  V30 1921 H 181.329 0.0915739 0.746404 0
M  V30 1922 H 183.3 1.19513 2.73421 0
M  V30 1923 C 182.049 -0.429779 3.45034 0
M  V30 1924 H 181.372 0.248024 3.9903 0
M  V30 1925 H 182.812 -0.775445 4.16849 0
M  V30 1926 C 181.271 -1.62677 2.95022 0
M  V30 1927 O 181.801 -2.72614 2.95033 0
M  V30 1928 N 180.007 -1.46387 2.51036 0
M  V30 1929 H 179.554 -0.569506 2.51226 0
M  V30 1930 H 179.512 -2.26612 2.17932 0
M  V30 1931 N 183.284 -1.43765 0.645699 0
M  V30 1932 C 184.7 -1.56509 0.312591 0
M  V30 1933 C 184.9 -1.6307 -1.18365 0
M  V30 1934 O 183.956 -1.58167 -1.96824 0
M  V30 1935 C 185.269 -2.82968 1.01733 0
M  V30 1936 C 186.817 -2.96701 0.996865 0
M  V30 1937 C 187.292 -4.25982 1.68236 0
M  V30 1938 N 188.783 -4.32829 1.64964 0
M  V30 1939 C 189.518 -5.31613 2.14885 0
M  V30 1940 N 189.014 -6.36718 2.73061 0
M  V30 1941 N 190.807 -5.23217 2.05428 0
M  V30 1942 H 182.958 -1.3775 1.61675 0
M  V30 1943 H 185.221 -0.661067 0.679481 0
M  V30 1944 H 184.927 -2.84156 2.0724 0
M  V30 1945 H 184.801 -3.72957 0.564177 0
M  V30 1946 H 187.188 -2.95058 -0.0497719 0
M  V30 1947 H 187.269 -2.08022 1.48865 0
M  V30 1948 H 186.913 -4.28386 2.72852 0
M  V30 1949 H 186.843 -5.13545 1.16529 0
M  V30 1950 H 189.334 -3.57493 1.22503 0
M  V30 1951 H 189.647 -7.08401 3.08848 0
M  V30 1952 H 187.992 -6.37362 2.77118 0
M  V30 1953 H 191.183 -4.40019 1.59689 0
M  V30 1954 H 191.356 -6.00045 2.44643 0
M  V30 1955 N 184.763 -0.387143 -1.52771 0
M  V30 1956 C 185.988 0.198407 -2.06449 0
M  V30 1957 C 186.413 1.39918 -1.25716 0
M  V30 1958 O 185.771 1.79099 -0.281657 0
M  V30 1959 C 185.819 0.548893 -3.56398 0
M  V30 1960 O 184.923 1.64315 -3.78252 0
M  V30 1961 H 184.264 0.0237731 -0.663574 0
M  V30 1962 H 186.794 -0.553989 -1.96957 0
M  V30 1963 H 186.804 0.813812 -3.99801 0
M  V30 1964 H 185.479 -0.329005 -4.14597 0
M  V30 1965 H 184.056 1.37211 -3.46738 0
M  V30 1966 N 186.241 1.57166 -0.116904 0
M  V30 1967 C 187.518 1.86645 0.585049 0
M  V30 1968 C 187.898 1.0177 1.84949 0
M  V30 1969 O 187.246 0.0960379 2.28298 0
M  V30 1970 C 187.456 3.37736 0.879507 0
M  V30 1971 C 188.804 4.06289 1.23348 0
M  V30 1972 O 189.828 3.42743 0.969836 0
M  V30 1973 O 188.687 5.18455 1.7282 0
M  V30 1974 H 185.781 0.772593 0.295007 0
M  V30 1975 H 188.327 1.69025 -0.151249 0
M  V30 1976 H 187.099 3.91296 -0.0166136 0
M  V30 1977 H 186.722 3.6078 1.67103 0
M  V30 1978 N 187.719 -0.156864 1.56817 0
M  V30 1979 C 188.949 -0.885031 1.86684 0
M  V30 1980 C 189.357 -1.75696 0.701954 0
M  V30 1981 O 188.7 -1.80569 -0.337732 0
M  V30 1982 C 188.762 -1.80092 3.11138 0
M  V30 1983 C 188.426 -1.10714 4.43386 0
M  V30 1984 C 189.423 -0.465714 5.1781 0
M  V30 1985 C 187.108 -1.09959 4.90117 0
M  V30 1986 C 189.102 0.174002 6.37162 0
M  V30 1987 C 186.789 -0.456055 6.09396 0
M  V30 1988 C 187.787 0.179622 6.82764 0
M  V30 1989 O 187.475 0.812975 7.99779 0
M  V30 1990 H 187.207 -0.261813 0.623242 0
M  V30 1991 H 189.761 -0.157383 2.04796 0
M  V30 1992 H 187.991 -2.56926 2.89009 0
M  V30 1993 H 189.68 -2.40018 3.27332 0
M  V30 1994 H 190.446 -0.463427 4.82781 0
M  V30 1995 H 186.325 -1.58378 4.3294 0
M  V30 1996 H 189.869 0.670765 6.94368 0
M  V30 1997 H 185.766 -0.455975 6.43888 0
M  V30 1998 H 186.534 0.71366 8.15383 0
M  V30 1999 N 189.197 -1.51736 -0.425897 0
M  V30 2000 C 190.13 -1.68574 -1.53812 0
M  V30 2001 C 191.108 -0.53328 -1.53606 0
M  V30 2002 O 192.292 -0.758555 -1.72564 0
M  V30 2003 C 189.419 -1.70977 -2.92377 0
M  V30 2004 C 188.465 -2.92324 -3.10563 0
M  V30 2005 S 189.298 -4.52952 -2.85648 0
M  V30 2006 C 190.454 -4.58117 -4.26474 0
M  V30 2007 H 190.687 -2.62647 -1.39298 0
M  V30 2008 H 188.22 -1.41564 -0.616361 0
M  V30 2009 H 190.178 -1.73047 -3.72243 0
M  V30 2010 H 188.839 -0.78061 -3.04245 0
M  V30 2011 H 188.032 -2.90439 -4.11899 0
M  V30 2012 H 187.634 -2.88055 -2.38538 0
M  V30 2013 H 189.926 -4.34462 -5.19855 0
M  V30 2014 H 190.869 -5.59983 -4.33388 0
M  V30 2015 H 191.277 -3.8732 -4.10662 0
M  V30 2016 N 190.675 0.682077 -1.42076 0
M  V30 2017 C 191.922 1.44215 -1.42156 0
M  V30 2018 C 192.25 1.94468 -0.0354186 0
M  V30 2019 O 191.505 1.70816 0.955002 0
M  V30 2020 C 191.804 2.66036 -2.38662 0
M  V30 2021 C 191.47 2.34366 -3.85206 0
M  V30 2022 C 190.132 2.25439 -4.25124 0
M  V30 2023 C 192.484 2.08513 -4.77673 0
M  V30 2024 C 189.812 1.88775 -5.55501 0
M  V30 2025 C 192.164 1.73354 -6.08384 0
M  V30 2026 C 190.828 1.62933 -6.47309 0
M  V30 2027 H 190.098 0.527718 -0.520187 0
M  V30 2028 H 192.745 0.778387 -1.74967 0
M  V30 2029 H 191.05 3.3741 -1.99152 0
M  V30 2030 H 192.747 3.24205 -2.35991 0
M  V30 2031 H 189.337 2.42213 -3.53597 0
M  V30 2032 H 193.521 2.14346 -4.47626 0
M  V30 2033 H 188.777 1.7927 -5.84527 0
M  V30 2034 H 192.951 1.52373 -6.79526 0
M  V30 2035 H 190.578 1.34292 -7.48244 0
M  V30 2036 N 192.153 1.28127 0.917671 0
M  V30 2037 C 193.085 1.07517 2.02417 0
M  V30 2038 C 194.098 0.0281099 1.62776 0
M  V30 2039 O 195.287 0.270748 1.76435 0
M  V30 2040 C 192.387 0.610957 3.33347 0
M  V30 2041 C 191.56 1.73255 4.01624 0
M  V30 2042 C 190.619 1.26238 5.10833 0
M  V30 2043 O 189.645 1.96389 5.34247 0
M  V30 2044 N 190.847 0.123448 5.80369 0
M  V30 2045 H 193.612 2.02806 2.20658 0
M  V30 2046 H 191.173 1.19827 1.08871 0
M  V30 2047 H 193.165 0.280101 4.0373 0
M  V30 2048 H 191.735 -0.24898 3.11607 0
M  V30 2049 H 190.955 2.23319 3.24842 0
M  V30 2050 H 192.243 2.48503 4.43986 0
M  V30 2051 H 191.641 -0.461847 5.63812 0
M  V30 2052 H 190.198 -0.148158 6.51632 0
M  V30 2053 N 193.631 -1.12557 1.10312 0
M  V30 2054 C 195.047 -1.36036 0.834649 0
M  V30 2055 C 195.247 -1.93946 -0.546539 0
M  V30 2056 O 194.303 -2.16484 -1.29966 0
M  V30 2057 C 195.616 -2.30312 1.9333 0
M  V30 2058 C 197.164 -2.43906 1.9616 0
M  V30 2059 C 197.639 -3.41496 3.05195 0
M  V30 2060 N 199.13 -3.49053 3.04494 0
M  V30 2061 C 199.865 -4.24471 3.85502 0
M  V30 2062 N 199.361 -5.02966 4.76442 0
M  V30 2063 N 201.154 -4.19864 3.73725 0
M  V30 2064 H 193.305 -0.733246 1.99342 0
M  V30 2065 H 195.568 -0.385234 0.866198 0
M  V30 2066 H 195.274 -1.94933 2.92735 0
M  V30 2067 H 195.148 -3.30421 1.81939 0
M  V30 2068 H 197.535 -2.78567 0.973886 0
M  V30 2069 H 197.616 -1.4369 2.11629 0
M  V30 2070 H 197.26 -3.07565 4.04186 0
M  V30 2071 H 197.19 -4.41539 2.86968 0
M  V30 2072 H 199.681 -2.93053 2.38596 0
M  V30 2073 H 199.994 -5.57846 5.34815 0
M  V30 2074 H 198.339 -5.02167 4.80472 0
M  V30 2075 H 201.53 -3.57623 3.02032 0
M  V30 2076 H 201.703 -4.78386 4.37093 0
M  V30 2077 N 195.109 -0.891671 -1.2995 0
M  V30 2078 C 196.334 -0.527932 -2.00568 0
M  V30 2079 C 196.759 0.877969 -1.66353 0
M  V30 2080 O 196.117 1.58301 -0.883762 0
M  V30 2081 C 196.165 -0.717745 -3.53385 0
M  V30 2082 O 195.269 0.233376 -4.11739 0
M  V30 2083 H 194.61 -0.20722 -0.630837 0
M  V30 2084 H 197.14 -1.20105 -1.65638 0
M  V30 2085 H 197.15 -0.619307 -4.03272 0
M  V30 2086 H 195.825 -1.74276 -3.77625 0
M  V30 2087 H 194.402 0.0880706 -3.72796 0
M  V30 2088 N 196.587 1.43421 -0.653314 0
M  V30 2089 C 197.55 2.29182 0.0287951 0
M  V30 2090 C 198.55 1.42213 0.750465 0
M  V30 2091 O 199.74 1.63843 0.591701 0
M  V30 2092 C 196.872 3.24278 1.05151 0
M  V30 2093 H 198.065 2.90985 -0.725786 0
M  V30 2094 H 195.618 1.50702 -0.414545 0
M  V30 2095 H 196.353 2.6737 1.83532 0
M  V30 2096 H 196.138 3.88396 0.537687 0
M  V30 2097 H 197.628 3.88647 1.52786 0
M  V30 2098 N 198.065 0.39524 1.52563 0
M  V30 2099 C 199.342 -0.242908 1.94086 0
M  V30 2100 C 199.722 -1.63841 1.33114 0
M  V30 2101 O 199.07 -2.22928 0.501529 0
M  V30 2102 C 199.28 -0.26327 3.48006 0
M  V30 2103 C 200.628 -0.489354 4.21771 0
M  V30 2104 O 201.652 -0.343226 3.54543 0
M  V30 2105 O 200.511 -0.776169 5.4096 0
M  V30 2106 H 197.605 -0.152536 0.812811 0
M  V30 2107 H 200.151 0.450178 1.6362 0
M  V30 2108 H 198.923 0.713985 3.84731 0
M  V30 2109 H 198.546 -1.00103 3.84792 0
M  V30 2110 N 199.544 -1.57102 0.125237 0
M  V30 2111 C 200.792 -1.95021 -0.530198 0
M  V30 2112 C 201.113 -1.00982 -1.66816 0
M  V30 2113 O 200.383 -0.0672693 -1.95784 0
M  V30 2114 H 198.963 -0.720046 -0.198853 0
M  V30 2115 H 201.625 -1.93916 0.19564 0
M  V30 2116 H 200.721 -2.98211 -0.920681 0
M  V30 2117 N 201.022 0.148545 -1.56898 0
M  V30 2118 C 202.247 0.880385 -1.87787 0
M  V30 2119 C 202.672 1.74018 -0.714093 0
M  V30 2120 O 202.03 1.78153 0.336343 0
M  V30 2121 C 202.078 1.71422 -3.17249 0
M  V30 2122 O 201.182 2.8183 -3.01074 0
M  V30 2123 H 200.523 0.245301 -0.617028 0
M  V30 2124 H 203.053 0.139826 -2.04122 0
M  V30 2125 H 203.063 2.10954 -3.49231 0
M  V30 2126 H 201.738 1.08284 -4.01556 0
M  V30 2127 H 200.315 2.45715 -2.80497 0
M  V30 2128 N 202.5 1.5196 0.417844 0
M  V30 2129 C 203.911 1.57851 0.997 0
M  V30 2130 C 204.262 0.413714 1.91789 0
M  V30 2131 O 203.387 -0.467057 2.113 0
M  V30 2132 C 203.982 2.86085 1.81496 0
M  V30 2133 C 202.541 2.94483 2.34428 0
M  V30 2134 C 201.688 2.52707 1.14169 0
M  V30 2135 H 204.639 1.57455 0.198392 0
M  V30 2136 H 204.66 2.70947 2.67148 0
M  V30 2137 H 204.172 3.70842 1.14446 0
M  V30 2138 H 202.273 2.142 3.04875 0
M  V30 2139 H 202.386 3.98546 2.65891 0
M  V30 2140 H 200.75 2.06353 1.49301 0
M  V30 2141 H 201.533 3.39828 0.486999 0
M  V30 2142 N 203.978 -0.674533 1.42435 0
M  V30 2143 C 204.941 -1.76986 1.45632 0
M  V30 2144 C 205.941 -1.5708 0.343871 0
M  V30 2145 O 207.131 -1.63367 0.604709 0
M  V30 2146 C 204.263 -3.15623 1.28822 0
M  V30 2147 H 205.456 -1.75539 2.43158 0
M  V30 2148 H 203.009 -0.884189 1.28887 0
M  V30 2149 H 203.744 -3.22696 0.322193 0
M  V30 2150 H 203.529 -3.31475 2.09444 0
M  V30 2151 H 205.019 -3.95537 1.33942 0
M  V30 2152 N 205.456 -1.28612 -0.910864 0
M  V30 2153 C 206.386 -1.15326 -2.03032 0
M  V30 2154 C 207.367 -0.0502924 -1.70026 0
M  V30 2155 O 208.552 -0.227797 -1.92859 0
M  V30 2156 C 205.682 -0.817343 -3.37545 0
M  V30 2157 C 204.636 -1.8754 -3.84724 0
M  V30 2158 C 203.962 -1.39305 -5.16235 0
M  V30 2159 C 205.262 -3.28244 -4.06267 0
M  V30 2160 H 206.956 -2.08975 -2.14406 0
M  V30 2161 H 204.502 -1.00612 -1.03021 0
M  V30 2162 H 206.455 -0.711151 -4.15356 0
M  V30 2163 H 205.179 0.154846 -3.26233 0
M  V30 2164 H 203.838 -1.97079 -3.09121 0
M  V30 2165 H 203.486 -0.409846 -5.01328 0
M  V30 2166 H 203.186 -2.10057 -5.48771 0
M  V30 2167 H 204.71 -1.30014 -5.96598 0
M  V30 2168 H 206.124 -3.21611 -4.74594 0
M  V30 2169 H 204.521 -3.96855 -4.5014 0
M  V30 2170 H 205.591 -3.72048 -3.10979 0
M  V30 2171 N 206.934 1.1197 -1.10907 0
M  V30 2172 C 207.881 2.17846 -0.762345 0
M  V30 2173 C 208.851 1.63995 0.263599 0
M  V30 2174 O 210.036 1.90273 0.141773 0
M  V30 2175 C 207.176 3.44487 -0.205651 0
M  V30 2176 C 206.289 4.12369 -1.28748 0
M  V30 2177 C 205.424 5.26674 -0.691919 0
M  V30 2178 C 204.463 5.86431 -1.75399 0
M  V30 2179 N 203.6 6.92142 -1.17833 0
M  V30 2180 H 208.44 2.46851 -1.6694 0
M  V30 2181 H 205.977 1.21188 -0.833776 0
M  V30 2182 H 207.935 4.16981 0.135037 0
M  V30 2183 H 206.565 3.15884 0.664613 0
M  V30 2184 H 205.617 3.38003 -1.74522 0
M  V30 2185 H 206.929 4.52844 -2.09125 0
M  V30 2186 H 206.083 6.05953 -0.300963 0
M  V30 2187 H 204.822 4.8749 0.143232 0
M  V30 2188 H 203.827 5.05835 -2.15432 0
M  V30 2189 H 205.052 6.27685 -2.59208 0
M  V30 2190 H 202.998 6.54985 -0.364725 0
M  V30 2191 H 202.915 7.31242 -1.91887 0
M  V30 2192 H 204.183 7.75237 -0.81408 0
M  V30 2193 N 208.412 0.89855 1.29475 0
M  V30 2194 C 209.344 0.332726 2.26772 0
M  V30 2195 C 210.357 -0.520323 1.54261 0
M  V30 2196 O 211.546 -0.337668 1.75277 0
M  V30 2197 C 208.646 -0.544334 3.345 0
M  V30 2198 C 207.819 0.282728 4.36485 0
M  V30 2199 C 206.878 -0.526982 5.23555 0
M  V30 2200 O 205.904 0.0551165 5.69173 0
M  V30 2201 N 207.106 -1.83331 5.5079 0
M  V30 2202 H 209.871 1.16897 2.75962 0
M  V30 2203 H 207.432 0.762919 1.42798 0
M  V30 2204 H 209.424 -1.09239 3.89678 0
M  V30 2205 H 207.994 -1.28127 2.85136 0
M  V30 2206 H 207.214 1.01221 3.80983 0
M  V30 2207 H 208.502 0.84918 5.01664 0
M  V30 2208 H 207.9 -2.32898 5.15534 0
M  V30 2209 H 206.457 -2.32852 6.08788 0
M  V30 2210 N 209.89 -1.43072 0.660911 0
M  V30 2211 C 211.139 -2.00942 0.174735 0
M  V30 2212 C 211.452 -1.52797 -1.22117 0
M  V30 2213 O 212.658 -2.02991 -1.80297 0
M  V30 2214 C 211.114 -3.58948 0.261559 0
M  V30 2215 C 210.722 -4.16085 1.66064 0
M  V30 2216 C 212.466 -4.24173 -0.166617 0
M  V30 2217 C 210.373 -5.6641 1.70098 0
M  V30 2218 H 209.303 -0.751483 0.0615631 0
M  V30 2219 H 211.954 -1.63955 0.824069 0
M  V30 2220 H 210.336 -3.93372 -0.455421 0
M  V30 2221 H 211.51 -3.93147 2.40359 0
M  V30 2222 H 209.825 -3.6326 2.03546 0
M  V30 2223 H 212.422 -5.34471 -0.156433 0
M  V30 2224 H 212.765 -3.98647 -1.19943 0
M  V30 2225 H 213.298 -3.94659 0.498875 0
M  V30 2226 H 210.037 -5.96715 2.71315 0
M  V30 2227 H 209.557 -5.91382 1.00139 0
M  V30 2228 H 211.236 -6.30585 1.44816 0
M  V30 2229 N 211.368 -0.403325 -1.52352 0
M  V30 2230 C 212.278 0.432009 -2.30588 0
M  V30 2231 C 213.294 1.05884 -1.38075 0
M  V30 2232 O 214.47 1.06161 -1.71148 0
M  V30 2233 C 211.535 1.53669 -3.10784 0
M  V30 2234 C 210.596 0.933525 -4.19027 0
M  V30 2235 C 209.829 1.98557 -4.9539 0
M  V30 2236 O 210.052 3.20283 -4.71991 0
M  V30 2237 O 208.986 1.59504 -5.80381 0
M  V30 2238 H 212.812 -0.205739 -3.03002 0
M  V30 2239 H 210.397 -0.166675 -1.48467 0
M  V30 2240 H 212.279 2.17814 -3.60742 0
M  V30 2241 H 210.954 2.15915 -2.41169 0
M  V30 2242 H 209.861 0.254954 -3.7323 0
M  V30 2243 H 211.194 0.35508 -4.90918 0
M  V30 2244 N 212.846 1.57033 -0.133567 0
M  V30 2245 C 214.095 1.94861 0.520768 0
M  V30 2246 C 214.408 1.02012 1.66892 0
M  V30 2247 O 215.614 1.29365 2.38699 0
M  V30 2248 C 214.07 3.46362 0.977809 0
M  V30 2249 C 213.678 4.47773 -0.142674 0
M  V30 2250 C 215.422 3.93083 1.60269 0
M  V30 2251 C 213.329 5.90468 0.331883 0
M  V30 2252 H 212.259 0.727453 0.198315 0
M  V30 2253 H 214.91 1.82227 -0.215759 0
M  V30 2254 H 213.292 3.54282 1.7692 0
M  V30 2255 H 214.466 4.51536 -0.919317 0
M  V30 2256 H 212.781 4.10891 -0.675124 0
M  V30 2257 H 215.378 4.97121 1.96914 0
M  V30 2258 H 215.721 3.33876 2.48662 0
M  V30 2259 H 216.254 3.88025 0.876453 0
M  V30 2260 H 212.993 6.53463 -0.516341 0
M  V30 2261 H 212.513 5.90094 1.07469 0
M  V30 2262 H 214.192 6.42179 0.788332 0
M  V30 2263 N 214.325 -0.140222 1.56975 0
M  V30 2264 C 215.273 -1.19207 1.99731 0
M  V30 2265 C 216.267 -1.44089 0.890777 0
M  V30 2266 O 217.473 -1.44301 1.07597 0
M  V30 2267 H 213.848 -0.40142 0.635898 0
M  V30 2268 H 215.819 -0.804813 2.87342 0
M  V30 2269 C 214.568 -2.51617 2.39967 0
M  V30 2270 H 213.891 -2.33303 3.24669 0
M  V30 2271 H 215.331 -3.23827 2.73701 0
M  V30 2272 C 213.79 -3.12654 1.25496 0
M  V30 2273 O 214.32 -3.97786 0.559371 0
M  V30 2274 N 212.526 -2.72206 1.01746 0
M  V30 2275 H 212.073 -2.03074 1.58489 0
M  V30 2276 H 212.031 -3.13377 0.253461 0
M  V30 2277 N 215.803 -1.52179 -0.40978 0
M  V30 2278 C 217.031 -1.70054 -1.17853 0
M  V30 2279 C 217.446 -0.409735 -1.843 0
M  V30 2280 O 216.803 0.614183 -1.71855 0
M  V30 2281 C 216.854 -2.83568 -2.24213 0
M  V30 2282 O 216.575 -4.0765 -1.60478 0
M  V30 2283 C 218.076 -3.12947 -3.13973 0
M  V30 2284 H 215.296 -0.569917 -0.354169 0
M  V30 2285 H 217.84 -1.98734 -0.482198 0
M  V30 2286 H 215.995 -2.57409 -2.89516 0
M  V30 2287 H 216.409 -4.70899 -2.30986 0
M  V30 2288 H 217.883 -3.95889 -3.84677 0
M  V30 2289 H 218.36 -2.26472 -3.76307 0
M  V30 2290 H 218.966 -3.40868 -2.5434 0
M  V30 2291 N 217.281 0.66697 -1.42791 0
M  V30 2292 C 218.53 1.42278 -1.42968 0
M  V30 2293 C 218.843 1.9553 -0.0524489 0
M  V30 2294 O 220.049 2.71414 0.068363 0
M  V30 2295 C 218.505 2.57418 -2.51524 0
M  V30 2296 C 218.113 2.10832 -3.9529 0
M  V30 2297 C 219.857 3.34878 -2.60877 0
M  V30 2298 C 217.764 3.23101 -4.95338 0
M  V30 2299 H 216.694 0.534533 -0.531781 0
M  V30 2300 H 219.345 0.721302 -1.68729 0
M  V30 2301 H 217.727 3.29971 -2.18941 0
M  V30 2302 H 218.901 1.4538 -4.37266 0
M  V30 2303 H 217.216 1.46289 -3.89857 0
M  V30 2304 H 219.813 4.18505 -3.32802 0
M  V30 2305 H 220.156 3.81993 -1.6549 0
M  V30 2306 H 220.689 2.69398 -2.92693 0
M  V30 2307 H 217.428 2.80969 -5.9223 0
M  V30 2308 H 216.948 3.87309 -4.57987 0
M  V30 2309 H 218.627 3.88447 -5.17415 0
M  V30 2310 N 218.759 1.29093 0.90403 0
M  V30 2311 C 219.984 1.19809 1.69294 0
M  V30 2312 C 220.409 -0.238481 1.86582 0
M  V30 2313 O 219.767 -1.1723 1.383 0
M  V30 2314 C 219.815 1.91202 3.05736 0
M  V30 2315 O 218.919 1.22611 3.93752 0
M  V30 2316 H 218.26 0.415385 0.518027 0
M  V30 2317 H 220.79 1.70586 1.12967 0
M  V30 2318 H 220.8 1.99487 3.55906 0
M  V30 2319 H 219.475 2.95692 2.92471 0
M  V30 2320 H 218.052 1.22554 3.52186 0
M  V30 2321 N 220.237 -1.11381 1.11499 0
M  V30 2322 C 221.2 -2.15622 0.777153 0
M  V30 2323 C 222.2 -1.59504 -0.203779 0
M  V30 2324 O 223.39 -1.74188 0.020782 0
M  V30 2325 C 220.522 -3.40556 0.153116 0
M  V30 2326 H 221.715 -2.47021 1.70061 0
M  V30 2327 H 219.268 -1.26577 0.916952 0
M  V30 2328 H 220.003 -3.14767 -0.780536 0
M  V30 2329 H 219.788 -3.8257 0.859238 0
M  V30 2330 H 221.278 -4.17546 -0.0671044 0
M  V30 2331 N 221.715 -0.905404 -1.28997 0
M  V30 2332 C 222.94 -0.549175 -1.99997 0
M  V30 2333 C 223.365 0.860276 -1.67275 0
M  V30 2334 O 222.723 1.57355 -0.900502 0
M  V30 2335 C 222.771 -0.755185 -3.52604 0
M  V30 2336 O 221.875 0.189692 -4.11964 0
M  V30 2337 H 221.216 -0.213899 -0.628604 0
M  V30 2338 H 223.746 -1.21856 -1.64354 0
M  V30 2339 H 223.756 -0.662045 -4.02593 0
M  V30 2340 H 222.431 -1.78271 -3.75755 0
M  V30 2341 H 221.008 0.0485257 -3.72868 0
M  V30 2342 N 223.193 1.4272 -0.668489 0
M  V30 2343 C 224.44 2.01624 -0.18814 0
M  V30 2344 C 224.768 1.5282 1.20317 0
M  V30 2345 O 224.023 0.718323 1.8204 0
M  V30 2346 C 224.322 3.57021 -0.164499 0
M  V30 2347 C 223.988 4.25232 -1.49962 0
M  V30 2348 C 222.65 4.4358 -1.8652 0
M  V30 2349 C 225.002 4.63727 -2.37921 0
M  V30 2350 C 222.33 4.97694 -3.10674 0
M  V30 2351 C 224.682 5.19218 -3.6138 0
M  V30 2352 C 223.346 5.3578 -3.98115 0
M  V30 2353 H 222.616 0.737795 -0.0688454 0
M  V30 2354 H 225.263 1.70991 -0.862225 0
M  V30 2355 H 223.568 3.87285 0.593079 0
M  V30 2356 H 225.265 4.00372 0.224271 0
M  V30 2357 H 221.855 4.11306 -1.20522 0
M  V30 2358 H 226.039 4.4923 -2.10964 0
M  V30 2359 H 221.295 5.08702 -3.39164 0
M  V30 2360 H 225.469 5.4799 -4.29743 0
M  V30 2361 H 223.096 5.77475 -4.94395 0
M  V30 2362 N 224.671 0.411399 1.52136 0
M  V30 2363 C 225.919 -0.163322 2.01439 0
M  V30 2364 C 226.24 -1.45453 1.29879 0
M  V30 2365 O 225.51 -1.91225 0.4254 0
M  V30 2366 H 224.09 -0.0633447 0.744309 0
M  V30 2367 H 226.752 0.548161 1.87033 0
M  V30 2368 H 225.848 -0.357817 3.10042 0
M  V30 2369 N 226.149 -1.5696 0.141893 0
M  V30 2370 C 227.397 -1.95573 -0.509484 0
M  V30 2371 C 227.718 -1.02746 -1.65736 0
M  V30 2372 O 226.988 -0.0880311 -1.95702 0
M  V30 2373 H 225.568 -0.722115 -0.191205 0
M  V30 2374 H 228.23 -1.93697 0.216196 0
M  V30 2375 H 227.326 -2.99171 -0.889 0
M  V30 2376 N 227.627 0.131896 -1.57047 0
M  V30 2377 C 228.557 1.16384 -2.02428 0
M  V30 2378 C 229.538 1.43936 -0.90644 0
M  V30 2379 O 230.723 1.54599 -1.17528 0
M  V30 2380 C 227.853 2.49328 -2.4177 0
M  V30 2381 C 226.807 2.36266 -3.56879 0
M  V30 2382 C 226.133 3.74057 -3.8208 0
M  V30 2383 C 227.433 1.834 -4.89042 0
M  V30 2384 H 229.127 0.786433 -2.88887 0
M  V30 2385 H 226.673 0.376855 -1.38981 0
M  V30 2386 H 228.626 3.21759 -2.7212 0
M  V30 2387 H 227.35 2.88934 -1.52266 0
M  V30 2388 H 226.009 1.66286 -3.26718 0
M  V30 2389 H 225.657 4.11125 -2.89803 0
M  V30 2390 H 225.357 3.66174 -4.59554 0
M  V30 2391 H 226.881 4.48012 -4.1487 0
M  V30 2392 H 228.295 2.45636 -5.18011 0
M  V30 2393 H 226.692 1.8637 -5.70426 0
M  V30 2394 H 227.762 0.790662 -4.7841 0
M  V30 2395 N 229.106 1.52395 0.401703 0
M  V30 2396 C 230.069 1.75636 1.47257 0
M  V30 2397 C 231.069 0.62628 1.48103 0
M  V30 2398 O 232.259 0.894227 1.49497 0
M  V30 2399 C 229.391 1.84553 2.86624 0
M  V30 2400 H 230.584 2.71241 1.27938 0
M  V30 2401 H 228.137 1.42923 0.632662 0
M  V30 2402 H 228.872 0.908882 3.11303 0
M  V30 2403 H 228.657 2.66715 2.87412 0
M  V30 2404 H 230.147 2.04251 3.64241 0
M  V30 2405 N 230.584 -0.659388 1.43143 0
M  V30 2406 C 231.809 -1.45221 1.48073 0
M  V30 2407 C 232.234 -1.87845 0.097995 0
M  V30 2408 O 231.592 -1.56985 -0.90694 0
M  V30 2409 C 231.64 -2.66748 2.42647 0
M  V30 2410 O 230.744 -3.65583 1.90848 0
M  V30 2411 H 230.085 -0.435669 0.501088 0
M  V30 2412 H 232.615 -0.807432 1.87994 0
M  V30 2413 H 232.625 -3.14637 2.59745 0
M  V30 2414 H 231.3 -2.35067 3.43098 0
M  V30 2415 H 229.877 -3.24693 1.83381 0
M  V30 2416 N 232.062 -1.29571 -0.897171 0
M  V30 2417 C 233.478 -1.07637 -1.17841 0
M  V30 2418 C 233.678 0.170713 -2.00776 0
M  V30 2419 O 232.734 0.867768 -2.3712 0
M  V30 2420 C 234.047 -2.3332 -1.8969 0
M  V30 2421 C 235.595 -2.38664 -2.02505 0
M  V30 2422 C 236.07 -3.64157 -2.77765 0
M  V30 2423 N 237.561 -3.64894 -2.85318 0
M  V30 2424 C 238.296 -4.58679 -3.44094 0
M  V30 2425 N 237.792 -5.62799 -4.04017 0
M  V30 2426 N 239.585 -4.46245 -3.41793 0
M  V30 2427 H 231.736 -2.09598 -0.343883 0
M  V30 2428 H 233.999 -0.923333 -0.214848 0
M  V30 2429 H 233.705 -3.24262 -1.36187 0
M  V30 2430 H 233.579 -2.41025 -2.9015 0
M  V30 2431 H 235.966 -1.48208 -2.55183 0
M  V30 2432 H 236.047 -2.34943 -1.01171 0
M  V30 2433 H 235.691 -4.54965 -2.25763 0
M  V30 2434 H 235.621 -3.65137 -3.7945 0
M  V30 2435 H 238.112 -2.89613 -2.42761 0
M  V30 2436 H 238.425 -6.3048 -4.46895 0
M  V30 2437 H 236.77 -5.66605 -4.02472 0
M  V30 2438 H 239.961 -3.64094 -2.94199 0
M  V30 2439 H 240.134 -5.19518 -3.87304 0
M  V30 2440 N 233.54 1.10788 -1.12088 0
M  V30 2441 C 234.768 1.86461 -0.896651 0
M  V30 2442 C 235.183 1.80492 0.553912 0
M  V30 2443 O 234.54 1.19102 1.38278 0
M  V30 2444 C 234.591 3.35006 -1.35843 0
M  V30 2445 O 234.312 3.40866 -2.75213 0
M  V30 2446 C 235.813 4.27565 -1.1706 0
M  V30 2447 H 233.033 0.589425 -0.320654 0
M  V30 2448 H 235.577 1.40076 -1.48993 0
M  V30 2449 H 233.732 3.7887 -0.808458 0
M  V30 2450 H 234.146 4.33411 -2.9539 0
M  V30 2451 H 235.62 5.30007 -1.54263 0
M  V30 2452 H 236.097 4.3906 -0.110814 0
M  V30 2453 H 236.703 3.89501 -1.70789 0
M  V30 2454 N 235.018 0.912232 1.28515 0
M  V30 2455 C 236.429 0.591352 1.77087 0
M  V30 2456 C 236.78 -0.8933 1.74684 0
M  V30 2457 O 235.905 -1.69876 1.34056 0
M  V30 2458 C 236.5 1.06668 3.2157 0
M  V30 2459 C 235.059 0.79675 3.67871 0
M  V30 2460 C 234.206 1.23427 2.48316 0
M  V30 2461 H 237.157 1.09365 1.15 0
M  V30 2462 H 237.178 0.407455 3.78312 0
M  V30 2463 H 236.69 2.14726 3.23287 0
M  V30 2464 H 234.791 -0.270679 3.71616 0
M  V30 2465 H 234.904 1.40343 4.58084 0
M  V30 2466 H 233.268 0.653036 2.46186 0
M  V30 2467 H 234.051 2.32316 2.52753 0
M  V30 2468 N 236.496 -1.42363 0.676048 0
M  V30 2469 C 237.459 -2.29199 0.00766941 0
M  V30 2470 C 238.459 -1.43389 -0.727745 0
M  V30 2471 O 239.649 -1.64764 -0.56556 0
M  V30 2472 C 236.781 -3.2591 -0.999785 0
M  V30 2473 H 237.974 -2.89794 0.771988 0
M  V30 2474 H 235.527 -1.50024 0.438468 0
M  V30 2475 H 236.262 -2.70256 -1.79255 0
M  V30 2476 H 236.047 -3.89202 -0.475829 0
M  V30 2477 H 237.537 -3.91028 -1.46583 0
M  V30 2478 N 237.974 -0.419461 -1.51915 0
M  V30 2479 C 239.22 0.153166 -2.02221 0
M  V30 2480 C 239.553 1.43907 -1.30401 0
M  V30 2481 O 238.828 1.90055 -0.413438 0
M  V30 2482 C 239.111 0.390291 -3.57979 0
M  V30 2483 C 238.964 -0.913014 -4.40436 0
M  V30 2484 C 240.283 1.16794 -4.2432 0
M  V30 2485 H 237.402 0.0541924 -0.735005 0
M  V30 2486 H 240.044 -0.554955 -1.81715 0
M  V30 2487 H 238.194 0.993491 -3.75582 0
M  V30 2488 H 239.866 -1.54882 -4.34522 0
M  V30 2489 H 238.109 -1.52168 -4.06236 0
M  V30 2490 H 238.78 -0.701361 -5.47526 0
M  V30 2491 H 241.256 0.657161 -4.10878 0
M  V30 2492 H 240.132 1.3026 -5.3322 0
M  V30 2493 H 240.393 2.19132 -3.83971 0
M  V30 2494 N 239.452 1.56882 -0.150215 0
M  V30 2495 C 240.402 2.13501 0.800071 0
M  V30 2496 C 241.386 1.06368 1.20726 0
M  V30 2497 O 242.578 1.32538 1.17314 0
M  V30 2498 C 239.707 2.76271 2.03787 0
M  V30 2499 C 238.793 3.90533 1.65364 0
M  V30 2500 N 239.184 4.96259 0.977794 0
M  V30 2501 C 237.482 4.013 1.94613 0
M  V30 2502 C 238.183 5.76286 0.791794 0
M  V30 2503 N 237.159 5.27163 1.32666 0
M  V30 2504 H 240.961 2.92615 0.274517 0
M  V30 2505 H 238.475 1.62319 0.0512144 0
M  V30 2506 H 240.472 3.15197 2.72867 0
M  V30 2507 H 239.132 1.98631 2.56857 0
M  V30 2508 H 240.143 5.13953 0.638193 0
M  V30 2509 H 236.82 3.3474 2.4951 0
M  V30 2510 H 238.21 6.71401 0.258894 0
M  V30 2511 N 240.93 -0.123565 1.57115 0
M  V30 2512 C 242.346 -0.476961 1.52306 0
M  V30 2513 C 242.546 -1.82109 0.86248 0
M  V30 2514 O 241.602 -2.48586 0.442884 0
M  V30 2515 C 242.915 -0.465661 2.97073 0
M  V30 2516 C 244.463 -0.549534 3.08138 0
M  V30 2517 C 244.938 -0.568669 4.54456 0
M  V30 2518 N 246.429 -0.630237 4.58892 0
M  V30 2519 C 247.164 -0.666415 5.69514 0
M  V30 2520 N 246.66 -0.660514 6.89644 0
M  V30 2521 N 248.453 -0.709077 5.5761 0
M  V30 2522 H 240.604 0.757198 1.98445 0
M  V30 2523 H 242.867 0.278808 0.906074 0
M  V30 2524 H 242.573 0.454232 3.48754 0
M  V30 2525 H 242.447 -1.29513 3.54269 0
M  V30 2526 H 244.834 -1.45985 2.56461 0
M  V30 2527 H 244.915 0.307532 2.53945 0
M  V30 2528 H 244.559 0.337581 5.06777 0
M  V30 2529 H 244.489 -1.44256 5.06456 0
M  V30 2530 H 246.98 -0.641146 3.72421 0
M  V30 2531 H 247.293 -0.690616 7.69708 0
M  V30 2532 H 245.638 -0.628012 6.92157 0
M  V30 2533 H 248.829 -0.711019 4.62668 0
M  V30 2534 H 249.002 -0.733804 6.43832 0
M  V30 2535 N 242.408 -1.52605 -0.393616 0
M  V30 2536 C 243.358 -1.73436 -1.48 0
M  V30 2537 C 244.342 -0.588386 -1.49756 0
M  V30 2538 O 245.534 -0.846047 -1.5547 0
M  V30 2539 C 242.663 -1.90247 -2.85764 0
M  V30 2540 C 241.749 -3.10763 -2.88595 0
M  V30 2541 N 242.14 -4.33196 -2.61103 0
M  V30 2542 C 240.438 -3.10914 -3.19763 0
M  V30 2543 C 241.139 -5.1477 -2.70899 0
M  V30 2544 N 240.115 -4.50356 -3.04435 0
M  V30 2545 H 243.917 -2.65727 -1.25563 0
M  V30 2546 H 241.431 -1.5085 -0.601513 0
M  V30 2547 H 243.428 -2.03291 -3.63976 0
M  V30 2548 H 242.088 -0.991663 -3.09186 0
M  V30 2549 H 243.099 -4.61408 -2.35209 0
M  V30 2550 H 239.776 -2.29626 -3.4868 0
M  V30 2551 H 241.166 -6.22355 -2.53227 0
M  V30 2552 N 243.887 0.651787 -1.4349 0
M  V30 2553 C 245.133 1.41376 -1.45398 0
M  V30 2554 C 245.466 1.94041 -0.0784823 0
M  V30 2555 O 244.741 1.72379 0.900878 0
M  V30 2556 C 245.024 2.59414 -2.49752 0
M  V30 2557 C 244.877 2.12232 -3.96582 0
M  V30 2558 C 246.196 3.61626 -2.50827 0
M  V30 2559 H 243.315 0.512719 -0.529422 0
M  V30 2560 H 245.957 0.738796 -1.75048 0
M  V30 2561 H 244.107 3.16997 -2.246 0
M  V30 2562 H 245.779 1.59639 -4.32797 0
M  V30 2563 H 244.022 1.43592 -4.09346 0
M  V30 2564 H 244.693 2.9712 -4.65214 0
M  V30 2565 H 247.169 3.13805 -2.7325 0
M  V30 2566 H 246.045 4.41766 -3.25783 0
M  V30 2567 H 246.306 4.14314 -1.5426 0
M  V30 2568 N 245.365 1.30045 0.890287 0
M  V30 2569 C 246.295 1.18541 2.01172 0
M  V30 2570 C 247.276 0.0773356 1.69924 0
M  V30 2571 O 248.461 0.25845 1.92473 0
M  V30 2572 C 245.591 0.870941 3.36202 0
M  V30 2573 C 244.545 1.93637 3.81692 0
M  V30 2574 C 243.871 1.475 5.13953 0
M  V30 2575 C 245.171 3.34666 4.00994 0
M  V30 2576 H 246.865 2.12359 2.11054 0
M  V30 2577 H 244.411 1.02238 1.01407 0
M  V30 2578 H 246.364 0.777141 4.14172 0
M  V30 2579 H 245.088 -0.102926 3.26438 0
M  V30 2580 H 243.747 2.01972 3.05946 0
M  V30 2581 H 243.395 0.489551 5.00612 0
M  V30 2582 H 243.095 2.1876 5.4536 0
M  V30 2583 H 244.619 1.39489 5.94454 0
M  V30 2584 H 246.033 3.2912 4.69417 0
M  V30 2585 H 244.43 4.03966 4.43769 0
M  V30 2586 H 245.5 3.76949 3.05021 0
M  V30 2587 N 246.843 -1.10192 1.12674 0
M  V30 2588 C 248.068 -1.86523 0.906853 0
M  V30 2589 C 248.493 -1.80221 -0.538711 0
M  V30 2590 O 247.851 -1.17396 -1.38158 0
M  V30 2591 C 247.899 -3.32758 1.3894 0
M  V30 2592 O 247.003 -4.08449 0.5695 0
M  V30 2593 H 246.344 -0.578678 0.325619 0
M  V30 2594 H 248.874 -1.39203 1.49946 0
M  V30 2595 H 248.884 -3.83608 1.38958 0
M  V30 2596 H 247.559 -3.36661 2.44197 0
M  V30 2597 H 246.136 -3.67427 0.636528 0
M  V30 2598 N 248.321 -0.919034 -1.28029 0
M  V30 2599 C 249.567 -0.555757 -1.95036 0
M  V30 2600 C 249.9 0.899198 -1.72128 0
M  V30 2601 O 249.175 1.64023 -1.04531 0
M  V30 2602 C 249.458 -0.872024 -3.49382 0
M  V30 2603 C 249.311 -2.3801 -3.81669 0
M  V30 2604 C 250.63 -0.37185 -4.38526 0
M  V30 2605 H 247.749 -0.203386 -0.708381 0
M  V30 2606 H 250.391 -1.14924 -1.51303 0
M  V30 2607 H 248.541 -0.366946 -3.86763 0
M  V30 2608 H 250.213 -2.9562 -3.54128 0
M  V30 2609 H 248.456 -2.83289 -3.28526 0
M  V30 2610 H 249.127 -2.55192 -4.8947 0
M  V30 2611 H 251.603 -0.804602 -4.08247 0
M  V30 2612 H 250.479 -0.622173 -5.45362 0
M  V30 2613 H 250.74 0.727934 -4.36066 0
M  V30 2614 N 249.799 1.42003 -0.683588 0
M  V30 2615 C 250.729 2.33487 -0.024866 0
M  V30 2616 C 251.71 1.51163 0.779975 0
M  V30 2617 O 252.895 1.79739 0.735362 0
M  V30 2618 C 250.025 3.3487 0.920836 0
M  V30 2619 C 248.979 4.27414 0.223958 0
M  V30 2620 C 248.305 5.19074 1.2832 0
M  V30 2621 C 249.605 5.14445 -0.90242 0
M  V30 2622 H 251.299 2.88819 -0.788921 0
M  V30 2623 H 248.845 1.38873 -0.38083 0
M  V30 2624 H 250.798 3.97787 1.39081 0
M  V30 2625 H 249.522 2.77861 1.71642 0
M  V30 2626 H 248.181 3.65904 -0.225864 0
M  V30 2627 H 247.829 4.58387 2.071 0
M  V30 2628 H 247.529 5.81822 0.821995 0
M  V30 2629 H 249.053 5.84867 1.75392 0
M  V30 2630 H 250.467 5.70998 -0.513272 0
M  V30 2631 H 248.864 5.86072 -1.28997 0
M  V30 2632 H 249.934 4.52322 -1.74737 0
M  V30 2633 N 251.277 0.427512 1.51691 0
M  V30 2634 C 252.502 -0.143601 2.06902 0
M  V30 2635 C 252.927 -1.36536 1.29382 0
M  V30 2636 O 252.285 -1.78289 0.329043 0
M  V30 2637 C 252.333 -0.454207 3.57728 0
M  V30 2638 O 251.437 -1.54228 3.82475 0
M  V30 2639 H 250.778 -0.00617128 0.663971 0
M  V30 2640 H 253.308 0.606014 1.95419 0
M  V30 2641 H 253.318 -0.707525 4.01818 0
M  V30 2642 H 251.993 0.438812 4.13579 0
M  V30 2643 H 250.57 -1.2797 3.50254 0
M  V30 2644 N 252.755 -1.56801 0.158532 0
M  V30 2645 C 253.702 -2.17337 -0.776729 0
M  V30 2646 C 254.672 -1.1096 -1.23601 0
M  V30 2647 O 255.857 -1.39054 -1.30647 0
M  V30 2648 C 252.997 -2.80822 -2.00582 0
M  V30 2649 C 252.11 -4.01624 -1.59129 0
M  V30 2650 C 251.245 -4.53072 -2.77306 0
M  V30 2651 C 250.284 -5.66314 -2.32282 0
M  V30 2652 N 249.421 -6.12329 -3.43508 0
M  V30 2653 H 254.261 -2.96918 -0.253701 0
M  V30 2654 H 251.798 -1.46661 -0.113504 0
M  V30 2655 H 253.756 -3.15779 -2.72652 0
M  V30 2656 H 252.386 -2.03866 -2.50277 0
M  V30 2657 H 251.438 -3.72571 -0.767806 0
M  V30 2658 H 252.75 -4.83633 -1.2207 0
M  V30 2659 H 251.904 -4.90145 -3.57551 0
M  V30 2660 H 250.643 -3.70095 -3.17617 0
M  V30 2661 H 249.648 -5.28806 -1.5048 0
M  V30 2662 H 250.873 -6.51085 -1.93043 0
M  V30 2663 H 248.819 -5.32284 -3.83418 0
M  V30 2664 H 248.736 -6.89293 -3.105 0
M  V30 2665 H 250.004 -6.5405 -4.24075 0
M  V30 2666 N 254.233 0.115231 -1.57178 0
M  V30 2667 C 255.461 0.836437 -1.89239 0
M  V30 2668 C 255.876 1.73256 -0.750175 0
M  V30 2669 O 255.233 1.80357 0.278832 0
M  V30 2670 C 255.284 1.66671 -3.20785 0
M  V30 2671 O 255.005 0.806652 -4.3061 0
M  V30 2672 C 256.506 2.49274 -3.66575 0
M  V30 2673 H 253.726 0.240253 -0.626514 0
M  V30 2674 H 256.27 0.0984932 -2.04263 0
M  V30 2675 H 254.425 2.35737 -3.0742 0
M  V30 2676 H 254.839 1.37969 -5.06028 0
M  V30 2677 H 256.313 3.03055 -4.6137 0
M  V30 2678 H 256.79 3.26807 -2.93417 0
M  V30 2679 H 257.396 1.85443 -3.82741 0
M  V30 2680 N 255.711 1.52812 0.385517 0
M  V30 2681 C 256.658 1.77838 1.47113 0
M  V30 2682 C 257.628 0.621757 1.54024 0
M  V30 2683 O 258.813 0.861846 1.70226 0
M  V30 2684 C 255.953 1.95618 2.84302 0
M  V30 2685 C 255.066 3.23316 2.86515 0
M  V30 2686 C 254.201 3.31394 4.15152 0
M  V30 2687 C 253.24 4.53201 4.1143 0
M  V30 2688 N 252.377 4.58542 5.3168 0
M  V30 2689 H 257.217 2.70482 1.25073 0
M  V30 2690 H 254.754 1.34006 0.606692 0
M  V30 2691 H 256.712 2.03912 3.63972 0
M  V30 2692 H 255.342 1.06331 3.04784 0
M  V30 2693 H 254.394 3.24076 1.99195 0
M  V30 2694 H 255.706 4.13045 2.79634 0
M  V30 2695 H 254.86 3.3889 5.03228 0
M  V30 2696 H 253.599 2.39645 4.24761 0
M  V30 2697 H 252.604 4.45827 3.21742 0
M  V30 2698 H 253.829 5.46271 4.03442 0
M  V30 2699 H 251.775 3.69686 5.41912 0
M  V30 2700 H 251.692 5.42148 5.26889 0
M  V30 2701 H 252.96 4.70296 6.21644 0
M  V30 2702 N 257.189 -0.644168 1.43834 0
M  V30 2703 C 258.099 -1.78563 1.52159 0
M  V30 2704 C 259.115 -1.69147 0.408069 0
M  V30 2705 O 260.291 -1.90156 0.663524 0
M  V30 2706 C 257.356 -3.14888 1.45073 0
M  V30 2707 C 256.417 -3.36034 2.6717 0
M  V30 2708 C 255.65 -4.65855 2.60413 0
M  V30 2709 O 255.873 -5.45805 1.65689 0
M  V30 2710 O 254.807 -4.88918 3.5106 0
M  V30 2711 H 258.633 -1.74494 2.48567 0
M  V30 2712 H 256.218 -0.80378 1.25935 0
M  V30 2713 H 258.1 -3.96179 1.43597 0
M  V30 2714 H 256.775 -3.19528 0.518037 0
M  V30 2715 H 255.682 -2.54472 2.74217 0
M  V30 2716 H 257.015 -3.36247 3.59442 0
M  V30 2717 N 258.668 -1.30515 -0.883378 0
M  V30 2718 C 259.631 -1.1701 -1.97082 0
M  V30 2719 C 260.631 -0.10089 -1.60483 0
M  V30 2720 O 261.821 -0.349127 -1.70666 0
M  V30 2721 C 258.953 -0.793045 -3.31547 0
M  V30 2722 H 260.146 -2.13622 -2.10489 0
M  V30 2723 H 257.699 -1.13935 -1.06998 0
M  V30 2724 H 258.434 0.172499 -3.23841 0
M  V30 2725 H 258.219 -1.56576 -3.5948 0
M  V30 2726 H 259.709 -0.722073 -4.1131 0
M  V30 2727 N 260.146 1.09593 -1.13257 0
M  V30 2728 C 261.394 1.81375 -0.891492 0
M  V30 2729 C 261.715 1.86049 0.584009 0
M  V30 2730 O 260.985 1.34481 1.42449 0
M  V30 2731 H 259.565 0.671708 -0.326828 0
M  V30 2732 H 262.227 1.3256 -1.42877 0
M  V30 2733 H 261.323 2.84612 -1.28071 0
M  V30 2734 N 261.624 0.925811 1.2754 0
M  V30 2735 C 262.571 0.422045 2.26908 0
M  V30 2736 C 263.541 -0.510029 1.58076 0
M  V30 2737 O 264.726 -0.429599 1.85901 0
M  V30 2738 C 261.866 -0.320837 3.43605 0
M  V30 2739 C 260.979 0.64513 4.27156 0
M  V30 2740 C 260.114 -0.117405 5.3107 0
M  V30 2741 C 259.153 0.841391 6.0629 0
M  V30 2742 N 258.29 0.111604 7.02011 0
M  V30 2743 H 263.13 1.27441 2.69375 0
M  V30 2744 H 260.667 0.639697 1.32462 0
M  V30 2745 H 262.625 -0.76785 4.10073 0
M  V30 2746 H 261.255 -1.13745 3.02096 0
M  V30 2747 H 260.307 1.21067 3.6062 0
M  V30 2748 H 261.619 1.37797 4.79389 0
M  V30 2749 H 260.773 -0.624422 6.03478 0
M  V30 2750 H 259.512 -0.883219 4.79636 0
M  V30 2751 H 258.517 1.35967 5.32722 0
M  V30 2752 H 259.742 1.60696 6.59813 0
M  V30 2753 H 257.688 -0.635999 6.5291 0
M  V30 2754 H 257.605 0.784044 7.51923 0
M  V30 2755 H 258.873 -0.374823 7.78598 0
M  V30 2756 N 263.102 -1.41638 0.69111 0
M  V30 2757 C 264.351 -2.00526 0.217318 0
M  V30 2758 C 264.664 -1.55353 -1.18848 0
M  V30 2759 O 265.87 -2.06769 -1.75951 0
M  V30 2760 C 264.326 -3.58313 0.337639 0
M  V30 2761 C 263.934 -4.12469 1.74852 0
M  V30 2762 C 265.678 -4.24431 -0.0766066 0
M  V30 2763 C 263.585 -5.62675 1.82074 0
M  V30 2764 H 262.515 -0.750008 0.0774893 0
M  V30 2765 H 265.166 -1.6217 0.858661 0
M  V30 2766 H 263.548 -3.9425 -0.371879 0
M  V30 2767 H 264.722 -3.8796 2.48644 0
M  V30 2768 H 263.037 -3.58861 2.11205 0
M  V30 2769 H 265.634 -5.34683 -0.0430284 0
M  V30 2770 H 265.977 -4.01101 -1.1146 0
M  V30 2771 H 266.51 -3.93512 0.582476 0
M  V30 2772 H 263.249 -5.90826 2.83911 0
M  V30 2773 H 262.769 -5.89124 1.12661 0
M  V30 2774 H 264.448 -6.27371 1.58159 0
M  V30 2775 N 264.58 -0.43555 -1.51462 0
M  V30 2776 C 265.51 0.367376 -2.30592 0
M  V30 2777 C 266.491 1.02263 -1.35928 0
M  V30 2778 O 267.676 1.02661 -1.64847 0
M  V30 2779 C 264.806 1.46983 -3.14664 0
M  V30 2780 C 263.76 0.938161 -4.17591 0
M  V30 2781 C 263.086 2.13622 -4.90173 0
M  V30 2782 C 264.386 -0.0261621 -5.22293 0
M  V30 2783 H 266.08 -0.292969 -2.97963 0
M  V30 2784 H 263.626 -0.14234 -1.43295 0
M  V30 2785 H 265.579 2.03873 -3.688 0
M  V30 2786 H 264.303 2.15843 -2.4511 0
M  V30 2787 H 262.962 0.391481 -3.64504 0
M  V30 2788 H 262.61 2.81098 -4.17124 0
M  V30 2789 H 262.31 1.78688 -5.59772 0
M  V30 2790 H 263.834 2.7107 -5.47132 0
M  V30 2791 H 265.248 0.452384 -5.71512 0
M  V30 2792 H 263.645 -0.287992 -5.99409 0
M  V30 2793 H 264.715 -0.963391 -4.75233 0
M  V30 2794 N 266.058 1.56714 -0.166846 0
M  V30 2795 C 267.283 2.01557 0.488833 0
M  V30 2796 C 267.708 1.0463 1.56314 0
M  V30 2797 O 267.066 0.0251304 1.81283 0
M  V30 2798 C 267.114 3.4503 1.04818 0
M  V30 2799 O 266.218 3.51163 2.16236 0
M  V30 2800 H 265.559 0.653516 0.117526 0
M  V30 2801 H 268.089 2.02818 -0.269421 0
M  V30 2802 H 268.099 3.84243 1.37191 0
M  V30 2803 H 266.774 4.15077 0.261572 0
M  V30 2804 H 265.351 3.23807 1.84942 0
M  V30 2805 N 267.536 -0.106894 1.57237 0
M  V30 2806 C 268.484 -1.14944 2.02215 0
M  V30 2807 C 269.478 -1.42167 0.92114 0
M  V30 2808 O 270.684 -1.41987 1.10634 0
M  V30 2809 H 267.059 -0.387841 0.64427 0
M  V30 2810 H 269.03 -0.743683 2.88984 0
M  V30 2811 C 267.779 -2.4647 2.4525 0
M  V30 2812 H 267.102 -2.26363 3.29545 0
M  V30 2813 H 268.542 -3.17948 2.80508 0
M  V30 2814 C 267.001 -3.09921 1.321 0
M  V30 2815 O 267.531 -3.9651 0.643622 0
M  V30 2816 N 265.737 -2.69986 1.07497 0
M  V30 2817 H 265.284 -1.99667 1.62761 0
M  V30 2818 H 265.242 -3.12769 0.319876 0
M  V30 2819 N 269.014 -1.53014 -0.377408 0
M  V30 2820 C 269.962 -1.7927 -1.48206 0
M  V30 2821 C 270.956 -0.661195 -1.55963 0
M  V30 2822 O 272.162 -0.843908 -1.58991 0
M  V30 2823 H 268.537 -0.567425 -0.493491 0
M  V30 2824 H 270.508 -2.71753 -1.2326 0
M  V30 2825 C 269.257 -1.98894 -2.85196 0
M  V30 2826 H 268.58 -2.85395 -2.79981 0
M  V30 2827 H 270.02 -2.21249 -3.61698 0
M  V30 2828 C 268.479 -0.764691 -3.28107 0
M  V30 2829 O 269.009 0.0523226 -4.01666 0
M  V30 2830 N 267.215 -0.591493 -2.84517 0
M  V30 2831 H 266.762 -1.25749 -2.24822 0
M  V30 2832 H 266.72 0.226253 -3.13585 0
M  V30 2833 N 270.492 0.636531 -1.44174 0
M  V30 2834 C 271.903 1.21806 -1.41493 0
M  V30 2835 C 272.254 1.95785 -0.1275 0
M  V30 2836 O 271.379 2.02147 0.772376 0
M  V30 2837 C 271.974 2.21551 -2.56321 0
M  V30 2838 C 270.533 2.75143 -2.56853 0
M  V30 2839 C 269.68 1.50052 -2.33195 0
M  V30 2840 H 272.631 0.427531 -1.52833 0
M  V30 2841 H 272.652 3.0405 -2.28765 0
M  V30 2842 H 272.164 1.67679 -3.50008 0
M  V30 2843 H 270.265 3.33033 -1.67093 0
M  V30 2844 H 270.378 3.2155 -3.55165 0
M  V30 2845 H 268.742 1.77993 -1.82183 0
M  V30 2846 H 269.525 0.980903 -3.28988 0
M  V30 2847 N 271.97 1.30982 0.876444 0
M  V30 2848 C 273.195 1.23373 1.66715 0
M  V30 2849 C 273.62 -0.19885 1.87046 0
M  V30 2850 O 272.978 -1.1427 1.40756 0
M  V30 2851 C 273.026 1.97644 3.01611 0
M  V30 2852 O 272.13 1.30935 3.91062 0
M  V30 2853 H 271.471 0.426279 0.509099 0
M  V30 2854 H 274.001 1.72944 1.09323 0
M  V30 2855 H 274.011 2.06992 3.51594 0
M  V30 2856 H 272.686 3.01829 2.86133 0
M  V30 2857 H 271.263 1.29996 3.49507 0
M  V30 2858 N 273.449 -1.08991 1.13837 0
M  V30 2859 C 274.396 -2.15748 0.819835 0
M  V30 2860 C 275.366 -1.64636 -0.220026 0
M  V30 2861 O 276.551 -1.90582 -0.0912757 0
M  V30 2862 C 273.691 -3.4382 0.296913 0
M  V30 2863 C 272.804 -4.0881 1.39636 0
M  V30 2864 C 271.939 -5.24655 0.831314 0
M  V30 2865 C 270.978 -5.81575 1.90886 0
M  V30 2866 N 270.115 -6.88774 1.36142 0
M  V30 2867 H 274.955 -2.42338 1.73426 0
M  V30 2868 H 272.492 -1.18935 0.865613 0
M  V30 2869 H 274.45 -4.17193 -0.0244339 0
M  V30 2870 H 273.08 -3.17535 -0.580628 0
M  V30 2871 H 272.132 -3.33258 1.83422 0
M  V30 2872 H 273.444 -4.47141 2.21058 0
M  V30 2873 H 272.598 -6.04942 0.461515 0
M  V30 2874 H 271.337 -4.87698 -0.013932 0
M  V30 2875 H 270.342 -4.99946 2.28767 0
M  V30 2876 H 271.567 -6.20592 2.75758 0
M  V30 2877 H 269.513 -6.53788 0.538254 0
M  V30 2878 H 269.43 -7.25898 2.11208 0
M  V30 2879 H 270.698 -7.72806 1.01933 0
M  V30 2880 N 274.927 -0.932562 -1.27047 0
M  V30 2881 C 276.175 -0.574422 -1.93765 0
M  V30 2882 C 276.496 0.887993 -1.73608 0
M  V30 2883 O 275.766 1.62999 -1.08665 0
M  V30 2884 H 274.346 -0.209451 -0.717035 0
M  V30 2885 H 277.008 -1.18601 -1.5466 0
M  V30 2886 H 276.104 -0.784841 -3.02071 0
M  V30 2887 N 276.405 1.4127 -0.698611 0
M  V30 2888 C 277.335 2.33447 -0.049629 0
M  V30 2889 C 278.316 1.51982 0.763898 0
M  V30 2890 O 279.501 1.80509 0.716257 0
M  V30 2891 C 276.631 3.35828 0.885267 0
M  V30 2892 C 275.585 4.27627 0.178613 0
M  V30 2893 C 274.911 5.20406 1.22807 0
M  V30 2894 C 276.211 5.13459 -0.956933 0
M  V30 2895 H 277.905 2.87966 -0.81951 0
M  V30 2896 H 275.451 1.38461 -0.395538 0
M  V30 2897 H 277.404 3.9924 1.34854 0
M  V30 2898 H 276.128 2.79666 1.68685 0
M  V30 2899 H 274.787 3.65643 -0.26466 0
M  V30 2900 H 274.435 4.60558 2.02226 0
M  V30 2901 H 274.135 5.82661 0.760239 0
M  V30 2902 H 275.659 5.86695 1.69179 0
M  V30 2903 H 277.073 5.70421 -0.573805 0
M  V30 2904 H 275.47 5.8467 -1.35205 0
M  V30 2905 H 276.54 4.50443 -1.79524 0
M  V30 2906 N 277.883 0.443576 1.51229 0
M  V30 2907 C 278.846 -0.353132 2.26463 0
M  V30 2908 C 279.846 -0.944338 1.3015 0
M  V30 2909 O 281.036 -0.817813 1.5381 0
M  V30 2910 C 278.168 -1.50023 3.06114 0
M  V30 2911 H 279.361 0.3063 2.98332 0
M  V30 2912 H 276.914 0.196902 1.55055 0
M  V30 2913 H 277.649 -2.19553 2.38677 0
M  V30 2914 H 277.434 -1.08241 3.76864 0
M  V30 2915 H 278.924 -2.06296 3.63087 0
M  V30 2916 N 279.361 -1.56624 0.175154 0
M  V30 2917 C 280.291 -2.21155 -0.749195 0
M  V30 2918 C 281.272 -1.16836 -1.23626 0
M  V30 2919 O 282.457 -1.45277 -1.28873 0
M  V30 2920 C 279.587 -2.8553 -1.97711 0
M  V30 2921 C 278.541 -3.95921 -1.62575 0
M  V30 2922 C 277.867 -4.47365 -2.92864 0
M  V30 2923 C 279.167 -5.15323 -0.850838 0
M  V30 2924 H 280.861 -2.98653 -0.211295 0
M  V30 2925 H 278.407 -1.43651 -0.100188 0
M  V30 2926 H 280.36 -3.2935 -2.62881 0
M  V30 2927 H 279.084 -2.05406 -2.53921 0
M  V30 2928 H 277.743 -3.52762 -0.997719 0
M  V30 2929 H 277.391 -3.64027 -3.47122 0
M  V30 2930 H 277.091 -5.21839 -2.70106 0
M  V30 2931 H 278.615 -4.93873 -3.59056 0
M  V30 2932 H 280.029 -5.55812 -1.40521 0
M  V30 2933 H 278.426 -5.95739 -0.722154 0
M  V30 2934 H 279.496 -4.84661 0.152082 0
M  V30 2935 N 280.839 0.0985539 -1.57292 0
M  V30 2936 C 282.087 0.801092 -1.85545 0
M  V30 2937 C 282.408 1.79438 -0.763353 0
M  V30 2938 O 281.678 1.94763 0.21073 0
M  V30 2939 H 280.258 0.29884 -0.684619 0
M  V30 2940 H 282.92 0.0810064 -1.94732 0
M  V30 2941 H 282.016 1.3338 -2.82163 0
M  V30 2942 N 282.317 1.53212 0.369288 0
M  V30 2943 C 283.566 1.68436 1.10961 0
M  V30 2944 C 283.879 0.440738 1.9057 0
M  V30 2945 O 285.085 0.473446 2.6734 0
M  V30 2946 C 283.541 2.97744 2.0218 0
M  V30 2947 C 283.149 4.29355 1.279 0
M  V30 2948 C 284.893 3.22334 2.76226 0
M  V30 2949 C 282.8 5.49755 2.17999 0
M  V30 2950 H 281.73 0.627568 0.41794 0
M  V30 2951 H 284.381 1.79713 0.370884 0
M  V30 2952 H 282.763 2.8026 2.79768 0
M  V30 2953 H 283.937 4.57458 0.554007 0
M  V30 2954 H 282.252 4.11179 0.657311 0
M  V30 2955 H 284.849 4.09471 3.43857 0
M  V30 2956 H 285.192 2.38238 3.41392 0
M  V30 2957 H 285.725 3.40475 2.05723 0
M  V30 2958 H 282.464 6.36318 1.57417 0
M  V30 2959 H 281.984 5.25937 2.88359 0
M  V30 2960 H 283.663 5.84401 2.77641 0
M  V30 2961 N 283.795 -0.628877 1.44509 0
M  V30 2962 C 284.758 -1.72263 1.51188 0
M  V30 2963 C 285.758 -1.55907 0.39367 0
M  V30 2964 O 286.948 -1.61361 0.656377 0
M  V30 2965 C 284.08 -3.11365 1.38798 0
M  V30 2966 H 285.273 -1.67714 2.4862 0
M  V30 2967 H 282.826 -0.842737 1.31634 0
M  V30 2968 H 283.561 -3.21507 0.424693 0
M  V30 2969 H 283.346 -3.24644 2.19884 0
M  V30 2970 H 284.836 -3.91075 1.46458 0
M  V30 2971 N 285.273 -1.31445 -0.869486 0
M  V30 2972 C 286.22 -1.19135 -1.97675 0
M  V30 2973 C 287.19 -0.0770266 -1.65921 0
M  V30 2974 O 288.375 -0.249972 -1.89155 0
M  V30 2975 C 285.515 -0.905149 -3.33018 0
M  V30 2976 C 284.628 -2.10285 -3.77365 0
M  V30 2977 C 283.763 -1.75339 -5.01427 0
M  V30 2978 C 282.802 -2.91515 -5.38224 0
M  V30 2979 N 281.939 -2.56762 -6.53466 0
M  V30 2980 H 286.779 -2.13853 -2.07535 0
M  V30 2981 H 284.316 -1.06379 -1.01597 0
M  V30 2982 H 286.274 -0.719765 -4.10944 0
M  V30 2983 H 284.904 0.00519624 -3.228 0
M  V30 2984 H 283.956 -2.39899 -2.95216 0
M  V30 2985 H 285.268 -2.97237 -4.00564 0
M  V30 2986 H 284.422 -1.53266 -5.87022 0
M  V30 2987 H 283.161 -0.855801 -4.80133 0
M  V30 2988 H 282.166 -3.14237 -4.51149 0
M  V30 2989 H 283.391 -3.81985 -5.61484 0
M  V30 2990 H 281.337 -1.69526 -6.33717 0
M  V30 2991 H 281.254 -3.37243 -6.76612 0
M  V30 2992 H 282.522 -2.38083 -7.42251 0
M  V30 2993 N 286.751 1.08385 -1.14413 0
M  V30 2994 C 287.714 2.13486 -0.834048 0
M  V30 2995 C 288.714 1.59988 0.161418 0
M  V30 2996 O 289.904 1.74071 -0.0669575 0
M  V30 2997 C 287.036 3.4003 -0.243354 0
M  V30 2998 H 288.229 2.42425 -1.7655 0
M  V30 2999 H 285.782 1.24101 -0.950189 0
M  V30 3000 H 286.517 3.16726 0.696807 0
M  V30 3001 H 286.302 3.80157 -0.960367 0
M  V30 3002 H 287.792 4.17577 -0.0436242 0
M  V30 3003 N 288.23 0.939286 1.26551 0
M  V30 3004 C 289.476 0.596234 1.94465 0
M  V30 3005 C 289.831 -0.855013 1.72358 0
M  V30 3006 O 289.124 -1.6034 1.04889 0
M  V30 3007 C 289.318 0.872106 3.46596 0
M  V30 3008 C 289.147 2.34862 3.83497 0
M  V30 3009 C 287.917 3.00344 4.06352 0
M  V30 3010 C 290.115 3.32697 3.92195 0
M  V30 3011 N 288.097 4.38027 4.30123 0
M  V30 3012 C 289.468 4.55631 4.20476 0
M  V30 3013 C 291.523 3.27747 3.74815 0
M  V30 3014 C 290.226 5.74233 4.33185 0
M  V30 3015 C 292.252 4.45672 3.88755 0
M  V30 3016 C 291.614 5.67388 4.17433 0
M  V30 3017 H 287.713 0.268515 0.734455 0
M  V30 3018 H 290.297 1.2083 1.5267 0
M  V30 3019 H 288.468 0.289102 3.87323 0
M  V30 3020 H 290.2 0.490513 4.01716 0
M  V30 3021 H 286.955 2.50969 4.01636 0
M  V30 3022 H 287.379 5.09288 4.46044 0
M  V30 3023 H 292.021 2.34703 3.51673 0
M  V30 3024 H 289.739 6.67731 4.55149 0
M  V30 3025 H 293.325 4.43372 3.76713 0
M  V30 3026 H 292.205 6.57115 4.27983 0
M  V30 3027 N 289.708 -1.40897 0.706093 0
M  V30 3028 C 290.618 -2.3455 0.0482286 0
M  V30 3029 C 291.634 -1.56796 -0.754396 0
M  V30 3030 O 292.81 -1.89228 -0.689538 0
M  V30 3031 C 289.875 -3.35625 -0.869303 0
M  V30 3032 C 288.936 -4.29261 -0.0576994 0
M  V30 3033 C 288.169 -5.25508 -0.931531 0
M  V30 3034 O 288.392 -5.27472 -2.17092 0
M  V30 3035 O 287.326 -6.00727 -0.375587 0
M  V30 3036 H 291.152 -2.92407 0.820476 0
M  V30 3037 H 288.737 -1.4193 0.4665 0
M  V30 3038 H 290.619 -3.97635 -1.39514 0
M  V30 3039 H 289.294 -2.80196 -1.62086 0
M  V30 3040 H 288.201 -3.70566 0.512988 0
M  V30 3041 H 289.534 -4.87817 0.655426 0
M  V30 3042 N 291.186 -0.45159 -1.50991 0
M  V30 3043 C 292.116 0.342898 -2.30969 0
M  V30 3044 C 293.097 1.00815 -1.37005 0
M  V30 3045 O 294.282 1.00907 -1.65926 0
M  V30 3046 C 291.412 1.43637 -3.16205 0
M  V30 3047 C 290.366 0.893818 -4.18563 0
M  V30 3048 C 289.692 2.08411 -4.92411 0
M  V30 3049 C 290.992 -0.0815568 -5.22236 0
M  V30 3050 H 292.686 -0.324556 -2.97636 0
M  V30 3051 H 290.232 -0.157531 -1.43136 0
M  V30 3052 H 292.185 1.9995 -3.70942 0
M  V30 3053 H 290.909 2.13232 -2.47386 0
M  V30 3054 H 289.568 0.352798 -3.64898 0
M  V30 3055 H 289.216 2.76658 -4.20082 0
M  V30 3056 H 288.916 1.72741 -5.61636 0
M  V30 3057 H 290.44 2.65251 -5.49976 0
M  V30 3058 H 291.854 0.391742 -5.7196 0
M  V30 3059 H 290.251 -0.351551 -5.99069 0
M  V30 3060 H 291.321 -1.01374 -4.74185 0
M  V30 3061 N 292.664 1.56529 -0.183458 0
M  V30 3062 C 293.894 2.01331 0.463612 0
M  V30 3063 C 294.302 1.06278 1.5653 0
M  V30 3064 O 293.645 0.0577976 1.83609 0
M  V30 3065 C 293.707 3.42547 1.09096 0
M  V30 3066 C 293.371 4.56817 0.129442 0
M  V30 3067 C 294.368 5.15734 -0.656807 0
M  V30 3068 C 292.053 5.02295 0.02174 0
M  V30 3069 C 294.047 6.1857 -1.53784 0
M  V30 3070 C 291.734 6.04978 -0.862864 0
M  V30 3071 C 292.732 6.62988 -1.64123 0
M  V30 3072 O 292.42 7.63677 -2.51103 0
M  V30 3073 H 292.152 0.664917 0.121907 0
M  V30 3074 H 294.706 2.034 -0.285954 0
M  V30 3075 H 292.936 3.37428 1.88889 0
M  V30 3076 H 294.625 3.71228 1.64148 0
M  V30 3077 H 295.391 4.81473 -0.583839 0
M  V30 3078 H 291.27 4.56847 0.617392 0
M  V30 3079 H 294.814 6.63777 -2.14583 0
M  V30 3080 H 290.711 6.38663 -0.93699 0
M  V30 3081 H 291.479 7.81049 -2.44753 0
M  V30 3082 N 294.142 -0.090211 1.57342 0
M  V30 3083 C 295.39 -0.791241 1.85967 0
M  V30 3084 C 295.711 -1.7903 0.772859 0
M  V30 3085 O 294.981 -1.94872 -0.200398 0
M  V30 3086 H 293.561 -0.295205 0.686195 0
M  V30 3087 H 296.223 -0.0706782 1.94772 0
M  V30 3088 H 295.319 -1.31882 2.82867 0
M  V30 3089 N 295.62 -1.53406 -0.361157 0
M  V30 3090 C 296.845 -1.74024 -1.12829 0
M  V30 3091 C 297.27 -0.470069 -1.82132 0
M  V30 3092 O 296.628 0.57619 -1.719 0
M  V30 3093 C 296.676 -2.90903 -2.13091 0
M  V30 3094 O 295.78 -2.59821 -3.20261 0
M  V30 3095 H 295.121 -0.577804 -0.327168 0
M  V30 3096 H 297.651 -2.00307 -0.41693 0
M  V30 3097 H 297.661 -3.17194 -2.56616 0
M  V30 3098 H 296.336 -3.83034 -1.62042 0
M  V30 3099 H 294.913 -2.44362 -2.81677 0
M  V30 3100 N 297.098 0.621204 -1.44841 0
M  V30 3101 C 298.509 1.20298 -1.42777 0
M  V30 3102 C 298.86 1.95639 -0.148259 0
M  V30 3103 O 297.985 2.02955 0.750892 0
M  V30 3104 C 298.58 2.1882 -2.58657 0
M  V30 3105 C 297.139 2.72403 -2.59756 0
M  V30 3106 C 296.286 1.4757 -2.34773 0
M  V30 3107 H 299.237 0.411297 -1.53278 0
M  V30 3108 H 299.258 3.01607 -2.31977 0
M  V30 3109 H 298.77 1.63957 -3.51766 0
M  V30 3110 H 296.871 3.31242 -1.70615 0
M  V30 3111 H 296.984 3.17765 -3.58556 0
M  V30 3112 H 295.348 1.76051 -1.8406 0
M  V30 3113 H 296.131 0.945954 -3.3001 0
M  V30 3114 N 298.576 1.31904 0.862503 0
M  V30 3115 C 299.524 1.20125 1.9918 0
M  V30 3116 C 300.518 0.107824 1.69056 0
M  V30 3117 O 301.724 0.270223 1.7796 0
M  V30 3118 H 298.099 0.372148 0.65346 0
M  V30 3119 H 300.07 2.15652 2.06244 0
M  V30 3120 C 298.819 0.933099 3.34946 0
M  V30 3121 H 298.142 1.76664 3.5865 0
M  V30 3122 H 299.582 0.890892 4.14535 0
M  V30 3123 C 298.041 -0.364172 3.34926 0
M  V30 3124 O 298.571 -1.37858 3.77304 0
M  V30 3125 N 296.777 -0.383362 2.8806 0
M  V30 3126 H 296.324 0.442651 2.53768 0
M  V30 3127 H 296.282 -1.25123 2.8843 0
M  V30 3128 N 300.054 -1.07777 1.14986 0
M  V30 3129 C 301.017 -2.13041 0.845358 0
M  V30 3130 C 302.017 -1.60071 -0.152931 0
M  V30 3131 O 303.207 -1.74033 0.0761879 0
M  V30 3132 C 300.339 -3.39896 0.261383 0
M  V30 3133 H 301.532 -2.41485 1.77834 0
M  V30 3134 H 299.085 -1.23595 0.956757 0
M  V30 3135 H 299.82 -3.17091 -0.68 0
M  V30 3136 H 299.605 -3.79642 0.980514 0
M  V30 3137 H 301.095 -4.17548 0.0657687 0
M  V30 3138 N 301.532 -0.945985 -1.26051 0
M  V30 3139 C 302.462 -0.477172 -2.28572 0
M  V30 3140 C 303.443 0.472032 -1.63419 0
M  V30 3141 O 304.628 0.372853 -1.90587 0
M  V30 3142 C 301.758 0.253975 -3.4637 0
M  V30 3143 C 300.712 -0.609135 -4.23643 0
M  V30 3144 C 300.038 0.252252 -5.34105 0
M  V30 3145 C 301.338 -1.8829 -4.8718 0
M  V30 3146 H 303.032 -1.33402 -2.68038 0
M  V30 3147 H 300.578 -0.642904 -1.28852 0
M  V30 3148 H 302.531 0.593016 -4.17207 0
M  V30 3149 H 301.255 1.145 -3.05871 0
M  V30 3150 H 299.914 -0.931138 -3.54578 0
M  V30 3151 H 299.562 1.14278 -4.89846 0
M  V30 3152 H 299.262 -0.32188 -5.86718 0
M  V30 3153 H 300.786 0.586454 -6.07777 0
M  V30 3154 H 302.2 -1.61081 -5.50205 0
M  V30 3155 H 300.597 -2.40199 -5.49931 0
M  V30 3156 H 301.667 -2.59134 -4.09851 0
M  V30 3157 N 303.011 1.40521 -0.713556 0
M  V30 3158 C 304.257 2.01221 -0.252564 0
M  V30 3159 C 304.59 1.56444 1.1506 0
M  V30 3160 O 303.865 0.783597 1.78017 0
M  V30 3161 C 304.148 3.58582 -0.330332 0
M  V30 3162 C 304.001 4.13437 -1.77173 0
M  V30 3163 C 305.32 4.39079 0.299641 0
M  V30 3164 H 302.439 0.731077 -0.0932471 0
M  V30 3165 H 305.081 1.67026 -0.905673 0
M  V30 3166 H 303.231 3.87844 0.225737 0
M  V30 3167 H 304.903 3.9498 -2.38303 0
M  V30 3168 H 303.146 3.67801 -2.3001 0
M  V30 3169 H 303.817 5.22597 -1.77755 0
M  V30 3170 H 306.293 4.15735 -0.174139 0
M  V30 3171 H 305.169 5.4848 0.214771 0
M  V30 3172 H 305.43 4.19915 1.38288 0
M  V30 3173 N 304.489 0.459591 1.5075 0
M  V30 3174 C 305.419 -0.330644 2.31147 0
M  V30 3175 C 306.4 -1.00087 1.37538 0
M  V30 3176 O 307.585 -1.00025 1.66459 0
M  V30 3177 C 304.715 -1.41958 3.16962 0
M  V30 3178 C 303.669 -0.871608 4.19031 0
M  V30 3179 C 302.995 -2.05797 4.9351 0
M  V30 3180 C 304.295 0.109251 5.22186 0
M  V30 3181 H 305.989 0.340336 2.97459 0
M  V30 3182 H 303.535 0.165119 1.4305 0
M  V30 3183 H 305.488 -1.9798 3.71997 0
M  V30 3184 H 304.212 -2.11917 2.48513 0
M  V30 3185 H 302.871 -0.333442 3.6508 0
M  V30 3186 H 302.519 -2.74427 4.21544 0
M  V30 3187 H 302.219 -1.6976 5.62544 0
M  V30 3188 H 303.743 -2.62331 5.51375 0
M  V30 3189 H 305.157 -0.361405 5.7216 0
M  V30 3190 H 303.554 0.383316 5.98875 0
M  V30 3191 H 304.624 1.03887 4.73641 0
M  V30 3192 N 305.967 -1.56429 0.191757 0
M  V30 3193 C 306.897 -2.21937 -0.725696 0
M  V30 3194 C 307.878 -1.1814 -1.2238 0
M  V30 3195 O 309.063 -1.46636 -1.27325 0
M  V30 3196 C 306.193 -2.87611 -1.94672 0
M  V30 3197 C 305.147 -3.97623 -1.58366 0
M  V30 3198 C 304.473 -4.50446 -2.88102 0
M  V30 3199 C 305.773 -5.16197 -0.796133 0
M  V30 3200 H 307.467 -2.98861 -0.179606 0
M  V30 3201 H 305.013 -1.43749 -0.0849464 0
M  V30 3202 H 306.966 -3.3212 -2.59373 0
M  V30 3203 H 305.69 -2.08087 -2.51728 0
M  V30 3204 H 304.349 -3.53801 -0.960247 0
M  V30 3205 H 303.997 -3.67688 -3.43241 0
M  V30 3206 H 303.697 -5.24675 -2.64556 0
M  V30 3207 H 305.221 -4.97654 -3.53798 0
M  V30 3208 H 306.635 -5.57271 -1.34618 0
M  V30 3209 H 305.032 -5.96471 -0.658928 0
M  V30 3210 H 306.102 -4.84473 0.203478 0
M  V30 3211 N 307.445 0.0818655 -1.57387 0
M  V30 3212 C 308.694 0.781681 -1.85937 0
M  V30 3213 C 309.007 1.79246 -0.782957 0
M  V30 3214 O 310.213 2.54112 -0.955987 0
M  V30 3215 C 308.669 1.44109 -3.29789 0
M  V30 3216 C 308.277 0.469396 -4.45534 0
M  V30 3217 C 310.021 2.12386 -3.67549 0
M  V30 3218 C 307.928 1.13415 -5.80423 0
M  V30 3219 H 306.858 0.295682 -0.693605 0
M  V30 3220 H 309.509 0.0348051 -1.83467 0
M  V30 3221 H 307.891 2.23588 -3.2684 0
M  V30 3222 H 309.065 -0.294856 -4.59856 0
M  V30 3223 H 307.38 -0.108383 -4.16259 0
M  V30 3224 H 309.977 2.62878 -4.65617 0
M  V30 3225 H 310.32 2.91877 -2.96839 0
M  V30 3226 H 310.853 1.39751 -3.72444 0
M  V30 3227 H 307.592 0.379771 -6.54399 0
M  V30 3228 H 307.112 1.8695 -5.69921 0
M  V30 3229 H 308.791 1.65686 -6.25426 0
M  V30 3230 N 308.923 1.53595 0.353017 0
M  V30 3231 C 309.886 1.80232 1.41594 0
M  V30 3232 C 310.886 0.673081 1.46035 0
M  V30 3233 O 312.076 0.941335 1.46576 0
M  V30 3234 C 309.208 1.93578 2.80607 0
M  V30 3235 H 310.401 2.75174 1.19244 0
M  V30 3236 H 307.954 1.44864 0.586872 0
M  V30 3237 H 308.689 1.00746 3.08254 0
M  V30 3238 H 308.474 2.75724 2.78781 0
M  V30 3239 H 309.964 2.15735 3.57558 0
M  V30 3240 N 310.401 -0.613514 1.45168 0
M  V30 3241 C 311.333 -1.73825 1.4939 0
M  V30 3242 C 312.346 -1.58175 0.385304 0
M  V30 3243 O 313.535 -1.66165 0.652036 0
M  V30 3244 C 310.635 -3.11758 1.32891 0
M  V30 3245 C 309.808 -3.53704 2.57317 0
M  V30 3246 C 308.867 -4.70579 2.35462 0
M  V30 3247 O 307.893 -4.77996 3.09044 0
M  V30 3248 N 309.095 -5.63454 1.39644 0
M  V30 3249 H 311.86 -1.70669 2.46358 0
M  V30 3250 H 309.421 -0.79862 1.40832 0
M  V30 3251 H 311.413 -3.87692 1.1609 0
M  V30 3252 H 309.983 -3.09456 0.442218 0
M  V30 3253 H 309.203 -2.67794 2.89275 0
M  V30 3254 H 310.491 -3.78486 3.40038 0
M  V30 3255 H 309.889 -5.6017 0.789062 0
M  V30 3256 H 308.446 -6.38944 1.28816 0
M  V30 3257 N 311.879 -1.3236 -0.855495 0
M  V30 3258 C 312.789 -1.23221 -1.99634 0
M  V30 3259 C 313.805 -0.145983 -1.73387 0
M  V30 3260 O 314.981 -0.366502 -1.98037 0
M  V30 3261 C 312.046 -0.954782 -3.33294 0
M  V30 3262 C 311.107 -2.12937 -3.72769 0
M  V30 3263 C 310.34 -1.86508 -5.00051 0
M  V30 3264 O 310.563 -0.807231 -5.64659 0
M  V30 3265 O 309.497 -2.72591 -5.36636 0
M  V30 3266 H 313.323 -2.19126 -2.1028 0
M  V30 3267 H 310.908 -1.12241 -0.986018 0
M  V30 3268 H 312.79 -0.816519 -4.13414 0
M  V30 3269 H 311.465 -0.0258854 -3.2369 0
M  V30 3270 H 310.372 -2.3231 -2.93228 0
M  V30 3271 H 311.705 -3.04102 -3.87018 0
M  V30 3272 N 313.357 1.07166 -1.15556 0
M  V30 3273 C 314.304 2.14417 -0.854055 0
M  V30 3274 C 315.274 1.64965 0.193806 0
M  V30 3275 O 316.459 1.90703 0.0609443 0
M  V30 3276 C 313.599 3.43304 -0.351574 0
M  V30 3277 C 312.712 4.06537 -1.46123 0
M  V30 3278 C 311.847 5.23266 -0.914677 0
M  V30 3279 C 310.886 5.78464 -2.00114 0
M  V30 3280 N 310.023 6.86521 -1.47083 0
M  V30 3281 H 314.863 2.39548 -1.77259 0
M  V30 3282 H 312.4 1.17543 -0.884425 0
M  V30 3283 H 314.358 4.17179 -0.0419409 0
M  V30 3284 H 312.988 3.18419 0.530037 0
M  V30 3285 H 312.04 3.30297 -1.88701 0
M  V30 3286 H 313.352 4.43567 -2.28144 0
M  V30 3287 H 312.506 6.04131 -0.557698 0
M  V30 3288 H 311.245 4.87658 -0.0636583 0
M  V30 3289 H 310.25 4.96243 -2.36692 0
M  V30 3290 H 311.475 6.16126 -2.85597 0
M  V30 3291 H 309.421 6.52849 -0.642198 0
M  V30 3292 H 309.338 7.22446 -2.22729 0
M  V30 3293 H 310.606 7.71087 -1.14215 0
M  V30 3294 N 314.835 0.952656 1.25548 0
M  V30 3295 C 315.745 0.47782 2.29682 0
M  V30 3296 C 316.761 -0.453859 1.67977 0
M  V30 3297 O 317.937 -0.330587 1.98668 0
M  V30 3298 C 315.002 -0.238655 3.45878 0
M  V30 3299 C 314.063 0.730994 4.23031 0
M  V30 3300 C 313.296 0.0486165 5.33678 0
M  V30 3301 O 313.519 -1.16612 5.58353 0
M  V30 3302 O 312.453 0.733152 5.97418 0
M  V30 3303 H 316.279 1.34312 2.72386 0
M  V30 3304 H 313.864 0.719026 1.30959 0
M  V30 3305 H 315.746 -0.641774 4.16484 0
M  V30 3306 H 314.421 -1.07916 3.05181 0
M  V30 3307 H 313.328 1.18428 3.5486 0
M  V30 3308 H 314.661 1.53946 4.67506 0
M  V30 3309 N 316.313 -1.40141 0.720998 0
M  V30 3310 C 317.729 -1.54632 0.395113 0
M  V30 3311 C 317.929 -1.69115 -1.09555 0
M  V30 3312 O 316.985 -1.68377 -1.88163 0
M  V30 3313 C 318.298 -2.77177 1.1659 0
M  V30 3314 C 319.846 -2.91 1.15274 0
M  V30 3315 C 320.321 -4.16465 1.90579 0
M  V30 3316 N 321.812 -4.23476 1.87675 0
M  V30 3317 C 322.547 -5.19475 2.42762 0
M  V30 3318 N 322.043 -6.21348 3.06428 0
M  V30 3319 N 323.836 -5.11592 2.32874 0
M  V30 3320 H 315.987 -1.28986 1.68749 0
M  V30 3321 H 318.25 -0.62412 0.713567 0
M  V30 3322 H 317.956 -2.72771 2.22011 0
M  V30 3323 H 317.83 -3.69442 0.76108 0
M  V30 3324 H 320.217 -2.94907 0.106702 0
M  V30 3325 H 320.298 -1.99838 1.59682 0
M  V30 3326 H 319.942 -4.1332 2.95176 0
M  V30 3327 H 319.872 -5.06646 1.43587 0
M  V30 3328 H 322.363 -3.50497 1.41281 0
M  V30 3329 H 322.676 -6.91034 3.45965 0
M  V30 3330 H 321.021 -6.21777 3.10514 0
M  V30 3331 H 324.212 -4.30936 1.82789 0
M  V30 3332 H 324.385 -5.86233 2.76106 0
M  V30 3333 N 317.792 -0.46758 -1.50504 0
M  V30 3334 C 318.74 0.342482 -2.30065 0
M  V30 3335 C 319.734 0.993596 -1.37201 0
M  V30 3336 O 320.94 0.925102 -1.54408 0
M  V30 3337 H 317.315 0.129283 -0.740803 0
M  V30 3338 H 319.286 -0.34899 -2.96352 0
M  V30 3339 C 318.035 1.4139 -3.17654 0
M  V30 3340 H 317.358 0.922264 -3.89017 0
M  V30 3341 H 318.798 1.95335 -3.76325 0
M  V30 3342 C 317.257 2.4139 -2.35016 0
M  V30 3343 O 317.787 3.46586 -2.03079 0
M  V30 3344 N 315.993 2.13021 -1.97662 0
M  V30 3345 H 315.54 1.27499 -2.23834 0
M  V30 3346 H 315.498 2.80164 -1.42673 0
M  V30 3347 N 319.27 1.56325 -0.20005 0
M  V30 3348 C 320.519 1.96895 0.437652 0
M  V30 3349 C 320.832 1.08999 1.62415 0
M  V30 3350 O 322.038 1.39372 2.32997 0
M  V30 3351 C 320.494 3.50198 0.830025 0
M  V30 3352 C 320.102 4.46765 -0.332461 0
M  V30 3353 C 321.846 3.99526 1.43453 0
M  V30 3354 C 319.753 5.91344 0.0811468 0
M  V30 3355 H 318.683 0.735209 0.167282 0
M  V30 3356 H 321.334 1.81148 -0.292853 0
M  V30 3357 H 319.716 3.61467 1.61734 0
M  V30 3358 H 320.89 4.47231 -1.11 0
M  V30 3359 H 319.205 4.07657 -0.848789 0
M  V30 3360 H 321.802 5.05025 1.75652 0
M  V30 3361 H 322.145 3.44122 2.34277 0
M  V30 3362 H 322.678 3.91393 0.71109 0
M  V30 3363 H 319.417 6.50685 -0.793033 0
M  V30 3364 H 318.937 5.94121 0.823445 0
M  V30 3365 H 320.616 6.44945 0.515252 0
M  V30 3366 N 320.748 -0.0735177 1.57428 0
M  V30 3367 C 321.995 -0.772999 1.87166 0
M  V30 3368 C 322.323 -1.77665 0.791551 0
M  V30 3369 O 321.578 -1.94541 -0.212636 0
M  V30 3370 C 321.877 -1.51799 3.23561 0
M  V30 3371 C 321.543 -0.654484 4.46125 0
M  V30 3372 C 320.205 -0.416511 4.79394 0
M  V30 3373 C 322.557 -0.0555862 5.2117 0
M  V30 3374 C 319.885 0.429869 5.85123 0
M  V30 3375 C 322.237 0.778239 6.27795 0
M  V30 3376 C 320.901 1.0261 6.59566 0
M  V30 3377 H 320.171 -0.282861 0.684888 0
M  V30 3378 H 322.818 -0.0338272 1.9147 0
M  V30 3379 H 321.123 -2.32932 3.1504 0
M  V30 3380 H 322.82 -2.06397 3.43804 0
M  V30 3381 H 319.41 -0.850091 4.20085 0
M  V30 3382 H 323.594 -0.226558 4.95783 0
M  V30 3383 H 318.85 0.630665 6.08139 0
M  V30 3384 H 323.024 1.24906 6.85107 0
M  V30 3385 H 320.651 1.68371 7.4132 0
M  V30 3386 N 322.226 -1.5378 -0.344866 0
M  V30 3387 C 323.503 -1.61589 -1.10219 0
M  V30 3388 C 323.883 -0.436316 -2.06542 0
M  V30 3389 O 323.231 0.571543 -2.21237 0
M  V30 3390 C 323.441 -2.97602 -1.82301 0
M  V30 3391 C 324.789 -3.5291 -2.36093 0
M  V30 3392 O 325.813 -2.99768 -1.924 0
M  V30 3393 O 324.672 -4.45859 -3.16026 0
M  V30 3394 H 321.766 -0.653522 -0.506792 0
M  V30 3395 H 324.312 -1.66126 -0.346465 0
M  V30 3396 H 323.084 -3.74893 -1.12121 0
M  V30 3397 H 322.707 -2.9665 -2.64735 0
M  V30 3398 N 323.704 0.605807 -1.45491 0
M  V30 3399 C 324.636 1.73031 -1.5031 0
M  V30 3400 C 325.649 1.57968 -0.393687 0
M  V30 3401 O 326.838 1.65817 -0.660839 0
M  V30 3402 C 323.938 3.11049 -1.34543 0
M  V30 3403 C 323.111 3.52334 -2.59189 0
M  V30 3404 C 322.17 4.69323 -2.37954 0
M  V30 3405 O 321.196 4.7635 -3.11575 0
M  V30 3406 N 322.398 5.62705 -1.4263 0
M  V30 3407 H 325.163 1.6936 -2.4726 0
M  V30 3408 H 322.724 0.79114 -1.41254 0
M  V30 3409 H 324.716 3.87071 -1.18144 0
M  V30 3410 H 323.286 3.09217 -0.458623 0
M  V30 3411 H 322.506 2.66256 -2.90691 0
M  V30 3412 H 323.794 3.76677 -3.42041 0
M  V30 3413 H 323.192 5.59744 -0.818758 0
M  V30 3414 H 321.749 6.38252 -1.32202 0
M  V30 3415 N 325.182 1.32811 0.848464 0
M  V30 3416 C 326.598 1.11937 1.13764 0
M  V30 3417 C 326.798 -0.0960789 2.01271 0
M  V30 3418 O 325.854 -0.779165 2.40178 0
M  V30 3419 C 327.167 2.402 1.809 0
M  V30 3420 C 328.715 2.46016 1.93508 0
M  V30 3421 C 329.19 3.74215 2.64059 0
M  V30 3422 N 330.681 3.75232 2.71579 0
M  V30 3423 C 331.416 4.71134 3.26833 0
M  V30 3424 N 330.912 5.77406 3.8285 0
M  V30 3425 N 332.705 4.58623 3.24995 0
M  V30 3426 H 324.856 2.1073 0.265855 0
M  V30 3427 H 327.119 0.930671 0.180431 0
M  V30 3428 H 326.825 3.29093 1.24058 0
M  V30 3429 H 326.699 2.51628 2.81004 0
M  V30 3430 H 329.086 1.57577 2.49506 0
M  V30 3431 H 329.167 2.38536 0.923811 0
M  V30 3432 H 328.811 4.63031 2.08722 0
M  V30 3433 H 328.741 3.78968 3.65637 0
M  V30 3434 H 331.232 2.98423 2.31845 0
M  V30 3435 H 331.545 6.46632 4.23187 0
M  V30 3436 H 329.89 5.81152 3.81165 0
M  V30 3437 H 333.081 3.74762 2.80484 0
M  V30 3438 H 333.254 5.33535 3.67756 0
M  V30 3439 N 326.66 -1.06551 1.16123 0
M  V30 3440 C 327.623 -2.12132 0.867906 0
M  V30 3441 C 328.623 -1.60224 -0.135944 0
M  V30 3442 O 329.813 -1.73943 0.0946422 0
M  V30 3443 C 326.945 -3.396 0.297419 0
M  V30 3444 H 328.138 -2.39586 1.80385 0
M  V30 3445 H 325.691 -1.22574 0.969812 0
M  V30 3446 H 326.426 -3.17794 -0.64633 0
M  V30 3447 H 326.211 -3.78581 1.02073 0
M  V30 3448 H 327.701 -4.17455 0.110052 0
M  V30 3449 N 328.138 -0.959301 -1.25041 0
M  V30 3450 C 329.387 -0.612254 -1.92183 0
M  V30 3451 C 329.7 0.855347 -1.75907 0
M  V30 3452 O 330.906 1.31256 -2.37664 0
M  V30 3453 C 329.362 -1.04435 -3.44414 0
M  V30 3454 C 328.97 -2.53482 -3.69393 0
M  V30 3455 C 330.714 -0.770055 -4.17457 0
M  V30 3456 C 328.621 -2.90468 -5.15153 0
M  V30 3457 H 327.551 -0.225279 -0.719559 0
M  V30 3458 H 330.202 -1.16438 -1.41825 0
M  V30 3459 H 328.584 -0.4206 -3.9376 0
M  V30 3460 H 329.758 -3.20916 -3.30681 0
M  V30 3461 H 328.073 -2.78432 -3.0962 0
M  V30 3462 H 330.67 -1.02249 -5.24832 0
M  V30 3463 H 331.013 0.293611 -4.15263 0
M  V30 3464 H 331.546 -1.35437 -3.74034 0
M  V30 3465 H 328.285 -3.95871 -5.22462 0
M  V30 3466 H 327.805 -2.27711 -5.54894 0
M  V30 3467 H 329.484 -2.79914 -5.83315 0
M  V30 3468 N 329.616 1.39756 -0.72842 0
M  V30 3469 C 330.526 2.34444 -0.0855374 0
M  V30 3470 C 331.542 1.57976 0.729356 0
M  V30 3471 O 332.718 1.90301 0.659346 0
M  V30 3472 C 329.783 3.36965 0.815798 0
M  V30 3473 C 328.844 4.29299 -0.0105996 0
M  V30 3474 C 328.077 5.26923 0.84781 0
M  V30 3475 O 328.3 5.30859 2.08673 0
M  V30 3476 O 327.234 6.01249 0.279969 0
M  V30 3477 H 331.06 2.91065 -0.866892 0
M  V30 3478 H 328.645 1.4117 -0.48902 0
M  V30 3479 H 330.527 3.99804 1.33171 0
M  V30 3480 H 329.202 2.82739 1.57608 0
M  V30 3481 H 328.109 3.69703 -0.571877 0
M  V30 3482 H 329.442 4.86712 -0.73295 0
M  V30 3483 N 331.094 0.475555 1.50254 0
M  V30 3484 C 332.042 -0.330276 2.30243 0
M  V30 3485 C 333.036 -0.986306 1.37726 0
M  V30 3486 O 334.242 -0.9169 1.54897 0
M  V30 3487 H 330.617 -0.125353 0.741479 0
M  V30 3488 H 332.588 0.364702 2.96163 0
M  V30 3489 C 331.337 -1.39704 3.18399 0
M  V30 3490 H 330.66 -0.901621 3.89501 0
M  V30 3491 H 332.1 -1.93336 3.77355 0
M  V30 3492 C 330.559 -2.4014 2.36293 0
M  V30 3493 O 331.089 -3.45504 2.04914 0
M  V30 3494 N 329.295 -2.1197 1.98789 0
M  V30 3495 H 328.842 -1.2631 2.24507 0
M  V30 3496 H 328.8 -2.79403 1.44157 0
M  V30 3497 N 332.573 -1.56217 0.208337 0
M  V30 3498 C 333.483 -2.23316 -0.718836 0
M  V30 3499 C 334.499 -1.23648 -1.22422 0
M  V30 3500 O 335.675 -1.56423 -1.26861 0
M  V30 3501 C 332.74 -2.88968 -1.91568 0
M  V30 3502 C 331.801 -4.03943 -1.45357 0
M  V30 3503 C 331.034 -4.66455 -2.59337 0
M  V30 3504 O 331.257 -4.27919 -3.77149 0
M  V30 3505 O 330.191 -5.55686 -2.31293 0
M  V30 3506 H 334.017 -3.03182 -0.177315 0
M  V30 3507 H 331.602 -1.49384 -0.0215402 0
M  V30 3508 H 333.484 -3.30455 -2.61491 0
M  V30 3509 H 332.159 -2.12071 -2.44556 0
M  V30 3510 H 331.066 -3.67052 -0.722746 0
M  V30 3511 H 332.399 -4.82543 -0.970219 0
M  V30 3512 N 334.051 0.0651679 -1.57465 0
M  V30 3513 C 334.981 1.07693 -2.07182 0
M  V30 3514 C 335.962 1.39962 -0.966673 0
M  V30 3515 O 337.147 1.49475 -1.2398 0
M  V30 3516 C 334.277 2.3885 -2.52127 0
M  V30 3517 C 333.231 2.20917 -3.66579 0
M  V30 3518 C 332.557 3.57515 -3.97601 0
M  V30 3519 C 333.857 1.62493 -4.9638 0
M  V30 3520 H 335.551 0.663199 -2.91962 0
M  V30 3521 H 333.097 0.317569 -1.40455 0
M  V30 3522 H 335.05 3.09928 -2.85522 0
M  V30 3523 H 333.774 2.82215 -1.64384 0
M  V30 3524 H 332.433 1.52279 -3.33477 0
M  V30 3525 H 332.081 3.98463 -3.06979 0
M  V30 3526 H 331.781 3.46353 -4.74672 0
M  V30 3527 H 333.305 4.30013 -4.33499 0
M  V30 3528 H 334.719 2.23445 -5.27963 0
M  V30 3529 H 333.116 1.62009 -5.77818 0
M  V30 3530 H 334.186 0.587041 -4.81333 0
M  V30 3531 N 335.529 1.53961 0.336706 0
M  V30 3532 C 336.459 1.85417 1.41925 0
M  V30 3533 C 337.44 0.709856 1.5458 0
M  V30 3534 O 338.625 0.962396 1.68676 0
M  V30 3535 C 335.755 2.06985 2.78881 0
M  V30 3536 C 334.709 3.22813 2.81026 0
M  V30 3537 C 334.035 3.29727 4.20932 0
M  V30 3538 C 335.335 4.60767 2.45949 0
M  V30 3539 H 337.029 2.76079 1.15848 0
M  V30 3540 H 334.575 1.32839 0.555859 0
M  V30 3541 H 336.528 2.27575 3.54665 0
M  V30 3542 H 335.252 1.13061 3.06406 0
M  V30 3543 H 333.911 3.0209 2.07695 0
M  V30 3544 H 333.559 2.33385 4.45579 0
M  V30 3545 H 333.259 4.07566 4.23277 0
M  V30 3546 H 334.783 3.52536 4.98549 0
M  V30 3547 H 336.197 4.81325 3.11446 0
M  V30 3548 H 334.594 5.4106 2.59566 0
M  V30 3549 H 335.664 4.6391 1.41122 0
M  V30 3550 N 337.007 -0.598083 1.45811 0
M  V30 3551 C 337.97 -1.69018 1.54808 0
M  V30 3552 C 338.97 -1.55037 0.426652 0
M  V30 3553 O 340.16 -1.59932 0.690456 0
M  V30 3554 C 337.292 -3.0835 1.45371 0
M  V30 3555 H 338.485 -1.62403 2.52121 0
M  V30 3556 H 336.038 -0.814626 1.33392 0
M  V30 3557 H 336.773 -3.20534 0.492793 0
M  V30 3558 H 336.558 -3.19907 2.26721 0
M  V30 3559 H 338.048 -3.8788 1.54721 0
M  V30 3560 N 338.485 -1.33259 -0.841409 0
M  V30 3561 C 339.901 -1.12538 -1.13169 0
M  V30 3562 C 340.101 0.0854037 -2.01319 0
M  V30 3563 O 339.157 0.766417 -2.40587 0
M  V30 3564 C 340.47 -2.41156 -1.79623 0
M  V30 3565 C 342.018 -2.47038 -1.922 0
M  V30 3566 C 342.493 -3.7561 -2.6207 0
M  V30 3567 N 343.984 -3.76667 -2.69585 0
M  V30 3568 C 344.719 -4.72861 -3.2433 0
M  V30 3569 N 344.215 -5.79428 -3.79783 0
M  V30 3570 N 346.008 -4.6034 -3.22558 0
M  V30 3571 H 338.159 -2.10868 -0.254676 0
M  V30 3572 H 340.422 -0.931615 -0.175493 0
M  V30 3573 H 340.128 -3.29747 -1.22311 0
M  V30 3574 H 340.002 -2.53114 -2.79666 0
M  V30 3575 H 342.389 -1.58898 -2.48667 0
M  V30 3576 H 342.47 -2.39022 -0.911148 0
M  V30 3577 H 342.114 -4.64131 -2.06263 0
M  V30 3578 H 342.044 -3.80902 -3.63622 0
M  V30 3579 H 344.535 -2.99648 -2.30259 0
M  V30 3580 H 344.848 -6.48867 -4.19752 0
M  V30 3581 H 343.193 -5.83166 -3.78078 0
M  V30 3582 H 346.384 -3.76244 -2.78492 0
M  V30 3583 H 346.557 -5.35478 -3.64921 0
M  V30 3584 N 339.963 1.05934 -1.16686 0
M  V30 3585 C 340.911 2.15603 -0.872817 0
M  V30 3586 C 341.905 1.68647 0.159576 0
M  V30 3587 O 343.111 1.79995 0.0132125 0
M  V30 3588 H 339.486 0.703885 -0.264671 0
M  V30 3589 H 341.457 2.37613 -1.80507 0
M  V30 3590 C 340.206 3.45457 -0.394344 0
M  V30 3591 H 339.529 3.81984 -1.18019 0
M  V30 3592 H 340.969 4.2339 -0.227408 0
M  V30 3593 C 339.428 3.25021 0.88673 0
M  V30 3594 O 339.958 3.50906 1.95519 0
M  V30 3595 N 338.164 2.78437 0.831925 0
M  V30 3596 H 337.711 2.57572 -0.0377619 0
M  V30 3597 H 337.669 2.65144 1.68956 0
M  V30 3598 N 341.441 0.965919 1.2453 0
M  V30 3599 C 342.69 0.622437 1.91856 0
M  V30 3600 C 343.003 -0.846006 1.76358 0
M  V30 3601 O 344.209 -1.29993 2.38357 0
M  V30 3602 C 342.665 1.0626 3.43856 0
M  V30 3603 C 342.273 2.55437 3.68043 0
M  V30 3604 C 344.017 0.792183 4.17043 0
M  V30 3605 C 341.924 2.93196 5.13605 0
M  V30 3606 H 340.854 0.229092 0.718354 0
M  V30 3607 H 343.505 1.17189 1.41206 0
M  V30 3608 H 341.887 0.441476 3.93531 0
M  V30 3609 H 343.061 3.22665 3.28974 0
M  V30 3610 H 341.376 2.8007 3.08139 0
M  V30 3611 H 343.973 1.05031 5.24283 0
M  V30 3612 H 344.316 -0.271584 4.15413 0
M  V30 3613 H 344.849 1.37419 3.73311 0
M  V30 3614 H 341.588 3.98636 5.20355 0
M  V30 3615 H 341.108 2.30651 5.53679 0
M  V30 3616 H 342.787 2.83004 5.81823 0
M  V30 3617 N 342.919 -1.39368 0.735821 0
M  V30 3618 C 343.869 -2.27885 0.0724287 0
M  V30 3619 C 344.853 -1.44301 -0.711756 0
M  V30 3620 O 346.045 -1.67206 -0.58063 0
M  V30 3621 C 343.174 -3.33029 -0.833454 0
M  V30 3622 C 342.26 -4.24078 -0.0433749 0
M  V30 3623 N 342.651 -4.96138 0.983903 0
M  V30 3624 C 340.949 -4.45164 -0.272905 0
M  V30 3625 C 341.65 -5.63069 1.4604 0
M  V30 3626 N 340.626 -5.37991 0.778857 0
M  V30 3627 H 344.428 -2.81052 0.859467 0
M  V30 3628 H 341.942 -1.5206 0.570227 0
M  V30 3629 H 343.939 -3.95311 -1.32419 0
M  V30 3630 H 342.599 -2.81421 -1.61964 0
M  V30 3631 H 343.61 -4.9958 1.36528 0
M  V30 3632 H 340.287 -4.04497 -1.03383 0
M  V30 3633 H 341.677 -6.30755 2.31511 0
M  V30 3634 N 344.397 -0.483516 -1.5 0
M  V30 3635 C 345.643 0.0672592 -2.02688 0
M  V30 3636 C 345.976 1.38247 -1.36387 0
M  V30 3637 O 345.251 1.88131 -0.493675 0
M  V30 3638 C 345.534 0.238109 -3.59312 0
M  V30 3639 C 345.387 -1.099 -4.36168 0
M  V30 3640 C 346.706 0.986916 -4.28892 0
M  V30 3641 H 343.825 0.0229696 -0.736642 0
M  V30 3642 H 346.467 -0.631527 -1.79197 0
M  V30 3643 H 344.617 0.8333 -3.79458 0
M  V30 3644 H 346.289 -1.73172 -4.27562 0
M  V30 3645 H 344.532 -1.69261 -3.99416 0
M  V30 3646 H 345.203 -0.932954 -5.44059 0
M  V30 3647 H 347.679 0.482302 -4.13295 0
M  V30 3648 H 346.555 1.07527 -5.38265 0
M  V30 3649 H 346.816 2.0265 -3.92919 0
M  V30 3650 N 345.875 1.56104 -0.216619 0
M  V30 3651 C 347.124 1.97348 0.416744 0
M  V30 3652 C 347.437 1.10715 1.6125 0
M  V30 3653 O 348.643 1.41836 2.31506 0
M  V30 3654 C 347.099 3.51059 0.792835 0
M  V30 3655 C 346.707 4.46387 -0.379828 0
M  V30 3656 C 348.451 4.01026 1.39208 0
M  V30 3657 C 346.358 5.91397 0.0184223 0
M  V30 3658 H 345.288 0.736942 0.159475 0
M  V30 3659 H 347.939 1.80827 -0.31205 0
M  V30 3660 H 346.321 3.63162 1.57891 0
M  V30 3661 H 347.495 4.46029 -1.15737 0
M  V30 3662 H 345.81 4.06734 -0.891979 0
M  V30 3663 H 348.407 5.0686 1.70286 0
M  V30 3664 H 348.75 3.46587 2.30614 0
M  V30 3665 H 349.283 3.92125 0.669537 0
M  V30 3666 H 346.022 6.49807 -0.862002 0
M  V30 3667 H 345.542 5.94961 0.760384 0
M  V30 3668 H 347.221 6.45455 0.446818 0
M  V30 3669 N 347.353 -0.0568162 1.57498 0
M  V30 3670 C 348.769 -0.411933 1.54192 0
M  V30 3671 C 348.969 -1.78287 0.938942 0
M  V30 3672 O 348.025 -2.46483 0.547919 0
M  V30 3673 C 349.338 -0.339244 2.9878 0
M  V30 3674 C 350.886 -0.418348 3.10192 0
M  V30 3675 C 351.361 -0.375407 4.56459 0
M  V30 3676 N 352.852 -0.435038 4.61153 0
M  V30 3677 C 353.587 -0.424265 5.71828 0
M  V30 3678 N 353.083 -0.367418 6.91825 0
M  V30 3679 N 354.876 -0.471938 5.60115 0
M  V30 3680 H 347.027 0.840684 1.95055 0
M  V30 3681 H 349.29 0.316987 0.893433 0
M  V30 3682 H 348.996 0.601742 3.46514 0
M  V30 3683 H 348.87 -1.14371 3.59443 0
M  V30 3684 H 351.257 -1.34976 2.62422 0
M  V30 3685 H 351.338 0.414962 2.52412 0
M  V30 3686 H 350.982 0.552219 5.04889 0
M  V30 3687 H 350.912 -1.22645 5.12119 0
M  V30 3688 H 353.403 -0.482612 3.74806 0
M  V30 3689 H 353.716 -0.363535 7.71944 0
M  V30 3690 H 352.061 -0.333879 6.94198 0
M  V30 3691 H 355.252 -0.514145 4.65268 0
M  V30 3692 H 355.425 -0.460073 6.46365 0
M  V30 3693 N 348.832 -1.54138 -0.328536 0
M  V30 3694 C 350.248 -1.44736 -0.672574 0
M  V30 3695 C 350.448 -0.616217 -1.91846 0
M  V30 3696 O 349.504 -0.113067 -2.52247 0
M  V30 3697 C 350.817 -2.884 -0.851217 0
M  V30 3698 C 352.365 -2.98271 -0.948877 0
M  V30 3699 C 352.84 -4.43074 -1.15973 0
M  V30 3700 N 354.331 -4.46665 -1.22658 0
M  V30 3701 C 355.066 -5.55857 -1.40751 0
M  V30 3702 N 354.562 -6.75026 -1.5592 0
M  V30 3703 N 356.355 -5.43495 -1.4342 0
M  V30 3704 H 348.506 -2.06661 0.490421 0
M  V30 3705 H 350.769 -0.934812 0.157579 0
M  V30 3706 H 350.475 -3.51699 -0.00704236 0
M  V30 3707 H 350.349 -3.34225 -1.74853 0
M  V30 3708 H 352.736 -2.35102 -1.78356 0
M  V30 3709 H 352.817 -2.55785 -0.0281435 0
M  V30 3710 H 352.461 -5.06827 -0.329915 0
M  V30 3711 H 352.391 -4.83165 -2.09426 0
M  V30 3712 H 354.882 -3.60797 -1.124 0
M  V30 3713 H 355.195 -7.54004 -1.69404 0
M  V30 3714 H 353.54 -6.77944 -1.53027 0
M  V30 3715 H 356.731 -4.49349 -1.31162 0
M  V30 3716 H 356.904 -6.28649 -1.57178 0
M  V30 3717 N 350.31 0.590341 -1.46126 0
M  V30 3718 C 351.538 1.37504 -1.54597 0
M  V30 3719 C 351.953 1.87897 -0.184447 0
M  V30 3720 O 351.31 1.63192 0.816984 0
M  V30 3721 C 351.361 2.56779 -2.54454 0
M  V30 3722 O 351.082 2.08476 -3.85317 0
M  V30 3723 C 352.583 3.49427 -2.72792 0
M  V30 3724 H 349.803 0.420325 -0.523037 0
M  V30 3725 H 352.347 0.718383 -1.91467 0
M  V30 3726 H 350.502 3.1845 -2.20609 0
M  V30 3727 H 350.916 2.86097 -4.396 0
M  V30 3728 H 352.39 4.29619 -3.466 0
M  V30 3729 H 352.867 4.00876 -1.79429 0
M  V30 3730 H 353.473 2.93598 -3.07702 0
M  V30 3731 N 351.788 1.33704 0.83433 0
M  V30 3732 C 353.035 1.25417 1.58987 0
M  V30 3733 C 353.363 -0.178869 1.93676 0
M  V30 3734 O 352.618 -1.13723 1.59265 0
M  V30 3735 C 352.917 2.07926 2.90692 0
M  V30 3736 C 352.583 3.57066 2.75345 0
M  V30 3737 C 351.245 3.97724 2.70867 0
M  V30 3738 C 353.597 4.51817 2.59828 0
M  V30 3739 C 350.925 5.31344 2.48778 0
M  V30 3740 C 353.277 5.85604 2.39272 0
M  V30 3741 C 351.941 6.25439 2.33199 0
M  V30 3742 H 351.211 0.458934 0.581774 0
M  V30 3743 H 353.858 1.65335 0.966261 0
M  V30 3744 H 352.163 1.608 3.57282 0
M  V30 3745 H 353.86 1.98868 3.48213 0
M  V30 3746 H 350.45 3.24785 2.79665 0
M  V30 3747 H 354.634 4.21311 2.62319 0
M  V30 3748 H 349.89 5.61241 2.42526 0
M  V30 3749 H 354.064 6.58623 2.2625 0
M  V30 3750 H 351.691 7.28914 2.15843 0
M  V30 3751 N 353.266 -1.05314 1.17247 0
M  V30 3752 C 354.176 -2.16538 0.90268 0
M  V30 3753 C 355.192 -1.73523 -0.128707 0
M  V30 3754 O 356.368 -2.01337 0.0502701 0
M  V30 3755 C 353.433 -3.44167 0.418356 0
M  V30 3756 C 352.494 -4.01635 1.51618 0
M  V30 3757 C 351.727 -5.23171 1.05487 0
M  V30 3758 O 351.95 -5.70327 -0.0914715 0
M  V30 3759 O 350.884 -5.72848 1.8474 0
M  V30 3760 H 354.71 -2.42145 1.83302 0
M  V30 3761 H 352.295 -1.15037 0.953246 0
M  V30 3762 H 354.177 -4.21112 0.155726 0
M  V30 3763 H 352.852 -3.20063 -0.48385 0
M  V30 3764 H 351.759 -3.26135 1.83268 0
M  V30 3765 H 353.092 -4.30053 2.39405 0
M  V30 3766 N 354.744 -0.972509 -1.24016 0
M  V30 3767 C 356.021 -0.553733 -1.87598 0
M  V30 3768 C 356.401 0.969158 -1.87538 0
M  V30 3769 O 355.749 1.84255 -1.35139 0
M  V30 3770 C 355.959 -1.15076 -3.29482 0
M  V30 3771 C 357.307 -1.23862 -4.06132 0
M  V30 3772 O 358.331 -1.10363 -3.38672 0
M  V30 3773 O 357.19 -1.45252 -5.26844 0
M  V30 3774 H 354.284 -0.185331 -0.805966 0
M  V30 3775 H 356.83 -1.06709 -1.31952 0
M  V30 3776 H 355.602 -2.19333 -3.2405 0
M  V30 3777 H 355.225 -0.621746 -3.92709 0
M  V30 3778 N 356.222 1.38976 -0.743202 0
M  V30 3779 C 357.471 1.99581 -0.291592 0
M  V30 3780 C 357.784 1.59656 1.13001 0
M  V30 3781 O 358.99 2.13157 1.68156 0
M  V30 3782 C 357.446 3.56813 -0.470391 0
M  V30 3783 C 357.054 4.05695 -1.90041 0
M  V30 3784 C 358.798 4.24423 -0.0809709 0
M  V30 3785 C 356.705 5.5553 -2.02832 0
M  V30 3786 H 355.635 0.746615 -0.105272 0
M  V30 3787 H 358.286 1.58872 -0.918258 0
M  V30 3788 H 356.668 3.95359 0.225299 0
M  V30 3789 H 357.842 3.78464 -2.62872 0
M  V30 3790 H 356.157 3.50775 -2.24379 0
M  V30 3791 H 358.754 5.34474 -0.155445 0
M  V30 3792 H 359.097 4.04962 0.96497 0
M  V30 3793 H 359.63 3.9108 -0.728124 0
M  V30 3794 H 356.369 5.79881 -3.05643 0
M  V30 3795 H 355.889 5.84537 -1.34448 0
M  V30 3796 H 357.568 6.21069 -1.81335 0
M  V30 3797 N 357.7 0.491464 1.49741 0
M  V30 3798 C 358.925 -0.0557177 2.07325 0
M  V30 3799 C 359.35 -1.30925 1.35056 0
M  V30 3800 O 358.708 -1.76733 0.404365 0
M  V30 3801 C 358.756 -0.302074 3.59333 0
M  V30 3802 O 357.86 -1.37868 3.88672 0
M  V30 3803 H 357.201 0.0219956 0.663636 0
M  V30 3804 H 359.731 0.688352 1.92673 0
M  V30 3805 H 359.741 -0.536464 4.04458 0
M  V30 3806 H 358.416 0.61383 4.11345 0
M  V30 3807 H 356.993 -1.12999 3.55367 0
M  V30 3808 N 359.178 -1.55987 0.224894 0
M  V30 3809 C 360.088 -2.24066 -0.69511 0
M  V30 3810 C 361.104 -1.24939 -1.21104 0
M  V30 3811 O 362.28 -1.5776 -1.25195 0
M  V30 3812 C 359.345 -2.90983 -1.88493 0
M  V30 3813 C 358.406 -4.05462 -1.41064 0
M  V30 3814 C 357.639 -4.69179 -2.54375 0
M  V30 3815 O 357.862 -4.31895 -3.72589 0
M  V30 3816 O 356.796 -5.58108 -2.25386 0
M  V30 3817 H 360.622 -3.03353 -0.145149 0
M  V30 3818 H 358.207 -1.49399 -0.00569476 0
M  V30 3819 H 360.089 -3.33209 -2.57972 0
M  V30 3820 H 358.764 -2.14653 -2.42293 0
M  V30 3821 H 357.671 -3.67798 -0.683774 0
M  V30 3822 H 359.004 -4.83545 -0.918985 0
M  V30 3823 N 360.656 0.0484629 -1.57525 0
M  V30 3824 C 361.603 1.05504 -2.05275 0
M  V30 3825 C 362.573 1.37084 -0.937927 0
M  V30 3826 O 363.758 1.47754 -1.2072 0
M  V30 3827 C 360.898 2.35676 -2.52093 0
M  V30 3828 C 360.011 2.10423 -3.77288 0
M  V30 3829 C 359.146 3.34327 -4.12794 0
M  V30 3830 C 358.185 3.04542 -5.30962 0
M  V30 3831 N 357.322 4.20841 -5.61994 0
M  V30 3832 H 362.162 0.640885 -2.91027 0
M  V30 3833 H 359.699 0.304854 -1.43906 0
M  V30 3834 H 361.657 3.11709 -2.77297 0
M  V30 3835 H 360.287 2.7485 -1.69285 0
M  V30 3836 H 359.339 1.24976 -3.59284 0
M  V30 3837 H 360.651 1.84438 -4.63448 0
M  V30 3838 H 359.805 4.1874 -4.39024 0
M  V30 3839 H 358.544 3.63408 -3.25247 0
M  V30 3840 H 357.549 2.18528 -5.04505 0
M  V30 3841 H 358.774 2.76758 -6.20146 0
M  V30 3842 H 356.72 4.4991 -4.77406 0
M  V30 3843 H 356.637 3.98212 -6.42622 0
M  V30 3844 H 357.905 5.06184 -5.92789 0
M  V30 3845 N 362.134 1.5431 0.320358 0
M  V30 3846 C 363.382 1.72327 1.05583 0
M  V30 3847 C 363.703 0.50149 1.88441 0
M  V30 3848 O 362.973 -0.48448 1.89815 0
M  V30 3849 H 361.553 0.635387 0.3928 0
M  V30 3850 H 364.215 1.91621 0.356019 0
M  V30 3851 H 363.311 2.60426 1.72003 0
M  V30 3852 N 363.613 -0.582584 1.46437 0
M  V30 3853 C 364.838 -1.37168 1.55563 0
M  V30 3854 C 365.263 -1.87061 0.19743 0
M  V30 3855 O 364.621 -1.61572 -0.822451 0
M  V30 3856 C 364.669 -2.53511 2.56446 0
M  V30 3857 O 363.773 -3.54953 2.09958 0
M  V30 3858 H 363.114 -0.408494 0.523477 0
M  V30 3859 H 365.644 -0.706646 1.9201 0
M  V30 3860 H 365.654 -3.00426 2.76058 0
M  V30 3861 H 364.329 -2.16549 3.55076 0
M  V30 3862 H 362.906 -3.14516 2.00334 0
M  V30 3863 N 365.091 -1.34144 -0.827227 0
M  V30 3864 C 366.021 -1.28005 -1.95287 0
M  V30 3865 C 367.002 -0.158321 -1.69362 0
M  V30 3866 O 368.187 -0.349987 -1.9102 0
M  V30 3867 C 365.317 -1.03036 -3.31664 0
M  V30 3868 C 364.271 -2.11628 -3.72019 0
M  V30 3869 C 363.597 -1.71854 -5.0633 0
M  V30 3870 C 364.897 -3.53417 -3.8457 0
M  V30 3871 H 366.591 -2.22187 -2.00682 0
M  V30 3872 H 364.137 -1.0696 -0.964135 0
M  V30 3873 H 366.09 -0.973863 -4.09993 0
M  V30 3874 H 364.814 -0.0529391 -3.26557 0
M  V30 3875 H 363.473 -2.16339 -2.95961 0
M  V30 3876 H 363.121 -0.727841 -4.97706 0
M  V30 3877 H 362.821 -2.44531 -5.34302 0
M  V30 3878 H 364.345 -1.67692 -5.87122 0
M  V30 3879 H 365.759 -3.51142 -4.5318 0
M  V30 3880 H 364.156 -4.24679 -4.2399 0
M  V30 3881 H 365.226 -3.91072 -2.86689 0
M  V30 3882 N 366.569 1.04691 -1.17803 0
M  V30 3883 C 367.846 1.7472 -0.879328 0
M  V30 3884 C 368.226 2.01812 0.619271 0
M  V30 3885 O 367.574 1.65824 1.57209 0
M  V30 3886 C 367.784 3.03686 -1.71976 0
M  V30 3887 C 369.132 3.77542 -1.94286 0
M  V30 3888 O 370.156 3.13569 -1.68976 0
M  V30 3889 O 369.015 4.92506 -2.36855 0
M  V30 3890 H 366.109 0.760011 -0.326056 0
M  V30 3891 H 368.655 1.10813 -1.28525 0
M  V30 3892 H 367.427 2.79754 -2.73594 0
M  V30 3893 H 367.05 3.75332 -1.31194 0
M  V30 3894 N 368.047 0.979072 1.23499 0
M  V30 3895 C 368.979 0.476271 2.24197 0
M  V30 3896 C 369.992 -0.421166 1.57258 0
M  V30 3897 O 371.181 -0.225515 1.7707 0
M  V30 3898 C 368.281 -0.330503 3.37285 0
M  V30 3899 C 367.454 0.559744 4.33804 0
M  V30 3900 C 366.513 -0.192954 5.25846 0
M  V30 3901 O 365.539 0.416978 5.67671 0
M  V30 3902 N 366.741 -1.47932 5.61334 0
M  V30 3903 H 369.506 1.34211 2.67969 0
M  V30 3904 H 367.067 0.852189 1.37657 0
M  V30 3905 H 369.059 -0.842361 3.95836 0
M  V30 3906 H 367.629 -1.09734 2.92707 0
M  V30 3907 H 366.849 1.25245 3.73775 0
M  V30 3908 H 368.137 1.1665 4.95248 0
M  V30 3909 H 367.535 -1.9964 5.29302 0
M  V30 3910 H 366.092 -1.93664 6.22364 0
M  V30 3911 N 369.525 -1.3858 0.750561 0
M  V30 3912 C 370.802 -1.94231 0.231009 0
M  V30 3913 C 371.182 -1.68611 -1.27018 0
M  V30 3914 O 370.53 -1.02296 -2.04323 0
M  V30 3915 C 370.74 -3.44123 0.581428 0
M  V30 3916 C 372.088 -4.2116 0.539389 0
M  V30 3917 O 373.112 -3.52391 0.519541 0
M  V30 3918 O 371.971 -5.43749 0.54765 0
M  V30 3919 H 369.065 -0.825639 0.0474263 0
M  V30 3920 H 371.611 -1.4799 0.830478 0
M  V30 3921 H 370.383 -3.56267 1.61833 0
M  V30 3922 H 370.006 -3.97573 -0.0462047 0
M  V30 3923 N 371.003 -0.499398 -1.49478 0
M  V30 3924 C 372.419 -0.155261 -1.58843 0
M  V30 3925 C 372.619 1.34008 -1.50479 0
M  V30 3926 O 371.675 2.11589 -1.37791 0
M  V30 3927 C 372.988 -0.730636 -2.91689 0
M  V30 3928 C 374.536 -0.696599 -3.0515 0
M  V30 3929 C 375.011 -1.25001 -4.40612 0
M  V30 3930 N 376.502 -1.21064 -4.47099 0
M  V30 3931 C 377.237 -1.60905 -5.50361 0
M  V30 3932 N 376.733 -2.08331 -6.60735 0
M  V30 3933 N 378.526 -1.52331 -5.41065 0
M  V30 3934 H 370.677 -1.47162 -1.53158 0
M  V30 3935 H 372.94 -0.610309 -0.725415 0
M  V30 3936 H 372.646 -1.77928 -3.03372 0
M  V30 3937 H 372.52 -0.190161 -3.7672 0
M  V30 3938 H 374.907 0.343204 -2.93097 0
M  V30 3939 H 374.988 -1.2742 -2.21806 0
M  V30 3940 H 374.632 -2.28859 -4.53416 0
M  V30 3941 H 374.562 -0.64836 -5.22593 0
M  V30 3942 H 377.053 -0.863128 -3.67911 0
M  V30 3943 H 377.366 -2.36805 -7.35624 0
M  V30 3944 H 375.711 -2.12304 -6.6178 0
M  V30 3945 H 378.902 -1.151 -4.53729 0
M  V30 3946 H 379.075 -1.83704 -6.21415 0
M  V30 3947 N 372.481 1.55866 -0.233164 0
M  V30 3948 C 373.897 1.59133 0.121988 0
M  V30 3949 C 374.097 1.25016 1.58029 0
M  V30 3950 O 373.153 0.990922 2.32243 0
M  V30 3951 C 374.466 2.99932 -0.214792 0
M  V30 3952 C 376.014 3.12601 -0.157971 0
M  V30 3953 C 376.489 4.55597 -0.46859 0
M  V30 3954 N 377.98 4.61305 -0.418585 0
M  V30 3955 C 378.715 5.69903 -0.63227 0
M  V30 3956 N 378.211 6.86819 -0.90835 0
M  V30 3957 N 380.004 5.59264 -0.563913 0
M  V30 3958 H 372.155 1.76315 -1.18434 0
M  V30 3959 H 374.418 0.820093 -0.475553 0
M  V30 3960 H 374.124 3.29588 -1.22739 0
M  V30 3961 H 373.998 3.74327 0.464691 0
M  V30 3962 H 376.385 2.82735 0.845283 0
M  V30 3963 H 376.466 2.40511 -0.871102 0
M  V30 3964 H 376.11 4.86182 -1.46934 0
M  V30 3965 H 376.04 5.25928 0.265865 0
M  V30 3966 H 378.531 3.77297 -0.213368 0
M  V30 3967 H 378.844 7.65507 -1.05919 0
M  V30 3968 H 377.189 6.88536 -0.945673 0
M  V30 3969 H 380.38 4.66802 -0.348372 0
M  V30 3970 H 380.553 6.43831 -0.733847 0
M  V30 3971 N 373.959 -0.0401083 1.57549 0
M  V30 3972 C 374.889 -1.04384 2.08869 0
M  V30 3973 C 375.87 -1.38407 0.988817 0
M  V30 3974 O 377.055 -1.47483 1.26342 0
M  V30 3975 C 374.185 -2.34808 2.55895 0
M  V30 3976 C 373.139 -2.15057 3.70047 0
M  V30 3977 C 372.465 -3.51145 4.03239 0
M  V30 3978 C 373.765 -1.54576 4.98902 0
M  V30 3979 H 375.459 -0.616666 2.92981 0
M  V30 3980 H 373.005 -0.295184 1.40942 0
M  V30 3981 H 374.958 -3.05346 2.90417 0
M  V30 3982 H 373.682 -2.79565 1.68853 0
M  V30 3983 H 372.341 -1.46954 3.35857 0
M  V30 3984 H 371.989 -3.93529 3.13279 0
M  V30 3985 H 371.689 -3.38758 4.80122 0
M  V30 3986 H 373.213 -4.23062 4.40285 0
M  V30 3987 H 374.627 -2.15017 5.31451 0
M  V30 3988 H 373.024 -1.52796 5.80322 0
M  V30 3989 H 374.094 -0.51039 4.82206 0
M  V30 3990 N 375.437 -1.54477 -0.31217 0
M  V30 3991 C 376.684 -1.73227 -1.04875 0
M  V30 3992 C 377.012 -0.512042 -1.87639 0
M  V30 3993 O 376.267 0.506131 -1.89042 0
M  V30 3994 C 376.566 -2.967 -1.99258 0
M  V30 3995 C 376.232 -4.30974 -1.32559 0
M  V30 3996 C 374.894 -4.67477 -1.141 0
M  V30 3997 C 377.246 -5.14258 -0.847835 0
M  V30 3998 C 374.574 -5.84852 -0.465326 0
M  V30 3999 C 376.926 -6.32327 -0.185931 0
M  V30 4000 C 375.59 -6.67499 0.0107077 0
M  V30 4001 H 374.86 -0.633881 -0.383765 0
M  V30 4002 H 377.507 -1.88727 -0.324731 0
M  V30 4003 H 375.812 -2.75935 -2.7815 0
M  V30 4004 H 377.509 -3.08401 -2.563 0
M  V30 4005 H 374.099 -4.02262 -1.4793 0
M  V30 4006 H 378.283 -4.86565 -0.978192 0
M  V30 4007 H 373.539 -6.10654 -0.301883 0
M  V30 4008 H 377.713 -6.96135 0.192211 0
M  V30 4009 H 375.34 -7.58306 0.536287 0
M  V30 4010 N 376.915 0.57481 -1.46744 0
M  V30 4011 C 378.161 1.3347 -1.52688 0
M  V30 4012 C 378.494 1.93353 -0.181229 0
M  V30 4013 O 377.769 1.76912 0.808237 0
M  V30 4014 C 378.052 2.45811 -2.63152 0
M  V30 4015 C 377.905 1.90912 -4.07275 0
M  V30 4016 C 379.224 3.47822 -2.69644 0
M  V30 4017 H 376.343 0.483935 -0.555856 0
M  V30 4018 H 378.985 0.644968 -1.78718 0
M  V30 4019 H 377.135 3.04646 -2.41088 0
M  V30 4020 H 378.807 1.36473 -4.4065 0
M  V30 4021 H 377.05 1.21691 -4.16382 0
M  V30 4022 H 377.721 2.72042 -4.80309 0
M  V30 4023 H 380.197 2.9888 -2.895 0
M  V30 4024 H 379.073 4.23876 -3.48742 0
M  V30 4025 H 379.334 4.05555 -1.76005 0
M  V30 4026 N 378.394 1.34581 0.820102 0
M  V30 4027 C 379.671 1.17675 1.56244 0
M  V30 4028 C 380.051 -0.249541 2.0962 0
M  V30 4029 O 379.399 -1.25125 1.91196 0
M  V30 4030 C 379.609 2.23364 2.6816 0
M  V30 4031 C 380.957 2.58485 3.36854 0
M  V30 4032 O 381.981 2.22175 2.78418 0
M  V30 4033 O 380.84 3.20868 4.42386 0
M  V30 4034 H 377.934 0.456333 0.689702 0
M  V30 4035 H 380.48 1.46222 0.861231 0
M  V30 4036 H 379.252 3.19087 2.26493 0
M  V30 4037 H 378.875 1.96009 3.45928 0
M  V30 4038 N 379.872 -1.04064 1.18357 0
M  V30 4039 C 381.12 -1.76915 0.977013 0
M  V30 4040 C 381.441 -1.88624 -0.494577 0
M  V30 4041 O 380.711 -1.41125 -1.3587 0
M  V30 4042 H 379.291 -0.65535 0.358504 0
M  V30 4043 H 381.953 -1.25592 1.49039 0
M  V30 4044 H 381.049 -2.78178 1.41504 0
M  V30 4045 N 381.35 -0.985608 -1.22978 0
M  V30 4046 C 382.282 -0.488154 -2.23941 0
M  V30 4047 C 383.295 0.41282 -1.57479 0
M  V30 4048 O 384.484 0.216121 -1.77187 0
M  V30 4049 C 381.584 0.312611 -3.37455 0
M  V30 4050 C 380.757 -0.582741 -4.33501 0
M  V30 4051 C 379.816 0.165064 -5.25941 0
M  V30 4052 O 378.842 -0.447077 -5.67442 0
M  V30 4053 N 380.044 1.44953 -5.62111 0
M  V30 4054 H 382.809 -1.3563 -2.67254 0
M  V30 4055 H 380.37 -0.859477 -1.37203 0
M  V30 4056 H 382.362 0.821357 -3.96277 0
M  V30 4057 H 380.932 1.0818 -2.93285 0
M  V30 4058 H 380.152 -1.27225 -3.73105 0
M  V30 4059 H 381.44 -1.19275 -4.94622 0
M  V30 4060 H 380.838 1.9683 -5.30353 0
M  V30 4061 H 379.395 1.90361 -6.23383 0
M  V30 4062 N 382.828 1.3818 -0.7579 0
M  V30 4063 C 383.738 2.3421 -0.135247 0
M  V30 4064 C 384.754 1.59487 0.695683 0
M  V30 4065 O 385.93 1.91657 0.618832 0
M  V30 4066 C 382.995 3.3862 0.744139 0
M  V30 4067 C 382.056 4.2918 -0.101658 0
M  V30 4068 C 381.289 5.28603 0.735851 0
M  V30 4069 O 381.512 5.35166 1.97366 0
M  V30 4070 O 380.446 6.01707 0.152372 0
M  V30 4071 H 384.272 2.8916 -0.928436 0
M  V30 4072 H 381.857 1.40101 -0.518855 0
M  V30 4073 H 383.739 4.02539 1.2466 0
M  V30 4074 H 382.414 2.86019 1.51575 0
M  V30 4075 H 381.321 3.68407 -0.650167 0
M  V30 4076 H 382.654 4.85048 -0.836024 0
M  V30 4077 N 384.306 0.507319 1.49211 0
M  V30 4078 C 385.555 -0.0368315 2.01666 0
M  V30 4079 C 385.868 -1.37459 1.39156 0
M  V30 4080 O 387.074 -2.00579 1.82976 0
M  V30 4081 C 385.53 -0.116089 3.59713 0
M  V30 4082 C 385.138 1.2154 4.31198 0
M  V30 4083 C 386.882 -0.610268 4.2009 0
M  V30 4084 C 384.789 1.09796 5.81119 0
M  V30 4085 H 383.719 -0.0175376 0.753796 0
M  V30 4086 H 386.37 0.647691 1.71689 0
M  V30 4087 H 384.752 -0.8652 3.86433 0
M  V30 4088 H 385.926 1.9783 4.16173 0
M  V30 4089 H 384.241 1.64352 3.82593 0
M  V30 4090 H 386.838 -0.715742 5.29888 0
M  V30 4091 H 387.181 -1.61064 3.8388 0
M  V30 4092 H 387.714 0.0824916 3.97714 0
M  V30 4093 H 384.453 2.0728 6.21864 0
M  V30 4094 H 383.973 0.376058 5.9862 0
M  V30 4095 H 385.652 0.779281 6.4229 0
M  V30 4096 N 385.784 -1.5574 0.241426 0
M  V30 4097 C 386.747 -2.19877 -0.647063 0
M  V30 4098 C 387.747 -1.16642 -1.10686 0
M  V30 4099 O 388.937 -1.41757 -1.01245 0
M  V30 4100 C 386.069 -2.83797 -1.88871 0
M  V30 4101 H 387.262 -2.99772 -0.087574 0
M  V30 4102 H 384.815 -1.56298 -0.00813574 0
M  V30 4103 H 385.55 -2.07824 -2.48957 0
M  V30 4104 H 385.335 -3.59414 -1.56728 0
M  V30 4105 H 386.825 -3.32898 -2.52129 0
M  V30 4106 N 387.262 0.0317525 -1.57568 0
M  V30 4107 C 388.508 0.724175 -1.8943 0
M  V30 4108 C 388.841 1.75149 -0.838836 0
M  V30 4109 O 388.116 1.93948 0.146422 0
M  V30 4110 C 388.399 1.39615 -3.31933 0
M  V30 4111 C 388.252 0.382537 -4.4817 0
M  V30 4112 C 389.571 2.33084 -3.73309 0
M  V30 4113 H 386.69 0.261797 -0.688935 0
M  V30 4114 H 389.332 -0.013017 -1.89996 0
M  V30 4115 H 387.482 2.02451 -3.31581 0
M  V30 4116 H 389.154 -0.243689 -4.60656 0
M  V30 4117 H 387.397 -0.29844 -4.32772 0
M  V30 4118 H 388.068 0.891145 -5.44759 0
M  V30 4119 H 390.544 1.80295 -3.7501 0
M  V30 4120 H 389.42 2.77084 -4.73831 0
M  V30 4121 H 389.681 3.19643 -3.05419 0
M  V30 4122 N 388.74 1.54641 0.303973 0
M  V30 4123 C 389.986 1.74038 1.04109 0
M  V30 4124 C 390.319 0.523051 1.87024 0
M  V30 4125 O 389.594 -0.479874 1.88487 0
M  V30 4126 C 389.877 3.02761 1.94955 0
M  V30 4127 C 389.73 4.34787 1.1524 0
M  V30 4128 C 391.049 3.27336 2.94175 0
M  V30 4129 H 388.168 0.63323 0.377079 0
M  V30 4130 H 390.81 1.87354 0.316001 0
M  V30 4131 H 388.96 2.9154 2.56782 0
M  V30 4132 H 390.632 4.57922 0.557236 0
M  V30 4133 H 388.875 4.31407 0.455053 0
M  V30 4134 H 389.546 5.21116 1.8205 0
M  V30 4135 H 392.022 3.38148 2.42477 0
M  V30 4136 H 390.898 4.18726 3.54908 0
M  V30 4137 H 391.159 2.45491 3.67677 0
M  V30 4138 N 390.218 -0.567019 1.47046 0
M  V30 4139 C 391.448 -1.34831 1.56538 0
M  V30 4140 C 391.856 -1.8802 0.21101 0
M  V30 4141 O 391.199 -1.65152 -0.804387 0
M  V30 4142 C 391.261 -2.56139 2.52256 0
M  V30 4143 C 390.925 -2.24307 3.98165 0
M  V30 4144 C 391.922 -1.82192 4.86931 0
M  V30 4145 C 389.607 -2.35968 4.43423 0
M  V30 4146 C 391.601 -1.52153 6.18973 0
M  V30 4147 C 389.288 -2.05542 5.75496 0
M  V30 4148 C 390.286 -1.63701 6.63092 0
M  V30 4149 O 389.974 -1.33657 7.92711 0
M  V30 4150 H 389.706 -0.417683 0.531523 0
M  V30 4151 H 392.26 -0.694726 1.93294 0
M  V30 4152 H 390.49 -3.24356 2.10548 0
M  V30 4153 H 392.179 -3.18214 2.51982 0
M  V30 4154 H 392.945 -1.72684 4.53217 0
M  V30 4155 H 388.824 -2.67495 3.75456 0
M  V30 4156 H 392.368 -1.19421 6.87302 0
M  V30 4157 H 388.265 -2.14679 6.08755 0
M  V30 4158 H 389.033 -1.4737 8.05124 0
M  V30 4159 N 391.696 -1.35014 -0.812953 0
M  V30 4160 C 392.943 -1.27931 -1.56971 0
M  V30 4161 C 393.271 0.148034 -1.93936 0
M  V30 4162 O 392.526 1.11175 -1.61054 0
M  V30 4163 C 392.825 -2.12524 -2.87347 0
M  V30 4164 C 392.491 -3.61401 -2.6963 0
M  V30 4165 C 391.153 -4.01983 -2.64506 0
M  V30 4166 C 393.505 -4.55894 -2.52607 0
M  V30 4167 C 390.833 -5.35235 -2.40293 0
M  V30 4168 C 393.185 -5.89336 -2.29925 0
M  V30 4169 C 391.849 -6.2907 -2.23219 0
M  V30 4170 H 391.119 -0.468131 -0.574399 0
M  V30 4171 H 393.766 -1.66851 -0.939836 0
M  V30 4172 H 392.071 -1.66463 -3.54679 0
M  V30 4173 H 393.768 -2.04383 -3.45005 0
M  V30 4174 H 390.358 -3.29193 -2.74463 0
M  V30 4175 H 394.542 -4.25431 -2.55583 0
M  V30 4176 H 389.798 -5.65028 -2.33566 0
M  V30 4177 H 393.972 -6.62139 -2.15743 0
M  V30 4178 H 391.599 -7.32256 -2.04219 0
M  V30 4179 N 393.175 1.03435 -1.18907 0
M  V30 4180 C 394.591 1.28973 -0.940111 0
M  V30 4181 C 394.791 1.97676 0.390691 0
M  V30 4182 O 393.847 2.26127 1.12352 0
M  V30 4183 C 395.16 2.14221 -2.11021 0
M  V30 4184 C 396.708 2.27547 -2.14922 0
M  V30 4185 C 397.183 3.16164 -3.31367 0
M  V30 4186 N 398.674 3.23752 -3.31269 0
M  V30 4187 C 399.409 3.92495 -4.18014 0
M  V30 4188 N 398.905 4.63515 -5.14904 0
M  V30 4189 N 400.698 3.88838 -4.05908 0
M  V30 4190 H 392.849 0.57252 -2.04538 0
M  V30 4191 H 395.112 0.315184 -0.894071 0
M  V30 4192 H 394.818 1.71054 -3.073 0
M  V30 4193 H 394.692 3.14919 -2.0762 0
M  V30 4194 H 397.079 2.69947 -1.19217 0
M  V30 4195 H 397.16 1.26418 -2.22378 0
M  V30 4196 H 396.804 2.74474 -4.27348 0
M  V30 4197 H 396.734 4.17339 -3.21148 0
M  V30 4198 H 399.225 2.73167 -2.61129 0
M  V30 4199 H 399.538 5.13583 -5.77453 0
M  V30 4200 H 397.883 4.62398 -5.18857 0
M  V30 4201 H 401.074 3.32491 -3.29495 0
M  V30 4202 H 401.247 4.4214 -4.73726 0
M  V30 4203 N 394.653 0.992116 1.22453 0
M  V30 4204 C 395.93 0.583508 1.86694 0
M  V30 4205 C 396.31 -0.9392 1.89056 0
M  V30 4206 O 395.658 -1.82081 1.38053 0
M  V30 4207 C 395.868 1.20304 3.2761 0
M  V30 4208 C 397.216 1.30308 4.0411 0
M  V30 4209 O 398.24 1.15737 3.36873 0
M  V30 4210 O 397.099 1.53615 5.24466 0
M  V30 4211 H 394.193 0.198129 0.802916 0
M  V30 4212 H 396.739 1.08794 1.30238 0
M  V30 4213 H 395.511 2.24461 3.2052 0
M  V30 4214 H 395.134 0.684144 3.9167 0
M  V30 4215 N 396.131 -1.37776 0.765217 0
M  V30 4216 C 397.379 -1.99454 0.325943 0
M  V30 4217 C 397.7 -1.61049 -1.09947 0
M  V30 4218 O 396.97 -0.872821 -1.75381 0
M  V30 4219 H 395.55 -0.737697 0.117525 0
M  V30 4220 H 398.212 -1.68359 0.981895 0
M  V30 4221 H 397.308 -3.09547 0.398353 0
M  V30 4222 N 397.609 -0.515225 -1.4894 0
M  V30 4223 C 398.839 0.0205735 -2.0659 0
M  V30 4224 C 399.247 1.30064 -1.37405 0
M  V30 4225 O 398.59 1.78087 -0.450632 0
M  V30 4226 C 398.652 0.330124 -3.57981 0
M  V30 4227 C 398.316 -0.854295 -4.48944 0
M  V30 4228 C 399.313 -1.7487 -4.89609 0
M  V30 4229 C 396.998 -1.05712 -4.9105 0
M  V30 4230 C 398.992 -2.82996 -5.71132 0
M  V30 4231 C 396.679 -2.14154 -5.72347 0
M  V30 4232 C 397.677 -3.0263 -6.12294 0
M  V30 4233 O 397.365 -4.09198 -6.91962 0
M  V30 4234 H 397.097 -0.0236833 -0.675585 0
M  V30 4235 H 399.651 -0.715956 -1.92518 0
M  V30 4236 H 397.881 1.12044 -3.70112 0
M  V30 4237 H 399.57 0.806233 -3.97812 0
M  V30 4238 H 400.336 -1.60388 -4.57712 0
M  V30 4239 H 396.215 -0.377788 -4.59449 0
M  V30 4240 H 399.759 -3.52083 -6.02232 0
M  V30 4241 H 395.656 -2.28626 -6.03656 0
M  V30 4242 H 396.424 -4.06726 -7.10293 0
M  V30 4243 N 399.087 1.5561 -0.249682 0
M  V30 4244 C 400.02 2.17537 0.689408 0
M  V30 4245 C 400.998 1.12829 1.17083 0
M  V30 4246 O 402.182 1.41229 1.24846 0
M  V30 4247 C 399.309 2.77828 1.93725 0
M  V30 4248 C 398.355 3.95615 1.59346 0
M  V30 4249 S 399.188 5.30988 0.69367 0
M  V30 4250 C 400.344 5.94734 1.95046 0
M  V30 4251 H 400.577 2.96852 0.163142 0
M  V30 4252 H 398.11 1.54362 -0.0341166 0
M  V30 4253 H 400.068 3.13199 2.65361 0
M  V30 4254 H 398.729 1.98454 2.43465 0
M  V30 4255 H 397.922 4.364 2.52132 0
M  V30 4256 H 397.524 3.61535 0.957512 0
M  V30 4257 H 399.816 6.12419 2.89739 0
M  V30 4258 H 400.759 6.90109 1.58604 0
M  V30 4259 H 401.167 5.23832 2.10381 0
M  V30 4260 N 400.565 -0.0233959 1.57583 0
M  V30 4261 C 401.976 -0.56927 1.77809 0
M  V30 4262 C 402.327 -1.75284 0.881472 0
M  V30 4263 O 401.452 -2.1626 0.0777805 0
M  V30 4264 C 402.047 -1.03949 3.22459 0
M  V30 4265 C 400.606 -1.53084 3.43864 0
M  V30 4266 C 399.753 -0.471454 2.73263 0
M  V30 4267 H 402.704 0.202825 1.57399 0
M  V30 4268 H 402.725 -1.90661 3.29285 0
M  V30 4269 H 402.237 -0.177865 3.87692 0
M  V30 4270 H 400.338 -2.41414 2.83814 0
M  V30 4271 H 400.451 -1.57443 4.52491 0
M  V30 4272 H 398.815 -0.927788 2.37201 0
M  V30 4273 H 399.598 0.380808 3.41181 0
M  V30 4274 N 402.043 -1.548 -0.295768 0
M  V30 4275 C 403.459 -1.4613 -0.641722 0
M  V30 4276 C 403.659 -0.656771 -1.90496 0
M  V30 4277 O 402.715 -0.166547 -2.5195 0
M  V30 4278 C 404.028 -2.90141 -0.789852 0
M  V30 4279 C 405.576 -3.00216 -0.885396 0
M  V30 4280 C 406.051 -4.45434 -1.06548 0
M  V30 4281 N 407.542 -4.49166 -1.13156 0
M  V30 4282 C 408.277 -5.58717 -1.28929 0
M  V30 4283 N 407.773 -6.78182 -1.41567 0
M  V30 4284 N 409.566 -5.46415 -1.31859 0
M  V30 4285 H 401.717 -2.05574 0.534147 0
M  V30 4286 H 403.98 -0.931259 0.177372 0
M  V30 4287 H 403.686 -3.51635 0.0675598 0
M  V30 4288 H 403.56 -3.37859 -1.67724 0
M  V30 4289 H 405.947 -2.38833 -1.73329 0
M  V30 4290 H 406.028 -2.55787 0.0261185 0
M  V30 4291 H 405.672 -5.07413 -0.222335 0
M  V30 4292 H 405.602 -4.87499 -1.9913 0
M  V30 4293 H 408.093 -3.631 -1.04721 0
M  V30 4294 H 408.406 -7.57428 -1.53372 0
M  V30 4295 H 406.751 -6.81037 -1.38613 0
M  V30 4296 H 409.942 -4.5203 -1.21601 0
M  V30 4297 H 410.115 -6.31841 -1.43808 0
M  V30 4298 N 403.521 0.559213 -1.47345 0
M  V30 4299 C 404.453 1.68161 -1.55738 0
M  V30 4300 C 405.466 1.56636 -0.443744 0
M  V30 4301 O 406.655 1.6363 -0.713258 0
M  V30 4302 C 403.755 3.06611 -1.4437 0
M  V30 4303 C 402.928 3.4391 -2.70268 0
M  V30 4304 C 401.987 4.61515 -2.52765 0
M  V30 4305 O 401.013 4.66197 -3.26572 0
M  V30 4306 N 402.215 5.57883 -1.6046 0
M  V30 4307 H 404.98 1.61408 -2.52522 0
M  V30 4308 H 402.541 0.7458 -1.43699 0
M  V30 4309 H 404.533 3.83117 -1.30398 0
M  V30 4310 H 403.103 3.07602 -0.556766 0
M  V30 4311 H 402.323 2.56873 -2.99015 0
M  V30 4312 H 403.611 3.65605 -3.53851 0
M  V30 4313 H 403.009 5.56855 -0.996422 0
M  V30 4314 H 401.566 6.33723 -1.52441 0
M  V30 4315 N 404.999 1.35443 0.805782 0
M  V30 4316 C 406.229 1.31687 1.59192 0
M  V30 4317 C 406.637 -0.10756 1.88894 0
M  V30 4318 O 405.98 -1.07017 1.49309 0
M  V30 4319 C 406.042 2.05686 2.94845 0
M  V30 4320 C 405.706 3.54868 2.87954 0
M  V30 4321 C 406.703 4.49444 2.61335 0
M  V30 4322 C 404.388 3.97528 3.07046 0
M  V30 4323 C 406.382 5.84655 2.53885 0
M  V30 4324 C 404.069 5.32833 2.99219 0
M  V30 4325 C 405.067 6.26209 2.72674 0
M  V30 4326 O 404.755 7.59032 2.64811 0
M  V30 4327 H 404.487 0.453878 0.50097 0
M  V30 4328 H 407.041 1.78892 1.0093 0
M  V30 4329 H 405.271 1.5312 3.55093 0
M  V30 4330 H 406.96 1.94998 3.55993 0
M  V30 4331 H 407.726 4.17804 2.46303 0
M  V30 4332 H 403.605 3.25233 3.26718 0
M  V30 4333 H 407.149 6.57508 2.33086 0
M  V30 4334 H 403.046 5.64087 3.13809 0
M  V30 4335 H 403.814 7.68967 2.80413 0
M  V30 4336 N 406.477 -1.02803 1.19454 0
M  V30 4337 C 407.702 -1.80378 1.02364 0
M  V30 4338 C 408.127 -1.83282 -0.423007 0
M  V30 4339 O 407.485 -1.25945 -1.30413 0
M  V30 4340 C 407.533 -3.23248 1.59821 0
M  V30 4341 O 406.637 -4.04 0.828105 0
M  V30 4342 H 405.978 -0.556799 0.361761 0
M  V30 4343 H 408.508 -1.29385 1.58495 0
M  V30 4344 H 408.518 -3.73994 1.63073 0
M  V30 4345 H 407.193 -3.2045 2.65113 0
M  V30 4346 H 405.77 -3.62635 0.86891 0
M  V30 4347 N 407.956 -0.998596 -1.21925 0
M  V30 4348 C 408.886 -0.573688 -2.26343 0
M  V30 4349 C 409.867 0.402296 -1.65274 0
M  V30 4350 O 411.052 0.291683 -1.91997 0
M  V30 4351 C 408.182 0.106839 -3.47136 0
M  V30 4352 C 407.136 -0.788269 -4.20678 0
M  V30 4353 C 406.462 0.0254927 -5.34694 0
M  V30 4354 C 407.762 -2.08784 -4.78755 0
M  V30 4355 H 409.456 -1.44651 -2.62138 0
M  V30 4356 H 407.002 -0.696975 -1.26009 0
M  V30 4357 H 408.955 0.415531 -4.19346 0
M  V30 4358 H 407.679 1.01424 -3.10452 0
M  V30 4359 H 406.338 -1.08069 -3.50309 0
M  V30 4360 H 405.986 0.933989 -4.94253 0
M  V30 4361 H 405.686 -0.570437 -5.84825 0
M  V30 4362 H 407.21 0.328147 -6.09718 0
M  V30 4363 H 408.624 -1.84272 -5.42878 0
M  V30 4364 H 407.021 -2.63307 -5.39249 0
M  V30 4365 H 408.091 -2.76284 -3.98491 0
M  V30 4366 N 409.434 1.37368 -0.772513 0
M  V30 4367 C 410.366 2.28899 -0.117502 0
M  V30 4368 C 411.379 1.4867 0.663405 0
M  V30 4369 O 412.568 1.71314 0.501372 0
M  V30 4370 C 409.668 3.2788 0.857192 0
M  V30 4371 C 408.841 4.37207 0.129938 0
M  V30 4372 C 407.9 5.16257 1.01811 0
M  V30 4373 O 406.926 5.67159 0.481601 0
M  V30 4374 N 408.128 5.31058 2.3443 0
M  V30 4375 H 410.893 2.85752 -0.903662 0
M  V30 4376 H 408.454 1.49353 -0.62493 0
M  V30 4377 H 410.446 3.77647 1.45482 0
M  V30 4378 H 409.016 2.7179 1.54432 0
M  V30 4379 H 408.236 3.88827 -0.648605 0
M  V30 4380 H 409.524 5.07434 -0.372559 0
M  V30 4381 H 408.922 4.91287 2.80452 0
M  V30 4382 H 407.479 5.84131 2.89197 0
M  V30 4383 N 410.912 0.523116 1.48665 0
M  V30 4384 C 411.86 -0.256859 2.31177 0
M  V30 4385 C 412.854 -0.94199 1.40794 0
M  V30 4386 O 414.06 -0.867157 1.57735 0
M  V30 4387 H 410.435 -0.1017 0.745091 0
M  V30 4388 H 412.406 0.458739 2.94853 0
M  V30 4389 C 411.155 -1.29503 3.22683 0
M  V30 4390 H 410.478 -0.777248 3.92172 0
M  V30 4391 H 411.918 -1.81233 3.83315 0
M  V30 4392 C 410.377 -2.32501 2.43813 0
M  V30 4393 O 410.907 -3.3881 2.15803 0
M  V30 4394 N 409.113 -2.05538 2.05432 0
M  V30 4395 H 408.66 -1.19104 2.28412 0
M  V30 4396 H 408.618 -2.74676 1.52973 0
M  V30 4397 N 412.39 -1.55475 0.257931 0
M  V30 4398 C 413.636 -2.00237 -0.357338 0
M  V30 4399 C 413.991 -1.14313 -1.54759 0
M  V30 4400 O 413.284 -0.201187 -1.90541 0
M  V30 4401 C 413.478 -3.48183 -0.806433 0
M  V30 4402 C 413.307 -4.48422 0.338758 0
M  V30 4403 C 412.077 -4.98651 0.817011 0
M  V30 4404 C 414.275 -5.00827 1.16949 0
M  V30 4405 N 412.257 -5.82658 1.93346 0
M  V30 4406 C 413.628 -5.82113 2.13413 0
M  V30 4407 C 415.683 -4.83104 1.2048 0
M  V30 4408 C 414.386 -6.47566 3.13131 0
M  V30 4409 C 416.412 -5.49343 2.19034 0
M  V30 4410 C 415.774 -6.30427 3.14232 0
M  V30 4411 H 411.873 -0.776034 -0.0964083 0
M  V30 4412 H 414.457 -1.90995 0.37803 0
M  V30 4413 H 412.628 -3.57801 -1.51107 0
M  V30 4414 H 414.36 -3.79802 -1.39758 0
M  V30 4415 H 411.115 -4.71914 0.39925 0
M  V30 4416 H 411.539 -6.29356 2.49478 0
M  V30 4417 H 416.181 -4.20036 0.482634 0
M  V30 4418 H 413.899 -7.09793 3.8629 0
M  V30 4419 H 417.485 -5.37579 2.22485 0
M  V30 4420 H 416.365 -6.80777 3.89246 0
M  V30 4421 N 413.868 0.0150385 -1.57593 0
M  V30 4422 C 414.778 1.02791 -2.10882 0
M  V30 4423 C 415.794 1.38702 -1.0506 0
M  V30 4424 O 416.97 1.47739 -1.36877 0
M  V30 4425 C 414.035 2.30568 -2.58919 0
M  V30 4426 C 413.096 2.01108 -3.79281 0
M  V30 4427 C 412.329 3.22794 -4.25018 0
M  V30 4428 O 412.552 4.33959 -3.70183 0
M  V30 4429 O 411.486 3.07672 -5.17322 0
M  V30 4430 H 415.312 0.604973 -2.97613 0
M  V30 4431 H 412.897 0.23292 -1.47573 0
M  V30 4432 H 414.779 3.05662 -2.90084 0
M  V30 4433 H 413.454 2.72129 -1.75293 0
M  V30 4434 H 412.361 1.23537 -3.53114 0
M  V30 4435 H 413.694 1.64394 -4.63935 0
M  V30 4436 N 415.346 1.54954 0.287554 0
M  V30 4437 C 416.309 1.86076 1.33823 0
M  V30 4438 C 417.309 0.734414 1.43049 0
M  V30 4439 O 418.499 1.00266 1.42452 0
M  V30 4440 C 415.631 2.05305 2.72144 0
M  V30 4441 H 416.824 2.79984 1.07465 0
M  V30 4442 H 414.377 1.47223 0.524902 0
M  V30 4443 H 415.112 1.1373 3.03704 0
M  V30 4444 H 414.897 2.873 2.66836 0
M  V30 4445 H 416.387 2.30706 3.48087 0
M  V30 4446 N 416.824 -0.551391 1.4764 0
M  V30 4447 C 418.24 -0.877887 1.33287 0
M  V30 4448 C 418.44 -1.98817 0.327721 0
M  V30 4449 O 417.496 -2.51171 -0.258695 0
M  V30 4450 C 418.809 -1.26563 2.72768 0
M  V30 4451 C 420.357 -1.37673 2.81097 0
M  V30 4452 C 420.832 -1.79799 4.21232 0
M  V30 4453 N 422.323 -1.8694 4.23802 0
M  V30 4454 C 423.058 -2.20876 5.29151 0
M  V30 4455 N 422.554 -2.53386 6.448 0
M  V30 4456 N 424.347 -2.217 5.16532 0
M  V30 4457 H 416.498 0.18153 2.11623 0
M  V30 4458 H 418.761 0.0185514 0.947818 0
M  V30 4459 H 418.467 -0.523591 3.47781 0
M  V30 4460 H 418.341 -2.22052 3.04915 0
M  V30 4461 H 420.728 -2.10956 2.06353 0
M  V30 4462 H 420.809 -0.40357 2.52596 0
M  V30 4463 H 420.453 -1.07083 4.96483 0
M  V30 4464 H 420.383 -2.78128 4.4716 0
M  V30 4465 H 422.874 -1.64179 3.40373 0
M  V30 4466 H 423.187 -2.78325 7.20941 0
M  V30 4467 H 421.532 -2.50953 6.48111 0
M  V30 4468 H 424.723 -1.95745 4.25207 0
M  V30 4469 H 424.896 -2.47818 5.98741 0
M  V30 4470 N 418.302 -1.35869 -0.798587 0
M  V30 4471 C 419.232 -1.32118 -1.92528 0
M  V30 4472 C 420.213 -0.194209 -1.68988 0
M  V30 4473 O 421.398 -0.390426 -1.90235 0
M  V30 4474 C 418.528 -1.10047 -3.29404 0
M  V30 4475 C 417.482 -2.19471 -3.67446 0
M  V30 4476 C 416.808 -1.82555 -5.02571 0
M  V30 4477 C 418.108 -3.61495 -3.76987 0
M  V30 4478 H 419.802 -2.26394 -1.95924 0
M  V30 4479 H 417.348 -1.08981 -0.94123 0
M  V30 4480 H 419.301 -1.06061 -4.07835 0
M  V30 4481 H 418.025 -0.122195 -3.26371 0
M  V30 4482 H 416.684 -2.22568 -2.91306 0
M  V30 4483 H 416.332 -0.833249 -4.9605 0
M  V30 4484 H 416.032 -2.5581 -5.28995 0
M  V30 4485 H 417.556 -1.80108 -5.83432 0
M  V30 4486 H 418.97 -3.60676 -4.4563 0
M  V30 4487 H 417.367 -4.33577 -4.14887 0
M  V30 4488 H 418.437 -3.97065 -2.78329 0
M  V30 4489 N 419.78 1.02168 -1.19998 0
M  V30 4490 C 420.71 2.12488 -0.96804 0
M  V30 4491 C 421.691 1.69799 0.101185 0
M  V30 4492 O 422.876 1.94121 -0.0552993 0
M  V30 4493 C 420.006 3.43479 -0.513776 0
M  V30 4494 C 418.96 3.99884 -1.52566 0
M  V30 4495 C 418.286 5.26582 -0.928214 0
M  V30 4496 C 419.586 4.33861 -2.90795 0
M  V30 4497 H 421.28 2.32149 -1.89069 0
M  V30 4498 H 418.826 1.11564 -0.910468 0
M  V30 4499 H 420.779 4.20036 -0.338774 0
M  V30 4500 H 419.503 3.23561 0.444493 0
M  V30 4501 H 418.162 3.25429 -1.68794 0
M  V30 4502 H 417.81 5.02986 0.0378289 0
M  V30 4503 H 417.51 5.65284 -1.60397 0
M  V30 4504 H 419.034 6.05799 -0.764167 0
M  V30 4505 H 420.448 5.01327 -2.78109 0
M  V30 4506 H 418.845 4.83664 -3.55231 0
M  V30 4507 H 419.915 3.42848 -3.42904 0
M  V30 4508 N 421.258 1.00505 1.21394 0
M  V30 4509 C 422.188 0.585684 2.26035 0
M  V30 4510 C 423.169 -0.393525 1.65485 0
M  V30 4511 O 424.354 -0.281497 1.92149 0
M  V30 4512 C 421.484 -0.0884283 3.47187 0
M  V30 4513 C 420.438 0.810567 4.20254 0
M  V30 4514 C 419.764 0.00286382 5.347 0
M  V30 4515 C 421.064 2.1132 4.77641 0
M  V30 4516 H 422.758 1.46039 2.61368 0
M  V30 4517 H 420.304 0.703648 1.25638 0
M  V30 4518 H 422.257 -0.393286 4.19561 0
M  V30 4519 H 420.981 -0.997766 3.10986 0
M  V30 4520 H 419.64 1.09925 3.49731 0
M  V30 4521 H 419.288 -0.907765 4.94741 0
M  V30 4522 H 418.988 0.601444 5.84514 0
M  V30 4523 H 420.512 -0.295808 6.09883 0
M  V30 4524 H 421.926 1.87148 5.41893 0
M  V30 4525 H 420.323 2.66164 5.37845 0
M  V30 4526 H 421.393 2.78393 3.9702 0
M  V30 4527 N 422.737 -1.36956 0.779787 0
M  V30 4528 C 423.647 -2.33965 0.172491 0
M  V30 4529 C 424.663 -1.60574 -0.670222 0
M  V30 4530 O 425.839 -1.92617 -0.588263 0
M  V30 4531 C 422.904 -3.39761 -0.690173 0
M  V30 4532 C 421.965 -4.28964 0.169924 0
M  V30 4533 C 421.198 -5.29707 -0.651662 0
M  V30 4534 O 421.421 -5.38238 -1.88827 0
M  V30 4535 O 420.355 -6.01873 -0.0566264 0
M  V30 4536 H 424.181 -2.87647 0.974321 0
M  V30 4537 H 421.766 -1.39258 0.541078 0
M  V30 4538 H 423.648 -4.04471 -1.1824 0
M  V30 4539 H 422.323 -2.88394 -1.47006 0
M  V30 4540 H 421.23 -3.67326 0.708696 0
M  V30 4541 H 422.563 -4.83656 0.913085 0
M  V30 4542 N 424.215 -0.530993 -1.48385 0
M  V30 4543 C 425.631 -0.188919 -1.58478 0
M  V30 4544 C 425.831 1.30786 -1.53288 0
M  V30 4545 O 424.887 2.08619 -1.42248 0
M  V30 4546 C 426.2 -0.792343 -2.90073 0
M  V30 4547 C 427.748 -0.76117 -3.03604 0
M  V30 4548 C 428.223 -1.34319 -4.37861 0
M  V30 4549 N 429.714 -1.3052 -4.44431 0
M  V30 4550 C 430.449 -1.72543 -5.46824 0
M  V30 4551 N 429.945 -2.22299 -6.56167 0
M  V30 4552 N 431.738 -1.63773 -5.37712 0
M  V30 4553 H 423.889 -1.50377 -1.50002 0
M  V30 4554 H 426.152 -0.625559 -0.712306 0
M  V30 4555 H 425.858 -1.84323 -2.99529 0
M  V30 4556 H 425.732 -0.270026 -3.76232 0
M  V30 4557 H 428.119 0.280957 -2.93759 0
M  V30 4558 H 428.2 -1.32097 -2.19053 0
M  V30 4559 H 427.844 -2.38425 -4.4846 0
M  V30 4560 H 427.774 -0.759064 -5.21101 0
M  V30 4561 H 430.265 -0.940973 -3.65997 0
M  V30 4562 H 430.578 -2.52356 -7.30436 0
M  V30 4563 H 428.923 -2.26293 -6.57127 0
M  V30 4564 H 432.114 -1.24698 -4.51185 0
M  V30 4565 H 432.287 -1.96844 -6.17379 0
M  V30 4566 N 425.693 1.55336 -0.266172 0
M  V30 4567 C 426.918 2.04258 0.359661 0
M  V30 4568 C 427.343 1.14359 1.49344 0
M  V30 4569 O 426.701 0.140369 1.80756 0
M  V30 4570 C 426.749 3.50997 0.826635 0
M  V30 4571 O 425.853 3.64204 1.93466 0
M  V30 4572 H 425.194 0.659668 0.075727 0
M  V30 4573 H 427.724 2.00694 -0.39786 0
M  V30 4574 H 427.734 3.9219 1.12477 0
M  V30 4575 H 426.409 4.159 -0.00293032 0
M  V30 4576 H 424.986 3.34913 1.63974 0
M  V30 4577 N 427.171 -0.0066808 1.57599 0
M  V30 4578 C 428.121 -1.0086 2.04478 0
M  V30 4579 C 429.105 -1.30714 0.938231 0
M  V30 4580 O 430.297 -1.29924 1.20203 0
M  V30 4581 C 427.426 -2.30273 2.54615 0
M  V30 4582 C 426.512 -2.03413 3.72134 0
M  V30 4583 N 426.903 -1.46688 4.84062 0
M  V30 4584 C 425.201 -2.33589 3.79937 0
M  V30 4585 C 425.902 -1.36146 5.65543 0
M  V30 4586 N 424.878 -1.84477 5.1134 0
M  V30 4587 H 428.68 -0.564402 2.8843 0
M  V30 4588 H 426.194 -0.212521 1.61003 0
M  V30 4589 H 428.191 -3.02885 2.86472 0
M  V30 4590 H 426.851 -2.75352 1.72079 0
M  V30 4591 H 427.862 -1.14658 5.05049 0
M  V30 4592 H 424.539 -2.81589 3.08243 0
M  V30 4593 H 425.929 -0.925873 6.6549 0
M  V30 4594 N 428.649 -1.55105 -0.279332 0
M  V30 4595 C 429.612 -1.86783 -1.32834 0
M  V30 4596 C 430.612 -0.74199 -1.42657 0
M  V30 4597 O 431.802 -1.0102 -1.41918 0
M  V30 4598 C 428.934 -2.06746 -2.71052 0
M  V30 4599 H 430.127 -2.8055 -1.05979 0
M  V30 4600 H 427.68 -1.47499 -0.517087 0
M  V30 4601 H 428.415 -1.15339 -3.03097 0
M  V30 4602 H 428.2 -2.88711 -2.65309 0
M  V30 4603 H 429.69 -2.32549 -3.46858 0
M  V30 4604 N 430.127 0.543554 -1.4793 0
M  V30 4605 C 431.09 1.63156 -1.60975 0
M  V30 4606 C 432.09 1.53346 -0.483899 0
M  V30 4607 O 433.28 1.5726 -0.749339 0
M  V30 4608 C 430.412 3.02743 -1.56716 0
M  V30 4609 H 431.605 1.52934 -2.57975 0
M  V30 4610 H 429.158 0.764557 -1.36324 0
M  V30 4611 H 429.893 3.18484 -0.611418 0
M  V30 4612 H 429.678 3.11272 -2.38438 0
M  V30 4613 H 431.168 3.81871 -1.6901 0
M  V30 4614 N 431.605 1.3629 0.791371 0
M  V30 4615 C 432.552 1.30458 1.90393 0
M  V30 4616 C 433.522 0.173632 1.6519 0
M  V30 4617 O 434.707 0.35983 1.87376 0
M  V30 4618 C 431.847 1.09777 3.27174 0
M  V30 4619 C 430.96 2.31929 3.64462 0
M  V30 4620 C 430.095 2.04276 4.90352 0
M  V30 4621 C 429.134 3.224 5.20312 0
M  V30 4622 N 428.271 2.94424 6.37385 0
M  V30 4623 H 433.111 2.25589 1.94714 0
M  V30 4624 H 430.648 1.12122 0.952216 0
M  V30 4625 H 432.606 0.958133 4.06049 0
M  V30 4626 H 431.236 0.183014 3.22281 0
M  V30 4627 H 430.288 2.56703 2.80727 0
M  V30 4628 H 431.6 3.20085 3.82553 0
M  V30 4629 H 430.754 1.87231 5.77087 0
M  V30 4630 H 429.493 1.13428 4.74326 0
M  V30 4631 H 428.498 3.40005 4.32061 0
M  V30 4632 H 429.723 4.14071 5.38258 0
M  V30 4633 H 427.669 2.06185 6.22755 0
M  V30 4634 H 427.586 3.76118 6.55798 0
M  V30 4635 H 428.854 2.80953 7.27108 0
M  V30 4636 N 433.083 -1.0153 1.20538 0
M  V30 4637 C 434.323 -1.76689 1.02763 0
M  V30 4638 C 434.687 -1.87065 -0.432513 0
M  V30 4639 O 435.888 -2.58684 -0.730481 0
M  V30 4640 C 434.159 -3.14707 1.69393 0
M  V30 4641 S 435.718 -4.05886 1.66738 0
M  V30 4642 H 432.536 -0.608076 0.368463 0
M  V30 4643 H 435.138 -1.21558 1.53114 0
M  V30 4644 H 433.842 -3.04782 2.74838 0
M  V30 4645 H 433.373 -3.74913 1.19179 0
M  V30 4646 H 435.388 -4.91221 0.70117 0
M  V30 4647 N 434.561 -1.01147 -1.20859 0
M  V30 4648 C 435.972 -0.730205 -1.71828 0
M  V30 4649 C 436.323 0.751662 -1.8123 0
M  V30 4650 O 435.448 1.58686 -1.47132 0
M  V30 4651 C 436.043 -1.31885 -3.12077 0
M  V30 4652 C 434.602 -1.08656 -3.60376 0
M  V30 4653 C 433.749 -1.42769 -2.37723 0
M  V30 4654 H 436.7 -1.18158 -1.05945 0
M  V30 4655 H 436.721 -0.706793 -3.73878 0
M  V30 4656 H 436.233 -2.39737 -3.05201 0
M  V30 4657 H 434.334 -0.0254814 -3.72591 0
M  V30 4658 H 434.447 -1.76301 -4.45483 0
M  V30 4659 H 432.811 -0.846603 -2.40218 0
M  V30 4660 H 433.594 -2.51666 -2.33493 0
M  V30 4661 N 436.039 1.36541 -0.78704 0
M  V30 4662 C 437.316 1.9355 -0.282424 0
M  V30 4663 C 437.696 1.71919 1.22503 0
M  V30 4664 O 437.044 1.07677 2.01539 0
M  V30 4665 C 437.254 3.4246 -0.672462 0
M  V30 4666 C 438.602 4.19582 -0.650863 0
M  V30 4667 O 439.626 3.50889 -0.612789 0
M  V30 4668 O 438.485 5.42106 -0.691623 0
M  V30 4669 H 435.579 0.824091 -0.0693 0
M  V30 4670 H 438.125 1.45736 -0.869423 0
M  V30 4671 H 436.897 3.51851 -1.71221 0
M  V30 4672 H 436.52 3.97556 -0.0592211 0
M  V30 4673 N 437.518 0.538854 1.48102 0
M  V30 4674 C 438.767 0.0059532 2.01699 0
M  V30 4675 C 439.08 -1.34476 1.42041 0
M  V30 4676 O 440.286 -1.96653 1.87189 0
M  V30 4677 C 438.742 -0.0397627 3.59878 0
M  V30 4678 C 438.35 1.30659 4.28523 0
M  V30 4679 C 440.094 -0.521024 4.2129 0
M  V30 4680 C 438.001 1.22098 5.78659 0
M  V30 4681 H 436.931 -0.00154456 0.753998 0
M  V30 4682 H 439.582 0.683963 1.70277 0
M  V30 4683 H 437.964 -0.783037 3.88181 0
M  V30 4684 H 439.138 2.06613 4.11883 0
M  V30 4685 H 437.453 1.7243 3.79021 0
M  V30 4686 H 440.05 -0.603184 5.31287 0
M  V30 4687 H 440.393 -1.52885 3.8721 0
M  V30 4688 H 440.926 0.166834 3.9745 0
M  V30 4689 H 437.665 2.20424 6.17328 0
M  V30 4690 H 437.185 0.50295 5.97688 0
M  V30 4691 H 438.864 0.915345 6.40492 0
M  V30 4692 N 438.996 -1.55193 0.274407 0
M  V30 4693 C 439.959 -2.212 -0.600279 0
M  V30 4694 C 440.959 -1.18963 -1.08187 0
M  V30 4695 O 442.149 -1.43873 -0.982158 0
M  V30 4696 C 439.281 -2.87739 -1.82809 0
M  V30 4697 H 440.474 -2.9989 -0.0239682 0
M  V30 4698 H 438.027 -1.5628 0.0250192 0
M  V30 4699 H 438.762 -2.13058 -2.44493 0
M  V30 4700 H 438.547 -3.62658 -1.49069 0
M  V30 4701 H 440.037 -3.38171 -2.45011 0
M  V30 4702 N 440.474 -0.00167713 -1.576 0
M  V30 4703 C 441.702 0.693759 -1.94922 0
M  V30 4704 C 442.117 1.67215 -0.876626 0
M  V30 4705 O 441.474 1.81929 0.144279 0
M  V30 4706 C 441.525 1.42416 -3.32265 0
M  V30 4707 O 441.246 0.485014 -4.35407 0
M  V30 4708 C 442.747 2.21395 -3.84056 0
M  V30 4709 H 439.967 0.193118 -0.642609 0
M  V30 4710 H 442.511 -0.0532952 -2.04431 0
M  V30 4711 H 440.666 2.12284 -3.24059 0
M  V30 4712 H 441.08 1.00053 -5.14868 0
M  V30 4713 H 442.554 2.67996 -4.82578 0
M  V30 4714 H 443.031 3.04142 -3.16851 0
M  V30 4715 H 443.637 1.56542 -3.95443 0
M  V30 4716 N 441.952 1.55251 0.271103 0
M  V30 4717 C 442.884 1.84675 1.35749 0
M  V30 4718 C 443.897 0.731366 1.45447 0
M  V30 4719 O 445.086 1.00924 1.4723 0
M  V30 4720 C 442.186 1.99638 2.73857 0
M  V30 4721 C 441.359 3.30312 2.86727 0
M  V30 4722 C 440.418 3.35318 4.05522 0
M  V30 4723 O 439.444 4.08682 3.96191 0
M  V30 4724 N 440.646 2.62857 5.17577 0
M  V30 4725 H 443.411 2.78445 1.10853 0
M  V30 4726 H 440.972 1.55191 0.461218 0
M  V30 4727 H 442.964 2.00355 3.51625 0
M  V30 4728 H 441.534 1.12725 2.91568 0
M  V30 4729 H 440.754 3.42118 1.95829 0
M  V30 4730 H 442.042 4.16488 2.92258 0
M  V30 4731 H 441.44 2.02939 5.28046 0
M  V30 4732 H 439.997 2.69295 5.93568 0
M  V30 4733 N 443.43 -0.535701 1.48216 0
M  V30 4734 C 444.36 -1.65014 1.65204 0
M  V30 4735 C 445.341 -1.62554 0.501011 0
M  V30 4736 O 446.526 -1.7984 0.732886 0
M  V30 4737 C 443.656 -3.03616 1.68626 0
M  V30 4738 C 442.61 -3.20932 2.83172 0
M  V30 4739 C 441.936 -4.60537 2.71679 0
M  V30 4740 C 443.236 -3.04249 4.24535 0
M  V30 4741 H 444.93 -1.51053 2.58502 0
M  V30 4742 H 442.476 -0.725262 1.24402 0
M  V30 4743 H 444.429 -3.81446 1.79099 0
M  V30 4744 H 443.153 -3.18587 0.719026 0
M  V30 4745 H 441.812 -2.45517 2.72244 0
M  V30 4746 H 441.46 -4.72336 1.72937 0
M  V30 4747 H 441.16 -4.73069 3.48538 0
M  V30 4748 H 442.684 -5.40475 2.84112 0
M  V30 4749 H 444.098 -3.71877 4.36326 0
M  V30 4750 H 442.495 -3.28278 5.02348 0
M  V30 4751 H 443.565 -2.00739 4.41397 0
M  V30 4752 N 444.908 -1.36708 -0.784132 0
M  V30 4753 C 445.871 -1.31307 -1.87859 0
M  V30 4754 C 446.871 -0.219654 -1.59293 0
M  V30 4755 O 448.061 -0.47476 -1.67606 0
M  V30 4756 C 445.193 -1.03679 -3.24751 0
M  V30 4757 H 446.386 -2.28647 -1.94064 0
M  V30 4758 H 443.939 -1.21558 -0.98252 0
M  V30 4759 H 444.674 -0.0681936 -3.24228 0
M  V30 4760 H 444.459 -1.82811 -3.46876 0
M  V30 4761 H 445.949 -1.02518 -4.04821 0
M  V30 4762 N 446.386 1.0089 -1.21074 0
M  V30 4763 C 447.634 1.74262 -1.02358 0
M  V30 4764 C 447.955 1.89869 0.444393 0
M  V30 4765 O 447.225 1.44677 1.32081 0
M  V30 4766 H 445.805 0.645615 -0.375754 0
M  V30 4767 H 448.467 1.21596 -1.52317 0
M  V30 4768 H 447.563 2.74328 -1.4883 0
M  V30 4769 N 447.864 1.01787 1.20321 0
M  V30 4770 C 449.092 0.727194 1.937 0
M  V30 4771 C 449.507 -0.712305 1.74848 0
M  V30 4772 O 448.864 -1.48327 1.06327 0
M  V30 4773 C 448.915 1.05497 3.45764 0
M  V30 4774 O 448.636 2.43794 3.64 0
M  V30 4775 C 450.137 0.785534 4.36285 0
M  V30 4776 H 447.357 0.266939 0.615617 0
M  V30 4777 H 449.901 1.35939 1.52777 0
M  V30 4778 H 448.056 0.468158 3.84561 0
M  V30 4779 H 448.47 2.55656 4.57974 0
M  V30 4780 H 449.944 1.06495 5.4163 0
M  V30 4781 H 450.421 -0.280273 4.38305 0
M  V30 4782 H 451.027 1.35456 4.03152 0
M  V30 4783 N 449.342 -1.36122 0.79427 0
M  V30 4784 C 450.289 -2.29982 0.194101 0
M  V30 4785 C 451.259 -1.52214 -0.664833 0
M  V30 4786 O 452.444 -1.80702 -0.612498 0
M  V30 4787 C 449.584 -3.38706 -0.661244 0
M  V30 4788 C 448.697 -4.31456 0.216766 0
M  V30 4789 C 447.832 -5.27265 -0.645411 0
M  V30 4790 C 446.871 -6.11653 0.233756 0
M  V30 4791 N 446.008 -6.99636 -0.587682 0
M  V30 4792 H 450.848 -2.80722 0.999965 0
M  V30 4793 H 448.385 -1.38172 0.504677 0
M  V30 4794 H 450.343 -4.00394 -1.17219 0
M  V30 4795 H 448.973 -2.89274 -1.43249 0
M  V30 4796 H 448.025 -3.7088 0.845724 0
M  V30 4797 H 449.337 -4.90724 0.893973 0
M  V30 4798 H 448.491 -5.94266 -1.22198 0
M  V30 4799 H 447.23 -4.68463 -1.35623 0
M  V30 4800 H 446.235 -5.4361 0.82269 0
M  V30 4801 H 447.46 -6.72531 0.942247 0
M  V30 4802 H 445.406 -6.43337 -1.2827 0
M  V30 4803 H 445.323 -7.55993 0.0317402 0
M  V30 4804 H 446.591 -7.71001 -1.14792 0
M  V30 4805 N 450.82 -0.546701 -1.47814 0
M  V30 4806 C 451.767 0.206854 -2.29871 0
M  V30 4807 C 452.737 0.918235 -1.38411 0
M  V30 4808 O 453.922 0.915991 -1.67375 0
M  V30 4809 C 451.062 1.23746 -3.22151 0
M  V30 4810 C 450.175 0.533216 -4.28697 0
M  V30 4811 C 449.31 1.5482 -5.08138 0
M  V30 4812 C 448.349 0.828347 -6.06469 0
M  V30 4813 N 447.486 1.78966 -6.78908 0
M  V30 4814 H 452.326 -0.499037 -2.93792 0
M  V30 4815 H 449.863 -0.25793 -1.44821 0
M  V30 4816 H 451.821 1.84746 -3.74065 0
M  V30 4817 H 450.451 1.91151 -2.60117 0
M  V30 4818 H 449.503 -0.191089 -3.7992 0
M  V30 4819 H 450.815 -0.0311987 -4.9879 0
M  V30 4820 H 449.969 2.23202 -5.6415 0
M  V30 4821 H 448.708 2.14652 -4.37922 0
M  V30 4822 H 447.713 0.130539 -5.49645 0
M  V30 4823 H 448.938 0.235907 -6.7869 0
M  V30 4824 H 446.884 2.37675 -6.1143 0
M  V30 4825 H 446.801 1.27712 -7.45135 0
M  V30 4826 H 448.069 2.46496 -7.395 0
M  V30 4827 N 452.299 1.55045 -0.282633 0
M  V30 4828 C 453.545 2.00056 0.332481 0
M  V30 4829 C 453.878 1.1708 1.54939 0
M  V30 4830 O 453.153 0.2427 1.9298 0
M  V30 4831 C 453.436 3.53086 0.70725 0
M  V30 4832 C 453.289 4.46813 -0.517521 0
M  V30 4833 C 454.608 4.12245 1.54084 0
M  V30 4834 H 451.727 0.727268 0.119373 0
M  V30 4835 H 454.369 1.85932 -0.391076 0
M  V30 4836 H 452.519 3.65253 1.32372 0
M  V30 4837 H 454.191 4.46579 -1.15607 0
M  V30 4838 H 452.434 4.18163 -1.1542 0
M  V30 4839 H 453.105 5.51595 -0.211426 0
M  V30 4840 H 455.581 4.03401 1.02013 0
M  V30 4841 H 454.457 5.19515 1.77186 0
M  V30 4842 H 454.718 3.62951 2.52427 0
M  V30 4843 N 453.777 0.010035 1.57597 0
M  V30 4844 C 454.709 -1.00649 2.05918 0
M  V30 4845 C 455.722 -1.30077 0.978964 0
M  V30 4846 O 456.911 -1.26878 1.25556 0
M  V30 4847 C 454.011 -2.33876 2.45265 0
M  V30 4848 C 453.184 -2.23242 3.7614 0
M  V30 4849 C 452.243 -3.39242 4.02245 0
M  V30 4850 O 451.269 -3.1698 4.72771 0
M  V30 4851 N 452.471 -4.6242 3.50924 0
M  V30 4852 H 455.236 -0.594333 2.93748 0
M  V30 4853 H 452.797 -0.17714 1.60928 0
M  V30 4854 H 454.789 -3.1027 2.59836 0
M  V30 4855 H 453.359 -2.66799 1.62902 0
M  V30 4856 H 452.579 -1.31696 3.71551 0
M  V30 4857 H 453.867 -2.13321 4.61922 0
M  V30 4858 H 453.265 -4.83404 2.93832 0
M  V30 4859 H 451.822 -5.36046 3.70807 0
M  V30 4860 N 455.255 -1.55392 -0.262866 0
M  V30 4861 C 456.187 -1.85392 -1.34768 0
M  V30 4862 C 457.2 -0.739069 -1.45057 0
M  V30 4863 O 458.389 -1.01703 -1.46693 0
M  V30 4864 C 455.489 -2.01088 -2.72795 0
M  V30 4865 C 454.662 -3.31828 -2.84972 0
M  V30 4866 C 453.721 -3.37464 -4.03738 0
M  V30 4867 O 452.747 -4.10778 -3.94018 0
M  V30 4868 N 453.949 -2.65599 -5.16176 0
M  V30 4869 H 456.714 -2.79029 -1.09375 0
M  V30 4870 H 454.275 -1.55434 -0.452981 0
M  V30 4871 H 456.267 -2.02217 -3.50557 0
M  V30 4872 H 454.837 -1.1427 -2.90966 0
M  V30 4873 H 454.057 -3.43152 -1.94012 0
M  V30 4874 H 455.345 -4.18032 -2.90045 0
M  V30 4875 H 454.743 -2.05736 -5.26962 0
M  V30 4876 H 453.3 -2.72439 -5.92132 0
M  V30 4877 N 456.733 0.527833 -1.48498 0
M  V30 4878 C 457.643 1.65907 -1.65867 0
M  V30 4879 C 458.659 1.6537 -0.541192 0
M  V30 4880 O 459.835 1.84282 -0.812534 0
M  V30 4881 C 456.9 3.02364 -1.69637 0
M  V30 4882 C 455.961 3.1374 -2.93028 0
M  V30 4883 C 455.194 4.43688 -2.96609 0
M  V30 4884 O 455.417 5.30913 -2.08538 0
M  V30 4885 O 454.351 4.59475 -3.88802 0
M  V30 4886 H 458.177 1.5419 -2.61647 0
M  V30 4887 H 455.762 0.701163 -1.31924 0
M  V30 4888 H 457.644 3.83515 -1.74625 0
M  V30 4889 H 456.319 3.14401 -0.770312 0
M  V30 4890 H 455.226 2.31877 -2.93571 0
M  V30 4891 H 456.559 3.06621 -3.85026 0
M  V30 4892 N 458.211 1.37122 0.776871 0
M  V30 4893 C 459.141 1.35164 1.90402 0
M  V30 4894 C 460.122 0.221069 1.68657 0
M  V30 4895 O 461.307 0.420642 1.8959 0
M  V30 4896 C 458.437 1.15274 3.27611 0
M  V30 4897 C 457.391 2.25289 3.63908 0
M  V30 4898 C 456.717 1.90527 4.99603 0
M  V30 4899 C 458.017 3.67446 3.71188 0
M  V30 4900 H 459.711 2.29482 1.92297 0
M  V30 4901 H 457.257 1.10465 0.923773 0
M  V30 4902 H 459.21 1.12536 4.06096 0
M  V30 4903 H 457.934 0.174102 3.26136 0
M  V30 4904 H 456.593 2.27174 2.87728 0
M  V30 4905 H 456.241 0.91206 4.94662 0
M  V30 4906 H 455.941 2.64193 5.24858 0
M  V30 4907 H 457.465 1.89367 5.80493 0
M  V30 4908 H 458.879 3.67719 4.39836 0
M  V30 4909 H 457.276 4.40123 4.07936 0
M  V30 4910 H 458.346 4.01443 2.71977 0
M  V30 4911 N 459.689 -1.00246 1.21608 0
M  V30 4912 C 460.914 -1.78167 1.06167 0
M  V30 4913 C 461.339 -1.84138 -0.384035 0
M  V30 4914 O 460.697 -1.28683 -1.27712 0
M  V30 4915 C 460.745 -3.19786 1.66642 0
M  V30 4916 O 459.849 -4.02153 0.913613 0
M  V30 4917 H 459.19 -0.549 0.37349 0
M  V30 4918 H 461.72 -1.25994 1.61204 0
M  V30 4919 H 461.73 -3.70451 1.70969 0
M  V30 4920 H 460.405 -3.14754 2.7185 0
M  V30 4921 H 458.982 -3.60711 0.945635 0
M  V30 4922 N 461.167 -1.02423 -1.1978 0
M  V30 4923 C 462.583 -0.740459 -1.41384 0
M  V30 4924 C 462.783 0.676827 -1.89793 0
M  V30 4925 O 461.839 1.4435 -2.0717 0
M  V30 4926 C 463.152 -1.77264 -2.42895 0
M  V30 4927 C 464.7 -1.79165 -2.56649 0
M  V30 4928 C 465.175 -2.8133 -3.6141 0
M  V30 4929 N 466.666 -2.80118 -3.68901 0
M  V30 4930 C 467.401 -3.55824 -4.49641 0
M  V30 4931 N 466.897 -4.41231 -5.34123 0
M  V30 4932 N 468.69 -3.44387 -4.44246 0
M  V30 4933 H 460.841 -1.9391 -0.866764 0
M  V30 4934 H 463.104 -0.838074 -0.443098 0
M  V30 4935 H 462.81 -2.7884 -2.14339 0
M  V30 4936 H 462.684 -1.59108 -3.42001 0
M  V30 4937 H 465.071 -0.782702 -2.84531 0
M  V30 4938 H 465.152 -2.01396 -1.57713 0
M  V30 4939 H 464.796 -3.82394 -3.34271 0
M  V30 4940 H 464.726 -2.56359 -4.59986 0
M  V30 4941 H 467.217 -2.1817 -3.08562 0
M  V30 4942 H 467.53 -4.95747 -5.92836 0
M  V30 4943 H 465.875 -4.45306 -5.33599 0
M  V30 4944 H 469.066 -2.7708 -3.77285 0
M  V30 4945 H 469.239 -4.0364 -5.06931 0
M  V30 4946 N 462.645 1.35699 -0.801477 0
M  V30 4947 C 464.056 1.81415 -0.441073 0
M  V30 4948 C 464.407 1.66595 1.03636 0
M  V30 4949 O 463.532 1.19369 1.80499 0
M  V30 4950 C 464.127 3.29369 -0.793819 0
M  V30 4951 C 462.686 3.73248 -0.486083 0
M  V30 4952 C 461.833 2.57775 -1.02213 0
M  V30 4953 H 464.784 1.23749 -0.993572 0
M  V30 4954 H 464.805 3.80395 -0.0894158 0
M  V30 4955 H 464.317 3.40123 -1.86917 0
M  V30 4956 H 462.418 3.68046 0.580735 0
M  V30 4957 H 462.531 4.68222 -1.01513 0
M  V30 4958 H 460.895 2.50788 -0.444712 0
M  V30 4959 H 461.678 2.71309 -2.10348 0
M  V30 4960 N 464.123 0.554532 1.47522 0
M  V30 4961 C 465.371 0.0294208 2.02079 0
M  V30 4962 C 465.692 -1.32411 1.43151 0
M  V30 4963 O 464.962 -1.863 0.605728 0
M  V30 4964 H 463.542 0.00788672 0.746958 0
M  V30 4965 H 466.204 0.723934 1.80956 0
M  V30 4966 H 465.3 -0.0606745 3.12041 0
M  V30 4967 N 465.601 -1.54893 0.290851 0
M  V30 4968 C 466.534 -2.19289 -0.631489 0
M  V30 4969 C 467.512 -1.15893 -1.14051 0
M  V30 4970 O 468.696 -1.4449 -1.21058 0
M  V30 4971 C 465.823 -2.82866 -1.86291 0
M  V30 4972 C 464.869 -3.997 -1.48801 0
M  V30 4973 S 465.702 -5.32641 -0.552644 0
M  V30 4974 C 466.858 -5.99696 -1.79209 0
M  V30 4975 H 467.091 -2.9718 -0.0843791 0
M  V30 4976 H 464.624 -1.54218 0.075031 0
M  V30 4977 H 466.582 -3.20124 -2.56964 0
M  V30 4978 H 465.243 -2.04839 -2.38117 0
M  V30 4979 H 464.436 -4.42932 -2.40473 0
M  V30 4980 H 464.038 -3.63947 -0.861321 0
M  V30 4981 H 466.33 -6.19886 -2.734 0
M  V30 4982 H 467.273 -6.94071 -1.40251 0
M  V30 4983 H 467.681 -5.29226 -1.96419 0
M  V30 4984 N 467.08 -0.0183926 -1.57589 0
M  V30 4985 C 468.01 0.965596 -2.12599 0
M  V30 4986 C 468.991 1.34641 -1.0395 0
M  V30 4987 O 470.176 1.42693 -1.31729 0
M  V30 4988 C 467.306 2.25149 -2.64434 0
M  V30 4989 C 466.26 2.01175 -3.77773 0
M  V30 4990 C 465.586 3.35937 -4.15994 0
M  V30 4991 C 466.886 1.35953 -5.04296 0
M  V30 4992 H 468.58 0.507504 -2.95067 0
M  V30 4993 H 466.126 0.242671 -1.41941 0
M  V30 4994 H 468.079 2.94357 -3.01549 0
M  V30 4995 H 466.803 2.73105 -1.79112 0
M  V30 4996 H 465.462 1.34388 -3.4108 0
M  V30 4997 H 465.11 3.81631 -3.27669 0
M  V30 4998 H 464.81 3.20705 -4.92364 0
M  V30 4999 H 466.334 4.0643 -4.55683 0
M  V30 5000 H 467.748 1.95144 -5.39065 0
M  V30 5001 H 466.145 1.31152 -5.85593 0
M  V30 5002 H 467.215 0.331071 -4.83768 0
M  V30 5003 N 468.558 1.5553 0.254621 0
M  V30 5004 C 469.468 1.92789 1.33677 0
M  V30 5005 C 470.484 0.827356 1.53071 0
M  V30 5006 O 471.66 1.12807 1.66843 0
M  V30 5007 C 468.725 2.20827 2.67275 0
M  V30 5008 C 467.786 3.4427 2.5647 0
M  V30 5009 C 467.019 3.70961 3.83697 0
M  V30 5010 O 467.242 2.99852 4.85227 0
M  V30 5011 O 466.176 4.64491 3.82794 0
M  V30 5012 H 470.002 2.84945 1.05071 0
M  V30 5013 H 467.587 1.42312 0.454723 0
M  V30 5014 H 469.469 2.40204 3.46237 0
M  V30 5015 H 468.144 1.31851 2.9563 0
M  V30 5016 H 467.051 3.30209 1.75821 0
M  V30 5017 H 468.384 4.33524 2.33062 0
M  V30 5018 N 470.036 -0.519951 1.48776 0
M  V30 5019 C 470.969 -1.64053 1.58625 0
M  V30 5020 C 471.947 -1.5664 0.43618 0
M  V30 5021 O 473.131 -1.76969 0.649159 0
M  V30 5022 C 470.258 -3.02497 1.52359 0
M  V30 5023 C 469.304 -3.28235 2.72331 0
M  V30 5024 S 470.137 -3.13414 4.34203 0
M  V30 5025 C 471.293 -4.54287 4.30551 0
M  V30 5026 H 471.526 -1.5545 2.53422 0
M  V30 5027 H 469.059 -0.703681 1.37433 0
M  V30 5028 H 471.017 -3.82336 1.4943 0
M  V30 5029 H 469.678 -3.08531 0.588824 0
M  V30 5030 H 468.871 -4.29256 2.64113 0
M  V30 5031 H 468.473 -2.56085 2.72574 0
M  V30 5032 H 470.765 -5.46006 4.01103 0
M  V30 5033 H 471.708 -4.67558 5.31785 0
M  V30 5034 H 472.116 -4.34079 3.60881 0
M  V30 5035 N 471.514 -1.37532 -0.769588 0
M  V30 5036 C 472.444 -1.36172 -1.89682 0
M  V30 5037 C 473.425 -0.23001 -1.68538 0
M  V30 5038 O 474.61 -0.43069 -1.89364 0
M  V30 5039 C 471.74 -1.1701 -3.26995 0
M  V30 5040 C 470.694 -2.27216 -3.62708 0
M  V30 5041 C 470.02 -1.93174 -4.98586 0
M  V30 5042 C 471.32 -3.6941 -3.69234 0
M  V30 5043 H 473.014 -2.30499 -1.91078 0
M  V30 5044 H 470.56 -1.10953 -0.917902 0
M  V30 5045 H 472.513 -1.14688 -4.05493 0
M  V30 5046 H 471.237 -0.191395 -3.26039 0
M  V30 5047 H 469.896 -2.28697 -2.86519 0
M  V30 5048 H 469.544 -0.938281 -4.94171 0
M  V30 5049 H 469.244 -2.66973 -5.23449 0
M  V30 5050 H 470.768 -1.92443 -5.79481 0
M  V30 5051 H 472.182 -3.70047 -4.37879 0
M  V30 5052 H 470.579 -4.4228 -4.05597 0
M  V30 5053 H 471.649 -4.0288 -2.69844 0
M  V30 5054 N 472.992 0.995999 -1.22138 0
M  V30 5055 C 473.922 2.10387 -1.01289 0
M  V30 5056 C 474.903 1.69975 0.0651454 0
M  V30 5057 O 476.088 1.9396 -0.0964628 0
M  V30 5058 C 473.218 3.42312 -0.586517 0
M  V30 5059 C 472.172 3.96558 -1.61014 0
M  V30 5060 C 471.498 5.24494 -1.0397 0
M  V30 5061 C 472.798 4.27595 -2.99933 0
M  V30 5062 H 474.492 2.28086 -1.93951 0
M  V30 5063 H 472.038 1.09607 -0.933928 0
M  V30 5064 H 473.991 4.19223 -0.427793 0
M  V30 5065 H 472.715 3.24431 0.375761 0
M  V30 5066 H 471.374 3.21776 -1.75658 0
M  V30 5067 H 471.022 5.02953 -0.0688703 0
M  V30 5068 H 470.722 5.61755 -1.72352 0
M  V30 5069 H 472.246 6.04042 -0.892494 0
M  V30 5070 H 473.66 4.95315 -2.8868 0
M  V30 5071 H 472.057 4.76021 -3.6541 0
M  V30 5072 H 473.127 3.35498 -3.50099 0
M  V30 5073 N 474.47 1.03057 1.19235 0
M  V30 5074 C 475.881 0.757449 1.70645 0
M  V30 5075 C 476.232 -0.722735 1.82403 0
M  V30 5076 O 475.357 -1.56325 1.49638 0
M  V30 5077 C 475.952 1.36833 3.09939 0
M  V30 5078 C 474.511 1.14375 3.58602 0
M  V30 5079 C 473.658 1.46533 2.35422 0
M  V30 5080 H 476.609 1.19828 1.04052 0
M  V30 5081 H 476.63 0.766184 3.72706 0
M  V30 5082 H 476.142 2.44562 3.01349 0
M  V30 5083 H 474.243 0.0847542 3.72504 0
M  V30 5084 H 474.356 1.83366 4.42622 0
M  V30 5085 H 472.72 0.884712 2.38841 0
M  V30 5086 H 473.503 2.55349 2.2946 0
M  V30 5087 N 475.948 -1.35272 0.808662 0
M  V30 5088 C 477.196 -1.98316 0.389233 0
M  V30 5089 C 477.517 -1.64465 -1.04767 0
M  V30 5090 O 476.787 -0.928175 -1.72516 0
M  V30 5091 H 475.367 -0.733585 0.140935 0
M  V30 5092 H 478.029 -1.6515 1.03496 0
M  V30 5093 H 477.125 -3.08123 0.496631 0
M  V30 5094 N 477.426 -0.562348 -1.47226 0
M  V30 5095 C 478.358 0.220011 -2.28142 0
M  V30 5096 C 479.371 0.874596 -1.37312 0
M  V30 5097 O 480.56 0.747583 -1.62091 0
M  V30 5098 C 477.66 1.32953 -3.11732 0
M  V30 5099 C 476.833 0.770759 -4.30556 0
M  V30 5100 C 475.892 1.76541 -4.95701 0
M  V30 5101 O 474.918 1.3095 -5.53932 0
M  V30 5102 N 476.12 3.09896 -4.90861 0
M  V30 5103 H 478.885 -0.474107 -2.95926 0
M  V30 5104 H 476.446 -0.398761 -1.56912 0
M  V30 5105 H 478.438 1.99378 -3.5218 0
M  V30 5106 H 477.008 1.92681 -2.46156 0
M  V30 5107 H 476.228 -0.0704056 -3.94137 0
M  V30 5108 H 477.516 0.376872 -5.07402 0
M  V30 5109 H 476.914 3.49577 -4.44761 0
M  V30 5110 H 475.471 3.71865 -5.35313 0
M  V30 5111 N 478.904 1.54736 -0.299062 0
M  V30 5112 C 480.315 1.8569 0.193971 0
M  V30 5113 C 480.666 1.22101 1.53577 0
M  V30 5114 O 479.791 0.51799 2.10109 0
M  V30 5115 C 480.386 3.36895 0.358733 0
M  V30 5116 C 478.945 3.67887 0.795986 0
M  V30 5117 C 478.092 2.77131 -0.096807 0
M  V30 5118 H 481.043 1.49934 -0.520134 0
M  V30 5119 H 481.064 3.61294 1.19361 0
M  V30 5120 H 480.576 3.83148 -0.617998 0
M  V30 5121 H 478.677 3.27151 1.78334 0
M  V30 5122 H 478.79 4.75114 0.616718 0
M  V30 5123 H 477.154 2.51153 0.423581 0
M  V30 5124 H 477.937 3.26204 -1.06986 0
M  V30 5125 N 480.382 0.0267497 1.57577 0
M  V30 5126 C 481.292 -0.971633 2.13533 0
M  V30 5127 C 482.308 -1.35868 1.08701 0
M  V30 5128 O 483.484 -1.44058 1.40746 0
M  V30 5129 C 480.549 -2.23622 2.64941 0
M  V30 5130 C 479.61 -1.90982 3.8448 0
M  V30 5131 C 478.843 -3.11411 4.33427 0
M  V30 5132 O 479.066 -4.23992 3.81558 0
M  V30 5133 O 478 -2.93848 5.25297 0
M  V30 5134 H 481.826 -0.525853 2.99113 0
M  V30 5135 H 479.411 -0.193712 1.48139 0
M  V30 5136 H 481.293 -2.97864 2.98086 0
M  V30 5137 H 479.968 -2.67386 1.82446 0
M  V30 5138 H 478.875 -1.14132 3.56265 0
M  V30 5139 H 480.208 -1.52036 4.6813 0
M  V30 5140 N 481.861 -1.55662 -0.24637 0
M  V30 5141 C 482.824 -1.89558 -1.28842 0
M  V30 5142 C 483.824 -0.772082 -1.41052 0
M  V30 5143 O 485.014 -1.04007 -1.39743 0
M  V30 5144 C 482.146 -2.12449 -2.66605 0
M  V30 5145 H 483.339 -2.82735 -1.00004 0
M  V30 5146 H 480.892 -1.48562 -0.485684 0
M  V30 5147 H 481.627 -1.21742 -3.00582 0
M  V30 5148 H 481.412 -2.94273 -2.59125 0
M  V30 5149 H 482.902 -2.39854 -3.41847 0
M  V30 5150 N 483.339 0.512053 -1.4905 0
M  V30 5151 C 484.585 1.26874 -1.58212 0
M  V30 5152 C 484.918 1.9241 -0.263073 0
M  V30 5153 O 484.193 1.80181 0.732476 0
M  V30 5154 C 484.476 2.34428 -2.73341 0
M  V30 5155 C 484.329 1.73466 -4.15006 0
M  V30 5156 C 485.648 3.36073 -2.84154 0
M  V30 5157 H 482.767 0.459924 -0.575881 0
M  V30 5158 H 485.409 0.568587 -1.81293 0
M  V30 5159 H 483.559 2.94146 -2.53792 0
M  V30 5160 H 485.231 1.17661 -4.46042 0
M  V30 5161 H 483.474 1.03921 -4.21168 0
M  V30 5162 H 484.145 2.51426 -4.91415 0
M  V30 5163 H 486.621 2.86332 -3.01916 0
M  V30 5164 H 485.497 4.08703 -3.66406 0
M  V30 5165 H 485.758 3.97725 -1.93048 0
M  V30 5166 N 484.817 1.37938 0.762283 0
M  V30 5167 C 485.78 1.34279 1.85747 0
M  V30 5168 C 486.78 0.244969 1.58923 0
M  V30 5169 O 487.97 0.501365 1.66829 0
M  V30 5170 C 485.102 1.08833 3.23061 0
M  V30 5171 H 486.295 2.31705 1.90401 0
M  V30 5172 H 483.848 1.23105 0.963057 0
M  V30 5173 H 484.583 0.119767 3.24079 0
M  V30 5174 H 484.368 1.88306 3.43923 0
M  V30 5175 H 485.858 1.08946 4.03138 0
M  V30 5176 N 486.295 -0.989507 1.22664 0
M  V30 5177 C 487.711 -1.25395 0.987331 0
M  V30 5178 C 487.911 -1.9899 -0.317056 0
M  V30 5179 O 486.967 -2.30141 -1.03882 0
M  V30 5180 C 488.28 -2.06242 2.18826 0
M  V30 5181 C 489.828 -2.19413 2.23219 0
M  V30 5182 C 490.303 -3.03648 3.42873 0
M  V30 5183 N 491.794 -3.11234 3.43056 0
M  V30 5184 C 492.529 -3.7671 4.32293 0
M  V30 5185 N 492.025 -4.44085 5.31752 0
M  V30 5186 N 493.818 -3.73505 4.2006 0
M  V30 5187 H 485.969 -0.496212 2.06522 0
M  V30 5188 H 488.232 -0.281784 0.905153 0
M  V30 5189 H 487.938 -1.59531 3.13437 0
M  V30 5190 H 487.812 -3.06996 2.19165 0
M  V30 5191 H 490.199 -2.65336 1.29154 0
M  V30 5192 H 490.28 -1.18078 2.26917 0
M  V30 5193 H 489.924 -2.58424 4.37241 0
M  V30 5194 H 489.854 -4.05132 3.36416 0
M  V30 5195 H 492.345 -2.63287 2.71088 0
M  V30 5196 H 492.658 -4.91797 5.96117 0
M  V30 5197 H 491.003 -4.42822 5.35662 0
M  V30 5198 H 494.194 -3.20033 3.41609 0
M  V30 5199 H 494.367 -4.24253 4.8981 0
M  V30 5200 N 487.773 -1.03688 -1.18687 0
M  V30 5201 C 488.703 -0.645407 -2.24403 0
M  V30 5202 C 489.684 0.349511 -1.66471 0
M  V30 5203 O 490.869 0.230453 -1.92828 0
M  V30 5204 C 487.999 -0.00365337 -3.473 0
M  V30 5205 C 486.953 -0.921705 -4.17958 0
M  V30 5206 C 486.279 -0.144629 -5.34504 0
M  V30 5207 C 487.579 -2.23909 -4.71871 0
M  V30 5208 H 489.273 -1.52917 -2.57404 0
M  V30 5209 H 486.819 -0.736711 -1.23728 0
M  V30 5210 H 488.772 0.281908 -4.20456 0
M  V30 5211 H 487.496 0.914963 -3.13522 0
M  V30 5212 H 486.155 -1.19159 -3.46694 0
M  V30 5213 H 485.803 0.776274 -4.96974 0
M  V30 5214 H 485.503 -0.756206 -5.82714 0
M  V30 5215 H 487.027 0.134004 -6.10453 0
M  V30 5216 H 488.441 -2.0145 -5.36741 0
M  V30 5217 H 486.838 -2.8033 -5.30599 0
M  V30 5218 H 487.908 -2.88822 -3.895 0
M  V30 5219 N 489.251 1.34841 -0.815825 0
M  V30 5220 C 490.667 1.51543 -0.500697 0
M  V30 5221 C 490.867 1.76261 0.976444 0
M  V30 5222 O 489.923 1.8094 1.76117 0
M  V30 5223 C 491.236 2.68487 -1.35407 0
M  V30 5224 C 492.784 2.82368 -1.35046 0
M  V30 5225 C 493.259 4.02347 -2.18816 0
M  V30 5226 N 494.75 4.09542 -2.16402 0
M  V30 5227 C 495.485 5.01517 -2.77971 0
M  V30 5228 N 494.981 5.98763 -3.48503 0
M  V30 5229 N 496.774 4.94334 -2.67563 0
M  V30 5230 H 488.925 1.17055 -1.77234 0
M  V30 5231 H 491.188 0.573481 -0.754866 0
M  V30 5232 H 490.894 2.56829 -2.40274 0
M  V30 5233 H 490.768 3.63321 -1.01377 0
M  V30 5234 H 493.155 2.93471 -0.309604 0
M  V30 5235 H 493.236 1.88363 -1.73069 0
M  V30 5236 H 492.88 3.92004 -3.22948 0
M  V30 5237 H 492.81 4.95551 -1.78148 0
M  V30 5238 H 495.301 3.39932 -1.65091 0
M  V30 5239 H 495.614 6.6556 -3.92747 0
M  V30 5240 H 493.959 5.98909 -3.52609 0
M  V30 5241 H 497.15 4.1732 -2.12041 0
M  V30 5242 H 497.323 5.6582 -3.15834 0
M  V30 5243 N 490.729 0.570148 1.46925 0
M  V30 5244 C 491.692 -0.159933 2.28641 0
M  V30 5245 C 492.692 -0.830638 1.37685 0
M  V30 5246 O 493.882 -0.684516 1.60187 0
M  V30 5247 C 491.014 -1.2354 3.17727 0
M  V30 5248 H 492.207 0.558035 2.94662 0
M  V30 5249 H 489.76 0.327603 1.52828 0
M  V30 5250 H 490.495 -1.98535 2.56426 0
M  V30 5251 H 490.28 -0.759125 3.84681 0
M  V30 5252 H 491.77 -1.74782 3.79264 0
M  V30 5253 N 492.207 -1.54576 0.307264 0
M  V30 5254 C 493.435 -2.04675 -0.302597 0
M  V30 5255 C 493.85 -1.18425 -1.47041 0
M  V30 5256 O 493.207 -0.211257 -1.81273 0
M  V30 5257 C 493.258 -3.53575 -0.752801 0
M  V30 5258 O 492.979 -4.36547 0.368536 0
M  V30 5259 C 494.48 -4.19699 -1.42717 0
M  V30 5260 H 491.7 -0.66786 -0.0648374 0
M  V30 5261 H 494.244 -1.99516 0.448716 0
M  V30 5262 H 492.399 -3.59074 -1.45412 0
M  V30 5263 H 492.813 -5.24497 0.0168937 0
M  V30 5264 H 494.287 -5.25388 -1.69327 0
M  V30 5265 H 494.764 -3.69815 -2.36925 0
M  V30 5266 H 495.37 -4.18293 -0.768856 0
M  V30 5267 N 493.685 -0.035106 -1.57561 0
M  V30 5268 C 494.932 0.642229 -1.92046 0
M  V30 5269 C 495.26 1.7179 -0.91206 0
M  V30 5270 O 494.515 1.95544 0.0781153 0
M  V30 5271 C 494.814 1.29149 -3.3325 0
M  V30 5272 C 494.48 0.345604 -4.49574 0
M  V30 5273 C 493.142 0.0852775 -4.81124 0
M  V30 5274 C 495.494 -0.303569 -5.20315 0
M  V30 5275 C 492.822 -0.831927 -5.80772 0
M  V30 5276 C 495.174 -1.20886 -6.20942 0
M  V30 5277 C 493.838 -1.47802 -6.50931 0
M  V30 5278 H 493.108 0.235008 -0.702746 0
M  V30 5279 H 495.755 -0.0981529 -1.91248 0
M  V30 5280 H 494.06 2.10676 -3.30337 0
M  V30 5281 H 495.757 1.82223 -3.57205 0
M  V30 5282 H 492.347 0.558683 -4.24943 0
M  V30 5283 H 496.531 -0.115515 -4.96166 0
M  V30 5284 H 491.787 -1.0481 -6.02349 0
M  V30 5285 H 495.961 -1.71804 -6.74875 0
M  V30 5286 H 493.588 -2.19039 -7.2796 0
M  V30 5287 N 495.163 1.55791 0.238111 0
M  V30 5288 C 496.126 1.90239 1.27835 0
M  V30 5289 C 497.126 0.779552 1.4064 0
M  V30 5290 O 498.316 1.04747 1.3919 0
M  V30 5291 C 495.448 2.13859 2.65475 0
M  V30 5292 H 496.641 2.83262 0.985034 0
M  V30 5293 H 494.194 1.48818 0.477799 0
M  V30 5294 H 494.929 1.23334 2.99932 0
M  V30 5295 H 494.714 2.95643 2.57561 0
M  V30 5296 H 496.204 2.41664 3.40571 0
M  V30 5297 N 496.642 -0.504142 1.49319 0
M  V30 5298 C 497.89 -1.25598 1.58334 0
M  V30 5299 C 498.211 -1.93114 0.270538 0
M  V30 5300 O 497.481 -1.82585 -0.709891 0
M  V30 5301 H 496.061 -0.466571 0.58337 0
M  V30 5302 H 498.723 -0.584547 1.85928 0
M  V30 5303 H 497.819 -2.02159 2.37778 0
M  V30 5304 N 498.12 -1.38341 -0.754957 0
M  V30 5305 C 499.05 -1.38176 -1.88227 0
M  V30 5306 C 500.031 -0.247873 -1.68284 0
M  V30 5307 O 501.216 -0.45075 -1.88896 0
M  V30 5308 C 498.346 -1.20471 -3.25736 0
M  V30 5309 C 497.3 -2.3105 -3.60278 0
M  V30 5310 C 496.626 -1.98452 -4.96509 0
M  V30 5311 C 497.926 -3.73305 -3.65295 0
M  V30 5312 H 499.62 -2.32512 -1.88622 0
M  V30 5313 H 497.166 -1.1192 -0.906082 0
M  V30 5314 H 499.119 -1.18982 -4.04254 0
M  V30 5315 H 497.843 -0.225965 -3.25817 0
M  V30 5316 H 496.502 -2.31723 -2.84078 0
M  V30 5317 H 496.15 -0.990641 -4.93148 0
M  V30 5318 H 495.85 -2.7251 -5.20588 0
M  V30 5319 H 497.374 -1.98578 -5.77407 0
M  V30 5320 H 498.788 -3.7467 -4.3393 0
M  V30 5321 H 497.185 -4.46557 -4.00883 0
M  V30 5322 H 498.255 -4.05719 -2.65556 0
M  V30 5323 N 499.598 0.982988 -1.23187 0
M  V30 5324 C 500.828 1.75666 -1.08743 0
M  V30 5325 C 501.236 1.85662 0.364195 0
M  V30 5326 O 500.579 1.33317 1.26382 0
M  V30 5327 C 500.641 3.20144 -1.63549 0
M  V30 5328 C 500.305 3.33665 -3.12277 0
M  V30 5329 C 501.302 3.20194 -4.096 0
M  V30 5330 C 498.987 3.58397 -3.51933 0
M  V30 5331 C 500.981 3.31256 -5.44563 0
M  V30 5332 C 498.668 3.69098 -4.87042 0
M  V30 5333 C 499.666 3.55537 -5.83166 0
M  V30 5334 O 499.354 3.65864 -7.1582 0
M  V30 5335 H 499.086 0.558194 -0.381307 0
M  V30 5336 H 501.64 1.24387 -1.63454 0
M  V30 5337 H 499.87 3.72659 -1.03256 0
M  V30 5338 H 501.559 3.79262 -1.4462 0
M  V30 5339 H 502.325 3.00987 -3.80305 0
M  V30 5340 H 498.204 3.68025 -2.77631 0
M  V30 5341 H 501.748 3.20588 -6.19572 0
M  V30 5342 H 497.645 3.87814 -5.16014 0
M  V30 5343 H 498.413 3.82675 -7.23534 0
M  V30 5344 N 501.076 1.04316 1.18135 0
M  V30 5345 C 502.301 0.768047 1.92655 0
M  V30 5346 C 502.726 -0.66904 1.758 0
M  V30 5347 O 502.084 -1.46372 1.06981 0
M  V30 5348 C 502.132 1.14239 3.42026 0
M  V30 5349 O 501.236 0.269333 4.1152 0
M  V30 5350 H 500.577 0.282436 0.600937 0
M  V30 5351 H 503.107 1.39367 1.49793 0
M  V30 5352 H 503.117 1.10538 3.92741 0
M  V30 5353 H 501.792 2.18928 3.53615 0
M  V30 5354 H 500.369 0.366175 3.71098 0
M  V30 5355 N 502.554 -1.34406 0.822964 0
M  V30 5356 C 503.484 -2.32052 0.259608 0
M  V30 5357 C 504.465 -1.58243 -0.623961 0
M  V30 5358 O 505.65 -1.86224 -0.55083 0
M  V30 5359 C 502.78 -3.42434 -0.579314 0
M  V30 5360 C 501.734 -4.27499 0.20712 0
M  V30 5361 C 501.06 -5.29349 -0.754547 0
M  V30 5362 C 502.36 -5.02758 1.41533 0
M  V30 5363 H 504.054 -2.79418 1.07545 0
M  V30 5364 H 501.6 -1.34338 0.518593 0
M  V30 5365 H 503.553 -4.0976 -0.983612 0
M  V30 5366 H 502.277 -2.93717 -1.4282 0
M  V30 5367 H 500.936 -3.61776 0.592787 0
M  V30 5368 H 500.584 -4.76895 -1.59939 0
M  V30 5369 H 500.284 -5.8714 -0.232561 0
M  V30 5370 H 501.808 -5.99544 -1.1567 0
M  V30 5371 H 503.222 -5.62938 1.08504 0
M  V30 5372 H 501.619 -5.70123 1.87296 0
M  V30 5373 H 502.689 -4.32451 2.1935 0
M  V30 5374 N 504.032 -0.577932 -1.46621 0
M  V30 5375 C 505.309 0.00495287 -1.95599 0
M  V30 5376 C 505.689 1.46428 -1.5206 0
M  V30 5377 O 505.037 2.1517 -0.769046 0
M  V30 5378 C 505.247 -0.162114 -3.48623 0
M  V30 5379 C 506.595 -0.0274623 -4.24591 0
M  V30 5380 O 507.619 -0.0907067 -3.56084 0
M  V30 5381 O 506.478 0.1122 -5.46385 0
M  V30 5382 H 503.572 0.0525057 -0.825332 0
M  V30 5383 H 506.118 -0.645914 -1.56927 0
M  V30 5384 H 504.89 -1.17679 -3.73185 0
M  V30 5385 H 504.513 0.525407 -3.94113 0
M  V30 5386 N 505.51 1.54411 -0.315457 0
M  V30 5387 C 506.756 2.00716 0.289972 0
M  V30 5388 C 507.089 1.2034 1.5242 0
M  V30 5389 O 506.364 0.283579 1.92422 0
M  V30 5390 C 506.647 3.54507 0.632196 0
M  V30 5391 C 506.5 4.45615 -0.61218 0
M  V30 5392 C 507.819 4.15421 1.45305 0
M  V30 5393 H 504.938 0.729637 0.10392 0
M  V30 5394 H 507.58 1.8506 -0.430427 0
M  V30 5395 H 505.73 3.67979 1.24595 0
M  V30 5396 H 507.402 4.44026 -1.25053 0
M  V30 5397 H 505.645 4.15621 -1.24264 0
M  V30 5398 H 506.316 5.51022 -0.328379 0
M  V30 5399 H 508.792 4.05474 0.934331 0
M  V30 5400 H 507.668 5.23157 1.66127 0
M  V30 5401 H 507.929 3.68223 2.44671 0
M  V30 5402 N 506.988 0.0434614 1.5754 0
M  V30 5403 C 508.236 -0.630786 1.92004 0
M  V30 5404 C 508.557 -1.71836 0.921807 0
M  V30 5405 O 507.827 -1.9587 -0.034522 0
M  V30 5406 H 506.407 -0.235988 0.708745 0
M  V30 5407 H 509.069 0.0946462 1.9467 0
M  V30 5408 H 508.165 -1.07434 2.93026 0
M  V30 5409 N 508.466 -1.55915 -0.229846 0
M  V30 5410 C 509.376 -1.94891 -1.30593 0
M  V30 5411 C 510.392 -0.851604 -1.51736 0
M  V30 5412 O 511.568 -1.15447 -1.65027 0
M  V30 5413 C 508.633 -2.25052 -2.63728 0
M  V30 5414 C 507.694 -3.48306 -2.5096 0
M  V30 5415 C 506.927 -3.77019 -3.77747 0
M  V30 5416 O 507.15 -3.07534 -4.80395 0
M  V30 5417 O 506.084 -4.70523 -3.75356 0
M  V30 5418 H 509.91 -2.86581 -1.00525 0
M  V30 5419 H 507.495 -1.43017 -0.432025 0
M  V30 5420 H 509.377 -2.45682 -3.42372 0
M  V30 5421 H 508.052 -1.36538 -2.93495 0
M  V30 5422 H 506.959 -3.32964 -1.70546 0
M  V30 5423 H 508.292 -4.37177 -2.26136 0
M  V30 5424 N 509.944 0.496216 -1.49584 0
M  V30 5425 C 510.854 1.62352 -1.69349 0
M  V30 5426 C 511.87 1.64184 -0.576147 0
M  V30 5427 O 513.046 1.82517 -0.85144 0
M  V30 5428 C 510.111 2.98698 -1.76013 0
M  V30 5429 C 509.172 3.07454 -2.99617 0
M  V30 5430 C 508.405 4.37296 -3.05953 0
M  V30 5431 O 508.628 5.2637 -2.19752 0
M  V30 5432 O 507.562 4.51124 -3.9846 0
M  V30 5433 H 511.388 1.48606 -2.64859 0
M  V30 5434 H 508.973 0.673022 -1.33382 0
M  V30 5435 H 510.855 3.79725 -1.82721 0
M  V30 5436 H 509.53 3.12696 -0.836828 0
M  V30 5437 H 508.437 2.25597 -2.98424 0
M  V30 5438 H 509.77 2.98385 -3.91443 0
M  V30 5439 N 511.423 1.38739 0.74761 0
M  V30 5440 C 512.671 1.35007 1.50391 0
M  V30 5441 C 512.992 -0.0574274 1.94915 0
M  V30 5442 O 512.262 -1.00628 1.6808 0
M  V30 5443 H 510.842 0.496784 0.557866 0
M  V30 5444 H 513.504 1.73479 0.888319 0
M  V30 5445 H 512.6 2.00474 2.392 0
M  V30 5446 N 512.901 -0.976442 1.23707 0
M  V30 5447 C 514.178 -1.69296 0.979699 0
M  V30 5448 C 514.558 -2.0508 -0.500555 0
M  V30 5449 O 513.906 -1.74708 -1.47273 0
M  V30 5450 C 514.116 -2.93143 1.89389 0
M  V30 5451 C 515.464 -3.65572 2.15968 0
M  V30 5452 O 516.488 -3.03184 1.86971 0
M  V30 5453 O 515.347 -4.77859 2.65167 0
M  V30 5454 H 512.441 -0.739708 0.369812 0
M  V30 5455 H 514.987 -1.03131 1.34767 0
M  V30 5456 H 513.759 -2.63327 2.89439 0
M  V30 5457 H 513.382 -3.67044 1.52854 0
M  V30 5458 N 514.379 -1.04941 -1.1758 0
M  V30 5459 C 515.311 -0.606174 -2.21039 0
M  V30 5460 C 516.324 0.328763 -1.59446 0
M  V30 5461 O 517.513 0.121895 -1.78083 0
M  V30 5462 C 514.613 0.133294 -3.38638 0
M  V30 5463 C 513.786 -0.811711 -4.29802 0
M  V30 5464 C 512.845 -0.113958 -5.26077 0
M  V30 5465 O 511.871 -0.747237 -5.64274 0
M  V30 5466 N 513.073 1.14953 -5.69004 0
M  V30 5467 H 515.838 -1.49606 -2.59689 0
M  V30 5468 H 513.399 -0.930997 -1.32454 0
M  V30 5469 H 515.391 0.610144 -4.00074 0
M  V30 5470 H 513.961 0.924816 -2.98607 0
M  V30 5471 H 513.181 -1.46824 -3.65837 0
M  V30 5472 H 514.469 -1.45326 -4.87604 0
M  V30 5473 H 513.867 1.68441 -5.40041 0
M  V30 5474 H 512.424 1.57049 -6.32597 0
M  V30 5475 N 515.857 1.33968 -0.830081 0
M  V30 5476 C 516.82 2.27694 -0.26235 0
M  V30 5477 C 517.82 1.50589 0.563876 0
M  V30 5478 O 519.01 1.70028 0.378941 0
M  V30 5479 C 516.142 3.35002 0.63138 0
M  V30 5480 H 517.335 2.79419 -1.08928 0
M  V30 5481 H 514.888 1.44221 -0.602486 0
M  V30 5482 H 515.623 2.88504 1.48109 0
M  V30 5483 H 515.408 3.92079 0.0403276 0
M  V30 5484 H 516.898 4.04897 1.02217 0
M  V30 5485 N 517.335 0.585699 1.46312 0
M  V30 5486 C 518.584 0.0701192 2.01578 0
M  V30 5487 C 518.897 -1.29889 1.46247 0
M  V30 5488 O 520.103 -1.90598 1.93351 0
M  V30 5489 C 518.559 0.0747499 3.59822 0
M  V30 5490 C 518.167 1.44226 4.24149 0
M  V30 5491 C 519.911 -0.38673 4.22735 0
M  V30 5492 C 517.818 1.40446 5.74481 0
M  V30 5493 H 516.748 0.0224441 0.753666 0
M  V30 5494 H 519.399 0.737789 1.68015 0
M  V30 5495 H 517.781 -0.659144 3.90476 0
M  V30 5496 H 518.955 2.19612 4.05101 0
M  V30 5497 H 517.27 1.84401 3.73343 0
M  V30 5498 H 519.867 -0.433853 5.32937 0
M  V30 5499 H 520.21 -1.40489 3.91878 0
M  V30 5500 H 520.743 0.293195 3.96718 0
M  V30 5501 H 517.482 2.39952 6.10003 0
M  V30 5502 H 517.002 0.692845 5.95785 0
M  V30 5503 H 518.681 1.11865 6.37256 0
M  V30 5504 N 518.813 -1.54241 0.323641 0
M  V30 5505 C 519.776 -2.22997 -0.529602 0
M  V30 5506 C 520.776 -1.22345 -1.04347 0
M  V30 5507 O 521.966 -1.46924 -0.935889 0
M  V30 5508 C 519.098 -2.93409 -1.73562 0
M  V30 5509 H 520.291 -2.99815 0.0714518 0
M  V30 5510 H 517.844 -1.56121 0.0747258 0
M  V30 5511 H 518.579 -2.20729 -2.37591 0
M  V30 5512 H 518.364 -3.67217 -1.37456 0
M  V30 5513 H 519.854 -3.45794 -2.34128 0
M  V30 5514 N 520.291 -0.0518155 -1.57515 0
M  V30 5515 C 521.201 0.937539 -2.15052 0
M  V30 5516 C 522.217 1.34121 -1.10849 0
M  V30 5517 O 523.393 1.418 -1.4302 0
M  V30 5518 C 520.458 2.19379 -2.68466 0
M  V30 5519 C 519.519 1.84841 -3.87469 0
M  V30 5520 C 518.752 3.04477 -4.38326 0
M  V30 5521 O 518.975 4.17868 -3.88256 0
M  V30 5522 O 517.909 2.85453 -5.29906 0
M  V30 5523 H 521.735 0.478201 -2.99912 0
M  V30 5524 H 519.32 0.17012 -1.48428 0
M  V30 5525 H 521.202 2.93084 -3.02787 0
M  V30 5526 H 519.877 2.64449 -1.86677 0
M  V30 5527 H 518.784 1.08449 -3.58036 0
M  V30 5528 H 520.117 1.44569 -4.7049 0
M  V30 5529 N 521.769 1.56035 0.221574 0
M  V30 5530 C 522.732 1.91584 1.2581 0
M  V30 5531 C 523.732 0.794425 1.39805 0
M  V30 5532 O 524.922 1.06217 1.38071 0
M  V30 5533 C 522.054 2.16663 2.63192 0
M  V30 5534 H 523.247 2.8429 0.954935 0
M  V30 5535 H 520.8 1.49316 0.461988 0
M  V30 5536 H 521.535 1.26508 2.98607 0
M  V30 5537 H 521.32 2.98358 2.5441 0
M  V30 5538 H 522.81 2.45262 3.37988 0
M  V30 5539 N 523.247 -0.488276 1.49845 0
M  V30 5540 C 524.177 -1.59675 1.70371 0
M  V30 5541 C 525.158 -1.60878 0.552473 0
M  V30 5542 O 526.343 -1.77417 0.78973 0
M  V30 5543 C 523.473 -2.98098 1.782 0
M  V30 5544 C 522.427 -3.11761 2.93239 0
M  V30 5545 C 521.753 -4.51661 2.86193 0
M  V30 5546 C 523.053 -2.90589 4.33999 0
M  V30 5547 H 524.747 -1.42752 2.63177 0
M  V30 5548 H 522.293 -0.685317 1.26647 0
M  V30 5549 H 524.246 -3.75555 1.91144 0
M  V30 5550 H 522.97 -3.16138 0.820018 0
M  V30 5551 H 521.629 -2.36732 2.79917 0
M  V30 5552 H 521.277 -4.66595 1.87877 0
M  V30 5553 H 520.977 -4.61742 3.63412 0
M  V30 5554 H 522.501 -5.31162 3.01163 0
M  V30 5555 H 523.915 -3.57807 4.47936 0
M  V30 5556 H 522.312 -3.1213 5.12538 0
M  V30 5557 H 523.382 -1.86595 4.4756 0
M  V30 5558 N 524.725 -1.39134 -0.740242 0
M  V30 5559 C 525.688 -1.37217 -1.83587 0
M  V30 5560 C 526.688 -0.270221 -1.58513 0
M  V30 5561 O 527.878 -0.527843 -1.6601 0
M  V30 5562 C 525.01 -1.13959 -3.21288 0
M  V30 5563 H 526.203 -2.34705 -1.86691 0
M  V30 5564 H 523.756 -1.24622 -0.94335 0
M  V30 5565 H 524.491 -0.17131 -3.23847 0
M  V30 5566 H 524.276 -1.93754 -3.40884 0
M  V30 5567 H 525.766 -1.15346 -4.01354 0
M  V30 5568 N 526.204 0.969867 -1.24223 0
M  V30 5569 C 527.167 2.04564 -1.03373 0
M  V30 5570 C 528.167 1.60798 0.00819206 0
M  V30 5571 O 529.357 1.72641 -0.232567 0
M  V30 5572 C 526.489 3.36163 -0.566343 0
M  V30 5573 H 527.682 2.24494 -1.98853 0
M  V30 5574 H 525.235 1.1448 -1.06415 0
M  V30 5575 H 525.97 3.21925 0.391751 0
M  V30 5576 H 525.755 3.69273 -1.31834 0
M  V30 5577 H 527.245 4.1526 -0.441435 0
M  V30 5578 N 527.682 1.05563 1.17022 0
M  V30 5579 C 529.093 0.793475 1.69 0
M  V30 5580 C 529.444 -0.683882 1.83895 0
M  V30 5581 O 528.569 -1.53116 1.5292 0
M  V30 5582 C 529.164 1.43376 3.06967 0
M  V30 5583 C 527.723 1.21956 3.56095 0
M  V30 5584 C 526.87 1.51494 2.3226 0
M  V30 5585 H 529.821 1.22008 1.01487 0
M  V30 5586 H 529.842 0.845068 3.70997 0
M  V30 5587 H 529.354 2.50899 2.96093 0
M  V30 5588 H 527.455 0.163749 3.7224 0
M  V30 5589 H 527.568 1.92713 4.38633 0
M  V30 5590 H 525.932 0.935175 2.3691 0
M  V30 5591 H 526.715 2.60159 2.23992 0
M  V30 5592 N 529.16 -1.33526 0.837174 0
M  V30 5593 C 530.385 -2.0258 0.444545 0
M  V30 5594 C 530.81 -1.6258 -0.946006 0
M  V30 5595 O 530.168 -0.817548 -1.6182 0
M  V30 5596 C 530.216 -3.5605 0.571006 0
M  V30 5597 O 529.32 -4.10422 -0.403431 0
M  V30 5598 H 528.661 -0.638866 0.180958 0
M  V30 5599 H 531.191 -1.70462 1.13154 0
M  V30 5600 H 531.201 -4.05488 0.452024 0
M  V30 5601 H 529.876 -3.84509 1.58512 0
M  V30 5602 H 528.453 -3.72113 -0.242147 0
M  V30 5603 N 530.638 -0.59345 -1.46 0
M  V30 5604 C 532.054 -0.255965 -1.57534 0
M  V30 5605 C 532.254 1.24167 -1.58697 0
M  V30 5606 O 531.31 2.02398 -1.50968 0
M  V30 5607 C 532.623 -0.91466 -2.86451 0
M  V30 5608 C 534.171 -0.889253 -3.00102 0
M  V30 5609 C 534.646 -1.52769 -4.3177 0
M  V30 5610 N 536.137 -1.49253 -4.38495 0
M  V30 5611 C 536.872 -1.9558 -5.39014 0
M  V30 5612 N 536.368 -2.49929 -6.46148 0
M  V30 5613 N 538.161 -1.86432 -5.30282 0
M  V30 5614 H 530.312 -1.56604 -1.43489 0
M  V30 5615 H 532.575 -0.655207 -0.685133 0
M  V30 5616 H 532.281 -1.96861 -2.91442 0
M  V30 5617 H 532.155 -0.429356 -3.74748 0
M  V30 5618 H 534.542 0.156111 -2.94687 0
M  V30 5619 H 534.623 -1.41268 -2.13253 0
M  V30 5620 H 534.267 -2.57231 -4.37944 0
M  V30 5621 H 534.197 -0.979398 -5.17412 0
M  V30 5622 H 536.688 -1.09536 -3.61677 0
M  V30 5623 H 537.001 -2.83109 -7.19075 0
M  V30 5624 H 535.346 -2.53961 -6.46938 0
M  V30 5625 H 538.537 -1.43722 -4.4549 0
M  V30 5626 H 538.71 -2.22852 -6.08474 0
M  V30 5627 N 532.116 1.54067 -0.331816 0
M  V30 5628 C 533.363 2.00715 0.268269 0
M  V30 5629 C 533.691 1.21986 1.51491 0
M  V30 5630 O 532.946 0.292309 1.93505 0
M  V30 5631 C 533.245 3.51634 0.639392 0
M  V30 5632 C 532.911 4.48018 -0.509019 0
M  V30 5633 C 531.573 4.74089 -0.824209 0
M  V30 5634 C 533.925 5.05237 -1.28003 0
M  V30 5635 C 531.253 5.54637 -1.91298 0
M  V30 5636 C 533.605 5.86972 -2.35895 0
M  V30 5637 C 532.269 6.11342 -2.67987 0
M  V30 5638 H 531.539 0.734469 0.0981667 0
M  V30 5639 H 534.186 1.8596 -0.457304 0
M  V30 5640 H 532.491 3.6416 1.44551 0
M  V30 5641 H 534.188 3.85175 1.11539 0
M  V30 5642 H 530.778 4.27851 -0.253287 0
M  V30 5643 H 534.962 4.8507 -1.04978 0
M  V30 5644 H 530.218 5.71747 -2.16599 0
M  V30 5645 H 534.392 6.30327 -2.96076 0
M  V30 5646 H 532.019 6.73544 -3.5248 0
M  V30 5647 N 533.594 0.0601682 1.57485 0
M  V30 5648 C 534.84 -0.612501 1.93329 0
M  V30 5649 C 535.173 -1.6996 0.939526 0
M  V30 5650 O 534.448 -1.94472 -0.0330957 0
M  V30 5651 C 534.731 -1.20025 3.39508 0
M  V30 5652 C 534.584 -0.12059 4.49638 0
M  V30 5653 C 535.903 -2.10923 3.86264 0
M  V30 5654 H 533.022 -0.221185 0.703027 0
M  V30 5655 H 535.664 0.123768 1.89596 0
M  V30 5656 H 533.814 -1.82774 3.42821 0
M  V30 5657 H 535.486 0.51185 4.58452 0
M  V30 5658 H 533.729 0.550251 4.30296 0
M  V30 5659 H 534.4 -0.572019 5.49028 0
M  V30 5660 H 536.876 -1.58124 3.84884 0
M  V30 5661 H 535.752 -2.48987 4.8918 0
M  V30 5662 H 536.013 -3.01292 3.23536 0
M  V30 5663 N 535.072 -1.5615 -0.213296 0
M  V30 5664 C 536.002 -1.96109 -1.26742 0
M  V30 5665 C 536.983 -0.830448 -1.48451 0
M  V30 5666 O 538.168 -1.09339 -1.60495 0
M  V30 5667 C 535.298 -2.28492 -2.61551 0
M  V30 5668 C 534.252 -3.44124 -2.54485 0
M  V30 5669 C 533.578 -3.62134 -3.93399 0
M  V30 5670 C 534.878 -4.78855 -2.08556 0
M  V30 5671 H 536.572 -2.84412 -0.935434 0
M  V30 5672 H 534.118 -1.36836 -0.44854 0
M  V30 5673 H 536.071 -2.55039 -3.3546 0
M  V30 5674 H 534.795 -1.37052 -2.96453 0
M  V30 5675 H 533.454 -3.17639 -1.83033 0
M  V30 5676 H 533.102 -2.68055 -4.25623 0
M  V30 5677 H 532.802 -4.39913 -3.89551 0
M  V30 5678 H 534.326 -3.91038 -4.68958 0
M  V30 5679 H 535.74 -5.04552 -2.72213 0
M  V30 5680 H 534.137 -5.59975 -2.1575 0
M  V30 5681 H 535.207 -4.73657 -1.03811 0
M  V30 5682 N 536.55 0.480323 -1.50102 0
M  V30 5683 C 537.497 1.57946 -1.6829 0
M  V30 5684 C 538.467 1.57611 -0.524223 0
M  V30 5685 O 539.652 1.75282 -0.753709 0
M  V30 5686 C 536.792 2.95978 -1.77457 0
M  V30 5687 C 535.905 3.06173 -3.04766 0
M  V30 5688 C 535.04 4.35063 -3.04784 0
M  V30 5689 C 534.079 4.38966 -4.26586 0
M  V30 5690 N 533.216 5.59314 -4.24396 0
M  V30 5691 H 538.056 1.41743 -2.62131 0
M  V30 5692 H 535.593 0.689304 -1.2995 0
M  V30 5693 H 537.551 3.76011 -1.80752 0
M  V30 5694 H 536.181 3.10837 -0.870637 0
M  V30 5695 H 535.233 2.19071 -3.10986 0
M  V30 5696 H 536.545 3.04916 -3.9475 0
M  V30 5697 H 535.699 5.23436 -3.06757 0
M  V30 5698 H 534.438 4.38915 -2.12614 0
M  V30 5699 H 533.443 3.48992 -4.24835 0
M  V30 5700 H 534.668 4.36813 -5.19972 0
M  V30 5701 H 532.614 5.63969 -3.35074 0
M  V30 5702 H 532.531 5.5976 -5.08138 0
M  V30 5703 H 533.799 6.49837 -4.30502 0
M  V30 5704 N 538.028 1.39524 0.732853 0
M  V30 5705 C 539.439 1.32905 1.31122 0
M  V30 5706 C 539.79 -0.00558708 1.96199 0
M  V30 5707 O 538.915 -0.907706 1.96443 0
M  V30 5708 C 539.51 2.40704 2.38426 0
M  V30 5709 C 538.069 2.37599 2.91931 0
M  V30 5710 C 537.216 2.2248 1.65523 0
M  V30 5711 H 540.167 1.49581 0.530207 0
M  V30 5712 H 540.188 2.07616 3.18867 0
M  V30 5713 H 539.7 3.37829 1.91033 0
M  V30 5714 H 537.801 1.44119 3.43599 0
M  V30 5715 H 537.914 3.32538 3.44899 0
M  V30 5716 H 536.278 1.69691 1.8994 0
M  V30 5717 H 537.061 3.21577 1.20178 0
M  V30 5718 N 539.506 -0.963266 1.24736 0
M  V30 5719 C 540.438 -2.06162 1.0015 0
M  V30 5720 C 541.451 -1.62771 -0.0305905 0
M  V30 5721 O 542.64 -1.77296 0.206966 0
M  V30 5722 C 539.74 -3.35333 0.490385 0
M  V30 5723 C 538.913 -4.07609 1.58663 0
M  V30 5724 C 537.972 -5.15052 1.0774 0
M  V30 5725 O 536.998 -5.4098 1.77002 0
M  V30 5726 N 538.2 -5.80436 -0.0858605 0
M  V30 5727 H 540.965 -2.27825 1.94719 0
M  V30 5728 H 538.526 -1.13121 1.15825 0
M  V30 5729 H 540.518 -4.04477 0.134371 0
M  V30 5730 H 539.088 -3.10507 -0.361155 0
M  V30 5731 H 538.308 -3.32681 2.11463 0
M  V30 5732 H 539.596 -4.52656 2.32336 0
M  V30 5733 H 538.994 -5.6178 -0.664806 0
M  V30 5734 H 537.551 -6.50674 -0.382981 0
M  V30 5735 N 540.985 -1.06182 -1.16461 0
M  V30 5736 C 542.401 -0.785065 -1.38956 0
M  V30 5737 C 542.601 0.616103 -1.9185 0
M  V30 5738 O 541.657 1.37686 -2.11657 0
M  V30 5739 C 542.97 -1.84902 -2.37132 0
M  V30 5740 C 544.518 -1.8724 -2.50819 0
M  V30 5741 C 544.993 -2.92686 -3.52277 0
M  V30 5742 N 546.484 -2.91712 -3.59803 0
M  V30 5743 C 547.219 -3.69949 -4.38093 0
M  V30 5744 N 546.715 -4.58 -5.19815 0
M  V30 5745 N 548.508 -3.58346 -4.33064 0
M  V30 5746 H 540.659 -1.96569 -0.804634 0
M  V30 5747 H 542.922 -0.851747 -0.416211 0
M  V30 5748 H 542.628 -2.85518 -2.0536 0
M  V30 5749 H 542.502 -1.69908 -3.36766 0
M  V30 5750 H 544.889 -0.872827 -2.81897 0
M  V30 5751 H 544.97 -2.06311 -1.51226 0
M  V30 5752 H 544.614 -3.92835 -3.21937 0
M  V30 5753 H 544.544 -2.70864 -4.51598 0
M  V30 5754 H 547.035 -2.27876 -3.01464 0
M  V30 5755 H 547.348 -5.14357 -5.76764 0
M  V30 5756 H 545.693 -4.62056 -5.19162 0
M  V30 5757 H 548.884 -2.88943 -3.68279 0
M  V30 5758 H 549.057 -4.19563 -4.93833 0
M  V30 5759 N 542.463 1.3308 -0.844243 0
M  V30 5760 C 543.373 2.32876 -0.283922 0
M  V30 5761 C 544.389 1.63589 0.592846 0
M  V30 5762 O 545.565 1.95205 0.495693 0
M  V30 5763 C 542.63 3.42667 0.527283 0
M  V30 5764 C 541.691 4.27664 -0.374394 0
M  V30 5765 C 540.924 5.32212 0.39819 0
M  V30 5766 O 541.147 5.46635 1.62932 0
M  V30 5767 O 540.081 6.01458 -0.2306 0
M  V30 5768 H 543.907 2.82671 -1.11045 0
M  V30 5769 H 541.492 1.36518 -0.606903 0
M  V30 5770 H 543.374 4.09652 0.988078 0
M  V30 5771 H 542.049 2.95079 1.33078 0
M  V30 5772 H 540.956 3.63526 -0.883144 0
M  V30 5773 H 542.289 4.78749 -1.1428 0
M  V30 5774 N 543.941 0.601185 1.45683 0
M  V30 5775 C 545.189 0.0936957 2.01883 0
M  V30 5776 C 545.51 -1.2779 1.47291 0
M  V30 5777 O 544.78 -1.84279 0.664691 0
M  V30 5778 H 543.36 0.0316466 0.746329 0
M  V30 5779 H 546.022 0.781137 1.78562 0
M  V30 5780 H 545.118 0.0386297 3.12076 0
M  V30 5781 N 545.419 -1.53889 0.339982 0
M  V30 5782 C 546.667 -2.00458 -0.257112 0
M  V30 5783 C 546.988 -1.22953 -1.51353 0
M  V30 5784 O 546.258 -0.335734 -1.93002 0
M  V30 5785 H 544.838 -0.740544 -0.0979965 0
M  V30 5786 H 547.5 -1.89386 0.460317 0
M  V30 5787 H 546.596 -3.08035 -0.502057 0
M  V30 5788 N 546.897 -0.0685191 -1.57451 0
M  V30 5789 C 548.145 0.60016 -1.92983 0
M  V30 5790 C 548.466 1.70348 -0.949028 0
M  V30 5791 O 547.736 1.959 0.00335647 0
M  V30 5792 H 546.316 0.224682 -0.712409 0
M  V30 5793 H 548.978 -0.125605 -1.94495 0
M  V30 5794 H 548.074 1.02759 -2.94698 0
M  V30 5795 N 548.375 1.56261 0.205012 0
M  V30 5796 C 549.323 1.94631 1.27364 0
M  V30 5797 C 550.317 0.830434 1.47649 0
M  V30 5798 O 551.523 1.01538 1.48627 0
M  V30 5799 H 547.898 0.618755 0.427371 0
M  V30 5800 H 549.869 2.83768 0.922941 0
M  V30 5801 C 548.618 2.29358 2.61324 0
M  V30 5802 H 547.941 3.14744 2.46528 0
M  V30 5803 H 549.381 2.60076 3.34868 0
M  V30 5804 C 547.84 1.12461 3.17575 0
M  V30 5805 O 548.37 0.394407 3.99759 0
M  V30 5806 N 546.576 0.904036 2.7618 0
M  V30 5807 H 546.123 1.49956 2.09454 0
M  V30 5808 H 546.081 0.123662 3.14157 0
M  V30 5809 N 549.853 -0.472356 1.50355 0
M  V30 5810 C 550.801 -1.59126 1.69651 0
M  V30 5811 C 551.795 -1.59793 0.56237 0
M  V30 5812 O 553.001 -1.63957 0.742832 0
M  V30 5813 H 549.376 -0.528008 0.535454 0
M  V30 5814 H 551.347 -1.40013 2.63513 0
M  V30 5815 C 550.096 -2.97075 1.8067 0
M  V30 5816 H 549.419 -2.9728 2.67329 0
M  V30 5817 H 550.859 -3.74825 1.98197 0
M  V30 5818 C 549.318 -3.32247 0.558016 0
M  V30 5819 O 549.848 -4.00553 -0.303399 0
M  V30 5820 N 548.054 -2.87659 0.412415 0
M  V30 5821 H 547.601 -2.32246 1.11443 0
M  V30 5822 H 547.559 -3.11556 -0.421908 0
M  V30 5823 N 551.331 -1.39911 -0.725443 0
M  V30 5824 C 552.261 -1.42138 -1.85254 0
M  V30 5825 C 553.242 -0.283513 -1.67721 0
M  V30 5826 O 554.427 -0.490717 -1.87898 0
M  V30 5827 C 551.557 -1.27354 -3.23107 0
M  V30 5828 C 550.511 -2.3864 -3.55296 0
M  V30 5829 C 549.837 -2.08939 -4.92188 0
M  V30 5830 C 551.137 -3.8097 -3.57295 0
M  V30 5831 H 552.831 -2.36461 -1.83648 0
M  V30 5832 H 550.377 -1.13817 -0.882138 0
M  V30 5833 H 552.33 -1.2753 -4.01639 0
M  V30 5834 H 551.054 -0.295025 -3.25265 0
M  V30 5835 H 549.713 -2.37696 -2.79099 0
M  V30 5836 H 549.361 -1.09502 -4.90936 0
M  V30 5837 H 549.061 -2.83491 -5.14691 0
M  V30 5838 H 550.585 -2.10781 -5.73065 0
M  V30 5839 H 551.999 -3.8379 -4.25885 0
M  V30 5840 H 550.396 -4.5496 -3.9132 0
M  V30 5841 H 551.466 -4.11261 -2.5689 0
M  V30 5842 N 552.809 0.956637 -1.25245 0
M  V30 5843 C 554.039 1.7332 -1.12445 0
M  V30 5844 C 554.447 1.86392 0.324732 0
M  V30 5845 O 553.79 1.35967 1.23526 0
M  V30 5846 C 553.852 3.16603 -1.70303 0
M  V30 5847 C 553.516 3.26966 -3.19284 0
M  V30 5848 C 554.513 3.11434 -4.16299 0
M  V30 5849 C 552.198 3.50851 -3.59456 0
M  V30 5850 C 554.192 3.1963 -5.51467 0
M  V30 5851 C 551.879 3.58684 -4.94761 0
M  V30 5852 C 552.877 3.43087 -5.90576 0
M  V30 5853 O 552.565 3.50598 -7.2342 0
M  V30 5854 H 552.297 0.549981 -0.393061 0
M  V30 5855 H 554.851 1.20892 -1.66055 0
M  V30 5856 H 553.081 3.70385 -1.11138 0
M  V30 5857 H 554.77 3.76109 -1.52632 0
M  V30 5858 H 555.536 2.92853 -3.86604 0
M  V30 5859 H 551.415 3.62053 -2.85375 0
M  V30 5860 H 554.959 3.07373 -6.26233 0
M  V30 5861 H 550.856 3.76782 -5.24124 0
M  V30 5862 H 551.624 3.67242 -7.31489 0
M  V30 5863 N 554.287 1.06798 1.15896 0
M  V30 5864 C 555.535 0.786211 1.8618 0
M  V30 5865 C 555.856 -0.689547 1.82401 0
M  V30 5866 O 555.126 -1.49913 1.26107 0
M  V30 5867 H 553.706 0.287843 0.689315 0
M  V30 5868 H 556.368 1.35055 1.40521 0
M  V30 5869 H 555.464 1.1157 2.91477 0
M  V30 5870 N 555.766 -1.3263 0.851289 0
M  V30 5871 C 556.676 -2.32722 0.296268 0
M  V30 5872 C 557.692 -1.63901 -0.584162 0
M  V30 5873 O 558.868 -1.95465 -0.485334 0
M  V30 5874 C 555.933 -3.42942 -0.509103 0
M  V30 5875 C 554.994 -4.2746 0.397069 0
M  V30 5876 C 554.227 -5.32416 -0.36996 0
M  V30 5877 O 554.45 -5.47491 -1.6003 0
M  V30 5878 O 553.384 -6.01327 0.262493 0
M  V30 5879 H 557.21 -2.82078 1.12543 0
M  V30 5880 H 554.795 -1.36194 0.614135 0
M  V30 5881 H 556.677 -4.1017 -0.96634 0
M  V30 5882 H 555.352 -2.95781 -1.31512 0
M  V30 5883 H 554.259 -3.63053 0.902411 0
M  V30 5884 H 555.592 -4.78136 1.16818 0
M  V30 5885 N 557.244 -0.608902 -1.45362 0
M  V30 5886 C 558.154 0.110969 -2.34337 0
M  V30 5887 C 559.17 0.859007 -1.51318 0
M  V30 5888 O 560.346 0.816296 -1.84116 0
M  V30 5889 C 557.411 1.09494 -3.28956 0
M  V30 5890 C 556.472 0.348718 -4.27881 0
M  V30 5891 C 555.705 1.28582 -5.17979 0
M  V30 5892 O 555.928 2.52369 -5.11533 0
M  V30 5893 O 554.862 0.782172 -5.96796 0
M  V30 5894 H 558.688 -0.620258 -2.97299 0
M  V30 5895 H 556.273 -0.36916 -1.44767 0
M  V30 5896 H 558.155 1.66163 -3.87257 0
M  V30 5897 H 556.83 1.80717 -2.68557 0
M  V30 5898 H 555.737 -0.260465 -3.73192 0
M  V30 5899 H 557.07 -0.323049 -4.91139 0
M  V30 5900 N 558.722 1.53707 -0.348139 0
M  V30 5901 C 559.655 2.21481 0.549667 0
M  V30 5902 C 560.633 1.20046 1.09671 0
M  V30 5903 O 561.817 1.48883 1.15612 0
M  V30 5904 C 558.944 2.89585 1.75664 0
M  V30 5905 C 557.99 4.04948 1.33864 0
M  V30 5906 S 558.823 5.34325 0.354577 0
M  V30 5907 C 559.979 6.05934 1.56828 0
M  V30 5908 H 560.212 2.97289 -0.0259755 0
M  V30 5909 H 557.745 1.53833 -0.132216 0
M  V30 5910 H 559.703 3.29441 2.44906 0
M  V30 5911 H 558.364 2.13535 2.30351 0
M  V30 5912 H 557.557 4.51552 2.23868 0
M  V30 5913 H 557.159 3.66893 0.725651 0
M  V30 5914 H 559.451 6.29606 2.50205 0
M  V30 5915 H 560.394 6.98799 1.14395 0
M  V30 5916 H 560.802 5.36151 1.76642 0
M  V30 5917 N 560.2 0.0768682 1.57412 0
M  V30 5918 C 561.446 -0.591961 1.93968 0
M  V30 5919 C 561.779 -1.68954 0.9575 0
M  V30 5920 O 561.054 -1.94496 -0.0124675 0
M  V30 5921 C 561.337 -1.16418 3.40762 0
M  V30 5922 C 561.19 -0.0728933 4.49741 0
M  V30 5923 C 562.509 -2.06814 3.88479 0
M  V30 5924 H 559.628 -0.213716 0.705333 0
M  V30 5925 H 562.27 0.14387 1.89455 0
M  V30 5926 H 560.42 -1.79128 3.4474 0
M  V30 5927 H 562.092 0.560446 4.57883 0
M  V30 5928 H 560.335 0.595859 4.29688 0
M  V30 5929 H 561.006 -0.513755 5.49604 0
M  V30 5930 H 563.482 -1.54033 3.8654 0
M  V30 5931 H 562.358 -2.43785 4.91793 0
M  V30 5932 H 562.619 -2.97844 3.26713 0
M  V30 5933 N 561.678 -1.56367 -0.196722 0
M  V30 5934 C 562.61 -1.90941 -1.26784 0
M  V30 5935 C 563.623 -0.799928 -1.41792 0
M  V30 5936 O 564.812 -1.07833 -1.42247 0
M  V30 5937 C 561.912 -2.12477 -2.6402 0
M  V30 5938 C 561.085 -3.43616 -2.70641 0
M  V30 5939 C 560.144 -3.54284 -3.89062 0
M  V30 5940 O 559.17 -4.2712 -3.76241 0
M  V30 5941 N 560.372 -2.87252 -5.04447 0
M  V30 5942 H 563.137 -2.83417 -0.974417 0
M  V30 5943 H 560.698 -1.57215 -0.386649 0
M  V30 5944 H 562.69 -2.16904 -3.41665 0
M  V30 5945 H 561.26 -1.26508 -2.85857 0
M  V30 5946 H 560.48 -3.51072 -1.79283 0
M  V30 5947 H 561.768 -4.29958 -2.72054 0
M  V30 5948 H 561.166 -2.27901 -5.17762 0
M  V30 5949 H 559.723 -2.97308 -5.80044 0
M  V30 5950 N 563.156 0.464375 -1.50603 0
M  V30 5951 C 564.119 1.54393 -1.69397 0
M  V30 5952 C 565.119 1.50566 -0.564504 0
M  V30 5953 O 566.309 1.53066 -0.831645 0
M  V30 5954 C 563.441 2.9401 -1.72543 0
M  V30 5955 H 564.634 1.39044 -2.65719 0
M  V30 5956 H 562.187 0.69122 -1.40185 0
M  V30 5957 H 562.922 3.14795 -0.77938 0
M  V30 5958 H 562.707 2.98195 -2.54602 0
M  V30 5959 H 564.197 3.72375 -1.89015 0
M  V30 5960 N 564.634 1.40294 0.718013 0
M  V30 5961 C 565.564 1.43118 1.84498 0
M  V30 5962 C 566.545 0.292403 1.67568 0
M  V30 5963 O 567.73 0.500675 1.87635 0
M  V30 5964 C 564.86 1.29065 3.22427 0
M  V30 5965 C 563.814 2.40521 3.54025 0
M  V30 5966 C 563.14 2.11546 4.91073 0
M  V30 5967 C 564.44 3.82859 3.55269 0
M  V30 5968 H 566.134 2.37432 1.82391 0
M  V30 5969 H 563.68 1.14283 0.87609 0
M  V30 5970 H 565.633 1.29658 4.00957 0
M  V30 5971 H 564.357 0.312271 3.25104 0
M  V30 5972 H 563.016 2.39173 2.77834 0
M  V30 5973 H 562.664 1.12104 4.90348 0
M  V30 5974 H 562.364 2.86216 5.1318 0
M  V30 5975 H 563.888 2.13817 5.71939 0
M  V30 5976 H 565.302 3.86044 4.23843 0
M  V30 5977 H 563.699 4.57029 3.88902 0
M  V30 5978 H 564.769 4.12617 2.54706 0
M  V30 5979 N 566.112 -0.949982 1.2575 0
M  V30 5980 C 567.059 -2.04738 1.06541 0
M  V30 5981 C 568.029 -1.66078 -0.0268818 0
M  V30 5982 O 569.214 -1.90348 0.131196 0
M  V30 5983 C 566.354 -3.38027 0.695127 0
M  V30 5984 C 565.467 -3.89776 1.86276 0
M  V30 5985 C 564.602 -5.11411 1.4364 0
M  V30 5986 C 563.641 -5.554 2.57287 0
M  V30 5987 N 562.778 -6.68244 2.15395 0
M  V30 5988 H 567.618 -2.20502 2.00457 0
M  V30 5989 H 565.155 -1.0805 0.998178 0
M  V30 5990 H 567.113 -4.14641 0.461375 0
M  V30 5991 H 565.743 -3.22135 -0.207046 0
M  V30 5992 H 564.795 -3.0964 2.20969 0
M  V30 5993 H 566.107 -4.18368 2.71606 0
M  V30 5994 H 565.261 -5.95457 1.16257 0
M  V30 5995 H 564 -4.84545 0.553879 0
M  V30 5996 H 563.005 -4.69916 2.85409 0
M  V30 5997 H 564.23 -5.84272 3.46125 0
M  V30 5998 H 562.176 -6.43078 1.29565 0
M  V30 5999 H 562.093 -6.96377 2.94272 0
M  V30 6000 H 563.361 -7.55687 1.91201 0
M  V30 6001 N 567.59 -1.07411 -1.15328 0
M  V30 6002 C 568.522 -0.652924 -2.19703 0
M  V30 6003 C 569.535 0.294869 -1.60107 0
M  V30 6004 O 570.724 0.0840932 -1.78302 0
M  V30 6005 C 567.824 0.061434 -3.38844 0
M  V30 6006 C 566.997 -0.902696 -4.27984 0
M  V30 6007 C 566.056 -0.225521 -5.25717 0
M  V30 6008 O 565.082 -0.86676 -5.62562 0
M  V30 6009 N 566.284 1.02858 -5.71315 0
M  V30 6010 H 569.049 -1.55081 -2.56457 0
M  V30 6011 H 566.61 -0.958883 -1.30449 0
M  V30 6012 H 568.602 0.525145 -4.01278 0
M  V30 6013 H 567.172 0.861269 -3.00501 0
M  V30 6014 H 566.392 -1.54551 -3.6264 0
M  V30 6015 H 567.68 -1.55636 -4.84412 0
M  V30 6016 H 567.078 1.56948 -5.43492 0
M  V30 6017 H 565.635 1.43596 -6.35786 0
M  V30 6018 N 569.068 1.32177 -0.85831 0
M  V30 6019 C 569.998 2.31282 -0.321041 0
M  V30 6020 C 570.979 1.59841 0.581786 0
M  V30 6021 O 572.164 1.87619 0.501262 0
M  V30 6022 C 569.294 3.4385 0.48832 0
M  V30 6023 C 568.248 4.26799 -0.320391 0
M  V30 6024 C 567.574 5.31164 0.613934 0
M  V30 6025 C 568.874 4.98829 -1.54813 0
M  V30 6026 H 570.568 2.76469 -1.14915 0
M  V30 6027 H 568.114 1.32916 -0.554028 0
M  V30 6028 H 570.067 4.12224 0.874626 0
M  V30 6029 H 568.791 2.97401 1.34983 0
M  V30 6030 H 567.45 3.60077 -0.688497 0
M  V30 6031 H 567.098 4.80967 1.47239 0
M  V30 6032 H 566.798 5.8755 0.0768097 0
M  V30 6033 H 568.322 6.024 0.997336 0
M  V30 6034 H 569.736 5.59864 -1.23392 0
M  V30 6035 H 568.133 5.64957 -2.02346 0
M  V30 6036 H 569.203 4.26483 -2.30739 0
M  V30 6037 N 570.547 0.616602 1.45037 0
M  V30 6038 C 571.494 -0.0969439 2.30596 0
M  V30 6039 C 572.464 -0.851151 1.42635 0
M  V30 6040 O 573.649 -0.835092 1.71554 0
M  V30 6041 C 570.789 -1.08234 3.27688 0
M  V30 6042 C 569.902 -0.328072 4.30752 0
M  V30 6043 C 569.037 -1.30399 5.14946 0
M  V30 6044 C 568.076 -0.538049 6.09731 0
M  V30 6045 N 567.213 -1.46371 6.86673 0
M  V30 6046 H 572.053 0.63864 2.91076 0
M  V30 6047 H 569.59 0.326733 1.43425 0
M  V30 6048 H 571.548 -1.66688 3.82454 0
M  V30 6049 H 570.178 -1.78523 2.68941 0
M  V30 6050 H 569.23 0.372136 3.78575 0
M  V30 6051 H 570.542 0.269142 4.98073 0
M  V30 6052 H 569.696 -1.96032 5.74157 0
M  V30 6053 H 568.435 -1.93514 4.47665 0
M  V30 6054 H 567.44 0.131852 5.49642 0
M  V30 6055 H 568.665 0.0881732 6.79043 0
M  V30 6056 H 566.611 -2.08233 6.22073 0
M  V30 6057 H 566.528 -0.920152 7.50379 0
M  V30 6058 H 567.796 -2.10932 7.50418 0
M  V30 6059 N 572.025 -1.5352 0.356285 0
M  V30 6060 C 573.302 -1.93405 -0.292223 0
M  V30 6061 C 573.682 -1.28901 -1.67176 0
M  V30 6062 O 573.03 -0.444632 -2.24132 0
M  V30 6063 C 573.24 -3.47223 -0.35175 0
M  V30 6064 C 574.588 -4.20389 -0.596534 0
M  V30 6065 O 575.612 -3.53554 -0.433344 0
M  V30 6066 O 574.471 -5.3881 -0.913589 0
M  V30 6067 H 571.565 -0.808666 -0.173172 0
M  V30 6068 H 574.111 -1.64713 0.408391 0
M  V30 6069 H 572.883 -3.86423 0.615841 0
M  V30 6070 H 572.506 -3.8212 -1.09864 0
M  V30 6071 N 573.503 -0.0852151 -1.57369 0
M  V30 6072 C 574.728 0.592872 -1.98746 0
M  V30 6073 C 575.153 1.61538 -0.963689 0
M  V30 6074 O 574.511 1.81168 0.069071 0
M  V30 6075 C 574.559 1.22599 -3.39119 0
M  V30 6076 O 573.663 2.34185 -3.39457 0
M  V30 6077 H 573.004 0.151314 -0.646529 0
M  V30 6078 H 575.534 -0.163703 -2.03944 0
M  V30 6079 H 575.544 1.56965 -3.76598 0
M  V30 6080 H 574.219 0.476831 -4.13158 0
M  V30 6081 H 572.796 2.01512 -3.13763 0
M  V30 6082 N 574.981 1.5647 0.188427 0
M  V30 6083 C 575.891 1.98285 1.2538 0
M  V30 6084 C 576.907 0.891535 1.49424 0
M  V30 6085 O 578.083 1.19782 1.61908 0
M  V30 6086 C 575.148 2.31965 2.57669 0
M  V30 6087 C 574.209 3.54838 2.41638 0
M  V30 6088 C 573.442 3.86901 3.67618 0
M  V30 6089 O 573.665 3.20163 4.72072 0
M  V30 6090 O 572.599 4.80309 3.62749 0
M  V30 6091 H 576.425 2.89145 0.928912 0
M  V30 6092 H 574.01 1.44112 0.393955 0
M  V30 6093 H 575.892 2.54673 3.35737 0
M  V30 6094 H 574.567 1.44271 2.89771 0
M  V30 6095 H 573.474 3.37369 1.61658 0
M  V30 6096 H 574.807 4.43019 2.14465 0
M  V30 6097 N 576.459 -0.456382 1.50847 0
M  V30 6098 C 577.369 -1.57805 1.73594 0
M  V30 6099 C 578.385 -1.62599 0.619476 0
M  V30 6100 O 579.561 -1.80195 0.899532 0
M  V30 6101 C 576.626 -2.93926 1.8387 0
M  V30 6102 C 575.687 -2.99402 3.07663 0
M  V30 6103 C 574.92 -4.29031 3.1744 0
M  V30 6104 O 575.143 -5.20358 2.33631 0
M  V30 6105 O 574.077 -4.40401 4.10281 0
M  V30 6106 H 577.903 -1.41531 2.68705 0
M  V30 6107 H 575.488 -0.637422 1.3512 0
M  V30 6108 H 577.37 -3.74747 1.92725 0
M  V30 6109 H 576.045 -3.10368 0.91944 0
M  V30 6110 H 574.952 -2.17606 3.043 0
M  V30 6111 H 576.285 -2.87901 3.99216 0
M  V30 6112 N 577.937 -1.40673 -0.710563 0
M  V30 6113 C 579.353 -1.22813 -1.01928 0
M  V30 6114 C 579.553 -0.10687 -2.01216 0
M  V30 6115 O 578.609 0.533614 -2.46797 0
M  V30 6116 C 579.922 -2.57178 -1.5582 0
M  V30 6117 C 581.47 -2.64233 -1.67779 0
M  V30 6118 C 581.945 -3.98879 -2.25076 0
M  V30 6119 N 583.436 -4.00647 -2.32456 0
M  V30 6120 C 584.171 -5.01621 -2.77784 0
M  V30 6121 N 583.667 -6.12989 -3.22826 0
M  V30 6122 N 585.46 -4.88988 -2.77213 0
M  V30 6123 H 577.611 -2.12335 -0.05253 0
M  V30 6124 H 579.874 -0.9441 -0.085898 0
M  V30 6125 H 579.58 -3.39903 -0.903249 0
M  V30 6126 H 579.454 -2.78618 -2.54267 0
M  V30 6127 H 581.841 -1.81876 -2.3239 0
M  V30 6128 H 581.922 -2.46619 -0.679178 0
M  V30 6129 H 581.566 -4.81678 -1.61086 0
M  V30 6130 H 581.496 -4.13826 -3.25661 0
M  V30 6131 H 583.987 -3.20231 -2.0065 0
M  V30 6132 H 584.3 -6.85921 -3.55995 0
M  V30 6133 H 582.645 -6.16547 -3.20773 0
M  V30 6134 H 585.836 -4.01075 -2.41363 0
M  V30 6135 H 586.009 -5.67822 -3.12221 0
M  V30 6136 N 579.415 0.9433 -1.26252 0
M  V30 6137 C 580.378 2.02326 -1.07689 0
M  V30 6138 C 581.378 1.60779 -0.0259174 0
M  V30 6139 O 582.568 1.72108 -0.269134 0
M  V30 6140 C 579.7 3.34886 -0.63752 0
M  V30 6141 H 580.893 2.20225 -2.0357 0
M  V30 6142 H 578.446 1.12197 -1.08819 0
M  V30 6143 H 579.181 3.22684 0.323377 0
M  V30 6144 H 578.966 3.66393 -1.39637 0
M  V30 6145 H 580.456 4.14231 -0.529418 0
M  V30 6146 N 580.893 1.08022 1.14757 0
M  V30 6147 C 582.118 0.82895 1.90114 0
M  V30 6148 C 582.543 -0.612772 1.77839 0
M  V30 6149 O 581.901 -1.42895 1.11583 0
M  V30 6150 C 581.949 1.25062 3.38219 0
M  V30 6151 O 581.053 0.400119 4.10454 0
M  V30 6152 H 580.394 0.301412 0.591648 0
M  V30 6153 H 582.924 1.44062 1.45284 0
M  V30 6154 H 582.934 1.22977 3.89025 0
M  V30 6155 H 581.609 2.30067 3.46471 0
M  V30 6156 H 580.186 0.484052 3.69745 0
M  V30 6157 N 582.371 -1.3172 0.865308 0
M  V30 6158 C 583.601 -2.00765 0.487543 0
M  V30 6159 C 584.009 -1.65145 -0.92325 0
M  V30 6160 O 583.352 -0.874294 -1.61561 0
M  V30 6161 C 583.414 -3.55122 0.559369 0
M  V30 6162 C 583.078 -4.14202 1.93095 0
M  V30 6163 C 584.075 -4.3165 2.89784 0
M  V30 6164 C 581.76 -4.50036 2.23099 0
M  V30 6165 C 583.754 -4.84114 4.14623 0
M  V30 6166 C 581.441 -5.02203 3.48189 0
M  V30 6167 C 582.439 -5.19192 4.43767 0
M  V30 6168 O 582.127 -5.70241 5.6664 0
M  V30 6169 H 581.859 -0.649066 0.188915 0
M  V30 6170 H 584.413 -1.69032 1.16694 0
M  V30 6171 H 582.643 -3.86295 -0.176926 0
M  V30 6172 H 584.332 -4.05428 0.195694 0
M  V30 6173 H 585.098 -4.04288 2.6791 0
M  V30 6174 H 580.977 -4.36091 1.49485 0
M  V30 6175 H 584.521 -4.9729 4.89233 0
M  V30 6176 H 580.418 -5.28997 3.69908 0
M  V30 6177 H 581.186 -5.88617 5.68746 0
M  V30 6178 N 583.85 -0.624285 -1.44708 0
M  V30 6179 C 585.099 -0.123539 -2.01321 0
M  V30 6180 C 585.412 1.25966 -1.49639 0
M  V30 6181 O 586.618 1.85405 -1.98336 0
M  V30 6182 C 585.074 -0.170124 -3.59498 0
M  V30 6183 C 584.682 -1.55421 -4.20176 0
M  V30 6184 C 586.426 0.274513 -4.23611 0
M  V30 6185 C 584.332 -1.55628 -5.70556 0
M  V30 6186 H 583.263 -0.0424183 -0.752806 0
M  V30 6187 H 585.913 -0.782076 -1.65999 0
M  V30 6188 H 584.296 0.555385 -3.92086 0
M  V30 6189 H 585.47 -2.30276 -3.99136 0
M  V30 6190 H 583.784 -1.94235 -3.68323 0
M  V30 6191 H 586.382 0.292402 -5.339 0
M  V30 6192 H 586.725 1.3005 -3.95465 0
M  V30 6193 H 587.258 -0.398275 -3.95801 0
M  V30 6194 H 583.997 -2.56041 -6.03426 0
M  V30 6195 H 583.517 -0.850563 -5.93739 0
M  V30 6196 H 585.196 -1.28721 -6.34066 0
M  V30 6197 N 585.328 1.53329 -0.364422 0
M  V30 6198 C 586.258 2.28627 0.474543 0
M  V30 6199 C 587.239 1.31009 1.08492 0
M  V30 6200 O 588.424 1.59878 1.10239 0
M  V30 6201 C 585.554 3.07465 1.61501 0
M  V30 6202 C 584.508 4.1276 1.13194 0
M  V30 6203 C 583.834 4.79674 2.36255 0
M  V30 6204 C 585.134 5.21847 0.217507 0
M  V30 6205 H 586.828 2.99005 -0.153656 0
M  V30 6206 H 584.374 1.43803 -0.0753406 0
M  V30 6207 H 586.327 3.58889 2.20855 0
M  V30 6208 H 585.051 2.34775 2.27042 0
M  V30 6209 H 583.71 3.62281 0.56109 0
M  V30 6210 H 583.358 4.03557 3.00251 0
M  V30 6211 H 583.058 5.50827 2.04606 0
M  V30 6212 H 584.582 5.33892 2.96297 0
M  V30 6213 H 585.996 5.6878 0.718493 0
M  V30 6214 H 584.393 6.00099 -0.00806408 0
M  V30 6215 H 585.463 4.7921 -0.740653 0
M  V30 6216 N 586.806 0.0935595 1.57322 0
M  V30 6217 C 587.739 -0.902505 2.09595 0
M  V30 6218 C 588.717 -1.27732 1.00615 0
M  V30 6219 O 589.901 -1.38283 1.28102 0
M  V30 6220 C 587.028 -2.20416 2.57166 0
M  V30 6221 C 586.074 -1.97932 3.7779 0
M  V30 6222 S 586.907 -1.21873 5.21447 0
M  V30 6223 C 588.063 -2.53273 5.72367 0
M  V30 6224 H 588.296 -0.457797 2.93754 0
M  V30 6225 H 585.829 -0.119694 1.53935 0
M  V30 6226 H 587.787 -2.95217 2.85232 0
M  V30 6227 H 586.448 -2.62008 1.73235 0
M  V30 6228 H 585.641 -2.94316 4.09138 0
M  V30 6229 H 585.243 -1.3126 3.5021 0
M  V30 6230 H 587.535 -3.49256 5.8054 0
M  V30 6231 H 588.478 -2.26505 6.70896 0
M  V30 6232 H 588.886 -2.61475 5.00291 0
M  V30 6233 N 588.284 -1.56567 -0.180126 0
M  V30 6234 C 589.194 -1.98947 -1.24327 0
M  V30 6235 C 590.21 -0.899446 -1.4895 0
M  V30 6236 O 591.386 -1.20639 -1.61271 0
M  V30 6237 C 588.451 -2.33328 -2.56435 0
M  V30 6238 C 587.512 -3.56114 -2.39752 0
M  V30 6239 C 586.745 -3.88845 -3.65561 0
M  V30 6240 O 586.968 -3.22662 -4.70368 0
M  V30 6241 O 585.902 -4.82226 -3.60197 0
M  V30 6242 H 589.728 -2.89634 -0.913565 0
M  V30 6243 H 587.313 -1.44319 -0.386306 0
M  V30 6244 H 589.195 -2.5645 -3.34382 0
M  V30 6245 H 587.87 -1.45806 -2.89002 0
M  V30 6246 H 586.777 -3.38221 -1.59866 0
M  V30 6247 H 588.11 -4.4415 -2.12113 0
M  V30 6248 N 589.762 0.448376 -1.51087 0
M  V30 6249 C 590.709 1.54341 -1.71603 0
M  V30 6250 C 591.679 1.56463 -0.557536 0
M  V30 6251 O 592.864 1.73644 -0.79072 0
M  V30 6252 C 590.004 2.92148 -1.83695 0
M  V30 6253 C 589.117 2.99639 -3.11192 0
M  V30 6254 C 588.252 4.285 -3.13944 0
M  V30 6255 C 587.291 4.29819 -4.35801 0
M  V30 6256 N 586.428 5.50186 -4.36164 0
M  V30 6257 H 591.268 1.36151 -2.65079 0
M  V30 6258 H 588.805 0.661585 -1.31383 0
M  V30 6259 H 590.763 3.72093 -1.88687 0
M  V30 6260 H 589.393 3.0892 -0.936374 0
M  V30 6261 H 588.445 2.12425 -3.15562 0
M  V30 6262 H 589.757 2.96474 -4.01129 0
M  V30 6263 H 588.911 5.16811 -3.17791 0
M  V30 6264 H 587.65 4.34307 -2.21876 0
M  V30 6265 H 586.655 3.39902 -4.32142 0
M  V30 6266 H 587.88 4.25685 -5.29121 0
M  V30 6267 H 585.826 5.56735 -3.46961 0
M  V30 6268 H 585.743 5.48856 -5.19897 0
M  V30 6269 H 587.011 6.40559 -4.44189 0
M  V30 6270 N 591.24 1.41047 0.703093 0
M  V30 6271 C 592.489 1.39301 1.4587 0
M  V30 6272 C 592.802 0.00267077 1.956 0
M  V30 6273 O 594.008 -0.137414 2.71152 0
M  V30 6274 C 592.464 2.44891 2.63735 0
M  V30 6275 C 592.072 3.89796 2.20824 0
M  V30 6276 C 593.816 2.5227 3.41409 0
M  V30 6277 C 591.723 4.86955 3.35602 0
M  V30 6278 H 590.653 0.518005 0.547893 0
M  V30 6279 H 593.304 1.66839 0.764009 0
M  V30 6280 H 591.686 2.10472 3.35436 0
M  V30 6281 H 592.86 4.33424 1.56461 0
M  V30 6282 H 591.175 3.86008 1.56163 0
M  V30 6283 H 593.772 3.22044 4.26839 0
M  V30 6284 H 594.115 1.55714 3.86081 0
M  V30 6285 H 594.648 2.85742 2.7676 0
M  V30 6286 H 591.387 5.84888 2.9595 0
M  V30 6287 H 590.907 4.47982 3.98839 0
M  V30 6288 H 592.586 5.07361 4.01489 0
M  V30 6289 N 592.718 -0.936591 1.26751 0
M  V30 6290 C 593.628 -2.06949 1.10496 0
M  V30 6291 C 594.644 -1.7396 0.037271 0
M  V30 6292 O 595.82 -1.99941 0.241944 0
M  V30 6293 C 592.885 -3.38612 0.744491 0
M  V30 6294 C 591.946 -3.85355 1.89209 0
M  V30 6295 C 591.179 -5.10735 1.54873 0
M  V30 6296 O 591.402 -5.68602 0.452546 0
M  V30 6297 O 590.336 -5.52632 2.38499 0
M  V30 6298 H 594.162 -2.23571 2.05547 0
M  V30 6299 H 591.747 -1.05428 1.05855 0
M  V30 6300 H 593.629 -4.17711 0.556396 0
M  V30 6301 H 592.304 -3.23218 -0.176582 0
M  V30 6302 H 591.211 -3.07182 2.13518 0
M  V30 6303 H 592.544 -4.05277 2.79305 0
M  V30 6304 N 594.196 -1.08629 -1.14182 0
M  V30 6305 C 595.607 -0.838003 -1.66836 0
M  V30 6306 C 595.958 0.634885 -1.85644 0
M  V30 6307 O 595.083 1.49008 -1.56926 0
M  V30 6308 C 595.678 -1.51465 -3.03058 0
M  V30 6309 C 594.237 -1.31355 -3.52736 0
M  V30 6310 C 593.384 -1.57599 -2.28162 0
M  V30 6311 H 596.335 -1.24656 -0.982165 0
M  V30 6312 H 596.356 -0.943134 -3.68626 0
M  V30 6313 H 595.868 -2.58661 -2.89337 0
M  V30 6314 H 593.969 -0.262384 -3.71675 0
M  V30 6315 H 594.082 -2.04275 -4.33369 0
M  V30 6316 H 592.446 -0.997659 -2.34348 0
M  V30 6317 H 593.229 -2.66006 -2.17015 0
M  V30 6318 N 595.674 1.31259 -0.872281 0
M  V30 6319 C 596.584 2.32221 -0.333255 0
M  V30 6320 C 597.6 1.6481 0.558013 0
M  V30 6321 O 598.776 1.96212 0.454175 0
M  V30 6322 C 595.841 3.43708 0.454479 0
M  V30 6323 C 594.902 4.26774 -0.465024 0
M  V30 6324 C 594.135 5.32937 0.28521 0
M  V30 6325 O 594.358 5.49968 1.513 0
M  V30 6326 O 593.292 6.00834 -0.358126 0
M  V30 6327 H 597.118 2.80252 -1.17016 0
M  V30 6328 H 594.703 1.352 -0.635724 0
M  V30 6329 H 596.585 4.11656 0.900963 0
M  V30 6330 H 595.26 2.97836 1.26789 0
M  V30 6331 H 594.167 3.61571 -0.960055 0
M  V30 6332 H 595.5 4.76217 -1.2441 0
M  V30 6333 N 597.152 0.631951 1.44375 0
M  V30 6334 C 598.563 0.219036 1.85411 0
M  V30 6335 C 598.914 -1.22974 1.52879 0
M  V30 6336 O 598.039 -1.93579 0.967266 0
M  V30 6337 C 598.634 0.39075 3.36539 0
M  V30 6338 C 597.193 0.0323351 3.76386 0
M  V30 6339 C 596.34 0.703744 2.68221 0
M  V30 6340 H 599.291 0.837056 1.3483 0
M  V30 6341 H 599.312 -0.370056 3.78696 0
M  V30 6342 H 598.824 1.44527 3.60185 0
M  V30 6343 H 596.925 -1.02042 3.58355 0
M  V30 6344 H 597.038 0.442969 4.77048 0
M  V30 6345 H 595.402 0.138974 2.54321 0
M  V30 6346 H 596.185 1.76088 2.947 0
M  V30 6347 N 598.631 -1.53133 0.372548 0
M  V30 6348 C 599.878 -2.01356 -0.214959 0
M  V30 6349 C 600.206 -1.2596 -1.48204 0
M  V30 6350 O 599.461 -0.343511 -1.92662 0
M  V30 6351 C 599.76 -3.53206 -0.545938 0
M  V30 6352 C 599.426 -4.46511 0.627624 0
M  V30 6353 C 598.088 -4.71737 0.949615 0
M  V30 6354 C 600.44 -5.01666 1.41353 0
M  V30 6355 C 597.768 -5.4937 2.05936 0
M  V30 6356 C 600.12 -5.80511 2.51375 0
M  V30 6357 C 598.784 -6.04022 2.84101 0
M  V30 6358 H 598.054 -0.736813 -0.078659 0
M  V30 6359 H 600.701 -1.84682 0.506447 0
M  V30 6360 H 599.006 -3.67864 -1.34845 0
M  V30 6361 H 600.703 -3.87997 -1.01287 0
M  V30 6362 H 597.293 -4.27029 0.366635 0
M  V30 6363 H 601.477 -4.82117 1.17802 0
M  V30 6364 H 596.733 -5.65803 2.31682 0
M  V30 6365 H 600.907 -6.22255 3.12684 0
M  V30 6366 H 598.534 -6.63962 3.70214 0
M  V30 6367 N 600.109 -0.101901 -1.5727 0
M  V30 6368 C 601.019 0.868647 -2.17926 0
M  V30 6369 C 602.035 1.30527 -1.1506 0
M  V30 6370 O 603.211 1.37178 -1.47459 0
M  V30 6371 C 600.276 2.10727 -2.75309 0
M  V30 6372 C 599.337 1.7242 -3.93154 0
M  V30 6373 C 598.57 2.90377 -4.47791 0
M  V30 6374 O 598.793 4.05305 -4.01353 0
M  V30 6375 O 597.727 2.6845 -5.38719 0
M  V30 6376 H 601.553 0.382544 -3.01281 0
M  V30 6377 H 599.138 0.122812 -1.48894 0
M  V30 6378 H 601.02 2.83303 -3.11958 0
M  V30 6379 H 599.695 2.58376 -1.94996 0
M  V30 6380 H 598.602 0.970039 -3.61305 0
M  V30 6381 H 599.935 1.29528 -4.74851 0
M  V30 6382 N 601.587 1.56661 0.17182 0
M  V30 6383 C 602.535 1.97289 1.23207 0
M  V30 6384 C 603.529 0.861566 1.45854 0
M  V30 6385 O 604.735 1.04668 1.4644 0
M  V30 6386 H 601.11 0.627681 0.41415 0
M  V30 6387 H 603.081 2.85662 0.862542 0
M  V30 6388 C 601.83 2.34849 2.564 0
M  V30 6389 H 601.153 3.19903 2.39797 0
M  V30 6390 H 602.593 2.67121 3.29276 0
M  V30 6391 C 601.052 1.19172 3.15119 0
M  V30 6392 O 601.582 0.479113 3.98833 0
M  V30 6393 N 599.788 0.962415 2.74201 0
M  V30 6394 H 599.335 1.54365 2.06226 0
M  V30 6395 H 599.293 0.190272 3.13824 0
M  V30 6396 N 603.065 -0.440357 1.51323 0
M  V30 6397 C 604.305 -1.19956 1.65499 0
M  V30 6398 C 604.669 -1.88559 0.361878 0
M  V30 6399 O 605.87 -2.66109 0.379383 0
M  V30 6400 C 604.141 -2.1918 2.82303 0
M  V30 6401 S 605.7 -3.03627 3.1679 0
M  V30 6402 H 602.518 -0.406833 0.583102 0
M  V30 6403 H 605.12 -0.491596 1.89218 0
M  V30 6404 H 603.824 -1.67414 3.74701 0
M  V30 6405 H 603.355 -2.94561 2.60763 0
M  V30 6406 H 605.37 -4.20773 2.62991 0
M  V30 6407 N 604.543 -1.41418 -0.695603 0
M  V30 6408 C 605.473 -1.46035 -1.82197 0
M  V30 6409 C 606.454 -0.319025 -1.67082 0
M  V30 6410 O 607.639 -0.530462 -1.86815 0
M  V30 6411 C 604.769 -1.34179 -3.20333 0
M  V30 6412 C 603.723 -2.46123 -3.50154 0
M  V30 6413 C 603.049 -2.19332 -4.87645 0
M  V30 6414 C 604.349 -3.88463 -3.49133 0
M  V30 6415 H 606.043 -2.40303 -1.78591 0
M  V30 6416 H 603.589 -1.15663 -0.857797 0
M  V30 6417 H 605.542 -1.36021 -3.98844 0
M  V30 6418 H 604.266 -0.363952 -3.24566 0
M  V30 6419 H 602.925 -2.43563 -2.73994 0
M  V30 6420 H 602.573 -1.19891 -4.88503 0
M  V30 6421 H 602.273 -2.94344 -5.08562 0
M  V30 6422 H 603.797 -2.22889 -5.68465 0
M  V30 6423 H 605.211 -3.92738 -4.17648 0
M  V30 6424 H 603.608 -4.63158 -3.81582 0
M  V30 6425 H 604.678 -4.16617 -2.48109 0
M  V30 6426 N 606.021 0.929856 -1.27246 0
M  V30 6427 C 606.951 2.04722 -1.12299 0
M  V30 6428 C 607.932 1.70082 -0.0250464 0
M  V30 6429 O 609.117 1.93176 -0.199141 0
M  V30 6430 C 606.247 3.38721 -0.767145 0
M  V30 6431 C 605.201 3.87466 -1.81808 0
M  V30 6432 C 604.527 5.18246 -1.31626 0
M  V30 6433 C 605.827 4.11095 -3.22177 0
M  V30 6434 H 607.521 2.17485 -2.05769 0
M  V30 6435 H 605.067 1.04503 -0.990715 0
M  V30 6436 H 607.02 4.16366 -0.649413 0
M  V30 6437 H 605.744 3.25967 0.203259 0
M  V30 6438 H 604.403 3.12012 -1.92468 0
M  V30 6439 H 604.051 5.01881 -0.335378 0
M  V30 6440 H 603.751 5.51829 -2.01887 0
M  V30 6441 H 605.275 5.98462 -1.21143 0
M  V30 6442 H 606.689 4.79316 -3.1453 0
M  V30 6443 H 605.086 4.55982 -3.90129 0
M  V30 6444 H 606.156 3.16468 -3.67391 0
M  V30 6445 N 607.499 1.09233 1.13605 0
M  V30 6446 C 608.915 0.82163 1.36826 0
M  V30 6447 C 609.115 -0.565021 1.93416 0
M  V30 6448 O 608.171 -1.32026 2.15234 0
M  V30 6449 C 609.484 1.91124 2.32147 0
M  V30 6450 C 611.032 1.93824 2.45767 0
M  V30 6451 C 611.507 3.01923 3.44393 0
M  V30 6452 N 612.998 3.01149 3.51942 0
M  V30 6453 C 613.733 3.81434 4.2813 0
M  V30 6454 N 613.229 4.71621 5.07489 0
M  V30 6455 N 615.022 3.69702 4.23411 0
M  V30 6456 H 607.173 1.98633 0.752234 0
M  V30 6457 H 609.436 0.862482 0.393482 0
M  V30 6458 H 609.142 2.90862 1.97717 0
M  V30 6459 H 609.016 1.78777 3.32142 0
M  V30 6460 H 611.403 0.94726 2.79483 0
M  V30 6461 H 611.484 2.10248 1.45703 0
M  V30 6462 H 611.128 4.01232 3.11408 0
M  V30 6463 H 611.058 2.82742 4.44257 0
M  V30 6464 H 613.549 2.35789 2.95317 0
M  V30 6465 H 613.862 5.29468 5.62924 0
M  V30 6466 H 612.207 4.75658 5.06729 0
M  V30 6467 H 615.398 2.98606 3.60489 0
M  V30 6468 H 615.571 4.32509 4.82535 0
M  V30 6469 N 608.977 -1.30795 0.87923 0
M  V30 6470 C 610.388 -1.78535 0.546093 0
M  V30 6471 C 610.739 -1.72354 -0.937467 0
M  V30 6472 O 609.864 -1.2969 -1.73233 0
M  V30 6473 C 610.459 -3.24181 0.9845 0
M  V30 6474 C 609.018 -3.69779 0.702871 0
M  V30 6475 C 608.165 -2.51377 1.17068 0
M  V30 6476 H 611.116 -1.17746 1.06403 0
M  V30 6477 H 611.137 -3.79227 0.311045 0
M  V30 6478 H 610.649 -3.28647 2.06429 0
M  V30 6479 H 608.75 -3.70806 -0.365166 0
M  V30 6480 H 608.863 -4.61507 1.28639 0
M  V30 6481 H 607.227 -2.47768 0.590172 0
M  V30 6482 H 608.01 -2.58584 2.25808 0
M  V30 6483 N 610.455 -0.639598 -1.44038 0
M  V30 6484 C 611.703 -0.147188 -2.01563 0
M  V30 6485 C 612.024 1.2384 -1.50628 0
M  V30 6486 O 611.294 1.82452 -0.713316 0
M  V30 6487 H 609.874 -0.0514231 -0.745228 0
M  V30 6488 H 612.536 -0.828205 -1.76428 0
M  V30 6489 H 611.632 -0.121358 -3.11864 0
M  V30 6490 N 611.933 1.52934 -0.380664 0
M  V30 6491 C 613.158 2.06363 0.207157 0
M  V30 6492 C 613.583 1.25122 1.4045 0
M  V30 6493 O 612.941 0.274062 1.79217 0
M  V30 6494 C 612.989 3.56162 0.563996 0
M  V30 6495 O 612.093 3.77552 1.65917 0
M  V30 6496 H 611.434 0.663468 0.0265859 0
M  V30 6497 H 613.964 1.9719 -0.545635 0
M  V30 6498 H 613.974 3.99453 0.830752 0
M  V30 6499 H 612.649 4.14732 -0.311427 0
M  V30 6500 H 611.226 3.46154 1.3868 0
M  V30 6501 N 613.412 0.11024 1.57214 0
M  V30 6502 C 614.823 -0.416527 1.81994 0
M  V30 6503 C 615.174 -1.67183 1.02686 0
M  V30 6504 O 614.299 -2.14823 0.260782 0
M  V30 6505 C 614.894 -0.762466 3.30109 0
M  V30 6506 C 613.453 -1.23391 3.556 0
M  V30 6507 C 612.6 -0.238166 2.76275 0
M  V30 6508 H 615.551 0.335491 1.55113 0
M  V30 6509 H 615.572 -1.62068 3.44259 0
M  V30 6510 H 615.084 0.151346 3.87805 0
M  V30 6511 H 613.185 -2.16492 3.03253 0
M  V30 6512 H 613.298 -1.18528 4.64207 0
M  V30 6513 H 611.662 -0.723421 2.4421 0
M  V30 6514 H 612.445 0.668591 3.36727 0
M  V30 6515 N 614.89 -1.56749 -0.16351 0
M  V30 6516 C 615.853 -1.96121 -1.18613 0
M  V30 6517 C 616.853 -0.845765 -1.36761 0
M  V30 6518 O 618.043 -1.11268 -1.34033 0
M  V30 6519 C 615.175 -2.26282 -2.54969 0
M  V30 6520 H 616.368 -2.87639 -0.848764 0
M  V30 6521 H 613.921 -1.50928 -0.406251 0
M  V30 6522 H 614.656 -1.37504 -2.93706 0
M  V30 6523 H 614.441 -3.07595 -2.43162 0
M  V30 6524 H 615.931 -2.57638 -3.28653 0
M  V30 6525 N 616.368 0.432326 -1.51554 0
M  V30 6526 C 617.784 0.769195 -1.39841 0
M  V30 6527 C 617.984 1.95584 -0.484675 0
M  V30 6528 O 617.04 2.52433 0.0582829 0
M  V30 6529 C 618.353 1.04487 -2.81963 0
M  V30 6530 C 619.901 1.149 -2.91148 0
M  V30 6531 C 620.376 1.45758 -4.34187 0
M  V30 6532 N 621.867 1.52671 -4.37317 0
M  V30 6533 C 622.602 1.78129 -5.4503 0
M  V30 6534 N 622.098 2.01345 -6.62897 0
M  V30 6535 N 623.891 1.79953 -5.32516 0
M  V30 6536 H 616.042 -0.349122 -2.09511 0
M  V30 6537 H 618.305 -0.0938113 -0.943347 0
M  V30 6538 H 618.011 0.24557 -3.50842 0
M  V30 6539 H 617.885 1.97119 -3.21596 0
M  V30 6540 H 620.272 1.93891 -2.22464 0
M  V30 6541 H 620.353 0.201568 -2.55005 0
M  V30 6542 H 619.997 0.672917 -5.03423 0
M  V30 6543 H 619.927 2.41715 -4.67848 0
M  V30 6544 H 622.418 1.36612 -3.52343 0
M  V30 6545 H 622.731 2.20155 -7.40778 0
M  V30 6546 H 621.076 1.98657 -6.66003 0
M  V30 6547 H 624.267 1.61337 -4.39418 0
M  V30 6548 H 624.44 1.99455 -6.1654 0
M  V30 6549 N 617.846 1.41785 0.688094 0
M  V30 6550 C 619.092 1.41753 1.4503 0
M  V30 6551 C 619.425 0.0290745 1.94178 0
M  V30 6552 O 618.7 -0.944456 1.7003 0
M  V30 6553 C 618.983 2.43069 2.65686 0
M  V30 6554 C 618.836 3.91053 2.22256 0
M  V30 6555 C 620.155 2.41543 3.67893 0
M  V30 6556 H 617.274 0.516202 0.526027 0
M  V30 6557 H 619.916 1.73111 0.783105 0
M  V30 6558 H 618.066 2.1646 3.2261 0
M  V30 6559 H 619.738 4.28594 1.70602 0
M  V30 6560 H 617.981 4.05559 1.53963 0
M  V30 6561 H 618.652 4.57501 3.08863 0
M  V30 6562 H 621.128 2.65175 3.20658 0
M  V30 6563 H 620.004 3.14434 4.49914 0
M  V30 6564 H 620.265 1.43666 4.18106 0
M  V30 6565 N 619.324 -0.923095 1.27737 0
M  V30 6566 C 620.57 -1.67375 1.14514 0
M  V30 6567 C 620.903 -1.91751 -0.307424 0
M  V30 6568 O 620.178 -1.51119 -1.22447 0
M  V30 6569 C 620.461 -3.03745 1.9342 0
M  V30 6570 C 620.314 -2.86581 3.46686 0
M  V30 6571 C 621.633 -4.04144 1.74228 0
M  V30 6572 H 618.752 -0.607427 0.417374 0
M  V30 6573 H 621.394 -1.07089 1.56946 0
M  V30 6574 H 619.544 -3.55204 1.5736 0
M  V30 6575 H 621.216 -2.42203 3.92601 0
M  V30 6576 H 619.459 -2.21829 3.72793 0
M  V30 6577 H 620.13 -3.83381 3.97143 0
M  V30 6578 H 622.606 -3.61712 2.05678 0
M  V30 6579 H 621.482 -4.97543 2.31824 0
M  V30 6580 H 621.743 -4.36661 0.691373 0
M  V30 6581 N 620.802 -1.09834 -1.13024 0
M  V30 6582 C 621.734 -0.699379 -2.18269 0
M  V30 6583 C 622.747 0.260841 -1.60697 0
M  V30 6584 O 623.936 0.0462538 -1.7844 0
M  V30 6585 C 621.036 -0.0104537 -3.38898 0
M  V30 6586 C 620.209 -0.993275 -4.25973 0
M  V30 6587 C 619.268 -0.336982 -5.2512 0
M  V30 6588 O 618.294 -0.985892 -5.60597 0
M  V30 6589 N 619.496 0.90716 -5.73368 0
M  V30 6590 H 622.261 -1.60486 -2.5311 0
M  V30 6591 H 619.822 -0.986337 -1.28386 0
M  V30 6592 H 621.814 0.43991 -4.02302 0
M  V30 6593 H 620.384 0.797335 -3.0226 0
M  V30 6594 H 619.604 -1.62208 -3.5928 0
M  V30 6595 H 620.892 -1.65876 -4.81002 0
M  V30 6596 H 620.29 1.45384 -5.46699 0
M  V30 6597 H 618.847 1.30077 -6.38689 0
M  V30 6598 N 622.28 1.30327 -0.886154 0
M  V30 6599 C 623.52 1.97886 -0.511912 0
M  V30 6600 C 623.884 1.68417 0.921944 0
M  V30 6601 O 625.085 2.29319 1.40237 0
M  V30 6602 C 623.356 3.48775 -0.780444 0
M  V30 6603 S 624.915 4.35844 -0.508482 0
M  V30 6604 H 621.733 0.685024 -0.190428 0
M  V30 6605 H 624.335 1.58413 -1.14567 0
M  V30 6606 H 623.039 3.67714 -1.82248 0
M  V30 6607 H 622.57 3.93171 -0.134284 0
M  V30 6608 H 624.585 4.91893 0.65239 0
M  V30 6609 N 623.758 0.647228 1.43697 0
M  V30 6610 C 625.007 0.155552 2.01099 0
M  V30 6611 C 625.32 -1.23569 1.51624 0
M  V30 6612 O 626.526 -1.82226 2.01261 0
M  V30 6613 C 624.982 0.227296 3.59182 0
M  V30 6614 C 624.59 1.62086 4.17651 0
M  V30 6615 C 626.334 -0.207085 4.23995 0
M  V30 6616 C 624.241 1.64685 5.68008 0
M  V30 6617 H 623.171 0.0543895 0.752036 0
M  V30 6618 H 625.822 0.808386 1.64734 0
M  V30 6619 H 624.204 -0.492937 3.9292 0
M  V30 6620 H 625.378 2.36597 3.95422 0
M  V30 6621 H 623.693 2.0007 3.65186 0
M  V30 6622 H 626.29 -0.207426 5.34298 0
M  V30 6623 H 626.633 -1.23742 3.97484 0
M  V30 6624 H 627.166 0.461193 3.95118 0
M  V30 6625 H 623.905 2.65608 5.99277 0
M  V30 6626 H 623.425 0.944914 5.9231 0
M  V30 6627 H 625.104 1.38792 6.31938 0
M  V30 6628 N 625.236 -1.5273 0.388769 0
M  V30 6629 C 626.461 -2.0647 -0.19621 0
M  V30 6630 C 626.886 -1.25865 -1.39784 0
M  V30 6631 O 626.244 -0.283562 -1.79069 0
M  V30 6632 C 626.292 -3.56456 -0.5451 0
M  V30 6633 O 625.396 -3.78426 -1.63912 0
M  V30 6634 H 624.737 -0.663599 -0.023067 0
M  V30 6635 H 627.267 -1.96898 0.556084 0
M  V30 6636 H 627.277 -3.99888 -0.809557 0
M  V30 6637 H 625.952 -4.14561 0.333417 0
M  V30 6638 H 624.529 -3.46884 -1.36842 0
M  V30 6639 N 626.714 -0.118576 -1.57153 0
M  V30 6640 C 627.624 0.845484 -2.18835 0
M  V30 6641 C 628.64 1.29299 -1.16438 0
M  V30 6642 O 629.816 1.35607 -1.48905 0
M  V30 6643 C 626.881 2.07795 -2.77529 0
M  V30 6644 C 625.942 1.6824 -3.9496 0
M  V30 6645 C 625.175 2.85612 -4.50845 0
M  V30 6646 O 625.398 4.01025 -4.05629 0
M  V30 6647 O 624.332 2.62721 -5.41536 0
M  V30 6648 H 628.158 0.350568 -3.0167 0
M  V30 6649 H 625.743 0.107013 -1.49016 0
M  V30 6650 H 627.625 2.79978 -3.14945 0
M  V30 6651 H 626.3 2.56294 -1.97725 0
M  V30 6652 H 625.207 0.931663 -3.62313 0
M  V30 6653 H 626.54 1.24484 -4.76198 0
M  V30 6654 N 628.193 1.56834 0.155195 0
M  V30 6655 C 629.123 2.00678 1.19376 0
M  V30 6656 C 630.104 0.884973 1.45266 0
M  V30 6657 O 631.289 1.1522 1.56326 0
M  V30 6658 C 628.419 2.38042 2.5289 0
M  V30 6659 C 627.373 3.53332 2.41538 0
M  V30 6660 C 626.699 3.76485 3.79688 0
M  V30 6661 C 627.999 4.86265 1.9064 0
M  V30 6662 H 629.693 2.87688 0.829232 0
M  V30 6663 H 627.239 1.38407 0.397445 0
M  V30 6664 H 629.192 2.67314 3.25763 0
M  V30 6665 H 627.916 1.4796 2.91162 0
M  V30 6666 H 626.575 3.24213 1.71117 0
M  V30 6667 H 626.223 2.83667 4.15382 0
M  V30 6668 H 625.923 4.54068 3.72956 0
M  V30 6669 H 627.447 4.08174 4.54122 0
M  V30 6670 H 628.861 5.14308 2.53299 0
M  V30 6671 H 627.258 5.67597 1.94818 0
M  V30 6672 H 628.328 4.77184 0.861596 0
M  V30 6673 N 629.671 -0.424282 1.51781 0
M  V30 6674 C 630.919 -1.17028 1.64769 0
M  V30 6675 C 631.24 -1.91409 0.372523 0
M  V30 6676 O 630.51 -1.86091 -0.612108 0
M  V30 6677 H 629.09 -0.434992 0.607282 0
M  V30 6678 H 631.752 -0.485169 1.88765 0
M  V30 6679 H 630.848 -1.8927 2.4816 0
M  V30 6680 N 631.149 -1.42148 -0.680565 0
M  V30 6681 C 632.398 -1.41604 -1.43636 0
M  V30 6682 C 632.711 -0.0337887 -1.95571 0
M  V30 6683 O 633.917 0.0942588 -2.71336 0
M  V30 6684 C 632.373 -2.49056 -2.59806 0
M  V30 6685 C 631.981 -3.9326 -2.14594 0
M  V30 6686 C 633.725 -2.5767 -3.37352 0
M  V30 6687 C 631.632 -4.92232 -3.27813 0
M  V30 6688 H 630.562 -0.526656 -0.539583 0
M  V30 6689 H 633.213 -1.68033 -0.737369 0
M  V30 6690 H 631.595 -2.15782 -3.32045 0
M  V30 6691 H 632.769 -4.35858 -1.49546 0
M  V30 6692 H 631.084 -3.88443 -1.50002 0
M  V30 6693 H 633.681 -3.28794 -4.21662 0
M  V30 6694 H 634.024 -1.61837 -3.83555 0
M  V30 6695 H 634.557 -2.90109 -2.72179 0
M  V30 6696 H 631.296 -5.89522 -2.86607 0
M  V30 6697 H 630.816 -4.5427 -3.91661 0
M  V30 6698 H 632.495 -5.13684 -3.93367 0
M  V30 6699 N 632.627 0.916307 -1.28225 0
M  V30 6700 C 633.874 1.66518 -1.1523 0
M  V30 6701 C 634.202 1.92178 0.299632 0
M  V30 6702 O 633.457 1.51842 1.2346 0
M  V30 6703 C 633.756 3.03125 -1.8934 0
M  V30 6704 C 633.422 2.97135 -3.39148 0
M  V30 6705 C 632.084 2.95208 -3.80007 0
M  V30 6706 C 634.436 2.87574 -4.34685 0
M  V30 6707 C 631.764 2.81518 -5.14747 0
M  V30 6708 C 634.116 2.75424 -5.69495 0
M  V30 6709 C 632.78 2.71854 -6.09632 0
M  V30 6710 H 632.05 0.609334 -0.421655 0
M  V30 6711 H 634.697 1.06776 -1.58969 0
M  V30 6712 H 633.002 3.66639 -1.38143 0
M  V30 6713 H 634.699 3.59968 -1.76704 0
M  V30 6714 H 631.289 2.99428 -3.06661 0
M  V30 6715 H 635.473 2.88152 -4.04082 0
M  V30 6716 H 630.729 2.77148 -5.44976 0
M  V30 6717 H 634.903 2.66993 -6.43185 0
M  V30 6718 H 632.53 2.61003 -7.1399 0
M  V30 6719 N 634.105 1.10431 1.1244 0
M  V30 6720 C 635.353 0.845045 1.83585 0
M  V30 6721 C 635.674 -0.631168 1.84503 0
M  V30 6722 O 634.944 -1.45825 1.30813 0
M  V30 6723 H 633.524 0.309628 0.679809 0
M  V30 6724 H 636.186 1.39458 1.36153 0
M  V30 6725 H 635.282 1.20786 2.8778 0
M  V30 6726 N 635.583 -1.29855 0.893053 0
M  V30 6727 C 636.829 -1.96116 0.516349 0
M  V30 6728 C 637.162 -1.70281 -0.933695 0
M  V30 6729 O 636.437 -1.01205 -1.66096 0
M  V30 6730 C 636.72 -3.51068 0.801455 0
M  V30 6731 C 636.573 -3.86387 2.30272 0
M  V30 6732 C 637.892 -4.39186 0.283423 0
M  V30 6733 H 635.011 -0.712335 0.189072 0
M  V30 6734 H 637.653 -1.53587 1.11852 0
M  V30 6735 H 635.803 -3.87424 0.288949 0
M  V30 6736 H 637.475 -3.60012 2.88425 0
M  V30 6737 H 635.718 -3.34167 2.76613 0
M  V30 6738 H 636.389 -4.94512 2.45279 0
M  V30 6739 H 638.865 -4.09785 0.722187 0
M  V30 6740 H 637.741 -5.46505 0.512169 0
M  V30 6741 H 638.002 -4.34511 -0.815643 0
M  V30 6742 N 637.061 -0.65484 -1.43351 0
M  V30 6743 C 638.291 -0.176429 -2.05845 0
M  V30 6744 C 638.699 1.16375 -1.49176 0
M  V30 6745 O 638.042 1.72981 -0.618322 0
M  V30 6746 C 638.104 -0.0125844 -3.59498 0
M  V30 6747 C 637.768 -1.27831 -4.38758 0
M  V30 6748 C 638.765 -2.2074 -4.70712 0
M  V30 6749 C 636.45 -1.52035 -4.78739 0
M  V30 6750 C 638.444 -3.36145 -5.41558 0
M  V30 6751 C 636.131 -2.67732 -5.49329 0
M  V30 6752 C 637.129 -3.59612 -5.80662 0
M  V30 6753 O 636.817 -4.73289 -6.4981 0
M  V30 6754 H 636.549 -0.0879682 -0.670252 0
M  V30 6755 H 639.103 -0.896193 -1.84818 0
M  V30 6756 H 637.333 0.762567 -3.79107 0
M  V30 6757 H 639.022 0.423392 -4.03686 0
M  V30 6758 H 639.788 -2.03284 -4.40341 0
M  V30 6759 H 635.667 -0.813987 -4.53757 0
M  V30 6760 H 639.211 -4.07881 -5.65932 0
M  V30 6761 H 635.108 -2.85122 -5.79116 0
M  V30 6762 H 635.876 -4.72575 -6.68293 0
M  V30 6763 N 638.539 1.52521 -0.396863 0
M  V30 6764 C 639.785 2.01971 0.183169 0
M  V30 6765 C 640.118 1.2825 1.45827 0
M  V30 6766 O 639.393 0.385179 1.90648 0
M  V30 6767 C 639.676 3.5736 0.443391 0
M  V30 6768 C 639.529 4.41743 -0.84753 0
M  V30 6769 C 640.848 4.22539 1.2308 0
M  V30 6770 H 637.967 0.734119 0.0650976 0
M  V30 6771 H 640.609 1.82519 -0.527918 0
M  V30 6772 H 638.759 3.74066 1.04914 0
M  V30 6773 H 640.431 4.36773 -1.48414 0
M  V30 6774 H 638.674 4.0845 -1.4612 0
M  V30 6775 H 639.345 5.48507 -0.620003 0
M  V30 6776 H 641.821 4.09857 0.718084 0
M  V30 6777 H 640.697 5.31227 1.38162 0
M  V30 6778 H 640.958 3.80675 2.24808 0
M  V30 6779 N 640.017 0.126909 1.57088 0
M  V30 6780 C 641.433 -0.229641 1.57939 0
M  V30 6781 C 641.633 -1.66145 1.1401 0
M  V30 6782 O 640.689 -2.3843 0.831119 0
M  V30 6783 C 642.002 0.0108648 3.00698 0
M  V30 6784 C 643.55 -0.054418 3.12953 0
M  V30 6785 C 644.025 0.158497 4.57726 0
M  V30 6786 N 645.516 0.104735 4.63082 0
M  V30 6787 C 646.251 0.24427 5.72879 0
M  V30 6788 N 645.747 0.440415 6.91399 0
M  V30 6789 N 647.54 0.183286 5.61801 0
M  V30 6790 H 639.691 1.06203 1.83942 0
M  V30 6791 H 641.954 0.418834 0.85046 0
M  V30 6792 H 641.66 1.00102 3.37154 0
M  V30 6793 H 641.534 -0.717512 3.70313 0
M  V30 6794 H 643.921 -1.0351 2.7635 0
M  V30 6795 H 644.002 0.705967 2.45865 0
M  V30 6796 H 643.646 1.13619 4.95028 0
M  V30 6797 H 643.576 -0.62197 5.22914 0
M  V30 6798 H 646.067 -0.0430298 3.77876 0
M  V30 6799 H 646.38 0.537536 7.70928 0
M  V30 6800 H 644.725 0.476488 6.93365 0
M  V30 6801 H 647.916 0.0309561 4.6809 0
M  V30 6802 H 648.089 0.295471 6.47326 0
M  V30 6803 N 641.495 -1.56914 -0.146875 0
M  V30 6804 C 642.427 -1.94878 -1.20645 0
M  V30 6805 C 643.44 -0.844633 -1.39175 0
M  V30 6806 O 644.629 -1.12304 -1.38744 0
M  V30 6807 C 641.729 -2.20769 -2.57127 0
M  V30 6808 C 640.902 -3.52053 -2.59572 0
M  V30 6809 C 639.961 -3.66482 -3.77594 0
M  V30 6810 O 638.987 -4.38873 -3.62462 0
M  V30 6811 N 640.189 -3.03156 -4.95052 0
M  V30 6812 H 642.954 -2.86374 -0.883757 0
M  V30 6813 H 640.515 -1.58366 -0.336436 0
M  V30 6814 H 642.507 -2.27664 -3.34591 0
M  V30 6815 H 641.077 -1.35538 -2.81688 0
M  V30 6816 H 640.297 -3.56598 -1.68023 0
M  V30 6817 H 641.585 -4.38396 -2.58238 0
M  V30 6818 H 640.983 -2.44258 -5.10249 0
M  V30 6819 H 639.54 -3.15611 -5.70292 0
M  V30 6820 N 642.974 0.416227 -1.52004 0
M  V30 6821 C 643.884 1.53147 -1.77717 0
M  V30 6822 C 644.9 1.609 -0.662368 0
M  V30 6823 O 646.076 1.77747 -0.946991 0
M  V30 6824 C 643.141 2.88948 -1.91598 0
M  V30 6825 C 642.202 2.9114 -3.15493 0
M  V30 6826 C 641.435 4.20464 -3.28703 0
M  V30 6827 O 641.658 5.13981 -2.47345 0
M  V30 6828 O 640.592 4.29368 -4.21813 0
M  V30 6829 H 644.418 1.34357 -2.72363 0
M  V30 6830 H 642.003 0.601373 -1.36762 0
M  V30 6831 H 643.885 3.69505 -2.02593 0
M  V30 6832 H 642.56 3.07821 -1.00141 0
M  V30 6833 H 641.467 2.09461 -3.09962 0
M  V30 6834 H 642.8 2.77216 -4.06709 0
M  V30 6835 N 644.452 1.42507 0.673017 0
M  V30 6836 C 645.399 1.46124 1.78651 0
M  V30 6837 C 646.369 0.313007 1.63124 0
M  V30 6838 O 647.554 0.517337 1.83653 0
M  V30 6839 C 644.694 1.3711 3.16694 0
M  V30 6840 C 643.807 2.61983 3.43495 0
M  V30 6841 C 642.942 2.45098 4.71275 0
M  V30 6842 C 641.981 3.65336 4.91117 0
M  V30 6843 N 641.118 3.47383 6.10139 0
M  V30 6844 H 645.958 2.4128 1.74895 0
M  V30 6845 H 643.495 1.19788 0.853766 0
M  V30 6846 H 645.453 1.29881 3.96468 0
M  V30 6847 H 644.083 0.45549 3.1957 0
M  V30 6848 H 643.135 2.79571 2.57961 0
M  V30 6849 H 644.447 3.51355 3.5405 0
M  V30 6850 H 643.601 2.35466 5.59143 0
M  V30 6851 H 642.34 1.53219 4.63007 0
M  V30 6852 H 641.345 3.754 4.0169 0
M  V30 6853 H 642.57 4.58199 5.01229 0
M  V30 6854 H 640.516 2.58222 6.0304 0
M  V30 6855 H 640.433 4.30344 6.21563 0
M  V30 6856 H 641.701 3.41565 7.00681 0
M  V30 6857 N 645.93 -0.909495 1.28709 0
M  V30 6858 C 647.158 -1.69272 1.18973 0
M  V30 6859 C 647.573 -1.87123 -0.251048 0
M  V30 6860 O 646.93 -1.40127 -1.16922 0
M  V30 6861 C 646.981 -3.08257 1.88839 0
M  V30 6862 O 646.702 -2.91228 3.27289 0
M  V30 6863 C 648.203 -4.02642 1.85457 0
M  V30 6864 H 645.423 -0.528999 0.412797 0
M  V30 6865 H 647.967 -1.13803 1.69909 0
M  V30 6866 H 646.122 -3.6053 1.41762 0
M  V30 6867 H 646.536 -3.79223 3.6234 0
M  V30 6868 H 648.01 -4.97613 2.38925 0
M  V30 6869 H 648.487 -4.31327 0.827893 0
M  V30 6870 H 649.093 -3.56298 2.32233 0
M  V30 6871 N 647.408 -1.11026 -1.11852 0
M  V30 6872 C 648.338 -0.786812 -2.19844 0
M  V30 6873 C 649.319 0.242935 -1.68356 0
M  V30 6874 O 650.504 0.107355 -1.93903 0
M  V30 6875 C 647.634 -0.224516 -3.46574 0
M  V30 6876 C 646.588 -1.18564 -4.1125 0
M  V30 6877 C 645.914 -0.484261 -5.32503 0
M  V30 6878 C 647.214 -2.53465 -4.56676 0
M  V30 6879 H 648.908 -1.68978 -2.47158 0
M  V30 6880 H 646.454 -0.813906 -1.18792 0
M  V30 6881 H 648.407 0.0139435 -4.21398 0
M  V30 6882 H 647.131 0.713722 -3.18706 0
M  V30 6883 H 645.79 -1.40966 -3.38414 0
M  V30 6884 H 645.438 0.458646 -5.00905 0
M  V30 6885 H 645.138 -1.12526 -5.76725 0
M  V30 6886 H 646.662 -0.254492 -6.10069 0
M  V30 6887 H 648.076 -2.35177 -5.22843 0
M  V30 6888 H 646.473 -3.13507 -5.11697 0
M  V30 6889 H 647.543 -3.13008 -3.70343 0
M  V30 6890 N 648.886 1.2938 -0.899927 0
M  V30 6891 C 650.132 1.9584 -0.526742 0
M  V30 6892 C 650.465 1.70774 0.924651 0
M  V30 6893 O 649.74 1.02084 1.65557 0
M  V30 6894 C 650.023 3.50638 -0.820062 0
M  V30 6895 C 649.876 3.85161 -2.32317 0
M  V30 6896 C 651.195 4.3903 -0.30671 0
M  V30 6897 H 648.314 0.711322 -0.192848 0
M  V30 6898 H 650.956 1.52992 -1.12665 0
M  V30 6899 H 649.106 3.87265 -0.309491 0
M  V30 6900 H 650.778 3.58477 -2.9033 0
M  V30 6901 H 649.021 3.32696 -2.78381 0
M  V30 6902 H 649.692 4.93204 -2.47898 0
M  V30 6903 H 652.168 4.09396 -0.743908 0
M  V30 6904 H 651.044 5.46226 -0.541144 0
M  V30 6905 H 651.305 4.34937 0.792588 0
M  V30 6906 N 650.364 0.662433 1.43002 0
M  V30 6907 C 651.297 -0.073459 2.28082 0
M  V30 6908 C 652.275 -0.820869 1.40358 0
M  V30 6909 O 653.459 -0.818545 1.698 0
M  V30 6910 C 650.586 -1.11097 3.19961 0
M  V30 6911 C 649.632 -0.460557 4.24006 0
M  V30 6912 S 650.465 0.772717 5.29896 0
M  V30 6913 C 651.621 -0.264028 6.25343 0
M  V30 6914 H 651.854 0.648227 2.90147 0
M  V30 6915 H 649.387 0.451566 1.47649 0
M  V30 6916 H 651.345 -1.70452 3.73439 0
M  V30 6917 H 650.006 -1.80503 2.57056 0
M  V30 6918 H 649.199 -1.24299 4.88432 0
M  V30 6919 H 648.801 0.0591038 3.73953 0
M  V30 6920 H 651.093 -1.12748 6.68052 0
M  V30 6921 H 652.036 0.345443 7.07257 0
M  V30 6922 H 652.444 -0.603964 5.6126 0
M  V30 6923 N 651.842 -1.52309 0.404946 0
M  V30 6924 C 652.79 -2.28452 -0.437321 0
M  V30 6925 C 653.784 -1.32975 -1.04948 0
M  V30 6926 O 654.99 -1.50451 -0.988159 0
M  V30 6927 H 651.365 -0.734824 -0.159805 0
M  V30 6928 H 653.336 -2.97542 0.22615 0
M  V30 6929 C 652.085 -3.11536 -1.54404 0
M  V30 6930 H 651.408 -3.84871 -1.08233 0
M  V30 6931 H 652.848 -3.67926 -2.10729 0
M  V30 6932 C 651.307 -2.24833 -2.50902 0
M  V30 6933 O 651.837 -1.88574 -3.54687 0
M  V30 6934 N 650.043 -1.88685 -2.21012 0
M  V30 6935 H 649.59 -2.18371 -1.36646 0
M  V30 6936 H 649.548 -1.30966 -2.85824 0
M  V30 6937 N 653.32 -0.135238 -1.57019 0
M  V30 6938 C 654.267 0.808908 -2.1616 0
M  V30 6939 C 655.237 1.25234 -1.09113 0
M  V30 6940 O 656.422 1.32697 -1.37099 0
M  V30 6941 C 653.562 2.04729 -2.77813 0
M  V30 6942 C 652.675 1.65074 -3.99218 0
M  V30 6943 C 651.81 2.84002 -4.48906 0
M  V30 6944 C 650.849 2.40663 -5.62803 0
M  V30 6945 N 649.986 3.5256 -6.07162 0
M  V30 6946 H 654.826 0.297751 -2.96509 0
M  V30 6947 H 652.363 0.135264 -1.46477 0
M  V30 6948 H 654.321 2.7731 -3.11697 0
M  V30 6949 H 652.951 2.53275 -2.00128 0
M  V30 6950 H 652.003 0.823029 -3.7139 0
M  V30 6951 H 653.315 1.29236 -4.81767 0
M  V30 6952 H 652.469 3.64788 -4.84783 0
M  V30 6953 H 651.208 3.23076 -3.65339 0
M  V30 6954 H 650.213 1.58314 -5.26514 0
M  V30 6955 H 651.438 2.02687 -6.48147 0
M  V30 6956 H 649.384 3.91278 -5.26534 0
M  V30 6957 H 649.301 3.20699 -6.84608 0
M  V30 6958 H 650.569 4.33738 -6.47682 0
M  V30 6959 N 654.798 1.5699 0.138552 0
M  V30 6960 C 655.748 1.9532 1.17619 0
M  V30 6961 C 656.732 0.825545 1.38107 0
M  V30 6962 O 657.924 1.08908 1.39528 0
M  V30 6963 C 655.053 2.34451 2.50774 0
M  V30 6964 C 654.139 3.53805 2.33844 0
M  V30 6965 N 654.53 4.70088 1.86685 0
M  V30 6966 C 652.828 3.59055 2.64567 0
M  V30 6967 C 653.529 5.52165 1.82998 0
M  V30 6968 N 652.505 4.94108 2.26624 0
M  V30 6969 H 656.307 2.82694 0.803809 0
M  V30 6970 H 653.821 1.5866 0.346519 0
M  V30 6971 H 655.818 2.60119 3.25797 0
M  V30 6972 H 654.478 1.48431 2.88788 0
M  V30 6973 H 655.489 4.93681 1.56523 0
M  V30 6974 H 652.166 2.83596 3.06398 0
M  V30 6975 H 653.556 6.55407 1.47957 0
M  V30 6976 N 656.276 -0.40816 1.52223 0
M  V30 6977 C 657.522 -1.15673 1.66576 0
M  V30 6978 C 657.855 -1.90141 0.394996 0
M  V30 6979 O 657.13 -1.84798 -0.606613 0
M  V30 6980 C 657.413 -2.15042 2.88841 0
M  V30 6981 C 657.266 -1.44465 4.25969 0
M  V30 6982 C 658.585 -3.15699 3.0663 0
M  V30 6983 H 655.704 -0.41916 0.606196 0
M  V30 6984 H 658.346 -0.442348 1.84779 0
M  V30 6985 H 656.496 -2.75964 2.73452 0
M  V30 6986 H 658.168 -0.866544 4.53088 0
M  V30 6987 H 656.411 -0.746612 4.27327 0
M  V30 6988 H 657.082 -2.16976 5.07568 0
M  V30 6989 H 659.558 -2.64854 3.20923 0
M  V30 6990 H 658.434 -3.82491 3.9369 0
M  V30 6991 H 658.695 -3.83481 2.19987 0
M  V30 6992 N 657.755 -1.42862 -0.66545 0
M  V30 6993 C 659.003 -1.43546 -1.42264 0
M  V30 6994 C 659.324 -0.0563116 -1.94919 0
M  V30 6995 O 658.594 0.906568 -1.73661 0
M  V30 6996 H 657.174 -0.528464 -0.527953 0
M  V30 6997 H 659.836 -1.78363 -0.785665 0
M  V30 6998 H 658.932 -2.14079 -2.27105 0
M  V30 6999 N 659.233 0.902656 -1.29189 0
M  V30 7000 C 660.183 1.99326 -1.10695 0
M  V30 7001 C 661.167 1.60877 -0.0272521 0
M  V30 7002 O 662.359 1.75245 -0.248635 0
M  V30 7003 C 659.488 3.34265 -0.78244 0
M  V30 7004 C 658.574 3.79081 -1.90153 0
M  V30 7005 N 658.965 3.96162 -3.14466 0
M  V30 7006 C 657.263 4.08333 -1.79389 0
M  V30 7007 C 657.964 4.3388 -3.87458 0
M  V30 7008 N 656.94 4.42759 -3.15381 0
M  V30 7009 H 660.742 2.10597 -2.05003 0
M  V30 7010 H 658.256 1.09127 -1.20271 0
M  V30 7011 H 660.253 4.12097 -0.630996 0
M  V30 7012 H 658.913 3.2434 0.152754 0
M  V30 7013 H 659.924 3.81775 -3.49954 0
M  V30 7014 H 656.601 4.06982 -0.931217 0
M  V30 7015 H 657.991 4.54965 -4.94425 0
M  V30 7016 N 660.711 1.11618 1.11262 0
M  V30 7017 C 661.641 0.79846 2.19424 0
M  V30 7018 C 662.622 -0.234003 1.68483 0
M  V30 7019 O 663.807 -0.0970704 1.93957 0
M  V30 7020 C 660.937 0.242892 3.4645 0
M  V30 7021 C 659.891 1.20744 4.10615 0
M  V30 7022 C 659.217 0.512494 5.32238 0
M  V30 7023 C 660.517 2.55884 4.55325 0
M  V30 7024 H 662.211 1.70286 2.46258 0
M  V30 7025 H 659.757 0.820195 1.18359 0
M  V30 7026 H 661.71 0.00840447 4.21399 0
M  V30 7027 H 660.434 -0.696811 3.1908 0
M  V30 7028 H 659.093 1.42759 3.37662 0
M  V30 7029 H 658.741 -0.432075 5.01141 0
M  V30 7030 H 658.441 1.15583 5.7612 0
M  V30 7031 H 659.965 0.286842 6.09926 0
M  V30 7032 H 661.379 2.37946 5.21588 0
M  V30 7033 H 659.776 3.16216 5.10027 0
M  V30 7034 H 660.846 3.14968 3.68678 0
M  V30 7035 N 662.189 -1.289 0.906776 0
M  V30 7036 C 663.119 -2.29932 0.406659 0
M  V30 7037 C 664.1 -1.6189 -0.522061 0
M  V30 7038 O 665.285 -1.8935 -0.431283 0
M  V30 7039 C 662.415 -3.45425 -0.360366 0
M  V30 7040 C 661.369 -4.25316 0.478574 0
M  V30 7041 C 660.695 -5.33076 -0.416373 0
M  V30 7042 C 661.995 -4.92739 1.7322 0
M  V30 7043 H 663.689 -2.72013 1.25097 0
M  V30 7044 H 661.235 -1.30768 0.602977 0
M  V30 7045 H 663.188 -4.15186 -0.721029 0
M  V30 7046 H 661.912 -3.02206 -1.23852 0
M  V30 7047 H 660.571 -3.57273 0.821662 0
M  V30 7048 H 660.219 -4.86101 -1.29287 0
M  V30 7049 H 659.919 -5.8743 0.141309 0
M  V30 7050 H 661.443 -6.05686 -0.773072 0
M  V30 7051 H 662.857 -5.54898 1.44086 0
M  V30 7052 H 661.254 -5.57057 2.23175 0
M  V30 7053 H 662.324 -4.17625 2.46408 0
M  V30 7054 N 663.667 -0.670007 -1.42649 0
M  V30 7055 C 665.083 -0.33911 -1.55956 0
M  V30 7056 C 665.283 1.1558 -1.65056 0
M  V30 7057 O 664.339 1.94111 -1.61485 0
M  V30 7058 C 665.652 -1.06522 -2.812 0
M  V30 7059 C 667.2 -1.04708 -2.94966 0
M  V30 7060 C 667.675 -1.75442 -4.23065 0
M  V30 7061 N 669.166 -1.72286 -4.29967 0
M  V30 7062 C 669.901 -2.23877 -5.27889 0
M  V30 7063 N 669.397 -2.83829 -6.31991 0
M  V30 7064 N 671.19 -2.14279 -5.19654 0
M  V30 7065 H 663.341 -1.6399 -1.34986 0
M  V30 7066 H 665.604 -0.690603 -0.649439 0
M  V30 7067 H 665.31 -2.12033 -2.80597 0
M  V30 7068 H 665.184 -0.627398 -3.71946 0
M  V30 7069 H 667.571 -0.000315966 -2.951 0
M  V30 7070 H 667.652 -1.52374 -2.05465 0
M  V30 7071 H 667.296 -2.80084 -4.23693 0
M  V30 7072 H 667.226 -1.25229 -5.11493 0
M  V30 7073 H 669.717 -1.28554 -3.55362 0
M  V30 7074 H 670.03 -3.20827 -7.03057 0
M  V30 7075 H 668.375 -2.87896 -6.32567 0
M  V30 7076 H 671.566 -1.67135 -4.37245 0
M  V30 7077 H 671.739 -2.54792 -5.95806 0
M  V30 7078 N 665.145 1.52092 -0.413018 0
M  V30 7079 C 666.373 2.06274 0.160881 0
M  V30 7080 C 666.788 1.28273 1.38533 0
M  V30 7081 O 666.145 0.33563 1.79387 0
M  V30 7082 C 666.196 3.57921 0.507443 0
M  V30 7083 O 665.917 4.32971 -0.668388 0
M  V30 7084 C 667.418 4.28533 1.13465 0
M  V30 7085 H 664.638 0.67074 0.0186759 0
M  V30 7086 H 667.182 1.95951 -0.585092 0
M  V30 7087 H 665.337 3.68238 1.20331 0
M  V30 7088 H 665.751 5.23135 -0.378169 0
M  V30 7089 H 667.225 5.35804 1.32732 0
M  V30 7090 H 667.702 3.85258 2.10886 0
M  V30 7091 H 668.308 4.22595 0.478876 0
M  V30 7092 N 666.623 0.143563 1.56945 0
M  V30 7093 C 667.57 -0.797433 2.16586 0
M  V30 7094 C 668.54 -1.24654 1.09775 0
M  V30 7095 O 669.725 -1.31968 1.37801 0
M  V30 7096 C 666.865 -2.03253 2.78895 0
M  V30 7097 C 665.978 -1.62954 4.00087 0
M  V30 7098 C 665.113 -2.81617 4.50406 0
M  V30 7099 C 664.152 -2.37675 5.64072 0
M  V30 7100 N 663.289 -3.49335 6.09023 0
M  V30 7101 H 668.129 -0.282023 2.96662 0
M  V30 7102 H 665.666 -0.127494 1.46546 0
M  V30 7103 H 667.624 -2.75653 3.13163 0
M  V30 7104 H 666.254 -2.52211 2.01469 0
M  V30 7105 H 665.306 -0.803322 3.71821 0
M  V30 7106 H 666.618 -1.26679 4.82446 0
M  V30 7107 H 665.772 -3.62212 4.86711 0
M  V30 7108 H 664.511 -3.21134 3.67048 0
M  V30 7109 H 663.516 -1.55519 5.27346 0
M  V30 7110 H 664.741 -1.99247 6.49213 0
M  V30 7111 H 662.687 -3.8848 5.28601 0
M  V30 7112 H 662.604 -3.17064 6.86299 0
M  V30 7113 H 663.872 -4.30297 6.49973 0
M  V30 7114 N 668.101 -1.57061 -0.130224 0
M  V30 7115 C 669.064 -1.98593 -1.14426 0
M  V30 7116 C 670.064 -0.874584 -1.34936 0
M  V30 7117 O 671.254 -1.14086 -1.31643 0
M  V30 7118 C 668.386 -2.31639 -2.50112 0
M  V30 7119 H 669.579 -2.89374 -0.787561 0
M  V30 7120 H 667.132 -1.51756 -0.374146 0
M  V30 7121 H 667.867 -1.43703 -2.90723 0
M  V30 7122 H 667.652 -3.12684 -2.36583 0
M  V30 7123 H 669.142 -2.64551 -3.23114 0
M  V30 7124 N 669.579 0.400081 -1.52437 0
M  V30 7125 C 670.828 1.14332 -1.66166 0
M  V30 7126 C 671.141 1.91419 -0.402253 0
M  V30 7127 O 672.347 2.6824 -0.419487 0
M  V30 7128 C 670.803 2.08137 -2.9361 0
M  V30 7129 C 670.411 1.36524 -4.26691 0
M  V30 7130 C 672.155 2.82664 -3.16703 0
M  V30 7131 C 670.062 2.29031 -5.45251 0
M  V30 7132 H 668.992 0.430499 -0.61902 0
M  V30 7133 H 671.643 0.407017 -1.78929 0
M  V30 7134 H 670.025 2.85358 -2.74567 0
M  V30 7135 H 671.199 0.646061 -4.56249 0
M  V30 7136 H 669.514 0.74002 -4.09771 0
M  V30 7137 H 672.111 3.52037 -4.0246 0
M  V30 7138 H 672.454 3.46122 -2.31312 0
M  V30 7139 H 672.987 2.12541 -3.36261 0
M  V30 7140 H 669.726 1.70206 -6.33017 0
M  V30 7141 H 669.246 2.98896 -5.2002 0
M  V30 7142 H 670.925 2.89359 -5.78689 0
M  V30 7143 N 671.057 1.43213 0.657864 0
M  V30 7144 C 671.967 1.50448 1.80007 0
M  V30 7145 C 672.983 0.39191 1.69529 0
M  V30 7146 O 674.159 0.645349 1.90781 0
M  V30 7147 C 671.224 1.42062 3.16258 0
M  V30 7148 C 670.285 2.63951 3.38568 0
M  V30 7149 C 669.518 2.55956 4.68318 0
M  V30 7150 O 669.741 1.60473 5.47361 0
M  V30 7151 O 668.675 3.46378 4.92245 0
M  V30 7152 H 672.501 2.4689 1.76858 0
M  V30 7153 H 670.086 1.25163 0.81576 0
M  V30 7154 H 671.968 1.3981 3.97531 0
M  V30 7155 H 670.643 0.487524 3.20008 0
M  V30 7156 H 669.55 2.71776 2.57077 0
M  V30 7157 H 670.883 3.56217 3.39662 0
M  V30 7158 N 672.536 -0.895792 1.29666 0
M  V30 7159 C 673.486 -1.98736 1.1175 0
M  V30 7160 C 674.47 -1.6086 0.0357834 0
M  V30 7161 O 675.662 -1.75111 0.257926 0
M  V30 7162 C 672.791 -3.33845 0.800156 0
M  V30 7163 C 671.877 -3.78068 1.9216 0
M  V30 7164 N 672.268 -3.94489 3.16563 0
M  V30 7165 C 670.566 -4.07376 1.81552 0
M  V30 7166 C 671.267 -4.31819 3.89753 0
M  V30 7167 N 670.243 -4.41081 3.17724 0
M  V30 7168 H 674.045 -2.09507 2.06117 0
M  V30 7169 H 671.559 -1.08488 1.20848 0
M  V30 7170 H 673.556 -4.11757 0.652841 0
M  V30 7171 H 672.216 -3.24417 -0.135551 0
M  V30 7172 H 673.227 -3.79914 3.51974 0
M  V30 7173 H 669.904 -4.06483 0.952787 0
M  V30 7174 H 671.294 -4.52337 4.96831 0
M  V30 7175 N 674.014 -1.12206 -1.10668 0
M  V30 7176 C 674.977 -0.790867 -2.15123 0
M  V30 7177 C 675.977 0.193618 -1.5963 0
M  V30 7178 O 677.167 -0.0318728 -1.74171 0
M  V30 7179 C 674.299 -0.174797 -3.40452 0
M  V30 7180 H 675.492 -1.7163 -2.45933 0
M  V30 7181 H 673.045 -0.924993 -1.2599 0
M  V30 7182 H 673.78 0.760478 -3.15257 0
M  V30 7183 H 673.565 -0.88358 -3.82015 0
M  V30 7184 H 675.055 0.0405162 -4.1758 0
M  V30 7185 N 675.492 1.28418 -0.913599 0
M  V30 7186 C 676.769 1.89977 -0.465619 0
M  V30 7187 C 677.149 1.82813 1.05559 0
M  V30 7188 O 676.497 1.26397 1.90358 0
M  V30 7189 C 676.707 3.34492 -0.995813 0
M  V30 7190 C 678.055 4.11468 -1.04782 0
M  V30 7191 O 679.079 3.43451 -0.944445 0
M  V30 7192 O 677.938 5.33046 -1.20518 0
M  V30 7193 H 675.032 0.813734 -0.147532 0
M  V30 7194 H 677.578 1.36786 -1.00437 0
M  V30 7195 H 676.35 3.33929 -2.03978 0
M  V30 7196 H 675.973 3.95181 -0.437878 0
M  V30 7197 N 676.97 0.677563 1.42291 0
M  V30 7198 C 678.218 0.200578 2.01102 0
M  V30 7199 C 678.539 -1.19803 1.53858 0
M  V30 7200 O 677.809 -1.80496 0.761439 0
M  V30 7201 H 676.389 0.0711634 0.743603 0
M  V30 7202 H 679.051 0.874691 1.7417 0
M  V30 7203 H 678.147 0.204 3.11433 0
M  V30 7204 N 678.448 -1.51871 0.421078 0
M  V30 7205 C 679.696 -2.01539 -0.150492 0
M  V30 7206 C 680.017 -1.30803 -1.44623 0
M  V30 7207 O 679.287 -0.437568 -1.90951 0
M  V30 7208 H 677.867 -0.744698 -0.0586041 0
M  V30 7209 H 680.529 -1.8668 0.560059 0
M  V30 7210 H 679.625 -3.10264 -0.338068 0
M  V30 7211 N 679.926 -0.151884 -1.56866 0
M  V30 7212 C 681.172 0.498742 -1.96572 0
M  V30 7213 C 681.505 1.64194 -1.03702 0
M  V30 7214 O 680.78 1.94334 -0.0803432 0
M  V30 7215 C 681.063 1.00027 -3.45929 0
M  V30 7216 C 680.916 -0.141767 -4.49577 0
M  V30 7217 C 682.235 1.88044 -3.97904 0
M  V30 7218 H 679.354 0.17982 -0.714726 0
M  V30 7219 H 681.996 -0.234097 -1.88552 0
M  V30 7220 H 680.146 1.62476 -3.52894 0
M  V30 7221 H 681.818 -0.778269 -4.54687 0
M  V30 7222 H 680.061 -0.80019 -4.26356 0
M  V30 7223 H 680.732 0.250947 -5.51429 0
M  V30 7224 H 683.208 1.35416 -3.93449 0
M  V30 7225 H 682.084 2.20043 -5.02864 0
M  V30 7226 H 682.345 2.81916 -3.40552 0
M  V30 7227 N 681.404 1.57128 0.121893 0
M  V30 7228 C 682.367 1.99197 1.13372 0
M  V30 7229 C 683.367 0.881728 1.3447 0
M  V30 7230 O 684.557 1.14783 1.31036 0
M  V30 7231 C 681.689 2.32963 2.4888 0
M  V30 7232 H 682.882 2.89788 0.772204 0
M  V30 7233 H 680.435 1.51952 0.366093 0
M  V30 7234 H 681.17 1.45243 2.89957 0
M  V30 7235 H 680.955 3.13934 2.34921 0
M  V30 7236 H 682.445 2.66261 3.21706 0
M  V30 7237 N 682.882 -0.391992 1.52647 0
M  V30 7238 C 683.845 -1.46135 1.7657 0
M  V30 7239 C 684.845 -1.47701 0.635698 0
M  V30 7240 O 686.035 -1.48924 0.903728 0
M  V30 7241 C 683.167 -2.85443 1.86374 0
M  V30 7242 H 684.36 -1.26208 2.72051 0
M  V30 7243 H 681.913 -0.623549 1.43323 0
M  V30 7244 H 682.648 -3.10718 0.928685 0
M  V30 7245 H 682.433 -2.85708 2.68539 0
M  V30 7246 H 683.923 -3.62933 2.06566 0
M  V30 7247 N 684.36 -1.4356 -0.65026 0
M  V30 7248 C 685.608 -1.45046 -1.40734 0
M  V30 7249 C 685.929 -0.0769822 -1.94848 0
M  V30 7250 O 685.199 0.888098 -1.74613 0
M  V30 7251 H 683.779 -0.534034 -0.522318 0
M  V30 7252 H 686.441 -1.79186 -0.766703 0
M  V30 7253 H 685.537 -2.16476 -2.24822 0
M  V30 7254 N 685.838 0.888903 -1.30139 0
M  V30 7255 C 687.084 1.6428 -1.18912 0
M  V30 7256 C 687.417 1.92499 0.256477 0
M  V30 7257 O 686.692 1.54312 1.18397 0
M  V30 7258 C 686.975 2.9851 -2.01405 0
M  V30 7259 C 686.828 2.77288 -3.54163 0
M  V30 7260 C 688.147 3.99383 -1.84882 0
M  V30 7261 H 685.266 0.596148 -0.433333 0
M  V30 7262 H 687.908 1.0289 -1.5973 0
M  V30 7263 H 686.058 3.50907 -1.66722 0
M  V30 7264 H 687.73 2.31709 -3.98884 0
M  V30 7265 H 685.973 2.11867 -3.78543 0
M  V30 7266 H 686.644 3.72717 -4.07168 0
M  V30 7267 H 689.12 3.56132 -2.15196 0
M  V30 7268 H 687.996 4.91222 -2.44934 0
M  V30 7269 H 688.257 4.34674 -0.806902 0
M  V30 7270 N 687.317 1.12792 1.10072 0
M  V30 7271 C 688.28 0.802264 2.14701 0
M  V30 7272 C 689.28 -0.18515 1.59731 0
M  V30 7273 O 690.47 0.041109 1.74151 0
M  V30 7274 C 687.602 0.19285 3.40354 0
M  V30 7275 H 688.795 1.72932 2.45019 0
M  V30 7276 H 686.348 0.931662 1.25498 0
M  V30 7277 H 687.083 -0.743748 3.15656 0
M  V30 7278 H 686.868 0.903827 3.81541 0
M  V30 7279 H 688.358 -0.0183704 4.17596 0
M  V30 7280 N 688.795 -1.27931 0.920396 0
M  V30 7281 C 690.041 -1.94977 0.557832 0
M  V30 7282 C 690.374 -1.72224 -0.897365 0
M  V30 7283 O 689.649 -1.04705 -1.63912 0
M  V30 7284 C 689.932 -3.49289 0.875741 0
M  V30 7285 C 689.785 -3.81416 2.38416 0
M  V30 7286 C 691.104 -4.38486 0.376517 0
M  V30 7287 H 688.223 -0.708164 0.20414 0
M  V30 7288 H 690.865 -1.5118 1.15085 0
M  V30 7289 H 689.015 -3.86724 0.371062 0
M  V30 7290 H 690.687 -3.53813 2.95997 0
M  V30 7291 H 688.93 -3.28225 2.83639 0
M  V30 7292 H 689.601 -4.89198 2.55713 0
M  V30 7293 H 692.077 -4.08161 0.808945 0
M  V30 7294 H 690.953 -5.45296 0.627976 0
M  V30 7295 H 691.214 -4.36143 -0.723293 0
M  V30 7296 N 690.273 -0.685099 -1.4193 0
M  V30 7297 C 691.203 -0.0273506 -2.33484 0
M  V30 7298 C 692.184 0.778366 -1.51246 0
M  V30 7299 O 693.369 0.733449 -1.79817 0
M  V30 7300 C 690.499 0.917272 -3.34968 0
M  V30 7301 C 689.453 0.21941 -4.27437 0
M  V30 7302 C 688.779 1.27768 -5.1921 0
M  V30 7303 C 690.079 -0.907894 -5.14349 0
M  V30 7304 H 691.773 -0.791994 -2.88735 0
M  V30 7305 H 689.319 -0.382308 -1.38832 0
M  V30 7306 H 691.272 1.38657 -3.97935 0
M  V30 7307 H 689.996 1.71346 -2.78043 0
M  V30 7308 H 688.655 -0.229757 -3.65879 0
M  V30 7309 H 688.303 2.06612 -4.58607 0
M  V30 7310 H 688.003 0.815803 -5.81909 0
M  V30 7311 H 689.527 1.7477 -5.85054 0
M  V30 7312 H 690.941 -0.519348 -5.70943 0
M  V30 7313 H 689.338 -1.2962 -5.85934 0
M  V30 7314 H 690.408 -1.75218 -4.52136 0
M  V30 7315 N 691.751 1.51645 -0.429126 0
M  V30 7316 C 693.028 1.94579 0.199614 0
M  V30 7317 C 693.408 1.3673 1.60836 0
M  V30 7318 O 692.756 0.551062 2.21756 0
M  V30 7319 C 692.966 3.48506 0.185685 0
M  V30 7320 C 694.314 4.22756 0.395282 0
M  V30 7321 O 695.338 3.55219 0.264165 0
M  V30 7322 O 694.197 5.42555 0.655475 0
M  V30 7323 H 691.291 0.816007 0.134393 0
M  V30 7324 H 693.837 1.62577 -0.486513 0
M  V30 7325 H 692.609 3.83045 -0.799508 0
M  V30 7326 H 692.232 3.86927 0.91507 0
M  V30 7327 N 693.229 0.160201 1.56784 0
M  V30 7328 C 694.177 -0.791402 2.18723 0
M  V30 7329 C 695.171 -1.24567 1.14801 0
M  V30 7330 O 696.377 -1.21262 1.33025 0
M  V30 7331 H 692.752 -0.273458 0.700517 0
M  V30 7332 H 694.723 -0.244931 2.97393 0
M  V30 7333 C 693.472 -2.01509 2.83354 0
M  V30 7334 H 692.795 -1.67454 3.63041 0
M  V30 7335 H 694.235 -2.66006 3.30177 0
M  V30 7336 C 692.694 -2.83159 1.82545 0
M  V30 7337 O 693.224 -3.79944 1.30405 0
M  V30 7338 N 691.43 -2.47953 1.51552 0
M  V30 7339 H 690.977 -1.69309 1.94144 0
M  V30 7340 H 690.935 -3.02873 0.843519 0
M  V30 7341 N 694.707 -1.5719 -0.113559 0
M  V30 7342 C 696.118 -1.74259 -0.670116 0
M  V30 7343 C 696.469 -0.779694 -1.80042 0
M  V30 7344 O 695.594 0.0461353 -2.16351 0
M  V30 7345 C 696.189 -3.15981 -1.22236 0
M  V30 7346 C 694.748 -3.34537 -1.72516 0
M  V30 7347 C 693.895 -2.70116 -0.627098 0
M  V30 7348 H 696.846 -1.58301 0.112396 0
M  V30 7349 H 696.867 -3.17832 -2.09197 0
M  V30 7350 H 696.379 -3.86038 -0.39949 0
M  V30 7351 H 694.48 -2.6953 -2.57263 0
M  V30 7352 H 694.593 -4.42737 -1.83086 0
M  V30 7353 H 692.957 -2.31501 -1.06204 0
M  V30 7354 H 693.74 -3.42802 0.184889 0
M  V30 7355 N 696.185 0.383891 -1.52853 0
M  V30 7356 C 697.415 1.14783 -1.7178 0
M  V30 7357 C 697.823 1.84055 -0.438211 0
M  V30 7358 O 697.166 1.73713 0.597465 0
M  V30 7359 C 697.228 2.23543 -2.81547 0
M  V30 7360 C 696.892 1.74195 -4.22499 0
M  V30 7361 C 697.889 1.21591 -5.05481 0
M  V30 7362 C 695.574 1.80262 -4.6884 0
M  V30 7363 C 697.568 0.757104 -6.32888 0
M  V30 7364 C 695.255 1.33993 -5.96229 0
M  V30 7365 C 696.253 0.818049 -6.78083 0
M  V30 7366 O 695.941 0.362123 -8.03084 0
M  V30 7367 H 695.673 0.349908 -0.578395 0
M  V30 7368 H 698.227 0.454377 -2.00311 0
M  V30 7369 H 696.457 2.96328 -2.48449 0
M  V30 7370 H 698.146 2.8519 -2.88828 0
M  V30 7371 H 698.912 1.16257 -4.7086 0
M  V30 7372 H 694.791 2.19825 -4.05213 0
M  V30 7373 H 698.335 0.34908 -6.96726 0
M  V30 7374 H 694.232 1.39015 -6.30353 0
M  V30 7375 H 695 0.483134 -8.17073 0
M  V30 7376 N 697.663 1.43903 0.642637 0
M  V30 7377 C 699.074 1.40975 1.22404 0
M  V30 7378 C 699.425 0.1192 1.95838 0
M  V30 7379 O 698.55 -0.780939 2.01818 0
M  V30 7380 C 699.145 2.5538 2.22636 0
M  V30 7381 C 697.704 2.55684 2.76229 0
M  V30 7382 C 696.851 2.32556 1.51039 0
M  V30 7383 H 699.802 1.5265 0.434006 0
M  V30 7384 H 699.823 2.27474 3.05017 0
M  V30 7385 H 699.335 3.49294 1.69161 0
M  V30 7386 H 697.436 1.65679 3.33738 0
M  V30 7387 H 697.549 3.53799 3.23053 0
M  V30 7388 H 695.913 1.81427 1.78764 0
M  V30 7389 H 696.696 3.28569 0.99484 0
M  V30 7390 N 699.141 -0.881989 1.30609 0
M  V30 7391 C 700.387 -1.63647 1.19781 0
M  V30 7392 C 700.72 -1.92632 -0.246265 0
M  V30 7393 O 699.995 -1.54938 -1.17577 0
M  V30 7394 C 700.278 -2.97437 2.02985 0
M  V30 7395 C 700.131 -2.75406 3.55628 0
M  V30 7396 C 701.45 -3.98397 1.86997 0
M  V30 7397 H 698.569 -0.593841 0.436488 0
M  V30 7398 H 701.211 -1.02041 1.60273 0
M  V30 7399 H 699.361 -3.50018 1.68581 0
M  V30 7400 H 701.033 -2.2959 4.00107 0
M  V30 7401 H 699.276 -2.09856 3.79662 0
M  V30 7402 H 699.947 -3.70552 4.09139 0
M  V30 7403 H 702.423 -3.54986 2.17081 0
M  V30 7404 H 701.299 -4.89916 2.47536 0
M  V30 7405 H 701.56 -4.3424 0.829943 0
M  V30 7406 O 700.658 -1.25359 -1.0182 0
M  V30 7407 H 701.349 -1.03652 -1.63634 0
M  V30 END ATOM
M  V30 BEGIN BOND
M  V30 END BOND
M  V30 END CTAB
M  END
$$$$
