drugbank_target|P04183 Thymidine kinase, cytosolic (DB01692; DB02452)
 OpenBabel12092119503D

  0  0  0     0  0            999 V3000
M  V30 BEGIN CTAB
M  V30 COUNTS 3600 3633 0 0 0
M  V30 BEGIN ATOM
M  V30 1 H -0.908 1.98254 -0.117106 0
M  V30 2 N 0 1.576 0 0
M  V30 3 C 0.933 2.03868 1.02534 0
M  V30 4 C 1.911 0.928543 1.3348 0
M  V30 5 O 3.095 1.19667 1.45644 0
M  V30 6 C 0.222 2.43627 2.35294 0
M  V30 7 C -0.732 3.65373 2.2001 0
M  V30 8 S 0.101 5.13292 1.52614 0
M  V30 9 C 1.257 5.56322 2.86805 0
M  V30 10 H 1.49 2.90518 0.631377 0
M  V30 11 H -0.977 1.52953 0.210867 0
M  V30 12 H 0.981 2.67203 3.11629 0
M  V30 13 H -0.358 1.57376 2.7183 0
M  V30 14 H -1.165 3.90944 3.18086 0
M  V30 15 H -1.563 3.418 1.51819 0
M  V30 16 H 0.729 5.58782 3.83104 0
M  V30 17 H 1.672 6.56266 2.65933 0
M  V30 18 H 2.08 4.83886 2.90714 0
M  V30 19 N 1.4781 -0.272755 1.55222 0
M  V30 20 C 2.7031 -1.02683 1.80197 0
M  V30 21 C 3.1281 -1.79142 0.573551 0
M  V30 22 O 2.4861 -1.74917 -0.476849 0
M  V30 23 C 2.5341 -1.9609 3.02624 0
M  V30 24 O 1.6381 -3.04863 2.77727 0
M  V30 25 H 0.9791 -0.293557 0.595584 0
M  V30 26 H 3.5091 -0.30159 2.02365 0
M  V30 27 H 3.5191 -2.38039 3.31363 0
M  V30 28 H 2.1941 -1.39851 3.91682 0
M  V30 29 H 0.7711 -2.67228 2.60084 0
M  V30 30 N 2.9562 -1.48159 -0.537278 0
M  V30 31 C 4.1962 -1.57397 -1.30405 0
M  V30 32 C 4.5602 -0.239202 -1.90504 0
M  V30 33 O 5.7612 -0.206528 -2.68005 0
M  V30 34 C 4.0322 -2.6754 -2.36974 0
M  V30 35 S 5.5912 -2.96496 -3.23475 0
M  V30 36 H 2.4092 -0.555577 -0.443684 0
M  V30 37 H 5.0112 -1.85644 -0.612912 0
M  V30 38 H 3.7152 -3.63092 -1.91291 0
M  V30 39 H 3.2462 -2.41172 -3.10805 0
M  V30 40 H 5.2612 -2.35234 -4.36897 0
M  V30 41 N 4.4343 0.785586 -1.36625 0
M  V30 42 C 5.6833 1.53883 -1.30396 0
M  V30 43 C 5.9963 1.95271 0.113452 0
M  V30 44 O 7.2023 2.69858 0.298142 0
M  V30 45 C 5.6583 2.77808 -2.28802 0
M  V30 46 C 5.2663 2.43574 -3.75999 0
M  V30 47 C 7.0103 3.55783 -2.31558 0
M  V30 48 C 4.9173 3.63919 -4.66173 0
M  V30 49 H 3.8473 0.577678 -0.484566 0
M  V30 50 H 6.4983 0.861705 -1.62009 0
M  V30 51 H 4.8803 3.47339 -1.90188 0
M  V30 52 H 6.0543 1.81916 -4.23371 0
M  V30 53 H 4.3693 1.78803 -3.76056 0
M  V30 54 H 6.9663 4.45205 -2.96137 0
M  V30 55 H 7.3093 3.94644 -1.3252 0
M  V30 56 H 7.8423 2.93235 -2.68809 0
M  V30 57 H 4.5813 3.3015 -5.66287 0
M  V30 58 H 4.1013 4.2473 -4.23515 0
M  V30 59 H 5.7803 4.30901 -4.82632 0
M  V30 60 N 5.9124 1.20967 1.01018 0
M  V30 61 C 6.8604 0.961223 2.1181 0
M  V30 62 C 7.8544 -0.0897034 1.69162 0
M  V30 63 O 9.0604 0.0612271 1.79896 0
M  V30 64 H 5.4354 0.29355 0.692338 0
M  V30 65 H 7.4064 1.90178 2.29946 0
M  V30 66 C 6.1554 0.536854 3.4353 0
M  V30 67 H 5.4784 1.33713 3.76777 0
M  V30 68 H 6.9184 0.402286 4.22087 0
M  V30 69 C 5.3774 -0.751574 3.2841 0
M  V30 70 O 5.9074 -1.80841 3.58691 0
M  V30 71 N 4.1134 -0.716079 2.81639 0
M  V30 72 H 3.6604 0.144236 2.57196 0
M  V30 73 H 3.6184 -1.57847 2.71904 0
M  V30 74 N 7.3905 -1.2043 1.01659 0
M  V30 75 C 8.3205 -2.25466 0.607226 0
M  V30 76 C 9.3015 -1.65853 -0.377716 0
M  V30 77 O 10.4865 -1.92409 -0.263149 0
M  V30 78 C 7.6165 -3.47256 -0.0552949 0
M  V30 79 C 6.5705 -4.19462 0.850632 0
M  V30 80 C 5.8965 -5.34673 0.0538859 0
M  V30 81 C 7.1965 -4.75603 2.15868 0
M  V30 82 H 8.8905 -2.59962 1.48526 0
M  V30 83 H 6.4365 -1.2496 0.715605 0
M  V30 84 H 8.3895 -4.19917 -0.353233 0
M  V30 85 H 7.1135 -3.11924 -0.968045 0
M  V30 86 H 5.7725 -3.48667 1.13257 0
M  V30 87 H 5.4205 -4.95585 -0.860514 0
M  V30 88 H 5.1205 -5.83913 0.657192 0
M  V30 89 H 6.6445 -6.10138 -0.237598 0
M  V30 90 H 8.0585 -5.40083 1.92311 0
M  V30 91 H 6.4555 -5.3528 2.71284 0
M  V30 92 H 7.5255 -3.94346 2.82169 0
M  V30 93 N 8.8686 -0.792821 -1.36206 0
M  V30 94 C 10.2796 -0.429513 -1.81692 0
M  V30 95 C 10.6306 1.04695 -1.65932 0
M  V30 96 O 9.7556 1.81256 -1.18218 0
M  V30 97 C 10.3506 -0.772831 -3.29868 0
M  V30 98 C 8.9096 -0.462307 -3.7355 0
M  V30 99 C 8.0566 -1.00569 -2.5842 0
M  V30 100 H 11.0076 -0.985672 -1.24379 0
M  V30 101 H 11.0286 -0.0651928 -3.80444 0
M  V30 102 H 10.5406 -1.84747 -3.41307 0
M  V30 103 H 8.6416 0.604158 -3.67669 0
M  V30 104 H 8.7546 -0.985299 -4.68859 0
M  V30 105 H 7.1186 -0.428734 -2.51066 0
M  V30 106 H 7.9016 -2.08616 -2.72643 0
M  V30 107 N 10.3467 1.47872 -0.545128 0
M  V30 108 C 11.5747 2.06889 -0.021084 0
M  V30 109 C 11.9897 1.39955 1.2672 0
M  V30 110 O 11.3467 0.492036 1.75742 0
M  V30 111 C 11.3977 3.60996 0.190817 0
M  V30 112 O 11.1187 4.25419 -1.04644 0
M  V30 113 C 12.6197 4.36849 0.753521 0
M  V30 114 H 9.8397 0.669785 -0.0403635 0
M  V30 115 H 12.3837 1.90049 -0.755095 0
M  V30 116 H 10.5387 3.77391 0.87492 0
M  V30 117 H 10.9527 5.17785 -0.836611 0
M  V30 118 H 12.4267 5.45399 0.851139 0
M  V30 119 H 12.9037 4.02306 1.762 0
M  V30 120 H 13.5097 4.25169 0.105503 0
M  V30 121 N 11.8248 0.280983 1.55075 0
M  V30 122 C 13.0708 -0.33461 2.00021 0
M  V30 123 C 13.4038 -1.55063 1.16915 0
M  V30 124 O 12.6788 -1.93006 0.240646 0
M  V30 125 C 12.9618 -0.711007 3.53011 0
M  V30 126 C 12.8148 0.512766 4.46868 0
M  V30 127 C 14.1338 -1.54522 4.12081 0
M  V30 128 H 11.2528 -0.120147 0.727141 0
M  V30 129 H 13.8948 0.389097 1.85973 0
M  V30 130 H 12.0448 -1.32761 3.65112 0
M  V30 131 H 13.7168 1.15131 4.46702 0
M  V30 132 H 11.9598 1.14975 4.18286 0
M  V30 133 H 12.6308 0.205556 5.51617 0
M  V30 134 H 15.1068 -1.02442 4.03293 0
M  V30 135 H 13.9828 -1.77739 5.19327 0
M  V30 136 H 14.2438 -2.52813 3.62682 0
M  V30 137 N 13.3029 -1.57598 0.00835791 0
M  V30 138 C 14.2329 -2.1198 -0.979113 0
M  V30 139 C 15.2139 -1.03091 -1.35301 0
M  V30 140 O 16.3989 -1.30818 -1.43528 0
M  V30 141 C 13.5289 -2.62995 -2.26828 0
M  V30 142 C 12.4829 -3.76485 -2.03576 0
M  V30 143 C 11.8089 -4.13846 -3.38579 0
M  V30 144 C 13.1089 -5.0342 -1.39161 0
M  V30 145 H 14.8029 -2.94738 -0.526281 0
M  V30 146 H 12.3489 -1.41783 -0.251704 0
M  V30 147 H 14.3019 -2.99669 -2.96271 0
M  V30 148 H 13.0259 -1.7737 -2.7424 0
M  V30 149 H 11.6849 -3.40217 -1.36557 0
M  V30 150 H 11.3329 -3.25232 -3.83709 0
M  V30 151 H 11.0329 -4.90312 -3.23834 0
M  V30 152 H 12.5569 -4.53086 -4.09323 0
M  V30 153 H 13.9709 -5.37812 -1.98573 0
M  V30 154 H 12.3679 -5.84746 -1.34878 0
M  V30 155 H 13.4379 -4.83548 -0.361868 0
M  V30 156 N 14.781 0.264519 -1.55364 0
M  V30 157 C 16.192 0.834936 -1.6699 0
M  V30 158 C 16.543 1.86718 -0.602552 0
M  V30 159 O 15.668 2.14899 0.254425 0
M  V30 160 C 16.263 1.5212 -3.02729 0
M  V30 161 C 14.822 2.03954 -3.16354 0
M  V30 162 C 13.969 0.884498 -2.62815 0
M  V30 163 H 16.92 0.0406869 -1.58648 0
M  V30 164 H 16.941 2.38853 -2.96191 0
M  V30 165 H 16.453 0.769668 -3.80392 0
M  V30 166 H 14.554 2.82041 -2.43482 0
M  V30 167 H 14.667 2.24902 -4.23032 0
M  V30 168 H 13.031 1.2802 -2.20188 0
M  V30 169 H 13.814 0.14634 -3.42988 0
M  V30 170 N 16.2591 1.48442 0.529413 0
M  V30 171 C 17.5071 1.56179 1.28267 0
M  V30 172 C 17.8281 0.237721 1.93546 0
M  V30 173 O 17.0981 -0.740779 1.81354 0
M  V30 174 H 15.6781 0.575367 0.476405 0
M  V30 175 H 18.3401 1.84909 0.61602 0
M  V30 176 H 17.4361 2.34312 2.06165 0
M  V30 177 N 17.7372 -0.778329 1.37039 0
M  V30 178 C 18.9622 -1.57248 1.35233 0
M  V30 179 C 19.3872 -1.87999 -0.0615568 0
M  V30 180 O 18.7452 -1.48734 -1.03672 0
M  V30 181 C 18.7932 -2.86353 2.19167 0
M  V30 182 O 17.8972 -3.80442 1.59178 0
M  V30 183 H 17.2382 -0.476569 0.462362 0
M  V30 184 H 19.7682 -0.963853 1.80474 0
M  V30 185 H 19.7782 -3.35519 2.32145 0
M  V30 186 H 18.4532 -2.63299 3.21942 0
M  V30 187 H 17.0302 -3.39067 1.55203 0
M  V30 188 N 19.2153 -1.21501 -1.00376 0
M  V30 189 C 20.6263 -1.03146 -1.55621 0
M  V30 190 C 20.9773 0.408375 -1.91903 0
M  V30 191 O 20.1023 1.29177 -1.73616 0
M  V30 192 C 20.6973 -1.86612 -2.82775 0
M  V30 193 C 19.2563 -1.72586 -3.34501 0
M  V30 194 C 18.4033 -1.83747 -2.07683 0
M  V30 195 H 21.3543 -1.35505 -0.826081 0
M  V30 196 H 21.3753 -1.3771 -3.54706 0
M  V30 197 H 20.8873 -2.91399 -2.56336 0
M  V30 198 H 18.9883 -0.704877 -3.65872 0
M  V30 199 H 19.1013 -2.54623 -4.05837 0
M  V30 200 H 17.4653 -1.27069 -2.20739 0
M  V30 201 H 18.2483 -2.90044 -1.83655 0
M  V30 202 N 20.6934 1.19889 -1.02296 0
M  V30 203 C 21.9184 1.9393 -0.735237 0
M  V30 204 C 22.3434 1.74639 0.698782 0
M  V30 205 O 21.7014 1.04481 1.48167 0
M  V30 206 C 21.7494 3.43916 -1.08417 0
M  V30 207 O 20.8534 4.11917 -0.199446 0
M  V30 208 H 20.1944 0.605645 -0.272196 0
M  V30 209 H 22.7244 1.52137 -1.36804 0
M  V30 210 H 22.7344 3.9456 -1.03856 0
M  V30 211 H 21.4094 3.5728 -2.12894 0
M  V30 212 H 19.9864 3.71666 -0.303136 0
M  V30 213 N 22.1715 0.800033 1.35784 0
M  V30 214 C 23.1185 0.203848 2.29898 0
M  V30 215 C 24.0885 -0.658375 1.52495 0
M  V30 216 O 25.2735 -0.604832 1.8096 0
M  V30 217 C 22.4135 -0.64688 3.38983 0
M  V30 218 C 21.5265 0.235054 4.3136 0
M  V30 219 C 20.6615 -0.623054 5.27533 0
M  V30 220 C 19.7005 0.259682 6.11549 0
M  V30 221 N 18.8375 -0.558019 6.99879 0
M  V30 222 H 23.6775 1.01186 2.80295 0
M  V30 223 H 21.2145 0.51053 1.37957 0
M  V30 224 H 23.1725 -1.15521 4.00887 0
M  V30 225 H 21.8025 -1.42021 2.89879 0
M  V30 226 H 20.8545 0.861438 3.70518 0
M  V30 227 H 22.1665 0.914768 4.9034 0
M  V30 228 H 21.3205 -1.19678 5.94779 0
M  V30 229 H 20.0595 -1.33636 4.69034 0
M  V30 230 H 19.0645 0.845726 5.43256 0
M  V30 231 H 20.2895 0.970748 6.72126 0
M  V30 232 H 18.2355 -1.25542 6.43875 0
M  V30 233 H 18.1525 0.0637872 7.55973 0
M  V30 234 H 19.4205 -1.11523 7.71481 0
M  V30 235 N 23.6496 -1.47581 0.552962 0
M  V30 236 C 24.8776 -2.06875 0.0320556 0
M  V30 237 C 25.2926 -1.40625 -1.25976 0
M  V30 238 O 24.6496 -0.501349 -1.75479 0
M  V30 239 C 24.7006 -3.61092 -0.17167 0
M  V30 240 O 24.4216 -4.24858 1.06899 0
M  V30 241 C 25.9226 -4.37242 -0.730344 0
M  V30 242 H 23.1426 -0.669561 0.043915 0
M  V30 243 H 25.6866 -1.89646 0.765163 0
M  V30 244 H 23.8416 -3.7785 -0.854894 0
M  V30 245 H 24.2556 -5.17334 0.864059 0
M  V30 246 H 25.7296 -5.45842 -0.822203 0
M  V30 247 H 26.2066 -4.03235 -1.74064 0
M  V30 248 H 26.8126 -4.25219 -0.0829543 0
M  V30 249 N 25.1277 -0.289203 -1.54924 0
M  V30 250 C 26.5437 0.0645403 -1.59469 0
M  V30 251 C 26.7437 1.53419 -1.30632 0
M  V30 252 O 25.7997 2.2852 -1.074 0
M  V30 253 C 27.1127 -0.32278 -2.98963 0
M  V30 254 C 28.6607 -0.270564 -3.11828 0
M  V30 255 C 29.1357 -0.632532 -4.53611 0
M  V30 256 N 30.6267 -0.584617 -4.59496 0
M  V30 257 C 31.3617 -0.837314 -5.67254 0
M  V30 258 N 30.8577 -1.15536 -6.83098 0
M  V30 259 N 32.6507 -0.765166 -5.56868 0
M  V30 260 H 24.8017 -1.24714 -1.71931 0
M  V30 261 H 27.0647 -0.504809 -0.802416 0
M  V30 262 H 26.7707 -1.34541 -3.24948 0
M  V30 263 H 26.6447 0.32944 -3.75759 0
M  V30 264 H 29.0317 0.742805 -2.85598 0
M  V30 265 H 29.1127 -0.957242 -2.37214 0
M  V30 266 H 28.7567 -1.64365 -4.80569 0
M  V30 267 H 28.6867 0.07609 -5.26545 0
M  V30 268 H 31.1777 -0.349248 -3.76283 0
M  V30 269 H 31.4907 -1.33447 -7.61191 0
M  V30 270 H 29.8357 -1.19328 -6.84679 0
M  V30 271 H 33.0267 -0.516432 -4.65243 0
M  V30 272 H 33.1997 -0.965477 -6.40767 0
M  V30 273 N 26.6058 1.57591 -0.0167156 0
M  V30 274 C 27.8538 1.90906 0.663285 0
M  V30 275 C 28.1748 0.892509 1.73376 0
M  V30 276 O 27.4448 -0.0677623 1.95783 0
M  V30 277 H 26.0248 0.704637 0.247983 0
M  V30 278 H 28.6868 1.94803 -0.0615909 0
M  V30 279 H 27.7828 2.9116 1.12393 0
M  V30 280 N 28.0839 -0.256276 1.55502 0
M  V30 281 C 29.0159 -1.33981 1.85962 0
M  V30 282 C 30.0289 -1.44743 0.745212 0
M  V30 283 O 31.2179 -1.4626 1.02324 0
M  V30 284 C 28.3179 -2.7194 2.02242 0
M  V30 285 C 27.4909 -2.83562 3.33033 0
M  V30 286 C 26.5499 -4.02304 3.39172 0
M  V30 287 O 25.5759 -3.92273 4.12444 0
M  V30 288 N 26.7779 -5.15045 2.67784 0
M  V30 289 H 29.5429 -1.08191 2.7949 0
M  V30 290 H 27.1039 -0.446388 1.55624 0
M  V30 291 H 29.0959 -3.49697 2.03701 0
M  V30 292 H 27.6659 -2.90479 1.15502 0
M  V30 293 H 26.8859 -1.92555 3.43971 0
M  V30 294 H 28.1739 -2.88271 4.19258 0
M  V30 295 H 27.5719 -5.26085 2.07968 0
M  V30 296 H 26.1289 -5.90972 2.74947 0
M  V30 297 N 29.562 -1.4872 -0.521534 0
M  V30 298 C 30.811 -1.56419 -1.27341 0
M  V30 299 C 31.124 -0.246805 -1.94037 0
M  V30 300 O 32.33 -0.202122 -2.70747 0
M  V30 301 C 30.786 -2.75896 -2.31105 0
M  V30 302 C 30.394 -4.14311 -1.70441 0
M  V30 303 C 32.138 -2.92913 -3.07249 0
M  V30 304 C 30.045 -5.25038 -2.72194 0
M  V30 305 H 28.975 -0.582344 -0.478949 0
M  V30 306 H 31.626 -1.75071 -0.549779 0
M  V30 307 H 30.008 -2.50697 -3.06541 0
M  V30 308 H 31.182 -4.49564 -1.01136 0
M  V30 309 H 29.497 -4.02482 -1.06759 0
M  V30 310 H 32.094 -3.72805 -3.83302 0
M  V30 311 H 32.437 -2.02689 -3.63625 0
M  V30 312 H 32.97 -3.18054 -2.38928 0
M  V30 313 H 29.709 -6.17255 -2.20627 0
M  V30 314 H 29.229 -4.94263 -3.39801 0
M  V30 315 H 30.908 -5.53508 -3.35019 0
M  V30 316 N 31.0401 0.771051 -1.3745 0
M  V30 317 C 31.9721 1.89352 -1.29146 0
M  V30 318 C 32.9851 1.61477 -0.207124 0
M  V30 319 O 34.1741 1.72382 -0.463324 0
M  V30 320 C 31.2741 3.24596 -0.974195 0
M  V30 321 C 30.4471 3.80111 -2.16413 0
M  V30 322 C 29.5061 4.93832 -1.81703 0
M  V30 323 O 28.5321 5.09382 -2.54006 0
M  V30 324 N 29.7341 5.75483 -0.761573 0
M  V30 325 H 32.4991 1.96991 -2.25864 0
M  V30 326 H 30.0601 0.950191 -1.31084 0
M  V30 327 H 32.0521 3.98193 -0.722828 0
M  V30 328 H 30.6221 3.12454 -0.0955527 0
M  V30 329 H 29.8421 2.98284 -2.57721 0
M  V30 330 H 31.1301 4.13932 -2.95867 0
M  V30 331 H 30.5281 5.65469 -0.161609 0
M  V30 332 H 29.0851 6.49302 -0.570064 0
M  V30 333 N 32.5182 1.22032 0.997298 0
M  V30 334 C 33.7642 1.04376 1.73878 0
M  V30 335 C 34.0972 -0.420716 1.89588 0
M  V30 336 O 33.3722 -1.31202 1.43583 0
M  V30 337 C 33.6552 1.75047 3.14691 0
M  V30 338 C 33.5082 3.29062 3.06656 0
M  V30 339 C 34.8272 1.49928 4.13775 0
M  V30 340 H 31.9462 0.380578 0.631133 0
M  V30 341 H 34.5882 1.50312 1.16217 0
M  V30 342 H 32.7382 1.35996 3.63919 0
M  V30 343 H 34.4102 3.7753 2.65083 0
M  V30 344 H 32.6532 3.58967 2.43568 0
M  V30 345 H 33.3242 3.73683 4.06282 0
M  V30 346 H 35.8002 1.83842 3.73285 0
M  V30 347 H 34.6762 2.01878 5.10428 0
M  V30 348 H 34.9372 0.430929 4.39995 0
M  V30 349 N 33.9963 -1.19345 1.0293 0
M  V30 350 C 35.2453 -1.88363 0.721256 0
M  V30 351 C 35.5583 -1.80514 -0.753254 0
M  V30 352 O 36.7643 -2.44788 -1.17436 0
M  V30 353 C 35.2203 -3.37872 1.23978 0
M  V30 354 C 34.8283 -3.54278 2.74211 0
M  V30 355 C 36.5723 -4.12365 1.00775 0
M  V30 356 C 34.4793 -4.97682 3.19479 0
M  V30 357 H 33.4093 -0.705484 0.266098 0
M  V30 358 H 36.0603 -1.34928 1.24365 0
M  V30 359 H 34.4423 -3.90707 0.6453 0
M  V30 360 H 35.6163 -3.11769 3.39318 0
M  V30 361 H 33.9313 -2.93174 2.95699 0
M  V30 362 H 36.5283 -5.18119 1.32123 0
M  V30 363 H 36.8713 -4.16263 -0.0554308 0
M  V30 364 H 37.4043 -3.65668 1.56625 0
M  V30 365 H 34.1433 -4.98945 4.25128 0
M  V30 366 H 33.6633 -5.4095 2.591 0
M  V30 367 H 35.3423 -5.66337 3.12845 0
M  V30 368 N 35.4744 -0.807222 -1.35358 0
M  V30 369 C 36.4044 -0.232509 -2.3234 0
M  V30 370 C 37.3854 0.642386 -1.57504 0
M  V30 371 O 38.5704 0.572526 -1.85569 0
M  V30 372 C 35.7004 0.619238 -3.41735 0
M  V30 373 C 34.6544 -0.157215 -4.27711 0
M  V30 374 C 33.9804 0.816273 -5.28433 0
M  V30 375 C 35.2804 -1.35656 -5.04376 0
M  V30 376 H 36.9744 -1.04276 -2.80654 0
M  V30 377 H 34.5204 -0.50288 -1.34934 0
M  V30 378 H 36.4734 1.03137 -4.08584 0
M  V30 379 H 35.1974 1.46239 -2.92031 0
M  V30 380 H 33.8564 -0.550525 -3.62443 0
M  V30 381 H 33.5044 1.65494 -4.74996 0
M  V30 382 H 33.2044 0.301067 -5.86828 0
M  V30 383 H 34.7284 1.22659 -5.98153 0
M  V30 384 H 36.1424 -1.01927 -5.64166 0
M  V30 385 H 34.5394 -1.8063 -5.7227 0
M  V30 386 H 35.6094 -2.14288 -4.34981 0
M  V30 387 N 36.9525 1.47285 -0.560781 0
M  V30 388 C 38.2005 2.02064 -0.0379868 0
M  V30 389 C 38.5215 1.43711 1.31803 0
M  V30 390 O 37.7915 0.61362 1.86042 0
M  V30 391 H 36.3715 0.746918 -0.0110531 0
M  V30 392 H 39.0335 1.80648 -0.731598 0
M  V30 393 H 38.1295 3.12064 0.0474463 0
M  V30 394 N 38.4306 0.297415 1.54768 0
M  V30 395 C 39.8416 -0.195947 1.85669 0
M  V30 396 C 40.1926 -1.53707 1.21937 0
M  V30 397 O 39.3176 -2.10164 0.515754 0
M  V30 398 C 39.9126 -0.362318 3.36857 0
M  V30 399 C 38.4716 -0.799901 3.67802 0
M  V30 400 C 37.6186 0.0938578 2.77141 0
M  V30 401 H 40.5696 0.518538 1.4999 0
M  V30 402 H 40.5906 -1.19745 3.61167 0
M  V30 403 H 40.1026 0.613921 3.83214 0
M  V30 404 H 38.2036 -1.78682 3.26961 0
M  V30 405 H 38.3166 -0.621773 4.75048 0
M  V30 406 H 36.6806 -0.426254 2.51108 0
M  V30 407 H 37.4636 1.06639 3.26318 0
M  V30 408 N 39.9087 -1.5758 0.0250728 0
M  V30 409 C 40.8417 -2.05473 -0.992777 0
M  V30 410 C 41.8197 -0.949661 -1.31986 0
M  V30 411 O 43.0037 -1.21969 -1.43722 0
M  V30 412 C 40.1307 -2.4734 -2.31389 0
M  V30 413 C 39.1767 -3.68827 -2.1417 0
M  V30 414 S 40.0097 -5.15655 -1.44429 0
M  V30 415 C 41.1657 -5.60814 -2.77918 0
M  V30 416 H 41.3987 -2.91486 -0.585078 0
M  V30 417 H 38.9317 -1.53269 -0.186507 0
M  V30 418 H 40.8897 -2.72127 -3.07339 0
M  V30 419 H 39.5507 -1.6168 -2.69292 0
M  V30 420 H 38.7437 -3.95955 -3.11826 0
M  V30 421 H 38.3457 -3.44172 -1.46362 0
M  V30 422 H 40.6377 -5.64806 -3.74166 0
M  V30 423 H 41.5807 -6.60414 -2.55459 0
M  V30 424 H 41.9887 -4.8845 -2.82979 0
M  V30 425 N 41.3868 0.248026 -1.55636 0
M  V30 426 C 42.6338 0.976224 -1.77415 0
M  V30 427 C 42.9618 1.85361 -0.589193 0
M  V30 428 O 42.2168 1.90973 0.427529 0
M  V30 429 C 42.5158 1.86819 -3.04686 0
M  V30 430 C 42.1818 1.14625 -4.36087 0
M  V30 431 C 40.8438 0.946723 -4.71795 0
M  V30 432 C 43.1958 0.634463 -5.17324 0
M  V30 433 C 40.5238 0.223091 -5.86276 0
M  V30 434 C 42.8758 -0.0756959 -6.32555 0
M  V30 435 C 41.5398 -0.286711 -6.66884 0
M  V30 436 H 40.8098 0.357226 -0.649208 0
M  V30 437 H 43.4568 0.246415 -1.89908 0
M  V30 438 H 41.7618 2.66502 -2.872 0
M  V30 439 H 43.4588 2.43329 -3.18735 0
M  V30 440 H 40.0488 1.3117 -4.08035 0
M  V30 441 H 44.2328 0.77616 -4.90193 0
M  V30 442 H 39.4888 0.0491185 -6.1138 0
M  V30 443 H 43.6628 -0.479899 -6.94745 0
M  V30 444 H 41.2898 -0.849389 -7.5544 0
M  V30 445 N 42.8649 1.48995 0.513639 0
M  V30 446 C 44.0899 1.61792 1.29762 0
M  V30 447 C 44.5149 0.284475 1.85936 0
M  V30 448 O 43.8729 -0.746185 1.65232 0
M  V30 449 C 43.9209 2.67993 2.41272 0
M  V30 450 O 43.0249 2.26287 3.44772 0
M  V30 451 H 42.3659 0.541963 0.38363 0
M  V30 452 H 44.8959 1.95097 0.616307 0
M  V30 453 H 44.9059 2.89772 2.87221 0
M  V30 454 H 43.5809 3.64791 1.9975 0
M  V30 455 H 42.1579 2.14788 3.04829 0
M  V30 456 N 44.343 -0.763751 1.37857 0
M  V30 457 C 45.591 -1.51957 1.33243 0
M  V30 458 C 45.912 -1.94835 -0.0801709 0
M  V30 459 O 45.182 -1.66894 -1.02582 0
M  V30 460 H 43.762 -0.563626 0.49024 0
M  V30 461 H 46.424 -0.908504 1.7243 0
M  V30 462 H 45.52 -2.41523 1.97669 0
M  V30 463 N 45.8211 -1.22559 -0.990812 0
M  V30 464 C 46.7681 -0.997519 -2.0813 0
M  V30 465 C 47.7381 0.0814702 -1.659 0
M  V30 466 O 48.9231 -0.0685424 -1.90677 0
M  V30 467 C 46.0631 -0.583615 -3.40129 0
M  V30 468 C 45.1761 -1.7336 -3.9569 0
M  V30 469 C 44.3111 -1.26748 -5.15857 0
M  V30 470 C 43.3501 -2.38888 -5.63559 0
M  V30 471 N 42.4871 -1.93308 -6.74964 0
M  V30 472 H 47.3271 -1.93099 -2.26973 0
M  V30 473 H 44.8641 -0.962114 -1.11273 0
M  V30 474 H 46.8221 -0.324801 -4.15934 0
M  V30 475 H 45.4521 0.312845 -3.2128 0
M  V30 476 H 44.5041 -2.10669 -3.16738 0
M  V30 477 H 45.8161 -2.57704 -4.27071 0
M  V30 478 H 44.9701 -0.966173 -5.98957 0
M  V30 479 H 43.7091 -0.394272 -4.86104 0
M  V30 480 H 42.7141 -2.69805 -4.79046 0
M  V30 481 H 43.9391 -3.26728 -5.95336 0
M  V30 482 H 41.8851 -1.08352 -6.4699 0
M  V30 483 H 41.8021 -2.71217 -7.05675 0
M  V30 484 H 43.0701 -1.66252 -7.61564 0
M  V30 485 N 47.2992 1.18797 -1.03562 0
M  V30 486 C 48.5242 1.9314 -0.755764 0
M  V30 487 C 48.9492 1.7537 0.68022 0
M  V30 488 O 48.3072 1.06046 1.47051 0
M  V30 489 C 48.3552 3.42747 -1.12058 0
M  V30 490 O 47.4592 4.11683 -0.243124 0
M  V30 491 H 46.8002 0.602724 -0.278604 0
M  V30 492 H 49.3302 1.50678 -1.3841 0
M  V30 493 H 49.3402 3.93437 -1.08035 0
M  V30 494 H 48.0152 3.55002 -2.16672 0
M  V30 495 H 46.5922 3.71323 -0.342539 0
M  V30 496 N 48.7773 0.814389 1.34928 0
M  V30 497 C 50.0053 0.411136 2.02774 0
M  V30 498 C 50.4203 -0.980316 1.61354 0
M  V30 499 O 49.7773 -1.63299 0.814847 0
M  V30 500 C 49.8283 0.493865 3.58111 0
M  V30 501 O 49.5493 1.83047 3.98027 0
M  V30 502 C 51.0503 0.0844174 4.4322 0
M  V30 503 H 48.2703 0.166037 0.650133 0
M  V30 504 H 50.8143 1.10018 1.72384 0
M  V30 505 H 48.9693 -0.147006 3.87121 0
M  V30 506 H 49.3833 1.79872 4.92693 0
M  V30 507 H 50.8573 0.193404 5.51661 0
M  V30 508 H 51.3343 -0.97113 4.28329 0
M  V30 509 H 51.9403 0.69875 4.19521 0
M  V30 510 N 50.2554 -1.46986 0.568584 0
M  V30 511 C 51.1654 -2.33942 -0.17555 0
M  V30 512 C 52.1814 -1.48891 -0.90041 0
M  V30 513 O 53.3574 -1.81794 -0.86676 0
M  V30 514 C 50.4224 -3.25811 -1.18524 0
M  V30 515 C 49.4834 -4.26757 -0.466582 0
M  V30 516 C 48.7164 -5.14236 -1.42817 0
M  V30 517 O 48.9394 -5.04379 -2.66379 0
M  V30 518 O 47.8734 -5.94412 -0.946453 0
M  V30 519 H 51.6994 -2.98896 0.538036 0
M  V30 520 H 49.2844 -1.4573 0.329097 0
M  V30 521 H 51.1664 -3.82527 -1.76779 0
M  V30 522 H 49.8414 -2.63471 -1.88055 0
M  V30 523 H 48.7484 -3.73769 0.157451 0
M  V30 524 H 50.0814 -4.91843 0.187485 0
M  V30 525 N 51.7335 -0.305618 -1.54608 0
M  V30 526 C 52.6635 0.561482 -2.26649 0
M  V30 527 C 53.6445 1.13415 -1.26772 0
M  V30 528 O 54.8295 1.16262 -1.55553 0
M  V30 529 C 51.9595 1.73122 -3.01075 0
M  V30 530 C 50.9135 1.2887 -4.08138 0
M  V30 531 C 50.2395 2.54396 -4.70305 0
M  V30 532 C 51.5395 0.416578 -5.20636 0
M  V30 533 H 53.2335 -0.0393902 -2.99374 0
M  V30 534 H 50.7795 -0.020385 -1.43986 0
M  V30 535 H 52.7325 2.34396 -3.50195 0
M  V30 536 H 51.4565 2.3584 -2.25936 0
M  V30 537 H 50.1155 0.698991 -3.59875 0
M  V30 538 H 49.7635 3.15439 -3.918 0
M  V30 539 H 49.4635 2.25486 -5.42614 0
M  V30 540 H 50.9875 3.16464 -5.2219 0
M  V30 541 H 52.4015 0.935116 -5.65622 0
M  V30 542 H 50.7985 0.221046 -5.99693 0
M  V30 543 H 51.8685 -0.557162 -4.81688 0
M  V30 544 N 53.2116 1.57565 -0.0334293 0
M  V30 545 C 54.1446 2.05997 0.981866 0
M  V30 546 C 55.1226 0.956647 1.3148 0
M  V30 547 O 56.3066 1.22729 1.43073 0
M  V30 548 C 53.4336 2.48564 2.30074 0
M  V30 549 C 52.4796 3.69958 2.12211 0
M  V30 550 S 53.3126 5.16414 1.41692 0
M  V30 551 C 54.4686 5.6228 2.7494 0
M  V30 552 H 54.7016 2.91792 0.569612 0
M  V30 553 H 52.2346 1.53366 0.178376 0
M  V30 554 H 54.1926 2.73753 3.05892 0
M  V30 555 H 52.8536 1.63106 2.68431 0
M  V30 556 H 52.0466 3.97603 3.09722 0
M  V30 557 H 51.6486 3.44943 1.44535 0
M  V30 558 H 53.9406 5.66783 3.71165 0
M  V30 559 H 54.8836 6.61759 2.51953 0
M  V30 560 H 55.2916 4.89944 2.80384 0
M  V30 561 N 54.6897 -0.239769 1.55765 0
M  V30 562 C 56.1057 -0.588624 1.48349 0
M  V30 563 C 56.3057 -1.88005 0.72502 0
M  V30 564 O 55.3617 -2.51186 0.257269 0
M  V30 565 C 56.6747 -0.68474 2.928 0
M  V30 566 C 58.2227 -0.77659 3.03213 0
M  V30 567 C 58.6977 -0.904207 4.48986 0
M  V30 568 N 60.1887 -0.968896 4.52953 0
M  V30 569 C 60.9237 -1.08703 5.63002 0
M  V30 570 N 60.4197 -1.17026 6.82845 0
M  V30 571 N 62.2127 -1.12074 5.50814 0
M  V30 572 H 54.3637 0.607911 2.03515 0
M  V30 573 H 56.6267 0.21083 0.924259 0
M  V30 574 H 56.3327 0.194284 3.51163 0
M  V30 575 H 56.2067 -1.55435 3.43686 0
M  V30 576 H 58.5937 -1.64606 2.44926 0
M  V30 577 H 58.6747 0.118315 2.55526 0
M  V30 578 H 58.3187 -0.0392633 5.07885 0
M  V30 579 H 58.2487 -1.81426 4.9436 0
M  V30 580 H 60.7397 -0.915633 3.6664 0
M  V30 581 H 61.0527 -1.25966 7.62465 0
M  V30 582 H 59.3977 -1.13971 6.85591 0
M  V30 583 H 62.5887 -1.05226 4.5612 0
M  V30 584 H 62.7617 -1.20936 6.36615 0
M  V30 585 N 56.1678 -1.49265 -0.50573 0
M  V30 586 C 57.5838 -1.35923 -0.836486 0
M  V30 587 C 57.7838 -0.388704 -1.97715 0
M  V30 588 O 56.8398 0.181336 -2.51848 0
M  V30 589 C 58.1528 -2.76531 -1.18115 0
M  V30 590 C 59.7008 -2.85197 -1.28964 0
M  V30 591 C 60.1758 -4.26561 -1.66761 0
M  V30 592 N 61.6668 -4.2935 -1.73819 0
M  V30 593 C 62.4018 -5.35693 -2.045 0
M  V30 594 N 61.8978 -6.52287 -2.33438 0
M  V30 595 N 63.6908 -5.23105 -2.05711 0
M  V30 596 H 55.8418 -2.10965 0.246519 0
M  V30 597 H 58.1048 -0.9468 0.0476887 0
M  V30 598 H 57.8108 -3.49226 -0.416398 0
M  V30 599 H 57.6848 -3.11599 -2.1257 0
M  V30 600 H 60.0718 -2.12742 -2.04511 0
M  V30 601 H 60.1528 -2.53718 -0.325704 0
M  V30 602 H 59.7968 -4.99541 -0.917656 0
M  V30 603 H 59.7268 -4.55502 -2.64246 0
M  V30 604 H 62.2178 -3.4526 -1.53635 0
M  V30 605 H 62.5308 -7.29158 -2.56024 0
M  V30 606 H 60.8758 -6.55521 -2.30905 0
M  V30 607 H 64.0668 -4.31026 -1.82577 0
M  V30 608 H 64.2398 -6.06078 -2.29289 0
M  V30 609 N 57.6459 0.756429 -1.3826 0
M  V30 610 C 58.8919 1.51772 -1.34511 0
M  V30 611 C 59.2249 1.94089 0.0656691 0
M  V30 612 O 58.4999 1.65221 1.02626 0
M  V30 613 C 58.7829 2.77226 -2.29821 0
M  V30 614 C 58.6359 2.41065 -3.79747 0
M  V30 615 C 59.9549 3.79236 -2.23312 0
M  V30 616 H 57.0739 0.550578 -0.489931 0
M  V30 617 H 59.7159 0.866607 -1.69086 0
M  V30 618 H 57.8659 3.32784 -2.00467 0
M  V30 619 H 59.5379 1.91303 -4.19763 0
M  V30 620 H 57.7809 1.7356 -3.97567 0
M  V30 621 H 58.4519 3.3081 -4.41892 0
M  V30 622 H 60.9279 3.3321 -2.49219 0
M  V30 623 H 59.8039 4.64714 -2.92116 0
M  V30 624 H 60.0649 4.24615 -1.23102 0
M  V30 625 N 59.124 1.23083 0.984299 0
M  V30 626 C 60.54 0.992637 1.24975 0
M  V30 627 C 60.74 -0.308618 1.99123 0
M  V30 628 O 59.796 -1.02905 2.30579 0
M  V30 629 C 61.109 2.19698 2.05312 0
M  V30 630 C 62.657 2.24147 2.18465 0
M  V30 631 C 63.132 3.44157 3.02192 0
M  V30 632 N 64.623 3.44372 3.09777 0
M  V30 633 C 65.358 4.33886 3.74874 0
M  V30 634 N 64.854 5.3363 4.41827 0
M  V30 635 N 66.647 4.21639 3.71721 0
M  V30 636 H 58.798 2.06731 0.487453 0
M  V30 637 H 61.061 0.906339 0.277944 0
M  V30 638 H 60.767 3.1411 1.58201 0
M  V30 639 H 60.641 2.20465 3.06064 0
M  V30 640 H 63.028 1.30277 2.64786 0
M  V30 641 H 63.109 2.27415 1.17115 0
M  V30 642 H 62.753 4.38332 2.56568 0
M  V30 643 H 62.683 3.3813 4.03702 0
M  V30 644 H 65.174 2.72201 2.62135 0
M  V30 645 H 65.487 5.98196 4.89266 0
M  V30 646 H 63.832 5.37534 4.40548 0
M  V30 647 H 67.023 3.42962 3.18582 0
M  V30 648 H 67.196 4.91604 4.22173 0
M  V30 649 N 60.6021 -1.18246 1.0419 0
M  V30 650 C 62.0181 -1.40269 0.761366 0
M  V30 651 C 62.2181 -1.90777 -0.648578 0
M  V30 652 O 61.2741 -2.0929 -1.41258 0
M  V30 653 C 62.5871 -2.40237 1.8085 0
M  V30 654 C 64.1351 -2.53961 1.82955 0
M  V30 655 C 64.6101 -3.57194 2.86664 0
M  V30 656 N 66.1011 -3.64702 2.85563 0
M  V30 657 C 66.8361 -4.44309 3.6246 0
M  V30 658 N 66.3321 -5.27514 4.49111 0
M  V30 659 N 68.1251 -4.39084 3.50944 0
M  V30 660 H 60.2761 -0.837882 1.95175 0
M  V30 661 H 62.5391 -0.430608 0.84456 0
M  V30 662 H 62.2451 -2.10176 2.81991 0
M  V30 663 H 62.1191 -3.39601 1.64168 0
M  V30 664 H 64.5061 -2.83338 0.824855 0
M  V30 665 H 64.5871 -1.54706 2.03715 0
M  V30 666 H 64.2311 -3.28558 3.87314 0
M  V30 667 H 64.1611 -4.5613 2.6316 0
M  V30 668 H 66.6521 -3.05289 2.22727 0
M  V30 669 H 66.9651 -5.85411 5.04493 0
M  V30 670 H 65.3101 -5.2693 4.53178 0
M  V30 671 H 68.5011 -3.7313 2.82651 0
M  V30 672 H 68.6741 -5.00883 4.11121 0
M  V30 673 N 62.0802 -0.821533 -1.34494 0
M  V30 674 C 63.3272 -0.408946 -1.98328 0
M  V30 675 C 63.6552 1.02764 -1.65136 0
M  V30 676 O 62.9102 1.73026 -0.914349 0
M  V30 677 C 63.2092 -0.556512 -3.53041 0
M  V30 678 C 62.8752 -1.95861 -4.0614 0
M  V30 679 C 61.5372 -2.34217 -4.20352 0
M  V30 680 C 63.8892 -2.87523 -4.34718 0
M  V30 681 C 61.2172 -3.63572 -4.6047 0
M  V30 682 C 63.5692 -4.1634 -4.76281 0
M  V30 683 C 62.2332 -4.54675 -4.88699 0
M  V30 684 H 61.5032 -0.149644 -0.725732 0
M  V30 685 H 64.1502 -1.04521 -1.6046 0
M  V30 686 H 62.4552 0.163148 -3.9146 0
M  V30 687 H 64.1522 -0.217826 -4.00408 0
M  V30 688 H 60.7422 -1.65066 -3.95539 0
M  V30 689 H 64.9262 -2.59133 -4.23277 0
M  V30 690 H 60.1822 -3.93101 -4.68275 0
M  V30 691 H 64.3562 -4.87455 -4.97354 0
M  V30 692 H 61.9832 -5.54959 -5.19542 0
M  V30 693 N 63.5583 1.46682 -0.576371 0
M  V30 694 C 64.4903 2.28341 0.198231 0
M  V30 695 C 65.5033 1.38141 0.861453 0
M  V30 696 O 66.6923 1.62797 0.732082 0
M  V30 697 C 63.7923 3.12986 1.29972 0
M  V30 698 C 62.9653 4.31271 0.729639 0
M  V30 699 C 62.0243 4.97363 1.71803 0
M  V30 700 O 61.0503 5.55156 1.25658 0
M  V30 701 N 62.2523 4.93796 3.05198 0
M  V30 702 H 65.0173 2.9546 -0.502324 0
M  V30 703 H 62.5783 1.56525 -0.413715 0
M  V30 704 H 64.5703 3.54066 1.96008 0
M  V30 705 H 63.1403 2.47984 1.90323 0
M  V30 706 H 62.3603 3.94052 -0.108012 0
M  V30 707 H 63.6483 5.07739 0.328438 0
M  V30 708 H 63.0463 4.48077 3.45317 0
M  V30 709 H 61.6033 5.38837 3.6674 0
M  V30 710 N 65.0364 0.313813 1.54444 0
M  V30 711 C 66.2854 -0.292519 1.99568 0
M  V30 712 C 66.5984 -1.54011 1.20582 0
M  V30 713 O 67.8044 -2.22183 1.56035 0
M  V30 714 C 66.2604 -0.571752 3.55329 0
M  V30 715 C 65.8684 0.658229 4.43138 0
M  V30 716 C 67.6124 -1.13857 4.08946 0
M  V30 717 C 65.5194 0.351439 5.90355 0
M  V30 718 H 64.4494 -0.113079 0.745472 0
M  V30 719 H 67.1004 0.424518 1.78522 0
M  V30 720 H 65.4824 -1.34872 3.72325 0
M  V30 721 H 66.6564 1.43403 4.37918 0
M  V30 722 H 64.9714 1.14458 4.0036 0
M  V30 723 H 67.5684 -1.38257 5.16516 0
M  V30 724 H 67.9114 -2.08489 3.6033 0
M  V30 725 H 68.4444 -0.423015 3.95544 0
M  V30 726 H 65.1834 1.26667 6.43145 0
M  V30 727 H 64.7034 -0.386842 5.98551 0
M  V30 728 H 66.3824 -0.0423134 6.46986 0
M  V30 729 N 66.5145 -1.57545 0.0417849 0
M  V30 730 C 67.4775 -2.09885 -0.92093 0
M  V30 731 C 68.4775 -1.01648 -1.24596 0
M  V30 732 O 69.6675 -1.27759 -1.1842 0
M  V30 733 C 66.7995 -2.57527 -2.23367 0
M  V30 734 H 67.9925 -2.96236 -0.467382 0
M  V30 735 H 65.5455 -1.5493 -0.206467 0
M  V30 736 H 66.2805 -1.74542 -2.73323 0
M  V30 737 H 66.0655 -3.36613 -2.01083 0
M  V30 738 H 67.5555 -2.98201 -2.92346 0
M  V30 739 N 67.9926 0.231505 -1.5589 0
M  V30 740 C 68.9246 1.31006 -1.8807 0
M  V30 741 C 69.9376 1.43539 -0.768145 0
M  V30 742 O 71.1266 1.44614 -1.04638 0
M  V30 743 C 68.2266 2.68688 -2.06543 0
M  V30 744 C 67.3996 2.78228 -3.37502 0
M  V30 745 C 66.4586 3.96857 -3.4553 0
M  V30 746 O 65.4846 3.85662 -4.18633 0
M  V30 747 N 66.6866 5.1072 -2.75944 0
M  V30 748 H 69.4516 1.03731 -2.81176 0
M  V30 749 H 67.0126 0.421573 -1.56315 0
M  V30 750 H 69.0046 3.46412 -2.09239 0
M  V30 751 H 67.5746 2.88605 -1.20109 0
M  V30 752 H 66.7946 1.87059 -3.46991 0
M  V30 753 H 68.0826 2.81564 -4.23791 0
M  V30 754 H 67.4806 5.2271 -2.16311 0
M  V30 755 H 66.0376 5.86523 -2.84314 0
M  V30 756 N 69.4707 1.49531 0.497807 0
M  V30 757 C 70.7007 1.62657 1.27382 0
M  V30 758 C 71.1087 0.298488 1.86831 0
M  V30 759 O 70.4517 -0.72647 1.68725 0
M  V30 760 C 70.5137 2.6393 2.44093 0
M  V30 761 C 70.1777 4.08195 2.05489 0
M  V30 762 C 71.1747 4.949 1.59279 0
M  V30 763 C 68.8597 4.53948 2.15026 0
M  V30 764 C 70.8537 6.25397 1.23113 0
M  V30 765 C 68.5407 5.84458 1.78473 0
M  V30 766 C 69.5387 6.70006 1.32591 0
M  V30 767 O 69.2267 7.98083 0.965327 0
M  V30 768 H 68.9587 0.550429 0.392434 0
M  V30 769 H 71.5127 1.96325 0.603801 0
M  V30 770 H 69.7427 2.25449 3.14181 0
M  V30 771 H 71.4317 2.66552 3.06113 0
M  V30 772 H 72.1977 4.60779 1.51354 0
M  V30 773 H 68.0767 3.87525 2.4969 0
M  V30 774 H 71.6207 6.92125 0.872299 0
M  V30 775 H 67.5177 6.18107 1.86048 0
M  V30 776 H 68.2857 8.11122 1.09652 0
M  V30 777 N 70.9488 -0.749086 1.3866 0
M  V30 778 C 71.8958 -1.86291 1.36251 0
M  V30 779 C 72.8658 -1.64578 0.224347 0
M  V30 780 O 74.0508 -1.86181 0.417279 0
M  V30 781 C 71.1908 -3.23644 1.19786 0
M  V30 782 C 70.3038 -3.57158 2.43027 0
M  V30 783 C 69.4388 -4.83838 2.19258 0
M  V30 784 C 68.4778 -5.10152 3.38247 0
M  V30 785 N 67.6148 -6.28029 3.13884 0
M  V30 786 H 72.4548 -1.87685 2.3147 0
M  V30 787 H 69.9918 -0.917287 1.14997 0
M  V30 788 H 71.9498 -4.0291 1.08254 0
M  V30 789 H 70.5798 -3.21566 0.282031 0
M  V30 790 H 69.6318 -2.72701 2.65214 0
M  V30 791 H 70.9438 -3.7253 3.31697 0
M  V30 792 H 70.0978 -5.71057 2.04888 0
M  V30 793 H 68.8368 -4.70614 1.2796 0
M  V30 794 H 67.8418 -4.21401 3.53131 0
M  V30 795 H 69.0668 -5.25271 4.30427 0
M  V30 796 H 67.0128 -6.1612 2.25238 0
M  V30 797 H 66.9298 -6.43922 3.96106 0
M  V30 798 H 68.1978 -7.18124 3.03179 0
M  V30 799 N 72.4269 -1.23603 -0.977757 0
M  V30 800 C 73.6669 -1.08148 -1.73446 0
M  V30 801 C 74.0309 0.374785 -1.88307 0
M  V30 802 O 75.2319 0.650588 -2.60808 0
M  V30 803 C 73.5029 -1.78991 -3.0935 0
M  V30 804 S 75.0619 -1.79141 -4.00567 0
M  V30 805 H 71.8799 -0.386987 -0.596458 0
M  V30 806 H 74.4819 -1.5678 -1.16792 0
M  V30 807 H 73.1859 -2.8408 -2.96187 0
M  V30 808 H 72.7169 -1.30651 -3.71071 0
M  V30 809 H 74.7319 -0.851892 -4.88833 0
M  V30 810 N 73.905 1.17692 -1.04816 0
M  V30 811 C 74.835 2.23777 -0.666791 0
M  V30 812 C 75.816 1.66796 0.33361 0
M  V30 813 O 77.001 1.93039 0.212042 0
M  V30 814 C 74.131 3.47281 -0.0367933 0
M  V30 815 C 73.085 4.17059 -0.961546 0
M  V30 816 C 72.411 5.34342 -0.195626 0
M  V30 817 C 73.711 4.69713 -2.28402 0
M  V30 818 H 75.405 2.55933 -1.55367 0
M  V30 819 H 72.951 1.23019 -0.748484 0
M  V30 820 H 74.904 4.20706 0.241775 0
M  V30 821 H 73.628 3.14381 0.885004 0
M  V30 822 H 72.287 3.45541 -1.22462 0
M  V30 823 H 71.935 4.97692 0.728816 0
M  V30 824 H 71.635 5.81966 -0.811775 0
M  V30 825 H 73.159 6.10553 0.0757473 0
M  V30 826 H 74.573 5.34794 -2.06563 0
M  V30 827 H 72.97 5.279 -2.8538 0
M  V30 828 H 74.04 3.86726 -2.92525 0
M  V30 829 N 75.3831 0.828654 1.34056 0
M  V30 830 C 76.6291 0.42008 1.98402 0
M  V30 831 C 76.9621 -1.01564 1.65525 0
M  V30 832 O 76.2371 -1.70834 0.929831 0
M  V30 833 C 76.5201 0.62927 3.54559 0
M  V30 834 C 76.3731 2.11152 3.97159 0
M  V30 835 C 77.6921 0.0688756 4.40046 0
M  V30 836 H 74.8111 0.154104 0.720709 0
M  V30 837 H 77.4531 1.04228 1.5886 0
M  V30 838 H 75.6031 0.0996418 3.88372 0
M  V30 839 H 77.2751 2.70522 3.73651 0
M  V30 840 H 75.5181 2.59985 3.47261 0
M  V30 841 H 76.1891 2.20868 5.05887 0
M  V30 842 H 78.6651 0.521458 4.1282 0
M  V30 843 H 77.5411 0.245006 5.48353 0
M  V30 844 H 77.8021 -1.0266 4.30015 0
M  V30 845 N 76.8612 -1.46375 0.584142 0
M  V30 846 C 78.1102 -2.01585 0.0679741 0
M  V30 847 C 78.4232 -1.46109 -1.30045 0
M  V30 848 O 79.6292 -1.93148 -1.90804 0
M  V30 849 C 78.0852 -3.5983 0.0709207 0
M  V30 850 C 77.6932 -4.24303 1.43775 0
M  V30 851 C 79.4372 -4.22693 -0.391228 0
M  V30 852 C 77.3442 -5.74631 1.39834 0
M  V30 853 H 76.2742 -0.753689 0.0216421 0
M  V30 854 H 78.9252 -1.68093 0.736001 0
M  V30 855 H 77.3072 -3.90405 -0.663299 0
M  V30 856 H 78.4812 -4.05335 2.19181 0
M  V30 857 H 76.7962 -3.73539 1.84004 0
M  V30 858 H 79.3932 -5.3289 -0.439524 0
M  V30 859 H 79.7362 -3.91728 -1.40906 0
M  V30 860 H 80.2692 -3.96749 0.288974 0
M  V30 861 H 77.0082 -6.10258 2.39303 0
M  V30 862 H 76.5282 -5.95858 0.686505 0
M  V30 863 H 78.2072 -6.37375 1.11187 0
M  V30 864 N 78.3393 -0.321999 -1.54275 0
M  V30 865 C 79.2863 0.544664 -2.24281 0
M  V30 866 C 80.2563 1.1129 -1.23303 0
M  V30 867 O 81.4413 1.15354 -1.51981 0
M  V30 868 C 78.5813 1.70045 -3.00298 0
M  V30 869 C 77.6943 1.16159 -4.1609 0
M  V30 870 C 76.8293 2.28293 -4.79641 0
M  V30 871 C 75.8683 1.71648 -5.8754 0
M  V30 872 N 75.0053 2.77438 -6.44959 0
M  V30 873 H 79.8453 -0.0588907 -2.97942 0
M  V30 874 H 77.3823 -0.0408345 -1.47043 0
M  V30 875 H 79.3403 2.38054 -3.42616 0
M  V30 876 H 77.9703 2.27531 -2.28975 0
M  V30 877 H 77.0223 0.373092 -3.78566 0
M  V30 878 H 78.3343 0.707087 -4.93763 0
M  V30 879 H 77.4883 3.0421 -5.2492 0
M  V30 880 H 76.2273 2.77079 -4.01346 0
M  V30 881 H 75.2323 0.942282 -5.41665 0
M  V30 882 H 76.4573 1.23741 -6.67731 0
M  V30 883 H 74.4033 3.25519 -5.69538 0
M  V30 884 H 74.3203 2.36547 -7.1804 0
M  V30 885 H 75.5883 3.53189 -6.94894 0
M  V30 886 N 79.8174 1.5752 -0.0501392 0
M  V30 887 C 81.0474 1.96678 0.632573 0
M  V30 888 C 81.4554 0.926298 1.64974 0
M  V30 889 O 80.7984 -0.09802 1.83438 0
M  V30 890 C 80.8604 3.32068 1.37735 0
M  V30 891 C 80.5244 4.54076 0.516131 0
M  V30 892 C 81.5214 5.19445 -0.217357 0
M  V30 893 C 79.2064 5.00304 0.44736 0
M  V30 894 C 81.2004 6.29378 -1.00807 0
M  V30 895 C 78.8874 6.10114 -0.347038 0
M  V30 896 C 79.8854 6.74512 -1.07344 0
M  V30 897 O 79.5734 7.82211 -1.85477 0
M  V30 898 H 79.3054 0.652193 0.177821 0
M  V30 899 H 81.8594 2.05091 -0.112543 0
M  V30 900 H 80.0894 3.20206 2.16807 0
M  V30 901 H 81.7784 3.55981 1.95019 0
M  V30 902 H 82.5444 4.84689 -0.173688 0
M  V30 903 H 78.4234 4.49971 1.00235 0
M  V30 904 H 81.9674 6.79575 -1.57556 0
M  V30 905 H 77.8644 6.44307 -0.392349 0
M  V30 906 H 78.6324 7.98982 -1.77678 0
M  V30 907 N 81.2955 -0.223234 1.56011 0
M  V30 908 C 82.2585 -1.26014 1.9145 0
M  V30 909 C 83.2585 -1.3989 0.792937 0
M  V30 910 O 84.4485 -1.38184 1.0607 0
M  V30 911 C 81.5805 -2.63422 2.16383 0
M  V30 912 H 82.7735 -0.95796 2.84189 0
M  V30 913 H 80.3265 -0.463576 1.49267 0
M  V30 914 H 81.0615 -2.98741 1.2619 0
M  V30 915 H 80.8465 -2.54728 2.98088 0
M  V30 916 H 82.3365 -3.38249 2.44903 0
M  V30 917 N 82.7736 -1.49793 -0.48987 0
M  V30 918 C 83.7206 -1.67281 -1.59014 0
M  V30 919 C 84.6906 -0.514177 -1.57941 0
M  V30 920 O 85.8756 -0.742533 -1.75759 0
M  V30 921 C 83.0156 -1.75569 -2.97102 0
M  V30 922 C 82.1286 -3.0281 -3.08107 0
M  V30 923 C 81.2636 -3.02008 -4.36995 0
M  V30 924 C 80.3026 -4.23782 -4.41673 0
M  V30 925 N 79.4396 -4.20826 -5.62005 0
M  V30 926 H 84.2796 -2.61224 -1.43409 0
M  V30 927 H 81.8166 -1.29508 -0.697565 0
M  V30 928 H 83.7746 -1.78354 -3.77155 0
M  V30 929 H 82.4046 -0.850827 -3.11385 0
M  V30 930 H 81.4566 -3.09584 -2.21047 0
M  V30 931 H 82.7686 -3.92801 -3.07423 0
M  V30 932 H 81.9226 -3.03418 -5.25378 0
M  V30 933 H 80.6616 -2.09815 -4.4026 0
M  V30 934 H 79.6666 -4.22604 -3.5169 0
M  V30 935 H 80.8916 -5.17181 -4.40115 0
M  V30 936 H 78.8376 -3.31476 -5.66091 0
M  V30 937 H 78.7546 -5.04564 -5.62984 0
M  V30 938 H 80.0226 -4.26355 -6.52565 0
M  V30 939 N 84.2517 0.741722 -1.39055 0
M  V30 940 C 85.5287 1.49252 -1.26425 0
M  V30 941 C 85.9087 2.10705 0.129144 0
M  V30 942 O 85.2567 1.98045 1.13976 0
M  V30 943 C 85.4667 2.54934 -2.38347 0
M  V30 944 C 86.8147 3.21506 -2.77343 0
M  V30 945 O 87.8387 2.65245 -2.37747 0
M  V30 946 O 86.6977 4.23294 -3.45665 0
M  V30 947 H 83.7917 0.662451 -0.495064 0
M  V30 948 H 86.3377 0.776121 -1.50912 0
M  V30 949 H 85.1097 2.07857 -3.31529 0
M  V30 950 H 84.7327 3.34141 -2.15489 0
M  V30 951 N 85.7298 1.2412 0.971189 0
M  V30 952 C 86.9578 1.10575 1.74874 0
M  V30 953 C 87.3728 -0.342017 1.85676 0
M  V30 954 O 86.7298 -1.23617 1.34258 0
M  V30 955 C 86.7808 1.73579 3.171 0
M  V30 956 O 86.5018 3.12695 3.06844 0
M  V30 957 C 88.0028 1.65598 4.11208 0
M  V30 958 H 85.2228 0.386504 0.548503 0
M  V30 959 H 87.7668 1.64156 1.21955 0
M  V30 960 H 85.9218 1.24009 3.67016 0
M  V30 961 H 86.3358 3.43412 3.96445 0
M  V30 962 H 87.8098 2.1437 5.08674 0
M  V30 963 H 88.2868 0.616532 4.34851 0
M  V30 964 H 88.8928 2.14578 3.67201 0
M  V30 965 N 87.2079 -1.17134 1.05439 0
M  V30 966 C 88.6239 -1.39454 0.776201 0
M  V30 967 C 88.8239 -1.91454 -0.628307 0
M  V30 968 O 87.8799 -2.10777 -1.39031 0
M  V30 969 C 89.1929 -2.38305 1.83388 0
M  V30 970 C 90.7409 -2.52006 1.85639 0
M  V30 971 C 91.2159 -3.54133 2.90437 0
M  V30 972 N 92.7069 -3.61653 2.89415 0
M  V30 973 C 93.4419 -4.4044 3.67152 0
M  V30 974 N 92.9379 -5.22721 4.54681 0
M  V30 975 N 94.7309 -4.35337 3.55581 0
M  V30 976 H 86.8819 -0.817134 1.96053 0
M  V30 977 H 89.1449 -0.421626 0.849079 0
M  V30 978 H 88.8509 -2.07173 2.84204 0
M  V30 979 H 88.7249 -3.37841 1.67761 0
M  V30 980 H 91.1119 -2.82447 0.85486 0
M  V30 981 H 91.1929 -1.52537 2.05344 0
M  V30 982 H 90.8369 -3.24431 3.90777 0
M  V30 983 H 90.7669 -4.53313 2.67983 0
M  V30 984 H 93.2579 -3.02909 2.25952 0
M  V30 985 H 93.5709 -5.80027 5.10674 0
M  V30 986 H 91.9159 -5.22093 4.58741 0
M  V30 987 H 95.1069 -3.70112 2.86592 0
M  V30 988 H 95.2799 -4.96494 4.1641 0
M  V30 989 N 88.686 -0.835752 -1.33615 0
M  V30 990 C 89.916 -0.442701 -2.01801 0
M  V30 991 C 90.324 0.959807 -1.63047 0
M  V30 992 O 89.667 1.63468 -0.838088 0
M  V30 993 C 89.729 -0.480125 -3.56279 0
M  V30 994 C 89.393 -1.8382 -4.18401 0
M  V30 995 C 90.39 -2.80097 -4.37998 0
M  V30 996 C 88.075 -2.13019 -4.54894 0
M  V30 997 C 90.069 -4.03736 -4.9323 0
M  V30 998 C 87.756 -3.36916 -5.09834 0
M  V30 999 C 88.754 -4.32091 -5.28948 0
M  V30 1000 O 88.442 -5.53797 -5.82721 0
M  V30 1001 H 88.174 -0.17441 -0.653114 0
M  V30 1002 H 90.728 -1.129 -1.71589 0
M  V30 1003 H 88.958 0.262931 -3.85805 0
M  V30 1004 H 90.647 -0.105335 -4.05763 0
M  V30 1005 H 91.413 -2.58838 -4.10156 0
M  V30 1006 H 87.292 -1.39733 -4.39313 0
M  V30 1007 H 90.836 -4.78034 -5.08064 0
M  V30 1008 H 86.733 -3.58033 -5.37106 0
M  V30 1009 H 87.501 -5.55494 -6.0114 0
M  V30 1010 N 90.1641 1.46063 -0.591896 0
M  V30 1011 C 91.3891 2.07226 -0.0850314 0
M  V30 1012 C 91.8141 1.43625 1.21463 0
M  V30 1013 O 91.1721 0.523305 1.73583 0
M  V30 1014 C 91.2201 3.60554 0.0576567 0
M  V30 1015 O 90.3241 3.97128 1.11188 0
M  V30 1016 H 89.6651 0.660615 -0.0669568 0
M  V30 1017 H 92.1951 1.8756 -0.81745 0
M  V30 1018 H 92.2051 4.07165 0.2609 0
M  V30 1019 H 90.8801 4.06235 -0.891416 0
M  V30 1020 H 89.4571 3.62213 0.886356 0
M  V30 1021 N 91.6422 0.330177 1.54103 0
M  V30 1022 C 92.8672 -0.274893 2.0557 0
M  V30 1023 C 93.2922 -1.44487 1.20437 0
M  V30 1024 O 92.6502 -1.80021 0.214991 0
M  V30 1025 C 92.6982 -0.68079 3.54115 0
M  V30 1026 O 91.8022 -1.7824 3.71893 0
M  V30 1027 H 91.1432 -0.0483849 0.662235 0
M  V30 1028 H 93.6732 0.480508 1.98878 0
M  V30 1029 H 93.6832 -0.961635 3.96505 0
M  V30 1030 H 92.3582 0.174903 4.15532 0
M  V30 1031 H 90.9352 -1.49985 3.41407 0
M  V30 1032 N 93.1203 -1.57491 0.0584922 0
M  V30 1033 C 94.3453 -1.97711 -0.62652 0
M  V30 1034 C 94.7703 -0.936132 -1.63151 0
M  V30 1035 O 94.1283 0.099811 -1.81025 0
M  V30 1036 C 94.1763 -3.36989 -1.28338 0
M  V30 1037 O 93.2803 -3.35433 -2.39913 0
M  V30 1038 H 92.6213 -0.643868 -0.162266 0
M  V30 1039 H 95.1513 -2.04193 0.129064 0
M  V30 1040 H 95.1613 -3.73879 -1.63335 0
M  V30 1041 H 93.8363 -4.12289 -0.546889 0
M  V30 1042 H 92.4133 -3.10298 -2.06809 0
M  V30 1043 N 94.5984 0.214957 -1.56127 0
M  V30 1044 C 95.8454 0.938372 -1.79446 0
M  V30 1045 C 96.1734 1.8407 -0.628378 0
M  V30 1046 O 95.4284 1.91837 0.386925 0
M  V30 1047 C 95.7274 1.80314 -3.0858 0
M  V30 1048 C 95.3934 1.05349 -4.3842 0
M  V30 1049 C 94.0554 0.846435 -4.73697 0
M  V30 1050 C 96.4074 0.524588 -5.18553 0
M  V30 1051 C 93.7354 0.098683 -5.86617 0
M  V30 1052 C 96.0874 -0.209853 -6.32252 0
M  V30 1053 C 94.7514 -0.428102 -6.66126 0
M  V30 1054 H 94.0214 0.343375 -0.656639 0
M  V30 1055 H 96.6684 0.206077 -1.90388 0
M  V30 1056 H 94.9734 2.6035 -2.92789 0
M  V30 1057 H 96.6704 2.36513 -3.23825 0
M  V30 1058 H 93.2604 1.22486 -4.10725 0
M  V30 1059 H 97.4444 0.672008 -4.91729 0
M  V30 1060 H 92.7004 -0.0805753 -6.11347 0
M  V30 1061 H 96.8744 -0.627157 -6.9357 0
M  V30 1062 H 94.5014 -1.00944 -7.53468 0
M  V30 1063 N 96.0765 1.50051 0.48192 0
M  V30 1064 C 97.3165 1.62128 1.24474 0
M  V30 1065 C 97.6805 0.309742 1.89485 0
M  V30 1066 O 98.8815 0.305854 2.67054 0
M  V30 1067 C 97.1525 2.76151 2.26882 0
M  V30 1068 S 98.7115 3.08297 3.12247 0
M  V30 1069 H 95.5295 0.571661 0.422759 0
M  V30 1070 H 98.1315 1.87791 0.54359 0
M  V30 1071 H 96.8355 3.69942 1.77683 0
M  V30 1072 H 96.3665 2.52541 3.0164 0
M  V30 1073 H 98.3815 2.51287 4.27866 0
M  V30 1074 N 97.5546 -0.734337 1.39446 0
M  V30 1075 C 98.7826 -1.52358 1.39981 0
M  V30 1076 C 99.1976 -1.88799 -0.0054975 0
M  V30 1077 O 98.5546 -1.54146 -0.976998 0
M  V30 1078 C 98.6056 -2.81072 2.27333 0
M  V30 1079 O 98.3266 -2.46178 3.62392 0
M  V30 1080 C 99.8276 -3.75096 2.36259 0
M  V30 1081 H 97.0476 -0.470806 0.478103 0
M  V30 1082 H 99.5916 -0.907339 1.83269 0
M  V30 1083 H 97.7466 -3.39026 1.87457 0
M  V30 1084 H 98.1606 -3.28866 4.08592 0
M  V30 1085 H 99.6346 -4.62305 3.01626 0
M  V30 1086 H 100.112 -4.16892 1.38194 0
M  V30 1087 H 100.718 -3.23061 2.76608 0
M  V30 1088 N 99.0327 -1.24633 -0.964593 0
M  V30 1089 C 99.9827 -1.00841 -2.04487 0
M  V30 1090 C 100.967 0.0512468 -1.60818 0
M  V30 1091 O 102.159 -0.162865 -1.76249 0
M  V30 1092 C 99.2877 -0.618474 -3.37683 0
M  V30 1093 C 98.3737 -1.71437 -3.87905 0
M  V30 1094 N 98.7647 -2.9477 -4.11029 0
M  V30 1095 C 97.0627 -1.5926 -4.16596 0
M  V30 1096 C 97.7637 -3.65834 -4.52261 0
M  V30 1097 N 96.7397 -2.9341 -4.57615 0
M  V30 1098 H 100.542 -1.94487 -2.20345 0
M  V30 1099 H 98.0557 -1.14805 -1.14863 0
M  V30 1100 H 100.053 -0.429247 -4.14684 0
M  V30 1101 H 98.7127 0.310766 -3.23209 0
M  V30 1102 H 99.7237 -3.30917 -3.9839 0
M  V30 1103 H 96.4007 -0.731606 -4.1104 0
M  V30 1104 H 97.7907 -4.71646 -4.78539 0
M  V30 1105 N 100.511 1.16574 -1.06058 0
M  V30 1106 C 101.788 1.83048 -0.689416 0
M  V30 1107 C 102.168 1.94122 0.829443 0
M  V30 1108 O 101.516 1.48249 1.7388 0
M  V30 1109 C 101.726 3.20186 -1.38859 0
M  V30 1110 C 103.074 3.95989 -1.53226 0
M  V30 1111 O 104.098 3.29696 -1.3483 0
M  V30 1112 O 102.957 5.14813 -1.83384 0
M  V30 1113 H 100.051 0.790258 -0.243764 0
M  V30 1114 H 102.597 1.23797 -1.16071 0
M  V30 1115 H 101.369 3.07146 -2.4244 0
M  V30 1116 H 100.992 3.87112 -0.907216 0
M  V30 1117 N 101.989 0.842826 1.3317 0
M  V30 1118 C 103.405 0.531128 1.50503 0
M  V30 1119 C 103.605 -0.940734 1.78192 0
M  V30 1120 O 102.661 -1.72436 1.84451 0
M  V30 1121 C 103.974 1.40789 2.65705 0
M  V30 1122 C 105.522 1.40708 2.79589 0
M  V30 1123 C 105.997 2.26878 3.97857 0
M  V30 1124 N 107.488 2.24609 4.05099 0
M  V30 1125 C 108.223 2.88019 4.95815 0
M  V30 1126 N 107.719 3.60496 5.9162 0
M  V30 1127 N 109.512 2.77469 4.88843 0
M  V30 1128 H 101.663 1.79557 1.1346 0
M  V30 1129 H 103.926 0.766267 0.558156 0
M  V30 1130 H 103.632 2.454 2.51936 0
M  V30 1131 H 103.506 1.08677 3.61205 0
M  V30 1132 H 105.893 0.368668 2.92788 0
M  V30 1133 H 105.974 1.76829 1.84838 0
M  V30 1134 H 105.618 3.3078 3.85418 0
M  V30 1135 H 105.548 1.88096 4.91861 0
M  V30 1136 H 108.039 1.71906 3.36536 0
M  V30 1137 H 108.352 4.06076 6.57512 0
M  V30 1138 H 106.697 3.64604 5.91683 0
M  V30 1139 H 109.888 2.20406 4.12963 0
M  V30 1140 H 110.061 3.2717 5.59342 0
M  V30 1141 N 103.467 -1.45747 0.599634 0
M  V30 1142 C 104.415 -2.322 -0.136426 0
M  V30 1143 C 105.409 -1.45497 -0.867583 0
M  V30 1144 O 106.615 -1.62027 -0.78405 0
M  V30 1145 H 102.99 -0.749368 -0.0628588 0
M  V30 1146 H 104.961 -2.92072 0.611281 0
M  V30 1147 C 103.71 -3.28974 -1.12567 0
M  V30 1148 H 103.033 -3.9568 -0.572484 0
M  V30 1149 H 104.473 -3.92212 -1.61077 0
M  V30 1150 C 102.932 -2.55561 -2.19523 0
M  V30 1151 O 103.462 -2.33111 -3.27143 0
M  V30 1152 N 101.668 -2.15832 -1.94589 0
M  V30 1153 H 101.215 -2.3429 -1.07078 0
M  V30 1154 H 101.173 -1.67034 -2.66359 0
M  V30 1155 N 104.945 -0.338344 -1.53925 0
M  V30 1156 C 106.173 0.261298 -2.05243 0
M  V30 1157 C 106.588 1.44625 -1.21363 0
M  V30 1158 O 105.945 1.80811 -0.247736 0
M  V30 1159 C 105.996 0.681412 -3.5502 0
M  V30 1160 O 105.717 -0.456414 -4.35716 0
M  V30 1161 C 107.218 1.34232 -4.22489 0
M  V30 1162 H 104.438 0.0513685 -0.669031 0
M  V30 1163 H 106.982 -0.488822 -1.98572 0
M  V30 1164 H 105.137 1.38148 -3.61931 0
M  V30 1165 H 105.551 -0.122564 -5.24357 0
M  V30 1166 H 107.025 1.58708 -5.28693 0
M  V30 1167 H 107.502 2.29426 -3.74514 0
M  V30 1168 H 108.108 0.684424 -4.19757 0
M  V30 1169 N 106.423 1.57458 -0.0668435 0
M  V30 1170 C 107.356 2.08033 0.93795 0
M  V30 1171 C 108.334 0.984321 1.29421 0
M  V30 1172 O 109.518 1.25736 1.40437 0
M  V30 1173 C 106.645 2.53388 2.24749 0
M  V30 1174 C 105.691 3.74376 2.04315 0
M  V30 1175 S 106.524 5.19303 1.30706 0
M  V30 1176 C 107.68 5.67986 2.62951 0
M  V30 1177 H 107.913 2.92935 0.50759 0
M  V30 1178 H 105.446 1.5371 0.145804 0
M  V30 1179 H 107.404 2.8018 3.00016 0
M  V30 1180 H 106.065 1.68763 2.64911 0
M  V30 1181 H 105.258 4.04083 3.01218 0
M  V30 1182 H 104.86 3.47931 1.37186 0
M  V30 1183 H 107.152 5.74528 3.5906 0
M  V30 1184 H 108.095 6.66955 2.3786 0
M  V30 1185 H 108.503 4.95781 2.69929 0
M  V30 1186 N 107.901 -0.206675 1.56239 0
M  V30 1187 C 108.811 -1.27686 1.96808 0
M  V30 1188 C 109.827 -1.50455 0.874035 0
M  V30 1189 O 111.003 -1.63295 1.17884 0
M  V30 1190 C 108.068 -2.60358 2.28942 0
M  V30 1191 C 107.129 -2.45762 3.51994 0
M  V30 1192 C 106.362 -3.72108 3.82585 0
M  V30 1193 O 106.585 -4.75776 3.14631 0
M  V30 1194 O 105.519 -3.6833 4.76043 0
M  V30 1195 H 109.345 -0.962593 2.88041 0
M  V30 1196 H 106.93 -0.410746 1.43643 0
M  V30 1197 H 108.812 -3.38687 2.50737 0
M  V30 1198 H 107.487 -2.91435 1.4088 0
M  V30 1199 H 106.394 -1.65584 3.35459 0
M  V30 1200 H 107.727 -2.19621 4.40486 0
M  V30 1201 N 109.379 -1.50304 -0.473955 0
M  V30 1202 C 110.342 -1.6841 -1.55469 0
M  V30 1203 C 111.342 -0.554905 -1.50922 0
M  V30 1204 O 112.532 -0.821882 -1.53593 0
M  V30 1205 C 109.664 -1.70667 -2.95102 0
M  V30 1206 H 110.857 -2.64828 -1.40733 0
M  V30 1207 H 108.41 -1.39742 -0.700132 0
M  V30 1208 H 109.145 -0.75932 -3.15285 0
M  V30 1209 H 108.93 -2.52698 -2.9981 0
M  V30 1210 H 110.42 -1.8664 -3.73571 0
M  V30 1211 N 110.857 0.726932 -1.39834 0
M  V30 1212 C 111.787 1.85405 -1.41941 0
M  V30 1213 C 112.768 1.67751 -0.281728 0
M  V30 1214 O 113.953 1.8795 -0.488717 0
M  V30 1215 C 111.083 3.23243 -1.2701 0
M  V30 1216 C 110.037 3.55549 -2.38262 0
M  V30 1217 C 109.363 4.9241 -2.08415 0
M  V30 1218 C 110.663 3.577 -3.80589 0
M  V30 1219 H 112.357 1.83899 -2.36266 0
M  V30 1220 H 109.903 0.883349 -1.13723 0
M  V30 1221 H 111.856 4.01775 -1.27103 0
M  V30 1222 H 110.58 3.25296 -0.291564 0
M  V30 1223 H 109.239 2.79351 -2.37399 0
M  V30 1224 H 108.887 4.91052 -1.0898 0
M  V30 1225 H 108.587 5.14992 -2.82943 0
M  V30 1226 H 110.111 5.73289 -2.10171 0
M  V30 1227 H 111.525 4.26293 -3.83337 0
M  V30 1228 H 109.922 3.91804 -4.54543 0
M  V30 1229 H 110.992 2.57328 -4.10987 0
M  V30 1230 N 112.336 1.25143 0.95797 0
M  V30 1231 C 113.747 1.08851 1.51685 0
M  V30 1232 C 114.098 -0.33687 1.93286 0
M  V30 1233 O 113.223 -1.22644 1.7829 0
M  V30 1234 C 113.818 1.96978 2.75654 0
M  V30 1235 C 112.377 1.84881 3.27866 0
M  V30 1236 C 111.524 1.91329 2.0072 0
M  V30 1237 H 114.475 1.38478 0.77522 0
M  V30 1238 H 114.496 1.5078 3.4935 0
M  V30 1239 H 114.008 3.00712 2.45345 0
M  V30 1240 H 112.109 0.840182 3.63004 0
M  V30 1241 H 112.222 2.6951 3.96107 0
M  V30 1242 H 110.586 1.35174 2.15871 0
M  V30 1243 H 111.369 2.96661 1.72764 0
M  V30 1244 N 113.814 -1.1601 1.06675 0
M  V30 1245 C 114.777 -2.18724 0.685001 0
M  V30 1246 C 115.777 -1.58496 -0.271246 0
M  V30 1247 O 116.967 -1.74119 -0.0531156 0
M  V30 1248 C 114.099 -3.40899 0.00853648 0
M  V30 1249 H 115.292 -2.54011 1.59431 0
M  V30 1250 H 112.845 -1.30352 0.862441 0
M  V30 1251 H 113.58 -3.11173 -0.913337 0
M  V30 1252 H 113.365 -3.8587 0.696204 0
M  V30 1253 H 114.855 -4.16886 -0.24414 0
M  V30 1254 N 115.292 -0.849877 -1.32721 0
M  V30 1255 C 116.532 -0.457146 -1.99222 0
M  V30 1256 C 116.896 0.968038 -1.6581 0
M  V30 1257 O 118.097 1.46507 -2.25364 0
M  V30 1258 C 116.368 -0.683966 -3.50794 0
M  V30 1259 S 117.927 -0.388095 -4.3708 0
M  V30 1260 H 114.745 -0.171464 -0.690015 0
M  V30 1261 H 117.347 -1.10155 -1.61512 0
M  V30 1262 H 116.051 -1.72038 -3.726 0
M  V30 1263 H 115.582 -0.0258086 -3.93392 0
M  V30 1264 H 117.597 0.787791 -4.89906 0
M  V30 1265 N 116.77 1.45427 -0.607355 0
M  V30 1266 C 117.7 2.3329 0.0989352 0
M  V30 1267 C 118.681 1.46816 0.859007 0
M  V30 1268 O 119.866 1.75588 0.829604 0
M  V30 1269 C 116.996 3.29518 1.09705 0
M  V30 1270 C 115.95 4.25626 0.450206 0
M  V30 1271 C 115.276 5.11542 1.55655 0
M  V30 1272 C 116.576 5.18505 -0.628455 0
M  V30 1273 H 118.27 2.92595 -0.634716 0
M  V30 1274 H 115.816 1.40696 -0.306681 0
M  V30 1275 H 117.769 3.89855 1.59971 0
M  V30 1276 H 116.493 2.68372 1.86129 0
M  V30 1277 H 115.152 3.66586 -0.0315886 0
M  V30 1278 H 114.8 4.46765 2.31107 0
M  V30 1279 H 114.5 5.76647 1.12925 0
M  V30 1280 H 116.024 5.74748 2.06148 0
M  V30 1281 H 117.438 5.72916 -0.209877 0
M  V30 1282 H 115.835 5.92085 -0.977489 0
M  V30 1283 H 116.905 4.60948 -1.50514 0
M  V30 1284 N 118.248 0.346503 1.53744 0
M  V30 1285 C 119.178 -0.501193 2.28058 0
M  V30 1286 C 120.159 -1.10014 1.29734 0
M  V30 1287 O 121.344 -1.12097 1.58581 0
M  V30 1288 C 118.474 -1.65078 3.05559 0
M  V30 1289 C 117.428 -1.18003 4.11411 0
M  V30 1290 C 116.754 -2.41837 4.76884 0
M  V30 1291 C 118.054 -0.278394 5.21558 0
M  V30 1292 H 119.748 0.11875 2.99164 0
M  V30 1293 H 117.294 0.0585531 1.43881 0
M  V30 1294 H 119.247 -2.25028 3.56287 0
M  V30 1295 H 117.971 -2.29767 2.32109 0
M  V30 1296 H 116.63 -0.603331 3.61601 0
M  V30 1297 H 116.278 -3.0494 4.00026 0
M  V30 1298 H 115.978 -2.1102 5.48402 0
M  V30 1299 H 117.502 -3.02508 5.30397 0
M  V30 1300 H 118.916 -0.784823 5.67903 0
M  V30 1301 H 117.313 -0.0619707 6.00068 0
M  V30 1302 H 118.383 0.684677 4.80042 0
M  V30 1303 N 119.726 -1.57421 0.075193 0
M  V30 1304 C 121.142 -1.57099 -0.281444 0
M  V30 1305 C 121.342 -1.08486 -1.69803 0
M  V30 1306 O 120.398 -0.752279 -2.41033 0
M  V30 1307 C 121.711 -3.00571 -0.0880041 0
M  V30 1308 C 123.259 -3.12605 -0.157281 0
M  V30 1309 C 123.734 -4.57999 0.0079207 0
M  V30 1310 N 125.225 -4.63176 -0.0475725 0
M  V30 1311 C 125.96 -5.73373 0.0557876 0
M  V30 1312 N 125.456 -6.92473 0.21286 0
M  V30 1313 N 127.249 -5.621 -0.00152098 0
M  V30 1314 H 119.4 -1.87335 1.00098 0
M  V30 1315 H 121.663 -0.86377 0.390646 0
M  V30 1316 H 121.369 -3.40262 0.889629 0
M  V30 1317 H 121.243 -3.67754 -0.838875 0
M  V30 1318 H 123.63 -2.72798 -1.1254 0
M  V30 1319 H 123.711 -2.48053 0.62475 0
M  V30 1320 H 123.355 -4.98496 0.972824 0
M  V30 1321 H 123.285 -5.20586 -0.793556 0
M  V30 1322 H 125.776 -3.7753 -0.167244 0
M  V30 1323 H 126.089 -7.72279 0.283781 0
M  V30 1324 H 124.434 -6.94556 0.248267 0
M  V30 1325 H 127.625 -4.67938 -0.122958 0
M  V30 1326 H 127.798 -6.47948 0.0824844 0
M  V30 1327 N 121.204 0.198386 -1.56346 0
M  V30 1328 C 122.481 0.944982 -1.71258 0
M  V30 1329 C 122.861 2.0151 -0.629048 0
M  V30 1330 O 122.209 2.25639 0.360473 0
M  V30 1331 C 122.419 1.5344 -3.1346 0
M  V30 1332 C 123.767 2.01778 -3.73591 0
M  V30 1333 O 124.791 1.63288 -3.16568 0
M  V30 1334 O 123.65 2.72594 -4.73661 0
M  V30 1335 H 120.744 0.442939 -0.69838 0
M  V30 1336 H 123.29 0.188342 -1.68652 0
M  V30 1337 H 122.062 0.762869 -3.83792 0
M  V30 1338 H 121.685 2.35596 -3.20282 0
M  V30 1339 N 122.682 1.50554 0.465978 0
M  V30 1340 C 123.928 1.62038 1.21949 0
M  V30 1341 C 124.261 0.322116 1.9151 0
M  V30 1342 O 123.536 -0.676723 1.82348 0
M  V30 1343 C 123.819 2.80421 2.25912 0
M  V30 1344 C 123.672 4.20144 1.60622 0
M  V30 1345 C 124.991 2.94354 3.27176 0
M  V30 1346 H 122.11 0.589752 0.441998 0
M  V30 1347 H 124.752 1.82956 0.51257 0
M  V30 1348 H 122.902 2.62717 2.86203 0
M  V30 1349 H 124.574 4.49449 1.03889 0
M  V30 1350 H 122.817 4.24165 0.909211 0
M  V30 1351 H 123.488 4.98914 2.36196 0
M  V30 1352 H 125.964 3.10578 2.76913 0
M  V30 1353 H 124.84 3.788 3.97242 0
M  V30 1354 H 125.101 2.05186 3.916 0
M  V30 1355 N 124.16 -0.719506 1.40217 0
M  V30 1356 C 125.123 -1.8153 1.39927 0
M  V30 1357 C 126.123 -1.58095 0.293723 0
M  V30 1358 O 127.313 -1.65209 0.552429 0
M  V30 1359 C 124.445 -3.19561 1.18716 0
M  V30 1360 H 125.638 -1.83186 2.37451 0
M  V30 1361 H 123.191 -0.924746 1.26008 0
M  V30 1362 H 123.926 -3.23557 0.219366 0
M  V30 1363 H 123.711 -3.3797 1.98793 0
M  V30 1364 H 125.201 -3.99598 1.21291 0
M  V30 1365 N 125.638 -1.25649 -0.95132 0
M  V30 1366 C 126.57 -1.02112 -2.05197 0
M  V30 1367 C 127.583 0.0150571 -1.62793 0
M  V30 1368 O 128.772 -0.223874 -1.77091 0
M  V30 1369 C 125.872 -0.522361 -3.3485 0
M  V30 1370 C 125.045 -1.62546 -4.06076 0
M  V30 1371 C 124.104 -1.12649 -5.14001 0
M  V30 1372 O 123.13 -1.82156 -5.39266 0
M  V30 1373 N 124.332 0.03047 -5.80492 0
M  V30 1374 H 127.097 -1.96885 -2.25957 0
M  V30 1375 H 124.658 -1.16899 -1.1201 0
M  V30 1376 H 126.65 -0.172961 -4.0433 0
M  V30 1377 H 125.22 0.33151 -3.10837 0
M  V30 1378 H 124.44 -2.14628 -3.30649 0
M  V30 1379 H 125.728 -2.36644 -4.50419 0
M  V30 1380 H 125.126 0.611169 -5.62389 0
M  V30 1381 H 123.683 0.320875 -6.5101 0
M  V30 1382 N 127.117 1.15442 -1.07289 0
M  V30 1383 C 128.027 2.23786 -0.704057 0
M  V30 1384 C 129.043 1.7166 0.284413 0
M  V30 1385 O 130.219 2.00972 0.131205 0
M  V30 1386 C 127.284 3.46535 -0.106792 0
M  V30 1387 C 126.345 4.13654 -1.14842 0
M  V30 1388 C 125.578 5.30544 -0.57956 0
M  V30 1389 O 125.801 5.67187 0.604585 0
M  V30 1390 O 124.735 5.87154 -1.32414 0
M  V30 1391 H 128.561 2.57664 -1.60757 0
M  V30 1392 H 126.146 1.23152 -0.845803 0
M  V30 1393 H 128.028 4.20804 0.224048 0
M  V30 1394 H 126.703 3.14407 0.770049 0
M  V30 1395 H 125.61 3.4131 -1.5316 0
M  V30 1396 H 126.943 4.49861 -1.99714 0
M  V30 1397 N 128.595 0.856903 1.32268 0
M  V30 1398 C 129.558 0.308171 2.27119 0
M  V30 1399 C 130.558 -0.533421 1.51695 0
M  V30 1400 O 131.748 -0.344607 1.70757 0
M  V30 1401 C 128.88 -0.563757 3.36206 0
M  V30 1402 H 130.073 1.14535 2.77167 0
M  V30 1403 H 127.626 0.631421 1.42978 0
M  V30 1404 H 128.361 -1.42266 2.91429 0
M  V30 1405 H 128.146 0.0386749 3.92081 0
M  V30 1406 H 129.636 -0.940386 4.06874 0
M  V30 1407 N 130.073 -1.45103 0.615059 0
M  V30 1408 C 131.003 -2.33339 -0.0865619 0
M  V30 1409 C 131.984 -1.4727 -0.851209 0
M  V30 1410 O 133.169 -1.76026 -0.820281 0
M  V30 1411 C 130.299 -3.30095 -1.07956 0
M  V30 1412 C 129.253 -4.25858 -0.427628 0
M  V30 1413 C 128.579 -5.12361 -1.5294 0
M  V30 1414 C 129.879 -5.18165 0.655944 0
M  V30 1415 H 131.573 -2.92254 0.650224 0
M  V30 1416 H 129.119 -1.40532 0.314138 0
M  V30 1417 H 131.072 -3.90698 -1.57901 0
M  V30 1418 H 129.796 -2.69355 -1.84703 0
M  V30 1419 H 128.455 -3.66564 0.0510292 0
M  V30 1420 H 128.103 -4.47984 -2.28734 0
M  V30 1421 H 127.803 -5.77238 -1.09865 0
M  V30 1422 H 129.327 -5.75833 -2.03098 0
M  V30 1423 H 130.741 -5.72796 0.240257 0
M  V30 1424 H 129.138 -5.91559 1.00888 0
M  V30 1425 H 130.208 -4.60144 1.52957 0
M  V30 1426 N 131.551 -0.354651 -1.53558 0
M  V30 1427 C 132.799 0.237972 -2.00694 0
M  V30 1428 C 133.12 1.50173 -1.24391 0
M  V30 1429 O 132.39 1.92673 -0.354135 0
M  V30 1430 H 130.97 0.0909256 -0.741446 0
M  V30 1431 H 133.632 -0.478368 -1.88938 0
M  V30 1432 H 132.728 0.47264 -3.085 0
M  V30 1433 N 133.029 1.57378 -0.0835403 0
M  V30 1434 C 134.275 1.94217 0.583733 0
M  V30 1435 C 134.608 0.964653 1.68547 0
M  V30 1436 O 133.883 -0.00422258 1.945 0
M  V30 1437 C 134.166 3.41253 1.14972 0
M  V30 1438 C 134.019 4.49768 0.0538277 0
M  V30 1439 C 135.338 3.89352 2.05166 0
M  V30 1440 H 132.457 0.706233 0.210724 0
M  V30 1441 H 135.099 1.89392 -0.1519 0
M  V30 1442 H 133.249 3.45496 1.77665 0
M  V30 1443 H 134.921 4.57641 -0.579851 0
M  V30 1444 H 133.164 4.29432 -0.614068 0
M  V30 1445 H 133.835 5.49817 0.490452 0
M  V30 1446 H 136.311 3.87189 1.52393 0
M  V30 1447 H 135.187 4.92822 2.41698 0
M  V30 1448 H 135.448 3.27973 2.96456 0
M  V30 1449 N 134.507 -0.190092 1.56449 0
M  V30 1450 C 135.47 -1.21925 1.9408 0
M  V30 1451 C 136.47 -1.38176 0.822431 0
M  V30 1452 O 137.66 -1.35903 1.08977 0
M  V30 1453 C 134.792 -2.58773 2.21922 0
M  V30 1454 H 135.985 -0.897464 2.86157 0
M  V30 1455 H 133.538 -0.43181 1.50217 0
M  V30 1456 H 134.273 -2.95998 1.32499 0
M  V30 1457 H 134.058 -2.48348 3.03424 0
M  V30 1458 H 135.548 -3.32978 2.52022 0
M  V30 1459 N 135.985 -1.50799 -0.457987 0
M  V30 1460 C 137.231 -1.62683 -1.21088 0
M  V30 1461 C 137.564 -0.332268 -1.91336 0
M  V30 1462 O 136.839 0.667043 -1.82704 0
M  V30 1463 C 137.122 -2.81615 -2.24422 0
M  V30 1464 C 136.975 -4.20989 -1.58392 0
M  V30 1465 C 138.294 -2.96085 -3.2561 0
M  V30 1466 H 135.413 -0.592087 -0.438864 0
M  V30 1467 H 138.055 -1.83225 -0.50286 0
M  V30 1468 H 136.205 -2.64231 -2.84806 0
M  V30 1469 H 137.877 -4.49994 -1.01504 0
M  V30 1470 H 136.12 -4.24641 -0.886704 0
M  V30 1471 H 136.791 -5.0016 -2.33547 0
M  V30 1472 H 139.267 -3.12042 -2.75262 0
M  V30 1473 H 138.143 -3.80902 -3.95228 0
M  V30 1474 H 138.404 -2.0726 -3.90507 0
M  V30 1475 N 137.463 0.71206 -1.40597 0
M  V30 1476 C 138.712 1.46754 -1.38369 0
M  V30 1477 C 139.025 1.95598 0.0097839 0
M  V30 1478 O 140.231 2.71059 0.154677 0
M  V30 1479 C 138.687 2.65289 -2.43207 0
M  V30 1480 C 138.295 2.23301 -3.88382 0
M  V30 1481 C 140.039 3.43008 -2.50091 0
M  V30 1482 C 137.946 3.38696 -4.84808 0
M  V30 1483 H 136.876 0.55118 -0.514506 0
M  V30 1484 H 139.527 0.774616 -1.66349 0
M  V30 1485 H 137.909 3.36769 -2.08332 0
M  V30 1486 H 139.083 1.59218 -4.32419 0
M  V30 1487 H 137.398 1.58618 -3.85006 0
M  V30 1488 H 139.995 4.28881 -3.1932 0
M  V30 1489 H 140.338 3.87065 -1.53253 0
M  V30 1490 H 140.871 2.78574 -2.83974 0
M  V30 1491 H 137.61 2.99668 -5.82992 0
M  V30 1492 H 137.13 4.01683 -4.45433 0
M  V30 1493 H 138.809 4.04712 -5.04794 0
M  V30 1494 N 138.941 1.26152 0.944643 0
M  V30 1495 C 140.189 1.11271 1.6871 0
M  V30 1496 C 140.51 -0.345166 1.91921 0
M  V30 1497 O 139.78 -1.24387 1.51343 0
M  V30 1498 H 138.36 0.408783 0.625224 0
M  V30 1499 H 141.022 1.58427 1.1352 0
M  V30 1500 H 140.118 1.62879 2.66227 0
M  V30 1501 N 140.419 -1.14872 1.07899 0
M  V30 1502 C 141.668 -1.85135 0.800499 0
M  V30 1503 C 141.981 -1.83547 -0.676014 0
M  V30 1504 O 143.187 -2.49548 -1.06948 0
M  V30 1505 C 141.643 -3.3231 1.38197 0
M  V30 1506 C 141.251 -3.42329 2.8899 0
M  V30 1507 C 142.995 -4.0772 1.18174 0
M  V30 1508 C 140.902 -4.83684 3.403 0
M  V30 1509 H 139.832 -0.693563 0.29578 0
M  V30 1510 H 142.483 -1.29532 1.29976 0
M  V30 1511 H 140.865 -3.87618 0.810431 0
M  V30 1512 H 142.039 -2.97097 3.52236 0
M  V30 1513 H 140.354 -2.80369 3.07867 0
M  V30 1514 H 142.951 -5.12049 1.5398 0
M  V30 1515 H 143.294 -4.16124 0.12117 0
M  V30 1516 H 143.827 -3.58696 1.71994 0
M  V30 1517 H 140.566 -4.80465 4.45907 0
M  V30 1518 H 140.086 -5.29474 2.81811 0
M  V30 1519 H 141.765 -5.52558 3.36584 0
M  V30 1520 N 141.898 -0.863906 -1.31812 0
M  V30 1521 C 143.175 -0.39275 -1.91616 0
M  V30 1522 C 143.555 1.12461 -1.7865 0
M  V30 1523 O 142.903 1.95045 -1.19037 0
M  V30 1524 C 143.113 -0.867385 -3.38049 0
M  V30 1525 C 144.461 -0.889966 -4.15168 0
M  V30 1526 O 145.485 -0.812635 -3.46806 0
M  V30 1527 O 144.344 -1.00079 -5.37258 0
M  V30 1528 H 141.438 -0.116358 -0.818773 0
M  V30 1529 H 143.984 -0.951418 -1.40521 0
M  V30 1530 H 142.756 -1.91081 -3.41473 0
M  V30 1531 H 142.379 -0.286687 -3.96565 0
M  V30 1532 N 143.376 1.44774 -0.622745 0
M  V30 1533 C 144.286 2.34433 0.0886031 0
M  V30 1534 C 145.302 1.52131 0.844529 0
M  V30 1535 O 146.478 1.84886 0.798691 0
M  V30 1536 C 143.543 3.29986 1.0635 0
M  V30 1537 C 142.604 4.28195 0.307873 0
M  V30 1538 C 141.837 5.19183 1.23633 0
M  V30 1539 O 142.06 5.13918 2.47476 0
M  V30 1540 O 140.994 5.97515 0.725189 0
M  V30 1541 H 144.82 2.96693 -0.648599 0
M  V30 1542 H 142.405 1.44408 -0.382957 0
M  V30 1543 H 144.287 3.88825 1.6246 0
M  V30 1544 H 142.962 2.70269 1.78146 0
M  V30 1545 H 141.869 3.72927 -0.296064 0
M  V30 1546 H 143.202 4.90808 -0.3699 0
M  V30 1547 N 144.854 0.36279 1.53368 0
M  V30 1548 C 146.102 -0.227326 2.00817 0
M  V30 1549 C 146.423 -1.49511 1.25186 0
M  V30 1550 O 145.693 -1.92482 0.364348 0
M  V30 1551 H 144.273 -0.0869923 0.741917 0
M  V30 1552 H 146.935 0.488381 1.88682 0
M  V30 1553 H 146.031 -0.456273 3.08747 0
M  V30 1554 N 146.332 -1.57332 0.0918853 0
M  V30 1555 C 147.264 -2.10869 -0.898168 0
M  V30 1556 C 148.277 -1.04521 -1.24817 0
M  V30 1557 O 149.466 -1.31977 -1.20184 0
M  V30 1558 C 146.566 -2.57083 -2.2082 0
M  V30 1559 C 145.739 -3.87229 -2.03402 0
M  V30 1560 C 144.798 -4.19324 -3.17889 0
M  V30 1561 O 143.824 -4.88598 -2.91994 0
M  V30 1562 N 145.026 -3.74471 -4.43567 0
M  V30 1563 H 147.791 -2.96439 -0.440943 0
M  V30 1564 H 145.352 -1.61631 -0.0933064 0
M  V30 1565 H 147.344 -2.75602 -2.96354 0
M  V30 1566 H 145.914 -1.76541 -2.57977 0
M  V30 1567 H 145.134 -3.7789 -1.12218 0
M  V30 1568 H 146.422 -4.72379 -1.89038 0
M  V30 1569 H 145.82 -3.18546 -4.67488 0
M  V30 1570 H 144.377 -3.98151 -5.16061 0
M  V30 1571 N 147.81 0.181792 -1.56548 0
M  V30 1572 C 149.057 0.900097 -1.81396 0
M  V30 1573 C 149.385 1.82695 -0.667281 0
M  V30 1574 O 148.64 1.92614 0.346146 0
M  V30 1575 C 148.939 1.73728 -3.12335 0
M  V30 1576 C 148.605 0.960255 -4.40556 0
M  V30 1577 C 147.267 0.745766 -4.75386 0
M  V30 1578 C 149.619 0.414477 -5.19549 0
M  V30 1579 C 146.947 -0.0257694 -5.86694 0
M  V30 1580 C 149.299 -0.343916 -6.31664 0
M  V30 1581 C 147.963 -0.569301 -6.65068 0
M  V30 1582 H 147.233 0.329369 -0.663775 0
M  V30 1583 H 149.88 0.165647 -1.90782 0
M  V30 1584 H 148.185 2.54081 -2.98245 0
M  V30 1585 H 149.882 2.29591 -3.28769 0
M  V30 1586 H 146.472 1.13746 -4.13231 0
M  V30 1587 H 150.656 0.567554 -4.93044 0
M  V30 1588 H 145.912 -0.210233 -6.11038 0
M  V30 1589 H 150.086 -0.774133 -6.92084 0
M  V30 1590 H 147.713 -1.16903 -7.51158 0
M  V30 1591 N 149.288 1.51039 0.449983 0
M  V30 1592 C 150.535 1.63081 1.20045 0
M  V30 1593 C 150.863 0.341024 1.91487 0
M  V30 1594 O 150.118 -0.674276 1.83717 0
M  V30 1595 C 150.417 2.77556 2.25161 0
M  V30 1596 C 150.083 4.17289 1.70823 0
M  V30 1597 C 148.745 4.55305 1.55725 0
M  V30 1598 C 151.097 5.04536 1.3074 0
M  V30 1599 C 148.425 5.78287 0.989999 0
M  V30 1600 C 150.777 6.28085 0.754482 0
M  V30 1601 C 149.441 6.64885 0.590308 0
M  V30 1602 H 148.711 0.596755 0.439277 0
M  V30 1603 H 151.358 1.85037 0.49333 0
M  V30 1604 H 149.663 2.49771 3.01863 0
M  V30 1605 H 151.36 2.84073 2.83026 0
M  V30 1606 H 147.95 3.8731 1.83546 0
M  V30 1607 H 152.134 4.75782 1.41229 0
M  V30 1608 H 147.39 6.05456 0.850451 0
M  V30 1609 H 151.564 6.95038 0.435324 0
M  V30 1610 H 149.191 7.60055 0.14862 0
M  V30 1611 N 150.766 -0.704594 1.40972 0
M  V30 1612 C 152.177 -1.28418 1.3552 0
M  V30 1613 C 152.528 -1.96171 0.0339434 0
M  V30 1614 O 151.653 -1.98231 -0.867944 0
M  V30 1615 C 152.248 -2.33528 2.45459 0
M  V30 1616 C 150.807 -2.87085 2.43433 0
M  V30 1617 C 149.954 -1.61007 2.2577 0
M  V30 1618 H 152.905 -0.499963 1.50619 0
M  V30 1619 H 152.926 -3.14619 2.13998 0
M  V30 1620 H 152.438 -1.84187 3.41609 0
M  V30 1621 H 150.539 -3.40626 1.51013 0
M  V30 1622 H 150.652 -3.3813 3.39419 0
M  V30 1623 H 149.016 -1.86482 1.73483 0
M  V30 1624 H 149.799 -1.13675 3.23933 0
M  V30 1625 N 152.244 -1.26651 -0.937939 0
M  V30 1626 C 153.521 -1.0313 -1.66204 0
M  V30 1627 C 153.901 0.437256 -2.06522 0
M  V30 1628 O 153.249 1.41831 -1.79154 0
M  V30 1629 C 153.459 -1.98314 -2.87181 0
M  V30 1630 C 154.807 -2.27107 -3.58758 0
M  V30 1631 O 155.831 -1.96205 -2.97291 0
M  V30 1632 O 154.69 -2.79736 -4.69479 0
M  V30 1633 H 151.784 -0.392384 -0.727986 0
M  V30 1634 H 154.33 -1.37874 -0.989382 0
M  V30 1635 H 153.102 -2.97399 -2.54302 0
M  V30 1636 H 152.725 -1.64068 -3.6217 0
M  V30 1637 N 153.722 1.14298 -1.08507 0
M  V30 1638 C 154.971 1.84708 -0.810305 0
M  V30 1639 C 155.284 1.83903 0.666271 0
M  V30 1640 O 156.49 2.50112 1.05624 0
M  V30 1641 C 154.946 3.31572 -1.39957 0
M  V30 1642 C 154.554 3.40791 -2.90801 0
M  V30 1643 C 156.298 4.07087 -1.20334 0
M  V30 1644 C 154.205 4.81872 -3.4286 0
M  V30 1645 H 153.135 0.691985 -0.299454 0
M  V30 1646 H 155.786 1.28841 -1.30661 0
M  V30 1647 H 154.168 3.87183 -0.830976 0
M  V30 1648 H 155.342 2.95225 -3.53806 0
M  V30 1649 H 153.657 2.78732 -3.0935 0
M  V30 1650 H 156.254 5.11225 -1.56693 0
M  V30 1651 H 156.597 4.16054 -0.143237 0
M  V30 1652 H 157.13 3.57779 -1.73893 0
M  V30 1653 H 153.869 4.78094 -4.48449 0
M  V30 1654 H 153.389 5.27972 -2.84615 0
M  V30 1655 H 155.068 5.50765 -3.39509 0
M  V30 1656 N 155.201 0.870884 1.31352 0
M  V30 1657 C 156.447 0.482987 1.96965 0
M  V30 1658 C 156.78 -0.962462 1.68672 0
M  V30 1659 O 156.055 -1.6779 0.98371 0
M  V30 1660 C 156.338 0.741752 3.52378 0
M  V30 1661 C 156.191 2.2368 3.9024 0
M  V30 1662 C 157.51 0.208838 4.39604 0
M  V30 1663 H 154.629 0.176955 0.715441 0
M  V30 1664 H 157.271 1.09229 1.55464 0
M  V30 1665 H 155.421 0.223149 3.87859 0
M  V30 1666 H 157.093 2.82273 3.64856 0
M  V30 1667 H 155.336 2.70901 3.38814 0
M  V30 1668 H 156.007 2.3685 4.98604 0
M  V30 1669 H 158.483 0.652529 4.10952 0
M  V30 1670 H 157.359 0.419336 5.47296 0
M  V30 1671 H 157.62 -0.889275 4.33064 0
M  V30 1672 N 156.679 -1.44442 0.630414 0
M  V30 1673 C 157.589 -2.34476 -0.0761693 0
M  V30 1674 C 158.605 -1.52576 -0.836449 0
M  V30 1675 O 159.781 -1.85307 -0.788874 0
M  V30 1676 C 156.846 -3.30545 -1.04599 0
M  V30 1677 C 155.907 -4.28352 -0.28516 0
M  V30 1678 C 155.14 -5.19831 -1.20878 0
M  V30 1679 O 155.363 -5.15223 -2.44747 0
M  V30 1680 O 154.297 -5.97892 -0.693491 0
M  V30 1681 H 158.123 -2.96345 0.664324 0
M  V30 1682 H 155.708 -1.44203 0.39061 0
M  V30 1683 H 157.59 -3.89681 -1.60396 0
M  V30 1684 H 156.265 -2.7121 -1.76711 0
M  V30 1685 H 155.172 -3.72764 0.315837 0
M  V30 1686 H 156.505 -4.90605 0.395924 0
M  V30 1687 N 158.157 -0.370918 -1.53173 0
M  V30 1688 C 159.404 0.217102 -2.01333 0
M  V30 1689 C 159.732 1.48338 -1.25802 0
M  V30 1690 O 158.987 1.92698 -0.34146 0
M  V30 1691 C 159.286 0.549696 -3.53147 0
M  V30 1692 C 158.952 -0.622872 -4.46577 0
M  V30 1693 C 157.614 -0.944595 -4.71838 0
M  V30 1694 C 159.966 -1.40819 -5.01816 0
M  V30 1695 C 157.294 -2.05351 -5.49589 0
M  V30 1696 C 159.646 -2.50757 -5.80778 0
M  V30 1697 C 158.31 -2.83458 -6.04324 0
M  V30 1698 H 157.58 0.0794431 -0.736729 0
M  V30 1699 H 160.227 -0.504481 -1.84736 0
M  V30 1700 H 158.532 1.35237 -3.6772 0
M  V30 1701 H 160.229 1.017 -3.87889 0
M  V30 1702 H 156.819 -0.36209 -4.27068 0
M  V30 1703 H 161.003 -1.17289 -4.82242 0
M  V30 1704 H 156.259 -2.3108 -5.6605 0
M  V30 1705 H 160.433 -3.12022 -6.22588 0
M  V30 1706 H 158.06 -3.69508 -6.64355 0
M  V30 1707 N 159.635 1.57281 -0.100228 0
M  V30 1708 C 160.875 1.96419 0.56558 0
M  V30 1709 C 161.239 0.981265 1.65031 0
M  V30 1710 O 162.44 1.26133 2.37369 0
M  V30 1711 C 160.711 3.39996 1.10171 0
M  V30 1712 S 162.27 4.01134 1.77867 0
M  V30 1713 H 159.088 0.68667 0.184406 0
M  V30 1714 H 161.69 1.94662 -0.180851 0
M  V30 1715 H 160.394 4.09296 0.300803 0
M  V30 1716 H 159.925 3.45361 1.88385 0
M  V30 1717 H 161.94 3.90358 3.06326 0
M  V30 1718 N 161.113 -0.173488 1.56642 0
M  V30 1719 C 162.023 -1.23482 1.99473 0
M  V30 1720 C 163.039 -1.48567 0.905752 0
M  V30 1721 O 164.215 -1.60758 1.21321 0
M  V30 1722 C 161.28 -2.55444 2.34413 0
M  V30 1723 C 160.341 -2.38241 3.57127 0
M  V30 1724 C 159.574 -3.63909 3.90392 0
M  V30 1725 O 159.797 -4.68996 3.24653 0
M  V30 1726 O 158.731 -3.58149 4.83749 0
M  V30 1727 H 162.557 -0.901279 2.90018 0
M  V30 1728 H 160.142 -0.380185 1.44482 0
M  V30 1729 H 162.024 -3.33292 2.57865 0
M  V30 1730 H 160.699 -2.88382 1.4703 0
M  V30 1731 H 159.606 -1.58431 3.38896 0
M  V30 1732 H 160.939 -2.10228 4.45045 0
M  V30 1733 N 162.591 -1.51276 -0.441967 0
M  V30 1734 C 163.554 -1.7167 -1.51862 0
M  V30 1735 C 164.554 -0.586793 -1.49711 0
M  V30 1736 O 165.744 -0.854276 -1.51815 0
M  V30 1737 C 162.876 -1.76889 -2.91416 0
M  V30 1738 H 164.069 -2.67754 -1.35084 0
M  V30 1739 H 161.622 -1.41196 -0.670333 0
M  V30 1740 H 162.357 -0.826026 -3.13604 0
M  V30 1741 H 162.142 -2.59001 -2.94382 0
M  V30 1742 H 163.632 -1.94522 -3.69528 0
M  V30 1743 N 164.069 0.697108 -1.41344 0
M  V30 1744 C 165.002 1.82134 -1.37486 0
M  V30 1745 C 165.98 1.60784 -0.242351 0
M  V30 1746 O 167.164 1.83553 -0.429012 0
M  V30 1747 C 164.291 3.18788 -1.14421 0
M  V30 1748 C 163.337 3.58932 -2.3037 0
M  V30 1749 S 164.17 3.63916 -3.92843 0
M  V30 1750 C 165.326 5.03298 -3.72078 0
M  V30 1751 H 165.559 1.85129 -2.32625 0
M  V30 1752 H 163.092 0.865671 -1.2785 0
M  V30 1753 H 165.05 3.97677 -1.018 0
M  V30 1754 H 163.711 3.13404 -0.20905 0
M  V30 1755 H 162.904 4.58202 -2.09922 0
M  V30 1756 H 162.506 2.87347 -2.39391 0
M  V30 1757 H 164.798 5.90753 -3.31688 0
M  V30 1758 H 165.741 5.28788 -4.70945 0
M  V30 1759 H 166.149 4.74764 -3.05384 0
M  V30 1760 N 165.547 1.27147 0.931209 0
M  V30 1761 C 166.51 1.09615 2.01289 0
M  V30 1762 C 167.51 0.0412581 1.60747 0
M  V30 1763 O 168.7 0.285545 1.71844 0
M  V30 1764 C 165.832 0.669447 3.34262 0
M  V30 1765 H 167.025 2.05662 2.18273 0
M  V30 1766 H 164.578 1.09885 1.11153 0
M  V30 1767 H 165.313 -0.292572 3.22978 0
M  V30 1768 H 165.098 1.43127 3.65044 0
M  V30 1769 H 166.588 0.568921 4.13706 0
M  V30 1770 N 167.025 -1.13721 1.09112 0
M  V30 1771 C 167.973 -2.21103 0.722219 0
M  V30 1772 C 168.967 -1.67147 -0.275374 0
M  V30 1773 O 170.173 -1.79477 -0.137176 0
M  V30 1774 H 166.548 -0.720445 0.215553 0
M  V30 1775 H 168.519 -2.49483 1.63709 0
M  V30 1776 C 167.268 -3.47352 0.15543 0
M  V30 1777 H 166.591 -3.89206 0.914246 0
M  V30 1778 H 168.031 -4.2395 -0.0647967 0
M  V30 1779 C 166.49 -3.1814 -1.10852 0
M  V30 1780 O 167.02 -3.36604 -2.19227 0
M  V30 1781 N 165.226 -2.72045 -1.02176 0
M  V30 1782 H 164.773 -2.57221 -0.139764 0
M  V30 1783 H 164.731 -2.52875 -1.8682 0
M  V30 1784 N 168.503 -0.877838 -1.30888 0
M  V30 1785 C 169.466 -0.344265 -2.266 0
M  V30 1786 C 170.466 0.50922 -1.52524 0
M  V30 1787 O 171.656 0.317398 -1.71284 0
M  V30 1788 C 168.788 0.510198 -3.37061 0
M  V30 1789 H 169.981 -1.1893 -2.7531 0
M  V30 1790 H 167.534 -0.654088 -1.41956 0
M  V30 1791 H 168.269 1.37612 -2.93655 0
M  V30 1792 H 168.054 -0.101047 -3.9197 0
M  V30 1793 H 169.544 0.875537 -4.08319 0
M  V30 1794 N 169.982 1.44106 -0.638065 0
M  V30 1795 C 171.23 2.01579 -0.145043 0
M  V30 1796 C 171.551 1.50496 1.24 0
M  V30 1797 O 170.821 0.711374 1.82527 0
M  V30 1798 H 169.401 0.745282 -0.05063 0
M  V30 1799 H 172.063 1.76516 -0.826327 0
M  V30 1800 H 171.159 3.11877 -0.118039 0
M  V30 1801 N 171.46 0.379036 1.52974 0
M  V30 1802 C 172.407 -0.461048 2.26148 0
M  V30 1803 C 173.377 -1.06637 1.27349 0
M  V30 1804 O 174.562 -1.09633 1.56157 0
M  V30 1805 C 171.702 -1.58782 3.06402 0
M  V30 1806 C 170.815 -1.00636 4.20115 0
M  V30 1807 C 169.95 -2.10334 4.87784 0
M  V30 1808 C 168.989 -1.49724 5.93506 0
M  V30 1809 N 168.126 -2.5331 6.54812 0
M  V30 1810 H 172.966 0.169429 2.97518 0
M  V30 1811 H 170.503 0.0953806 1.4679 0
M  V30 1812 H 172.461 -2.25174 3.51215 0
M  V30 1813 H 171.091 -2.18876 2.37261 0
M  V30 1814 H 170.143 -0.232332 3.7969 0
M  V30 1815 H 171.455 -0.523343 4.96047 0
M  V30 1816 H 170.609 -2.84519 5.35849 0
M  V30 1817 H 169.348 -2.61992 4.11353 0
M  V30 1818 H 168.353 -0.740598 5.44789 0
M  V30 1819 H 169.578 -0.988732 6.71864 0
M  V30 1820 H 167.524 -3.04156 5.81227 0
M  V30 1821 H 167.441 -2.09734 7.26325 0
M  V30 1822 H 168.709 -3.27155 7.07524 0
M  V30 1823 N 172.938 -1.57226 0.108567 0
M  V30 1824 C 174.166 -1.99179 -0.559954 0
M  V30 1825 C 174.581 -0.988022 -1.60884 0
M  V30 1826 O 173.938 0.0205512 -1.82488 0
M  V30 1827 C 173.989 -3.41159 -1.19552 0
M  V30 1828 O 173.71 -4.37694 -0.188577 0
M  V30 1829 C 175.211 -3.98188 -1.94837 0
M  V30 1830 H 172.431 -0.654228 -0.149088 0
M  V30 1831 H 174.975 -2.03598 0.19183 0
M  V30 1832 H 173.13 -3.37711 -1.89815 0
M  V30 1833 H 173.544 -5.20469 -0.649014 0
M  V30 1834 H 175.018 -4.99644 -2.34648 0
M  V30 1835 H 175.495 -3.3675 -2.81951 0
M  V30 1836 H 176.101 -4.0515 -1.2936 0
M  V30 1837 N 174.416 0.165178 -1.56732 0
M  V30 1838 C 175.662 0.882112 -1.82611 0
M  V30 1839 C 175.995 1.81628 -0.687378 0
M  V30 1840 O 175.27 1.92009 0.310267 0
M  V30 1841 C 175.553 1.67245 -3.18906 0
M  V30 1842 C 175.406 0.760987 -4.43316 0
M  V30 1843 C 176.725 2.63884 -3.52212 0
M  V30 1844 H 173.844 0.319242 -0.664269 0
M  V30 1845 H 176.486 0.148052 -1.89422 0
M  V30 1846 H 174.636 2.29824 -3.1323 0
M  V30 1847 H 176.308 0.147596 -4.61064 0
M  V30 1848 H 174.551 0.0694102 -4.33744 0
M  V30 1849 H 175.222 1.34962 -5.35247 0
M  V30 1850 H 177.698 2.11429 -3.58381 0
M  V30 1851 H 176.574 3.16245 -4.48643 0
M  V30 1852 H 176.835 3.44377 -2.77231 0
M  V30 1853 N 175.894 1.51508 0.433938 0
M  V30 1854 C 177.143 1.63578 1.18005 0
M  V30 1855 C 177.456 0.359514 1.92268 0
M  V30 1856 O 178.662 0.359632 2.69108 0
M  V30 1857 C 177.118 2.88901 2.14626 0
M  V30 1858 C 176.726 4.23544 1.45995 0
M  V30 1859 C 178.47 3.10328 2.89649 0
M  V30 1860 C 176.377 5.40014 2.4112 0
M  V30 1861 H 175.307 0.609277 0.444182 0
M  V30 1862 H 177.958 1.77978 0.446773 0
M  V30 1863 H 176.34 2.68142 2.91403 0
M  V30 1864 H 177.514 4.54696 0.747532 0
M  V30 1865 H 175.829 4.08021 0.831115 0
M  V30 1866 H 178.426 3.94518 3.60915 0
M  V30 1867 H 178.769 2.23544 3.51189 0
M  V30 1868 H 179.302 3.31443 2.19978 0
M  V30 1869 H 176.041 6.29068 1.84264 0
M  V30 1870 H 175.561 5.13233 3.10406 0
M  V30 1871 H 177.24 5.72099 3.02177 0
M  V30 1872 N 177.372 -0.689602 1.41712 0
M  V30 1873 C 178.618 -1.45181 1.41599 0
M  V30 1874 C 178.951 -1.94181 0.0270081 0
M  V30 1875 O 178.226 -1.6993 -0.946265 0
M  V30 1876 C 178.509 -2.65945 2.42787 0
M  V30 1877 C 178.362 -2.22672 3.90816 0
M  V30 1878 C 179.681 -3.68149 2.41151 0
M  V30 1879 H 176.8 -0.526576 0.515642 0
M  V30 1880 H 179.442 -0.784947 1.73028 0
M  V30 1881 H 177.592 -3.2284 2.16116 0
M  V30 1882 H 179.264 -1.71058 4.28412 0
M  V30 1883 H 177.507 -1.54394 4.05395 0
M  V30 1884 H 178.178 -3.0935 4.57172 0
M  V30 1885 H 180.654 -3.2094 2.64834 0
M  V30 1886 H 179.53 -4.50248 3.13955 0
M  V30 1887 H 179.791 -4.18259 1.43221 0
M  V30 1888 N 178.85 -1.27639 -0.924453 0
M  V30 1889 C 179.813 -1.10681 -2.00705 0
M  V30 1890 C 180.813 -0.0497823 -1.60723 0
M  V30 1891 O 182.003 -0.294654 -1.7169 0
M  V30 1892 C 179.135 -0.687164 -3.33902 0
M  V30 1893 H 180.328 -2.06817 -2.17179 0
M  V30 1894 H 177.881 -1.10473 -1.10569 0
M  V30 1895 H 178.616 0.275439 -3.23128 0
M  V30 1896 H 178.401 -1.45061 -3.6428 0
M  V30 1897 H 179.891 -0.590853 -4.13399 0
M  V30 1898 N 180.328 1.1314 -1.09713 0
M  V30 1899 C 181.291 2.16831 -0.742751 0
M  V30 1900 C 182.291 1.59159 0.229129 0
M  V30 1901 O 183.481 1.74199 0.00693237 0
M  V30 1902 C 180.613 3.40756 -0.0989168 0
M  V30 1903 H 181.806 2.49695 -1.66109 0
M  V30 1904 H 179.359 1.2802 -0.896699 0
M  V30 1905 H 180.094 3.13485 0.830514 0
M  V30 1906 H 179.879 3.83888 -0.798265 0
M  V30 1907 H 181.369 4.17386 0.133524 0
M  V30 1908 N 181.806 0.884767 1.30421 0
M  V30 1909 C 182.736 0.367574 2.30589 0
M  V30 1910 C 183.717 -0.549464 1.60981 0
M  V30 1911 O 184.902 -0.46336 1.88591 0
M  V30 1912 C 182.032 -0.418944 3.44764 0
M  V30 1913 C 180.986 0.406316 4.26067 0
M  V30 1914 C 180.312 -0.506793 5.32293 0
M  V30 1915 C 181.612 1.64832 4.95608 0
M  V30 1916 H 183.306 1.20462 2.74097 0
M  V30 1917 H 180.852 0.580695 1.31772 0
M  V30 1918 H 182.805 -0.791395 4.13902 0
M  V30 1919 H 181.529 -1.28964 3.0006 0
M  V30 1920 H 180.188 0.760903 3.58617 0
M  V30 1921 H 179.836 -1.37519 4.83836 0
M  V30 1922 H 179.536 0.0415828 5.87585 0
M  V30 1923 H 181.06 -0.875764 6.04287 0
M  V30 1924 H 182.474 1.34646 5.57264 0
M  V30 1925 H 180.871 2.13688 5.60765 0
M  V30 1926 H 181.941 2.39284 4.21748 0
M  V30 1927 N 183.284 -1.43765 0.645699 0
M  V30 1928 C 184.561 -1.9541 0.0862963 0
M  V30 1929 C 184.941 -1.58725 -1.39175 0
M  V30 1930 O 184.289 -0.868581 -2.11348 0
M  V30 1931 C 184.499 -3.47488 0.324565 0
M  V30 1932 C 185.847 -4.24001 0.225497 0
M  V30 1933 O 186.871 -3.55274 0.256715 0
M  V30 1934 O 185.73 -5.46313 0.142801 0
M  V30 1935 H 182.824 -0.826882 -0.0139483 0
M  V30 1936 H 185.37 -1.53743 0.718415 0
M  V30 1937 H 184.142 -3.67289 1.3496 0
M  V30 1938 H 183.765 -3.96135 -0.340987 0
M  V30 1939 N 184.763 -0.387143 -1.52771 0
M  V30 1940 C 186.011 0.195349 -2.01154 0
M  V30 1941 C 186.332 1.475 -1.27549 0
M  V30 1942 O 185.602 1.91878 -0.394924 0
M  V30 1943 H 184.182 0.075178 -0.743207 0
M  V30 1944 H 186.844 -0.518337 -1.87881 0
M  V30 1945 H 185.94 0.407096 -3.09434 0
M  V30 1946 N 186.241 1.57166 -0.116904 0
M  V30 1947 C 187.469 1.99473 0.549383 0
M  V30 1948 C 187.884 0.996541 1.60357 0
M  V30 1949 O 187.241 -0.0108731 1.82497 0
M  V30 1950 C 187.292 3.41788 1.17741 0
M  V30 1951 O 187.013 4.37788 0.165362 0
M  V30 1952 C 188.514 3.99216 1.92722 0
M  V30 1953 H 185.734 0.655009 0.145616 0
M  V30 1954 H 188.278 2.03494 -0.202625 0
M  V30 1955 H 186.433 3.38713 1.88021 0
M  V30 1956 H 186.847 5.20806 0.621403 0
M  V30 1957 H 188.321 5.00882 2.31995 0
M  V30 1958 H 188.798 3.3824 2.80161 0
M  V30 1959 H 189.404 4.0583 1.27209 0
M  V30 1960 N 187.719 -0.156864 1.56817 0
M  V30 1961 C 188.966 -0.871125 1.82805 0
M  V30 1962 C 189.294 -1.81611 0.696262 0
M  V30 1963 O 188.549 -1.93141 -0.315459 0
M  V30 1964 C 188.848 -1.68737 3.1506 0
M  V30 1965 C 188.514 -0.890045 4.42028 0
M  V30 1966 C 187.176 -0.670042 4.76512 0
M  V30 1967 C 189.528 -0.331769 5.20143 0
M  V30 1968 C 186.856 0.119104 5.86579 0
M  V30 1969 C 189.208 0.444365 6.31037 0
M  V30 1970 C 187.872 0.675035 6.64078 0
M  V30 1971 H 187.142 -0.318767 0.668931 0
M  V30 1972 H 189.789 -0.135274 1.91022 0
M  V30 1973 H 188.094 -2.49304 3.0225 0
M  V30 1974 H 189.791 -2.24331 3.3238 0
M  V30 1975 H 186.381 -1.07157 4.14988 0
M  V30 1976 H 190.565 -0.489043 4.93885 0
M  V30 1977 H 185.821 0.307417 6.10627 0
M  V30 1978 H 189.995 0.884139 6.90765 0
M  V30 1979 H 187.622 1.28839 7.49203 0
M  V30 1980 N 189.197 -1.51736 -0.425897 0
M  V30 1981 C 190.129 -1.70083 -1.53638 0
M  V30 1982 C 191.142 -0.581349 -1.52066 0
M  V30 1983 O 192.331 -0.856017 -1.56635 0
M  V30 1984 C 189.431 -1.71078 -2.9255 0
M  V30 1985 C 188.604 -2.99795 -3.185 0
M  V30 1986 C 187.663 -2.92825 -4.37196 0
M  V30 1987 O 186.689 -3.66756 -4.35291 0
M  V30 1988 N 187.891 -2.0946 -5.41393 0
M  V30 1989 H 190.656 -2.65882 -1.383 0
M  V30 1990 H 188.217 -1.49765 -0.614988 0
M  V30 1991 H 190.209 -1.63969 -3.69995 0
M  V30 1992 H 188.779 -0.828242 -3.01428 0
M  V30 1993 H 187.999 -3.20684 -2.2925 0
M  V30 1994 H 189.287 -3.84977 -3.32671 0
M  V30 1995 H 188.685 -1.48792 -5.45781 0
M  V30 1996 H 187.242 -2.08221 -6.17647 0
M  V30 1997 N 190.675 0.682077 -1.42076 0
M  V30 1998 C 192.091 0.994324 -1.24841 0
M  V30 1999 C 192.291 2.0096 -0.147389 0
M  V30 2000 O 191.347 2.47822 0.483782 0
M  V30 2001 C 192.66 1.50607 -2.60265 0
M  V30 2002 C 194.208 1.62421 -2.6756 0
M  V30 2003 C 194.683 2.16994 -4.03333 0
M  V30 2004 N 196.174 2.24337 -4.0525 0
M  V30 2005 C 196.909 2.67621 -5.07116 0
M  V30 2006 N 196.405 3.1041 -6.19368 0
M  V30 2007 N 198.198 2.67305 -4.94474 0
M  V30 2008 H 190.349 0.00973908 -2.12398 0
M  V30 2009 H 192.612 0.0668593 -0.945639 0
M  V30 2010 H 192.318 0.834583 -3.41654 0
M  V30 2011 H 192.192 2.48602 -2.83684 0
M  V30 2012 H 194.579 2.28678 -1.86521 0
M  V30 2013 H 194.66 0.629352 -2.47937 0
M  V30 2014 H 194.304 1.51349 -4.84826 0
M  V30 2015 H 194.234 3.17258 -4.20304 0
M  V30 2016 H 196.725 1.94158 -3.24209 0
M  V30 2017 H 197.038 3.42103 -6.92954 0
M  V30 2018 H 195.383 3.08286 -6.22884 0
M  V30 2019 H 198.574 2.33233 -4.05857 0
M  V30 2020 H 198.747 3.00718 -5.73997 0
M  V30 2021 N 192.153 1.28127 0.917671 0
M  V30 2022 C 193.1 1.11717 2.0196 0
M  V30 2023 C 194.07 0.0153929 1.66093 0
M  V30 2024 O 195.255 0.179596 1.89953 0
M  V30 2025 C 192.395 0.780927 3.36148 0
M  V30 2026 C 191.508 1.96135 3.84909 0
M  V30 2027 C 190.643 1.56609 5.0759 0
M  V30 2028 C 189.682 2.71339 5.48673 0
M  V30 2029 N 188.819 2.32332 6.62545 0
M  V30 2030 H 193.659 2.06003 2.15329 0
M  V30 2031 H 191.196 1.02535 1.05475 0
M  V30 2032 H 193.154 0.56675 4.13333 0
M  V30 2033 H 191.784 -0.124998 3.22558 0
M  V30 2034 H 190.836 2.28777 3.03916 0
M  V30 2035 H 192.148 2.82165 4.1132 0
M  V30 2036 H 191.302 1.31374 5.92305 0
M  V30 2037 H 190.041 0.677014 4.82978 0
M  V30 2038 H 189.046 2.97276 4.62501 0
M  V30 2039 H 190.271 3.60882 5.75274 0
M  V30 2040 H 188.217 1.45889 6.39572 0
M  V30 2041 H 188.134 3.11899 6.88662 0
M  V30 2042 H 189.402 2.10371 7.50576 0
M  V30 2043 N 193.631 -1.12557 1.10312 0
M  V30 2044 C 195.042 -1.65574 0.862678 0
M  V30 2045 C 195.393 -1.86566 -0.607256 0
M  V30 2046 O 194.518 -1.59121 -1.46662 0
M  V30 2047 C 195.113 -3.00776 1.55947 0
M  V30 2048 C 193.672 -3.50748 1.36576 0
M  V30 2049 C 192.819 -2.25797 1.60968 0
M  V30 2050 H 195.77 -0.963552 1.26101 0
M  V30 2051 H 195.791 -3.67185 0.997753 0
M  V30 2052 H 195.303 -2.85465 2.62928 0
M  V30 2053 H 193.404 -3.71245 0.317531 0
M  V30 2054 H 193.517 -4.30289 2.10686 0
M  V30 2055 H 191.881 -2.32841 1.03234 0
M  V30 2056 H 192.664 -2.13043 2.69198 0
M  V30 2057 N 195.109 -0.891671 -1.2995 0
M  V30 2058 C 196.356 -0.513501 -1.95881 0
M  V30 2059 C 196.684 0.938655 -1.70351 0
M  V30 2060 O 195.939 1.67936 -1.00478 0
M  V30 2061 C 196.238 -0.742868 -3.49594 0
M  V30 2062 C 195.904 -2.17114 -3.95186 0
M  V30 2063 C 194.566 -2.56169 -4.07346 0
M  V30 2064 C 196.918 -3.10162 -4.18866 0
M  V30 2065 C 194.246 -3.87469 -4.4055 0
M  V30 2066 C 196.598 -4.41001 -4.53542 0
M  V30 2067 C 195.262 -4.79941 -4.63911 0
M  V30 2068 H 194.532 -0.187903 -0.71678 0
M  V30 2069 H 197.179 -1.1288 -1.54694 0
M  V30 2070 H 195.484 -0.044586 -3.91775 0
M  V30 2071 H 197.181 -0.429767 -3.9869 0
M  V30 2072 H 193.771 -1.85801 -3.86233 0
M  V30 2073 H 197.955 -2.81206 -4.08946 0
M  V30 2074 H 193.211 -4.17371 -4.46779 0
M  V30 2075 H 197.385 -5.13133 -4.70815 0
M  V30 2076 H 195.012 -5.81719 -4.89395 0
M  V30 2077 N 196.587 1.43421 -0.653314 0
M  V30 2078 C 197.835 2.01414 -0.166415 0
M  V30 2079 C 198.156 1.51803 1.22397 0
M  V30 2080 O 197.426 0.730693 1.81763 0
M  V30 2081 H 196.006 0.744703 -0.0585319 0
M  V30 2082 H 198.668 1.75629 -0.845003 0
M  V30 2083 H 197.764 3.11734 -0.151111 0
M  V30 2084 N 198.065 0.39524 1.52563 0
M  V30 2085 C 199.028 -0.425001 2.25225 0
M  V30 2086 C 200.028 -0.985266 1.27079 0
M  V30 2087 O 201.218 -0.866332 1.5113 0
M  V30 2088 C 198.35 -1.59686 3.01186 0
M  V30 2089 H 199.543 0.211233 2.99155 0
M  V30 2090 H 197.096 0.147472 1.55603 0
M  V30 2091 H 197.831 -2.27035 2.31572 0
M  V30 2092 H 197.616 -1.20176 3.73229 0
M  V30 2093 H 199.106 -2.17743 3.5634 0
M  V30 2094 N 199.544 -1.57102 0.125237 0
M  V30 2095 C 200.793 -1.94582 -0.531095 0
M  V30 2096 C 201.106 -1.01126 -1.6743 0
M  V30 2097 O 202.312 -1.28097 -2.39381 0
M  V30 2098 C 200.768 -3.45839 -0.996164 0
M  V30 2099 C 200.376 -4.47842 0.118926 0
M  V30 2100 C 202.12 -3.92227 -1.62352 0
M  V30 2101 C 200.027 -5.90284 -0.363192 0
M  V30 2102 H 198.957 -0.726391 -0.20217 0
M  V30 2103 H 201.608 -1.82339 0.206092 0
M  V30 2104 H 199.99 -3.53338 -1.78796 0
M  V30 2105 H 201.164 -4.52018 0.895358 0
M  V30 2106 H 199.479 -4.11243 0.653324 0
M  V30 2107 H 202.076 -4.96069 -1.99548 0
M  V30 2108 H 202.419 -3.32552 -2.50429 0
M  V30 2109 H 202.952 -3.87554 -0.897019 0
M  V30 2110 H 199.691 -6.53728 0.481679 0
M  V30 2111 H 199.211 -5.89515 -1.10597 0
M  V30 2112 H 200.89 -6.41752 -0.822377 0
M  V30 2113 N 201.022 0.148545 -1.56898 0
M  V30 2114 C 201.952 1.18524 -2.01182 0
M  V30 2115 C 202.933 1.4489 -0.891123 0
M  V30 2116 O 204.118 1.55836 -1.15882 0
M  V30 2117 C 201.248 2.51879 -2.39112 0
M  V30 2118 C 200.202 2.40038 -3.54353 0
M  V30 2119 C 199.528 3.78089 -3.78091 0
M  V30 2120 C 200.828 1.88577 -4.87069 0
M  V30 2121 H 202.522 0.817029 -2.88036 0
M  V30 2122 H 200.068 0.391575 -1.38574 0
M  V30 2123 H 202.021 3.24627 -2.68692 0
M  V30 2124 H 200.745 2.90532 -1.49193 0
M  V30 2125 H 199.404 1.69742 -3.24936 0
M  V30 2126 H 199.052 4.14175 -2.85426 0
M  V30 2127 H 198.752 3.71028 -4.55645 0
M  V30 2128 H 200.276 4.52387 -4.10095 0
M  V30 2129 H 201.69 2.51117 -5.15377 0
M  V30 2130 H 200.087 1.9241 -5.68417 0
M  V30 2131 H 201.157 0.84136 -4.77545 0
M  V30 2132 N 202.5 1.5196 0.417844 0
M  V30 2133 C 203.448 1.75278 1.52907 0
M  V30 2134 C 204.442 0.619611 1.57662 0
M  V30 2135 O 205.648 0.801457 1.61173 0
M  V30 2136 H 202.023 0.554141 0.508362 0
M  V30 2137 H 203.994 2.68389 1.30422 0
M  V30 2138 C 202.743 1.91262 2.90369 0
M  V30 2139 H 202.066 2.77872 2.8745 0
M  V30 2140 H 203.506 2.11581 3.67436 0
M  V30 2141 C 201.965 0.677431 3.30019 0
M  V30 2142 O 202.495 -0.158799 4.01386 0
M  V30 2143 N 200.701 0.515851 2.85985 0
M  V30 2144 H 200.248 1.19744 2.28077 0
M  V30 2145 H 200.206 -0.309315 3.12875 0
M  V30 2146 N 203.978 -0.674533 1.42435 0
M  V30 2147 C 204.908 -1.80009 1.48724 0
M  V30 2148 C 205.889 -1.6659 0.343793 0
M  V30 2149 O 207.074 -1.86007 0.558137 0
M  V30 2150 C 204.204 -3.18306 1.38919 0
M  V30 2151 C 203.158 -3.46461 2.51294 0
M  V30 2152 C 202.484 -4.84335 2.26547 0
M  V30 2153 C 203.784 -3.43328 3.93603 0
M  V30 2154 H 205.478 -1.75004 2.42928 0
M  V30 2155 H 203.024 -0.840533 1.16923 0
M  V30 2156 H 204.977 -3.9678 1.41927 0
M  V30 2157 H 203.701 -3.2399 0.412094 0
M  V30 2158 H 202.36 -2.70348 2.47604 0
M  V30 2159 H 202.008 -4.86669 1.2713 0
M  V30 2160 H 201.708 -5.04136 3.01861 0
M  V30 2161 H 203.232 -5.65094 2.31304 0
M  V30 2162 H 204.646 -4.11772 3.98894 0
M  V30 2163 H 203.043 -3.74664 4.68771 0
M  V30 2164 H 204.113 -2.41897 4.20255 0
M  V30 2165 N 205.456 -1.28612 -0.910864 0
M  V30 2166 C 206.702 -1.16106 -1.66274 0
M  V30 2167 C 207.035 0.289113 -1.92036 0
M  V30 2168 O 206.31 1.21 -1.52281 0
M  V30 2169 C 206.593 -1.96309 -3.01885 0
M  V30 2170 C 206.446 -3.49405 -2.8326 0
M  V30 2171 C 207.765 -1.78076 -4.02463 0
M  V30 2172 H 204.884 -0.423152 -0.603417 0
M  V30 2173 H 207.526 -1.57961 -1.05586 0
M  V30 2174 H 205.676 -1.60742 -3.53687 0
M  V30 2175 H 207.348 -3.94894 -2.38446 0
M  V30 2176 H 205.591 -3.74893 -2.18261 0
M  V30 2177 H 206.262 -4.00784 -3.79574 0
M  V30 2178 H 208.738 -2.0912 -3.59733 0
M  V30 2179 H 207.614 -2.36561 -4.95308 0
M  V30 2180 H 207.875 -0.733008 -4.35981 0
M  V30 2181 N 206.934 1.1197 -1.10907 0
M  V30 2182 C 208.345 1.65114 -0.871446 0
M  V30 2183 C 208.696 1.86885 0.597353 0
M  V30 2184 O 207.821 1.59896 1.45816 0
M  V30 2185 C 208.416 2.99944 -1.5754 0
M  V30 2186 C 206.975 3.50018 -1.38435 0
M  V30 2187 C 206.122 2.24941 -1.62164 0
M  V30 2188 H 209.073 0.956851 -1.2661 0
M  V30 2189 H 209.094 3.66651 -1.01721 0
M  V30 2190 H 208.606 2.84067 -2.64438 0
M  V30 2191 H 206.707 3.71071 -0.337214 0
M  V30 2192 H 206.82 4.29165 -2.12965 0
M  V30 2193 H 205.184 2.3229 -1.04467 0
M  V30 2194 H 205.967 2.11612 -2.70324 0
M  V30 2195 N 208.412 0.89855 1.29475 0
M  V30 2196 C 209.342 0.39201 2.30186 0
M  V30 2197 C 210.323 -0.532359 1.61555 0
M  V30 2198 O 211.508 -0.443331 1.89072 0
M  V30 2199 C 208.638 -0.382353 3.45189 0
M  V30 2200 C 207.592 0.451483 4.25612 0
M  V30 2201 C 206.918 -0.450307 5.328 0
M  V30 2202 C 208.218 1.70079 4.93832 0
M  V30 2203 H 209.912 1.23362 2.72804 0
M  V30 2204 H 207.458 0.594638 1.31149 0
M  V30 2205 H 209.411 -0.747451 4.14718 0
M  V30 2206 H 208.135 -1.25774 3.01411 0
M  V30 2207 H 206.794 0.798897 3.57789 0
M  V30 2208 H 206.442 -1.32379 4.85268 0
M  V30 2209 H 206.142 0.103902 5.87508 0
M  V30 2210 H 207.666 -0.811623 6.05182 0
M  V30 2211 H 209.08 1.40549 5.55805 0
M  V30 2212 H 207.477 2.19623 5.58467 0
M  V30 2213 H 208.547 2.43744 4.19186 0
M  V30 2214 N 209.89 -1.43072 0.660911 0
M  V30 2215 C 210.853 -2.29194 -0.0166406 0
M  V30 2216 C 211.853 -1.42609 -0.742912 0
M  V30 2217 O 213.043 -1.64155 -0.583004 0
M  V30 2218 C 210.175 -3.24831 -1.0343 0
M  V30 2219 H 211.368 -2.90596 0.741208 0
M  V30 2220 H 208.921 -1.5048 0.422532 0
M  V30 2221 H 209.656 -2.68339 -1.82111 0
M  V30 2222 H 209.441 -3.88676 -0.517082 0
M  V30 2223 H 210.931 -3.89451 -1.50723 0
M  V30 2224 N 211.368 -0.403325 -1.52352 0
M  V30 2225 C 212.278 0.432009 -2.30588 0
M  V30 2226 C 213.294 1.05884 -1.38075 0
M  V30 2227 O 214.47 1.06161 -1.71148 0
M  V30 2228 C 211.535 1.53669 -3.10784 0
M  V30 2229 C 210.596 0.933525 -4.19027 0
M  V30 2230 C 209.829 1.98557 -4.9539 0
M  V30 2231 O 210.052 3.20283 -4.71991 0
M  V30 2232 O 208.986 1.59504 -5.80381 0
M  V30 2233 H 212.812 -0.205739 -3.03002 0
M  V30 2234 H 210.397 -0.166675 -1.48467 0
M  V30 2235 H 212.279 2.17814 -3.60742 0
M  V30 2236 H 210.954 2.15915 -2.41169 0
M  V30 2237 H 209.861 0.254954 -3.7323 0
M  V30 2238 H 211.194 0.35508 -4.90918 0
M  V30 2239 N 212.846 1.57033 -0.133567 0
M  V30 2240 C 214.071 2.00475 0.531477 0
M  V30 2241 C 214.496 1.01291 1.58499 0
M  V30 2242 O 213.854 -0.0133279 1.81295 0
M  V30 2243 C 213.902 3.42729 1.12113 0
M  V30 2244 O 213.006 3.46498 2.23636 0
M  V30 2245 H 212.347 0.650876 0.131362 0
M  V30 2246 H 214.877 2.03344 -0.22634 0
M  V30 2247 H 214.887 3.81246 1.4531 0
M  V30 2248 H 213.562 4.14428 0.349557 0
M  V30 2249 H 212.139 3.19811 1.91769 0
M  V30 2250 N 214.325 -0.140222 1.56975 0
M  V30 2251 C 215.571 -0.852949 1.83991 0
M  V30 2252 C 215.904 -1.80512 0.716187 0
M  V30 2253 O 215.179 -1.92479 -0.279681 0
M  V30 2254 C 215.462 -1.6215 3.21527 0
M  V30 2255 C 215.315 -0.690363 4.4447 0
M  V30 2256 C 216.634 -2.58247 3.56366 0
M  V30 2257 H 213.753 -0.308634 0.669264 0
M  V30 2258 H 216.395 -0.117898 1.89634 0
M  V30 2259 H 214.545 -2.24812 3.16847 0
M  V30 2260 H 216.217 -0.0742264 4.6124 0
M  V30 2261 H 214.46 -0.000396433 4.338 0
M  V30 2262 H 215.131 -1.2643 5.37326 0
M  V30 2263 H 217.607 -2.05701 3.61699 0
M  V30 2264 H 216.483 -3.09067 4.53617 0
M  V30 2265 H 216.744 -3.39923 2.82674 0
M  V30 2266 N 215.803 -1.52179 -0.40978 0
M  V30 2267 C 217.049 -1.66453 -1.15851 0
M  V30 2268 C 217.382 -0.392972 -1.90182 0
M  V30 2269 O 216.657 0.608579 -1.84734 0
M  V30 2270 C 216.94 -2.88612 -2.15349 0
M  V30 2271 C 216.793 -4.25815 -1.44918 0
M  V30 2272 C 218.112 -3.06294 -3.16026 0
M  V30 2273 H 215.231 -0.60575 -0.419805 0
M  V30 2274 H 217.873 -1.84732 -0.444314 0
M  V30 2275 H 216.023 -2.73158 -2.76255 0
M  V30 2276 H 217.695 -4.52995 -0.871365 0
M  V30 2277 H 215.938 -4.27247 -0.751159 0
M  V30 2278 H 216.609 -5.07337 -2.17516 0
M  V30 2279 H 219.085 -3.20641 -2.65195 0
M  V30 2280 H 217.961 -3.93283 -3.8291 0
M  V30 2281 H 218.222 -2.19579 -3.83715 0
M  V30 2282 N 217.281 0.66697 -1.42791 0
M  V30 2283 C 218.228 1.7803 -1.4688 0
M  V30 2284 C 219.198 1.6299 -0.319919 0
M  V30 2285 O 220.383 1.83432 -0.525118 0
M  V30 2286 C 217.523 3.1611 -1.38451 0
M  V30 2287 C 216.636 3.42381 -2.63437 0
M  V30 2288 C 215.771 4.70232 -2.47094 0
M  V30 2289 C 214.81 4.89564 -3.67415 0
M  V30 2290 N 213.947 6.08661 -3.49966 0
M  V30 2291 H 218.787 1.7387 -2.42019 0
M  V30 2292 H 216.324 0.84868 -1.20149 0
M  V30 2293 H 218.282 3.95914 -1.31561 0
M  V30 2294 H 216.912 3.19374 -0.469033 0
M  V30 2295 H 215.964 2.56774 -2.80662 0
M  V30 2296 H 217.276 3.52557 -3.52853 0
M  V30 2297 H 216.43 5.5814 -2.37834 0
M  V30 2298 H 215.169 4.62353 -1.5518 0
M  V30 2299 H 214.174 4.00096 -3.77099 0
M  V30 2300 H 215.399 4.99282 -4.6032 0
M  V30 2301 H 213.345 6.0194 -2.60776 0
M  V30 2302 H 213.262 6.19733 -4.32975 0
M  V30 2303 H 214.53 6.99226 -3.44532 0
M  V30 2304 N 218.759 1.29093 0.90403 0
M  V30 2305 C 219.689 1.16401 2.02418 0
M  V30 2306 C 220.67 0.0593085 1.69997 0
M  V30 2307 O 221.855 0.238021 1.92736 0
M  V30 2308 C 218.985 0.835233 3.37107 0
M  V30 2309 C 217.939 1.89578 3.83724 0
M  V30 2310 C 217.265 1.42041 5.15489 0
M  V30 2311 C 218.565 3.30394 4.04521 0
M  V30 2312 H 220.259 2.10109 2.13295 0
M  V30 2313 H 217.805 1.01157 1.02486 0
M  V30 2314 H 219.758 0.733169 4.14973 0
M  V30 2315 H 218.482 -0.137543 3.2631 0
M  V30 2316 H 217.141 1.98715 3.08071 0
M  V30 2317 H 216.789 0.436426 5.01103 0
M  V30 2318 H 216.489 2.12964 5.4765 0
M  V30 2319 H 218.013 1.33176 5.959 0
M  V30 2320 H 219.427 3.24123 4.72882 0
M  V30 2321 H 217.824 3.99237 4.48029 0
M  V30 2322 H 218.894 3.73692 3.09002 0
M  V30 2323 N 220.237 -1.11381 1.11499 0
M  V30 2324 C 221.465 -1.86934 0.88675 0
M  V30 2325 C 221.88 -1.80195 -0.563476 0
M  V30 2326 O 221.237 -1.18367 -1.38908 0
M  V30 2327 C 221.288 -3.35722 1.34064 0
M  V30 2328 O 221.009 -3.4232 2.73401 0
M  V30 2329 C 222.51 -4.2818 1.14791 0
M  V30 2330 H 219.73 -0.591117 0.317523 0
M  V30 2331 H 222.274 -1.40865 1.48248 0
M  V30 2332 H 220.429 -3.79294 0.788355 0
M  V30 2333 H 220.843 -4.34971 2.93087 0
M  V30 2334 H 222.317 -5.30817 1.5145 0
M  V30 2335 H 222.794 -4.39113 0.0875279 0
M  V30 2336 H 223.4 -3.90402 1.68721 0
M  V30 2337 N 221.715 -0.905404 -1.28997 0
M  V30 2338 C 222.678 -0.392253 -2.25819 0
M  V30 2339 C 223.678 0.476753 -1.5357 0
M  V30 2340 O 224.868 0.280994 -1.71919 0
M  V30 2341 C 222 0.438588 -3.38067 0
M  V30 2342 H 223.193 -1.24743 -2.72725 0
M  V30 2343 H 220.746 -0.684051 -1.40536 0
M  V30 2344 H 221.481 1.31352 -2.96508 0
M  V30 2345 H 221.266 -0.184167 -3.91667 0
M  V30 2346 H 222.756 0.78873 -4.10084 0
M  V30 2347 N 223.193 1.4272 -0.668489 0
M  V30 2348 C 224.439 2.01923 -0.188419 0
M  V30 2349 C 224.772 1.52704 1.19979 0
M  V30 2350 O 224.047 0.726566 1.8042 0
M  V30 2351 C 224.33 3.59451 -0.216085 0
M  V30 2352 C 224.183 4.18864 -1.6393 0
M  V30 2353 C 225.502 4.37903 0.439179 0
M  V30 2354 H 222.621 0.733674 -0.0699412 0
M  V30 2355 H 225.263 1.69822 -0.852076 0
M  V30 2356 H 223.413 3.86929 0.349012 0
M  V30 2357 H 225.085 4.02362 -2.25616 0
M  V30 2358 H 223.328 3.74933 -2.18193 0
M  V30 2359 H 223.999 5.27987 -1.61039 0
M  V30 2360 H 226.475 4.16079 -0.0417878 0
M  V30 2361 H 225.351 5.47519 0.389157 0
M  V30 2362 H 225.612 4.15303 1.51577 0
M  V30 2363 N 224.671 0.411399 1.52136 0
M  V30 2364 C 225.911 -0.163143 2.03748 0
M  V30 2365 C 226.275 -1.42187 1.29022 0
M  V30 2366 O 227.476 -2.075 1.70872 0
M  V30 2367 C 225.747 -0.402651 3.55125 0
M  V30 2368 S 227.306 -0.944315 4.28519 0
M  V30 2369 H 224.124 -0.0439833 0.709638 0
M  V30 2370 H 226.726 0.56484 1.87163 0
M  V30 2371 H 225.43 0.520212 4.0709 0
M  V30 2372 H 224.961 -1.15844 3.75957 0
M  V30 2373 H 226.976 -2.22463 4.43536 0
M  V30 2374 N 226.149 -1.5696 0.141893 0
M  V30 2375 C 227.082 -2.12271 -0.837627 0
M  V30 2376 C 228.06 -1.04495 -1.24578 0
M  V30 2377 O 229.244 -1.32293 -1.34278 0
M  V30 2378 C 226.371 -2.63822 -2.12404 0
M  V30 2379 C 225.417 -3.83698 -1.86221 0
M  V30 2380 S 226.25 -5.24948 -1.05781 0
M  V30 2381 C 227.406 -5.79884 -2.35552 0
M  V30 2382 H 227.639 -2.95023 -0.367249 0
M  V30 2383 H 225.172 -1.54231 -0.0723014 0
M  V30 2384 H 227.13 -2.94175 -2.86307 0
M  V30 2385 H 225.791 -1.8121 -2.56557 0
M  V30 2386 H 224.984 -4.17995 -2.81596 0
M  V30 2387 H 224.586 -3.5408 -1.20429 0
M  V30 2388 H 226.878 -5.91005 -3.31239 0
M  V30 2389 H 227.821 -6.77544 -2.05767 0
M  V30 2390 H 228.229 -5.08095 -2.45967 0
M  V30 2391 N 227.627 0.131896 -1.57047 0
M  V30 2392 C 228.537 1.1815 -2.02676 0
M  V30 2393 C 229.553 1.46113 -0.944824 0
M  V30 2394 O 230.729 1.57485 -1.25541 0
M  V30 2395 C 227.794 2.49139 -2.41103 0
M  V30 2396 C 226.855 2.28688 -3.63318 0
M  V30 2397 C 226.088 3.53431 -3.99903 0
M  V30 2398 O 226.311 4.60223 -3.36973 0
M  V30 2399 O 225.245 3.45198 -4.93074 0
M  V30 2400 H 229.071 0.824069 -2.92306 0
M  V30 2401 H 226.656 0.341745 -1.45439 0
M  V30 2402 H 228.538 3.26338 -2.66611 0
M  V30 2403 H 227.213 2.84382 -1.54624 0
M  V30 2404 H 226.12 1.4939 -3.42977 0
M  V30 2405 H 227.453 1.98355 -4.50462 0
M  V30 2406 N 229.106 1.52395 0.401703 0
M  V30 2407 C 230.346 1.68498 1.15705 0
M  V30 2408 C 230.71 0.409748 1.87577 0
M  V30 2409 O 231.911 0.446983 2.65058 0
M  V30 2410 C 230.182 2.87789 2.11924 0
M  V30 2411 S 231.741 3.24415 2.95466 0
M  V30 2412 H 228.559 0.593267 0.391862 0
M  V30 2413 H 231.161 1.90408 0.443282 0
M  V30 2414 H 229.865 3.7884 1.57824 0
M  V30 2415 H 229.396 2.68175 2.87829 0
M  V30 2416 H 231.411 2.73614 4.13944 0
M  V30 2417 N 230.584 -0.659388 1.43143 0
M  V30 2418 C 231.831 -1.41935 1.44433 0
M  V30 2419 C 232.159 -1.94387 0.0663522 0
M  V30 2420 O 231.414 -1.72314 -0.927706 0
M  V30 2421 C 231.713 -2.62206 2.42864 0
M  V30 2422 C 231.379 -2.28208 3.88886 0
M  V30 2423 C 230.041 -2.18647 4.28657 0
M  V30 2424 C 232.393 -2.00887 4.8093 0
M  V30 2425 C 229.721 -1.79914 5.58433 0
M  V30 2426 C 232.073 -1.63653 6.11065 0
M  V30 2427 C 230.737 -1.52614 6.49819 0
M  V30 2428 H 230.007 -0.519376 0.528517 0
M  V30 2429 H 232.654 -0.750453 1.76183 0
M  V30 2430 H 230.959 -3.34199 2.04495 0
M  V30 2431 H 232.656 -3.2041 2.41119 0
M  V30 2432 H 229.246 -2.36557 3.57406 0
M  V30 2433 H 233.43 -2.07198 4.5098 0
M  V30 2434 H 228.686 -1.69948 5.87305 0
M  V30 2435 H 232.86 -1.41543 6.81864 0
M  V30 2436 H 230.487 -1.22371 7.50286 0
M  V30 2437 N 232.062 -1.29571 -0.897171 0
M  V30 2438 C 233.478 -1.07637 -1.17841 0
M  V30 2439 C 233.678 0.170713 -2.00776 0
M  V30 2440 O 232.734 0.867768 -2.3712 0
M  V30 2441 C 234.047 -2.3332 -1.8969 0
M  V30 2442 C 235.595 -2.38664 -2.02505 0
M  V30 2443 C 236.07 -3.64157 -2.77765 0
M  V30 2444 N 237.561 -3.64894 -2.85318 0
M  V30 2445 C 238.296 -4.58679 -3.44094 0
M  V30 2446 N 237.792 -5.62799 -4.04017 0
M  V30 2447 N 239.585 -4.46245 -3.41793 0
M  V30 2448 H 231.736 -2.09598 -0.343883 0
M  V30 2449 H 233.999 -0.923333 -0.214848 0
M  V30 2450 H 233.705 -3.24262 -1.36187 0
M  V30 2451 H 233.579 -2.41025 -2.9015 0
M  V30 2452 H 235.966 -1.48208 -2.55183 0
M  V30 2453 H 236.047 -2.34943 -1.01171 0
M  V30 2454 H 235.691 -4.54965 -2.25763 0
M  V30 2455 H 235.621 -3.65137 -3.7945 0
M  V30 2456 H 238.112 -2.89613 -2.42761 0
M  V30 2457 H 238.425 -6.3048 -4.46895 0
M  V30 2458 H 236.77 -5.66605 -4.02472 0
M  V30 2459 H 239.961 -3.64094 -2.94199 0
M  V30 2460 H 240.134 -5.19518 -3.87304 0
M  V30 2461 N 233.54 1.10788 -1.12088 0
M  V30 2462 C 234.45 2.20599 -0.798338 0
M  V30 2463 C 235.466 1.72712 0.21135 0
M  V30 2464 O 236.642 2.01348 0.0458477 0
M  V30 2465 C 233.707 3.45771 -0.253674 0
M  V30 2466 C 232.768 4.08411 -1.32283 0
M  V30 2467 C 232.001 5.27608 -0.80406 0
M  V30 2468 O 232.224 5.69241 0.363478 0
M  V30 2469 O 231.158 5.8101 -1.57198 0
M  V30 2470 H 234.984 2.50614 -1.7154 0
M  V30 2471 H 232.569 1.19454 -0.897275 0
M  V30 2472 H 234.451 4.21376 0.0453691 0
M  V30 2473 H 233.126 3.1739 0.636005 0
M  V30 2474 H 232.033 3.34507 -1.67499 0
M  V30 2475 H 233.366 4.40986 -2.18614 0
M  V30 2476 N 235.018 0.912232 1.28515 0
M  V30 2477 C 235.981 0.404223 2.25607 0
M  V30 2478 C 236.981 -0.468602 1.53821 0
M  V30 2479 O 238.171 -0.271873 1.72065 0
M  V30 2480 C 235.303 -0.420653 3.38295 0
M  V30 2481 H 236.496 1.26188 2.7206 0
M  V30 2482 H 234.049 0.691495 1.40171 0
M  V30 2483 H 234.784 -1.29777 2.97201 0
M  V30 2484 H 234.569 0.204935 3.91564 0
M  V30 2485 H 236.059 -0.766971 4.10496 0
M  V30 2486 N 236.496 -1.42363 0.676048 0
M  V30 2487 C 237.459 -2.29199 0.00766941 0
M  V30 2488 C 238.459 -1.43389 -0.727745 0
M  V30 2489 O 239.649 -1.64764 -0.56556 0
M  V30 2490 C 236.781 -3.2591 -0.999785 0
M  V30 2491 H 237.974 -2.89794 0.771988 0
M  V30 2492 H 235.527 -1.50024 0.438468 0
M  V30 2493 H 236.262 -2.70256 -1.79255 0
M  V30 2494 H 236.047 -3.89202 -0.475829 0
M  V30 2495 H 237.537 -3.91028 -1.46583 0
M  V30 2496 N 237.974 -0.419461 -1.51915 0
M  V30 2497 C 239.204 0.151915 -2.06041 0
M  V30 2498 C 239.612 1.38539 -1.28855 0
M  V30 2499 O 238.955 1.80592 -0.336463 0
M  V30 2500 C 239.017 0.557119 -3.55157 0
M  V30 2501 C 238.681 -0.567054 -4.53468 0
M  V30 2502 C 239.678 -1.43379 -4.99738 0
M  V30 2503 C 237.363 -0.742693 -4.96779 0
M  V30 2504 C 239.357 -2.46102 -5.87973 0
M  V30 2505 C 237.044 -1.77322 -5.84808 0
M  V30 2506 C 238.042 -2.63078 -6.30301 0
M  V30 2507 O 237.73 -3.64364 -7.16585 0
M  V30 2508 H 237.462 0.0193293 -0.675724 0
M  V30 2509 H 240.016 -0.592073 -1.96682 0
M  V30 2510 H 238.246 1.35355 -3.62238 0
M  V30 2511 H 239.935 1.05759 -3.9188 0
M  V30 2512 H 240.701 -1.30954 -4.66986 0
M  V30 2513 H 236.58 -0.0848307 -4.60922 0
M  V30 2514 H 240.124 -3.13071 -6.23404 0
M  V30 2515 H 236.021 -1.89773 -6.16974 0
M  V30 2516 H 236.789 -3.60731 -7.34721 0
M  V30 2517 N 239.452 1.56882 -0.150215 0
M  V30 2518 C 240.68 2.00593 0.506948 0
M  V30 2519 C 241.095 1.03033 1.58208 0
M  V30 2520 O 240.452 0.0278396 1.82479 0
M  V30 2521 C 240.503 3.44209 1.10465 0
M  V30 2522 O 240.224 4.3804 0.0724636 0
M  V30 2523 C 241.725 4.03214 1.84211 0
M  V30 2524 H 238.945 0.65795 0.13169 0
M  V30 2525 H 241.489 2.03018 -0.245743 0
M  V30 2526 H 239.644 3.42625 1.80795 0
M  V30 2527 H 240.058 5.22007 0.510793 0
M  V30 2528 H 241.532 5.0569 2.21318 0
M  V30 2529 H 242.009 3.44107 2.72923 0
M  V30 2530 H 242.615 4.08437 1.18572 0
M  V30 2531 N 240.93 -0.123565 1.57115 0
M  V30 2532 C 241.877 -1.15177 2.00007 0
M  V30 2533 C 242.847 -1.41403 0.871454 0
M  V30 2534 O 244.032 -1.53346 1.13533 0
M  V30 2535 C 241.172 -2.47436 2.40561 0
M  V30 2536 C 240.285 -2.28184 3.66819 0
M  V30 2537 C 239.42 -3.53641 3.96373 0
M  V30 2538 C 238.459 -3.29528 5.15827 0
M  V30 2539 N 237.596 -4.47175 5.41275 0
M  V30 2540 H 242.436 -0.779008 2.87638 0
M  V30 2541 H 239.973 -0.373166 1.42288 0
M  V30 2542 H 241.931 -3.24584 2.62109 0
M  V30 2543 H 240.561 -2.82614 1.55978 0
M  V30 2544 H 239.613 -1.41976 3.52912 0
M  V30 2545 H 240.925 -2.0634 4.5412 0
M  V30 2546 H 240.079 -4.39209 4.18545 0
M  V30 2547 H 238.818 -3.78512 3.07538 0
M  V30 2548 H 237.823 -2.42349 4.93505 0
M  V30 2549 H 239.048 -3.06031 6.06236 0
M  V30 2550 H 236.994 -4.72175 4.55397 0
M  V30 2551 H 236.911 -4.28419 6.22891 0
M  V30 2552 H 238.179 -5.3389 5.67963 0
M  V30 2553 N 242.408 -1.52605 -0.393616 0
M  V30 2554 C 243.824 -1.41753 -0.733357 0
M  V30 2555 C 244.024 -0.534293 -1.94287 0
M  V30 2556 O 243.08 -0.0059787 -2.52499 0
M  V30 2557 C 244.393 -2.84531 -0.972772 0
M  V30 2558 C 245.941 -2.93978 -1.07453 0
M  V30 2559 C 246.416 -4.37756 -1.3466 0
M  V30 2560 N 247.907 -4.4106 -1.41492 0
M  V30 2561 C 248.642 -5.49387 -1.642 0
M  V30 2562 N 248.138 -6.67806 -1.8441 0
M  V30 2563 N 249.931 -5.36923 -1.66342 0
M  V30 2564 H 242.082 -2.08555 0.402328 0
M  V30 2565 H 244.345 -0.940654 0.117789 0
M  V30 2566 H 244.051 -3.51353 -0.156204 0
M  V30 2567 H 243.925 -3.26508 -1.88871 0
M  V30 2568 H 246.312 -2.27326 -1.88167 0
M  V30 2569 H 246.393 -2.55435 -0.136605 0
M  V30 2570 H 246.037 -5.04972 -0.544581 0
M  V30 2571 H 245.967 -4.73848 -2.2973 0
M  V30 2572 H 248.458 -3.55705 -1.27601 0
M  V30 2573 H 248.771 -7.46141 -2.01231 0
M  V30 2574 H 247.116 -6.70843 -1.81644 0
M  V30 2575 H 250.307 -4.43381 -1.50102 0
M  V30 2576 H 250.48 -6.21416 -1.837 0
M  V30 2577 N 243.887 0.651787 -1.4349 0
M  V30 2578 C 244.817 1.77621 -1.51569 0
M  V30 2579 C 245.798 1.66022 -0.370253 0
M  V30 2580 O 246.983 1.85095 -0.587658 0
M  V30 2581 C 244.113 3.16056 -1.43966 0
M  V30 2582 C 243.067 3.4242 -2.56774 0
M  V30 2583 C 242.393 4.8067 -2.34223 0
M  V30 2584 C 243.693 3.37023 -3.99015 0
M  V30 2585 H 245.387 1.71117 -2.45681 0
M  V30 2586 H 242.933 0.821825 -1.18246 0
M  V30 2587 H 244.886 3.94472 -1.48221 0
M  V30 2588 H 243.61 3.23293 -0.463586 0
M  V30 2589 H 242.269 2.66375 -2.51873 0
M  V30 2590 H 241.917 4.84585 -1.34856 0
M  V30 2591 H 241.617 4.9927 -3.09844 0
M  V30 2592 H 243.141 5.61342 -2.40265 0
M  V30 2593 H 244.555 4.05374 -4.05395 0
M  V30 2594 H 242.952 3.67159 -4.74673 0
M  V30 2595 H 244.022 2.3518 -4.2405 0
M  V30 2596 N 245.365 1.30045 0.890287 0
M  V30 2597 C 246.613 1.18327 1.63839 0
M  V30 2598 C 246.934 -0.263455 1.93212 0
M  V30 2599 O 246.204 -1.17856 1.56482 0
M  V30 2600 H 244.784 0.434933 0.607324 0
M  V30 2601 H 247.446 1.631 1.06698 0
M  V30 2602 H 246.542 1.74024 2.59079 0
M  V30 2603 N 246.843 -1.10192 1.12674 0
M  V30 2604 C 248.071 -1.85983 0.906527 0
M  V30 2605 C 248.486 -1.80783 -0.544333 0
M  V30 2606 O 247.843 -1.19834 -1.37645 0
M  V30 2607 C 247.894 -3.34281 1.37618 0
M  V30 2608 O 247.615 -3.39401 2.77017 0
M  V30 2609 C 249.116 -4.26938 1.19325 0
M  V30 2610 H 246.336 -0.587716 0.323775 0
M  V30 2611 H 248.88 -1.39284 1.49734 0
M  V30 2612 H 247.035 -3.78436 0.828539 0
M  V30 2613 H 247.449 -4.31838 2.97684 0
M  V30 2614 H 248.923 -5.29181 1.57071 0
M  V30 2615 H 249.4 -4.38995 0.134097 0
M  V30 2616 H 250.006 -3.8859 1.72852 0
M  V30 2617 N 248.321 -0.919034 -1.28029 0
M  V30 2618 C 249.231 -0.416756 -2.30869 0
M  V30 2619 C 250.247 0.498235 -1.66714 0
M  V30 2620 O 251.423 0.383144 -1.97722 0
M  V30 2621 C 248.488 0.330274 -3.45123 0
M  V30 2622 C 247.549 -0.618578 -4.2482 0
M  V30 2623 C 246.782 0.0928959 -5.33619 0
M  V30 2624 O 247.005 1.31375 -5.55065 0
M  V30 2625 O 245.939 -0.574499 -5.99152 0
M  V30 2626 H 249.765 -1.27043 -2.75851 0
M  V30 2627 H 247.35 -0.684052 -1.3282 0
M  V30 2628 H 249.232 0.751972 -4.14636 0
M  V30 2629 H 247.907 1.1597 -3.02213 0
M  V30 2630 H 246.814 -1.08978 -3.57875 0
M  V30 2631 H 248.147 -1.41497 -4.71423 0
M  V30 2632 N 249.799 1.42003 -0.683588 0
M  V30 2633 C 250.746 2.30798 -0.0107309 0
M  V30 2634 C 251.716 1.4645 0.783688 0
M  V30 2635 O 252.901 1.75263 0.754156 0
M  V30 2636 C 250.041 3.3238 0.928306 0
M  V30 2637 C 249.154 4.31814 0.126776 0
M  V30 2638 C 248.289 5.20468 1.06236 0
M  V30 2639 C 247.328 6.11577 0.253035 0
M  V30 2640 N 246.465 6.92754 1.14179 0
M  V30 2641 H 251.305 2.8778 -0.773727 0
M  V30 2642 H 248.842 1.41745 -0.393283 0
M  V30 2643 H 250.8 3.89813 1.48666 0
M  V30 2644 H 249.43 2.76976 1.65783 0
M  V30 2645 H 248.482 3.76427 -0.54833 0
M  V30 2646 H 249.794 4.96276 -0.501192 0
M  V30 2647 H 248.948 5.82677 1.69035 0
M  V30 2648 H 247.687 4.56204 1.7242 0
M  V30 2649 H 246.692 5.48428 -0.388108 0
M  V30 2650 H 247.917 6.77892 -0.404839 0
M  V30 2651 H 245.863 6.3111 1.78987 0
M  V30 2652 H 245.78 7.53855 0.569111 0
M  V30 2653 H 247.048 7.59441 1.75697 0
M  V30 2654 N 251.277 0.427512 1.51691 0
M  V30 2655 C 252.187 -0.39527 2.31246 0
M  V30 2656 C 253.203 -1.03674 1.39742 0
M  V30 2657 O 254.379 -1.03425 1.72816 0
M  V30 2658 C 251.444 -1.48706 3.13189 0
M  V30 2659 C 250.505 -0.866743 4.20459 0
M  V30 2660 C 249.738 -1.90651 4.98486 0
M  V30 2661 O 249.961 -3.12733 4.77026 0
M  V30 2662 O 248.895 -1.5025 5.82845 0
M  V30 2663 H 252.721 0.253918 3.02637 0
M  V30 2664 H 250.306 0.190274 1.48183 0
M  V30 2665 H 252.188 -2.12047 3.64162 0
M  V30 2666 H 250.863 -2.12051 2.44573 0
M  V30 2667 H 249.77 -0.195544 3.73589 0
M  V30 2668 H 251.103 -0.276934 4.9142 0
M  V30 2669 N 252.755 -1.56801 0.158532 0
M  V30 2670 C 254.001 -1.96781 -0.490405 0
M  V30 2671 C 254.334 -1.04397 -1.63753 0
M  V30 2672 O 253.609 -0.0885805 -1.94298 0
M  V30 2673 C 253.892 -3.4635 -0.985594 0
M  V30 2674 C 253.745 -4.49512 0.160824 0
M  V30 2675 C 255.064 -3.98697 -1.86355 0
M  V30 2676 H 252.183 -0.715482 -0.176788 0
M  V30 2677 H 254.825 -1.88451 0.242088 0
M  V30 2678 H 252.975 -3.53579 -1.60978 0
M  V30 2679 H 254.647 -4.54353 0.797537 0
M  V30 2680 H 252.89 -4.26013 0.818256 0
M  V30 2681 H 253.561 -5.51531 -0.227569 0
M  V30 2682 H 256.037 -3.94019 -1.33746 0
M  V30 2683 H 254.913 -5.03792 -2.17909 0
M  V30 2684 H 255.174 -3.41744 -2.8047 0
M  V30 2685 N 254.233 0.115231 -1.57178 0
M  V30 2686 C 255.143 1.15994 -2.03918 0
M  V30 2687 C 256.159 1.45103 -0.960268 0
M  V30 2688 O 257.335 1.56144 -1.27204 0
M  V30 2689 C 254.4 2.46568 -2.43732 0
M  V30 2690 C 253.461 2.24822 -3.65723 0
M  V30 2691 C 252.694 3.4917 -4.03629 0
M  V30 2692 O 252.917 4.56623 -3.41835 0
M  V30 2693 O 251.851 3.39949 -4.96708 0
M  V30 2694 H 255.677 0.793019 -2.93164 0
M  V30 2695 H 253.262 0.3263 -1.45793 0
M  V30 2696 H 255.144 3.23492 -2.70057 0
M  V30 2697 H 253.819 2.82726 -1.57631 0
M  V30 2698 H 252.726 1.45744 -3.44542 0
M  V30 2699 H 254.059 1.93566 -4.52541 0
M  V30 2700 N 255.711 1.52812 0.385517 0
M  V30 2701 C 256.957 1.68275 1.13188 0
M  V30 2702 C 257.29 0.423179 1.89533 0
M  V30 2703 O 256.565 -0.579113 1.85679 0
M  V30 2704 C 256.848 2.92001 2.1073 0
M  V30 2705 C 256.701 4.28067 1.38125 0
M  V30 2706 C 258.02 3.11283 3.11113 0
M  V30 2707 H 255.139 0.612352 0.410115 0
M  V30 2708 H 257.781 1.85415 0.414869 0
M  V30 2709 H 255.931 2.77519 2.71874 0
M  V30 2710 H 257.603 4.54324 0.799187 0
M  V30 2711 H 255.846 4.28388 0.683092 0
M  V30 2712 H 256.517 5.10733 2.09417 0
M  V30 2713 H 258.993 3.2482 2.6006 0
M  V30 2714 H 257.869 3.99325 3.76605 0
M  V30 2715 H 258.13 2.25656 3.80173 0
M  V30 2716 N 257.189 -0.644168 1.43834 0
M  V30 2717 C 258.438 -1.39985 1.45214 0
M  V30 2718 C 258.751 -1.95421 0.0835494 0
M  V30 2719 O 259.957 -2.71488 -0.0251748 0
M  V30 2720 C 258.413 -2.53384 2.55587 0
M  V30 2721 C 258.021 -2.04517 3.98594 0
M  V30 2722 C 259.765 -3.30685 2.66172 0
M  V30 2723 C 257.672 -3.1518 5.00416 0
M  V30 2724 H 256.602 -0.526005 0.540218 0
M  V30 2725 H 259.253 -0.694367 1.69855 0
M  V30 2726 H 257.635 -3.26446 2.24163 0
M  V30 2727 H 258.809 -1.38405 4.39523 0
M  V30 2728 H 257.124 -1.40068 3.92135 0
M  V30 2729 H 259.721 -4.13158 3.39418 0
M  V30 2730 H 260.064 -3.79312 1.71546 0
M  V30 2731 H 260.597 -2.64708 2.96942 0
M  V30 2732 H 257.336 -2.71511 5.96625 0
M  V30 2733 H 256.856 -3.79974 4.64091 0
M  V30 2734 H 258.535 -3.80166 5.23529 0
M  V30 2735 N 258.668 -1.30515 -0.883378 0
M  V30 2736 C 259.916 -1.19194 -1.63209 0
M  V30 2737 C 260.237 0.253205 -1.93349 0
M  V30 2738 O 259.507 1.17025 -1.57105 0
M  V30 2739 H 258.087 -0.438148 -0.605009 0
M  V30 2740 H 260.749 -1.63663 -1.05832 0
M  V30 2741 H 259.845 -1.75396 -2.58153 0
M  V30 2742 N 260.146 1.09593 -1.13257 0
M  V30 2743 C 261.394 1.81375 -0.891492 0
M  V30 2744 C 261.715 1.86049 0.584009 0
M  V30 2745 O 260.985 1.34481 1.42449 0
M  V30 2746 H 259.565 0.671708 -0.326828 0
M  V30 2747 H 262.227 1.3256 -1.42877 0
M  V30 2748 H 261.323 2.84612 -1.28071 0
M  V30 2749 N 261.624 0.925811 1.2754 0
M  V30 2750 C 262.587 0.428129 2.25166 0
M  V30 2751 C 263.587 -0.452261 1.54309 0
M  V30 2752 O 264.777 -0.253608 1.72344 0
M  V30 2753 C 261.909 -0.384749 3.38722 0
M  V30 2754 H 263.102 1.29066 2.70706 0
M  V30 2755 H 260.655 0.706323 1.3943 0
M  V30 2756 H 261.39 -1.26618 2.98561 0
M  V30 2757 H 261.175 0.246454 3.91325 0
M  V30 2758 H 262.665 -0.723389 4.11287 0
M  V30 2759 N 263.102 -1.41638 0.69111 0
M  V30 2760 C 264.379 -1.95036 0.148421 0
M  V30 2761 C 264.759 -1.63072 -1.34055 0
M  V30 2762 O 264.107 -0.93538 -2.08478 0
M  V30 2763 C 264.317 -3.46279 0.434951 0
M  V30 2764 C 265.665 -4.23069 0.360275 0
M  V30 2765 O 266.689 -3.54277 0.369613 0
M  V30 2766 O 265.548 -5.45583 0.316534 0
M  V30 2767 H 262.642 -0.826908 0.0123654 0
M  V30 2768 H 265.188 -1.5138 0.766963 0
M  V30 2769 H 263.96 -3.6281 1.46576 0
M  V30 2770 H 263.583 -3.97019 -0.214787 0
M  V30 2771 N 264.58 -0.43555 -1.51462 0
M  V30 2772 C 265.527 0.376797 -2.27703 0
M  V30 2773 C 266.497 1.01838 -1.31219 0
M  V30 2774 O 267.682 1.03762 -1.60119 0
M  V30 2775 C 264.822 1.47301 -3.12084 0
M  V30 2776 C 263.935 0.849744 -4.2356 0
M  V30 2777 C 263.07 1.92086 -4.95254 0
M  V30 2778 C 262.109 1.27593 -5.98654 0
M  V30 2779 N 261.246 2.28833 -6.63762 0
M  V30 2780 H 266.086 -0.279734 -2.96684 0
M  V30 2781 H 263.623 -0.149795 -1.46335 0
M  V30 2782 H 265.581 2.11984 -3.59331 0
M  V30 2783 H 264.211 2.0992 -2.45221 0
M  V30 2784 H 263.263 0.0912529 -3.80291 0
M  V30 2785 H 264.575 0.338878 -4.97648 0
M  V30 2786 H 263.729 2.64435 -5.46039 0
M  V30 2787 H 262.468 2.46545 -4.20793 0
M  V30 2788 H 261.473 0.537893 -5.47162 0
M  V30 2789 H 262.698 0.738693 -6.7507 0
M  V30 2790 H 260.644 2.82375 -5.92115 0
M  V30 2791 H 260.561 1.82632 -7.33608 0
M  V30 2792 H 261.829 3.00671 -7.19178 0
M  V30 2793 N 266.058 1.56714 -0.166846 0
M  V30 2794 C 267.288 2.00828 0.48494 0
M  V30 2795 C 267.696 1.04612 1.57648 0
M  V30 2796 O 267.039 0.0383201 1.8366 0
M  V30 2797 C 267.101 3.4137 1.12723 0
M  V30 2798 C 266.765 4.56654 0.177886 0
M  V30 2799 C 267.762 5.16402 -0.60207 0
M  V30 2800 C 265.447 5.02244 0.0750139 0
M  V30 2801 C 267.441 6.20167 -1.47215 0
M  V30 2802 C 265.128 6.05859 -0.798649 0
M  V30 2803 C 266.126 6.64691 -1.57082 0
M  V30 2804 O 265.814 7.66297 -2.42989 0
M  V30 2805 H 265.546 0.663587 0.128953 0
M  V30 2806 H 268.1 2.03692 -0.264365 0
M  V30 2807 H 266.33 3.35406 1.92457 0
M  V30 2808 H 268.019 3.69466 1.68076 0
M  V30 2809 H 268.785 4.82065 -0.53274 0
M  V30 2810 H 264.664 4.56167 0.665812 0
M  V30 2811 H 268.208 6.66016 -2.07531 0
M  V30 2812 H 264.105 6.39621 -0.869199 0
M  V30 2813 H 264.873 7.83601 -2.36455 0
M  V30 2814 N 267.536 -0.106894 1.57237 0
M  V30 2815 C 268.486 -1.1366 1.9765 0
M  V30 2816 C 269.47 -1.36416 0.853203 0
M  V30 2817 O 270.662 -1.37305 1.11697 0
M  V30 2818 C 267.791 -2.46 2.39455 0
M  V30 2819 C 266.877 -2.26668 3.58445 0
M  V30 2820 N 267.268 -1.77176 4.73754 0
M  V30 2821 C 265.566 -2.57279 3.64312 0
M  V30 2822 C 266.267 -1.71836 5.5574 0
M  V30 2823 N 265.243 -2.16623 4.98573 0
M  V30 2824 H 269.045 -0.74669 2.84256 0
M  V30 2825 H 266.559 -0.314483 1.59326 0
M  V30 2826 H 268.556 -3.2049 2.6663 0
M  V30 2827 H 267.216 -2.85738 1.54219 0
M  V30 2828 H 268.227 -1.46545 4.96734 0
M  V30 2829 H 264.904 -3.00622 2.89711 0
M  V30 2830 H 266.294 -1.34723 6.58255 0
M  V30 2831 N 269.014 -1.53014 -0.377408 0
M  V30 2832 C 270.239 -1.72818 -1.14668 0
M  V30 2833 C 270.664 -0.450725 -1.8262 0
M  V30 2834 O 270.022 0.59439 -1.7128 0
M  V30 2835 C 270.07 -2.88627 -2.16164 0
M  V30 2836 O 269.174 -2.56409 -3.22998 0
M  V30 2837 H 268.515 -0.574301 -0.333278 0
M  V30 2838 H 271.045 -1.99853 -0.438152 0
M  V30 2839 H 271.055 -3.14455 -2.59966 0
M  V30 2840 H 269.73 -3.81294 -1.66095 0
M  V30 2841 H 268.307 -2.4136 -2.84253 0
M  V30 2842 N 270.492 0.636531 -1.44174 0
M  V30 2843 C 271.738 1.39826 -1.4689 0
M  V30 2844 C 272.071 1.93947 -0.0990585 0
M  V30 2845 O 271.346 1.73325 0.882544 0
M  V30 2846 C 271.629 2.56751 -2.5249 0
M  V30 2847 C 271.482 2.08014 -3.98811 0
M  V30 2848 C 272.801 3.58946 -2.54649 0
M  V30 2849 H 269.92 0.507075 -0.53483 0
M  V30 2850 H 272.562 0.720188 -1.75822 0
M  V30 2851 H 270.712 3.14597 -2.2795 0
M  V30 2852 H 272.384 1.5504 -4.34466 0
M  V30 2853 H 270.627 1.39242 -4.10846 0
M  V30 2854 H 271.298 2.92169 -4.68339 0
M  V30 2855 H 273.774 3.1089 -2.76563 0
M  V30 2856 H 272.65 4.38286 -3.3045 0
M  V30 2857 H 272.911 4.12655 -1.58646 0
M  V30 2858 N 271.97 1.30982 0.876444 0
M  V30 2859 C 273.21 1.21589 1.64303 0
M  V30 2860 C 273.574 -0.223962 1.90689 0
M  V30 2861 O 274.775 -0.44128 2.65153 0
M  V30 2862 C 273.046 2.03007 2.94148 0
M  V30 2863 S 274.605 2.10405 3.85065 0
M  V30 2864 H 271.423 0.433161 0.563819 0
M  V30 2865 H 274.025 1.65565 1.03964 0
M  V30 2866 H 272.729 3.06719 2.72675 0
M  V30 2867 H 272.26 1.59725 3.59515 0
M  V30 2868 H 274.275 1.23765 4.80517 0
M  V30 2869 N 273.449 -1.08991 1.13837 0
M  V30 2870 C 274.865 -1.33312 0.877506 0
M  V30 2871 C 275.065 -1.95587 -0.48456 0
M  V30 2872 O 274.121 -2.20509 -1.23013 0
M  V30 2873 C 275.434 -2.24045 2.0056 0
M  V30 2874 C 276.982 -2.37542 2.03821 0
M  V30 2875 C 277.457 -3.31614 3.15905 0
M  V30 2876 N 278.948 -3.39189 3.15445 0
M  V30 2877 C 279.683 -4.11992 3.98811 0
M  V30 2878 N 279.179 -4.87553 4.92203 0
M  V30 2879 N 280.972 -4.07762 3.86894 0
M  V30 2880 H 273.123 -0.669456 2.01574 0
M  V30 2881 H 275.386 -0.357482 0.878015 0
M  V30 2882 H 275.092 -1.85521 2.98789 0
M  V30 2883 H 274.966 -3.24466 1.92359 0
M  V30 2884 H 277.353 -2.75327 1.06202 0
M  V30 2885 H 277.434 -1.36884 2.16093 0
M  V30 2886 H 277.078 -2.94551 4.13766 0
M  V30 2887 H 277.008 -4.32186 3.0087 0
M  V30 2888 H 279.499 -2.85314 2.47799 0
M  V30 2889 H 279.812 -5.40549 5.52292 0
M  V30 2890 H 278.157 -4.86627 4.96205 0
M  V30 2891 H 281.348 -3.47833 3.13257 0
M  V30 2892 H 281.521 -4.64238 4.52092 0
M  V30 2893 N 274.927 -0.932562 -1.27047 0
M  V30 2894 C 275.857 -0.452902 -2.29066 0
M  V30 2895 C 276.838 0.489338 -1.62909 0
M  V30 2896 O 278.023 0.393046 -1.90181 0
M  V30 2897 C 275.153 0.290698 -3.46081 0
M  V30 2898 C 274.107 -0.564168 -4.24265 0
M  V30 2899 C 273.433 0.308886 -5.33807 0
M  V30 2900 C 274.733 -1.83112 -4.89149 0
M  V30 2901 H 276.427 -1.30552 -2.69437 0
M  V30 2902 H 273.973 -0.629201 -1.29526 0
M  V30 2903 H 275.926 0.637233 -4.16554 0
M  V30 2904 H 274.65 1.17738 -3.0464 0
M  V30 2905 H 273.309 -0.893477 -3.55545 0
M  V30 2906 H 272.957 1.19467 -4.88607 0
M  V30 2907 H 272.657 -0.259633 -5.87026 0
M  V30 2908 H 274.181 0.650884 -6.07121 0
M  V30 2909 H 275.595 -1.55236 -5.51883 0
M  V30 2910 H 273.992 -2.34353 -5.52448 0
M  V30 2911 H 275.062 -2.54772 -4.12576 0
M  V30 2912 N 276.405 1.4127 -0.698611 0
M  V30 2913 C 277.645 2.03044 -0.235062 0
M  V30 2914 C 278.009 1.54146 1.14468 0
M  V30 2915 O 279.21 2.07867 1.70425 0
M  V30 2916 C 277.481 3.56192 -0.293651 0
M  V30 2917 S 279.04 4.38696 0.0954053 0
M  V30 2918 H 275.858 0.704697 -0.0944648 0
M  V30 2919 H 278.46 1.72656 -0.917064 0
M  V30 2920 H 277.164 3.89274 -1.29977 0
M  V30 2921 H 276.695 3.91285 0.407397 0
M  V30 2922 H 278.71 4.78257 1.3223 0
M  V30 2923 N 277.883 0.443576 1.51229 0
M  V30 2924 C 279.113 -0.119117 2.06256 0
M  V30 2925 C 279.521 -1.36471 1.31043 0
M  V30 2926 O 278.864 -1.80034 0.365151 0
M  V30 2927 C 278.926 -0.500546 3.55998 0
M  V30 2928 C 278.59 0.639125 4.52509 0
M  V30 2929 C 279.587 1.51311 4.97394 0
M  V30 2930 C 277.272 0.821632 4.95535 0
M  V30 2931 C 279.266 2.55425 5.83984 0
M  V30 2932 C 276.953 1.86603 5.81913 0
M  V30 2933 C 277.951 2.73072 6.26036 0
M  V30 2934 O 277.639 3.75718 7.10698 0
M  V30 2935 H 277.371 -0.00857665 0.675946 0
M  V30 2936 H 279.925 0.623288 1.95715 0
M  V30 2937 H 278.155 -1.29575 3.64345 0
M  V30 2938 H 279.844 -0.995116 3.93513 0
M  V30 2939 H 280.61 1.38367 4.64844 0
M  V30 2940 H 276.489 0.158149 4.60729 0
M  V30 2941 H 280.033 3.22949 6.18344 0
M  V30 2942 H 275.93 1.99564 6.13876 0
M  V30 2943 H 276.698 3.72374 7.2889 0
M  V30 2944 N 279.361 -1.56624 0.175154 0
M  V30 2945 C 280.608 -1.96999 -0.468811 0
M  V30 2946 C 280.936 -1.06129 -1.62994 0
M  V30 2947 O 280.191 -0.0961771 -1.95464 0
M  V30 2948 C 280.49 -3.43419 -0.989864 0
M  V30 2949 C 280.156 -4.50866 0.0557687 0
M  V30 2950 C 278.818 -4.79975 0.343134 0
M  V30 2951 C 281.17 -5.15551 0.765308 0
M  V30 2952 C 278.498 -5.71066 1.34536 0
M  V30 2953 C 280.85 -6.07724 1.75654 0
M  V30 2954 C 279.514 -6.35199 2.05132 0
M  V30 2955 H 278.784 -0.720869 -0.17155 0
M  V30 2956 H 281.431 -1.89616 0.267924 0
M  V30 2957 H 279.736 -3.47772 -1.80449 0
M  V30 2958 H 281.433 -3.72002 -1.49719 0
M  V30 2959 H 278.023 -4.28229 -0.178381 0
M  V30 2960 H 282.207 -4.9317 0.556513 0
M  V30 2961 H 277.463 -5.90635 1.57988 0
M  V30 2962 H 281.637 -6.56912 2.31169 0
M  V30 2963 H 279.264 -7.05584 2.8294 0
M  V30 2964 N 280.839 0.0985539 -1.57292 0
M  V30 2965 C 281.786 1.11981 -2.01814 0
M  V30 2966 C 282.756 1.39999 -0.89384 0
M  V30 2967 O 283.941 1.5152 -1.15958 0
M  V30 2968 C 281.081 2.43577 -2.44467 0
M  V30 2969 C 280.194 2.2232 -3.70402 0
M  V30 2970 C 279.329 3.4729 -4.01949 0
M  V30 2971 C 278.368 3.2128 -5.21005 0
M  V30 2972 N 277.505 4.38507 -5.48321 0
M  V30 2973 H 282.345 0.733149 -2.88841 0
M  V30 2974 H 279.882 0.350482 -1.42864 0
M  V30 2975 H 281.84 3.20373 -2.6724 0
M  V30 2976 H 280.47 2.80097 -1.60455 0
M  V30 2977 H 279.522 1.36343 -3.55126 0
M  V30 2978 H 280.834 1.99089 -4.57345 0
M  V30 2979 H 279.988 4.32495 -4.25479 0
M  V30 2980 H 278.727 3.73572 -3.13521 0
M  V30 2981 H 277.732 2.34468 -4.97298 0
M  V30 2982 H 278.957 2.96348 -6.11028 0
M  V30 2983 H 276.903 4.64871 -4.62851 0
M  V30 2984 H 276.82 4.18455 -6.29628 0
M  V30 2985 H 278.088 5.24787 -5.76385 0
M  V30 2986 N 282.317 1.53212 0.369288 0
M  V30 2987 C 283.264 1.79388 1.45219 0
M  V30 2988 C 284.234 0.638059 1.53356 0
M  V30 2989 O 285.419 0.879852 1.69302 0
M  V30 2990 C 282.559 1.98623 2.82211 0
M  V30 2991 C 281.672 3.26337 2.8307 0
M  V30 2992 C 280.807 3.35779 4.11614 0
M  V30 2993 C 279.846 4.5754 4.06601 0
M  V30 2994 N 278.983 4.64155 5.26787 0
M  V30 2995 H 283.823 2.71794 1.22198 0
M  V30 2996 H 281.36 1.34642 0.592444 0
M  V30 2997 H 283.318 2.07761 3.61789 0
M  V30 2998 H 281.948 1.09558 3.03639 0
M  V30 2999 H 281 3.26171 1.95747 0
M  V30 3000 H 282.312 4.15988 2.75237 0
M  V30 3001 H 281.466 3.44208 4.99606 0
M  V30 3002 H 280.205 2.44137 4.22195 0
M  V30 3003 H 279.21 4.49215 3.16996 0
M  V30 3004 H 280.435 5.50519 3.97625 0
M  V30 3005 H 278.381 3.75413 5.3796 0
M  V30 3006 H 278.298 5.47706 5.21109 0
M  V30 3007 H 279.566 4.76863 6.16621 0
M  V30 3008 N 283.795 -0.628877 1.44509 0
M  V30 3009 C 284.758 -1.72263 1.51188 0
M  V30 3010 C 285.758 -1.55907 0.39367 0
M  V30 3011 O 286.948 -1.61361 0.656377 0
M  V30 3012 C 284.08 -3.11365 1.38798 0
M  V30 3013 H 285.273 -1.67714 2.4862 0
M  V30 3014 H 282.826 -0.842737 1.31634 0
M  V30 3015 H 283.561 -3.21507 0.424693 0
M  V30 3016 H 283.346 -3.24644 2.19884 0
M  V30 3017 H 284.836 -3.91075 1.46458 0
M  V30 3018 N 285.273 -1.31445 -0.869486 0
M  V30 3019 C 286.498 -1.24256 -1.66058 0
M  V30 3020 C 286.923 0.188928 -1.87149 0
M  V30 3021 O 286.281 1.13522 -1.4136 0
M  V30 3022 C 286.329 -1.9924 -3.00559 0
M  V30 3023 O 285.433 -1.33007 -3.90362 0
M  V30 3024 H 284.774 -0.428973 -0.506831 0
M  V30 3025 H 287.304 -1.73521 -1.08404 0
M  V30 3026 H 287.314 -2.08854 -3.50491 0
M  V30 3027 H 285.989 -3.03342 -2.84528 0
M  V30 3028 H 284.566 -1.31848 -3.48813 0
M  V30 3029 N 286.751 1.08385 -1.14413 0
M  V30 3030 C 287.999 1.80419 -0.910679 0
M  V30 3031 C 288.32 1.86658 0.564243 0
M  V30 3032 O 287.59 1.35985 1.41014 0
M  V30 3033 H 286.17 0.668204 -0.333934 0
M  V30 3034 H 288.832 1.31037 -1.44275 0
M  V30 3035 H 287.928 2.83238 -1.31082 0
M  V30 3036 N 288.23 0.939286 1.26551 0
M  V30 3037 C 289.162 0.404704 2.25599 0
M  V30 3038 C 290.175 -0.470983 1.55838 0
M  V30 3039 O 291.364 -0.281734 1.76263 0
M  V30 3040 C 288.464 -0.43764 3.36062 0
M  V30 3041 C 287.637 0.421449 4.35365 0
M  V30 3042 C 286.696 -0.36015 5.24966 0
M  V30 3043 O 285.722 0.236167 5.6871 0
M  V30 3044 N 286.924 -1.65715 5.56344 0
M  V30 3045 H 289.689 1.25618 2.72103 0
M  V30 3046 H 287.25 0.807963 1.40298 0
M  V30 3047 H 289.242 -0.967866 3.92956 0
M  V30 3048 H 287.812 -1.18991 2.89067 0
M  V30 3049 H 287.032 1.1329 3.7757 0
M  V30 3050 H 288.32 1.00835 4.98708 0
M  V30 3051 H 287.718 -2.16378 5.22682 0
M  V30 3052 H 286.275 -2.13366 6.15888 0
M  V30 3053 N 289.708 -1.40897 0.706093 0
M  V30 3054 C 291.119 -1.84023 0.315052 0
M  V30 3055 C 291.47 -1.5906 -1.14866 0
M  V30 3056 O 290.595 -1.06651 -1.88293 0
M  V30 3057 C 291.19 -3.34055 0.565038 0
M  V30 3058 C 289.749 -3.7571 0.227806 0
M  V30 3059 C 288.896 -2.64204 0.842122 0
M  V30 3060 H 291.847 -1.303 0.905963 0
M  V30 3061 H 291.868 -3.80107 -0.172843 0
M  V30 3062 H 291.38 -3.52192 1.63042 0
M  V30 3063 H 289.481 -3.63172 -0.832895 0
M  V30 3064 H 289.594 -4.74103 0.690174 0
M  V30 3065 H 287.958 -2.53255 0.270893 0
M  V30 3066 H 288.741 -2.85155 1.91158 0
M  V30 3067 N 291.186 -0.45159 -1.50991 0
M  V30 3068 C 292.149 0.341117 -2.26647 0
M  V30 3069 C 293.149 0.937422 -1.30649 0
M  V30 3070 O 294.339 0.809644 -1.54241 0
M  V30 3071 C 291.471 1.48398 -3.06905 0
M  V30 3072 H 292.664 -0.322117 -2.98165 0
M  V30 3073 H 290.217 -0.205122 -1.54948 0
M  V30 3074 H 290.952 2.18284 -2.39838 0
M  V30 3075 H 290.737 1.06241 -3.77432 0
M  V30 3076 H 292.227 2.04367 -3.64176 0
M  V30 3077 N 292.664 1.56529 -0.183458 0
M  V30 3078 C 293.912 1.96855 0.457452 0
M  V30 3079 C 294.233 1.07104 1.62953 0
M  V30 3080 O 293.503 0.139887 1.954 0
M  V30 3081 H 292.083 0.72693 0.171992 0
M  V30 3082 H 294.745 1.93056 -0.267476 0
M  V30 3083 H 293.841 3.01423 0.809368 0
M  V30 3084 N 294.142 -0.090211 1.57342 0
M  V30 3085 C 295.553 -0.644173 1.75235 0
M  V30 3086 C 295.904 -1.78865 0.806335 0
M  V30 3087 O 295.029 -2.16395 -0.0140128 0
M  V30 3088 C 295.624 -1.17532 3.1776 0
M  V30 3089 C 294.183 -1.67531 3.37061 0
M  V30 3090 C 293.33 -0.58693 2.71017 0
M  V30 3091 H 296.281 0.135884 1.58117 0
M  V30 3092 H 296.302 -2.04455 3.20902 0
M  V30 3093 H 295.814 -0.342138 3.86589 0
M  V30 3094 H 293.915 -2.53234 2.73319 0
M  V30 3095 H 294.028 -1.76493 4.45406 0
M  V30 3096 H 292.392 -1.02756 2.33052 0
M  V30 3097 H 293.175 0.235758 3.4249 0
M  V30 3098 N 295.62 -1.53406 -0.361157 0
M  V30 3099 C 296.897 -1.60411 -1.11927 0
M  V30 3100 C 297.277 -0.414385 -2.06993 0
M  V30 3101 O 296.625 0.594976 -2.20618 0
M  V30 3102 C 296.835 -2.95652 -1.85448 0
M  V30 3103 C 298.183 -3.50386 -2.39823 0
M  V30 3104 O 299.207 -2.97711 -1.95568 0
M  V30 3105 O 298.066 -4.42482 -3.20737 0
M  V30 3106 H 295.16 -0.64811 -0.513695 0
M  V30 3107 H 297.706 -1.65749 -0.364065 0
M  V30 3108 H 296.478 -3.73682 -1.16091 0
M  V30 3109 H 296.101 -2.93825 -2.67866 0
M  V30 3110 N 297.098 0.621204 -1.44841 0
M  V30 3111 C 298.046 1.75385 -1.52784 0
M  V30 3112 C 299.04 1.64639 -0.398779 0
M  V30 3113 O 300.246 1.70598 -0.574137 0
M  V30 3114 H 296.621 0.579193 -0.479625 0
M  V30 3115 H 298.592 1.6581 -2.48092 0
M  V30 3116 C 297.341 3.13742 -1.4987 0
M  V30 3117 H 296.664 3.22663 -2.36069 0
M  V30 3118 H 298.104 3.92861 -1.59487 0
M  V30 3119 C 296.563 3.36175 -0.220973 0
M  V30 3120 O 297.093 3.95469 0.704782 0
M  V30 3121 N 295.299 2.90348 -0.120963 0
M  V30 3122 H 294.846 2.42278 -0.875162 0
M  V30 3123 H 294.804 3.05732 0.733168 0
M  V30 3124 N 298.576 1.31904 0.862503 0
M  V30 3125 C 299.523 1.20182 1.9704 0
M  V30 3126 C 300.493 0.0858247 1.65878 0
M  V30 3127 O 301.678 0.26 1.8902 0
M  V30 3128 C 298.818 0.922797 3.32533 0
M  V30 3129 C 297.931 2.12284 3.76244 0
M  V30 3130 C 297.066 1.77996 5.00491 0
M  V30 3131 C 296.105 2.94366 5.36671 0
M  V30 3132 N 295.242 2.60223 6.52095 0
M  V30 3133 H 300.082 2.14951 2.06398 0
M  V30 3134 H 297.619 1.06917 1.01031 0
M  V30 3135 H 299.577 0.741548 4.10557 0
M  V30 3136 H 298.207 0.0119227 3.22798 0
M  V30 3137 H 297.259 2.41461 2.9394 0
M  V30 3138 H 298.571 2.99357 3.98982 0
M  V30 3139 H 297.725 1.56377 5.862 0
M  V30 3140 H 296.464 0.881252 4.79672 0
M  V30 3141 H 295.469 3.16625 4.49476 0
M  V30 3142 H 296.694 3.84957 5.59451 0
M  V30 3143 H 294.64 1.72884 6.32809 0
M  V30 3144 H 294.557 3.40827 6.74814 0
M  V30 3145 H 295.825 2.42016 7.40978 0
M  V30 3146 N 300.054 -1.07777 1.14986 0
M  V30 3147 C 300.964 -2.18404 0.856546 0
M  V30 3148 C 301.98 -1.73211 -0.165485 0
M  V30 3149 O 303.156 -2.01399 0.00755219 0
M  V30 3150 C 300.221 -3.44977 0.34526 0
M  V30 3151 C 299.282 -4.0476 1.43065 0
M  V30 3152 C 298.515 -5.25291 0.943663 0
M  V30 3153 O 298.738 -5.70004 -0.212426 0
M  V30 3154 O 297.672 -5.76638 1.72547 0
M  V30 3155 H 301.498 -2.45978 1.78125 0
M  V30 3156 H 299.083 -1.17033 0.928631 0
M  V30 3157 H 300.965 -4.21348 0.0663671 0
M  V30 3158 H 299.64 -3.18965 -0.551631 0
M  V30 3159 H 298.547 -3.29949 1.76309 0
M  V30 3160 H 299.88 -4.35035 2.30229 0
M  V30 3161 N 301.532 -0.945985 -1.26051 0
M  V30 3162 C 302.48 -0.450259 -2.282 0
M  V30 3163 C 303.474 0.47497 -1.62605 0
M  V30 3164 O 304.68 0.352653 -1.76512 0
M  V30 3165 H 301.055 -0.127081 -0.741184 0
M  V30 3166 H 303.026 -1.32422 -2.67408 0
M  V30 3167 C 301.775 0.26467 -3.46691 0
M  V30 3168 H 301.098 -0.438123 -3.97392 0
M  V30 3169 H 302.538 0.575678 -4.20074 0
M  V30 3170 C 300.997 1.48416 -3.02447 0
M  V30 3171 O 301.527 2.58227 -3.07704 0
M  V30 3172 N 299.733 1.34243 -2.57735 0
M  V30 3173 H 299.28 0.448994 -2.53657 0
M  V30 3174 H 299.238 2.15957 -2.28495 0
M  V30 3175 N 303.011 1.40521 -0.713556 0
M  V30 3176 C 304.251 2.02783 -0.256584 0
M  V30 3177 C 304.615 1.55352 1.12827 0
M  V30 3178 O 305.816 2.09663 1.68211 0
M  V30 3179 C 304.087 3.5586 -0.331414 0
M  V30 3180 S 305.646 4.38773 0.0488703 0
M  V30 3181 H 302.464 0.703655 -0.101934 0
M  V30 3182 H 305.066 1.71674 -0.935325 0
M  V30 3183 H 303.77 3.87874 -1.34098 0
M  V30 3184 H 303.301 3.91695 0.365873 0
M  V30 3185 H 305.316 4.79633 1.2715 0
M  V30 3186 N 304.489 0.459591 1.5075 0
M  V30 3187 C 305.9 0.00171547 1.867 0
M  V30 3188 C 306.251 -1.39934 1.37525 0
M  V30 3189 O 305.376 -2.03523 0.735349 0
M  V30 3190 C 305.971 -0.00366298 3.388 0
M  V30 3191 C 304.53 -0.406026 3.74204 0
M  V30 3192 C 303.677 0.38673 2.7459 0
M  V30 3193 H 306.628 0.674413 1.43657 0
M  V30 3194 H 306.649 -0.808371 3.71814 0
M  V30 3195 H 306.161 1.01617 3.74561 0
M  V30 3196 H 304.262 -1.43063 3.4404 0
M  V30 3197 H 304.375 -0.115362 4.78961 0
M  V30 3198 H 302.739 -0.158019 2.54209 0
M  V30 3199 H 303.522 1.40585 3.13194 0
M  V30 3200 N 305.967 -1.56429 0.191757 0
M  V30 3201 C 307.213 -1.97777 -0.448554 0
M  V30 3202 C 307.546 -1.07847 -1.61501 0
M  V30 3203 O 306.821 -0.129774 -1.94067 0
M  V30 3204 C 307.104 -3.48362 -0.911906 0
M  V30 3205 C 306.957 -4.4907 0.256136 0
M  V30 3206 C 308.276 -4.02561 -1.77857 0
M  V30 3207 H 305.395 -0.719071 -0.161572 0
M  V30 3208 H 308.037 -1.87896 0.282007 0
M  V30 3209 H 306.187 -3.56914 -1.53442 0
M  V30 3210 H 307.859 -4.5256 0.893733 0
M  V30 3211 H 306.102 -4.24181 0.908436 0
M  V30 3212 H 306.773 -5.51889 -0.11053 0
M  V30 3213 H 309.249 -3.96767 -1.25359 0
M  V30 3214 H 308.125 -5.08301 -2.07174 0
M  V30 3215 H 308.386 -3.47616 -2.73158 0
M  V30 3216 N 307.445 0.0818655 -1.57387 0
M  V30 3217 C 308.856 0.634871 -1.75574 0
M  V30 3218 C 309.207 1.78435 -0.815809 0
M  V30 3219 O 308.332 2.164 0.0025366 0
M  V30 3220 C 308.927 1.15845 -3.18379 0
M  V30 3221 C 307.486 1.65741 -3.37945 0
M  V30 3222 C 306.633 0.572549 -2.71325 0
M  V30 3223 H 309.584 -0.144268 -1.58043 0
M  V30 3224 H 309.605 2.02751 -3.21982 0
M  V30 3225 H 309.117 0.321631 -3.86765 0
M  V30 3226 H 307.218 2.51781 -2.74658 0
M  V30 3227 H 307.331 1.74129 -4.46336 0
M  V30 3228 H 305.695 1.01518 -2.33594 0
M  V30 3229 H 306.478 -0.253918 -3.4236 0
M  V30 3230 N 308.923 1.53595 0.353017 0
M  V30 3231 C 310.171 1.70049 1.09215 0
M  V30 3232 C 310.492 0.461406 1.89463 0
M  V30 3233 O 309.762 -0.524633 1.88744 0
M  V30 3234 H 308.342 0.626912 0.40619 0
M  V30 3235 H 311.004 1.90822 0.396585 0
M  V30 3236 H 310.1 2.56718 1.77488 0
M  V30 3237 N 310.401 -0.613514 1.45168 0
M  V30 3238 C 311.348 -1.72456 1.53387 0
M  V30 3239 C 312.318 -1.6169 0.380191 0
M  V30 3240 O 313.503 -1.81356 0.592836 0
M  V30 3241 C 310.643 -3.10753 1.50088 0
M  V30 3242 C 309.756 -3.32368 2.75963 0
M  V30 3243 C 308.891 -4.60737 2.64376 0
M  V30 3244 C 307.93 -4.7559 3.85332 0
M  V30 3245 N 307.067 -5.95253 3.72315 0
M  V30 3246 H 311.907 -1.64768 2.48305 0
M  V30 3247 H 309.444 -0.803503 1.23216 0
M  V30 3248 H 311.402 -3.90758 1.46164 0
M  V30 3249 H 310.032 -3.17413 0.587243 0
M  V30 3250 H 309.084 -2.4618 2.89999 0
M  V30 3251 H 310.396 -3.39218 3.65695 0
M  V30 3252 H 309.55 -5.48928 2.58385 0
M  V30 3253 H 308.289 -4.56275 1.72233 0
M  V30 3254 H 307.294 -3.85824 3.91688 0
M  V30 3255 H 308.519 -4.81854 4.78533 0
M  V30 3256 H 306.465 -5.91847 2.82937 0
M  V30 3257 H 306.382 -6.03236 4.55677 0
M  V30 3258 H 307.65 -6.85958 3.70246 0
M  V30 3259 N 311.879 -1.3236 -0.855495 0
M  V30 3260 C 313.29 -1.2056 -1.42556 0
M  V30 3261 C 313.641 0.182209 -1.95352 0
M  V30 3262 O 312.766 1.08088 -1.87472 0
M  V30 3263 C 313.361 -2.1826 -2.59129 0
M  V30 3264 C 311.92 -2.10351 -3.12137 0
M  V30 3265 C 311.067 -2.06674 -1.84882 0
M  V30 3266 H 314.018 -1.442 -0.662727 0
M  V30 3267 H 314.039 -1.78064 -3.36264 0
M  V30 3268 H 313.551 -3.19257 -2.20673 0
M  V30 3269 H 311.652 -1.12599 -3.55179 0
M  V30 3270 H 311.765 -3.00135 -3.73438 0
M  V30 3271 H 310.129 -1.51901 -2.04446 0
M  V30 3272 H 310.912 -3.09451 -1.48643 0
M  V30 3273 N 313.357 1.07166 -1.15556 0
M  V30 3274 C 314.605 1.79443 -0.929764 0
M  V30 3275 C 314.926 1.87246 0.544414 0
M  V30 3276 O 314.196 1.37473 1.39564 0
M  V30 3277 H 312.776 0.664625 -0.341003 0
M  V30 3278 H 315.438 1.29499 -1.45657 0
M  V30 3279 H 314.534 2.81832 -1.34079 0
M  V30 3280 N 314.835 0.952656 1.25548 0
M  V30 3281 C 315.745 0.47782 2.29682 0
M  V30 3282 C 316.761 -0.453859 1.67977 0
M  V30 3283 O 317.937 -0.330587 1.98668 0
M  V30 3284 C 315.002 -0.238655 3.45878 0
M  V30 3285 C 314.063 0.730994 4.23031 0
M  V30 3286 C 313.296 0.0486165 5.33678 0
M  V30 3287 O 313.519 -1.16612 5.58353 0
M  V30 3288 O 312.453 0.733152 5.97418 0
M  V30 3289 H 316.279 1.34312 2.72386 0
M  V30 3290 H 313.864 0.719026 1.30959 0
M  V30 3291 H 315.746 -0.641774 4.16484 0
M  V30 3292 H 314.421 -1.07916 3.05181 0
M  V30 3293 H 313.328 1.18428 3.5486 0
M  V30 3294 H 314.661 1.53946 4.67506 0
M  V30 3295 N 316.313 -1.40141 0.720998 0
M  V30 3296 C 317.276 -2.29058 0.0805834 0
M  V30 3297 C 318.276 -1.45632 -0.681758 0
M  V30 3298 O 319.466 -1.6648 -0.512856 0
M  V30 3299 C 316.598 -3.28925 -0.895593 0
M  V30 3300 H 317.791 -2.87191 0.863793 0
M  V30 3301 H 315.344 -1.48553 0.485975 0
M  V30 3302 H 316.079 -2.75822 -1.70566 0
M  V30 3303 H 315.864 -3.90519 -0.351766 0
M  V30 3304 H 317.354 -3.95494 -1.34069 0
M  V30 3305 N 317.792 -0.46758 -1.50504 0
M  V30 3306 C 319.038 0.0887532 -2.02606 0
M  V30 3307 C 319.371 1.39686 -1.34913 0
M  V30 3308 O 318.646 1.88644 -0.473694 0
M  V30 3309 C 318.929 0.276206 -3.59039 0
M  V30 3310 C 318.782 -1.05267 -4.37309 0
M  V30 3311 C 320.101 1.03235 -4.27821 0
M  V30 3312 H 317.22 0.0307814 -0.736357 0
M  V30 3313 H 319.862 -0.612485 -1.79857 0
M  V30 3314 H 318.012 0.8735 -3.78553 0
M  V30 3315 H 319.684 -1.68628 -4.29374 0
M  V30 3316 H 317.927 -1.65015 -4.01189 0
M  V30 3317 H 318.598 -0.875197 -5.45018 0
M  V30 3318 H 321.074 0.526111 -4.12761 0
M  V30 3319 H 319.95 1.1323 -5.37094 0
M  V30 3320 H 320.211 2.06806 -3.90748 0
M  V30 3321 N 319.27 1.56325 -0.20005 0
M  V30 3322 C 320.233 2.18084 0.705132 0
M  V30 3323 C 321.233 1.13666 1.1374 0
M  V30 3324 O 322.423 1.39023 1.04968 0
M  V30 3325 C 319.555 2.78689 1.96329 0
M  V30 3326 H 320.748 2.99435 0.167023 0
M  V30 3327 H 318.301 1.56221 0.0495725 0
M  V30 3328 H 319.036 2.0115 2.5438 0
M  V30 3329 H 318.821 3.55133 1.66202 0
M  V30 3330 H 320.311 3.26096 2.60866 0
M  V30 3331 N 320.748 -0.0735177 1.57428 0
M  V30 3332 C 321.711 -1.07192 2.02589 0
M  V30 3333 C 322.711 -1.31695 0.922661 0
M  V30 3334 O 323.901 -1.27445 1.18758 0
M  V30 3335 C 321.033 -2.41599 2.40506 0
M  V30 3336 H 322.226 -0.682727 2.92025 0
M  V30 3337 H 319.779 -0.319193 1.53006 0
M  V30 3338 H 320.514 -2.85354 1.5409 0
M  V30 3339 H 320.299 -2.25156 3.21009 0
M  V30 3340 H 321.789 -3.13367 2.76027 0
M  V30 3341 N 322.226 -1.5378 -0.344866 0
M  V30 3342 C 323.642 -1.44015 -0.687888 0
M  V30 3343 C 323.842 -0.595834 -1.92489 0
M  V30 3344 O 322.898 -0.0863064 -2.52352 0
M  V30 3345 C 324.211 -2.87481 -0.881758 0
M  V30 3346 C 325.759 -2.97247 -0.980459 0
M  V30 3347 C 326.234 -4.41819 -1.20665 0
M  V30 3348 N 327.725 -4.45339 -1.27389 0
M  V30 3349 C 328.46 -5.54333 -1.46639 0
M  V30 3350 N 327.956 -6.73335 -1.63071 0
M  V30 3351 N 329.749 -5.41944 -1.49176 0
M  V30 3352 H 321.9 -2.07169 0.468475 0
M  V30 3353 H 324.163 -0.93643 0.147655 0
M  V30 3354 H 323.869 -3.51672 -0.0443444 0
M  V30 3355 H 323.743 -3.32352 -1.78388 0
M  V30 3356 H 326.13 -2.33197 -1.8084 0
M  V30 3357 H 326.211 -2.5574 -0.0552713 0
M  V30 3358 H 325.855 -5.06449 -0.383652 0
M  V30 3359 H 325.785 -4.80917 -2.14539 0
M  V30 3360 H 328.276 -3.59585 -1.1622 0
M  V30 3361 H 328.589 -7.52165 -1.77391 0
M  V30 3362 H 326.934 -6.76282 -1.60209 0
M  V30 3363 H 330.125 -4.47932 -1.3592 0
M  V30 3364 H 330.298 -6.26946 -1.63837 0
M  V30 3365 N 323.704 0.605807 -1.45491 0
M  V30 3366 C 324.651 1.7164 -1.54299 0
M  V30 3367 C 325.621 1.61486 -0.388761 0
M  V30 3368 O 326.806 1.81039 -0.602445 0
M  V30 3369 C 323.946 3.09953 -1.51734 0
M  V30 3370 C 323.059 3.309 -2.77721 0
M  V30 3371 C 322.194 4.59329 -2.66816 0
M  V30 3372 C 321.233 4.7354 -3.87848 0
M  V30 3373 N 320.37 5.9327 -3.75467 0
M  V30 3374 H 325.21 1.63449 -2.49176 0
M  V30 3375 H 322.747 0.796957 -1.23641 0
M  V30 3376 H 324.705 3.89977 -1.48235 0
M  V30 3377 H 323.335 3.17098 -0.604068 0
M  V30 3378 H 322.387 2.44639 -2.913 0
M  V30 3379 H 323.699 3.37274 -3.67488 0
M  V30 3380 H 322.853 5.4755 -2.61292 0
M  V30 3381 H 321.592 4.55355 -1.74651 0
M  V30 3382 H 320.597 3.83741 -3.93729 0
M  V30 3383 H 321.822 4.79309 -4.81082 0
M  V30 3384 H 319.768 5.90338 -2.86072 0
M  V30 3385 H 319.685 6.00811 -4.5887 0
M  V30 3386 H 320.953 6.83984 -3.73879 0
M  V30 3387 N 325.182 1.32811 0.848464 0
M  V30 3388 C 326.112 1.24882 1.97299 0
M  V30 3389 C 327.093 0.131357 1.69592 0
M  V30 3390 O 328.278 0.319553 1.91553 0
M  V30 3391 C 325.408 0.97746 3.33261 0
M  V30 3392 C 324.362 2.05682 3.75338 0
M  V30 3393 C 323.688 1.63777 5.09 0
M  V30 3394 C 324.988 3.47254 3.90144 0
M  V30 3395 H 326.682 2.18966 2.04191 0
M  V30 3396 H 324.228 1.05413 0.981029 0
M  V30 3397 H 326.181 0.908513 4.1149 0
M  V30 3398 H 324.905 0.000980011 3.266 0
M  V30 3399 H 323.564 2.11603 2.99366 0
M  V30 3400 H 323.212 0.648569 4.98801 0
M  V30 3401 H 322.912 2.36 5.38124 0
M  V30 3402 H 324.436 1.5833 5.89715 0
M  V30 3403 H 325.85 3.43888 4.58709 0
M  V30 3404 H 324.247 4.1788 4.30693 0
M  V30 3405 H 325.317 3.86462 2.92874 0
M  V30 3406 N 326.66 -1.06551 1.16123 0
M  V30 3407 C 327.907 -1.79302 0.941126 0
M  V30 3408 C 328.235 -1.87105 -0.531235 0
M  V30 3409 O 327.49 -1.35692 -1.41018 0
M  V30 3410 C 327.789 -3.23911 1.51052 0
M  V30 3411 C 327.455 -3.36193 3.00475 0
M  V30 3412 C 326.117 -3.39252 3.41265 0
M  V30 3413 C 328.469 -3.38326 3.96465 0
M  V30 3414 C 325.797 -3.42057 4.76669 0
M  V30 3415 C 328.149 -3.4267 5.31752 0
M  V30 3416 C 326.813 -3.4401 5.72026 0
M  V30 3417 H 326.083 -0.656111 0.344382 0
M  V30 3418 H 328.73 -1.25325 1.44796 0
M  V30 3419 H 327.035 -3.80723 0.925063 0
M  V30 3420 H 328.732 -3.78793 1.31593 0
M  V30 3421 H 325.322 -3.34516 2.6795 0
M  V30 3422 H 329.506 -3.35176 3.6602 0
M  V30 3423 H 324.762 -3.41398 5.07206 0
M  V30 3424 H 328.936 -3.43268 6.05921 0
M  V30 3425 H 326.563 -3.45937 6.76928 0
M  V30 3426 N 328.138 -0.959301 -1.25041 0
M  V30 3427 C 329.101 -0.487677 -2.23952 0
M  V30 3428 C 330.101 0.41119 -1.55454 0
M  V30 3429 O 331.291 0.207825 -1.72956 0
M  V30 3430 C 328.423 0.294807 -3.39623 0
M  V30 3431 H 329.616 -1.36198 -2.67189 0
M  V30 3432 H 327.169 -0.743042 -1.37508 0
M  V30 3433 H 327.904 1.18658 -3.01813 0
M  V30 3434 H 327.689 -0.35012 -3.90534 0
M  V30 3435 H 329.179 0.614089 -4.1306 0
M  V30 3436 N 329.616 1.39756 -0.72842 0
M  V30 3437 C 331.027 1.83498 -0.344289 0
M  V30 3438 C 331.378 1.60868 1.12321 0
M  V30 3439 O 330.503 1.09634 1.86573 0
M  V30 3440 C 331.098 3.33114 -0.618112 0
M  V30 3441 C 329.657 3.753 -0.287549 0
M  V30 3442 C 328.804 2.62831 -0.884048 0
M  V30 3443 H 331.755 1.28842 -0.926578 0
M  V30 3444 H 331.776 3.80334 0.112349 0
M  V30 3445 H 331.288 3.49553 -1.68625 0
M  V30 3446 H 329.389 3.64451 0.775012 0
M  V30 3447 H 329.502 4.72945 -0.765512 0
M  V30 3448 H 327.866 2.52792 -0.311149 0
M  V30 3449 H 328.649 2.82078 -1.95671 0
M  V30 3450 N 331.094 0.475555 1.50254 0
M  V30 3451 C 332.026 -0.352649 2.26471 0
M  V30 3452 C 333.039 -0.953165 1.3198 0
M  V30 3453 O 334.228 -0.840815 1.57457 0
M  V30 3454 C 331.328 -1.50902 3.0345 0
M  V30 3455 C 330.501 -1.02047 4.25329 0
M  V30 3456 C 329.56 -2.05142 4.84565 0
M  V30 3457 O 328.586 -1.63023 5.45355 0
M  V30 3458 N 329.788 -3.37987 4.71959 0
M  V30 3459 H 332.553 0.300767 2.98187 0
M  V30 3460 H 330.114 0.306598 1.5897 0
M  V30 3461 H 332.106 -2.19572 3.39956 0
M  V30 3462 H 330.676 -2.06705 2.34504 0
M  V30 3463 H 329.896 -0.159507 3.93877 0
M  V30 3464 H 331.184 -0.672061 5.04342 0
M  V30 3465 H 330.582 -3.74913 4.23623 0
M  V30 3466 H 329.139 -4.02443 5.12721 0
M  V30 3467 N 332.573 -1.56217 0.208337 0
M  V30 3468 C 333.505 -2.1695 -0.739276 0
M  V30 3469 C 334.518 -1.13492 -1.1672 0
M  V30 3470 O 335.707 -1.40529 -1.10063 0
M  V30 3471 C 332.807 -2.72755 -2.01142 0
M  V30 3472 C 331.98 -4.0125 -1.74118 0
M  V30 3473 C 331.039 -4.41749 -2.85909 0
M  V30 3474 O 330.065 -5.08912 -2.54946 0
M  V30 3475 N 331.267 -4.06342 -4.14568 0
M  V30 3476 H 334.032 -2.98893 -0.219837 0
M  V30 3477 H 331.593 -1.61878 0.0268445 0
M  V30 3478 H 333.585 -2.96826 -2.75094 0
M  V30 3479 H 332.155 -1.95191 -2.4417 0
M  V30 3480 H 331.375 -3.85173 -0.838775 0
M  V30 3481 H 332.663 -4.851 -1.53477 0
M  V30 3482 H 332.061 -3.52345 -4.42571 0
M  V30 3483 H 330.618 -4.35335 -4.85105 0
M  V30 3484 N 334.051 0.0651679 -1.57465 0
M  V30 3485 C 335.3 0.761916 -1.86756 0
M  V30 3486 C 335.613 1.78406 -0.801925 0
M  V30 3487 O 336.819 2.53084 -0.982885 0
M  V30 3488 C 335.275 1.40603 -3.31299 0
M  V30 3489 C 334.883 0.422115 -4.46007 0
M  V30 3490 C 336.627 2.08476 -3.69781 0
M  V30 3491 C 334.534 1.07252 -5.81593 0
M  V30 3492 H 333.464 0.288308 -0.696702 0
M  V30 3493 H 336.115 0.015344 -1.83494 0
M  V30 3494 H 334.497 2.20109 -3.29193 0
M  V30 3495 H 335.671 -0.343613 -4.59517 0
M  V30 3496 H 333.986 -0.152527 -4.16121 0
M  V30 3497 H 336.583 2.57925 -4.68379 0
M  V30 3498 H 336.926 2.88712 -2.99919 0
M  V30 3499 H 337.459 1.35792 -3.73905 0
M  V30 3500 H 334.198 0.310342 -6.54765 0
M  V30 3501 H 333.718 1.80895 -5.71872 0
M  V30 3502 H 335.397 1.59043 -6.27148 0
M  V30 3503 N 335.529 1.53961 0.336706 0
M  V30 3504 C 336.459 1.85417 1.41925 0
M  V30 3505 C 337.44 0.709856 1.5458 0
M  V30 3506 O 338.625 0.962396 1.68676 0
M  V30 3507 C 335.755 2.06985 2.78881 0
M  V30 3508 C 334.709 3.22813 2.81026 0
M  V30 3509 C 334.035 3.29727 4.20932 0
M  V30 3510 C 335.335 4.60767 2.45949 0
M  V30 3511 H 337.029 2.76079 1.15848 0
M  V30 3512 H 334.575 1.32839 0.555859 0
M  V30 3513 H 336.528 2.27575 3.54665 0
M  V30 3514 H 335.252 1.13061 3.06406 0
M  V30 3515 H 333.911 3.0209 2.07695 0
M  V30 3516 H 333.559 2.33385 4.45579 0
M  V30 3517 H 333.259 4.07566 4.23277 0
M  V30 3518 H 334.783 3.52536 4.98549 0
M  V30 3519 H 336.197 4.81325 3.11446 0
M  V30 3520 H 334.594 5.4106 2.59566 0
M  V30 3521 H 335.664 4.6391 1.41122 0
M  V30 3522 N 337.007 -0.598083 1.45811 0
M  V30 3523 C 337.939 -1.72231 1.51225 0
M  V30 3524 C 338.952 -1.57757 0.402059 0
M  V30 3525 O 340.141 -1.65464 0.669624 0
M  V30 3526 C 337.241 -3.10331 1.3619 0
M  V30 3527 C 336.414 -3.50955 2.61054 0
M  V30 3528 C 335.473 -4.68055 2.40439 0
M  V30 3529 O 334.499 -4.74691 3.14097 0
M  V30 3530 N 335.701 -5.61941 1.45612 0
M  V30 3531 H 338.466 -1.68046 2.48154 0
M  V30 3532 H 336.027 -0.783637 1.41671 0
M  V30 3533 H 338.019 -3.86439 1.20195 0
M  V30 3534 H 336.589 -3.0897 0.475015 0
M  V30 3535 H 335.809 -2.64711 2.92099 0
M  V30 3536 H 337.097 -3.74858 3.44034 0
M  V30 3537 H 336.495 -5.59301 0.848431 0
M  V30 3538 H 335.052 -6.37542 1.35585 0
M  V30 3539 N 338.485 -1.33259 -0.841409 0
M  V30 3540 C 339.725 -1.25902 -1.61022 0
M  V30 3541 C 340.089 0.173325 -1.91216 0
M  V30 3542 O 341.29 0.370824 -2.6623 0
M  V30 3543 C 339.561 -2.10735 -2.88662 0
M  V30 3544 S 341.12 -2.20541 -3.79351 0
M  V30 3545 H 337.938 -0.447958 -0.552137 0
M  V30 3546 H 340.54 -1.68263 -0.995382 0
M  V30 3547 H 339.244 -3.1384 -2.64448 0
M  V30 3548 H 338.775 -1.69201 -3.55154 0
M  V30 3549 H 340.79 -1.36462 -4.77067 0
M  V30 3550 N 339.963 1.05934 -1.16686 0
M  V30 3551 C 341.188 1.83029 -0.975455 0
M  V30 3552 C 341.613 1.82096 0.471452 0
M  V30 3553 O 340.971 1.22443 1.33706 0
M  V30 3554 C 341.019 3.27372 -1.51195 0
M  V30 3555 O 340.123 4.06054 -0.720701 0
M  V30 3556 H 339.464 0.566194 -0.346872 0
M  V30 3557 H 341.994 1.33541 -1.55009 0
M  V30 3558 H 342.004 3.78186 -1.53099 0
M  V30 3559 H 340.679 3.27366 -2.56523 0
M  V30 3560 H 339.256 3.64812 -0.772458 0
M  V30 3561 N 341.441 0.965919 1.2453 0
M  V30 3562 C 342.852 0.665929 1.7442 0
M  V30 3563 C 343.203 -0.818407 1.78316 0
M  V30 3564 O 342.328 -1.64037 1.41141 0
M  V30 3565 C 342.923 1.20211 3.16757 0
M  V30 3566 C 341.482 0.952059 3.6416 0
M  V30 3567 C 340.629 1.33848 2.42858 0
M  V30 3568 H 343.58 1.14144 1.10258 0
M  V30 3569 H 343.601 0.567544 3.76244 0
M  V30 3570 H 343.113 2.28244 3.13889 0
M  V30 3571 H 341.214 -0.112821 3.72429 0
M  V30 3572 H 341.327 1.59645 4.51719 0
M  V30 3573 H 339.691 0.756864 2.43195 0
M  V30 3574 H 340.474 2.42827 2.42673 0
M  V30 3575 N 342.919 -1.39368 0.735821 0
M  V30 3576 C 343.882 -2.2896 0.104874 0
M  V30 3577 C 344.882 -1.46347 -0.666274 0
M  V30 3578 O 346.072 -1.67014 -0.49517 0
M  V30 3579 C 343.204 -3.29857 -0.860656 0
M  V30 3580 H 344.397 -2.86259 0.894205 0
M  V30 3581 H 341.95 -1.48029 0.501704 0
M  V30 3582 H 342.685 -2.77615 -1.67631 0
M  V30 3583 H 342.47 -3.9087 -0.310327 0
M  V30 3584 H 343.96 -3.96893 -1.29867 0
M  V30 3585 N 344.397 -0.483516 -1.5 0
M  V30 3586 C 345.345 0.318061 -2.30415 0
M  V30 3587 C 346.339 0.978988 -1.38247 0
M  V30 3588 O 347.545 0.908673 -1.55381 0
M  V30 3589 H 343.92 0.121419 -0.742133 0
M  V30 3590 H 345.891 -0.380403 -2.95965 0
M  V30 3591 C 344.64 1.38013 -3.19136 0
M  V30 3592 H 343.963 0.880952 -3.89973 0
M  V30 3593 H 345.403 1.91332 -3.78375 0
M  V30 3594 C 343.862 2.38884 -2.37563 0
M  V30 3595 O 344.392 3.44412 -2.06744 0
M  V30 3596 N 342.598 2.10912 -1.99911 0
M  V30 3597 H 342.145 1.25118 -2.25174 0
M  V30 3598 H 342.103 2.78635 -1.45636 0
M  V30 3599 O 345.914 1.57479 -0.358152 0
M  V30 3600 H 346.605 1.92725 0.1941 0
M  V30 END ATOM
M  V30 BEGIN BOND
M  V30 END BOND
M  V30 END CTAB
M  END
$$$$
