drugbank_target|Q9WYE2 Alpha-L-fucosidase, putative (DB03283; DB03801)
 OpenBabel12092120223D

  0  0  0     0  0            999 V3000
M  V30 BEGIN CTAB
M  V30 COUNTS 7282 7403 0 0 0
M  V30 BEGIN ATOM
M  V30 1 H -0.908 1.98254 -0.117106 0
M  V30 2 N 0 1.576 0 0
M  V30 3 C 0.933 2.03868 1.02534 0
M  V30 4 C 1.911 0.928543 1.3348 0
M  V30 5 O 3.095 1.19667 1.45644 0
M  V30 6 C 0.222 2.43627 2.35294 0
M  V30 7 C -0.732 3.65373 2.2001 0
M  V30 8 S 0.101 5.13292 1.52614 0
M  V30 9 C 1.257 5.56322 2.86805 0
M  V30 10 H 1.49 2.90518 0.631377 0
M  V30 11 H -0.977 1.52953 0.210867 0
M  V30 12 H 0.981 2.67203 3.11629 0
M  V30 13 H -0.358 1.57376 2.7183 0
M  V30 14 H -1.165 3.90944 3.18086 0
M  V30 15 H -1.563 3.418 1.51819 0
M  V30 16 H 0.729 5.58782 3.83104 0
M  V30 17 H 1.672 6.56266 2.65933 0
M  V30 18 H 2.08 4.83886 2.90714 0
M  V30 19 N 1.4781 -0.272755 1.55222 0
M  V30 20 C 2.7271 -1.00211 1.75045 0
M  V30 21 C 3.0401 -1.87441 0.559046 0
M  V30 22 O 4.2461 -2.63856 0.639698 0
M  V30 23 C 2.7021 -1.83165 3.09804 0
M  V30 24 C 2.3101 -1.008 4.36513 0
M  V30 25 C 4.0541 -2.55529 3.38977 0
M  V30 26 C 1.9611 -1.83194 5.62311 0
M  V30 27 H 0.8911 -0.377878 0.652476 0
M  V30 28 H 3.5421 -0.257776 1.8168 0
M  V30 29 H 1.9241 -2.61694 2.97207 0
M  V30 30 H 3.0981 -0.266855 4.60027 0
M  V30 31 H 1.4131 -0.398897 4.14485 0
M  V30 32 H 4.0101 -3.17578 4.30172 0
M  V30 33 H 4.3531 -3.25825 2.59121 0
M  V30 34 H 4.8861 -1.84029 3.52673 0
M  V30 35 H 1.6251 -1.17318 6.44916 0
M  V30 36 H 1.1451 -2.54905 5.4294 0
M  V30 37 H 2.8241 -2.40552 6.00619 0
M  V30 38 N 2.9562 -1.48159 -0.537278 0
M  V30 39 C 4.1812 -1.59707 -1.32319 0
M  V30 40 C 4.6062 -0.254859 -1.86365 0
M  V30 41 O 3.9642 0.772378 -1.64024 0
M  V30 42 C 4.0122 -2.6412 -2.45505 0
M  V30 43 O 3.1162 -2.20774 -3.48328 0
M  V30 44 H 2.4572 -0.535791 -0.392204 0
M  V30 45 H 4.9872 -1.94092 -0.647268 0
M  V30 46 H 4.9972 -2.85166 -2.91795 0
M  V30 47 H 3.6722 -3.61567 -2.05528 0
M  V30 48 H 2.2492 -2.09911 -3.08207 0
M  V30 49 N 4.4343 0.785586 -1.36625 0
M  V30 50 C 5.3673 1.90509 -1.25625 0
M  V30 51 C 6.3453 1.62 -0.139607 0
M  V30 52 O 7.5293 1.8591 -0.31141 0
M  V30 53 C 4.6563 3.25419 -0.939158 0
M  V30 54 C 3.7023 3.72856 -2.07077 0
M  V30 55 S 4.5353 3.88162 -3.68904 0
M  V30 56 C 5.6913 5.25942 -3.39317 0
M  V30 57 H 5.9243 1.99549 -2.20381 0
M  V30 58 H 3.4573 0.945226 -1.22085 0
M  V30 59 H 5.4153 4.03346 -0.763029 0
M  V30 60 H 4.0763 3.14099 -0.00931402 0
M  V30 61 H 3.2693 4.70624 -1.80357 0
M  V30 62 H 2.8713 3.01989 -2.20632 0
M  V30 63 H 5.1633 6.10651 -2.93447 0
M  V30 64 H 6.1063 5.57668 -4.36363 0
M  V30 65 H 6.5143 4.93224 -2.74573 0
M  V30 66 N 5.9124 1.20967 1.01018 0
M  V30 67 C 6.8594 0.964281 2.09691 0
M  V30 68 C 7.8294 -0.107853 1.65749 0
M  V30 69 O 9.0144 0.0381987 1.90762 0
M  V30 70 C 6.1544 0.52943 3.41015 0
M  V30 71 C 5.2674 1.67043 3.98398 0
M  V30 72 C 4.4024 1.18525 5.17808 0
M  V30 73 C 3.4414 2.29892 5.67288 0
M  V30 74 N 2.5784 1.82546 6.77954 0
M  V30 75 H 7.4184 1.89463 2.30017 0
M  V30 76 H 4.9554 0.944289 1.1279 0
M  V30 77 H 6.9134 0.258588 4.16398 0
M  V30 78 H 5.5434 -0.363919 3.20742 0
M  V30 79 H 4.5954 2.05603 3.20049 0
M  V30 80 H 5.9074 2.50877 4.31117 0
M  V30 81 H 5.0614 0.870762 6.00419 0
M  V30 82 H 3.8004 0.316887 4.86669 0
M  V30 83 H 2.8054 2.6215 4.83278 0
M  V30 84 H 4.0304 3.17216 6.00459 0
M  V30 85 H 1.9764 0.980454 6.48632 0
M  V30 86 H 1.8934 2.59956 7.09901 0
M  V30 87 H 3.1614 1.54115 7.64113 0
M  V30 88 N 7.3905 -1.2043 1.01659 0
M  V30 89 C 8.8015 -1.71517 0.737482 0
M  V30 90 C 9.1525 -1.81547 -0.743973 0
M  V30 91 O 8.2775 -1.47803 -1.58061 0
M  V30 92 C 8.8725 -3.11515 1.33206 0
M  V30 93 C 7.4315 -3.59912 1.10183 0
M  V30 94 C 6.5785 -2.37116 1.43776 0
M  V30 95 H 9.5295 -1.05444 1.18606 0
M  V30 96 H 9.5505 -3.73575 0.722636 0
M  V30 97 H 9.0625 -3.04182 2.41028 0
M  V30 98 H 7.1635 -3.72577 0.0412756 0
M  V30 99 H 7.2765 -4.44731 1.78188 0
M  V30 100 H 5.6405 -2.39857 0.856778 0
M  V30 101 H 6.4235 -2.32424 2.52654 0
M  V30 102 N 8.8686 -0.792821 -1.36206 0
M  V30 103 C 10.2846 -0.474903 -1.52371 0
M  V30 104 C 10.4846 1.00622 -1.74578 0
M  V30 105 O 9.5406 1.79162 -1.77924 0
M  V30 106 C 10.8536 -1.3083 -2.70747 0
M  V30 107 C 12.4016 -1.30234 -2.84619 0
M  V30 108 C 12.8766 -2.11956 -4.06004 0
M  V30 109 N 14.3676 -2.09419 -4.13156 0
M  V30 110 C 15.1026 -2.69419 -5.06163 0
M  V30 111 N 14.5986 -3.3829 -6.04592 0
M  V30 112 N 16.3916 -2.59134 -4.98804 0
M  V30 113 H 8.5426 -1.75222 -1.20046 0
M  V30 114 H 10.8056 -0.745024 -0.586211 0
M  V30 115 H 10.5116 -2.35881 -2.6087 0
M  V30 116 H 10.3856 -0.95196 -3.6499 0
M  V30 117 H 12.7726 -0.259748 -2.93955 0
M  V30 118 H 12.8536 -1.69847 -1.91274 0
M  V30 119 H 12.4976 -3.16248 -3.97429 0
M  V30 120 H 12.4276 -1.69711 -4.98503 0
M  V30 121 H 14.9186 -1.59297 -3.42685 0
M  V30 122 H 15.2316 -3.81394 -6.7213 0
M  V30 123 H 13.5766 -3.42393 -6.04807 0
M  V30 124 H 16.7676 -2.04927 -4.20859 0
M  V30 125 H 16.9406 -3.06185 -5.711 0
M  V30 126 N 10.3467 1.47872 -0.545128 0
M  V30 127 C 11.5767 2.06589 -0.0210534 0
M  V30 128 C 11.9847 1.39997 1.27269 0
M  V30 129 O 11.3277 0.486421 1.77143 0
M  V30 130 C 11.3897 3.58574 0.257933 0
M  V30 131 C 11.0537 4.47132 -0.944573 0
M  V30 132 C 12.0507 4.85986 -1.84699 0
M  V30 133 C 9.7357 4.88821 -1.15584 0
M  V30 134 C 11.7297 5.65314 -2.94446 0
M  V30 135 C 9.4167 5.67916 -2.25642 0
M  V30 136 C 10.4147 6.06073 -3.14905 0
M  V30 137 O 10.1027 6.83578 -4.23057 0
M  V30 138 H 9.8347 0.674971 -0.0372899 0
M  V30 139 H 12.3887 1.91037 -0.754599 0
M  V30 140 H 10.6187 3.72295 1.04564 0
M  V30 141 H 12.3077 3.99356 0.72592 0
M  V30 142 H 13.0737 4.54388 -1.69577 0
M  V30 143 H 8.9527 4.58595 -0.470279 0
M  V30 144 H 12.4967 5.95016 -3.64145 0
M  V30 145 H 8.3937 5.98927 -2.40742 0
M  V30 146 H 9.1617 7.01954 -4.20954 0
M  V30 147 N 11.8248 0.280983 1.55075 0
M  V30 148 C 12.7718 -0.603937 2.22758 0
M  V30 149 C 13.7418 -1.1452 1.20309 0
M  V30 150 O 14.9268 -1.19343 1.48869 0
M  V30 151 C 12.0668 -1.77947 2.95684 0
M  V30 152 C 11.1798 -1.2715 4.12864 0
M  V30 153 C 10.3148 -2.4093 4.7342 0
M  V30 154 C 9.3538 -1.87165 5.82783 0
M  V30 155 N 8.4908 -2.94441 6.37377 0
M  V30 156 H 13.3308 -0.020124 2.97993 0
M  V30 157 H 10.8678 0.00183425 1.471 0
M  V30 158 H 12.8258 -2.47055 3.36184 0
M  V30 159 H 11.4558 -2.33522 2.22861 0
M  V30 160 H 10.5078 -0.473331 3.77444 0
M  V30 161 H 11.8198 -0.837751 4.91715 0
M  V30 162 H 10.9738 -3.18021 5.1667 0
M  V30 163 H 9.7128 -2.87623 3.93859 0
M  V30 164 H 8.7178 -1.08556 5.38976 0
M  V30 165 H 9.9428 -1.41401 6.64216 0
M  V30 166 H 7.8888 -3.40505 5.60707 0
M  V30 167 H 7.8058 -2.55501 7.11516 0
M  V30 168 H 9.0738 -3.71489 6.85285 0
M  V30 169 N 13.3029 -1.57598 0.00835791 0
M  V30 170 C 14.7139 -1.7892 -0.53333 0
M  V30 171 C 15.0649 -0.916609 -1.73473 0
M  V30 172 O 14.1899 -0.121336 -2.1606 0
M  V30 173 C 14.7849 -3.24488 -0.974313 0
M  V30 174 C 13.3439 -3.46878 -1.46125 0
M  V30 175 C 12.4909 -2.74157 -0.416302 0
M  V30 176 H 15.4419 -1.56958 0.234495 0
M  V30 177 H 15.4629 -3.3306 -1.83988 0
M  V30 178 H 14.9749 -3.87972 -0.099718 0
M  V30 179 H 13.0759 -2.8862 -2.35646 0
M  V30 180 H 13.1889 -4.55572 -1.48295 0
M  V30 181 H 11.5529 -2.39022 -0.87981 0
M  V30 182 H 12.3359 -3.40345 0.44947 0
M  V30 183 N 14.781 0.264519 -1.55364 0
M  V30 184 C 16.058 1.01677 -1.67096 0
M  V30 185 C 16.438 2.03996 -0.543015 0
M  V30 186 O 15.786 2.23907 0.45585 0
M  V30 187 C 15.996 1.66596 -3.0667 0
M  V30 188 C 17.344 2.17442 -3.64697 0
M  V30 189 O 18.368 1.76568 -3.09358 0
M  V30 190 O 17.227 2.92439 -4.61673 0
M  V30 191 H 14.321 0.472161 -0.678965 0
M  V30 192 H 16.867 0.259703 -1.67701 0
M  V30 193 H 15.639 0.924962 -3.80211 0
M  V30 194 H 15.262 2.48968 -3.10001 0
M  V30 195 N 16.2591 1.48442 0.529413 0
M  V30 196 C 17.5051 1.57699 1.28463 0
M  V30 197 C 17.8601 0.247913 1.90796 0
M  V30 198 O 17.1531 -0.749279 1.76342 0
M  V30 199 C 17.3471 2.6523 2.39558 0
M  V30 200 C 17.1761 4.08464 1.88114 0
M  V30 201 C 15.9461 4.75596 1.70693 0
M  V30 202 C 18.1441 4.94613 1.40935 0
M  V30 203 N 16.1261 6.03245 1.13881 0
M  V30 204 C 17.4971 6.12511 0.960734 0
M  V30 205 C 19.5521 4.80833 1.29243 0
M  V30 206 C 18.2551 7.18149 0.406792 0
M  V30 207 C 20.2811 5.86593 0.752487 0
M  V30 208 C 19.6431 7.037 0.313946 0
M  V30 209 H 15.7421 0.631608 0.46108 0
M  V30 210 H 18.3261 1.85325 0.596886 0
M  V30 211 H 16.4971 2.39425 3.05827 0
M  V30 212 H 18.2291 2.64169 3.06589 0
M  V30 213 H 14.9841 4.31938 1.94232 0
M  V30 214 H 15.4081 6.71324 0.874831 0
M  V30 215 H 20.0501 3.90635 1.61754 0
M  V30 216 H 17.7681 8.0807 0.0693671 0
M  V30 217 H 21.3541 5.77985 0.665192 0
M  V30 218 H 20.2341 7.8414 -0.0973632 0
M  V30 219 N 17.7372 -0.778329 1.37039 0
M  V30 220 C 18.6472 -1.92253 1.34446 0
M  V30 221 C 19.6632 -1.72267 0.244991 0
M  V30 222 O 20.8392 -1.95615 0.479258 0
M  V30 223 C 17.9042 -3.27282 1.144 0
M  V30 224 C 16.9652 -3.59969 2.33925 0
M  V30 225 C 16.1982 -4.88555 2.14825 0
M  V30 226 O 16.4212 -5.59113 1.12912 0
M  V30 227 O 15.3552 -5.20153 3.02861 0
M  V30 228 H 19.1812 -1.97392 2.30803 0
M  V30 229 H 16.7662 -0.920154 1.17701 0
M  V30 230 H 18.6482 -4.08062 1.05182 0
M  V30 231 H 17.3232 -3.23011 0.211124 0
M  V30 232 H 16.2302 -2.7945 2.48714 0
M  V30 233 H 17.5632 -3.68976 3.25757 0
M  V30 234 N 19.2153 -1.21501 -1.00376 0
M  V30 235 C 20.4403 -1.05977 -1.78279 0
M  V30 236 C 20.8653 0.385994 -1.84097 0
M  V30 237 O 20.2233 1.27849 -1.28547 0
M  V30 238 C 20.2713 -1.66302 -3.19963 0
M  V30 239 O 19.3753 -0.909333 -4.0225 0
M  V30 240 H 18.7163 -0.372906 -0.549397 0
M  V30 241 H 21.2463 -1.6107 -1.26165 0
M  V30 242 H 21.2563 -1.70574 -3.70632 0
M  V30 243 H 19.9313 -2.71515 -3.15043 0
M  V30 244 H 18.5083 -0.941795 -3.60811 0
M  V30 245 N 20.6934 1.19889 -1.02296 0
M  V30 246 C 21.6234 2.25141 -0.619174 0
M  V30 247 C 22.6044 1.66051 0.368915 0
M  V30 248 O 23.7894 1.92546 0.252941 0
M  V30 249 C 20.9194 3.4728 0.0368783 0
M  V30 250 C 19.8734 4.19005 -0.872865 0
M  V30 251 C 19.1994 5.34637 -0.0822402 0
M  V30 252 C 20.4994 4.74452 -2.18387 0
M  V30 253 H 22.1934 2.59171 -1.49903 0
M  V30 254 H 19.7394 1.24579 -0.722222 0
M  V30 255 H 21.6924 4.20098 0.330958 0
M  V30 256 H 20.4164 3.12433 0.95149 0
M  V30 257 H 19.0754 3.48061 -1.15105 0
M  V30 258 H 18.7234 4.96034 0.83422 0
M  V30 259 H 18.4234 5.83557 -0.688149 0
M  V30 260 H 19.9474 6.10255 0.205238 0
M  V30 261 H 21.3614 5.39055 -1.95172 0
M  V30 262 H 19.7584 5.33834 -2.74119 0
M  V30 263 H 20.8284 3.92844 -2.84257 0
M  V30 264 N 22.1715 0.800033 1.35784 0
M  V30 265 C 23.5875 0.482977 1.52117 0
M  V30 266 C 23.7875 -0.996948 1.75109 0
M  V30 267 O 22.8435 -1.78216 1.78872 0
M  V30 268 C 24.1565 1.32264 2.70049 0
M  V30 269 C 25.7045 1.31742 2.83924 0
M  V30 270 C 26.1795 2.14106 4.04874 0
M  V30 271 N 27.6705 2.11607 4.12039 0
M  V30 272 C 28.4055 2.72099 5.04727 0
M  V30 273 N 27.9015 3.41492 6.02789 0
M  V30 274 N 29.6945 2.61776 4.97423 0
M  V30 275 H 21.8455 1.75856 1.19115 0
M  V30 276 H 24.1085 0.748122 0.582252 0
M  V30 277 H 23.8145 2.37261 2.59616 0
M  V30 278 H 23.6885 0.971303 3.6448 0
M  V30 279 H 26.0755 0.275333 2.93813 0
M  V30 280 H 26.1565 1.70859 1.9037 0
M  V30 281 H 25.8005 3.18351 3.95746 0
M  V30 282 H 25.7305 1.72353 4.97596 0
M  V30 283 H 28.2215 1.61112 3.41835 0
M  V30 284 H 28.5345 3.84953 6.70098 0
M  V30 285 H 26.8795 3.45596 6.02983 0
M  V30 286 H 30.0705 2.07157 4.19766 0
M  V30 287 H 30.2435 3.0921 5.69468 0
M  V30 288 N 23.6496 -1.47581 0.552962 0
M  V30 289 C 24.5596 -2.33743 -0.200353 0
M  V30 290 C 25.5756 -1.47928 -0.916151 0
M  V30 291 O 26.7516 -1.80865 -0.885993 0
M  V30 292 C 23.8166 -3.24536 -1.21973 0
M  V30 293 C 22.8776 -4.26238 -0.511819 0
M  V30 294 C 22.1106 -5.12693 -1.48263 0
M  V30 295 O 22.3336 -5.01525 -2.71714 0
M  V30 296 O 21.2676 -5.93375 -1.00945 0
M  V30 297 H 25.0936 -2.9945 0.506304 0
M  V30 298 H 22.6786 -1.46071 0.313622 0
M  V30 299 H 24.5606 -3.80631 -1.80827 0
M  V30 300 H 23.2356 -2.61462 -1.90839 0
M  V30 301 H 22.1426 -3.73914 0.117799 0
M  V30 302 H 23.4756 -4.92014 0.135308 0
M  V30 303 N 25.1277 -0.289203 -1.54924 0
M  V30 304 C 26.0777 0.606939 -2.19773 0
M  V30 305 C 27.0617 1.10783 -1.16687 0
M  V30 306 O 28.2537 1.05057 -1.4245 0
M  V30 307 C 25.3827 1.78398 -2.93307 0
M  V30 308 C 24.4687 1.29961 -4.03697 0
M  V30 309 N 24.8597 0.532377 -5.0299 0
M  V30 310 C 23.1577 1.58136 -4.17024 0
M  V30 311 C 23.8587 0.275912 -5.81045 0
M  V30 312 N 22.8347 0.852365 -5.36876 0
M  V30 313 H 26.6367 0.0130779 -2.93897 0
M  V30 314 H 24.1507 -0.09341 -1.62131 0
M  V30 315 H 26.1477 2.43741 -3.38225 0
M  V30 316 H 24.8077 2.38166 -2.20697 0
M  V30 317 H 25.8187 0.17838 -5.17593 0
M  V30 318 H 22.4957 2.18738 -3.55612 0
M  V30 319 H 23.8857 -0.339502 -6.71042 0
M  V30 320 N 26.6058 1.57591 -0.0167156 0
M  V30 321 C 27.8338 1.95575 0.675128 0
M  V30 322 C 28.2488 0.892542 1.6637 0
M  V30 323 O 27.6058 -0.126912 1.82058 0
M  V30 324 C 27.6568 3.33608 1.39239 0
M  V30 325 O 27.3778 4.3585 0.443444 0
M  V30 326 C 28.8788 3.86151 2.17721 0
M  V30 327 H 26.0988 0.644423 0.186978 0
M  V30 328 H 28.6428 2.0437 -0.0728 0
M  V30 329 H 26.7978 3.2607 2.09182 0
M  V30 330 H 27.2118 5.158 0.951358 0
M  V30 331 H 28.6858 4.85114 2.63379 0
M  V30 332 H 29.1628 3.19738 3.01105 0
M  V30 333 H 29.7688 3.96918 1.52761 0
M  V30 334 N 28.0839 -0.256276 1.55502 0
M  V30 335 C 29.3299 -0.987079 1.77157 0
M  V30 336 C 29.6629 -1.85327 0.580315 0
M  V30 337 O 28.9379 -1.89874 -0.421686 0
M  V30 338 C 29.2209 -1.85553 3.08613 0
M  V30 339 C 29.0739 -1.01816 4.38125 0
M  V30 340 C 30.3929 -2.8397 3.36228 0
M  V30 341 H 27.5119 -0.357428 0.644526 0
M  V30 342 H 30.1539 -0.258239 1.88237 0
M  V30 343 H 28.3039 -2.47695 2.99298 0
M  V30 344 H 29.9759 -0.416159 4.59419 0
M  V30 345 H 28.2189 -0.322178 4.32602 0
M  V30 346 H 28.8899 -1.65939 5.26468 0
M  V30 347 H 31.3659 -2.31964 3.45445 0
M  V30 348 H 30.2419 -3.41864 4.29442 0
M  V30 349 H 30.5029 -3.59955 2.56681 0
M  V30 350 N 29.562 -1.4872 -0.521534 0
M  V30 351 C 30.973 -1.50607 -1.10337 0
M  V30 352 C 31.324 -0.280612 -1.94183 0
M  V30 353 O 30.449 0.611507 -2.0758 0
M  V30 354 C 31.044 -2.72903 -2.00772 0
M  V30 355 C 29.603 -2.77634 -2.54158 0
M  V30 356 C 28.75 -2.44241 -1.31307 0
M  V30 357 H 31.701 -1.55714 -0.306388 0
M  V30 358 H 31.722 -2.519 -2.85178 0
M  V30 359 H 31.234 -3.62077 -1.39721 0
M  V30 360 H 29.335 -1.92689 -3.18907 0
M  V30 361 H 29.448 -3.79283 -2.92714 0
M  V30 362 H 27.812 -1.95577 -1.63161 0
M  V30 363 H 28.595 -3.35666 -0.719943 0
M  V30 364 N 31.0401 0.771051 -1.3745 0
M  V30 365 C 31.9871 1.88435 -1.3327 0
M  V30 366 C 32.9571 1.64914 -0.198136 0
M  V30 367 O 34.1421 1.86821 -0.387606 0
M  V30 368 C 31.2821 3.25509 -1.14622 0
M  V30 369 C 30.3951 3.60979 -2.37314 0
M  V30 370 C 29.5301 4.87265 -2.11533 0
M  V30 371 C 28.5691 5.15469 -3.30088 0
M  V30 372 N 27.7061 6.32944 -3.03853 0
M  V30 373 H 32.5461 1.91344 -2.28455 0
M  V30 374 H 30.0831 0.935466 -1.13523 0
M  V30 375 H 32.0411 4.04582 -1.01831 0
M  V30 376 H 30.6711 3.21974 -0.230837 0
M  V30 377 H 29.7231 2.76885 -2.60842 0
M  V30 378 H 31.0351 3.77759 -3.25729 0
M  V30 379 H 30.1891 5.74244 -1.95777 0
M  V30 380 H 28.9281 4.7259 -1.20457 0
M  V30 381 H 27.9331 4.26966 -3.46382 0
M  V30 382 H 29.1581 5.32052 -4.22016 0
M  V30 383 H 27.1041 6.19625 -2.15407 0
M  V30 384 H 27.0211 6.50143 -3.85812 0
M  V30 385 H 28.2891 7.22857 -2.91716 0
M  V30 386 N 32.5182 1.22032 0.997298 0
M  V30 387 C 33.7642 1.05382 1.73972 0
M  V30 388 C 34.1192 -0.407419 1.88037 0
M  V30 389 O 33.4122 -1.29811 1.40924 0
M  V30 390 C 33.6062 1.69345 3.14733 0
M  V30 391 C 33.4352 3.21537 3.14395 0
M  V30 392 C 32.2052 3.9062 3.20537 0
M  V30 393 C 34.4032 4.18527 2.98897 0
M  V30 394 N 32.3852 5.29935 3.09906 0
M  V30 395 C 33.7562 5.44645 2.96247 0
M  V30 396 C 35.8112 4.09476 2.83255 0
M  V30 397 C 34.5142 6.62752 2.79557 0
M  V30 398 C 36.5402 5.27228 2.67926 0
M  V30 399 C 35.9022 6.52262 2.65959 0
M  V30 400 H 32.0012 0.440018 0.646458 0
M  V30 401 H 34.5852 1.54505 1.18475 0
M  V30 402 H 32.7562 1.22778 3.68484 0
M  V30 403 H 34.4882 1.45828 3.77513 0
M  V30 404 H 31.2432 3.41592 3.28043 0
M  V30 405 H 31.6672 6.02926 3.07912 0
M  V30 406 H 36.3092 3.13598 2.83577 0
M  V30 407 H 34.0272 7.58783 2.77982 0
M  V30 408 H 37.6132 5.22053 2.56812 0
M  V30 409 H 36.4932 7.41844 2.54239 0
M  V30 410 N 33.9963 -1.19345 1.0293 0
M  V30 411 C 35.2433 -1.89038 0.726008 0
M  V30 412 C 35.5713 -1.79649 -0.745427 0
M  V30 413 O 34.8263 -1.18354 -1.55855 0
M  V30 414 C 35.1253 -3.39292 1.12319 0
M  V30 415 C 34.7913 -3.68885 2.59297 0
M  V30 416 C 33.4533 -3.76671 2.99453 0
M  V30 417 C 35.8053 -3.82178 3.54386 0
M  V30 418 C 33.1333 -3.9522 4.33611 0
M  V30 419 C 35.4853 -4.0224 4.88248 0
M  V30 420 C 34.1493 -4.08259 5.28092 0
M  V30 421 H 33.4193 -0.691739 0.265665 0
M  V30 422 H 36.0663 -1.41328 1.29223 0
M  V30 423 H 34.3713 -3.88903 0.475584 0
M  V30 424 H 36.0683 -3.91536 0.866037 0
M  V30 425 H 32.6583 -3.63433 2.27189 0
M  V30 426 H 36.8423 -3.75505 3.24514 0
M  V30 427 H 32.0983 -3.98119 4.64016 0
M  V30 428 H 36.2723 -4.11468 5.61843 0
M  V30 429 H 33.8993 -4.22384 6.32057 0
M  V30 430 N 35.4744 -0.807222 -1.35358 0
M  V30 431 C 36.7514 -0.311126 -1.9311 0
M  V30 432 C 37.1314 1.19937 -1.73719 0
M  V30 433 O 36.4794 1.99918 -1.10657 0
M  V30 434 C 36.6894 -0.723226 -3.41424 0
M  V30 435 C 38.0374 -0.713078 -4.18569 0
M  V30 436 O 39.0614 -0.664811 -3.49941 0
M  V30 437 O 37.9204 -0.772022 -5.41019 0
M  V30 438 H 35.0144 -0.081526 -0.822972 0
M  V30 439 H 37.5604 -0.890962 -1.4443 0
M  V30 440 H 36.3324 -1.76426 -3.4927 0
M  V30 441 H 35.9554 -0.118232 -3.97424 0
M  V30 442 N 36.9525 1.47285 -0.560781 0
M  V30 443 C 37.8995 2.30058 0.18491 0
M  V30 444 C 38.8695 1.39281 0.904986 0
M  V30 445 O 40.0545 1.68241 0.899979 0
M  V30 446 C 37.1945 3.23317 1.20666 0
M  V30 447 C 36.3075 4.29186 0.492285 0
M  V30 448 C 35.4425 5.09592 1.49964 0
M  V30 449 C 34.4815 6.07232 0.770439 0
M  V30 450 N 33.6185 6.80584 1.72479 0
M  V30 451 H 38.4585 2.93302 -0.527048 0
M  V30 452 H 35.9955 1.44568 -0.271738 0
M  V30 453 H 37.9535 3.75811 1.81168 0
M  V30 454 H 36.5835 2.61929 1.88661 0
M  V30 455 H 35.6355 3.7972 -0.227333 0
M  V30 456 H 36.9475 4.98738 -0.0787929 0
M  V30 457 H 36.1015 5.66254 2.17809 0
M  V30 458 H 34.8405 4.3995 2.10464 0
M  V30 459 H 33.8455 5.49745 0.0780846 0
M  V30 460 H 35.0705 6.78884 0.171134 0
M  V30 461 H 33.0165 6.1367 2.3183 0
M  V30 462 H 32.9335 7.46319 1.20596 0
M  V30 463 H 34.2015 7.41818 2.39428 0
M  V30 464 N 38.4306 0.297415 1.54768 0
M  V30 465 C 39.3936 -0.567375 2.22066 0
M  V30 466 C 40.3936 -1.06409 1.20556 0
M  V30 467 O 41.5836 -0.960691 1.45315 0
M  V30 468 C 38.7156 -1.78517 2.90421 0
M  V30 469 H 39.9086 0.0205534 2.99893 0
M  V30 470 H 37.4616 0.0482163 1.56226 0
M  V30 471 H 38.1966 -2.41303 2.16664 0
M  V30 472 H 37.9816 -1.43669 3.64831 0
M  V30 473 H 39.4716 -2.39964 3.41771 0
M  V30 474 N 39.9087 -1.5758 0.0250728 0
M  V30 475 C 40.8557 -2.09973 -0.958129 0
M  V30 476 C 41.8257 -1.00085 -1.3256 0
M  V30 477 O 43.0107 -1.27481 -1.41962 0
M  V30 478 C 40.1507 -2.62812 -2.2366 0
M  V30 479 C 39.2637 -3.86693 -1.92594 0
M  V30 480 C 38.3987 -4.27941 -3.14707 0
M  V30 481 C 37.4377 -5.44591 -2.79442 0
M  V30 482 N 36.5747 -5.81014 -3.94167 0
M  V30 483 H 41.4147 -2.937 -0.504428 0
M  V30 484 H 38.9517 -1.45172 -0.237392 0
M  V30 485 H 40.9097 -2.91536 -2.98434 0
M  V30 486 H 39.5397 -1.81922 -2.66654 0
M  V30 487 H 38.5917 -3.64723 -1.0808 0
M  V30 488 H 39.9037 -4.71547 -1.62619 0
M  V30 489 H 39.0577 -4.58079 -3.97804 0
M  V30 490 H 37.7967 -3.41845 -3.4784 0
M  V30 491 H 36.8017 -5.1415 -1.94755 0
M  V30 492 H 38.0267 -6.32382 -2.47528 0
M  V30 493 H 35.9727 -4.97874 -4.2715 0
M  V30 494 H 35.8897 -6.60498 -3.67801 0
M  V30 495 H 37.1577 -6.15756 -4.7798 0
M  V30 496 N 41.3868 0.248026 -1.55636 0
M  V30 497 C 42.6338 0.976224 -1.77415 0
M  V30 498 C 42.9618 1.85361 -0.589193 0
M  V30 499 O 42.2168 1.90973 0.427529 0
M  V30 500 C 42.5158 1.86819 -3.04686 0
M  V30 501 C 42.1818 1.14625 -4.36087 0
M  V30 502 C 40.8438 0.946723 -4.71795 0
M  V30 503 C 43.1958 0.634463 -5.17324 0
M  V30 504 C 40.5238 0.223091 -5.86276 0
M  V30 505 C 42.8758 -0.0756959 -6.32555 0
M  V30 506 C 41.5398 -0.286711 -6.66884 0
M  V30 507 H 40.8098 0.357226 -0.649208 0
M  V30 508 H 43.4568 0.246415 -1.89908 0
M  V30 509 H 41.7618 2.66502 -2.872 0
M  V30 510 H 43.4588 2.43329 -3.18735 0
M  V30 511 H 40.0488 1.3117 -4.08035 0
M  V30 512 H 44.2328 0.77616 -4.90193 0
M  V30 513 H 39.4888 0.0491185 -6.1138 0
M  V30 514 H 43.6628 -0.479899 -6.94745 0
M  V30 515 H 41.2898 -0.849389 -7.5544 0
M  V30 516 N 42.8649 1.48995 0.513639 0
M  V30 517 C 44.1129 1.57531 1.26604 0
M  V30 518 C 44.4339 0.258236 1.93283 0
M  V30 519 O 43.7039 -0.721502 1.8213 0
M  V30 520 H 42.2839 0.580387 0.470276 0
M  V30 521 H 44.9459 1.85552 0.596373 0
M  V30 522 H 44.0419 2.36486 2.03669 0
M  V30 523 N 44.343 -0.763751 1.37857 0
M  V30 524 C 45.592 -1.51789 1.32827 0
M  V30 525 C 45.905 -1.95426 -0.0823719 0
M  V30 526 O 47.111 -2.70298 -0.255172 0
M  V30 527 C 45.567 -2.74133 2.33193 0
M  V30 528 C 45.175 -2.37562 3.79827 0
M  V30 529 C 46.919 -3.52054 2.37188 0
M  V30 530 C 44.826 -3.56456 4.71904 0
M  V30 531 H 43.756 -0.569896 0.493695 0
M  V30 532 H 46.407 -0.835822 1.63359 0
M  V30 533 H 44.789 -3.4427 1.9569 0
M  V30 534 H 45.963 -1.75157 4.26212 0
M  V30 535 H 44.278 -1.72798 3.78853 0
M  V30 536 H 46.875 -4.40437 3.03182 0
M  V30 537 H 47.218 -3.92486 1.38782 0
M  V30 538 H 47.751 -2.88921 2.7344 0
M  V30 539 H 44.49 -3.21099 5.71468 0
M  V30 540 H 44.01 -4.17938 4.30218 0
M  V30 541 H 45.689 -4.23168 4.89426 0
M  V30 542 N 45.8211 -1.22559 -0.990812 0
M  V30 543 C 47.0681 -1.05141 -1.73065 0
M  V30 544 C 47.3961 0.413191 -1.9006 0
M  V30 545 O 46.6511 1.32257 -1.44245 0
M  V30 546 C 46.9501 -1.71011 -3.13831 0
M  V30 547 C 46.6161 -3.20911 -3.16745 0
M  V30 548 C 45.2781 -3.61812 -3.17247 0
M  V30 549 C 47.6301 -4.16846 -3.12872 0
M  V30 550 C 44.9581 -4.97127 -3.1158 0
M  V30 551 C 47.3101 -5.5214 -3.08746 0
M  V30 552 C 45.9741 -5.92419 -3.07565 0
M  V30 553 H 45.2441 -0.384738 -0.633291 0
M  V30 554 H 47.8911 -1.5235 -1.16025 0
M  V30 555 H 46.1961 -1.16133 -3.74193 0
M  V30 556 H 47.8931 -1.55023 -3.69823 0
M  V30 557 H 44.4831 -2.88344 -3.17105 0
M  V30 558 H 48.6671 -3.86263 -3.11632 0
M  V30 559 H 43.9231 -5.27562 -3.09012 0
M  V30 560 H 48.0971 -6.26201 -3.04705 0
M  V30 561 H 45.7241 -6.97236 -3.02929 0
M  V30 562 N 47.2992 1.18797 -1.03562 0
M  V30 563 C 48.5482 1.87978 -0.731235 0
M  V30 564 C 48.8612 1.80911 0.743671 0
M  V30 565 O 50.0672 2.45407 1.16137 0
M  V30 566 C 48.5232 3.3721 -1.25768 0
M  V30 567 C 48.1312 3.52818 -2.76085 0
M  V30 568 C 49.8752 4.11825 -1.0296 0
M  V30 569 C 47.7822 4.9598 -3.22114 0
M  V30 570 H 46.7122 0.704063 -0.269835 0
M  V30 571 H 49.3632 1.34266 -1.25079 0
M  V30 572 H 47.7452 3.90359 -0.666011 0
M  V30 573 H 48.9192 3.09965 -3.40966 0
M  V30 574 H 47.2342 2.91602 -2.97249 0
M  V30 575 H 49.8312 5.17411 -1.34869 0
M  V30 576 H 50.1742 4.16287 0.0333546 0
M  V30 577 H 50.7072 3.64833 -1.58562 0
M  V30 578 H 47.4462 4.96684 -4.27768 0
M  V30 579 H 46.9662 5.39569 -2.61965 0
M  V30 580 H 48.6452 5.6467 -3.15844 0
M  V30 581 N 48.7773 0.814389 1.34928 0
M  V30 582 C 49.7273 0.202752 2.27097 0
M  V30 583 C 50.7113 -0.62799 1.48139 0
M  V30 584 O 51.9033 -0.483969 1.70255 0
M  V30 585 C 49.0323 -0.64146 3.37254 0
M  V30 586 C 48.1183 0.19944 4.23631 0
M  V30 587 N 48.5093 1.26628 4.89693 0
M  V30 588 C 46.8073 -0.0176433 4.45997 0
M  V30 589 C 47.5083 1.78031 5.53787 0
M  V30 590 N 46.4843 1.08553 5.32651 0
M  V30 591 H 50.2863 1.01893 2.75672 0
M  V30 592 H 47.8003 0.656332 1.48546 0
M  V30 593 H 49.7973 -1.09575 4.02243 0
M  V30 594 H 48.4573 -1.4559 2.9023 0
M  V30 595 H 49.4683 1.64901 4.90946 0
M  V30 596 H 46.1453 -0.800601 4.09752 0
M  V30 597 H 47.5353 2.67236 6.16469 0
M  V30 598 N 50.2554 -1.46986 0.568584 0
M  V30 599 C 51.5014 -2.0332 0.0571487 0
M  V30 600 C 51.8564 -1.43384 -1.28291 0
M  V30 601 O 51.1494 -0.584304 -1.82473 0
M  V30 602 C 51.3434 -3.57306 -0.081836 0
M  V30 603 C 51.1724 -4.32174 1.24321 0
M  V30 604 C 49.9424 -4.71633 1.81358 0
M  V30 605 C 52.1404 -4.66598 2.16312 0
M  V30 606 N 50.1224 -5.31191 3.07748 0
M  V30 607 C 51.4934 -5.26578 3.27285 0
M  V30 608 C 53.5484 -4.48527 2.16166 0
M  V30 609 C 52.2514 -5.70395 4.38226 0
M  V30 610 C 54.2774 -4.93351 3.26127 0
M  V30 611 C 53.6394 -5.5339 4.3582 0
M  V30 612 H 49.7384 -0.77943 0.063351 0
M  V30 613 H 52.3224 -1.79323 0.758378 0
M  V30 614 H 50.4934 -3.81046 -0.752207 0
M  V30 615 H 52.2254 -4.00282 -0.59637 0
M  V30 616 H 48.9804 -4.53946 1.35019 0
M  V30 617 H 49.4044 -5.65505 3.72201 0
M  V30 618 H 54.0464 -4.01456 1.32638 0
M  V30 619 H 51.7644 -6.16452 5.22506 0
M  V30 620 H 55.3504 -4.81131 3.27115 0
M  V30 621 H 54.2304 -5.87441 5.19503 0
M  V30 622 N 51.7335 -0.305618 -1.54608 0
M  V30 623 C 52.9815 0.301701 -1.99835 0
M  V30 624 C 53.3025 1.54054 -1.19551 0
M  V30 625 O 52.5725 1.93702 -0.292658 0
M  V30 626 H 51.1525 0.114468 -0.738178 0
M  V30 627 H 53.8145 -0.418016 -1.90364 0
M  V30 628 H 52.9105 0.570548 -3.06841 0
M  V30 629 N 53.2116 1.57565 -0.0334293 0
M  V30 630 C 54.4606 1.91155 0.643639 0
M  V30 631 C 54.7736 0.91192 1.73042 0
M  V30 632 O 55.9796 1.13923 2.46442 0
M  V30 633 C 54.4356 3.39443 1.1961 0
M  V30 634 C 54.0436 4.47774 0.142381 0
M  V30 635 C 55.7876 3.82094 1.84944 0
M  V30 636 C 53.6946 5.87162 0.706727 0
M  V30 637 H 52.6246 0.713368 0.244176 0
M  V30 638 H 55.2756 1.8323 -0.0994323 0
M  V30 639 H 53.6576 3.42313 1.99092 0
M  V30 640 H 54.8316 4.56469 -0.630296 0
M  V30 641 H 53.1466 4.14352 -0.412446 0
M  V30 642 H 55.7436 4.83591 2.2813 0
M  V30 643 H 56.0866 3.17386 2.69392 0
M  V30 644 H 56.6196 3.81665 1.12145 0
M  V30 645 H 53.3586 6.55424 -0.0997178 0
M  V30 646 H 52.8786 5.82064 1.44779 0
M  V30 647 H 54.5576 6.35866 1.19514 0
M  V30 648 N 54.6897 -0.239769 1.55765 0
M  V30 649 C 55.9197 -0.982743 1.8173 0
M  V30 650 C 56.3277 -1.7917 0.607835 0
M  V30 651 O 55.6707 -1.78525 -0.432973 0
M  V30 652 C 55.7327 -1.96332 3.01155 0
M  V30 653 C 55.3967 -1.34062 4.36894 0
M  V30 654 C 56.3937 -0.739539 5.14613 0
M  V30 655 C 54.0787 -1.35784 4.83599 0
M  V30 656 C 56.0727 -0.163989 6.37189 0
M  V30 657 C 53.7597 -0.778441 6.06122 0
M  V30 658 C 54.7577 -0.182548 6.82756 0
M  V30 659 O 54.4457 0.387887 8.02964 0
M  V30 660 H 54.1777 -0.294481 0.608487 0
M  V30 661 H 56.7317 -0.26572 2.03674 0
M  V30 662 H 54.9617 -2.71884 2.74984 0
M  V30 663 H 56.6507 -2.57032 3.14149 0
M  V30 664 H 57.4167 -0.718687 4.79646 0
M  V30 665 H 53.2957 -1.81105 4.23936 0
M  V30 666 H 56.8397 0.301753 6.96947 0
M  V30 667 H 52.7367 -0.796645 6.40565 0
M  V30 668 H 53.5047 0.28044 8.18019 0
M  V30 669 N 56.1678 -1.49265 -0.50573 0
M  V30 670 C 57.3928 -1.62478 -1.28902 0
M  V30 671 C 57.8178 -0.294332 -1.85783 0
M  V30 672 O 57.1758 0.737412 -1.65626 0
M  V30 673 C 57.2238 -2.69268 -2.39848 0
M  V30 674 O 56.3278 -2.28113 -3.43567 0
M  V30 675 H 55.6688 -0.54399 -0.380751 0
M  V30 676 H 58.1988 -1.95421 -0.605952 0
M  V30 677 H 58.2088 -2.91291 -2.85681 0
M  V30 678 H 56.8838 -3.65846 -1.97812 0
M  V30 679 H 55.4608 -2.16401 -3.03685 0
M  V30 680 N 57.6459 0.756429 -1.3826 0
M  V30 681 C 58.8919 1.51772 -1.34511 0
M  V30 682 C 59.2249 1.94089 0.0656691 0
M  V30 683 O 58.4999 1.65221 1.02626 0
M  V30 684 C 58.7829 2.77226 -2.29821 0
M  V30 685 C 58.6359 2.41065 -3.79747 0
M  V30 686 C 59.9549 3.79236 -2.23312 0
M  V30 687 H 57.0739 0.550578 -0.489931 0
M  V30 688 H 59.7159 0.866607 -1.69086 0
M  V30 689 H 57.8659 3.32784 -2.00467 0
M  V30 690 H 59.5379 1.91303 -4.19763 0
M  V30 691 H 57.7809 1.7356 -3.97567 0
M  V30 692 H 58.4519 3.3081 -4.41892 0
M  V30 693 H 60.9279 3.3321 -2.49219 0
M  V30 694 H 59.8039 4.64714 -2.92116 0
M  V30 695 H 60.0649 4.24615 -1.23102 0
M  V30 696 N 59.124 1.23083 0.984299 0
M  V30 697 C 60.535 1.05609 1.5396 0
M  V30 698 C 60.886 -0.377793 1.92528 0
M  V30 699 O 60.011 -1.26398 1.75649 0
M  V30 700 C 60.606 1.91087 2.7977 0
M  V30 701 C 59.165 1.77885 3.31713 0
M  V30 702 C 58.312 1.87028 2.04733 0
M  V30 703 H 61.263 1.36802 0.804419 0
M  V30 704 H 61.284 1.43336 3.5247 0
M  V30 705 H 60.796 2.9544 2.51668 0
M  V30 706 H 58.897 0.762995 3.64704 0
M  V30 707 H 59.01 2.61047 4.01735 0
M  V30 708 H 57.374 1.30565 2.18689 0
M  V30 709 H 58.157 2.92929 1.79017 0
M  V30 710 N 60.6021 -1.18246 1.0419 0
M  V30 711 C 61.8501 -1.87886 0.744543 0
M  V30 712 C 62.1711 -1.8082 -0.730006 0
M  V30 713 O 61.4411 -1.22736 -1.52685 0
M  V30 714 H 60.0211 -0.695556 0.272417 0
M  V30 715 H 62.6831 -1.43494 1.31892 0
M  V30 716 H 61.7791 -2.9389 1.05049 0
M  V30 717 N 62.0802 -0.821533 -1.34494 0
M  V30 718 C 63.3262 -0.418729 -1.99043 0
M  V30 719 C 63.6812 1.00672 -1.6396 0
M  V30 720 O 62.9742 1.69132 -0.900271 0
M  V30 721 C 63.1682 -0.556512 -3.53041 0
M  V30 722 C 62.9972 -1.9938 -4.03085 0
M  V30 723 C 61.7672 -2.62539 -4.31742 0
M  V30 724 C 63.9652 -2.96035 -4.20556 0
M  V30 725 N 61.9472 -3.97523 -4.67813 0
M  V30 726 C 63.3182 -4.15924 -4.59791 0
M  V30 727 C 65.3732 -2.9267 -4.02801 0
M  V30 728 C 64.0762 -5.32899 -4.83126 0
M  V30 729 C 66.1022 -4.08861 -4.27302 0
M  V30 730 C 65.4642 -5.275 -4.66822 0
M  V30 731 H 61.5632 -0.201299 -0.755647 0
M  V30 732 H 64.1472 -1.06594 -1.62929 0
M  V30 733 H 62.3182 0.0607924 -3.88352 0
M  V30 734 H 64.0502 -0.126842 -4.04501 0
M  V30 735 H 60.8052 -2.13789 -4.22601 0
M  V30 736 H 61.2292 -4.67061 -4.90085 0
M  V30 737 H 65.8712 -2.02088 -3.71376 0
M  V30 738 H 63.5892 -6.24041 -5.13418 0
M  V30 739 H 67.1752 -4.07654 -4.15101 0
M  V30 740 H 66.0552 -6.15913 -4.85408 0
M  V30 741 N 63.5583 1.46682 -0.576371 0
M  V30 742 C 64.5213 2.28707 0.150239 0
M  V30 743 C 65.5213 1.38035 0.824794 0
M  V30 744 O 66.7113 1.60476 0.677719 0
M  V30 745 C 63.8433 3.18248 1.22192 0
M  V30 746 H 65.0363 2.94423 -0.570521 0
M  V30 747 H 62.5893 1.52688 -0.334078 0
M  V30 748 H 63.3243 2.57265 1.97447 0
M  V30 749 H 63.1093 3.85 0.742812 0
M  V30 750 H 64.5993 3.80001 1.73172 0
M  V30 751 N 65.0364 0.313813 1.54444 0
M  V30 752 C 66.2644 -0.293918 2.04802 0
M  V30 753 C 66.6794 -1.46537 1.19047 0
M  V30 754 O 66.0364 -1.81182 0.218939 0
M  V30 755 C 66.0874 -0.737806 3.53891 0
M  V30 756 O 65.8084 0.387038 4.36387 0
M  V30 757 C 67.3094 -1.40936 4.203 0
M  V30 758 H 64.5294 -0.0620057 0.668129 0
M  V30 759 H 67.0734 0.457169 1.99324 0
M  V30 760 H 65.2284 -1.43889 3.59687 0
M  V30 761 H 65.6424 0.0391274 5.24485 0
M  V30 762 H 67.1164 -1.67099 5.26101 0
M  V30 763 H 67.5934 -2.35355 3.70816 0
M  V30 764 H 68.1994 -0.751117 4.18615 0
M  V30 765 N 66.5145 -1.57545 0.0417849 0
M  V30 766 C 67.9255 -1.80011 -0.495259 0
M  V30 767 C 68.2765 -0.953199 -1.71489 0
M  V30 768 O 67.4015 -0.167138 -2.15754 0
M  V30 769 C 67.9965 -3.26482 -0.905265 0
M  V30 770 C 66.5555 -3.499 -1.38734 0
M  V30 771 C 65.7025 -2.74979 -0.358056 0
M  V30 772 H 68.6535 -1.56425 0.267736 0
M  V30 773 H 68.6745 -3.36887 -1.76882 0
M  V30 774 H 68.1865 -3.88096 -0.017401 0
M  V30 775 H 66.2875 -2.93553 -2.29471 0
M  V30 776 H 66.4005 -4.58615 -1.38598 0
M  V30 777 H 64.7645 -2.40834 -0.828912 0
M  V30 778 H 65.5475 -3.39315 0.521561 0
M  V30 779 N 67.9926 0.231505 -1.5589 0
M  V30 780 C 69.2206 0.974505 -1.82513 0
M  V30 781 C 69.6356 1.78344 -0.619591 0
M  V30 782 O 68.9926 1.77792 0.411848 0
M  V30 783 C 69.0436 1.90007 -3.07538 0
M  V30 784 O 68.7646 1.12385 -4.2344 0
M  V30 785 C 70.2656 2.75779 -3.47075 0
M  V30 786 H 67.4856 0.286065 -0.606966 0
M  V30 787 H 70.0296 0.249739 -2.02969 0
M  V30 788 H 68.1846 2.57891 -2.89086 0
M  V30 789 H 68.5986 1.75125 -4.944 0
M  V30 790 H 70.0726 3.36443 -4.37619 0
M  V30 791 H 70.5496 3.47672 -2.68367 0
M  V30 792 H 71.1556 2.13323 -3.67931 0
M  V30 793 N 69.4707 1.49531 0.497807 0
M  V30 794 C 70.7187 1.58865 1.24926 0
M  V30 795 C 71.0397 0.278721 1.92998 0
M  V30 796 O 70.3097 -0.702144 1.82885 0
M  V30 797 H 68.8897 0.585343 0.464094 0
M  V30 798 H 71.5517 1.86174 0.57666 0
M  V30 799 H 70.6477 2.38633 2.01149 0
M  V30 800 N 70.9488 -0.749086 1.3866 0
M  V30 801 C 71.8588 -1.89358 1.38494 0
M  V30 802 C 72.8748 -1.71708 0.281476 0
M  V30 803 O 74.0508 -1.94554 0.520643 0
M  V30 804 C 71.1158 -3.24782 1.21316 0
M  V30 805 C 70.1768 -3.54926 2.41508 0
M  V30 806 C 69.4098 -4.83888 2.2514 0
M  V30 807 O 69.6328 -5.56592 1.24746 0
M  V30 808 O 68.5668 -5.13612 3.13826 0
M  V30 809 H 72.3928 -1.92452 2.34938 0
M  V30 810 H 69.9778 -0.894981 1.19626 0
M  V30 811 H 71.8598 -4.05739 1.13814 0
M  V30 812 H 70.5348 -3.2249 0.279592 0
M  V30 813 H 69.4418 -2.74112 2.54585 0
M  V30 814 H 70.7748 -3.61983 3.3351 0
M  V30 815 N 72.4269 -1.23603 -0.977757 0
M  V30 816 C 73.3569 -1.04401 -2.0886 0
M  V30 817 C 74.3379 0.0399052 -1.70053 0
M  V30 818 O 75.5229 -0.125246 -1.93796 0
M  V30 819 C 72.6529 -0.637269 -3.41403 0
M  V30 820 C 71.6069 -1.66883 -3.94124 0
M  V30 821 C 70.9329 -1.11745 -5.22893 0
M  V30 822 C 72.2329 -3.06247 -4.23096 0
M  V30 823 H 73.9269 -1.97316 -2.25182 0
M  V30 824 H 71.4729 -0.950096 -1.08209 0
M  V30 825 H 73.4259 -0.48998 -4.18542 0
M  V30 826 H 72.1499 0.327557 -3.24953 0
M  V30 827 H 70.8089 -1.80416 -3.19133 0
M  V30 828 H 70.4569 -0.143527 -5.02795 0
M  V30 829 H 70.1569 -1.80672 -5.59134 0
M  V30 830 H 71.6809 -0.982067 -6.02651 0
M  V30 831 H 73.0949 -2.96001 -4.90975 0
M  V30 832 H 71.4919 -3.72436 -4.70544 0
M  V30 833 H 72.5619 -3.55041 -3.30263 0
M  V30 834 N 73.905 1.17692 -1.04816 0
M  V30 835 C 75.153 1.87488 -0.754497 0
M  V30 836 C 75.474 1.81205 0.720407 0
M  V30 837 O 74.744 1.23544 1.52032 0
M  V30 838 H 73.324 0.694101 -0.276102 0
M  V30 839 H 75.986 1.42793 -1.32651 0
M  V30 840 H 75.082 2.93328 -1.06606 0
M  V30 841 N 75.3831 0.828654 1.34056 0
M  V30 842 C 76.3301 0.252567 2.29414 0
M  V30 843 C 77.3001 -0.62588 1.53857 0
M  V30 844 O 78.4851 -0.566312 1.82202 0
M  V30 845 C 75.6251 -0.574831 3.40279 0
M  V30 846 C 74.7381 0.326499 4.30764 0
M  V30 847 C 73.8731 -0.511016 5.28736 0
M  V30 848 C 72.9121 0.389342 6.1086 0
M  V30 849 N 72.0491 -0.409439 7.00905 0
M  V30 850 H 76.8891 1.07108 2.78086 0
M  V30 851 H 74.4261 0.539677 1.36843 0
M  V30 852 H 76.3841 -1.06992 4.03248 0
M  V30 853 H 75.0141 -1.35841 2.92826 0
M  V30 854 H 74.0661 0.939837 3.68607 0
M  V30 855 H 75.3781 1.01857 4.88289 0
M  V30 856 H 74.5321 -1.07035 5.97184 0
M  V30 857 H 73.2711 -1.23657 4.71763 0
M  V30 858 H 72.2761 0.960769 5.4134 0
M  V30 859 H 73.5011 1.1131 6.69916 0
M  V30 860 H 71.4471 -1.11856 6.46393 0
M  V30 861 H 71.3641 0.224126 7.55668 0
M  V30 862 H 72.6321 -0.951336 7.73673 0
M  V30 863 N 76.8612 -1.46375 0.584142 0
M  V30 864 C 78.1072 -2.02678 0.0703716 0
M  V30 865 C 78.4402 -1.4545 -1.28678 0
M  V30 866 O 77.7152 -0.62014 -1.84349 0
M  V30 867 C 77.9982 -3.60099 0.00614674 0
M  V30 868 C 77.8512 -4.27709 1.3923 0
M  V30 869 C 79.1702 -4.34598 -0.693742 0
M  V30 870 H 76.2892 -0.736504 0.027047 0
M  V30 871 H 78.9312 -1.74501 0.751615 0
M  V30 872 H 77.0812 -3.84236 -0.574009 0
M  V30 873 H 78.7532 -4.14832 2.01773 0
M  V30 874 H 76.9962 -3.87016 1.95962 0
M  V30 875 H 77.6672 -5.36478 1.29982 0
M  V30 876 H 80.1432 -4.15615 -0.200869 0
M  V30 877 H 79.0192 -5.44318 -0.707714 0
M  V30 878 H 79.2802 -4.05759 -1.75533 0
M  V30 879 N 78.3393 -0.321999 -1.54275 0
M  V30 880 C 79.7503 0.166384 -1.85957 0
M  V30 881 C 80.1013 1.51747 -1.24367 0
M  V30 882 O 79.2263 2.09317 -0.549124 0
M  V30 883 C 79.8213 0.308681 -3.37391 0
M  V30 884 C 78.3803 0.741286 -3.69028 0
M  V30 885 C 77.5273 -0.137937 -2.76957 0
M  V30 886 H 80.4783 -0.542335 -1.49146 0
M  V30 887 H 80.4993 1.13984 -3.63026 0
M  V30 888 H 80.0113 -0.674809 -3.82188 0
M  V30 889 H 78.1123 1.73458 -3.29762 0
M  V30 890 H 78.2253 0.546118 -4.75977 0
M  V30 891 H 76.5893 0.386251 -2.51754 0
M  V30 892 H 77.3723 -1.11816 -3.2458 0
M  V30 893 N 79.8174 1.5752 -0.0501392 0
M  V30 894 C 80.7504 2.07026 0.959962 0
M  V30 895 C 81.7284 0.970539 1.30458 0
M  V30 896 O 82.9124 1.2424 1.41763 0
M  V30 897 C 80.0394 2.5099 2.27424 0
M  V30 898 C 79.0854 3.72188 2.08275 0
M  V30 899 S 79.9184 5.17888 1.36207 0
M  V30 900 C 81.0744 5.65165 2.6896 0
M  V30 901 H 81.3074 2.9238 0.538631 0
M  V30 902 H 78.8404 1.53547 0.162099 0
M  V30 903 H 80.7984 2.76982 3.02971 0
M  V30 904 H 79.4594 1.65944 2.66686 0
M  V30 905 H 78.6524 4.00866 3.05487 0
M  V30 906 H 78.2544 3.46457 1.40868 0
M  V30 907 H 80.5464 5.70687 3.65133 0
M  V30 908 H 81.4894 6.64394 2.4492 0
M  V30 909 H 81.8974 4.9289 2.75172 0
M  V30 910 N 81.2955 -0.223234 1.56011 0
M  V30 911 C 82.5725 -0.972108 1.69733 0
M  V30 912 C 82.9525 -2.02485 0.59691 0
M  V30 913 O 82.3005 -2.25037 -0.396324 0
M  V30 914 C 82.5105 -1.58407 3.10979 0
M  V30 915 C 83.8585 -2.07696 3.70334 0
M  V30 916 O 84.8825 -1.68304 3.1393 0
M  V30 917 O 83.7415 -2.80096 4.69264 0
M  V30 918 H 80.8355 -0.453993 0.691245 0
M  V30 919 H 83.3815 -0.215149 1.68331 0
M  V30 920 H 82.1535 -0.823831 3.82529 0
M  V30 921 H 81.7765 -2.40661 3.16493 0
M  V30 922 N 82.7736 -1.49793 -0.48987 0
M  V30 923 C 83.7366 -1.66752 -1.57246 0
M  V30 924 C 84.7366 -0.538867 -1.51502 0
M  V30 925 O 85.9266 -0.805545 -1.54456 0
M  V30 926 C 83.0586 -1.67528 -2.96896 0
M  V30 927 H 84.2516 -2.63321 -1.43534 0
M  V30 928 H 81.8046 -1.38992 -0.714914 0
M  V30 929 H 82.5396 -0.725837 -3.16073 0
M  V30 930 H 82.3246 -2.49504 -3.02473 0
M  V30 931 H 83.8146 -1.82667 -3.7553 0
M  V30 932 N 84.2517 0.741722 -1.39055 0
M  V30 933 C 85.4977 1.50234 -1.37118 0
M  V30 934 C 85.8527 1.92368 0.0350439 0
M  V30 935 O 85.1457 1.63422 1.00019 0
M  V30 936 C 85.3397 2.7592 -2.27163 0
M  V30 937 C 85.1687 2.46074 -3.76401 0
M  V30 938 C 83.9387 2.38704 -4.45364 0
M  V30 939 C 86.1367 2.12062 -4.68545 0
M  V30 940 N 84.1187 2.01258 -5.79973 0
M  V30 941 C 85.4897 1.85005 -5.91754 0
M  V30 942 C 87.5447 1.98473 -4.56632 0
M  V30 943 C 86.2477 1.4573 -7.04383 0
M  V30 944 C 88.2737 1.60599 -5.69176 0
M  V30 945 C 87.6357 1.34423 -6.91455 0
M  V30 946 H 83.7347 0.548858 -0.557027 0
M  V30 947 H 86.3187 0.862642 -1.74547 0
M  V30 948 H 84.4897 3.3768 -1.91904 0
M  V30 949 H 86.2217 3.42068 -2.16267 0
M  V30 950 H 82.9767 2.55574 -3.98721 0
M  V30 951 H 83.4007 1.85147 -6.51191 0
M  V30 952 H 88.0427 2.17381 -3.62637 0
M  V30 953 H 85.7607 1.25562 -7.98286 0
M  V30 954 H 89.3467 1.507 -5.61944 0
M  V30 955 H 88.2267 1.05555 -7.77064 0
M  V30 956 N 85.7298 1.2412 0.971189 0
M  V30 957 C 86.9768 1.07881 1.71371 0
M  V30 958 C 87.3048 -0.382901 1.90694 0
M  V30 959 O 86.5598 -1.29945 1.46331 0
M  V30 960 C 86.8588 1.75983 3.11071 0
M  V30 961 C 86.5248 3.25909 3.11599 0
M  V30 962 C 85.1868 3.66813 3.11451 0
M  V30 963 C 87.5388 4.21771 3.062 0
M  V30 964 C 84.8668 5.02021 3.03631 0
M  V30 965 C 87.2188 5.56982 2.99923 0
M  V30 966 C 85.8828 5.97237 2.98102 0
M  V30 967 H 85.1528 0.394764 0.62709 0
M  V30 968 H 87.7998 1.54176 1.13587 0
M  V30 969 H 86.1048 1.22072 3.72298 0
M  V30 970 H 87.8018 1.60887 3.6731 0
M  V30 971 H 84.3918 2.93353 3.12477 0
M  V30 972 H 88.5758 3.91172 3.05447 0
M  V30 973 H 83.8318 5.32411 3.0058 0
M  V30 974 H 88.0058 6.30969 2.94704 0
M  V30 975 H 85.6328 7.01967 2.91798 0
M  V30 976 N 87.2079 -1.17134 1.05439 0
M  V30 977 C 88.4549 -1.87456 0.765942 0
M  V30 978 C 88.7829 -1.81189 -0.707153 0
M  V30 979 O 88.0379 -1.21633 -1.5331 0
M  V30 980 C 88.3369 -3.36833 1.19491 0
M  V30 981 C 88.0029 -3.63301 2.67063 0
M  V30 982 C 86.6649 -3.70234 3.07376 0
M  V30 983 C 89.0169 -3.74575 3.62413 0
M  V30 984 C 86.3449 -3.85933 4.41896 0
M  V30 985 C 88.6969 -3.91793 4.9667 0
M  V30 986 C 87.3609 -3.96966 5.36633 0
M  V30 987 H 86.6309 -0.685948 0.280278 0
M  V30 988 H 89.2779 -1.38556 1.32192 0
M  V30 989 H 87.5829 -3.87807 0.557969 0
M  V30 990 H 89.2799 -3.89611 0.948893 0
M  V30 991 H 85.8699 -3.58532 2.34846 0
M  V30 992 H 90.0539 -3.68537 3.32406 0
M  V30 993 H 85.3099 -3.88187 4.72357 0
M  V30 994 H 89.4839 -3.99458 5.70444 0
M  V30 995 H 87.1109 -4.08883 6.40874 0
M  V30 996 N 88.686 -0.835752 -1.33615 0
M  V30 997 C 89.618 -0.224151 -2.28101 0
M  V30 998 C 90.631 0.593331 -1.51603 0
M  V30 999 O 91.82 0.420911 -1.73466 0
M  V30 1000 C 88.92 0.703309 -3.31522 0
M  V30 1001 C 88.093 -0.0741528 -4.37337 0
M  V30 1002 C 87.152 0.776176 -5.20444 0
M  V30 1003 O 86.178 0.216506 -5.68788 0
M  V30 1004 N 87.38 2.09401 -5.41416 0
M  V30 1005 H 90.145 -1.03598 -2.81225 0
M  V30 1006 H 87.706 -0.69392 -1.46275 0
M  V30 1007 H 89.698 1.27707 -3.84022 0
M  V30 1008 H 88.268 1.41585 -2.78698 0
M  V30 1009 H 87.488 -0.82928 -3.85378 0
M  V30 1010 H 88.776 -0.608863 -5.05144 0
M  V30 1011 H 88.174 2.57229 -5.03835 0
M  V30 1012 H 86.731 2.61633 -5.96985 0
M  V30 1013 N 90.1641 1.46063 -0.591896 0
M  V30 1014 C 91.1121 2.32124 0.148739 0
M  V30 1015 C 92.1061 1.45035 0.875286 0
M  V30 1016 O 93.3121 1.61609 0.792632 0
M  V30 1017 H 89.6871 0.749024 0.066832 0
M  V30 1018 H 91.6581 2.92392 -0.595783 0
M  V30 1019 C 90.4071 3.28373 1.1431 0
M  V30 1020 H 89.7301 3.95371 0.59346 0
M  V30 1021 H 91.1701 3.91352 1.63155 0
M  V30 1022 C 89.6291 2.54393 2.20875 0
M  V30 1023 O 90.1591 2.31373 3.28374 0
M  V30 1024 N 88.3651 2.14797 1.95731 0
M  V30 1025 H 87.9121 2.33719 1.08319 0
M  V30 1026 H 87.8701 1.65619 2.67241 0
M  V30 1027 N 91.6422 0.330177 1.54103 0
M  V30 1028 C 93.0532 -0.15652 1.86043 0
M  V30 1029 C 93.4042 -1.51086 1.2517 0
M  V30 1030 O 92.5292 -2.09023 0.560217 0
M  V30 1031 C 93.1242 -0.290784 3.3755 0
M  V30 1032 C 91.6832 -0.721705 3.69416 0
M  V30 1033 C 90.8302 0.152622 2.7688 0
M  V30 1034 H 93.7812 0.550237 1.48856 0
M  V30 1035 H 93.8022 -1.12058 3.63625 0
M  V30 1036 H 93.3142 0.695068 3.81825 0
M  V30 1037 H 91.4152 -1.71706 3.30678 0
M  V30 1038 H 91.5282 -0.520869 4.7626 0
M  V30 1039 H 89.8922 -0.372894 2.51956 0
M  V30 1040 H 90.6752 1.13536 3.23982 0
M  V30 1041 N 93.1203 -1.57491 0.0584922 0
M  V30 1042 C 94.3503 -1.9701 -0.622134 0
M  V30 1043 C 94.7583 -0.935034 -1.6448 0
M  V30 1044 O 94.1013 0.0882904 -1.83488 0
M  V30 1045 C 94.1633 -3.32794 -1.35972 0
M  V30 1046 C 93.8273 -4.54343 -0.492043 0
M  V30 1047 C 94.8243 -5.19323 0.244901 0
M  V30 1048 C 92.5093 -5.00534 -0.420821 0
M  V30 1049 C 94.5033 -6.28835 1.04143 0
M  V30 1050 C 92.1903 -6.09921 0.379389 0
M  V30 1051 C 93.1883 -6.73933 1.10919 0
M  V30 1052 O 92.8763 -7.81216 1.89623 0
M  V30 1053 H 92.6083 -0.653127 -0.174359 0
M  V30 1054 H 95.1623 -2.05029 0.123418 0
M  V30 1055 H 93.3923 -3.21351 -2.15105 0
M  V30 1056 H 95.0813 -3.5701 -1.93129 0
M  V30 1057 H 95.8473 -4.8459 0.19939 0
M  V30 1058 H 91.7263 -4.50496 -0.978474 0
M  V30 1059 H 95.2703 -6.7873 1.61157 0
M  V30 1060 H 91.1673 -6.44089 0.426512 0
M  V30 1061 H 91.9353 -7.98029 1.81913 0
M  V30 1062 N 94.5984 0.214957 -1.56127 0
M  V30 1063 C 95.5614 1.24997 -1.92116 0
M  V30 1064 C 96.5614 1.39467 -0.800344 0
M  V30 1065 O 97.7514 1.37619 -1.06802 0
M  V30 1066 C 94.8834 2.62271 -2.17777 0
M  V30 1067 H 96.0764 0.942875 -2.84693 0
M  V30 1068 H 93.6294 0.455654 -1.49511 0
M  V30 1069 H 94.3644 2.98068 -1.27773 0
M  V30 1070 H 94.1494 2.53143 -2.99434 0
M  V30 1071 H 95.6394 3.36946 -2.46693 0
M  V30 1072 N 96.0765 1.50051 0.48192 0
M  V30 1073 C 96.9865 1.7089 1.60728 0
M  V30 1074 C 98.0025 0.591788 1.63627 0
M  V30 1075 O 99.1785 0.868817 1.81696 0
M  V30 1076 C 96.2435 1.78855 2.97005 0
M  V30 1077 C 95.3045 3.02537 3.04581 0
M  V30 1078 C 94.5375 3.10112 4.34357 0
M  V30 1079 O 94.7605 2.24765 5.24249 0
M  V30 1080 O 93.6945 4.02747 4.47301 0
M  V30 1081 H 97.5205 2.66264 1.46072 0
M  V30 1082 H 95.1055 1.34018 0.660264 0
M  V30 1083 H 96.9875 1.86336 3.77964 0
M  V30 1084 H 95.6625 0.866628 3.11883 0
M  V30 1085 H 94.5695 3.00563 2.22739 0
M  V30 1086 H 95.9025 3.94272 2.94636 0
M  V30 1087 N 97.5546 -0.734337 1.39446 0
M  V30 1088 C 98.8006 -1.49505 1.37913 0
M  V30 1089 C 99.1556 -1.92384 -0.0248416 0
M  V30 1090 O 98.4486 -1.6395 -0.991506 0
M  V30 1091 C 98.6426 -2.74711 2.28623 0
M  V30 1092 C 98.4716 -2.44075 3.777 0
M  V30 1093 C 97.2416 -2.36338 4.46623 0
M  V30 1094 C 99.4396 -2.09574 4.69663 0
M  V30 1095 N 97.4216 -1.9818 5.81032 0
M  V30 1096 C 98.7926 -1.81865 5.92727 0
M  V30 1097 C 100.848 -1.96048 4.57678 0
M  V30 1098 C 99.5506 -1.41992 7.05146 0
M  V30 1099 C 101.577 -1.57579 5.7002 0
M  V30 1100 C 100.939 -1.30754 6.92158 0
M  V30 1101 H 97.0376 -0.545896 0.55993 0
M  V30 1102 H 99.6216 -0.853373 1.75002 0
M  V30 1103 H 97.7926 -3.36657 1.93692 0
M  V30 1104 H 99.5246 -3.40916 2.18078 0
M  V30 1105 H 96.2796 -2.53456 4.00071 0
M  V30 1106 H 96.7036 -1.81691 6.52163 0
M  V30 1107 H 101.346 -2.15455 3.63784 0
M  V30 1108 H 99.0636 -1.21327 7.9894 0
M  V30 1109 H 102.65 -1.47718 5.62735 0
M  V30 1110 H 101.53 -1.01432 7.77612 0
M  V30 1111 N 99.0327 -1.24633 -0.964593 0
M  V30 1112 C 100.263 -1.11339 -1.74032 0
M  V30 1113 C 100.671 0.336593 -1.86182 0
M  V30 1114 O 100.014 1.24389 -1.35178 0
M  V30 1115 C 100.076 -1.68284 -3.1768 0
M  V30 1116 C 99.7397 -3.17196 -3.28992 0
M  V30 1117 C 100.737 -4.14308 -3.14078 0
M  V30 1118 C 98.4217 -3.57215 -3.53133 0
M  V30 1119 C 100.416 -5.4942 -3.23135 0
M  V30 1120 C 98.1027 -4.92468 -3.61827 0
M  V30 1121 C 99.1007 -5.8838 -3.46841 0
M  V30 1122 O 98.7887 -7.21173 -3.55197 0
M  V30 1123 H 98.5207 -0.389551 -0.552472 0
M  V30 1124 H 101.075 -1.65282 -1.21946 0
M  V30 1125 H 99.3047 -1.08777 -3.71085 0
M  V30 1126 H 100.994 -1.50234 -3.77074 0
M  V30 1127 H 101.76 -3.84731 -2.95308 0
M  V30 1128 H 97.6387 -2.83063 -3.63863 0
M  V30 1129 H 101.183 -6.24263 -3.11355 0
M  V30 1130 H 97.0797 -5.21714 -3.80111 0
M  V30 1131 H 97.8477 -7.29135 -3.71892 0
M  V30 1132 N 100.511 1.16574 -1.06058 0
M  V30 1133 C 101.421 2.2452 -0.680282 0
M  V30 1134 C 102.437 1.71348 0.302604 0
M  V30 1135 O 103.613 2.00822 0.152513 0
M  V30 1136 C 100.678 3.46629 -0.0700315 0
M  V30 1137 C 99.7388 4.14849 -1.10448 0
M  V30 1138 C 98.9718 5.31129 -0.523256 0
M  V30 1139 O 99.1948 5.66514 0.664709 0
M  V30 1140 O 98.1288 5.88526 -1.26179 0
M  V30 1141 H 101.955 2.59355 -1.58015 0
M  V30 1142 H 99.5398 1.24043 -0.832694 0
M  V30 1143 H 101.422 4.20543 0.268667 0
M  V30 1144 H 100.097 3.13573 0.803353 0
M  V30 1145 H 99.0038 3.42916 -1.49532 0
M  V30 1146 H 100.337 4.51954 -1.94931 0
M  V30 1147 N 101.989 0.842826 1.3317 0
M  V30 1148 C 102.937 0.267495 2.31057 0
M  V30 1149 C 103.931 -0.602682 1.58316 0
M  V30 1150 O 105.137 -0.491803 1.73151 0
M  V30 1151 H 101.512 0.0677813 0.748939 0
M  V30 1152 H 103.483 1.10754 2.77085 0
M  V30 1153 C 102.232 -0.539331 3.43492 0
M  V30 1154 H 101.555 0.12095 3.99617 0
M  V30 1155 H 102.995 -0.90767 4.14171 0
M  V30 1156 C 101.454 -1.71981 2.89697 0
M  V30 1157 O 101.984 -2.81862 2.86211 0
M  V30 1158 N 100.19 -1.54299 2.46252 0
M  V30 1159 H 99.7369 -0.649143 2.49287 0
M  V30 1160 H 99.6949 -2.33431 2.10612 0
M  V30 1161 N 103.467 -1.45747 0.599634 0
M  V30 1162 C 104.692 -2.07178 0.0960198 0
M  V30 1163 C 105.117 -1.44268 -1.207 0
M  V30 1164 O 104.475 -0.532503 -1.73303 0
M  V30 1165 C 104.523 -3.60579 -0.0385348 0
M  V30 1166 O 103.627 -3.97713 -1.0908 0
M  V30 1167 H 102.968 -0.660251 0.0704593 0
M  V30 1168 H 105.498 -1.87124 0.827385 0
M  V30 1169 H 105.508 -4.07298 -0.239304 0
M  V30 1170 H 104.183 -4.05756 0.912947 0
M  V30 1171 H 102.76 -3.62678 -0.867135 0
M  V30 1172 N 104.945 -0.338344 -1.53925 0
M  V30 1173 C 105.875 0.51328 -2.27789 0
M  V30 1174 C 106.856 1.107 -1.29149 0
M  V30 1175 O 108.041 1.12937 -1.57984 0
M  V30 1176 C 105.171 1.66697 -3.04679 0
M  V30 1177 C 104.125 1.20183 -4.1078 0
M  V30 1178 C 103.451 2.44363 -4.75595 0
M  V30 1179 C 104.751 0.30605 -5.21403 0
M  V30 1180 H 106.445 -0.102883 -2.99223 0
M  V30 1181 H 103.991 -0.0509219 -1.4391 0
M  V30 1182 H 105.944 2.26915 -3.55088 0
M  V30 1183 H 104.668 2.30995 -2.30887 0
M  V30 1184 H 103.327 0.622499 -3.61276 0
M  V30 1185 H 102.975 3.07057 -3.98403 0
M  V30 1186 H 102.675 2.13925 -5.47275 0
M  V30 1187 H 104.199 3.05317 -5.28786 0
M  V30 1188 H 105.613 0.814929 -5.67478 0
M  V30 1189 H 104.01 0.0937929 -6.00027 0
M  V30 1190 H 105.08 -0.65921 -4.80398 0
M  V30 1191 N 106.423 1.57458 -0.0668435 0
M  V30 1192 C 107.839 1.56947 0.289772 0
M  V30 1193 C 108.039 1.07584 1.70376 0
M  V30 1194 O 107.095 0.739486 2.41429 0
M  V30 1195 C 108.408 3.0052 0.103943 0
M  V30 1196 C 109.956 3.12517 0.173857 0
M  V30 1197 C 110.431 4.57997 0.0163682 0
M  V30 1198 N 111.922 4.63144 0.0721352 0
M  V30 1199 C 112.657 5.73394 -0.0253794 0
M  V30 1200 N 112.153 6.92576 -0.176133 0
M  V30 1201 N 113.946 5.62091 0.0313305 0
M  V30 1202 H 106.097 1.87863 -0.991027 0
M  V30 1203 H 108.36 0.86583 -0.38606 0
M  V30 1204 H 108.066 3.40729 -0.871572 0
M  V30 1205 H 107.94 3.67304 0.858366 0
M  V30 1206 H 110.327 2.72197 1.13985 0
M  V30 1207 H 110.408 2.48381 -0.611586 0
M  V30 1208 H 110.052 4.99005 -0.946374 0
M  V30 1209 H 109.982 5.20158 0.821153 0
M  V30 1210 H 112.473 3.77436 0.187263 0
M  V30 1211 H 112.786 7.72418 -0.242821 0
M  V30 1212 H 111.131 6.94678 -0.211429 0
M  V30 1213 H 114.322 4.67867 0.147773 0
M  V30 1214 H 114.495 6.47982 -0.048121 0
M  V30 1215 N 107.901 -0.206675 1.56239 0
M  V30 1216 C 109.15 -0.926964 1.79138 0
M  V30 1217 C 109.463 -1.84901 0.638043 0
M  V30 1218 O 110.669 -2.60906 0.751033 0
M  V30 1219 C 109.125 -1.6986 3.17294 0
M  V30 1220 C 108.733 -0.821956 4.40395 0
M  V30 1221 C 110.477 -2.40922 3.4951 0
M  V30 1222 C 108.384 -1.59179 5.69575 0
M  V30 1223 H 107.314 -0.349864 0.667915 0
M  V30 1224 H 109.965 -0.180487 1.8261 0
M  V30 1225 H 108.347 -2.48853 3.08039 0
M  V30 1226 H 109.521 -0.0715019 4.60745 0
M  V30 1227 H 107.836 -0.222741 4.15804 0
M  V30 1228 H 110.433 -2.99047 4.43255 0
M  V30 1229 H 110.776 -3.14542 2.72707 0
M  V30 1230 H 111.309 -1.68905 3.60161 0
M  V30 1231 H 108.048 -0.898589 6.49312 0
M  V30 1232 H 107.568 -2.31648 5.53262 0
M  V30 1233 H 109.247 -2.14862 6.10281 0
M  V30 1234 N 109.379 -1.50304 -0.473955 0
M  V30 1235 C 110.326 -1.68959 -1.57231 0
M  V30 1236 C 111.296 -0.530899 -1.57387 0
M  V30 1237 O 112.481 -0.761133 -1.74961 0
M  V30 1238 C 109.621 -1.7871 -2.95223 0
M  V30 1239 C 108.734 -3.06061 -3.04878 0
M  V30 1240 C 107.869 -3.06626 -4.33767 0
M  V30 1241 C 106.908 -4.28443 -4.37154 0
M  V30 1242 N 106.045 -4.26763 -5.5751 0
M  V30 1243 H 110.885 -2.6273 -1.40631 0
M  V30 1244 H 108.422 -1.30241 -0.683789 0
M  V30 1245 H 110.38 -1.82344 -3.75242 0
M  V30 1246 H 109.01 -0.883806 -3.10465 0
M  V30 1247 H 108.062 -3.11911 -2.17751 0
M  V30 1248 H 109.374 -3.96039 -3.0324 0
M  V30 1249 H 108.528 -3.08973 -5.22131 0
M  V30 1250 H 107.267 -2.14473 -4.3801 0
M  V30 1251 H 106.272 -4.2631 -3.47188 0
M  V30 1252 H 107.497 -5.2182 -4.34605 0
M  V30 1253 H 105.443 -3.37462 -5.62544 0
M  V30 1254 H 105.36 -5.10507 -5.57601 0
M  V30 1255 H 106.628 -4.33253 -6.48006 0
M  V30 1256 N 110.857 0.726932 -1.39834 0
M  V30 1257 C 111.767 1.87131 -1.41489 0
M  V30 1258 C 112.783 1.71239 -0.308757 0
M  V30 1259 O 113.959 1.93701 -0.551529 0
M  V30 1260 C 111.024 3.22811 -1.26468 0
M  V30 1261 C 110.085 3.51039 -2.47124 0
M  V30 1262 C 109.318 4.80245 -2.3281 0
M  V30 1263 O 109.541 5.54537 -1.33585 0
M  V30 1264 O 108.475 5.08554 -3.21957 0
M  V30 1265 H 112.301 1.8869 -2.3797 0
M  V30 1266 H 109.886 0.875837 -1.21035 0
M  V30 1267 H 111.768 4.03877 -1.20255 0
M  V30 1268 H 110.443 3.22005 -0.330862 0
M  V30 1269 H 109.35 2.70027 -2.58914 0
M  V30 1270 H 110.683 3.56632 -3.39227 0
M  V30 1271 N 112.336 1.25143 0.95797 0
M  V30 1272 C 113.561 1.12521 1.74223 0
M  V30 1273 C 113.986 -0.317402 1.85403 0
M  V30 1274 O 113.344 -1.2299 1.33204 0
M  V30 1275 C 113.392 1.78062 3.1357 0
M  V30 1276 O 112.496 1.058 3.98598 0
M  V30 1277 H 111.837 0.39304 0.535178 0
M  V30 1278 H 114.367 1.65641 1.201 0
M  V30 1279 H 114.377 1.84213 3.64046 0
M  V30 1280 H 113.052 2.83021 3.04749 0
M  V30 1281 H 111.629 1.07506 3.57067 0
M  V30 1282 N 113.814 -1.1601 1.06675 0
M  V30 1283 C 115.225 -1.68235 0.809565 0
M  V30 1284 C 115.576 -1.8454 -0.666303 0
M  V30 1285 O 114.701 -1.54374 -1.5165 0
M  V30 1286 C 115.296 -3.05585 1.46299 0
M  V30 1287 C 113.855 -3.54915 1.25349 0
M  V30 1288 C 113.002 -2.30804 1.53703 0
M  V30 1289 H 115.953 -1.00318 1.22971 0
M  V30 1290 H 115.974 -3.70174 0.880431 0
M  V30 1291 H 115.486 -2.93686 2.53713 0
M  V30 1292 H 113.587 -3.72067 0.199261 0
M  V30 1293 H 113.7 -4.36774 1.9689 0
M  V30 1294 H 112.064 -2.36007 0.957739 0
M  V30 1295 H 112.847 -2.21499 2.62284 0
M  V30 1296 N 115.292 -0.849877 -1.32721 0
M  V30 1297 C 116.52 -0.464754 -2.01613 0
M  V30 1298 C 116.935 0.937191 -1.63897 0
M  V30 1299 O 116.292 1.61081 -0.857856 0
M  V30 1300 C 116.343 -0.588638 -3.56675 0
M  V30 1301 O 116.064 -1.93535 -3.93034 0
M  V30 1302 C 117.565 -0.2019 -4.4284 0
M  V30 1303 H 114.785 -0.183215 -0.645502 0
M  V30 1304 H 117.329 -1.1455 -1.69407 0
M  V30 1305 H 115.484 0.0443159 -3.87375 0
M  V30 1306 H 115.898 -1.92871 -4.87751 0
M  V30 1307 H 117.372 -0.339599 -5.50954 0
M  V30 1308 H 117.849 0.857224 -4.30753 0
M  V30 1309 H 118.455 -0.809733 -4.17521 0
M  V30 1310 N 116.77 1.45427 -0.607355 0
M  V30 1311 C 118.016 2.03097 -0.111035 0
M  V30 1312 C 118.371 1.46735 1.24445 0
M  V30 1313 O 117.664 0.632478 1.8086 0
M  V30 1314 C 117.858 3.57398 -0.0129263 0
M  V30 1315 C 117.687 4.28726 -1.35735 0
M  V30 1316 C 116.457 4.66659 -1.93798 0
M  V30 1317 C 118.655 4.60699 -2.28607 0
M  V30 1318 N 116.637 5.22845 -3.21723 0
M  V30 1319 C 118.008 5.17716 -3.41131 0
M  V30 1320 C 120.063 4.42638 -2.27982 0
M  V30 1321 C 118.766 5.58576 -4.53194 0
M  V30 1322 C 120.792 4.84531 -3.39093 0
M  V30 1323 C 120.154 5.4164 -4.50339 0
M  V30 1324 H 116.253 0.777476 -0.083994 0
M  V30 1325 H 118.837 1.77249 -0.805655 0
M  V30 1326 H 117.008 3.82907 0.650914 0
M  V30 1327 H 118.74 4.01722 0.490033 0
M  V30 1328 H 115.495 4.50207 -1.47007 0
M  V30 1329 H 115.919 5.55438 -3.87063 0
M  V30 1330 H 120.561 3.97798 -1.43235 0
M  V30 1331 H 118.279 6.02382 -5.38667 0
M  V30 1332 H 121.865 4.72289 -3.39757 0
M  V30 1333 H 120.745 5.73461 -5.34895 0
M  V30 1334 N 118.248 0.346503 1.53744 0
M  V30 1335 C 119.158 -0.517293 2.28826 0
M  V30 1336 C 120.174 -1.10935 1.3405 0
M  V30 1337 O 121.35 -1.1244 1.6709 0
M  V30 1338 C 118.415 -1.65098 3.04866 0
M  V30 1339 C 117.476 -1.0884 4.15274 0
M  V30 1340 C 116.709 -2.16806 4.87679 0
M  V30 1341 O 116.932 -3.3758 4.59778 0
M  V30 1342 O 115.866 -1.80934 5.74061 0
M  V30 1343 H 119.692 0.0931396 3.03557 0
M  V30 1344 H 117.277 0.111458 1.48984 0
M  V30 1345 H 119.159 -2.31053 3.5241 0
M  V30 1346 H 117.834 -2.24717 2.32989 0
M  V30 1347 H 116.741 -0.3933 3.72027 0
M  V30 1348 H 118.074 -0.537036 4.89261 0
M  V30 1349 N 119.726 -1.57421 0.075193 0
M  V30 1350 C 120.956 -1.97659 -0.601203 0
M  V30 1351 C 121.364 -0.952427 -1.63479 0
M  V30 1352 O 120.707 0.0688241 -1.83571 0
M  V30 1353 C 120.769 -3.34218 -1.32434 0
M  V30 1354 C 120.433 -4.5484 -0.443826 0
M  V30 1355 C 121.43 -5.19034 0.299969 0
M  V30 1356 C 119.115 -5.00952 -0.367709 0
M  V30 1357 C 121.109 -6.27695 1.10807 0
M  V30 1358 C 118.796 -6.09484 0.444058 0
M  V30 1359 C 119.794 -6.72719 1.18061 0
M  V30 1360 O 119.482 -7.79161 1.97898 0
M  V30 1361 H 119.214 -0.65494 -0.167422 0
M  V30 1362 H 121.768 -2.04886 0.145157 0
M  V30 1363 H 119.998 -3.23615 -2.11685 0
M  V30 1364 H 121.687 -3.59038 -1.89331 0
M  V30 1365 H 122.453 -4.84351 0.250776 0
M  V30 1366 H 118.332 -4.51509 -0.930638 0
M  V30 1367 H 121.876 -6.76982 1.68347 0
M  V30 1368 H 117.773 -6.43601 0.494803 0
M  V30 1369 H 118.541 -7.96055 1.90367 0
M  V30 1370 N 121.204 0.198386 -1.56346 0
M  V30 1371 C 122.154 1.2499 -1.90687 0
M  V30 1372 C 123.138 1.41158 -0.772217 0
M  V30 1373 O 124.33 1.43584 -1.03502 0
M  V30 1374 C 121.459 2.59542 -2.24706 0
M  V30 1375 C 120.545 2.47181 -3.44619 0
M  V30 1376 N 120.936 2.04495 -4.62618 0
M  V30 1377 C 119.234 2.78082 -3.48692 0
M  V30 1378 C 119.935 2.03945 -5.44776 0
M  V30 1379 N 118.911 2.45323 -4.85095 0
M  V30 1380 H 122.713 0.911149 -2.7942 0
M  V30 1381 H 120.227 0.40684 -1.57221 0
M  V30 1382 H 122.224 3.3549 -2.47491 0
M  V30 1383 H 120.884 2.94244 -1.37298 0
M  V30 1384 H 121.895 1.75256 -4.87345 0
M  V30 1385 H 118.572 3.17002 -2.71691 0
M  V30 1386 H 119.962 1.72872 -6.4928 0
M  V30 1387 N 122.682 1.50554 0.465978 0
M  V30 1388 C 123.928 1.62038 1.21949 0
M  V30 1389 C 124.261 0.322116 1.9151 0
M  V30 1390 O 123.536 -0.676723 1.82348 0
M  V30 1391 C 123.819 2.80421 2.25912 0
M  V30 1392 C 123.672 4.20144 1.60622 0
M  V30 1393 C 124.991 2.94354 3.27176 0
M  V30 1394 H 122.11 0.589752 0.441998 0
M  V30 1395 H 124.752 1.82956 0.51257 0
M  V30 1396 H 122.902 2.62717 2.86203 0
M  V30 1397 H 124.574 4.49449 1.03889 0
M  V30 1398 H 122.817 4.24165 0.909211 0
M  V30 1399 H 123.488 4.98914 2.36196 0
M  V30 1400 H 125.964 3.10578 2.76913 0
M  V30 1401 H 124.84 3.788 3.97242 0
M  V30 1402 H 125.101 2.05186 3.916 0
M  V30 1403 N 124.16 -0.719506 1.40217 0
M  V30 1404 C 125.107 -1.83359 1.40172 0
M  V30 1405 C 126.077 -1.64065 0.259206 0
M  V30 1406 O 127.262 -1.85254 0.456677 0
M  V30 1407 C 124.402 -3.2103 1.26624 0
M  V30 1408 C 123.515 -3.51923 2.50548 0
M  V30 1409 C 122.65 -4.79079 2.29471 0
M  V30 1410 C 121.689 -5.02863 3.48992 0
M  V30 1411 N 120.826 -6.2123 3.27135 0
M  V30 1412 H 125.666 -1.82733 2.35399 0
M  V30 1413 H 123.203 -0.892688 1.16917 0
M  V30 1414 H 125.161 -4.00524 1.16776 0
M  V30 1415 H 123.791 -3.20895 0.350176 0
M  V30 1416 H 122.843 -2.67014 2.70939 0
M  V30 1417 H 124.155 -3.6541 3.39525 0
M  V30 1418 H 123.309 -5.66582 2.16955 0
M  V30 1419 H 122.048 -4.67794 1.37913 0
M  V30 1420 H 121.053 -4.13816 3.6199 0
M  V30 1421 H 122.278 -5.16023 4.41472 0
M  V30 1422 H 120.224 -6.11204 2.38256 0
M  V30 1423 H 120.141 -6.35375 4.09675 0
M  V30 1424 H 121.409 -7.11532 3.18344 0
M  V30 1425 N 125.638 -1.25649 -0.95132 0
M  V30 1426 C 126.866 -1.13343 -1.73092 0
M  V30 1427 C 127.281 0.312434 -1.86197 0
M  V30 1428 O 126.638 1.21465 -1.36207 0
M  V30 1429 C 126.689 -1.78602 -3.14299 0
M  V30 1430 O 126.41 -3.17537 -3.01831 0
M  V30 1431 C 127.911 -1.72119 -4.08522 0
M  V30 1432 H 125.131 -0.395181 -0.542285 0
M  V30 1433 H 127.675 -1.66076 -1.19328 0
M  V30 1434 H 125.83 -1.29832 -3.64996 0
M  V30 1435 H 126.244 -3.49676 -3.90931 0
M  V30 1436 H 127.718 -2.22435 -5.052 0
M  V30 1437 H 128.195 -0.685635 -4.33815 0
M  V30 1438 H 128.801 -2.20393 -3.63741 0
M  V30 1439 N 127.117 1.15442 -1.07289 0
M  V30 1440 C 128.347 1.89821 -0.815576 0
M  V30 1441 C 128.755 1.7823 0.634867 0
M  V30 1442 O 128.098 1.13152 1.44715 0
M  V30 1443 C 128.16 3.40817 -1.14385 0
M  V30 1444 C 127.824 3.76193 -2.59476 0
M  V30 1445 C 128.821 3.77269 -3.57721 0
M  V30 1446 C 126.506 4.0652 -2.95037 0
M  V30 1447 C 128.5 4.08176 -4.89562 0
M  V30 1448 C 126.187 4.37092 -4.27076 0
M  V30 1449 C 127.185 4.37902 -5.24148 0
M  V30 1450 O 126.873 4.67741 -6.53815 0
M  V30 1451 H 126.605 0.608465 -0.294528 0
M  V30 1452 H 129.159 1.472 -1.43252 0
M  V30 1453 H 127.389 3.83835 -0.469865 0
M  V30 1454 H 129.078 3.96485 -0.869179 0
M  V30 1455 H 129.844 3.5394 -3.3159 0
M  V30 1456 H 125.723 4.05049 -2.20128 0
M  V30 1457 H 129.267 4.08723 -5.65324 0
M  V30 1458 H 125.164 4.59889 -4.5296 0
M  V30 1459 H 125.932 4.85509 -6.58957 0
M  V30 1460 N 128.595 0.856903 1.32268 0
M  V30 1461 C 129.843 0.460474 1.96784 0
M  V30 1462 C 130.164 -0.987701 1.68135 0
M  V30 1463 O 129.434 -1.69058 0.989765 0
M  V30 1464 H 128.014 0.167289 0.728027 0
M  V30 1465 H 130.676 1.09383 1.61312 0
M  V30 1466 H 129.772 0.60739 3.06133 0
M  V30 1467 N 130.073 -1.45103 0.615059 0
M  V30 1468 C 130.983 -2.34382 -0.101034 0
M  V30 1469 C 131.999 -1.51681 -0.852585 0
M  V30 1470 O 133.175 -1.8446 -0.808484 0
M  V30 1471 C 130.24 -3.29417 -1.08099 0
M  V30 1472 C 129.301 -4.28025 -0.330577 0
M  V30 1473 C 128.534 -5.1852 -1.26385 0
M  V30 1474 O 128.757 -5.12598 -2.50198 0
M  V30 1475 O 127.691 -5.97122 -0.756866 0
M  V30 1476 H 131.517 -2.97033 0.632855 0
M  V30 1477 H 129.102 -1.4461 0.375293 0
M  V30 1478 H 130.984 -3.87958 -1.6452 0
M  V30 1479 H 129.659 -2.69321 -1.79577 0
M  V30 1480 H 128.566 -3.73078 0.276283 0
M  V30 1481 H 129.899 -4.90997 0.343866 0
M  V30 1482 N 131.551 -0.354651 -1.53558 0
M  V30 1483 C 132.499 0.512195 -2.26891 0
M  V30 1484 C 133.493 1.09263 -1.29452 0
M  V30 1485 O 134.699 1.03709 -1.47121 0
M  V30 1486 H 131.074 0.183878 -0.729173 0
M  V30 1487 H 133.045 -0.128202 -2.98124 0
M  V30 1488 C 131.794 1.64563 -3.06291 0
M  V30 1489 H 131.117 1.20829 -3.81104 0
M  V30 1490 H 132.557 2.22711 -3.60799 0
M  V30 1491 C 131.016 2.58158 -2.16462 0
M  V30 1492 O 131.546 3.60695 -1.76811 0
M  V30 1493 N 129.752 2.27096 -1.81317 0
M  V30 1494 H 129.299 1.43751 -2.1376 0
M  V30 1495 H 129.257 2.89975 -1.21498 0
M  V30 1496 N 133.029 1.57378 -0.0835403 0
M  V30 1497 C 134.276 1.9393 0.58287 0
M  V30 1498 C 134.604 0.964455 1.68904 0
M  V30 1499 O 133.859 -0.0179474 1.95692 0
M  V30 1500 C 134.158 3.37063 1.1884 0
M  V30 1501 C 133.824 4.50424 0.207194 0
M  V30 1502 C 132.486 4.81159 -0.0627115 0
M  V30 1503 C 134.838 5.19136 -0.463426 0
M  V30 1504 C 132.166 5.77939 -1.01012 0
M  V30 1505 C 134.518 6.16931 -1.39924 0
M  V30 1506 C 133.182 6.46078 -1.67749 0
M  V30 1507 H 132.452 0.70964 0.213287 0
M  V30 1508 H 135.099 1.90856 -0.156916 0
M  V30 1509 H 133.404 3.3666 2.00418 0
M  V30 1510 H 135.101 3.6264 1.71153 0
M  V30 1511 H 131.691 4.2646 0.427747 0
M  V30 1512 H 135.875 4.95576 -0.268034 0
M  V30 1513 H 131.131 5.98842 -1.23283 0
M  V30 1514 H 135.305 6.69273 -1.92476 0
M  V30 1515 H 132.932 7.2088 -2.41321 0
M  V30 1516 N 134.507 -0.190092 1.56449 0
M  V30 1517 C 135.417 -1.25591 1.98152 0
M  V30 1518 C 136.433 -1.49519 0.889944 0
M  V30 1519 O 137.609 -1.62036 1.19609 0
M  V30 1520 C 134.674 -2.57916 2.3169 0
M  V30 1521 C 133.735 -2.42015 3.5458 0
M  V30 1522 C 132.968 -3.6803 3.8651 0
M  V30 1523 O 133.191 -4.72413 3.1966 0
M  V30 1524 O 132.125 -3.6326 4.79923 0
M  V30 1525 H 135.951 -0.931988 2.89046 0
M  V30 1526 H 133.536 -0.395488 1.4407 0
M  V30 1527 H 135.418 -3.36008 2.54316 0
M  V30 1528 H 134.093 -2.89925 1.43963 0
M  V30 1529 H 133 -1.62017 3.37196 0
M  V30 1530 H 134.333 -2.14937 4.4279 0
M  V30 1531 N 135.985 -1.50799 -0.457987 0
M  V30 1532 C 137.215 -1.65977 -1.23025 0
M  V30 1533 C 137.623 -0.347918 -1.85974 0
M  V30 1534 O 136.966 0.68148 -1.70592 0
M  V30 1535 C 137.028 -2.70309 -2.3701 0
M  V30 1536 C 136.692 -4.135 -1.94594 0
M  V30 1537 C 137.689 -4.98949 -1.46101 0
M  V30 1538 C 135.374 -4.5949 -2.02915 0
M  V30 1539 C 137.368 -6.28442 -1.06489 0
M  V30 1540 C 135.055 -5.88984 -1.62914 0
M  V30 1541 C 136.053 -6.73286 -1.1478 0
M  V30 1542 O 135.741 -8.00362 -0.75339 0
M  V30 1543 H 135.473 -0.56064 -0.377702 0
M  V30 1544 H 138.027 -1.97857 -0.551537 0
M  V30 1545 H 136.257 -2.337 -3.08093 0
M  V30 1546 H 137.946 -2.74574 -2.98938 0
M  V30 1547 H 138.712 -4.6463 -1.39084 0
M  V30 1548 H 134.591 -3.94009 -2.39328 0
M  V30 1549 H 138.135 -6.94194 -0.688488 0
M  V30 1550 H 134.032 -6.22822 -1.69595 0
M  V30 1551 H 134.8 -8.13744 -0.88108 0
M  V30 1552 N 137.463 0.71206 -1.40597 0
M  V30 1553 C 138.373 1.8562 -1.43466 0
M  V30 1554 C 139.389 1.70902 -0.326902 0
M  V30 1555 O 140.565 1.93105 -0.572043 0
M  V30 1556 C 137.63 3.21451 -1.29884 0
M  V30 1557 C 136.691 3.48398 -2.50833 0
M  V30 1558 C 135.924 4.77749 -2.3789 0
M  V30 1559 O 136.147 5.53089 -1.39459 0
M  V30 1560 O 135.081 5.05111 -3.27333 0
M  V30 1561 H 138.907 1.86155 -2.39958 0
M  V30 1562 H 136.492 0.86295 -1.21957 0
M  V30 1563 H 138.374 4.02579 -1.24531 0
M  V30 1564 H 137.049 3.21636 -0.364997 0
M  V30 1565 H 135.956 2.67265 -2.61763 0
M  V30 1566 H 137.289 3.53014 -3.4299 0
M  V30 1567 N 138.941 1.26152 0.944643 0
M  V30 1568 C 139.888 1.07408 2.04285 0
M  V30 1569 C 140.858 -0.0198413 1.66088 0
M  V30 1570 O 142.043 0.139264 1.90291 0
M  V30 1571 C 139.183 0.70945 3.37729 0
M  V30 1572 C 138.296 1.87926 3.88983 0
M  V30 1573 C 137.431 1.45807 5.10797 0
M  V30 1574 C 136.47 2.5964 5.54305 0
M  V30 1575 N 135.607 2.18226 6.67324 0
M  V30 1576 H 140.447 2.01389 2.1965 0
M  V30 1577 H 137.984 1.00275 1.07626 0
M  V30 1578 H 139.942 0.478948 4.14442 0
M  V30 1579 H 138.572 -0.193389 3.2222 0
M  V30 1580 H 137.624 2.22279 3.08701 0
M  V30 1581 H 138.936 2.73377 4.17213 0
M  V30 1582 H 138.09 1.18781 5.94959 0
M  V30 1583 H 136.829 0.574414 4.84305 0
M  V30 1584 H 135.834 2.87399 4.68702 0
M  V30 1585 H 137.059 3.48599 5.828 0
M  V30 1586 H 135.005 1.3229 6.42523 0
M  V30 1587 H 134.922 2.97221 6.95123 0
M  V30 1588 H 136.19 1.94403 7.54869 0
M  V30 1589 N 140.419 -1.14872 1.07899 0
M  V30 1590 C 141.666 -1.85789 0.805532 0
M  V30 1591 C 141.994 -1.82649 -0.668561 0
M  V30 1592 O 141.249 -1.24858 -1.50695 0
M  V30 1593 C 141.548 -3.34223 1.26609 0
M  V30 1594 C 141.214 -3.57555 2.74709 0
M  V30 1595 C 139.876 -3.63631 3.1516 0
M  V30 1596 C 142.228 -3.66803 3.70277 0
M  V30 1597 C 139.556 -3.76473 4.49983 0
M  V30 1598 C 141.908 -3.8117 5.04869 0
M  V30 1599 C 140.572 -3.85494 5.44932 0
M  V30 1600 H 139.842 -0.679849 0.294765 0
M  V30 1601 H 142.489 -1.3572 1.35101 0
M  V30 1602 H 140.794 -3.86536 0.640103 0
M  V30 1603 H 142.491 -3.87511 1.03132 0
M  V30 1604 H 139.081 -3.5347 2.42398 0
M  V30 1605 H 143.265 -3.61404 3.40149 0
M  V30 1606 H 138.521 -3.7808 4.80484 0
M  V30 1607 H 142.695 -3.87268 5.78789 0
M  V30 1608 H 140.322 -3.95197 6.49403 0
M  V30 1609 N 141.898 -0.863906 -1.31812 0
M  V30 1610 C 142.861 -0.320212 -2.26952 0
M  V30 1611 C 143.861 0.525369 -1.51975 0
M  V30 1612 O 145.051 0.335547 -1.70938 0
M  V30 1613 C 142.183 0.545919 -3.365 0
M  V30 1614 H 143.376 -1.16004 -2.76556 0
M  V30 1615 H 140.929 -0.638995 -1.42641 0
M  V30 1616 H 141.664 1.40718 -2.92179 0
M  V30 1617 H 141.449 -0.0594674 -3.92055 0
M  V30 1618 H 142.939 0.918796 -4.07367 0
M  V30 1619 N 143.376 1.44774 -0.622745 0
M  V30 1620 C 144.653 1.95522 -0.0551974 0
M  V30 1621 C 145.033 1.5649 1.41683 0
M  V30 1622 O 144.381 0.834848 2.12703 0
M  V30 1623 C 144.591 3.4796 -0.269242 0
M  V30 1624 C 145.939 4.24306 -0.158014 0
M  V30 1625 O 146.963 3.55637 -0.200162 0
M  V30 1626 O 145.822 5.46471 -0.0558693 0
M  V30 1627 H 142.916 0.826556 0.0271015 0
M  V30 1628 H 145.462 1.54866 -0.693864 0
M  V30 1629 H 144.234 3.6939 -1.29099 0
M  V30 1630 H 143.857 3.95543 0.403966 0
M  V30 1631 N 144.854 0.36279 1.53368 0
M  V30 1632 C 145.784 -0.476976 2.28576 0
M  V30 1633 C 146.765 -1.08631 1.30894 0
M  V30 1634 O 147.95 -1.10409 1.59761 0
M  V30 1635 C 145.08 -1.61828 3.07293 0
M  V30 1636 C 144.034 -1.13633 4.1264 0
M  V30 1637 C 143.36 -2.36766 4.79423 0
M  V30 1638 C 144.66 -0.223061 5.21823 0
M  V30 1639 H 146.354 0.150474 2.99022 0
M  V30 1640 H 143.9 0.0738103 1.43811 0
M  V30 1641 H 145.853 -2.21237 3.58653 0
M  V30 1642 H 144.577 -2.27292 2.34533 0
M  V30 1643 H 143.236 -0.564945 3.62221 0
M  V30 1644 H 142.884 -3.0068 4.03238 0
M  V30 1645 H 142.584 -2.05192 5.50609 0
M  V30 1646 H 144.108 -2.96865 5.33576 0
M  V30 1647 H 145.522 -0.724545 5.68703 0
M  V30 1648 H 143.919 0.001678 6.001 0
M  V30 1649 H 144.989 0.735553 4.79289 0
M  V30 1650 N 146.332 -1.57332 0.0918853 0
M  V30 1651 C 147.579 -1.94236 -0.572577 0
M  V30 1652 C 147.907 -0.973398 -1.6839 0
M  V30 1653 O 147.162 0.00756912 -1.95699 0
M  V30 1654 C 147.461 -3.37689 -1.17051 0
M  V30 1655 C 147.127 -4.50527 -0.183304 0
M  V30 1656 C 145.789 -4.81119 0.0882276 0
M  V30 1657 C 148.141 -5.18883 0.49095 0
M  V30 1658 C 145.469 -5.77395 1.04076 0
M  V30 1659 C 147.821 -6.1618 1.43193 0
M  V30 1660 C 146.485 -6.45179 1.71173 0
M  V30 1661 H 145.755 -0.710762 -0.209521 0
M  V30 1662 H 148.402 -1.9077 0.167036 0
M  V30 1663 H 146.707 -3.37718 -1.9863 0
M  V30 1664 H 148.404 -3.63543 -1.69227 0
M  V30 1665 H 144.994 -4.26681 -0.405124 0
M  V30 1666 H 149.178 -4.95427 0.294312 0
M  V30 1667 H 144.434 -5.98179 1.26457 0
M  V30 1668 H 148.608 -6.68243 1.96023 0
M  V30 1669 H 146.235 -7.1959 2.4514 0
M  V30 1670 N 147.81 0.181792 -1.56548 0
M  V30 1671 C 149.038 0.915947 -1.85521 0
M  V30 1672 C 149.453 1.76282 -0.676016 0
M  V30 1673 O 148.81 1.79012 0.355077 0
M  V30 1674 C 148.861 1.80126 -3.13427 0
M  V30 1675 O 148.582 0.988562 -4.26801 0
M  V30 1676 C 150.083 2.64597 -3.55673 0
M  V30 1677 H 147.303 0.26661 -0.61576 0
M  V30 1678 H 149.847 0.185039 -2.03661 0
M  V30 1679 H 148.002 2.48563 -2.97145 0
M  V30 1680 H 148.416 1.59308 -4.99721 0
M  V30 1681 H 149.89 3.2235 -4.48101 0
M  V30 1682 H 150.367 3.38958 -2.79292 0
M  V30 1683 H 150.973 2.0151 -3.74532 0
M  V30 1684 N 149.288 1.51039 0.449983 0
M  V30 1685 C 150.251 1.70863 1.5277 0
M  V30 1686 C 151.251 0.578846 1.5002 0
M  V30 1687 O 152.441 0.846213 1.52266 0
M  V30 1688 C 149.573 1.75341 2.9235 0
M  V30 1689 H 150.766 2.67034 1.36502 0
M  V30 1690 H 148.319 1.40838 0.677812 0
M  V30 1691 H 149.054 0.809383 3.14037 0
M  V30 1692 H 148.839 2.57436 2.95752 0
M  V30 1693 H 150.329 1.92559 3.70555 0
M  V30 1694 N 150.766 -0.704594 1.40972 0
M  V30 1695 C 151.676 -1.84856 1.44448 0
M  V30 1696 C 152.692 -1.70726 0.335961 0
M  V30 1697 O 153.868 -1.92799 0.582276 0
M  V30 1698 C 150.933 -3.20758 1.31587 0
M  V30 1699 C 149.994 -3.47063 2.52677 0
M  V30 1700 C 149.227 -4.76481 2.4042 0
M  V30 1701 O 149.45 -5.52341 1.42391 0
M  V30 1702 O 148.384 -5.03367 3.30007 0
M  V30 1703 H 152.21 -1.8488 2.40942 0
M  V30 1704 H 149.795 -0.85647 1.22413 0
M  V30 1705 H 151.677 -4.01913 1.26665 0
M  V30 1706 H 150.352 -3.21438 0.382049 0
M  V30 1707 H 149.259 -2.65873 2.63177 0
M  V30 1708 H 150.592 -3.5119 3.44858 0
M  V30 1709 N 152.244 -1.26651 -0.937939 0
M  V30 1710 C 153.191 -1.0849 -2.03712 0
M  V30 1711 C 154.161 0.011033 -1.66096 0
M  V30 1712 O 155.346 -0.149353 -1.90215 0
M  V30 1713 C 152.486 -0.72735 -3.37348 0
M  V30 1714 C 151.599 -1.89986 -3.87981 0
M  V30 1715 C 150.734 -1.48513 -5.10017 0
M  V30 1716 C 149.773 -2.62575 -5.5292 0
M  V30 1717 N 148.91 -2.21762 -6.66158 0
M  V30 1718 H 153.75 -2.02551 -2.18579 0
M  V30 1719 H 151.287 -1.00844 -1.07093 0
M  V30 1720 H 153.245 -0.50092 -4.14182 0
M  V30 1721 H 151.875 0.176298 -3.22318 0
M  V30 1722 H 150.927 -2.23913 -3.07518 0
M  V30 1723 H 152.239 -2.75586 -4.15757 0
M  V30 1724 H 151.393 -1.21934 -5.94321 0
M  V30 1725 H 150.132 -0.60009 -4.83994 0
M  V30 1726 H 149.137 -2.8988 -4.67172 0
M  V30 1727 H 150.362 -3.51685 -5.80943 0
M  V30 1728 H 148.308 -1.35696 -6.41812 0
M  V30 1729 H 148.225 -3.00903 -6.93537 0
M  V30 1730 H 149.493 -1.98403 -7.53828 0
M  V30 1731 N 153.722 1.14298 -1.08507 0
M  V30 1732 C 154.968 1.85854 -0.826438 0
M  V30 1733 C 155.323 1.81413 0.640878 0
M  V30 1734 O 154.616 1.23463 1.46518 0
M  V30 1735 C 154.81 3.33547 -1.28379 0
M  V30 1736 C 154.639 3.52369 -2.79403 0
M  V30 1737 C 153.409 3.67159 -3.47164 0
M  V30 1738 C 155.607 3.49203 -3.77573 0
M  V30 1739 N 153.589 3.74149 -4.86709 0
M  V30 1740 C 154.96 3.6245 -5.03021 0
M  V30 1741 C 157.015 3.32547 -3.70563 0
M  V30 1742 C 155.718 3.60761 -6.2229 0
M  V30 1743 C 157.744 3.32162 -4.89308 0
M  V30 1744 C 157.106 3.45949 -6.13595 0
M  V30 1745 H 153.205 0.696705 -0.355143 0
M  V30 1746 H 155.789 1.36981 -1.38362 0
M  V30 1747 H 153.96 3.81008 -0.754166 0
M  V30 1748 H 155.692 3.92867 -0.971469 0
M  V30 1749 H 152.447 3.68433 -2.9758 0
M  V30 1750 H 152.871 3.81359 -5.5937 0
M  V30 1751 H 157.513 3.20797 -2.75407 0
M  V30 1752 H 155.231 3.71286 -7.17755 0
M  V30 1753 H 158.817 3.20485 -4.85573 0
M  V30 1754 H 157.697 3.456 -7.03939 0
M  V30 1755 N 155.201 0.870884 1.31352 0
M  V30 1756 C 156.478 0.402907 1.91405 0
M  V30 1757 C 156.858 -1.11512 1.79244 0
M  V30 1758 O 156.206 -1.94411 1.2007 0
M  V30 1759 C 156.416 0.885301 3.37585 0
M  V30 1760 C 157.764 0.911971 4.14691 0
M  V30 1761 O 158.788 0.831016 3.46371 0
M  V30 1762 O 157.647 1.02927 5.3672 0
M  V30 1763 H 154.741 0.120698 0.818145 0
M  V30 1764 H 157.287 0.958857 1.40014 0
M  V30 1765 H 156.059 1.92889 3.40455 0
M  V30 1766 H 155.682 0.307714 3.96407 0
M  V30 1767 N 156.679 -1.44442 0.630414 0
M  V30 1768 C 158.09 -1.85434 0.217063 0
M  V30 1769 C 158.441 -1.52748 -1.23136 0
M  V30 1770 O 157.566 -0.965205 -1.93682 0
M  V30 1771 C 158.161 -3.36581 0.387168 0
M  V30 1772 C 156.72 -3.76389 0.0283297 0
M  V30 1773 C 155.867 -2.68296 0.700889 0
M  V30 1774 H 158.818 -1.34919 0.83562 0
M  V30 1775 H 158.839 -3.78657 -0.374086 0
M  V30 1776 H 158.351 -3.60339 1.44144 0
M  V30 1777 H 156.452 -3.58246 -1.02423 0
M  V30 1778 H 156.565 -4.77095 0.437892 0
M  V30 1779 H 154.929 -2.54335 0.136267 0
M  V30 1780 H 155.712 -2.94887 1.75774 0
M  V30 1781 N 158.157 -0.370918 -1.53173 0
M  V30 1782 C 159.089 0.507823 -2.23503 0
M  V30 1783 C 160.102 1.04182 -1.251 0
M  V30 1784 O 161.291 0.947286 -1.5129 0
M  V30 1785 C 158.391 1.71447 -2.92334 0
M  V30 1786 C 157.564 1.31105 -4.17289 0
M  V30 1787 C 156.623 2.38035 -4.69282 0
M  V30 1788 O 155.649 2.00204 -5.32829 0
M  V30 1789 N 156.851 3.69697 -4.47554 0
M  V30 1790 H 159.616 -0.0946382 -2.99551 0
M  V30 1791 H 157.177 -0.196358 -1.60705 0
M  V30 1792 H 159.169 2.42469 -3.24023 0
M  V30 1793 H 157.739 2.22368 -2.19707 0
M  V30 1794 H 156.959 0.430462 -3.91843 0
M  V30 1795 H 158.247 1.0179 -4.98514 0
M  V30 1796 H 157.645 4.03205 -3.9679 0
M  V30 1797 H 156.202 4.36807 -4.8378 0
M  V30 1798 N 159.635 1.57281 -0.100228 0
M  V30 1799 C 160.545 2.17833 0.870965 0
M  V30 1800 C 161.561 1.14921 1.30649 0
M  V30 1801 O 162.737 1.47313 1.37335 0
M  V30 1802 C 159.802 2.75085 2.1102 0
M  V30 1803 C 158.863 3.9297 1.72838 0
M  V30 1804 C 158.096 4.47482 2.90854 0
M  V30 1805 O 158.319 4.00922 4.05731 0
M  V30 1806 O 157.253 5.38433 2.69023 0
M  V30 1807 H 161.079 3.0124 0.38575 0
M  V30 1808 H 158.664 1.48881 0.124397 0
M  V30 1809 H 160.546 3.11656 2.83634 0
M  V30 1810 H 159.221 1.94721 2.58584 0
M  V30 1811 H 158.128 3.61201 0.973883 0
M  V30 1812 H 159.461 4.74713 1.30033 0
M  V30 1813 N 161.113 -0.173488 1.56642 0
M  V30 1814 C 162.359 -0.887108 1.83035 0
M  V30 1815 C 162.714 -1.79965 0.680461 0
M  V30 1816 O 162.007 -1.88854 -0.323225 0
M  V30 1817 C 162.201 -1.72069 3.13252 0
M  V30 1818 C 162.03 -0.89035 4.40798 0
M  V30 1819 C 160.8 -0.566282 5.02117 0
M  V30 1820 C 162.998 -0.232921 5.13772 0
M  V30 1821 N 160.98 0.280427 6.13259 0
M  V30 1822 C 162.351 0.475046 6.18177 0
M  V30 1823 C 164.406 -0.150863 4.97671 0
M  V30 1824 C 163.109 1.25729 7.08227 0
M  V30 1825 C 165.135 0.618039 5.88162 0
M  V30 1826 C 164.497 1.31438 6.92029 0
M  V30 1827 H 160.596 -0.303303 0.720785 0
M  V30 1828 H 163.18 -0.154244 1.94088 0
M  V30 1829 H 161.351 -2.42499 3.03395 0
M  V30 1830 H 163.083 -2.37545 3.2765 0
M  V30 1831 H 159.838 -0.895852 4.6505 0
M  V30 1832 H 160.262 0.694027 6.73433 0
M  V30 1833 H 164.904 -0.674868 4.17379 0
M  V30 1834 H 162.622 1.79265 7.87966 0
M  V30 1835 H 166.208 0.683173 5.77775 0
M  V30 1836 H 165.088 1.89981 7.6084 0
M  V30 1837 N 162.591 -1.51276 -0.441967 0
M  V30 1838 C 163.554 -1.7167 -1.51862 0
M  V30 1839 C 164.554 -0.586793 -1.49711 0
M  V30 1840 O 165.744 -0.854276 -1.51815 0
M  V30 1841 C 162.876 -1.76889 -2.91416 0
M  V30 1842 H 164.069 -2.67754 -1.35084 0
M  V30 1843 H 161.622 -1.41196 -0.670333 0
M  V30 1844 H 162.357 -0.826026 -3.13604 0
M  V30 1845 H 162.142 -2.59001 -2.94382 0
M  V30 1846 H 163.632 -1.94522 -3.69528 0
M  V30 1847 N 164.069 0.697108 -1.41344 0
M  V30 1848 C 165.346 1.45154 -1.31109 0
M  V30 1849 C 165.726 2.11009 0.0620449 0
M  V30 1850 O 165.074 2.01571 1.07618 0
M  V30 1851 C 165.284 2.47223 -2.46337 0
M  V30 1852 C 166.632 3.1252 -2.87431 0
M  V30 1853 O 167.656 2.57547 -2.46065 0
M  V30 1854 O 166.515 4.12083 -3.58957 0
M  V30 1855 H 163.609 0.646365 -0.515889 0
M  V30 1856 H 166.155 0.727716 -1.53305 0
M  V30 1857 H 164.927 1.97204 -3.37974 0
M  V30 1858 H 164.55 3.27116 -2.2601 0
M  V30 1859 N 165.547 1.27147 0.931209 0
M  V30 1860 C 166.477 1.12081 2.04842 0
M  V30 1861 C 167.458 0.0232364 1.70084 0
M  V30 1862 O 168.643 0.197085 1.93197 0
M  V30 1863 C 165.773 0.76354 3.38803 0
M  V30 1864 C 164.727 1.81396 3.87659 0
M  V30 1865 C 164.053 1.31075 5.18385 0
M  V30 1866 C 165.353 3.21739 4.11438 0
M  V30 1867 H 167.047 2.05537 2.17703 0
M  V30 1868 H 164.593 0.989603 1.04608 0
M  V30 1869 H 166.546 0.644982 4.16435 0
M  V30 1870 H 165.27 -0.206727 3.25945 0
M  V30 1871 H 163.929 1.92136 3.12217 0
M  V30 1872 H 163.577 0.330037 5.01916 0
M  V30 1873 H 163.277 2.013 5.52044 0
M  V30 1874 H 164.801 1.20506 5.98591 0
M  V30 1875 H 166.215 3.14019 4.79651 0
M  V30 1876 H 164.612 3.89644 4.56397 0
M  V30 1877 H 165.682 3.67054 3.16859 0
M  V30 1878 N 167.025 -1.13721 1.09112 0
M  V30 1879 C 168.272 -1.84924 0.825192 0
M  V30 1880 C 168.6 -1.83347 -0.649151 0
M  V30 1881 O 167.855 -1.26449 -1.49362 0
M  V30 1882 C 168.154 -3.32861 1.30146 0
M  V30 1883 C 167.82 -3.54621 2.78486 0
M  V30 1884 C 166.482 -3.60268 3.18999 0
M  V30 1885 C 168.834 -3.62855 3.74146 0
M  V30 1886 C 166.162 -3.71679 4.53951 0
M  V30 1887 C 168.514 -3.75793 5.08883 0
M  V30 1888 C 167.178 -3.79692 5.4899 0
M  V30 1889 H 166.448 -0.676684 0.301959 0
M  V30 1890 H 169.095 -1.3428 1.36533 0
M  V30 1891 H 167.4 -3.85835 0.681064 0
M  V30 1892 H 169.097 -3.86395 1.07236 0
M  V30 1893 H 165.687 -3.50879 2.46134 0
M  V30 1894 H 169.871 -3.57775 3.43963 0
M  V30 1895 H 165.127 -3.72963 4.84467 0
M  V30 1896 H 169.301 -3.81107 5.82864 0
M  V30 1897 H 166.928 -3.88287 6.53558 0
M  V30 1898 N 168.503 -0.877838 -1.30888 0
M  V30 1899 C 169.45 -0.337538 -2.28318 0
M  V30 1900 C 170.42 0.568346 -1.56074 0
M  V30 1901 O 171.605 0.498298 -1.84178 0
M  V30 1902 C 168.745 0.448142 -3.42178 0
M  V30 1903 C 167.858 -0.48615 -4.29256 0
M  V30 1904 C 166.993 0.314427 -5.30269 0
M  V30 1905 C 166.032 -0.615791 -6.08995 0
M  V30 1906 N 165.169 0.14902 -7.01942 0
M  V30 1907 H 170.009 -1.17356 -2.73919 0
M  V30 1908 H 167.546 -0.590094 -1.34745 0
M  V30 1909 H 169.504 0.919517 -4.06941 0
M  V30 1910 H 168.134 1.24879 -2.97666 0
M  V30 1911 H 167.186 -1.076 -3.64865 0
M  V30 1912 H 168.498 -1.19909 -4.84173 0
M  V30 1913 H 167.652 0.847969 -6.00745 0
M  V30 1914 H 166.391 1.06062 -4.76027 0
M  V30 1915 H 165.396 -1.16102 -5.37401 0
M  V30 1916 H 166.621 -1.36097 -6.65323 0
M  V30 1917 H 164.567 0.877884 -6.50099 0
M  V30 1918 H 164.484 -0.504433 -7.54315 0
M  V30 1919 H 165.752 0.663537 -7.76671 0
M  V30 1920 N 169.982 1.44106 -0.638065 0
M  V30 1921 C 170.929 2.30715 0.062701 0
M  V30 1922 C 171.899 1.43882 0.829883 0
M  V30 1923 O 173.084 1.72775 0.809532 0
M  V30 1924 C 170.224 3.29258 1.03358 0
M  V30 1925 C 169.337 4.31192 0.26409 0
M  V30 1926 C 168.472 5.16825 1.22741 0
M  V30 1927 C 167.511 6.10462 0.447475 0
M  V30 1928 N 166.648 6.8877 1.36161 0
M  V30 1929 H 171.488 2.90096 -0.681781 0
M  V30 1930 H 169.025 1.42925 -0.347988 0
M  V30 1931 H 170.983 3.84886 1.60992 0
M  V30 1932 H 169.613 2.71562 1.74511 0
M  V30 1933 H 168.665 3.77981 -0.428295 0
M  V30 1934 H 169.977 4.97619 -0.343052 0
M  V30 1935 H 169.131 5.77004 1.87487 0
M  V30 1936 H 167.87 4.50488 1.86847 0
M  V30 1937 H 166.875 5.49386 -0.213433 0
M  V30 1938 H 168.1 6.78837 -0.188968 0
M  V30 1939 H 166.046 6.25096 1.98975 0
M  V30 1940 H 165.963 7.51663 0.808656 0
M  V30 1941 H 167.231 7.53467 1.99769 0
M  V30 1942 N 171.46 0.379036 1.52974 0
M  V30 1943 C 172.423 -0.448865 2.24762 0
M  V30 1944 C 173.423 -0.998689 1.26027 0
M  V30 1945 O 174.613 -0.882313 1.50203 0
M  V30 1946 C 171.745 -1.62872 2.99476 0
M  V30 1947 H 172.938 0.179491 2.99362 0
M  V30 1948 H 170.491 0.13096 1.5575 0
M  V30 1949 H 171.226 -2.29479 2.29151 0
M  V30 1950 H 171.011 -1.24128 3.71934 0
M  V30 1951 H 172.501 -2.2151 3.5401 0
M  V30 1952 N 172.938 -1.57226 0.108567 0
M  V30 1953 C 174.186 -1.94448 -0.550853 0
M  V30 1954 C 174.507 -0.992074 -1.67878 0
M  V30 1955 O 173.777 -0.0465 -1.95845 0
M  V30 1956 H 172.357 -0.717897 -0.206479 0
M  V30 1957 H 175.019 -1.94112 0.175062 0
M  V30 1958 H 174.115 -2.97218 -0.952259 0
M  V30 1959 N 174.416 0.165178 -1.56732 0
M  V30 1960 C 175.379 1.18822 -1.95995 0
M  V30 1961 C 176.379 1.3685 -0.84431 0
M  V30 1962 O 177.569 1.34152 -1.11126 0
M  V30 1963 C 174.701 2.5521 -2.26011 0
M  V30 1964 H 175.894 0.851825 -2.87548 0
M  V30 1965 H 173.447 0.407857 -1.50885 0
M  V30 1966 H 174.182 2.93852 -1.37191 0
M  V30 1967 H 173.967 2.43489 -3.07336 0
M  V30 1968 H 175.457 3.28927 -2.57288 0
M  V30 1969 N 175.894 1.51508 0.433938 0
M  V30 1970 C 176.841 1.73068 1.52696 0
M  V30 1971 C 177.811 0.572441 1.55924 0
M  V30 1972 O 178.996 0.807253 1.72882 0
M  V30 1973 C 176.136 1.86474 2.90381 0
M  V30 1974 C 175.249 3.14037 2.96656 0
M  V30 1975 C 174.384 3.18019 4.25485 0
M  V30 1976 C 173.423 4.39882 4.2564 0
M  V30 1977 N 172.56 4.41394 5.45999 0
M  V30 1978 H 177.4 2.66366 1.33615 0
M  V30 1979 H 174.937 1.32008 0.649018 0
M  V30 1980 H 176.895 1.92229 3.70275 0
M  V30 1981 H 175.525 0.965809 3.08013 0
M  V30 1982 H 174.577 3.17575 2.09404 0
M  V30 1983 H 175.889 4.0394 2.92633 0
M  V30 1984 H 175.043 3.22708 5.13755 0
M  V30 1985 H 173.782 2.2601 4.3217 0
M  V30 1986 H 172.787 4.35366 3.35763 0
M  V30 1987 H 174.012 5.33159 4.20617 0
M  V30 1988 H 171.958 3.52258 5.53399 0
M  V30 1989 H 171.875 5.25111 5.4387 0
M  V30 1990 H 173.143 4.50281 6.36292 0
M  V30 1991 N 177.372 -0.689602 1.41712 0
M  V30 1992 C 178.602 -1.47613 1.44548 0
M  V30 1993 C 179.01 -1.89132 0.0509034 0
M  V30 1994 O 178.353 -1.57741 -0.94146 0
M  V30 1995 C 178.415 -2.76596 2.2964 0
M  V30 1996 C 178.079 -2.57245 3.77722 0
M  V30 1997 C 179.076 -2.22804 4.69739 0
M  V30 1998 C 176.761 -2.727 4.2183 0
M  V30 1999 C 178.755 -2.04064 6.03851 0
M  V30 2000 C 176.442 -2.53576 5.56006 0
M  V30 2001 C 177.44 -2.1931 6.46832 0
M  V30 2002 O 177.128 -2.00359 7.78532 0
M  V30 2003 H 176.86 -0.461227 0.494212 0
M  V30 2004 H 179.414 -0.856045 1.86711 0
M  V30 2005 H 177.644 -3.41033 1.82301 0
M  V30 2006 H 179.333 -3.38424 2.24107 0
M  V30 2007 H 180.099 -2.10473 4.36951 0
M  V30 2008 H 175.978 -2.98353 3.51435 0
M  V30 2009 H 179.522 -1.77241 6.74708 0
M  V30 2010 H 175.419 -2.65499 5.88371 0
M  V30 2011 H 176.187 -2.15075 7.89737 0
M  V30 2012 N 178.85 -1.27639 -0.924453 0
M  V30 2013 C 180.096 -1.14336 -1.67497 0
M  V30 2014 C 180.429 0.309465 -1.91718 0
M  V30 2015 O 179.704 1.22608 -1.50989 0
M  V30 2016 C 179.987 -1.93096 -3.0395 0
M  V30 2017 C 179.84 -3.46381 -2.8695 0
M  V30 2018 C 181.159 -1.73798 -4.0433 0
M  V30 2019 H 178.278 -0.416728 -0.607871 0
M  V30 2020 H 180.92 -1.56832 -1.07256 0
M  V30 2021 H 179.07 -1.56982 -3.55372 0
M  V30 2022 H 180.742 -3.92343 -2.42621 0
M  V30 2023 H 178.985 -3.72557 -2.22225 0
M  V30 2024 H 179.656 -3.96735 -3.83804 0
M  V30 2025 H 182.132 -2.05293 -3.61931 0
M  V30 2026 H 181.008 -2.31294 -4.97789 0
M  V30 2027 H 181.269 -0.686725 -4.36734 0
M  V30 2028 N 180.328 1.1314 -1.09713 0
M  V30 2029 C 181.577 1.83838 -0.829851 0
M  V30 2030 C 181.89 1.84599 0.646728 0
M  V30 2031 O 183.096 2.51218 1.02965 0
M  V30 2032 C 181.552 3.30069 -1.43466 0
M  V30 2033 C 181.16 3.37688 -2.94399 0
M  V30 2034 C 182.904 4.05788 -1.24645 0
M  V30 2035 C 180.811 4.78209 -3.47952 0
M  V30 2036 H 179.741 0.68877 -0.306777 0
M  V30 2037 H 182.392 1.27448 -1.3202 0
M  V30 2038 H 180.774 3.8628 -0.871996 0
M  V30 2039 H 181.948 2.91456 -3.56918 0
M  V30 2040 H 180.263 2.75436 -3.12289 0
M  V30 2041 H 182.86 5.09535 -1.62107 0
M  V30 2042 H 183.203 4.15878 -0.187357 0
M  V30 2043 H 183.736 3.55915 -1.77678 0
M  V30 2044 H 180.475 4.73311 -4.53495 0
M  V30 2045 H 179.995 5.24924 -2.90198 0
M  V30 2046 H 181.674 5.47133 -3.45332 0
M  V30 2047 N 181.806 0.884767 1.30421 0
M  V30 2048 C 183.217 0.553656 1.78302 0
M  V30 2049 C 183.568 -0.930153 1.7275 0
M  V30 2050 O 182.693 -1.72681 1.30423 0
M  V30 2051 C 183.288 0.998234 3.2376 0
M  V30 2052 C 181.847 0.71854 3.69478 0
M  V30 2053 C 180.994 1.18132 2.50879 0
M  V30 2054 H 183.945 1.06901 1.17294 0
M  V30 2055 H 183.966 0.327118 3.79091 0
M  V30 2056 H 183.478 2.0782 3.27769 0
M  V30 2057 H 181.579 -0.349444 3.70958 0
M  V30 2058 H 181.692 1.30595 4.60958 0
M  V30 2059 H 180.056 0.600669 2.47516 0
M  V30 2060 H 180.839 2.26902 2.57624 0
M  V30 2061 N 183.284 -1.43765 0.645699 0
M  V30 2062 C 184.512 -2.06253 0.163556 0
M  V30 2063 C 184.927 -1.48352 -1.16778 0
M  V30 2064 O 184.284 -0.611932 -1.71935 0
M  V30 2065 C 184.335 -3.61453 0.0583186 0
M  V30 2066 O 184.056 -4.172 1.33702 0
M  V30 2067 C 185.557 -4.41002 -0.450795 0
M  V30 2068 H 182.777 -0.665413 0.0864077 0
M  V30 2069 H 185.321 -1.84396 0.884222 0
M  V30 2070 H 183.476 -3.82522 -0.612865 0
M  V30 2071 H 183.89 -5.10791 1.19131 0
M  V30 2072 H 185.364 -5.49966 -0.473403 0
M  V30 2073 H 185.841 -4.13488 -1.48068 0
M  V30 2074 H 186.447 -4.24886 0.187637 0
M  V30 2075 N 184.763 -0.387143 -1.52771 0
M  V30 2076 C 185.991 0.195869 -2.05971 0
M  V30 2077 C 186.406 1.40691 -1.25903 0
M  V30 2078 O 185.763 1.79931 -0.305134 0
M  V30 2079 C 185.814 0.56812 -3.57008 0
M  V30 2080 O 185.535 -0.594803 -4.34043 0
M  V30 2081 C 187.036 1.20723 -4.26545 0
M  V30 2082 H 184.256 0.0300578 -0.670326 0
M  V30 2083 H 186.8 -0.551749 -1.96916 0
M  V30 2084 H 184.955 1.26564 -3.66143 0
M  V30 2085 H 185.369 -0.289322 -5.23701 0
M  V30 2086 H 186.843 1.41807 -5.33474 0
M  V30 2087 H 187.32 2.17395 -3.81623 0
M  V30 2088 H 187.926 0.550535 -4.21722 0
M  V30 2089 N 186.241 1.57166 -0.116904 0
M  V30 2090 C 187.188 2.15202 0.83408 0
M  V30 2091 C 188.158 1.07644 1.26499 0
M  V30 2092 O 189.343 1.35541 1.34288 0
M  V30 2093 C 186.483 2.75405 2.07957 0
M  V30 2094 C 185.596 3.97264 1.69721 0
M  V30 2095 C 184.731 4.45561 2.89221 0
M  V30 2096 C 183.77 5.59956 2.47215 0
M  V30 2097 N 182.907 6.03006 3.59622 0
M  V30 2098 H 187.747 2.96141 0.332335 0
M  V30 2099 H 185.284 1.46309 0.152349 0
M  V30 2100 H 187.242 3.08439 2.80929 0
M  V30 2101 H 185.872 1.97159 2.55594 0
M  V30 2102 H 184.924 3.70404 0.866316 0
M  V30 2103 H 186.236 4.80226 1.34849 0
M  V30 2104 H 185.39 4.80493 3.7042 0
M  V30 2105 H 184.129 3.61544 3.27318 0
M  V30 2106 H 183.134 5.2463 1.64448 0
M  V30 2107 H 184.359 6.45738 2.10238 0
M  V30 2108 H 182.305 5.21931 3.97396 0
M  V30 2109 H 182.222 6.80819 3.28667 0
M  V30 2110 H 183.49 6.42576 4.41267 0
M  V30 2111 N 187.719 -0.156864 1.56817 0
M  V30 2112 C 188.669 -1.19891 1.93934 0
M  V30 2113 C 189.653 -1.39061 0.809372 0
M  V30 2114 O 190.845 -1.40789 1.07273 0
M  V30 2115 C 187.974 -2.53493 2.31508 0
M  V30 2116 C 187.06 -2.37957 3.51052 0
M  V30 2117 N 187.451 -1.92158 4.67877 0
M  V30 2118 C 185.749 -2.68739 3.55943 0
M  V30 2119 C 186.45 -1.8943 5.49992 0
M  V30 2120 N 185.426 -2.32375 4.91429 0
M  V30 2121 H 189.228 -0.836746 2.81737 0
M  V30 2122 H 186.742 -0.365012 1.58245 0
M  V30 2123 H 188.739 -3.28811 2.56299 0
M  V30 2124 H 187.399 -2.905 1.45051 0
M  V30 2125 H 188.41 -1.62274 4.91821 0
M  V30 2126 H 185.087 -3.09687 2.80001 0
M  V30 2127 H 186.477 -1.55596 6.53636 0
M  V30 2128 N 189.197 -1.51736 -0.425897 0
M  V30 2129 C 190.147 -1.70258 -1.51645 0
M  V30 2130 C 191.131 -0.556488 -1.5097 0
M  V30 2131 O 192.323 -0.812879 -1.5723 0
M  V30 2132 C 189.452 -1.84143 -2.89735 0
M  V30 2133 C 188.538 -3.04572 -2.95122 0
M  V30 2134 N 188.929 -4.2756 -2.70233 0
M  V30 2135 C 187.227 -3.04061 -3.26286 0
M  V30 2136 C 187.928 -5.08908 -2.81757 0
M  V30 2137 N 186.904 -4.43797 -3.13919 0
M  V30 2138 H 190.706 -2.63004 -1.31172 0
M  V30 2139 H 188.22 -1.4954 -0.633375 0
M  V30 2140 H 190.217 -1.95525 -3.68206 0
M  V30 2141 H 188.877 -0.925857 -3.1122 0
M  V30 2142 H 189.888 -4.56315 -2.44943 0
M  V30 2143 H 186.565 -2.22179 -3.53473 0
M  V30 2144 H 187.955 -6.16843 -2.66372 0
M  V30 2145 N 190.675 0.682077 -1.42076 0
M  V30 2146 C 191.952 1.43755 -1.32642 0
M  V30 2147 C 192.332 2.11063 0.0396611 0
M  V30 2148 O 191.68 2.02701 1.05474 0
M  V30 2149 C 191.89 2.44596 -2.48946 0
M  V30 2150 C 193.238 3.09454 -2.9073 0
M  V30 2151 O 194.262 2.54922 -2.48783 0
M  V30 2152 O 193.121 4.08253 -3.63307 0
M  V30 2153 H 190.215 0.640857 -0.522715 0
M  V30 2154 H 192.761 0.711415 -1.54068 0
M  V30 2155 H 191.533 1.93609 -3.40046 0
M  V30 2156 H 191.156 3.24701 -2.29467 0
M  V30 2157 N 192.153 1.28127 0.917671 0
M  V30 2158 C 193.401 1.14825 1.66312 0
M  V30 2159 C 193.722 -0.304379 1.9261 0
M  V30 2160 O 192.992 -1.21149 1.53947 0
M  V30 2161 H 191.572 0.421953 0.616413 0
M  V30 2162 H 194.234 1.608 1.10134 0
M  V30 2163 H 193.33 1.68489 2.62712 0
M  V30 2164 N 193.631 -1.12557 1.10312 0
M  V30 2165 C 194.878 -1.84038 0.844759 0
M  V30 2166 C 195.206 -1.84026 -0.629668 0
M  V30 2167 O 194.461 -1.28026 -1.48013 0
M  V30 2168 C 194.76 -3.31462 1.33669 0
M  V30 2169 C 194.426 -3.51647 2.82232 0
M  V30 2170 C 193.088 -3.56864 3.22802 0
M  V30 2171 C 195.44 -3.58867 3.77974 0
M  V30 2172 C 192.768 -3.66844 4.57867 0
M  V30 2173 C 195.12 -3.70375 5.1284 0
M  V30 2174 C 193.784 -3.73848 5.52986 0
M  V30 2175 H 193.054 -0.673444 0.309119 0
M  V30 2176 H 195.701 -1.32824 1.37949 0
M  V30 2177 H 194.006 -3.85091 0.721949 0
M  V30 2178 H 195.703 -3.85236 1.11329 0
M  V30 2179 H 192.293 -3.48249 2.49842 0
M  V30 2180 H 196.477 -3.54107 3.47738 0
M  V30 2181 H 191.733 -3.67804 4.88396 0
M  V30 2182 H 195.907 -3.74904 5.86873 0
M  V30 2183 H 193.534 -3.81333 6.57639 0
M  V30 2184 N 195.109 -0.891671 -1.2995 0
M  V30 2185 C 196.349 -0.520296 -1.97667 0
M  V30 2186 C 196.713 0.914797 -1.68806 0
M  V30 2187 O 197.914 1.39263 -2.29911 0
M  V30 2188 C 196.185 -0.795222 -3.48441 0
M  V30 2189 S 197.744 -0.526953 -4.35624 0
M  V30 2190 H 194.562 -0.19333 -0.684211 0
M  V30 2191 H 197.164 -1.15238 -1.57926 0
M  V30 2192 H 195.868 -1.83805 -3.66938 0
M  V30 2193 H 195.399 -0.15095 -3.9311 0
M  V30 2194 H 197.414 0.631533 -4.92165 0
M  V30 2195 N 196.587 1.43421 -0.653314 0
M  V30 2196 C 197.517 2.33487 0.0246656 0
M  V30 2197 C 198.498 1.49475 0.811863 0
M  V30 2198 O 199.683 1.78139 0.773322 0
M  V30 2199 C 196.813 3.32841 0.99166 0
M  V30 2200 C 195.767 4.26842 0.314568 0
M  V30 2201 C 195.093 5.16236 1.39302 0
M  V30 2202 C 196.393 5.16243 -0.793095 0
M  V30 2203 H 198.087 2.90427 -0.727481 0
M  V30 2204 H 195.633 1.39649 -0.351287 0
M  V30 2205 H 197.586 3.94747 1.47487 0
M  V30 2206 H 196.31 2.74158 1.77497 0
M  V30 2207 H 194.969 3.663 -0.148199 0
M  V30 2208 H 194.617 4.53891 2.16776 0
M  V30 2209 H 194.317 5.79948 0.945223 0
M  V30 2210 H 195.841 5.81015 1.87759 0
M  V30 2211 H 197.255 5.71958 -0.392039 0
M  V30 2212 H 195.652 5.88676 -1.16536 0
M  V30 2213 H 196.722 4.55927 -1.65103 0
M  V30 2214 N 198.065 0.39524 1.52563 0
M  V30 2215 C 199.311 -0.177763 2.02622 0
M  V30 2216 C 199.666 -1.43974 1.27629 0
M  V30 2217 O 198.959 -1.87995 0.36992 0
M  V30 2218 C 199.153 -0.493444 3.53977 0
M  V30 2219 C 198.982 0.736392 4.4363 0
M  V30 2220 C 197.752 1.25744 4.89404 0
M  V30 2221 C 199.95 1.61046 4.88435 0
M  V30 2222 N 197.932 2.44421 5.63145 0
M  V30 2223 C 199.303 2.64359 5.60816 0
M  V30 2224 C 201.358 1.62985 4.70468 0
M  V30 2225 C 200.061 3.69505 6.17137 0
M  V30 2226 C 202.087 2.67042 5.27677 0
M  V30 2227 C 201.449 3.69077 5.99968 0
M  V30 2228 H 197.548 -0.0269794 0.781534 0
M  V30 2229 H 200.132 0.546466 1.86874 0
M  V30 2230 H 198.303 -1.18672 3.69826 0
M  V30 2231 H 200.035 -1.05412 3.90731 0
M  V30 2232 H 196.79 0.817546 4.6649 0
M  V30 2233 H 197.214 3.04485 6.04663 0
M  V30 2234 H 201.856 0.854442 4.14076 0
M  V30 2235 H 199.574 4.4791 6.72608 0
M  V30 2236 H 203.16 2.69433 5.15652 0
M  V30 2237 H 202.04 4.48273 6.43444 0
M  V30 2238 N 199.544 -1.57102 0.125237 0
M  V30 2239 C 200.792 -1.95021 -0.530198 0
M  V30 2240 C 201.113 -1.00982 -1.66816 0
M  V30 2241 O 200.383 -0.0672693 -1.95784 0
M  V30 2242 H 198.963 -0.720046 -0.198853 0
M  V30 2243 H 201.625 -1.93916 0.19564 0
M  V30 2244 H 200.721 -2.98211 -0.920681 0
M  V30 2245 N 201.022 0.148545 -1.56898 0
M  V30 2246 C 202.25 0.876389 -1.87422 0
M  V30 2247 C 202.665 1.74809 -0.713256 0
M  V30 2248 O 202.022 1.79725 0.317025 0
M  V30 2249 C 202.073 1.73438 -3.17178 0
M  V30 2250 O 201.794 0.897809 -4.28802 0
M  V30 2251 C 203.295 2.56993 -3.61205 0
M  V30 2252 H 200.515 0.253489 -0.621277 0
M  V30 2253 H 203.059 0.141798 -2.04008 0
M  V30 2254 H 201.214 2.42205 -3.0235 0
M  V30 2255 H 201.628 1.48672 -5.02988 0
M  V30 2256 H 203.102 3.12773 -4.54838 0
M  V30 2257 H 203.579 3.32958 -2.86419 0
M  V30 2258 H 204.185 1.9352 -3.78722 0
M  V30 2259 N 202.5 1.5196 0.417844 0
M  V30 2260 C 203.447 1.74678 1.50852 0
M  V30 2261 C 204.417 0.588947 1.55308 0
M  V30 2262 O 205.602 0.825544 1.72016 0
M  V30 2263 C 202.742 1.89544 2.88387 0
M  V30 2264 C 201.855 3.17166 2.93309 0
M  V30 2265 C 200.99 3.22513 4.22088 0
M  V30 2266 C 200.029 4.44372 4.20951 0
M  V30 2267 N 199.166 4.47161 5.41287 0
M  V30 2268 H 204.006 2.67768 1.30783 0
M  V30 2269 H 201.543 1.32689 0.63498 0
M  V30 2270 H 203.501 1.96146 3.68216 0
M  V30 2271 H 202.131 0.998424 3.06971 0
M  V30 2272 H 201.183 3.19778 2.06024 0
M  V30 2273 H 202.495 4.07021 2.88332 0
M  V30 2274 H 201.649 3.28139 5.10303 0
M  V30 2275 H 200.388 2.30581 4.29748 0
M  V30 2276 H 199.393 4.38902 3.31127 0
M  V30 2277 H 200.618 5.3759 4.14938 0
M  V30 2278 H 198.564 3.58108 5.49632 0
M  V30 2279 H 198.481 5.3085 5.3827 0
M  V30 2280 H 199.749 4.57005 6.3148 0
M  V30 2281 N 203.978 -0.674533 1.42435 0
M  V30 2282 C 205.208 -1.46071 1.46105 0
M  V30 2283 C 205.616 -1.89067 0.0709605 0
M  V30 2284 O 204.959 -1.58731 -0.924677 0
M  V30 2285 C 205.021 -2.74145 2.32561 0
M  V30 2286 C 204.685 -2.53224 3.8043 0
M  V30 2287 C 205.682 -2.17809 4.72075 0
M  V30 2288 C 203.367 -2.6821 4.24698 0
M  V30 2289 C 205.361 -1.97648 6.05982 0
M  V30 2290 C 203.048 -2.47665 5.58664 0
M  V30 2291 C 204.046 -2.12437 6.49122 0
M  V30 2292 O 203.734 -1.9209 7.80613 0
M  V30 2293 H 203.466 -0.455959 0.499076 0
M  V30 2294 H 206.02 -0.836193 1.87609 0
M  V30 2295 H 204.25 -3.3908 1.85908 0
M  V30 2296 H 205.939 -3.36028 2.27683 0
M  V30 2297 H 206.705 -2.05826 4.39159 0
M  V30 2298 H 202.584 -2.94609 3.54579 0
M  V30 2299 H 206.128 -1.70075 6.7655 0
M  V30 2300 H 202.025 -2.59244 5.91154 0
M  V30 2301 H 202.793 -2.06686 7.91974 0
M  V30 2302 N 205.456 -1.28612 -0.910864 0
M  V30 2303 C 206.684 -1.18792 -1.69399 0
M  V30 2304 C 207.099 0.253039 -1.87097 0
M  V30 2305 O 206.456 1.17071 -1.40003 0
M  V30 2306 C 206.507 -1.88511 -3.08457 0
M  V30 2307 O 206.228 -3.26979 -2.91576 0
M  V30 2308 C 207.729 -1.85029 -4.02839 0
M  V30 2309 H 204.949 -0.412233 -0.529438 0
M  V30 2310 H 207.493 -1.69788 -1.13984 0
M  V30 2311 H 205.648 -1.41379 -3.60681 0
M  V30 2312 H 206.062 -3.61936 -3.79608 0
M  V30 2313 H 207.536 -2.38395 -4.97867 0
M  V30 2314 H 208.013 -0.823303 -4.31414 0
M  V30 2315 H 208.619 -2.31853 -3.56545 0
M  V30 2316 N 206.934 1.1197 -1.10907 0
M  V30 2317 C 208.211 1.79959 -0.766432 0
M  V30 2318 C 208.591 1.97466 0.746363 0
M  V30 2319 O 207.939 1.55491 1.67436 0
M  V30 2320 C 208.149 3.14009 -1.52314 0
M  V30 2321 C 209.497 3.89134 -1.69883 0
M  V30 2322 O 210.521 3.2368 -1.48692 0
M  V30 2323 O 209.38 5.06572 -2.05054 0
M  V30 2324 H 206.474 0.779208 -0.277062 0
M  V30 2325 H 209.02 1.18762 -1.21217 0
M  V30 2326 H 207.792 2.96587 -2.55249 0
M  V30 2327 H 207.415 3.82915 -1.07059 0
M  V30 2328 N 208.412 0.89855 1.29475 0
M  V30 2329 C 209.659 0.523882 1.95606 0
M  V30 2330 C 209.987 -0.929608 1.70847 0
M  V30 2331 O 209.242 -1.67401 1.01367 0
M  V30 2332 C 209.541 0.761398 3.49195 0
M  V30 2333 C 209.207 2.19207 3.94029 0
M  V30 2334 C 207.869 2.58326 4.05982 0
M  V30 2335 C 210.221 3.12379 4.17216 0
M  V30 2336 C 207.549 3.898 4.38489 0
M  V30 2337 C 209.901 4.43401 4.51197 0
M  V30 2338 C 208.565 4.82394 4.61359 0
M  V30 2339 H 207.835 0.191702 0.715773 0
M  V30 2340 H 210.482 1.13699 1.54094 0
M  V30 2341 H 208.787 0.0653622 3.91745 0
M  V30 2342 H 210.484 0.450904 3.98457 0
M  V30 2343 H 207.074 1.87846 3.85242 0
M  V30 2344 H 211.258 2.83371 4.07449 0
M  V30 2345 H 206.514 4.19734 4.44559 0
M  V30 2346 H 210.688 5.15623 4.68087 0
M  V30 2347 H 208.315 5.84306 4.86303 0
M  V30 2348 N 209.89 -1.43072 0.660911 0
M  V30 2349 C 210.838 -2.32569 -0.0378199 0
M  V30 2350 C 211.832 -1.49046 -0.805092 0
M  V30 2351 O 213.038 -1.65206 -0.714624 0
M  V30 2352 H 209.413 -0.75136 -0.031019 0
M  V30 2353 H 211.384 -2.89216 0.734609 0
M  V30 2354 C 210.133 -3.33453 -0.985124 0
M  V30 2355 H 209.456 -3.97752 -0.404147 0
M  V30 2356 H 210.896 -3.98691 -1.44297 0
M  V30 2357 C 209.355 -2.64642 -2.08486 0
M  V30 2358 O 209.885 -2.46776 -3.16961 0
M  V30 2359 N 208.091 -2.23891 -1.8526 0
M  V30 2360 H 207.638 -2.38621 -0.970449 0
M  V30 2361 H 207.596 -1.78181 -2.59034 0
M  V30 2362 N 211.368 -0.403325 -1.52352 0
M  V30 2363 C 212.593 0.176499 -2.06648 0
M  V30 2364 C 213.018 1.38577 -1.27193 0
M  V30 2365 O 212.376 1.7879 -0.300637 0
M  V30 2366 C 212.424 0.511061 -3.5696 0
M  V30 2367 O 211.528 1.60294 -3.79973 0
M  V30 2368 H 210.869 0.0167337 -0.663789 0
M  V30 2369 H 213.399 -0.574848 -1.96359 0
M  V30 2370 H 213.409 0.771362 -4.00642 0
M  V30 2371 H 212.084 -0.37296 -4.14224 0
M  V30 2372 H 210.661 1.33526 -3.48174 0
M  V30 2373 N 212.846 1.57033 -0.133567 0
M  V30 2374 C 214.092 1.95976 0.521649 0
M  V30 2375 C 214.425 1.01779 1.65393 0
M  V30 2376 O 213.7 0.0576581 1.94415 0
M  V30 2377 C 213.983 3.44738 1.04057 0
M  V30 2378 C 213.836 4.49711 -0.0892897 0
M  V30 2379 C 215.155 3.95682 1.92675 0
M  V30 2380 H 212.274 0.712579 0.188149 0
M  V30 2381 H 214.916 1.88813 -0.212076 0
M  V30 2382 H 213.066 3.50973 1.66583 0
M  V30 2383 H 214.738 4.55565 -0.725152 0
M  V30 2384 H 212.981 4.27261 -0.750378 0
M  V30 2385 H 213.652 5.51099 0.315284 0
M  V30 2386 H 216.128 3.91841 1.39998 0
M  V30 2387 H 215.004 5.00262 2.25897 0
M  V30 2388 H 215.265 3.37239 2.85872 0
M  V30 2389 N 214.325 -0.140222 1.56975 0
M  V30 2390 C 215.272 -1.17292 1.98774 0
M  V30 2391 C 216.242 -1.4232 0.856408 0
M  V30 2392 O 217.427 -1.54541 1.119 0
M  V30 2393 C 214.567 -2.49973 2.37923 0
M  V30 2394 C 213.68 -2.32062 3.64378 0
M  V30 2395 C 212.815 -3.57825 3.926 0
M  V30 2396 C 211.854 -3.3498 5.12303 0
M  V30 2397 N 210.991 -4.52891 5.36502 0
M  V30 2398 H 215.831 -0.809472 2.86795 0
M  V30 2399 H 213.368 -0.388237 1.41884 0
M  V30 2400 H 215.326 -3.27346 2.58652 0
M  V30 2401 H 213.956 -2.84252 1.52972 0
M  V30 2402 H 213.008 -1.45711 3.51387 0
M  V30 2403 H 214.32 -2.11145 4.51906 0
M  V30 2404 H 213.474 -4.43624 4.13863 0
M  V30 2405 H 212.213 -3.81753 3.03506 0
M  V30 2406 H 211.218 -2.4757 4.90906 0
M  V30 2407 H 212.443 -3.12444 6.02956 0
M  V30 2408 H 210.389 -4.76979 4.50363 0
M  V30 2409 H 210.306 -4.35001 6.18312 0
M  V30 2410 H 211.574 -5.39884 5.62268 0
M  V30 2411 N 215.803 -1.52179 -0.40978 0
M  V30 2412 C 217.219 -1.40968 -0.74835 0
M  V30 2413 C 217.419 -0.513657 -1.94843 0
M  V30 2414 O 216.475 0.0208026 -2.52491 0
M  V30 2415 C 217.788 -2.83483 -1.0029 0
M  V30 2416 C 219.336 -2.92821 -1.10565 0
M  V30 2417 C 219.811 -4.36303 -1.39296 0
M  V30 2418 N 221.302 -4.39535 -1.46162 0
M  V30 2419 C 222.037 -5.47614 -1.70018 0
M  V30 2420 N 221.533 -6.65812 -1.91483 0
M  V30 2421 N 223.326 -5.35129 -1.72027 0
M  V30 2422 H 215.477 -2.0897 0.380186 0
M  V30 2423 H 217.74 -0.94185 0.107805 0
M  V30 2424 H 217.446 -3.51168 -0.193461 0
M  V30 2425 H 217.32 -3.24487 -1.92323 0
M  V30 2426 H 219.707 -2.25318 -1.90568 0
M  V30 2427 H 219.788 -2.55276 -0.16369 0
M  V30 2428 H 219.432 -5.04366 -0.598109 0
M  V30 2429 H 219.362 -4.71385 -2.34743 0
M  V30 2430 H 221.853 -3.54332 -1.31367 0
M  V30 2431 H 222.166 -7.43964 -2.09134 0
M  V30 2432 H 220.511 -6.68879 -1.88749 0
M  V30 2433 H 223.702 -4.41764 -1.54796 0
M  V30 2434 H 223.875 -6.19433 -1.9028 0
M  V30 2435 N 217.281 0.66697 -1.42791 0
M  V30 2436 C 218.529 1.42417 -1.43394 0
M  V30 2437 C 218.85 1.94925 -0.0542373 0
M  V30 2438 O 218.12 1.73564 0.908415 0
M  V30 2439 H 216.7 0.528515 -0.527902 0
M  V30 2440 H 219.362 0.787562 -1.78279 0
M  V30 2441 H 218.458 2.27333 -2.13837 0
M  V30 2442 N 218.759 1.29093 0.90403 0
M  V30 2443 C 220.17 1.15186 1.46932 0
M  V30 2444 C 220.521 -0.254587 1.94541 0
M  V30 2445 O 219.646 -1.14972 1.83332 0
M  V30 2446 C 220.241 2.08492 2.67051 0
M  V30 2447 C 218.8 1.98621 3.19729 0
M  V30 2448 C 217.947 1.9967 1.92425 0
M  V30 2449 H 220.898 1.41641 0.715789 0
M  V30 2450 H 220.919 1.65461 3.42641 0
M  V30 2451 H 220.431 3.10847 2.3237 0
M  V30 2452 H 218.532 0.993389 3.59114 0
M  V30 2453 H 218.645 2.86068 3.8432 0
M  V30 2454 H 217.009 1.44208 2.09943 0
M  V30 2455 H 217.792 3.03721 1.60026 0
M  V30 2456 N 220.237 -1.11381 1.11499 0
M  V30 2457 C 221.184 -2.17439 0.773887 0
M  V30 2458 C 222.154 -1.64132 -0.254899 0
M  V30 2459 O 223.339 -1.90345 -0.13168 0
M  V30 2460 C 220.479 -3.44373 0.223917 0
M  V30 2461 C 219.592 -4.1168 1.30934 0
M  V30 2462 C 218.727 -5.263 0.71984 0
M  V30 2463 C 217.766 -5.85493 1.78507 0
M  V30 2464 N 216.903 -6.91507 1.21502 0
M  V30 2465 H 221.743 -2.45962 1.68246 0
M  V30 2466 H 219.28 -1.20744 0.840191 0
M  V30 2467 H 221.238 -4.17047 -0.112921 0
M  V30 2468 H 219.868 -3.16232 -0.647851 0
M  V30 2469 H 218.92 -3.37073 1.76312 0
M  V30 2470 H 220.232 -4.51729 2.11524 0
M  V30 2471 H 219.386 -6.05785 0.333094 0
M  V30 2472 H 218.125 -4.87559 -0.117377 0
M  V30 2473 H 217.13 -5.04686 2.18111 0
M  V30 2474 H 218.355 -6.26301 2.62533 0
M  V30 2475 H 216.301 -6.54783 0.399455 0
M  V30 2476 H 216.218 -7.30214 1.95763 0
M  V30 2477 H 217.486 -7.74795 0.855181 0
M  V30 2478 N 221.715 -0.905404 -1.28997 0
M  V30 2479 C 223.131 -0.60233 -1.47798 0
M  V30 2480 C 223.331 0.854645 -1.82478 0
M  V30 2481 O 222.387 1.63439 -1.92468 0
M  V30 2482 C 223.7 -1.53306 -2.58685 0
M  V30 2483 C 225.248 -1.53887 -2.72558 0
M  V30 2484 C 225.723 -2.45602 -3.86579 0
M  V30 2485 N 227.214 -2.43681 -3.93921 0
M  V30 2486 C 227.949 -3.11347 -4.81509 0
M  V30 2487 N 227.445 -3.88313 -5.73746 0
M  V30 2488 N 229.238 -3.00476 -4.75048 0
M  V30 2489 H 221.389 -1.84765 -1.04764 0
M  V30 2490 H 223.652 -0.792025 -0.520961 0
M  V30 2491 H 223.358 -2.57141 -2.39941 0
M  V30 2492 H 223.232 -1.25787 -3.55609 0
M  V30 2493 H 225.619 -0.507941 -2.90696 0
M  V30 2494 H 225.7 -1.85447 -1.76191 0
M  V30 2495 H 225.344 -3.48792 -3.69197 0
M  V30 2496 H 225.274 -2.11349 -4.82327 0
M  V30 2497 H 227.765 -1.87767 -3.27951 0
M  V30 2498 H 228.078 -4.36985 -6.37389 0
M  V30 2499 H 226.423 -3.92419 -5.73614 0
M  V30 2500 H 229.614 -2.39858 -4.01977 0
M  V30 2501 H 229.787 -3.53485 -5.43095 0
M  V30 2502 N 223.193 1.4272 -0.668489 0
M  V30 2503 C 224.47 1.95248 -0.117373 0
M  V30 2504 C 224.85 1.60919 1.36632 0
M  V30 2505 O 224.198 0.902095 2.09939 0
M  V30 2506 C 224.408 3.46927 -0.379806 0
M  V30 2507 C 225.756 4.23588 -0.292923 0
M  V30 2508 O 226.78 3.5482 -0.313204 0
M  V30 2509 O 225.639 5.46017 -0.229697 0
M  V30 2510 H 222.733 0.827 0.00079152 0
M  V30 2511 H 225.279 1.52581 -0.742783 0
M  V30 2512 H 224.051 3.65096 -1.40786 0
M  V30 2513 H 223.674 3.96627 0.277923 0
M  V30 2514 N 224.671 0.411399 1.52136 0
M  V30 2515 C 225.601 -0.404015 2.29978 0
M  V30 2516 C 226.582 -1.04412 1.34284 0
M  V30 2517 O 227.767 -1.0527 1.63192 0
M  V30 2518 C 224.897 -1.5197 3.12286 0
M  V30 2519 C 223.851 -1.00448 4.16046 0
M  V30 2520 C 223.177 -2.21393 4.86712 0
M  V30 2521 C 224.477 -0.0569336 5.22269 0
M  V30 2522 H 226.171 0.245529 2.98392 0
M  V30 2523 H 223.717 0.119525 1.43503 0
M  V30 2524 H 225.67 -2.09715 3.6551 0
M  V30 2525 H 224.394 -2.19716 2.41646 0
M  V30 2526 H 223.053 -0.449421 3.63835 0
M  V30 2527 H 222.701 -2.87699 4.12599 0
M  V30 2528 H 222.401 -1.87571 5.56858 0
M  V30 2529 H 223.925 -2.7974 5.4275 0
M  V30 2530 H 225.339 -0.54325 5.7072 0
M  V30 2531 H 223.736 0.192594 5.99791 0
M  V30 2532 H 224.806 0.887663 4.76706 0
M  V30 2533 N 226.149 -1.5696 0.141893 0
M  V30 2534 C 227.395 -1.9625 -0.511248 0
M  V30 2535 C 227.728 -1.02654 -1.64851 0
M  V30 2536 O 227.003 -0.0679676 -1.94381 0
M  V30 2537 C 227.286 -3.45285 -1.02227 0
M  V30 2538 C 227.139 -4.49658 0.113138 0
M  V30 2539 C 228.458 -3.96698 -1.90574 0
M  V30 2540 H 225.577 -0.713567 -0.184367 0
M  V30 2541 H 228.219 -1.88698 0.222087 0
M  V30 2542 H 226.369 -3.51852 -1.64719 0
M  V30 2543 H 228.041 -4.55174 0.749302 0
M  V30 2544 H 226.284 -4.26857 0.773026 0
M  V30 2545 H 226.955 -5.51258 -0.286053 0
M  V30 2546 H 229.431 -3.92578 -1.37918 0
M  V30 2547 H 228.307 -5.01453 -2.2324 0
M  V30 2548 H 228.568 -3.3875 -2.84079 0
M  V30 2549 N 227.627 0.131896 -1.57047 0
M  V30 2550 C 228.875 0.840269 -1.83804 0
M  V30 2551 C 229.196 1.81017 -0.72512 0
M  V30 2552 O 228.466 1.94272 0.251995 0
M  V30 2553 H 227.046 0.313294 -0.678127 0
M  V30 2554 H 229.708 0.122294 -1.94516 0
M  V30 2555 H 228.804 1.39335 -2.79271 0
M  V30 2556 N 229.106 1.52395 0.401703 0
M  V30 2557 C 230.383 1.57387 1.16141 0
M  V30 2558 C 230.763 0.359359 2.08019 0
M  V30 2559 O 230.111 -0.65326 2.18963 0
M  V30 2560 C 230.321 2.90631 1.93221 0
M  V30 2561 C 231.669 3.43904 2.49028 0
M  V30 2562 O 232.693 2.92421 2.03393 0
M  V30 2563 O 231.552 4.33823 3.32356 0
M  V30 2564 H 228.646 0.634262 0.530698 0
M  V30 2565 H 231.192 1.64725 0.407883 0
M  V30 2566 H 229.964 3.70473 1.25958 0
M  V30 2567 H 229.587 2.8662 2.75563 0
M  V30 2568 N 230.584 -0.659388 1.43143 0
M  V30 2569 C 231.514 -1.78422 1.50625 0
M  V30 2570 C 232.495 -1.66216 0.361443 0
M  V30 2571 O 233.68 -1.85404 0.577834 0
M  V30 2572 C 230.81 -3.16815 1.42287 0
M  V30 2573 C 229.764 -3.43777 2.54954 0
M  V30 2574 C 229.09 -4.81905 2.31671 0
M  V30 2575 C 230.39 -3.39134 3.97222 0
M  V30 2576 H 232.084 -1.72417 2.44771 0
M  V30 2577 H 229.63 -0.828084 1.17808 0
M  V30 2578 H 231.583 -3.95253 1.46127 0
M  V30 2579 H 230.307 -3.23534 0.446435 0
M  V30 2580 H 228.966 -2.67707 2.50457 0
M  V30 2581 H 228.614 -4.85294 1.32284 0
M  V30 2582 H 228.314 -5.00906 3.07192 0
M  V30 2583 H 229.838 -5.62609 2.37284 0
M  V30 2584 H 231.252 -4.07518 4.03239 0
M  V30 2585 H 229.649 -3.69671 4.72719 0
M  V30 2586 H 230.719 -2.37426 4.22797 0
M  V30 2587 N 232.062 -1.29571 -0.897171 0
M  V30 2588 C 233.025 -1.14913 -1.98312 0
M  V30 2589 C 234.025 -0.0838629 -1.60581 0
M  V30 2590 O 235.215 -0.331006 -1.71026 0
M  V30 2591 C 232.347 -0.757835 -3.3237 0
M  V30 2592 H 233.54 -2.11377 -2.12743 0
M  V30 2593 H 231.093 -1.12793 -1.08201 0
M  V30 2594 H 231.828 0.206837 -3.2364 0
M  V30 2595 H 231.613 -1.52755 -3.61121 0
M  V30 2596 H 233.103 -0.678408 -4.12053 0
M  V30 2597 N 233.54 1.10788 -1.12088 0
M  V30 2598 C 234.487 2.17025 -0.785407 0
M  V30 2599 C 235.457 1.64265 0.246191 0
M  V30 2600 O 236.642 1.90412 0.121584 0
M  V30 2601 C 233.782 3.44249 -0.242177 0
M  V30 2602 C 232.895 4.1098 -1.33115 0
M  V30 2603 C 232.03 5.25911 -0.747741 0
M  V30 2604 C 231.069 5.84538 -1.81609 0
M  V30 2605 N 230.206 6.90853 -1.25167 0
M  V30 2606 H 235.046 2.45066 -1.69548 0
M  V30 2607 H 232.583 1.20297 -0.846582 0
M  V30 2608 H 234.541 4.17101 0.0908026 0
M  V30 2609 H 233.171 3.16571 0.631072 0
M  V30 2610 H 232.223 3.36133 -1.78097 0
M  V30 2611 H 233.535 4.50601 -2.13917 0
M  V30 2612 H 232.689 6.056 -0.365216 0
M  V30 2613 H 231.428 4.87614 0.0915188 0
M  V30 2614 H 230.433 5.03522 -2.20785 0
M  V30 2615 H 231.658 6.249 -2.6585 0
M  V30 2616 H 229.604 6.54562 -0.434174 0
M  V30 2617 H 229.521 7.29166 -1.99633 0
M  V30 2618 H 230.789 7.7433 -0.896259 0
M  V30 2619 N 235.018 0.912232 1.28515 0
M  V30 2620 C 235.981 0.404223 2.25607 0
M  V30 2621 C 236.981 -0.468602 1.53821 0
M  V30 2622 O 238.171 -0.271873 1.72065 0
M  V30 2623 C 235.303 -0.420653 3.38295 0
M  V30 2624 H 236.496 1.26188 2.7206 0
M  V30 2625 H 234.049 0.691495 1.40171 0
M  V30 2626 H 234.784 -1.29777 2.97201 0
M  V30 2627 H 234.569 0.204935 3.91564 0
M  V30 2628 H 236.059 -0.766971 4.10496 0
M  V30 2629 N 236.496 -1.42363 0.676048 0
M  V30 2630 C 237.742 -2.0182 0.199125 0
M  V30 2631 C 238.075 -1.53339 -1.19168 0
M  V30 2632 O 237.35 -0.736124 -1.80032 0
M  V30 2633 C 237.633 -3.59331 0.235144 0
M  V30 2634 C 237.486 -4.17989 1.66149 0
M  V30 2635 C 238.805 -4.3813 -0.41595 0
M  V30 2636 H 235.924 -0.733293 0.0738311 0
M  V30 2637 H 238.566 -1.69368 0.86107 0
M  V30 2638 H 236.716 -3.87109 -0.328487 0
M  V30 2639 H 238.388 -4.0116 2.27747 0
M  V30 2640 H 236.631 -3.7377 2.20178 0
M  V30 2641 H 237.302 -5.27126 1.63837 0
M  V30 2642 H 239.778 -4.16051 0.0638529 0
M  V30 2643 H 238.654 -5.47717 -0.360115 0
M  V30 2644 H 238.915 -4.16101 -1.49373 0
M  V30 2645 N 237.974 -0.419461 -1.51915 0
M  V30 2646 C 239.39 -0.0708431 -1.59443 0
M  V30 2647 C 239.59 1.41796 -1.43164 0
M  V30 2648 O 238.646 2.18596 -1.26381 0
M  V30 2649 C 239.959 -0.574991 -2.95151 0
M  V30 2650 C 241.507 -0.533867 -3.08413 0
M  V30 2651 C 241.982 -1.01469 -4.46618 0
M  V30 2652 N 243.473 -0.971939 -4.52888 0
M  V30 2653 C 244.208 -1.31505 -5.58116 0
M  V30 2654 N 243.704 -1.73014 -6.70849 0
M  V30 2655 N 245.497 -1.23436 -5.48379 0
M  V30 2656 H 237.648 -1.38836 -1.60743 0
M  V30 2657 H 239.911 -0.570998 -0.756747 0
M  V30 2658 H 239.617 -1.61597 -3.12377 0
M  V30 2659 H 239.491 0.00979777 -3.77199 0
M  V30 2660 H 241.878 0.498086 -2.90866 0
M  V30 2661 H 241.959 -1.15484 -2.28248 0
M  V30 2662 H 241.603 -2.04502 -4.6491 0
M  V30 2663 H 241.533 -0.370433 -5.25295 0
M  V30 2664 H 244.024 -0.666893 -3.71969 0
M  V30 2665 H 244.337 -1.97479 -7.47143 0
M  V30 2666 H 242.682 -1.76926 -6.72103 0
M  V30 2667 H 245.873 -0.908869 -4.59192 0
M  V30 2668 H 246.046 -1.50506 -6.30279 0
M  V30 2669 N 239.452 1.56882 -0.150215 0
M  V30 2670 C 240.362 2.20494 0.801222 0
M  V30 2671 C 241.378 1.19019 1.26927 0
M  V30 2672 O 242.554 1.51607 1.32579 0
M  V30 2673 C 239.619 2.81659 2.02161 0
M  V30 2674 C 238.68 3.9827 1.60249 0
M  V30 2675 C 237.913 4.56508 2.7647 0
M  V30 2676 O 238.136 4.13627 3.92771 0
M  V30 2677 O 237.07 5.46719 2.51757 0
M  V30 2678 H 240.896 3.02315 0.289717 0
M  V30 2679 H 238.481 1.49202 0.0769684 0
M  V30 2680 H 240.363 3.20522 2.73576 0
M  V30 2681 H 239.038 2.02849 2.52258 0
M  V30 2682 H 237.945 3.64117 0.858477 0
M  V30 2683 H 239.278 4.78609 1.14864 0
M  V30 2684 N 240.93 -0.123565 1.57115 0
M  V30 2685 C 241.893 -1.13583 1.99076 0
M  V30 2686 C 242.893 -1.34564 0.880296 0
M  V30 2687 O 244.083 -1.31158 1.14644 0
M  V30 2688 C 241.215 -2.49128 2.32698 0
M  V30 2689 H 242.408 -0.775287 2.89706 0
M  V30 2690 H 239.961 -0.36771 1.51913 0
M  V30 2691 H 240.696 -2.90111 1.44934 0
M  V30 2692 H 240.481 -2.35255 3.13684 0
M  V30 2693 H 241.971 -3.2199 2.65918 0
M  V30 2694 N 242.408 -1.52605 -0.393616 0
M  V30 2695 C 243.656 -1.67093 -1.13685 0
M  V30 2696 C 243.977 -0.411011 -1.90619 0
M  V30 2697 O 243.247 0.574491 -1.87287 0
M  V30 2698 H 241.827 -0.615923 -0.422668 0
M  V30 2699 H 244.489 -1.89704 -0.447039 0
M  V30 2700 H 243.585 -2.51922 -1.84232 0
M  V30 2701 N 243.887 0.651787 -1.4349 0
M  V30 2702 C 244.817 1.77621 -1.51569 0
M  V30 2703 C 245.798 1.66022 -0.370253 0
M  V30 2704 O 246.983 1.85095 -0.587658 0
M  V30 2705 C 244.113 3.16056 -1.43966 0
M  V30 2706 C 243.067 3.4242 -2.56774 0
M  V30 2707 C 242.393 4.8067 -2.34223 0
M  V30 2708 C 243.693 3.37023 -3.99015 0
M  V30 2709 H 245.387 1.71117 -2.45681 0
M  V30 2710 H 242.933 0.821825 -1.18246 0
M  V30 2711 H 244.886 3.94472 -1.48221 0
M  V30 2712 H 243.61 3.23293 -0.463586 0
M  V30 2713 H 242.269 2.66375 -2.51873 0
M  V30 2714 H 241.917 4.84585 -1.34856 0
M  V30 2715 H 241.617 4.9927 -3.09844 0
M  V30 2716 H 243.141 5.61342 -2.40265 0
M  V30 2717 H 244.555 4.05374 -4.05395 0
M  V30 2718 H 242.952 3.67159 -4.74673 0
M  V30 2719 H 244.022 2.3518 -4.2405 0
M  V30 2720 N 245.365 1.30045 0.890287 0
M  V30 2721 C 246.781 1.08261 1.17268 0
M  V30 2722 C 246.981 -0.160063 2.00863 0
M  V30 2723 O 246.037 -0.855181 2.37577 0
M  V30 2724 C 247.35 2.34323 1.8845 0
M  V30 2725 C 248.898 2.39735 2.01237 0
M  V30 2726 C 249.373 3.65625 2.7583 0
M  V30 2727 N 250.864 3.66402 2.83379 0
M  V30 2728 C 251.599 4.60498 3.41657 0
M  V30 2729 N 251.095 5.64933 4.01026 0
M  V30 2730 N 252.888 4.48051 3.39421 0
M  V30 2731 H 245.039 2.09777 0.332762 0
M  V30 2732 H 247.302 0.92446 0.209948 0
M  V30 2733 H 247.008 3.2498 1.34465 0
M  V30 2734 H 246.882 2.4256 2.88867 0
M  V30 2735 H 249.269 1.4956 2.54393 0
M  V30 2736 H 249.35 2.35476 0.999232 0
M  V30 2737 H 248.994 4.56156 2.23347 0
M  V30 2738 H 248.924 3.67144 3.77509 0
M  V30 2739 H 251.415 2.90896 2.41222 0
M  V30 2740 H 251.728 6.32841 4.43545 0
M  V30 2741 H 250.073 5.68732 3.99461 0
M  V30 2742 H 253.264 3.65649 2.92264 0
M  V30 2743 H 253.437 5.21565 3.84544 0
M  V30 2744 N 246.843 -1.10192 1.12674 0
M  V30 2745 C 248.09 -1.82205 0.883606 0
M  V30 2746 C 248.418 -1.8532 -0.590492 0
M  V30 2747 O 247.673 -1.31137 -1.45264 0
M  V30 2748 C 247.972 -3.28552 1.4067 0
M  V30 2749 C 247.638 -3.45582 2.89627 0
M  V30 2750 C 246.3 -3.49937 3.30299 0
M  V30 2751 C 248.652 -3.50768 3.85501 0
M  V30 2752 C 245.98 -3.57049 4.65546 0
M  V30 2753 C 248.332 -3.59414 5.20581 0
M  V30 2754 C 246.996 -3.62034 5.60792 0
M  V30 2755 H 246.266 -0.666735 0.323334 0
M  V30 2756 H 248.913 -1.29868 1.40736 0
M  V30 2757 H 247.218 -3.83473 0.80347 0
M  V30 2758 H 248.915 -3.82788 1.19475 0
M  V30 2759 H 245.505 -3.42871 2.57172 0
M  V30 2760 H 249.689 -3.46651 3.55171 0
M  V30 2761 H 244.945 -3.57361 4.96088 0
M  V30 2762 H 249.119 -3.62371 5.94693 0
M  V30 2763 H 246.746 -3.67298 6.6558 0
M  V30 2764 N 248.321 -0.919034 -1.28029 0
M  V30 2765 C 249.569 -0.553838 -1.94363 0
M  V30 2766 C 249.89 0.906357 -1.72656 0
M  V30 2767 O 249.16 1.64143 -1.0693 0
M  V30 2768 H 247.74 -0.201834 -0.719216 0
M  V30 2769 H 250.402 -1.16954 -1.55909 0
M  V30 2770 H 249.498 -0.752758 -3.02886 0
M  V30 2771 N 249.799 1.42003 -0.683588 0
M  V30 2772 C 251.045 2.01712 -0.209825 0
M  V30 2773 C 251.378 1.53968 1.18353 0
M  V30 2774 O 250.653 0.745661 1.79639 0
M  V30 2775 C 250.936 3.59202 -0.254197 0
M  V30 2776 C 250.789 4.17102 -1.68363 0
M  V30 2777 C 252.108 4.38344 0.392709 0
M  V30 2778 H 249.227 0.732891 -0.0777189 0
M  V30 2779 H 251.869 1.68909 -0.87004 0
M  V30 2780 H 250.019 3.87278 0.307954 0
M  V30 2781 H 251.691 3.99946 -2.29871 0
M  V30 2782 H 249.934 3.72597 -2.22157 0
M  V30 2783 H 250.605 5.26249 -1.6663 0
M  V30 2784 H 253.081 4.16011 -0.0859162 0
M  V30 2785 H 251.957 5.47901 0.331063 0
M  V30 2786 H 252.218 4.16887 1.47164 0
M  V30 2787 N 251.277 0.427512 1.51691 0
M  V30 2788 C 252.507 -0.140986 2.06118 0
M  V30 2789 C 252.915 -1.37854 1.29588 0
M  V30 2790 O 252.258 -1.80411 0.346036 0
M  V30 2791 C 252.32 -0.538276 3.55447 0
M  V30 2792 C 251.984 0.591095 4.53161 0
M  V30 2793 C 252.981 1.46027 4.98971 0
M  V30 2794 C 250.666 0.769028 4.96378 0
M  V30 2795 C 252.66 2.49216 5.8666 0
M  V30 2796 C 250.347 1.80421 5.83859 0
M  V30 2797 C 251.345 2.66417 6.28897 0
M  V30 2798 O 251.033 3.68159 7.14643 0
M  V30 2799 H 250.765 -0.0157455 0.675817 0
M  V30 2800 H 253.319 0.602495 1.96365 0
M  V30 2801 H 251.549 -1.33432 3.6295 0
M  V30 2802 H 253.238 -1.0368 3.92435 0
M  V30 2803 H 254.004 1.33429 4.66285 0
M  V30 2804 H 249.883 0.109273 4.6087 0
M  V30 2805 H 253.427 3.16372 6.21735 0
M  V30 2806 H 249.324 1.93042 6.15959 0
M  V30 2807 H 250.092 3.64622 7.32798 0
M  V30 2808 N 252.755 -1.56801 0.158532 0
M  V30 2809 C 253.985 -2.00568 -0.495583 0
M  V30 2810 C 254.393 -1.03774 -1.58201 0
M  V30 2811 O 253.736 -0.0285797 -1.83678 0
M  V30 2812 C 253.798 -3.40768 -1.14532 0
M  V30 2813 C 253.462 -4.56553 -0.202101 0
M  V30 2814 C 254.459 -5.16714 0.574675 0
M  V30 2815 C 252.144 -5.02197 -0.101648 0
M  V30 2816 C 254.138 -6.20939 1.43924 0
M  V30 2817 C 251.825 -6.06274 0.766508 0
M  V30 2818 C 252.823 -6.65515 1.53555 0
M  V30 2819 O 252.511 -7.67575 2.38922 0
M  V30 2820 H 252.243 -0.662893 -0.13247 0
M  V30 2821 H 254.797 -2.03829 0.253559 0
M  V30 2822 H 253.027 -3.34381 -1.94233 0
M  V30 2823 H 254.716 -3.6857 -1.70033 0
M  V30 2824 H 255.482 -4.82341 0.507167 0
M  V30 2825 H 251.361 -4.55807 -0.689994 0
M  V30 2826 H 254.905 -6.67107 2.03996 0
M  V30 2827 H 250.802 -6.40073 0.835266 0
M  V30 2828 H 251.57 -7.84844 2.32296 0
M  V30 2829 N 254.233 0.115231 -1.57178 0
M  V30 2830 C 255.458 0.840354 -1.89612 0
M  V30 2831 C 255.883 1.72464 -0.750845 0
M  V30 2832 O 255.241 1.78826 0.298478 0
M  V30 2833 C 255.289 1.64654 -3.20814 0
M  V30 2834 O 254.393 2.7538 -3.06985 0
M  V30 2835 H 253.734 0.232158 -0.622092 0
M  V30 2836 H 256.264 0.0964977 -2.04372 0
M  V30 2837 H 256.274 2.03499 -3.53627 0
M  V30 2838 H 254.949 0.997416 -4.03763 0
M  V30 2839 H 253.526 2.3971 -2.85646 0
M  V30 2840 N 255.711 1.52812 0.385517 0
M  V30 2841 C 256.959 1.67694 1.12797 0
M  V30 2842 C 257.28 0.421115 1.90399 0
M  V30 2843 O 256.55 -0.564551 1.87589 0
M  V30 2844 H 255.13 0.618155 0.419396 0
M  V30 2845 H 257.792 1.89938 0.436972 0
M  V30 2846 H 256.888 2.52896 1.82894 0
M  V30 2847 N 257.189 -0.644168 1.43834 0
M  V30 2848 C 258.437 -1.40117 1.45642 0
M  V30 2849 C 258.758 -1.94814 0.0852413 0
M  V30 2850 O 258.028 -1.74988 -0.880688 0
M  V30 2851 H 256.608 -0.52005 0.536243 0
M  V30 2852 H 259.27 -0.7591 1.7951 0
M  V30 2853 H 258.366 -2.23902 2.17427 0
M  V30 2854 N 258.668 -1.30515 -0.883378 0
M  V30 2855 C 259.598 -1.19607 -2.00541 0
M  V30 2856 C 260.579 -0.086346 -1.69881 0
M  V30 2857 O 261.764 -0.268654 -1.92333 0
M  V30 2858 C 258.894 -0.888758 -3.35736 0
M  V30 2859 C 257.848 -1.95659 -3.8066 0
M  V30 2860 C 257.174 -1.50224 -5.13164 0
M  V30 2861 C 258.474 -3.36788 -3.99213 0
M  V30 2862 H 260.168 -2.13476 -2.09925 0
M  V30 2863 H 257.714 -1.02775 -1.00863 0
M  V30 2864 H 259.667 -0.799094 -4.13754 0
M  V30 2865 H 258.391 0.0856125 -3.26488 0
M  V30 2866 H 257.05 -2.03591 -3.04871 0
M  V30 2867 H 256.698 -0.516092 -5.00345 0
M  V30 2868 H 256.398 -2.2165 -5.44192 0
M  V30 2869 H 257.922 -1.42639 -5.93706 0
M  V30 2870 H 259.336 -3.31605 -4.67665 0
M  V30 2871 H 257.733 -4.06314 -4.41621 0
M  V30 2872 H 258.803 -3.78561 -3.03017 0
M  V30 2873 N 260.146 1.09593 -1.13257 0
M  V30 2874 C 261.423 1.78293 -0.804432 0
M  V30 2875 C 261.803 1.99004 0.70431 0
M  V30 2876 O 261.151 1.59007 1.641 0
M  V30 2877 C 261.361 3.10707 -1.5894 0
M  V30 2878 C 262.709 3.85443 -1.78099 0
M  V30 2879 O 263.733 3.20454 -1.55525 0
M  V30 2880 O 262.592 5.02108 -2.15753 0
M  V30 2881 H 259.686 0.773156 -0.293528 0
M  V30 2882 H 262.232 1.16164 -1.23709 0
M  V30 2883 H 261.004 2.91106 -2.61482 0
M  V30 2884 H 260.627 3.80558 -1.15157 0
M  V30 2885 N 261.624 0.925811 1.2754 0
M  V30 2886 C 262.87 0.575575 1.95086 0
M  V30 2887 C 263.225 -0.873246 1.71441 0
M  V30 2888 O 262.518 -1.61443 1.03183 0
M  V30 2889 C 262.712 0.835296 3.47502 0
M  V30 2890 C 262.541 2.30781 3.85967 0
M  V30 2891 C 261.311 2.96017 4.09514 0
M  V30 2892 C 263.509 3.28519 3.95702 0
M  V30 2893 N 261.491 4.3344 4.34744 0
M  V30 2894 C 262.862 4.51146 4.25285 0
M  V30 2895 C 264.917 3.23753 3.7827 0
M  V30 2896 C 263.62 5.69606 4.39251 0
M  V30 2897 C 265.646 4.41523 3.9346 0
M  V30 2898 C 265.008 5.62928 4.23428 0
M  V30 2899 H 261.107 0.260711 0.737261 0
M  V30 2900 H 263.691 1.19204 1.53943 0
M  V30 2901 H 261.862 0.248005 3.87607 0
M  V30 2902 H 263.594 0.447878 4.02214 0
M  V30 2903 H 260.349 2.46695 4.04275 0
M  V30 2904 H 260.773 5.04528 4.5142 0
M  V30 2905 H 265.415 2.3096 3.54143 0
M  V30 2906 H 263.133 6.62866 4.62205 0
M  V30 2907 H 266.719 4.39351 3.81394 0
M  V30 2908 H 265.599 6.52538 4.34929 0
M  V30 2909 N 263.102 -1.41638 0.69111 0
M  V30 2910 C 264.518 -1.55435 0.362224 0
M  V30 2911 C 264.718 -1.66754 -1.13117 0
M  V30 2912 O 263.774 -1.64348 -1.91692 0
M  V30 2913 C 265.087 -2.79588 1.10684 0
M  V30 2914 C 266.635 -2.9338 1.09075 0
M  V30 2915 C 267.11 -4.20414 1.81703 0
M  V30 2916 N 268.601 -4.27362 1.7865 0
M  V30 2917 C 269.336 -5.24507 2.31689 0
M  V30 2918 N 268.832 -6.27708 2.93179 0
M  V30 2919 N 270.625 -5.16416 2.2197 0
M  V30 2920 H 262.776 -1.32536 1.65976 0
M  V30 2921 H 265.039 -0.639115 0.700168 0
M  V30 2922 H 264.745 -2.77419 2.16175 0
M  V30 2923 H 264.619 -3.70973 0.682545 0
M  V30 2924 H 267.006 -2.95067 0.0441238 0
M  V30 2925 H 267.087 -2.0318 1.55407 0
M  V30 2926 H 266.731 -4.19488 2.86343 0
M  V30 2927 H 266.661 -5.09578 1.32808 0
M  V30 2928 H 269.152 -3.53415 1.33815 0
M  V30 2929 H 269.465 -6.98217 3.31229 0
M  V30 2930 H 267.81 -6.28223 2.97255 0
M  V30 2931 H 271.001 -4.34716 1.73607 0
M  V30 2932 H 271.174 -5.91958 2.63609 0
M  V30 2933 N 264.58 -0.43555 -1.51462 0
M  V30 2934 C 265.827 0.131514 -2.02072 0
M  V30 2935 C 266.155 1.42868 -1.31981 0
M  V30 2936 O 265.41 1.91076 -0.422883 0
M  V30 2937 C 265.709 0.39942 -3.55161 0
M  V30 2938 C 265.375 -0.81172 -4.43533 0
M  V30 2939 C 264.037 -1.14387 -4.67407 0
M  V30 2940 C 266.389 -1.61976 -4.95392 0
M  V30 2941 C 263.717 -2.28477 -5.40384 0
M  V30 2942 C 266.069 -2.75164 -5.6962 0
M  V30 2943 C 264.733 -3.08835 -5.91758 0
M  V30 2944 H 264.003 0.0481244 -0.739436 0
M  V30 2945 H 266.65 -0.58238 -1.8243 0
M  V30 2946 H 264.955 1.19519 -3.73125 0
M  V30 2947 H 266.652 0.85157 -3.91854 0
M  V30 2948 H 263.242 -0.542898 -4.25148 0
M  V30 2949 H 267.426 -1.37637 -4.76833 0
M  V30 2950 H 262.682 -2.5488 -5.55739 0
M  V30 2951 H 266.856 -3.38147 -6.08793 0
M  V30 2952 H 264.483 -3.97353 -6.48086 0
M  V30 2953 N 266.058 1.56714 -0.166846 0
M  V30 2954 C 267.286 2.0112 0.485644 0
M  V30 2955 C 267.701 1.04705 1.57106 0
M  V30 2956 O 267.058 0.0471923 1.82439 0
M  V30 2957 C 267.109 3.45361 1.06808 0
M  V30 2958 O 266.83 4.38092 0.0259995 0
M  V30 2959 C 268.331 4.05145 1.79924 0
M  V30 2960 H 265.551 0.65931 0.124704 0
M  V30 2961 H 268.095 2.02746 -0.267262 0
M  V30 2962 H 266.25 3.44524 1.7715 0
M  V30 2963 H 266.664 5.22519 0.455398 0
M  V30 2964 H 268.138 5.08009 2.15942 0
M  V30 2965 H 268.615 3.46982 2.69258 0
M  V30 2966 H 269.221 4.09672 1.14234 0
M  V30 2967 N 267.536 -0.106894 1.57237 0
M  V30 2968 C 268.764 -0.826389 1.8968 0
M  V30 2969 C 269.179 -1.72856 0.759353 0
M  V30 2970 O 268.536 -1.80503 -0.269263 0
M  V30 2971 C 268.587 -1.64967 3.21665 0
M  V30 2972 O 268.308 -0.783804 4.31031 0
M  V30 2973 C 269.809 -2.47326 3.67892 0
M  V30 2974 H 267.029 -0.236927 0.627779 0
M  V30 2975 H 269.573 -0.0876593 2.04312 0
M  V30 2976 H 267.728 -2.34103 3.08666 0
M  V30 2977 H 268.142 -1.35284 5.06753 0
M  V30 2978 H 269.616 -3.00604 4.6297 0
M  V30 2979 H 270.093 -3.25247 2.95146 0
M  V30 2980 H 270.699 -1.83411 3.83719 0
M  V30 2981 N 269.014 -1.53014 -0.377408 0
M  V30 2982 C 269.924 -1.81557 -1.48574 0
M  V30 2983 C 270.94 -0.703102 -1.59162 0
M  V30 2984 O 272.116 -0.99192 -1.75279 0
M  V30 2985 C 269.181 -1.9889 -2.83978 0
M  V30 2986 C 268.242 -3.22801 -2.83016 0
M  V30 2987 C 267.475 -3.39298 -4.11962 0
M  V30 2988 O 267.698 -2.60345 -5.0752 0
M  V30 2989 O 266.632 -4.32604 -4.18494 0
M  V30 2990 H 270.458 -2.75695 -1.27382 0
M  V30 2991 H 268.043 -1.38248 -0.566373 0
M  V30 2992 H 269.925 -2.11931 -3.6423 0
M  V30 2993 H 268.6 -1.07942 -3.05172 0
M  V30 2994 H 267.507 -3.15193 -2.01505 0
M  V30 2995 H 268.84 -4.13632 -2.66775 0
M  V30 2996 N 270.492 0.636531 -1.44174 0
M  V30 2997 C 271.903 1.21806 -1.41493 0
M  V30 2998 C 272.254 1.95785 -0.1275 0
M  V30 2999 O 271.379 2.02147 0.772376 0
M  V30 3000 C 271.974 2.21551 -2.56321 0
M  V30 3001 C 270.533 2.75143 -2.56853 0
M  V30 3002 C 269.68 1.50052 -2.33195 0
M  V30 3003 H 272.631 0.427531 -1.52833 0
M  V30 3004 H 272.652 3.0405 -2.28765 0
M  V30 3005 H 272.164 1.67679 -3.50008 0
M  V30 3006 H 270.265 3.33033 -1.67093 0
M  V30 3007 H 270.378 3.2155 -3.55165 0
M  V30 3008 H 268.742 1.77993 -1.82183 0
M  V30 3009 H 269.525 0.980903 -3.28988 0
M  V30 3010 N 271.97 1.30982 0.876444 0
M  V30 3011 C 273.219 1.19658 1.62373 0
M  V30 3012 C 273.532 -0.245636 1.94052 0
M  V30 3013 O 274.738 -0.48049 2.67214 0
M  V30 3014 C 273.194 2.09433 2.92687 0
M  V30 3015 C 272.802 3.58613 2.68516 0
M  V30 3016 C 274.546 2.06893 3.70669 0
M  V30 3017 C 272.453 4.40416 3.94699 0
M  V30 3018 H 271.383 0.444268 0.609214 0
M  V30 3019 H 274.034 1.55791 0.969605 0
M  V30 3020 H 272.416 1.66191 3.59439 0
M  V30 3021 H 273.59 4.10058 2.10212 0
M  V30 3022 H 271.905 3.63063 2.03898 0
M  V30 3023 H 274.502 2.65258 4.64265 0
M  V30 3024 H 274.845 1.05448 4.02724 0
M  V30 3025 H 275.378 2.48301 3.10792 0
M  V30 3026 H 272.117 5.42591 3.67798 0
M  V30 3027 H 271.637 3.93731 4.52477 0
M  V30 3028 H 273.316 4.52294 4.62644 0
M  V30 3029 N 273.449 -1.08991 1.13837 0
M  V30 3030 C 274.865 -1.33312 0.877506 0
M  V30 3031 C 275.065 -1.95587 -0.48456 0
M  V30 3032 O 274.121 -2.20509 -1.23013 0
M  V30 3033 C 275.434 -2.24045 2.0056 0
M  V30 3034 C 276.982 -2.37542 2.03821 0
M  V30 3035 C 277.457 -3.31614 3.15905 0
M  V30 3036 N 278.948 -3.39189 3.15445 0
M  V30 3037 C 279.683 -4.11992 3.98811 0
M  V30 3038 N 279.179 -4.87553 4.92203 0
M  V30 3039 N 280.972 -4.07762 3.86894 0
M  V30 3040 H 273.123 -0.669456 2.01574 0
M  V30 3041 H 275.386 -0.357482 0.878015 0
M  V30 3042 H 275.092 -1.85521 2.98789 0
M  V30 3043 H 274.966 -3.24466 1.92359 0
M  V30 3044 H 277.353 -2.75327 1.06202 0
M  V30 3045 H 277.434 -1.36884 2.16093 0
M  V30 3046 H 277.078 -2.94551 4.13766 0
M  V30 3047 H 277.008 -4.32186 3.0087 0
M  V30 3048 H 279.499 -2.85314 2.47799 0
M  V30 3049 H 279.812 -5.40549 5.52292 0
M  V30 3050 H 278.157 -4.86627 4.96205 0
M  V30 3051 H 281.348 -3.47833 3.13257 0
M  V30 3052 H 281.521 -4.64238 4.52092 0
M  V30 3053 N 274.927 -0.932562 -1.27047 0
M  V30 3054 C 276.157 -0.591173 -1.97961 0
M  V30 3055 C 276.565 0.836219 -1.69717 0
M  V30 3056 O 275.908 1.56801 -0.957036 0
M  V30 3057 C 275.97 -0.743082 -3.51736 0
M  V30 3058 C 275.634 -2.1435 -4.03613 0
M  V30 3059 C 276.631 -3.11815 -4.16014 0
M  V30 3060 C 274.316 -2.46175 -4.37839 0
M  V30 3061 C 276.31 -4.39211 -4.61923 0
M  V30 3062 C 273.997 -3.73806 -4.83438 0
M  V30 3063 C 274.995 -4.70137 -4.95439 0
M  V30 3064 O 274.683 -5.95496 -5.40037 0
M  V30 3065 H 274.415 -0.222375 -0.638377 0
M  V30 3066 H 276.969 -1.25317 -1.62742 0
M  V30 3067 H 275.199 -0.0239739 -3.86693 0
M  V30 3068 H 276.888 -0.40603 -4.03864 0
M  V30 3069 H 277.654 -2.88549 -3.89826 0
M  V30 3070 H 273.533 -1.71936 -4.27737 0
M  V30 3071 H 277.077 -5.14404 -4.71205 0
M  V30 3072 H 272.974 -3.96888 -5.09068 0
M  V30 3073 H 273.742 -5.98554 -5.58279 0
M  V30 3074 N 276.405 1.4127 -0.698611 0
M  V30 3075 C 277.816 1.84187 -0.305289 0
M  V30 3076 C 278.167 1.58449 1.15708 0
M  V30 3077 O 277.292 1.05651 1.88856 0
M  V30 3078 C 277.887 3.3435 -0.547314 0
M  V30 3079 C 276.446 3.75826 -0.207878 0
M  V30 3080 C 275.593 2.64647 -0.828099 0
M  V30 3081 H 278.544 1.30778 -0.89904 0
M  V30 3082 H 278.565 3.8001 0.192998 0
M  V30 3083 H 278.077 3.53051 -1.61172 0
M  V30 3084 H 276.178 3.62725 0.852143 0
M  V30 3085 H 276.291 4.74462 -0.665021 0
M  V30 3086 H 274.655 2.53395 -0.257458 0
M  V30 3087 H 275.438 2.86165 -1.89643 0
M  V30 3088 N 277.883 0.443576 1.51229 0
M  V30 3089 C 278.793 -0.370721 2.31652 0
M  V30 3090 C 279.809 -1.02186 1.40833 0
M  V30 3091 O 280.985 -1.01586 1.73903 0
M  V30 3092 C 278.05 -1.45376 3.14749 0
M  V30 3093 C 277.111 -0.822099 4.21355 0
M  V30 3094 C 276.344 -1.85353 5.0048 0
M  V30 3095 O 276.567 -3.07656 4.80316 0
M  V30 3096 O 275.501 -1.4406 5.84406 0
M  V30 3097 H 279.327 0.286002 3.0235 0
M  V30 3098 H 276.912 0.20598 1.47973 0
M  V30 3099 H 278.794 -2.08173 3.66391 0
M  V30 3100 H 277.469 -2.09445 2.46809 0
M  V30 3101 H 276.376 -0.155909 3.73775 0
M  V30 3102 H 277.709 -0.224797 4.91686 0
M  V30 3103 N 279.361 -1.56624 0.175154 0
M  V30 3104 C 280.638 -1.88688 -0.515373 0
M  V30 3105 C 281.018 -1.08564 -1.81044 0
M  V30 3106 O 280.366 -0.180703 -2.27784 0
M  V30 3107 C 280.576 -3.40768 -0.753552 0
M  V30 3108 C 281.924 -4.10587 -1.08184 0
M  V30 3109 O 282.948 -3.46106 -0.841961 0
M  V30 3110 O 281.807 -5.24512 -1.53459 0
M  V30 3111 H 278.901 -0.78301 -0.26613 0
M  V30 3112 H 281.447 -1.68347 0.213877 0
M  V30 3113 H 280.219 -3.90965 0.161829 0
M  V30 3114 H 279.842 -3.66733 -1.53598 0
M  V30 3115 N 280.839 0.0985539 -1.57292 0
M  V30 3116 C 281.769 1.12064 -2.04851 0
M  V30 3117 C 282.75 1.41981 -0.936767 0
M  V30 3118 O 283.935 1.52071 -1.20781 0
M  V30 3119 C 281.065 2.44144 -2.47004 0
M  V30 3120 C 280.019 2.28643 -3.6181 0
M  V30 3121 C 279.345 3.65869 -3.89929 0
M  V30 3122 C 280.645 1.72986 -4.92822 0
M  V30 3123 H 282.339 0.724979 -2.9049 0
M  V30 3124 H 279.885 0.34729 -1.39749 0
M  V30 3125 H 281.838 3.15914 -2.78884 0
M  V30 3126 H 280.562 2.85639 -1.5836 0
M  V30 3127 H 279.221 1.59318 -3.30172 0
M  V30 3128 H 278.869 4.04885 -2.98458 0
M  V30 3129 H 278.569 3.56344 -4.67218 0
M  V30 3130 H 280.093 4.39112 -4.2428 0
M  V30 3131 H 281.507 2.34593 -5.23105 0
M  V30 3132 H 279.904 1.74229 -5.74251 0
M  V30 3133 H 280.974 0.689007 -4.7998 0
M  V30 3134 N 282.317 1.53212 0.369288 0
M  V30 3135 C 283.542 1.73423 1.1375 0
M  V30 3136 C 283.967 0.460404 1.82378 0
M  V30 3137 O 283.325 -0.585298 1.71592 0
M  V30 3138 C 283.373 2.89769 2.1463 0
M  V30 3139 O 282.477 2.58119 3.21634 0
M  V30 3140 H 281.818 0.576061 0.330227 0
M  V30 3141 H 284.348 2.00083 0.427547 0
M  V30 3142 H 284.358 3.15829 2.58294 0
M  V30 3143 H 283.033 3.8217 1.64071 0
M  V30 3144 H 281.61 2.42864 2.82969 0
M  V30 3145 N 283.795 -0.628877 1.44509 0
M  V30 3146 C 285.025 -1.41349 1.50678 0
M  V30 3147 C 285.433 -1.88745 0.131075 0
M  V30 3148 O 284.776 -1.61592 -0.87371 0
M  V30 3149 C 284.838 -2.66608 2.41165 0
M  V30 3150 C 284.502 -2.40993 3.88293 0
M  V30 3151 C 285.499 -2.0268 4.78766 0
M  V30 3152 C 283.184 -2.54563 4.33016 0
M  V30 3153 C 285.178 -1.78269 6.11963 0
M  V30 3154 C 282.865 -2.29766 5.6626 0
M  V30 3155 C 283.863 -1.91678 6.55552 0
M  V30 3156 O 283.551 -1.67158 7.86329 0
M  V30 3157 H 283.283 -0.439851 0.51333 0
M  V30 3158 H 285.837 -0.776084 1.90174 0
M  V30 3159 H 284.067 -3.32994 1.96601 0
M  V30 3160 H 285.756 -3.28615 2.38259 0
M  V30 3161 H 286.522 -1.91751 4.45485 0
M  V30 3162 H 282.401 -2.83179 3.63773 0
M  V30 3163 H 285.945 -1.48465 6.81619 0
M  V30 3164 H 281.842 -2.40306 5.99102 0
M  V30 3165 H 282.61 -1.81386 7.98149 0
M  V30 3166 N 285.273 -1.31445 -0.869486 0
M  V30 3167 C 286.522 -1.20517 -1.61736 0
M  V30 3168 C 286.835 0.235341 -1.94179 0
M  V30 3169 O 288.041 0.466312 -2.67465 0
M  V30 3170 C 286.497 -2.10982 -2.91573 0
M  V30 3171 C 286.105 -3.60032 -2.66611 0
M  V30 3172 C 287.849 -2.08856 -3.69567 0
M  V30 3173 C 285.756 -4.42503 -3.92358 0
M  V30 3174 H 284.686 -0.447493 -0.606849 0
M  V30 3175 H 287.337 -1.56303 -0.96133 0
M  V30 3176 H 285.719 -1.68095 -3.58553 0
M  V30 3177 H 286.893 -4.11167 -2.08035 0
M  V30 3178 H 285.208 -3.64139 -2.0197 0
M  V30 3179 H 287.805 -2.67716 -4.62852 0
M  V30 3180 H 288.148 -1.07582 -4.02159 0
M  V30 3181 H 288.681 -2.49945 -3.09471 0
M  V30 3182 H 285.42 -5.44533 -3.64916 0
M  V30 3183 H 284.94 -3.96125 -4.50383 0
M  V30 3184 H 286.619 -4.54741 -4.60238 0
M  V30 3185 N 286.751 1.08385 -1.14413 0
M  V30 3186 C 288.167 1.32844 -0.884563 0
M  V30 3187 C 288.367 1.95841 0.474181 0
M  V30 3188 O 287.423 2.21158 1.21842 0
M  V30 3189 C 288.736 2.22978 -2.01745 0
M  V30 3190 C 290.284 2.36458 -2.05077 0
M  V30 3191 C 290.759 3.29934 -3.1766 0
M  V30 3192 N 292.25 3.37511 -3.17239 0
M  V30 3193 C 292.985 4.09871 -4.0099 0
M  V30 3194 N 292.481 4.84936 -4.94781 0
M  V30 3195 N 294.274 4.05704 -3.89051 0
M  V30 3196 H 286.425 0.658756 -2.01926 0
M  V30 3197 H 288.688 0.352821 -0.879899 0
M  V30 3198 H 288.394 1.83934 -2.99769 0
M  V30 3199 H 288.268 3.23441 -1.94077 0
M  V30 3200 H 290.655 2.7476 -1.0766 0
M  V30 3201 H 290.736 1.35736 -2.16816 0
M  V30 3202 H 290.38 2.92352 -4.15322 0
M  V30 3203 H 290.31 4.30584 -3.03158 0
M  V30 3204 H 292.801 2.83996 -2.49308 0
M  V30 3205 H 293.114 5.37612 -5.55151 0
M  V30 3206 H 291.459 4.83988 -4.98779 0
M  V30 3207 H 294.65 3.46167 -3.15097 0
M  V30 3208 H 294.823 4.61834 -4.54547 0
M  V30 3209 N 288.23 0.939286 1.26551 0
M  V30 3210 C 289.641 0.628782 1.75793 0
M  V30 3211 C 289.992 -0.856046 1.7654 0
M  V30 3212 O 289.117 -1.66994 1.3763 0
M  V30 3213 C 289.712 1.13465 3.19235 0
M  V30 3214 C 288.271 0.874601 3.66098 0
M  V30 3215 C 287.418 1.28667 2.45642 0
M  V30 3216 H 290.369 1.1178 1.12654 0
M  V30 3217 H 290.39 0.487609 3.77363 0
M  V30 3218 H 289.902 2.21535 3.1866 0
M  V30 3219 H 288.003 -0.191793 3.72106 0
M  V30 3220 H 288.116 1.50028 4.55004 0
M  V30 3221 H 286.48 0.705109 2.44745 0
M  V30 3222 H 287.263 2.37625 2.47769 0
M  V30 3223 N 289.708 -1.40897 0.706093 0
M  V30 3224 C 290.656 -2.32572 0.0361893 0
M  V30 3225 C 291.65 -1.51532 -0.757266 0
M  V30 3226 O 292.856 -1.67396 -0.661703 0
M  V30 3227 H 289.231 -0.751966 -0.00709935 0
M  V30 3228 H 291.202 -2.86733 0.826249 0
M  V30 3229 C 289.951 -3.36418 -0.87854 0
M  V30 3230 H 289.274 -3.98836 -0.277401 0
M  V30 3231 H 290.714 -4.0308 -1.3154 0
M  V30 3232 C 289.173 -2.71141 -1.99961 0
M  V30 3233 O 289.703 -2.56735 -3.0895 0
M  V30 3234 N 287.909 -2.29671 -1.78043 0
M  V30 3235 H 287.456 -2.41588 -0.894042 0
M  V30 3236 H 287.414 -1.86332 -2.53235 0
M  V30 3237 N 291.186 -0.45159 -1.50991 0
M  V30 3238 C 292.414 0.108334 -2.06616 0
M  V30 3239 C 292.829 1.35224 -1.31757 0
M  V30 3240 O 292.186 1.78475 -0.381174 0
M  V30 3241 C 292.237 0.41619 -3.59096 0
M  V30 3242 O 291.958 -0.778361 -4.3113 0
M  V30 3243 C 293.459 1.02523 -4.31282 0
M  V30 3244 H 290.679 0.00159995 -0.670998 0
M  V30 3245 H 293.223 -0.634771 -1.94399 0
M  V30 3246 H 291.378 1.10921 -3.71181 0
M  V30 3247 H 291.792 -0.511181 -5.22003 0
M  V30 3248 H 293.266 1.19053 -5.39009 0
M  V30 3249 H 293.743 2.01013 -3.905 0
M  V30 3250 H 294.349 0.371173 -4.23677 0
M  V30 3251 N 292.664 1.56529 -0.183458 0
M  V30 3252 C 293.894 2.01331 0.463612 0
M  V30 3253 C 294.302 1.06278 1.5653 0
M  V30 3254 O 293.645 0.0577976 1.83609 0
M  V30 3255 C 293.707 3.42547 1.09096 0
M  V30 3256 C 293.371 4.56817 0.129442 0
M  V30 3257 C 294.368 5.15734 -0.656807 0
M  V30 3258 C 292.053 5.02295 0.02174 0
M  V30 3259 C 294.047 6.1857 -1.53784 0
M  V30 3260 C 291.734 6.04978 -0.862864 0
M  V30 3261 C 292.732 6.62988 -1.64123 0
M  V30 3262 O 292.42 7.63677 -2.51103 0
M  V30 3263 H 292.152 0.664917 0.121907 0
M  V30 3264 H 294.706 2.034 -0.285954 0
M  V30 3265 H 292.936 3.37428 1.88889 0
M  V30 3266 H 294.625 3.71228 1.64148 0
M  V30 3267 H 295.391 4.81473 -0.583839 0
M  V30 3268 H 291.27 4.56847 0.617392 0
M  V30 3269 H 294.814 6.63777 -2.14583 0
M  V30 3270 H 290.711 6.38663 -0.93699 0
M  V30 3271 H 291.479 7.81049 -2.44753 0
M  V30 3272 N 294.142 -0.090211 1.57342 0
M  V30 3273 C 295.052 -1.12735 2.05738 0
M  V30 3274 C 296.068 -1.43557 0.983231 0
M  V30 3275 O 297.244 -1.54101 1.29672 0
M  V30 3276 C 294.309 -2.42659 2.47624 0
M  V30 3277 C 293.37 -2.18975 3.69254 0
M  V30 3278 C 292.603 -3.42704 4.09133 0
M  V30 3279 O 292.826 -4.51127 3.49057 0
M  V30 3280 O 291.76 -3.32003 5.02053 0
M  V30 3281 H 295.586 -0.746279 2.94388 0
M  V30 3282 H 293.171 -0.303064 1.46294 0
M  V30 3283 H 295.053 -3.19155 2.7517 0
M  V30 3284 H 293.728 -2.80182 1.62109 0
M  V30 3285 H 292.635 -1.40244 3.46818 0
M  V30 3286 H 293.968 -1.86342 4.55563 0
M  V30 3287 N 295.62 -1.53406 -0.361157 0
M  V30 3288 C 296.85 -1.73465 -1.1222 0
M  V30 3289 C 297.258 -0.465486 -1.83384 0
M  V30 3290 O 296.601 0.571611 -1.7458 0
M  V30 3291 C 296.663 -2.84834 -2.19339 0
M  V30 3292 C 296.327 -4.25038 -1.67903 0
M  V30 3293 C 297.324 -5.07231 -1.14074 0
M  V30 3294 C 295.009 -4.71464 -1.73282 0
M  V30 3295 C 297.003 -6.33942 -0.663068 0
M  V30 3296 C 294.69 -5.98153 -1.25127 0
M  V30 3297 C 295.688 -6.79223 -0.717296 0
M  V30 3298 O 295.376 -8.03533 -0.242865 0
M  V30 3299 H 295.108 -0.583526 -0.341283 0
M  V30 3300 H 297.662 -2.00964 -0.424591 0
M  V30 3301 H 295.892 -2.5282 -2.92607 0
M  V30 3302 H 297.581 -2.9303 -2.80871 0
M  V30 3303 H 298.347 -4.72534 -1.09254 0
M  V30 3304 H 294.226 -4.08432 -2.13786 0
M  V30 3305 H 297.77 -6.97167 -0.245612 0
M  V30 3306 H 293.667 -6.32347 -1.29642 0
M  V30 3307 H 294.435 -8.177 -0.361786 0
M  V30 3308 N 297.098 0.621204 -1.44841 0
M  V30 3309 C 298.061 1.71459 -1.521 0
M  V30 3310 C 299.061 1.55696 -0.401933 0
M  V30 3311 O 300.251 1.61011 -0.664925 0
M  V30 3312 C 297.383 3.10624 -1.40447 0
M  V30 3313 H 298.576 1.66394 -2.49506 0
M  V30 3314 H 296.129 0.835745 -1.3208 0
M  V30 3315 H 296.864 3.21277 -0.441737 0
M  V30 3316 H 296.649 3.23473 -2.21602 0
M  V30 3317 H 298.139 3.90293 -1.4853 0
M  V30 3318 N 298.576 1.31904 0.862503 0
M  V30 3319 C 299.853 1.12644 1.59908 0
M  V30 3320 C 300.233 -0.316104 2.0872 0
M  V30 3321 O 299.581 -1.31145 1.87118 0
M  V30 3322 C 299.791 2.1472 2.7513 0
M  V30 3323 C 301.139 2.47637 3.44907 0
M  V30 3324 O 302.163 2.13205 2.85346 0
M  V30 3325 O 301.022 3.06632 4.52371 0
M  V30 3326 H 298.116 0.43416 0.703871 0
M  V30 3327 H 300.662 1.43408 0.907314 0
M  V30 3328 H 299.434 3.1172 2.3653 0
M  V30 3329 H 299.057 1.84905 3.51989 0
M  V30 3330 N 300.054 -1.07777 1.14986 0
M  V30 3331 C 301.284 -1.83752 0.944402 0
M  V30 3332 C 301.692 -1.8218 -0.51058 0
M  V30 3333 O 301.035 -1.22852 -1.36576 0
M  V30 3334 C 301.097 -3.32128 1.37592 0
M  V30 3335 C 300.761 -3.57425 2.84775 0
M  V30 3336 C 301.758 -3.5173 3.8286 0
M  V30 3337 C 299.443 -3.8523 3.2234 0
M  V30 3338 C 301.437 -3.73482 5.16517 0
M  V30 3339 C 299.124 -4.06634 4.56171 0
M  V30 3340 C 300.122 -4.00754 5.53069 0
M  V30 3341 O 299.81 -4.2159 6.84483 0
M  V30 3342 H 299.542 -0.58673 0.335744 0
M  V30 3343 H 302.096 -1.36982 1.53052 0
M  V30 3344 H 300.326 -3.79686 0.733165 0
M  V30 3345 H 302.015 -3.89555 1.14024 0
M  V30 3346 H 302.781 -3.30256 3.55184 0
M  V30 3347 H 298.66 -3.88923 2.47508 0
M  V30 3348 H 302.204 -3.68808 5.92137 0
M  V30 3349 H 298.101 -4.27593 4.83564 0
M  V30 3350 H 298.869 -4.38961 6.90837 0
M  V30 3351 N 301.532 -0.945985 -1.26051 0
M  V30 3352 C 302.495 -0.463897 -2.24456 0
M  V30 3353 C 303.495 0.427655 -1.55009 0
M  V30 3354 O 304.685 0.226157 -1.72726 0
M  V30 3355 C 301.817 0.330812 -3.39291 0
M  V30 3356 H 303.01 -1.33357 -2.68619 0
M  V30 3357 H 300.563 -0.728416 -1.38289 0
M  V30 3358 H 301.298 1.21852 -3.00537 0
M  V30 3359 H 301.083 -0.308679 -3.90883 0
M  V30 3360 H 302.573 0.657865 -4.12386 0
M  V30 3361 N 303.011 1.40521 -0.713556 0
M  V30 3362 C 304.241 2.0494 -0.261395 0
M  V30 3363 C 304.649 1.53861 1.10107 0
M  V30 3364 O 303.992 0.689321 1.70276 0
M  V30 3365 C 304.054 3.59138 -0.161227 0
M  V30 3366 C 303.718 4.33096 -1.45865 0
M  V30 3367 C 304.715 4.61182 -2.40016 0
M  V30 3368 C 302.4 4.72043 -1.71701 0
M  V30 3369 C 304.394 5.27196 -3.58251 0
M  V30 3370 C 302.081 5.37789 -2.90218 0
M  V30 3371 C 303.079 5.65295 -3.83315 0
M  V30 3372 O 302.767 6.29683 -4.99754 0
M  V30 3373 H 302.499 0.666041 -0.115608 0
M  V30 3374 H 305.053 1.80954 -0.971849 0
M  V30 3375 H 303.283 3.81936 0.605153 0
M  V30 3376 H 304.972 4.05091 0.256105 0
M  V30 3377 H 305.738 4.31559 -2.21318 0
M  V30 3378 H 301.617 4.50003 -1.00092 0
M  V30 3379 H 305.161 5.48582 -4.30934 0
M  V30 3380 H 301.058 5.66831 -3.08825 0
M  V30 3381 H 301.826 6.4818 -4.99805 0
M  V30 3382 N 304.489 0.459591 1.5075 0
M  V30 3383 C 305.436 -0.340524 2.28274 0
M  V30 3384 C 306.406 -0.997371 1.32822 0
M  V30 3385 O 307.591 -1.01202 1.61749 0
M  V30 3386 C 304.731 -1.42317 3.14388 0
M  V30 3387 C 303.844 -0.782251 4.24859 0
M  V30 3388 C 302.979 -1.84182 4.98247 0
M  V30 3389 C 302.018 -1.18053 6.00608 0
M  V30 3390 N 301.155 -2.18244 6.67319 0
M  V30 3391 H 305.995 0.326899 2.96202 0
M  V30 3392 H 303.532 0.173057 1.46078 0
M  V30 3393 H 305.49 -2.06241 3.62658 0
M  V30 3394 H 304.12 -2.05992 2.4853 0
M  V30 3395 H 303.172 -0.0307404 3.80388 0
M  V30 3396 H 304.484 -0.259663 4.98124 0
M  V30 3397 H 303.638 -2.55714 5.50177 0
M  V30 3398 H 302.377 -2.39819 4.24662 0
M  V30 3399 H 301.382 -0.450776 5.47949 0
M  V30 3400 H 302.607 -0.631202 6.7616 0
M  V30 3401 H 300.553 -2.72919 5.96533 0
M  V30 3402 H 300.47 -1.70938 7.36421 0
M  V30 3403 H 301.738 -2.89191 7.23871 0
M  V30 3404 N 305.967 -1.56429 0.191757 0
M  V30 3405 C 306.899 -2.16154 -0.762245 0
M  V30 3406 C 307.912 -1.12247 -1.17917 0
M  V30 3407 O 309.101 -1.39353 -1.11548 0
M  V30 3408 C 306.201 -2.70606 -2.04024 0
M  V30 3409 C 305.374 -3.99381 -1.78364 0
M  V30 3410 C 304.433 -4.38692 -2.90578 0
M  V30 3411 O 303.459 -5.06179 -2.6033 0
M  V30 3412 N 304.661 -4.01922 -4.18854 0
M  V30 3413 H 307.426 -2.98643 -0.251526 0
M  V30 3414 H 304.987 -1.61897 0.00967373 0
M  V30 3415 H 306.979 -2.93891 -2.78227 0
M  V30 3416 H 305.549 -1.9259 -2.46227 0
M  V30 3417 H 304.769 -3.84262 -0.879581 0
M  V30 3418 H 306.057 -4.83445 -1.58614 0
M  V30 3419 H 305.455 -3.47631 -4.46283 0
M  V30 3420 H 304.012 -4.30165 -4.89695 0
M  V30 3421 N 307.445 0.0818655 -1.57387 0
M  V30 3422 C 308.691 0.784074 -1.8703 0
M  V30 3423 C 309.024 1.77729 -0.782689 0
M  V30 3424 O 308.299 1.93384 0.208051 0
M  V30 3425 C 308.582 1.50105 -3.27323 0
M  V30 3426 C 308.435 0.524925 -4.46727 0
M  V30 3427 C 309.754 2.44843 -3.65705 0
M  V30 3428 H 306.873 0.283582 -0.680257 0
M  V30 3429 H 309.515 0.0474352 -1.89941 0
M  V30 3430 H 307.665 2.12897 -3.24972 0
M  V30 3431 H 309.337 -0.0970111 -4.61198 0
M  V30 3432 H 307.58 -0.160606 -4.33503 0
M  V30 3433 H 308.251 1.064 -5.41648 0
M  V30 3434 H 310.727 1.92135 -3.69085 0
M  V30 3435 H 309.603 2.92018 -4.64776 0
M  V30 3436 H 309.864 3.29197 -2.95096 0
M  V30 3437 N 308.923 1.53595 0.353017 0
M  V30 3438 C 309.856 1.7572 1.45594 0
M  V30 3439 C 310.834 0.605961 1.50887 0
M  V30 3440 O 312.018 0.840023 1.68748 0
M  V30 3441 C 309.145 1.84732 2.83887 0
M  V30 3442 C 308.191 3.06808 2.96262 0
M  V30 3443 S 309.024 4.66065 2.63711 0
M  V30 3444 C 310.18 4.77943 4.04131 0
M  V30 3445 H 310.413 2.68994 1.26608 0
M  V30 3446 H 307.946 1.44343 0.548117 0
M  V30 3447 H 309.904 1.9061 3.63563 0
M  V30 3448 H 308.565 0.92488 3.00175 0
M  V30 3449 H 307.758 3.09761 3.97573 0
M  V30 3450 H 307.36 2.99108 2.24523 0
M  V30 3451 H 309.652 4.5877 4.98534 0
M  V30 3452 H 310.595 5.80022 4.06177 0
M  V30 3453 H 311.003 4.06472 3.91715 0
M  V30 3454 N 310.401 -0.613514 1.45168 0
M  V30 3455 C 311.311 -1.75296 1.55912 0
M  V30 3456 C 312.327 -1.68244 0.443856 0
M  V30 3457 O 313.503 -1.88706 0.70371 0
M  V30 3458 C 310.568 -3.1174 1.5172 0
M  V30 3459 C 309.629 -3.30291 2.74238 0
M  V30 3460 C 308.862 -4.60226 2.70236 0
M  V30 3461 O 309.085 -5.42168 1.77229 0
M  V30 3462 O 308.019 -4.81361 3.61352 0
M  V30 3463 H 311.845 -1.69183 2.52212 0
M  V30 3464 H 309.43 -0.776886 1.27612 0
M  V30 3465 H 311.312 -3.93044 1.51968 0
M  V30 3466 H 309.987 -3.18357 0.585697 0
M  V30 3467 H 308.894 -2.48598 2.79553 0
M  V30 3468 H 310.227 -3.28547 3.66494 0
M  V30 3469 N 311.879 -1.3236 -0.855495 0
M  V30 3470 C 312.809 -1.23833 -1.97958 0
M  V30 3471 C 313.79 -0.122361 -1.69659 0
M  V30 3472 O 314.975 -0.30939 -1.9172 0
M  V30 3473 C 312.105 -0.959772 -3.33775 0
M  V30 3474 C 311.059 -2.03689 -3.76424 0
M  V30 3475 C 310.385 -1.61075 -5.09862 0
M  V30 3476 C 311.685 -3.4518 -3.9198 0
M  V30 3477 H 313.379 -2.1788 -2.0535 0
M  V30 3478 H 310.925 -1.04891 -0.986605 0
M  V30 3479 H 312.878 -0.886678 -4.11966 0
M  V30 3480 H 311.602 0.0163404 -3.26596 0
M  V30 3481 H 310.261 -2.10012 -3.00484 0
M  V30 3482 H 309.909 -0.622107 -4.99138 0
M  V30 3483 H 309.609 -2.33143 -5.39368 0
M  V30 3484 H 311.133 -1.55201 -5.90546 0
M  V30 3485 H 312.547 -3.4145 -4.60526 0
M  V30 3486 H 310.944 -4.1559 -4.32903 0
M  V30 3487 H 312.014 -3.84903 -2.94919 0
M  V30 3488 N 313.357 1.07166 -1.15556 0
M  V30 3489 C 314.603 1.80065 -0.932984 0
M  V30 3490 C 314.936 1.86586 0.53845 0
M  V30 3491 O 314.211 1.35098 1.39924 0
M  V30 3492 C 314.494 3.25022 -1.55025 0
M  V30 3493 C 314.347 3.26634 -3.09242 0
M  V30 3494 C 315.666 4.22341 -1.2376 0
M  V30 3495 H 312.785 0.653697 -0.340366 0
M  V30 3496 H 315.427 1.25389 -1.4275 0
M  V30 3497 H 313.577 3.71712 -1.12972 0
M  V30 3498 H 315.249 2.88173 -3.60214 0
M  V30 3499 H 313.492 2.65539 -3.43033 0
M  V30 3500 H 314.163 4.28854 -3.47546 0
M  V30 3501 H 316.639 3.8405 -1.60139 0
M  V30 3502 H 315.515 5.22053 -1.69564 0
M  V30 3503 H 315.776 4.41828 -0.154938 0
M  V30 3504 N 314.835 0.952656 1.25548 0
M  V30 3505 C 316.112 0.523818 1.88456 0
M  V30 3506 C 316.492 -0.998871 1.85973 0
M  V30 3507 O 315.84 -1.86381 1.3219 0
M  V30 3508 C 316.05 1.0982 3.31271 0
M  V30 3509 C 317.398 1.17385 4.08051 0
M  V30 3510 O 318.422 1.04961 3.40384 0
M  V30 3511 O 317.281 1.36852 5.29088 0
M  V30 3512 H 314.375 0.172485 0.808813 0
M  V30 3513 H 316.921 1.04596 1.33633 0
M  V30 3514 H 315.693 2.1415 3.27499 0
M  V30 3515 H 315.316 0.559191 3.93648 0
M  V30 3516 N 316.313 -1.40141 0.720998 0
M  V30 3517 C 317.243 -2.33339 0.0867621 0
M  V30 3518 C 318.224 -1.53178 -0.739622 0
M  V30 3519 O 319.409 -1.81625 -0.687449 0
M  V30 3520 C 316.539 -3.37194 -0.831728 0
M  V30 3521 C 315.493 -4.27857 -0.110558 0
M  V30 3522 C 314.819 -5.22294 -1.14513 0
M  V30 3523 C 316.119 -5.11872 1.0385 0
M  V30 3524 H 317.813 -2.86626 0.865219 0
M  V30 3525 H 315.359 -1.37814 0.417516 0
M  V30 3526 H 317.312 -4.01335 -1.28485 0
M  V30 3527 H 316.036 -2.82314 -1.64214 0
M  V30 3528 H 314.695 -3.65176 0.322797 0
M  V30 3529 H 314.343 -4.63717 -1.94874 0
M  V30 3530 H 314.043 -5.83797 -0.667446 0
M  V30 3531 H 315.567 -5.89312 -1.59824 0
M  V30 3532 H 316.981 -5.69436 0.664482 0
M  V30 3533 H 315.378 -5.82445 1.4449 0
M  V30 3534 H 316.448 -4.4753 1.86668 0
M  V30 3535 N 317.792 -0.46758 -1.50504 0
M  V30 3536 C 319.022 0.086288 -2.0642 0
M  V30 3537 C 319.43 1.34369 -1.33197 0
M  V30 3538 O 318.773 1.79431 -0.393747 0
M  V30 3539 C 318.835 0.443846 -3.5675 0
M  V30 3540 C 318.499 -0.711035 -4.51435 0
M  V30 3541 C 319.496 -1.59205 -4.94924 0
M  V30 3542 C 317.181 -0.900363 -4.94165 0
M  V30 3543 C 319.175 -2.64683 -5.79846 0
M  V30 3544 C 316.862 -1.95837 -5.7887 0
M  V30 3545 C 317.86 -2.82997 -6.21612 0
M  V30 3546 O 317.548 -3.86977 -7.0463 0
M  V30 3547 H 317.28 -0.00217814 -0.675996 0
M  V30 3548 H 319.834 -0.654346 -1.94698 0
M  V30 3549 H 318.064 1.23762 -3.6636 0
M  V30 3550 H 319.753 0.932386 -3.95046 0
M  V30 3551 H 320.519 -1.45745 -4.62583 0
M  V30 3552 H 316.398 -0.231427 -4.60419 0
M  V30 3553 H 319.942 -3.32745 -6.13128 0
M  V30 3554 H 315.839 -2.09305 -6.10624 0
M  V30 3555 H 316.607 -3.83923 -7.22873 0
M  V30 3556 N 319.27 1.56325 -0.20005 0
M  V30 3557 C 320.2 2.22318 0.713916 0
M  V30 3558 C 321.181 1.18788 1.21752 0
M  V30 3559 O 322.366 1.47309 1.26545 0
M  V30 3560 C 319.496 2.88639 1.93144 0
M  V30 3561 C 318.45 3.98457 1.56255 0
M  V30 3562 C 317.776 4.51967 2.85709 0
M  V30 3563 C 319.076 5.16612 0.768747 0
M  V30 3564 H 320.77 2.98952 0.163755 0
M  V30 3565 H 318.316 1.43792 0.0773219 0
M  V30 3566 H 320.269 3.33491 2.57608 0
M  V30 3567 H 318.993 2.09419 2.50621 0
M  V30 3568 H 317.652 3.54305 0.941471 0
M  V30 3569 H 317.3 3.69503 3.41287 0
M  V30 3570 H 317 5.26071 2.6177 0
M  V30 3571 H 318.524 4.99523 3.51154 0
M  V30 3572 H 319.938 5.57977 1.3166 0
M  V30 3573 H 318.335 5.96812 0.627286 0
M  V30 3574 H 319.405 4.84358 -0.229168 0
M  V30 3575 N 320.748 -0.0735177 1.57428 0
M  V30 3576 C 322.159 -0.625551 1.75908 0
M  V30 3577 C 322.51 -1.78 0.825261 0
M  V30 3578 O 321.635 -2.16398 0.00893964 0
M  V30 3579 C 322.23 -1.14155 3.18989 0
M  V30 3580 C 320.789 -1.63946 3.38819 0
M  V30 3581 C 319.936 -0.558151 2.71625 0
M  V30 3582 H 322.887 0.152647 1.57964 0
M  V30 3583 H 322.908 -2.0104 3.23053 0
M  V30 3584 H 322.42 -0.301116 3.8693 0
M  V30 3585 H 320.521 -2.50321 2.7599 0
M  V30 3586 H 320.634 -1.71759 4.47253 0
M  V30 3587 H 318.998 -1.00278 2.34129 0
M  V30 3588 H 319.781 0.272071 3.4222 0
M  V30 3589 N 322.226 -1.5378 -0.344866 0
M  V30 3590 C 323.503 -1.61589 -1.10219 0
M  V30 3591 C 323.883 -0.436316 -2.06542 0
M  V30 3592 O 323.231 0.571543 -2.21237 0
M  V30 3593 C 323.441 -2.97602 -1.82301 0
M  V30 3594 C 324.789 -3.5291 -2.36093 0
M  V30 3595 O 325.813 -2.99768 -1.924 0
M  V30 3596 O 324.672 -4.45859 -3.16026 0
M  V30 3597 H 321.766 -0.653522 -0.506792 0
M  V30 3598 H 324.312 -1.66126 -0.346465 0
M  V30 3599 H 323.084 -3.74893 -1.12121 0
M  V30 3600 H 322.707 -2.9665 -2.64735 0
M  V30 3601 N 323.704 0.605807 -1.45491 0
M  V30 3602 C 324.95 1.36679 -1.49823 0
M  V30 3603 C 325.283 1.93693 -0.140175 0
M  V30 3604 O 324.558 1.75158 0.845581 0
M  V30 3605 C 324.841 2.51337 -2.57879 0
M  V30 3606 C 324.694 1.99508 -4.03134 0
M  V30 3607 C 326.013 3.53463 -2.62205 0
M  V30 3608 H 323.132 0.495617 -0.545466 0
M  V30 3609 H 325.774 0.682732 -1.7731 0
M  V30 3610 H 323.924 3.09691 -2.34571 0
M  V30 3611 H 325.596 1.45789 -4.37656 0
M  V30 3612 H 323.839 1.30496 -4.13707 0
M  V30 3613 H 324.51 2.82169 -4.74431 0
M  V30 3614 H 326.986 3.04953 -2.83095 0
M  V30 3615 H 325.862 4.31178 -3.39672 0
M  V30 3616 H 326.123 4.09197 -1.67363 0
M  V30 3617 N 325.182 1.32811 0.848464 0
M  V30 3618 C 326.112 1.24882 1.97299 0
M  V30 3619 C 327.093 0.131357 1.69592 0
M  V30 3620 O 328.278 0.319553 1.91553 0
M  V30 3621 C 325.408 0.97746 3.33261 0
M  V30 3622 C 324.362 2.05682 3.75338 0
M  V30 3623 C 323.688 1.63777 5.09 0
M  V30 3624 C 324.988 3.47254 3.90144 0
M  V30 3625 H 326.682 2.18966 2.04191 0
M  V30 3626 H 324.228 1.05413 0.981029 0
M  V30 3627 H 326.181 0.908513 4.1149 0
M  V30 3628 H 324.905 0.000980011 3.266 0
M  V30 3629 H 323.564 2.11603 2.99366 0
M  V30 3630 H 323.212 0.648569 4.98801 0
M  V30 3631 H 322.912 2.36 5.38124 0
M  V30 3632 H 324.436 1.5833 5.89715 0
M  V30 3633 H 325.85 3.43888 4.58709 0
M  V30 3634 H 324.247 4.1788 4.30693 0
M  V30 3635 H 325.317 3.86462 2.92874 0
M  V30 3636 N 326.66 -1.06551 1.16123 0
M  V30 3637 C 327.906 -1.79719 0.952505 0
M  V30 3638 C 328.261 -1.85396 -0.514385 0
M  V30 3639 O 327.554 -1.33263 -1.37665 0
M  V30 3640 C 327.748 -3.23911 1.51052 0
M  V30 3641 C 327.577 -3.32284 3.03013 0
M  V30 3642 C 326.347 -3.42371 3.71632 0
M  V30 3643 C 328.545 -3.22363 4.00732 0
M  V30 3644 N 326.527 -3.39732 5.11327 0
M  V30 3645 C 327.898 -3.26937 5.26794 0
M  V30 3646 C 329.953 -3.0623 3.92591 0
M  V30 3647 C 328.656 -3.17035 6.45663 0
M  V30 3648 C 330.682 -2.97665 5.11028 0
M  V30 3649 C 330.044 -3.02858 6.35969 0
M  V30 3650 H 326.143 -0.670585 0.402293 0
M  V30 3651 H 328.727 -1.27125 1.4747 0
M  V30 3652 H 326.898 -3.74907 1.01484 0
M  V30 3653 H 328.63 -3.85242 1.2398 0
M  V30 3654 H 325.385 -3.47058 3.22254 0
M  V30 3655 H 325.809 -3.41919 5.84312 0
M  V30 3656 H 330.451 -3.01063 2.96852 0
M  V30 3657 H 328.169 -3.2096 7.41627 0
M  V30 3658 H 331.755 -2.86273 5.06497 0
M  V30 3659 H 330.635 -2.96286 7.26075 0
M  V30 3660 N 328.138 -0.959301 -1.25041 0
M  V30 3661 C 329.086 -0.474437 -2.2771 0
M  V30 3662 C 330.08 0.457697 -1.631 0
M  V30 3663 O 331.286 0.333912 -1.76876 0
M  V30 3664 H 327.661 -0.134936 -0.739795 0
M  V30 3665 H 329.632 -1.35251 -2.65988 0
M  V30 3666 C 328.381 0.227884 -3.46952 0
M  V30 3667 H 327.704 -0.480248 -3.96905 0
M  V30 3668 H 329.144 0.531091 -4.20661 0
M  V30 3669 C 327.603 1.452 -3.04004 0
M  V30 3670 O 328.133 2.54949 -3.10426 0
M  V30 3671 N 326.339 1.31502 -2.59144 0
M  V30 3672 H 325.886 0.422065 -2.54119 0
M  V30 3673 H 325.844 2.13521 -2.30773 0
M  V30 3674 N 329.616 1.39756 -0.72842 0
M  V30 3675 C 330.893 1.94574 -0.200079 0
M  V30 3676 C 331.273 1.66569 1.29684 0
M  V30 3677 O 330.621 0.990326 2.05924 0
M  V30 3678 C 330.831 3.45004 -0.526608 0
M  V30 3679 C 332.179 4.21965 -0.472318 0
M  V30 3680 O 333.203 3.53173 -0.463413 0
M  V30 3681 O 332.062 5.44552 -0.461075 0
M  V30 3682 H 329.156 0.826289 -0.0342851 0
M  V30 3683 H 331.702 1.49293 -0.806829 0
M  V30 3684 H 330.474 3.58796 -1.56144 0
M  V30 3685 H 330.097 3.97449 0.109449 0
M  V30 3686 N 331.094 0.475555 1.50254 0
M  V30 3687 C 332.027 -0.362381 2.25304 0
M  V30 3688 C 333.005 -0.992393 1.28803 0
M  V30 3689 O 334.189 -1.02746 1.58036 0
M  V30 3690 C 331.316 -1.50813 3.03271 0
M  V30 3691 C 330.362 -0.995044 4.1473 0
M  V30 3692 S 331.195 0.0938436 5.35418 0
M  V30 3693 C 332.351 -1.05567 6.16933 0
M  V30 3694 H 332.584 0.274686 2.96028 0
M  V30 3695 H 330.117 0.260495 1.52187 0
M  V30 3696 H 332.075 -2.16476 3.48781 0
M  V30 3697 H 330.736 -2.11672 2.32064 0
M  V30 3698 H 329.929 -1.85293 4.68703 0
M  V30 3699 H 329.531 -0.416052 3.71679 0
M  V30 3700 H 331.823 -1.96636 6.48337 0
M  V30 3701 H 332.766 -0.555109 7.05921 0
M  V30 3702 H 333.174 -1.31151 5.49053 0
M  V30 3703 N 332.573 -1.56217 0.208337 0
M  V30 3704 C 333.821 -1.97558 -0.426076 0
M  V30 3705 C 334.142 -1.09683 -1.61229 0
M  V30 3706 O 333.412 -0.170956 -1.95153 0
M  V30 3707 H 331.992 -0.729575 -0.160405 0
M  V30 3708 H 334.654 -1.92606 0.298155 0
M  V30 3709 H 333.75 -3.02672 -0.761312 0
M  V30 3710 N 334.051 0.0651679 -1.57465 0
M  V30 3711 C 335.297 0.758912 -1.88712 0
M  V30 3712 C 335.652 1.7485 -0.802819 0
M  V30 3713 O 334.945 1.90632 0.192359 0
M  V30 3714 C 335.139 1.50081 -3.24362 0
M  V30 3715 C 334.968 0.584579 -4.45884 0
M  V30 3716 C 333.738 0.219039 -5.04825 0
M  V30 3717 C 335.936 -0.121559 -5.14156 0
M  V30 3718 N 333.918 -0.702222 -6.09871 0
M  V30 3719 C 335.289 -0.899767 -6.13436 0
M  V30 3720 C 337.344 -0.192331 -4.97528 0
M  V30 3721 C 336.047 -1.74218 -6.97883 0
M  V30 3722 C 338.073 -1.02174 -5.82507 0
M  V30 3723 C 337.435 -1.78798 -6.8133 0
M  V30 3724 H 333.534 0.25293 -0.739967 0
M  V30 3725 H 336.118 0.0201744 -1.9469 0
M  V30 3726 H 334.289 2.21023 -3.1938 0
M  V30 3727 H 336.021 2.14409 -3.43236 0
M  V30 3728 H 332.776 0.57336 -4.70117 0
M  V30 3729 H 333.2 -1.15629 -6.67052 0
M  V30 3730 H 337.842 0.385741 -4.21037 0
M  V30 3731 H 335.56 -2.3312 -7.73745 0
M  V30 3732 H 339.146 -1.07957 -5.71696 0
M  V30 3733 H 338.026 -2.41942 -7.45945 0
M  V30 3734 N 335.529 1.53961 0.336706 0
M  V30 3735 C 336.94 1.62914 0.911925 0
M  V30 3736 C 337.291 0.514795 1.89326 0
M  V30 3737 O 336.416 -0.354395 2.13478 0
M  V30 3738 C 337.011 2.95304 1.66076 0
M  V30 3739 C 335.57 3.06496 2.18489 0
M  V30 3740 C 334.717 2.58403 1.00613 0
M  V30 3741 H 337.668 1.58285 0.114649 0
M  V30 3742 H 337.689 2.84727 2.5241 0
M  V30 3743 H 337.201 3.76387 0.946276 0
M  V30 3744 H 335.302 2.3006 2.93092 0
M  V30 3745 H 335.415 4.1208 2.44391 0
M  V30 3746 H 333.779 2.13977 1.38152 0
M  V30 3747 H 334.562 3.41932 0.306179 0
M  V30 3748 N 337.007 -0.598083 1.45811 0
M  V30 3749 C 337.917 -1.73632 1.57763 0
M  V30 3750 C 338.933 -1.67763 0.461676 0
M  V30 3751 O 340.109 -1.87949 0.723685 0
M  V30 3752 C 337.174 -3.10114 1.55018 0
M  V30 3753 C 336.235 -3.27364 2.77726 0
M  V30 3754 C 335.468 -4.57334 2.75102 0
M  V30 3755 O 335.691 -5.40258 1.8297 0
M  V30 3756 O 334.625 -4.77502 3.66437 0
M  V30 3757 H 338.451 -1.66498 2.53992 0
M  V30 3758 H 336.036 -0.763308 1.28429 0
M  V30 3759 H 337.918 -3.9141 1.56129 0
M  V30 3760 H 336.593 -3.17718 0.619431 0
M  V30 3761 H 335.5 -2.45619 2.82174 0
M  V30 3762 H 336.833 -3.24641 3.69958 0
M  V30 3763 N 338.485 -1.33259 -0.841409 0
M  V30 3764 C 339.432 -1.23302 -1.95103 0
M  V30 3765 C 340.402 -0.112204 -1.65721 0
M  V30 3766 O 341.587 -0.290038 -1.88583 0
M  V30 3767 C 338.727 -0.975583 -3.31023 0
M  V30 3768 C 337.84 -2.18243 -3.72819 0
M  V30 3769 C 336.975 -1.85936 -4.97595 0
M  V30 3770 C 336.014 -3.02866 -5.3192 0
M  V30 3771 N 335.151 -2.70565 -6.47873 0
M  V30 3772 H 339.991 -2.18207 -2.02952 0
M  V30 3773 H 337.528 -1.0851 -0.993173 0
M  V30 3774 H 339.486 -0.80677 -4.09325 0
M  V30 3775 H 338.116 -0.0632755 -3.22738 0
M  V30 3776 H 337.168 -2.46107 -2.90061 0
M  V30 3777 H 338.48 -3.05666 -3.94169 0
M  V30 3778 H 337.634 -1.65684 -5.83638 0
M  V30 3779 H 336.373 -0.957452 -4.78209 0
M  V30 3780 H 335.378 -3.23736 -4.44382 0
M  V30 3781 H 336.603 -3.93809 -5.53255 0
M  V30 3782 H 334.549 -1.8293 -6.29978 0
M  V30 3783 H 334.466 -3.51519 -6.69306 0
M  V30 3784 H 335.734 -2.53774 -7.37034 0
M  V30 3785 N 339.963 1.05934 -1.16686 0
M  V30 3786 C 341.211 1.78447 -0.948744 0
M  V30 3787 C 341.532 1.87813 0.524523 0
M  V30 3788 O 340.802 1.38945 1.38098 0
M  V30 3789 H 339.382 0.660971 -0.348033 0
M  V30 3790 H 342.044 1.27947 -1.47022 0
M  V30 3791 H 341.14 2.80394 -1.37061 0
M  V30 3792 N 341.441 0.965919 1.2453 0
M  V30 3793 C 342.388 0.49402 2.25451 0
M  V30 3794 C 343.358 -0.45948 1.59618 0
M  V30 3795 O 344.543 -0.370238 1.87173 0
M  V30 3796 C 341.683 -0.211359 3.44452 0
M  V30 3797 C 340.796 0.7807 4.24887 0
M  V30 3798 C 339.931 0.0516105 5.31175 0
M  V30 3799 C 338.97 1.03385 6.03306 0
M  V30 3800 N 338.107 0.334887 7.01301 0
M  V30 3801 H 342.947 1.35946 2.65184 0
M  V30 3802 H 340.484 0.681515 1.3036 0
M  V30 3803 H 342.442 -0.637 4.12308 0
M  V30 3804 H 341.072 -1.04077 3.05562 0
M  V30 3805 H 340.124 1.32479 3.56586 0
M  V30 3806 H 341.436 1.52978 4.74762 0
M  V30 3807 H 340.59 -0.432114 6.05159 0
M  V30 3808 H 339.329 -0.730179 4.82203 0
M  V30 3809 H 338.334 1.52847 5.28127 0
M  V30 3810 H 339.559 1.81606 6.54367 0
M  V30 3811 H 337.505 -0.427959 6.54603 0
M  V30 3812 H 337.422 1.02287 7.49048 0
M  V30 3813 H 338.69 -0.126928 7.79397 0
M  V30 3814 N 342.919 -1.39368 0.735821 0
M  V30 3815 C 343.829 -2.34395 0.0979693 0
M  V30 3816 C 344.845 -1.58361 -0.720968 0
M  V30 3817 O 346.021 -1.90648 -0.649245 0
M  V30 3818 C 343.086 -3.37393 -0.797916 0
M  V30 3819 C 342.147 -4.29287 0.0333662 0
M  V30 3820 C 341.38 -5.27365 -0.819854 0
M  V30 3821 O 341.603 -5.31959 -2.05855 0
M  V30 3822 O 340.537 -6.01389 -0.248079 0
M  V30 3823 H 344.363 -2.90601 0.882315 0
M  V30 3824 H 341.948 -1.40909 0.4965 0
M  V30 3825 H 343.83 -4.00505 -1.31048 0
M  V30 3826 H 342.505 -2.83571 -1.56106 0
M  V30 3827 H 341.412 -3.69395 0.591475 0
M  V30 3828 H 342.745 -4.86317 0.758752 0
M  V30 3829 N 344.397 -0.483516 -1.5 0
M  V30 3830 C 345.674 0.129337 -1.95172 0
M  V30 3831 C 346.054 1.55802 -1.4244 0
M  V30 3832 O 345.402 2.19625 -0.630649 0
M  V30 3833 C 345.612 0.0599251 -3.48949 0
M  V30 3834 C 346.96 0.242617 -4.23906 0
M  V30 3835 O 347.984 0.135933 -3.55941 0
M  V30 3836 O 346.843 0.459454 -5.44565 0
M  V30 3837 H 343.937 0.104887 -0.820322 0
M  V30 3838 H 346.483 -0.544807 -1.60717 0
M  V30 3839 H 345.255 -0.937079 -3.79914 0
M  V30 3840 H 344.878 0.774984 -3.89974 0
M  V30 3841 N 345.875 1.56104 -0.216619 0
M  V30 3842 C 346.805 2.23063 0.690296 0
M  V30 3843 C 347.786 1.20072 1.20485 0
M  V30 3844 O 348.971 1.48643 1.24976 0
M  V30 3845 C 346.101 2.90672 1.90072 0
M  V30 3846 C 345.055 4.00092 1.5202 0
M  V30 3847 C 344.381 4.54972 2.80899 0
M  V30 3848 C 345.681 5.17398 0.71391 0
M  V30 3849 H 347.375 2.99109 0.132038 0
M  V30 3850 H 344.921 1.43866 0.0620664 0
M  V30 3851 H 346.874 3.36204 2.54057 0
M  V30 3852 H 345.598 2.12066 2.48386 0
M  V30 3853 H 344.257 3.55283 0.903839 0
M  V30 3854 H 343.905 3.73102 3.37348 0
M  V30 3855 H 343.605 5.28817 2.56176 0
M  V30 3856 H 345.129 5.0322 3.45836 0
M  V30 3857 H 346.543 5.59342 1.25735 0
M  V30 3858 H 344.94 5.97444 0.563951 0
M  V30 3859 H 346.01 4.84088 -0.280527 0
M  V30 3860 N 347.353 -0.0568162 1.57498 0
M  V30 3861 C 348.3 -1.06591 2.04712 0
M  V30 3862 C 349.27 -1.3758 0.930644 0
M  V30 3863 O 350.455 -1.48392 1.19935 0
M  V30 3864 C 347.595 -2.3701 2.50839 0
M  V30 3865 C 346.708 -2.12421 3.76167 0
M  V30 3866 C 345.843 -3.36511 4.11015 0
M  V30 3867 C 344.882 -3.07353 5.2934 0
M  V30 3868 N 344.019 -4.23816 5.59754 0
M  V30 3869 H 348.859 -0.65631 2.90683 0
M  V30 3870 H 346.396 -0.312481 1.43743 0
M  V30 3871 H 348.354 -3.13175 2.7564 0
M  V30 3872 H 346.984 -2.75744 1.67825 0
M  V30 3873 H 346.036 -1.2688 3.58616 0
M  V30 3874 H 347.348 -1.86894 4.62463 0
M  V30 3875 H 346.502 -4.21062 4.36797 0
M  V30 3876 H 345.241 -3.65128 3.23315 0
M  V30 3877 H 344.246 -2.212 5.03339 0
M  V30 3878 H 345.471 -2.80043 6.1867 0
M  V30 3879 H 343.417 -4.52436 4.75014 0
M  V30 3880 H 343.334 -4.01614 6.40501 0
M  V30 3881 H 344.602 -5.0932 5.90096 0
M  V30 3882 N 348.832 -1.54138 -0.328536 0
M  V30 3883 C 350.062 -1.75807 -1.08516 0
M  V30 3884 C 350.47 -0.50428 -1.82356 0
M  V30 3885 O 349.813 0.534451 -1.75754 0
M  V30 3886 C 349.875 -2.89423 -2.13248 0
M  V30 3887 C 349.539 -4.28504 -1.5885 0
M  V30 3888 C 350.536 -5.09536 -1.03289 0
M  V30 3889 C 348.221 -4.75034 -1.63243 0
M  V30 3890 C 350.215 -6.35206 -0.52845 0
M  V30 3891 C 347.902 -6.00672 -1.12411 0
M  V30 3892 C 348.9 -6.80592 -0.573062 0
M  V30 3893 O 348.588 -8.03867 -0.0723692 0
M  V30 3894 H 348.32 -0.590633 -0.328829 0
M  V30 3895 H 350.874 -2.01819 -0.381868 0
M  V30 3896 H 349.104 -2.5897 -2.87178 0
M  V30 3897 H 350.793 -2.98921 -2.74592 0
M  V30 3898 H 351.559 -4.74745 -0.99206 0
M  V30 3899 H 347.438 -4.12875 -2.05074 0
M  V30 3900 H 350.982 -6.97532 -0.0976774 0
M  V30 3901 H 346.879 -6.34955 -1.162 0
M  V30 3902 H 347.647 -8.18283 -0.188258 0
M  V30 3903 N 350.31 0.590341 -1.46126 0
M  V30 3904 C 351.24 1.71032 -1.58966 0
M  V30 3905 C 352.221 1.64302 -0.440335 0
M  V30 3906 O 353.406 1.82436 -0.665634 0
M  V30 3907 C 350.536 3.09665 -1.57241 0
M  V30 3908 C 349.49 3.31221 -2.71066 0
M  V30 3909 C 348.816 4.70303 -2.54399 0
M  V30 3910 C 350.116 3.19796 -4.1295 0
M  V30 3911 H 351.81 1.60543 -2.52718 0
M  V30 3912 H 349.356 0.770933 -1.21625 0
M  V30 3913 H 351.309 3.87831 -1.64819 0
M  V30 3914 H 350.033 3.21036 -0.600289 0
M  V30 3915 H 348.692 2.55452 -2.62944 0
M  V30 3916 H 348.34 4.78429 -1.55288 0
M  V30 3917 H 348.04 4.85679 -3.30741 0
M  V30 3918 H 349.564 5.50647 -2.63857 0
M  V30 3919 H 350.978 3.87815 -4.22223 0
M  V30 3920 H 349.375 3.46696 -4.89818 0
M  V30 3921 H 350.445 2.16983 -4.33643 0
M  V30 3922 N 351.788 1.33704 0.83433 0
M  V30 3923 C 353.035 1.25417 1.58987 0
M  V30 3924 C 353.363 -0.178869 1.93676 0
M  V30 3925 O 352.618 -1.13723 1.59265 0
M  V30 3926 C 352.917 2.07926 2.90692 0
M  V30 3927 C 352.583 3.57066 2.75345 0
M  V30 3928 C 351.245 3.97724 2.70867 0
M  V30 3929 C 353.597 4.51817 2.59828 0
M  V30 3930 C 350.925 5.31344 2.48778 0
M  V30 3931 C 353.277 5.85604 2.39272 0
M  V30 3932 C 351.941 6.25439 2.33199 0
M  V30 3933 H 351.211 0.458934 0.581774 0
M  V30 3934 H 353.858 1.65335 0.966261 0
M  V30 3935 H 352.163 1.608 3.57282 0
M  V30 3936 H 353.86 1.98868 3.48213 0
M  V30 3937 H 350.45 3.24785 2.79665 0
M  V30 3938 H 354.634 4.21311 2.62319 0
M  V30 3939 H 349.89 5.61241 2.42526 0
M  V30 3940 H 354.064 6.58623 2.2625 0
M  V30 3941 H 351.691 7.28914 2.15843 0
M  V30 3942 N 353.266 -1.05314 1.17247 0
M  V30 3943 C 354.229 -2.112 0.890357 0
M  V30 3944 C 355.229 -1.60359 -0.118943 0
M  V30 3945 O 356.419 -1.73833 0.113086 0
M  V30 3946 C 353.551 -3.39266 0.333422 0
M  V30 3947 H 354.744 -2.37659 1.82916 0
M  V30 3948 H 352.297 -1.21538 0.982758 0
M  V30 3949 H 353.032 -3.18462 -0.612587 0
M  V30 3950 H 352.817 -3.77477 1.06082 0
M  V30 3951 H 354.307 -4.17315 0.154322 0
M  V30 3952 N 354.744 -0.972509 -1.24016 0
M  V30 3953 C 355.974 -0.653853 -1.9598 0
M  V30 3954 C 356.382 0.781801 -1.72292 0
M  V30 3955 O 355.725 1.53677 -1.00644 0
M  V30 3956 C 355.787 -0.854608 -3.49194 0
M  V30 3957 C 355.451 -2.27082 -3.96589 0
M  V30 3958 C 356.448 -3.24892 -4.05883 0
M  V30 3959 C 354.133 -2.5998 -4.29786 0
M  V30 3960 C 356.127 -4.53684 -4.47716 0
M  V30 3961 C 353.814 -3.88997 -4.71301 0
M  V30 3962 C 354.812 -4.85661 -4.80232 0
M  V30 3963 O 354.5 -6.12376 -5.20818 0
M  V30 3964 H 354.232 -0.242572 -0.630979 0
M  V30 3965 H 356.786 -1.30431 -1.58673 0
M  V30 3966 H 355.016 -0.146985 -3.86421 0
M  V30 3967 H 356.705 -0.534311 -4.02368 0
M  V30 3968 H 357.471 -3.00805 -3.80449 0
M  V30 3969 H 353.35 -1.85457 -4.22051 0
M  V30 3970 H 356.894 -5.29135 -4.54601 0
M  V30 3971 H 352.791 -4.12882 -4.96184 0
M  V30 3972 H 353.559 -6.16013 -5.38953 0
M  V30 3973 N 356.222 1.38976 -0.743202 0
M  V30 3974 C 357.452 2.04339 -0.304807 0
M  V30 3975 C 357.86 1.56162 1.06819 0
M  V30 3976 O 357.203 0.725284 1.68776 0
M  V30 3977 C 357.265 3.58716 -0.237369 0
M  V30 3978 C 356.929 4.29905 -1.55018 0
M  V30 3979 C 357.926 4.55987 -2.49744 0
M  V30 3980 C 355.611 4.68294 -1.81675 0
M  V30 3981 C 357.605 5.19478 -3.69353 0
M  V30 3982 C 355.292 5.31512 -3.0156 0
M  V30 3983 C 356.29 5.57037 -3.9522 0
M  V30 3984 O 355.978 6.18941 -5.12998 0
M  V30 3985 H 355.71 0.663439 -0.12971 0
M  V30 3986 H 358.264 1.78852 -1.01001 0
M  V30 3987 H 356.494 3.83133 0.524003 0
M  V30 3988 H 358.183 4.05543 0.170121 0
M  V30 3989 H 358.949 4.26767 -2.30423 0
M  V30 3990 H 354.828 4.47779 -1.09615 0
M  V30 3991 H 358.372 5.39318 -4.42473 0
M  V30 3992 H 354.269 5.60153 -3.20778 0
M  V30 3993 H 355.037 6.37433 -5.13441 0
M  V30 3994 N 357.7 0.491464 1.49741 0
M  V30 3995 C 358.93 -0.0534375 2.06531 0
M  V30 3996 C 359.338 -1.32233 1.35318 0
M  V30 3997 O 358.681 -1.78781 0.422243 0
M  V30 3998 C 358.743 -0.387034 3.57411 0
M  V30 3999 C 358.407 0.782764 4.50246 0
M  V30 4000 C 359.404 1.67059 4.92329 0
M  V30 4001 C 357.089 0.978866 4.9267 0
M  V30 4002 C 359.083 2.73874 5.75562 0
M  V30 4003 C 356.77 2.05022 5.75682 0
M  V30 4004 C 357.768 2.92851 6.17031 0
M  V30 4005 O 357.456 3.98138 6.98385 0
M  V30 4006 H 357.188 0.0129324 0.675876 0
M  V30 4007 H 359.742 0.685238 1.93633 0
M  V30 4008 H 357.972 -1.17918 3.68283 0
M  V30 4009 H 359.661 -0.869419 3.96479 0
M  V30 4010 H 360.427 1.53086 4.60206 0
M  V30 4011 H 356.306 0.304646 4.59992 0
M  V30 4012 H 359.85 3.42458 6.07757 0
M  V30 4013 H 355.747 2.18993 6.07217 0
M  V30 4014 H 356.515 3.95374 7.16674 0
M  V30 4015 N 359.178 -1.55987 0.224894 0
M  V30 4016 C 360.126 -2.21808 -0.700283 0
M  V30 4017 C 361.12 -1.19854 -1.19714 0
M  V30 4018 O 362.326 -1.37925 -1.15658 0
M  V30 4019 H 358.701 -0.711226 -0.244258 0
M  V30 4020 H 360.672 -2.98152 -0.121749 0
M  V30 4021 C 359.421 -2.91444 -1.8962 0
M  V30 4022 H 358.744 -3.69655 -1.52299 0
M  V30 4023 H 360.184 -3.40894 -2.52125 0
M  V30 4024 C 358.643 -1.94098 -2.75368 0
M  V30 4025 O 359.173 -1.46004 -3.74227 0
M  V30 4026 N 357.379 -1.61675 -2.41474 0
M  V30 4027 H 356.926 -2.00979 -1.61137 0
M  V30 4028 H 356.884 -0.968036 -2.99126 0
M  V30 4029 N 360.656 0.0484629 -1.57525 0
M  V30 4030 C 361.603 1.05504 -2.05275 0
M  V30 4031 C 362.573 1.37084 -0.937927 0
M  V30 4032 O 363.758 1.47754 -1.2072 0
M  V30 4033 C 360.898 2.35676 -2.52093 0
M  V30 4034 C 360.011 2.10423 -3.77288 0
M  V30 4035 C 359.146 3.34327 -4.12794 0
M  V30 4036 C 358.185 3.04542 -5.30962 0
M  V30 4037 N 357.322 4.20841 -5.61994 0
M  V30 4038 H 362.162 0.640885 -2.91027 0
M  V30 4039 H 359.699 0.304854 -1.43906 0
M  V30 4040 H 361.657 3.11709 -2.77297 0
M  V30 4041 H 360.287 2.7485 -1.69285 0
M  V30 4042 H 359.339 1.24976 -3.59284 0
M  V30 4043 H 360.651 1.84438 -4.63448 0
M  V30 4044 H 359.805 4.1874 -4.39024 0
M  V30 4045 H 358.544 3.63408 -3.25247 0
M  V30 4046 H 357.549 2.18528 -5.04505 0
M  V30 4047 H 358.774 2.76758 -6.20146 0
M  V30 4048 H 356.72 4.4991 -4.77406 0
M  V30 4049 H 356.637 3.98212 -6.42622 0
M  V30 4050 H 357.905 5.06184 -5.92789 0
M  V30 4051 N 362.134 1.5431 0.320358 0
M  V30 4052 C 363.084 1.803 1.39556 0
M  V30 4053 C 364.068 0.659166 1.46778 0
M  V30 4054 O 365.26 0.91926 1.51257 0
M  V30 4055 C 362.389 2.03665 2.76361 0
M  V30 4056 C 361.475 3.24178 2.73439 0
M  V30 4057 N 361.866 4.4516 2.40137 0
M  V30 4058 C 360.164 3.25816 3.04565 0
M  V30 4059 C 360.865 5.27109 2.4603 0
M  V30 4060 N 359.841 4.64368 2.82601 0
M  V30 4061 H 363.643 2.71416 1.12742 0
M  V30 4062 H 361.157 1.53548 0.528856 0
M  V30 4063 H 363.154 2.20425 3.53862 0
M  V30 4064 H 361.814 1.13805 3.04103 0
M  V30 4065 H 362.825 4.72104 2.12927 0
M  V30 4066 H 359.502 2.46001 3.37328 0
M  V30 4067 H 360.892 6.33728 2.23246 0
M  V30 4068 N 363.613 -0.582584 1.46437 0
M  V30 4069 C 365.024 -1.1647 1.45916 0
M  V30 4070 C 365.375 -1.95177 0.200077 0
M  V30 4071 O 364.5 -2.04874 -0.696819 0
M  V30 4072 C 365.095 -2.11885 2.64367 0
M  V30 4073 C 363.654 -2.65421 2.66887 0
M  V30 4074 C 362.801 -1.41294 2.38603 0
M  V30 4075 H 365.752 -0.370514 1.54314 0
M  V30 4076 H 365.773 -2.9535 2.39892 0
M  V30 4077 H 365.285 -1.54573 3.5599 0
M  V30 4078 H 363.386 -3.26602 1.79338 0
M  V30 4079 H 363.499 -3.08147 3.66854 0
M  V30 4080 H 361.863 -1.71109 1.88663 0
M  V30 4081 H 362.646 -0.858125 3.32402 0
M  V30 4082 N 365.091 -1.34144 -0.827227 0
M  V30 4083 C 366.001 -1.27428 -1.96975 0
M  V30 4084 C 367.017 -0.182728 -1.73038 0
M  V30 4085 O 368.193 -0.408426 -1.97215 0
M  V30 4086 C 365.258 -1.02526 -3.31194 0
M  V30 4087 C 364.319 -2.20796 -3.68168 0
M  V30 4088 C 363.552 -1.97073 -4.95982 0
M  V30 4089 O 363.775 -0.926822 -5.6282 0
M  V30 4090 O 362.709 -2.83912 -5.30733 0
M  V30 4091 H 366.535 -2.23537 -2.05584 0
M  V30 4092 H 364.12 -1.14307 -0.961989 0
M  V30 4093 H 366.002 -0.904026 -4.11589 0
M  V30 4094 H 364.677 -0.0945389 -3.23562 0
M  V30 4095 H 363.584 -2.38477 -2.88235 0
M  V30 4096 H 364.917 -3.12243 -3.8048 0
M  V30 4097 N 366.569 1.04691 -1.17803 0
M  V30 4098 C 367.817 1.7743 -0.967617 0
M  V30 4099 C 368.138 1.88359 0.504574 0
M  V30 4100 O 367.408 1.40402 1.36617 0
M  V30 4101 H 365.988 0.657242 -0.355024 0
M  V30 4102 H 368.65 1.2638 -1.48371 0
M  V30 4103 H 367.746 2.78924 -1.40027 0
M  V30 4104 N 368.047 0.979072 1.23499 0
M  V30 4105 C 369.272 0.664845 1.96455 0
M  V30 4106 C 369.697 -0.761287 1.72006 0
M  V30 4107 O 369.055 -1.51837 0.990713 0
M  V30 4108 C 369.103 0.959479 3.47601 0
M  V30 4109 O 368.207 0.0508168 4.12369 0
M  V30 4110 H 367.548 0.250185 0.615064 0
M  V30 4111 H 370.078 1.31231 1.5697 0
M  V30 4112 H 370.088 0.895642 3.98048 0
M  V30 4113 H 368.763 1.99876 3.64723 0
M  V30 4114 H 367.34 0.16895 3.72517 0
M  V30 4115 N 369.525 -1.3858 0.750561 0
M  V30 4116 C 370.771 -2.00481 0.305825 0
M  V30 4117 C 371.104 -1.5944 -1.10872 0
M  V30 4118 O 370.379 -0.83052 -1.75877 0
M  V30 4119 C 370.662 -3.5758 0.425287 0
M  V30 4120 C 370.515 -4.08594 1.88072 0
M  V30 4121 C 371.834 -4.39719 -0.183122 0
M  V30 4122 H 368.953 -0.728348 0.112598 0
M  V30 4123 H 371.595 -1.64566 0.949638 0
M  V30 4124 H 369.745 -3.88306 -0.122828 0
M  V30 4125 H 371.417 -3.88523 2.48691 0
M  V30 4126 H 369.66 -3.61574 2.39681 0
M  V30 4127 H 370.331 -5.177 1.91548 0
M  V30 4128 H 372.807 -4.15128 0.284303 0
M  V30 4129 H 371.683 -5.48856 -0.0692757 0
M  V30 4130 H 371.944 -4.23434 -1.27106 0
M  V30 4131 N 371.003 -0.499398 -1.49478 0
M  V30 4132 C 371.951 0.293604 -2.3074 0
M  V30 4133 C 372.945 0.96427 -1.39277 0
M  V30 4134 O 374.151 0.892141 -1.56336 0
M  V30 4135 H 370.526 0.113541 -0.743379 0
M  V30 4136 H 372.497 -0.411772 -2.95545 0
M  V30 4137 C 371.246 1.3462 -3.20582 0
M  V30 4138 H 370.569 0.83954 -3.90886 0
M  V30 4139 H 372.009 1.87308 -3.80384 0
M  V30 4140 C 370.468 2.36351 -2.40083 0
M  V30 4141 O 370.998 3.422 -2.10385 0
M  V30 4142 N 369.204 2.0878 -2.02137 0
M  V30 4143 H 368.751 1.22723 -2.26488 0
M  V30 4144 H 368.709 2.77075 -1.48583 0
M  V30 4145 N 372.481 1.55866 -0.233164 0
M  V30 4146 C 373.758 1.90471 0.444988 0
M  V30 4147 C 374.138 1.15209 1.7689 0
M  V30 4148 O 373.486 0.265119 2.26957 0
M  V30 4149 C 373.696 3.4333 0.626559 0
M  V30 4150 C 375.044 4.14319 0.92871 0
M  V30 4151 O 376.068 3.48993 0.712926 0
M  V30 4152 O 374.927 5.29846 1.33887 0
M  V30 4153 H 372.021 0.792347 0.236885 0
M  V30 4154 H 374.567 1.67437 -0.276211 0
M  V30 4155 H 373.339 3.90095 -0.306822 0
M  V30 4156 H 372.962 3.72181 1.39881 0
M  V30 4157 N 373.959 -0.0401083 1.57549 0
M  V30 4158 C 375.375 -0.395556 1.54621 0
M  V30 4159 C 375.575 -1.77281 0.957799 0
M  V30 4160 O 374.631 -2.45888 0.574031 0
M  V30 4161 C 375.944 -0.307535 2.99123 0
M  V30 4162 C 377.492 -0.385425 3.10618 0
M  V30 4163 C 377.967 -0.326973 4.56831 0
M  V30 4164 N 379.458 -0.386102 4.61588 0
M  V30 4165 C 380.193 -0.363591 5.72246 0
M  V30 4166 N 379.689 -0.29402 6.92176 0
M  V30 4167 N 381.482 -0.412503 5.60584 0
M  V30 4168 H 373.633 0.861325 1.94152 0
M  V30 4169 H 375.896 0.326445 0.890021 0
M  V30 4170 H 375.602 0.638461 3.45856 0
M  V30 4171 H 375.476 -1.10552 3.60636 0
M  V30 4172 H 377.863 -1.32185 2.63839 0
M  V30 4173 H 377.944 0.44171 2.51957 0
M  V30 4174 H 377.588 0.605738 5.04275 0
M  V30 4175 H 377.518 -1.17207 5.13391 0
M  V30 4176 H 380.009 -0.442832 3.75296 0
M  V30 4177 H 380.322 -0.28164 7.72287 0
M  V30 4178 H 378.667 -0.260232 6.94513 0
M  V30 4179 H 381.858 -0.464769 4.65787 0
M  V30 4180 H 382.031 -0.391492 6.46816 0
M  V30 4181 N 375.437 -1.54477 -0.31217 0
M  V30 4182 C 376.683 -1.74417 -1.04644 0
M  V30 4183 C 377.038 -0.517641 -1.85306 0
M  V30 4184 O 376.331 0.489973 -1.85229 0
M  V30 4185 C 376.525 -2.967 -1.99258 0
M  V30 4186 C 376.354 -4.31128 -1.27901 0
M  V30 4187 C 375.124 -4.95087 -1.01079 0
M  V30 4188 C 377.322 -5.09662 -0.689119 0
M  V30 4189 N 375.304 -6.13322 -0.266323 0
M  V30 4190 C 376.675 -6.19952 -0.0768523 0
M  V30 4191 C 378.73 -4.94355 -0.593061 0
M  V30 4192 C 377.433 -7.16604 0.622165 0
M  V30 4193 C 379.459 -5.91328 0.0922792 0
M  V30 4194 C 378.821 -7.00978 0.693443 0
M  V30 4195 H 374.92 -0.69094 -0.366231 0
M  V30 4196 H 377.504 -1.91946 -0.326319 0
M  V30 4197 H 375.675 -2.80616 -2.68532 0
M  V30 4198 H 377.407 -3.05216 -2.65755 0
M  V30 4199 H 374.162 -4.55235 -1.30607 0
M  V30 4200 H 374.586 -6.76937 0.0920973 0
M  V30 4201 H 379.228 -4.09719 -1.04355 0
M  V30 4202 H 376.946 -8.0079 1.08445 0
M  V30 4203 H 380.532 -5.81562 0.166396 0
M  V30 4204 H 379.412 -7.74725 1.21533 0
M  V30 4205 N 376.915 0.57481 -1.46744 0
M  V30 4206 C 378.163 1.33009 -1.52161 0
M  V30 4207 C 378.484 1.94185 -0.178092 0
M  V30 4208 O 377.754 1.7899 0.796196 0
M  V30 4209 H 376.334 0.493873 -0.560445 0
M  V30 4210 H 378.996 0.672589 -1.82927 0
M  V30 4211 H 378.092 2.13273 -2.27862 0
M  V30 4212 N 378.394 1.34581 0.820102 0
M  V30 4213 C 379.64 1.27285 1.57881 0
M  V30 4214 C 379.973 -0.156137 1.93571 0
M  V30 4215 O 379.248 -1.10222 1.60254 0
M  V30 4216 C 379.531 2.16639 2.87645 0
M  V30 4217 C 379.384 3.68088 2.58517 0
M  V30 4218 C 380.703 2.05378 3.8924 0
M  V30 4219 H 377.822 0.463714 0.572833 0
M  V30 4220 H 380.464 1.64859 0.944539 0
M  V30 4221 H 378.614 1.84725 3.41773 0
M  V30 4222 H 380.286 4.10382 2.10676 0
M  V30 4223 H 378.529 3.89038 1.91917 0
M  V30 4224 H 379.2 4.2598 3.51063 0
M  V30 4225 H 381.676 2.33404 3.44473 0
M  V30 4226 H 380.552 2.7012 4.77835 0
M  V30 4227 H 380.813 1.0316 4.29896 0
M  V30 4228 N 379.872 -1.04064 1.18357 0
M  V30 4229 C 381.283 -1.58719 0.98312 0
M  V30 4230 C 381.634 -1.90556 -0.467193 0
M  V30 4231 O 380.759 -1.69561 -1.34454 0
M  V30 4232 C 381.354 -2.88379 1.77828 0
M  V30 4233 C 379.913 -3.3965 1.62218 0
M  V30 4234 C 379.06 -2.13235 1.77274 0
M  V30 4235 H 382.011 -0.867359 1.32901 0
M  V30 4236 H 382.032 -3.58773 1.26737 0
M  V30 4237 H 381.544 -2.65176 2.83379 0
M  V30 4238 H 379.645 -3.67866 0.592036 0
M  V30 4239 H 379.758 -4.13475 2.42023 0
M  V30 4240 H 378.122 -2.24542 1.20221 0
M  V30 4241 H 378.905 -1.92487 2.8426 0
M  V30 4242 N 381.35 -0.985608 -1.22978 0
M  V30 4243 C 382.3 -0.50118 -2.22423 0
M  V30 4244 C 383.284 0.426649 -1.5514 0
M  V30 4245 O 384.476 0.254656 -1.75159 0
M  V30 4246 C 381.605 0.190003 -3.42774 0
M  V30 4247 C 380.691 -0.757703 -4.17276 0
M  V30 4248 N 381.082 -1.90251 -4.68656 0
M  V30 4249 C 379.38 -0.57209 -4.42316 0
M  V30 4250 C 380.081 -2.49676 -5.25392 0
M  V30 4251 N 379.057 -1.78013 -5.13627 0
M  V30 4252 H 382.859 -1.37441 -2.59783 0
M  V30 4253 H 380.373 -0.846941 -1.38567 0
M  V30 4254 H 382.37 0.55439 -4.13197 0
M  V30 4255 H 381.03 1.05946 -3.06929 0
M  V30 4256 H 382.041 -2.28354 -4.64839 0
M  V30 4257 H 378.718 0.251909 -4.16739 0
M  V30 4258 H 380.108 -3.46384 -5.75732 0
M  V30 4259 N 382.828 1.3818 -0.7579 0
M  V30 4260 C 384.074 2.0078 -0.325423 0
M  V30 4261 C 384.429 1.59085 1.08211 0
M  V30 4262 O 383.722 0.820394 1.73148 0
M  V30 4263 C 383.916 3.55252 -0.391218 0
M  V30 4264 C 383.745 4.11947 -1.8036 0
M  V30 4265 C 382.515 4.43519 -2.42113 0
M  V30 4266 C 384.713 4.33908 -2.76095 0
M  V30 4267 N 382.695 4.85847 -3.75267 0
M  V30 4268 C 384.066 4.78692 -3.94023 0
M  V30 4269 C 386.121 4.16015 -2.73561 0
M  V30 4270 C 384.824 5.07459 -5.09782 0
M  V30 4271 C 386.85 4.45909 -3.88483 0
M  V30 4272 C 386.212 4.90921 -5.0515 0
M  V30 4273 H 382.311 0.764215 -0.165831 0
M  V30 4274 H 384.895 1.67724 -0.988776 0
M  V30 4275 H 383.066 3.87646 0.241886 0
M  V30 4276 H 384.798 4.04653 0.061989 0
M  V30 4277 H 381.553 4.32113 -1.93842 0
M  V30 4278 H 381.977 5.11339 -4.4369 0
M  V30 4279 H 386.619 3.80399 -1.84544 0
M  V30 4280 H 384.337 5.4197 -5.99412 0
M  V30 4281 H 387.923 4.33666 -3.87847 0
M  V30 4282 H 386.803 5.1361 -5.92599 0
M  V30 4283 N 384.306 0.507319 1.49211 0
M  V30 4284 C 385.583 -0.0982702 1.95353 0
M  V30 4285 C 385.963 -1.53516 1.449 0
M  V30 4286 O 385.311 -2.18594 0.66551 0
M  V30 4287 C 385.521 -0.00440283 3.49 0
M  V30 4288 C 386.869 -0.175147 4.24239 0
M  V30 4289 O 387.893 -0.0792891 3.56112 0
M  V30 4290 O 386.752 -0.37276 5.45227 0
M  V30 4291 H 383.846 -0.0918236 0.821887 0
M  V30 4292 H 386.392 0.570307 1.5983 0
M  V30 4293 H 385.164 0.997402 3.78375 0
M  V30 4294 H 384.787 -0.712845 3.91158 0
M  V30 4295 N 385.784 -1.5574 0.241426 0
M  V30 4296 C 387.031 -1.9881 -0.384836 0
M  V30 4297 C 387.359 -1.12947 -1.58346 0
M  V30 4298 O 386.614 -0.178993 -1.9488 0
M  V30 4299 C 386.913 -3.47308 -0.843317 0
M  V30 4300 C 386.579 -4.50223 0.246946 0
M  V30 4301 C 385.241 -4.78088 0.546399 0
M  V30 4302 C 387.593 -5.11841 0.983282 0
M  V30 4303 C 384.921 -5.64846 1.58636 0
M  V30 4304 C 387.273 -5.99727 2.01272 0
M  V30 4305 C 385.937 -6.25927 2.31888 0
M  V30 4306 H 385.207 -0.727496 -0.140821 0
M  V30 4307 H 387.854 -1.8831 0.348106 0
M  V30 4308 H 386.159 -3.55112 -1.65537 0
M  V30 4309 H 387.856 -3.78017 -1.33806 0
M  V30 4310 H 384.446 -4.286 0.00340639 0
M  V30 4311 H 388.63 -4.90366 0.765182 0
M  V30 4312 H 383.886 -5.83403 1.82896 0
M  V30 4313 H 388.06 -6.46517 2.58823 0
M  V30 4314 H 385.687 -6.92949 3.12611 0
M  V30 4315 N 387.262 0.0317525 -1.57568 0
M  V30 4316 C 388.209 1.0332 -2.06382 0
M  V30 4317 C 389.179 1.36082 -0.952414 0
M  V30 4318 O 390.364 1.46466 -1.2228 0
M  V30 4319 C 387.504 2.32989 -2.54578 0
M  V30 4320 C 386.617 2.0641 -3.79498 0
M  V30 4321 C 385.752 3.2993 -4.16317 0
M  V30 4322 C 384.791 2.98893 -5.34162 0
M  V30 4323 N 383.928 4.14857 -5.66426 0
M  V30 4324 H 388.768 0.609982 -2.9169 0
M  V30 4325 H 386.305 0.289573 -1.44222 0
M  V30 4326 H 388.263 3.0875 -2.80587 0
M  V30 4327 H 386.893 2.73039 -1.7219 0
M  V30 4328 H 385.945 1.21158 -3.6059 0
M  V30 4329 H 387.257 1.79513 -4.65378 0
M  V30 4330 H 386.411 4.1406 -4.4344 0
M  V30 4331 H 385.15 3.59938 -3.29083 0
M  V30 4332 H 384.155 2.13164 -5.06795 0
M  V30 4333 H 385.38 2.70165 -6.23047 0
M  V30 4334 H 383.326 4.44821 -4.82151 0
M  V30 4335 H 383.243 3.91374 -6.4681 0
M  V30 4336 H 384.511 4.99868 -5.98124 0
M  V30 4337 N 388.74 1.54641 0.303973 0
M  V30 4338 C 389.968 1.77768 1.05858 0
M  V30 4339 C 390.383 0.535722 1.8104 0
M  V30 4340 O 389.74 -0.494337 1.75677 0
M  V30 4341 C 389.791 2.9834 2.04146 0
M  V30 4342 O 389.512 4.17736 1.32015 0
M  V30 4343 C 391.013 3.33832 2.91669 0
M  V30 4344 H 388.233 0.592961 0.314067 0
M  V30 4345 H 390.777 2.01583 0.344149 0
M  V30 4346 H 388.932 2.76742 2.71096 0
M  V30 4347 H 389.346 4.85693 1.97998 0
M  V30 4348 H 390.82 4.21448 3.56491 0
M  V30 4349 H 391.297 2.51857 3.59812 0
M  V30 4350 H 391.903 3.57579 2.30254 0
M  V30 4351 N 390.218 -0.567019 1.47046 0
M  V30 4352 C 391.181 -1.65696 1.58359 0
M  V30 4353 C 392.181 -1.54097 0.459441 0
M  V30 4354 O 393.371 -1.58432 0.724225 0
M  V30 4355 C 390.503 -3.05197 1.51879 0
M  V30 4356 H 391.696 -1.57019 2.5551 0
M  V30 4357 H 389.249 -0.786148 1.3509 0
M  V30 4358 H 389.984 -3.19417 0.560673 0
M  V30 4359 H 389.769 -3.15025 2.33455 0
M  V30 4360 H 391.259 -3.84511 1.62913 0
M  V30 4361 N 391.696 -1.35014 -0.812953 0
M  V30 4362 C 392.606 -1.2951 -1.95613 0
M  V30 4363 C 393.622 -0.20107 -1.72834 0
M  V30 4364 O 394.798 -0.42932 -1.96771 0
M  V30 4365 C 391.863 -1.06033 -3.30088 0
M  V30 4366 C 390.924 -2.24688 -3.65805 0
M  V30 4367 C 390.157 -2.02322 -4.93864 0
M  V30 4368 O 390.38 -0.986464 -5.61805 0
M  V30 4369 O 389.314 -2.89525 -5.27692 0
M  V30 4370 H 393.14 -2.25705 -2.03202 0
M  V30 4371 H 390.725 -1.15321 -0.949811 0
M  V30 4372 H 392.607 -0.94763 -4.10607 0
M  V30 4373 H 391.282 -0.128852 -3.23443 0
M  V30 4374 H 390.189 -2.41521 -2.85689 0
M  V30 4375 H 391.522 -3.16261 -3.77147 0
M  V30 4376 N 393.175 1.03435 -1.18907 0
M  V30 4377 C 394.405 1.8012 -1.01195 0
M  V30 4378 C 394.813 1.8395 0.442613 0
M  V30 4379 O 394.156 1.27836 1.31923 0
M  V30 4380 C 394.218 3.26792 -1.49823 0
M  V30 4381 C 393.882 3.46609 -2.97844 0
M  V30 4382 C 394.879 3.37278 -3.95651 0
M  V30 4383 C 392.564 3.73001 -3.36416 0
M  V30 4384 C 394.558 3.54054 -5.30023 0
M  V30 4385 C 392.245 3.89423 -4.70949 0
M  V30 4386 C 393.243 3.79951 -5.67562 0
M  V30 4387 O 392.931 3.95895 -6.99659 0
M  V30 4388 H 392.663 0.573865 -0.357289 0
M  V30 4389 H 395.217 1.31207 -1.58031 0
M  V30 4390 H 393.447 3.76703 -0.873578 0
M  V30 4391 H 395.136 3.85055 -1.28404 0
M  V30 4392 H 395.902 3.16846 -3.67197 0
M  V30 4393 H 391.781 3.79469 -2.61772 0
M  V30 4394 H 395.325 3.46577 -6.05417 0
M  V30 4395 H 391.222 4.09351 -4.99101 0
M  V30 4396 H 391.99 4.13019 -7.06653 0
M  V30 4397 N 394.653 0.992116 1.22453 0
M  V30 4398 C 395.603 0.512969 2.22155 0
M  V30 4399 C 396.587 -0.418416 1.55364 0
M  V30 4400 O 397.779 -0.245363 1.75291 0
M  V30 4401 C 394.908 -0.171822 3.4287 0
M  V30 4402 C 393.994 0.779822 4.16869 0
M  V30 4403 N 394.385 1.92734 4.6764 0
M  V30 4404 C 392.683 0.59554 4.42006 0
M  V30 4405 C 393.384 2.52458 5.24061 0
M  V30 4406 N 392.36 1.80735 5.12675 0
M  V30 4407 H 396.162 1.38817 2.5905 0
M  V30 4408 H 393.676 0.854277 1.38115 0
M  V30 4409 H 395.673 -0.532469 4.13486 0
M  V30 4410 H 394.333 -1.04317 3.07487 0
M  V30 4411 H 395.344 2.30816 4.63621 0
M  V30 4412 H 392.021 -0.229805 4.16867 0
M  V30 4413 H 393.411 3.49433 5.73887 0
M  V30 4414 N 396.131 -1.37776 0.765217 0
M  V30 4415 C 397.377 -2.00145 0.327072 0
M  V30 4416 C 397.71 -1.60607 -1.09175 0
M  V30 4417 O 396.985 -0.849127 -1.74986 0
M  V30 4418 C 397.268 -3.57109 0.46319 0
M  V30 4419 C 397.121 -4.06576 1.92395 0
M  V30 4420 C 398.44 -4.39888 -0.136473 0
M  V30 4421 H 395.559 -0.727113 0.120316 0
M  V30 4422 H 398.201 -1.63549 0.967039 0
M  V30 4423 H 396.351 -3.88414 -0.0816358 0
M  V30 4424 H 398.023 -3.85864 2.52798 0
M  V30 4425 H 396.266 -3.59011 2.43503 0
M  V30 4426 H 396.937 -5.15639 1.97028 0
M  V30 4427 H 399.413 -4.14803 0.328317 0
M  V30 4428 H 398.289 -5.48899 -0.0110582 0
M  V30 4429 H 398.55 -4.24758 -1.22608 0
M  V30 4430 N 397.609 -0.515225 -1.4894 0
M  V30 4431 C 398.557 0.269115 -2.31038 0
M  V30 4432 C 399.551 0.949443 -1.40292 0
M  V30 4433 O 400.757 0.87551 -1.57273 0
M  V30 4434 H 397.132 0.10565 -0.744542 0
M  V30 4435 H 399.103 -0.443096 -2.95092 0
M  V30 4436 C 397.852 1.31213 -3.21991 0
M  V30 4437 H 397.175 0.798034 -3.91754 0
M  V30 4438 H 398.615 1.83263 -3.82349 0
M  V30 4439 C 397.074 2.33791 -2.42576 0
M  V30 4440 O 397.604 3.3995 -2.14003 0
M  V30 4441 N 395.81 2.06625 -2.0434 0
M  V30 4442 H 395.357 1.20314 -2.27777 0
M  V30 4443 H 395.315 2.75483 -1.51514 0
M  V30 4444 N 399.087 1.5561 -0.249682 0
M  V30 4445 C 400.317 2.03116 0.377803 0
M  V30 4446 C 400.725 1.12822 1.51881 0
M  V30 4447 O 400.068 0.13562 1.83199 0
M  V30 4448 C 400.13 3.46866 0.944693 0
M  V30 4449 C 399.794 4.56955 -0.0644259 0
M  V30 4450 C 400.791 5.12485 -0.874957 0
M  V30 4451 C 398.476 5.01936 -0.19132 0
M  V30 4452 C 400.47 6.11491 -1.79881 0
M  V30 4453 C 398.157 6.00773 -1.11868 0
M  V30 4454 C 399.155 6.5543 -1.92095 0
M  V30 4455 O 398.843 7.5234 -2.83267 0
M  V30 4456 H 398.575 0.669489 0.0935961 0
M  V30 4457 H 401.129 2.02004 -0.371966 0
M  V30 4458 H 399.359 3.45136 1.74407 0
M  V30 4459 H 401.048 3.77856 1.48255 0
M  V30 4460 H 401.814 4.78564 -0.787523 0
M  V30 4461 H 397.693 4.59055 0.423072 0
M  V30 4462 H 401.237 6.54078 -2.42543 0
M  V30 4463 H 397.134 6.34114 -1.20703 0
M  V30 4464 H 397.902 7.69966 -2.7766 0
M  V30 4465 N 400.565 -0.0233959 1.57583 0
M  V30 4466 C 401.976 -0.56927 1.77809 0
M  V30 4467 C 402.327 -1.75284 0.881472 0
M  V30 4468 O 401.452 -2.1626 0.0777805 0
M  V30 4469 C 402.047 -1.03949 3.22459 0
M  V30 4470 C 400.606 -1.53084 3.43864 0
M  V30 4471 C 399.753 -0.471454 2.73263 0
M  V30 4472 H 402.704 0.202825 1.57399 0
M  V30 4473 H 402.725 -1.90661 3.29285 0
M  V30 4474 H 402.237 -0.177865 3.87692 0
M  V30 4475 H 400.338 -2.41414 2.83814 0
M  V30 4476 H 400.451 -1.57443 4.52491 0
M  V30 4477 H 398.815 -0.927788 2.37201 0
M  V30 4478 H 399.598 0.380808 3.41181 0
M  V30 4479 N 402.043 -1.548 -0.295768 0
M  V30 4480 C 403.291 -1.73985 -1.02828 0
M  V30 4481 C 403.612 -0.531406 -1.87619 0
M  V30 4482 O 402.882 0.454221 -1.90561 0
M  V30 4483 H 401.462 -0.641556 -0.382642 0
M  V30 4484 H 404.124 -1.92163 -0.325489 0
M  V30 4485 H 403.22 -2.63129 -1.67838 0
M  V30 4486 N 403.521 0.559213 -1.47345 0
M  V30 4487 C 404.798 1.31997 -1.44348 0
M  V30 4488 C 405.178 2.1064 -0.139358 0
M  V30 4489 O 404.526 2.1091 0.879153 0
M  V30 4490 C 404.736 2.22618 -2.68779 0
M  V30 4491 C 406.084 2.83701 -3.1591 0
M  V30 4492 O 407.108 2.32921 -2.69493 0
M  V30 4493 O 405.967 3.75993 -3.966 0
M  V30 4494 H 403.061 0.594251 -0.575147 0
M  V30 4495 H 405.607 0.578282 -1.59543 0
M  V30 4496 H 404.379 1.64093 -3.55231 0
M  V30 4497 H 404.002 3.04085 -2.5616 0
M  V30 4498 N 404.999 1.35443 0.805782 0
M  V30 4499 C 405.929 1.31095 1.93226 0
M  V30 4500 C 406.91 0.185244 1.69088 0
M  V30 4501 O 408.095 0.380332 1.90439 0
M  V30 4502 C 405.225 1.08299 3.29983 0
M  V30 4503 C 404.179 2.17519 3.68605 0
M  V30 4504 C 403.505 1.79887 5.03532 0
M  V30 4505 C 404.805 3.5949 3.78898 0
M  V30 4506 H 406.499 2.25352 1.97122 0
M  V30 4507 H 404.045 1.0848 0.946996 0
M  V30 4508 H 405.998 1.03897 4.08391 0
M  V30 4509 H 404.722 0.104885 3.26432 0
M  V30 4510 H 403.381 2.2102 2.92482 0
M  V30 4511 H 403.029 0.80693 4.96485 0
M  V30 4512 H 402.729 2.53001 5.30344 0
M  V30 4513 H 404.253 1.77011 5.84379 0
M  V30 4514 H 405.667 3.58307 4.47536 0
M  V30 4515 H 404.064 4.31371 4.1718 0
M  V30 4516 H 405.134 3.95584 2.80431 0
M  V30 4517 N 406.477 -1.02803 1.19454 0
M  V30 4518 C 407.888 -1.57667 0.999899 0
M  V30 4519 C 408.239 -1.91041 -0.446956 0
M  V30 4520 O 407.364 -1.70978 -1.32648 0
M  V30 4521 C 407.959 -2.86477 1.80877 0
M  V30 4522 C 406.518 -3.37911 1.65811 0
M  V30 4523 C 405.665 -2.11343 1.79526 0
M  V30 4524 H 408.616 -0.853214 1.33813 0
M  V30 4525 H 408.637 -3.57408 1.30536 0
M  V30 4526 H 408.149 -2.62155 2.86175 0
M  V30 4527 H 406.25 -3.67218 0.63102 0
M  V30 4528 H 406.363 -4.10885 2.46395 0
M  V30 4529 H 404.727 -2.23254 1.22596 0
M  V30 4530 H 405.51 -1.89461 2.86285 0
M  V30 4531 N 407.956 -0.998596 -1.21925 0
M  V30 4532 C 409.204 -0.676325 -1.90448 0
M  V30 4533 C 409.525 0.794719 -1.78071 0
M  V30 4534 O 408.795 1.5701 -1.17152 0
M  V30 4535 H 407.375 -0.247165 -0.704925 0
M  V30 4536 H 410.037 -1.26633 -1.48156 0
M  V30 4537 H 409.133 -0.943858 -2.97486 0
M  V30 4538 N 409.434 1.37368 -0.772513 0
M  V30 4539 C 410.664 2.03647 -0.348082 0
M  V30 4540 C 411.072 1.58392 1.03482 0
M  V30 4541 O 410.415 0.760921 1.672 0
M  V30 4542 C 410.477 3.58131 -0.313404 0
M  V30 4543 C 410.141 4.2652 -1.64102 0
M  V30 4544 C 411.138 4.50587 -2.5936 0
M  V30 4545 C 408.823 4.64335 -1.91567 0
M  V30 4546 C 410.817 5.11526 -3.80289 0
M  V30 4547 C 408.504 5.24996 -3.12766 0
M  V30 4548 C 409.502 5.48529 -4.06946 0
M  V30 4549 O 409.19 6.07921 -5.26011 0
M  V30 4550 H 408.922 0.660538 -0.143753 0
M  V30 4551 H 411.476 1.76669 -1.04772 0
M  V30 4552 H 409.706 3.84159 0.442617 0
M  V30 4553 H 411.395 4.05813 0.0840613 0
M  V30 4554 H 412.161 4.21784 -2.39423 0
M  V30 4555 H 408.04 4.45353 -1.19088 0
M  V30 4556 H 411.584 5.29811 -4.53813 0
M  V30 4557 H 407.481 5.53223 -3.32588 0
M  V30 4558 H 408.249 6.26398 -5.26847 0
M  V30 4559 N 410.912 0.523116 1.48665 0
M  V30 4560 C 411.859 -0.243398 2.29513 0
M  V30 4561 C 412.829 -0.940139 1.36933 0
M  V30 4562 O 414.014 -0.942503 1.65896 0
M  V30 4563 C 411.154 -1.28855 3.20141 0
M  V30 4564 C 410.267 -0.60135 4.27794 0
M  V30 4565 C 409.402 -1.62884 5.05611 0
M  V30 4566 C 408.441 -0.924726 6.05075 0
M  V30 4567 N 407.578 -1.89744 6.75975 0
M  V30 4568 H 412.418 0.452234 2.94549 0
M  V30 4569 H 409.955 0.234858 1.45213 0
M  V30 4570 H 411.913 -1.90674 3.71079 0
M  V30 4571 H 410.543 -1.95266 2.57043 0
M  V30 4572 H 409.595 0.130623 3.80176 0
M  V30 4573 H 410.907 -0.0481585 4.98777 0
M  V30 4574 H 410.061 -2.32149 5.60528 0
M  V30 4575 H 408.8 -2.21592 4.34452 0
M  V30 4576 H 407.805 -0.217966 5.49368 0
M  V30 4577 H 409.03 -0.343851 6.78229 0
M  V30 4578 H 406.976 -2.47373 6.07571 0
M  V30 4579 H 406.893 -1.3955 7.43009 0
M  V30 4580 H 408.161 -2.58229 7.35485 0
M  V30 4581 N 412.39 -1.55475 0.257931 0
M  V30 4582 C 413.636 -2.00237 -0.357338 0
M  V30 4583 C 413.991 -1.14313 -1.54759 0
M  V30 4584 O 413.284 -0.201187 -1.90541 0
M  V30 4585 C 413.478 -3.48183 -0.806433 0
M  V30 4586 C 413.307 -4.48422 0.338758 0
M  V30 4587 C 412.077 -4.98651 0.817011 0
M  V30 4588 C 414.275 -5.00827 1.16949 0
M  V30 4589 N 412.257 -5.82658 1.93346 0
M  V30 4590 C 413.628 -5.82113 2.13413 0
M  V30 4591 C 415.683 -4.83104 1.2048 0
M  V30 4592 C 414.386 -6.47566 3.13131 0
M  V30 4593 C 416.412 -5.49343 2.19034 0
M  V30 4594 C 415.774 -6.30427 3.14232 0
M  V30 4595 H 411.873 -0.776034 -0.0964083 0
M  V30 4596 H 414.457 -1.90995 0.37803 0
M  V30 4597 H 412.628 -3.57801 -1.51107 0
M  V30 4598 H 414.36 -3.79802 -1.39758 0
M  V30 4599 H 411.115 -4.71914 0.39925 0
M  V30 4600 H 411.539 -6.29356 2.49478 0
M  V30 4601 H 416.181 -4.20036 0.482634 0
M  V30 4602 H 413.899 -7.09793 3.8629 0
M  V30 4603 H 417.485 -5.37579 2.22485 0
M  V30 4604 H 416.365 -6.80777 3.89246 0
M  V30 4605 N 413.868 0.0150385 -1.57593 0
M  V30 4606 C 414.778 1.02791 -2.10882 0
M  V30 4607 C 415.794 1.38702 -1.0506 0
M  V30 4608 O 416.97 1.47739 -1.36877 0
M  V30 4609 C 414.035 2.30568 -2.58919 0
M  V30 4610 C 413.096 2.01108 -3.79281 0
M  V30 4611 C 412.329 3.22794 -4.25018 0
M  V30 4612 O 412.552 4.33959 -3.70183 0
M  V30 4613 O 411.486 3.07672 -5.17322 0
M  V30 4614 H 415.312 0.604973 -2.97613 0
M  V30 4615 H 412.897 0.23292 -1.47573 0
M  V30 4616 H 414.779 3.05662 -2.90084 0
M  V30 4617 H 413.454 2.72129 -1.75293 0
M  V30 4618 H 412.361 1.23537 -3.53114 0
M  V30 4619 H 413.694 1.64394 -4.63935 0
M  V30 4620 N 415.346 1.54954 0.287554 0
M  V30 4621 C 416.593 1.74873 1.02106 0
M  V30 4622 C 416.921 0.541829 1.86801 0
M  V30 4623 O 416.176 -0.475992 1.89823 0
M  V30 4624 C 416.475 2.99833 1.94512 0
M  V30 4625 C 416.141 4.33029 1.25686 0
M  V30 4626 C 414.803 4.69233 1.06649 0
M  V30 4627 C 417.155 5.15542 0.765913 0
M  V30 4628 C 414.483 5.85518 0.372222 0
M  V30 4629 C 416.835 6.32542 0.0853101 0
M  V30 4630 C 415.499 6.67398 -0.1169 0
M  V30 4631 H 414.769 0.639906 0.373632 0
M  V30 4632 H 417.416 1.89219 0.294665 0
M  V30 4633 H 415.721 2.80325 2.73725 0
M  V30 4634 H 417.418 3.1244 2.51361 0
M  V30 4635 H 414.008 4.04564 1.41512 0
M  V30 4636 H 418.192 4.88059 0.90066 0
M  V30 4637 H 413.448 6.11057 0.204695 0
M  V30 4638 H 417.622 6.95741 -0.302936 0
M  V30 4639 H 415.249 7.57357 -0.656859 0
M  V30 4640 N 416.824 -0.551391 1.4764 0
M  V30 4641 C 418.052 -1.33357 1.58189 0
M  V30 4642 C 418.467 -1.87342 0.234199 0
M  V30 4643 O 417.824 -1.65301 -0.77343 0
M  V30 4644 C 417.875 -2.49942 2.61173 0
M  V30 4645 O 417.596 -1.98187 3.90709 0
M  V30 4646 C 419.097 -3.42072 2.8196 0
M  V30 4647 H 416.317 -0.40631 0.533998 0
M  V30 4648 H 418.861 -0.667367 1.93304 0
M  V30 4649 H 417.016 -3.12489 2.28975 0
M  V30 4650 H 417.43 -2.74342 4.47031 0
M  V30 4651 H 418.904 -4.20278 3.57869 0
M  V30 4652 H 419.381 -3.95978 1.89995 0
M  V30 4653 H 419.987 -2.85336 3.15378 0
M  V30 4654 N 418.302 -1.35869 -0.798587 0
M  V30 4655 C 419.718 -1.16082 -1.09532 0
M  V30 4656 C 419.918 0.0213124 -2.01489 0
M  V30 4657 O 418.974 0.689488 -2.42904 0
M  V30 4658 C 420.287 -2.46748 -1.7186 0
M  V30 4659 C 421.835 -2.53028 -1.84244 0
M  V30 4660 C 422.31 -3.83758 -2.49988 0
M  V30 4661 N 423.801 -3.85053 -2.57465 0
M  V30 4662 C 424.536 -4.8294 -3.09122 0
M  V30 4663 N 424.032 -5.91217 -3.61157 0
M  V30 4664 N 425.825 -4.70369 -3.0775 0
M  V30 4665 H 417.976 -2.11571 -0.187461 0
M  V30 4666 H 420.239 -0.936726 -0.145765 0
M  V30 4667 H 419.945 -3.33471 -1.11759 0
M  V30 4668 H 419.819 -2.61883 -2.71472 0
M  V30 4669 H 422.206 -1.66729 -2.43486 0
M  V30 4670 H 422.287 -2.418 -0.834643 0
M  V30 4671 H 421.931 -4.70459 -1.91393 0
M  V30 4672 H 421.861 -3.92278 -3.5132 0
M  V30 4673 H 424.352 -3.06822 -2.20609 0
M  V30 4674 H 424.665 -6.61892 -3.98896 0
M  V30 4675 H 423.01 -5.94899 -3.59333 0
M  V30 4676 H 426.201 -3.84914 -2.66381 0
M  V30 4677 H 426.374 -5.46816 -3.47701 0
M  V30 4678 N 419.78 1.02168 -1.19998 0
M  V30 4679 C 421.028 1.75338 -1.00504 0
M  V30 4680 C 421.349 1.89387 0.464506 0
M  V30 4681 O 420.619 1.43268 1.33608 0
M  V30 4682 H 419.199 0.649564 -0.368885 0
M  V30 4683 H 421.861 1.23205 -1.51018 0
M  V30 4684 H 420.957 2.75892 -1.45912 0
M  V30 4685 N 421.258 1.00505 1.21394 0
M  V30 4686 C 422.507 0.683159 1.89778 0
M  V30 4687 C 422.82 -0.789471 1.7896 0
M  V30 4688 O 424.026 -1.22344 2.42372 0
M  V30 4689 C 422.482 1.17146 3.40301 0
M  V30 4690 C 422.09 2.67017 3.5973 0
M  V30 4691 C 423.834 0.924461 4.14311 0
M  V30 4692 C 421.741 3.09387 5.04017 0
M  V30 4693 H 420.671 0.25183 0.710702 0
M  V30 4694 H 423.322 1.21622 1.37406 0
M  V30 4695 H 421.704 0.566451 3.91928 0
M  V30 4696 H 422.878 3.32968 3.18542 0
M  V30 4697 H 421.193 2.89732 2.99073 0
M  V30 4698 H 423.79 1.21658 5.20676 0
M  V30 4699 H 424.133 -0.139286 4.16067 0
M  V30 4700 H 424.666 1.49226 3.6875 0
M  V30 4701 H 421.405 4.14989 5.07409 0
M  V30 4702 H 420.925 2.48149 5.46061 0
M  V30 4703 H 422.604 3.01371 5.72525 0
M  V30 4704 N 422.737 -1.36956 0.779787 0
M  V30 4705 C 423.985 -1.99097 0.347079 0
M  V30 4706 C 424.306 -1.62206 -1.08232 0
M  V30 4707 O 423.576 -0.891373 -1.74446 0
M  V30 4708 H 422.156 -0.736409 0.125342 0
M  V30 4709 H 424.818 -1.67308 0.999696 0
M  V30 4710 H 423.914 -3.09107 0.431162 0
M  V30 4711 N 424.215 -0.530993 -1.48385 0
M  V30 4712 C 425.145 0.219985 -2.32461 0
M  V30 4713 C 426.126 0.934111 -1.42156 0
M  V30 4714 O 427.311 0.919694 -1.71042 0
M  V30 4715 C 424.441 1.26674 -3.23375 0
M  V30 4716 C 423.395 0.67069 -4.22712 0
M  V30 4717 C 422.721 1.82017 -5.02766 0
M  V30 4718 C 424.021 -0.358268 -5.2107 0
M  V30 4719 H 425.715 -0.48187 -2.95497 0
M  V30 4720 H 423.261 -0.233182 -1.42099 0
M  V30 4721 H 425.214 1.80006 -3.81019 0
M  V30 4722 H 423.938 1.99818 -2.58341 0
M  V30 4723 H 422.597 0.158878 -3.66256 0
M  V30 4724 H 422.245 2.54002 -4.34157 0
M  V30 4725 H 421.945 1.42727 -5.70003 0
M  V30 4726 H 423.469 2.35725 -5.63264 0
M  V30 4727 H 424.883 0.0880081 -5.73232 0
M  V30 4728 H 423.28 -0.66861 -5.96364 0
M  V30 4729 H 424.35 -1.26367 -4.68145 0
M  V30 4730 N 425.693 1.55336 -0.266172 0
M  V30 4731 C 426.918 2.04258 0.359661 0
M  V30 4732 C 427.343 1.14359 1.49344 0
M  V30 4733 O 426.701 0.140369 1.80756 0
M  V30 4734 C 426.749 3.50997 0.826635 0
M  V30 4735 O 425.853 3.64204 1.93466 0
M  V30 4736 H 425.194 0.659668 0.075727 0
M  V30 4737 H 427.724 2.00694 -0.39786 0
M  V30 4738 H 427.734 3.9219 1.12477 0
M  V30 4739 H 426.409 4.159 -0.00293032 0
M  V30 4740 H 424.986 3.34913 1.63974 0
M  V30 4741 N 427.171 -0.0066808 1.57599 0
M  V30 4742 C 428.418 -0.69292 1.90276 0
M  V30 4743 C 428.746 -1.74148 0.866192 0
M  V30 4744 O 428.001 -1.95268 -0.129933 0
M  V30 4745 C 428.3 -1.37939 3.29708 0
M  V30 4746 C 427.966 -0.464679 4.48499 0
M  V30 4747 C 426.628 -0.212809 4.80729 0
M  V30 4748 C 428.98 0.16551 5.20937 0
M  V30 4749 C 426.308 0.677653 5.82773 0
M  V30 4750 C 428.66 1.04381 6.23929 0
M  V30 4751 C 427.324 1.30492 6.54621 0
M  V30 4752 H 426.594 -0.253558 0.696268 0
M  V30 4753 H 429.241 0.0474123 1.91441 0
M  V30 4754 H 427.546 -2.1936 3.24636 0
M  V30 4755 H 429.243 -1.9163 3.52249 0
M  V30 4756 H 425.833 -0.671153 4.23313 0
M  V30 4757 H 430.017 -0.0160756 4.96297 0
M  V30 4758 H 425.273 0.88803 6.04917 0
M  V30 4759 H 429.447 1.53851 6.79193 0
M  V30 4760 H 427.074 1.99662 7.33512 0
M  V30 4761 N 428.649 -1.55105 -0.279332 0
M  V30 4762 C 429.897 -1.75066 -1.00977 0
M  V30 4763 C 430.218 -0.551276 -1.87045 0
M  V30 4764 O 429.488 0.433984 -1.91032 0
M  V30 4765 H 428.068 -0.645578 -0.375816 0
M  V30 4766 H 430.73 -1.92497 -0.305089 0
M  V30 4767 H 429.826 -2.64894 -1.65038 0
M  V30 4768 N 430.127 0.543554 -1.4793 0
M  V30 4769 C 431.357 1.32324 -1.58663 0
M  V30 4770 C 431.765 1.8766 -0.240896 0
M  V30 4771 O 431.108 1.66411 0.778011 0
M  V30 4772 C 431.17 2.52094 -2.56299 0
M  V30 4773 C 430.834 2.17944 -4.01683 0
M  V30 4774 C 431.831 1.74422 -4.89768 0
M  V30 4775 C 429.516 2.28884 -4.47121 0
M  V30 4776 C 431.51 1.42287 -6.21316 0
M  V30 4777 C 429.197 1.96361 -5.78693 0
M  V30 4778 C 430.195 1.53132 -6.65612 0
M  V30 4779 O 429.883 1.21029 -7.94737 0
M  V30 4780 H 429.615 0.409174 -0.538101 0
M  V30 4781 H 432.169 0.663887 -1.94375 0
M  V30 4782 H 430.399 3.20965 -2.15681 0
M  V30 4783 H 432.088 3.14165 -2.57012 0
M  V30 4784 H 432.854 1.65452 -4.55907 0
M  V30 4785 H 428.733 2.61488 -3.79664 0
M  V30 4786 H 432.277 1.08472 -6.89115 0
M  V30 4787 H 428.174 2.04967 -6.12094 0
M  V30 4788 H 428.942 1.34543 -8.07366 0
M  V30 4789 N 431.605 1.3629 0.791371 0
M  V30 4790 C 432.553 1.30514 1.92533 0
M  V30 4791 C 433.547 0.197285 1.68247 0
M  V30 4792 O 434.753 0.364176 1.76278 0
M  V30 4793 H 431.128 0.406263 0.632815 0
M  V30 4794 H 433.099 2.26282 1.94523 0
M  V30 4795 C 431.848 1.10933 3.29529 0
M  V30 4796 H 431.171 1.95427 3.48781 0
M  V30 4797 H 432.611 1.10937 4.0923 0
M  V30 4798 C 431.07 -0.186123 3.36385 0
M  V30 4799 O 431.6 -1.17664 3.84081 0
M  V30 4800 N 429.806 -0.230128 2.89687 0
M  V30 4801 H 429.353 0.576545 2.51065 0
M  V30 4802 H 429.311 -1.09658 2.94657 0
M  V30 4803 N 433.083 -1.0153 1.20538 0
M  V30 4804 C 434.499 -1.27461 0.96051 0
M  V30 4805 C 434.699 -1.98273 -0.359193 0
M  V30 4806 O 433.755 -2.27886 -1.0874 0
M  V30 4807 C 435.068 -2.10837 2.14402 0
M  V30 4808 C 436.616 -2.24099 2.18515 0
M  V30 4809 C 437.091 -3.10852 3.36355 0
M  V30 4810 N 438.582 -3.18441 3.36377 0
M  V30 4811 C 439.317 -3.85795 4.24205 0
M  V30 4812 N 438.813 -4.55264 5.22213 0
M  V30 4813 N 440.606 -3.82331 4.12043 0
M  V30 4814 H 432.757 -0.539907 2.05423 0
M  V30 4815 H 435.02 -0.30092 0.898972 0
M  V30 4816 H 434.726 -1.66144 3.09983 0
M  V30 4817 H 434.6 -3.11576 2.12604 0
M  V30 4818 H 436.987 -2.68016 1.23497 0
M  V30 4819 H 437.068 -1.22865 2.24361 0
M  V30 4820 H 436.712 -2.6764 4.31661 0
M  V30 4821 H 436.642 -4.12177 3.27746 0
M  V30 4822 H 439.133 -2.68978 2.65442 0
M  V30 4823 H 439.446 -5.04331 5.85551 0
M  V30 4824 H 437.791 -4.54085 5.26148 0
M  V30 4825 H 440.982 -3.27207 3.34743 0
M  V30 4826 H 441.155 -4.34547 4.807 0
M  V30 4827 N 434.561 -1.01147 -1.20859 0
M  V30 4828 C 435.509 -0.57059 -2.25493 0
M  V30 4829 C 436.503 0.388109 -1.64894 0
M  V30 4830 O 437.709 0.258592 -1.78133 0
M  V30 4831 H 434.084 -0.166191 -0.733406 0
M  V30 4832 H 436.055 -1.46411 -2.60012 0
M  V30 4833 C 434.804 0.0805241 -3.47607 0
M  V30 4834 H 434.127 -0.648156 -3.94511 0
M  V30 4835 H 435.567 0.352197 -4.22535 0
M  V30 4836 C 434.026 1.32175 -3.09889 0
M  V30 4837 O 434.556 2.41553 -3.20959 0
M  V30 4838 N 432.762 1.20392 -2.64488 0
M  V30 4839 H 432.309 0.313905 -2.5568 0
M  V30 4840 H 432.267 2.03541 -2.39621 0
M  V30 4841 N 436.039 1.36541 -0.78704 0
M  V30 4842 C 436.949 2.3387 -0.184896 0
M  V30 4843 C 437.965 1.60927 0.661697 0
M  V30 4844 O 439.141 1.92927 0.57804 0
M  V30 4845 C 436.206 3.40122 0.672145 0
M  V30 4846 C 435.267 4.28867 -0.19267 0
M  V30 4847 C 434.5 5.30045 0.623561 0
M  V30 4848 O 434.723 5.39232 1.8597 0
M  V30 4849 O 433.657 6.01895 0.0247068 0
M  V30 4850 H 437.483 2.87126 -0.989562 0
M  V30 4851 H 435.068 1.38969 -0.548455 0
M  V30 4852 H 436.95 4.05093 1.16094 0
M  V30 4853 H 435.625 2.89169 1.45474 0
M  V30 4854 H 434.532 3.66945 -0.728166 0
M  V30 4855 H 435.865 4.83165 -0.938722 0
M  V30 4856 N 437.518 0.538854 1.48102 0
M  V30 4857 C 438.766 0.00798599 2.02098 0
M  V30 4858 C 439.087 -1.33922 1.41739 0
M  V30 4859 O 438.357 -1.86932 0.585934 0
M  V30 4860 H 436.937 -3.62179e-05 0.747 0
M  V30 4861 H 439.599 0.7047 1.81714 0
M  V30 4862 H 438.695 -0.0937672 3.11959 0
M  V30 4863 N 438.996 -1.55193 0.274407 0
M  V30 4864 C 440.407 -1.85358 -0.223488 0
M  V30 4865 C 440.758 -1.19642 -1.555 0
M  V30 4866 O 439.883 -0.484498 -2.10907 0
M  V30 4867 C 440.478 -3.36282 -0.412285 0
M  V30 4868 C 439.037 -3.66574 -0.854413 0
M  V30 4869 C 438.184 -2.7725 0.0527056 0
M  V30 4870 H 441.135 -1.50743 0.496215 0
M  V30 4871 H 441.156 -3.59349 -1.25094 0
M  V30 4872 H 440.668 -3.84083 0.556965 0
M  V30 4873 H 438.769 -3.24273 -1.83516 0
M  V30 4874 H 438.882 -4.74073 -0.692226 0
M  V30 4875 H 437.246 -2.50447 -0.463484 0
M  V30 4876 H 438.029 -3.27865 1.01783 0
M  V30 4877 N 440.474 -0.00167713 -1.576 0
M  V30 4878 C 441.384 1.00548 -2.1196 0
M  V30 4879 C 442.4 1.3758 -1.06526 0
M  V30 4880 O 443.576 1.46278 -1.38436 0
M  V30 4881 C 440.641 2.27809 -2.6135 0
M  V30 4882 C 439.702 1.97074 -3.81393 0
M  V30 4883 C 438.935 3.18267 -4.28417 0
M  V30 4884 O 439.158 4.30009 -3.74765 0
M  V30 4885 O 438.092 3.02167 -5.20556 0
M  V30 4886 H 441.918 0.573373 -2.98238 0
M  V30 4887 H 439.503 0.217255 -1.47812 0
M  V30 4888 H 441.385 3.02568 -2.93309 0
M  V30 4889 H 440.06 2.70254 -1.78169 0
M  V30 4890 H 438.967 1.19785 -3.54404 0
M  V30 4891 H 440.3 1.59464 -4.65652 0
M  V30 4892 N 441.952 1.55251 0.271103 0
M  V30 4893 C 442.902 1.84649 1.33749 0
M  V30 4894 C 443.886 0.705529 1.44607 0
M  V30 4895 O 445.078 0.966916 1.48256 0
M  V30 4896 C 442.207 2.12354 2.69742 0
M  V30 4897 C 441.293 3.32714 2.62988 0
M  V30 4898 N 441.684 4.52575 2.25853 0
M  V30 4899 C 439.982 3.35341 2.94045 0
M  V30 4900 C 440.683 5.34669 2.29136 0
M  V30 4901 N 439.659 4.73123 2.67685 0
M  V30 4902 H 443.461 2.74865 1.0405 0
M  V30 4903 H 440.975 1.55152 0.479738 0
M  V30 4904 H 442.972 2.31572 3.4667 0
M  V30 4905 H 441.632 1.23422 3.00328 0
M  V30 4906 H 442.643 4.78639 1.978 0
M  V30 4907 H 439.32 2.56608 3.2933 0
M  V30 4908 H 440.71 6.40509 2.02971 0
M  V30 4909 N 443.43 -0.535701 1.48216 0
M  V30 4910 C 444.363 -1.65726 1.56876 0
M  V30 4911 C 445.341 -1.57094 0.419542 0
M  V30 4912 O 446.525 -1.77648 0.630352 0
M  V30 4913 C 443.652 -3.04096 1.49142 0
M  V30 4914 C 442.698 -3.31105 2.68834 0
M  V30 4915 S 443.531 -3.18001 4.30854 0
M  V30 4916 C 444.687 -4.58828 4.25709 0
M  V30 4917 H 444.92 -1.58129 2.51759 0
M  V30 4918 H 442.453 -0.718218 1.36678 0
M  V30 4919 H 444.411 -3.839 1.45366 0
M  V30 4920 H 443.072 -3.09139 0.556067 0
M  V30 4921 H 442.265 -4.32033 2.59545 0
M  V30 4922 H 441.867 -2.58961 2.69843 0
M  V30 4923 H 444.159 -5.5023 3.95289 0
M  V30 4924 H 445.102 -4.73172 5.26796 0
M  V30 4925 H 445.51 -4.37883 3.56257 0
M  V30 4926 N 444.908 -1.36708 -0.784132 0
M  V30 4927 C 445.838 -1.34153 -1.91116 0
M  V30 4928 C 446.819 -0.212121 -1.68772 0
M  V30 4929 O 448.004 -0.410581 -1.8981 0
M  V30 4930 C 445.134 -1.13535 -3.28218 0
M  V30 4931 C 444.088 -2.23356 -3.65097 0
M  V30 4932 C 443.414 -1.87875 -5.00607 0
M  V30 4933 C 444.714 -3.65473 -3.73131 0
M  V30 4934 H 446.408 -2.28459 -1.93512 0
M  V30 4935 H 443.954 -1.09973 -0.929618 0
M  V30 4936 H 445.907 -1.10381 -4.06687 0
M  V30 4937 H 444.631 -0.156804 -3.26223 0
M  V30 4938 H 443.29 -2.25645 -2.88929 0
M  V30 4939 H 442.938 -0.885814 -4.95139 0
M  V30 4940 H 442.638 -2.61406 -5.26252 0
M  V30 4941 H 444.162 -1.86286 -5.81489 0
M  V30 4942 H 445.576 -3.65382 -4.41779 0
M  V30 4943 H 443.973 -4.37953 -4.10265 0
M  V30 4944 H 445.043 -3.99995 -2.74102 0
M  V30 4945 N 446.386 1.0089 -1.21074 0
M  V30 4946 C 447.611 1.78727 -1.05221 0
M  V30 4947 C 448.036 1.83932 0.393795 0
M  V30 4948 O 447.394 1.28004 1.28393 0
M  V30 4949 C 447.442 3.20665 -1.64944 0
M  V30 4950 O 446.546 4.02632 -0.892273 0
M  V30 4951 H 445.887 0.550973 -0.370574 0
M  V30 4952 H 448.417 1.26847 -1.60534 0
M  V30 4953 H 448.427 3.71352 -1.69002 0
M  V30 4954 H 447.102 3.16191 -2.70177 0
M  V30 4955 H 445.679 3.61207 -0.926492 0
M  V30 4956 N 447.864 1.01787 1.20321 0
M  V30 4957 C 449.11 0.708985 1.90003 0
M  V30 4958 C 449.443 -0.759572 1.78729 0
M  V30 4959 O 448.718 -1.55198 1.17234 0
M  V30 4960 C 449.001 1.1469 3.41348 0
M  V30 4961 C 448.854 2.67586 3.61549 0
M  V30 4962 C 450.173 0.71915 4.34185 0
M  V30 4963 H 447.292 0.259034 0.689978 0
M  V30 4964 H 449.934 1.26584 1.41692 0
M  V30 4965 H 448.084 0.673128 3.82624 0
M  V30 4966 H 449.756 3.22826 3.29517 0
M  V30 4967 H 447.999 3.085 3.04976 0
M  V30 4968 H 448.67 2.93281 4.67643 0
M  V30 4969 H 451.146 1.12647 4.00562 0
M  V30 4970 H 450.022 1.05358 5.38694 0
M  V30 4971 H 450.283 -0.379111 4.40472 0
M  V30 4972 N 449.342 -1.36122 0.79427 0
M  V30 4973 C 450.252 -2.33769 0.197296 0
M  V30 4974 C 451.268 -1.61276 -0.653153 0
M  V30 4975 O 452.444 -1.9323 -0.5678 0
M  V30 4976 C 449.509 -3.40474 -0.654098 0
M  V30 4977 C 448.57 -4.28759 0.215411 0
M  V30 4978 C 447.803 -5.30368 -0.595443 0
M  V30 4979 O 448.026 -5.40211 -1.83107 0
M  V30 4980 O 446.96 -6.019 0.00721351 0
M  V30 4981 H 450.786 -2.86597 1.00478 0
M  V30 4982 H 448.371 -1.38676 0.555818 0
M  V30 4983 H 450.253 -4.05703 -1.13944 0
M  V30 4984 H 448.928 -2.89937 -1.43938 0
M  V30 4985 H 447.835 -3.66554 0.747615 0
M  V30 4986 H 449.168 -4.82661 0.964332 0
M  V30 4987 N 450.82 -0.546701 -1.47814 0
M  V30 4988 C 451.752 0.244196 -2.27895 0
M  V30 4989 C 452.765 0.88911 -1.36377 0
M  V30 4990 O 453.954 0.764733 -1.61289 0
M  V30 4991 C 451.054 1.36252 -3.10304 0
M  V30 4992 C 450.227 0.816382 -4.29714 0
M  V30 4993 C 449.286 1.81789 -4.93801 0
M  V30 4994 O 448.312 1.36818 -5.52512 0
M  V30 4995 N 449.514 3.15085 -4.87547 0
M  V30 4996 H 452.279 -0.442694 -2.96412 0
M  V30 4997 H 449.84 -0.382095 -1.57327 0
M  V30 4998 H 451.832 2.03102 -3.50045 0
M  V30 4999 H 450.402 1.95281 -2.44099 0
M  V30 5000 H 449.622 -0.0285981 -3.9419 0
M  V30 5001 H 450.91 0.430668 -5.06974 0
M  V30 5002 H 450.308 3.54275 -4.41028 0
M  V30 5003 H 448.865 3.77522 -5.31339 0
M  V30 5004 N 452.299 1.55045 -0.282633 0
M  V30 5005 C 453.229 2.2579 0.595066 0
M  V30 5006 C 454.21 1.25074 1.15284 0
M  V30 5007 O 455.395 1.5381 1.18559 0
M  V30 5008 C 452.525 2.98472 1.77572 0
M  V30 5009 C 451.479 4.0618 1.34914 0
M  V30 5010 C 450.805 4.66477 2.6135 0
M  V30 5011 C 452.105 5.1996 0.493821 0
M  V30 5012 H 453.799 2.994 0.00505653 0
M  V30 5013 H 451.345 1.44 0.000992001 0
M  V30 5014 H 453.298 3.46677 2.39568 0
M  V30 5015 H 452.022 2.2241 2.39168 0
M  V30 5016 H 450.681 3.58797 0.752338 0
M  V30 5017 H 450.329 3.87074 3.2122 0
M  V30 5018 H 450.029 5.39207 2.33516 0
M  V30 5019 H 451.553 5.17435 3.24181 0
M  V30 5020 H 452.967 5.64172 1.01898 0
M  V30 5021 H 451.364 5.99299 0.310047 0
M  V30 5022 H 452.434 4.82462 -0.485593 0
M  V30 5023 N 453.777 0.010035 1.57597 0
M  V30 5024 C 455.023 -0.673697 1.91283 0
M  V30 5025 C 455.356 -1.72863 0.884979 0
M  V30 5026 O 454.631 -1.94268 -0.0949487 0
M  V30 5027 C 454.914 -1.30766 3.35518 0
M  V30 5028 C 454.767 -0.263578 4.49027 0
M  V30 5029 C 456.086 -2.23105 3.79358 0
M  V30 5030 H 453.205 -0.243439 0.695634 0
M  V30 5031 H 455.847 0.0633864 1.89894 0
M  V30 5032 H 453.997 -1.93588 3.36832 0
M  V30 5033 H 455.669 0.365738 4.59848 0
M  V30 5034 H 453.912 0.413077 4.31829 0
M  V30 5035 H 454.583 -0.746398 5.4693 0
M  V30 5036 H 457.059 -1.70289 3.79659 0
M  V30 5037 H 455.935 -2.64424 4.81011 0
M  V30 5038 H 456.196 -3.11433 3.13787 0
M  V30 5039 N 455.255 -1.55392 -0.262866 0
M  V30 5040 C 456.485 -1.80251 -1.00961 0
M  V30 5041 C 456.893 -0.58117 -1.80053 0
M  V30 5042 O 456.236 0.459427 -1.77862 0
M  V30 5043 C 456.298 -2.98207 -2.00781 0
M  V30 5044 C 455.962 -4.34856 -1.40533 0
M  V30 5045 C 456.959 -5.13459 -0.815853 0
M  V30 5046 C 454.644 -4.8153 -1.42948 0
M  V30 5047 C 456.638 -6.36875 -0.258562 0
M  V30 5048 C 454.325 -6.04899 -0.868334 0
M  V30 5049 C 455.323 -6.8241 -0.283884 0
M  V30 5050 O 455.011 -8.03451 0.268644 0
M  V30 5051 H 454.743 -0.604049 -0.303482 0
M  V30 5052 H 457.297 -2.03257 -0.295926 0
M  V30 5053 H 455.527 -2.70917 -2.75936 0
M  V30 5054 H 457.216 -3.10299 -2.61667 0
M  V30 5055 H 457.982 -4.78526 -0.789812 0
M  V30 5056 H 453.861 -4.21201 -1.87378 0
M  V30 5057 H 457.405 -6.97318 0.198257 0
M  V30 5058 H 453.302 -6.39312 -0.891649 0
M  V30 5059 H 454.07 -8.18346 0.158974 0
M  V30 5060 N 456.733 0.527833 -1.48498 0
M  V30 5061 C 457.961 1.30823 -1.6029 0
M  V30 5062 C 458.376 1.86945 -0.263974 0
M  V30 5063 O 457.733 1.6651 0.747034 0
M  V30 5064 C 457.784 2.45756 -2.65116 0
M  V30 5065 O 457.505 1.91946 -3.93813 0
M  V30 5066 C 459.006 3.37543 -2.87367 0
M  V30 5067 H 456.226 0.397763 -0.540394 0
M  V30 5068 H 458.77 0.636529 -1.94341 0
M  V30 5069 H 456.925 3.08806 -2.33917 0
M  V30 5070 H 457.339 2.67195 -4.51339 0
M  V30 5071 H 458.813 4.14532 -3.6451 0
M  V30 5072 H 459.29 3.92905 -1.9627 0
M  V30 5073 H 459.896 2.80283 -3.19878 0
M  V30 5074 N 458.211 1.37122 0.776871 0
M  V30 5075 C 459.141 1.35164 1.90402 0
M  V30 5076 C 460.122 0.221069 1.68657 0
M  V30 5077 O 461.307 0.420642 1.8959 0
M  V30 5078 C 458.437 1.15274 3.27611 0
M  V30 5079 C 457.391 2.25289 3.63908 0
M  V30 5080 C 456.717 1.90527 4.99603 0
M  V30 5081 C 458.017 3.67446 3.71188 0
M  V30 5082 H 459.711 2.29482 1.92297 0
M  V30 5083 H 457.257 1.10465 0.923773 0
M  V30 5084 H 459.21 1.12536 4.06096 0
M  V30 5085 H 457.934 0.174102 3.26136 0
M  V30 5086 H 456.593 2.27174 2.87728 0
M  V30 5087 H 456.241 0.91206 4.94662 0
M  V30 5088 H 455.941 2.64193 5.24858 0
M  V30 5089 H 457.465 1.89367 5.80493 0
M  V30 5090 H 458.879 3.67719 4.39836 0
M  V30 5091 H 457.276 4.40123 4.07936 0
M  V30 5092 H 458.346 4.01443 2.71977 0
M  V30 5093 N 459.689 -1.00246 1.21608 0
M  V30 5094 C 460.935 -1.74319 1.03638 0
M  V30 5095 C 461.268 -1.89408 -0.428749 0
M  V30 5096 O 460.543 -1.43026 -1.3181 0
M  V30 5097 C 460.826 -3.15431 1.73711 0
M  V30 5098 C 460.679 -3.08049 3.27759 0
M  V30 5099 C 461.998 -4.14407 1.48173 0
M  V30 5100 H 459.117 -0.632741 0.377899 0
M  V30 5101 H 461.759 -1.16853 1.49818 0
M  V30 5102 H 459.909 -3.64493 1.34452 0
M  V30 5103 H 461.581 -2.66681 3.76403 0
M  V30 5104 H 459.824 -2.45088 3.57931 0
M  V30 5105 H 460.495 -4.07862 3.71958 0
M  V30 5106 H 462.971 -3.74061 1.82258 0
M  V30 5107 H 461.847 -5.11279 1.99713 0
M  V30 5108 H 462.108 -4.40174 0.412273 0
M  V30 5109 N 461.167 -1.02423 -1.1978 0
M  V30 5110 C 462.444 -0.632802 -1.85081 0
M  V30 5111 C 462.824 0.888745 -1.9148 0
M  V30 5112 O 462.172 1.78357 -1.42832 0
M  V30 5113 C 462.382 -1.28947 -3.24305 0
M  V30 5114 C 463.73 -1.40976 -4.00513 0
M  V30 5115 O 464.754 -1.24628 -3.33686 0
M  V30 5116 O 463.613 -1.67467 -5.20209 0
M  V30 5117 H 460.707 -0.219348 -0.79738 0
M  V30 5118 H 463.253 -1.12209 -1.27307 0
M  V30 5119 H 462.025 -2.3288 -3.14456 0
M  V30 5120 H 461.648 -0.787748 -3.89718 0
M  V30 5121 N 462.645 1.35699 -0.801477 0
M  V30 5122 C 463.891 1.99208 -0.380022 0
M  V30 5123 C 464.224 1.63445 1.04878 0
M  V30 5124 O 463.499 0.895223 1.72673 0
M  V30 5125 C 463.782 3.55755 -0.557708 0
M  V30 5126 C 463.635 4.01332 -2.03107 0
M  V30 5127 C 464.954 4.40096 0.0197968 0
M  V30 5128 H 462.073 0.723667 -0.139552 0
M  V30 5129 H 464.715 1.60928 -1.01006 0
M  V30 5130 H 462.865 3.88494 -0.0213741 0
M  V30 5131 H 464.537 3.79026 -2.62939 0
M  V30 5132 H 462.78 3.52429 -2.52936 0
M  V30 5133 H 463.451 5.10234 -2.1063 0
M  V30 5134 H 465.927 4.13786 -0.438179 0
M  V30 5135 H 464.803 5.48735 -0.134477 0
M  V30 5136 H 465.064 4.2786 1.11303 0
M  V30 5137 N 464.123 0.554532 1.47522 0
M  V30 5138 C 465.369 0.0295227 2.02779 0
M  V30 5139 C 465.702 -1.31582 1.42828 0
M  V30 5140 O 464.977 -1.85561 0.582872 0
M  V30 5141 C 465.26 -0.0664057 3.60039 0
M  V30 5142 C 465.113 1.30585 4.30427 0
M  V30 5143 C 466.432 -0.781162 4.33112 0
M  V30 5144 H 463.551 0.0122027 0.736899 0
M  V30 5145 H 466.193 0.716305 1.7598 0
M  V30 5146 H 464.343 -0.651307 3.83002 0
M  V30 5147 H 466.015 1.93374 4.18813 0
M  V30 5148 H 464.258 1.88125 3.90886 0
M  V30 5149 H 464.929 1.19147 5.38988 0
M  V30 5150 H 467.405 -0.284565 4.15126 0
M  V30 5151 H 466.281 -0.817237 5.42782 0
M  V30 5152 H 466.542 -1.83672 4.0214 0
M  V30 5153 N 465.601 -1.54893 0.290851 0
M  V30 5154 C 466.826 -2.04804 -0.32712 0
M  V30 5155 C 467.251 -1.16721 -1.47506 0
M  V30 5156 O 466.609 -0.169107 -1.8051 0
M  V30 5157 C 466.657 -3.52268 -0.770689 0
M  V30 5158 O 465.761 -3.67236 -1.87647 0
M  V30 5159 H 465.102 -0.660789 -0.0652227 0
M  V30 5160 H 467.632 -2.00036 0.429739 0
M  V30 5161 H 467.642 -3.9393 -1.06223 0
M  V30 5162 H 466.317 -4.15843 0.069096 0
M  V30 5163 H 464.894 -3.37479 -1.58626 0
M  V30 5164 N 467.08 -0.0183926 -1.57589 0
M  V30 5165 C 468.027 0.967022 -2.09565 0
M  V30 5166 C 468.997 1.32983 -0.995225 0
M  V30 5167 O 470.182 1.42501 -1.26878 0
M  V30 5168 C 467.322 2.24772 -2.61861 0
M  V30 5169 C 466.435 1.94232 -3.85873 0
M  V30 5170 C 465.57 3.16518 -4.26603 0
M  V30 5171 C 464.609 2.81748 -5.43401 0
M  V30 5172 N 463.746 3.96626 -5.79338 0
M  V30 5173 H 468.586 0.516874 -2.93483 0
M  V30 5174 H 466.123 0.243544 -1.4507 0
M  V30 5175 H 468.081 2.99667 -2.90268 0
M  V30 5176 H 466.711 2.67423 -1.8079 0
M  V30 5177 H 465.763 1.09625 -3.64262 0
M  V30 5178 H 467.075 1.64616 -4.70853 0
M  V30 5179 H 466.229 3.99743 -4.56389 0
M  V30 5180 H 464.968 3.49286 -3.40368 0
M  V30 5181 H 463.973 1.96933 -5.1332 0
M  V30 5182 H 465.198 2.50207 -6.31327 0
M  V30 5183 H 463.144 4.29257 -4.96059 0
M  V30 5184 H 463.061 3.70598 -6.58933 0
M  V30 5185 H 464.329 4.80586 -6.13724 0
M  V30 5186 N 468.558 1.5553 0.254621 0
M  V30 5187 C 469.806 1.7665 0.981793 0
M  V30 5188 C 470.127 0.580963 1.86145 0
M  V30 5189 O 469.397 -0.403537 1.91699 0
M  V30 5190 H 467.977 0.651475 0.365498 0
M  V30 5191 H 470.639 1.92958 0.274426 0
M  V30 5192 H 469.735 2.67486 1.60802 0
M  V30 5193 N 470.036 -0.519951 1.48776 0
M  V30 5194 C 471.284 -1.2727 1.56993 0
M  V30 5195 C 471.605 -1.9339 0.25004 0
M  V30 5196 O 470.875 -1.81822 -0.729216 0
M  V30 5197 H 469.455 -0.472732 0.578389 0
M  V30 5198 H 472.117 -0.604234 1.85297 0
M  V30 5199 H 471.213 -2.04669 2.3562 0
M  V30 5200 N 471.514 -1.37532 -0.769588 0
M  V30 5201 C 472.462 -1.33561 -1.90432 0
M  V30 5202 C 473.456 -0.224027 -1.67912 0
M  V30 5203 O 474.662 -0.392174 -1.75676 0
M  V30 5204 H 471.037 -0.416279 -0.626271 0
M  V30 5205 H 473.008 -2.29348 -1.90899 0
M  V30 5206 C 471.757 -1.16162 -3.27722 0
M  V30 5207 H 471.08 -2.00951 -3.45628 0
M  V30 5208 H 472.52 -1.17434 -4.07413 0
M  V30 5209 C 470.979 0.132583 -3.36639 0
M  V30 5210 O 471.509 1.11539 -3.85904 0
M  V30 5211 N 469.715 0.184013 -2.90017 0
M  V30 5212 H 469.262 -0.616415 -2.50116 0
M  V30 5213 H 469.22 1.04956 -2.96364 0
M  V30 5214 N 472.992 0.995999 -1.22138 0
M  V30 5215 C 473.922 2.10387 -1.01289 0
M  V30 5216 C 474.903 1.69975 0.0651454 0
M  V30 5217 O 476.088 1.9396 -0.0964628 0
M  V30 5218 C 473.218 3.42312 -0.586517 0
M  V30 5219 C 472.172 3.96558 -1.61014 0
M  V30 5220 C 471.498 5.24494 -1.0397 0
M  V30 5221 C 472.798 4.27595 -2.99933 0
M  V30 5222 H 474.492 2.28086 -1.93951 0
M  V30 5223 H 472.038 1.09607 -0.933928 0
M  V30 5224 H 473.991 4.19223 -0.427793 0
M  V30 5225 H 472.715 3.24431 0.375761 0
M  V30 5226 H 471.374 3.21776 -1.75658 0
M  V30 5227 H 471.022 5.02953 -0.0688703 0
M  V30 5228 H 470.722 5.61755 -1.72352 0
M  V30 5229 H 472.246 6.04042 -0.892494 0
M  V30 5230 H 473.66 4.95315 -2.8868 0
M  V30 5231 H 472.057 4.76021 -3.6541 0
M  V30 5232 H 473.127 3.35498 -3.50099 0
M  V30 5233 N 474.47 1.03057 1.19235 0
M  V30 5234 C 475.4 0.633497 2.24742 0
M  V30 5235 C 476.381 -0.358335 1.66283 0
M  V30 5236 O 477.566 -0.240676 1.92703 0
M  V30 5237 C 474.696 -0.0147648 3.47297 0
M  V30 5238 C 473.65 0.899527 4.18441 0
M  V30 5239 C 472.976 0.116281 5.34574 0
M  V30 5240 C 474.276 2.21404 4.73051 0
M  V30 5241 H 475.97 1.5155 2.58211 0
M  V30 5242 H 473.516 0.73014 1.24117 0
M  V30 5243 H 475.469 -0.304202 4.20301 0
M  V30 5244 H 474.193 -0.931577 3.13032 0
M  V30 5245 H 472.852 1.17319 3.47321 0
M  V30 5246 H 472.5 -0.802619 4.96555 0
M  V30 5247 H 472.2 0.725293 5.83107 0
M  V30 5248 H 473.724 -0.166376 6.10373 0
M  V30 5249 H 475.138 1.98601 5.37802 0
M  V30 5250 H 473.535 2.77512 5.32078 0
M  V30 5251 H 474.605 2.86752 3.91026 0
M  V30 5252 N 475.948 -1.35272 0.808662 0
M  V30 5253 C 476.878 -2.32315 0.234981 0
M  V30 5254 C 477.859 -1.57572 -0.64071 0
M  V30 5255 O 479.044 -1.8563 -0.570551 0
M  V30 5256 C 476.174 -3.41801 -0.615601 0
M  V30 5257 C 475.128 -4.27694 0.161767 0
M  V30 5258 C 474.454 -5.28519 -0.810649 0
M  V30 5259 C 475.754 -5.04231 1.36193 0
M  V30 5260 H 477.448 -2.80543 1.04575 0
M  V30 5261 H 474.994 -1.3488 0.504315 0
M  V30 5262 H 476.947 -4.08693 -1.02702 0
M  V30 5263 H 475.671 -2.92186 -1.45928 0
M  V30 5264 H 474.33 -3.62384 0.554382 0
M  V30 5265 H 473.978 -4.75171 -1.64988 0
M  V30 5266 H 473.678 -5.8686 -0.294822 0
M  V30 5267 H 475.202 -5.98283 -1.22023 0
M  V30 5268 H 476.616 -5.64058 1.02528 0
M  V30 5269 H 475.013 -5.72077 1.81239 0
M  V30 5270 H 476.083 -4.34753 2.14751 0
M  V30 5271 N 477.426 -0.562348 -1.47226 0
M  V30 5272 C 478.374 0.195476 -2.31777 0
M  V30 5273 C 479.368 0.90433 -1.43242 0
M  V30 5274 O 480.574 0.825031 -1.59979 0
M  V30 5275 H 476.949 0.0819095 -0.747526 0
M  V30 5276 H 478.92 -0.536753 -2.93533 0
M  V30 5277 C 477.669 1.20902 -3.26003 0
M  V30 5278 H 476.992 0.672997 -3.94095 0
M  V30 5279 H 478.432 1.71006 -3.87986 0
M  V30 5280 C 476.891 2.25955 -2.49891 0
M  V30 5281 O 477.421 3.32969 -2.2471 0
M  V30 5282 N 475.627 2.00019 -2.1081 0
M  V30 5283 H 475.174 1.13006 -2.31489 0
M  V30 5284 H 475.132 2.70523 -1.60201 0
M  V30 5285 N 478.904 1.54736 -0.299062 0
M  V30 5286 C 480.15 2.00397 0.311244 0
M  V30 5287 C 480.483 1.18716 1.53688 0
M  V30 5288 O 479.758 0.263154 1.92712 0
M  V30 5289 C 480.041 3.53817 0.669761 0
M  V30 5290 C 479.894 4.46239 -0.564882 0
M  V30 5291 C 481.213 4.13856 1.49702 0
M  V30 5292 H 478.332 0.728493 0.111653 0
M  V30 5293 H 480.974 1.85506 -0.410774 0
M  V30 5294 H 479.124 3.66637 1.28491 0
M  V30 5295 H 480.796 4.45328 -1.20337 0
M  V30 5296 H 479.039 4.16916 -1.19849 0
M  V30 5297 H 479.71 5.5134 -0.269918 0
M  V30 5298 H 482.186 4.04461 0.977284 0
M  V30 5299 H 481.062 5.21365 1.71666 0
M  V30 5300 H 481.323 3.65608 2.48563 0
M  V30 5301 N 480.382 0.0267497 1.57577 0
M  V30 5302 C 481.63 -0.651116 1.91324 0
M  V30 5303 C 481.951 -1.72804 0.90353 0
M  V30 5304 O 481.221 -1.95822 -0.0552946 0
M  V30 5305 H 479.801 -0.243491 0.706202 0
M  V30 5306 H 482.463 0.0739935 1.94759 0
M  V30 5307 H 481.559 -1.10536 2.9187 0
M  V30 5308 N 481.861 -1.55662 -0.24637 0
M  V30 5309 C 483.272 -1.67953 -0.81539 0
M  V30 5310 C 483.623 -0.624302 -1.86002 0
M  V30 5311 O 482.748 0.229328 -2.15181 0
M  V30 5312 C 483.343 -3.04484 -1.48576 0
M  V30 5313 C 481.902 -3.18713 -2.00248 0
M  V30 5314 C 481.049 -2.6383 -0.853766 0
M  V30 5315 H 484 -1.58685 -0.0221692 0
M  V30 5316 H 484.021 -2.98959 -2.3538 0
M  V30 5317 H 483.533 -3.81264 -0.725222 0
M  V30 5318 H 481.634 -2.46757 -2.79181 0
M  V30 5319 H 481.747 -4.25628 -2.1995 0
M  V30 5320 H 480.111 -2.21667 -1.25442 0
M  V30 5321 H 480.894 -3.43135 -0.106302 0
M  V30 5322 N 483.339 0.512053 -1.4905 0
M  V30 5323 C 484.286 1.6148 -1.64902 0
M  V30 5324 C 485.256 1.58687 -0.490673 0
M  V30 5325 O 486.441 1.76842 -0.71636 0
M  V30 5326 C 483.581 2.99676 -1.71139 0
M  V30 5327 C 482.694 3.12568 -2.98203 0
M  V30 5328 C 481.829 4.4143 -2.95487 0
M  V30 5329 C 480.868 4.47916 -4.17179 0
M  V30 5330 N 480.005 5.68191 -4.12437 0
M  V30 5331 H 484.845 1.47271 -2.59066 0
M  V30 5332 H 482.382 0.716713 -1.28459 0
M  V30 5333 H 484.34 3.79761 -1.72736 0
M  V30 5334 H 482.97 3.12614 -0.804508 0
M  V30 5335 H 482.022 2.25618 -3.06269 0
M  V30 5336 H 483.334 3.1322 -3.88194 0
M  V30 5337 H 482.488 5.29825 -2.95585 0
M  V30 5338 H 481.227 4.43326 -2.03256 0
M  V30 5339 H 480.232 3.57925 -4.17337 0
M  V30 5340 H 481.457 4.47744 -5.1059 0
M  V30 5341 H 479.403 5.7095 -3.23036 0
M  V30 5342 H 479.32 5.70413 -4.96151 0
M  V30 5343 H 480.588 6.58823 -4.16621 0
M  V30 5344 N 484.817 1.37938 0.762283 0
M  V30 5345 C 486.065 1.33404 1.51815 0
M  V30 5346 C 486.386 -0.0780975 1.94844 0
M  V30 5347 O 485.656 -1.02405 1.67003 0
M  V30 5348 H 484.236 0.490839 0.563104 0
M  V30 5349 H 486.898 1.72527 0.906669 0
M  V30 5350 H 485.994 1.97926 2.41313 0
M  V30 5351 N 486.295 -0.989507 1.22664 0
M  V30 5352 C 487.572 -1.70326 0.961688 0
M  V30 5353 C 487.952 -2.04537 -0.522279 0
M  V30 5354 O 487.3 -1.73136 -1.49118 0
M  V30 5355 C 487.51 -2.95135 1.86269 0
M  V30 5356 C 488.858 -3.67842 2.12078 0
M  V30 5357 O 489.882 -3.0515 1.83745 0
M  V30 5358 O 488.741 -4.80644 2.60083 0
M  V30 5359 H 485.835 -0.743589 0.361946 0
M  V30 5360 H 488.381 -1.04555 1.33665 0
M  V30 5361 H 487.153 -2.66382 2.8663 0
M  V30 5362 H 486.776 -3.68645 1.48952 0
M  V30 5363 N 487.773 -1.03688 -1.18687 0
M  V30 5364 C 489.021 -0.736572 -1.88199 0
M  V30 5365 C 489.342 0.737665 -1.80509 0
M  V30 5366 O 488.612 1.53204 -1.22088 0
M  V30 5367 H 487.192 -0.269466 -0.696704 0
M  V30 5368 H 489.854 -1.31282 -1.44052 0
M  V30 5369 H 488.95 -1.03802 -2.94332 0
M  V30 5370 N 489.251 1.34841 -0.815825 0
M  V30 5371 C 490.479 2.0273 -0.413294 0
M  V30 5372 C 490.894 1.61459 0.978599 0
M  V30 5373 O 490.251 0.816584 1.63212 0
M  V30 5374 C 490.302 3.58058 -0.497676 0
M  V30 5375 O 490.023 3.97832 -1.8347 0
M  V30 5376 C 491.524 4.4321 -0.0891339 0
M  V30 5377 H 488.744 0.649956 -0.166728 0
M  V30 5378 H 491.288 1.72267 -1.10201 0
M  V30 5379 H 489.443 3.87136 0.142886 0
M  V30 5380 H 489.857 4.92501 -1.80396 0
M  V30 5381 H 491.331 5.5164 -0.199274 0
M  V30 5382 H 491.808 4.28432 0.966571 0
M  V30 5383 H 492.414 4.19446 -0.703214 0
M  V30 5384 N 490.729 0.570148 1.46925 0
M  V30 5385 C 491.978 0.0487352 2.01641 0
M  V30 5386 C 492.291 -1.31433 1.44861 0
M  V30 5387 O 493.497 -1.92638 1.91318 0
M  V30 5388 C 491.953 0.0365817 3.59881 0
M  V30 5389 C 491.561 1.39719 4.25655 0
M  V30 5390 C 493.305 -0.431545 4.22301 0
M  V30 5391 C 491.212 1.34345 5.75939 0
M  V30 5392 H 490.142 0.0144492 0.753862 0
M  V30 5393 H 492.793 0.719928 1.68788 0
M  V30 5394 H 491.175 -0.700522 3.89755 0
M  V30 5395 H 492.349 2.15303 4.07408 0
M  V30 5396 H 490.664 1.80431 3.75278 0
M  V30 5397 H 493.261 -0.490354 5.32447 0
M  V30 5398 H 493.604 -1.44638 3.90366 0
M  V30 5399 H 494.137 0.251102 3.97007 0
M  V30 5400 H 490.876 2.33469 6.12513 0
M  V30 5401 H 490.396 0.629615 5.96486 0
M  V30 5402 H 492.075 1.051 6.38407 0
M  V30 5403 N 492.207 -1.54576 0.307264 0
M  V30 5404 C 493.618 -1.8579 -0.184121 0
M  V30 5405 C 493.969 -1.22914 -1.52927 0
M  V30 5406 O 493.094 -0.529126 -2.09831 0
M  V30 5407 C 493.689 -3.37081 -0.340862 0
M  V30 5408 C 492.248 -3.68304 -0.776465 0
M  V30 5409 C 491.395 -2.77076 0.111503 0
M  V30 5410 H 494.346 -1.49656 0.528078 0
M  V30 5411 H 494.367 -3.61922 -1.17443 0
M  V30 5412 H 493.879 -3.82815 0.638309 0
M  V30 5413 H 491.98 -3.28092 -1.76596 0
M  V30 5414 H 492.093 -4.75434 -0.591512 0
M  V30 5415 H 490.457 -2.51374 -0.410256 0
M  V30 5416 H 491.24 -3.25632 1.08714 0
M  V30 5417 N 493.685 -0.035106 -1.57561 0
M  V30 5418 C 494.962 0.681212 -1.83354 0
M  V30 5419 C 495.342 1.89986 -0.920252 0
M  V30 5420 O 494.69 2.28489 0.0226815 0
M  V30 5421 C 494.9 1.05376 -3.32712 0
M  V30 5422 C 496.248 1.44286 -3.99333 0
M  V30 5423 O 497.272 1.14656 -3.37242 0
M  V30 5424 O 496.131 1.99518 -5.08778 0
M  V30 5425 H 493.225 0.334741 -0.756226 0
M  V30 5426 H 495.771 -0.0632448 -1.69582 0
M  V30 5427 H 494.543 0.186668 -3.90854 0
M  V30 5428 H 494.166 1.85619 -3.51613 0
M  V30 5429 N 495.163 1.55791 0.238111 0
M  V30 5430 C 496.093 1.94068 1.29846 0
M  V30 5431 C 497.074 0.806726 1.49753 0
M  V30 5432 O 498.259 1.06772 1.62214 0
M  V30 5433 C 495.389 2.24302 2.65153 0
M  V30 5434 C 494.343 3.40032 2.59927 0
M  V30 5435 C 493.669 3.55829 3.99111 0
M  V30 5436 C 494.969 4.75476 2.16148 0
M  V30 5437 H 496.663 2.82887 0.980563 0
M  V30 5438 H 494.209 1.36105 0.470253 0
M  V30 5439 H 496.162 2.4967 3.39475 0
M  V30 5440 H 494.886 1.32318 2.98596 0
M  V30 5441 H 493.545 3.14687 1.88063 0
M  V30 5442 H 493.193 2.6125 4.29834 0
M  V30 5443 H 492.893 4.3366 3.96501 0
M  V30 5444 H 494.417 3.83528 4.7512 0
M  V30 5445 H 495.831 5.00158 2.80205 0
M  V30 5446 H 494.228 5.56472 2.24631 0
M  V30 5447 H 495.298 4.71946 1.11333 0
M  V30 5448 N 496.642 -0.504142 1.49319 0
M  V30 5449 C 497.574 -1.62265 1.61872 0
M  V30 5450 C 498.587 -1.54881 0.501573 0
M  V30 5451 O 499.776 -1.6087 0.773497 0
M  V30 5452 C 496.876 -3.01042 1.55651 0
M  V30 5453 C 496.049 -3.33642 2.82845 0
M  V30 5454 C 495.108 -4.51816 2.69719 0
M  V30 5455 O 494.134 -4.53755 3.4365 0
M  V30 5456 N 495.336 -5.51543 1.81055 0
M  V30 5457 H 498.101 -1.51924 2.58339 0
M  V30 5458 H 495.662 -0.691954 1.46368 0
M  V30 5459 H 497.654 -3.78013 1.44528 0
M  V30 5460 H 496.224 -3.05323 0.670546 0
M  V30 5461 H 495.444 -2.45598 3.08343 0
M  V30 5462 H 496.732 -3.5222 3.67177 0
M  V30 5463 H 496.13 -5.52774 1.20241 0
M  V30 5464 H 494.687 -6.27629 1.75856 0
M  V30 5465 N 498.12 -1.38341 -0.754957 0
M  V30 5466 C 499.067 -1.3546 -1.86867 0
M  V30 5467 C 500.037 -0.217369 -1.64672 0
M  V30 5468 O 501.222 -0.409383 -1.86356 0
M  V30 5469 C 498.362 -1.18413 -3.24149 0
M  V30 5470 C 497.475 -2.41511 -3.58185 0
M  V30 5471 C 496.61 -2.17205 -4.84763 0
M  V30 5472 C 495.649 -3.36081 -5.11582 0
M  V30 5473 N 494.786 -3.11219 -6.29354 0
M  V30 5474 H 499.626 -2.30672 -1.88664 0
M  V30 5475 H 497.163 -1.14607 -0.922154 0
M  V30 5476 H 499.121 -1.06545 -4.03366 0
M  V30 5477 H 497.751 -0.268397 -3.21682 0
M  V30 5478 H 496.803 -2.64056 -2.73822 0
M  V30 5479 H 498.115 -3.30115 -3.73932 0
M  V30 5480 H 497.269 -2.02465 -5.7192 0
M  V30 5481 H 496.008 -1.25964 -4.71152 0
M  V30 5482 H 495.013 -3.51341 -4.22894 0
M  V30 5483 H 496.238 -4.28196 -5.27091 0
M  V30 5484 H 494.184 -2.22624 -6.17069 0
M  V30 5485 H 494.101 -3.93373 -6.45596 0
M  V30 5486 H 495.369 -3.00132 -7.19403 0
M  V30 5487 N 499.598 0.982988 -1.23187 0
M  V30 5488 C 500.508 2.10907 -1.02739 0
M  V30 5489 C 501.524 1.73979 0.0273188 0
M  V30 5490 O 502.7 2.00702 -0.16757 0
M  V30 5491 C 499.765 3.41142 -0.618304 0
M  V30 5492 C 498.826 3.92112 -1.74777 0
M  V30 5493 C 498.059 5.16131 -1.3581 0
M  V30 5494 O 498.282 5.6989 -0.241201 0
M  V30 5495 O 497.216 5.61103 -2.17824 0
M  V30 5496 H 501.042 2.31046 -1.97108 0
M  V30 5497 H 498.627 1.09284 -1.01869 0
M  V30 5498 H 500.509 4.19488 -0.400982 0
M  V30 5499 H 499.184 3.2234 0.296421 0
M  V30 5500 H 498.091 3.14895 -2.0197 0
M  V30 5501 H 499.424 4.15364 -2.64071 0
M  V30 5502 N 501.076 1.04316 1.18135 0
M  V30 5503 C 502.492 0.762858 1.40188 0
M  V30 5504 C 502.692 -0.646547 1.90846 0
M  V30 5505 O 501.748 -1.41036 2.0944 0
M  V30 5506 C 503.061 1.81106 2.40044 0
M  V30 5507 C 504.609 1.83226 2.53766 0
M  V30 5508 C 505.084 2.87044 3.56889 0
M  V30 5509 N 506.575 2.85951 3.64398 0
M  V30 5510 C 507.31 3.62932 4.43923 0
M  V30 5511 N 506.806 4.49672 5.27036 0
M  V30 5512 N 508.599 3.51411 4.38711 0
M  V30 5513 H 500.75 1.95264 0.835805 0
M  V30 5514 H 503.013 0.845017 0.429709 0
M  V30 5515 H 502.719 2.82214 2.09876 0
M  V30 5516 H 502.593 1.64529 3.39426 0
M  V30 5517 H 504.98 0.827869 2.8325 0
M  V30 5518 H 505.061 2.03879 1.54489 0
M  V30 5519 H 504.705 3.87663 3.28145 0
M  V30 5520 H 504.635 2.63645 4.5585 0
M  V30 5521 H 507.126 2.23051 3.05052 0
M  V30 5522 H 507.439 5.05116 5.84874 0
M  V30 5523 H 505.784 4.53738 5.26447 0
M  V30 5524 H 508.975 2.83047 3.72829 0
M  V30 5525 H 509.148 4.11654 5.00445 0
M  V30 5526 N 502.554 -1.34406 0.822964 0
M  V30 5527 C 503.484 -2.32052 0.259608 0
M  V30 5528 C 504.465 -1.58243 -0.623961 0
M  V30 5529 O 505.65 -1.86224 -0.55083 0
M  V30 5530 C 502.78 -3.42434 -0.579314 0
M  V30 5531 C 501.734 -4.27499 0.20712 0
M  V30 5532 C 501.06 -5.29349 -0.754547 0
M  V30 5533 C 502.36 -5.02758 1.41533 0
M  V30 5534 H 504.054 -2.79418 1.07545 0
M  V30 5535 H 501.6 -1.34338 0.518593 0
M  V30 5536 H 503.553 -4.0976 -0.983612 0
M  V30 5537 H 502.277 -2.93717 -1.4282 0
M  V30 5538 H 500.936 -3.61776 0.592787 0
M  V30 5539 H 500.584 -4.76895 -1.59939 0
M  V30 5540 H 500.284 -5.8714 -0.232561 0
M  V30 5541 H 501.808 -5.99544 -1.1567 0
M  V30 5542 H 503.222 -5.62938 1.08504 0
M  V30 5543 H 501.619 -5.70123 1.87296 0
M  V30 5544 H 502.689 -4.32451 2.1935 0
M  V30 5545 N 504.032 -0.577932 -1.46621 0
M  V30 5546 C 504.962 0.145917 -2.33044 0
M  V30 5547 C 505.943 0.888412 -1.45056 0
M  V30 5548 O 507.128 0.864812 -1.73881 0
M  V30 5549 C 504.258 1.16322 -3.27241 0
M  V30 5550 C 503.212 0.535868 -4.24632 0
M  V30 5551 C 502.538 1.65929 -5.08303 0
M  V30 5552 C 503.838 -0.523861 -5.19666 0
M  V30 5553 H 505.532 -0.575636 -2.93814 0
M  V30 5554 H 503.078 -0.278272 -1.41286 0
M  V30 5555 H 505.031 1.67793 -3.86553 0
M  V30 5556 H 503.755 1.91498 -2.64567 0
M  V30 5557 H 502.414 0.0422759 -3.66576 0
M  V30 5558 H 502.062 2.40061 -4.42018 0
M  V30 5559 H 501.762 1.2452 -5.74255 0
M  V30 5560 H 503.286 2.17686 -5.70478 0
M  V30 5561 H 504.7 -0.0944059 -5.73222 0
M  V30 5562 H 503.097 -0.858 -5.93935 0
M  V30 5563 H 504.167 -1.41197 -4.63887 0
M  V30 5564 N 505.51 1.54411 -0.315457 0
M  V30 5565 C 506.758 2.00023 0.288971 0
M  V30 5566 C 507.079 1.20529 1.5329 0
M  V30 5567 O 506.349 0.304986 1.93511 0
M  V30 5568 H 504.929 0.738891 0.109766 0
M  V30 5569 H 507.591 1.90094 -0.430129 0
M  V30 5570 H 506.687 3.07198 0.550999 0
M  V30 5571 N 506.988 0.0434614 1.5754 0
M  V30 5572 C 507.918 -0.931651 2.14109 0
M  V30 5573 C 508.899 -1.32971 1.06079 0
M  V30 5574 O 510.084 -1.40579 1.33982 0
M  V30 5575 C 507.214 -2.20914 2.67982 0
M  V30 5576 C 506.168 -1.95139 3.80926 0
M  V30 5577 C 505.494 -3.29276 4.21285 0
M  V30 5578 C 506.794 -1.27913 5.06395 0
M  V30 5579 H 508.488 -0.460497 2.95837 0
M  V30 5580 H 506.034 -0.220058 1.42309 0
M  V30 5581 H 507.987 -2.89522 3.06194 0
M  V30 5582 H 506.711 -2.70221 1.83434 0
M  V30 5583 H 505.37 -1.28945 3.43175 0
M  V30 5584 H 505.018 -3.76369 3.33699 0
M  V30 5585 H 504.718 -3.12831 4.97404 0
M  V30 5586 H 506.242 -3.99129 4.62091 0
M  V30 5587 H 507.656 -1.86544 5.42102 0
M  V30 5588 H 506.053 -1.2182 5.87605 0
M  V30 5589 H 507.123 -0.254066 4.84234 0
M  V30 5590 N 508.466 -1.55915 -0.229846 0
M  V30 5591 C 509.714 -1.7819 -0.953565 0
M  V30 5592 C 510.035 -0.610504 -1.85197 0
M  V30 5593 O 509.305 0.372988 -1.92316 0
M  V30 5594 H 507.885 -0.657208 -0.355087 0
M  V30 5595 H 510.547 -1.9337 -0.243693 0
M  V30 5596 H 509.643 -2.70011 -1.56527 0
M  V30 5597 N 509.944 0.496216 -1.49584 0
M  V30 5598 C 510.854 1.62352 -1.69349 0
M  V30 5599 C 511.87 1.64184 -0.576147 0
M  V30 5600 O 513.046 1.82517 -0.85144 0
M  V30 5601 C 510.111 2.98698 -1.76013 0
M  V30 5602 C 509.172 3.07454 -2.99617 0
M  V30 5603 C 508.405 4.37296 -3.05953 0
M  V30 5604 O 508.628 5.2637 -2.19752 0
M  V30 5605 O 507.562 4.51124 -3.9846 0
M  V30 5606 H 511.388 1.48606 -2.64859 0
M  V30 5607 H 508.973 0.673022 -1.33382 0
M  V30 5608 H 510.855 3.79725 -1.82721 0
M  V30 5609 H 509.53 3.12696 -0.836828 0
M  V30 5610 H 508.437 2.25597 -2.98424 0
M  V30 5611 H 509.77 2.98385 -3.91443 0
M  V30 5612 N 511.423 1.38739 0.74761 0
M  V30 5613 C 512.669 1.3648 1.50814 0
M  V30 5614 C 513.024 -0.0431982 1.92351 0
M  V30 5615 O 512.317 -1.0071 1.62997 0
M  V30 5616 C 512.511 2.25992 2.7688 0
M  V30 5617 C 512.34 3.75354 2.47668 0
M  V30 5618 C 511.11 4.44348 2.40589 0
M  V30 5619 C 513.308 4.67642 2.14046 0
M  V30 5620 N 511.29 5.79114 2.03715 0
M  V30 5621 C 512.661 5.90965 1.87512 0
M  V30 5622 C 514.716 4.55787 2.00407 0
M  V30 5623 C 513.419 7.03759 1.48714 0
M  V30 5624 C 515.445 5.68491 1.63011 0
M  V30 5625 C 514.807 6.90879 1.37353 0
M  V30 5626 H 510.906 0.554695 0.551214 0
M  V30 5627 H 513.49 1.7418 0.870033 0
M  V30 5628 H 511.661 1.9047 3.3849 0
M  V30 5629 H 513.393 2.14815 3.42982 0
M  V30 5630 H 510.148 3.97634 2.57262 0
M  V30 5631 H 510.572 6.504 1.87906 0
M  V30 5632 H 515.214 3.61712 2.18916 0
M  V30 5633 H 512.932 7.97746 1.28945 0
M  V30 5634 H 516.518 5.613 1.53081 0
M  V30 5635 H 515.398 7.76609 1.08848 0
M  V30 5636 N 512.901 -0.976442 1.23707 0
M  V30 5637 C 513.831 -2.08749 1.04624 0
M  V30 5638 C 514.812 -1.70057 -0.0380956 0
M  V30 5639 O 515.997 -1.93782 0.127308 0
M  V30 5640 C 513.127 -3.41335 0.640902 0
M  V30 5641 C 512.081 -3.93947 1.67302 0
M  V30 5642 C 511.407 -5.22774 1.12301 0
M  V30 5643 C 512.707 -4.22769 3.06697 0
M  V30 5644 H 514.401 -2.24972 1.97555 0
M  V30 5645 H 511.947 -1.08108 0.951247 0
M  V30 5646 H 513.9 -4.18489 0.494434 0
M  V30 5647 H 512.624 -3.24988 -0.324099 0
M  V30 5648 H 511.283 -3.18941 1.80755 0
M  V30 5649 H 510.931 -5.0278 0.148877 0
M  V30 5650 H 510.631 -5.58942 1.81267 0
M  V30 5651 H 512.155 -6.02546 0.988479 0
M  V30 5652 H 513.569 -4.90659 2.96524 0
M  V30 5653 H 511.966 -4.70147 3.72937 0
M  V30 5654 H 513.036 -3.29885 3.55392 0
M  V30 5655 N 514.379 -1.04941 -1.1758 0
M  V30 5656 C 515.795 -0.770282 -1.39781 0
M  V30 5657 C 515.995 0.636417 -1.91186 0
M  V30 5658 O 515.051 1.39923 -2.10185 0
M  V30 5659 C 516.364 -1.82376 -2.3908 0
M  V30 5660 C 517.912 -1.84569 -2.52791 0
M  V30 5661 C 518.387 -2.88933 -3.55361 0
M  V30 5662 N 519.878 -2.8788 -3.62877 0
M  V30 5663 C 520.613 -3.65282 -4.41992 0
M  V30 5664 N 520.109 -4.52461 -5.24643 0
M  V30 5665 N 521.902 -3.53732 -4.36841 0
M  V30 5666 H 514.053 -1.95705 -0.825438 0
M  V30 5667 H 516.316 -0.847284 -0.425222 0
M  V30 5668 H 516.022 -2.83323 -2.08376 0
M  V30 5669 H 515.896 -1.66327 -3.38549 0
M  V30 5670 H 518.283 -0.842879 -2.82807 0
M  V30 5671 H 518.364 -2.04696 -1.53406 0
M  V30 5672 H 518.008 -3.89398 -3.26085 0
M  V30 5673 H 517.938 -2.66059 -4.54445 0
M  V30 5674 H 520.429 -2.24666 -3.03864 0
M  V30 5675 H 520.742 -5.08211 -5.82187 0
M  V30 5676 H 519.087 -4.56524 -5.24033 0
M  V30 5677 H 522.278 -2.85021 -3.71323 0
M  V30 5678 H 522.451 -4.14302 -4.98255 0
M  V30 5679 N 515.857 1.33968 -0.830081 0
M  V30 5680 C 516.804 2.29387 -0.255008 0
M  V30 5681 C 517.774 1.53923 0.624243 0
M  V30 5682 O 518.959 1.82262 0.564372 0
M  V30 5683 C 516.099 3.4034 0.571209 0
M  V30 5684 C 515.212 4.30729 -0.331083 0
M  V30 5685 C 514.347 5.2879 0.505389 0
M  V30 5686 C 513.386 6.10819 -0.395843 0
M  V30 5687 N 512.523 7.00948 0.401979 0
M  V30 5688 H 517.363 2.77972 -1.07404 0
M  V30 5689 H 514.9 1.36785 -0.541133 0
M  V30 5690 H 516.858 4.03361 1.06562 0
M  V30 5691 H 515.488 2.9297 1.35529 0
M  V30 5692 H 514.54 3.68507 -0.943759 0
M  V30 5693 H 515.852 4.88181 -1.02377 0
M  V30 5694 H 515.006 5.97297 1.06399 0
M  V30 5695 H 513.745 4.71894 1.23155 0
M  V30 5696 H 512.75 5.41238 -0.966529 0
M  V30 5697 H 513.975 6.69797 -1.12023 0
M  V30 5698 H 511.921 6.46512 1.11168 0
M  V30 5699 H 511.838 7.55643 -0.232167 0
M  V30 5700 H 513.106 7.73774 0.943102 0
M  V30 5701 N 517.335 0.585699 1.46312 0
M  V30 5702 C 518.565 0.0780166 2.06453 0
M  V30 5703 C 518.973 -1.2336 1.43454 0
M  V30 5704 O 518.316 -1.75734 0.535086 0
M  V30 5705 C 518.378 -0.158951 3.59148 0
M  V30 5706 C 518.042 1.06752 4.44357 0
M  V30 5707 C 519.039 1.98031 4.80708 0
M  V30 5708 C 516.724 1.2902 4.85447 0
M  V30 5709 C 518.718 3.09924 5.5698 0
M  V30 5710 C 516.405 2.41218 5.61478 0
M  V30 5711 C 517.403 3.31499 5.97158 0
M  V30 5712 O 517.091 4.41747 6.71651 0
M  V30 5713 H 516.823 0.0558894 0.673686 0
M  V30 5714 H 519.377 0.806994 1.88883 0
M  V30 5715 H 517.607 -0.942575 3.75037 0
M  V30 5716 H 519.296 -0.615513 4.01206 0
M  V30 5717 H 520.062 1.82043 4.49539 0
M  V30 5718 H 515.941 0.596567 4.57124 0
M  V30 5719 H 519.485 3.80415 5.84748 0
M  V30 5720 H 515.382 2.57167 5.9206 0
M  V30 5721 H 516.15 4.40152 6.90079 0
M  V30 5722 N 518.813 -1.54241 0.323641 0
M  V30 5723 C 520.061 -2.00174 -0.278359 0
M  V30 5724 C 520.382 -1.2134 -1.52648 0
M  V30 5725 O 519.652 -0.315244 -1.93347 0
M  V30 5726 H 518.232 -0.739463 -0.105845 0
M  V30 5727 H 520.894 -1.89864 0.440204 0
M  V30 5728 H 519.99 -3.07486 -0.5347 0
M  V30 5729 N 520.291 -0.0518155 -1.57515 0
M  V30 5730 C 521.568 0.661727 -1.84067 0
M  V30 5731 C 521.948 1.88999 -0.940351 0
M  V30 5732 O 521.296 2.285 -0.00155404 0
M  V30 5733 C 521.506 1.01841 -3.3381 0
M  V30 5734 C 522.854 1.40043 -4.00841 0
M  V30 5735 O 523.878 1.11073 -3.38439 0
M  V30 5736 O 522.737 1.94111 -5.10865 0
M  V30 5737 H 519.831 0.326702 -0.759733 0
M  V30 5738 H 522.377 -0.0812277 -1.69505 0
M  V30 5739 H 521.149 0.145202 -3.91031 0
M  V30 5740 H 520.772 1.81879 -3.53562 0
M  V30 5741 N 521.769 1.56035 0.221574 0
M  V30 5742 C 522.732 1.91584 1.2581 0
M  V30 5743 C 523.732 0.794425 1.39805 0
M  V30 5744 O 524.922 1.06217 1.38071 0
M  V30 5745 C 522.054 2.16663 2.63192 0
M  V30 5746 H 523.247 2.8429 0.954935 0
M  V30 5747 H 520.8 1.49316 0.461988 0
M  V30 5748 H 521.535 1.26508 2.98607 0
M  V30 5749 H 521.32 2.98358 2.5441 0
M  V30 5750 H 522.81 2.45262 3.37988 0
M  V30 5751 N 523.247 -0.488276 1.49845 0
M  V30 5752 C 524.496 -1.23826 1.59217 0
M  V30 5753 C 524.809 -1.93439 0.289966 0
M  V30 5754 O 526.015 -2.70229 0.262382 0
M  V30 5755 C 524.471 -2.24902 2.80976 0
M  V30 5756 C 524.079 -1.6117 4.18005 0
M  V30 5757 C 525.823 -3.00648 2.99685 0
M  V30 5758 C 523.73 -2.60431 5.3097 0
M  V30 5759 H 522.66 -0.465858 0.592868 0
M  V30 5760 H 525.311 -0.510645 1.76252 0
M  V30 5761 H 523.693 -3.0088 2.57463 0
M  V30 5762 H 524.867 -0.910968 4.51706 0
M  V30 5763 H 523.182 -0.97767 4.0476 0
M  V30 5764 H 525.779 -3.74903 3.81251 0
M  V30 5765 H 526.122 -3.5902 2.10738 0
M  V30 5766 H 526.655 -2.31784 3.23297 0
M  V30 5767 H 523.394 -2.06823 6.22017 0
M  V30 5768 H 522.914 -3.28707 5.01709 0
M  V30 5769 H 524.593 -3.22606 5.60834 0
M  V30 5770 N 524.725 -1.39134 -0.740242 0
M  V30 5771 C 525.955 -1.39132 -1.52728 0
M  V30 5772 C 526.363 0.0173133 -1.89192 0
M  V30 5773 O 525.706 0.997715 -1.54244 0
M  V30 5774 C 525.768 -2.1952 -2.84695 0
M  V30 5775 C 525.432 -3.68203 -2.70695 0
M  V30 5776 C 526.429 -4.61401 -2.39593 0
M  V30 5777 C 524.114 -4.11724 -2.8773 0
M  V30 5778 C 526.108 -5.96102 -2.25701 0
M  V30 5779 C 523.795 -5.46503 -2.73456 0
M  V30 5780 C 524.793 -6.38506 -2.42486 0
M  V30 5781 O 524.481 -7.70803 -2.28295 0
M  V30 5782 H 524.213 -0.477263 -0.478744 0
M  V30 5783 H 526.767 -1.83504 -0.922799 0
M  V30 5784 H 524.997 -1.69888 -3.47383 0
M  V30 5785 H 526.686 -2.1176 -3.46284 0
M  V30 5786 H 527.452 -4.29079 -2.26088 0
M  V30 5787 H 523.331 -3.4045 -3.10829 0
M  V30 5788 H 526.875 -6.6788 -2.0145 0
M  V30 5789 H 522.772 -5.78417 -2.86538 0
M  V30 5790 H 523.54 -7.8147 -2.43405 0
M  V30 5791 N 526.204 0.969867 -1.24223 0
M  V30 5792 C 527.452 1.70918 -1.0785 0
M  V30 5793 C 527.773 1.91186 0.383763 0
M  V30 5794 O 527.043 1.48806 1.27411 0
M  V30 5795 H 525.623 0.633334 -0.396103 0
M  V30 5796 H 528.285 1.16689 -1.56108 0
M  V30 5797 H 527.381 2.69455 -1.57482 0
M  V30 5798 N 527.682 1.05563 1.17022 0
M  V30 5799 C 528.91 0.78845 1.91288 0
M  V30 5800 C 529.325 -0.656318 1.77025 0
M  V30 5801 O 528.682 -1.44869 1.10992 0
M  V30 5802 C 528.733 1.16444 3.42232 0
M  V30 5803 O 528.454 2.5525 3.5606 0
M  V30 5804 C 529.955 0.923937 4.33565 0
M  V30 5805 H 527.175 0.286389 0.606813 0
M  V30 5806 H 529.719 1.4073 1.48375 0
M  V30 5807 H 527.874 0.590266 3.82877 0
M  V30 5808 H 528.288 2.70097 4.49609 0
M  V30 5809 H 529.762 1.23672 5.37968 0
M  V30 5810 H 530.239 -0.140688 4.38975 0
M  V30 5811 H 530.845 1.48214 3.98639 0
M  V30 5812 N 529.16 -1.33526 0.837174 0
M  V30 5813 C 530.385 -2.0258 0.444545 0
M  V30 5814 C 530.81 -1.6258 -0.946006 0
M  V30 5815 O 530.168 -0.817548 -1.6182 0
M  V30 5816 C 530.216 -3.5605 0.571006 0
M  V30 5817 O 529.32 -4.10422 -0.403431 0
M  V30 5818 H 528.661 -0.638866 0.180958 0
M  V30 5819 H 531.191 -1.70462 1.13154 0
M  V30 5820 H 531.201 -4.05488 0.452024 0
M  V30 5821 H 529.876 -3.84509 1.58512 0
M  V30 5822 H 528.453 -3.72113 -0.242147 0
M  V30 5823 N 530.638 -0.59345 -1.46 0
M  V30 5824 C 531.884 -0.0832754 -2.02629 0
M  V30 5825 C 532.217 1.27749 -1.46266 0
M  V30 5826 O 531.492 1.8395 -0.631866 0
M  V30 5827 C 531.775 -0.0290756 -3.60088 0
M  V30 5828 C 531.628 -1.41951 -4.26814 0
M  V30 5829 C 532.947 0.666055 -4.35031 0
M  V30 5830 H 530.066 -0.031736 -0.736316 0
M  V30 5831 H 532.708 -0.762711 -1.74019 0
M  V30 5832 H 530.858 0.549532 -3.84594 0
M  V30 5833 H 532.53 -2.04411 -4.13538 0
M  V30 5834 H 530.773 -1.98422 -3.8576 0
M  V30 5835 H 531.444 -1.33395 -5.3564 0
M  V30 5836 H 533.92 0.174401 -4.15734 0
M  V30 5837 H 532.796 0.673041 -5.44758 0
M  V30 5838 H 533.057 1.72946 -4.06869 0
M  V30 5839 N 532.116 1.54067 -0.331816 0
M  V30 5840 C 533.362 2.01713 0.261395 0
M  V30 5841 C 533.717 1.21566 1.49129 0
M  V30 5842 O 533.01 0.291867 1.89364 0
M  V30 5843 C 533.204 3.51634 0.639392 0
M  V30 5844 C 533.033 4.46295 -0.552321 0
M  V30 5845 C 531.803 4.94185 -1.05399 0
M  V30 5846 C 534.001 4.94677 -1.40711 0
M  V30 5847 N 531.983 5.7277 -2.20925 0
M  V30 5848 C 533.354 5.71267 -2.40943 0
M  V30 5849 C 535.409 4.76805 -1.43392 0
M  V30 5850 C 534.112 6.31889 -3.4367 0
M  V30 5851 C 536.138 5.38268 -2.44994 0
M  V30 5852 C 535.5 6.14716 -3.43952 0
M  V30 5853 H 531.599 0.77975 0.0592729 0
M  V30 5854 H 534.183 1.88974 -0.468726 0
M  V30 5855 H 532.354 3.64603 1.33863 0
M  V30 5856 H 534.086 3.86038 1.21478 0
M  V30 5857 H 530.841 4.69472 -0.623952 0
M  V30 5858 H 531.265 6.16737 -2.79222 0
M  V30 5859 H 535.907 4.17255 -0.682489 0
M  V30 5860 H 533.625 6.90554 -4.19715 0
M  V30 5861 H 537.211 5.26352 -2.4788 0
M  V30 5862 H 536.091 6.6143 -4.21283 0
M  V30 5863 N 533.594 0.0601682 1.57485 0
M  V30 5864 C 534.504 -0.926121 2.15546 0
M  V30 5865 C 535.52 -1.33532 1.11558 0
M  V30 5866 O 536.696 -1.4104 1.4377 0
M  V30 5867 C 533.761 -2.17952 2.69625 0
M  V30 5868 C 532.822 -1.82783 3.88444 0
M  V30 5869 C 532.055 -3.02148 4.39935 0
M  V30 5870 O 532.278 -4.15803 3.90466 0
M  V30 5871 O 531.212 -2.82639 5.31412 0
M  V30 5872 H 535.038 -0.462289 3.00161 0
M  V30 5873 H 532.623 -0.162246 1.48516 0
M  V30 5874 H 534.505 -2.91474 3.04337 0
M  V30 5875 H 533.18 -2.63456 1.88077 0
M  V30 5876 H 532.087 -1.06549 3.58606 0
M  V30 5877 H 533.42 -1.42072 4.7125 0
M  V30 5878 N 535.072 -1.5615 -0.213296 0
M  V30 5879 C 536.488 -1.49327 -0.56336 0
M  V30 5880 C 536.688 -0.756826 -1.86747 0
M  V30 5881 O 535.744 -0.299866 -2.50713 0
M  V30 5882 C 537.057 -2.9392 -0.634944 0
M  V30 5883 C 538.605 -3.04487 -0.725013 0
M  V30 5884 C 539.08 -4.50456 -0.82787 0
M  V30 5885 N 540.571 -4.54533 -0.891876 0
M  V30 5886 C 541.306 -5.64766 -0.991315 0
M  V30 5887 N 540.802 -6.84733 -1.05419 0
M  V30 5888 N 542.595 -5.52637 -1.02709 0
M  V30 5889 H 534.746 -2.02453 0.642366 0
M  V30 5890 H 537.009 -0.920548 0.226487 0
M  V30 5891 H 536.715 -3.50783 0.253859 0
M  V30 5892 H 536.589 -3.46274 -1.49579 0
M  V30 5893 H 538.976 -2.47685 -1.60425 0
M  V30 5894 H 539.057 -2.55289 0.161669 0
M  V30 5895 H 538.701 -5.07878 0.0469464 0
M  V30 5896 H 538.631 -4.97369 -1.73009 0
M  V30 5897 H 541.122 -3.68141 -0.85327 0
M  V30 5898 H 541.435 -7.64493 -1.13007 0
M  V30 5899 H 539.78 -6.87427 -1.02318 0
M  V30 5900 H 542.971 -4.5784 -0.974687 0
M  V30 5901 H 543.144 -6.38576 -1.10113 0
M  V30 5902 N 536.55 0.480323 -1.50102 0
M  V30 5903 C 537.79 1.24301 -1.62261 0
M  V30 5904 C 538.154 1.89452 -0.311758 0
M  V30 5905 O 539.355 2.67022 -0.308696 0
M  V30 5906 C 537.626 2.26588 -2.76392 0
M  V30 5907 S 539.185 3.11919 -3.08629 0
M  V30 5908 H 536.003 0.42215 -0.57211 0
M  V30 5909 H 538.605 0.541591 -1.87848 0
M  V30 5910 H 537.309 1.7729 -3.70131 0
M  V30 5911 H 536.84 3.01371 -2.52862 0
M  V30 5912 H 538.855 4.27598 -2.51742 0
M  V30 5913 N 538.028 1.39524 0.732853 0
M  V30 5914 C 539.268 1.383 1.50508 0
M  V30 5915 C 539.632 -0.0208271 1.91989 0
M  V30 5916 O 540.833 -0.158091 2.68335 0
M  V30 5917 C 539.104 2.33007 2.71003 0
M  V30 5918 S 540.663 2.49989 3.60626 0
M  V30 5919 H 537.481 0.490417 0.514794 0
M  V30 5920 H 540.083 1.75641 0.858524 0
M  V30 5921 H 538.787 3.33862 2.38672 0
M  V30 5922 H 538.318 1.96889 3.40585 0
M  V30 5923 H 540.333 1.7394 4.64714 0
M  V30 5924 N 539.506 -0.963266 1.24736 0
M  V30 5925 C 540.469 -2.04013 1.04457 0
M  V30 5926 C 541.469 -1.608 0.000335555 0
M  V30 5927 O 542.659 -1.72515 0.241719 0
M  V30 5928 C 539.791 -3.35858 0.584162 0
M  V30 5929 H 540.984 -2.23436 2.00041 0
M  V30 5930 H 538.537 -1.13914 1.07021 0
M  V30 5931 H 539.272 -3.22128 -0.374673 0
M  V30 5932 H 539.057 -3.68568 1.3379 0
M  V30 5933 H 540.547 -4.1502 0.463451 0
M  V30 5934 N 540.985 -1.06182 -1.16461 0
M  V30 5935 C 541.932 -0.671613 -2.20812 0
M  V30 5936 C 542.902 0.331186 -1.62765 0
M  V30 5937 O 544.087 0.22033 -1.89524 0
M  V30 5938 C 541.227 -0.063029 -3.45042 0
M  V30 5939 C 540.34 -1.11587 -4.1734 0
M  V30 5940 C 539.475 -0.473546 -5.29085 0
M  V30 5941 C 538.514 -1.51 -5.93182 0
M  V30 5942 N 537.651 -0.891118 -6.96422 0
M  V30 5943 H 542.491 -1.56589 -2.53542 0
M  V30 5944 H 540.028 -0.782951 -1.24532 0
M  V30 5945 H 541.986 0.307344 -4.16066 0
M  V30 5946 H 540.616 0.794663 -3.12866 0
M  V30 5947 H 539.668 -1.60396 -3.44931 0
M  V30 5948 H 540.98 -1.90221 -4.61104 0
M  V30 5949 H 540.134 -0.0501432 -6.06679 0
M  V30 5950 H 538.873 0.344687 -4.8648 0
M  V30 5951 H 537.878 -1.94331 -5.14311 0
M  V30 5952 H 539.103 -2.33031 -6.37866 0
M  V30 5953 H 537.049 -0.0935753 -6.55933 0
M  V30 5954 H 536.966 -1.61486 -7.38551 0
M  V30 5955 H 538.234 -0.492822 -7.77941 0
M  V30 5956 N 542.463 1.3308 -0.844243 0
M  V30 5957 C 543.691 2.01808 -0.456203 0
M  V30 5958 C 544.106 1.63498 0.944131 0
M  V30 5959 O 543.463 0.85102 1.61443 0
M  V30 5960 C 543.514 3.56922 -0.573513 0
M  V30 5961 O 543.235 3.93851 -1.91868 0
M  V30 5962 C 544.736 4.42922 -0.183125 0
M  V30 5963 H 541.956 0.646273 -0.180477 0
M  V30 5964 H 544.5 1.69891 -1.1383 0
M  V30 5965 H 542.655 3.87352 0.0607367 0
M  V30 5966 H 543.069 4.88564 -1.90802 0
M  V30 5967 H 544.543 5.51093 -0.316241 0
M  V30 5968 H 545.02 4.30386 0.875477 0
M  V30 5969 H 545.626 4.1786 -0.792027 0
M  V30 5970 N 543.941 0.601185 1.45683 0
M  V30 5971 C 544.851 -0.123395 2.34275 0
M  V30 5972 C 545.867 -0.86702 1.5086 0
M  V30 5973 O 547.043 -0.826049 1.8368 0
M  V30 5974 C 544.108 -1.11237 3.2837 0
M  V30 5975 C 543.169 -0.371405 4.2769 0
M  V30 5976 C 542.402 -1.31327 5.1729 0
M  V30 5977 O 542.625 -2.55078 5.10188 0
M  V30 5978 O 541.559 -0.813811 5.96373 0
M  V30 5979 H 545.385 0.604483 2.97623 0
M  V30 5980 H 542.97 0.361477 1.44961 0
M  V30 5981 H 544.852 -1.68214 3.8637 0
M  V30 5982 H 543.527 -1.82139 2.67595 0
M  V30 5983 H 542.434 0.24067 3.73325 0
M  V30 5984 H 543.767 0.296998 4.91303 0
M  V30 5985 N 545.419 -1.53889 0.339982 0
M  V30 5986 C 546.696 -1.93084 -0.312719 0
M  V30 5987 C 547.076 -1.2712 -1.68534 0
M  V30 5988 O 546.424 -0.420835 -2.24591 0
M  V30 5989 C 546.634 -3.4683 -0.388558 0
M  V30 5990 C 547.982 -4.19732 -0.641088 0
M  V30 5991 O 549.006 -3.53075 -0.470818 0
M  V30 5992 O 547.865 -5.3781 -0.970685 0
M  V30 5993 H 544.959 -0.806784 -0.18174 0
M  V30 5994 H 547.505 -1.65137 0.390898 0
M  V30 5995 H 546.277 -3.87055 0.574821 0
M  V30 5996 H 545.9 -3.80933 -1.1391 0
M  V30 5997 N 546.897 -0.0685191 -1.57451 0
M  V30 5998 C 548.145 0.60016 -1.92983 0
M  V30 5999 C 548.466 1.70348 -0.949028 0
M  V30 6000 O 547.736 1.959 0.00335647 0
M  V30 6001 H 546.316 0.224682 -0.712409 0
M  V30 6002 H 548.978 -0.125605 -1.94495 0
M  V30 6003 H 548.074 1.02759 -2.94698 0
M  V30 6004 N 548.375 1.56261 0.205012 0
M  V30 6005 C 549.603 1.84141 0.943386 0
M  V30 6006 C 550.018 0.649772 1.77266 0
M  V30 6007 O 549.375 -0.381612 1.78466 0
M  V30 6008 C 549.426 3.10719 1.84759 0
M  V30 6009 O 549.147 4.25286 1.05181 0
M  V30 6010 C 550.648 3.51706 2.69848 0
M  V30 6011 H 547.868 0.611734 0.275721 0
M  V30 6012 H 550.412 2.03364 0.215253 0
M  V30 6013 H 548.567 2.93422 2.52947 0
M  V30 6014 H 548.981 4.97301 1.66709 0
M  V30 6015 H 550.455 4.43266 3.28967 0
M  V30 6016 H 550.932 2.7423 3.43067 0
M  V30 6017 H 551.538 3.71499 2.07047 0
M  V30 6018 N 549.853 -0.472356 1.50355 0
M  V30 6019 C 550.763 -1.59637 1.7191 0
M  V30 6020 C 551.779 -1.63247 0.602195 0
M  V30 6021 O 552.955 -1.81139 0.880369 0
M  V30 6022 C 550.02 -2.9586 1.80742 0
M  V30 6023 C 549.081 -3.02649 3.04471 0
M  V30 6024 C 548.314 -4.32374 3.12872 0
M  V30 6025 O 548.537 -5.22807 2.28099 0
M  V30 6026 O 547.471 -4.44728 4.05587 0
M  V30 6027 H 551.297 -1.44373 2.67189 0
M  V30 6028 H 548.882 -0.651717 1.34436 0
M  V30 6029 H 550.764 -3.7677 1.88739 0
M  V30 6030 H 549.439 -3.11325 0.88647 0
M  V30 6031 H 548.346 -2.20821 3.01975 0
M  V30 6032 H 549.679 -2.92119 3.9614 0
M  V30 6033 N 551.331 -1.39911 -0.725443 0
M  V30 6034 C 552.58 -1.36963 -1.48068 0
M  V30 6035 C 552.893 0.0284478 -1.95579 0
M  V30 6036 O 554.099 0.180535 -2.70899 0
M  V30 6037 C 552.555 -2.40664 -2.67598 0
M  V30 6038 C 552.163 -3.86234 -2.26997 0
M  V30 6039 C 553.907 -2.46807 -3.45379 0
M  V30 6040 C 551.814 -4.81554 -3.43307 0
M  V30 6041 H 550.744 -0.509223 -0.556065 0
M  V30 6042 H 553.395 -1.65602 -0.790454 0
M  V30 6043 H 551.777 -2.05109 -3.38742 0
M  V30 6044 H 552.951 -4.3088 -1.63337 0
M  V30 6045 H 551.266 -3.83475 -1.62284 0
M  V30 6046 H 553.863 -3.15213 -4.31909 0
M  V30 6047 H 554.206 -1.49552 -3.8851 0
M  V30 6048 H 554.739 -2.81303 -2.81271 0
M  V30 6049 H 551.478 -5.80106 -3.05217 0
M  V30 6050 H 550.998 -4.4158 -4.05915 0
M  V30 6051 H 552.677 -5.0091 -4.0951 0
M  V30 6052 N 552.809 0.956637 -1.25245 0
M  V30 6053 C 554.225 1.22733 -1.02023 0
M  V30 6054 C 554.425 1.99761 0.264186 0
M  V30 6055 O 553.481 2.32814 0.977436 0
M  V30 6056 C 554.794 2.00367 -2.24217 0
M  V30 6057 C 556.342 2.13418 -2.28958 0
M  V30 6058 C 556.817 2.9445 -3.50803 0
M  V30 6059 N 558.308 3.02029 -3.51187 0
M  V30 6060 C 559.043 3.65116 -4.42129 0
M  V30 6061 N 558.539 4.2983 -5.43339 0
M  V30 6062 N 560.332 3.62237 -4.29815 0
M  V30 6063 H 552.483 0.441282 -2.07765 0
M  V30 6064 H 554.746 0.257686 -0.912306 0
M  V30 6065 H 554.452 1.51165 -3.17556 0
M  V30 6066 H 554.326 3.01077 -2.27228 0
M  V30 6067 H 556.713 2.61819 -1.36143 0
M  V30 6068 H 556.794 1.1202 -2.29968 0
M  V30 6069 H 556.438 2.46741 -4.43939 0
M  V30 6070 H 556.368 3.9607 -3.47039 0
M  V30 6071 H 558.859 2.56007 -2.77973 0
M  V30 6072 H 559.172 4.75819 -6.08947 0
M  V30 6073 H 557.517 4.28465 -5.47214 0
M  V30 6074 H 560.708 3.10863 -3.49974 0
M  V30 6075 H 560.881 4.11117 -5.00886 0
M  V30 6076 N 554.287 1.06798 1.15896 0
M  V30 6077 C 555.534 0.787767 1.86549 0
M  V30 6078 C 555.862 -0.685959 1.82002 0
M  V30 6079 O 555.117 -1.5188 1.23414 0
M  V30 6080 C 555.416 1.23414 3.35416 0
M  V30 6081 C 555.082 2.71285 3.6016 0
M  V30 6082 C 553.744 3.11676 3.66622 0
M  V30 6083 C 556.096 3.6676 3.7032 0
M  V30 6084 C 553.424 4.4637 3.8075 0
M  V30 6085 C 555.776 5.01209 3.8597 0
M  V30 6086 C 554.44 5.41229 3.90676 0
M  V30 6087 H 553.71 0.288264 0.682631 0
M  V30 6088 H 556.357 1.338 1.37003 0
M  V30 6089 H 554.662 0.60319 3.87129 0
M  V30 6090 H 556.359 0.994298 3.88477 0
M  V30 6091 H 552.949 2.39015 3.55767 0
M  V30 6092 H 557.133 3.36685 3.64633 0
M  V30 6093 H 552.389 4.76855 3.82648 0
M  V30 6094 H 556.563 5.75067 3.92773 0
M  V30 6095 H 554.19 6.45602 4.01375 0
M  V30 6096 N 555.766 -1.3263 0.851289 0
M  V30 6097 C 556.994 -2.01563 0.466899 0
M  V30 6098 C 557.409 -1.63996 -0.935447 0
M  V30 6099 O 556.766 -0.85957 -1.6099 0
M  V30 6100 C 556.817 -3.56613 0.592433 0
M  V30 6101 O 556.538 -3.92828 1.93954 0
M  V30 6102 C 558.039 -4.42818 0.206612 0
M  V30 6103 H 555.259 -0.645307 0.183902 0
M  V30 6104 H 557.803 -1.69285 1.1473 0
M  V30 6105 H 555.958 -3.87379 -0.0401936 0
M  V30 6106 H 556.372 -4.87545 1.9339 0
M  V30 6107 H 557.846 -5.50918 0.345462 0
M  V30 6108 H 558.323 -4.30844 -0.85264 0
M  V30 6109 H 558.929 -4.17434 0.814176 0
M  V30 6110 N 557.244 -0.608902 -1.45362 0
M  V30 6111 C 558.66 -0.272659 -1.57254 0
M  V30 6112 C 558.86 1.22477 -1.60005 0
M  V30 6113 O 557.916 2.00785 -1.53106 0
M  V30 6114 C 559.229 -0.944991 -2.85465 0
M  V30 6115 C 560.777 -0.921033 -2.99142 0
M  V30 6116 C 561.252 -1.5734 -4.30126 0
M  V30 6117 N 562.743 -1.53895 -4.36887 0
M  V30 6118 C 563.478 -2.01286 -5.36909 0
M  V30 6119 N 562.974 -2.56768 -6.43461 0
M  V30 6120 N 564.767 -1.92046 -5.28275 0
M  V30 6121 H 556.918 -1.58117 -1.4182 0
M  V30 6122 H 559.181 -0.662437 -0.678146 0
M  V30 6123 H 558.887 -1.99941 -2.89338 0
M  V30 6124 H 558.761 -0.469079 -3.74272 0
M  V30 6125 H 561.148 0.124846 -2.94836 0
M  V30 6126 H 561.229 -1.43522 -2.11743 0
M  V30 6127 H 560.873 -2.61862 -4.35191 0
M  V30 6128 H 560.803 -1.03422 -5.16344 0
M  V30 6129 H 563.294 -1.13366 -3.60495 0
M  V30 6130 H 563.607 -2.9072 -7.16032 0
M  V30 6131 H 561.952 -2.60808 -6.44208 0
M  V30 6132 H 565.143 -1.48439 -4.43941 0
M  V30 6133 H 565.316 -2.29293 -6.06077 0
M  V30 6134 N 558.722 1.53707 -0.348139 0
M  V30 6135 C 559.669 2.25173 0.506518 0
M  V30 6136 C 560.639 1.25174 1.09182 0
M  V30 6137 O 561.824 1.53917 1.12757 0
M  V30 6138 C 558.964 3.03141 1.64923 0
M  V30 6139 C 558.077 4.18002 1.0908 0
M  V30 6140 C 557.212 4.83447 2.20119 0
M  V30 6141 C 556.251 5.90369 1.61651 0
M  V30 6142 N 555.388 6.49575 2.66451 0
M  V30 6143 H 560.228 2.97799 -0.109452 0
M  V30 6144 H 557.765 1.46953 -0.0657866 0
M  V30 6145 H 559.723 3.46607 2.32205 0
M  V30 6146 H 558.353 2.32803 2.23612 0
M  V30 6147 H 557.405 3.79145 0.308783 0
M  V30 6148 H 558.717 4.94892 0.623178 0
M  V30 6149 H 557.871 5.30008 2.95257 0
M  V30 6150 H 556.61 4.05991 2.70227 0
M  V30 6151 H 555.615 5.43186 0.850209 0
M  V30 6152 H 556.84 6.69735 1.1239 0
M  V30 6153 H 554.786 5.74981 3.15805 0
M  V30 6154 H 554.703 7.21952 2.24325 0
M  V30 6155 H 555.971 7.00789 3.41344 0
M  V30 6156 N 560.2 0.0768682 1.57412 0
M  V30 6157 C 561.44 -0.594676 1.95558 0
M  V30 6158 C 561.804 -1.66469 0.956658 0
M  V30 6159 O 563.005 -2.39215 1.22595 0
M  V30 6160 C 561.276 -1.15206 3.38323 0
M  V30 6161 S 562.835 -1.83803 3.9845 0
M  V30 6162 H 559.653 -0.194579 0.683857 0
M  V30 6163 H 562.255 0.151933 1.94909 0
M  V30 6164 H 560.959 -0.36153 4.08805 0
M  V30 6165 H 560.49 -1.93491 3.42527 0
M  V30 6166 H 562.505 -3.12087 3.85767 0
M  V30 6167 N 561.678 -1.56367 -0.196722 0
M  V30 6168 C 562.626 -1.95304 -1.2633 0
M  V30 6169 C 563.62 -0.838252 -1.47206 0
M  V30 6170 O 564.826 -1.02325 -1.48087 0
M  V30 6171 H 561.201 -0.621013 -0.424083 0
M  V30 6172 H 563.172 -2.84254 -0.907879 0
M  V30 6173 C 561.921 -2.3074 -2.60104 0
M  V30 6174 H 561.244 -3.16047 -2.44856 0
M  V30 6175 H 562.684 -2.61849 -3.33484 0
M  V30 6176 C 561.143 -1.14143 -3.16975 0
M  V30 6177 O 561.673 -0.415602 -3.99544 0
M  V30 6178 N 559.879 -0.91867 -2.75697 0
M  V30 6179 H 559.426 -1.51065 -2.08656 0
M  V30 6180 H 559.384 -0.140321 -3.14087 0
M  V30 6181 N 563.156 0.464375 -1.50603 0
M  V30 6182 C 564.572 0.798684 -1.38178 0
M  V30 6183 C 564.772 1.96568 -0.44308 0
M  V30 6184 O 563.828 2.52252 0.111814 0
M  V30 6185 C 565.141 1.10444 -2.79683 0
M  V30 6186 C 566.689 1.2105 -2.88645 0
M  V30 6187 C 567.164 1.54934 -4.30998 0
M  V30 6188 N 568.655 1.61913 -4.3398 0
M  V30 6189 C 569.39 1.8965 -5.41129 0
M  V30 6190 N 568.886 2.15361 -6.58477 0
M  V30 6191 N 570.679 1.91207 -5.28579 0
M  V30 6192 H 562.83 -0.304603 -2.10204 0
M  V30 6193 H 565.093 -0.0737804 -0.945125 0
M  V30 6194 H 564.799 0.319934 -3.50242 0
M  V30 6195 H 564.673 2.03896 -3.17342 0
M  V30 6196 H 567.06 1.98567 -2.18301 0
M  V30 6197 H 567.141 0.255613 -2.5452 0
M  V30 6198 H 566.785 0.779549 -5.01882 0
M  V30 6199 H 566.715 2.51584 -4.62615 0
M  V30 6200 H 569.206 1.44055 -3.49366 0
M  V30 6201 H 569.519 2.35818 -7.35941 0
M  V30 6202 H 567.864 2.1274 -6.6164 0
M  V30 6203 H 571.055 1.70622 -4.35897 0
M  V30 6204 H 571.228 2.12488 -6.12171 0
M  V30 6205 N 564.634 1.40294 0.718013 0
M  V30 6206 C 565.883 1.37746 1.4734 0
M  V30 6207 C 566.196 -0.0180754 1.95592 0
M  V30 6208 O 567.402 -0.166166 2.70991 0
M  V30 6209 C 565.858 2.4208 2.66318 0
M  V30 6210 C 565.466 3.87432 2.24945 0
M  V30 6211 C 567.21 2.48635 3.44065 0
M  V30 6212 C 565.117 4.83368 3.40748 0
M  V30 6213 H 564.047 0.512165 0.553356 0
M  V30 6214 H 566.698 1.66019 0.781661 0
M  V30 6215 H 565.08 2.06903 3.3765 0
M  V30 6216 H 566.254 4.3174 1.6105 0
M  V30 6217 H 564.569 3.8433 1.60249 0
M  V30 6218 H 567.166 3.17499 4.30231 0
M  V30 6219 H 567.509 1.51611 3.87711 0
M  V30 6220 H 568.042 2.82791 2.79775 0
M  V30 6221 H 564.781 5.81716 3.02136 0
M  V30 6222 H 564.301 4.43726 4.03568 0
M  V30 6223 H 565.98 5.03074 4.06848 0
M  V30 6224 N 566.112 -0.949982 1.2575 0
M  V30 6225 C 567.359 -1.69515 1.10774 0
M  V30 6226 C 567.687 -1.91316 -0.350479 0
M  V30 6227 O 566.942 -1.48515 -1.27443 0
M  V30 6228 C 567.241 -3.08039 1.81237 0
M  V30 6229 C 566.907 -3.06023 3.31151 0
M  V30 6230 C 565.569 -3.0518 3.72047 0
M  V30 6231 C 567.921 -2.98998 4.26907 0
M  V30 6232 C 565.249 -2.95067 5.07102 0
M  V30 6233 C 567.601 -2.90426 5.61992 0
M  V30 6234 C 566.265 -2.87922 6.0221 0
M  V30 6235 H 565.535 -0.6203 0.405351 0
M  V30 6236 H 568.182 -1.10953 1.56082 0
M  V30 6237 H 566.487 -3.70172 1.28373 0
M  V30 6238 H 568.184 -3.64526 1.67098 0
M  V30 6239 H 564.774 -3.07453 2.98614 0
M  V30 6240 H 568.958 -2.98764 3.963 0
M  V30 6241 H 564.214 -2.915 5.37436 0
M  V30 6242 H 568.388 -2.83952 6.35881 0
M  V30 6243 H 566.015 -2.79841 7.06819 0
M  V30 6244 N 567.59 -1.07411 -1.15328 0
M  V30 6245 C 568.836 -0.798831 -1.86404 0
M  V30 6246 C 569.169 0.673433 -1.8215 0
M  V30 6247 O 568.444 1.49428 -1.24505 0
M  V30 6248 C 568.727 -1.30846 -3.35487 0
M  V30 6249 C 568.58 -2.84532 -3.4837 0
M  V30 6250 C 569.899 -0.925486 -4.30259 0
M  V30 6251 H 567.018 -0.291659 -0.676834 0
M  V30 6252 H 569.66 -1.332 -1.35491 0
M  V30 6253 H 567.81 -0.854916 -3.78977 0
M  V30 6254 H 569.482 -3.3818 -3.13739 0
M  V30 6255 H 567.725 -3.22699 -2.8991 0
M  V30 6256 H 568.396 -3.15259 -4.53118 0
M  V30 6257 H 570.872 -1.3163 -3.94731 0
M  V30 6258 H 569.748 -1.3094 -5.33053 0
M  V30 6259 H 570.009 0.168525 -4.41779 0
M  V30 6260 N 569.068 1.32177 -0.85831 0
M  V30 6261 C 570.317 1.96392 -0.459689 0
M  V30 6262 C 570.63 1.68659 0.990632 0
M  V30 6263 O 571.836 2.26641 1.49485 0
M  V30 6264 C 570.292 3.51542 -0.7711 0
M  V30 6265 C 569.9 3.8813 -2.2374 0
M  V30 6266 C 571.644 4.2221 -0.44038 0
M  V30 6267 C 569.551 5.36341 -2.49183 0
M  V30 6268 H 568.481 0.735007 -0.168169 0
M  V30 6269 H 571.132 1.50518 -1.0496 0
M  V30 6270 H 569.514 3.95846 -0.11058 0
M  V30 6271 H 570.688 3.54824 -2.94001 0
M  V30 6272 H 569.003 3.30497 -2.533 0
M  V30 6273 H 571.6 5.31234 -0.607855 0
M  V30 6274 H 571.943 4.11683 0.618291 0
M  V30 6275 H 572.476 3.83502 -1.05695 0
M  V30 6276 H 569.215 5.51892 -3.53689 0
M  V30 6277 H 568.735 5.7104 -1.83504 0
M  V30 6278 H 570.414 6.03466 -2.33318 0
M  V30 6279 N 570.547 0.616602 1.45037 0
M  V30 6280 C 571.794 0.115331 2.02171 0
M  V30 6281 C 572.122 -1.25748 1.48383 0
M  V30 6282 O 571.377 -1.84511 0.652229 0
M  V30 6283 C 571.676 0.0356829 3.57382 0
M  V30 6284 C 571.342 1.34535 4.30362 0
M  V30 6285 C 570.004 1.70408 4.50016 0
M  V30 6286 C 572.356 2.21049 4.72003 0
M  V30 6287 C 569.684 2.92529 5.0857 0
M  V30 6288 C 572.036 3.42427 5.31908 0
M  V30 6289 C 570.7 3.78541 5.49784 0
M  V30 6290 H 569.97 0.0422024 0.739797 0
M  V30 6291 H 572.617 0.80002 1.73988 0
M  V30 6292 H 570.922 -0.732314 3.84895 0
M  V30 6293 H 572.619 -0.368463 3.99304 0
M  V30 6294 H 569.209 1.05615 4.15383 0
M  V30 6295 H 573.393 1.94632 4.56544 0
M  V30 6296 H 568.649 3.20605 5.20598 0
M  V30 6297 H 572.823 4.09709 5.63127 0
M  V30 6298 H 570.45 4.73255 5.94923 0
M  V30 6299 N 572.025 -1.5352 0.356285 0
M  V30 6300 C 572.955 -2.28372 -0.486661 0
M  V30 6301 C 573.936 -1.30432 -1.09185 0
M  V30 6302 O 575.121 -1.59291 -1.11085 0
M  V30 6303 C 572.251 -3.06604 -1.63129 0
M  V30 6304 C 571.205 -4.12154 -1.15381 0
M  V30 6305 C 570.531 -4.78415 -2.38796 0
M  V30 6306 C 571.831 -5.21724 -0.245179 0
M  V30 6307 H 573.525 -2.99083 0.137797 0
M  V30 6308 H 571.071 -1.43841 0.0677134 0
M  V30 6309 H 573.024 -3.57712 -2.22755 0
M  V30 6310 H 571.748 -2.33568 -2.28284 0
M  V30 6311 H 570.407 -3.61978 -0.580294 0
M  V30 6312 H 570.055 -4.01959 -3.02387 0
M  V30 6313 H 569.755 -5.49734 -2.07524 0
M  V30 6314 H 571.279 -5.32313 -2.99125 0
M  V30 6315 H 572.693 -5.68391 -0.748646 0
M  V30 6316 H 571.09 -6.00095 -0.0237608 0
M  V30 6317 H 572.16 -4.79596 0.715229 0
M  V30 6318 N 573.503 -0.0852151 -1.57369 0
M  V30 6319 C 574.751 0.579658 -1.93609 0
M  V30 6320 C 575.072 1.69332 -0.967043 0
M  V30 6321 O 574.342 1.95892 -0.0174215 0
M  V30 6322 H 572.922 0.217113 -0.714752 0
M  V30 6323 H 575.584 -0.146226 -1.94351 0
M  V30 6324 H 574.68 0.996276 -2.95771 0
M  V30 6325 N 574.981 1.5647 0.188427 0
M  V30 6326 C 576.23 1.80207 0.905995 0
M  V30 6327 C 576.543 0.659579 1.84144 0
M  V30 6328 O 577.749 0.781431 2.60011 0
M  V30 6329 C 576.205 3.19255 1.66145 0
M  V30 6330 C 575.813 4.41324 0.770504 0
M  V30 6331 C 577.557 3.52298 2.36826 0
M  V30 6332 C 575.464 5.71394 1.52521 0
M  V30 6333 H 574.394 0.671953 0.342045 0
M  V30 6334 H 577.045 1.82808 0.159164 0
M  V30 6335 H 575.427 3.10922 2.45242 0
M  V30 6336 H 576.601 4.60797 0.0177261 0
M  V30 6337 H 574.916 4.16035 0.174199 0
M  V30 6338 H 577.513 4.46715 2.93854 0
M  V30 6339 H 577.856 2.76359 3.11338 0
M  V30 6340 H 578.389 3.62108 1.6469 0
M  V30 6341 H 575.128 6.50316 0.82275 0
M  V30 6342 H 574.648 5.55928 2.25175 0
M  V30 6343 H 576.327 6.12747 2.07725 0
M  V30 6344 N 576.459 -0.456382 1.50847 0
M  V30 6345 C 577.87 -1.03685 1.55262 0
M  V30 6346 C 578.221 -1.92779 0.364771 0
M  V30 6347 O 577.346 -2.10043 -0.52068 0
M  V30 6348 C 577.941 -1.88718 2.81374 0
M  V30 6349 C 576.5 -2.41847 2.88422 0
M  V30 6350 C 575.647 -1.20564 2.49719 0
M  V30 6351 H 578.598 -0.238399 1.56899 0
M  V30 6352 H 578.619 -2.73957 2.6406 0
M  V30 6353 H 578.131 -1.23847 3.67809 0
M  V30 6354 H 576.232 -3.10228 2.06372 0
M  V30 6355 H 576.345 -2.75947 3.9165 0
M  V30 6356 H 574.709 -1.54504 2.02486 0
M  V30 6357 H 575.492 -0.573326 3.38479 0
M  V30 6358 N 577.937 -1.40673 -0.710563 0
M  V30 6359 C 579.165 -1.42547 -1.4996 0
M  V30 6360 C 579.58 -0.0265485 -1.88781 0
M  V30 6361 O 578.937 0.950694 -1.55782 0
M  V30 6362 C 578.988 -2.32071 -2.77173 0
M  V30 6363 O 578.709 -3.66518 -2.39992 0
M  V30 6364 C 580.21 -2.42591 -3.71032 0
M  V30 6365 H 577.43 -0.486025 -0.462623 0
M  V30 6366 H 579.974 -1.84783 -0.876102 0
M  V30 6367 H 578.129 -1.93184 -3.35795 0
M  V30 6368 H 578.543 -4.14115 -3.21884 0
M  V30 6369 H 580.017 -3.09429 -4.57119 0
M  V30 6370 H 580.494 -1.4525 -4.14486 0
M  V30 6371 H 581.1 -2.82051 -3.18319 0
M  V30 6372 N 579.415 0.9433 -1.26252 0
M  V30 6373 C 580.663 1.68592 -1.11451 0
M  V30 6374 C 580.984 1.91957 0.343123 0
M  V30 6375 O 580.254 1.51475 1.24226 0
M  V30 6376 H 578.834 0.624789 -0.409448 0
M  V30 6377 H 581.496 1.13351 -1.58548 0
M  V30 6378 H 580.592 2.66054 -1.63162 0
M  V30 6379 N 580.893 1.08022 1.14757 0
M  V30 6380 C 581.803 0.718292 2.23333 0
M  V30 6381 C 582.819 -0.273477 1.71837 0
M  V30 6382 O 583.995 -0.118406 2.01052 0
M  V30 6383 C 581.06 0.128855 3.4646 0
M  V30 6384 C 580.121 1.17473 4.12915 0
M  V30 6385 C 579.354 0.61333 5.30164 0
M  V30 6386 O 579.577 -0.568458 5.6756 0
M  V30 6387 O 578.511 1.3615 5.86299 0
M  V30 6388 H 582.337 1.62394 2.56636 0
M  V30 6389 H 579.922 0.853628 1.22611 0
M  V30 6390 H 581.804 -0.197249 4.20938 0
M  V30 6391 H 580.479 -0.750014 3.14891 0
M  V30 6392 H 579.386 1.5533 3.40328 0
M  V30 6393 H 580.719 2.02574 4.48581 0
M  V30 6394 N 582.371 -1.3172 0.865308 0
M  V30 6395 C 583.318 -2.2863 0.315736 0
M  V30 6396 C 584.288 -1.55524 -0.583213 0
M  V30 6397 O 585.473 -1.83694 -0.51585 0
M  V30 6398 C 582.613 -3.41735 -0.480773 0
M  V30 6399 C 581.726 -4.297 0.445167 0
M  V30 6400 C 580.861 -5.29944 -0.365012 0
M  V30 6401 C 579.9 -6.09554 0.557651 0
M  V30 6402 N 579.037 -7.01768 -0.215994 0
M  V30 6403 H 583.877 -2.75026 1.14736 0
M  V30 6404 H 581.414 -1.35302 0.577209 0
M  V30 6405 H 583.372 -4.06045 -0.958306 0
M  V30 6406 H 582.002 -2.96461 -1.27714 0
M  V30 6407 H 581.054 -3.65875 1.04113 0
M  V30 6408 H 582.366 -4.85295 1.15284 0
M  V30 6409 H 581.52 -5.99908 -0.905255 0
M  V30 6410 H 580.259 -4.74994 -1.106 0
M  V30 6411 H 579.264 -5.38485 1.10969 0
M  V30 6412 H 580.489 -6.66591 1.29742 0
M  V30 6413 H 578.435 -6.49232 -0.939878 0
M  V30 6414 H 578.352 -7.54762 0.432431 0
M  V30 6415 H 579.62 -7.76002 -0.737618 0
M  V30 6416 N 583.85 -0.624285 -1.44708 0
M  V30 6417 C 585.099 -0.123539 -2.01321 0
M  V30 6418 C 585.412 1.25966 -1.49639 0
M  V30 6419 O 586.618 1.85405 -1.98336 0
M  V30 6420 C 585.074 -0.170124 -3.59498 0
M  V30 6421 C 584.682 -1.55421 -4.20176 0
M  V30 6422 C 586.426 0.274513 -4.23611 0
M  V30 6423 C 584.332 -1.55628 -5.70556 0
M  V30 6424 H 583.263 -0.0424183 -0.752806 0
M  V30 6425 H 585.913 -0.782076 -1.65999 0
M  V30 6426 H 584.296 0.555385 -3.92086 0
M  V30 6427 H 585.47 -2.30276 -3.99136 0
M  V30 6428 H 583.784 -1.94235 -3.68323 0
M  V30 6429 H 586.382 0.292402 -5.339 0
M  V30 6430 H 586.725 1.3005 -3.95465 0
M  V30 6431 H 587.258 -0.398275 -3.95801 0
M  V30 6432 H 583.997 -2.56041 -6.03426 0
M  V30 6433 H 583.517 -0.850563 -5.93739 0
M  V30 6434 H 585.196 -1.28721 -6.34066 0
M  V30 6435 N 585.328 1.53329 -0.364422 0
M  V30 6436 C 586.574 2.01537 0.225969 0
M  V30 6437 C 586.907 1.25128 1.48515 0
M  V30 6438 O 586.182 0.344653 1.91422 0
M  V30 6439 C 586.465 3.56339 0.519092 0
M  V30 6440 C 586.318 4.43441 -0.753639 0
M  V30 6441 C 587.637 4.19833 1.32015 0
M  V30 6442 H 584.756 0.732573 0.0806548 0
M  V30 6443 H 587.398 1.83597 -0.489084 0
M  V30 6444 H 585.548 3.71756 1.12825 0
M  V30 6445 H 587.22 4.39823 -1.39116 0
M  V30 6446 H 585.463 4.11457 -1.37424 0
M  V30 6447 H 586.134 5.49699 -0.503517 0
M  V30 6448 H 588.61 4.08242 0.804859 0
M  V30 6449 H 587.486 5.28177 1.49399 0
M  V30 6450 H 587.747 3.75821 2.32832 0
M  V30 6451 N 586.806 0.0935595 1.57322 0
M  V30 6452 C 588.055 -0.570191 1.93473 0
M  V30 6453 C 588.368 -1.69434 0.977318 0
M  V30 6454 O 589.574 -2.41914 1.23248 0
M  V30 6455 C 588.03 -1.06564 3.43762 0
M  V30 6456 C 587.638 0.0286723 4.47991 0
M  V30 6457 C 589.382 -1.70221 3.88877 0
M  V30 6458 C 587.289 -0.482046 5.89432 0
M  V30 6459 H 586.219 -0.216764 0.72217 0
M  V30 6460 H 588.87 0.169313 1.82717 0
M  V30 6461 H 587.252 -1.85878 3.49664 0
M  V30 6462 H 588.426 0.804106 4.5373 0
M  V30 6463 H 586.741 0.570336 4.12476 0
M  V30 6464 H 589.338 -2.09502 4.91948 0
M  V30 6465 H 589.681 -2.57078 3.27439 0
M  V30 6466 H 590.214 -0.974919 3.85668 0
M  V30 6467 H 586.953 0.349871 6.54566 0
M  V30 6468 H 586.473 -1.22452 5.87167 0
M  V30 6469 H 588.152 -0.951508 6.39965 0
M  V30 6470 N 588.284 -1.56567 -0.180126 0
M  V30 6471 C 589.194 -1.98947 -1.24327 0
M  V30 6472 C 590.21 -0.899446 -1.4895 0
M  V30 6473 O 591.386 -1.20639 -1.61271 0
M  V30 6474 C 588.451 -2.33328 -2.56435 0
M  V30 6475 C 587.512 -3.56114 -2.39752 0
M  V30 6476 C 586.745 -3.88845 -3.65561 0
M  V30 6477 O 586.968 -3.22662 -4.70368 0
M  V30 6478 O 585.902 -4.82226 -3.60197 0
M  V30 6479 H 589.728 -2.89634 -0.913565 0
M  V30 6480 H 587.313 -1.44319 -0.386306 0
M  V30 6481 H 589.195 -2.5645 -3.34382 0
M  V30 6482 H 587.87 -1.45806 -2.89002 0
M  V30 6483 H 586.777 -3.38221 -1.59866 0
M  V30 6484 H 588.11 -4.4415 -2.12113 0
M  V30 6485 N 589.762 0.448376 -1.51087 0
M  V30 6486 C 591.039 1.20926 -1.53741 0
M  V30 6487 C 591.419 2.09025 -0.295222 0
M  V30 6488 O 590.767 2.16851 0.720283 0
M  V30 6489 C 590.977 2.02067 -2.84552 0
M  V30 6490 C 592.325 2.59486 -3.36084 0
M  V30 6491 O 593.349 2.12289 -2.86028 0
M  V30 6492 O 592.208 3.45539 -4.23397 0
M  V30 6493 H 589.302 0.549951 -0.617643 0
M  V30 6494 H 591.848 0.458344 -1.63393 0
M  V30 6495 H 590.62 1.37291 -3.66425 0
M  V30 6496 H 590.243 2.84246 -2.78011 0
M  V30 6497 N 591.24 1.41047 0.703093 0
M  V30 6498 C 592.17 1.45067 1.82969 0
M  V30 6499 C 593.151 0.31016 1.67248 0
M  V30 6500 O 594.336 0.520548 1.87093 0
M  V30 6501 C 591.466 1.32478 3.2104 0
M  V30 6502 C 590.42 2.44262 3.51454 0
M  V30 6503 C 589.746 2.16742 4.88801 0
M  V30 6504 C 591.046 3.86606 3.51189 0
M  V30 6505 H 592.74 2.39353 1.79863 0
M  V30 6506 H 590.286 1.15206 0.863919 0
M  V30 6507 H 592.239 1.33904 3.99559 0
M  V30 6508 H 590.963 0.346735 3.24754 0
M  V30 6509 H 589.622 2.42107 2.75282 0
M  V30 6510 H 589.27 1.17299 4.89132 0
M  V30 6511 H 588.97 2.91643 5.10116 0
M  V30 6512 H 590.494 2.19872 5.69639 0
M  V30 6513 H 591.908 3.90517 4.19725 0
M  V30 6514 H 590.305 4.61128 3.84033 0
M  V30 6515 H 591.375 4.15296 2.50315 0
M  V30 6516 N 592.718 -0.936591 1.26751 0
M  V30 6517 C 593.666 -2.0573 1.08527 0
M  V30 6518 C 594.66 -1.69397 0.0108784 0
M  V30 6519 O 595.866 -1.79215 0.167915 0
M  V30 6520 H 592.241 -0.673691 0.334133 0
M  V30 6521 H 594.212 -2.1825 2.03493 0
M  V30 6522 C 592.961 -3.39738 0.739845 0
M  V30 6523 H 592.284 -3.68174 1.55845 0
M  V30 6524 H 593.724 -4.18955 0.652149 0
M  V30 6525 C 592.183 -3.32292 -0.555288 0
M  V30 6526 O 592.713 -3.68794 -1.59229 0
M  V30 6527 N 590.919 -2.85394 -0.54762 0
M  V30 6528 H 590.466 -2.55886 0.296667 0
M  V30 6529 H 590.424 -2.80795 -1.41427 0
M  V30 6530 N 594.196 -1.08629 -1.14182 0
M  V30 6531 C 595.126 -0.740003 -2.21464 0
M  V30 6532 C 596.107 0.278591 -1.67803 0
M  V30 6533 O 597.292 0.148461 -1.93632 0
M  V30 6534 C 594.422 -0.150952 -3.46972 0
M  V30 6535 C 593.376 -1.09815 -4.13672 0
M  V30 6536 C 592.702 -0.3712 -5.3341 0
M  V30 6537 C 594.002 -2.43722 -4.61949 0
M  V30 6538 H 595.696 -1.63697 -2.50686 0
M  V30 6539 H 593.242 -0.788526 -1.20492 0
M  V30 6540 H 595.195 0.103325 -4.21273 0
M  V30 6541 H 593.919 0.781164 -3.1712 0
M  V30 6542 H 592.578 -1.33756 -3.41328 0
M  V30 6543 H 592.226 0.564792 -4.99819 0
M  V30 6544 H 591.926 -1.00267 -5.78982 0
M  V30 6545 H 593.45 -0.12503 -6.10472 0
M  V30 6546 H 594.864 -2.24034 -5.27714 0
M  V30 6547 H 593.261 -3.02582 -5.18232 0
M  V30 6548 H 594.331 -3.05082 -3.76899 0
M  V30 6549 N 595.674 1.31259 -0.872281 0
M  V30 6550 C 596.899 2.0133 -0.498099 0
M  V30 6551 C 597.324 1.65031 0.902568 0
M  V30 6552 O 596.682 0.860164 1.59596 0
M  V30 6553 C 596.73 3.54411 -0.665205 0
M  V30 6554 O 595.834 4.11347 0.294473 0
M  V30 6555 H 595.175 0.633844 -0.197832 0
M  V30 6556 H 597.705 1.67402 -1.17633 0
M  V30 6557 H 597.715 4.04147 -0.559373 0
M  V30 6558 H 596.39 3.80171 -1.68651 0
M  V30 6559 H 594.967 3.72624 0.143403 0
M  V30 6560 N 597.152 0.631951 1.44375 0
M  V30 6561 C 598.115 -0.0628142 2.29114 0
M  V30 6562 C 599.115 -0.771494 1.41084 0
M  V30 6563 O 600.305 -0.615959 1.62947 0
M  V30 6564 C 597.437 -1.09953 3.22681 0
M  V30 6565 H 598.63 0.682509 2.92031 0
M  V30 6566 H 596.183 0.392128 1.51301 0
M  V30 6567 H 596.918 -1.87481 2.64616 0
M  V30 6568 H 596.703 -0.595286 3.87555 0
M  V30 6569 H 598.193 -1.58538 3.86336 0
M  V30 6570 N 598.631 -1.53133 0.372548 0
M  V30 6571 C 599.879 -2.00958 -0.214534 0
M  V30 6572 C 600.2 -1.26135 -1.48711 0
M  V30 6573 O 599.47 -0.376597 -1.92246 0
M  V30 6574 H 598.05 -0.742456 -0.0822664 0
M  V30 6575 H 600.712 -1.88367 0.500385 0
M  V30 6576 H 599.808 -3.09031 -0.436605 0
M  V30 6577 N 600.109 -0.101901 -1.5727 0
M  V30 6578 C 601.337 0.568392 -1.98939 0
M  V30 6579 C 601.752 1.61301 -0.981194 0
M  V30 6580 O 601.109 1.82478 0.0282869 0
M  V30 6581 C 601.16 1.20997 -3.40649 0
M  V30 6582 O 600.881 0.207129 -4.3761 0
M  V30 6583 C 602.382 1.96523 -3.97358 0
M  V30 6584 H 599.602 0.15186 -0.65359 0
M  V30 6585 H 602.146 -0.183198 -2.03678 0
M  V30 6586 H 600.301 1.91245 -3.36904 0
M  V30 6587 H 600.715 0.671071 -5.20189 0
M  V30 6588 H 602.189 2.36764 -4.98645 0
M  V30 6589 H 602.666 2.83376 -3.35552 0
M  V30 6590 H 603.272 1.31076 -4.04598 0
M  V30 6591 N 601.587 1.56661 0.17182 0
M  V30 6592 C 602.833 1.82235 0.889845 0
M  V30 6593 C 603.166 0.679673 1.81918 0
M  V30 6594 O 602.441 -0.318404 1.91876 0
M  V30 6595 C 602.724 3.18195 1.68595 0
M  V30 6596 C 602.577 4.42989 0.779773 0
M  V30 6597 C 603.896 3.5109 2.65375 0
M  V30 6598 H 601.015 0.66291 0.322056 0
M  V30 6599 H 603.657 1.89358 0.15608 0
M  V30 6600 H 601.807 3.12253 2.3115 0
M  V30 6601 H 603.479 4.60997 0.16714 0
M  V30 6602 H 601.722 4.33711 0.0877964 0
M  V30 6603 H 602.393 5.3467 1.3723 0
M  V30 6604 H 604.869 3.57482 2.12946 0
M  V30 6605 H 603.745 4.47298 3.18144 0
M  V30 6606 H 604.006 2.75768 3.45549 0
M  V30 6607 N 603.065 -0.440357 1.51323 0
M  V30 6608 C 604.481 -0.7766 1.39431 0
M  V30 6609 C 604.681 -1.95838 0.474296 0
M  V30 6610 O 603.737 -2.52398 -0.0716692 0
M  V30 6611 C 605.05 -1.05981 2.81405 0
M  V30 6612 C 606.598 -1.16442 2.90534 0
M  V30 6613 C 607.073 -1.48058 4.33408 0
M  V30 6614 N 608.564 -1.54988 4.36501 0
M  V30 6615 C 609.299 -1.81017 5.44078 0
M  V30 6616 N 608.795 -2.04858 6.61819 0
M  V30 6617 N 610.588 -1.82774 5.31554 0
M  V30 6618 H 602.739 0.338006 2.09693 0
M  V30 6619 H 605.002 0.0888072 0.943831 0
M  V30 6620 H 604.708 -0.264173 3.50706 0
M  V30 6621 H 604.582 -1.98822 3.20546 0
M  V30 6622 H 606.969 -1.95068 2.21432 0
M  V30 6623 H 607.05 -0.215088 2.54894 0
M  V30 6624 H 606.694 -0.699605 5.03059 0
M  V30 6625 H 606.624 -2.44192 4.66559 0
M  V30 6626 H 609.115 -1.38479 3.51613 0
M  V30 6627 H 609.428 -2.2408 7.396 0
M  V30 6628 H 607.773 -2.02187 6.6494 0
M  V30 6629 H 610.964 -1.63665 4.38556 0
M  V30 6630 H 611.137 -2.02722 6.15474 0
M  V30 6631 N 604.543 -1.41418 -0.695603 0
M  V30 6632 C 605.493 -1.39731 -1.80165 0
M  V30 6633 C 606.477 -0.271689 -1.5859 0
M  V30 6634 O 607.669 -0.512354 -1.69422 0
M  V30 6635 C 604.798 -1.28187 -3.1847 0
M  V30 6636 C 603.884 -2.45612 -3.45739 0
M  V30 6637 N 604.275 -3.71077 -3.43708 0
M  V30 6638 C 602.573 -2.39424 -3.76288 0
M  V30 6639 C 603.274 -4.48957 -3.69882 0
M  V30 6640 N 602.25 -3.7907 -3.89624 0
M  V30 6641 H 606.052 -2.34656 -1.76957 0
M  V30 6642 H 603.566 -1.35473 -0.89559 0
M  V30 6643 H 605.563 -1.2506 -3.977 0
M  V30 6644 H 604.223 -0.342468 -3.22889 0
M  V30 6645 H 605.234 -4.03963 -3.2409 0
M  V30 6646 H 601.911 -1.53955 -3.88077 0
M  V30 6647 H 603.301 -5.57887 -3.74448 0
M  V30 6648 N 606.021 0.929856 -1.27246 0
M  V30 6649 C 607.268 1.67731 -1.13457 0
M  V30 6650 C 607.596 1.9185 0.319998 0
M  V30 6651 O 606.851 1.50524 1.25064 0
M  V30 6652 C 607.15 3.05116 -1.86115 0
M  V30 6653 C 606.816 3.00715 -3.35978 0
M  V30 6654 C 605.478 2.99222 -3.76855 0
M  V30 6655 C 607.83 2.92168 -4.3161 0
M  V30 6656 C 605.158 2.86962 -5.11732 0
M  V30 6657 C 607.51 2.81449 -5.66542 0
M  V30 6658 C 606.174 2.78305 -6.06715 0
M  V30 6659 H 605.444 0.613772 -0.415168 0
M  V30 6660 H 608.091 1.08456 -1.57827 0
M  V30 6661 H 606.396 3.68083 -1.34246 0
M  V30 6662 H 608.093 3.61822 -1.72876 0
M  V30 6663 H 604.683 3.02664 -3.03468 0
M  V30 6664 H 608.867 2.92421 -4.01003 0
M  V30 6665 H 604.123 2.82913 -5.42006 0
M  V30 6666 H 608.297 2.738 -6.40317 0
M  V30 6667 H 605.924 2.68561 -7.11181 0
M  V30 6668 N 607.499 1.09233 1.13605 0
M  V30 6669 C 608.429 0.751738 2.21068 0
M  V30 6670 C 609.41 -0.269688 1.67948 0
M  V30 6671 O 610.595 -0.13819 1.93708 0
M  V30 6672 C 607.725 0.16935 3.46887 0
M  V30 6673 C 606.679 1.12007 4.13084 0
M  V30 6674 C 606.005 0.399483 5.33206 0
M  V30 6675 C 607.305 2.46168 4.6065 0
M  V30 6676 H 608.999 1.65024 2.49815 0
M  V30 6677 H 606.545 0.794905 1.20072 0
M  V30 6678 H 608.498 -0.0809824 4.21322 0
M  V30 6679 H 607.222 -0.764335 3.1753 0
M  V30 6680 H 605.881 1.35564 3.40614 0
M  V30 6681 H 605.529 -0.538277 5.00112 0
M  V30 6682 H 605.229 1.03337 5.78442 0
M  V30 6683 H 606.753 0.157403 6.10397 0
M  V30 6684 H 608.167 2.26829 5.26518 0
M  V30 6685 H 606.564 3.05326 5.1662 0
M  V30 6686 H 607.634 3.07076 3.75276 0
M  V30 6687 N 608.977 -1.30795 0.87923 0
M  V30 6688 C 610.205 -2.00527 0.509548 0
M  V30 6689 C 610.62 -1.65944 -0.90045 0
M  V30 6690 O 609.977 -0.893525 -1.5913 0
M  V30 6691 C 610.028 -3.55276 0.667943 0
M  V30 6692 O 609.749 -3.88625 2.02242 0
M  V30 6693 C 611.25 -4.4228 0.300494 0
M  V30 6694 H 608.47 -0.641261 0.197549 0
M  V30 6695 H 611.014 -1.66813 1.18295 0
M  V30 6696 H 609.169 -3.87377 0.0419843 0
M  V30 6697 H 609.583 -4.83334 2.03688 0
M  V30 6698 H 611.057 -5.50061 0.462242 0
M  V30 6699 H 611.534 -4.32556 -0.76106 0
M  V30 6700 H 612.14 -4.15613 0.902536 0
M  V30 6701 N 610.455 -0.639598 -1.44038 0
M  V30 6702 C 611.703 -0.147188 -2.01563 0
M  V30 6703 C 612.024 1.2384 -1.50628 0
M  V30 6704 O 611.294 1.82452 -0.713316 0
M  V30 6705 H 609.874 -0.0514231 -0.745228 0
M  V30 6706 H 612.536 -0.828205 -1.76428 0
M  V30 6707 H 611.632 -0.121358 -3.11864 0
M  V30 6708 N 611.933 1.52934 -0.380664 0
M  V30 6709 C 612.843 2.29921 0.466192 0
M  V30 6710 C 613.859 1.36488 1.07922 0
M  V30 6711 O 615.035 1.69553 1.0869 0
M  V30 6712 C 612.1 3.08468 1.58266 0
M  V30 6713 C 611.161 4.17595 0.995627 0
M  V30 6714 C 610.394 4.92387 2.05889 0
M  V30 6715 O 610.617 4.67184 3.27254 0
M  V30 6716 O 609.551 5.77949 1.68102 0
M  V30 6717 H 613.377 3.03274 -0.160735 0
M  V30 6718 H 610.962 1.48698 -0.144617 0
M  V30 6719 H 612.844 3.57469 2.23145 0
M  V30 6720 H 611.519 2.37937 2.19471 0
M  V30 6721 H 610.426 3.72811 0.310332 0
M  V30 6722 H 611.759 4.90336 0.427918 0
M  V30 6723 N 613.412 0.11024 1.57214 0
M  V30 6724 C 614.828 -0.24638 1.57687 0
M  V30 6725 C 615.028 -1.67344 1.12241 0
M  V30 6726 O 614.084 -2.39298 0.805783 0
M  V30 6727 C 615.397 -0.0210288 3.00693 0
M  V30 6728 C 616.945 -0.0876077 3.12877 0
M  V30 6729 C 617.42 0.10994 4.57868 0
M  V30 6730 N 618.911 0.0556135 4.63167 0
M  V30 6731 C 619.646 0.183495 5.73106 0
M  V30 6732 N 619.142 0.367058 6.91827 0
M  V30 6733 N 620.935 0.123689 5.61964 0
M  V30 6734 H 613.086 1.04246 1.85058 0
M  V30 6735 H 615.349 0.40979 0.854854 0
M  V30 6736 H 615.055 0.965203 3.38196 0
M  V30 6737 H 614.929 -0.756748 3.69531 0
M  V30 6738 H 617.316 -1.06436 2.75237 0
M  V30 6739 H 617.397 0.67985 2.466 0
M  V30 6740 H 617.041 1.08362 4.96206 0
M  V30 6741 H 616.971 -0.677397 5.22225 0
M  V30 6742 H 619.462 -0.0831062 3.77809 0
M  V30 6743 H 619.775 0.455739 7.71455 0
M  V30 6744 H 618.12 0.40292 6.93831 0
M  V30 6745 H 621.311 -0.0186928 4.68096 0
M  V30 6746 H 621.484 0.226797 6.47603 0
M  V30 6747 N 614.89 -1.56749 -0.16351 0
M  V30 6748 C 615.82 -2.00042 -1.20438 0
M  V30 6749 C 616.801 -0.877256 -1.45733 0
M  V30 6750 O 617.986 -1.1439 -1.56935 0
M  V30 6751 C 615.116 -2.36697 -2.54149 0
M  V30 6752 C 614.07 -3.52046 -2.43408 0
M  V30 6753 C 613.396 -3.74466 -3.81679 0
M  V30 6754 C 614.696 -4.85247 -1.93216 0
M  V30 6755 H 616.39 -2.87244 -0.844477 0
M  V30 6756 H 613.936 -1.38194 -0.40478 0
M  V30 6757 H 615.889 -2.65582 -3.27176 0
M  V30 6758 H 614.613 -1.46414 -2.91943 0
M  V30 6759 H 613.272 -3.23301 -1.72834 0
M  V30 6760 H 612.92 -2.81461 -4.1688 0
M  V30 6761 H 612.62 -4.52084 -3.75359 0
M  V30 6762 H 614.144 -4.0576 -4.5628 0
M  V30 6763 H 615.558 -5.12957 -2.56023 0
M  V30 6764 H 613.955 -5.66556 -1.97825 0
M  V30 6765 H 615.025 -4.7672 -0.88689 0
M  V30 6766 N 616.368 0.432326 -1.51554 0
M  V30 6767 C 617.593 1.20824 -1.68571 0
M  V30 6768 C 618.018 1.84126 -0.384596 0
M  V30 6769 O 617.376 1.69025 0.655751 0
M  V30 6770 C 617.424 2.26429 -2.80646 0
M  V30 6771 O 616.528 3.32032 -2.44598 0
M  V30 6772 H 615.869 0.353765 -0.561913 0
M  V30 6773 H 618.399 0.509916 -1.98144 0
M  V30 6774 H 618.409 2.71133 -3.04878 0
M  V30 6775 H 617.084 1.79733 -3.75058 0
M  V30 6776 H 615.661 2.92769 -2.30956 0
M  V30 6777 N 617.846 1.41785 0.688094 0
M  V30 6778 C 619.093 1.41544 1.44816 0
M  V30 6779 C 619.421 0.0271746 1.94481 0
M  V30 6780 O 618.676 -0.962235 1.7041 0
M  V30 6781 C 618.975 2.37532 2.67046 0
M  V30 6782 C 618.641 3.84209 2.35996 0
M  V30 6783 C 617.303 4.24165 2.27239 0
M  V30 6784 C 619.655 4.76785 2.10536 0
M  V30 6785 C 616.983 5.54695 1.91128 0
M  V30 6786 C 619.335 6.07644 1.75931 0
M  V30 6787 C 617.999 6.46613 1.65675 0
M  V30 6788 H 617.269 0.517945 0.529919 0
M  V30 6789 H 619.916 1.74635 0.785797 0
M  V30 6790 H 618.221 1.9772 3.38251 0
M  V30 6791 H 619.918 2.34615 3.25203 0
M  V30 6792 H 616.508 3.52567 2.4371 0
M  V30 6793 H 620.692 4.46714 2.16242 0
M  V30 6794 H 615.948 5.83762 1.81746 0
M  V30 6795 H 620.122 6.78874 1.55252 0
M  V30 6796 H 617.749 7.47668 1.37463 0
M  V30 6797 N 619.324 -0.923095 1.27737 0
M  V30 6798 C 620.271 -2.02432 1.1086 0
M  V30 6799 C 621.241 -1.66098 0.00835195 0
M  V30 6800 O 622.426 -1.90027 0.171542 0
M  V30 6801 C 619.566 -3.36476 0.766671 0
M  V30 6802 C 618.679 -3.85737 1.94501 0
M  V30 6803 C 617.814 -5.08249 1.54455 0
M  V30 6804 C 616.853 -5.49818 2.6901 0
M  V30 6805 N 615.99 -6.63524 2.29521 0
M  V30 6806 H 620.83 -2.16201 2.05089 0
M  V30 6807 H 618.367 -1.05909 1.02087 0
M  V30 6808 H 620.325 -4.13569 0.549223 0
M  V30 6809 H 618.955 -3.22502 -0.13867 0
M  V30 6810 H 618.007 -3.04883 2.27487 0
M  V30 6811 H 619.319 -4.12513 2.80419 0
M  V30 6812 H 618.473 -5.92857 1.28862 0
M  V30 6813 H 617.212 -4.83261 0.656534 0
M  V30 6814 H 616.217 -4.63757 2.95313 0
M  V30 6815 H 617.442 -5.76799 3.5844 0
M  V30 6816 H 615.388 -6.40185 1.43177 0
M  V30 6817 H 615.305 -6.89978 3.08977 0
M  V30 6818 H 616.573 -7.51461 2.07187 0
M  V30 6819 N 620.802 -1.09834 -1.13024 0
M  V30 6820 C 621.75 -0.736283 -2.20639 0
M  V30 6821 C 622.744 0.264725 -1.67319 0
M  V30 6822 O 623.95 0.125745 -1.7956 0
M  V30 6823 H 620.325 -0.220136 -0.719058 0
M  V30 6824 H 622.296 -1.65295 -2.48436 0
M  V30 6825 C 621.045 -0.177544 -3.47246 0
M  V30 6826 H 620.368 -0.939009 -3.88616 0
M  V30 6827 H 621.808 0.0378007 -4.23983 0
M  V30 6828 C 620.267 1.08824 -3.1884 0
M  V30 6829 O 620.797 2.1708 -3.37993 0
M  V30 6830 N 619.003 1.00442 -2.7269 0
M  V30 6831 H 618.55 0.123383 -2.57304 0
M  V30 6832 H 618.508 1.85206 -2.5406 0
M  V30 6833 N 622.28 1.30327 -0.886154 0
M  V30 6834 C 623.526 1.96388 -0.505941 0
M  V30 6835 C 623.859 1.69784 0.942712 0
M  V30 6836 O 623.134 1.00322 1.6663 0
M  V30 6837 C 623.417 3.51488 -0.782826 0
M  V30 6838 C 623.27 3.87603 -2.28219 0
M  V30 6839 C 624.589 4.39331 -0.260128 0
M  V30 6840 H 621.708 0.713327 -0.185292 0
M  V30 6841 H 624.35 1.54178 -1.11036 0
M  V30 6842 H 622.5 3.87572 -0.268399 0
M  V30 6843 H 624.172 3.61537 -2.86512 0
M  V30 6844 H 622.415 3.3563 -2.74837 0
M  V30 6845 H 623.086 4.95806 -2.42653 0
M  V30 6846 H 625.562 4.10162 -0.700444 0
M  V30 6847 H 624.438 5.46769 -0.483179 0
M  V30 6848 H 624.699 4.34072 0.838674 0
M  V30 6849 N 623.758 0.647228 1.43697 0
M  V30 6850 C 625.006 0.157876 2.01482 0
M  V30 6851 C 625.327 -1.23039 1.51282 0
M  V30 6852 O 624.597 -1.82071 0.722982 0
M  V30 6853 H 623.177 0.0553745 0.744945 0
M  V30 6854 H 625.839 0.83755 1.75986 0
M  V30 6855 H 624.935 0.137895 3.11795 0
M  V30 6856 N 625.236 -1.5273 0.388769 0
M  V30 6857 C 626.183 -2.26437 -0.446639 0
M  V30 6858 C 627.153 -1.28025 -1.05824 0
M  V30 6859 O 628.338 -1.56852 -1.08637 0
M  V30 6860 C 625.478 -3.07407 -1.56828 0
M  V30 6861 C 624.591 -4.20747 -0.979589 0
M  V30 6862 C 623.726 -4.89113 -2.07224 0
M  V30 6863 C 622.765 -5.94447 -1.45942 0
M  V30 6864 N 621.902 -6.56411 -2.49135 0
M  V30 6865 H 626.742 -2.97404 0.18837 0
M  V30 6866 H 624.279 -1.46727 0.104725 0
M  V30 6867 H 626.237 -3.52642 -2.22934 0
M  V30 6868 H 624.867 -2.3865 -2.17361 0
M  V30 6869 H 623.919 -3.7983 -0.208151 0
M  V30 6870 H 625.231 -4.9637 -0.491747 0
M  V30 6871 H 624.385 -5.3765 -2.81101 0
M  V30 6872 H 623.124 -4.13013 -2.59368 0
M  V30 6873 H 622.129 -5.4525 -0.705894 0
M  V30 6874 H 623.354 -6.7248 -0.945932 0
M  V30 6875 H 621.3 -5.83152 -3.00449 0
M  V30 6876 H 621.217 -7.27645 -2.05105 0
M  V30 6877 H 622.485 -7.09592 -3.22644 0
M  V30 6878 N 626.714 -0.118576 -1.57153 0
M  V30 6879 C 627.662 0.849114 -2.16547 0
M  V30 6880 C 628.656 1.27567 -1.11458 0
M  V30 6881 O 629.862 1.24746 -1.29763 0
M  V30 6882 H 626.237 0.291935 -0.693021 0
M  V30 6883 H 628.208 0.323693 -2.96639 0
M  V30 6884 C 626.957 2.08951 -2.77912 0
M  V30 6885 H 626.28 1.77021 -3.58474 0
M  V30 6886 H 627.72 2.74666 -3.23008 0
M  V30 6887 C 626.179 2.87899 -1.74974 0
M  V30 6888 O 626.709 3.83268 -1.20285 0
M  V30 6889 N 624.915 2.51884 -1.44924 0
M  V30 6890 H 624.462 1.74397 -1.89587 0
M  V30 6891 H 624.42 3.05003 -0.762921 0
M  V30 6892 N 628.193 1.56834 0.155195 0
M  V30 6893 C 629.123 2.00678 1.19376 0
M  V30 6894 C 630.104 0.884973 1.45266 0
M  V30 6895 O 631.289 1.1522 1.56326 0
M  V30 6896 C 628.419 2.38042 2.5289 0
M  V30 6897 C 627.373 3.53332 2.41538 0
M  V30 6898 C 626.699 3.76485 3.79688 0
M  V30 6899 C 627.999 4.86265 1.9064 0
M  V30 6900 H 629.693 2.87688 0.829232 0
M  V30 6901 H 627.239 1.38407 0.397445 0
M  V30 6902 H 629.192 2.67314 3.25763 0
M  V30 6903 H 627.916 1.4796 2.91162 0
M  V30 6904 H 626.575 3.24213 1.71117 0
M  V30 6905 H 626.223 2.83667 4.15382 0
M  V30 6906 H 625.923 4.54068 3.72956 0
M  V30 6907 H 627.447 4.08174 4.54122 0
M  V30 6908 H 628.861 5.14308 2.53299 0
M  V30 6909 H 627.258 5.67597 1.94818 0
M  V30 6910 H 628.328 4.77184 0.861596 0
M  V30 6911 N 629.671 -0.424282 1.51781 0
M  V30 6912 C 630.581 -1.54087 1.76902 0
M  V30 6913 C 631.597 -1.61249 0.653826 0
M  V30 6914 O 632.773 -1.78247 0.937552 0
M  V30 6915 C 629.838 -2.8996 1.90063 0
M  V30 6916 C 628.899 -2.92809 3.13945 0
M  V30 6917 C 628.132 -4.22201 3.26469 0
M  V30 6918 O 628.355 -5.15286 2.44616 0
M  V30 6919 O 627.289 -4.31599 4.1953 0
M  V30 6920 H 631.115 -1.358 2.71647 0
M  V30 6921 H 628.7 -0.608618 1.36441 0
M  V30 6922 H 630.582 -3.70575 2.0063 0
M  V30 6923 H 629.257 -3.08347 0.985067 0
M  V30 6924 H 628.164 -2.11102 3.08847 0
M  V30 6925 H 629.497 -2.79369 4.05233 0
M  V30 6926 N 631.149 -1.42148 -0.680565 0
M  V30 6927 C 632.398 -1.41604 -1.43636 0
M  V30 6928 C 632.711 -0.0337887 -1.95571 0
M  V30 6929 O 633.917 0.0942588 -2.71336 0
M  V30 6930 C 632.373 -2.49056 -2.59806 0
M  V30 6931 C 631.981 -3.9326 -2.14594 0
M  V30 6932 C 633.725 -2.5767 -3.37352 0
M  V30 6933 C 631.632 -4.92232 -3.27813 0
M  V30 6934 H 630.562 -0.526656 -0.539583 0
M  V30 6935 H 633.213 -1.68033 -0.737369 0
M  V30 6936 H 631.595 -2.15782 -3.32045 0
M  V30 6937 H 632.769 -4.35858 -1.49546 0
M  V30 6938 H 631.084 -3.88443 -1.50002 0
M  V30 6939 H 633.681 -3.28794 -4.21662 0
M  V30 6940 H 634.024 -1.61837 -3.83555 0
M  V30 6941 H 634.557 -2.90109 -2.72179 0
M  V30 6942 H 631.296 -5.89522 -2.86607 0
M  V30 6943 H 630.816 -4.5427 -3.91661 0
M  V30 6944 H 632.495 -5.13684 -3.93367 0
M  V30 6945 N 632.627 0.916307 -1.28225 0
M  V30 6946 C 633.855 1.69901 -1.18073 0
M  V30 6947 C 634.27 1.86988 0.260968 0
M  V30 6948 O 633.627 1.39505 1.17663 0
M  V30 6949 C 633.678 3.09254 -1.87201 0
M  V30 6950 O 633.399 2.92959 -3.2574 0
M  V30 6951 C 634.9 4.0362 -1.83319 0
M  V30 6952 H 632.12 0.531181 -0.409985 0
M  V30 6953 H 634.664 1.14703 -1.69303 0
M  V30 6954 H 632.819 3.61277 -1.39848 0
M  V30 6955 H 633.233 3.81139 -3.60324 0
M  V30 6956 H 634.707 4.98873 -2.36282 0
M  V30 6957 H 635.184 4.3176 -0.805007 0
M  V30 6958 H 635.79 3.57524 -2.3034 0
M  V30 6959 N 634.105 1.10431 1.1244 0
M  V30 6960 C 635.351 0.847972 1.84221 0
M  V30 6961 C 635.684 -0.624903 1.83871 0
M  V30 6962 O 634.959 -1.46074 1.28423 0
M  V30 6963 C 635.242 1.39695 3.319 0
M  V30 6964 C 635.095 2.93668 3.40704 0
M  V30 6965 C 636.414 1.03924 4.27654 0
M  V30 6966 H 633.533 0.309502 0.668863 0
M  V30 6967 H 636.175 1.36745 1.31912 0
M  V30 6968 H 634.325 0.955095 3.76577 0
M  V30 6969 H 635.997 3.46379 3.04662 0
M  V30 6970 H 634.24 3.30272 2.81252 0
M  V30 6971 H 634.911 3.27162 4.446 0
M  V30 6972 H 637.387 1.42049 3.91102 0
M  V30 6973 H 636.263 1.45027 5.29394 0
M  V30 6974 H 636.524 -0.051336 4.4207 0
M  V30 6975 N 635.583 -1.29855 0.893053 0
M  V30 6976 C 636.994 -1.77946 0.564998 0
M  V30 6977 C 637.345 -1.73339 -0.919134 0
M  V30 6978 O 636.47 -1.3152 -1.71847 0
M  V30 6979 C 637.065 -3.23118 1.01883 0
M  V30 6980 C 635.624 -3.69013 0.742051 0
M  V30 6981 C 634.771 -2.50121 1.19727 0
M  V30 6982 H 637.722 -1.16611 1.07646 0
M  V30 6983 H 637.743 -3.78875 0.351249 0
M  V30 6984 H 637.255 -3.26439 2.09903 0
M  V30 6985 H 635.356 -3.71173 -0.325816 0
M  V30 6986 H 635.469 -4.60117 1.33527 0
M  V30 6987 H 633.833 -2.47128 0.616418 0
M  V30 6988 H 634.616 -2.56174 2.28538 0
M  V30 6989 N 637.061 -0.65484 -1.43351 0
M  V30 6990 C 638.008 0.0357713 -2.30772 0
M  V30 6991 C 638.978 0.813035 -1.44841 0
M  V30 6992 O 640.163 0.789314 -1.73708 0
M  V30 6993 C 637.303 0.995084 -3.30442 0
M  V30 6994 C 636.416 0.21375 -4.31471 0
M  V30 6995 C 635.551 1.16701 -5.18222 0
M  V30 6996 C 634.59 0.376201 -6.10943 0
M  V30 6997 N 633.727 1.28113 -6.90313 0
M  V30 6998 H 638.567 -0.71559 -2.89281 0
M  V30 6999 H 636.104 -0.364645 -1.42509 0
M  V30 7000 H 638.062 1.5649 -3.86739 0
M  V30 7001 H 636.692 1.7133 -2.7358 0
M  V30 7002 H 635.744 -0.472377 -3.77456 0
M  V30 7003 H 637.056 -0.401103 -4.97185 0
M  V30 7004 H 636.21 1.8074 -5.79153 0
M  V30 7005 H 634.949 1.81577 -4.52638 0
M  V30 7006 H 633.954 -0.277534 -5.49099 0
M  V30 7007 H 635.179 -0.268178 -6.7857 0
M  V30 7008 H 633.125 1.91666 -6.27376 0
M  V30 7009 H 633.042 0.720879 -7.52555 0
M  V30 7010 H 634.31 1.90962 -7.55747 0
M  V30 7011 N 638.539 1.52521 -0.396863 0
M  V30 7012 C 639.486 2.26671 0.434624 0
M  V30 7013 C 640.456 1.28584 1.05144 0
M  V30 7014 O 641.641 1.57426 1.07804 0
M  V30 7015 C 638.781 3.08234 1.55196 0
M  V30 7016 C 637.894 4.21261 0.957262 0
M  V30 7017 C 637.029 4.90205 2.04627 0
M  V30 7018 C 636.068 5.95213 1.42787 0
M  V30 7019 N 635.205 6.57723 2.45651 0
M  V30 7020 H 640.045 2.973 -0.204139 0
M  V30 7021 H 637.582 1.46669 -0.112505 0
M  V30 7022 H 639.54 3.53819 2.2106 0
M  V30 7023 H 638.17 2.398 2.16092 0
M  V30 7024 H 637.222 3.79935 0.188005 0
M  V30 7025 H 638.534 4.96624 0.465416 0
M  V30 7026 H 637.688 5.39133 2.78246 0
M  V30 7027 H 636.427 4.14383 2.57174 0
M  V30 7028 H 635.432 5.45616 0.676968 0
M  V30 7029 H 636.657 6.72972 0.910255 0
M  V30 7030 H 634.603 5.84737 2.97353 0
M  V30 7031 H 634.52 7.28723 2.01243 0
M  V30 7032 H 635.788 7.11293 3.18876 0
M  V30 7033 N 640.017 0.126909 1.57088 0
M  V30 7034 C 640.947 -0.816847 2.18746 0
M  V30 7035 C 641.928 -1.27161 1.12979 0
M  V30 7036 O 643.113 -1.33279 1.41246 0
M  V30 7037 C 640.243 -2.06398 2.79315 0
M  V30 7038 C 639.197 -1.74673 3.90735 0
M  V30 7039 C 638.523 -3.06482 4.38147 0
M  V30 7040 C 639.823 -1.0089 5.12463 0
M  V30 7041 H 641.517 -0.303032 2.97863 0
M  V30 7042 H 639.063 -0.144314 1.43275 0
M  V30 7043 H 641.016 -2.72885 3.2111 0
M  V30 7044 H 639.74 -2.60118 1.975 0
M  V30 7045 H 638.399 -1.10572 3.49527 0
M  V30 7046 H 638.047 -3.58152 3.5318 0
M  V30 7047 H 637.747 -2.86025 5.13287 0
M  V30 7048 H 639.271 -3.74073 4.82599 0
M  V30 7049 H 640.685 -1.57546 5.51228 0
M  V30 7050 H 639.082 -0.905006 5.93237 0
M  V30 7051 H 640.152 0.00297335 4.849 0
M  V30 7052 N 641.495 -1.56914 -0.146875 0
M  V30 7053 C 642.425 -2.01308 -1.1831 0
M  V30 7054 C 643.406 -0.892664 -1.44795 0
M  V30 7055 O 644.591 -1.16048 -1.55713 0
M  V30 7056 C 641.721 -2.3938 -2.51624 0
M  V30 7057 C 640.675 -3.54608 -2.3966 0
M  V30 7058 C 640.001 -3.78493 -3.77686 0
M  V30 7059 C 641.301 -4.87269 -1.88058 0
M  V30 7060 H 642.995 -2.88123 -0.813964 0
M  V30 7061 H 640.541 -1.38615 -0.3901 0
M  V30 7062 H 642.494 -2.69037 -3.24341 0
M  V30 7063 H 641.218 -1.49502 -2.90373 0
M  V30 7064 H 639.877 -3.25116 -1.69396 0
M  V30 7065 H 639.525 -2.85866 -4.13871 0
M  V30 7066 H 639.225 -4.56039 -3.70543 0
M  V30 7067 H 640.749 -4.10576 -4.51951 0
M  V30 7068 H 642.163 -5.15644 -2.50568 0
M  V30 7069 H 640.56 -5.68622 -1.91805 0
M  V30 7070 H 641.63 -4.77634 -0.836277 0
M  V30 7071 N 642.974 0.416227 -1.52004 0
M  V30 7072 C 643.884 1.53147 -1.77717 0
M  V30 7073 C 644.9 1.609 -0.662368 0
M  V30 7074 O 646.076 1.77747 -0.946991 0
M  V30 7075 C 643.141 2.88948 -1.91598 0
M  V30 7076 C 642.202 2.9114 -3.15493 0
M  V30 7077 C 641.435 4.20464 -3.28703 0
M  V30 7078 O 641.658 5.13981 -2.47345 0
M  V30 7079 O 640.592 4.29368 -4.21813 0
M  V30 7080 H 644.418 1.34357 -2.72363 0
M  V30 7081 H 642.003 0.601373 -1.36762 0
M  V30 7082 H 643.885 3.69505 -2.02593 0
M  V30 7083 H 642.56 3.07821 -1.00141 0
M  V30 7084 H 641.467 2.09461 -3.09962 0
M  V30 7085 H 642.8 2.77216 -4.06709 0
M  V30 7086 N 644.452 1.42507 0.673017 0
M  V30 7087 C 645.68 1.46473 1.46128 0
M  V30 7088 C 646.095 0.0765912 1.88645 0
M  V30 7089 O 645.452 -0.909057 1.58248 0
M  V30 7090 C 645.503 2.39339 2.70923 0
M  V30 7091 O 645.224 3.72752 2.3019 0
M  V30 7092 C 646.725 2.52343 3.64469 0
M  V30 7093 H 643.945 0.49812 0.449575 0
M  V30 7094 H 646.489 1.87041 0.826802 0
M  V30 7095 H 644.644 2.02019 3.30556 0
M  V30 7096 H 645.058 4.22503 3.10791 0
M  V30 7097 H 646.532 3.2144 4.48754 0
M  V30 7098 H 647.009 1.56189 4.1049 0
M  V30 7099 H 647.615 2.90392 3.10729 0
M  V30 7100 N 645.93 -0.909495 1.28709 0
M  V30 7101 C 647.207 -1.63865 1.06806 0
M  V30 7102 C 647.587 -2.07445 -0.391143 0
M  V30 7103 O 646.935 -1.82269 -1.37805 0
M  V30 7104 C 647.145 -2.82692 2.04661 0
M  V30 7105 C 648.493 -3.5361 2.35042 0
M  V30 7106 O 649.517 -2.92847 2.02779 0
M  V30 7107 O 648.376 -4.63131 2.90124 0
M  V30 7108 H 645.47 -0.719065 0.408502 0
M  V30 7109 H 648.016 -0.958424 1.40044 0
M  V30 7110 H 646.788 -2.47614 3.0299 0
M  V30 7111 H 646.411 -3.58426 1.72095 0
M  V30 7112 N 647.408 -1.11026 -1.11852 0
M  V30 7113 C 648.633 -0.879064 -1.87849 0
M  V30 7114 C 649.058 0.565406 -1.79401 0
M  V30 7115 O 648.416 1.39886 -1.15333 0
M  V30 7116 C 648.464 -1.33985 -3.34784 0
M  V30 7117 O 647.568 -0.508803 -4.09249 0
M  V30 7118 H 646.909 -0.316992 -0.583448 0
M  V30 7119 H 649.439 -1.47863 -1.41413 0
M  V30 7120 H 649.449 -1.33248 -3.85628 0
M  V30 7121 H 648.124 -2.39172 -3.40249 0
M  V30 7122 H 646.701 -0.581913 -3.68332 0
M  V30 7123 N 648.886 1.2938 -0.899927 0
M  V30 7124 C 650.135 1.9483 -0.521937 0
M  V30 7125 C 650.448 1.71725 0.936473 0
M  V30 7126 O 651.654 2.31282 1.42199 0
M  V30 7127 C 650.11 3.48911 -0.88255 0
M  V30 7128 C 649.718 3.80815 -2.35974 0
M  V30 7129 C 651.462 4.20595 -0.57448 0
M  V30 7130 C 649.369 5.28142 -2.66121 0
M  V30 7131 H 648.299 0.729285 -0.191468 0
M  V30 7132 H 650.95 1.47103 -1.09695 0
M  V30 7133 H 649.332 3.95293 -0.236459 0
M  V30 7134 H 650.506 3.45291 -3.05141 0
M  V30 7135 H 648.821 3.22271 -2.63686 0
M  V30 7136 H 651.418 5.29031 -0.776556 0
M  V30 7137 H 651.761 4.13442 0.487005 0
M  V30 7138 H 652.294 3.79945 -1.17842 0
M  V30 7139 H 649.033 5.4036 -3.71068 0
M  V30 7140 H 648.553 5.64913 -2.01578 0
M  V30 7141 H 650.232 5.95738 -2.52399 0
M  V30 7142 N 650.364 0.662433 1.43002 0
M  V30 7143 C 651.592 0.187615 2.06048 0
M  V30 7144 C 652.007 -1.15039 1.49705 0
M  V30 7145 O 651.364 -1.71209 0.631956 0
M  V30 7146 C 651.415 0.100498 3.6136 0
M  V30 7147 O 651.136 1.38562 4.15611 0
M  V30 7148 C 652.637 -0.399298 4.41498 0
M  V30 7149 H 649.857 0.0941675 0.664359 0
M  V30 7150 H 652.401 0.905681 1.83351 0
M  V30 7151 H 650.556 -0.568181 3.83211 0
M  V30 7152 H 650.97 1.25084 5.09366 0
M  V30 7153 H 652.444 -0.409187 5.50481 0
M  V30 7154 H 652.921 -1.43232 4.15188 0
M  V30 7155 H 653.527 0.23721 4.24638 0
M  V30 7156 N 651.842 -1.52309 0.404946 0
M  V30 7157 C 652.772 -2.29805 -0.41376 0
M  V30 7158 C 653.753 -1.3384 -1.0498 0
M  V30 7159 O 654.938 -1.62745 -1.05961 0
M  V30 7160 C 652.068 -3.11639 -1.53292 0
M  V30 7161 C 651.022 -4.15616 -1.02211 0
M  V30 7162 C 650.348 -4.8577 -2.23455 0
M  V30 7163 C 651.648 -5.2224 -0.0790725 0
M  V30 7164 H 653.342 -2.98493 0.232878 0
M  V30 7165 H 650.888 -1.43552 0.113441 0
M  V30 7166 H 652.841 -3.64618 -2.11262 0
M  V30 7167 H 651.565 -2.40712 -2.20738 0
M  V30 7168 H 650.224 -3.63641 -0.46484 0
M  V30 7169 H 649.872 -4.11376 -2.89445 0
M  V30 7170 H 649.572 -5.56058 -1.89929 0
M  V30 7171 H 651.096 -5.4156 -2.82038 0
M  V30 7172 H 652.51 -5.70485 -0.567438 0
M  V30 7173 H 650.907 -5.99867 0.167167 0
M  V30 7174 H 651.977 -4.77078 0.867447 0
M  V30 7175 N 653.32 -0.135238 -1.57019 0
M  V30 7176 C 654.566 0.519563 -1.96032 0
M  V30 7177 C 654.899 1.65284 -1.01955 0
M  V30 7178 O 654.174 1.94408 -0.059727 0
M  V30 7179 C 654.457 1.0369 -3.44848 0
M  V30 7180 C 654.31 -0.0940754 -4.49702 0
M  V30 7181 C 655.629 1.92254 -3.95887 0
M  V30 7182 H 652.748 0.18739 -0.712779 0
M  V30 7183 H 655.39 -0.214086 -1.8879 0
M  V30 7184 H 653.54 1.66209 -3.5115 0
M  V30 7185 H 655.212 -0.73 -4.55487 0
M  V30 7186 H 653.455 -0.754924 -4.27181 0
M  V30 7187 H 654.126 0.309419 -5.51132 0
M  V30 7188 H 656.602 1.39581 -3.9199 0
M  V30 7189 H 655.478 2.25364 -5.00502 0
M  V30 7190 H 655.739 2.85513 -3.37543 0
M  V30 7191 N 654.798 1.5699 0.138552 0
M  V30 7192 C 655.728 2.01933 1.17241 0
M  V30 7193 C 656.709 0.90033 1.44319 0
M  V30 7194 O 657.894 1.16872 1.55095 0
M  V30 7195 C 655.024 2.40711 2.50351 0
M  V30 7196 C 653.978 3.55874 2.37776 0
M  V30 7197 C 653.304 3.80491 3.75674 0
M  V30 7198 C 654.604 4.8826 1.85472 0
M  V30 7199 H 656.298 2.88551 0.798672 0
M  V30 7200 H 653.844 1.3882 0.382743 0
M  V30 7201 H 655.797 2.70754 3.22909 0
M  V30 7202 H 654.521 1.5104 2.89576 0
M  V30 7203 H 653.18 3.2601 1.67669 0
M  V30 7204 H 652.828 2.88057 4.12349 0
M  V30 7205 H 652.528 4.57998 3.68119 0
M  V30 7206 H 654.052 4.12967 4.49767 0
M  V30 7207 H 655.466 5.16965 2.4783 0
M  V30 7208 H 653.863 5.69631 1.88787 0
M  V30 7209 H 654.933 4.78071 0.810935 0
M  V30 7210 N 656.276 -0.40816 1.52223 0
M  V30 7211 C 657.186 -1.52202 1.78526 0
M  V30 7212 C 658.202 -1.60546 0.670892 0
M  V30 7213 O 659.378 -1.77242 0.956404 0
M  V30 7214 C 656.443 -2.87928 1.93128 0
M  V30 7215 C 655.504 -2.89463 3.17033 0
M  V30 7216 C 654.737 -4.18715 3.30929 0
M  V30 7217 O 654.96 -5.12662 2.50067 0
M  V30 7218 O 653.894 -4.27125 4.24084 0
M  V30 7219 H 657.72 -1.32911 2.73072 0
M  V30 7220 H 655.305 -0.594112 1.37079 0
M  V30 7221 H 657.187 -3.68426 2.04549 0
M  V30 7222 H 655.862 -3.07285 1.01772 0
M  V30 7223 H 654.769 -2.07815 3.11069 0
M  V30 7224 H 656.102 -2.75055 4.08174 0
M  V30 7225 N 657.755 -1.42862 -0.66545 0
M  V30 7226 C 658.718 -1.46756 -1.76055 0
M  V30 7227 C 659.718 -0.353866 -1.56858 0
M  V30 7228 O 660.908 -0.615099 -1.62979 0
M  V30 7229 C 658.04 -1.30829 -3.14796 0
M  V30 7230 H 659.233 -2.44271 -1.73987 0
M  V30 7231 H 656.786 -1.29447 -0.875965 0
M  V30 7232 H 657.521 -0.342733 -3.22484 0
M  V30 7233 H 657.306 -2.11551 -3.30134 0
M  V30 7234 H 658.796 -1.36458 -3.94676 0
M  V30 7235 N 659.233 0.902656 -1.29189 0
M  V30 7236 C 660.479 1.65532 -1.17163 0
M  V30 7237 C 660.812 1.92216 0.276879 0
M  V30 7238 O 660.087 1.53048 1.20027 0
M  V30 7239 C 660.37 3.00629 -1.98228 0
M  V30 7240 C 660.223 2.81029 -3.51202 0
M  V30 7241 C 661.542 4.01321 -1.80635 0
M  V30 7242 H 658.661 0.60071 -0.426985 0
M  V30 7243 H 661.303 1.04578 -1.5863 0
M  V30 7244 H 659.453 3.52656 -1.62991 0
M  V30 7245 H 661.125 2.35927 -3.96404 0
M  V30 7246 H 659.368 2.1587 -3.76275 0
M  V30 7247 H 660.039 3.77014 -4.03192 0
M  V30 7248 H 662.515 3.58394 -2.11406 0
M  V30 7249 H 661.391 4.93792 -2.3971 0
M  V30 7250 H 661.652 4.35505 -0.760754 0
M  V30 7251 N 660.711 1.11618 1.11262 0
M  V30 7252 C 661.621 0.78898 2.20935 0
M  V30 7253 C 662.637 -0.21867 1.7262 0
M  V30 7254 O 663.813 -0.0543826 2.01327 0
M  V30 7255 C 660.878 0.239014 3.45875 0
M  V30 7256 C 659.939 1.3055 4.08968 0
M  V30 7257 C 659.172 0.781687 5.27944 0
M  V30 7258 O 659.395 -0.387605 5.69082 0
M  V30 7259 O 658.329 1.54734 5.81671 0
M  V30 7260 H 662.155 1.70477 2.51339 0
M  V30 7261 H 659.74 0.892203 1.19834 0
M  V30 7262 H 661.622 -0.0632312 4.21353 0
M  V30 7263 H 660.297 -0.649454 3.17118 0
M  V30 7264 H 659.204 1.66079 3.35214 0
M  V30 7265 H 660.537 2.16743 4.41909 0
M  V30 7266 N 662.189 -1.289 0.906776 0
M  V30 7267 C 663.099 -2.31256 0.394707 0
M  V30 7268 C 664.115 -1.66231 -0.514121 0
M  V30 7269 O 665.291 -1.97347 -0.401994 0
M  V30 7270 C 662.356 -3.44792 -0.363191 0
M  V30 7271 C 661.417 -4.25391 0.578012 0
M  V30 7272 C 660.65 -5.33506 -0.143811 0
M  V30 7273 O 660.873 -5.53786 -1.36665 0
M  V30 7274 O 659.807 -5.99673 0.5173 0
M  V30 7275 H 663.633 -2.77051 1.24405 0
M  V30 7276 H 661.218 -1.33466 0.671346 0
M  V30 7277 H 663.1 -4.139 -0.791503 0
M  V30 7278 H 661.775 -3.01093 -1.18848 0
M  V30 7279 H 660.682 -3.58899 1.05558 0
M  V30 7280 H 662.015 -4.72752 1.36992 0
M  V30 7281 O 663.706 -0.809245 -1.39762 0
M  V30 7282 H 664.397 -0.38643 -1.89806 0
M  V30 END ATOM
M  V30 BEGIN BOND
M  V30 END BOND
M  V30 END CTAB
M  END
$$$$
