drugbank_target|P30968 Gonadotropin-releasing hormone receptor (DB00007; DB00014; DB00050; DB00106; DB00644; DB00666; DB01406; DB05624; DB06494; DB06699; DB06719; DB06785; DB06788; DB06825; DB11619; DB11853; DB11979)
 OpenBabel12092119263D

  0  0  0     0  0            999 V3000
M  V30 BEGIN CTAB
M  V30 COUNTS 5377 5455 0 0 0
M  V30 BEGIN ATOM
M  V30 1 H -0.908 1.98254 -0.117106 0
M  V30 2 N 0 1.576 0 0
M  V30 3 C 0.933 2.03868 1.02534 0
M  V30 4 C 1.911 0.928543 1.3348 0
M  V30 5 O 3.095 1.19667 1.45644 0
M  V30 6 C 0.222 2.43627 2.35294 0
M  V30 7 C -0.732 3.65373 2.2001 0
M  V30 8 S 0.101 5.13292 1.52614 0
M  V30 9 C 1.257 5.56322 2.86805 0
M  V30 10 H 1.49 2.90518 0.631377 0
M  V30 11 H -0.977 1.52953 0.210867 0
M  V30 12 H 0.981 2.67203 3.11629 0
M  V30 13 H -0.358 1.57376 2.7183 0
M  V30 14 H -1.165 3.90944 3.18086 0
M  V30 15 H -1.563 3.418 1.51819 0
M  V30 16 H 0.729 5.58782 3.83104 0
M  V30 17 H 1.672 6.56266 2.65933 0
M  V30 18 H 2.08 4.83886 2.90714 0
M  V30 19 N 1.4781 -0.272755 1.55222 0
M  V30 20 C 2.4411 -1.32041 1.87344 0
M  V30 21 C 3.4411 -1.42342 0.74803 0
M  V30 22 O 4.6311 -1.41488 1.0162 0
M  V30 23 C 1.7631 -2.70173 2.07893 0
M  V30 24 H 2.9561 -1.04789 2.80997 0
M  V30 25 H 0.5091 -0.51083 1.47717 0
M  V30 26 H 1.2441 -3.02605 1.16622 0
M  V30 27 H 1.0291 -2.64082 2.89833 0
M  V30 28 H 2.5191 -3.45869 2.34017 0
M  V30 29 N 2.9562 -1.48159 -0.537278 0
M  V30 30 C 3.9042 -1.62573 -1.66352 0
M  V30 31 C 4.8982 -0.492366 -1.62087 0
M  V30 32 O 6.1042 -0.670847 -1.67032 0
M  V30 33 H 2.4792 -0.511992 -0.550789 0
M  V30 34 H 4.4502 -2.57176 -1.51337 0
M  V30 35 C 3.1992 -1.67583 -3.04649 0
M  V30 36 H 2.5222 -2.54151 -3.08622 0
M  V30 37 H 3.9622 -1.81713 -3.83088 0
M  V30 38 C 2.4212 -0.413039 -3.34358 0
M  V30 39 O 2.9512 0.477259 -3.98855 0
M  V30 40 N 1.1572 -0.286961 -2.8918 0
M  V30 41 H 0.7042 -1.01241 -2.36871 0
M  V30 42 H 0.6622 0.556963 -3.09427 0
M  V30 43 N 4.4343 0.785586 -1.36625 0
M  V30 44 C 5.6593 1.57963 -1.34397 0
M  V30 45 C 6.0843 1.87964 0.071526 0
M  V30 46 O 5.4423 1.48182 1.0446 0
M  V30 47 C 5.4903 2.87511 -2.17646 0
M  V30 48 O 4.5943 3.81281 -1.57158 0
M  V30 49 H 3.9353 0.479014 -0.459828 0
M  V30 50 H 6.4653 0.973411 -1.79961 0
M  V30 51 H 6.4753 3.36745 -2.30362 0
M  V30 52 H 5.1503 2.65002 -3.20541 0
M  V30 53 H 3.7273 3.39885 -1.53403 0
M  V30 54 N 5.9124 1.20967 1.01018 0
M  V30 55 C 6.8754 0.965918 2.07853 0
M  V30 56 C 7.8754 -0.0610545 1.60684 0
M  V30 57 O 9.0654 0.175681 1.73312 0
M  V30 58 C 6.1974 0.455513 3.37843 0
M  V30 59 H 7.3904 1.91365 2.3091 0
M  V30 60 H 4.9434 1.02594 1.17916 0
M  V30 61 H 5.6784 -0.497381 3.20463 0
M  V30 62 H 5.4634 1.19622 3.73407 0
M  V30 63 H 6.9534 0.304667 4.16487 0
M  V30 64 N 7.3905 -1.2043 1.01659 0
M  V30 65 C 8.6155 -1.94318 0.724942 0
M  V30 66 C 9.0405 -1.74266 -0.708034 0
M  V30 67 O 8.3985 -1.03694 -1.48719 0
M  V30 68 C 8.4465 -3.44486 1.06591 0
M  V30 69 O 7.5505 -4.12017 0.177599 0
M  V30 70 H 6.8915 -0.60708 0.26898 0
M  V30 71 H 9.4215 -1.52861 1.35995 0
M  V30 72 H 9.4315 -3.95106 1.01762 0
M  V30 73 H 8.1065 -3.58404 2.10997 0
M  V30 74 H 6.6835 -3.71821 0.283421 0
M  V30 75 N 8.8686 -0.792821 -1.36206 0
M  V30 76 C 10.2796 -0.429513 -1.81692 0
M  V30 77 C 10.6306 1.04695 -1.65932 0
M  V30 78 O 9.7556 1.81256 -1.18218 0
M  V30 79 C 10.3506 -0.772831 -3.29868 0
M  V30 80 C 8.9096 -0.462307 -3.7355 0
M  V30 81 C 8.0566 -1.00569 -2.5842 0
M  V30 82 H 11.0076 -0.985672 -1.24379 0
M  V30 83 H 11.0286 -0.0651928 -3.80444 0
M  V30 84 H 10.5406 -1.84747 -3.41307 0
M  V30 85 H 8.6416 0.604158 -3.67669 0
M  V30 86 H 8.7546 -0.985299 -4.68859 0
M  V30 87 H 7.1186 -0.428734 -2.51066 0
M  V30 88 H 7.9016 -2.08616 -2.72643 0
M  V30 89 N 10.3467 1.47872 -0.545128 0
M  V30 90 C 11.2567 2.33633 0.212746 0
M  V30 91 C 12.2727 1.4744 0.923983 0
M  V30 92 O 13.4487 1.80393 0.895572 0
M  V30 93 C 10.5137 3.23884 1.23693 0
M  V30 94 C 9.5747 4.25961 0.534417 0
M  V30 95 C 8.8077 5.11899 1.5098 0
M  V30 96 O 9.0307 5.00077 2.7437 0
M  V30 97 O 7.9647 5.92831 1.0409 0
M  V30 98 H 11.7907 2.99714 -0.490416 0
M  V30 99 H 9.3757 1.46235 -0.305871 0
M  V30 100 H 11.2577 3.79666 1.82843 0
M  V30 101 H 9.9327 2.60446 1.92222 0
M  V30 102 H 8.8397 3.73972 -0.0979679 0
M  V30 103 H 10.1727 4.92079 -0.109213 0
M  V30 104 N 11.8248 0.280983 1.55075 0
M  V30 105 C 12.7568 -0.637268 2.20163 0
M  V30 106 C 13.7698 -1.11298 1.18813 0
M  V30 107 O 14.9588 -1.03388 1.4551 0
M  V30 108 C 12.0588 -1.88199 2.81841 0
M  V30 109 C 11.2318 -1.55211 4.08936 0
M  V30 110 C 10.2908 -2.64991 4.54606 0
M  V30 111 O 9.3168 -2.30929 5.2025 0
M  V30 112 N 10.5188 -3.95161 4.25238 0
M  V30 113 H 13.2838 -0.0801694 2.99593 0
M  V30 114 H 10.8448 0.102329 1.61576 0
M  V30 115 H 12.8368 -2.60948 3.09335 0
M  V30 116 H 11.4068 -2.34799 2.06369 0
M  V30 117 H 10.6268 -0.658185 3.88666 0
M  V30 118 H 11.9148 -1.30681 4.91732 0
M  V30 119 H 11.3128 -4.25653 3.72607 0
M  V30 120 H 9.8698 -4.6427 4.5749 0
M  V30 121 N 13.3029 -1.57598 0.00835791 0
M  V30 122 C 14.2509 -2.10078 -0.998508 0
M  V30 123 C 15.2449 -1.02262 -1.35051 0
M  V30 124 O 16.4509 -1.20719 -1.33518 0
M  V30 125 H 12.8259 -0.670903 -0.339696 0
M  V30 126 H 14.7969 -2.93648 -0.530398 0
M  V30 127 C 13.5459 -2.62615 -2.27879 0
M  V30 128 H 12.8689 -3.45213 -2.01662 0
M  V30 129 H 14.3089 -3.03004 -2.96588 0
M  V30 130 C 12.7679 -1.54407 -2.99433 0
M  V30 131 O 13.2979 -0.931812 -3.90743 0
M  V30 132 N 11.5039 -1.2695 -2.61404 0
M  V30 133 H 11.0509 -1.76924 -1.87232 0
M  V30 134 H 11.0089 -0.547704 -3.09593 0
M  V30 135 N 14.781 0.264519 -1.55364 0
M  V30 136 C 15.713 1.34965 -1.85248 0
M  V30 137 C 16.726 1.45136 -0.737525 0
M  V30 138 O 17.915 1.46801 -1.01547 0
M  V30 139 C 15.015 2.73008 -2.00797 0
M  V30 140 C 14.188 2.85324 -3.31525 0
M  V30 141 C 13.247 4.04097 -3.37034 0
M  V30 142 O 12.273 3.94455 -4.10358 0
M  V30 143 N 13.475 5.16458 -2.65049 0
M  V30 144 H 16.24 1.09672 -2.78913 0
M  V30 145 H 13.801 0.454635 -1.55386 0
M  V30 146 H 15.793 3.50772 -2.01844 0
M  V30 147 H 14.363 2.91087 -1.1396 0
M  V30 148 H 13.583 1.94377 -3.42945 0
M  V30 149 H 14.871 2.9049 -4.17724 0
M  V30 150 H 14.269 5.27181 -2.05175 0
M  V30 151 H 12.826 5.92422 -2.71809 0
M  V30 152 N 16.2591 1.48442 0.529413 0
M  V30 153 C 17.2071 1.63452 1.65487 0
M  V30 154 C 18.2011 0.500955 1.61823 0
M  V30 155 O 19.4071 0.679695 1.66674 0
M  V30 156 H 15.7821 0.514905 0.548066 0
M  V30 157 H 17.7531 2.57975 1.49971 0
M  V30 158 C 16.5021 1.69196 3.03756 0
M  V30 159 H 15.8251 2.55784 3.07269 0
M  V30 160 H 17.2651 1.83743 3.82119 0
M  V30 161 C 15.7241 0.430765 3.34135 0
M  V30 162 O 16.2541 -0.4561 3.99102 0
M  V30 163 N 14.4601 0.302293 2.89023 0
M  V30 164 H 14.0071 1.02496 2.36331 0
M  V30 165 H 13.9651 -0.540546 3.09718 0
M  V30 166 N 17.7372 -0.778329 1.37039 0
M  V30 167 C 18.6872 -1.88142 1.28789 0
M  V30 168 C 19.6712 -1.59923 0.177063 0
M  V30 169 O 20.8632 -1.72165 0.410873 0
M  V30 170 C 17.9922 -3.25518 1.09055 0
M  V30 171 C 17.0782 -3.5971 2.24654 0
M  V30 172 N 17.4692 -3.65131 3.50018 0
M  V30 173 C 15.7672 -3.89837 2.16663 0
M  V30 174 C 16.4682 -3.95882 4.26207 0
M  V30 175 N 15.4442 -4.11441 3.55271 0
M  V30 176 H 19.2462 -1.90575 2.23737 0
M  V30 177 H 16.7602 -0.974435 1.29917 0
M  V30 178 H 18.7572 -4.04423 1.0123 0
M  V30 179 H 17.4172 -3.24353 0.15018 0
M  V30 180 H 18.4282 -3.475 3.84011 0
M  V30 181 H 15.1052 -3.96533 1.30645 0
M  V30 182 H 16.4952 -4.06907 5.34674 0
M  V30 183 N 19.2153 -1.21501 -1.00376 0
M  V30 184 C 20.4553 -1.04444 -1.75701 0
M  V30 185 C 20.8193 0.414644 -1.87469 0
M  V30 186 O 22.0203 0.705763 -2.59369 0
M  V30 187 C 20.2913 -1.72389 -3.13077 0
M  V30 188 S 21.8503 -1.70604 -4.04277 0
M  V30 189 H 18.6683 -0.374249 -0.604532 0
M  V30 190 H 21.2703 -1.54267 -1.20091 0
M  V30 191 H 19.9743 -2.77734 -3.02146 0
M  V30 192 H 19.5053 -1.22751 -3.73759 0
M  V30 193 H 21.5203 -0.748012 -4.9053 0
M  V30 194 N 20.6934 1.19889 -1.02296 0
M  V30 195 C 21.9184 1.9393 -0.735237 0
M  V30 196 C 22.3434 1.74639 0.698782 0
M  V30 197 O 21.7014 1.04481 1.48167 0
M  V30 198 C 21.7494 3.43916 -1.08417 0
M  V30 199 O 20.8534 4.11917 -0.199446 0
M  V30 200 H 20.1944 0.605645 -0.272196 0
M  V30 201 H 22.7244 1.52137 -1.36804 0
M  V30 202 H 22.7344 3.9456 -1.03856 0
M  V30 203 H 21.4094 3.5728 -2.12894 0
M  V30 204 H 19.9864 3.71666 -0.303136 0
M  V30 205 N 22.1715 0.800033 1.35784 0
M  V30 206 C 23.1345 0.211565 2.28221 0
M  V30 207 C 24.1345 -0.59728 1.49296 0
M  V30 208 O 25.3245 -0.416721 1.69142 0
M  V30 209 C 22.4565 -0.705846 3.33513 0
M  V30 210 H 23.6495 1.02677 2.81776 0
M  V30 211 H 21.2025 0.570211 1.45528 0
M  V30 212 H 21.9375 -1.54498 2.85133 0
M  V30 213 H 21.7225 -0.127655 3.91892 0
M  V30 214 H 23.2125 -1.11211 4.02519 0
M  V30 215 N 23.6496 -1.47581 0.552962 0
M  V30 216 C 24.8986 -2.01684 0.0251995 0
M  V30 217 C 25.2116 -1.43317 -1.33115 0
M  V30 218 O 26.4176 -1.89057 -1.94858 0
M  V30 219 C 24.8736 -3.599 -0.00542052 0
M  V30 220 C 24.4816 -4.27257 1.34742 0
M  V30 221 C 26.2256 -4.21768 -0.4808 0
M  V30 222 C 24.1326 -5.77467 1.27614 0
M  V30 223 H 23.0626 -0.753979 0.00565033 0
M  V30 224 H 25.7136 -1.69616 0.70018 0
M  V30 225 H 24.0956 -3.88911 -0.745961 0
M  V30 226 H 25.2696 -4.09893 2.10534 0
M  V30 227 H 23.5846 -3.77358 1.76039 0
M  V30 228 H 26.1816 -5.31838 -0.55246 0
M  V30 229 H 26.5246 -3.88651 -1.49184 0
M  V30 230 H 27.0576 -3.97273 0.204752 0
M  V30 231 H 23.7966 -6.15196 2.26304 0
M  V30 232 H 23.3166 -5.9718 0.55996 0
M  V30 233 H 24.9956 -6.3959 0.976421 0
M  V30 234 N 25.1277 -0.289203 -1.54924 0
M  V30 235 C 26.0757 0.607966 -2.24514 0
M  V30 236 C 27.0697 1.14655 -1.24702 0
M  V30 237 O 28.2757 1.09856 -1.4259 0
M  V30 238 H 24.6507 0.21464 -0.720718 0
M  V30 239 H 26.6217 -0.00164182 -2.984 0
M  V30 240 C 25.3707 1.77406 -2.99036 0
M  V30 241 H 24.6937 1.36884 -3.75637 0
M  V30 242 H 26.1337 2.37814 -3.51028 0
M  V30 243 C 24.5927 2.67107 -2.05318 0
M  V30 244 O 25.1227 3.6787 -1.61353 0
M  V30 245 N 23.3287 2.34582 -1.71521 0
M  V30 246 H 22.8757 1.52688 -2.07471 0
M  V30 247 H 22.8337 2.94867 -1.0909 0
M  V30 248 N 26.6058 1.57591 -0.0167156 0
M  V30 249 C 27.5538 2.10604 0.987353 0
M  V30 250 C 28.5478 1.02977 1.34507 0
M  V30 251 O 29.7538 1.21425 1.32875 0
M  V30 252 H 26.1288 0.672695 0.336134 0
M  V30 253 H 28.0998 2.93925 0.514817 0
M  V30 254 C 26.8488 2.6382 2.26483 0
M  V30 255 H 26.1718 3.46278 1.99829 0
M  V30 256 H 27.6118 3.04573 2.94977 0
M  V30 257 C 26.0708 1.55992 2.9861 0
M  V30 258 O 26.6008 0.952521 3.90243 0
M  V30 259 N 24.8068 1.28335 2.60727 0
M  V30 260 H 24.3538 1.77914 1.86291 0
M  V30 261 H 24.3118 0.564115 3.09298 0
M  V30 262 N 28.0839 -0.256276 1.55502 0
M  V30 263 C 29.3089 -1.00766 1.81276 0
M  V30 264 C 29.7339 -1.78524 0.59252 0
M  V30 265 O 29.0919 -1.75413 -0.45827 0
M  V30 266 C 29.1399 -1.92869 3.04687 0
M  V30 267 O 28.2439 -3.019 2.80945 0
M  V30 268 H 27.5849 -0.287224 0.598664 0
M  V30 269 H 30.1149 -0.280109 2.02674 0
M  V30 270 H 30.1249 -2.34511 3.33869 0
M  V30 271 H 28.7999 -1.35689 3.93143 0
M  V30 272 H 27.3769 -2.64454 2.62904 0
M  V30 273 N 29.562 -1.4872 -0.521534 0
M  V30 274 C 30.811 -1.56419 -1.27341 0
M  V30 275 C 31.124 -0.246805 -1.94037 0
M  V30 276 O 32.33 -0.202122 -2.70747 0
M  V30 277 C 30.786 -2.75896 -2.31105 0
M  V30 278 C 30.394 -4.14311 -1.70441 0
M  V30 279 C 32.138 -2.92913 -3.07249 0
M  V30 280 C 30.045 -5.25038 -2.72194 0
M  V30 281 H 28.975 -0.582344 -0.478949 0
M  V30 282 H 31.626 -1.75071 -0.549779 0
M  V30 283 H 30.008 -2.50697 -3.06541 0
M  V30 284 H 31.182 -4.49564 -1.01136 0
M  V30 285 H 29.497 -4.02482 -1.06759 0
M  V30 286 H 32.094 -3.72805 -3.83302 0
M  V30 287 H 32.437 -2.02689 -3.63625 0
M  V30 288 H 32.97 -3.18054 -2.38928 0
M  V30 289 H 29.709 -6.17255 -2.20627 0
M  V30 290 H 29.229 -4.94263 -3.39801 0
M  V30 291 H 30.908 -5.53508 -3.35019 0
M  V30 292 N 31.0401 0.771051 -1.3745 0
M  V30 293 C 32.4511 1.34737 -1.29239 0
M  V30 294 C 32.8021 1.96109 0.0596908 0
M  V30 295 O 31.9271 1.93865 0.961534 0
M  V30 296 C 32.5221 2.44973 -2.34037 0
M  V30 297 C 31.0811 2.98372 -2.29458 0
M  V30 298 C 30.2281 1.71595 -2.17831 0
M  V30 299 H 33.1791 0.571256 -1.48062 0
M  V30 300 H 33.2001 3.24471 -1.98744 0
M  V30 301 H 32.7121 2.00276 -3.32432 0
M  V30 302 H 30.8131 3.47443 -1.34589 0
M  V30 303 H 30.9261 3.53939 -3.229 0
M  V30 304 H 29.2901 1.94547 -1.64388 0
M  V30 305 H 30.0731 1.29001 -3.18141 0
M  V30 306 N 32.5182 1.22032 0.997298 0
M  V30 307 C 33.4482 1.01065 2.10495 0
M  V30 308 C 34.4292 -0.0669542 1.69968 0
M  V30 309 O 35.6142 0.0943987 1.9397 0
M  V30 310 C 32.7442 0.582874 3.42374 0
M  V30 311 C 31.6982 1.60592 3.96729 0
M  V30 312 C 31.0242 1.03412 5.24605 0
M  V30 313 C 32.3242 2.99478 4.27914 0
M  V30 314 H 34.0182 1.93708 2.28292 0
M  V30 315 H 31.5642 0.932761 1.09707 0
M  V30 316 H 33.5172 0.423332 4.19268 0
M  V30 317 H 32.2412 -0.379213 3.24391 0
M  V30 318 H 30.9002 1.75316 3.21963 0
M  V30 319 H 30.5482 0.063518 5.0296 0
M  V30 320 H 30.2482 1.71754 5.61938 0
M  V30 321 H 31.7722 0.886066 6.04137 0
M  V30 322 H 33.1862 2.88153 4.95622 0
M  V30 323 H 31.5832 3.64903 4.76409 0
M  V30 324 H 32.6532 3.49742 3.3587 0
M  V30 325 N 33.9963 -1.19345 1.0293 0
M  V30 326 C 34.9293 -2.21347 0.555029 0
M  V30 327 C 35.9073 -1.57492 -0.404351 0
M  V30 328 O 37.0913 -1.85741 -0.321352 0
M  V30 329 C 34.2183 -3.38163 -0.19064 0
M  V30 330 C 33.2643 -4.20375 0.720236 0
M  V30 331 S 34.0973 -4.88371 2.19668 0
M  V30 332 C 35.2533 -6.08597 1.46153 0
M  V30 333 H 35.4863 -2.61235 1.41929 0
M  V30 334 H 33.0193 -1.29598 0.839272 0
M  V30 335 H 34.9773 -4.05871 -0.614724 0
M  V30 336 H 33.6383 -2.9671 -1.03063 0
M  V30 337 H 32.8313 -5.03793 0.14455 0
M  V30 338 H 32.4333 -3.57987 1.08266 0
M  V30 339 H 34.7253 -6.73354 0.748357 0
M  V30 340 H 35.6683 -6.7065 2.27233 0
M  V30 341 H 36.0763 -5.56297 0.958842 0
M  V30 342 N 35.4744 -0.807222 -1.35358 0
M  V30 343 C 36.4064 -0.175717 -2.28525 0
M  V30 344 C 37.4194 0.625354 -1.5031 0
M  V30 345 O 38.6084 0.457611 -1.72535 0
M  V30 346 C 35.7084 0.773471 -3.29956 0
M  V30 347 C 34.8814 0.0186296 -4.37396 0
M  V30 348 C 33.9404 0.886395 -5.18681 0
M  V30 349 O 32.9664 0.337106 -5.68201 0
M  V30 350 N 34.1684 2.20839 -5.36852 0
M  V30 351 H 36.9334 -0.976091 -2.83359 0
M  V30 352 H 34.4944 -0.662737 -1.47714 0
M  V30 353 H 36.4864 1.35824 -3.81227 0
M  V30 354 H 35.0564 1.47465 -2.75632 0
M  V30 355 H 34.2764 -0.747349 -3.87051 0
M  V30 356 H 35.5644 -0.501577 -5.06322 0
M  V30 357 H 34.9624 2.67858 -4.98265 0
M  V30 358 H 33.5194 2.74237 -5.91301 0
M  V30 359 N 36.9525 1.47285 -0.560781 0
M  V30 360 C 38.2005 2.02064 -0.0379868 0
M  V30 361 C 38.5215 1.43711 1.31803 0
M  V30 362 O 37.7915 0.61362 1.86042 0
M  V30 363 H 36.3715 0.746918 -0.0110531 0
M  V30 364 H 39.0335 1.80648 -0.731598 0
M  V30 365 H 38.1295 3.12064 0.0474463 0
M  V30 366 N 38.4306 0.297415 1.54768 0
M  V30 367 C 39.3786 -0.596051 2.24833 0
M  V30 368 C 40.3726 -1.13992 1.25308 0
M  V30 369 O 41.5786 -1.09098 1.4317 0
M  V30 370 H 37.9536 -0.210814 0.721846 0
M  V30 371 H 39.9246 0.0174667 2.98395 0
M  V30 372 C 38.6736 -1.75818 2.99972 0
M  V30 373 H 37.9966 -1.3489 3.76357 0
M  V30 374 H 39.4366 -2.35949 3.52284 0
M  V30 375 C 37.8956 -2.66014 2.06732 0
M  V30 376 O 38.4256 -3.67009 1.63302 0
M  V30 377 N 36.6316 -2.33669 1.72763 0
M  V30 378 H 36.1786 -1.51586 2.08277 0
M  V30 379 H 36.1366 -2.94285 1.10652 0
M  V30 380 N 39.9087 -1.5758 0.0250728 0
M  V30 381 C 40.8387 -2.13007 -0.956575 0
M  V30 382 C 41.8197 -1.0452 -1.342 0
M  V30 383 O 43.0047 -1.32332 -1.42133 0
M  V30 384 C 40.1347 -2.65386 -2.24026 0
M  V30 385 C 39.0887 -3.78623 -1.99571 0
M  V30 386 C 38.4147 -4.17414 -3.3417 0
M  V30 387 C 39.7147 -5.04867 -1.33814 0
M  V30 388 H 41.4087 -2.9528 -0.494991 0
M  V30 389 H 38.9547 -1.42042 -0.236651 0
M  V30 390 H 40.9077 -3.02794 -2.93076 0
M  V30 391 H 39.6317 -1.80268 -2.72343 0
M  V30 392 H 38.2907 -3.41646 -1.32941 0
M  V30 393 H 37.9387 -3.29284 -3.80238 0
M  V30 394 H 37.6387 -4.93719 -3.18615 0
M  V30 395 H 39.1627 -4.57402 -4.04495 0
M  V30 396 H 40.5767 -5.39888 -1.92857 0
M  V30 397 H 38.9737 -5.86144 -1.28669 0
M  V30 398 H 40.0437 -4.83904 -0.310561 0
M  V30 399 N 41.3868 0.248026 -1.55636 0
M  V30 400 C 42.7978 0.817177 -1.67866 0
M  V30 401 C 43.1488 1.86069 -0.622322 0
M  V30 402 O 42.2738 2.15157 0.231618 0
M  V30 403 C 42.8688 1.489 -3.04326 0
M  V30 404 C 41.4278 2.00587 -3.185 0
M  V30 405 C 40.5748 0.856573 -2.63739 0
M  V30 406 H 43.5258 0.0238579 -1.58682 0
M  V30 407 H 43.5468 2.35698 -2.98708 0
M  V30 408 H 43.0588 0.729279 -3.81186 0
M  V30 409 H 41.1598 2.79443 -2.4646 0
M  V30 410 H 41.2728 2.20402 -4.25393 0
M  V30 411 H 39.6368 1.25678 -2.21534 0
M  V30 412 H 40.4198 0.109953 -3.43124 0
M  V30 413 N 42.8649 1.48995 0.513639 0
M  V30 414 C 44.0929 1.61531 1.29288 0
M  V30 415 C 44.5079 0.281801 1.86685 0
M  V30 416 O 43.8649 -0.731111 1.67215 0
M  V30 417 C 43.9159 2.67449 2.43215 0
M  V30 418 O 43.6369 3.95626 1.88179 0
M  V30 419 C 45.1379 2.90575 3.34785 0
M  V30 420 H 42.3579 0.544165 0.392588 0
M  V30 421 H 44.9019 1.9494 0.617956 0
M  V30 422 H 43.0569 2.36853 3.0656 0
M  V30 423 H 43.4709 4.53868 2.62876 0
M  V30 424 H 44.9449 3.68449 4.11035 0
M  V30 425 H 45.4219 2.00011 3.91015 0
M  V30 426 H 46.0279 3.22538 2.77218 0
M  V30 427 N 44.343 -0.763751 1.37857 0
M  V30 428 C 45.273 -1.89103 1.36975 0
M  V30 429 C 46.254 -1.68439 0.237152 0
M  V30 430 O 47.439 -1.8918 0.438713 0
M  V30 431 C 44.569 -3.26496 1.18395 0
M  V30 432 C 43.523 -3.61741 2.28751 0
M  V30 433 C 42.849 -4.97762 1.95286 0
M  V30 434 C 44.149 -3.67665 3.70972 0
M  V30 435 H 45.843 -1.90099 2.31307 0
M  V30 436 H 43.389 -0.91319 1.11341 0
M  V30 437 H 45.342 -4.05003 1.16406 0
M  V30 438 H 44.066 -3.25955 0.205215 0
M  V30 439 H 42.725 -2.85547 2.29909 0
M  V30 440 H 42.373 -4.93769 0.959221 0
M  V30 441 H 42.073 -5.22313 2.69189 0
M  V30 442 H 43.597 -5.7866 1.94898 0
M  V30 443 H 45.011 -4.36307 3.719 0
M  V30 444 H 43.408 -4.03718 4.43995 0
M  V30 445 H 44.478 -2.68134 4.0402 0
M  V30 446 N 45.8211 -1.22559 -0.990812 0
M  V30 447 C 47.0491 -1.07779 -1.76611 0
M  V30 448 C 47.4641 0.371513 -1.85109 0
M  V30 449 O 46.8211 1.25737 -1.32274 0
M  V30 450 C 46.8721 -1.68512 -3.19822 0
M  V30 451 O 46.5931 -3.07774 -3.1178 0
M  V30 452 C 48.0941 -1.59035 -4.13791 0
M  V30 453 H 45.3141 -0.377729 -0.554583 0
M  V30 454 H 47.8581 -1.62195 -1.24551 0
M  V30 455 H 46.0131 -1.18154 -3.68942 0
M  V30 456 H 46.4271 -3.37062 -4.01858 0
M  V30 457 H 47.9011 -2.0625 -5.1202 0
M  V30 458 H 48.3781 -0.547273 -4.35777 0
M  V30 459 H 48.9841 -2.08709 -3.70568 0
M  V30 460 N 47.2992 1.18797 -1.03562 0
M  V30 461 C 48.2292 2.24472 -0.643019 0
M  V30 462 C 49.2102 1.66433 0.351283 0
M  V30 463 O 50.3952 1.92803 0.232505 0
M  V30 464 C 47.5252 3.473 4.24935e-05 0
M  V30 465 C 46.4792 4.18055 -0.917257 0
M  V30 466 C 45.8052 5.34519 -0.138941 0
M  V30 467 C 47.1052 4.72109 -2.23407 0
M  V30 468 H 48.7992 2.57566 -1.52643 0
M  V30 469 H 46.3452 1.23806 -0.735394 0
M  V30 470 H 48.2982 4.20426 0.286383 0
M  V30 471 H 47.0222 3.13424 0.918299 0
M  V30 472 H 45.6812 3.46821 -1.1879 0
M  V30 473 H 45.3292 4.96891 0.781562 0
M  V30 474 H 45.0292 5.82794 -0.750005 0
M  V30 475 H 46.5532 6.10438 0.1405 0
M  V30 476 H 47.9672 5.36955 -2.00879 0
M  V30 477 H 46.3642 5.30897 -2.79765 0
M  V30 478 H 47.4342 3.89807 -2.88407 0
M  V30 479 N 48.7773 0.814389 1.34928 0
M  V30 480 C 50.0023 0.410097 2.03305 0
M  V30 481 C 50.4273 -0.973464 1.60951 0
M  V30 482 O 49.7853 -1.63185 0.789964 0
M  V30 483 C 49.8333 0.51049 3.56968 0
M  V30 484 O 48.9373 -0.473035 4.09678 0
M  V30 485 H 48.2783 0.170088 0.641846 0
M  V30 486 H 50.8083 1.10244 1.72358 0
M  V30 487 H 50.8183 0.383135 4.06197 0
M  V30 488 H 49.4933 1.51963 3.87144 0
M  V30 489 H 48.0703 -0.305272 3.71648 0
M  V30 490 N 50.2554 -1.46986 0.568584 0
M  V30 491 C 51.5034 -2.02041 0.0487022 0
M  V30 492 C 51.8244 -1.44408 -1.31039 0
M  V30 493 O 51.0944 -0.623477 -1.85714 0
M  V30 494 H 49.6744 -0.746849 0.015014 0
M  V30 495 H 52.3364 -1.80257 0.741168 0
M  V30 496 H 51.4324 -3.12085 -0.0308961 0
M  V30 497 N 51.7335 -0.305618 -1.54608 0
M  V30 498 C 52.6805 0.568421 -2.23691 0
M  V30 499 C 53.6505 1.12592 -1.22116 0
M  V30 500 O 54.8355 1.16959 -1.50749 0
M  V30 501 C 51.9755 1.7322 -2.98477 0
M  V30 502 C 51.0885 1.20566 -4.14835 0
M  V30 503 C 50.2235 2.33368 -4.77193 0
M  V30 504 C 49.2625 1.7787 -5.85686 0
M  V30 505 N 48.3995 2.84263 -6.4198 0
M  V30 506 H 53.2395 -0.0272867 -2.97988 0
M  V30 507 H 50.7765 -0.0252363 -1.47078 0
M  V30 508 H 52.7345 2.41675 -3.40072 0
M  V30 509 H 51.3645 2.29947 -2.26548 0
M  V30 510 H 50.4165 0.413223 -3.78149 0
M  V30 511 H 51.7285 0.759417 -4.92985 0
M  V30 512 H 50.8825 3.09761 -5.21664 0
M  V30 513 H 49.6215 2.8132 -3.98385 0
M  V30 514 H 48.6265 0.99968 -5.40635 0
M  V30 515 H 49.8515 1.30816 -6.66381 0
M  V30 516 H 47.7975 3.31541 -5.66053 0
M  V30 517 H 47.7145 2.44149 -7.15491 0
M  V30 518 H 48.9825 3.6054 -6.91109 0
M  V30 519 N 53.2116 1.57565 -0.0334293 0
M  V30 520 C 54.4606 1.91155 0.643639 0
M  V30 521 C 54.7736 0.91192 1.73042 0
M  V30 522 O 55.9796 1.13923 2.46442 0
M  V30 523 C 54.4356 3.39443 1.1961 0
M  V30 524 C 54.0436 4.47774 0.142381 0
M  V30 525 C 55.7876 3.82094 1.84944 0
M  V30 526 C 53.6946 5.87162 0.706727 0
M  V30 527 H 52.6246 0.713368 0.244176 0
M  V30 528 H 55.2756 1.8323 -0.0994323 0
M  V30 529 H 53.6576 3.42313 1.99092 0
M  V30 530 H 54.8316 4.56469 -0.630296 0
M  V30 531 H 53.1466 4.14352 -0.412446 0
M  V30 532 H 55.7436 4.83591 2.2813 0
M  V30 533 H 56.0866 3.17386 2.69392 0
M  V30 534 H 56.6196 3.81665 1.12145 0
M  V30 535 H 53.3586 6.55424 -0.0997178 0
M  V30 536 H 52.8786 5.82064 1.44779 0
M  V30 537 H 54.5576 6.35866 1.19514 0
M  V30 538 N 54.6897 -0.239769 1.55765 0
M  V30 539 C 56.1057 -0.588624 1.48349 0
M  V30 540 C 56.3057 -1.88005 0.72502 0
M  V30 541 O 55.3617 -2.51186 0.257269 0
M  V30 542 C 56.6747 -0.68474 2.928 0
M  V30 543 C 58.2227 -0.77659 3.03213 0
M  V30 544 C 58.6977 -0.904207 4.48986 0
M  V30 545 N 60.1887 -0.968896 4.52953 0
M  V30 546 C 60.9237 -1.08703 5.63002 0
M  V30 547 N 60.4197 -1.17026 6.82845 0
M  V30 548 N 62.2127 -1.12074 5.50814 0
M  V30 549 H 54.3637 0.607911 2.03515 0
M  V30 550 H 56.6267 0.21083 0.924259 0
M  V30 551 H 56.3327 0.194284 3.51163 0
M  V30 552 H 56.2067 -1.55435 3.43686 0
M  V30 553 H 58.5937 -1.64606 2.44926 0
M  V30 554 H 58.6747 0.118315 2.55526 0
M  V30 555 H 58.3187 -0.0392633 5.07885 0
M  V30 556 H 58.2487 -1.81426 4.9436 0
M  V30 557 H 60.7397 -0.915633 3.6664 0
M  V30 558 H 61.0527 -1.25966 7.62465 0
M  V30 559 H 59.3977 -1.13971 6.85591 0
M  V30 560 H 62.5887 -1.05226 4.5612 0
M  V30 561 H 62.7617 -1.20936 6.36615 0
M  V30 562 N 56.1678 -1.49265 -0.50573 0
M  V30 563 C 57.4138 -1.58748 -1.26202 0
M  V30 564 C 57.7468 -0.271227 -1.92297 0
M  V30 565 O 57.0218 0.724831 -1.80489 0
M  V30 566 C 57.3048 -2.74332 -2.33268 0
M  V30 567 C 57.1578 -4.15737 -1.71705 0
M  V30 568 C 58.4768 -2.85576 -3.34865 0
M  V30 569 H 55.5958 -0.577826 -0.457478 0
M  V30 570 H 58.2378 -1.81532 -0.560897 0
M  V30 571 H 56.3878 -2.55036 -2.93068 0
M  V30 572 H 58.0598 -4.46537 -1.15769 0
M  V30 573 H 56.3028 -4.21605 -1.02135 0
M  V30 574 H 56.9738 -4.92477 -2.49341 0
M  V30 575 H 59.4498 -3.03127 -2.8505 0
M  V30 576 H 58.3258 -3.68135 -4.07146 0
M  V30 577 H 58.5868 -1.94732 -3.96903 0
M  V30 578 N 57.6459 0.756429 -1.3826 0
M  V30 579 C 58.8739 1.54565 -1.3754 0
M  V30 580 C 59.2889 1.88767 0.0355331 0
M  V30 581 O 58.6459 1.52572 1.0014 0
M  V30 582 C 58.6969 2.84654 -2.22833 0
M  V30 583 O 58.4179 2.51912 -3.5843 0
M  V30 584 C 59.9189 3.78807 -2.30261 0
M  V30 585 H 57.1389 0.478353 -0.470553 0
M  V30 586 H 59.6829 0.936381 -1.81803 0
M  V30 587 H 57.8379 3.41965 -1.8204 0
M  V30 588 H 58.2519 3.35325 -4.03308 0
M  V30 589 H 59.7259 4.67045 -2.94233 0
M  V30 590 H 60.2029 4.19038 -1.31545 0
M  V30 591 H 60.8089 3.2742 -2.71433 0
M  V30 592 N 59.124 1.23083 0.984299 0
M  V30 593 C 60.37 1.06214 1.72761 0
M  V30 594 C 60.703 -0.400584 1.90024 0
M  V30 595 O 59.978 -1.29672 1.44967 0
M  V30 596 C 60.261 1.78375 3.12817 0
M  V30 597 C 60.114 3.32296 3.03149 0
M  V30 598 C 61.433 1.54309 4.12161 0
M  V30 599 H 58.552 0.387251 0.627061 0
M  V30 600 H 61.194 1.51536 1.14616 0
M  V30 601 H 59.344 1.39848 3.62457 0
M  V30 602 H 61.016 3.8032 2.61064 0
M  V30 603 H 59.259 3.6153 2.39747 0
M  V30 604 H 59.93 3.77972 4.02295 0
M  V30 605 H 62.406 1.87791 3.71314 0
M  V30 606 H 61.282 2.07281 5.08258 0
M  V30 607 H 61.543 0.477572 4.39513 0
M  V30 608 N 60.6021 -1.18246 1.0419 0
M  V30 609 C 61.8301 -1.92195 0.766072 0
M  V30 610 C 62.2451 -1.76247 -0.676933 0
M  V30 611 O 61.6021 -1.09293 -1.46155 0
M  V30 612 C 61.6531 -3.43568 1.12442 0
M  V30 613 O 61.3741 -3.59015 2.51078 0
M  V30 614 C 62.8751 -4.34613 0.873275 0
M  V30 615 H 60.0951 -0.610114 0.279288 0
M  V30 616 H 62.6391 -1.50007 1.38989 0
M  V30 617 H 60.7941 -3.8354 0.545542 0
M  V30 618 H 61.2081 -4.5273 2.64831 0
M  V30 619 H 62.6821 -5.39374 1.17385 0
M  V30 620 H 63.1591 -4.38781 -0.191909 0
M  V30 621 H 63.7651 -4.00341 1.43551 0
M  V30 622 N 62.0802 -0.821533 -1.34494 0
M  V30 623 C 63.3272 -0.408946 -1.98328 0
M  V30 624 C 63.6552 1.02764 -1.65136 0
M  V30 625 O 62.9102 1.73026 -0.914349 0
M  V30 626 C 63.2092 -0.556512 -3.53041 0
M  V30 627 C 62.8752 -1.95861 -4.0614 0
M  V30 628 C 61.5372 -2.34217 -4.20352 0
M  V30 629 C 63.8892 -2.87523 -4.34718 0
M  V30 630 C 61.2172 -3.63572 -4.6047 0
M  V30 631 C 63.5692 -4.1634 -4.76281 0
M  V30 632 C 62.2332 -4.54675 -4.88699 0
M  V30 633 H 61.5032 -0.149644 -0.725732 0
M  V30 634 H 64.1502 -1.04521 -1.6046 0
M  V30 635 H 62.4552 0.163148 -3.9146 0
M  V30 636 H 64.1522 -0.217826 -4.00408 0
M  V30 637 H 60.7422 -1.65066 -3.95539 0
M  V30 638 H 64.9262 -2.59133 -4.23277 0
M  V30 639 H 60.1822 -3.93101 -4.68275 0
M  V30 640 H 64.3562 -4.87455 -4.97354 0
M  V30 641 H 61.9832 -5.54959 -5.19542 0
M  V30 642 N 63.5583 1.46682 -0.576371 0
M  V30 643 C 64.8053 2.02412 -0.0595339 0
M  V30 644 C 65.1333 1.44859 1.29793 0
M  V30 645 O 64.3883 0.601099 1.8624 0
M  V30 646 C 64.6873 3.57345 0.062886 0
M  V30 647 C 64.3533 4.33908 -1.22616 0
M  V30 648 C 63.0153 4.54544 -1.57933 0
M  V30 649 C 65.3673 4.77919 -2.07948 0
M  V30 650 C 62.6953 5.16444 -2.78393 0
M  V30 651 C 65.0473 5.41149 -3.27629 0
M  V30 652 C 63.7113 5.60014 -3.63236 0
M  V30 653 H 62.9813 0.74068 -0.021785 0
M  V30 654 H 65.6283 1.76128 -0.751735 0
M  V30 655 H 63.9333 3.82729 0.838178 0
M  V30 656 H 65.6303 3.98136 0.478439 0
M  V30 657 H 62.2203 4.18138 -0.941202 0
M  V30 658 H 66.4043 4.61738 -1.81967 0
M  V30 659 H 61.6603 5.29242 -3.06126 0
M  V30 660 H 65.8343 5.74211 -3.94023 0
M  V30 661 H 63.4613 6.07748 -4.56669 0
M  V30 662 N 65.0364 0.313813 1.54444 0
M  V30 663 C 65.9664 -0.549454 2.26943 0
M  V30 664 C 66.9474 -1.12741 1.27372 0
M  V30 665 O 68.1324 -1.15436 1.56167 0
M  V30 666 C 65.2624 -1.71523 3.01989 0
M  V30 667 C 64.2164 -1.26703 4.08816 0
M  V30 668 C 63.5424 -2.51898 4.71647 0
M  V30 669 C 64.8424 -0.388962 5.2085 0
M  V30 670 H 66.5364 0.0552661 2.99349 0
M  V30 671 H 64.0824 0.0280207 1.43973 0
M  V30 672 H 66.0354 -2.32535 3.51433 0
M  V30 673 H 64.7594 -2.34639 2.27183 0
M  V30 674 H 63.4184 -0.679896 3.6024 0
M  V30 675 H 63.0664 -3.13356 3.93468 0
M  V30 676 H 62.7664 -2.22605 5.43802 0
M  V30 677 H 64.2904 -3.1369 5.23861 0
M  V30 678 H 65.7044 -0.905107 5.6611 0
M  V30 679 H 64.1014 -0.18924 5.99802 0
M  V30 680 H 65.1714 0.582699 4.81386 0
M  V30 681 N 66.5145 -1.57545 0.0417849 0
M  V30 682 C 67.7615 -1.92317 -0.634082 0
M  V30 683 C 68.0895 -0.919334 -1.71402 0
M  V30 684 O 67.3445 0.0698253 -1.95575 0
M  V30 685 C 67.6435 -3.33794 -1.27735 0
M  V30 686 C 67.3095 -4.49716 -0.326543 0
M  V30 687 C 65.9715 -4.81156 -0.0648814 0
M  V30 688 C 68.3235 -5.20182 0.325623 0
M  V30 689 C 65.6515 -5.80414 0.856539 0
M  V30 690 C 68.0035 -6.20424 1.23518 0
M  V30 691 C 66.6675 -6.50298 1.5056 0
M  V30 692 H 65.9375 -0.703736 -0.232027 0
M  V30 693 H 68.5845 -1.91205 0.106259 0
M  V30 694 H 66.8895 -3.31228 -2.09274 0
M  V30 695 H 68.5865 -3.57975 -1.80707 0
M  V30 696 H 65.1765 -4.25176 -0.540665 0
M  V30 697 H 69.3605 -4.96112 0.136546 0
M  V30 698 H 64.6165 -6.019 1.07363 0
M  V30 699 H 68.7905 -6.74141 1.74664 0
M  V30 700 H 66.4175 -7.27025 2.22123 0
M  V30 701 N 67.9926 0.231505 -1.5589 0
M  V30 702 C 68.9226 1.29022 -1.94617 0
M  V30 703 C 69.9036 1.4941 -0.813067 0
M  V30 704 O 71.0886 1.6176 -1.07459 0
M  V30 705 C 68.2186 2.64199 -2.25424 0
M  V30 706 C 67.1726 2.58484 -3.41131 0
M  V30 707 C 66.4986 3.97599 -3.57518 0
M  V30 708 C 67.7986 2.1413 -4.76388 0
M  V30 709 H 69.4926 0.968563 -2.83301 0
M  V30 710 H 67.0386 0.464479 -1.36303 0
M  V30 711 H 68.9916 3.38413 -2.51107 0
M  V30 712 H 67.7156 2.98032 -1.33583 0
M  V30 713 H 66.3746 1.86727 -3.15481 0
M  V30 714 H 66.0226 4.28723 -2.6307 0
M  V30 715 H 65.7226 3.94659 -4.35337 0
M  V30 716 H 67.2466 4.7349 -3.85538 0
M  V30 717 H 68.6606 2.78083 -5.01341 0
M  V30 718 H 67.0576 2.2227 -5.57419 0
M  V30 719 H 68.1276 1.09331 -4.72414 0
M  V30 720 N 69.4707 1.49531 0.497807 0
M  V30 721 C 70.4007 1.6935 1.60757 0
M  V30 722 C 71.3817 0.542218 1.61227 0
M  V30 723 O 72.5667 0.778417 1.77917 0
M  V30 724 C 69.6967 1.76298 2.99226 0
M  V30 725 C 68.6507 2.91248 3.13622 0
M  V30 726 C 67.9767 2.83312 4.53474 0
M  V30 727 C 69.2767 4.3214 2.93346 0
M  V30 728 H 70.9707 2.62263 1.44425 0
M  V30 729 H 68.5167 1.26208 0.693367 0
M  V30 730 H 70.4697 1.88749 3.76765 0
M  V30 731 H 69.1937 0.799871 3.16654 0
M  V30 732 H 67.8527 2.78404 2.38509 0
M  V30 733 H 67.5007 1.84902 4.67782 0
M  V30 734 H 67.2007 3.60465 4.64046 0
M  V30 735 H 68.7247 2.97775 5.33069 0
M  V30 736 H 70.1387 4.45649 3.60652 0
M  V30 737 H 68.5357 5.1054 3.15387 0
M  V30 738 H 69.6057 4.46363 1.89441 0
M  V30 739 N 70.9488 -0.749086 1.3866 0
M  V30 740 C 72.1738 -1.54344 1.38538 0
M  V30 741 C 72.5988 -1.88088 -0.0216655 0
M  V30 742 O 71.9568 -1.50899 -1.00494 0
M  V30 743 C 72.0048 -2.8164 2.25192 0
M  V30 744 O 71.1088 -3.7698 1.67212 0
M  V30 745 H 70.4498 -0.466654 0.472367 0
M  V30 746 H 72.9798 -0.925355 1.82478 0
M  V30 747 H 72.9898 -3.30519 2.3921 0
M  V30 748 H 71.6648 -2.56411 3.27454 0
M  V30 749 H 70.2418 -3.35699 1.6236 0
M  V30 750 N 72.4269 -1.23603 -0.977757 0
M  V30 751 C 73.3899 -1.02069 -2.05218 0
M  V30 752 C 74.3899 0.0184305 -1.60789 0
M  V30 753 O 75.5799 -0.221569 -1.72785 0
M  V30 754 C 72.7119 -0.544926 -3.36517 0
M  V30 755 H 73.9049 -1.9742 -2.25755 0
M  V30 756 H 71.4579 -1.05684 -1.15155 0
M  V30 757 H 72.1929 0.412241 -3.21669 0
M  V30 758 H 71.9779 -1.2948 -3.70105 0
M  V30 759 H 73.4679 -0.414985 -4.15533 0
M  V30 760 N 73.905 1.17692 -1.04816 0
M  V30 761 C 75.133 1.91786 -0.776254 0
M  V30 762 C 75.548 1.76604 0.667577 0
M  V30 763 O 74.905 1.10067 1.45573 0
M  V30 764 C 74.956 3.42967 -1.14263 0
M  V30 765 O 74.677 3.57678 -2.52978 0
M  V30 766 C 76.178 4.34144 -0.896311 0
M  V30 767 H 73.398 0.608624 -0.282519 0
M  V30 768 H 75.942 1.49268 -1.39783 0
M  V30 769 H 74.097 3.83245 -0.565874 0
M  V30 770 H 74.511 4.51319 -2.67229 0
M  V30 771 H 75.985 5.38744 -1.20244 0
M  V30 772 H 76.462 4.38876 0.168636 0
M  V30 773 H 77.068 3.99574 -1.45672 0
M  V30 774 N 75.3831 0.828654 1.34056 0
M  V30 775 C 76.6301 0.419458 1.98108 0
M  V30 776 C 76.9581 -1.01886 1.65679 0
M  V30 777 O 76.2131 -1.72539 0.923512 0
M  V30 778 C 76.5121 0.575226 3.52741 0
M  V30 779 C 76.1781 1.98012 4.05095 0
M  V30 780 C 74.8401 2.36442 4.19104 0
M  V30 781 C 77.1921 2.89824 4.33188 0
M  V30 782 C 74.5201 3.66009 4.58535 0
M  V30 783 C 76.8721 4.1886 4.74066 0
M  V30 784 C 75.5361 4.5726 4.86281 0
M  V30 785 H 74.8061 0.153491 0.724929 0
M  V30 786 H 77.4531 1.05371 1.59904 0
M  V30 787 H 75.7581 -0.142385 3.91541 0
M  V30 788 H 77.4551 0.239057 4.00287 0
M  V30 789 H 74.0451 1.67162 3.94658 0
M  V30 790 H 78.2291 2.61375 4.21897 0
M  V30 791 H 73.4851 3.95579 4.66184 0
M  V30 792 H 77.6591 4.90086 4.94761 0
M  V30 793 H 75.2861 5.57707 5.16592 0
M  V30 794 N 76.8612 -1.46375 0.584142 0
M  V30 795 C 77.8092 -2.32042 -0.161047 0
M  V30 796 C 78.8032 -1.44569 -0.882966 0
M  V30 797 O 80.0092 -1.61186 -0.801191 0
M  V30 798 H 76.3842 -0.748659 -0.0708033 0
M  V30 799 H 78.3552 -2.92704 0.580269 0
M  V30 800 C 77.1042 -3.27762 -1.1605 0
M  V30 801 H 76.4272 -3.95051 -0.614419 0
M  V30 802 H 77.8672 -3.90481 -1.65228 0
M  V30 803 C 76.3262 -2.53218 -2.22221 0
M  V30 804 O 76.8562 -2.29628 -3.29597 0
M  V30 805 N 75.0622 -2.13756 -1.96868 0
M  V30 806 H 74.6092 -2.33142 -1.09557 0
M  V30 807 H 74.5672 -1.642 -2.68115 0
M  V30 808 N 78.3393 -0.321999 -1.54275 0
M  V30 809 C 79.3023 0.531975 -2.22941 0
M  V30 810 C 80.3023 1.04478 -1.22234 0
M  V30 811 O 81.4923 0.937452 -1.46825 0
M  V30 812 C 78.6243 1.73874 -2.93224 0
M  V30 813 H 79.8173 -0.0682612 -2.99822 0
M  V30 814 H 77.3703 -0.0730644 -1.56129 0
M  V30 815 H 78.1053 2.37825 -2.20476 0
M  V30 816 H 77.8903 1.37847 -3.6707 0
M  V30 817 H 79.3803 2.34496 -3.45545 0
M  V30 818 N 79.8174 1.5752 -0.0501392 0
M  V30 819 C 81.0424 1.97376 0.636997 0
M  V30 820 C 81.4674 0.927466 1.63645 0
M  V30 821 O 80.8254 -0.10941 1.8097 0
M  V30 822 C 80.8734 3.36304 1.30123 0
M  V30 823 O 79.9774 3.34156 2.41689 0
M  V30 824 H 79.3184 0.642998 0.165679 0
M  V30 825 H 81.8484 2.04258 -0.118233 0
M  V30 826 H 81.8584 3.73008 1.65315 0
M  V30 827 H 80.5334 4.11993 0.568746 0
M  V30 828 H 79.1104 3.09196 2.08451 0
M  V30 829 N 81.2955 -0.223234 1.56011 0
M  V30 830 C 82.5425 -0.947875 1.78946 0
M  V30 831 C 82.8705 -1.844 0.618608 0
M  V30 832 O 82.1255 -1.91629 -0.397093 0
M  V30 833 C 82.4245 -1.81948 3.0762 0
M  V30 834 C 82.0905 -1.07672 4.37856 0
M  V30 835 C 80.7525 -0.871544 4.73242 0
M  V30 836 C 83.1045 -0.552081 5.18268 0
M  V30 837 C 80.4325 -0.129791 5.86556 0
M  V30 838 C 82.7845 0.17632 6.32354 0
M  V30 839 C 81.4485 0.39277 6.66343 0
M  V30 840 H 80.7185 -0.346852 0.654809 0
M  V30 841 H 83.3655 -0.216171 1.90276 0
M  V30 842 H 81.6705 -2.61899 2.91404 0
M  V30 843 H 83.3675 -2.38227 3.22566 0
M  V30 844 H 79.9575 -1.24662 4.1007 0
M  V30 845 H 84.1415 -0.698076 4.91366 0
M  V30 846 H 79.3975 0.048153 6.11381 0
M  V30 847 H 83.5715 0.590367 6.93893 0
M  V30 848 H 81.1985 0.969466 7.53993 0
M  V30 849 N 82.7736 -1.49793 -0.48987 0
M  V30 850 C 83.7036 -1.70201 -1.59856 0
M  V30 851 C 84.6846 -0.55076 -1.60937 0
M  V30 852 O 85.8696 -0.787841 -1.77501 0
M  V30 853 C 82.9996 -1.77882 -2.98287 0
M  V30 854 C 81.9536 -2.92907 -3.12073 0
M  V30 855 C 81.2796 -2.85712 -4.51965 0
M  V30 856 C 82.5796 -4.3369 -2.91051 0
M  V30 857 H 84.2736 -2.63025 -1.43032 0
M  V30 858 H 81.8196 -1.26574 -0.686664 0
M  V30 859 H 83.7726 -1.90744 -3.75759 0
M  V30 860 H 82.4966 -0.816653 -3.16225 0
M  V30 861 H 81.1556 -2.79665 -2.37029 0
M  V30 862 H 80.8036 -1.8738 -4.66795 0
M  V30 863 H 80.5036 -3.62921 -4.62128 0
M  V30 864 H 82.0276 -3.00598 -5.31482 0
M  V30 865 H 83.4416 -4.47555 -3.58284 0
M  V30 866 H 81.8386 -5.12205 -3.12675 0
M  V30 867 H 82.9086 -4.47362 -1.87071 0
M  V30 868 N 84.2517 0.741722 -1.39055 0
M  V30 869 C 85.1817 1.869 -1.39966 0
M  V30 870 C 86.1627 1.6804 -0.26392 0
M  V30 871 O 87.3477 1.88458 -0.468755 0
M  V30 872 C 84.4777 3.24572 -1.23574 0
M  V30 873 C 83.4317 3.58056 -2.34477 0
M  V30 874 C 82.7577 4.94593 -2.0318 0
M  V30 875 C 84.0577 3.61716 -3.76774 0
M  V30 876 H 85.7517 1.86395 -2.34302 0
M  V30 877 H 83.2977 0.895361 -1.1278 0
M  V30 878 H 85.2507 4.031 -1.22834 0
M  V30 879 H 83.9747 3.25587 -0.257045 0
M  V30 880 H 82.6337 2.81854 -2.34423 0
M  V30 881 H 82.2817 4.92181 -1.03765 0
M  V30 882 H 81.9817 5.17964 -2.77465 0
M  V30 883 H 83.5057 5.75486 -2.04079 0
M  V30 884 H 84.9197 4.30335 -3.78794 0
M  V30 885 H 83.3167 3.96603 -4.50362 0
M  V30 886 H 84.3867 2.61672 -4.08235 0
M  V30 887 N 85.7298 1.2412 0.971189 0
M  V30 888 C 86.6768 1.0305 2.06517 0
M  V30 889 C 87.6468 -0.0550666 1.66009 0
M  V30 890 O 88.8318 0.0988688 1.90544 0
M  V30 891 C 85.9718 0.637653 3.39158 0
M  V30 892 C 85.0848 1.79633 3.92882 0
M  V30 893 C 84.2198 1.34939 5.13775 0
M  V30 894 C 83.2588 2.47823 5.59687 0
M  V30 895 N 82.3958 2.04022 6.71803 0
M  V30 896 H 87.2358 1.96685 2.23873 0
M  V30 897 H 84.7728 0.979694 1.09729 0
M  V30 898 H 86.7308 0.390931 4.15364 0
M  V30 899 H 85.3608 -0.261693 3.21737 0
M  V30 900 H 84.4128 2.15681 3.13346 0
M  V30 901 H 85.7248 2.64466 4.22918 0
M  V30 902 H 84.8788 1.06134 5.97345 0
M  V30 903 H 83.6178 0.471557 4.85415 0
M  V30 904 H 82.6228 2.77392 4.74693 0
M  V30 905 H 83.8478 3.36158 5.90063 0
M  V30 906 H 81.7938 1.18632 6.45184 0
M  V30 907 H 81.7108 2.82409 7.01271 0
M  V30 908 H 82.9788 1.78347 7.58823 0
M  V30 909 N 87.2079 -1.17134 1.05439 0
M  V30 910 C 88.1379 -2.2342 0.678649 0
M  V30 911 C 89.1189 -1.66971 -0.32476 0
M  V30 912 O 90.3039 -1.93149 -0.201802 0
M  V30 913 C 87.4339 -3.47256 0.0552099 0
M  V30 914 C 86.3879 -4.16543 0.98365 0
M  V30 915 C 85.7139 -5.34231 0.223961 0
M  V30 916 C 87.0139 -4.68495 2.3089 0
M  V30 917 H 88.7079 -2.55105 1.56722 0
M  V30 918 H 86.2539 -1.2262 0.754998 0
M  V30 919 H 88.2069 -4.20828 -0.21946 0
M  V30 920 H 86.9309 -3.14846 -0.868319 0
M  V30 921 H 85.5899 -3.44887 1.24293 0
M  V30 922 H 85.2379 -4.98071 -0.702412 0
M  V30 923 H 84.9379 -5.81527 0.842627 0
M  V30 924 H 86.4619 -6.10585 -0.0433671 0
M  V30 925 H 87.8759 -5.33691 2.09396 0
M  V30 926 H 86.2729 -5.26379 2.88176 0
M  V30 927 H 87.3429 -3.85169 2.94572 0
M  V30 928 N 88.686 -0.835752 -1.33615 0
M  V30 929 C 89.618 -0.224151 -2.28101 0
M  V30 930 C 90.631 0.593331 -1.51603 0
M  V30 931 O 91.82 0.420911 -1.73466 0
M  V30 932 C 88.92 0.703309 -3.31522 0
M  V30 933 C 88.093 -0.0741528 -4.37337 0
M  V30 934 C 87.152 0.776176 -5.20444 0
M  V30 935 O 86.178 0.216506 -5.68788 0
M  V30 936 N 87.38 2.09401 -5.41416 0
M  V30 937 H 90.145 -1.03598 -2.81225 0
M  V30 938 H 87.706 -0.69392 -1.46275 0
M  V30 939 H 89.698 1.27707 -3.84022 0
M  V30 940 H 88.268 1.41585 -2.78698 0
M  V30 941 H 87.488 -0.82928 -3.85378 0
M  V30 942 H 88.776 -0.608863 -5.05144 0
M  V30 943 H 88.174 2.57229 -5.03835 0
M  V30 944 H 86.731 2.61633 -5.96985 0
M  V30 945 N 90.1641 1.46063 -0.591896 0
M  V30 946 C 91.1111 2.30399 0.136069 0
M  V30 947 C 92.0811 1.41169 0.875238 0
M  V30 948 O 93.2661 1.70112 0.86409 0
M  V30 949 C 90.4061 3.25804 1.13781 0
M  V30 950 C 89.5191 4.30134 0.401137 0
M  V30 951 C 88.6541 5.12659 1.39121 0
M  V30 952 C 87.6931 6.0873 0.641462 0
M  V30 953 N 86.8301 6.8409 1.58004 0
M  V30 954 H 91.6701 2.92118 -0.589144 0
M  V30 955 H 89.2071 1.43959 -0.302342 0
M  V30 956 H 91.1651 3.79569 1.73156 0
M  V30 957 H 89.7951 2.65872 1.83062 0
M  V30 958 H 88.8471 3.79152 -0.307826 0
M  V30 959 H 90.1591 4.98458 -0.184565 0
M  V30 960 H 89.3131 5.70747 2.05749 0
M  V30 961 H 88.0521 4.44316 2.01084 0
M  V30 962 H 87.0571 5.49786 -0.0385419 0
M  V30 963 H 88.2821 6.79095 0.0270945 0
M  V30 964 H 86.2281 6.18449 2.18761 0
M  V30 965 H 86.1451 7.48709 1.04738 0
M  V30 966 H 87.4131 7.4673 2.23639 0
M  V30 967 N 91.6422 0.330177 1.54103 0
M  V30 968 C 92.8882 -0.263542 2.01685 0
M  V30 969 C 93.2432 -1.49258 1.21408 0
M  V30 970 O 92.5362 -1.89395 0.289852 0
M  V30 971 C 92.7302 -0.643134 3.51566 0
M  V30 972 C 92.5592 0.547571 4.46354 0
M  V30 973 C 91.3292 1.04873 4.94297 0
M  V30 974 C 93.5272 1.40184 4.94826 0
M  V30 975 N 91.5092 2.20316 5.73005 0
M  V30 976 C 92.8802 2.40335 5.71524 0
M  V30 977 C 94.9352 1.42884 4.76958 0
M  V30 978 C 93.6382 3.42998 6.32254 0
M  V30 979 C 95.6642 2.44421 5.38528 0
M  V30 980 C 95.0262 3.43298 6.15082 0
M  V30 981 H 91.1252 -0.0601026 0.779687 0
M  V30 982 H 93.7092 0.466714 1.89023 0
M  V30 983 H 91.8802 -1.34251 3.6446 0
M  V30 984 H 93.6122 -1.21889 3.85908 0
M  V30 985 H 90.3672 0.618956 4.69538 0
M  V30 986 H 90.7912 2.78565 6.17034 0
M  V30 987 H 95.4332 0.678049 4.17328 0
M  V30 988 H 93.1512 4.1898 6.91 0
M  V30 989 H 96.7372 2.4732 5.26616 0
M  V30 990 H 95.6172 4.20579 6.61878 0
M  V30 991 N 93.1203 -1.57491 0.0584922 0
M  V30 992 C 94.3483 -1.97296 -0.623037 0
M  V30 993 C 94.7633 -0.936338 -1.63946 0
M  V30 994 O 94.1203 0.0785981 -1.82331 0
M  V30 995 C 94.1713 -3.37183 -1.30345 0
M  V30 996 O 93.8923 -4.36872 -0.32773 0
M  V30 997 C 95.3933 -3.91788 -2.07406 0
M  V30 998 H 92.6133 -0.649153 -0.169826 0
M  V30 999 H 95.1573 -2.04106 0.12696 0
M  V30 1000 H 93.3123 -3.31502 -2.00463 0
M  V30 1001 H 93.7263 -5.18141 -0.814269 0
M  V30 1002 H 95.2003 -4.91926 -2.50425 0
M  V30 1003 H 95.6773 -3.27609 -2.92521 0
M  V30 1004 H 96.2833 -4.00829 -1.42184 0
M  V30 1005 N 94.5984 0.214957 -1.56127 0
M  V30 1006 C 95.5304 1.29004 -1.89448 0
M  V30 1007 C 96.5434 1.42716 -0.783326 0
M  V30 1008 O 97.7324 1.43496 -1.06166 0
M  V30 1009 C 94.8324 2.66482 -2.09381 0
M  V30 1010 C 94.0054 2.74633 -3.40434 0
M  V30 1011 C 93.0644 3.9317 -3.49719 0
M  V30 1012 O 92.0904 3.812 -4.227 0
M  V30 1013 N 93.2924 5.07765 -2.81346 0
M  V30 1014 H 96.0574 1.00743 -2.82261 0
M  V30 1015 H 93.6184 0.40497 -1.56753 0
M  V30 1016 H 95.6104 3.44173 -2.12901 0
M  V30 1017 H 94.1804 2.87314 -1.23163 0
M  V30 1018 H 93.4004 1.83368 -3.48955 0
M  V30 1019 H 94.6884 2.77054 -4.26754 0
M  V30 1020 H 94.0864 5.20386 -2.21843 0
M  V30 1021 H 92.6434 5.83474 -2.90519 0
M  V30 1022 N 96.0765 1.50051 0.48192 0
M  V30 1023 C 97.0235 1.68122 1.58125 0
M  V30 1024 C 97.9935 0.522545 1.57666 0
M  V30 1025 O 99.1785 0.751844 1.75362 0
M  V30 1026 C 96.3185 1.77142 2.96167 0
M  V30 1027 C 95.4315 3.0444 3.06497 0
M  V30 1028 C 94.5665 3.04321 4.35387 0
M  V30 1029 C 93.6055 4.26118 4.3942 0
M  V30 1030 N 92.7425 4.238 5.59766 0
M  V30 1031 H 97.5825 2.6198 1.42022 0
M  V30 1032 H 95.1195 1.29877 0.690687 0
M  V30 1033 H 97.0775 1.80352 3.76203 0
M  V30 1034 H 95.7075 0.867329 3.1093 0
M  V30 1035 H 94.7595 3.10752 2.19402 0
M  V30 1036 H 96.0715 3.94426 3.05336 0
M  V30 1037 H 95.2255 3.062 5.23762 0
M  V30 1038 H 93.9645 2.12147 4.39141 0
M  V30 1039 H 92.9695 4.24463 3.49444 0
M  V30 1040 H 94.1945 5.19507 4.37366 0
M  V30 1041 H 92.1405 3.34474 5.64326 0
M  V30 1042 H 92.0575 5.07542 5.60301 0
M  V30 1043 H 93.3255 4.2981 6.50295 0
M  V30 1044 N 97.5546 -0.734337 1.39446 0
M  V30 1045 C 98.5016 -1.84835 1.38219 0
M  V30 1046 C 99.4716 -1.64331 0.24179 0
M  V30 1047 O 100.657 -1.85728 0.437002 0
M  V30 1048 C 97.7966 -3.22355 1.23212 0
M  V30 1049 C 96.9096 -3.5456 2.46801 0
M  V30 1050 C 96.0446 -4.81485 2.24377 0
M  V30 1051 C 95.0836 -5.06536 3.43639 0
M  V30 1052 N 94.2206 -6.24665 3.20528 0
M  V30 1053 H 99.0606 -1.85219 2.33448 0
M  V30 1054 H 96.5976 -0.905039 1.15963 0
M  V30 1055 H 98.5556 -4.0174 1.12522 0
M  V30 1056 H 97.1856 -3.21248 0.316121 0
M  V30 1057 H 96.2376 -2.69872 2.68092 0
M  V30 1058 H 97.5496 -3.6899 3.3563 0
M  V30 1059 H 96.7036 -5.68852 2.10933 0
M  V30 1060 H 95.4426 -4.6923 1.32944 0
M  V30 1061 H 94.4476 -4.17632 3.5758 0
M  V30 1062 H 95.6726 -5.20676 4.35974 0
M  V30 1063 H 93.6186 -6.13696 2.3176 0
M  V30 1064 H 93.5356 -6.39685 4.02913 0
M  V30 1065 H 94.8036 -7.14868 3.10779 0
M  V30 1066 N 99.0327 -1.24633 -0.964593 0
M  V30 1067 C 99.9427 -1.05859 -2.09359 0
M  V30 1068 C 100.959 0.00148855 -1.74 0
M  V30 1069 O 102.135 -0.197346 -2.00431 0
M  V30 1070 C 99.1997 -0.668879 -3.40187 0
M  V30 1071 C 98.2607 -1.80578 -3.89474 0
M  V30 1072 C 97.4937 -1.43457 -5.14058 0
M  V30 1073 O 97.7167 -0.325775 -5.69469 0
M  V30 1074 O 96.6507 -2.2613 -5.57807 0
M  V30 1075 H 100.477 -2.00516 -2.28094 0
M  V30 1076 H 98.0617 -1.03481 -1.0776 0
M  V30 1077 H 99.9437 -0.463211 -4.18846 0
M  V30 1078 H 98.6187 0.248536 -3.22744 0
M  V30 1079 H 97.5257 -2.06623 -3.11862 0
M  V30 1080 H 98.8587 -2.70208 -4.11398 0
M  V30 1081 N 100.511 1.16574 -1.06058 0
M  V30 1082 C 101.458 2.20883 -0.669263 0
M  V30 1083 C 102.428 1.62729 0.332918 0
M  V30 1084 O 103.613 1.895 0.222346 0
M  V30 1085 C 100.753 3.45049 -0.0593572 0
M  V30 1086 C 99.8658 4.17458 -1.11143 0
M  V30 1087 C 99.0008 5.29135 -0.467916 0
M  V30 1088 C 98.0398 5.93343 -1.50369 0
M  V30 1089 N 97.1768 6.96516 -0.883706 0
M  V30 1090 H 102.017 2.53709 -1.5632 0
M  V30 1091 H 99.5538 1.24616 -0.781625 0
M  V30 1092 H 101.512 4.16033 0.311771 0
M  V30 1093 H 100.142 3.12781 0.797992 0
M  V30 1094 H 99.1938 3.45101 -1.60029 0
M  V30 1095 H 100.506 4.61307 -1.89731 0
M  V30 1096 H 99.6598 6.06684 -0.0436871 0
M  V30 1097 H 98.3988 4.86443 0.349864 0
M  V30 1098 H 97.4038 5.14517 -1.93784 0
M  V30 1099 H 98.6288 6.38114 -2.32352 0
M  V30 1100 H 96.5748 6.55943 -0.086595 0
M  V30 1101 H 96.4918 7.38723 -1.607 0
M  V30 1102 H 97.7598 7.77993 -0.484543 0
M  V30 1103 N 101.989 0.842826 1.3317 0
M  V30 1104 C 103.237 0.439577 1.97262 0
M  V30 1105 C 103.558 -1.00548 1.67078 0
M  V30 1106 O 102.828 -1.70098 0.971779 0
M  V30 1107 H 101.408 0.159558 0.72976 0
M  V30 1108 H 104.07 1.07665 1.62463 0
M  V30 1109 H 103.166 0.574886 3.0676 0
M  V30 1110 N 103.467 -1.45747 0.599634 0
M  V30 1111 C 104.414 -2.30467 -0.123849 0
M  V30 1112 C 105.384 -1.41632 -0.86774 0
M  V30 1113 O 106.569 -1.70568 -0.855056 0
M  V30 1114 C 103.709 -3.26402 -1.12051 0
M  V30 1115 C 102.822 -4.3034 -0.37832 0
M  V30 1116 C 101.957 -5.13389 -1.364 0
M  V30 1117 C 100.996 -6.09061 -0.609171 0
M  V30 1118 N 100.133 -6.84918 -1.54374 0
M  V30 1119 H 104.973 -2.91802 0.604627 0
M  V30 1120 H 102.51 -1.43797 0.309972 0
M  V30 1121 H 104.468 -3.80482 -1.7114 0
M  V30 1122 H 103.098 -2.66839 -1.8165 0
M  V30 1123 H 102.15 -3.78984 0.327929 0
M  V30 1124 H 103.462 -4.98354 0.210997 0
M  V30 1125 H 102.616 -5.7183 -2.02719 0
M  V30 1126 H 101.355 -4.45376 -1.98725 0
M  V30 1127 H 100.36 -5.49758 0.0676979 0
M  V30 1128 H 101.585 -6.79099 0.00891991 0
M  V30 1129 H 99.531 -6.19601 -2.15478 0
M  V30 1130 H 99.448 -7.49254 -1.00766 0
M  V30 1131 H 100.716 -7.47906 -2.19676 0
M  V30 1132 N 104.945 -0.338344 -1.53925 0
M  V30 1133 C 105.892 0.520845 -2.24846 0
M  V30 1134 C 106.862 1.09976 -1.24477 0
M  V30 1135 O 108.047 1.13735 -1.53196 0
M  V30 1136 C 105.187 1.6685 -3.02084 0
M  V30 1137 C 104.3 1.11739 -4.17299 0
M  V30 1138 C 103.435 2.23193 -4.82036 0
M  V30 1139 C 102.474 1.65407 -5.89328 0
M  V30 1140 N 101.611 2.70582 -6.47866 0
M  V30 1141 H 106.451 -0.0904881 -2.97863 0
M  V30 1142 H 103.988 -0.0564282 -1.46992 0
M  V30 1143 H 105.946 2.34407 -3.45122 0
M  V30 1144 H 104.576 2.2509 -2.31375 0
M  V30 1145 H 103.628 0.332919 -3.7894 0
M  V30 1146 H 104.94 0.654677 -4.94485 0
M  V30 1147 H 104.094 2.98626 -5.28117 0
M  V30 1148 H 102.833 2.72807 -4.04262 0
M  V30 1149 H 101.838 0.884779 -5.42634 0
M  V30 1150 H 103.063 1.16652 -6.69006 0
M  V30 1151 H 101.009 3.1946 -5.72959 0
M  V30 1152 H 100.926 2.28917 -7.20509 0
M  V30 1153 H 102.194 3.45799 -6.98601 0
M  V30 1154 N 106.423 1.57458 -0.0668435 0
M  V30 1155 C 107.353 2.15468 0.899764 0
M  V30 1156 C 108.334 1.08042 1.31381 0
M  V30 1157 O 109.519 1.36054 1.38574 0
M  V30 1158 C 106.649 2.71232 2.16911 0
M  V30 1159 C 105.603 3.83781 1.89463 0
M  V30 1160 C 104.929 4.26127 3.22986 0
M  V30 1161 C 106.229 5.08238 1.20381 0
M  V30 1162 H 107.923 2.96488 0.416529 0
M  V30 1163 H 105.469 1.4262 0.198908 0
M  V30 1164 H 107.422 3.10458 2.84945 0
M  V30 1165 H 106.146 1.87426 2.67468 0
M  V30 1166 H 104.805 3.45051 1.23836 0
M  V30 1167 H 104.453 3.39249 3.71374 0
M  V30 1168 H 104.153 5.01993 3.05413 0
M  V30 1169 H 105.677 4.67966 3.92225 0
M  V30 1170 H 107.091 5.44811 1.78475 0
M  V30 1171 H 105.488 5.89349 1.13083 0
M  V30 1172 H 106.558 4.84558 0.182153 0
M  V30 1173 N 107.901 -0.206675 1.56239 0
M  V30 1174 C 109.126 -0.949474 1.8439 0
M  V30 1175 C 109.551 -1.76549 0.649016 0
M  V30 1176 O 108.909 -1.76782 -0.402231 0
M  V30 1177 C 108.957 -1.83078 3.10668 0
M  V30 1178 O 108.061 -2.9281 2.90407 0
M  V30 1179 H 107.402 -0.268033 0.607499 0
M  V30 1180 H 109.932 -0.215488 2.03462 0
M  V30 1181 H 109.942 -2.2377 3.41161 0
M  V30 1182 H 108.617 -1.23112 3.97261 0
M  V30 1183 H 107.194 -2.55956 2.71184 0
M  V30 1184 N 109.379 -1.50304 -0.473955 0
M  V30 1185 C 110.795 -1.37667 -0.807466 0
M  V30 1186 C 110.995 -0.430555 -1.96846 0
M  V30 1187 O 110.051 0.127874 -2.52176 0
M  V30 1188 C 111.364 -2.78974 -1.12223 0
M  V30 1189 C 112.912 -2.87868 -1.22885 0
M  V30 1190 C 113.387 -4.30003 -1.57676 0
M  V30 1191 N 114.878 -4.3294 -1.64673 0
M  V30 1192 C 115.613 -5.3991 -1.93091 0
M  V30 1193 N 115.109 -6.57092 -2.1955 0
M  V30 1194 N 116.902 -5.27351 -1.94569 0
M  V30 1195 H 109.053 -2.10394 0.291212 0
M  V30 1196 H 111.316 -0.945575 0.0677609 0
M  V30 1197 H 111.022 -3.50031 -0.342229 0
M  V30 1198 H 110.896 -3.16038 -2.05913 0
M  V30 1199 H 113.283 -2.17032 -1.99953 0
M  V30 1200 H 113.364 -2.54352 -0.271814 0
M  V30 1201 H 113.008 -5.01375 -0.81149 0
M  V30 1202 H 112.938 -4.61004 -2.54525 0
M  V30 1203 H 115.429 -3.48441 -1.46277 0
M  V30 1204 H 115.742 -7.34425 -2.405 0
M  V30 1205 H 114.087 -6.60272 -2.16948 0
M  V30 1206 H 117.278 -4.34801 -1.73394 0
M  V30 1207 H 117.451 -6.10805 -2.16381 0
M  V30 1208 N 110.857 0.726932 -1.39834 0
M  V30 1209 C 111.79 1.8501 -1.33592 0
M  V30 1210 C 112.768 1.61262 -0.208191 0
M  V30 1211 O 113.952 1.84422 -0.389981 0
M  V30 1212 C 111.079 3.21143 -1.07633 0
M  V30 1213 C 110.125 3.63737 -2.22705 0
M  V30 1214 S 110.958 3.72167 -3.85035 0
M  V30 1215 C 112.114 5.11077 -3.61318 0
M  V30 1216 H 112.347 1.90022 -2.28646 0
M  V30 1217 H 109.88 0.892595 -1.25985 0
M  V30 1218 H 111.838 3.99747 -0.933415 0
M  V30 1219 H 110.499 3.13776 -0.142526 0
M  V30 1220 H 109.692 4.62551 -2.00155 0
M  V30 1221 H 109.294 2.9236 -2.33242 0
M  V30 1222 H 111.586 5.97656 -3.19083 0
M  V30 1223 H 112.529 5.38658 -4.59623 0
M  V30 1224 H 112.937 4.81135 -2.95245 0
M  V30 1225 N 112.336 1.25143 0.95797 0
M  V30 1226 C 113.283 1.05235 2.05412 0
M  V30 1227 C 114.253 -0.0374561 1.66058 0
M  V30 1228 O 115.438 0.119073 1.90428 0
M  V30 1229 C 112.578 0.673589 3.38462 0
M  V30 1230 C 111.691 1.8379 3.90954 0
M  V30 1231 C 110.826 1.40381 5.12315 0
M  V30 1232 C 109.865 2.53746 5.57027 0
M  V30 1233 N 109.002 2.11136 6.69601 0
M  V30 1234 H 113.842 1.99048 2.21774 0
M  V30 1235 H 111.379 0.991277 1.08683 0
M  V30 1236 H 113.337 0.434964 4.14926 0
M  V30 1237 H 111.967 -0.227554 3.21997 0
M  V30 1238 H 111.019 2.18992 3.11041 0
M  V30 1239 H 112.331 2.68937 4.20089 0
M  V30 1240 H 111.485 1.12464 5.96185 0
M  V30 1241 H 110.224 0.523015 4.84887 0
M  V30 1242 H 109.229 2.82412 4.71724 0
M  V30 1243 H 110.454 3.42398 5.86464 0
M  V30 1244 H 108.4 1.25468 6.4389 0
M  V30 1245 H 108.317 2.89832 6.98236 0
M  V30 1246 H 109.585 1.86385 7.56889 0
M  V30 1247 N 113.814 -1.1601 1.06675 0
M  V30 1248 C 114.744 -2.22688 0.702307 0
M  V30 1249 C 115.725 -1.67306 -0.307032 0
M  V30 1250 O 116.91 -1.93352 -0.181305 0
M  V30 1251 C 114.04 -3.47178 0.092038 0
M  V30 1252 C 112.994 -4.15477 1.02777 0
M  V30 1253 C 112.32 -5.33963 0.28061 0
M  V30 1254 C 113.62 -4.66019 2.35846 0
M  V30 1255 H 115.314 -2.53429 1.59419 0
M  V30 1256 H 112.86 -1.21813 0.767961 0
M  V30 1257 H 114.813 -4.21037 -0.174814 0
M  V30 1258 H 113.537 -3.15749 -0.834877 0
M  V30 1259 H 112.196 -3.43549 1.27944 0
M  V30 1260 H 111.844 -4.98788 -0.649545 0
M  V30 1261 H 111.544 -5.806 0.904258 0
M  V30 1262 H 113.068 -6.10596 0.021396 0
M  V30 1263 H 114.482 -5.3144 2.15045 0
M  V30 1264 H 112.879 -5.23293 2.93743 0
M  V30 1265 H 113.949 -3.82023 2.98641 0
M  V30 1266 N 115.292 -0.849877 -1.32721 0
M  V30 1267 C 116.222 -0.306308 -2.31482 0
M  V30 1268 C 117.203 0.591952 -1.59468 0
M  V30 1269 O 118.388 0.513199 -1.87296 0
M  V30 1270 C 115.518 0.510204 -3.43532 0
M  V30 1271 C 114.472 -0.293209 -4.26994 0
M  V30 1272 C 113.798 0.647743 -5.30762 0
M  V30 1273 C 115.098 -1.51634 -4.99804 0
M  V30 1274 H 116.792 -1.13153 -2.77195 0
M  V30 1275 H 114.338 -0.545553 -1.33266 0
M  V30 1276 H 116.291 0.900856 -4.11658 0
M  V30 1277 H 115.015 1.36874 -2.96535 0
M  V30 1278 H 113.674 -0.665555 -3.60508 0
M  V30 1279 H 113.322 1.50299 -4.8002 0
M  V30 1280 H 113.022 0.11422 -5.87489 0
M  V30 1281 H 114.546 1.03567 -6.01753 0
M  V30 1282 H 115.96 -1.19824 -5.60638 0
M  V30 1283 H 114.357 -1.98745 -5.66234 0
M  V30 1284 H 115.427 -2.28018 -4.27943 0
M  V30 1285 N 116.77 1.45427 -0.607355 0
M  V30 1286 C 117.7 2.3329 0.0989352 0
M  V30 1287 C 118.681 1.46816 0.859007 0
M  V30 1288 O 119.866 1.75588 0.829604 0
M  V30 1289 C 116.996 3.29518 1.09705 0
M  V30 1290 C 115.95 4.25626 0.450206 0
M  V30 1291 C 115.276 5.11542 1.55655 0
M  V30 1292 C 116.576 5.18505 -0.628455 0
M  V30 1293 H 118.27 2.92595 -0.634716 0
M  V30 1294 H 115.816 1.40696 -0.306681 0
M  V30 1295 H 117.769 3.89855 1.59971 0
M  V30 1296 H 116.493 2.68372 1.86129 0
M  V30 1297 H 115.152 3.66586 -0.0315886 0
M  V30 1298 H 114.8 4.46765 2.31107 0
M  V30 1299 H 114.5 5.76647 1.12925 0
M  V30 1300 H 116.024 5.74748 2.06148 0
M  V30 1301 H 117.438 5.72916 -0.209877 0
M  V30 1302 H 115.835 5.92085 -0.977489 0
M  V30 1303 H 116.905 4.60948 -1.50514 0
M  V30 1304 N 118.248 0.346503 1.53744 0
M  V30 1305 C 119.195 -0.508914 2.25119 0
M  V30 1306 C 120.165 -1.09315 1.25058 0
M  V30 1307 O 121.35 -1.12921 1.53797 0
M  V30 1308 C 118.49 -1.65246 3.02965 0
M  V30 1309 C 117.603 -1.09525 4.17886 0
M  V30 1310 C 116.738 -2.20634 4.83212 0
M  V30 1311 C 115.777 -1.62279 5.90196 0
M  V30 1312 N 114.914 -2.67143 6.49291 0
M  V30 1313 H 119.754 0.106283 2.9781 0
M  V30 1314 H 117.291 0.0642227 1.4696 0
M  V30 1315 H 119.249 -2.32574 3.4636 0
M  V30 1316 H 117.879 -2.2386 2.32565 0
M  V30 1317 H 116.931 -0.312818 3.79112 0
M  V30 1318 H 118.243 -0.628444 4.94825 0
M  V30 1319 H 117.397 -2.95821 5.29693 0
M  V30 1320 H 116.136 -2.70659 4.05703 0
M  V30 1321 H 115.141 -0.855989 5.43096 0
M  V30 1322 H 116.366 -1.13102 6.69615 0
M  V30 1323 H 114.312 -3.16417 5.74645 0
M  V30 1324 H 114.229 -2.25093 7.21713 0
M  V30 1325 H 115.497 -3.4209 7.00425 0
M  V30 1326 N 119.726 -1.57421 0.075193 0
M  V30 1327 C 120.676 -2.09441 -0.901025 0
M  V30 1328 C 121.66 -1.00486 -1.25663 0
M  V30 1329 O 122.852 -1.2679 -1.23504 0
M  V30 1330 C 119.981 -2.66233 -2.16737 0
M  V30 1331 C 119.067 -3.82198 -1.83808 0
M  V30 1332 N 119.458 -4.91028 -1.21345 0
M  V30 1333 C 117.756 -3.91558 -2.13538 0
M  V30 1334 C 118.457 -5.71852 -1.06585 0
M  V30 1335 N 117.433 -5.20233 -1.57667 0
M  V30 1336 H 121.235 -2.90972 -0.413815 0
M  V30 1337 H 118.749 -1.6189 -0.128601 0
M  V30 1338 H 120.746 -3.01819 -2.87595 0
M  V30 1339 H 119.406 -1.8615 -2.66042 0
M  V30 1340 H 120.417 -5.10323 -0.88268 0
M  V30 1341 H 117.094 -3.22454 -2.65197 0
M  V30 1342 H 118.484 -6.69401 -0.578933 0
M  V30 1343 N 121.204 0.198386 -1.56346 0
M  V30 1344 C 122.134 1.24865 -1.9731 0
M  V30 1345 C 123.115 1.47651 -0.844576 0
M  V30 1346 O 124.3 1.59444 -1.10866 0
M  V30 1347 C 121.43 2.59358 -2.30977 0
M  V30 1348 C 120.384 2.5119 -3.46537 0
M  V30 1349 C 119.71 3.89926 -3.65871 0
M  V30 1350 C 121.01 2.03977 -4.80823 0
M  V30 1351 H 122.704 0.908252 -2.85291 0
M  V30 1352 H 120.25 0.435462 -1.37258 0
M  V30 1353 H 122.203 3.33011 -2.58228 0
M  V30 1354 H 120.927 2.95132 -1.39874 0
M  V30 1355 H 119.586 1.79993 -3.19371 0
M  V30 1356 H 119.234 4.23046 -2.72105 0
M  V30 1357 H 118.934 3.85336 -4.4361 0
M  V30 1358 H 120.458 4.65205 -3.95495 0
M  V30 1359 H 121.872 2.67386 -5.07127 0
M  V30 1360 H 120.269 2.10397 -5.62008 0
M  V30 1361 H 121.339 0.992861 -4.74626 0
M  V30 1362 N 122.682 1.50554 0.465978 0
M  V30 1363 C 123.91 1.65563 1.24083 0
M  V30 1364 C 124.325 0.341051 1.85694 0
M  V30 1365 O 123.682 -0.677543 1.69457 0
M  V30 1366 C 123.733 2.75051 2.34583 0
M  V30 1367 O 123.454 4.01413 1.75497 0
M  V30 1368 C 124.955 3.01078 3.25372 0
M  V30 1369 H 122.175 0.55638 0.375077 0
M  V30 1370 H 124.719 1.96807 0.555624 0
M  V30 1371 H 122.874 2.46486 2.9887 0
M  V30 1372 H 123.288 4.62002 2.48303 0
M  V30 1373 H 124.762 3.81339 3.99105 0
M  V30 1374 H 125.239 2.12349 3.84453 0
M  V30 1375 H 125.845 3.31194 2.66816 0
M  V30 1376 N 124.16 -0.719506 1.40217 0
M  V30 1377 C 125.09 -1.8465 1.42922 0
M  V30 1378 C 126.071 -1.67599 0.29062 0
M  V30 1379 O 127.256 -1.87688 0.498677 0
M  V30 1380 C 124.386 -3.22565 1.28722 0
M  V30 1381 C 123.34 -3.54281 2.40144 0
M  V30 1382 C 122.666 -4.91298 2.11023 0
M  V30 1383 C 123.966 -3.55676 3.82481 0
M  V30 1384 H 125.66 -1.82644 2.37237 0
M  V30 1385 H 123.206 -0.877305 1.1419 0
M  V30 1386 H 125.159 -4.01095 1.29232 0
M  V30 1387 H 123.883 -3.25137 0.308811 0
M  V30 1388 H 122.542 -2.78088 2.38877 0
M  V30 1389 H 122.19 -4.90468 1.11582 0
M  V30 1390 H 121.89 -5.13485 2.8567 0
M  V30 1391 H 123.414 -5.72166 2.13209 0
M  V30 1392 H 124.828 -4.24254 3.85592 0
M  V30 1393 H 123.225 -3.89388 4.56614 0
M  V30 1394 H 124.295 -2.55144 4.12346 0
M  V30 1395 N 125.638 -1.25649 -0.95132 0
M  V30 1396 C 126.601 -1.06399 -2.03007 0
M  V30 1397 C 127.601 -0.0156794 -1.60792 0
M  V30 1398 O 128.791 -0.25817 -1.72276 0
M  V30 1399 C 125.923 -0.616184 -3.35285 0
M  V30 1400 H 127.116 -2.02164 -2.21517 0
M  V30 1401 H 124.669 -1.08103 -1.12887 0
M  V30 1402 H 125.404 0.343917 -3.22471 0
M  V30 1403 H 125.189 -1.37301 -3.67275 0
M  V30 1404 H 126.679 -0.503032 -4.14559 0
M  V30 1405 N 127.117 1.15442 -1.07289 0
M  V30 1406 C 128.065 2.22225 -0.686952 0
M  V30 1407 C 129.059 1.66688 0.30193 0
M  V30 1408 O 130.265 1.79236 0.165712 0
M  V30 1409 H 126.64 0.723783 -0.204064 0
M  V30 1410 H 128.611 2.52056 -1.5972 0
M  V30 1411 C 127.36 3.47556 -0.100149 0
M  V30 1412 H 126.683 3.90612 -0.852211 0
M  V30 1413 H 128.123 4.23794 0.132235 0
M  V30 1414 C 126.582 3.16337 1.159 0
M  V30 1415 O 127.112 3.33074 2.24555 0
M  V30 1416 N 125.318 2.70385 1.06491 0
M  V30 1417 H 124.865 2.56966 0.180668 0
M  V30 1418 H 124.823 2.49871 1.90819 0
M  V30 1419 N 128.595 0.856903 1.32268 0
M  V30 1420 C 129.525 0.31858 2.31316 0
M  V30 1421 C 130.506 -0.583487 1.59779 0
M  V30 1422 O 131.691 -0.503259 1.87566 0
M  V30 1423 C 128.821 -0.491979 3.43798 0
M  V30 1424 C 127.775 0.315849 4.26833 0
M  V30 1425 C 127.101 -0.619586 5.31098 0
M  V30 1426 C 128.401 1.54282 4.98993 0
M  V30 1427 H 130.095 1.14621 2.76591 0
M  V30 1428 H 127.641 0.552613 1.32974 0
M  V30 1429 H 129.594 -0.879012 4.1213 0
M  V30 1430 H 128.318 -1.35299 2.97257 0
M  V30 1431 H 126.977 0.684664 3.6015 0
M  V30 1432 H 126.625 -1.47751 4.8081 0
M  V30 1433 H 126.325 -0.0830621 5.87541 0
M  V30 1434 H 127.849 -1.00375 6.02293 0
M  V30 1435 H 129.263 1.22796 5.59995 0
M  V30 1436 H 127.66 2.01745 5.65172 0
M  V30 1437 H 128.73 2.30285 4.26728 0
M  V30 1438 N 130.073 -1.45103 0.615059 0
M  V30 1439 C 131.003 -2.33339 -0.0865619 0
M  V30 1440 C 131.984 -1.4727 -0.851209 0
M  V30 1441 O 133.169 -1.76026 -0.820281 0
M  V30 1442 C 130.299 -3.30095 -1.07956 0
M  V30 1443 C 129.253 -4.25858 -0.427628 0
M  V30 1444 C 128.579 -5.12361 -1.5294 0
M  V30 1445 C 129.879 -5.18165 0.655944 0
M  V30 1446 H 131.573 -2.92254 0.650224 0
M  V30 1447 H 129.119 -1.40532 0.314138 0
M  V30 1448 H 131.072 -3.90698 -1.57901 0
M  V30 1449 H 129.796 -2.69355 -1.84703 0
M  V30 1450 H 128.455 -3.66564 0.0510292 0
M  V30 1451 H 128.103 -4.47984 -2.28734 0
M  V30 1452 H 127.803 -5.77238 -1.09865 0
M  V30 1453 H 129.327 -5.75833 -2.03098 0
M  V30 1454 H 130.741 -5.72796 0.240257 0
M  V30 1455 H 129.138 -5.91559 1.00888 0
M  V30 1456 H 130.208 -4.60144 1.52957 0
M  V30 1457 N 131.551 -0.354651 -1.53558 0
M  V30 1458 C 132.461 0.50515 -2.29097 0
M  V30 1459 C 133.477 1.10223 -1.34636 0
M  V30 1460 O 134.653 1.11553 -1.67684 0
M  V30 1461 C 131.718 1.63479 -3.05738 0
M  V30 1462 C 130.779 1.06636 -4.15845 0
M  V30 1463 C 130.012 2.14217 -4.88822 0
M  V30 1464 O 130.235 3.35137 -4.61562 0
M  V30 1465 O 129.169 1.77887 -5.75013 0
M  V30 1466 H 132.995 -0.109237 -3.03503 0
M  V30 1467 H 130.58 -0.119357 -1.48922 0
M  V30 1468 H 132.462 2.2918 -3.5363 0
M  V30 1469 H 131.137 2.23478 -2.34178 0
M  V30 1470 H 130.044 0.373565 -3.7223 0
M  V30 1471 H 131.377 0.511081 -4.89539 0
M  V30 1472 N 133.029 1.57378 -0.0835403 0
M  V30 1473 C 134.257 1.98263 0.59157 0
M  V30 1474 C 134.672 0.962302 1.62435 0
M  V30 1475 O 134.029 -0.049581 1.82433 0
M  V30 1476 C 134.08 3.39214 1.24965 0
M  V30 1477 O 133.801 4.37339 0.258186 0
M  V30 1478 C 135.302 3.95038 2.01147 0
M  V30 1479 H 132.522 0.651773 0.159477 0
M  V30 1480 H 135.066 2.03878 -0.159415 0
M  V30 1481 H 133.221 3.34649 1.95164 0
M  V30 1482 H 133.635 5.19371 0.731734 0
M  V30 1483 H 135.109 4.95848 2.42567 0
M  V30 1484 H 135.586 3.32222 2.87272 0
M  V30 1485 H 136.192 4.0304 1.35789 0
M  V30 1486 N 134.507 -0.190092 1.56449 0
M  V30 1487 C 135.437 -1.23816 1.97969 0
M  V30 1488 C 136.418 -1.47201 0.852395 0
M  V30 1489 O 137.603 -1.58854 1.1171 0
M  V30 1490 C 134.733 -2.5813 2.3235 0
M  V30 1491 C 133.687 -2.49348 3.47864 0
M  V30 1492 C 133.013 -3.8798 3.67934 0
M  V30 1493 C 134.313 -2.01424 4.81898 0
M  V30 1494 H 136.007 -0.89311 2.85769 0
M  V30 1495 H 133.553 -0.428177 1.37487 0
M  V30 1496 H 135.506 -3.31637 2.59991 0
M  V30 1497 H 134.23 -2.94386 1.41438 0
M  V30 1498 H 132.889 -1.78297 3.20321 0
M  V30 1499 H 132.537 -4.21597 2.74344 0
M  V30 1500 H 132.237 -3.82978 4.45648 0
M  V30 1501 H 133.761 -4.63101 3.97957 0
M  V30 1502 H 135.175 -2.64693 5.08538 0
M  V30 1503 H 133.572 -2.07413 5.63116 0
M  V30 1504 H 134.642 -0.967677 4.75146 0
M  V30 1505 N 135.985 -1.50799 -0.457987 0
M  V30 1506 C 137.234 -1.6168 -1.20593 0
M  V30 1507 C 137.547 -0.32888 -1.92815 0
M  V30 1508 O 138.753 -0.316773 -2.69646 0
M  V30 1509 C 137.209 -2.8545 -2.19195 0
M  V30 1510 C 136.817 -4.21168 -1.52715 0
M  V30 1511 C 138.561 -3.05681 -2.94549 0
M  V30 1512 C 136.468 -5.3611 -2.4968 0
M  V30 1513 H 135.398 -0.602134 -0.453818 0
M  V30 1514 H 138.049 -1.77245 -0.475031 0
M  V30 1515 H 136.431 -2.63472 -2.95632 0
M  V30 1516 H 137.605 -4.53449 -0.819775 0
M  V30 1517 H 135.92 -4.06648 -0.895922 0
M  V30 1518 H 138.517 -3.88727 -3.67145 0
M  V30 1519 H 138.86 -2.17929 -3.54701 0
M  V30 1520 H 139.393 -3.27901 -2.25223 0
M  V30 1521 H 136.132 -6.26057 -1.94249 0
M  V30 1522 H 135.652 -5.0823 -3.18532 0
M  V30 1523 H 137.331 -5.6722 -3.11241 0
M  V30 1524 N 137.463 0.71206 -1.40597 0
M  V30 1525 C 138.709 1.47416 -1.39271 0
M  V30 1526 C 139.042 1.942 0.00388791 0
M  V30 1527 O 138.317 1.68403 0.973179 0
M  V30 1528 C 138.6 2.69774 -2.38525 0
M  V30 1529 C 138.453 2.28861 -3.87224 0
M  V30 1530 C 139.772 3.71939 -2.35264 0
M  V30 1531 H 136.891 0.534713 -0.5072 0
M  V30 1532 H 139.533 0.812375 -1.71757 0
M  V30 1533 H 137.683 3.26238 -2.10953 0
M  V30 1534 H 139.355 1.77852 -4.25636 0
M  V30 1535 H 137.598 1.60824 -4.02887 0
M  V30 1536 H 138.269 3.16584 -4.52193 0
M  V30 1537 H 140.745 3.25113 -2.59694 0
M  V30 1538 H 139.621 4.55186 -3.06753 0
M  V30 1539 H 139.882 4.20484 -1.36549 0
M  V30 1540 N 138.941 1.26152 0.944643 0
M  V30 1541 C 139.874 1.01729 2.04271 0
M  V30 1542 C 140.852 -0.0568101 1.62501 0
M  V30 1543 O 142.036 0.0848987 1.88309 0
M  V30 1544 C 139.163 0.539792 3.34371 0
M  V30 1545 C 138.209 1.60593 3.9511 0
M  V30 1546 S 139.042 3.19392 4.29825 0
M  V30 1547 C 140.198 2.73402 5.63029 0
M  V30 1548 H 140.431 1.94703 2.24673 0
M  V30 1549 H 137.964 1.09793 1.08558 0
M  V30 1550 H 139.922 0.270956 4.09605 0
M  V30 1551 H 138.583 -0.369609 3.11918 0
M  V30 1552 H 137.776 1.22275 4.88943 0
M  V30 1553 H 137.378 1.82596 3.26397 0
M  V30 1554 H 139.67 2.1765 6.41588 0
M  V30 1555 H 140.613 3.65913 6.06229 0
M  V30 1556 H 141.021 2.13077 5.22741 0
M  V30 1557 N 140.419 -1.14872 1.07899 0
M  V30 1558 C 141.83 -1.67367 0.827363 0
M  V30 1559 C 142.181 -1.85236 -0.646693 0
M  V30 1560 O 141.306 -1.55974 -1.50004 0
M  V30 1561 C 141.901 -3.04016 1.49532 0
M  V30 1562 C 140.46 -3.53566 1.29106 0
M  V30 1563 C 139.607 -2.29161 1.56143 0
M  V30 1564 H 142.558 -0.990083 1.24028 0
M  V30 1565 H 142.579 -3.69219 0.919643 0
M  V30 1566 H 142.091 -2.90978 2.56814 0
M  V30 1567 H 140.192 -3.71835 0.238713 0
M  V30 1568 H 140.305 -4.34661 2.01511 0
M  V30 1569 H 138.669 -2.34978 0.982717 0
M  V30 1570 H 139.452 -2.18705 2.64619 0
M  V30 1571 N 141.898 -0.863906 -1.31812 0
M  V30 1572 C 142.828 -0.330843 -2.31144 0
M  V30 1573 C 143.809 0.575005 -1.60087 0
M  V30 1574 O 144.994 0.493304 -1.8783 0
M  V30 1575 C 142.124 0.47374 -3.44054 0
M  V30 1576 C 141.078 -0.338481 -4.26659 0
M  V30 1577 C 140.404 0.591412 -5.31419 0
M  V30 1578 C 141.704 -1.56926 -4.98168 0
M  V30 1579 H 143.398 -1.16086 -2.75979 0
M  V30 1580 H 140.944 -0.559657 -1.32679 0
M  V30 1581 H 142.897 0.857143 -4.12591 0
M  V30 1582 H 141.621 1.33721 -2.9797 0
M  V30 1583 H 140.28 -0.703754 -3.59782 0
M  V30 1584 H 139.928 1.45199 -4.81587 0
M  V30 1585 H 139.628 0.0519022 -5.87577 0
M  V30 1586 H 141.152 0.97179 -6.02817 0
M  V30 1587 H 142.566 -1.25764 -5.59336 0
M  V30 1588 H 140.963 -2.04739 -5.64094 0
M  V30 1589 H 142.033 -2.32544 -4.25501 0
M  V30 1590 N 143.376 1.44774 -0.622745 0
M  V30 1591 C 144.653 1.95522 -0.0551974 0
M  V30 1592 C 145.033 1.5649 1.41683 0
M  V30 1593 O 144.381 0.834848 2.12703 0
M  V30 1594 C 144.591 3.4796 -0.269242 0
M  V30 1595 C 145.939 4.24306 -0.158014 0
M  V30 1596 O 146.963 3.55637 -0.200162 0
M  V30 1597 O 145.822 5.46471 -0.0558693 0
M  V30 1598 H 142.916 0.826556 0.0271015 0
M  V30 1599 H 145.462 1.54866 -0.693864 0
M  V30 1600 H 144.234 3.6939 -1.29099 0
M  V30 1601 H 143.857 3.95543 0.403966 0
M  V30 1602 N 144.854 0.36279 1.53368 0
M  V30 1603 C 146.102 -0.227326 2.00817 0
M  V30 1604 C 146.423 -1.49511 1.25186 0
M  V30 1605 O 145.693 -1.92482 0.364348 0
M  V30 1606 H 144.273 -0.0869923 0.741917 0
M  V30 1607 H 146.935 0.488381 1.88682 0
M  V30 1608 H 146.031 -0.456273 3.08747 0
M  V30 1609 N 146.332 -1.57332 0.0918853 0
M  V30 1610 C 147.265 -2.09499 -0.904735 0
M  V30 1611 C 148.243 -1.00479 -1.27839 0
M  V30 1612 O 149.427 -1.27954 -1.38419 0
M  V30 1613 C 146.554 -2.56931 -2.2069 0
M  V30 1614 C 145.6 -3.77579 -1.98334 0
M  V30 1615 S 146.433 -5.21317 -1.22428 0
M  V30 1616 C 147.589 -5.72097 -2.53882 0
M  V30 1617 H 147.822 -2.93705 -0.460922 0
M  V30 1618 H 145.355 -1.53923 -0.121332 0
M  V30 1619 H 147.313 -2.84917 -2.95521 0
M  V30 1620 H 145.974 -1.72956 -2.62192 0
M  V30 1621 H 145.167 -4.08824 -2.94752 0
M  V30 1622 H 144.769 -3.5007 -1.31633 0
M  V30 1623 H 147.061 -5.80168 -3.49874 0
M  V30 1624 H 148.004 -6.70654 -2.27219 0
M  V30 1625 H 148.412 -5.00012 -2.62007 0
M  V30 1626 N 147.81 0.181792 -1.56548 0
M  V30 1627 C 149.056 0.896803 -1.82562 0
M  V30 1628 C 149.411 1.80324 -0.670908 0
M  V30 1629 O 148.704 1.8868 0.333235 0
M  V30 1630 C 148.898 1.73728 -3.12335 0
M  V30 1631 C 148.727 0.913714 -4.4032 0
M  V30 1632 C 147.497 0.592903 -5.01809 0
M  V30 1633 C 149.695 0.260164 -5.13642 0
M  V30 1634 N 147.677 -0.247901 -6.13399 0
M  V30 1635 C 149.048 -0.442256 -6.18421 0
M  V30 1636 C 151.103 0.177253 -4.97584 0
M  V30 1637 C 149.806 -1.21971 -7.08883 0
M  V30 1638 C 151.832 -0.586839 -5.88481 0
M  V30 1639 C 151.194 -1.27766 -6.92716 0
M  V30 1640 H 147.293 0.307122 -0.719166 0
M  V30 1641 H 149.877 0.164535 -1.94004 0
M  V30 1642 H 148.048 2.44105 -3.02105 0
M  V30 1643 H 149.78 2.39279 -3.26386 0
M  V30 1644 H 146.535 0.920502 -4.64568 0
M  V30 1645 H 146.959 -0.658304 -6.73792 0
M  V30 1646 H 151.601 0.696993 -4.17015 0
M  V30 1647 H 149.319 -1.75083 -7.88905 0
M  V30 1648 H 152.905 -0.652522 -5.78129 0
M  V30 1649 H 151.785 -1.85943 -7.61836 0
M  V30 1650 N 149.288 1.51039 0.449983 0
M  V30 1651 C 150.236 1.71995 1.5659 0
M  V30 1652 C 151.23 0.586029 1.5894 0
M  V30 1653 O 152.436 0.76709 1.62837 0
M  V30 1654 H 148.811 0.543233 0.520001 0
M  V30 1655 H 150.782 2.65562 1.36085 0
M  V30 1656 C 149.531 1.8506 2.9436 0
M  V30 1657 H 148.854 2.71712 2.93279 0
M  V30 1658 H 150.294 2.0374 3.71842 0
M  V30 1659 C 148.753 0.607277 3.31382 0
M  V30 1660 O 149.283 -0.243903 4.00959 0
M  V30 1661 N 147.489 0.455073 2.87015 0
M  V30 1662 H 147.036 1.14879 2.30566 0
M  V30 1663 H 146.994 -0.375611 3.12148 0
M  V30 1664 N 150.766 -0.704594 1.40972 0
M  V30 1665 C 152.015 -1.46018 1.39146 0
M  V30 1666 C 152.328 -1.956 0.000589254 0
M  V30 1667 O 153.534 -2.71137 -0.1403 0
M  V30 1668 C 151.99 -2.63996 2.4461 0
M  V30 1669 C 151.598 -2.21238 3.89561 0
M  V30 1670 C 153.342 -3.41677 2.51907 0
M  V30 1671 C 151.249 -3.3612 4.86598 0
M  V30 1672 H 150.179 -0.548444 0.517422 0
M  V30 1673 H 152.83 -0.765784 1.66757 0
M  V30 1674 H 151.212 -3.3566 2.10115 0
M  V30 1675 H 152.386 -1.56923 4.33257 0
M  V30 1676 H 150.701 -1.56574 3.85841 0
M  V30 1677 H 153.298 -4.27182 3.2159 0
M  V30 1678 H 153.641 -3.86247 1.55303 0
M  V30 1679 H 154.174 -2.77064 2.85448 0
M  V30 1680 H 150.913 -2.96572 5.84573 0
M  V30 1681 H 150.433 -3.99315 4.47557 0
M  V30 1682 H 152.112 -4.02029 5.06934 0
M  V30 1683 N 152.244 -1.26651 -0.937939 0
M  V30 1684 C 153.472 -1.15173 -1.7188 0
M  V30 1685 C 153.887 0.292668 -1.86518 0
M  V30 1686 O 153.244 1.20014 -1.37488 0
M  V30 1687 C 153.295 -1.81925 -3.12387 0
M  V30 1688 O 153.016 -3.2072 -2.98446 0
M  V30 1689 C 154.517 -1.76442 -4.06673 0
M  V30 1690 H 151.737 -0.400911 -0.538063 0
M  V30 1691 H 154.281 -1.67332 -1.1756 0
M  V30 1692 H 152.436 -1.33696 -3.63599 0
M  V30 1693 H 152.85 -3.53802 -3.872 0
M  V30 1694 H 154.324 -2.27781 -5.02812 0
M  V30 1695 H 154.801 -0.731608 -4.33064 0
M  V30 1696 H 155.407 -2.24238 -3.61382 0
M  V30 1697 N 153.722 1.14298 -1.08507 0
M  V30 1698 C 154.968 1.85633 -0.816581 0
M  V30 1699 C 155.301 1.82784 0.656021 0
M  V30 1700 O 154.576 1.25926 1.48233 0
M  V30 1701 C 154.859 3.34223 -1.34041 0
M  V30 1702 C 154.712 3.45639 -2.87843 0
M  V30 1703 C 156.031 4.29356 -0.9665 0
M  V30 1704 H 153.15 0.67402 -0.298104 0
M  V30 1705 H 155.792 1.34214 -1.34487 0
M  V30 1706 H 153.942 3.78144 -0.89104 0
M  V30 1707 H 155.614 3.10498 -3.41158 0
M  V30 1708 H 153.857 2.86817 -3.25451 0
M  V30 1709 H 154.528 4.50089 -3.19569 0
M  V30 1710 H 157.004 3.93457 -1.35391 0
M  V30 1711 H 155.88 5.3178 -1.3602 0
M  V30 1712 H 156.141 4.41919 0.126362 0
M  V30 1713 N 155.201 0.870884 1.31352 0
M  V30 1714 C 156.133 0.28455 2.27427 0
M  V30 1715 C 157.146 -0.552927 1.53123 0
M  V30 1716 O 158.335 -0.374771 1.74521 0
M  V30 1717 C 155.435 -0.615164 3.3327 0
M  V30 1718 C 154.608 0.190079 4.36987 0
M  V30 1719 C 153.667 -0.637917 5.22319 0
M  V30 1720 O 152.693 -0.065626 5.69162 0
M  V30 1721 N 153.895 -1.94973 5.46778 0
M  V30 1722 H 156.66 1.11017 2.7838 0
M  V30 1723 H 154.221 0.732458 1.44384 0
M  V30 1724 H 156.213 -1.1748 3.87273 0
M  V30 1725 H 154.783 -1.34146 2.82354 0
M  V30 1726 H 154.003 0.931165 3.83044 0
M  V30 1727 H 155.291 0.742579 5.03352 0
M  V30 1728 H 154.689 -2.4378 5.10478 0
M  V30 1729 H 153.246 -2.45713 6.03712 0
M  V30 1730 N 156.679 -1.44442 0.630414 0
M  V30 1731 C 157.925 -2.02894 0.143332 0
M  V30 1732 C 158.28 -1.48697 -1.22094 0
M  V30 1733 O 157.573 -0.661171 -1.79831 0
M  V30 1734 C 157.767 -3.57332 0.0697835 0
M  V30 1735 C 157.596 -4.26512 1.42539 0
M  V30 1736 C 156.366 -4.63516 2.01198 0
M  V30 1737 C 158.564 -4.57004 2.35907 0
M  V30 1738 N 156.546 -5.17661 3.30001 0
M  V30 1739 C 157.917 -5.12223 3.49324 0
M  V30 1740 C 159.972 -4.38955 2.34995 0
M  V30 1741 C 158.675 -5.51295 4.62024 0
M  V30 1742 C 160.701 -4.79075 3.46758 0
M  V30 1743 C 160.063 -5.34407 4.58899 0
M  V30 1744 H 156.162 -0.776041 0.0963523 0
M  V30 1745 H 158.746 -1.75945 0.833752 0
M  V30 1746 H 156.917 -3.83894 -0.589915 0
M  V30 1747 H 158.649 -4.02451 -0.42606 0
M  V30 1748 H 155.404 -4.47811 1.54151 0
M  V30 1749 H 155.828 -5.4921 3.95851 0
M  V30 1750 H 160.47 -3.95469 1.49545 0
M  V30 1751 H 158.188 -5.93736 5.48182 0
M  V30 1752 H 161.774 -4.66824 3.47227 0
M  V30 1753 H 160.654 -5.64878 5.4395 0
M  V30 1754 N 158.157 -0.370918 -1.53173 0
M  V30 1755 C 159.387 0.217389 -2.05453 0
M  V30 1756 C 159.795 1.42568 -1.24382 0
M  V30 1757 O 159.138 1.81571 -0.278839 0
M  V30 1758 C 159.2 0.669827 -3.53205 0
M  V30 1759 C 158.864 -0.4225 -4.55043 0
M  V30 1760 C 159.861 -1.27407 -5.04047 0
M  V30 1761 C 157.546 -0.58427 -4.9889 0
M  V30 1762 C 159.54 -2.27271 -5.95505 0
M  V30 1763 C 157.227 -1.58627 -5.90153 0
M  V30 1764 C 158.225 -2.42892 -6.38351 0
M  V30 1765 O 157.913 -3.41382 -7.27814 0
M  V30 1766 H 157.645 0.0408171 -0.674767 0
M  V30 1767 H 160.199 -0.5292 -1.98466 0
M  V30 1768 H 158.429 1.4681 -3.57748 0
M  V30 1769 H 160.118 1.18173 -3.88317 0
M  V30 1770 H 160.884 -1.16031 -4.70916 0
M  V30 1771 H 156.763 0.061851 -4.60959 0
M  V30 1772 H 160.307 -2.93079 -6.33049 0
M  V30 1773 H 156.204 -1.70048 -6.22699 0
M  V30 1774 H 156.972 -3.37173 -7.45826 0
M  V30 1775 N 159.635 1.57281 -0.100228 0
M  V30 1776 C 160.598 2.13158 0.842398 0
M  V30 1777 C 161.598 1.06202 1.20738 0
M  V30 1778 O 162.788 1.32066 1.13597 0
M  V30 1779 C 159.92 2.65639 2.13655 0
M  V30 1780 H 161.113 2.97766 0.357114 0
M  V30 1781 H 158.666 1.5559 0.148823 0
M  V30 1782 H 159.401 1.84566 2.66657 0
M  V30 1783 H 159.186 3.43844 1.88451 0
M  V30 1784 H 160.676 3.08846 2.81077 0
M  V30 1785 N 161.113 -0.173488 1.56642 0
M  V30 1786 C 162.361 -0.888706 1.81512 0
M  V30 1787 C 162.682 -1.82875 0.676872 0
M  V30 1788 O 161.952 -1.93536 -0.303414 0
M  V30 1789 H 160.532 -0.331164 0.669582 0
M  V30 1790 H 163.194 -0.173823 1.94123 0
M  V30 1791 H 162.29 -1.46691 2.75478 0
M  V30 1792 N 162.591 -1.51276 -0.441967 0
M  V30 1793 C 163.501 -1.75092 -1.56141 0
M  V30 1794 C 164.517 -0.634963 -1.62001 0
M  V30 1795 O 165.693 -0.916686 -1.79329 0
M  V30 1796 C 162.758 -1.86666 -2.92158 0
M  V30 1797 C 161.819 -3.10506 -2.96453 0
M  V30 1798 C 161.052 -3.21519 -4.25982 0
M  V30 1799 O 161.275 -2.38586 -5.18105 0
M  V30 1800 O 160.209 -4.14465 -4.36466 0
M  V30 1801 H 164.035 -2.70044 -1.38961 0
M  V30 1802 H 161.62 -1.35722 -0.624499 0
M  V30 1803 H 163.502 -1.96292 -3.72891 0
M  V30 1804 H 162.177 -0.949014 -3.09476 0
M  V30 1805 H 161.084 -3.06363 -2.14692 0
M  V30 1806 H 162.417 -4.01945 -2.84079 0
M  V30 1807 N 164.069 0.697108 -1.41344 0
M  V30 1808 C 164.999 1.82353 -1.45841 0
M  V30 1809 C 165.98 1.67115 -0.317247 0
M  V30 1810 O 167.165 1.86871 -0.528474 0
M  V30 1811 C 164.295 3.20476 -1.33838 0
M  V30 1812 C 163.249 3.50415 -2.4575 0
M  V30 1813 C 162.575 4.87878 -2.18813 0
M  V30 1814 C 163.875 3.49546 -3.88091 0
M  V30 1815 H 165.569 1.78846 -2.40113 0
M  V30 1816 H 163.115 0.859028 -1.15571 0
M  V30 1817 H 165.068 3.98988 -1.35596 0
M  V30 1818 H 163.792 3.24604 -0.360498 0
M  V30 1819 H 162.451 2.74253 -2.43271 0
M  V30 1820 H 162.099 4.8863 -1.19371 0
M  V30 1821 H 161.799 5.08875 -2.93803 0
M  V30 1822 H 163.323 5.68702 -2.22284 0
M  V30 1823 H 164.737 4.18066 -3.92293 0
M  V30 1824 H 163.134 3.82075 -4.62751 0
M  V30 1825 H 164.204 2.48552 -4.16353 0
M  V30 1826 N 165.547 1.27147 0.931209 0
M  V30 1827 C 166.477 1.12081 2.04842 0
M  V30 1828 C 167.458 0.0232364 1.70084 0
M  V30 1829 O 168.643 0.197085 1.93197 0
M  V30 1830 C 165.773 0.76354 3.38803 0
M  V30 1831 C 164.727 1.81396 3.87659 0
M  V30 1832 C 164.053 1.31075 5.18385 0
M  V30 1833 C 165.353 3.21739 4.11438 0
M  V30 1834 H 167.047 2.05537 2.17703 0
M  V30 1835 H 164.593 0.989603 1.04608 0
M  V30 1836 H 166.546 0.644982 4.16435 0
M  V30 1837 H 165.27 -0.206727 3.25945 0
M  V30 1838 H 163.929 1.92136 3.12217 0
M  V30 1839 H 163.577 0.330037 5.01916 0
M  V30 1840 H 163.277 2.013 5.52044 0
M  V30 1841 H 164.801 1.20506 5.98591 0
M  V30 1842 H 166.215 3.14019 4.79651 0
M  V30 1843 H 164.612 3.89644 4.56397 0
M  V30 1844 H 165.682 3.67054 3.16859 0
M  V30 1845 N 167.025 -1.13721 1.09112 0
M  V30 1846 C 168.265 -1.86576 0.834801 0
M  V30 1847 C 168.629 -1.81435 -0.628122 0
M  V30 1848 O 169.83 -2.49497 -1.00024 0
M  V30 1849 C 168.101 -3.30872 1.35124 0
M  V30 1850 S 169.66 -4.21257 1.22832 0
M  V30 1851 H 166.478 -0.643666 0.302017 0
M  V30 1852 H 169.08 -1.37085 1.39385 0
M  V30 1853 H 167.784 -3.32166 2.41027 0
M  V30 1854 H 167.315 -3.85423 0.788185 0
M  V30 1855 H 169.33 -4.95884 0.177191 0
M  V30 1856 N 168.503 -0.877838 -1.30888 0
M  V30 1857 C 169.45 -0.337538 -2.28318 0
M  V30 1858 C 170.42 0.568346 -1.56074 0
M  V30 1859 O 171.605 0.498298 -1.84178 0
M  V30 1860 C 168.745 0.448142 -3.42178 0
M  V30 1861 C 167.858 -0.48615 -4.29256 0
M  V30 1862 C 166.993 0.314427 -5.30269 0
M  V30 1863 C 166.032 -0.615791 -6.08995 0
M  V30 1864 N 165.169 0.14902 -7.01942 0
M  V30 1865 H 170.009 -1.17356 -2.73919 0
M  V30 1866 H 167.546 -0.590094 -1.34745 0
M  V30 1867 H 169.504 0.919517 -4.06941 0
M  V30 1868 H 168.134 1.24879 -2.97666 0
M  V30 1869 H 167.186 -1.076 -3.64865 0
M  V30 1870 H 168.498 -1.19909 -4.84173 0
M  V30 1871 H 167.652 0.847969 -6.00745 0
M  V30 1872 H 166.391 1.06062 -4.76027 0
M  V30 1873 H 165.396 -1.16102 -5.37401 0
M  V30 1874 H 166.621 -1.36097 -6.65323 0
M  V30 1875 H 164.567 0.877884 -6.50099 0
M  V30 1876 H 164.484 -0.504433 -7.54315 0
M  V30 1877 H 165.752 0.663537 -7.76671 0
M  V30 1878 N 169.982 1.44106 -0.638065 0
M  V30 1879 C 171.228 2.02277 -0.145546 0
M  V30 1880 C 171.561 1.50125 1.23191 0
M  V30 1881 O 170.836 0.688133 1.8192 0
M  V30 1882 C 171.119 3.59829 -0.139791 0
M  V30 1883 C 170.972 4.22247 -1.55008 0
M  V30 1884 C 172.291 4.36873 0.531966 0
M  V30 1885 H 169.41 0.734992 -0.0543632 0
M  V30 1886 H 172.052 1.71592 -0.815863 0
M  V30 1887 H 170.202 3.86102 0.431007 0
M  V30 1888 H 171.874 4.07057 -2.1703 0
M  V30 1889 H 170.117 3.79476 -2.10191 0
M  V30 1890 H 170.788 5.31284 -1.49804 0
M  V30 1891 H 173.264 4.16074 0.0464781 0
M  V30 1892 H 172.14 5.4657 0.505206 0
M  V30 1893 H 172.401 4.11995 1.60352 0
M  V30 1894 N 171.46 0.379036 1.52974 0
M  V30 1895 C 172.39 -0.452706 2.29069 0
M  V30 1896 C 173.371 -1.07237 1.32039 0
M  V30 1897 O 174.556 -1.08708 1.60923 0
M  V30 1898 C 171.686 -1.5856 3.08992 0
M  V30 1899 C 170.64 -1.0925 4.13822 0
M  V30 1900 C 169.966 -2.31668 4.81907 0
M  V30 1901 C 171.266 -0.167702 5.22031 0
M  V30 1902 H 172.96 0.182181 2.98845 0
M  V30 1903 H 170.506 0.0890592 1.43724 0
M  V30 1904 H 172.459 -2.1742 3.6098 0
M  V30 1905 H 171.183 -2.24792 2.36931 0
M  V30 1906 H 169.842 -0.526494 3.628 0
M  V30 1907 H 169.49 -2.96386 4.06404 0
M  V30 1908 H 169.19 -1.9934 5.52754 0
M  V30 1909 H 170.714 -2.91189 5.36695 0
M  V30 1910 H 172.128 -0.664186 5.6944 0
M  V30 1911 H 170.525 0.0653265 6.00064 0
M  V30 1912 H 171.595 0.786347 4.78482 0
M  V30 1913 N 172.938 -1.57226 0.108567 0
M  V30 1914 C 174.163 -1.99604 -0.563303 0
M  V30 1915 C 174.588 -0.987563 -1.6009 0
M  V30 1916 O 173.946 0.0421687 -1.81251 0
M  V30 1917 C 173.994 -3.40902 -1.17552 0
M  V30 1918 O 173.098 -3.42896 -2.2912 0
M  V30 1919 H 172.439 -0.648704 -0.1417 0
M  V30 1920 H 174.969 -2.03679 0.193961 0
M  V30 1921 H 174.979 -3.78886 -1.51357 0
M  V30 1922 H 173.654 -4.1382 -0.415445 0
M  V30 1923 H 172.231 -3.1672 -1.96832 0
M  V30 1924 N 174.416 0.165178 -1.56732 0
M  V30 1925 C 175.646 0.894919 -1.86212 0
M  V30 1926 C 176.054 1.76066 -0.692627 0
M  V30 1927 O 175.397 1.80387 0.347303 0
M  V30 1928 C 175.459 1.8174 -3.10179 0
M  V30 1929 C 175.123 1.13064 -4.42793 0
M  V30 1930 C 176.12 0.493169 -5.17556 0
M  V30 1931 C 173.805 1.12556 -4.89527 0
M  V30 1932 C 175.799 -0.140209 -6.37246 0
M  V30 1933 C 173.486 0.488366 -6.09145 0
M  V30 1934 C 174.484 -0.143411 -6.82849 0
M  V30 1935 O 174.172 -0.77055 -8.00199 0
M  V30 1936 H 173.904 0.265114 -0.621844 0
M  V30 1937 H 176.458 0.168242 -2.0471 0
M  V30 1938 H 174.688 2.58455 -2.87642 0
M  V30 1939 H 176.377 2.4175 -3.26055 0
M  V30 1940 H 177.143 0.489023 -4.82528 0
M  V30 1941 H 173.022 1.60672 -4.32094 0
M  V30 1942 H 176.566 -0.633932 -6.94714 0
M  V30 1943 H 172.463 0.490116 -6.43637 0
M  V30 1944 H 173.231 -0.670408 -8.1575 0
M  V30 1945 N 175.894 1.51508 0.433938 0
M  V30 1946 C 176.824 1.76016 1.53429 0
M  V30 1947 C 177.805 0.610112 1.58782 0
M  V30 1948 O 178.99 0.853177 1.74455 0
M  V30 1949 C 176.12 1.88831 2.9148 0
M  V30 1950 C 175.074 3.04288 3.00987 0
M  V30 1951 C 174.4 3.0229 4.4105 0
M  V30 1952 C 175.7 4.44193 2.74754 0
M  V30 1953 H 177.394 2.68152 1.33171 0
M  V30 1954 H 174.94 1.29035 0.639214 0
M  V30 1955 H 176.893 2.04559 3.6842 0
M  V30 1956 H 175.617 0.933455 3.12976 0
M  V30 1957 H 174.276 2.8827 2.26486 0
M  V30 1958 H 173.924 2.04576 4.59519 0
M  V30 1959 H 173.624 3.79822 4.4834 0
M  V30 1960 H 175.148 3.20116 5.1996 0
M  V30 1961 H 176.562 4.60544 3.41426 0
M  V30 1962 H 174.959 5.23457 2.9345 0
M  V30 1963 H 176.029 4.53996 1.70339 0
M  V30 1964 N 177.372 -0.689602 1.41712 0
M  V30 1965 C 178.319 -1.80345 1.44029 0
M  V30 1966 C 179.289 -1.63478 0.293948 0
M  V30 1967 O 180.474 -1.84244 0.495869 0
M  V30 1968 C 177.614 -3.18272 1.33405 0
M  V30 1969 C 176.727 -3.46529 2.57956 0
M  V30 1970 C 175.862 -4.74103 2.39582 0
M  V30 1971 C 174.901 -4.95347 3.5958 0
M  V30 1972 N 174.038 -6.14151 3.40239 0
M  V30 1973 H 178.878 -1.77698 2.39222 0
M  V30 1974 H 176.415 -0.867688 1.18784 0
M  V30 1975 H 178.373 -3.97956 1.25246 0
M  V30 1976 H 177.003 -3.2008 0.418164 0
M  V30 1977 H 176.055 -2.61207 2.76542 0
M  V30 1978 H 177.367 -3.58126 3.47199 0
M  V30 1979 H 176.521 -5.61853 2.28924 0
M  V30 1980 H 175.26 -4.64763 1.47805 0
M  V30 1981 H 174.265 -4.06044 3.70686 0
M  V30 1982 H 175.49 -5.06542 4.52318 0
M  V30 1983 H 173.436 -6.06013 2.51167 0
M  V30 1984 H 173.353 -6.26543 4.23061 0
M  V30 1985 H 174.621 -7.04619 3.33365 0
M  V30 1986 N 178.85 -1.27639 -0.924453 0
M  V30 1987 C 179.78 -1.13166 -2.04244 0
M  V30 1988 C 180.761 -0.032256 -1.70069 0
M  V30 1989 O 181.946 -0.207328 -1.9309 0
M  V30 1990 C 179.076 -0.781496 -3.38393 0
M  V30 1991 C 178.03 -1.83449 -3.86692 0
M  V30 1992 C 177.356 -1.33822 -5.17683 0
M  V30 1993 C 178.656 -3.23917 -4.09726 0
M  V30 1994 H 180.35 -2.06689 -2.1661 0
M  V30 1995 H 177.896 -0.995136 -1.04082 0
M  V30 1996 H 179.849 -0.667057 -4.16087 0
M  V30 1997 H 178.573 0.189439 -3.2605 0
M  V30 1998 H 177.232 -1.93789 -3.11193 0
M  V30 1999 H 176.88 -0.35665 -5.01734 0
M  V30 2000 H 176.58 -2.04224 -5.50968 0
M  V30 2001 H 178.104 -1.23679 -5.97943 0
M  V30 2002 H 179.518 -3.16559 -4.77978 0
M  V30 2003 H 177.915 -3.92059 -4.54324 0
M  V30 2004 H 178.985 -3.68729 -3.14908 0
M  V30 2005 N 180.328 1.1314 -1.09713 0
M  V30 2006 C 181.575 1.84484 -0.834987 0
M  V30 2007 C 181.903 1.83689 0.639418 0
M  V30 2008 O 181.158 1.2724 1.4869 0
M  V30 2009 C 181.457 3.32167 -1.3191 0
M  V30 2010 C 181.123 3.53139 -2.80363 0
M  V30 2011 C 179.785 3.58571 -3.20905 0
M  V30 2012 C 182.137 3.60866 -3.76065 0
M  V30 2013 C 179.465 3.69267 -4.55916 0
M  V30 2014 C 181.817 3.73089 -5.10869 0
M  V30 2015 C 180.481 3.76775 -5.50996 0
M  V30 2016 H 179.751 0.675073 -0.305544 0
M  V30 2017 H 182.398 1.33554 -1.37243 0
M  V30 2018 H 180.703 3.85469 -0.701517 0
M  V30 2019 H 182.4 3.85821 -1.09284 0
M  V30 2020 H 178.99 3.49569 -2.47991 0
M  V30 2021 H 183.174 3.55946 -3.45855 0
M  V30 2022 H 178.43 3.70388 -4.86438 0
M  V30 2023 H 182.604 3.78011 -5.84877 0
M  V30 2024 H 180.231 3.84815 -6.55608 0
M  V30 2025 N 181.806 0.884767 1.30421 0
M  V30 2026 C 183.031 0.517288 2.00845 0
M  V30 2027 C 183.456 -0.886779 1.65885 0
M  V30 2028 O 182.814 -1.58768 0.875354 0
M  V30 2029 C 182.862 0.698994 3.5376 0
M  V30 2030 O 181.966 -0.255208 4.1161 0
M  V30 2031 H 181.307 0.203872 0.631927 0
M  V30 2032 H 183.837 1.19225 1.66272 0
M  V30 2033 H 183.847 0.597912 4.03595 0
M  V30 2034 H 182.522 1.72271 3.78544 0
M  V30 2035 H 181.099 -0.10784 3.72744 0
M  V30 2036 N 183.284 -1.43765 0.645699 0
M  V30 2037 C 184.217 -2.2798 -0.100072 0
M  V30 2038 C 185.195 -1.39391 -0.837194 0
M  V30 2039 O 186.379 -1.68833 -0.838306 0
M  V30 2040 C 183.506 -3.18643 -1.14823 0
M  V30 2041 C 182.552 -4.2344 -0.510009 0
M  V30 2042 S 183.385 -5.30761 0.710824 0
M  V30 2043 C 184.541 -6.24992 -0.33699 0
M  V30 2044 H 184.774 -2.90884 0.614322 0
M  V30 2045 H 182.307 -1.48166 0.434304 0
M  V30 2046 H 184.265 -3.71424 -1.74799 0
M  V30 2047 H 182.926 -2.54932 -1.8349 0
M  V30 2048 H 182.119 -4.86948 -1.29991 0
M  V30 2049 H 181.721 -3.73997 0.0154577 0
M  V30 2050 H 184.013 -6.66691 -1.20537 0
M  V30 2051 H 184.956 -7.07612 0.262879 0
M  V30 2052 H 185.364 -5.60517 -0.669425 0
M  V30 2053 N 184.763 -0.387143 -1.52771 0
M  V30 2054 C 185.993 0.195585 -2.05672 0
M  V30 2055 C 186.401 1.41241 -1.25887 0
M  V30 2056 O 185.744 1.81265 -0.298081 0
M  V30 2057 C 185.806 0.632327 -3.53895 0
M  V30 2058 C 185.47 -0.470739 -4.54569 0
M  V30 2059 C 186.467 -1.32746 -5.02667 0
M  V30 2060 C 184.152 -0.637151 -4.98243 0
M  V30 2061 C 186.146 -2.33574 -5.93061 0
M  V30 2062 C 183.833 -1.64877 -5.88438 0
M  V30 2063 C 184.831 -2.49649 -6.35739 0
M  V30 2064 O 184.519 -3.49082 -7.24153 0
M  V30 2065 H 184.251 0.033658 -0.675162 0
M  V30 2066 H 186.805 -0.550221 -1.97893 0
M  V30 2067 H 185.035 1.43008 -3.59285 0
M  V30 2068 H 186.724 1.14048 -3.89548 0
M  V30 2069 H 187.49 -1.21019 -4.69659 0
M  V30 2070 H 183.369 0.0129567 -4.60998 0
M  V30 2071 H 186.913 -2.99777 -6.29904 0
M  V30 2072 H 182.81 -1.76643 -6.2086 0
M  V30 2073 H 183.578 -3.45065 -7.42208 0
M  V30 2074 N 186.241 1.57166 -0.116904 0
M  V30 2075 C 187.204 2.14039 0.819742 0
M  V30 2076 C 188.204 1.07477 1.19605 0
M  V30 2077 O 189.394 1.33263 1.1219 0
M  V30 2078 C 186.526 2.67891 2.10826 0
M  V30 2079 H 187.719 2.98128 0.325511 0
M  V30 2080 H 185.272 1.55739 0.132312 0
M  V30 2081 H 186.007 1.87384 2.64685 0
M  V30 2082 H 185.792 3.45823 1.84793 0
M  V30 2083 H 187.282 3.11809 2.77785 0
M  V30 2084 N 187.719 -0.156864 1.56817 0
M  V30 2085 C 189.13 -0.717916 1.72345 0
M  V30 2086 C 189.481 -1.82124 0.729747 0
M  V30 2087 O 188.606 -2.16141 -0.105781 0
M  V30 2088 C 189.201 -1.30904 3.12489 0
M  V30 2089 C 187.76 -1.81676 3.29653 0
M  V30 2090 C 186.907 -0.701349 2.68284 0
M  V30 2091 H 189.858 0.0686989 1.58551 0
M  V30 2092 H 189.879 -2.17882 3.11942 0
M  V30 2093 H 189.391 -0.505796 3.8479 0
M  V30 2094 H 187.492 -2.64598 2.62333 0
M  V30 2095 H 187.605 -1.95226 4.3752 0
M  V30 2096 H 185.969 -1.12548 2.28484 0
M  V30 2097 H 186.752 0.0902846 3.43181 0
M  V30 2098 N 189.197 -1.51736 -0.425897 0
M  V30 2099 C 190.16 -1.73271 -1.50032 0
M  V30 2100 C 191.16 -0.602639 -1.4908 0
M  V30 2101 O 192.35 -0.87033 -1.509 0
M  V30 2102 C 189.482 -1.79969 -2.89523 0
M  V30 2103 H 190.675 -2.69172 -1.32237 0
M  V30 2104 H 188.228 -1.41899 -0.65532 0
M  V30 2105 H 188.963 -0.859241 -3.1271 0
M  V30 2106 H 188.748 -2.62109 -2.91619 0
M  V30 2107 H 190.238 -1.9843 -3.67444 0
M  V30 2108 N 190.675 0.682077 -1.42076 0
M  V30 2109 C 191.922 1.44215 -1.42156 0
M  V30 2110 C 192.25 1.94468 -0.0354186 0
M  V30 2111 O 191.505 1.70816 0.955002 0
M  V30 2112 C 191.804 2.66036 -2.38662 0
M  V30 2113 C 191.47 2.34366 -3.85206 0
M  V30 2114 C 190.132 2.25439 -4.25124 0
M  V30 2115 C 192.484 2.08513 -4.77673 0
M  V30 2116 C 189.812 1.88775 -5.55501 0
M  V30 2117 C 192.164 1.73354 -6.08384 0
M  V30 2118 C 190.828 1.62933 -6.47309 0
M  V30 2119 H 190.098 0.527718 -0.520187 0
M  V30 2120 H 192.745 0.778387 -1.74967 0
M  V30 2121 H 191.05 3.3741 -1.99152 0
M  V30 2122 H 192.747 3.24205 -2.35991 0
M  V30 2123 H 189.337 2.42213 -3.53597 0
M  V30 2124 H 193.521 2.14346 -4.47626 0
M  V30 2125 H 188.777 1.7927 -5.84527 0
M  V30 2126 H 192.951 1.52373 -6.79526 0
M  V30 2127 H 190.578 1.34292 -7.48244 0
M  V30 2128 N 192.153 1.28127 0.917671 0
M  V30 2129 C 193.086 1.06039 2.02067 0
M  V30 2130 C 194.064 -0.0223285 1.62585 0
M  V30 2131 O 195.248 0.124823 1.88086 0
M  V30 2132 C 192.375 0.610596 3.33151 0
M  V30 2133 C 191.421 1.68937 3.91615 0
M  V30 2134 S 192.254 3.28437 4.22953 0
M  V30 2135 C 193.41 2.85283 5.57103 0
M  V30 2136 H 193.643 1.99425 2.20493 0
M  V30 2137 H 191.176 1.12071 1.06205 0
M  V30 2138 H 193.134 0.357778 4.08938 0
M  V30 2139 H 191.795 -0.303364 3.12632 0
M  V30 2140 H 190.988 1.32619 4.86239 0
M  V30 2141 H 190.59 1.89478 3.2245 0
M  V30 2142 H 192.882 2.3121 6.36827 0
M  V30 2143 H 193.825 3.7869 5.98331 0
M  V30 2144 H 194.233 2.24118 5.18104 0
M  V30 2145 N 193.631 -1.12557 1.10312 0
M  V30 2146 C 194.564 -2.1737 0.694674 0
M  V30 2147 C 195.542 -1.59745 -0.303373 0
M  V30 2148 O 196.726 -1.87408 -0.202578 0
M  V30 2149 C 193.853 -3.38691 0.0248052 0
M  V30 2150 C 192.899 -4.14943 0.986121 0
M  V30 2151 S 193.732 -4.73413 2.50281 0
M  V30 2152 C 194.888 -5.9807 1.84562 0
M  V30 2153 H 195.121 -2.5168 1.58255 0
M  V30 2154 H 192.654 -1.23998 0.919992 0
M  V30 2155 H 194.612 -4.08959 -0.355361 0
M  V30 2156 H 193.273 -3.02664 -0.839851 0
M  V30 2157 H 192.466 -5.01854 0.464651 0
M  V30 2158 H 192.068 -3.50377 1.30813 0
M  V30 2159 H 194.36 -6.67232 1.17507 0
M  V30 2160 H 195.303 -6.54841 2.69423 0
M  V30 2161 H 195.711 -5.49073 1.31069 0
M  V30 2162 N 195.109 -0.891671 -1.2995 0
M  V30 2163 C 196.355 -0.514261 -1.96171 0
M  V30 2164 C 196.688 0.935506 -1.70182 0
M  V30 2165 O 195.963 1.66204 -1.01028 0
M  V30 2166 C 196.246 -0.797719 -3.51153 0
M  V30 2167 C 196.099 -2.2986 -3.86632 0
M  V30 2168 C 197.418 -0.278749 -4.39216 0
M  V30 2169 H 194.537 -0.188314 -0.712535 0
M  V30 2170 H 197.179 -1.11689 -1.53706 0
M  V30 2171 H 195.329 -0.284826 -3.87455 0
M  V30 2172 H 197.001 -2.88042 -3.60319 0
M  V30 2173 H 195.244 -2.76257 -3.34462 0
M  V30 2174 H 195.915 -2.44753 -4.94773 0
M  V30 2175 H 198.391 -0.717825 -4.09862 0
M  V30 2176 H 197.267 -0.506353 -5.46559 0
M  V30 2177 H 197.528 0.820266 -4.34424 0
M  V30 2178 N 196.587 1.43421 -0.653314 0
M  V30 2179 C 197.833 2.02111 -0.166992 0
M  V30 2180 C 198.166 1.51423 1.21592 0
M  V30 2181 O 197.441 0.707389 1.8118 0
M  V30 2182 C 197.724 3.5966 -0.177948 0
M  V30 2183 C 197.577 4.20579 -1.59478 0
M  V30 2184 C 198.896 4.37413 0.4856 0
M  V30 2185 H 196.015 0.734374 -0.0621557 0
M  V30 2186 H 198.657 1.70717 -0.834016 0
M  V30 2187 H 196.807 3.86537 0.390032 0
M  V30 2188 H 198.479 4.04732 -2.21336 0
M  V30 2189 H 196.722 3.77226 -2.14204 0
M  V30 2190 H 197.393 5.29665 -1.5543 0
M  V30 2191 H 199.869 4.161 0.00234528 0
M  V30 2192 H 198.745 5.47075 0.447207 0
M  V30 2193 H 199.006 4.13672 1.55974 0
M  V30 2194 N 198.065 0.39524 1.52563 0
M  V30 2195 C 199.314 -0.186321 2.00838 0
M  V30 2196 C 199.627 -1.47402 1.28577 0
M  V30 2197 O 200.833 -2.13599 1.67593 0
M  V30 2198 C 199.289 -0.382595 3.57861 0
M  V30 2199 C 198.897 0.892202 4.39026 0
M  V30 2200 C 200.641 -0.9202 4.14406 0
M  V30 2201 C 198.548 0.66388 5.87662 0
M  V30 2202 H 197.478 -0.0734041 0.750418 0
M  V30 2203 H 200.129 0.518552 1.76021 0
M  V30 2204 H 198.511 -1.14946 3.7895 0
M  V30 2205 H 199.685 1.66414 4.29701 0
M  V30 2206 H 198 1.35519 3.9373 0
M  V30 2207 H 200.597 -1.10683 5.23119 0
M  V30 2208 H 200.94 -1.89096 3.70875 0
M  V30 2209 H 201.473 -0.212751 3.97231 0
M  V30 2210 H 198.212 1.6058 6.35527 0
M  V30 2211 H 197.732 -0.0690193 5.9976 0
M  V30 2212 H 199.411 0.300699 6.46301 0
M  V30 2213 N 199.544 -1.57102 0.125237 0
M  V30 2214 C 200.769 -2.0019 -0.542101 0
M  V30 2215 C 201.194 -1.00449 -1.59034 0
M  V30 2216 O 200.552 0.0229423 -1.81285 0
M  V30 2217 C 200.6 -3.42129 -1.13929 0
M  V30 2218 O 199.704 -3.45307 -2.2547 0
M  V30 2219 H 199.045 -0.650171 -0.134812 0
M  V30 2220 H 201.575 -2.03461 0.215553 0
M  V30 2221 H 201.585 -3.80471 -1.4733 0
M  V30 2222 H 200.26 -4.14237 -0.371531 0
M  V30 2223 H 198.837 -3.1879 -1.93462 0
M  V30 2224 N 201.022 0.148545 -1.56898 0
M  V30 2225 C 201.952 1.18524 -2.01182 0
M  V30 2226 C 202.933 1.4489 -0.891123 0
M  V30 2227 O 204.118 1.55836 -1.15882 0
M  V30 2228 C 201.248 2.51879 -2.39112 0
M  V30 2229 C 200.202 2.40038 -3.54353 0
M  V30 2230 C 199.528 3.78089 -3.78091 0
M  V30 2231 C 200.828 1.88577 -4.87069 0
M  V30 2232 H 202.522 0.817029 -2.88036 0
M  V30 2233 H 200.068 0.391575 -1.38574 0
M  V30 2234 H 202.021 3.24627 -2.68692 0
M  V30 2235 H 200.745 2.90532 -1.49193 0
M  V30 2236 H 199.404 1.69742 -3.24936 0
M  V30 2237 H 199.052 4.14175 -2.85426 0
M  V30 2238 H 198.752 3.71028 -4.55645 0
M  V30 2239 H 200.276 4.52387 -4.10095 0
M  V30 2240 H 201.69 2.51117 -5.15377 0
M  V30 2241 H 200.087 1.9241 -5.68417 0
M  V30 2242 H 201.157 0.84136 -4.77545 0
M  V30 2243 N 202.5 1.5196 0.417844 0
M  V30 2244 C 203.777 1.56146 1.17803 0
M  V30 2245 C 204.157 0.337275 2.08388 0
M  V30 2246 O 203.505 -0.676447 2.18258 0
M  V30 2247 C 203.715 2.88566 1.96293 0
M  V30 2248 C 205.063 3.41244 2.52662 0
M  V30 2249 O 206.087 2.90247 2.06483 0
M  V30 2250 O 204.946 4.30273 3.36938 0
M  V30 2251 H 202.04 0.628598 0.537395 0
M  V30 2252 H 204.586 1.64283 0.425331 0
M  V30 2253 H 203.358 3.69116 1.2988 0
M  V30 2254 H 202.981 2.83681 2.78587 0
M  V30 2255 N 203.978 -0.674533 1.42435 0
M  V30 2256 C 205.394 -0.98769 1.25367 0
M  V30 2257 C 205.594 -2.00879 0.158044 0
M  V30 2258 O 204.65 -2.48075 -0.470633 0
M  V30 2259 C 205.963 -1.49224 2.6106 0
M  V30 2260 C 207.511 -1.61 2.68417 0
M  V30 2261 C 207.986 -2.14852 4.04478 0
M  V30 2262 N 209.477 -2.22185 4.06434 0
M  V30 2263 C 210.212 -2.64928 5.08528 0
M  V30 2264 N 209.708 -3.07121 6.21006 0
M  V30 2265 N 211.501 -2.64679 4.95885 0
M  V30 2266 H 203.652 0.00152503 2.124 0
M  V30 2267 H 205.915 -0.0618434 0.945981 0
M  V30 2268 H 205.621 -0.816453 3.42092 0
M  V30 2269 H 205.495 -2.47094 2.84999 0
M  V30 2270 H 207.882 -2.27686 1.87732 0
M  V30 2271 H 207.963 -0.616195 2.48267 0
M  V30 2272 H 207.607 -1.48775 4.85622 0
M  V30 2273 H 207.537 -3.15024 4.2198 0
M  V30 2274 H 210.028 -1.92435 3.25234 0
M  V30 2275 H 210.341 -3.38423 6.94759 0
M  V30 2276 H 208.686 -3.04978 6.24511 0
M  V30 2277 H 211.877 -2.31078 4.07088 0
M  V30 2278 H 212.05 -2.9767 5.75584 0
M  V30 2279 N 205.456 -1.28612 -0.910864 0
M  V30 2280 C 206.681 -1.1891 -1.69927 0
M  V30 2281 C 207.106 0.248372 -1.86453 0
M  V30 2282 O 206.464 1.17961 -1.37676 0
M  V30 2283 C 206.512 -1.89578 -3.06745 0
M  V30 2284 O 205.616 -1.20521 -3.94396 0
M  V30 2285 H 204.957 -0.412632 -0.520222 0
M  V30 2286 H 207.487 -1.69985 -1.1387 0
M  V30 2287 H 207.497 -1.97597 -3.56958 0
M  V30 2288 H 206.172 -2.94136 -2.94035 0
M  V30 2289 H 204.749 -1.20684 -3.52831 0
M  V30 2290 N 206.934 1.1197 -1.10907 0
M  V30 2291 C 207.864 2.19928 -0.784473 0
M  V30 2292 C 208.845 1.6833 0.244726 0
M  V30 2293 O 210.03 1.93892 0.109418 0
M  V30 2294 C 207.16 3.46597 -0.220827 0
M  V30 2295 C 206.114 4.11376 -1.18127 0
M  V30 2296 C 205.44 5.32554 -0.478594 0
M  V30 2297 C 206.74 4.56945 -2.52979 0
M  V30 2298 H 208.434 2.47337 -1.68715 0
M  V30 2299 H 205.98 1.18879 -0.812642 0
M  V30 2300 H 207.933 4.21396 0.0184278 0
M  V30 2301 H 206.657 3.1863 0.717113 0
M  V30 2302 H 205.316 3.38564 -1.40606 0
M  V30 2303 H 204.964 5.00856 0.463976 0
M  V30 2304 H 204.664 5.76844 -1.11912 0
M  V30 2305 H 206.188 6.10096 -0.248 0
M  V30 2306 H 207.602 5.23093 -2.3462 0
M  V30 2307 H 205.999 5.1203 -3.12962 0
M  V30 2308 H 207.069 3.70676 -3.12614 0
M  V30 2309 N 208.412 0.89855 1.29475 0
M  V30 2310 C 209.375 0.380272 2.26023 0
M  V30 2311 C 210.375 -0.484891 1.53315 0
M  V30 2312 O 211.565 -0.290108 1.71767 0
M  V30 2313 C 208.697 -0.45651 3.3783 0
M  V30 2314 H 209.89 1.23295 2.73383 0
M  V30 2315 H 207.443 0.676589 1.40897 0
M  V30 2316 H 208.178 -1.32922 2.95808 0
M  V30 2317 H 207.963 0.163393 3.91759 0
M  V30 2318 H 209.453 -0.810466 4.0966 0
M  V30 2319 N 209.89 -1.43072 0.660911 0
M  V30 2320 C 211.139 -2.00942 0.174735 0
M  V30 2321 C 211.452 -1.52797 -1.22117 0
M  V30 2322 O 212.658 -2.02991 -1.80297 0
M  V30 2323 C 211.114 -3.58948 0.261559 0
M  V30 2324 C 210.722 -4.16085 1.66064 0
M  V30 2325 C 212.466 -4.24173 -0.166617 0
M  V30 2326 C 210.373 -5.6641 1.70098 0
M  V30 2327 H 209.303 -0.751483 0.0615631 0
M  V30 2328 H 211.954 -1.63955 0.824069 0
M  V30 2329 H 210.336 -3.93372 -0.455421 0
M  V30 2330 H 211.51 -3.93147 2.40359 0
M  V30 2331 H 209.825 -3.6326 2.03546 0
M  V30 2332 H 212.422 -5.34471 -0.156433 0
M  V30 2333 H 212.765 -3.98647 -1.19943 0
M  V30 2334 H 213.298 -3.94659 0.498875 0
M  V30 2335 H 210.037 -5.96715 2.71315 0
M  V30 2336 H 209.557 -5.91382 1.00139 0
M  V30 2337 H 211.236 -6.30585 1.44816 0
M  V30 2338 N 211.368 -0.403325 -1.52352 0
M  V30 2339 C 212.596 0.174012 -2.06167 0
M  V30 2340 C 213.011 1.39347 -1.27388 0
M  V30 2341 O 212.368 1.79597 -0.324201 0
M  V30 2342 C 212.419 0.530223 -3.5759 0
M  V30 2343 O 212.14 -0.640806 -4.33388 0
M  V30 2344 C 213.641 1.16192 -4.27802 0
M  V30 2345 H 210.861 0.0229464 -0.670608 0
M  V30 2346 H 213.405 -0.572604 -1.9632 0
M  V30 2347 H 211.56 1.22673 -3.67464 0
M  V30 2348 H 211.974 -0.344851 -5.23365 0
M  V30 2349 H 213.448 1.36141 -5.34948 0
M  V30 2350 H 213.925 2.13335 -3.83907 0
M  V30 2351 H 214.531 0.505775 -4.22282 0
M  V30 2352 N 212.846 1.57033 -0.133567 0
M  V30 2353 C 214.262 1.58035 0.222944 0
M  V30 2354 C 214.462 1.14713 1.6566 0
M  V30 2355 O 213.518 0.841218 2.38075 0
M  V30 2356 C 214.831 3.00691 -0.0236116 0
M  V30 2357 C 216.379 3.12973 0.0411512 0
M  V30 2358 C 216.854 4.57654 -0.177899 0
M  V30 2359 N 218.345 4.63033 -0.124365 0
M  V30 2360 C 219.08 5.72771 -0.268553 0
M  V30 2361 N 218.576 6.91206 -0.46972 0
M  V30 2362 N 220.369 5.61718 -0.2071 0
M  V30 2363 H 212.52 1.8349 -1.06981 0
M  V30 2364 H 214.783 0.848677 -0.422436 0
M  V30 2365 H 214.489 3.36726 -1.0153 0
M  V30 2366 H 214.363 3.70614 0.701808 0
M  V30 2367 H 216.75 2.76787 1.02338 0
M  V30 2368 H 216.831 2.45564 -0.716383 0
M  V30 2369 H 216.475 4.94542 -1.15717 0
M  V30 2370 H 216.405 5.23173 0.599797 0
M  V30 2371 H 218.896 3.7789 0.027011 0
M  V30 2372 H 219.209 7.70693 -0.570212 0
M  V30 2373 H 217.554 6.93156 -0.505876 0
M  V30 2374 H 220.745 4.68072 -0.0507986 0
M  V30 2375 H 220.918 6.47195 -0.322909 0
M  V30 2376 N 214.325 -0.140222 1.56975 0
M  V30 2377 C 215.736 -0.699596 1.73097 0
M  V30 2378 C 216.087 -1.8134 0.749022 0
M  V30 2379 O 215.212 -2.16241 -0.0828503 0
M  V30 2380 C 215.807 -1.27582 3.1386 0
M  V30 2381 C 214.366 -1.78169 3.31561 0
M  V30 2382 C 213.513 -0.672855 2.69013 0
M  V30 2383 H 216.464 0.0855115 1.58469 0
M  V30 2384 H 216.485 -2.14561 3.14235 0
M  V30 2385 H 215.997 -0.464955 3.85305 0
M  V30 2386 H 214.098 -2.61801 2.65124 0
M  V30 2387 H 214.211 -1.90574 4.39566 0
M  V30 2388 H 212.575 -1.10118 2.29665 0
M  V30 2389 H 213.358 0.126679 3.43066 0
M  V30 2390 N 215.803 -1.52179 -0.40978 0
M  V30 2391 C 216.733 -1.78435 -1.5061 0
M  V30 2392 C 217.714 -0.635295 -1.57791 0
M  V30 2393 O 218.899 -0.880823 -1.73076 0
M  V30 2394 C 216.029 -1.93444 -2.88439 0
M  V30 2395 C 214.983 -3.09038 -2.96108 0
M  V30 2396 C 214.309 -3.09268 -4.36185 0
M  V30 2397 C 215.609 -4.48508 -2.67652 0
M  V30 2398 H 217.303 -2.70237 -1.28889 0
M  V30 2399 H 214.849 -1.30036 -0.618605 0
M  V30 2400 H 216.802 -2.10394 -3.65119 0
M  V30 2401 H 215.526 -0.983129 -3.11452 0
M  V30 2402 H 214.185 -2.91837 -2.21872 0
M  V30 2403 H 213.833 -2.11861 -4.56206 0
M  V30 2404 H 213.533 -3.86907 -4.42241 0
M  V30 2405 H 215.057 -3.28348 -5.14801 0
M  V30 2406 H 216.471 -4.65918 -3.34056 0
M  V30 2407 H 214.868 -5.28059 -2.85085 0
M  V30 2408 H 215.938 -4.56649 -1.63095 0
M  V30 2409 N 217.281 0.66697 -1.42791 0
M  V30 2410 C 218.244 1.76211 -1.46568 0
M  V30 2411 C 219.244 1.56896 -0.352196 0
M  V30 2412 O 220.434 1.63044 -0.613364 0
M  V30 2413 C 217.566 3.14935 -1.30494 0
M  V30 2414 H 218.759 1.74247 -2.44086 0
M  V30 2415 H 216.312 0.877342 -1.29354 0
M  V30 2416 H 217.047 3.2252 -0.339301 0
M  V30 2417 H 216.832 3.30359 -2.11199 0
M  V30 2418 H 218.322 3.94821 -1.36038 0
M  V30 2419 N 218.759 1.29093 0.90403 0
M  V30 2420 C 219.689 1.16401 2.02418 0
M  V30 2421 C 220.67 0.0593085 1.69997 0
M  V30 2422 O 221.855 0.238021 1.92736 0
M  V30 2423 C 218.985 0.835233 3.37107 0
M  V30 2424 C 217.939 1.89578 3.83724 0
M  V30 2425 C 217.265 1.42041 5.15489 0
M  V30 2426 C 218.565 3.30394 4.04521 0
M  V30 2427 H 220.259 2.10109 2.13295 0
M  V30 2428 H 217.805 1.01157 1.02486 0
M  V30 2429 H 219.758 0.733169 4.14973 0
M  V30 2430 H 218.482 -0.137543 3.2631 0
M  V30 2431 H 217.141 1.98715 3.08071 0
M  V30 2432 H 216.789 0.436426 5.01103 0
M  V30 2433 H 216.489 2.12964 5.4765 0
M  V30 2434 H 218.013 1.33176 5.959 0
M  V30 2435 H 219.427 3.24123 4.72882 0
M  V30 2436 H 217.824 3.99237 4.48029 0
M  V30 2437 H 218.894 3.73692 3.09002 0
M  V30 2438 N 220.237 -1.11381 1.11499 0
M  V30 2439 C 221.184 -2.17439 0.773887 0
M  V30 2440 C 222.154 -1.64132 -0.254899 0
M  V30 2441 O 223.339 -1.90345 -0.13168 0
M  V30 2442 C 220.479 -3.44373 0.223917 0
M  V30 2443 C 219.592 -4.1168 1.30934 0
M  V30 2444 C 218.727 -5.263 0.71984 0
M  V30 2445 C 217.766 -5.85493 1.78507 0
M  V30 2446 N 216.903 -6.91507 1.21502 0
M  V30 2447 H 221.743 -2.45962 1.68246 0
M  V30 2448 H 219.28 -1.20744 0.840191 0
M  V30 2449 H 221.238 -4.17047 -0.112921 0
M  V30 2450 H 219.868 -3.16232 -0.647851 0
M  V30 2451 H 218.92 -3.37073 1.76312 0
M  V30 2452 H 220.232 -4.51729 2.11524 0
M  V30 2453 H 219.386 -6.05785 0.333094 0
M  V30 2454 H 218.125 -4.87559 -0.117377 0
M  V30 2455 H 217.13 -5.04686 2.18111 0
M  V30 2456 H 218.355 -6.26301 2.62533 0
M  V30 2457 H 216.301 -6.54783 0.399455 0
M  V30 2458 H 216.218 -7.30214 1.95763 0
M  V30 2459 H 217.486 -7.74795 0.855181 0
M  V30 2460 N 221.715 -0.905404 -1.28997 0
M  V30 2461 C 222.94 -0.549175 -1.99997 0
M  V30 2462 C 223.365 0.860276 -1.67275 0
M  V30 2463 O 222.723 1.57355 -0.900502 0
M  V30 2464 C 222.771 -0.755185 -3.52604 0
M  V30 2465 O 221.875 0.189692 -4.11964 0
M  V30 2466 H 221.216 -0.213899 -0.628604 0
M  V30 2467 H 223.746 -1.21856 -1.64354 0
M  V30 2468 H 223.756 -0.662045 -4.02593 0
M  V30 2469 H 222.431 -1.78271 -3.75755 0
M  V30 2470 H 221.008 0.0485257 -3.72868 0
M  V30 2471 N 223.193 1.4272 -0.668489 0
M  V30 2472 C 224.141 2.32586 0.0254857 0
M  V30 2473 C 225.135 1.49471 0.797176 0
M  V30 2474 O 226.341 1.65583 0.705853 0
M  V30 2475 H 222.716 0.751514 0.0270339 0
M  V30 2476 H 224.687 2.88823 -0.749936 0
M  V30 2477 C 223.436 3.3397 0.967427 0
M  V30 2478 H 222.759 3.97961 0.383048 0
M  V30 2479 H 224.199 3.9945 1.42181 0
M  V30 2480 C 222.658 2.65744 2.0708 0
M  V30 2481 O 223.188 2.48454 3.15648 0
M  V30 2482 N 221.394 2.2487 1.8407 0
M  V30 2483 H 220.941 2.39132 0.95778 0
M  V30 2484 H 220.899 1.79552 2.58086 0
M  V30 2485 N 224.671 0.411399 1.52136 0
M  V30 2486 C 225.896 -0.165538 2.06738 0
M  V30 2487 C 226.321 -1.379 1.27926 0
M  V30 2488 O 225.679 -1.78628 0.310114 0
M  V30 2489 C 225.727 -0.492124 3.57226 0
M  V30 2490 O 224.831 -1.58276 3.80818 0
M  V30 2491 H 224.172 -0.0132132 0.663869 0
M  V30 2492 H 226.702 0.585253 1.96051 0
M  V30 2493 H 226.712 -0.750104 4.01045 0
M  V30 2494 H 225.387 0.394922 4.14021 0
M  V30 2495 H 223.964 -1.31677 3.48877 0
M  V30 2496 N 226.149 -1.5696 0.141893 0
M  V30 2497 C 227.096 -2.16501 -0.799737 0
M  V30 2498 C 228.066 -1.09643 -1.24771 0
M  V30 2499 O 229.251 -1.3766 -1.32115 0
M  V30 2500 C 226.391 -2.78679 -2.03549 0
M  V30 2501 C 225.504 -3.99914 -1.6338 0
M  V30 2502 C 224.639 -4.50106 -2.82096 0
M  V30 2503 C 223.678 -5.63819 -2.38275 0
M  V30 2504 N 222.815 -6.08651 -3.49983 0
M  V30 2505 H 227.655 -2.96632 -0.285179 0
M  V30 2506 H 225.192 -1.46533 -0.129053 0
M  V30 2507 H 227.15 -3.1287 -2.75986 0
M  V30 2508 H 225.78 -2.012 -2.52425 0
M  V30 2509 H 224.832 -3.71735 -0.807279 0
M  V30 2510 H 226.144 -4.82311 -1.27192 0
M  V30 2511 H 225.298 -4.86325 -3.62729 0
M  V30 2512 H 224.037 -3.66706 -3.21525 0
M  V30 2513 H 223.042 -5.2718 -1.56081 0
M  V30 2514 H 224.267 -6.49 -1.99938 0
M  V30 2515 H 222.213 -5.28188 -3.89042 0
M  V30 2516 H 222.13 -6.85961 -3.17794 0
M  V30 2517 H 223.398 -6.49515 -4.30988 0
M  V30 2518 N 227.627 0.131896 -1.57047 0
M  V30 2519 C 228.873 0.843179 -1.84441 0
M  V30 2520 C 229.206 1.80129 -0.725749 0
M  V30 2521 O 228.481 1.92624 0.269469 0
M  V30 2522 C 228.764 1.60442 -3.22382 0
M  V30 2523 C 228.617 0.666782 -4.4483 0
M  V30 2524 C 229.936 2.56354 -3.5773 0
M  V30 2525 H 227.055 0.305081 -0.670891 0
M  V30 2526 H 229.697 0.107839 -1.89694 0
M  V30 2527 H 227.847 2.23128 -3.18035 0
M  V30 2528 H 229.519 0.0497646 -4.61273 0
M  V30 2529 H 227.762 -0.022609 -4.33794 0
M  V30 2530 H 228.433 1.23579 -5.37989 0
M  V30 2531 H 230.909 2.0378 -3.62785 0
M  V30 2532 H 229.785 3.06657 -4.5525 0
M  V30 2533 H 230.046 3.38419 -2.84473 0
M  V30 2534 N 229.106 1.52395 0.401703 0
M  V30 2535 C 230.354 1.66488 1.14569 0
M  V30 2536 C 230.675 0.400897 1.90835 0
M  V30 2537 O 229.945 -0.584415 1.8698 0
M  V30 2538 H 228.525 0.613672 0.425929 0
M  V30 2539 H 231.187 1.89464 0.457093 0
M  V30 2540 H 230.283 2.50942 1.85566 0
M  V30 2541 N 230.584 -0.659388 1.43143 0
M  V30 2542 C 231.516 -1.7849 1.43784 0
M  V30 2543 C 232.529 -1.5932 0.334787 0
M  V30 2544 O 233.718 -1.68155 0.598842 0
M  V30 2545 C 230.818 -3.15828 1.22906 0
M  V30 2546 C 229.991 -3.61711 2.45934 0
M  V30 2547 C 229.05 -4.77831 2.20371 0
M  V30 2548 O 228.076 -4.87586 2.93681 0
M  V30 2549 N 229.278 -5.67611 1.21647 0
M  V30 2550 H 232.043 -1.7842 2.40803 0
M  V30 2551 H 229.604 -0.84302 1.3822 0
M  V30 2552 H 231.596 -3.91189 1.03697 0
M  V30 2553 H 230.166 -3.10707 0.343542 0
M  V30 2554 H 229.386 -2.76861 2.80609 0
M  V30 2555 H 230.674 -3.89112 3.27825 0
M  V30 2556 H 230.072 -5.62397 0.610449 0
M  V30 2557 H 228.629 -6.42719 1.08423 0
M  V30 2558 N 232.062 -1.29571 -0.897171 0
M  V30 2559 C 233.287 -1.20705 -1.68656 0
M  V30 2560 C 233.712 0.228582 -1.86706 0
M  V30 2561 O 233.07 1.16494 -1.3892 0
M  V30 2562 C 233.118 -1.9282 -3.04717 0
M  V30 2563 O 232.222 -1.24697 -3.93096 0
M  V30 2564 H 231.563 -0.418126 -0.515816 0
M  V30 2565 H 234.093 -1.71183 -1.12061 0
M  V30 2566 H 234.103 -2.01372 -3.54843 0
M  V30 2567 H 232.778 -2.97239 -2.90899 0
M  V30 2568 H 231.355 -1.2442 -3.51531 0
M  V30 2569 N 233.54 1.10788 -1.12088 0
M  V30 2570 C 234.473 2.16237 -0.729168 0
M  V30 2571 C 235.451 1.60207 0.277921 0
M  V30 2572 O 236.635 1.87707 0.172737 0
M  V30 2573 C 233.762 3.38609 -0.0786848 0
M  V30 2574 C 232.808 4.13322 -1.05201 0
M  V30 2575 S 233.641 4.69371 -2.57781 0
M  V30 2576 C 234.797 5.95058 -1.94053 0
M  V30 2577 H 235.03 2.4913 -1.62239 0
M  V30 2578 H 232.563 1.22519 -0.939603 0
M  V30 2579 H 234.521 4.09473 0.290254 0
M  V30 2580 H 233.182 3.03962 0.791593 0
M  V30 2581 H 232.375 5.01051 -0.544433 0
M  V30 2582 H 231.977 3.48251 -1.36371 0
M  V30 2583 H 234.269 6.65278 -1.28107 0
M  V30 2584 H 235.212 6.50472 -2.79807 0
M  V30 2585 H 235.62 5.46918 -1.39787 0
M  V30 2586 N 235.018 0.912232 1.28515 0
M  V30 2587 C 236.264 0.545405 1.95328 0
M  V30 2588 C 236.597 -0.908313 1.71649 0
M  V30 2589 O 235.872 -1.64575 1.03659 0
M  V30 2590 C 236.155 0.853483 3.4984 0
M  V30 2591 C 236.008 2.35982 3.82926 0
M  V30 2592 C 237.327 0.348589 4.38717 0
M  V30 2593 H 234.446 0.199626 0.709449 0
M  V30 2594 H 237.088 1.1412 1.5191 0
M  V30 2595 H 235.238 0.34643 3.86952 0
M  V30 2596 H 236.91 2.93738 3.55691 0
M  V30 2597 H 235.153 2.81543 3.30024 0
M  V30 2598 H 235.824 2.52593 4.90816 0
M  V30 2599 H 238.3 0.78294 4.08668 0
M  V30 2600 H 237.176 0.593242 5.45685 0
M  V30 2601 H 237.437 -0.751049 4.35674 0
M  V30 2602 N 236.496 -1.42363 0.676048 0
M  V30 2603 C 237.744 -2.01123 0.198437 0
M  V30 2604 C 238.065 -1.53731 -1.19966 0
M  V30 2605 O 237.335 -0.759518 -1.80577 0
M  V30 2606 H 235.915 -0.743678 0.0703721 0
M  V30 2607 H 238.577 -1.74263 0.872837 0
M  V30 2608 H 237.673 -3.11454 0.200686 0
M  V30 2609 N 237.974 -0.419461 -1.51915 0
M  V30 2610 C 238.904 0.391813 -2.30189 0
M  V30 2611 C 239.885 1.03699 -1.34836 0
M  V30 2612 O 241.07 1.04403 -1.63748 0
M  V30 2613 C 238.2 1.50312 -3.13087 0
M  V30 2614 C 237.154 0.9824 -4.16573 0
M  V30 2615 C 236.48 2.18809 -4.8788 0
M  V30 2616 C 237.78 0.0292356 -5.22292 0
M  V30 2617 H 239.474 -0.26135 -2.98257 0
M  V30 2618 H 237.02 -0.127134 -1.43438 0
M  V30 2619 H 238.973 2.07773 -3.66617 0
M  V30 2620 H 237.697 2.18431 -2.42807 0
M  V30 2621 H 236.356 0.430119 -3.64068 0
M  V30 2622 H 236.004 2.85507 -4.14119 0
M  V30 2623 H 235.704 1.84615 -5.57845 0
M  V30 2624 H 237.228 2.76858 -5.44226 0
M  V30 2625 H 238.642 0.512976 -5.71 0
M  V30 2626 H 237.039 -0.2244 -5.9968 0
M  V30 2627 H 238.109 -0.912931 -4.76228 0
M  V30 2628 N 239.452 1.56882 -0.150215 0
M  V30 2629 C 240.415 2.1573 0.774157 0
M  V30 2630 C 241.415 1.0999 1.17298 0
M  V30 2631 O 242.605 1.35613 1.09338 0
M  V30 2632 C 239.737 2.72302 2.05096 0
M  V30 2633 H 240.93 2.98752 0.262201 0
M  V30 2634 H 238.483 1.55985 0.099248 0
M  V30 2635 H 239.218 1.92956 2.6065 0
M  V30 2636 H 239.003 3.49665 1.77416 0
M  V30 2637 H 240.493 3.17632 2.71109 0
M  V30 2638 N 240.93 -0.123565 1.57115 0
M  V30 2639 C 242.176 -0.828428 1.85765 0
M  V30 2640 C 242.531 -1.77709 0.737371 0
M  V30 2641 O 241.824 -1.89787 -0.262978 0
M  V30 2642 C 242.018 -1.62016 3.18568 0
M  V30 2643 C 241.847 -0.749663 4.43407 0
M  V30 2644 C 240.617 -0.406251 5.03664 0
M  V30 2645 C 242.815 -0.0693505 5.14253 0
M  V30 2646 N 240.797 0.475389 6.12057 0
M  V30 2647 C 242.168 0.671474 6.16353 0
M  V30 2648 C 244.223 0.00754393 4.97899 0
M  V30 2649 C 242.926 1.48197 7.03868 0
M  V30 2650 C 244.952 0.804845 5.85898 0
M  V30 2651 C 244.314 1.53388 6.87497 0
M  V30 2652 H 240.413 -0.280219 0.73007 0
M  V30 2653 H 242.997 -0.0924183 1.94481 0
M  V30 2654 H 241.168 -2.32724 3.10957 0
M  V30 2655 H 242.9 -2.27 3.35042 0
M  V30 2656 H 239.655 -0.747446 4.67665 0
M  V30 2657 H 240.079 0.907924 6.70884 0
M  V30 2658 H 244.721 -0.541741 4.19315 0
M  V30 2659 H 242.439 2.04242 7.81864 0
M  V30 2660 H 246.025 0.866642 5.75309 0
M  V30 2661 H 244.905 2.1409 7.5441 0
M  V30 2662 N 242.408 -1.52605 -0.393616 0
M  V30 2663 C 243.657 -1.66649 -1.13627 0
M  V30 2664 C 243.97 -0.410364 -1.91247 0
M  V30 2665 O 245.176 -0.430854 -2.68059 0
M  V30 2666 C 243.632 -2.9449 -2.06891 0
M  V30 2667 C 243.24 -4.27266 -1.34714 0
M  V30 2668 C 244.984 -3.17899 -2.81319 0
M  V30 2669 C 242.891 -5.46217 -2.26717 0
M  V30 2670 H 241.821 -0.62084 -0.427871 0
M  V30 2671 H 244.472 -1.791 -0.399428 0
M  V30 2672 H 242.854 -2.75774 -2.84191 0
M  V30 2673 H 244.028 -4.56518 -0.626714 0
M  V30 2674 H 242.343 -4.10081 -0.722643 0
M  V30 2675 H 244.94 -4.03949 -3.50328 0
M  V30 2676 H 245.283 -2.32777 -3.45139 0
M  V30 2677 H 245.816 -3.37159 -2.11113 0
M  V30 2678 H 242.555 -6.33733 -1.67521 0
M  V30 2679 H 242.075 -5.21283 -2.96689 0
M  V30 2680 H 243.754 -5.7991 -2.86903 0
M  V30 2681 N 243.887 0.651787 -1.4349 0
M  V30 2682 C 244.817 1.77621 -1.51569 0
M  V30 2683 C 245.798 1.66022 -0.370253 0
M  V30 2684 O 246.983 1.85095 -0.587658 0
M  V30 2685 C 244.113 3.16056 -1.43966 0
M  V30 2686 C 243.067 3.4242 -2.56774 0
M  V30 2687 C 242.393 4.8067 -2.34223 0
M  V30 2688 C 243.693 3.37023 -3.99015 0
M  V30 2689 H 245.387 1.71117 -2.45681 0
M  V30 2690 H 242.933 0.821825 -1.18246 0
M  V30 2691 H 244.886 3.94472 -1.48221 0
M  V30 2692 H 243.61 3.23293 -0.463586 0
M  V30 2693 H 242.269 2.66375 -2.51873 0
M  V30 2694 H 241.917 4.84585 -1.34856 0
M  V30 2695 H 241.617 4.9927 -3.09844 0
M  V30 2696 H 243.141 5.61342 -2.40265 0
M  V30 2697 H 244.555 4.05374 -4.05395 0
M  V30 2698 H 242.952 3.67159 -4.74673 0
M  V30 2699 H 244.022 2.3518 -4.2405 0
M  V30 2700 N 245.365 1.30045 0.890287 0
M  V30 2701 C 246.59 1.21598 1.68014 0
M  V30 2702 C 247.015 -0.218678 1.86825 0
M  V30 2703 O 246.373 -1.15756 1.39536 0
M  V30 2704 C 246.421 1.94434 3.03691 0
M  V30 2705 O 245.525 1.2678 3.92429 0
M  V30 2706 H 244.866 0.420856 0.513592 0
M  V30 2707 H 247.396 1.71775 1.11151 0
M  V30 2708 H 247.406 2.03251 3.5377 0
M  V30 2709 H 246.081 2.98777 2.89318 0
M  V30 2710 H 244.658 1.26282 3.50866 0
M  V30 2711 N 246.843 -1.10192 1.12674 0
M  V30 2712 C 248.068 -1.86523 0.906853 0
M  V30 2713 C 248.493 -1.80221 -0.538711 0
M  V30 2714 O 247.851 -1.17396 -1.38158 0
M  V30 2715 C 247.899 -3.32758 1.3894 0
M  V30 2716 O 247.003 -4.08449 0.5695 0
M  V30 2717 H 246.344 -0.578678 0.325619 0
M  V30 2718 H 248.874 -1.39203 1.49946 0
M  V30 2719 H 248.884 -3.83608 1.38958 0
M  V30 2720 H 247.559 -3.36661 2.44197 0
M  V30 2721 H 246.136 -3.67427 0.636528 0
M  V30 2722 N 248.321 -0.919034 -1.28029 0
M  V30 2723 C 249.567 -0.555757 -1.95036 0
M  V30 2724 C 249.9 0.899198 -1.72128 0
M  V30 2725 O 249.175 1.64023 -1.04531 0
M  V30 2726 C 249.458 -0.872024 -3.49382 0
M  V30 2727 C 249.311 -2.3801 -3.81669 0
M  V30 2728 C 250.63 -0.37185 -4.38526 0
M  V30 2729 H 247.749 -0.203386 -0.708381 0
M  V30 2730 H 250.391 -1.14924 -1.51303 0
M  V30 2731 H 248.541 -0.366946 -3.86763 0
M  V30 2732 H 250.213 -2.9562 -3.54128 0
M  V30 2733 H 248.456 -2.83289 -3.28526 0
M  V30 2734 H 249.127 -2.55192 -4.8947 0
M  V30 2735 H 251.603 -0.804602 -4.08247 0
M  V30 2736 H 250.479 -0.622173 -5.45362 0
M  V30 2737 H 250.74 0.727934 -4.36066 0
M  V30 2738 N 249.799 1.42003 -0.683588 0
M  V30 2739 C 251.046 2.01413 -0.209514 0
M  V30 2740 C 251.374 1.54088 1.1869 0
M  V30 2741 O 250.629 0.737591 1.81268 0
M  V30 2742 C 250.928 3.56827 -0.202357 0
M  V30 2743 C 250.594 4.23617 -1.54464 0
M  V30 2744 C 249.256 4.41577 -1.91215 0
M  V30 2745 C 251.608 4.61178 -2.42826 0
M  V30 2746 C 248.936 4.9437 -3.15935 0
M  V30 2747 C 251.288 5.15355 -3.66867 0
M  V30 2748 C 249.952 5.31528 -4.03776 0
M  V30 2749 H 249.222 0.737023 -0.0766668 0
M  V30 2750 H 251.869 1.70067 -0.880312 0
M  V30 2751 H 250.174 3.87892 0.551969 0
M  V30 2752 H 251.871 4.00588 0.181793 0
M  V30 2753 H 248.461 4.10004 -1.24877 0
M  V30 2754 H 252.645 4.46968 -2.15717 0
M  V30 2755 H 247.901 5.05076 -3.44541 0
M  V30 2756 H 252.075 5.43402 -4.35531 0
M  V30 2757 H 249.702 5.72199 -5.00492 0
M  V30 2758 N 251.277 0.427512 1.51691 0
M  V30 2759 C 252.24 -0.377132 2.26076 0
M  V30 2760 C 253.24 -0.958089 1.29141 0
M  V30 2761 O 254.43 -0.83408 1.52934 0
M  V30 2762 C 251.562 -1.53262 3.04506 0
M  V30 2763 H 252.755 0.27464 2.9864 0
M  V30 2764 H 250.308 0.180445 1.55255 0
M  V30 2765 H 251.043 -2.22072 2.36335 0
M  V30 2766 H 250.828 -1.12232 3.75694 0
M  V30 2767 H 252.318 -2.10135 3.60878 0
M  V30 2768 N 252.755 -1.56801 0.158532 0
M  V30 2769 C 254.003 -1.96102 -0.488712 0
M  V30 2770 C 254.324 -1.04498 -1.64636 0
M  V30 2771 O 253.594 -0.108783 -1.95598 0
M  V30 2772 H 252.174 -0.724102 -0.183535 0
M  V30 2773 H 254.836 -1.93457 0.236728 0
M  V30 2774 H 253.932 -3.00097 -0.857219 0
M  V30 2775 N 254.233 0.115231 -1.57178 0
M  V30 2776 C 255.644 0.67197 -1.74188 0
M  V30 2777 C 255.995 1.80125 -0.777777 0
M  V30 2778 O 255.12 2.16346 0.0484376 0
M  V30 2779 C 255.715 1.22573 -3.1585 0
M  V30 2780 C 254.274 1.72872 -3.34353 0
M  V30 2781 C 253.421 0.629972 -2.70049 0
M  V30 2782 H 256.372 -0.110712 -1.58313 0
M  V30 2783 H 256.393 2.09535 -3.17609 0
M  V30 2784 H 255.905 0.403598 -3.85996 0
M  V30 2785 H 254.006 2.5755 -2.69256 0
M  V30 2786 H 254.119 1.83557 -4.42542 0
M  V30 2787 H 252.483 1.0645 -2.31388 0
M  V30 2788 H 253.266 -0.181241 -3.42821 0
M  V30 2789 N 255.711 1.52812 0.385517 0
M  V30 2790 C 256.643 1.74096 1.49074 0
M  V30 2791 C 257.656 0.621462 1.50472 0
M  V30 2792 O 258.845 0.897245 1.54311 0
M  V30 2793 C 255.945 1.78774 2.87911 0
M  V30 2794 C 255.118 3.08134 3.10439 0
M  V30 2795 C 254.177 3.04313 4.29278 0
M  V30 2796 O 253.203 3.78168 4.25415 0
M  V30 2797 N 254.405 2.23741 5.35649 0
M  V30 2798 H 257.17 2.69455 1.31202 0
M  V30 2799 H 254.731 1.51343 0.575065 0
M  V30 2800 H 256.723 1.73721 3.65518 0
M  V30 2801 H 255.293 0.907869 2.99126 0
M  V30 2802 H 254.513 3.26649 2.20667 0
M  V30 2803 H 255.801 3.93662 3.22347 0
M  V30 2804 H 255.199 1.63211 5.41645 0
M  V30 2805 H 253.756 2.24524 6.11909 0
M  V30 2806 N 257.189 -0.644168 1.43834 0
M  V30 2807 C 258.119 -1.76814 1.52509 0
M  V30 2808 C 259.1 -1.65823 0.379052 0
M  V30 2809 O 260.285 -1.84781 0.597466 0
M  V30 2810 C 257.415 -3.15288 1.4564 0
M  V30 2811 C 256.369 -3.41053 2.58586 0
M  V30 2812 C 255.695 -4.79421 2.36769 0
M  V30 2813 C 256.995 -3.34902 4.00797 0
M  V30 2814 H 258.689 -1.69812 2.46586 0
M  V30 2815 H 256.235 -0.815542 1.1868 0
M  V30 2816 H 258.188 -3.93681 1.50311 0
M  V30 2817 H 256.912 -3.23043 0.480725 0
M  V30 2818 H 255.571 -2.65035 2.53282 0
M  V30 2819 H 255.219 -4.83863 1.37424 0
M  V30 2820 H 254.919 -4.9762 3.12487 0
M  V30 2821 H 256.443 -5.6006 2.43238 0
M  V30 2822 H 257.857 -4.03218 4.07539 0
M  V30 2823 H 256.254 -3.64637 4.76613 0
M  V30 2824 H 257.324 -2.32928 4.25291 0
M  V30 2825 N 258.668 -1.30515 -0.883378 0
M  V30 2826 C 259.898 -1.22182 -1.66599 0
M  V30 2827 C 260.306 0.217507 -1.87946 0
M  V30 2828 O 259.649 1.1554 -1.42815 0
M  V30 2829 C 259.711 -1.88146 -3.06335 0
M  V30 2830 C 259.375 -3.37476 -3.08154 0
M  V30 2831 C 260.372 -4.33443 -2.87094 0
M  V30 2832 C 258.057 -3.7895 -3.29701 0
M  V30 2833 C 260.051 -5.68858 -2.8754 0
M  V30 2834 C 257.738 -5.14482 -3.29776 0
M  V30 2835 C 258.736 -6.09246 -3.0872 0
M  V30 2836 O 258.424 -7.42302 -3.08615 0
M  V30 2837 H 258.156 -0.423898 -0.52658 0
M  V30 2838 H 260.71 -1.72703 -1.11188 0
M  V30 2839 H 258.94 -1.32157 -3.63416 0
M  V30 2840 H 260.629 -1.7391 -3.66756 0
M  V30 2841 H 261.395 -4.02733 -2.70243 0
M  V30 2842 H 257.274 -3.05631 -3.45124 0
M  V30 2843 H 260.818 -6.428 -2.71024 0
M  V30 2844 H 256.715 -5.44832 -3.46163 0
M  V30 2845 H 257.483 -7.5131 -3.24769 0
M  V30 2846 N 260.146 1.09593 -1.13257 0
M  V30 2847 C 261.395 1.81105 -0.887917 0
M  V30 2848 C 261.708 1.86563 0.587672 0
M  V30 2849 O 262.914 2.54367 0.949204 0
M  V30 2850 C 261.37 3.25338 -1.53895 0
M  V30 2851 C 260.978 3.28151 -3.04994 0
M  V30 2852 C 262.722 4.01617 -1.37492 0
M  V30 2853 C 260.629 4.66897 -3.6299 0
M  V30 2854 H 259.559 0.678661 -0.328534 0
M  V30 2855 H 262.21 1.23183 -1.36008 0
M  V30 2856 H 260.592 3.8331 -0.994446 0
M  V30 2857 H 261.766 2.79953 -3.66009 0
M  V30 2858 H 260.081 2.65361 -3.20893 0
M  V30 2859 H 262.678 5.04119 -1.78235 0
M  V30 2860 H 263.021 4.15072 -0.31957 0
M  V30 2861 H 263.554 3.50082 -1.88912 0
M  V30 2862 H 260.293 4.58643 -4.68323 0
M  V30 2863 H 259.813 5.15426 -3.06752 0
M  V30 2864 H 261.492 5.3587 -3.62563 0
M  V30 2865 N 261.624 0.925811 1.2754 0
M  V30 2866 C 262.871 0.565255 1.94451 0
M  V30 2867 C 263.199 -0.89316 1.7278 0
M  V30 2868 O 262.454 -1.65213 1.04895 0
M  V30 2869 C 262.753 0.835296 3.47502 0
M  V30 2870 C 262.419 2.27515 3.89291 0
M  V30 2871 C 261.081 2.66879 4.00411 0
M  V30 2872 C 263.433 3.21158 4.10496 0
M  V30 2873 C 260.761 3.99014 4.30122 0
M  V30 2874 C 263.113 4.52871 4.4169 0
M  V30 2875 C 261.777 4.92072 4.51023 0
M  V30 2876 H 261.047 0.206841 0.711546 0
M  V30 2877 H 263.694 1.16942 1.51647 0
M  V30 2878 H 261.999 0.148442 3.91519 0
M  V30 2879 H 263.696 0.535322 3.97411 0
M  V30 2880 H 260.286 1.95976 3.81171 0
M  V30 2881 H 264.47 2.9195 4.01346 0
M  V30 2882 H 259.726 4.2907 4.35556 0
M  V30 2883 H 263.9 5.25436 4.57045 0
M  V30 2884 H 261.527 5.9449 4.738 0
M  V30 2885 N 263.102 -1.41638 0.69111 0
M  V30 2886 C 264.518 -1.55435 0.362224 0
M  V30 2887 C 264.718 -1.66754 -1.13117 0
M  V30 2888 O 263.774 -1.64348 -1.91692 0
M  V30 2889 C 265.087 -2.79588 1.10684 0
M  V30 2890 C 266.635 -2.9338 1.09075 0
M  V30 2891 C 267.11 -4.20414 1.81703 0
M  V30 2892 N 268.601 -4.27362 1.7865 0
M  V30 2893 C 269.336 -5.24507 2.31689 0
M  V30 2894 N 268.832 -6.27708 2.93179 0
M  V30 2895 N 270.625 -5.16416 2.2197 0
M  V30 2896 H 262.776 -1.32536 1.65976 0
M  V30 2897 H 265.039 -0.639115 0.700168 0
M  V30 2898 H 264.745 -2.77419 2.16175 0
M  V30 2899 H 264.619 -3.70973 0.682545 0
M  V30 2900 H 267.006 -2.95067 0.0441238 0
M  V30 2901 H 267.087 -2.0318 1.55407 0
M  V30 2902 H 266.731 -4.19488 2.86343 0
M  V30 2903 H 266.661 -5.09578 1.32808 0
M  V30 2904 H 269.152 -3.53415 1.33815 0
M  V30 2905 H 269.465 -6.98217 3.31229 0
M  V30 2906 H 267.81 -6.28223 2.97255 0
M  V30 2907 H 271.001 -4.34716 1.73607 0
M  V30 2908 H 271.174 -5.91958 2.63609 0
M  V30 2909 N 264.58 -0.43555 -1.51462 0
M  V30 2910 C 265.513 0.421989 -2.24264 0
M  V30 2911 C 266.491 1.02619 -1.26127 0
M  V30 2912 O 267.675 1.069 -1.55257 0
M  V30 2913 C 264.802 1.588 -2.99166 0
M  V30 2914 C 263.848 1.10465 -4.11946 0
M  V30 2915 S 264.681 0.048146 -5.35478 0
M  V30 2916 C 265.837 1.21887 -6.13917 0
M  V30 2917 H 266.07 -0.196102 -2.96653 0
M  V30 2918 H 263.603 -0.220054 -1.52824 0
M  V30 2919 H 265.561 2.25647 -3.42919 0
M  V30 2920 H 264.222 2.1775 -2.26371 0
M  V30 2921 H 263.415 1.97654 -4.63626 0
M  V30 2922 H 263.017 0.51445 -3.70445 0
M  V30 2923 H 265.309 2.13756 -6.42895 0
M  V30 2924 H 266.252 0.742076 -7.04201 0
M  V30 2925 H 266.66 1.45663 -5.45383 0
M  V30 2926 N 266.058 1.56714 -0.166846 0
M  V30 2927 C 267.307 1.95922 0.479318 0
M  V30 2928 C 267.62 1.05529 1.6469 0
M  V30 2929 O 268.826 1.34399 2.35901 0
M  V30 2930 C 267.282 3.48359 0.90412 0
M  V30 2931 C 266.89 4.47369 -0.237621 0
M  V30 2932 C 268.634 3.96394 1.51896 0
M  V30 2933 C 266.541 5.91039 0.206561 0
M  V30 2934 H 265.471 0.731495 0.18284 0
M  V30 2935 H 268.122 1.81728 -0.254363 0
M  V30 2936 H 266.504 3.57955 1.69365 0
M  V30 2937 H 267.678 4.49485 -1.01489 0
M  V30 2938 H 265.993 4.09366 -0.762128 0
M  V30 2939 H 268.59 5.01186 1.86325 0
M  V30 2940 H 268.933 3.39075 2.41524 0
M  V30 2941 H 269.466 3.89796 0.79395 0
M  V30 2942 H 266.205 6.52221 -0.654834 0
M  V30 2943 H 265.725 5.9224 0.949282 0
M  V30 2944 H 267.404 6.43707 0.651939 0
M  V30 2945 N 267.536 -0.106894 1.57237 0
M  V30 2946 C 268.486 -1.1366 1.9765 0
M  V30 2947 C 269.47 -1.36416 0.853203 0
M  V30 2948 O 270.662 -1.37305 1.11697 0
M  V30 2949 C 267.791 -2.46 2.39455 0
M  V30 2950 C 266.877 -2.26668 3.58445 0
M  V30 2951 N 267.268 -1.77176 4.73754 0
M  V30 2952 C 265.566 -2.57279 3.64312 0
M  V30 2953 C 266.267 -1.71836 5.5574 0
M  V30 2954 N 265.243 -2.16623 4.98573 0
M  V30 2955 H 269.045 -0.74669 2.84256 0
M  V30 2956 H 266.559 -0.314483 1.59326 0
M  V30 2957 H 268.556 -3.2049 2.6663 0
M  V30 2958 H 267.216 -2.85738 1.54219 0
M  V30 2959 H 268.227 -1.46545 4.96734 0
M  V30 2960 H 264.904 -3.00622 2.89711 0
M  V30 2961 H 266.294 -1.34723 6.58255 0
M  V30 2962 N 269.014 -1.53014 -0.377408 0
M  V30 2963 C 269.944 -1.81589 -1.46791 0
M  V30 2964 C 270.925 -0.668622 -1.56408 0
M  V30 2965 O 272.11 -0.917337 -1.71168 0
M  V30 2966 C 269.24 -1.99519 -2.8427 0
M  V30 2967 C 268.194 -3.15249 -2.89486 0
M  V30 2968 C 267.52 -3.18451 -4.29527 0
M  V30 2969 C 268.82 -4.54084 -2.58079 0
M  V30 2970 H 270.514 -2.7291 -1.23127 0
M  V30 2971 H 268.06 -1.31319 -0.590883 0
M  V30 2972 H 270.013 -2.18092 -3.60575 0
M  V30 2973 H 268.737 -1.04897 -3.09296 0
M  V30 2974 H 267.396 -2.96477 -2.15631 0
M  V30 2975 H 267.044 -2.2149 -4.5161 0
M  V30 2976 H 266.744 -3.962 -4.33934 0
M  V30 2977 H 268.268 -3.39193 -5.07721 0
M  V30 2978 H 269.682 -4.72899 -3.24098 0
M  V30 2979 H 268.079 -5.33987 -2.7382 0
M  V30 2980 H 269.149 -4.60006 -1.53372 0
M  V30 2981 N 270.492 0.636531 -1.44174 0
M  V30 2982 C 271.455 1.73063 -1.50273 0
M  V30 2983 C 272.455 1.56113 -0.385397 0
M  V30 2984 O 273.645 1.61707 -0.64781 0
M  V30 2985 C 270.777 3.12096 -1.37145 0
M  V30 2986 H 271.97 1.69031 -2.47727 0
M  V30 2987 H 269.523 0.849706 -1.31186 0
M  V30 2988 H 270.258 3.21728 -0.407636 0
M  V30 2989 H 270.043 3.25805 -2.18159 0
M  V30 2990 H 271.533 3.91846 -1.44382 0
M  V30 2991 N 271.97 1.30982 0.876444 0
M  V30 2992 C 273.247 1.10942 1.61094 0
M  V30 2993 C 273.627 -0.338223 2.08373 0
M  V30 2994 O 272.975 -1.33122 1.85717 0
M  V30 2995 C 273.185 2.11789 2.77392 0
M  V30 2996 C 274.533 2.43965 3.47514 0
M  V30 2997 O 275.557 2.10166 2.87591 0
M  V30 2998 O 274.416 3.01817 4.55597 0
M  V30 2999 H 271.51 0.42667 0.708436 0
M  V30 3000 H 274.056 1.42438 0.922474 0
M  V30 3001 H 272.828 3.09194 2.39823 0
M  V30 3002 H 272.451 1.81161 3.5393 0
M  V30 3003 N 273.449 -1.08991 1.13837 0
M  V30 3004 C 274.674 -1.85551 0.926585 0
M  V30 3005 C 275.099 -1.80782 -0.519566 0
M  V30 3006 O 274.457 -1.18855 -1.36906 0
M  V30 3007 C 274.505 -3.31266 1.42462 0
M  V30 3008 O 273.609 -4.07822 0.612789 0
M  V30 3009 H 272.95 -0.575192 0.331738 0
M  V30 3010 H 275.48 -1.37604 1.51414 0
M  V30 3011 H 275.49 -3.82112 1.43019 0
M  V30 3012 H 274.165 -3.34052 2.47754 0
M  V30 3013 H 272.742 -3.66731 0.675463 0
M  V30 3014 N 274.927 -0.932562 -1.27047 0
M  V30 3015 C 276.152 -0.591474 -1.98787 0
M  V30 3016 C 276.577 0.824601 -1.69062 0
M  V30 3017 O 275.935 1.5541 -0.933677 0
M  V30 3018 C 275.983 -0.829808 -3.50922 0
M  V30 3019 O 275.087 0.102266 -4.12273 0
M  V30 3020 H 274.428 -0.227185 -0.623926 0
M  V30 3021 H 276.958 -1.25314 -1.61733 0
M  V30 3022 H 276.968 -0.747292 -4.01098 0
M  V30 3023 H 275.643 -1.86201 -3.7189 0
M  V30 3024 H 274.22 -0.0305761 -3.72887 0
M  V30 3025 N 276.405 1.4127 -0.698611 0
M  V30 3026 C 277.653 2.00782 -0.230409 0
M  V30 3027 C 277.974 1.5562 1.17505 0
M  V30 3028 O 277.244 0.78815 1.79346 0
M  V30 3029 H 275.824 0.742464 -0.0821944 0
M  V30 3030 H 278.486 1.72852 -0.90045 0
M  V30 3031 H 277.582 3.11095 -0.25021 0
M  V30 3032 N 277.883 0.443576 1.51229 0
M  V30 3033 C 278.815 -0.400608 2.25672 0
M  V30 3034 C 279.828 -0.980945 1.29928 0
M  V30 3035 O 281.017 -0.874024 1.55638 0
M  V30 3036 C 278.117 -1.57304 3.00181 0
M  V30 3037 C 277.29 -1.11046 4.23069 0
M  V30 3038 C 276.349 -2.15374 4.80105 0
M  V30 3039 O 275.375 -1.74554 5.41774 0
M  V30 3040 N 276.577 -3.47922 4.64683 0
M  V30 3041 H 279.342 0.23745 2.98758 0
M  V30 3042 H 276.903 0.272809 1.59585 0
M  V30 3043 H 278.895 -2.26733 3.35223 0
M  V30 3044 H 277.465 -2.11632 2.30066 0
M  V30 3045 H 276.685 -0.243019 3.9345 0
M  V30 3046 H 277.973 -0.778888 5.02803 0
M  V30 3047 H 277.371 -3.83815 4.15575 0
M  V30 3048 H 275.928 -4.13228 5.0407 0
M  V30 3049 N 279.361 -1.56624 0.175154 0
M  V30 3050 C 280.589 -2.01374 -0.474971 0
M  V30 3051 C 281.004 -1.05537 -1.56548 0
M  V30 3052 O 280.361 -0.0568668 -1.82411 0
M  V30 3053 C 280.412 -3.45923 -1.04975 0
M  V30 3054 O 280.133 -4.381 -0.00276605 0
M  V30 3055 C 281.634 -4.06093 -1.77773 0
M  V30 3056 H 278.854 -0.659962 -0.121206 0
M  V30 3057 H 281.398 -2.02601 0.27801 0
M  V30 3058 H 279.553 -3.45458 -1.75321 0
M  V30 3059 H 279.967 -5.22753 -0.427681 0
M  V30 3060 H 281.441 -5.09147 -2.13245 0
M  V30 3061 H 281.918 -3.48405 -2.67414 0
M  V30 3062 H 282.524 -4.10272 -1.12059 0
M  V30 3063 N 280.839 0.0985539 -1.57292 0
M  V30 3064 C 281.786 1.11981 -2.01814 0
M  V30 3065 C 282.756 1.39999 -0.89384 0
M  V30 3066 O 283.941 1.5152 -1.15958 0
M  V30 3067 C 281.081 2.43577 -2.44467 0
M  V30 3068 C 280.194 2.2232 -3.70402 0
M  V30 3069 C 279.329 3.4729 -4.01949 0
M  V30 3070 C 278.368 3.2128 -5.21005 0
M  V30 3071 N 277.505 4.38507 -5.48321 0
M  V30 3072 H 282.345 0.733149 -2.88841 0
M  V30 3073 H 279.882 0.350482 -1.42864 0
M  V30 3074 H 281.84 3.20373 -2.6724 0
M  V30 3075 H 280.47 2.80097 -1.60455 0
M  V30 3076 H 279.522 1.36343 -3.55126 0
M  V30 3077 H 280.834 1.99089 -4.57345 0
M  V30 3078 H 279.988 4.32495 -4.25479 0
M  V30 3079 H 278.727 3.73572 -3.13521 0
M  V30 3080 H 277.732 2.34468 -4.97298 0
M  V30 3081 H 278.957 2.96348 -6.11028 0
M  V30 3082 H 276.903 4.64871 -4.62851 0
M  V30 3083 H 276.82 4.18455 -6.29628 0
M  V30 3084 H 278.088 5.24787 -5.76385 0
M  V30 3085 N 282.317 1.53212 0.369288 0
M  V30 3086 C 283.563 1.69466 1.11397 0
M  V30 3087 C 283.896 0.443257 1.89074 0
M  V30 3088 O 283.171 -0.559386 1.86282 0
M  V30 3089 C 283.454 2.9422 2.07621 0
M  V30 3090 C 283.307 4.29508 1.33577 0
M  V30 3091 C 284.626 3.14565 3.07794 0
M  V30 3092 H 281.745 0.616667 0.403597 0
M  V30 3093 H 284.387 1.85845 0.395179 0
M  V30 3094 H 282.537 2.80387 2.68916 0
M  V30 3095 H 284.209 4.55147 0.750955 0
M  V30 3096 H 282.452 4.29088 0.637618 0
M  V30 3097 H 283.123 5.12926 2.03989 0
M  V30 3098 H 285.599 3.2756 2.56601 0
M  V30 3099 H 284.475 4.03297 3.72348 0
M  V30 3100 H 284.736 2.29675 3.77759 0
M  V30 3101 N 283.795 -0.628877 1.44509 0
M  V30 3102 C 285.042 -1.38839 1.47411 0
M  V30 3103 C 285.37 -1.94202 0.10757 0
M  V30 3104 O 284.625 -1.74243 -0.890947 0
M  V30 3105 C 284.924 -2.56995 2.48371 0
M  V30 3106 C 284.59 -2.19908 3.93639 0
M  V30 3107 C 283.252 -2.09506 4.33198 0
M  V30 3108 C 285.604 -1.9064 4.85083 0
M  V30 3109 C 282.932 -1.68028 5.62124 0
M  V30 3110 C 285.284 -1.50655 6.14399 0
M  V30 3111 C 283.948 -1.38796 6.5291 0
M  V30 3112 H 283.218 -0.508048 0.539414 0
M  V30 3113 H 285.865 -0.712913 1.77735 0
M  V30 3114 H 284.17 -3.29786 2.11538 0
M  V30 3115 H 285.867 -3.15223 2.47861 0
M  V30 3116 H 282.457 -2.28922 3.62343 0
M  V30 3117 H 286.641 -1.97585 4.55273 0
M  V30 3118 H 281.897 -1.57452 5.90778 0
M  V30 3119 H 286.071 -1.27048 6.84713 0
M  V30 3120 H 283.698 -1.06429 7.52713 0
M  V30 3121 N 285.273 -1.31445 -0.869486 0
M  V30 3122 C 286.498 -1.24256 -1.66058 0
M  V30 3123 C 286.923 0.188928 -1.87149 0
M  V30 3124 O 286.281 1.13522 -1.4136 0
M  V30 3125 C 286.329 -1.9924 -3.00559 0
M  V30 3126 O 285.433 -1.33007 -3.90362 0
M  V30 3127 H 284.774 -0.428973 -0.506831 0
M  V30 3128 H 287.304 -1.73521 -1.08404 0
M  V30 3129 H 287.314 -2.08854 -3.50491 0
M  V30 3130 H 285.989 -3.03342 -2.84528 0
M  V30 3131 H 284.566 -1.31848 -3.48813 0
M  V30 3132 N 286.751 1.08385 -1.14413 0
M  V30 3133 C 287.683 2.1519 -0.789036 0
M  V30 3134 C 288.696 1.61638 0.19417 0
M  V30 3135 O 289.885 1.78479 -0.0275711 0
M  V30 3136 C 286.985 3.38565 -0.15058 0
M  V30 3137 C 286.158 4.21501 -1.16857 0
M  V30 3138 C 285.217 5.23277 -0.553832 0
M  V30 3139 O 284.243 5.56041 -1.21686 0
M  V30 3140 N 285.445 5.76629 0.669296 0
M  V30 3141 H 288.21 2.46257 -1.70814 0
M  V30 3142 H 285.771 1.24198 -1.03858 0
M  V30 3143 H 287.763 4.03777 0.273181 0
M  V30 3144 H 286.333 3.05299 0.671667 0
M  V30 3145 H 285.553 3.52265 -1.76926 0
M  V30 3146 H 286.841 4.73731 -1.85624 0
M  V30 3147 H 286.239 5.52243 1.22654 0
M  V30 3148 H 284.796 6.43521 1.03556 0
M  V30 3149 N 288.23 0.939286 1.26551 0
M  V30 3150 C 289.47 0.5933 1.956 0
M  V30 3151 C 289.834 -0.851515 1.72085 0
M  V30 3152 O 291.035 -1.30634 2.34921 0
M  V30 3153 C 289.306 0.923996 3.45249 0
M  V30 3154 S 290.865 0.688269 4.33369 0
M  V30 3155 H 287.683 0.218591 0.676564 0
M  V30 3156 H 290.285 1.2102 1.5354 0
M  V30 3157 H 288.989 1.97297 3.59864 0
M  V30 3158 H 288.52 0.296746 3.92279 0
M  V30 3159 H 290.535 -0.448434 4.9417 0
M  V30 3160 N 289.708 -1.40897 0.706093 0
M  V30 3161 C 290.954 -2.01352 0.241889 0
M  V30 3162 C 291.287 -1.55832 -1.15888 0
M  V30 3163 O 290.562 -0.774145 -1.7843 0
M  V30 3164 C 290.845 -3.58752 0.311311 0
M  V30 3165 C 290.698 -4.1437 1.74978 0
M  V30 3166 C 292.017 -4.38914 -0.322922 0
M  V30 3167 H 289.136 -0.731562 0.0893687 0
M  V30 3168 H 291.778 -1.67504 0.896802 0
M  V30 3169 H 289.928 -3.87718 -0.246302 0
M  V30 3170 H 291.6 -3.96239 2.36205 0
M  V30 3171 H 289.843 -3.69016 2.28057 0
M  V30 3172 H 290.514 -5.23532 1.74981 0
M  V30 3173 H 292.99 -4.15822 0.152089 0
M  V30 3174 H 291.866 -5.48358 -0.243855 0
M  V30 3175 H 292.127 -4.19176 -1.40513 0
M  V30 3176 N 291.186 -0.45159 -1.50991 0
M  V30 3177 C 292.414 0.108334 -2.06616 0
M  V30 3178 C 292.829 1.35224 -1.31757 0
M  V30 3179 O 292.186 1.78475 -0.381174 0
M  V30 3180 C 292.237 0.41619 -3.59096 0
M  V30 3181 O 291.958 -0.778361 -4.3113 0
M  V30 3182 C 293.459 1.02523 -4.31282 0
M  V30 3183 H 290.679 0.00159995 -0.670998 0
M  V30 3184 H 293.223 -0.634771 -1.94399 0
M  V30 3185 H 291.378 1.10921 -3.71181 0
M  V30 3186 H 291.792 -0.511181 -5.22003 0
M  V30 3187 H 293.266 1.19053 -5.39009 0
M  V30 3188 H 293.743 2.01013 -3.905 0
M  V30 3189 H 294.349 0.371173 -4.23677 0
M  V30 3190 N 292.664 1.56529 -0.183458 0
M  V30 3191 C 293.614 2.1515 0.754605 0
M  V30 3192 C 294.598 1.08904 1.18443 0
M  V30 3193 O 295.79 1.34997 1.14476 0
M  V30 3194 C 292.919 2.80531 1.97881 0
M  V30 3195 C 292.005 3.93952 1.57043 0
M  V30 3196 N 292.396 4.98221 0.87231 0
M  V30 3197 C 290.694 4.05338 1.86057 0
M  V30 3198 C 291.395 5.77836 0.669377 0
M  V30 3199 N 290.371 5.29858 1.21454 0
M  V30 3200 H 294.173 2.93132 0.212387 0
M  V30 3201 H 291.687 1.62391 0.0167725 0
M  V30 3202 H 293.684 3.20914 2.6612 0
M  V30 3203 H 292.344 2.04035 2.52586 0
M  V30 3204 H 293.355 5.15191 0.529033 0
M  V30 3205 H 290.032 3.39957 2.42354 0
M  V30 3206 H 291.422 6.71799 0.116422 0
M  V30 3207 N 294.142 -0.090211 1.57342 0
M  V30 3208 C 295.382 -0.798365 1.88163 0
M  V30 3209 C 295.746 -1.75662 0.775046 0
M  V30 3210 O 296.947 -2.50849 0.965816 0
M  V30 3211 C 295.218 -1.50376 3.24225 0
M  V30 3212 S 296.777 -2.24952 3.76752 0
M  V30 3213 H 293.595 -0.265883 0.659414 0
M  V30 3214 H 296.197 -0.055264 1.95422 0
M  V30 3215 H 294.901 -0.792286 4.0268 0
M  V30 3216 H 294.432 -2.28666 3.20118 0
M  V30 3217 H 296.447 -3.51173 3.5056 0
M  V30 3218 N 295.62 -1.53406 -0.361157 0
M  V30 3219 C 296.845 -1.74024 -1.12829 0
M  V30 3220 C 297.27 -0.470069 -1.82132 0
M  V30 3221 O 296.628 0.57619 -1.719 0
M  V30 3222 C 296.676 -2.90903 -2.13091 0
M  V30 3223 O 295.78 -2.59821 -3.20261 0
M  V30 3224 H 295.121 -0.577804 -0.327168 0
M  V30 3225 H 297.651 -2.00307 -0.41693 0
M  V30 3226 H 297.661 -3.17194 -2.56616 0
M  V30 3227 H 296.336 -3.83034 -1.62042 0
M  V30 3228 H 294.913 -2.44362 -2.81677 0
M  V30 3229 N 297.098 0.621204 -1.44841 0
M  V30 3230 C 298.345 1.38055 -1.48145 0
M  V30 3231 C 298.673 1.94143 -0.117867 0
M  V30 3232 O 297.928 1.74713 0.881694 0
M  V30 3233 C 298.227 2.55675 -2.4973 0
M  V30 3234 C 297.893 2.17817 -3.94799 0
M  V30 3235 C 296.555 2.07205 -4.34303 0
M  V30 3236 C 298.907 1.88065 -4.86087 0
M  V30 3237 C 296.235 1.65045 -5.63007 0
M  V30 3238 C 298.587 1.47394 -6.15189 0
M  V30 3239 C 297.251 1.35331 -6.53637 0
M  V30 3240 H 296.521 0.505181 -0.542101 0
M  V30 3241 H 299.168 0.703477 -1.78111 0
M  V30 3242 H 297.473 3.2866 -2.13284 0
M  V30 3243 H 299.17 3.13904 -2.4953 0
M  V30 3244 H 295.76 2.26998 -3.63552 0
M  V30 3245 H 299.944 1.95168 -4.56315 0
M  V30 3246 H 295.2 1.54317 -5.91605 0
M  V30 3247 H 299.374 1.23415 -6.85377 0
M  V30 3248 H 297.001 1.02435 -7.53267 0
M  V30 3249 N 298.576 1.31904 0.862503 0
M  V30 3250 C 299.801 1.25135 1.65397 0
M  V30 3251 C 300.226 -0.179 1.87246 0
M  V30 3252 O 299.584 -1.1277 1.4196 0
M  V30 3253 C 299.632 2.00832 2.99498 0
M  V30 3254 O 298.736 1.35075 3.89652 0
M  V30 3255 H 298.077 0.431655 0.504549 0
M  V30 3256 H 300.607 1.74094 1.07483 0
M  V30 3257 H 300.617 2.10709 3.49379 0
M  V30 3258 H 299.292 3.04847 2.82916 0
M  V30 3259 H 297.869 1.33696 3.48109 0
M  V30 3260 N 300.054 -1.07777 1.14986 0
M  V30 3261 C 300.986 -2.14769 0.800436 0
M  V30 3262 C 301.999 -1.61739 -0.185595 0
M  V30 3263 O 303.188 -1.78462 0.0370358 0
M  V30 3264 C 300.288 -3.38481 0.168533 0
M  V30 3265 C 299.461 -4.20876 1.1909 0
M  V30 3266 C 298.52 -5.22976 0.581575 0
M  V30 3267 O 297.546 -5.55388 1.24633 0
M  V30 3268 N 298.748 -5.76976 -0.638706 0
M  V30 3269 H 301.513 -2.45348 1.72118 0
M  V30 3270 H 299.074 -1.23645 1.04515 0
M  V30 3271 H 301.066 -4.03916 -0.251764 0
M  V30 3272 H 299.636 -3.05651 -0.655467 0
M  V30 3273 H 298.856 -3.51322 1.78791 0
M  V30 3274 H 300.144 -4.7274 1.88133 0
M  V30 3275 H 299.542 -5.52886 -1.19723 0
M  V30 3276 H 298.099 -6.44061 -1.00142 0
M  V30 3277 N 301.532 -0.945985 -1.26051 0
M  V30 3278 C 302.778 -0.606539 -1.94146 0
M  V30 3279 C 303.133 0.84586 -1.72809 0
M  V30 3280 O 302.426 1.59781 -1.05738 0
M  V30 3281 C 302.62 -0.890475 -3.46129 0
M  V30 3282 C 302.449 -2.36892 -3.82246 0
M  V30 3283 C 301.219 -3.02494 -4.04753 0
M  V30 3284 C 303.417 -3.34772 -3.90425 0
M  V30 3285 N 301.399 -4.40302 -4.27794 0
M  V30 3286 C 302.77 -4.57855 -4.18054 0
M  V30 3287 C 304.825 -3.2973 -3.73072 0
M  V30 3288 C 303.528 -5.76522 -4.30134 0
M  V30 3289 C 305.554 -4.47727 -3.86386 0
M  V30 3290 C 304.916 -5.69593 -4.14419 0
M  V30 3291 H 301.015 -0.272407 -0.73302 0
M  V30 3292 H 303.599 -1.21638 -1.52027 0
M  V30 3293 H 301.77 -0.309638 -3.87164 0
M  V30 3294 H 303.502 -0.51181 -4.01451 0
M  V30 3295 H 300.257 -2.53095 -4.003 0
M  V30 3296 H 300.681 -5.11646 -4.43337 0
M  V30 3297 H 305.323 -2.36565 -3.50424 0
M  V30 3298 H 303.041 -6.70136 -4.51601 0
M  V30 3299 H 306.627 -4.45363 -3.74356 0
M  V30 3300 H 305.507 -6.59375 -4.24493 0
M  V30 3301 N 303.011 1.40521 -0.713556 0
M  V30 3302 C 304.257 2.01714 -0.261382 0
M  V30 3303 C 304.612 1.55562 1.13217 0
M  V30 3304 O 303.905 0.764893 1.7567 0
M  V30 3305 C 304.099 3.56317 -0.278 0
M  V30 3306 C 303.928 4.17476 -1.67163 0
M  V30 3307 C 302.698 4.50998 -2.2788 0
M  V30 3308 C 304.896 4.42472 -2.6215 0
M  V30 3309 N 302.878 4.9754 -3.5962 0
M  V30 3310 C 304.249 4.90985 -3.78594 0
M  V30 3311 C 306.304 4.24508 -2.60188 0
M  V30 3312 C 305.007 5.2342 -4.9338 0
M  V30 3313 C 307.033 4.58043 -3.741 0
M  V30 3314 C 306.395 5.06743 -4.89276 0
M  V30 3315 H 302.494 0.769104 -0.141434 0
M  V30 3316 H 305.078 1.70785 -0.934915 0
M  V30 3317 H 303.249 3.8668 0.36509 0
M  V30 3318 H 304.981 4.0425 0.190695 0
M  V30 3319 H 301.736 4.38062 -1.79997 0
M  V30 3320 H 302.16 5.25196 -4.27198 0
M  V30 3321 H 306.802 3.86078 -1.72348 0
M  V30 3322 H 304.52 5.60765 -5.81866 0
M  V30 3323 H 308.106 4.45785 -3.73854 0
M  V30 3324 H 306.986 5.32204 -5.75959 0
M  V30 3325 N 304.489 0.459591 1.5075 0
M  V30 3326 C 305.439 -0.358926 2.25157 0
M  V30 3327 C 306.423 -0.971285 1.28276 0
M  V30 3328 O 307.615 -0.885739 1.53244 0
M  V30 3329 C 304.744 -1.44695 3.11317 0
M  V30 3330 C 303.83 -0.842894 4.15639 0
M  V30 3331 N 304.221 0.0299373 5.05791 0
M  V30 3332 C 302.519 -1.10809 4.32015 0
M  V30 3333 C 303.22 0.371563 5.80512 0
M  V30 3334 N 302.196 -0.250409 5.43023 0
M  V30 3335 H 305.998 0.313636 2.92222 0
M  V30 3336 H 303.512 0.273021 1.60089 0
M  V30 3337 H 305.509 -2.04641 3.63218 0
M  V30 3338 H 304.169 -2.12162 2.45799 0
M  V30 3339 H 305.18 0.39797 5.16369 0
M  V30 3340 H 301.857 -1.7786 3.77719 0
M  V30 3341 H 303.247 1.08319 6.63111 0
M  V30 3342 N 305.967 -1.56429 0.191757 0
M  V30 3343 C 306.899 -2.16154 -0.762245 0
M  V30 3344 C 307.912 -1.12247 -1.17917 0
M  V30 3345 O 309.101 -1.39353 -1.11548 0
M  V30 3346 C 306.201 -2.70606 -2.04024 0
M  V30 3347 C 305.374 -3.99381 -1.78364 0
M  V30 3348 C 304.433 -4.38692 -2.90578 0
M  V30 3349 O 303.459 -5.06179 -2.6033 0
M  V30 3350 N 304.661 -4.01922 -4.18854 0
M  V30 3351 H 307.426 -2.98643 -0.251526 0
M  V30 3352 H 304.987 -1.61897 0.00967373 0
M  V30 3353 H 306.979 -2.93891 -2.78227 0
M  V30 3354 H 305.549 -1.9259 -2.46227 0
M  V30 3355 H 304.769 -3.84262 -0.879581 0
M  V30 3356 H 306.057 -4.83445 -1.58614 0
M  V30 3357 H 305.455 -3.47631 -4.46283 0
M  V30 3358 H 304.012 -4.30165 -4.89695 0
M  V30 3359 N 307.445 0.0818655 -1.57387 0
M  V30 3360 C 308.408 1.08265 -2.02018 0
M  V30 3361 C 309.408 1.32183 -0.915664 0
M  V30 3362 O 310.598 1.28073 -1.18081 0
M  V30 3363 C 307.73 2.42871 -2.39221 0
M  V30 3364 H 308.923 0.698204 -2.91659 0
M  V30 3365 H 306.476 0.327303 -1.52835 0
M  V30 3366 H 307.211 2.86167 -1.52575 0
M  V30 3367 H 306.996 2.26855 -3.19811 0
M  V30 3368 H 308.486 3.14826 -2.74362 0
M  V30 3369 N 308.923 1.53595 0.353017 0
M  V30 3370 C 310.17 1.70385 1.09431 0
M  V30 3371 C 310.498 0.462113 1.88931 0
M  V30 3372 O 309.753 -0.556074 1.87633 0
M  V30 3373 C 310.052 2.91313 2.07054 0
M  V30 3374 C 309.718 4.27308 1.43939 0
M  V30 3375 C 308.38 4.64287 1.26454 0
M  V30 3376 C 310.732 5.11829 0.983883 0
M  V30 3377 C 308.06 5.83412 0.620226 0
M  V30 3378 C 310.412 6.31611 0.353516 0
M  V30 3379 C 309.076 6.67293 0.166272 0
M  V30 3380 H 308.346 0.623484 0.400436 0
M  V30 3381 H 310.993 1.87799 0.374655 0
M  V30 3382 H 309.298 2.68463 2.85368 0
M  V30 3383 H 310.995 3.01497 2.64387 0
M  V30 3384 H 307.585 3.98198 1.58543 0
M  V30 3385 H 311.769 4.838 1.10685 0
M  V30 3386 H 307.025 6.09639 0.463681 0
M  V30 3387 H 311.199 6.964 -0.00757555 0
M  V30 3388 H 308.826 7.59461 -0.335047 0
M  V30 3389 N 310.401 -0.613514 1.45168 0
M  V30 3390 C 311.631 -1.39743 1.52169 0
M  V30 3391 C 312.039 -1.88596 0.151086 0
M  V30 3392 O 311.382 -1.6251 -0.856521 0
M  V30 3393 C 311.444 -2.64035 2.43979 0
M  V30 3394 C 311.108 -2.36861 3.90827 0
M  V30 3395 C 312.105 -1.97591 4.80889 0
M  V30 3396 C 309.79 -2.49956 4.35692 0
M  V30 3397 C 311.784 -1.71768 6.1382 0
M  V30 3398 C 309.471 -2.23747 5.68665 0
M  V30 3399 C 310.469 -1.84714 6.57548 0
M  V30 3400 O 310.157 -1.58809 7.88058 0
M  V30 3401 H 309.889 -0.434382 0.517966 0
M  V30 3402 H 312.443 -0.75587 1.90986 0
M  V30 3403 H 310.673 -3.3089 2.00122 0
M  V30 3404 H 312.362 -3.26069 2.41731 0
M  V30 3405 H 313.128 -1.87015 4.47493 0
M  V30 3406 H 309.007 -2.79305 3.66756 0
M  V30 3407 H 312.551 -1.41227 6.83155 0
M  V30 3408 H 308.448 -2.33938 6.01617 0
M  V30 3409 H 309.216 -1.7291 8.00028 0
M  V30 3410 N 311.879 -1.3236 -0.855495 0
M  V30 3411 C 312.827 -1.2118 -1.9854 0
M  V30 3412 C 313.821 -0.116788 -1.68997 0
M  V30 3413 O 315.027 -0.279657 -1.77814 0
M  V30 3414 H 311.402 -0.375608 -0.651477 0
M  V30 3415 H 313.373 -2.16743 -2.05098 0
M  V30 3416 C 312.122 -0.950849 -3.34446 0
M  V30 3417 H 311.445 -1.78563 -3.57708 0
M  V30 3418 H 312.885 -0.912863 -4.14057 0
M  V30 3419 C 311.344 0.346404 -3.35114 0
M  V30 3420 O 311.874 1.35855 -3.7803 0
M  V30 3421 N 310.08 0.36808 -2.88259 0
M  V30 3422 H 309.627 -0.456102 -2.5353 0
M  V30 3423 H 309.585 1.23591 -2.89089 0
M  V30 3424 N 313.357 1.07166 -1.15556 0
M  V30 3425 C 314.604 1.79798 -0.931604 0
M  V30 3426 C 314.932 1.8682 0.54115 0
M  V30 3427 O 314.187 1.34942 1.41736 0
M  V30 3428 C 314.486 3.24707 -1.49332 0
M  V30 3429 C 314.152 3.37781 -2.98688 0
M  V30 3430 C 312.814 3.41057 -3.39461 0
M  V30 3431 C 315.166 3.40424 -3.94665 0
M  V30 3432 C 312.494 3.4458 -4.74849 0
M  V30 3433 C 314.846 3.45485 -5.29927 0
M  V30 3434 C 313.51 3.47039 -5.70193 0
M  V30 3435 H 312.78 0.657928 -0.340898 0
M  V30 3436 H 315.427 1.26091 -1.44129 0
M  V30 3437 H 313.732 3.81208 -0.904859 0
M  V30 3438 H 315.429 3.79486 -1.29582 0
M  V30 3439 H 312.019 3.35932 -2.66172 0
M  V30 3440 H 316.203 3.37113 -3.64237 0
M  V30 3441 H 311.459 3.44083 -5.05388 0
M  V30 3442 H 315.633 3.46476 -6.04092 0
M  V30 3443 H 313.26 3.49522 -6.75084 0
M  V30 3444 N 314.835 0.952656 1.25548 0
M  V30 3445 C 316.082 0.606373 1.93208 0
M  V30 3446 C 316.41 -0.85631 1.74636 0
M  V30 3447 O 315.665 -1.62951 1.08376 0
M  V30 3448 C 315.964 0.908818 3.45652 0
M  V30 3449 C 315.63 2.35722 3.84378 0
M  V30 3450 C 314.292 2.75312 3.9466 0
M  V30 3451 C 316.644 3.29793 4.03591 0
M  V30 3452 C 313.972 4.08047 4.21562 0
M  V30 3453 C 316.324 4.62138 4.31985 0
M  V30 3454 C 314.988 5.01528 4.40484 0
M  V30 3455 H 314.258 0.221888 0.706998 0
M  V30 3456 H 316.905 1.20132 1.49133 0
M  V30 3457 H 315.21 0.231456 3.91116 0
M  V30 3458 H 316.907 0.619498 3.96186 0
M  V30 3459 H 313.497 2.04017 3.76928 0
M  V30 3460 H 317.681 3.00397 3.95064 0
M  V30 3461 H 312.937 4.38212 4.26357 0
M  V30 3462 H 317.111 5.35012 4.45797 0
M  V30 3463 H 314.738 6.04406 4.61083 0
M  V30 3464 N 316.313 -1.40141 0.720998 0
M  V30 3465 C 317.541 -2.05096 0.272656 0
M  V30 3466 C 317.956 -1.54334 -1.0875 0
M  V30 3467 O 317.313 -0.702211 -1.6845 0
M  V30 3468 C 317.364 -3.60636 0.249835 0
M  V30 3469 O 317.085 -4.09526 1.55629 0
M  V30 3470 C 318.586 -4.42772 -0.216396 0
M  V30 3471 H 315.806 -0.659897 0.121558 0
M  V30 3472 H 318.35 -1.79449 0.980723 0
M  V30 3473 H 316.505 -3.85232 -0.409237 0
M  V30 3474 H 316.919 -5.03758 1.4604 0
M  V30 3475 H 318.393 -5.51702 -0.181212 0
M  V30 3476 H 318.87 -4.20756 -1.25941 0
M  V30 3477 H 319.476 -4.23294 0.412596 0
M  V30 3478 N 317.792 -0.46758 -1.50504 0
M  V30 3479 C 319.039 0.0886219 -2.02306 0
M  V30 3480 C 319.367 1.40037 -1.34981 0
M  V30 3481 O 318.622 1.90136 -0.463318 0
M  V30 3482 C 318.921 0.323995 -3.55928 0
M  V30 3483 C 318.587 -0.905618 -4.41712 0
M  V30 3484 C 317.249 -1.24275 -4.64875 0
M  V30 3485 C 319.601 -1.72448 -4.91845 0
M  V30 3486 C 316.929 -2.39888 -5.35417 0
M  V30 3487 C 319.281 -2.87185 -5.63656 0
M  V30 3488 C 317.945 -3.21317 -5.85074 0
M  V30 3489 H 317.215 0.0324291 -0.74029 0
M  V30 3490 H 319.862 -0.620945 -1.81153 0
M  V30 3491 H 318.167 1.11577 -3.75577 0
M  V30 3492 H 319.864 0.76826 -3.93572 0
M  V30 3493 H 316.454 -0.632956 -4.239 0
M  V30 3494 H 320.638 -1.4772 -4.73806 0
M  V30 3495 H 315.894 -2.66611 -5.50208 0
M  V30 3496 H 320.068 -3.50985 -6.01484 0
M  V30 3497 H 317.695 -4.1101 -6.39511 0
M  V30 3498 N 319.27 1.56325 -0.20005 0
M  V30 3499 C 320.495 2.02548 0.44597 0
M  V30 3500 C 320.92 1.07922 1.5406 0
M  V30 3501 O 320.278 0.0635775 1.81188 0
M  V30 3502 C 320.326 3.47175 0.974761 0
M  V30 3503 O 319.43 3.55671 2.08739 0
M  V30 3504 H 318.771 0.655862 0.103638 0
M  V30 3505 H 321.301 2.02201 -0.312381 0
M  V30 3506 H 321.311 3.87067 1.2901 0
M  V30 3507 H 319.986 4.15538 0.17347 0
M  V30 3508 H 318.563 3.27657 1.78032 0
M  V30 3509 N 320.748 -0.0735177 1.57428 0
M  V30 3510 C 321.988 -0.778363 1.89 0
M  V30 3511 C 322.352 -1.7483 0.793634 0
M  V30 3512 O 323.553 -2.49811 0.992367 0
M  V30 3513 C 321.824 -1.46929 3.25802 0
M  V30 3514 S 323.383 -2.20943 3.79117 0
M  V30 3515 H 320.201 -0.258874 0.662197 0
M  V30 3516 H 322.803 -0.0345338 1.95469 0
M  V30 3517 H 321.507 -0.749532 4.03497 0
M  V30 3518 H 321.038 -2.25258 3.22525 0
M  V30 3519 H 323.053 -3.47435 3.54265 0
M  V30 3520 N 322.226 -1.5378 -0.344866 0
M  V30 3521 C 323.156 -1.84662 -1.42906 0
M  V30 3522 C 324.137 -0.701648 -1.54955 0
M  V30 3523 O 325.322 -0.953438 -1.69184 0
M  V30 3524 C 322.452 -2.05503 -2.79974 0
M  V30 3525 C 321.406 -3.21318 -2.82734 0
M  V30 3526 C 320.732 -3.2749 -4.22675 0
M  V30 3527 C 322.032 -4.59456 -2.48389 0
M  V30 3528 H 323.726 -2.75461 -1.17311 0
M  V30 3529 H 321.272 -1.32542 -0.562896 0
M  V30 3530 H 323.225 -2.25691 -3.55867 0
M  V30 3531 H 321.949 -1.11434 -3.07002 0
M  V30 3532 H 320.608 -3.00984 -2.09294 0
M  V30 3533 H 320.256 -2.31019 -4.4681 0
M  V30 3534 H 319.956 -4.05316 -4.25433 0
M  V30 3535 H 321.48 -3.49887 -5.00412 0
M  V30 3536 H 322.894 -4.79667 -3.13995 0
M  V30 3537 H 321.291 -5.39675 -2.62432 0
M  V30 3538 H 322.361 -4.63155 -1.4358 0
M  V30 3539 N 323.704 0.605807 -1.45491 0
M  V30 3540 C 324.951 1.36476 -1.49601 0
M  V30 3541 C 325.279 1.94007 -0.138452 0
M  V30 3542 O 324.534 1.75638 0.863114 0
M  V30 3543 C 324.833 2.53012 -2.52428 0
M  V30 3544 C 324.499 2.13617 -3.97087 0
M  V30 3545 C 323.161 2.02587 -4.36477 0
M  V30 3546 C 325.513 1.82899 -4.88055 0
M  V30 3547 C 322.841 1.59064 -5.64726 0
M  V30 3548 C 325.193 1.40861 -6.16718 0
M  V30 3549 C 323.857 1.28391 -6.55036 0
M  V30 3550 H 323.127 0.499402 -0.547429 0
M  V30 3551 H 325.774 0.684546 -1.78847 0
M  V30 3552 H 324.079 3.26379 -2.16758 0
M  V30 3553 H 325.776 3.1124 -2.52845 0
M  V30 3554 H 322.366 2.23129 -3.65939 0
M  V30 3555 H 326.55 1.90317 -4.58359 0
M  V30 3556 H 321.806 1.48034 -5.93208 0
M  V30 3557 H 325.98 1.16138 -6.86648 0
M  V30 3558 H 323.607 0.944403 -7.54311 0
M  V30 3559 N 325.182 1.32811 0.848464 0
M  V30 3560 C 326.431 1.23075 1.59798 0
M  V30 3561 C 326.744 -0.204419 1.94529 0
M  V30 3562 O 327.95 -0.423701 2.68173 0
M  V30 3563 C 326.406 2.15594 2.88179 0
M  V30 3564 C 326.014 3.64228 2.60849 0
M  V30 3565 C 327.758 2.14709 3.66197 0
M  V30 3566 C 325.665 4.48689 3.85269 0
M  V30 3567 H 324.595 0.457091 0.599653 0
M  V30 3568 H 327.246 1.57813 0.936342 0
M  V30 3569 H 325.628 1.73778 3.55833 0
M  V30 3570 H 326.802 4.14424 2.01467 0
M  V30 3571 H 325.117 3.67306 1.96151 0
M  V30 3572 H 327.714 2.75046 4.58534 0
M  V30 3573 H 328.057 1.13966 4.00397 0
M  V30 3574 H 328.59 2.54837 3.05455 0
M  V30 3575 H 325.329 5.5027 3.56207 0
M  V30 3576 H 324.849 4.03241 4.44024 0
M  V30 3577 H 326.528 4.62006 4.52946 0
M  V30 3578 N 326.66 -1.06551 1.16123 0
M  V30 3579 C 327.909 -1.78687 0.935622 0
M  V30 3580 C 328.222 -1.88056 -0.538001 0
M  V30 3581 O 329.428 -2.56794 -0.88143 0
M  V30 3582 C 327.884 -3.21143 1.62466 0
M  V30 3583 C 327.492 -3.19949 3.13587 0
M  V30 3584 C 329.236 -3.9783 1.48092 0
M  V30 3585 C 327.143 -4.57108 3.75241 0
M  V30 3586 H 326.073 -0.669712 0.346412 0
M  V30 3587 H 328.724 -1.19534 1.39226 0
M  V30 3588 H 327.106 -3.80539 1.09572 0
M  V30 3589 H 328.28 -2.70151 3.73303 0
M  V30 3590 H 326.595 -2.5676 3.27816 0
M  V30 3591 H 329.192 -4.99217 1.91538 0
M  V30 3592 H 329.535 -4.14078 0.429507 0
M  V30 3593 H 330.068 -3.4495 1.98127 0
M  V30 3594 H 326.807 -4.46065 4.80319 0
M  V30 3595 H 326.327 -5.07111 3.20309 0
M  V30 3596 H 328.006 -5.26069 3.76644 0
M  V30 3597 N 328.138 -0.959301 -1.25041 0
M  V30 3598 C 329.549 -0.65667 -1.74771 0
M  V30 3599 C 329.9 0.827852 -1.77879 0
M  V30 3600 O 329.025 1.64783 -1.40269 0
M  V30 3601 C 329.62 -1.1853 -3.1739 0
M  V30 3602 C 328.179 -0.932734 -3.6466 0
M  V30 3603 C 327.326 -1.32558 -2.43564 0
M  V30 3604 H 330.277 -1.13558 -1.10862 0
M  V30 3605 H 330.298 -0.547582 -3.76539 0
M  V30 3606 H 329.81 -2.26576 -3.15095 0
M  V30 3607 H 327.911 0.13257 -3.72364 0
M  V30 3608 H 328.024 -1.57248 -4.52559 0
M  V30 3609 H 326.388 -0.743956 -2.43593 0
M  V30 3610 H 327.171 -2.41537 -2.43957 0
M  V30 3611 N 329.616 1.39756 -0.72842 0
M  V30 3612 C 330.546 2.33289 -0.0991354 0
M  V30 3613 C 331.527 1.53568 0.731489 0
M  V30 3614 O 332.712 1.81987 0.677807 0
M  V30 3615 C 329.842 3.3763 0.813834 0
M  V30 3616 C 328.796 4.2791 0.0878663 0
M  V30 3617 C 328.122 5.22894 1.11741 0
M  V30 3618 C 329.422 5.11314 -1.06563 0
M  V30 3619 H 331.116 2.86163 -0.880408 0
M  V30 3620 H 328.662 1.37591 -0.424819 0
M  V30 3621 H 330.615 4.0201 1.26355 0
M  V30 3622 H 329.339 2.83181 1.62715 0
M  V30 3623 H 327.998 3.65 -0.342159 0
M  V30 3624 H 327.646 4.64744 1.92412 0
M  V30 3625 H 327.346 5.84143 0.636477 0
M  V30 3626 H 328.87 5.90151 1.56697 0
M  V30 3627 H 330.284 5.69076 -0.694671 0
M  V30 3628 H 328.681 5.81671 -1.47577 0
M  V30 3629 H 329.751 4.46534 -1.89038 0
M  V30 3630 N 331.094 0.475555 1.50254 0
M  V30 3631 C 332.341 -0.0778919 2.0235 0
M  V30 3632 C 332.669 -1.39319 1.35722 0
M  V30 3633 O 331.924 -1.89888 0.473395 0
M  V30 3634 C 332.223 -0.305114 3.56095 0
M  V30 3635 C 331.889 0.92903 4.41225 0
M  V30 3636 C 330.551 1.26739 4.6421 0
M  V30 3637 C 332.903 1.75054 4.90923 0
M  V30 3638 C 330.231 2.42724 5.34137 0
M  V30 3639 C 332.583 2.9017 5.62125 0
M  V30 3640 C 331.247 3.24416 5.83362 0
M  V30 3641 H 330.517 -0.0285027 0.740452 0
M  V30 3642 H 333.164 0.630543 1.80821 0
M  V30 3643 H 331.469 -1.09584 3.76163 0
M  V30 3644 H 333.166 -0.747377 3.93974 0
M  V30 3645 H 329.756 0.655428 4.23559 0
M  V30 3646 H 333.94 1.50231 4.73016 0
M  V30 3647 H 329.196 2.69525 5.48786 0
M  V30 3648 H 333.37 3.54169 5.99614 0
M  V30 3649 H 330.997 4.14396 6.37323 0
M  V30 3650 N 332.573 -1.56217 0.208337 0
M  V30 3651 C 333.822 -1.97124 -0.427204 0
M  V30 3652 C 334.135 -1.09859 -1.61835 0
M  V30 3653 O 335.341 -1.40606 -2.32255 0
M  V30 3654 C 333.797 -3.50633 -0.811442 0
M  V30 3655 C 333.405 -4.46582 0.35615 0
M  V30 3656 C 335.149 -4.00282 -1.41332 0
M  V30 3657 C 333.056 -5.91379 -0.0497852 0
M  V30 3658 H 331.986 -0.736086 -0.163381 0
M  V30 3659 H 334.637 -1.8099 0.302456 0
M  V30 3660 H 333.019 -3.62319 -1.59815 0
M  V30 3661 H 334.193 -4.46636 1.1337 0
M  V30 3662 H 332.508 -4.07202 0.870396 0
M  V30 3663 H 335.105 -5.0595 -1.72972 0
M  V30 3664 H 335.448 -3.45359 -2.32449 0
M  V30 3665 H 335.981 -3.91764 -0.690323 0
M  V30 3666 H 332.72 -6.50255 0.827529 0
M  V30 3667 H 332.24 -5.94549 -0.791926 0
M  V30 3668 H 333.919 -6.45209 -0.481042 0
M  V30 3669 N 334.051 0.0651679 -1.57465 0
M  V30 3670 C 334.984 1.10876 -1.99453 0
M  V30 3671 C 335.962 1.37205 -0.872555 0
M  V30 3672 O 337.146 1.50468 -1.13542 0
M  V30 3673 C 334.273 2.45167 -2.3369 0
M  V30 3674 C 333.319 2.3493 -3.55964 0
M  V30 3675 S 334.152 1.73708 -5.06543 0
M  V30 3676 C 335.308 3.09563 -5.43987 0
M  V30 3677 H 335.541 0.750967 -2.87659 0
M  V30 3678 H 333.074 0.273933 -1.51951 0
M  V30 3679 H 335.032 3.22412 -2.54088 0
M  V30 3680 H 333.693 2.78105 -1.46001 0
M  V30 3681 H 332.886 3.3398 -3.77457 0
M  V30 3682 H 332.488 1.65823 -3.3523 0
M  V30 3683 H 334.78 4.05882 -5.42463 0
M  V30 3684 H 335.723 2.92843 -6.44708 0
M  V30 3685 H 336.131 3.10474 -4.71451 0
M  V30 3686 N 335.529 1.53961 0.336706 0
M  V30 3687 C 336.459 1.85417 1.41925 0
M  V30 3688 C 337.44 0.709856 1.5458 0
M  V30 3689 O 338.625 0.962396 1.68676 0
M  V30 3690 C 335.755 2.06985 2.78881 0
M  V30 3691 C 334.709 3.22813 2.81026 0
M  V30 3692 C 334.035 3.29727 4.20932 0
M  V30 3693 C 335.335 4.60767 2.45949 0
M  V30 3694 H 337.029 2.76079 1.15848 0
M  V30 3695 H 334.575 1.32839 0.555859 0
M  V30 3696 H 336.528 2.27575 3.54665 0
M  V30 3697 H 335.252 1.13061 3.06406 0
M  V30 3698 H 333.911 3.0209 2.07695 0
M  V30 3699 H 333.559 2.33385 4.45579 0
M  V30 3700 H 333.259 4.07566 4.23277 0
M  V30 3701 H 334.783 3.52536 4.98549 0
M  V30 3702 H 336.197 4.81325 3.11446 0
M  V30 3703 H 334.594 5.4106 2.59566 0
M  V30 3704 H 335.664 4.6391 1.41122 0
M  V30 3705 N 337.007 -0.598083 1.45811 0
M  V30 3706 C 338.256 -1.35295 1.49594 0
M  V30 3707 C 338.569 -1.95057 0.145679 0
M  V30 3708 O 339.775 -2.71431 0.0612099 0
M  V30 3709 C 338.231 -2.45124 2.63519 0
M  V30 3710 C 337.839 -1.91732 4.04899 0
M  V30 3711 C 339.583 -3.2205 2.76558 0
M  V30 3712 C 337.49 -2.991 5.1019 0
M  V30 3713 H 336.42 -0.508552 0.556679 0
M  V30 3714 H 339.071 -0.639977 1.71978 0
M  V30 3715 H 337.453 -3.19149 2.34435 0
M  V30 3716 H 338.627 -1.24352 4.43704 0
M  V30 3717 H 336.942 -1.27522 3.96393 0
M  V30 3718 H 339.539 -4.0215 3.52391 0
M  V30 3719 H 339.882 -3.73663 1.83526 0
M  V30 3720 H 340.415 -2.55127 3.05213 0
M  V30 3721 H 337.154 -2.52393 6.04961 0
M  V30 3722 H 336.674 -3.65017 4.75944 0
M  V30 3723 H 338.353 -3.63318 5.35359 0
M  V30 3724 N 338.485 -1.33259 -0.841409 0
M  V30 3725 C 339.725 -1.25902 -1.61022 0
M  V30 3726 C 340.089 0.173325 -1.91216 0
M  V30 3727 O 341.29 0.370824 -2.6623 0
M  V30 3728 C 339.561 -2.10735 -2.88662 0
M  V30 3729 S 341.12 -2.20541 -3.79351 0
M  V30 3730 H 337.938 -0.447958 -0.552137 0
M  V30 3731 H 340.54 -1.68263 -0.995382 0
M  V30 3732 H 339.244 -3.1384 -2.64448 0
M  V30 3733 H 338.775 -1.69201 -3.55154 0
M  V30 3734 H 340.79 -1.36462 -4.77067 0
M  V30 3735 N 339.963 1.05934 -1.16686 0
M  V30 3736 C 340.911 2.15603 -0.872817 0
M  V30 3737 C 341.905 1.68647 0.159576 0
M  V30 3738 O 343.111 1.79995 0.0132125 0
M  V30 3739 H 339.486 0.703885 -0.264671 0
M  V30 3740 H 341.457 2.37613 -1.80507 0
M  V30 3741 C 340.206 3.45457 -0.394344 0
M  V30 3742 H 339.529 3.81984 -1.18019 0
M  V30 3743 H 340.969 4.2339 -0.227408 0
M  V30 3744 C 339.428 3.25021 0.88673 0
M  V30 3745 O 339.958 3.50906 1.95519 0
M  V30 3746 N 338.164 2.78437 0.831925 0
M  V30 3747 H 337.711 2.57572 -0.0377619 0
M  V30 3748 H 337.669 2.65144 1.68956 0
M  V30 3749 N 341.441 0.965919 1.2453 0
M  V30 3750 C 342.404 0.499547 2.2369 0
M  V30 3751 C 343.404 -0.40294 1.5567 0
M  V30 3752 O 344.594 -0.19865 1.73064 0
M  V30 3753 C 341.726 -0.276792 3.39774 0
M  V30 3754 H 342.919 1.37613 2.66463 0
M  V30 3755 H 340.472 0.750324 1.37112 0
M  V30 3756 H 341.207 -1.17055 3.02438 0
M  V30 3757 H 340.992 0.370826 3.90343 0
M  V30 3758 H 342.482 -0.592175 4.1338 0
M  V30 3759 N 342.919 -1.39368 0.735821 0
M  V30 3760 C 343.866 -2.30599 0.0963825 0
M  V30 3761 C 344.836 -1.49257 -0.728794 0
M  V30 3762 O 346.021 -1.77941 -0.688588 0
M  V30 3763 C 343.161 -3.35596 -0.804305 0
M  V30 3764 C 342.274 -4.31987 0.0335761 0
M  V30 3765 C 341.409 -5.24053 -0.868461 0
M  V30 3766 C 340.448 -6.12095 -0.0258776 0
M  V30 3767 N 339.585 -6.96514 -0.883893 0
M  V30 3768 H 344.425 -2.8471 0.880002 0
M  V30 3769 H 341.962 -1.40188 0.445619 0
M  V30 3770 H 343.92 -3.95062 -1.34096 0
M  V30 3771 H 342.55 -2.82938 -1.55389 0
M  V30 3772 H 341.602 -3.74133 0.68766 0
M  V30 3773 H 342.914 -4.94074 0.685036 0
M  V30 3774 H 342.068 -5.88549 -1.47293 0
M  V30 3775 H 340.807 -4.62289 -1.5537 0
M  V30 3776 H 339.812 -5.4661 0.591386 0
M  V30 3777 H 341.037 -6.75923 0.656156 0
M  V30 3778 H 338.983 -6.37318 -1.55441 0
M  V30 3779 H 338.9 -7.55448 -0.288931 0
M  V30 3780 H 340.168 -7.65439 -1.4739 0
M  V30 3781 N 344.397 -0.483516 -1.5 0
M  V30 3782 C 345.646 0.0689102 -2.01582 0
M  V30 3783 C 345.959 1.39655 -1.36952 0
M  V30 3784 O 347.165 2.03465 -1.79762 0
M  V30 3785 C 345.621 0.173302 -3.59483 0
M  V30 3786 C 345.229 -1.14665 -4.33077 0
M  V30 3787 C 346.973 0.677024 -4.19066 0
M  V30 3788 C 344.88 -1.00537 -5.82792 0
M  V30 3789 H 343.81 0.0295277 -0.753422 0
M  V30 3790 H 346.461 -0.620295 -1.72698 0
M  V30 3791 H 344.843 0.926569 -3.85007 0
M  V30 3792 H 346.017 -1.91184 -4.19268 0
M  V30 3793 H 344.332 -1.58244 -3.85159 0
M  V30 3794 H 346.929 0.799952 -5.28682 0
M  V30 3795 H 347.272 1.67151 -3.81269 0
M  V30 3796 H 347.805 -0.0192083 -3.97795 0
M  V30 3797 H 344.544 -1.9736 -6.25083 0
M  V30 3798 H 344.064 -0.280776 -5.99142 0
M  V30 3799 H 345.743 -0.677 -6.43448 0
M  V30 3800 N 345.875 1.56104 -0.216619 0
M  V30 3801 C 347.124 1.97348 0.416744 0
M  V30 3802 C 347.437 1.10715 1.6125 0
M  V30 3803 O 348.643 1.41836 2.31506 0
M  V30 3804 C 347.099 3.51059 0.792835 0
M  V30 3805 C 346.707 4.46387 -0.379828 0
M  V30 3806 C 348.451 4.01026 1.39208 0
M  V30 3807 C 346.358 5.91397 0.0184223 0
M  V30 3808 H 345.288 0.736942 0.159475 0
M  V30 3809 H 347.939 1.80827 -0.31205 0
M  V30 3810 H 346.321 3.63162 1.57891 0
M  V30 3811 H 347.495 4.46029 -1.15737 0
M  V30 3812 H 345.81 4.06734 -0.891979 0
M  V30 3813 H 348.407 5.0686 1.70286 0
M  V30 3814 H 348.75 3.46587 2.30614 0
M  V30 3815 H 349.283 3.92125 0.669537 0
M  V30 3816 H 346.022 6.49807 -0.862002 0
M  V30 3817 H 345.542 5.94961 0.760384 0
M  V30 3818 H 347.221 6.45455 0.446818 0
M  V30 3819 N 347.353 -0.0568162 1.57498 0
M  V30 3820 C 348.6 -0.753104 1.87975 0
M  V30 3821 C 348.928 -1.76815 0.81035 0
M  V30 3822 O 348.183 -1.94756 -0.19199 0
M  V30 3823 C 348.482 -1.48359 3.25153 0
M  V30 3824 C 348.148 -0.60713 4.46794 0
M  V30 3825 C 346.81 -0.365642 4.79809 0
M  V30 3826 C 349.162 -0.000305978 5.212 0
M  V30 3827 C 346.49 0.491905 5.84634 0
M  V30 3828 C 348.842 0.844781 6.26934 0
M  V30 3829 C 347.506 1.096 6.58441 0
M  V30 3830 H 346.776 -0.27558 0.687849 0
M  V30 3831 H 349.423 -0.0135173 1.91495 0
M  V30 3832 H 347.728 -2.29577 3.17492 0
M  V30 3833 H 349.425 -2.02739 3.45974 0
M  V30 3834 H 346.015 -0.805487 4.20963 0
M  V30 3835 H 350.199 -0.173961 4.95995 0
M  V30 3836 H 345.455 0.695131 6.07436 0
M  V30 3837 H 349.629 1.32165 6.83744 0
M  V30 3838 H 347.256 1.76224 7.39492 0
M  V30 3839 N 348.832 -1.54138 -0.328536 0
M  V30 3840 C 350.06 -1.76062 -1.08673 0
M  V30 3841 C 350.475 -0.506852 -1.81869 0
M  V30 3842 O 349.832 0.522223 -1.74869 0
M  V30 3843 C 349.883 -2.95054 -2.08866 0
M  V30 3844 O 349.604 -4.15583 -1.38644 0
M  V30 3845 C 351.105 -3.2915 -2.96943 0
M  V30 3846 H 348.325 -0.587889 -0.323461 0
M  V30 3847 H 350.869 -2.0101 -0.376175 0
M  V30 3848 H 349.024 -2.72394 -2.75464 0
M  V30 3849 H 349.438 -4.82481 -2.05699 0
M  V30 3850 H 350.912 -4.15723 -3.63151 0
M  V30 3851 H 351.389 -2.461 -3.63774 0
M  V30 3852 H 351.995 -3.53871 -2.35914 0
M  V30 3853 N 350.31 0.590341 -1.46126 0
M  V30 3854 C 351.24 1.71032 -1.58966 0
M  V30 3855 C 352.221 1.64302 -0.440335 0
M  V30 3856 O 353.406 1.82436 -0.665634 0
M  V30 3857 C 350.536 3.09665 -1.57241 0
M  V30 3858 C 349.49 3.31221 -2.71066 0
M  V30 3859 C 348.816 4.70303 -2.54399 0
M  V30 3860 C 350.116 3.19796 -4.1295 0
M  V30 3861 H 351.81 1.60543 -2.52718 0
M  V30 3862 H 349.356 0.770933 -1.21625 0
M  V30 3863 H 351.309 3.87831 -1.64819 0
M  V30 3864 H 350.033 3.21036 -0.600289 0
M  V30 3865 H 348.692 2.55452 -2.62944 0
M  V30 3866 H 348.34 4.78429 -1.55288 0
M  V30 3867 H 348.04 4.85679 -3.30741 0
M  V30 3868 H 349.564 5.50647 -2.63857 0
M  V30 3869 H 350.978 3.87815 -4.22223 0
M  V30 3870 H 349.375 3.46696 -4.89818 0
M  V30 3871 H 350.445 2.16983 -4.33643 0
M  V30 3872 N 351.788 1.33704 0.83433 0
M  V30 3873 C 353.016 1.28467 1.62185 0
M  V30 3874 C 353.431 -0.143526 1.88254 0
M  V30 3875 O 352.788 -1.08709 1.4659 0
M  V30 3876 C 352.839 2.06174 2.96942 0
M  V30 3877 O 352.56 3.43422 2.72016 0
M  V30 3878 C 354.061 2.08201 3.91366 0
M  V30 3879 H 351.281 0.4424 0.504503 0
M  V30 3880 H 353.825 1.76145 1.03891 0
M  V30 3881 H 351.98 1.62167 3.51825 0
M  V30 3882 H 352.394 3.83453 3.57861 0
M  V30 3883 H 353.868 2.67017 4.83121 0
M  V30 3884 H 354.345 1.07343 4.2588 0
M  V30 3885 H 354.951 2.52246 3.42421 0
M  V30 3886 N 353.266 -1.05314 1.17247 0
M  V30 3887 C 354.682 -1.30452 0.919473 0
M  V30 3888 C 354.882 -1.9703 -0.42209 0
M  V30 3889 O 353.938 -2.24311 -1.15935 0
M  V30 3890 C 355.251 -2.17551 2.07586 0
M  V30 3891 C 356.799 -2.30937 2.11275 0
M  V30 3892 C 357.274 -3.21396 3.26296 0
M  V30 3893 N 358.765 -3.28981 3.26076 0
M  V30 3894 C 359.5 -3.99095 4.11716 0
M  V30 3895 N 358.996 -4.71648 5.07465 0
M  V30 3896 N 360.789 -3.95247 3.9967 0
M  V30 3897 H 352.94 -0.604988 2.03602 0
M  V30 3898 H 355.203 -0.329368 0.888944 0
M  V30 3899 H 354.909 -1.75921 3.0454 0
M  V30 3900 H 354.783 -3.18182 2.02584 0
M  V30 3901 H 357.17 -2.71809 1.14907 0
M  V30 3902 H 357.251 -1.2994 2.20339 0
M  V30 3903 H 356.895 -2.81238 4.22927 0
M  V30 3904 H 356.825 -4.22395 3.14467 0
M  V30 3905 H 359.316 -2.77286 2.5675 0
M  V30 3906 H 359.629 -5.22705 5.6921 0
M  V30 3907 H 357.974 -4.70594 5.11435 0
M  V30 3908 H 361.165 -3.37691 3.24164 0
M  V30 3909 H 361.338 -4.4962 4.66632 0
M  V30 3910 N 354.744 -0.972509 -1.24016 0
M  V30 3911 C 355.99 -0.637978 -1.92504 0
M  V30 3912 C 356.323 0.825383 -1.75787 0
M  V30 3913 O 355.598 1.59442 -1.11393 0
M  V30 3914 C 355.881 -1.01942 -3.45369 0
M  V30 3915 C 355.734 -2.53983 -3.71231 0
M  V30 3916 C 357.053 -0.55751 -4.36555 0
M  V30 3917 H 354.172 -0.233248 -0.699117 0
M  V30 3918 H 356.814 -1.21238 -1.46292 0
M  V30 3919 H 354.964 -0.530656 -3.84859 0
M  V30 3920 H 356.636 -3.10374 -3.41271 0
M  V30 3921 H 354.879 -2.96968 -3.16216 0
M  V30 3922 H 355.55 -2.75723 -4.78206 0
M  V30 3923 H 358.026 -0.977029 -4.04467 0
M  V30 3924 H 356.902 -0.85292 -5.42233 0
M  V30 3925 H 357.163 0.542328 -4.38761 0
M  V30 3926 N 356.222 1.38976 -0.743202 0
M  V30 3927 C 357.152 2.33171 -0.123873 0
M  V30 3928 C 358.133 1.54336 0.71516 0
M  V30 3929 O 359.318 1.82696 0.658467 0
M  V30 3930 C 356.448 3.38474 0.777978 0
M  V30 3931 C 355.402 4.27979 0.0424758 0
M  V30 3932 C 354.728 5.2405 1.06189 0
M  V30 3933 C 356.028 5.10155 -1.1198 0
M  V30 3934 H 357.722 2.85213 -0.910709 0
M  V30 3935 H 355.268 1.37133 -0.439388 0
M  V30 3936 H 357.221 4.03328 1.22084 0
M  V30 3937 H 355.945 2.84891 1.59702 0
M  V30 3938 H 354.604 3.64616 -0.380853 0
M  V30 3939 H 354.252 4.66758 1.87472 0
M  V30 3940 H 353.952 5.84785 0.574485 0
M  V30 3941 H 355.476 5.9178 1.50428 0
M  V30 3942 H 356.89 5.68307 -0.75499 0
M  V30 3943 H 355.287 5.80073 -1.53738 0
M  V30 3944 H 356.357 4.44504 -1.93764 0
M  V30 3945 N 357.7 0.491464 1.49741 0
M  V30 3946 C 358.65 -0.311086 2.25868 0
M  V30 3947 C 359.634 -0.943857 1.30308 0
M  V30 3948 O 360.826 -0.853035 1.55088 0
M  V30 3949 C 357.955 -1.38059 3.14316 0
M  V30 3950 C 357.041 -0.754541 4.17334 0
M  V30 3951 N 357.432 0.137216 5.05614 0
M  V30 3952 C 355.73 -1.01621 4.34269 0
M  V30 3953 C 356.431 0.494614 5.79593 0
M  V30 3954 N 355.407 -0.135169 5.43432 0
M  V30 3955 H 359.209 0.37555 2.91491 0
M  V30 3956 H 356.723 0.306917 1.59473 0
M  V30 3957 H 358.72 -1.96891 3.67477 0
M  V30 3958 H 357.38 -2.06901 2.50244 0
M  V30 3959 H 358.391 0.50741 5.15408 0
M  V30 3960 H 355.068 -1.69808 3.81407 0
M  V30 3961 H 356.458 1.2236 6.60665 0
M  V30 3962 N 359.178 -1.55987 0.224894 0
M  V30 3963 C 360.11 -2.17722 -0.716224 0
M  V30 3964 C 361.123 -1.14723 -1.15509 0
M  V30 3965 O 362.312 -1.41688 -1.08567 0
M  V30 3966 C 359.412 -2.74873 -1.98238 0
M  V30 3967 C 358.585 -4.03074 -1.69853 0
M  V30 3968 C 357.644 -4.44757 -2.81208 0
M  V30 3969 O 356.67 -5.11587 -2.49534 0
M  V30 3970 N 357.872 -4.10716 -4.10235 0
M  V30 3971 H 360.637 -2.99109 -0.188123 0
M  V30 3972 H 358.198 -1.6184 0.0440123 0
M  V30 3973 H 360.19 -2.99727 -2.7193 0
M  V30 3974 H 358.76 -1.9777 -2.42086 0
M  V30 3975 H 357.98 -3.86041 -0.797875 0
M  V30 3976 H 359.268 -4.86701 -1.48324 0
M  V30 3977 H 358.666 -3.57019 -4.38809 0
M  V30 3978 H 357.223 -4.40455 -4.80461 0
M  V30 3979 N 360.656 0.0484629 -1.57525 0
M  V30 3980 C 361.933 0.777447 -1.79486 0
M  V30 3981 C 362.313 1.94597 -0.818251 0
M  V30 3982 O 361.661 2.28047 0.143767 0
M  V30 3983 C 361.871 1.22864 -3.26658 0
M  V30 3984 C 363.219 1.65251 -3.91123 0
M  V30 3985 O 364.243 1.32372 -3.3069 0
M  V30 3986 O 363.102 2.26207 -4.97486 0
M  V30 3987 H 360.196 0.374357 -0.737419 0
M  V30 3988 H 362.742 0.0267359 -1.69679 0
M  V30 3989 H 361.514 0.393589 -3.89316 0
M  V30 3990 H 361.137 2.03996 -3.41279 0
M  V30 3991 N 362.134 1.5431 0.320358 0
M  V30 3992 C 363.545 1.63872 0.894594 0
M  V30 3993 C 363.896 0.534847 1.88769 0
M  V30 3994 O 363.021 -0.331732 2.13842 0
M  V30 3995 C 363.616 2.97049 1.62934 0
M  V30 3996 C 362.175 3.08796 2.15226 0
M  V30 3997 C 361.322 2.59456 0.978671 0
M  V30 3998 H 364.273 1.58398 0.0978544 0
M  V30 3999 H 364.294 2.87388 2.49376 0
M  V30 4000 H 363.806 3.7737 0.906302 0
M  V30 4001 H 361.907 2.33156 2.90636 0
M  V30 4002 H 362.02 4.14649 2.40006 0
M  V30 4003 H 360.384 2.1543 1.35875 0
M  V30 4004 H 361.167 3.42237 0.269895 0
M  V30 4005 N 363.613 -0.582584 1.46437 0
M  V30 4006 C 364.563 -1.68654 1.53426 0
M  V30 4007 C 365.547 -1.55971 0.395194 0
M  V30 4008 O 366.739 -1.64884 0.643612 0
M  V30 4009 C 363.868 -3.07439 1.52762 0
M  V30 4010 C 362.954 -3.25418 2.71963 0
M  V30 4011 N 363.345 -3.13556 3.96883 0
M  V30 4012 C 361.643 -3.56357 2.68189 0
M  V30 4013 C 362.344 -3.33543 4.76575 0
M  V30 4014 N 361.32 -3.58704 4.08451 0
M  V30 4015 H 365.122 -1.58014 2.47808 0
M  V30 4016 H 362.636 -0.786617 1.42078 0
M  V30 4017 H 364.633 -3.86671 1.55857 0
M  V30 4018 H 363.293 -3.1921 0.594573 0
M  V30 4019 H 364.304 -2.9142 4.28129 0
M  V30 4020 H 360.981 -3.74812 1.83908 0
M  V30 4021 H 362.371 -3.29555 5.85528 0
M  V30 4022 N 365.091 -1.34144 -0.827227 0
M  V30 4023 C 366.001 -1.27428 -1.96975 0
M  V30 4024 C 367.017 -0.182728 -1.73038 0
M  V30 4025 O 368.193 -0.408426 -1.97215 0
M  V30 4026 C 365.258 -1.02526 -3.31194 0
M  V30 4027 C 364.319 -2.20796 -3.68168 0
M  V30 4028 C 363.552 -1.97073 -4.95982 0
M  V30 4029 O 363.775 -0.926822 -5.6282 0
M  V30 4030 O 362.709 -2.83912 -5.30733 0
M  V30 4031 H 366.535 -2.23537 -2.05584 0
M  V30 4032 H 364.12 -1.14307 -0.961989 0
M  V30 4033 H 366.002 -0.904026 -4.11589 0
M  V30 4034 H 364.677 -0.0945389 -3.23562 0
M  V30 4035 H 363.584 -2.38477 -2.88235 0
M  V30 4036 H 364.917 -3.12243 -3.8048 0
M  V30 4037 N 366.569 1.04691 -1.17803 0
M  V30 4038 C 367.499 2.14494 -0.92275 0
M  V30 4039 C 368.48 1.69546 0.137179 0
M  V30 4040 O 369.665 1.94195 -0.0141108 0
M  V30 4041 C 366.795 3.44491 -0.440803 0
M  V30 4042 C 365.749 4.03031 -1.4405 0
M  V30 4043 C 365.075 5.28432 -0.81631 0
M  V30 4044 C 366.375 4.39932 -2.81527 0
M  V30 4045 H 368.069 2.36107 -1.84103 0
M  V30 4046 H 365.615 1.1347 -0.886599 0
M  V30 4047 H 367.568 4.2066 -0.249602 0
M  V30 4048 H 366.292 3.22546 0.513025 0
M  V30 4049 H 364.951 3.28937 -1.61853 0
M  V30 4050 H 364.599 5.02792 0.144511 0
M  V30 4051 H 364.299 5.68559 -1.48371 0
M  V30 4052 H 365.823 6.07284 -0.635496 0
M  V30 4053 H 367.237 5.07113 -2.67412 0
M  V30 4054 H 365.634 4.9109 -3.44892 0
M  V30 4055 H 366.704 3.50045 -3.35554 0
M  V30 4056 N 368.047 0.979072 1.23499 0
M  V30 4057 C 368.979 0.476271 2.24197 0
M  V30 4058 C 369.992 -0.421166 1.57258 0
M  V30 4059 O 371.181 -0.225515 1.7707 0
M  V30 4060 C 368.281 -0.330503 3.37285 0
M  V30 4061 C 367.454 0.559744 4.33804 0
M  V30 4062 C 366.513 -0.192954 5.25846 0
M  V30 4063 O 365.539 0.416978 5.67671 0
M  V30 4064 N 366.741 -1.47932 5.61334 0
M  V30 4065 H 369.506 1.34211 2.67969 0
M  V30 4066 H 367.067 0.852189 1.37657 0
M  V30 4067 H 369.059 -0.842361 3.95836 0
M  V30 4068 H 367.629 -1.09734 2.92707 0
M  V30 4069 H 366.849 1.25245 3.73775 0
M  V30 4070 H 368.137 1.1665 4.95248 0
M  V30 4071 H 367.535 -1.9964 5.29302 0
M  V30 4072 H 366.092 -1.93664 6.22364 0
M  V30 4073 N 369.525 -1.3858 0.750561 0
M  V30 4074 C 370.455 -2.33102 0.136237 0
M  V30 4075 C 371.436 -1.54713 -0.706965 0
M  V30 4076 O 372.621 -1.83043 -0.648769 0
M  V30 4077 C 369.751 -3.38882 -0.760017 0
M  V30 4078 C 368.705 -4.27995 -0.0197785 0
M  V30 4079 C 368.031 -5.24605 -1.03408 0
M  V30 4080 C 369.331 -5.09554 1.14684 0
M  V30 4081 H 371.025 -2.84726 0.925822 0
M  V30 4082 H 368.571 -1.36898 0.446654 0
M  V30 4083 H 370.524 -4.0397 -1.19943 0
M  V30 4084 H 369.248 -2.85734 -1.58189 0
M  V30 4085 H 367.907 -3.64409 0.400184 0
M  V30 4086 H 367.555 -4.67746 -1.84994 0
M  V30 4087 H 367.255 -5.85081 -0.543464 0
M  V30 4088 H 368.779 -5.9257 -1.47288 0
M  V30 4089 H 370.193 -5.67899 0.785118 0
M  V30 4090 H 368.59 -5.7925 1.56812 0
M  V30 4091 H 369.66 -4.4347 1.96118 0
M  V30 4092 N 371.003 -0.499398 -1.49478 0
M  V30 4093 C 371.951 0.293604 -2.3074 0
M  V30 4094 C 372.945 0.96427 -1.39277 0
M  V30 4095 O 374.151 0.892141 -1.56336 0
M  V30 4096 H 370.526 0.113541 -0.743379 0
M  V30 4097 H 372.497 -0.411772 -2.95545 0
M  V30 4098 C 371.246 1.3462 -3.20582 0
M  V30 4099 H 370.569 0.83954 -3.90886 0
M  V30 4100 H 372.009 1.87308 -3.80384 0
M  V30 4101 C 370.468 2.36351 -2.40083 0
M  V30 4102 O 370.998 3.422 -2.10385 0
M  V30 4103 N 369.204 2.0878 -2.02137 0
M  V30 4104 H 368.751 1.22723 -2.26488 0
M  V30 4105 H 368.709 2.77075 -1.48583 0
M  V30 4106 N 372.481 1.55866 -0.233164 0
M  V30 4107 C 373.413 2.18099 0.704668 0
M  V30 4108 C 374.426 1.15334 1.14899 0
M  V30 4109 O 375.615 1.42262 1.07814 0
M  V30 4110 C 372.715 2.7592 1.96777 0
M  V30 4111 C 371.888 4.03969 1.67713 0
M  V30 4112 C 370.947 4.46242 2.78845 0
M  V30 4113 O 369.973 5.12903 2.46818 0
M  V30 4114 N 371.175 4.12886 4.08051 0
M  V30 4115 H 373.94 2.99205 0.172258 0
M  V30 4116 H 371.501 1.61815 -0.0525945 0
M  V30 4117 H 373.493 3.01165 2.70337 0
M  V30 4118 H 372.063 1.99051 2.41034 0
M  V30 4119 H 371.283 3.86459 0.777391 0
M  V30 4120 H 372.571 4.8748 1.4574 0
M  V30 4121 H 371.969 3.59342 4.3691 0
M  V30 4122 H 370.526 4.42997 4.78118 0
M  V30 4123 N 373.959 -0.0401083 1.57549 0
M  V30 4124 C 375.184 -0.748931 1.93406 0
M  V30 4125 C 375.609 -1.68686 0.832274 0
M  V30 4126 O 374.967 -1.80047 -0.212818 0
M  V30 4127 C 375.015 -1.4916 3.28304 0
M  V30 4128 O 374.119 -2.6042 3.19774 0
M  V30 4129 H 373.46 -0.202212 0.63246 0
M  V30 4130 H 375.99 0.00112086 2.046 0
M  V30 4131 H 376 -1.86395 3.62934 0
M  V30 4132 H 374.675 -0.80364 4.08062 0
M  V30 4133 H 373.252 -2.25808 2.96758 0
M  V30 4134 N 375.437 -1.54477 -0.31217 0
M  V30 4135 C 376.384 -1.84655 -1.38461 0
M  V30 4136 C 377.354 -0.694536 -1.50882 0
M  V30 4137 O 378.539 -0.942081 -1.6592 0
M  V30 4138 C 375.679 -2.0896 -2.74645 0
M  V30 4139 C 374.792 -3.36618 -2.70763 0
M  V30 4140 C 373.927 -3.50824 -3.98868 0
M  V30 4141 C 372.966 -4.72315 -3.89339 0
M  V30 4142 N 372.103 -4.83387 -5.09197 0
M  V30 4143 H 376.943 -2.76142 -1.12026 0
M  V30 4144 H 374.48 -1.36748 -0.542065 0
M  V30 4145 H 376.438 -2.21045 -3.53829 0
M  V30 4146 H 375.068 -1.20752 -2.99364 0
M  V30 4147 H 374.12 -3.33211 -1.83506 0
M  V30 4148 H 375.432 -4.25917 -2.59608 0
M  V30 4149 H 374.586 -3.62513 -4.86486 0
M  V30 4150 H 373.325 -2.59638 -4.12843 0
M  V30 4151 H 372.33 -4.6067 -3.00105 0
M  V30 4152 H 373.555 -5.64897 -3.76919 0
M  V30 4153 H 371.501 -3.9512 -5.23657 0
M  V30 4154 H 371.418 -5.66669 -5.00422 0
M  V30 4155 H 372.686 -4.9942 -5.98498 0
M  V30 4156 N 376.915 0.57481 -1.46744 0
M  V30 4157 C 377.863 1.70435 -1.58286 0
M  V30 4158 C 378.857 1.63287 -0.450956 0
M  V30 4159 O 380.063 1.68685 -0.628121 0
M  V30 4160 H 376.438 0.56364 -0.497809 0
M  V30 4161 H 378.409 1.57833 -2.53242 0
M  V30 4162 C 377.158 3.08815 -1.59776 0
M  V30 4163 H 376.481 3.1499 -2.46214 0
M  V30 4164 H 377.921 3.87588 -1.71905 0
M  V30 4165 C 376.38 3.35301 -0.327812 0
M  V30 4166 O 376.91 3.97511 0.57861 0
M  V30 4167 N 375.116 2.89816 -0.213274 0
M  V30 4168 H 374.663 2.39371 -0.951798 0
M  V30 4169 H 374.621 3.0791 0.63553 0
M  V30 4170 N 378.394 1.34581 0.820102 0
M  V30 4171 C 379.342 1.26401 1.95258 0
M  V30 4172 C 380.336 0.161553 1.68628 0
M  V30 4173 O 381.542 0.326703 1.7701 0
M  V30 4174 H 377.917 0.392749 0.64129 0
M  V30 4175 H 379.888 2.22105 1.99279 0
M  V30 4176 C 378.637 1.03919 3.31807 0
M  V30 4177 H 377.96 1.87984 3.52848 0
M  V30 4178 H 379.4 1.02232 4.11491 0
M  V30 4179 C 377.859 -0.257433 3.35915 0
M  V30 4180 O 378.389 -1.25784 3.81499 0
M  V30 4181 N 376.595 -0.291524 2.89134 0
M  V30 4182 H 376.142 0.523161 2.52232 0
M  V30 4183 H 376.1 -1.15883 2.92264 0
M  V30 4184 N 379.872 -1.04064 1.18357 0
M  V30 4185 C 381.121 -1.76662 0.973313 0
M  V30 4186 C 381.434 -1.89154 -0.497991 0
M  V30 4187 O 382.64 -2.58606 -0.826762 0
M  V30 4188 C 381.096 -3.17624 1.69242 0
M  V30 4189 C 380.704 -3.13225 3.20303 0
M  V30 4190 C 382.448 -3.946 1.56497 0
M  V30 4191 C 380.355 -4.49046 3.84853 0
M  V30 4192 H 379.285 -0.662214 0.36054 0
M  V30 4193 H 381.936 -1.16553 1.41731 0
M  V30 4194 H 380.318 -3.78129 1.1762 0
M  V30 4195 H 381.492 -2.62172 3.78949 0
M  V30 4196 H 379.807 -2.49749 3.33189 0
M  V30 4197 H 382.404 -4.95042 2.02084 0
M  V30 4198 H 382.747 -4.13074 0.517243 0
M  V30 4199 H 383.28 -3.4067 2.05399 0
M  V30 4200 H 380.019 -4.35777 4.89672 0
M  V30 4201 H 379.539 -5.00203 3.30994 0
M  V30 4202 H 381.218 -5.17961 3.87718 0
M  V30 4203 N 381.35 -0.985608 -1.22978 0
M  V30 4204 C 382.761 -0.693593 -1.73338 0
M  V30 4205 C 383.112 0.789935 -1.79595 0
M  V30 4206 O 382.237 1.61771 -1.43733 0
M  V30 4207 C 382.832 -1.25235 -3.14804 0
M  V30 4208 C 381.391 -1.00987 -3.626 0
M  V30 4209 C 380.538 -1.37695 -2.40698 0
M  V30 4210 H 383.489 -1.15884 -1.08428 0
M  V30 4211 H 383.51 -0.627329 -3.75293 0
M  V30 4212 H 383.022 -2.33209 -3.10218 0
M  V30 4213 H 381.123 0.0535565 -3.72562 0
M  V30 4214 H 381.236 -1.66812 -4.49122 0
M  V30 4215 H 379.6 -0.795459 -2.4196 0
M  V30 4216 H 380.383 -2.46657 -2.38779 0
M  V30 4217 N 382.828 1.3818 -0.7579 0
M  V30 4218 C 384.244 1.5353 -0.435972 0
M  V30 4219 C 384.444 1.71961 1.05032 0
M  V30 4220 O 383.5 1.73307 1.83633 0
M  V30 4221 C 384.813 2.73989 -1.23898 0
M  V30 4222 C 386.361 2.87841 -1.22949 0
M  V30 4223 C 386.836 4.11266 -2.01554 0
M  V30 4224 N 388.327 4.18352 -1.98837 0
M  V30 4225 C 389.062 5.12856 -2.5645 0
M  V30 4226 N 388.558 6.13005 -3.22794 0
M  V30 4227 N 390.351 5.05238 -2.46356 0
M  V30 4228 H 382.502 1.24467 -1.7211 0
M  V30 4229 H 384.765 0.604982 -0.729864 0
M  V30 4230 H 384.471 2.66789 -2.29165 0
M  V30 4231 H 384.345 3.67294 -0.858764 0
M  V30 4232 H 386.732 2.9452 -0.184854 0
M  V30 4233 H 386.813 1.95534 -1.64924 0
M  V30 4234 H 386.457 4.05349 -3.06031 0
M  V30 4235 H 386.387 5.02661 -1.5697 0
M  V30 4236 H 388.878 3.46628 -1.50524 0
M  V30 4237 H 389.191 6.81619 -3.64165 0
M  V30 4238 H 387.536 6.13325 -3.2689 0
M  V30 4239 H 390.727 4.25938 -1.9415 0
M  V30 4240 H 390.9 5.78707 -2.91552 0
M  V30 4241 N 384.306 0.507319 1.49211 0
M  V30 4242 C 385.269 -0.256763 2.27757 0
M  V30 4243 C 386.269 -0.888287 1.34038 0
M  V30 4244 O 387.459 -0.751841 1.5714 0
M  V30 4245 C 384.591 -1.36905 3.12202 0
M  V30 4246 H 385.784 0.432557 2.96764 0
M  V30 4247 H 383.337 0.262488 1.5408 0
M  V30 4248 H 384.072 -2.09233 2.47775 0
M  V30 4249 H 383.857 -0.921599 3.81115 0
M  V30 4250 H 385.347 -1.9071 3.7151 0
M  V30 4251 N 385.784 -1.5574 0.241426 0
M  V30 4252 C 387.2 -1.59196 -0.113548 0
M  V30 4253 C 387.4 -1.25852 -1.57364 0
M  V30 4254 O 386.456 -1.00322 -2.31715 0
M  V30 4255 C 387.769 -2.99814 0.230695 0
M  V30 4256 C 389.317 -3.12513 0.174547 0
M  V30 4257 C 389.792 -4.55342 0.492744 0
M  V30 4258 N 391.283 -4.61076 0.443043 0
M  V30 4259 C 392.018 -5.6956 0.662484 0
M  V30 4260 N 391.514 -6.86328 0.944761 0
M  V30 4261 N 393.307 -5.58957 0.593564 0
M  V30 4262 H 385.458 -1.75685 1.19368 0
M  V30 4263 H 387.721 -0.81756 0.479896 0
M  V30 4264 H 387.427 -3.28932 1.24485 0
M  V30 4265 H 387.301 -3.74568 -0.444833 0
M  V30 4266 H 389.688 -2.83179 -0.830277 0
M  V30 4267 H 389.769 -2.40045 0.883845 0
M  V30 4268 H 389.413 -4.85396 1.4951 0
M  V30 4269 H 389.343 -5.26062 -0.23797 0
M  V30 4270 H 391.834 -3.77179 0.233374 0
M  V30 4271 H 392.147 -7.64935 1.09977 0
M  V30 4272 H 390.492 -6.88025 0.982175 0
M  V30 4273 H 393.683 -4.66611 0.373123 0
M  V30 4274 H 393.856 -6.43433 0.767981 0
M  V30 4275 N 387.262 0.0317525 -1.57568 0
M  V30 4276 C 388.192 1.03274 -2.0942 0
M  V30 4277 C 389.173 1.3788 -0.996143 0
M  V30 4278 O 390.358 1.46811 -1.27122 0
M  V30 4279 C 387.488 2.33448 -2.57137 0
M  V30 4280 C 386.442 2.13091 -3.71182 0
M  V30 4281 C 385.768 3.49001 -4.05095 0
M  V30 4282 C 387.068 1.51928 -4.99715 0
M  V30 4283 H 388.762 0.60112 -2.93303 0
M  V30 4284 H 386.308 0.287705 -1.41097 0
M  V30 4285 H 388.261 3.03802 -2.92032 0
M  V30 4286 H 386.985 2.78665 -1.70333 0
M  V30 4287 H 385.644 1.45171 -3.36632 0
M  V30 4288 H 385.292 3.91862 -3.15362 0
M  V30 4289 H 384.992 3.36207 -4.81911 0
M  V30 4290 H 386.516 4.20721 -4.42522 0
M  V30 4291 H 387.93 2.12196 -5.32584 0
M  V30 4292 H 386.327 1.49716 -5.81124 0
M  V30 4293 H 387.397 0.484811 -4.8247 0
M  V30 4294 N 388.74 1.54641 0.303973 0
M  V30 4295 C 389.687 1.85386 1.37479 0
M  V30 4296 C 390.657 0.702528 1.50512 0
M  V30 4297 O 391.842 0.950867 1.65418 0
M  V30 4298 C 388.982 2.10413 2.73533 0
M  V30 4299 C 388.095 3.38049 2.68974 0
M  V30 4300 C 387.23 3.52934 3.97002 0
M  V30 4301 C 386.269 4.74373 3.86829 0
M  V30 4302 N 385.406 4.8608 5.06627 0
M  V30 4303 H 390.246 2.76732 1.1056 0
M  V30 4304 H 387.783 1.37034 0.534805 0
M  V30 4305 H 389.741 2.22919 3.52652 0
M  V30 4306 H 388.371 1.22338 2.98719 0
M  V30 4307 H 387.423 3.3418 1.81736 0
M  V30 4308 H 388.735 4.27288 2.57346 0
M  V30 4309 H 387.889 3.65088 4.84557 0
M  V30 4310 H 386.628 2.61824 4.1146 0
M  V30 4311 H 385.633 4.62255 2.97658 0
M  V30 4312 H 386.858 5.66888 3.73918 0
M  V30 4313 H 384.804 3.97891 5.21554 0
M  V30 4314 H 384.721 5.69315 4.9741 0
M  V30 4315 H 385.989 5.02587 5.95841 0
M  V30 4316 N 390.218 -0.567019 1.47046 0
M  V30 4317 C 391.446 -1.35027 1.56765 0
M  V30 4318 C 391.861 -1.8758 0.214316 0
M  V30 4319 O 391.218 -1.64471 -0.790919 0
M  V30 4320 C 391.269 -2.52698 2.58507 0
M  V30 4321 O 390.99 -2.0232 3.88585 0
M  V30 4322 C 392.491 -3.45043 2.78316 0
M  V30 4323 H 389.711 -0.41195 0.529658 0
M  V30 4324 H 392.255 -0.687832 1.92585 0
M  V30 4325 H 390.41 -3.149 2.25648 0
M  V30 4326 H 390.824 -2.79068 4.44096 0
M  V30 4327 H 392.298 -4.2405 3.53391 0
M  V30 4328 H 392.775 -3.97971 1.85784 0
M  V30 4329 H 393.381 -2.88665 3.12334 0
M  V30 4330 N 391.696 -1.35014 -0.812953 0
M  V30 4331 C 392.626 -1.30069 -1.93919 0
M  V30 4332 C 393.607 -0.176275 -1.69184 0
M  V30 4333 O 394.792 -0.370227 -1.90638 0
M  V30 4334 C 391.922 -1.06547 -3.30552 0
M  V30 4335 C 390.876 -2.15561 -3.69753 0
M  V30 4336 C 390.202 -1.77214 -5.04479 0
M  V30 4337 C 391.502 -3.57476 -3.808 0
M  V30 4338 H 393.196 -2.24303 -1.98314 0
M  V30 4339 H 390.742 -1.07977 -0.952736 0
M  V30 4340 H 392.695 -1.01729 -4.08937 0
M  V30 4341 H 391.419 -0.0875719 -3.26483 0
M  V30 4342 H 390.078 -2.19466 -2.9365 0
M  V30 4343 H 389.726 -0.780589 -4.96906 0
M  V30 4344 H 389.426 -2.50184 -5.31678 0
M  V30 4345 H 390.95 -1.7391 -5.8531 0
M  V30 4346 H 392.364 -3.55929 -4.4943 0
M  V30 4347 H 390.761 -4.29152 -4.19462 0
M  V30 4348 H 391.831 -3.94091 -2.82525 0
M  V30 4349 N 393.175 1.03435 -1.18907 0
M  V30 4350 C 394.122 2.11591 -0.921837 0
M  V30 4351 C 395.092 1.65499 0.141226 0
M  V30 4352 O 396.277 1.908 0.000242829 0
M  V30 4353 C 393.417 3.42012 -0.460616 0
M  V30 4354 C 392.53 4.01682 -1.58982 0
M  V30 4355 C 391.665 5.20091 -1.08069 0
M  V30 4356 C 390.704 5.71805 -2.18416 0
M  V30 4357 N 389.841 6.81494 -1.68849 0
M  V30 4358 H 394.681 2.33787 -1.8479 0
M  V30 4359 H 392.218 1.1467 -0.921373 0
M  V30 4360 H 394.176 4.16834 -0.174642 0
M  V30 4361 H 392.806 3.19944 0.428467 0
M  V30 4362 H 391.858 3.24127 -1.99113 0
M  V30 4363 H 393.17 4.36084 -2.4214 0
M  V30 4364 H 392.324 6.02051 -0.749615 0
M  V30 4365 H 391.063 4.87209 -0.218771 0
M  V30 4366 H 390.068 4.88461 -2.5236 0
M  V30 4367 H 391.293 6.06728 -3.05054 0
M  V30 4368 H 389.239 6.50475 -0.849572 0
M  V30 4369 H 389.156 7.14994 -2.45601 0
M  V30 4370 H 390.424 7.67063 -1.38689 0
M  V30 4371 N 394.653 0.992116 1.22453 0
M  V30 4372 C 395.586 0.486701 2.22949 0
M  V30 4373 C 396.564 -0.45259 1.56174 0
M  V30 4374 O 397.748 -0.378317 1.84665 0
M  V30 4375 C 394.875 -0.294537 3.37417 0
M  V30 4376 C 393.921 0.590628 4.22391 0
M  V30 4377 S 394.754 2.04546 4.94895 0
M  V30 4378 C 395.91 1.27369 6.12803 0
M  V30 4379 H 396.143 1.33828 2.65475 0
M  V30 4380 H 393.676 0.799023 1.32117 0
M  V30 4381 H 395.634 -0.739241 4.03789 0
M  V30 4382 H 394.295 -1.12139 2.934 0
M  V30 4383 H 393.488 -0.0104375 5.03999 0
M  V30 4384 H 393.09 0.972064 3.61147 0
M  V30 4385 H 395.382 0.540943 6.75337 0
M  V30 4386 H 396.325 2.06502 6.7732 0
M  V30 4387 H 396.733 0.787324 5.58983 0
M  V30 4388 N 396.131 -1.37776 0.765217 0
M  V30 4389 C 397.359 -2.04124 0.337767 0
M  V30 4390 C 397.774 -1.57715 -1.03785 0
M  V30 4391 O 397.131 -0.755447 -1.6613 0
M  V30 4392 C 397.182 -3.59658 0.364442 0
M  V30 4393 O 396.903 -4.04367 1.68579 0
M  V30 4394 C 398.404 -4.43236 -0.0754221 0
M  V30 4395 H 395.624 -0.655696 0.142491 0
M  V30 4396 H 398.168 -1.76238 1.03732 0
M  V30 4397 H 396.323 -3.86339 -0.286471 0
M  V30 4398 H 396.737 -4.98857 1.61993 0
M  V30 4399 H 398.211 -5.52 -0.00560067 0
M  V30 4400 H 398.688 -4.2455 -1.12491 0
M  V30 4401 H 399.294 -4.21767 0.547055 0
M  V30 4402 N 397.609 -0.515225 -1.4894 0
M  V30 4403 C 398.855 0.0242508 -2.02785 0
M  V30 4404 C 399.188 1.35323 -1.39289 0
M  V30 4405 O 398.463 1.87041 -0.533469 0
M  V30 4406 C 398.746 0.16184 -3.59736 0
M  V30 4407 C 398.599 -1.19127 -4.33738 0
M  V30 4408 C 399.918 0.895719 -4.30888 0
M  V30 4409 H 397.037 0.00733914 -0.736963 0
M  V30 4410 H 399.679 -0.669395 -1.77818 0
M  V30 4411 H 397.829 0.752624 -3.8114 0
M  V30 4412 H 399.501 -1.82202 -4.23792 0
M  V30 4413 H 397.744 -1.77695 -3.95736 0
M  V30 4414 H 398.415 -1.04815 -5.41957 0
M  V30 4415 H 400.891 0.394528 -4.14225 0
M  V30 4416 H 399.767 0.960859 -5.40425 0
M  V30 4417 H 400.028 1.9427 -3.97129 0
M  V30 4418 N 399.087 1.5561 -0.249682 0
M  V30 4419 C 400.05 2.20217 0.635394 0
M  V30 4420 C 401.05 1.17227 1.10066 0
M  V30 4421 O 402.24 1.42292 1.00492 0
M  V30 4422 C 399.372 2.84794 1.87363 0
M  V30 4423 H 400.565 2.99814 0.0716752 0
M  V30 4424 H 398.118 1.563 -0.000153234 0
M  V30 4425 H 398.853 2.09142 2.47851 0
M  V30 4426 H 398.638 3.60241 1.5482 0
M  V30 4427 H 400.128 3.3423 2.5036 0
M  V30 4428 N 400.565 -0.0233959 1.57583 0
M  V30 4429 C 401.812 -0.713063 1.8953 0
M  V30 4430 C 402.14 -1.75056 0.847673 0
M  V30 4431 O 401.395 -1.95119 -0.150636 0
M  V30 4432 C 401.694 -1.41428 3.28227 0
M  V30 4433 C 401.36 -0.512222 4.47981 0
M  V30 4434 C 400.022 -0.263785 4.80476 0
M  V30 4435 C 402.374 0.110248 5.21083 0
M  V30 4436 C 399.702 0.615804 5.83459 0
M  V30 4437 C 402.054 0.977573 6.25001 0
M  V30 4438 C 400.718 1.23542 6.55968 0
M  V30 4439 H 399.988 -0.260928 0.69354 0
M  V30 4440 H 402.635 0.0271047 1.91481 0
M  V30 4441 H 400.94 -2.22791 3.22291 0
M  V30 4442 H 402.637 -1.95355 3.50196 0
M  V30 4443 H 399.227 -0.716013 4.22577 0
M  V30 4444 H 403.411 -0.0687137 4.96252 0
M  V30 4445 H 398.667 0.82382 6.05824 0
M  V30 4446 H 402.841 1.46638 6.80786 0
M  V30 4447 H 400.468 1.91871 7.35588 0
M  V30 4448 N 402.043 -1.548 -0.295768 0
M  V30 4449 C 403.006 -1.85363 -1.34808 0
M  V30 4450 C 404.006 -0.726817 -1.43436 0
M  V30 4451 O 405.196 -0.995088 -1.42981 0
M  V30 4452 C 402.328 -2.03859 -2.73229 0
M  V30 4453 H 403.521 -2.7941 -1.08949 0
M  V30 4454 H 401.074 -1.46942 -0.532702 0
M  V30 4455 H 401.809 -1.12117 -3.04303 0
M  V30 4456 H 401.594 -2.8588 -2.68356 0
M  V30 4457 H 403.084 -2.28857 -3.49305 0
M  V30 4458 N 403.521 0.559213 -1.47345 0
M  V30 4459 C 404.749 1.34194 -1.57479 0
M  V30 4460 C 405.164 1.87463 -0.224261 0
M  V30 4461 O 404.521 1.64888 0.782185 0
M  V30 4462 C 404.572 2.51324 -2.59843 0
M  V30 4463 O 404.293 2.00256 -3.89653 0
M  V30 4464 C 405.794 3.43563 -2.80142 0
M  V30 4465 H 403.014 0.409136 -0.531835 0
M  V30 4466 H 405.558 0.677609 -1.92947 0
M  V30 4467 H 403.713 3.13699 -2.27314 0
M  V30 4468 H 404.127 2.76708 -4.4557 0
M  V30 4469 H 405.601 4.2217 -3.55635 0
M  V30 4470 H 406.078 3.9698 -1.87892 0
M  V30 4471 H 406.684 2.87005 -3.1386 0
M  V30 4472 N 404.999 1.35443 0.805782 0
M  V30 4473 C 406.224 1.32037 1.59941 0
M  V30 4474 C 406.649 -0.0994215 1.87837 0
M  V30 4475 O 406.007 -1.06648 1.46615 0
M  V30 4476 C 406.055 2.13354 2.90711 0
M  V30 4477 O 405.159 1.5148 3.83572 0
M  V30 4478 H 404.5 0.452666 0.485787 0
M  V30 4479 H 407.03 1.78496 1.00002 0
M  V30 4480 H 407.04 2.25338 3.40128 0
M  V30 4481 H 405.715 3.16572 2.69732 0
M  V30 4482 H 404.292 1.4834 3.42125 0
M  V30 4483 N 406.477 -1.02803 1.19454 0
M  V30 4484 C 407.724 -1.76217 0.997693 0
M  V30 4485 C 408.052 -1.887 -0.47144 0
M  V30 4486 O 407.307 -1.4011 -1.3663 0
M  V30 4487 C 407.606 -3.18941 1.6128 0
M  V30 4488 C 407.272 -3.26463 3.11019 0
M  V30 4489 C 405.934 -3.28223 3.51885 0
M  V30 4490 C 408.286 -3.25542 4.07028 0
M  V30 4491 C 405.614 -3.26719 4.8731 0
M  V30 4492 C 407.966 -3.25579 5.42385 0
M  V30 4493 C 406.63 -3.25637 5.82681 0
M  V30 4494 H 405.9 -0.644823 0.365082 0
M  V30 4495 H 408.547 -1.20655 1.4871 0
M  V30 4496 H 406.852 -3.77587 1.04572 0
M  V30 4497 H 408.549 -3.74415 1.43577 0
M  V30 4498 H 405.139 -3.25822 2.78457 0
M  V30 4499 H 409.323 -3.23362 3.76498 0
M  V30 4500 H 404.579 -3.25089 5.1781 0
M  V30 4501 H 408.753 -3.23817 6.16535 0
M  V30 4502 H 406.38 -3.24226 6.87591 0
M  V30 4503 N 407.956 -0.998596 -1.21925 0
M  V30 4504 C 409.184 -0.696286 -1.94832 0
M  V30 4505 C 409.599 0.740032 -1.73692 0
M  V30 4506 O 408.956 1.5 -1.03953 0
M  V30 4507 C 409.007 -0.999833 -3.47398 0
M  V30 4508 O 408.728 -2.37972 -3.67833 0
M  V30 4509 C 410.229 -0.716025 -4.37479 0
M  V30 4510 H 407.449 -0.257111 -0.619786 0
M  V30 4511 H 409.993 -1.33491 -1.54921 0
M  V30 4512 H 408.148 -0.406918 -3.85257 0
M  V30 4513 H 408.562 -2.48338 -4.61983 0
M  V30 4514 H 410.036 -0.978642 -5.43256 0
M  V30 4515 H 410.513 0.349968 -4.37803 0
M  V30 4516 H 411.119 -1.29025 -4.05256 0
M  V30 4517 N 409.434 1.37368 -0.772513 0
M  V30 4518 C 410.68 1.99969 -0.337681 0
M  V30 4519 C 411.013 1.61184 1.08321 0
M  V30 4520 O 410.288 0.858395 1.74533 0
M  V30 4521 C 410.571 3.56858 -0.482121 0
M  V30 4522 C 410.424 4.0555 -1.94549 0
M  V30 4523 C 411.743 4.39955 0.113143 0
M  V30 4524 H 408.862 0.726464 -0.124171 0
M  V30 4525 H 411.504 1.63034 -0.975699 0
M  V30 4526 H 409.654 3.88452 0.0610361 0
M  V30 4527 H 411.326 3.84518 -2.54841 0
M  V30 4528 H 409.569 3.57715 -2.45403 0
M  V30 4529 H 410.24 5.14587 -1.9976 0
M  V30 4530 H 412.716 4.14623 -0.35031 0
M  V30 4531 H 411.592 5.48897 -0.0180514 0
M  V30 4532 H 411.853 4.25403 1.20354 0
M  V30 4533 N 410.912 0.523116 1.48665 0
M  V30 4534 C 412.152 -0.0115588 2.04397 0
M  V30 4535 C 412.516 -1.32225 1.39214 0
M  V30 4536 O 413.717 -1.94253 1.85793 0
M  V30 4537 C 411.988 -0.138119 3.57133 0
M  V30 4538 S 413.547 -0.623849 4.34343 0
M  V30 4539 H 410.365 0.00877706 0.710946 0
M  V30 4540 H 412.967 0.702116 1.82457 0
M  V30 4541 H 411.671 0.820748 4.02109 0
M  V30 4542 H 411.202 -0.876377 3.83514 0
M  V30 4543 H 413.217 -1.8895 4.58816 0
M  V30 4544 N 412.39 -1.55475 0.257931 0
M  V30 4545 C 413.636 -2.00237 -0.357338 0
M  V30 4546 C 413.991 -1.14313 -1.54759 0
M  V30 4547 O 413.284 -0.201187 -1.90541 0
M  V30 4548 C 413.478 -3.48183 -0.806433 0
M  V30 4549 C 413.307 -4.48422 0.338758 0
M  V30 4550 C 412.077 -4.98651 0.817011 0
M  V30 4551 C 414.275 -5.00827 1.16949 0
M  V30 4552 N 412.257 -5.82658 1.93346 0
M  V30 4553 C 413.628 -5.82113 2.13413 0
M  V30 4554 C 415.683 -4.83104 1.2048 0
M  V30 4555 C 414.386 -6.47566 3.13131 0
M  V30 4556 C 416.412 -5.49343 2.19034 0
M  V30 4557 C 415.774 -6.30427 3.14232 0
M  V30 4558 H 411.873 -0.776034 -0.0964083 0
M  V30 4559 H 414.457 -1.90995 0.37803 0
M  V30 4560 H 412.628 -3.57801 -1.51107 0
M  V30 4561 H 414.36 -3.79802 -1.39758 0
M  V30 4562 H 411.115 -4.71914 0.39925 0
M  V30 4563 H 411.539 -6.29356 2.49478 0
M  V30 4564 H 416.181 -4.20036 0.482634 0
M  V30 4565 H 413.899 -7.09793 3.8629 0
M  V30 4566 H 417.485 -5.37579 2.22485 0
M  V30 4567 H 416.365 -6.80777 3.89246 0
M  V30 4568 N 413.868 0.0150385 -1.57593 0
M  V30 4569 C 415.096 0.714395 -1.94175 0
M  V30 4570 C 415.511 1.68135 -0.858841 0
M  V30 4571 O 414.868 1.81766 0.163567 0
M  V30 4572 C 414.919 1.45933 -3.30735 0
M  V30 4573 O 414.64 0.531167 -4.34868 0
M  V30 4574 C 416.141 2.25456 -3.81686 0
M  V30 4575 H 413.361 0.199923 -0.640525 0
M  V30 4576 H 415.905 -0.0316096 -2.04476 0
M  V30 4577 H 414.06 2.15709 -3.21789 0
M  V30 4578 H 414.474 1.05509 -5.13778 0
M  V30 4579 H 415.948 2.731 -4.79709 0
M  V30 4580 H 416.425 3.07485 -3.13607 0
M  V30 4581 H 417.031 1.60727 -3.9376 0
M  V30 4582 N 415.346 1.54954 0.287554 0
M  V30 4583 C 416.757 1.65732 0.859634 0
M  V30 4584 C 417.108 0.574767 1.87592 0
M  V30 4585 O 416.233 -0.286299 2.14498 0
M  V30 4586 C 416.828 3.00438 1.56597 0
M  V30 4587 C 415.387 3.13292 2.08627 0
M  V30 4588 C 414.534 2.61473 0.923416 0
M  V30 4589 H 417.485 1.5857 0.0642338 0
M  V30 4590 H 417.506 2.92613 2.43224 0
M  V30 4591 H 417.018 3.79207 0.826053 0
M  V30 4592 H 415.119 2.39268 2.85625 0
M  V30 4593 H 415.232 4.19647 2.31157 0
M  V30 4594 H 413.596 2.18264 1.31275 0
M  V30 4595 H 414.379 3.42733 0.197241 0
M  V30 4596 N 416.824 -0.551391 1.4764 0
M  V30 4597 C 418.054 -1.33163 1.57959 0
M  V30 4598 C 418.462 -1.87785 0.23094 0
M  V30 4599 O 417.805 -1.65996 -0.786825 0
M  V30 4600 C 417.867 -2.53449 2.54958 0
M  V30 4601 C 417.531 -2.20071 4.00522 0
M  V30 4602 C 418.528 -1.77017 4.88836 0
M  V30 4603 C 416.213 -2.31252 4.45901 0
M  V30 4604 C 418.207 -1.4558 6.20552 0
M  V30 4605 C 415.894 -1.99427 5.77644 0
M  V30 4606 C 416.892 -1.56659 6.64791 0
M  V30 4607 O 416.58 -1.25242 7.94084 0
M  V30 4608 H 416.312 -0.412022 0.535923 0
M  V30 4609 H 418.866 -0.674186 1.9402 0
M  V30 4610 H 417.096 -3.22104 2.13976 0
M  V30 4611 H 418.785 -3.15523 2.55343 0
M  V30 4612 H 419.551 -1.67867 4.55023 0
M  V30 4613 H 415.43 -2.63498 3.78272 0
M  V30 4614 H 418.974 -1.12125 6.8853 0
M  V30 4615 H 414.871 -2.08211 6.10998 0
M  V30 4616 H 415.639 -1.38822 8.06642 0
M  V30 4617 N 418.302 -1.35869 -0.798587 0
M  V30 4618 C 419.532 -1.32529 -1.58491 0
M  V30 4619 C 419.94 0.0975405 -1.88948 0
M  V30 4620 O 419.283 1.06224 -1.49874 0
M  V30 4621 C 419.345 -2.07247 -2.9375 0
M  V30 4622 C 419.009 -3.56391 -2.86068 0
M  V30 4623 C 420.006 -4.50824 -2.58947 0
M  V30 4624 C 417.691 -3.9915 -3.04933 0
M  V30 4625 C 419.685 -5.85993 -2.5078 0
M  V30 4626 C 417.372 -5.34413 -2.96389 0
M  V30 4627 C 418.37 -6.27646 -2.69349 0
M  V30 4628 O 418.058 -7.60426 -2.60782 0
M  V30 4629 H 417.79 -0.456529 -0.498556 0
M  V30 4630 H 420.344 -1.79425 -0.999799 0
M  V30 4631 H 418.574 -1.55001 -3.54276 0
M  V30 4632 H 420.263 -1.96883 -3.54954 0
M  V30 4633 H 421.029 -4.19104 -2.44084 0
M  V30 4634 H 416.908 -3.26961 -3.24989 0
M  V30 4635 H 420.452 -6.58735 -2.29595 0
M  V30 4636 H 416.349 -5.65743 -3.10813 0
M  V30 4637 H 417.117 -7.70444 -2.76331 0
M  V30 4638 N 419.78 1.02168 -1.19998 0
M  V30 4639 C 421.026 1.75945 -1.00852 0
M  V30 4640 C 421.359 1.88702 0.458828 0
M  V30 4641 O 420.634 1.40911 1.34069 0
M  V30 4642 C 420.917 3.18154 -1.68671 0
M  V30 4643 C 420.77 3.13224 -3.22817 0
M  V30 4644 C 422.089 4.16711 -1.41561 0
M  V30 4645 H 419.208 0.638673 -0.367785 0
M  V30 4646 H 421.85 1.19222 -1.4794 0
M  V30 4647 H 420 3.66586 -1.28636 0
M  V30 4648 H 421.672 2.72635 -3.72112 0
M  V30 4649 H 419.915 2.50751 -3.53986 0
M  V30 4650 H 420.586 4.13728 -3.65422 0
M  V30 4651 H 423.062 3.76913 -1.76284 0
M  V30 4652 H 421.938 5.14391 -1.91553 0
M  V30 4653 H 422.199 4.40774 -0.342193 0
M  V30 4654 N 421.258 1.00505 1.21394 0
M  V30 4655 C 422.188 0.585684 2.26035 0
M  V30 4656 C 423.169 -0.393525 1.65485 0
M  V30 4657 O 424.354 -0.281497 1.92149 0
M  V30 4658 C 421.484 -0.0884283 3.47187 0
M  V30 4659 C 420.438 0.810567 4.20254 0
M  V30 4660 C 419.764 0.00286382 5.347 0
M  V30 4661 C 421.064 2.1132 4.77641 0
M  V30 4662 H 422.758 1.46039 2.61368 0
M  V30 4663 H 420.304 0.703648 1.25638 0
M  V30 4664 H 422.257 -0.393286 4.19561 0
M  V30 4665 H 420.981 -0.997766 3.10986 0
M  V30 4666 H 419.64 1.09925 3.49731 0
M  V30 4667 H 419.288 -0.907765 4.94741 0
M  V30 4668 H 418.988 0.601444 5.84514 0
M  V30 4669 H 420.512 -0.295808 6.09883 0
M  V30 4670 H 421.926 1.87148 5.41893 0
M  V30 4671 H 420.323 2.66164 5.37845 0
M  V30 4672 H 421.393 2.78393 3.9702 0
M  V30 4673 N 422.737 -1.36956 0.779787 0
M  V30 4674 C 423.985 -1.99097 0.347079 0
M  V30 4675 C 424.306 -1.62206 -1.08232 0
M  V30 4676 O 423.576 -0.891373 -1.74446 0
M  V30 4677 H 422.156 -0.736409 0.125342 0
M  V30 4678 H 424.818 -1.67308 0.999696 0
M  V30 4679 H 423.914 -3.09107 0.431162 0
M  V30 4680 N 424.215 -0.530993 -1.48385 0
M  V30 4681 C 425.464 0.00474348 -2.01699 0
M  V30 4682 C 425.777 1.35227 -1.41325 0
M  V30 4683 O 426.983 1.97643 -1.86144 0
M  V30 4684 C 425.439 0.0588473 -3.59852 0
M  V30 4685 C 425.047 -1.28385 -4.2921 0
M  V30 4686 C 426.791 0.543358 -4.21008 0
M  V30 4687 C 424.698 -1.19028 -5.79298 0
M  V30 4688 H 423.628 0.00554317 -0.75398 0
M  V30 4689 H 426.279 -0.674924 -1.70637 0
M  V30 4690 H 424.661 0.803612 -3.8776 0
M  V30 4691 H 425.835 -2.04426 -4.12973 0
M  V30 4692 H 424.15 -1.70418 -3.7993 0
M  V30 4693 H 426.747 0.631351 -5.3096 0
M  V30 4694 H 427.09 1.54937 -3.86394 0
M  V30 4695 H 427.623 -0.145754 -3.97533 0
M  V30 4696 H 424.362 -2.17147 -6.18488 0
M  V30 4697 H 423.882 -0.471246 -5.97946 0
M  V30 4698 H 425.561 -0.881365 -6.40969 0
M  V30 4699 N 425.693 1.55336 -0.266172 0
M  V30 4700 C 426.939 2.00423 0.346714 0
M  V30 4701 C 427.294 1.15132 1.54151 0
M  V30 4702 O 426.587 0.211289 1.90431 0
M  V30 4703 C 426.781 3.48606 0.787957 0
M  V30 4704 C 426.61 4.48236 -0.362535 0
M  V30 4705 C 425.38 4.98211 -0.843445 0
M  V30 4706 C 427.578 5.00199 -1.19603 0
M  V30 4707 N 425.56 5.81625 -1.96434 0
M  V30 4708 C 426.931 5.80973 -2.16497 0
M  V30 4709 C 428.986 4.82458 -1.2304 0
M  V30 4710 C 427.689 6.45896 -3.1656 0
M  V30 4711 C 429.715 5.48174 -2.21944 0
M  V30 4712 C 429.077 6.28751 -3.17571 0
M  V30 4713 H 425.176 0.776535 0.0922914 0
M  V30 4714 H 427.76 1.90792 -0.388154 0
M  V30 4715 H 425.931 3.58597 1.49207 0
M  V30 4716 H 427.663 3.80538 1.37742 0
M  V30 4717 H 424.418 4.71696 -0.424271 0
M  V30 4718 H 424.842 6.28025 -2.52813 0
M  V30 4719 H 429.484 4.19774 -0.504903 0
M  V30 4720 H 427.202 7.07734 -3.90048 0
M  V30 4721 H 430.788 5.36392 -2.25333 0
M  V30 4722 H 429.668 6.78703 -3.92851 0
M  V30 4723 N 427.171 -0.0066808 1.57599 0
M  V30 4724 C 428.401 -0.703066 1.94269 0
M  V30 4725 C 428.809 -1.68206 0.866222 0
M  V30 4726 O 428.152 -1.82966 -0.164087 0
M  V30 4727 C 428.214 -1.49616 3.26887 0
M  V30 4728 C 427.878 -0.679494 4.5192 0
M  V30 4729 C 428.875 0.0299508 5.19891 0
M  V30 4730 C 426.56 -0.627433 4.98366 0
M  V30 4731 C 428.554 0.780514 6.32603 0
M  V30 4732 C 426.241 0.126861 6.10968 0
M  V30 4733 C 427.239 0.829574 6.77943 0
M  V30 4734 O 426.927 1.57157 7.88389 0
M  V30 4735 H 426.659 -0.201217 0.645359 0
M  V30 4736 H 429.213 0.0385326 2.05364 0
M  V30 4737 H 427.443 -2.28209 3.12182 0
M  V30 4738 H 429.132 -2.07726 3.48719 0
M  V30 4739 H 429.898 -0.00115963 4.85 0
M  V30 4740 H 425.777 -1.16392 4.46065 0
M  V30 4741 H 429.321 1.32954 6.84813 0
M  V30 4742 H 425.218 0.159815 6.45302 0
M  V30 4743 H 425.986 1.48758 8.04868 0
M  V30 4744 N 428.649 -1.55105 -0.279332 0
M  V30 4745 C 429.895 -1.76597 -1.00921 0
M  V30 4746 C 430.25 -0.556831 -1.84166 0
M  V30 4747 O 429.543 0.450573 -1.86227 0
M  V30 4748 C 429.737 -3.0086 -1.92919 0
M  V30 4749 C 429.566 -4.33744 -1.18728 0
M  V30 4750 C 428.336 -4.9712 -0.905545 0
M  V30 4751 C 430.534 -5.11009 -0.580857 0
M  V30 4752 N 428.516 -6.13749 -0.136169 0
M  V30 4753 C 429.887 -6.19976 0.0546661 0
M  V30 4754 C 431.942 -4.95502 -0.488067 0
M  V30 4755 C 430.645 -7.15123 0.774028 0
M  V30 4756 C 432.671 -5.90999 0.217688 0
M  V30 4757 C 432.033 -6.9935 0.841975 0
M  V30 4758 H 428.132 -0.698553 -0.351493 0
M  V30 4759 H 430.716 -1.92595 -0.285531 0
M  V30 4760 H 428.887 -2.86249 -2.62519 0
M  V30 4761 H 430.619 -3.10784 -2.59221 0
M  V30 4762 H 427.374 -4.57903 -1.20921 0
M  V30 4763 H 427.798 -6.7659 0.235665 0
M  V30 4764 H 432.44 -4.11841 -0.956406 0
M  V30 4765 H 430.158 -7.9831 1.25407 0
M  V30 4766 H 433.744 -5.81078 0.289717 0
M  V30 4767 H 432.624 -7.71973 1.37939 0
M  V30 4768 N 430.127 0.543554 -1.4793 0
M  V30 4769 C 431.374 1.30008 -1.55255 0
M  V30 4770 C 431.702 1.93245 -0.220612 0
M  V30 4771 O 430.957 1.79141 0.787843 0
M  V30 4772 C 431.256 2.42078 -2.62932 0
M  V30 4773 C 430.922 1.96583 -4.0579 0
M  V30 4774 C 429.584 1.83893 -4.44676 0
M  V30 4775 C 431.936 1.62034 -4.95373 0
M  V30 4776 C 429.264 1.34969 -5.70964 0
M  V30 4777 C 431.616 1.14577 -6.22137 0
M  V30 4778 C 430.28 1.00493 -6.59892 0
M  V30 4779 H 429.55 0.475735 -0.568117 0
M  V30 4780 H 432.197 0.608075 -1.81589 0
M  V30 4781 H 430.502 3.16892 -2.30406 0
M  V30 4782 H 432.199 3.00236 -2.65818 0
M  V30 4783 H 428.789 2.07407 -3.75074 0
M  V30 4784 H 432.973 1.70705 -4.66019 0
M  V30 4785 H 428.229 1.2274 -5.98953 0
M  V30 4786 H 432.403 0.869109 -6.90955 0
M  V30 4787 H 430.03 0.623624 -7.57638 0
M  V30 4788 N 431.605 1.3629 0.791371 0
M  V30 4789 C 432.882 1.20962 1.53712 0
M  V30 4790 C 433.262 -0.205021 2.10102 0
M  V30 4791 O 432.61 -1.21042 1.93807 0
M  V30 4792 C 432.82 2.29002 2.63361 0
M  V30 4793 C 434.168 2.65572 3.31295 0
M  V30 4794 O 435.192 2.2803 2.73643 0
M  V30 4795 O 434.051 3.3018 4.35481 0
M  V30 4796 H 431.145 0.47086 0.679867 0
M  V30 4797 H 433.691 1.48016 0.830021 0
M  V30 4798 H 432.463 3.2382 2.19674 0
M  V30 4799 H 432.086 2.03303 3.41692 0
M  V30 4800 N 433.083 -1.0153 1.20538 0
M  V30 4801 C 434.494 -1.56598 1.01657 0
M  V30 4802 C 434.845 -1.91505 -0.426668 0
M  V30 4803 O 433.97 -1.72375 -1.30827 0
M  V30 4804 C 434.565 -2.84542 1.83905 0
M  V30 4805 C 433.124 -3.36133 1.69386 0
M  V30 4806 C 432.271 -2.09427 1.81757 0
M  V30 4807 H 435.222 -0.838974 1.34711 0
M  V30 4808 H 435.243 -3.56004 1.34319 0
M  V30 4809 H 434.755 -2.59105 2.8894 0
M  V30 4810 H 432.856 -3.66528 0.669933 0
M  V30 4811 H 432.969 -4.08248 2.50739 0
M  V30 4812 H 431.333 -2.21941 1.24957 0
M  V30 4813 H 432.116 -1.86414 2.88279 0
M  V30 4814 N 434.561 -1.01147 -1.20859 0
M  V30 4815 C 435.471 -0.58686 -2.27141 0
M  V30 4816 C 436.487 0.373198 -1.69951 0
M  V30 4817 O 437.663 0.235423 -2.00019 0
M  V30 4818 C 434.728 0.0733602 -3.46622 0
M  V30 4819 C 433.789 -0.931995 -4.19061 0
M  V30 4820 C 433.022 -0.303186 -5.32838 0
M  V30 4821 O 433.245 0.898395 -5.63281 0
M  V30 4822 O 432.179 -1.01735 -5.9324 0
M  V30 4823 H 436.005 -1.47155 -2.65667 0
M  V30 4824 H 433.59 -0.780689 -1.2738 0
M  V30 4825 H 435.472 0.442333 -4.19072 0
M  V30 4826 H 434.147 0.932329 -3.09983 0
M  V30 4827 H 433.054 -1.35224 -3.48805 0
M  V30 4828 H 434.387 -1.76076 -4.59628 0
M  V30 4829 N 436.039 1.36541 -0.78704 0
M  V30 4830 C 436.972 2.27831 -0.129765 0
M  V30 4831 C 437.95 1.47105 0.692732 0
M  V30 4832 O 439.134 1.7641 0.664222 0
M  V30 4833 C 436.261 3.28577 0.821883 0
M  V30 4834 C 435.307 4.26422 0.0814771 0
M  V30 4835 S 436.14 5.20919 -1.24112 0
M  V30 4836 C 437.296 6.25212 -0.293409 0
M  V30 4837 H 437.529 2.83229 -0.903811 0
M  V30 4838 H 435.062 1.43046 -0.581144 0
M  V30 4839 H 437.02 3.87123 1.3655 0
M  V30 4840 H 435.681 2.72096 1.56916 0
M  V30 4841 H 434.874 4.97554 0.803485 0
M  V30 4842 H 434.476 3.71944 -0.391589 0
M  V30 4843 H 436.768 6.75435 0.528622 0
M  V30 4844 H 437.711 7.01378 -0.973344 0
M  V30 4845 H 438.119 5.64407 0.102196 0
M  V30 4846 N 437.518 0.538854 1.48102 0
M  V30 4847 C 438.448 -0.207654 2.32575 0
M  V30 4848 C 439.429 -0.926559 1.4265 0
M  V30 4849 O 440.614 -0.91061 1.71527 0
M  V30 4850 C 437.744 -1.24957 3.24042 0
M  V30 4851 C 436.698 -0.648263 4.23062 0
M  V30 4852 C 436.024 -1.79348 5.03725 0
M  V30 4853 C 437.324 0.385897 5.20872 0
M  V30 4854 H 439.018 0.497534 2.95237 0
M  V30 4855 H 436.564 0.240715 1.41974 0
M  V30 4856 H 438.517 -1.77983 3.81969 0
M  V30 4857 H 437.241 -1.98446 2.59397 0
M  V30 4858 H 435.9 -0.139452 3.66335 0
M  V30 4859 H 435.548 -2.51696 4.35498 0
M  V30 4860 H 435.248 -1.39702 5.70751 0
M  V30 4861 H 436.772 -2.32735 5.64506 0
M  V30 4862 H 438.186 -0.057607 5.73271 0
M  V30 4863 H 436.583 0.700227 5.96001 0
M  V30 4864 H 437.653 1.28848 4.67468 0
M  V30 4865 N 438.996 -1.55193 0.274407 0
M  V30 4866 C 439.944 -2.23924 -0.629362 0
M  V30 4867 C 440.938 -1.23602 -1.1584 0
M  V30 4868 O 442.144 -1.41535 -1.11211 0
M  V30 4869 H 438.519 -0.718637 -0.221507 0
M  V30 4870 H 440.49 -2.98388 -0.0268322 0
M  V30 4871 C 439.239 -2.97329 -1.80252 0
M  V30 4872 H 438.562 -3.74313 -1.40462 0
M  V30 4873 H 440.002 -3.48743 -2.41152 0
M  V30 4874 C 438.461 -2.0276 -2.69054 0
M  V30 4875 O 438.991 -1.57836 -3.69392 0
M  V30 4876 N 437.197 -1.69275 -2.36208 0
M  V30 4877 H 436.744 -2.06004 -1.54661 0
M  V30 4878 H 436.702 -1.06271 -2.95895 0
M  V30 4879 N 440.474 -0.00167713 -1.576 0
M  V30 4880 C 441.89 0.354422 -1.55615 0
M  V30 4881 C 442.09 1.74679 -1.00447 0
M  V30 4882 O 441.146 2.4428 -0.639022 0
M  V30 4883 C 442.459 0.22812 -2.99833 0
M  V30 4884 C 444.007 0.302934 -3.11531 0
M  V30 4885 C 444.482 0.205737 -4.57538 0
M  V30 4886 N 445.973 0.263584 -4.62449 0
M  V30 4887 C 446.708 0.211742 -5.73009 0
M  V30 4888 N 446.204 0.110399 -6.92712 0
M  V30 4889 N 447.997 0.263729 -5.61481 0
M  V30 4890 H 440.148 -0.912498 -1.918 0
M  V30 4891 H 442.411 -0.349928 -0.881053 0
M  V30 4892 H 442.117 -0.729934 -3.44042 0
M  V30 4893 H 441.991 1.00951 -3.6344 0
M  V30 4894 H 444.378 1.25143 -2.67251 0
M  V30 4895 H 444.459 -0.508357 -2.50698 0
M  V30 4896 H 444.103 -0.739225 -5.02492 0
M  V30 4897 H 444.033 1.03554 -5.16318 0
M  V30 4898 H 446.524 0.343173 -3.76339 0
M  V30 4899 H 446.837 0.0767828 -7.72762 0
M  V30 4900 H 445.182 0.0760025 -6.94958 0
M  V30 4901 H 448.373 0.34111 -4.66855 0
M  V30 4902 H 448.546 0.219862 -6.47627 0
M  V30 4903 N 441.952 1.55251 0.271103 0
M  V30 4904 C 442.882 1.9127 1.33933 0
M  V30 4905 C 443.863 0.77478 1.5143 0
M  V30 4906 O 445.048 1.03307 1.64442 0
M  V30 4907 C 442.178 2.18627 2.69851 0
M  V30 4908 C 441.132 3.34442 2.67081 0
M  V30 4909 C 440.458 3.47284 4.06569 0
M  V30 4910 C 441.758 4.70784 2.26185 0
M  V30 4911 H 443.452 2.80744 1.04035 0
M  V30 4912 H 440.998 1.35077 0.499017 0
M  V30 4913 H 442.951 2.42413 3.44694 0
M  V30 4914 H 441.675 1.25955 3.01335 0
M  V30 4915 H 440.334 3.10627 1.94695 0
M  V30 4916 H 439.982 2.52074 4.35279 0
M  V30 4917 H 439.682 4.25152 4.0561 0
M  V30 4918 H 441.206 3.73363 4.83148 0
M  V30 4919 H 442.62 4.94102 2.90751 0
M  V30 4920 H 441.017 5.51582 2.36384 0
M  V30 4921 H 442.087 4.69478 1.21319 0
M  V30 4922 N 443.43 -0.535701 1.48216 0
M  V30 4923 C 444.655 -1.32149 1.59848 0
M  V30 4924 C 445.08 -1.86338 0.256842 0
M  V30 4925 O 444.438 -1.64107 -0.770632 0
M  V30 4926 C 444.486 -2.45224 2.64381 0
M  V30 4927 O 443.59 -3.48093 2.21144 0
M  V30 4928 H 442.931 -0.391634 0.536208 0
M  V30 4929 H 445.461 -0.645202 1.94161 0
M  V30 4930 H 445.471 -2.91491 2.85476 0
M  V30 4931 H 444.146 -2.05143 3.61786 0
M  V30 4932 H 442.723 -3.07984 2.10239 0
M  V30 4933 N 444.908 -1.36708 -0.784132 0
M  V30 4934 C 446.185 -1.21776 -1.53069 0
M  V30 4935 C 446.565 0.193876 -2.10208 0
M  V30 4936 O 445.913 1.20012 -1.94446 0
M  V30 4937 C 446.123 -2.30395 -2.62143 0
M  V30 4938 C 447.471 -2.67325 -3.29882 0
M  V30 4939 O 448.495 -2.29478 -2.7243 0
M  V30 4940 O 447.354 -3.32485 -4.33724 0
M  V30 4941 H 444.448 -0.474459 -0.677361 0
M  V30 4942 H 446.994 -1.48454 -0.82216 0
M  V30 4943 H 445.766 -3.2498 -2.17953 0
M  V30 4944 H 445.389 -2.05112 -3.40609 0
M  V30 4945 N 446.386 1.0089 -1.21074 0
M  V30 4946 C 447.797 1.56056 -1.02486 0
M  V30 4947 C 448.148 1.91728 0.416506 0
M  V30 4948 O 447.273 1.73066 1.29912 0
M  V30 4949 C 447.868 2.83563 -1.85411 0
M  V30 4950 C 446.427 3.3523 -1.71166 0
M  V30 4951 C 445.574 2.0846 -1.82865 0
M  V30 4952 H 448.525 0.831818 -1.35154 0
M  V30 4953 H 448.546 3.55286 -1.36205 0
M  V30 4954 H 448.058 2.57569 -2.9031 0
M  V30 4955 H 446.159 3.66167 -0.689361 0
M  V30 4956 H 446.272 4.06913 -2.52901 0
M  V30 4957 H 444.636 2.21275 -1.26132 0
M  V30 4958 H 445.419 1.84883 -2.89263 0
M  V30 4959 N 447.864 1.01787 1.20321 0
M  V30 4960 C 449.11 0.708985 1.90003 0
M  V30 4961 C 449.443 -0.759572 1.78729 0
M  V30 4962 O 448.718 -1.55198 1.17234 0
M  V30 4963 C 449.001 1.1469 3.41348 0
M  V30 4964 C 448.854 2.67586 3.61549 0
M  V30 4965 C 450.173 0.71915 4.34185 0
M  V30 4966 H 447.292 0.259034 0.689978 0
M  V30 4967 H 449.934 1.26584 1.41692 0
M  V30 4968 H 448.084 0.673128 3.82624 0
M  V30 4969 H 449.756 3.22826 3.29517 0
M  V30 4970 H 447.999 3.085 3.04976 0
M  V30 4971 H 448.67 2.93281 4.67643 0
M  V30 4972 H 451.146 1.12647 4.00562 0
M  V30 4973 H 450.022 1.05358 5.38694 0
M  V30 4974 H 450.283 -0.379111 4.40472 0
M  V30 4975 N 449.342 -1.36122 0.79427 0
M  V30 4976 C 450.29 -2.31871 0.184023 0
M  V30 4977 C 451.284 -1.56041 -0.659365 0
M  V30 4978 O 452.49 -1.71266 -0.553906 0
M  V30 4979 H 448.865 -0.750896 0.0407373 0
M  V30 4980 H 450.836 -2.80898 1.00693 0
M  V30 4981 C 449.585 -3.41324 -0.662813 0
M  V30 4982 H 448.908 -3.99793 -0.0231944 0
M  V30 4983 H 450.348 -4.10629 -1.05639 0
M  V30 4984 C 448.807 -2.83308 -1.82313 0
M  V30 4985 O 449.337 -2.75863 -2.91997 0
M  V30 4986 N 447.543 -2.40529 -1.63077 0
M  V30 4987 H 447.09 -2.46785 -0.738591 0
M  V30 4988 H 447.048 -2.02059 -2.40872 0
M  V30 4989 N 450.82 -0.546701 -1.47814 0
M  V30 4990 C 451.77 0.227042 -2.26867 0
M  V30 4991 C 452.754 0.894844 -1.33721 0
M  V30 4992 O 453.946 0.794887 -1.58147 0
M  V30 4993 C 451.075 1.26299 -3.19223 0
M  V30 4994 C 450.161 0.59913 -4.19847 0
M  V30 4995 N 450.552 -0.324777 -5.04756 0
M  V30 4996 C 448.85 0.854331 -4.37741 0
M  V30 4997 C 449.551 -0.709386 -5.77358 0
M  V30 4998 N 448.527 -0.0666153 -5.43559 0
M  V30 4999 H 452.329 -0.483476 -2.89896 0
M  V30 5000 H 449.843 -0.365893 -1.58224 0
M  V30 5001 H 451.84 1.83116 -3.74532 0
M  V30 5002 H 450.5 1.97471 -2.57751 0
M  V30 5003 H 451.511 -0.698351 -5.1317 0
M  V30 5004 H 448.188 1.55536 -3.87447 0
M  V30 5005 H 449.578 -1.46796 -6.55668 0
M  V30 5006 N 452.299 1.55045 -0.282633 0
M  V30 5007 C 453.546 1.9976 0.33199 0
M  V30 5008 C 453.874 1.17105 1.55295 0
M  V30 5009 O 453.129 0.230599 1.94337 0
M  V30 5010 C 453.428 3.49422 0.750938 0
M  V30 5011 C 453.094 4.4941 -0.366228 0
M  V30 5012 C 451.756 4.76471 -0.672964 0
M  V30 5013 C 454.108 5.09054 -1.11864 0
M  V30 5014 C 451.436 5.60442 -1.73556 0
M  V30 5015 C 453.788 5.9418 -2.17102 0
M  V30 5016 C 452.452 6.19558 -2.48402 0
M  V30 5017 H 451.722 0.730974 0.121484 0
M  V30 5018 H 454.369 1.8732 -0.39791 0
M  V30 5019 H 452.674 3.59377 1.56063 0
M  V30 5020 H 454.371 3.81432 1.23736 0
M  V30 5021 H 450.961 4.2844 -0.117041 0
M  V30 5022 H 455.145 4.88165 -0.894925 0
M  V30 5023 H 450.401 5.78349 -1.983 0
M  V30 5024 H 454.575 6.39427 -2.75873 0
M  V30 5025 H 452.202 6.84417 -3.30874 0
M  V30 5026 N 453.777 0.010035 1.57597 0
M  V30 5027 C 455.024 -0.6727 1.91 0
M  V30 5028 C 455.352 -1.73219 0.884614 0
M  V30 5029 O 454.607 -1.95395 -0.109215 0
M  V30 5030 C 454.906 -1.34434 3.31153 0
M  V30 5031 C 454.572 -0.417083 4.48967 0
M  V30 5032 C 453.234 -0.161809 4.80928 0
M  V30 5033 C 455.586 0.220753 5.20732 0
M  V30 5034 C 452.914 0.739426 5.82022 0
M  V30 5035 C 455.266 1.10993 6.22787 0
M  V30 5036 C 453.93 1.37428 6.532 0
M  V30 5037 H 453.2 -0.246158 0.698918 0
M  V30 5038 H 455.847 0.0677145 1.9138 0
M  V30 5039 H 454.152 -2.15905 3.26944 0
M  V30 5040 H 455.849 -1.87883 3.54261 0
M  V30 5041 H 452.439 -0.626217 4.24001 0
M  V30 5042 H 456.623 0.0365643 4.96287 0
M  V30 5043 H 451.879 0.952139 6.03941 0
M  V30 5044 H 456.053 1.61046 6.77523 0
M  V30 5045 H 453.68 2.0743 7.31353 0
M  V30 5046 N 455.255 -1.55392 -0.262866 0
M  V30 5047 C 456.502 -1.76476 -0.993109 0
M  V30 5048 C 456.83 -0.571479 -1.85915 0
M  V30 5049 O 456.085 0.445733 -1.90556 0
M  V30 5050 C 456.384 -3.02889 -1.89718 0
M  V30 5051 C 456.05 -4.34974 -1.18781 0
M  V30 5052 C 454.712 -4.7087 -0.991699 0
M  V30 5053 C 457.064 -5.16695 -0.683798 0
M  V30 5054 C 454.392 -5.86036 -0.279024 0
M  V30 5055 C 456.744 -6.32598 0.0153327 0
M  V30 5056 C 455.408 -6.67127 0.223062 0
M  V30 5057 H 454.678 -0.64577 -0.363404 0
M  V30 5058 H 457.325 -1.89664 -0.264525 0
M  V30 5059 H 455.63 -2.84644 -2.6923 0
M  V30 5060 H 457.327 -3.16399 -2.46359 0
M  V30 5061 H 453.917 -4.06765 -1.35058 0
M  V30 5062 H 458.101 -4.8943 -0.8229 0
M  V30 5063 H 453.357 -6.11306 -0.107456 0
M  V30 5064 H 457.531 -6.95171 0.413584 0
M  V30 5065 H 455.158 -7.56216 0.777265 0
M  V30 5066 N 456.733 0.527833 -1.48498 0
M  V30 5067 C 457.663 1.64136 -1.66077 0
M  V30 5068 C 458.644 1.62286 -0.509625 0
M  V30 5069 O 459.829 1.79449 -0.742413 0
M  V30 5070 C 456.959 3.02717 -1.70234 0
M  V30 5071 C 455.913 3.19426 -2.8487 0
M  V30 5072 C 455.239 4.5909 -2.74118 0
M  V30 5073 C 456.539 3.01993 -4.26142 0
M  V30 5074 H 458.233 1.4968 -2.593 0
M  V30 5075 H 455.779 0.718654 -1.24785 0
M  V30 5076 H 457.732 3.80491 -1.8112 0
M  V30 5077 H 456.456 3.18201 -0.735911 0
M  V30 5078 H 455.115 2.4407 -2.73542 0
M  V30 5079 H 454.763 4.71413 -1.7544 0
M  V30 5080 H 454.463 4.71214 -3.51042 0
M  V30 5081 H 455.987 5.3896 -2.86974 0
M  V30 5082 H 457.401 3.69558 -4.38292 0
M  V30 5083 H 455.798 3.2561 -5.04082 0
M  V30 5084 H 456.868 1.98396 -4.42456 0
M  V30 5085 N 458.211 1.37122 0.776871 0
M  V30 5086 C 459.458 1.32047 1.53524 0
M  V30 5087 C 459.786 -0.0965631 1.9426 0
M  V30 5088 O 459.041 -1.06866 1.63945 0
M  V30 5089 C 459.34 2.20068 2.81611 0
M  V30 5090 C 459.006 3.68423 2.59953 0
M  V30 5091 C 457.668 4.08854 2.53755 0
M  V30 5092 C 460.02 4.62431 2.40431 0
M  V30 5093 C 457.348 5.41417 2.26018 0
M  V30 5094 C 459.7 5.95225 2.14219 0
M  V30 5095 C 458.364 6.34767 2.06462 0
M  V30 5096 H 457.634 0.483196 0.561785 0
M  V30 5097 H 460.281 1.69284 0.895268 0
M  V30 5098 H 458.586 1.75809 3.50141 0
M  V30 5099 H 460.283 2.13458 3.39465 0
M  V30 5100 H 456.873 3.36354 2.65638 0
M  V30 5101 H 461.057 4.32057 2.44213 0
M  V30 5102 H 456.313 5.71022 2.18504 0
M  V30 5103 H 460.487 6.67626 1.98112 0
M  V30 5104 H 458.114 7.37413 1.84733 0
M  V30 5105 N 459.689 -1.00246 1.21608 0
M  V30 5106 C 460.652 -2.07233 0.979133 0
M  V30 5107 C 461.652 -1.6072 -0.0508219 0
M  V30 5108 O 462.842 -1.73196 0.186712 0
M  V30 5109 C 459.974 -3.37546 0.477016 0
M  V30 5110 H 461.167 -2.29687 1.92831 0
M  V30 5111 H 458.72 -1.17261 1.03342 0
M  V30 5112 H 459.455 -3.20773 -0.476966 0
M  V30 5113 H 459.24 -3.72638 1.21997 0
M  V30 5114 H 460.73 -4.16285 0.331181 0
M  V30 5115 N 461.167 -1.02423 -1.1978 0
M  V30 5116 C 462.414 -0.717988 -1.89344 0
M  V30 5117 C 462.742 0.753036 -1.79331 0
M  V30 5118 O 461.997 1.56355 -1.17692 0
M  V30 5119 C 462.296 -1.1088 -3.39765 0
M  V30 5120 C 461.962 -2.57731 -3.6998 0
M  V30 5121 C 460.624 -2.97854 -3.77937 0
M  V30 5122 C 462.976 -3.52763 -3.83677 0
M  V30 5123 C 460.304 -4.31931 -3.97054 0
M  V30 5124 C 462.656 -4.86538 -4.04306 0
M  V30 5125 C 461.32 -5.26356 -4.10494 0
M  V30 5126 H 460.59 -0.26273 -0.692859 0
M  V30 5127 H 463.237 -1.28623 -1.41875 0
M  V30 5128 H 461.542 -0.459094 -3.89101 0
M  V30 5129 H 463.239 -0.849432 -3.919 0
M  V30 5130 H 459.829 -2.25646 -3.64393 0
M  V30 5131 H 464.013 -3.2292 -3.76877 0
M  V30 5132 H 459.269 -4.62324 -4.00083 0
M  V30 5133 H 463.443 -5.60093 -4.13846 0
M  V30 5134 H 461.07 -6.3026 -4.2506 0
M  V30 5135 N 462.645 1.35699 -0.801477 0
M  V30 5136 C 463.575 2.32436 -0.222658 0
M  V30 5137 C 464.556 1.5723 0.649057 0
M  V30 5138 O 465.741 1.85324 0.580387 0
M  V30 5139 C 462.871 3.41469 0.633719 0
M  V30 5140 C 461.825 4.27774 -0.139083 0
M  V30 5141 C 461.151 5.28082 0.838666 0
M  V30 5142 C 462.451 5.04946 -1.33517 0
M  V30 5143 H 464.145 2.81094 -1.03086 0
M  V30 5144 H 461.691 1.35146 -0.497155 0
M  V30 5145 H 463.644 4.08143 1.04868 0
M  V30 5146 H 462.368 2.91408 1.47475 0
M  V30 5147 H 461.027 3.62673 -0.535156 0
M  V30 5148 H 460.675 4.7429 1.67506 0
M  V30 5149 H 460.375 5.86695 0.32594 0
M  V30 5150 H 461.899 5.97628 1.25194 0
M  V30 5151 H 463.313 5.64593 -0.995349 0
M  V30 5152 H 461.71 5.7303 -1.78202 0
M  V30 5153 H 462.78 4.35886 -2.12442 0
M  V30 5154 N 464.123 0.554532 1.47522 0
M  V30 5155 C 465.071 -0.207765 2.3167 0
M  V30 5156 C 466.065 -0.911914 1.4276 0
M  V30 5157 O 467.271 -0.833504 1.59539 0
M  V30 5158 H 463.646 -0.0858726 0.747081 0
M  V30 5159 H 465.617 0.521178 2.93813 0
M  V30 5160 C 464.366 -1.2263 3.25357 0
M  V30 5161 H 463.689 -0.693887 3.93732 0
M  V30 5162 H 465.129 -1.73062 3.87073 0
M  V30 5163 C 463.588 -2.27278 2.4869 0
M  V30 5164 O 464.118 -3.34156 2.22941 0
M  V30 5165 N 462.324 -2.01134 2.09746 0
M  V30 5166 H 461.871 -1.14232 2.30887 0
M  V30 5167 H 461.829 -2.71369 1.58765 0
M  V30 5168 N 465.601 -1.54893 0.290851 0
M  V30 5169 C 467.012 -1.85584 -0.203816 0
M  V30 5170 C 467.363 -1.21285 -1.54222 0
M  V30 5171 O 466.488 -0.506841 -2.10381 0
M  V30 5172 C 467.083 -3.367 -0.376595 0
M  V30 5173 C 465.642 -3.6746 -0.815485 0
M  V30 5174 C 464.789 -2.77178 0.0821087 0
M  V30 5175 H 467.74 -1.50208 0.512175 0
M  V30 5176 H 467.761 -3.60656 -1.21275 0
M  V30 5177 H 467.273 -3.8347 0.59767 0
M  V30 5178 H 465.374 -3.26201 -1.80066 0
M  V30 5179 H 465.487 -4.7478 -0.641905 0
M  V30 5180 H 463.851 -2.50925 -0.436895 0
M  V30 5181 H 464.634 -3.26767 1.05254 0
M  V30 5182 N 467.08 -0.0183926 -1.57589 0
M  V30 5183 C 468.32 0.666846 -1.93216 0
M  V30 5184 C 468.684 1.69905 -0.894215 0
M  V30 5185 O 469.885 2.436 -1.13633 0
M  V30 5186 C 468.156 1.27684 -3.33814 0
M  V30 5187 S 469.715 1.98464 -3.91353 0
M  V30 5188 H 466.533 0.219826 -0.676164 0
M  V30 5189 H 469.135 -0.0794893 -1.95338 0
M  V30 5190 H 467.839 0.513006 -4.07181 0
M  V30 5191 H 467.37 2.06071 -3.3511 0
M  V30 5192 H 469.385 3.26189 -3.73918 0
M  V30 5193 N 468.558 1.5553 0.254621 0
M  V30 5194 C 469.805 1.77 0.983736 0
M  V30 5195 C 470.133 0.58133 1.85609 0
M  V30 5196 O 469.388 -0.435621 1.9079 0
M  V30 5197 C 469.687 3.03891 1.88109 0
M  V30 5198 C 469.353 4.35597 1.16472 0
M  V30 5199 C 468.015 4.7139 0.966714 0
M  V30 5200 C 470.367 5.1705 0.656387 0
M  V30 5201 C 467.695 5.86176 0.247942 0
M  V30 5202 C 470.047 6.32581 -0.0488807 0
M  V30 5203 C 468.711 6.67 -0.258438 0
M  V30 5204 H 467.981 0.647688 0.359974 0
M  V30 5205 H 470.628 1.89802 0.254463 0
M  V30 5206 H 468.933 2.86068 2.67717 0
M  V30 5207 H 470.63 3.17701 2.44677 0
M  V30 5208 H 467.22 4.07475 1.32899 0
M  V30 5209 H 471.404 4.8986 0.796933 0
M  V30 5210 H 466.66 6.11354 0.075035 0
M  V30 5211 H 470.834 6.94942 -0.450444 0
M  V30 5212 H 468.461 7.55793 -0.817358 0
M  V30 5213 N 470.036 -0.519951 1.48776 0
M  V30 5214 C 471.313 -1.28123 1.47797 0
M  V30 5215 C 471.693 -2.10196 0.195157 0
M  V30 5216 O 471.041 -2.13167 -0.822925 0
M  V30 5217 C 471.251 -2.15413 2.74587 0
M  V30 5218 C 472.599 -2.75225 3.23321 0
M  V30 5219 O 473.623 -2.25694 2.75574 0
M  V30 5220 O 472.482 -3.65346 4.06429 0
M  V30 5221 H 469.576 -0.578793 0.590701 0
M  V30 5222 H 472.122 -0.535779 1.6102 0
M  V30 5223 H 470.894 -1.54617 3.59457 0
M  V30 5224 H 470.517 -2.97186 2.64132 0
M  V30 5225 N 471.514 -1.37532 -0.769588 0
M  V30 5226 C 472.925 -1.29382 -1.346 0
M  V30 5227 C 473.276 0.0576039 -1.96115 0
M  V30 5228 O 472.401 0.95947 -1.93967 0
M  V30 5229 C 472.996 -2.34298 -2.44724 0
M  V30 5230 C 471.555 -2.29776 -2.98128 0
M  V30 5231 C 470.702 -2.18013 -1.71364 0
M  V30 5232 H 473.653 -1.48123 -0.56968 0
M  V30 5233 H 473.674 -1.99089 -3.24259 0
M  V30 5234 H 473.186 -3.32645 -1.99922 0
M  V30 5235 H 471.287 -1.34959 -3.47299 0
M  V30 5236 H 471.4 -3.23276 -3.53595 0
M  V30 5237 H 469.764 -1.64595 -1.94372 0
M  V30 5238 H 470.547 -3.18278 -1.28662 0
M  V30 5239 N 472.992 0.995999 -1.22138 0
M  V30 5240 C 473.922 2.10387 -1.01289 0
M  V30 5241 C 474.903 1.69975 0.0651454 0
M  V30 5242 O 476.088 1.9396 -0.0964628 0
M  V30 5243 C 473.218 3.42312 -0.586517 0
M  V30 5244 C 472.172 3.96558 -1.61014 0
M  V30 5245 C 471.498 5.24494 -1.0397 0
M  V30 5246 C 472.798 4.27595 -2.99933 0
M  V30 5247 H 474.492 2.28086 -1.93951 0
M  V30 5248 H 472.038 1.09607 -0.933928 0
M  V30 5249 H 473.991 4.19223 -0.427793 0
M  V30 5250 H 472.715 3.24431 0.375761 0
M  V30 5251 H 471.374 3.21776 -1.75658 0
M  V30 5252 H 471.022 5.02953 -0.0688703 0
M  V30 5253 H 470.722 5.61755 -1.72352 0
M  V30 5254 H 472.246 6.04042 -0.892494 0
M  V30 5255 H 473.66 4.95315 -2.8868 0
M  V30 5256 H 472.057 4.76021 -3.6541 0
M  V30 5257 H 473.127 3.35498 -3.50099 0
M  V30 5258 N 474.47 1.03057 1.19235 0
M  V30 5259 C 475.719 0.72326 1.88287 0
M  V30 5260 C 476.032 -0.751333 1.80594 0
M  V30 5261 O 477.238 -1.17176 2.44912 0
M  V30 5262 C 475.694 1.24338 3.3774 0
M  V30 5263 C 475.302 2.74587 3.53986 0
M  V30 5264 C 477.046 1.01213 4.12257 0
M  V30 5265 C 474.953 3.20009 4.97341 0
M  V30 5266 H 473.883 0.266848 0.705201 0
M  V30 5267 H 476.534 1.24509 1.34795 0
M  V30 5268 H 474.916 0.649457 3.90638 0
M  V30 5269 H 476.09 3.39649 3.11408 0
M  V30 5270 H 474.405 2.9601 2.9286 0
M  V30 5271 H 477.002 1.32675 5.17978 0
M  V30 5272 H 477.345 -0.051001 4.16269 0
M  V30 5273 H 477.878 1.57014 3.65501 0
M  V30 5274 H 474.617 4.25659 4.98493 0
M  V30 5275 H 474.137 2.59676 5.40674 0
M  V30 5276 H 475.816 3.13447 5.66003 0
M  V30 5277 N 475.948 -1.35272 0.808662 0
M  V30 5278 C 477.178 -2.02652 0.401953 0
M  V30 5279 C 477.586 -1.6108 -0.992462 0
M  V30 5280 O 476.929 -0.804984 -1.65123 0
M  V30 5281 C 476.991 -3.57174 0.408246 0
M  V30 5282 C 476.655 -4.22019 1.75353 0
M  V30 5283 C 477.652 -4.43552 2.71215 0
M  V30 5284 C 475.337 -4.59093 2.03811 0
M  V30 5285 C 477.331 -5.01264 3.93717 0
M  V30 5286 C 475.018 -5.16519 3.26576 0
M  V30 5287 C 476.016 -5.37546 4.21347 0
M  V30 5288 O 475.704 -5.93761 5.41944 0
M  V30 5289 H 475.436 -0.656495 0.161216 0
M  V30 5290 H 477.99 -1.73829 1.0942 0
M  V30 5291 H 476.22 -3.85197 -0.340608 0
M  V30 5292 H 477.909 -4.05893 0.0235623 0
M  V30 5293 H 478.675 -4.15288 2.50522 0
M  V30 5294 H 474.554 -4.42039 1.30854 0
M  V30 5295 H 478.098 -5.17592 4.67701 0
M  V30 5296 H 473.995 -5.4421 3.47139 0
M  V30 5297 H 474.763 -6.1221 5.43269 0
M  V30 5298 N 477.426 -0.562348 -1.47226 0
M  V30 5299 C 478.674 -0.0401371 -2.0206 0
M  V30 5300 C 478.995 1.3165 -1.43852 0
M  V30 5301 O 478.265 1.85976 -0.615599 0
M  V30 5302 H 476.845 -0.0118479 -0.746906 0
M  V30 5303 H 479.507 -0.73352 -1.8057 0
M  V30 5304 H 478.603 0.0441254 -3.12069 0
M  V30 5305 N 478.904 1.54736 -0.299062 0
M  V30 5306 C 480.134 2.04215 0.312992 0
M  V30 5307 C 480.542 1.17596 1.48215 0
M  V30 5308 O 479.885 0.193835 1.82674 0
M  V30 5309 C 479.947 3.49696 0.833862 0
M  V30 5310 C 479.611 4.56518 -0.20977 0
M  V30 5311 C 480.608 5.09442 -1.03756 0
M  V30 5312 C 478.293 5.01073 -0.35091 0
M  V30 5313 C 480.287 6.05459 -1.99244 0
M  V30 5314 C 477.974 5.9691 -1.30924 0
M  V30 5315 C 478.972 6.48987 -2.1285 0
M  V30 5316 O 478.66 7.42947 -3.07059 0
M  V30 5317 H 478.392 0.672128 0.0722494 0
M  V30 5318 H 480.946 2.00718 -0.436043 0
M  V30 5319 H 479.176 3.5051 1.63339 0
M  V30 5320 H 480.865 3.82381 1.36159 0
M  V30 5321 H 481.631 4.75816 -0.939376 0
M  V30 5322 H 477.51 4.60168 0.276813 0
M  V30 5323 H 481.054 6.46031 -2.63229 0
M  V30 5324 H 476.951 6.29953 -1.40815 0
M  V30 5325 H 477.719 7.60743 -3.02015 0
M  V30 5326 N 480.382 0.0267497 1.57577 0
M  V30 5327 C 481.629 -0.652404 1.91703 0
M  V30 5328 C 481.957 -1.72271 0.902936 0
M  V30 5329 O 481.212 -1.955 -0.0884843 0
M  V30 5330 C 481.511 -1.30914 3.3256 0
M  V30 5331 C 481.177 -0.369441 4.49384 0
M  V30 5332 C 479.839 -0.110791 4.81072 0
M  V30 5333 C 482.191 0.275971 5.20469 0
M  V30 5334 C 479.519 0.801116 5.81205 0
M  V30 5335 C 481.871 1.17592 6.21575 0
M  V30 5336 C 480.535 1.44348 6.51705 0
M  V30 5337 H 479.805 -0.238732 0.70149 0
M  V30 5338 H 482.452 0.0880091 1.91298 0
M  V30 5339 H 480.757 -2.12425 3.29216 0
M  V30 5340 H 482.454 -1.84115 3.56234 0
M  V30 5341 H 479.044 -0.581211 4.24641 0
M  V30 5342 H 483.228 0.0892 4.9622 0
M  V30 5343 H 478.484 1.01614 6.02897 0
M  V30 5344 H 482.658 1.68223 6.75777 0
M  V30 5345 H 480.285 2.15176 7.29111 0
M  V30 5346 N 481.861 -1.55662 -0.24637 0
M  V30 5347 C 483.086 -1.81914 -0.996093 0
M  V30 5348 C 483.511 -0.603875 -1.78143 0
M  V30 5349 O 482.869 0.447091 -1.75701 0
M  V30 5350 C 482.917 -3.05908 -1.90925 0
M  V30 5351 O 482.021 -2.82861 -3.00105 0
M  V30 5352 H 481.362 -0.600481 -0.283406 0
M  V30 5353 H 483.892 -2.02848 -0.267199 0
M  V30 5354 H 483.902 -3.35356 -2.3238 0
M  V30 5355 H 482.577 -3.93999 -1.33183 0
M  V30 5356 H 481.154 -2.64583 -2.62775 0
M  V30 5357 N 483.339 0.512053 -1.4905 0
M  V30 5358 C 484.269 1.62365 -1.67809 0
M  V30 5359 C 485.25 1.61737 -0.526809 0
M  V30 5360 O 486.435 1.78651 -0.761404 0
M  V30 5361 C 483.565 3.00895 -1.73435 0
M  V30 5362 C 482.519 3.16387 -2.88242 0
M  V30 5363 C 481.845 4.56157 -2.78971 0
M  V30 5364 C 483.145 2.97457 -4.29321 0
M  V30 5365 H 484.839 1.46921 -2.60873 0
M  V30 5366 H 482.385 0.705379 -1.2554 0
M  V30 5367 H 484.338 3.78549 -1.85145 0
M  V30 5368 H 483.062 3.17403 -0.769619 0
M  V30 5369 H 481.721 2.41155 -2.76116 0
M  V30 5370 H 481.369 4.69525 -1.8043 0
M  V30 5371 H 481.069 4.67465 -3.5602 0
M  V30 5372 H 482.593 5.35886 -2.92675 0
M  V30 5373 H 484.007 3.64888 -4.42187 0
M  V30 5374 H 482.404 3.20245 -5.07507 0
M  V30 5375 H 483.474 1.93692 -4.44535 0
M  V30 5376 O 484.856 1.47522 0.657231 0
M  V30 5377 H 485.547 1.42634 1.31055 0
M  V30 END ATOM
M  V30 BEGIN BOND
M  V30 END BOND
M  V30 END CTAB
M  END
$$$$
