drugbank_target|P38424 Probable GTP-binding protein EngB (DB04137; DB04315)
 OpenBabel12092120003D

  0  0  0     0  0            999 V3000
M  V30 BEGIN CTAB
M  V30 COUNTS 3150 3180 0 0 0
M  V30 BEGIN ATOM
M  V30 1 H -0.908 1.98254 -0.117106 0
M  V30 2 N 0 1.576 0 0
M  V30 3 C 0.933 2.03868 1.02534 0
M  V30 4 C 1.911 0.928543 1.3348 0
M  V30 5 O 3.095 1.19667 1.45644 0
M  V30 6 C 0.222 2.43627 2.35294 0
M  V30 7 C -0.732 3.65373 2.2001 0
M  V30 8 S 0.101 5.13292 1.52614 0
M  V30 9 C 1.257 5.56322 2.86805 0
M  V30 10 H 1.49 2.90518 0.631377 0
M  V30 11 H -0.977 1.52953 0.210867 0
M  V30 12 H 0.981 2.67203 3.11629 0
M  V30 13 H -0.358 1.57376 2.7183 0
M  V30 14 H -1.165 3.90944 3.18086 0
M  V30 15 H -1.563 3.418 1.51819 0
M  V30 16 H 0.729 5.58782 3.83104 0
M  V30 17 H 1.672 6.56266 2.65933 0
M  V30 18 H 2.08 4.83886 2.90714 0
M  V30 19 N 1.4781 -0.272755 1.55222 0
M  V30 20 C 2.4251 -1.33716 1.88119 0
M  V30 21 C 3.3951 -1.49066 0.73271 0
M  V30 22 O 4.5801 -1.63469 0.984002 0
M  V30 23 C 1.7201 -2.69238 2.15882 0
M  V30 24 C 0.8331 -2.62108 3.43399 0
M  V30 25 C -0.0319 -3.89811 3.60861 0
M  V30 26 C -0.9929 -3.77193 4.8207 0
M  V30 27 N -1.8559 -4.9673 4.96189 0
M  V30 28 H 2.9841 -1.04962 2.78903 0
M  V30 29 H 0.5211 -0.507088 1.38083 0
M  V30 30 H 2.4791 -3.48089 2.29978 0
M  V30 31 H 1.1091 -2.96194 1.28331 0
M  V30 32 H 0.1611 -1.74967 3.37773 0
M  V30 33 H 1.4731 -2.48685 4.32386 0
M  V30 34 H 0.6271 -4.77103 3.74777 0
M  V30 35 H -0.6339 -4.06102 2.7006 0
M  V30 36 H -1.6289 -2.88284 4.68159 0
M  V30 37 H -0.4039 -3.62421 5.74307 0
M  V30 38 H -2.4579 -5.13431 4.08319 0
M  V30 39 H -2.5409 -4.85839 5.79221 0
M  V30 40 H -1.2729 -5.85594 5.1449 0
M  V30 41 N 2.9562 -1.48159 -0.537278 0
M  V30 42 C 4.2022 -1.56035 -1.29541 0
M  V30 43 C 4.5352 -0.230377 -1.92829 0
M  V30 44 O 3.8102 0.762952 -1.78911 0
M  V30 45 C 4.0932 -2.69323 -2.39034 0
M  V30 46 C 3.9462 -4.12002 -1.80485 0
M  V30 47 C 5.2652 -2.78408 -3.40847 0
M  V30 48 H 2.3842 -0.567992 -0.469632 0
M  V30 49 H 5.0262 -1.80302 -0.599277 0
M  V30 50 H 3.1762 -2.48763 -2.98412 0
M  V30 51 H 4.8482 -4.43981 -1.25215 0
M  V30 52 H 3.0912 -4.19344 -1.11055 0
M  V30 53 H 3.7622 -4.87077 -2.59731 0
M  V30 54 H 6.2382 -2.97012 -2.91416 0
M  V30 55 H 5.1142 -3.59416 -4.14863 0
M  V30 56 H 5.3752 -1.86269 -4.00944 0
M  V30 57 N 4.4343 0.785586 -1.36625 0
M  V30 58 C 5.6623 1.57448 -1.3423 0
M  V30 59 C 6.0773 1.88649 0.0755653 0
M  V30 60 O 5.4343 1.50414 1.03354 0
M  V30 61 C 5.4853 2.89316 -2.16745 0
M  V30 62 O 5.2063 2.59459 -3.53005 0
M  V30 63 C 6.7073 3.83606 -2.22174 0
M  V30 64 H 3.9273 0.488226 -0.4603 0
M  V30 65 H 6.4713 0.974733 -1.79775 0
M  V30 66 H 4.6263 3.4575 -1.74745 0
M  V30 67 H 5.0403 3.43804 -3.96105 0
M  V30 68 H 6.5143 4.73181 -2.8426 0
M  V30 69 H 6.9913 4.21734 -1.22627 0
M  V30 70 H 7.5973 3.33104 -2.64427 0
M  V30 71 N 5.9124 1.20967 1.01018 0
M  V30 72 C 6.8594 0.964281 2.09691 0
M  V30 73 C 7.8294 -0.107853 1.65749 0
M  V30 74 O 9.0144 0.0381987 1.90762 0
M  V30 75 C 6.1544 0.52943 3.41015 0
M  V30 76 C 5.2674 1.67043 3.98398 0
M  V30 77 C 4.4024 1.18525 5.17808 0
M  V30 78 C 3.4414 2.29892 5.67288 0
M  V30 79 N 2.5784 1.82546 6.77954 0
M  V30 80 H 7.4184 1.89463 2.30017 0
M  V30 81 H 4.9554 0.944289 1.1279 0
M  V30 82 H 6.9134 0.258588 4.16398 0
M  V30 83 H 5.5434 -0.363919 3.20742 0
M  V30 84 H 4.5954 2.05603 3.20049 0
M  V30 85 H 5.9074 2.50877 4.31117 0
M  V30 86 H 5.0614 0.870762 6.00419 0
M  V30 87 H 3.8004 0.316887 4.86669 0
M  V30 88 H 2.8054 2.6215 4.83278 0
M  V30 89 H 4.0304 3.17216 6.00459 0
M  V30 90 H 1.9764 0.980454 6.48632 0
M  V30 91 H 1.8934 2.59956 7.09901 0
M  V30 92 H 3.1614 1.54115 7.64113 0
M  V30 93 N 7.3905 -1.2043 1.01659 0
M  V30 94 C 8.6155 -1.94318 0.724942 0
M  V30 95 C 9.0405 -1.74266 -0.708034 0
M  V30 96 O 8.3985 -1.03694 -1.48719 0
M  V30 97 C 8.4465 -3.44486 1.06591 0
M  V30 98 O 7.5505 -4.12017 0.177599 0
M  V30 99 H 6.8915 -0.60708 0.26898 0
M  V30 100 H 9.4215 -1.52861 1.35995 0
M  V30 101 H 9.4315 -3.95106 1.01762 0
M  V30 102 H 8.1065 -3.58404 2.10997 0
M  V30 103 H 6.6835 -3.71821 0.283421 0
M  V30 104 N 8.8686 -0.792821 -1.36206 0
M  V30 105 C 9.7786 -0.194808 -2.3379 0
M  V30 106 C 10.7946 0.654869 -1.61206 0
M  V30 107 O 11.9706 0.569856 -1.9317 0
M  V30 108 C 9.0356 0.657721 -3.40404 0
M  V30 109 C 8.0966 -0.210849 -4.28782 0
M  V30 110 C 7.3296 0.601086 -5.30304 0
M  V30 111 O 7.5526 1.83682 -5.40016 0
M  V30 112 O 6.4866 -0.000808277 -6.019 0
M  V30 113 H 10.3126 -1.00172 -2.86704 0
M  V30 114 H 7.8976 -0.554341 -1.38735 0
M  V30 115 H 9.7796 1.14375 -4.05581 0
M  V30 116 H 8.4546 1.44247 -2.89784 0
M  V30 117 H 7.3616 -0.743714 -3.66633 0
M  V30 118 H 8.6946 -0.959195 -4.82763 0
M  V30 119 N 10.3467 1.47872 -0.545128 0
M  V30 120 C 11.5957 2.01695 -0.0145033 0
M  V30 121 C 11.9087 1.42609 1.33873 0
M  V30 122 O 13.1147 1.88021 1.95858 0
M  V30 123 C 11.5707 3.59892 0.0245068 0
M  V30 124 C 11.1787 4.27966 -1.32475 0
M  V30 125 C 12.9227 4.21507 0.50316 0
M  V30 126 C 10.8297 5.78136 -1.2455 0
M  V30 127 H 9.7597 0.753998 -0.00165172 0
M  V30 128 H 12.4107 1.69985 -0.691175 0
M  V30 129 H 10.7927 3.88509 0.766575 0
M  V30 130 H 11.9667 4.11003 -2.08357 0
M  V30 131 H 10.2817 3.78286 -1.74036 0
M  V30 132 H 12.8787 5.31538 0.580656 0
M  V30 133 H 13.2217 3.87855 1.51243 0
M  V30 134 H 13.7547 3.97376 -0.183681 0
M  V30 135 H 10.4937 6.16388 -2.23039 0
M  V30 136 H 10.0137 5.97469 -0.528282 0
M  V30 137 H 11.6927 6.40099 -0.942488 0
M  V30 138 N 11.8248 0.280983 1.55075 0
M  V30 139 C 13.0708 -0.33461 2.00021 0
M  V30 140 C 13.4038 -1.55063 1.16915 0
M  V30 141 O 12.6788 -1.93006 0.240646 0
M  V30 142 C 12.9618 -0.711007 3.53011 0
M  V30 143 C 12.8148 0.512766 4.46868 0
M  V30 144 C 14.1338 -1.54522 4.12081 0
M  V30 145 H 11.2528 -0.120147 0.727141 0
M  V30 146 H 13.8948 0.389097 1.85973 0
M  V30 147 H 12.0448 -1.32761 3.65112 0
M  V30 148 H 13.7168 1.15131 4.46702 0
M  V30 149 H 11.9598 1.14975 4.18286 0
M  V30 150 H 12.6308 0.205556 5.51617 0
M  V30 151 H 15.1068 -1.02442 4.03293 0
M  V30 152 H 13.9828 -1.77739 5.19327 0
M  V30 153 H 14.2438 -2.52813 3.62682 0
M  V30 154 N 13.3029 -1.57598 0.00835791 0
M  V30 155 C 14.5519 -1.90107 -0.673968 0
M  V30 156 C 14.8649 -0.884275 -1.7447 0
M  V30 157 O 16.0709 -1.09987 -2.48224 0
M  V30 158 C 14.5269 -3.37497 -1.24995 0
M  V30 159 C 14.1349 -4.47491 -0.2136 0
M  V30 160 C 15.8789 -3.79104 -1.90999 0
M  V30 161 C 13.7859 -5.85963 -0.80005 0
M  V30 162 H 12.7159 -0.709393 -0.255495 0
M  V30 163 H 15.3669 -1.83365 0.0702693 0
M  V30 164 H 13.7489 -3.39102 -2.04513 0
M  V30 165 H 14.9229 -4.57414 0.557596 0
M  V30 166 H 13.2379 -4.14956 0.346474 0
M  V30 167 H 15.8349 -4.79901 -2.35795 0
M  V30 168 H 16.1779 -3.1306 -2.74407 0
M  V30 169 H 16.7109 -3.79833 -1.18203 0
M  V30 170 H 13.4499 -6.555 -0.00456708 0
M  V30 171 H 12.9699 -5.79687 -1.54021 0
M  V30 172 H 14.6489 -6.33884 -1.29615 0
M  V30 173 N 14.781 0.264519 -1.55364 0
M  V30 174 C 16.006 1.01726 -1.80739 0
M  V30 175 C 16.431 1.78836 -0.583044 0
M  V30 176 O 15.789 1.75167 0.467566 0
M  V30 177 C 15.837 1.94482 -3.03659 0
M  V30 178 O 14.941 3.03386 -2.7934 0
M  V30 179 H 14.282 0.290395 -0.597132 0
M  V30 180 H 16.812 0.290854 -2.02522 0
M  V30 181 H 16.822 2.36278 -3.32621 0
M  V30 182 H 15.497 1.37772 -3.92418 0
M  V30 183 H 14.074 2.65844 -2.61498 0
M  V30 184 N 16.2591 1.48442 0.529413 0
M  V30 185 C 17.2221 1.62524 1.61612 0
M  V30 186 C 18.2221 0.498509 1.52877 0
M  V30 187 O 19.4121 0.76431 1.56537 0
M  V30 188 C 16.5441 1.59597 3.01233 0
M  V30 189 H 17.7371 2.59423 1.50465 0
M  V30 190 H 15.2901 1.37047 0.751514 0
M  V30 191 H 16.0251 0.641781 3.17886 0
M  V30 192 H 15.8101 2.41397 3.08982 0
M  V30 193 H 17.3001 1.72646 3.80241 0
M  V30 194 N 17.7372 -0.778329 1.37039 0
M  V30 195 C 18.9832 -1.53892 1.32079 0
M  V30 196 C 19.3162 -1.9396 -0.0965386 0
M  V30 197 O 18.5912 -1.63568 -1.05242 0
M  V30 198 C 18.8742 -2.80847 2.25382 0
M  V30 199 C 18.7272 -2.47076 3.75864 0
M  V30 200 C 20.0462 -3.82741 2.1725 0
M  V30 201 H 17.1652 -0.558303 0.48111 0
M  V30 202 H 19.8072 -0.893397 1.67685 0
M  V30 203 H 17.9572 -3.35931 1.95148 0
M  V30 204 H 19.6292 -1.97957 4.16666 0
M  V30 205 H 17.8722 -1.79863 3.94755 0
M  V30 206 H 18.5432 -3.37798 4.36574 0
M  V30 207 H 21.0192 -3.37133 2.43887 0
M  V30 208 H 19.8952 -4.69303 2.84686 0
M  V30 209 H 20.1562 -4.2652 1.16331 0
M  V30 210 N 19.2153 -1.21501 -1.00376 0
M  V30 211 C 20.1623 -0.975387 -2.09177 0
M  V30 212 C 21.1323 0.0990615 -1.65804 0
M  V30 213 O 22.3173 -0.0483147 -1.90739 0
M  V30 214 C 19.4573 -0.547507 -3.40729 0
M  V30 215 C 18.5703 -1.69153 -3.97506 0
M  V30 216 C 17.7053 -1.2127 -5.17172 0
M  V30 217 C 16.7443 -2.32897 -5.66061 0
M  V30 218 N 15.8813 -1.86138 -6.76976 0
M  V30 219 H 20.7213 -1.9068 -2.29009 0
M  V30 220 H 18.2583 -0.950257 -1.12288 0
M  V30 221 H 20.2163 -0.280667 -4.16255 0
M  V30 222 H 18.8463 0.346904 -3.20931 0
M  V30 223 H 17.8983 -2.07298 -3.18954 0
M  V30 224 H 19.2103 -2.5316 -4.29781 0
M  V30 225 H 18.3643 -0.902591 -5.99948 0
M  V30 226 H 17.1033 -0.342692 -4.86495 0
M  V30 227 H 16.1083 -2.64709 -4.81881 0
M  V30 228 H 17.3333 -3.20396 -5.98768 0
M  V30 229 H 15.2793 -1.01484 -6.48103 0
M  V30 230 H 15.1963 -2.63717 -7.08512 0
M  V30 231 H 16.4643 -1.58165 -7.63285 0
M  V30 232 N 20.6934 1.19889 -1.02296 0
M  V30 233 C 22.1044 1.71124 -0.746568 0
M  V30 234 C 22.4554 1.81939 0.734335 0
M  V30 235 O 21.5804 1.48639 1.57275 0
M  V30 236 C 22.1754 3.10804 -1.34857 0
M  V30 237 C 20.7344 3.59323 -1.1209 0
M  V30 238 C 19.8814 2.3635 -1.45031 0
M  V30 239 H 22.8324 1.04813 -1.19163 0
M  V30 240 H 22.8534 3.73186 -0.742437 0
M  V30 241 H 22.3654 3.029 -2.42638 0
M  V30 242 H 20.4664 3.7255 -0.0610337 0
M  V30 243 H 20.5794 4.4378 -1.80544 0
M  V30 244 H 18.9434 2.39399 -0.869487 0
M  V30 245 H 19.7264 2.31081 -2.53883 0
M  V30 246 N 22.1715 0.800033 1.35784 0
M  V30 247 C 23.0815 0.207204 2.33683 0
M  V30 248 C 24.0975 -0.64631 1.61551 0
M  V30 249 O 25.2735 -0.559604 1.93469 0
M  V30 250 C 22.3385 -0.639659 3.40748 0
M  V30 251 C 21.3995 0.233585 4.28664 0
M  V30 252 C 20.6325 -0.572954 5.30616 0
M  V30 253 O 20.8555 -1.80816 5.40982 0
M  V30 254 O 19.7895 0.0327285 6.01891 0
M  V30 255 H 23.6155 1.01692 2.86169 0
M  V30 256 H 21.2005 0.561691 1.38439 0
M  V30 257 H 23.0825 -1.12223 4.06182 0
M  V30 258 H 21.7575 -1.42708 2.90544 0
M  V30 259 H 20.6645 0.763147 3.66233 0
M  V30 260 H 21.9975 0.984784 4.82248 0
M  V30 261 N 23.6496 -1.47581 0.552962 0
M  V30 262 C 24.5816 -2.27997 -0.234533 0
M  V30 263 C 25.5946 -1.36753 -0.883321 0
M  V30 264 O 26.7836 -1.61612 -0.757889 0
M  V30 265 C 23.8836 -3.10879 -1.34935 0
M  V30 266 C 23.0566 -4.30056 -0.798158 0
M  V30 267 C 22.1156 -4.94567 -1.79694 0
M  V30 268 O 21.1416 -5.53087 -1.34474 0
M  V30 269 N 22.3436 -4.88878 -3.13015 0
M  V30 270 H 25.1086 -2.96222 0.455255 0
M  V30 271 H 22.6696 -1.57163 0.388761 0
M  V30 272 H 24.6616 -3.50903 -2.01616 0
M  V30 273 H 23.2316 -2.44924 -1.94244 0
M  V30 274 H 22.4516 -3.94174 0.0453079 0
M  V30 275 H 23.7396 -5.07152 -0.409173 0
M  V30 276 H 23.1376 -4.42526 -3.52402 0
M  V30 277 H 21.6946 -5.32934 -3.75266 0
M  V30 278 N 25.1277 -0.289203 -1.54924 0
M  V30 279 C 26.3577 0.325989 -2.04012 0
M  V30 280 C 26.7657 1.48961 -1.1665 0
M  V30 281 O 26.1087 1.82794 -0.1822 0
M  V30 282 C 26.1707 0.856112 -3.49158 0
M  V30 283 C 25.8347 -0.180697 -4.56643 0
M  V30 284 C 26.8317 -1.0051 -5.10092 0
M  V30 285 C 24.5167 -0.318998 -5.01286 0
M  V30 286 C 26.5107 -1.95385 -6.06715 0
M  V30 287 C 24.1977 -1.27121 -5.97732 0
M  V30 288 C 25.1957 -2.08713 -6.50329 0
M  V30 289 O 24.8837 -3.02322 -7.44887 0
M  V30 290 H 24.6157 0.0765276 -0.671654 0
M  V30 291 H 27.1697 -0.423254 -2.00992 0
M  V30 292 H 25.3997 1.65567 -3.49463 0
M  V30 293 H 27.0887 1.38591 -3.81507 0
M  V30 294 H 27.8547 -0.90906 -4.76404 0
M  V30 295 H 23.7337 0.306108 -4.59983 0
M  V30 296 H 27.2777 -2.59111 -6.47694 0
M  V30 297 H 23.1747 -1.36801 -6.30837 0
M  V30 298 H 23.9427 -2.97165 -7.6265 0
M  V30 299 N 26.6058 1.57591 -0.0167156 0
M  V30 300 C 28.0168 1.79201 0.523834 0
M  V30 301 C 28.3678 0.925796 1.72984 0
M  V30 302 O 27.4928 0.132792 2.15992 0
M  V30 303 C 28.0878 3.25 0.957091 0
M  V30 304 C 26.6468 3.47648 1.44283 0
M  V30 305 C 25.7938 2.74374 0.401757 0
M  V30 306 H 28.7448 1.56831 -0.242816 0
M  V30 307 H 28.7658 3.34031 1.82219 0
M  V30 308 H 28.2778 3.88019 0.0791415 0
M  V30 309 H 26.3788 2.89866 2.34113 0
M  V30 310 H 26.4918 4.56352 1.45877 0
M  V30 311 H 24.8558 2.39485 0.867121 0
M  V30 312 H 25.6388 3.40102 -0.467513 0
M  V30 313 N 28.0839 -0.256276 1.55502 0
M  V30 314 C 28.9939 -1.33882 1.92647 0
M  V30 315 C 30.0099 -1.53159 0.825727 0
M  V30 316 O 31.1859 -1.66963 1.12629 0
M  V30 317 C 28.2509 -2.6751 2.20543 0
M  V30 318 C 27.3119 -2.56836 3.43997 0
M  V30 319 C 26.5449 -3.84092 3.70553 0
M  V30 320 O 26.7679 -4.85545 2.99336 0
M  V30 321 O 25.7019 -3.83288 4.64084 0
M  V30 322 H 29.5279 -1.05374 2.84833 0
M  V30 323 H 27.1129 -0.456237 1.42263 0
M  V30 324 H 28.9949 -3.46492 2.39835 0
M  V30 325 H 27.6699 -2.9577 1.31536 0
M  V30 326 H 26.5769 -1.76172 3.30021 0
M  V30 327 H 27.9099 -2.33523 4.33275 0
M  V30 328 N 29.562 -1.4872 -0.521534 0
M  V30 329 C 30.81 -1.56857 -1.27437 0
M  V30 330 C 31.131 -0.247982 -1.93417 0
M  V30 331 O 30.401 0.731151 -1.81744 0
M  V30 332 H 28.981 -0.577885 -0.473347 0
M  V30 333 H 31.643 -1.85233 -0.606205 0
M  V30 334 H 30.739 -2.35402 -2.0492 0
M  V30 335 N 31.0401 0.771051 -1.3745 0
M  V30 336 C 32.2881 1.52661 -1.32435 0
M  V30 337 C 32.6091 1.9479 0.0905024 0
M  V30 338 O 31.8791 1.66348 1.03466 0
M  V30 339 H 30.4591 0.566218 -0.487244 0
M  V30 340 H 33.1211 0.917636 -1.71946 0
M  V30 341 H 32.2171 2.42568 -1.96385 0
M  V30 342 N 32.5182 1.22032 0.997298 0
M  V30 343 C 33.4482 1.01065 2.10495 0
M  V30 344 C 34.4292 -0.0669542 1.69968 0
M  V30 345 O 35.6142 0.0943987 1.9397 0
M  V30 346 C 32.7442 0.582874 3.42374 0
M  V30 347 C 31.6982 1.60592 3.96729 0
M  V30 348 C 31.0242 1.03412 5.24605 0
M  V30 349 C 32.3242 2.99478 4.27914 0
M  V30 350 H 34.0182 1.93708 2.28292 0
M  V30 351 H 31.5642 0.932761 1.09707 0
M  V30 352 H 33.5172 0.423332 4.19268 0
M  V30 353 H 32.2412 -0.379213 3.24391 0
M  V30 354 H 30.9002 1.75316 3.21963 0
M  V30 355 H 30.5482 0.063518 5.0296 0
M  V30 356 H 30.2482 1.71754 5.61938 0
M  V30 357 H 31.7722 0.886066 6.04137 0
M  V30 358 H 33.1862 2.88153 4.95622 0
M  V30 359 H 31.5832 3.64903 4.76409 0
M  V30 360 H 32.6532 3.49742 3.3587 0
M  V30 361 N 33.9963 -1.19345 1.0293 0
M  V30 362 C 35.4073 -1.70725 0.755633 0
M  V30 363 C 35.7583 -1.82326 -0.724676 0
M  V30 364 O 34.8833 -1.49471 -1.56484 0
M  V30 365 C 35.4783 -3.10084 1.36503 0
M  V30 366 C 34.0373 -3.58723 1.13994 0
M  V30 367 C 33.1843 -2.35577 1.46283 0
M  V30 368 H 36.1353 -1.0418 1.19718 0
M  V30 369 H 36.1563 -3.72787 0.762217 0
M  V30 370 H 35.6683 -3.01609 2.44241 0
M  V30 371 H 33.7693 -3.72512 0.0807901 0
M  V30 372 H 33.8823 -4.42816 1.82894 0
M  V30 373 H 32.2463 -2.38935 0.88217 0
M  V30 374 H 33.0293 -2.29731 2.55105 0
M  V30 375 N 35.4744 -0.807222 -1.35358 0
M  V30 376 C 36.3844 -0.219594 -2.3357 0
M  V30 377 C 37.4004 0.637734 -1.61892 0
M  V30 378 O 38.5764 0.549336 -1.93763 0
M  V30 379 C 35.6414 0.62158 -3.41083 0
M  V30 380 C 34.7024 -0.256315 -4.28534 0
M  V30 381 C 33.9354 0.544807 -5.30912 0
M  V30 382 O 34.1584 1.77944 -5.41934 0
M  V30 383 O 33.0924 -0.0646478 -6.01865 0
M  V30 384 H 36.9184 -1.03208 -2.85625 0
M  V30 385 H 34.5034 -0.569025 -1.38139 0
M  V30 386 H 36.3854 1.10067 -4.06772 0
M  V30 387 H 35.0604 1.41165 -2.91297 0
M  V30 388 H 33.9674 -0.782559 -3.65823 0
M  V30 389 H 35.3004 -1.01034 -4.81719 0
M  V30 390 N 36.9525 1.47285 -0.560781 0
M  V30 391 C 38.2015 2.01668 -0.035895 0
M  V30 392 C 38.5145 1.44021 1.32353 0
M  V30 393 O 39.7205 1.90088 1.93853 0
M  V30 394 C 38.1765 3.59897 -0.0136659 0
M  V30 395 C 37.7845 4.26536 -1.37006 0
M  V30 396 C 39.5285 4.22017 0.458425 0
M  V30 397 C 37.4355 5.76782 -1.30675 0
M  V30 398 H 36.3655 0.753938 -0.00964879 0
M  V30 399 H 39.0165 1.69243 -0.709166 0
M  V30 400 H 37.3985 3.89301 0.725325 0
M  V30 401 H 38.5725 4.0877 -2.12705 0
M  V30 402 H 36.8875 3.76419 -1.78038 0
M  V30 403 H 39.4845 5.32124 0.524247 0
M  V30 404 H 39.8275 3.89437 1.4712 0
M  V30 405 H 40.3605 3.97159 -0.225818 0
M  V30 406 H 37.0995 6.13988 -2.29564 0
M  V30 407 H 36.6195 5.96875 -0.591622 0
M  V30 408 H 38.2985 6.39063 -1.01033 0
M  V30 409 N 38.4306 0.297415 1.54768 0
M  V30 410 C 39.3936 -0.567375 2.22066 0
M  V30 411 C 40.3936 -1.06409 1.20556 0
M  V30 412 O 41.5836 -0.960691 1.45315 0
M  V30 413 C 38.7156 -1.78517 2.90421 0
M  V30 414 H 39.9086 0.0205534 2.99893 0
M  V30 415 H 37.4616 0.0482163 1.56226 0
M  V30 416 H 38.1966 -2.41303 2.16664 0
M  V30 417 H 37.9816 -1.43669 3.64831 0
M  V30 418 H 39.4716 -2.39964 3.41771 0
M  V30 419 N 39.9087 -1.5758 0.0250728 0
M  V30 420 C 40.8387 -2.13007 -0.956575 0
M  V30 421 C 41.8197 -1.0452 -1.342 0
M  V30 422 O 43.0047 -1.32332 -1.42133 0
M  V30 423 C 40.1347 -2.65386 -2.24026 0
M  V30 424 C 39.0887 -3.78623 -1.99571 0
M  V30 425 C 38.4147 -4.17414 -3.3417 0
M  V30 426 C 39.7147 -5.04867 -1.33814 0
M  V30 427 H 41.4087 -2.9528 -0.494991 0
M  V30 428 H 38.9547 -1.42042 -0.236651 0
M  V30 429 H 40.9077 -3.02794 -2.93076 0
M  V30 430 H 39.6317 -1.80268 -2.72343 0
M  V30 431 H 38.2907 -3.41646 -1.32941 0
M  V30 432 H 37.9387 -3.29284 -3.80238 0
M  V30 433 H 37.6387 -4.93719 -3.18615 0
M  V30 434 H 39.1627 -4.57402 -4.04495 0
M  V30 435 H 40.5767 -5.39888 -1.92857 0
M  V30 436 H 38.9737 -5.86144 -1.28669 0
M  V30 437 H 40.0437 -4.83904 -0.310561 0
M  V30 438 N 41.3868 0.248026 -1.55636 0
M  V30 439 C 42.3498 1.29044 -1.89421 0
M  V30 440 C 43.3498 1.41134 -0.770581 0
M  V30 441 O 44.5398 1.39854 -1.03858 0
M  V30 442 C 41.6718 2.66831 -2.12165 0
M  V30 443 H 42.8648 1.00305 -2.82629 0
M  V30 444 H 40.4178 0.487265 -1.48511 0
M  V30 445 H 41.1528 3.00711 -1.21422 0
M  V30 446 H 40.9378 2.59438 -2.93997 0
M  V30 447 H 42.4278 3.42103 -2.3949 0
M  V30 448 N 42.8649 1.48995 0.513639 0
M  V30 449 C 44.1129 1.57531 1.26604 0
M  V30 450 C 44.4339 0.258236 1.93283 0
M  V30 451 O 43.7039 -0.721502 1.8213 0
M  V30 452 H 42.2839 0.580387 0.470276 0
M  V30 453 H 44.9459 1.85552 0.596373 0
M  V30 454 H 44.0419 2.36486 2.03669 0
M  V30 455 N 44.343 -0.763751 1.37857 0
M  V30 456 C 45.759 -1.06542 1.18832 0
M  V30 457 C 45.959 -2.01478 0.0299722 0
M  V30 458 O 45.015 -2.4458 -0.627447 0
M  V30 459 C 46.328 -1.65525 2.51042 0
M  V30 460 C 47.876 -1.77745 2.57635 0
M  V30 461 C 48.351 -2.4014 3.89996 0
M  V30 462 N 49.842 -2.47582 3.91481 0
M  V30 463 C 50.577 -2.96732 4.9065 0
M  V30 464 N 50.073 -3.45993 6.00217 0
M  V30 465 N 51.866 -2.95679 4.78048 0
M  V30 466 H 44.017 -0.133556 2.1198 0
M  V30 467 H 46.28 -0.121879 0.940133 0
M  V30 468 H 45.986 -1.03236 3.36207 0
M  V30 469 H 45.86 -2.64719 2.68707 0
M  V30 470 H 48.247 -2.39164 1.72872 0
M  V30 471 H 48.328 -0.772836 2.43846 0
M  V30 472 H 47.972 -1.79358 4.75177 0
M  V30 473 H 47.902 -3.41223 4.01092 0
M  V30 474 H 50.393 -2.1273 3.12337 0
M  V30 475 H 50.706 -3.81922 6.7183 0
M  V30 476 H 49.051 -3.44077 6.03851 0
M  V30 477 H 52.242 -2.56499 3.91568 0
M  V30 478 H 52.415 -3.33672 5.55488 0
M  V30 479 N 45.8211 -1.22559 -0.990812 0
M  V30 480 C 47.0461 -1.07862 -1.77145 0
M  V30 481 C 47.4711 0.366447 -1.84496 0
M  V30 482 O 46.8291 1.26478 -1.29896 0
M  V30 483 C 46.8771 -1.69686 -3.18181 0
M  V30 484 O 45.9811 -0.951946 -4.01263 0
M  V30 485 H 45.3221 -0.378712 -0.545411 0
M  V30 486 H 47.8521 -1.62399 -1.2445 0
M  V30 487 H 47.8621 -1.74496 -3.68802 0
M  V30 488 H 46.5371 -2.74841 -3.12146 0
M  V30 489 H 45.1141 -0.980011 -3.59792 0
M  V30 490 N 47.2992 1.18797 -1.03562 0
M  V30 491 C 48.2472 2.24297 -0.615905 0
M  V30 492 C 49.2412 1.65643 0.354808 0
M  V30 493 O 50.4472 1.78618 0.22265 0
M  V30 494 H 46.8222 0.729909 -0.180934 0
M  V30 495 H 48.7932 2.5701 -1.5162 0
M  V30 496 C 47.5422 3.47698 0.0104735 0
M  V30 497 H 46.8652 3.93125 -0.727509 0
M  V30 498 H 48.3052 4.23159 0.266995 0
M  V30 499 C 46.7642 3.12489 1.25905 0
M  V30 500 O 47.2942 3.25761 2.35038 0
M  V30 501 N 45.5002 2.6686 1.15039 0
M  V30 502 H 45.0472 2.56261 0.262328 0
M  V30 503 H 45.0052 2.43674 1.98672 0
M  V30 504 N 48.7773 0.814389 1.34928 0
M  V30 505 C 50.0233 0.399013 1.98836 0
M  V30 506 C 50.3563 -1.03314 1.64438 0
M  V30 507 O 49.6313 -1.71811 0.911659 0
M  V30 508 C 49.9143 0.591629 3.55207 0
M  V30 509 C 49.7673 2.06928 3.99376 0
M  V30 510 C 51.0863 0.022199 4.40094 0
M  V30 511 H 48.2053 0.146451 0.722303 0
M  V30 512 H 50.8473 1.02537 1.59957 0
M  V30 513 H 48.9973 0.0584441 3.88456 0
M  V30 514 H 50.6693 2.66544 3.76499 0
M  V30 515 H 48.9123 2.56287 3.49999 0
M  V30 516 H 49.5833 2.1549 5.08201 0
M  V30 517 H 52.0593 0.477643 4.13349 0
M  V30 518 H 50.9353 0.186832 5.48582 0
M  V30 519 H 51.1963 -1.07215 4.28902 0
M  V30 520 N 50.2554 -1.46986 0.568584 0
M  V30 521 C 51.5034 -2.02041 0.0487022 0
M  V30 522 C 51.8244 -1.44408 -1.31039 0
M  V30 523 O 51.0944 -0.623477 -1.85714 0
M  V30 524 H 49.6744 -0.746849 0.015014 0
M  V30 525 H 52.3364 -1.80257 0.741168 0
M  V30 526 H 51.4324 -3.12085 -0.0308961 0
M  V30 527 N 51.7335 -0.305618 -1.54608 0
M  V30 528 C 52.6805 0.568421 -2.23691 0
M  V30 529 C 53.6505 1.12592 -1.22116 0
M  V30 530 O 54.8355 1.16959 -1.50749 0
M  V30 531 C 51.9755 1.7322 -2.98477 0
M  V30 532 C 51.0885 1.20566 -4.14835 0
M  V30 533 C 50.2235 2.33368 -4.77193 0
M  V30 534 C 49.2625 1.7787 -5.85686 0
M  V30 535 N 48.3995 2.84263 -6.4198 0
M  V30 536 H 53.2395 -0.0272867 -2.97988 0
M  V30 537 H 50.7765 -0.0252363 -1.47078 0
M  V30 538 H 52.7345 2.41675 -3.40072 0
M  V30 539 H 51.3645 2.29947 -2.26548 0
M  V30 540 H 50.4165 0.413223 -3.78149 0
M  V30 541 H 51.7285 0.759417 -4.92985 0
M  V30 542 H 50.8825 3.09761 -5.21664 0
M  V30 543 H 49.6215 2.8132 -3.98385 0
M  V30 544 H 48.6265 0.99968 -5.40635 0
M  V30 545 H 49.8515 1.30816 -6.66381 0
M  V30 546 H 47.7975 3.31541 -5.66053 0
M  V30 547 H 47.7145 2.44149 -7.15491 0
M  V30 548 H 48.9825 3.6054 -6.91109 0
M  V30 549 N 53.2116 1.57565 -0.0334293 0
M  V30 550 C 54.4366 1.96689 0.657895 0
M  V30 551 C 54.8616 0.910057 1.64619 0
M  V30 552 O 54.2196 -0.128598 1.80843 0
M  V30 553 C 54.2676 3.34905 1.33683 0
M  V30 554 O 53.3716 3.31574 2.45219 0
M  V30 555 H 52.7126 0.641205 0.172489 0
M  V30 556 H 55.2426 2.04372 -0.0965621 0
M  V30 557 H 55.2526 3.71234 1.69262 0
M  V30 558 H 53.9276 4.11366 0.612411 0
M  V30 559 H 52.5046 3.06968 2.11719 0
M  V30 560 N 54.6897 -0.239769 1.55765 0
M  V30 561 C 55.9147 -0.988373 1.82335 0
M  V30 562 C 56.3397 -1.77886 0.611421 0
M  V30 563 O 55.6977 -1.75889 -0.439639 0
M  V30 564 C 55.7457 -1.89627 3.06715 0
M  V30 565 O 54.8497 -2.98904 2.84131 0
M  V30 566 H 54.1907 -0.280858 0.601677 0
M  V30 567 H 56.7207 -0.258597 2.02959 0
M  V30 568 H 56.7307 -2.30957 3.36338 0
M  V30 569 H 55.4057 -1.31511 3.9456 0
M  V30 570 H 53.9827 -2.61651 2.65694 0
M  V30 571 N 56.1678 -1.49265 -0.50573 0
M  V30 572 C 57.4148 -1.58513 -1.26015 0
M  V30 573 C 57.7428 -0.26972 -1.92621 0
M  V30 574 O 56.9978 0.741997 -1.81088 0
M  V30 575 C 57.2968 -2.69008 -2.35308 0
M  V30 576 C 56.9628 -4.10662 -1.86192 0
M  V30 577 C 55.6248 -4.49212 -1.72516 0
M  V30 578 C 57.9768 -4.99336 -1.49375 0
M  V30 579 C 55.3048 -5.74214 -1.20394 0
M  V30 580 C 57.6568 -6.24852 -0.987072 0
M  V30 581 C 56.3208 -6.62236 -0.836669 0
M  V30 582 H 55.5908 -0.580041 -0.461122 0
M  V30 583 H 58.2378 -1.83078 -0.561665 0
M  V30 584 H 56.5428 -2.38396 -3.10926 0
M  V30 585 H 58.2398 -2.73373 -2.93374 0
M  V30 586 H 54.8298 -3.8023 -1.97795 0
M  V30 587 H 59.0138 -4.70212 -1.5879 0
M  V30 588 H 54.2698 -6.01883 -1.07458 0
M  V30 589 H 58.4438 -6.92944 -0.692983 0
M  V30 590 H 56.0708 -7.58979 -0.430607 0
M  V30 591 N 57.6459 0.756429 -1.3826 0
M  V30 592 C 58.8949 1.51082 -1.3363 0
M  V30 593 C 59.2079 1.95467 0.0720068 0
M  V30 594 O 60.4139 2.7043 0.240834 0
M  V30 595 C 58.8699 2.72893 -2.34644 0
M  V30 596 C 58.4779 2.35544 -3.81081 0
M  V30 597 C 60.2219 3.50791 -2.39052 0
M  V30 598 C 58.1289 3.53948 -4.73787 0
M  V30 599 H 57.0589 0.56727 -0.49671 0
M  V30 600 H 59.7099 0.827147 -1.638 0
M  V30 601 H 58.0919 3.43227 -1.97513 0
M  V30 602 H 59.2659 1.72894 -4.27135 0
M  V30 603 H 57.5809 1.70786 -3.79764 0
M  V30 604 H 60.1779 4.38823 -3.05513 0
M  V30 605 H 60.5209 3.91745 -1.40861 0
M  V30 606 H 61.0539 2.87467 -2.74968 0
M  V30 607 H 57.7929 3.18064 -5.73163 0
M  V30 608 H 57.3129 4.15651 -4.32428 0
M  V30 609 H 58.9919 4.20566 -4.91663 0
M  V30 610 N 59.124 1.23083 0.984299 0
M  V30 611 C 60.072 1.00593 2.09723 0
M  V30 612 C 61.066 -0.0538014 1.69315 0
M  V30 613 O 62.272 0.0993719 1.79725 0
M  V30 614 H 58.647 0.30817 0.685956 0
M  V30 615 H 60.618 1.95012 2.2586 0
M  V30 616 C 59.367 0.609601 3.42314 0
M  V30 617 H 58.69 1.41675 3.73856 0
M  V30 618 H 60.13 0.491726 4.21139 0
M  V30 619 C 58.589 -0.681745 3.2993 0
M  V30 620 O 59.119 -1.73192 3.62446 0
M  V30 621 N 57.325 -0.656178 2.83095 0
M  V30 622 H 56.872 0.198759 2.56832 0
M  V30 623 H 56.83 -1.52044 2.75191 0
M  V30 624 N 60.6021 -1.18246 1.0419 0
M  V30 625 C 61.8271 -1.92736 0.765996 0
M  V30 626 C 62.2521 -1.75728 -0.67091 0
M  V30 627 O 61.6101 -1.06825 -1.46486 0
M  V30 628 C 61.6581 -3.42148 1.13875 0
M  V30 629 O 60.7621 -4.11548 0.264954 0
M  V30 630 H 60.1031 -0.601238 0.281797 0
M  V30 631 H 62.6331 -1.49942 1.39207 0
M  V30 632 H 62.6431 -3.92858 1.1012 0
M  V30 633 H 61.3181 -3.53848 2.18551 0
M  V30 634 H 59.8951 -3.71137 0.362226 0
M  V30 635 N 62.0802 -0.821533 -1.34494 0
M  V30 636 C 63.0102 -0.257138 -2.3208 0
M  V30 637 C 63.9912 0.625645 -1.58176 0
M  V30 638 O 65.1762 0.552811 -1.86166 0
M  V30 639 C 62.3062 0.582958 -3.42372 0
M  V30 640 C 61.2602 -0.202571 -4.2752 0
M  V30 641 C 60.5862 0.760179 -5.29269 0
M  V30 642 C 61.8862 -1.40998 -5.02908 0
M  V30 643 H 63.5802 -1.07247 -2.79532 0
M  V30 644 H 61.1262 -0.517163 -1.34393 0
M  V30 645 H 63.0792 0.987972 -4.09655 0
M  V30 646 H 61.8032 1.43133 -2.93565 0
M  V30 647 H 60.4622 -0.588936 -3.61838 0
M  V30 648 H 60.1102 1.60447 -4.76724 0
M  V30 649 H 59.8102 0.238809 -5.87115 0
M  V30 650 H 61.3342 1.16308 -5.9942 0
M  V30 651 H 62.7482 -1.07905 -5.63054 0
M  V30 652 H 61.1452 -1.86689 -5.70322 0
M  V30 653 H 62.2152 -2.1889 -4.32684 0
M  V30 654 N 63.5583 1.46682 -0.576371 0
M  V30 655 C 64.8073 2.01619 -0.0572825 0
M  V30 656 C 65.1203 1.45417 1.30818 0
M  V30 657 O 66.3263 1.92133 1.91825 0
M  V30 658 C 64.7823 3.59863 -0.0518371 0
M  V30 659 C 64.3903 4.25059 -1.41523 0
M  V30 660 C 66.1343 4.2248 0.413639 0
M  V30 661 C 64.0413 5.75364 -1.36785 0
M  V30 662 H 62.9713 0.753794 -0.0176448 0
M  V30 663 H 65.6223 1.68481 -0.727076 0
M  V30 664 H 64.0043 3.90048 0.683994 0
M  V30 665 H 65.1783 4.06491 -2.17029 0
M  V30 666 H 63.4933 3.7451 -1.8202 0
M  V30 667 H 66.0903 5.3265 0.467779 0
M  V30 668 H 66.4333 3.90976 1.42982 0
M  V30 669 H 66.9663 3.96897 -0.267929 0
M  V30 670 H 63.7053 6.11518 -2.36063 0
M  V30 671 H 63.2253 5.96214 -0.654895 0
M  V30 672 H 64.9043 6.37955 -1.07805 0
M  V30 673 N 65.0364 0.313813 1.54444 0
M  V30 674 C 65.9844 -0.572171 2.25453 0
M  V30 675 C 66.9784 -1.12657 1.2651 0
M  V30 676 O 68.1844 -1.07573 1.44319 0
M  V30 677 H 64.5594 -0.203146 0.724041 0
M  V30 678 H 66.5304 0.0491145 2.9836 0
M  V30 679 C 65.2794 -1.72626 3.0182 0
M  V30 680 H 64.6024 -1.30891 3.77767 0
M  V30 681 H 66.0424 -2.32199 3.54767 0
M  V30 682 C 64.5014 -2.63806 2.09542 0
M  V30 683 O 65.0314 -3.65256 1.67185 0
M  V30 684 N 63.2374 -2.31824 1.75232 0
M  V30 685 H 62.7844 -1.49368 2.09873 0
M  V30 686 H 62.7424 -2.93095 1.13767 0
M  V30 687 N 66.5145 -1.57545 0.0417849 0
M  V30 688 C 67.9305 -1.56467 -0.314704 0
M  V30 689 C 68.1305 -1.04859 -1.72066 0
M  V30 690 O 67.1865 -0.700983 -2.42575 0
M  V30 691 C 68.4995 -3.00317 -0.15174 0
M  V30 692 C 70.0475 -3.12201 -0.223553 0
M  V30 693 C 70.5225 -4.57913 -0.0892295 0
M  V30 694 N 72.0135 -4.6297 -0.145808 0
M  V30 695 C 72.7485 -5.73362 -0.0658459 0
M  V30 696 N 72.2445 -6.92769 0.0659282 0
M  V30 697 N 74.0375 -5.6197 -0.12075 0
M  V30 698 H 66.1885 -1.89416 0.961014 0
M  V30 699 H 68.4515 -0.871862 0.372237 0
M  V30 700 H 68.1575 -3.42073 0.817254 0
M  V30 701 H 68.0315 -3.65892 -0.916692 0
M  V30 702 H 70.4185 -2.70349 -1.18301 0
M  V30 703 H 70.4995 -2.49323 0.571994 0
M  V30 704 H 70.1435 -5.00448 0.866867 0
M  V30 705 H 70.0735 -5.18786 -0.903802 0
M  V30 706 H 72.5645 -3.7709 -0.247286 0
M  V30 707 H 72.8775 -7.72707 0.119905 0
M  V30 708 H 71.2225 -6.94927 0.100885 0
M  V30 709 H 74.4135 -4.67572 -0.222187 0
M  V30 710 H 74.5865 -6.47977 -0.0549735 0
M  V30 711 N 67.9926 0.231505 -1.5589 0
M  V30 712 C 68.9396 1.28682 -1.91598 0
M  V30 713 C 69.9096 1.47071 -0.771974 0
M  V30 714 O 71.0946 1.60802 -1.027 0
M  V30 715 C 68.2346 2.6342 -2.22944 0
M  V30 716 C 67.3476 2.52912 -3.50228 0
M  V30 717 C 66.4826 3.80106 -3.7107 0
M  V30 718 C 65.5216 3.64279 -4.91902 0
M  V30 719 N 64.6586 4.834 -5.09184 0
M  V30 720 H 69.4986 0.975305 -2.81588 0
M  V30 721 H 67.0356 0.470299 -1.39379 0
M  V30 722 H 68.9936 3.41869 -2.39126 0
M  V30 723 H 67.6236 2.92687 -1.36139 0
M  V30 724 H 66.6756 1.6595 -3.42294 0
M  V30 725 H 67.9876 2.37133 -4.38827 0
M  V30 726 H 67.1416 4.66999 -3.87295 0
M  V30 727 H 65.8806 3.98799 -2.80733 0
M  V30 728 H 64.8856 2.7577 -4.75637 0
M  V30 729 H 66.1106 3.47067 -5.83714 0
M  V30 730 H 64.0566 5.02425 -4.21788 0
M  V30 731 H 63.9736 4.70311 -5.91898 0
M  V30 732 H 65.2416 5.71747 -5.29835 0
M  V30 733 N 69.4707 1.49531 0.497807 0
M  V30 734 C 70.4187 1.66926 1.61983 0
M  V30 735 C 71.4127 0.535167 1.60724 0
M  V30 736 O 72.6187 0.714896 1.65195 0
M  V30 737 H 68.9937 0.526415 0.537021 0
M  V30 738 H 70.9647 2.61098 1.44465 0
M  V30 739 C 69.7137 1.75602 3.00099 0
M  V30 740 H 69.0367 2.62244 3.01775 0
M  V30 741 H 70.4767 1.91807 3.78135 0
M  V30 742 C 68.9357 0.501543 3.33146 0
M  V30 743 O 69.4657 -0.371342 3.9998 0
M  V30 744 N 67.6717 0.363531 2.88317 0
M  V30 745 H 67.2187 1.07485 2.34104 0
M  V30 746 H 67.1767 -0.474728 3.10795 0
M  V30 747 N 70.9488 -0.749086 1.3866 0
M  V30 748 C 71.8788 -1.8764 1.38973 0
M  V30 749 C 72.8598 -1.68178 0.255004 0
M  V30 750 O 74.0448 -1.88704 0.458754 0
M  V30 751 C 71.1748 -3.25222 1.21851 0
M  V30 752 C 70.1288 -3.59295 2.32575 0
M  V30 753 C 69.4548 -4.95663 2.00555 0
M  V30 754 C 70.7548 -3.63709 3.7485 0
M  V30 755 H 72.4488 -1.87635 2.3331 0
M  V30 756 H 69.9948 -0.901329 1.12303 0
M  V30 757 H 71.9478 -4.03746 1.20695 0
M  V30 758 H 70.6718 -3.25719 0.239775 0
M  V30 759 H 69.3308 -2.83093 2.32925 0
M  V30 760 H 68.9788 -4.92724 1.01154 0
M  V30 761 H 68.6788 -5.19429 2.74714 0
M  V30 762 H 70.2028 -5.7656 2.01024 0
M  V30 763 H 71.6168 -4.32338 3.76506 0
M  V30 764 H 70.0138 -3.98986 4.48252 0
M  V30 765 H 71.0838 -2.63834 4.06841 0
M  V30 766 N 72.4269 -1.23603 -0.977757 0
M  V30 767 C 73.3899 -1.02069 -2.05218 0
M  V30 768 C 74.3899 0.0184305 -1.60789 0
M  V30 769 O 75.5799 -0.221569 -1.72785 0
M  V30 770 C 72.7119 -0.544926 -3.36517 0
M  V30 771 H 73.9049 -1.9742 -2.25755 0
M  V30 772 H 71.4579 -1.05684 -1.15155 0
M  V30 773 H 72.1929 0.412241 -3.21669 0
M  V30 774 H 71.9779 -1.2948 -3.70105 0
M  V30 775 H 73.4679 -0.414985 -4.15533 0
M  V30 776 N 73.905 1.17692 -1.04816 0
M  V30 777 C 75.321 1.39863 -0.768794 0
M  V30 778 C 75.521 1.91118 0.638451 0
M  V30 779 O 74.577 2.10036 1.40146 0
M  V30 780 C 75.89 2.39274 -1.82122 0
M  V30 781 C 77.438 2.52987 -1.843 0
M  V30 782 C 77.913 3.55669 -2.88555 0
M  V30 783 N 79.404 3.63183 -2.87493 0
M  V30 784 C 80.139 4.42381 -3.64811 0
M  V30 785 N 79.635 5.25125 -4.51903 0
M  V30 786 N 81.428 4.37217 -3.53267 0
M  V30 787 H 73.579 0.82752 -1.95617 0
M  V30 788 H 75.842 0.426123 -0.846831 0
M  V30 789 H 75.548 2.08678 -2.83102 0
M  V30 790 H 75.422 3.38725 -1.65967 0
M  V30 791 H 77.809 2.82896 -0.839869 0
M  V30 792 H 77.89 1.53623 -2.04532 0
M  V30 793 H 77.534 3.26499 -3.89051 0
M  V30 794 H 77.464 4.54728 -2.65575 0
M  V30 795 H 79.955 3.04103 -2.24343 0
M  V30 796 H 80.268 5.82728 -5.07591 0
M  V30 797 H 78.613 5.24519 -4.55966 0
M  V30 798 H 81.804 3.71626 -2.84625 0
M  V30 799 H 81.977 4.98696 -4.13771 0
M  V30 800 N 75.3831 0.828654 1.34056 0
M  V30 801 C 76.6111 0.43262 2.02326 0
M  V30 802 C 77.0261 -0.963147 1.62385 0
M  V30 803 O 76.3831 -1.62425 0.832121 0
M  V30 804 C 76.4341 0.53182 3.57567 0
M  V30 805 O 76.1551 1.87258 3.96063 0
M  V30 806 C 77.6561 0.131422 4.43105 0
M  V30 807 H 74.8761 0.172923 0.648335 0
M  V30 808 H 77.4201 1.1184 1.71208 0
M  V30 809 H 75.5751 -0.105938 3.87255 0
M  V30 810 H 75.9891 1.85087 4.90758 0
M  V30 811 H 77.4631 0.251904 5.51425 0
M  V30 812 H 77.9401 -0.925645 4.29335 0
M  V30 813 H 78.5461 0.743207 4.18756 0
M  V30 814 N 76.8612 -1.46375 0.584142 0
M  V30 815 C 78.0862 -2.07268 0.0740405 0
M  V30 816 C 78.5112 -1.42979 -1.22223 0
M  V30 817 O 77.8692 -0.514092 -1.73859 0
M  V30 818 C 77.9172 -3.60518 -0.0767769 0
M  V30 819 O 77.0212 -3.96533 -1.13292 0
M  V30 820 H 76.3622 -0.660961 0.0634524 0
M  V30 821 H 78.8922 -1.87991 0.807492 0
M  V30 822 H 78.9022 -4.07021 -0.282489 0
M  V30 823 H 77.5772 -4.06702 0.86986 0
M  V30 824 H 76.1542 -3.61738 -0.905553 0
M  V30 825 N 78.3393 -0.321999 -1.54275 0
M  V30 826 C 79.5643 0.285791 -2.05422 0
M  V30 827 C 79.9893 1.45124 -1.19669 0
M  V30 828 O 79.3473 1.80132 -0.205441 0
M  V30 829 C 79.3953 0.69956 -3.53749 0
M  V30 830 O 78.4993 1.8021 -3.70942 0
M  V30 831 H 77.8403 0.0518962 -0.661969 0
M  V30 832 H 80.3703 -0.469954 -1.9913 0
M  V30 833 H 80.3803 0.982649 -3.9599 0
M  V30 834 H 79.0553 -0.152864 -4.15619 0
M  V30 835 H 77.6323 1.51794 -3.40607 0
M  V30 836 N 79.8174 1.5752 -0.0501392 0
M  V30 837 C 80.7644 2.1147 0.924603 0
M  V30 838 C 81.7344 1.02182 1.30951 0
M  V30 839 O 82.9194 1.29723 1.39916 0
M  V30 840 C 80.0594 2.66337 2.19451 0
M  V30 841 C 79.1724 3.89708 1.86418 0
M  V30 842 C 78.3074 4.32893 3.07859 0
M  V30 843 C 77.3464 5.48967 2.70742 0
M  V30 844 N 76.4834 5.87211 3.84874 0
M  V30 845 H 81.3234 2.94465 0.457639 0
M  V30 846 H 78.8604 1.45531 0.214266 0
M  V30 847 H 80.8184 2.96247 2.93758 0
M  V30 848 H 79.4484 1.86141 2.63726 0
M  V30 849 H 78.5004 3.66396 1.02264 0
M  V30 850 H 79.8124 4.74074 1.55096 0
M  V30 851 H 78.9664 4.6435 3.90466 0
M  V30 852 H 77.7054 3.47336 3.42358 0
M  V30 853 H 76.7104 5.17183 1.86551 0
M  V30 854 H 77.9354 6.3624 2.37436 0
M  V30 855 H 75.8814 5.04607 4.19175 0
M  V30 856 H 75.7984 6.66266 3.57247 0
M  V30 857 H 77.0664 6.23282 4.68123 0
M  V30 858 N 81.2955 -0.223234 1.56011 0
M  V30 859 C 82.7065 -0.790368 1.69145 0
M  V30 860 C 83.0575 -1.85055 0.651845 0
M  V30 861 O 82.1825 -2.15498 -0.197359 0
M  V30 862 C 82.7775 -1.4404 3.06656 0
M  V30 863 C 81.3365 -1.95494 3.2165 0
M  V30 864 C 80.4835 -0.814506 2.65068 0
M  V30 865 H 83.4345 0.00139011 1.587 0
M  V30 866 H 83.4555 -2.30916 3.0242 0
M  V30 867 H 82.9675 -0.668543 3.82298 0
M  V30 868 H 81.0685 -2.75487 2.50874 0
M  V30 869 H 81.1815 -2.13607 4.28846 0
M  V30 870 H 79.5455 -1.22137 2.23505 0
M  V30 871 H 80.3285 -0.0553515 3.43255 0
M  V30 872 N 82.7736 -1.49793 -0.48987 0
M  V30 873 C 84.0216 -1.59525 -1.24081 0
M  V30 874 C 84.3426 -0.288953 -1.92847 0
M  V30 875 O 83.6126 0.692436 -1.83254 0
M  V30 876 H 82.1926 -0.587796 -0.460983 0
M  V30 877 H 84.8546 -1.86477 -0.566778 0
M  V30 878 H 83.9506 -2.39696 -1.99881 0
M  V30 879 N 84.2517 0.741722 -1.39055 0
M  V30 880 C 85.1987 1.85566 -1.37237 0
M  V30 881 C 86.1687 1.64457 -0.233072 0
M  V30 882 O 87.3537 1.85957 -0.427147 0
M  V30 883 C 84.4937 3.23004 -1.215 0
M  V30 884 C 83.6067 3.55864 -2.44918 0
M  V30 885 C 82.7417 4.82669 -2.21821 0
M  V30 886 C 81.7807 5.08351 -3.40948 0
M  V30 887 N 80.9177 6.26356 -3.17211 0
M  V30 888 H 85.7577 1.86455 -2.32462 0
M  V30 889 H 83.2947 0.911176 -1.15482 0
M  V30 890 H 85.2527 4.02331 -1.10389 0
M  V30 891 H 83.8827 3.21411 -0.29908 0
M  V30 892 H 82.9347 2.7129 -2.66657 0
M  V30 893 H 84.2467 3.70765 -3.33668 0
M  V30 894 H 83.4007 5.69962 -2.07914 0
M  V30 895 H 82.1397 4.69929 -1.30454 0
M  V30 896 H 81.1447 4.19522 -3.55361 0
M  V30 897 H 82.3697 5.22981 -4.33207 0
M  V30 898 H 80.3157 6.14917 -2.28502 0
M  V30 899 H 80.2327 6.41813 -3.99515 0
M  V30 900 H 81.5007 7.16506 -3.06984 0
M  V30 901 N 85.7298 1.2412 0.971189 0
M  V30 902 C 86.9578 1.10575 1.74874 0
M  V30 903 C 87.3728 -0.342017 1.85676 0
M  V30 904 O 86.7298 -1.23617 1.34258 0
M  V30 905 C 86.7808 1.73579 3.171 0
M  V30 906 O 86.5018 3.12695 3.06844 0
M  V30 907 C 88.0028 1.65598 4.11208 0
M  V30 908 H 85.2228 0.386504 0.548503 0
M  V30 909 H 87.7668 1.64156 1.21955 0
M  V30 910 H 85.9218 1.24009 3.67016 0
M  V30 911 H 86.3358 3.43412 3.96445 0
M  V30 912 H 87.8098 2.1437 5.08674 0
M  V30 913 H 88.2868 0.616532 4.34851 0
M  V30 914 H 88.8928 2.14578 3.67201 0
M  V30 915 N 87.2079 -1.17134 1.05439 0
M  V30 916 C 88.1399 -2.2078 0.615539 0
M  V30 917 C 89.1529 -1.59584 -0.322001 0
M  V30 918 O 90.3419 -1.78133 -0.114344 0
M  V30 919 C 87.4419 -3.38691 -0.118938 0
M  V30 920 C 86.6149 -4.29454 0.829924 0
M  V30 921 C 85.6739 -5.26024 0.136258 0
M  V30 922 O 84.6999 -5.63952 0.77115 0
M  V30 923 N 85.9019 -5.69487 -1.1254 0
M  V30 924 H 88.6669 -2.59052 1.50705 0
M  V30 925 H 86.2279 -1.32058 0.936603 0
M  V30 926 H 88.2199 -4.00329 -0.593179 0
M  V30 927 H 86.7899 -2.98996 -0.91215 0
M  V30 928 H 86.0099 -3.65211 1.48373 0
M  V30 929 H 87.2979 -4.86984 1.47392 0
M  V30 930 H 86.6959 -5.4075 -1.6615 0
M  V30 931 H 85.2529 -6.33257 -1.54366 0
M  V30 932 N 88.686 -0.835752 -1.33615 0
M  V30 933 C 89.914 -0.443344 -2.02094 0
M  V30 934 C 90.329 0.954522 -1.62894 0
M  V30 935 O 89.686 1.61982 -0.840723 0
M  V30 936 C 89.737 -0.550775 -3.5728 0
M  V30 937 O 89.458 -1.89356 -3.95065 0
M  V30 938 C 90.959 -0.154919 -4.43029 0
M  V30 939 H 88.179 -0.176359 -0.647409 0
M  V30 940 H 90.723 -1.12746 -1.70612 0
M  V30 941 H 88.878 0.0853997 -3.87306 0
M  V30 942 H 89.292 -1.87687 -4.89769 0
M  V30 943 H 90.766 -0.281144 -5.51284 0
M  V30 944 H 91.243 0.902863 -4.2982 0
M  V30 945 H 91.849 -0.765404 -4.18356 0
M  V30 946 N 90.1641 1.46063 -0.591896 0
M  V30 947 C 91.0941 2.33172 0.123673 0
M  V30 948 C 92.0751 1.45897 0.87453 0
M  V30 949 O 93.2601 1.74698 0.848181 0
M  V30 950 C 90.3901 3.28336 1.13194 0
M  V30 951 C 89.3441 4.25124 0.495324 0
M  V30 952 C 88.6701 5.09863 1.61071 0
M  V30 953 C 89.9701 5.19143 -0.573425 0
M  V30 954 H 91.6641 2.93252 -0.603646 0
M  V30 955 H 89.2101 1.41014 -0.291741 0
M  V30 956 H 91.1631 3.88137 1.64097 0
M  V30 957 H 89.8871 2.66383 1.88965 0
M  V30 958 H 88.5461 3.66599 0.00729452 0
M  V30 959 H 88.1941 4.44288 2.35832 0
M  V30 960 H 87.8941 5.75417 1.19035 0
M  V30 961 H 89.4181 5.72529 2.12233 0
M  V30 962 H 90.8321 5.73106 -0.1491 0
M  V30 963 H 89.2291 5.93089 -0.914636 0
M  V30 964 H 90.2991 4.62519 -1.45617 0
M  V30 965 N 91.6422 0.330177 1.54103 0
M  V30 966 C 92.5902 -0.548226 2.26047 0
M  V30 967 C 93.5842 -1.11309 1.27698 0
M  V30 968 O 94.7902 -1.06036 1.45452 0
M  V30 969 H 91.1652 -0.195456 0.726155 0
M  V30 970 H 93.1362 0.0807567 2.98291 0
M  V30 971 C 91.8852 -1.69415 3.03634 0
M  V30 972 H 91.2082 -1.26876 3.79134 0
M  V30 973 H 92.6482 -2.28423 3.5721 0
M  V30 974 C 91.1072 -2.61569 2.12328 0
M  V30 975 O 91.6372 -3.63462 1.7105 0
M  V30 976 N 89.8432 -2.29952 1.77681 0
M  V30 977 H 89.3902 -1.47134 2.11446 0
M  V30 978 H 89.3482 -2.91871 1.16869 0
M  V30 979 N 93.1203 -1.57491 0.0584922 0
M  V30 980 C 94.3673 -1.92978 -0.613648 0
M  V30 981 C 94.6953 -0.937461 -1.70417 0
M  V30 982 O 93.9503 0.049078 -1.95638 0
M  V30 983 C 94.2493 -3.3513 -1.24188 0
M  V30 984 C 93.9153 -4.50037 -0.278826 0
M  V30 985 C 92.5773 -4.81198 -0.0138447 0
M  V30 986 C 94.9293 -5.19807 0.380777 0
M  V30 987 C 92.2573 -5.79473 0.918052 0
M  V30 988 C 94.6093 -6.19079 1.30091 0
M  V30 989 C 93.2733 -6.48665 1.57449 0
M  V30 990 H 92.5433 -0.706157 -0.22455 0
M  V30 991 H 95.1903 -1.91082 0.126533 0
M  V30 992 H 93.4953 -3.33429 -2.05749 0
M  V30 993 H 95.1923 -3.59871 -1.769 0
M  V30 994 H 91.7823 -4.25726 -0.495539 0
M  V30 995 H 95.9663 -4.95939 0.189158 0
M  V30 996 H 91.2223 -6.00727 1.1374 0
M  V30 997 H 95.3963 -6.7225 1.81804 0
M  V30 998 H 93.0233 -7.24628 2.29822 0
M  V30 999 N 94.5984 0.214957 -1.56127 0
M  V30 1000 C 95.8284 0.953707 -1.8327 0
M  V30 1001 C 96.2364 1.78181 -0.636262 0
M  V30 1002 O 95.5794 1.79191 0.404516 0
M  V30 1003 C 95.6414 1.91516 -3.0424 0
M  V30 1004 C 95.3054 1.27094 -4.38972 0
M  V30 1005 C 96.3024 0.657575 -5.15725 0
M  V30 1006 C 93.9874 1.28073 -4.85698 0
M  V30 1007 C 95.9814 0.0625968 -6.37369 0
M  V30 1008 C 93.6684 0.681914 -6.07283 0
M  V30 1009 C 94.6664 0.0739046 -6.8296 0
M  V30 1010 O 94.3544 -0.515582 -8.02245 0
M  V30 1011 H 94.0864 0.284764 -0.613095 0
M  V30 1012 H 96.6404 0.233283 -2.04071 0
M  V30 1013 H 94.8704 2.67475 -2.79274 0
M  V30 1014 H 96.5594 2.52001 -3.18198 0
M  V30 1015 H 97.3254 0.642288 -4.80728 0
M  V30 1016 H 93.2044 1.74337 -4.26764 0
M  V30 1017 H 96.7484 -0.412593 -6.96379 0
M  V30 1018 H 92.6454 0.694636 -6.41752 0
M  V30 1019 H 93.4134 -0.410544 -8.1747 0
M  V30 1020 N 96.0765 1.50051 0.48192 0
M  V30 1021 C 97.3255 1.59741 1.23149 0
M  V30 1022 C 97.6385 0.298163 1.93314 0
M  V30 1023 O 98.8445 0.273835 2.70116 0
M  V30 1024 C 97.3005 2.81926 2.23708 0
M  V30 1025 C 96.9085 4.18685 1.59396 0
M  V30 1026 C 98.6525 3.00956 2.99375 0
M  V30 1027 C 96.5595 5.3207 2.58178 0
M  V30 1028 H 95.4895 0.594838 0.46334 0
M  V30 1029 H 98.1405 1.76467 0.503169 0
M  V30 1030 H 96.5225 2.58736 2.99786 0
M  V30 1031 H 97.6965 4.52088 0.891811 0
M  V30 1032 H 96.0115 4.05171 0.960503 0
M  V30 1033 H 98.6085 3.82836 3.73283 0
M  V30 1034 H 98.9515 2.12258 3.58123 0
M  V30 1035 H 99.4845 3.24277 2.30411 0
M  V30 1036 H 96.2235 6.22888 2.04184 0
M  V30 1037 H 95.7435 5.03098 3.26577 0
M  V30 1038 H 97.4225 5.62196 3.20225 0
M  V30 1039 N 97.5546 -0.734337 1.39446 0
M  V30 1040 C 98.8036 -1.48937 1.36017 0
M  V30 1041 C 99.1166 -1.95557 -0.0409005 0
M  V30 1042 O 100.323 -2.70779 -0.19778 0
M  V30 1043 C 98.7786 -2.69125 2.38955 0
M  V30 1044 C 98.3866 -2.29452 3.8478 0
M  V30 1045 C 100.131 -3.46944 2.44603 0
M  V30 1046 C 98.0376 -3.46366 4.79358 0
M  V30 1047 H 96.9676 -0.559296 0.505672 0
M  V30 1048 H 99.6186 -0.800983 1.65095 0
M  V30 1049 H 98.0006 -3.40041 2.02948 0
M  V30 1050 H 99.1746 -1.66077 4.29831 0
M  V30 1051 H 97.4896 -1.64723 3.82433 0
M  V30 1052 H 100.087 -4.33907 3.12456 0
M  V30 1053 H 100.43 -3.89454 1.47076 0
M  V30 1054 H 100.963 -2.83056 2.79507 0
M  V30 1055 H 97.7016 -3.08905 5.78151 0
M  V30 1056 H 97.2216 -4.08719 4.38986 0
M  V30 1057 H 98.9006 -4.12691 4.98292 0
M  V30 1058 N 99.0327 -1.24633 -0.964593 0
M  V30 1059 C 99.9807 -1.03917 -2.08096 0
M  V30 1060 C 100.975 0.0268581 -1.69379 0
M  V30 1061 O 102.181 -0.127952 -1.79545 0
M  V30 1062 H 98.5557 -0.319044 -0.680966 0
M  V30 1063 H 100.527 -1.98581 -2.22729 0
M  V30 1064 C 99.2757 -0.663983 -3.41301 0
M  V30 1065 H 98.5987 -1.47605 -3.71555 0
M  V30 1066 H 100.039 -0.558663 -4.20303 0
M  V30 1067 C 98.4977 0.629169 -3.30973 0
M  V30 1068 O 99.0277 1.67404 -3.65156 0
M  V30 1069 N 97.2337 0.611057 -2.84103 0
M  V30 1070 H 96.7807 -0.239593 -2.56483 0
M  V30 1071 H 96.7387 1.47647 -2.77575 0
M  V30 1072 N 100.511 1.16574 -1.06058 0
M  V30 1073 C 101.788 1.83048 -0.689416 0
M  V30 1074 C 102.168 1.94122 0.829443 0
M  V30 1075 O 101.516 1.48249 1.7388 0
M  V30 1076 C 101.726 3.20186 -1.38859 0
M  V30 1077 C 103.074 3.95989 -1.53226 0
M  V30 1078 O 104.098 3.29696 -1.3483 0
M  V30 1079 O 102.957 5.14813 -1.83384 0
M  V30 1080 H 100.051 0.790258 -0.243764 0
M  V30 1081 H 102.597 1.23797 -1.16071 0
M  V30 1082 H 101.369 3.07146 -2.4244 0
M  V30 1083 H 100.992 3.87112 -0.907216 0
M  V30 1084 N 101.989 0.842826 1.3317 0
M  V30 1085 C 102.899 0.281444 2.32906 0
M  V30 1086 C 103.915 -0.594587 1.63526 0
M  V30 1087 O 105.091 -0.49777 1.95152 0
M  V30 1088 C 102.156 -0.530929 3.42611 0
M  V30 1089 C 101.217 0.369843 4.27704 0
M  V30 1090 C 100.45 -0.403853 5.3217 0
M  V30 1091 O 100.673 -1.63513 5.46461 0
M  V30 1092 O 99.6069 0.224199 6.01482 0
M  V30 1093 H 103.433 1.10744 2.82789 0
M  V30 1094 H 101.018 0.60545 1.36582 0
M  V30 1095 H 102.9 -0.992437 4.09547 0
M  V30 1096 H 101.575 -1.33392 2.94938 0
M  V30 1097 H 100.482 0.879275 3.6362 0
M  V30 1098 H 101.815 1.13771 4.78871 0
M  V30 1099 N 103.467 -1.45747 0.599634 0
M  V30 1100 C 104.397 -2.33235 -0.111306 0
M  V30 1101 C 105.378 -1.46359 -0.866781 0
M  V30 1102 O 106.563 -1.75146 -0.838904 0
M  V30 1103 C 103.693 -3.28932 -1.11451 0
M  V30 1104 C 102.647 -4.25381 -0.472772 0
M  V30 1105 C 101.973 -5.1071 -1.58365 0
M  V30 1106 C 103.273 -5.18831 0.600948 0
M  V30 1107 H 104.967 -2.92927 0.61919 0
M  V30 1108 H 102.513 -1.40857 0.299215 0
M  V30 1109 H 104.466 -3.89002 -1.62036 0
M  V30 1110 H 103.19 -2.67381 -1.8755 0
M  V30 1111 H 101.849 -3.66598 0.0121472 0
M  V30 1112 H 101.497 -4.45533 -2.33473 0
M  V30 1113 H 101.197 -5.7604 -1.15982 0
M  V30 1114 H 102.721 -5.73647 -2.09194 0
M  V30 1115 H 104.135 -5.73019 0.179491 0
M  V30 1116 H 102.532 -5.92595 0.946076 0
M  V30 1117 H 103.602 -4.6174 1.48068 0
M  V30 1118 N 104.945 -0.338344 -1.53925 0
M  V30 1119 C 105.895 0.536712 -2.21593 0
M  V30 1120 C 106.879 1.07015 -1.20153 0
M  V30 1121 O 108.071 1.00471 -1.45721 0
M  V30 1122 C 105.2 1.68977 -2.98834 0
M  V30 1123 C 104.286 1.17052 -4.07627 0
M  V30 1124 N 104.677 0.372085 -5.0443 0
M  V30 1125 C 102.975 1.44789 -4.21844 0
M  V30 1126 C 103.676 0.0909171 -5.81629 0
M  V30 1127 N 102.652 0.681131 -5.39316 0
M  V30 1128 H 106.454 -0.0804298 -2.9379 0
M  V30 1129 H 103.968 -0.144943 -1.61752 0
M  V30 1130 H 105.965 2.32857 -3.45808 0
M  V30 1131 H 104.625 2.31024 -2.28162 0
M  V30 1132 H 105.636 0.0136217 -5.17898 0
M  V30 1133 H 102.313 2.07313 -3.62391 0
M  V30 1134 H 103.703 -0.552817 -6.69622 0
M  V30 1135 N 106.423 1.57458 -0.0668435 0
M  V30 1136 C 107.67 1.93301 0.603406 0
M  V30 1137 C 107.998 0.946486 1.69917 0
M  V30 1138 O 107.253 -0.0387021 1.95662 0
M  V30 1139 C 107.552 3.35784 1.22409 0
M  V30 1140 C 107.218 4.50179 0.254955 0
M  V30 1141 C 105.88 4.81199 -0.0116746 0
M  V30 1142 C 108.232 5.19598 -0.408338 0
M  V30 1143 C 105.56 5.78978 -0.94877 0
M  V30 1144 C 107.912 6.18381 -1.33372 0
M  V30 1145 C 106.576 6.47821 -1.60887 0
M  V30 1146 H 105.846 0.707338 0.220802 0
M  V30 1147 H 108.493 1.91012 -0.136665 0
M  V30 1148 H 106.798 3.34515 2.03978 0
M  V30 1149 H 108.495 3.60804 1.74989 0
M  V30 1150 H 105.085 4.25983 0.472954 0
M  V30 1151 H 109.269 4.95832 -0.215456 0
M  V30 1152 H 104.525 6.00115 -1.16925 0
M  V30 1153 H 108.699 6.71277 -1.85367 0
M  V30 1154 H 106.326 7.23399 -2.33661 0
M  V30 1155 N 107.901 -0.206675 1.56239 0
M  V30 1156 C 109.147 -0.930218 1.80208 0
M  V30 1157 C 109.48 -1.83387 0.638981 0
M  V30 1158 O 108.755 -1.91119 -0.361066 0
M  V30 1159 C 109.038 -1.75641 3.1436 0
M  V30 1160 C 108.891 -0.878257 4.41142 0
M  V30 1161 C 110.21 -2.73129 3.45092 0
M  V30 1162 H 107.329 -0.336742 0.655571 0
M  V30 1163 H 109.971 -0.198222 1.88963 0
M  V30 1164 H 108.121 -2.38048 3.07027 0
M  V30 1165 H 109.793 -0.269787 4.6051 0
M  V30 1166 H 108.036 -0.184385 4.33408 0
M  V30 1167 H 108.707 -1.49106 5.3148 0
M  V30 1168 H 111.183 -2.20856 3.52649 0
M  V30 1169 H 110.059 -3.28028 4.40101 0
M  V30 1170 H 110.32 -3.51606 2.68003 0
M  V30 1171 N 109.379 -1.50304 -0.473955 0
M  V30 1172 C 110.656 -1.51667 -1.23518 0
M  V30 1173 C 111.036 -0.259701 -2.09496 0
M  V30 1174 O 110.384 0.756986 -2.15597 0
M  V30 1175 C 110.594 -2.81082 -2.06868 0
M  V30 1176 C 111.942 -3.31631 -2.65153 0
M  V30 1177 O 112.966 -2.82384 -2.17113 0
M  V30 1178 O 111.825 -4.17471 -3.52675 0
M  V30 1179 H 108.919 -0.60822 -0.560355 0
M  V30 1180 H 111.465 -1.62592 -0.486011 0
M  V30 1181 H 110.237 -3.64041 -1.4349 0
M  V30 1182 H 109.86 -2.73146 -2.88924 0
M  V30 1183 N 110.857 0.726932 -1.39834 0
M  V30 1184 C 112.103 1.48884 -1.377 0
M  V30 1185 C 112.436 1.94185 0.0244852 0
M  V30 1186 O 111.711 1.67361 0.990986 0
M  V30 1187 C 111.994 2.72288 -2.3565 0
M  V30 1188 C 111.847 2.32956 -3.84775 0
M  V30 1189 C 113.166 3.74414 -2.31306 0
M  V30 1190 H 110.285 0.540062 -0.5015 0
M  V30 1191 H 112.927 0.830547 -1.70886 0
M  V30 1192 H 111.077 3.28457 -2.07481 0
M  V30 1193 H 112.749 1.82356 -4.23726 0
M  V30 1194 H 110.992 1.65088 -4.01159 0
M  V30 1195 H 111.663 3.21362 -4.4881 0
M  V30 1196 H 114.139 3.27849 -2.56231 0
M  V30 1197 H 113.015 4.58414 -3.01907 0
M  V30 1198 H 113.276 4.21909 -1.32081 0
M  V30 1199 N 112.336 1.25143 0.95797 0
M  V30 1200 C 113.747 1.08851 1.51685 0
M  V30 1201 C 114.098 -0.33687 1.93286 0
M  V30 1202 O 113.223 -1.22644 1.7829 0
M  V30 1203 C 113.818 1.96978 2.75654 0
M  V30 1204 C 112.377 1.84881 3.27866 0
M  V30 1205 C 111.524 1.91329 2.0072 0
M  V30 1206 H 114.475 1.38478 0.77522 0
M  V30 1207 H 114.496 1.5078 3.4935 0
M  V30 1208 H 114.008 3.00712 2.45345 0
M  V30 1209 H 112.109 0.840182 3.63004 0
M  V30 1210 H 112.222 2.6951 3.96107 0
M  V30 1211 H 110.586 1.35174 2.15871 0
M  V30 1212 H 111.369 2.96661 1.72764 0
M  V30 1213 N 113.814 -1.1601 1.06675 0
M  V30 1214 C 115.062 -1.86264 0.784229 0
M  V30 1215 C 115.383 -1.82328 -0.691488 0
M  V30 1216 O 114.653 -1.25947 -1.50047 0
M  V30 1217 H 113.233 -0.689621 0.28711 0
M  V30 1218 H 115.895 -1.40664 1.34906 0
M  V30 1219 H 114.991 -2.91595 1.11259 0
M  V30 1220 N 115.292 -0.849877 -1.32721 0
M  V30 1221 C 116.522 -0.46408 -2.0132 0
M  V30 1222 C 116.93 0.94246 -1.64056 0
M  V30 1223 O 116.273 1.6257 -0.855379 0
M  V30 1224 C 116.335 -0.517887 -3.5575 0
M  V30 1225 C 115.999 -1.88248 -4.16427 0
M  V30 1226 C 116.996 -2.84726 -4.35002 0
M  V30 1227 C 114.681 -2.17832 -4.52609 0
M  V30 1228 C 116.675 -4.08945 -4.8892 0
M  V30 1229 C 114.362 -3.42304 -5.06232 0
M  V30 1230 C 115.36 -4.37677 -5.24335 0
M  V30 1231 O 115.048 -5.59946 -5.76815 0
M  V30 1232 H 114.78 -0.181327 -0.651227 0
M  V30 1233 H 117.334 -1.14713 -1.70382 0
M  V30 1234 H 115.564 0.221997 -3.86062 0
M  V30 1235 H 117.253 -0.148366 -4.05629 0
M  V30 1236 H 118.019 -2.63174 -4.07388 0
M  V30 1237 H 113.898 -1.44385 -4.37806 0
M  V30 1238 H 117.442 -4.83396 -5.02966 0
M  V30 1239 H 113.339 -3.63709 -5.33278 0
M  V30 1240 H 114.107 -5.61838 -5.95214 0
M  V30 1241 N 116.77 1.45427 -0.607355 0
M  V30 1242 C 118.018 2.01841 -0.102253 0
M  V30 1243 C 118.339 1.47832 1.27164 0
M  V30 1244 O 117.609 0.672497 1.83995 0
M  V30 1245 H 116.189 0.746188 -0.0348101 0
M  V30 1246 H 118.851 1.78229 -0.7887 0
M  V30 1247 H 117.947 3.12057 -0.0518585 0
M  V30 1248 N 118.248 0.346503 1.53744 0
M  V30 1249 C 119.495 -0.249104 2.00962 0
M  V30 1250 C 119.823 -1.5032 1.23426 0
M  V30 1251 O 119.078 -1.93217 0.310761 0
M  V30 1252 C 119.377 -0.605809 3.52228 0
M  V30 1253 C 119.043 0.551747 4.47512 0
M  V30 1254 C 117.705 0.86941 4.73281 0
M  V30 1255 C 120.057 1.32818 5.03993 0
M  V30 1256 C 117.385 1.96582 5.52786 0
M  V30 1257 C 119.737 2.41486 5.84694 0
M  V30 1258 C 118.401 2.73808 6.08757 0
M  V30 1259 H 117.671 -0.0911538 0.735372 0
M  V30 1260 H 120.318 0.475027 1.85515 0
M  V30 1261 H 118.623 -1.4107 3.65522 0
M  V30 1262 H 120.32 -1.07858 3.86222 0
M  V30 1263 H 116.91 0.294102 4.2759 0
M  V30 1264 H 121.094 1.09602 4.84047 0
M  V30 1265 H 116.35 2.22045 5.69654 0
M  V30 1266 H 120.524 3.02078 6.27473 0
M  V30 1267 H 118.151 3.58892 6.7015 0
M  V30 1268 N 119.726 -1.57421 0.075193 0
M  V30 1269 C 120.689 -2.11791 -0.876203 0
M  V30 1270 C 121.689 -1.04268 -1.22412 0
M  V30 1271 O 122.879 -1.30242 -1.15684 0
M  V30 1272 C 120.011 -2.62207 -2.17854 0
M  V30 1273 H 121.204 -2.9716 -0.40444 0
M  V30 1274 H 118.757 -1.55333 -0.173557 0
M  V30 1275 H 119.492 -1.803 -2.6956 0
M  V30 1276 H 119.277 -3.40802 -1.93897 0
M  V30 1277 H 120.767 -3.04335 -2.85955 0
M  V30 1278 N 121.204 0.198386 -1.56346 0
M  V30 1279 C 122.151 1.24589 -1.94284 0
M  V30 1280 C 123.121 1.454 -0.802997 0
M  V30 1281 O 124.306 1.58588 -1.06087 0
M  V30 1282 C 121.446 2.58631 -2.28482 0
M  V30 1283 C 120.559 2.45426 -3.55514 0
M  V30 1284 C 119.694 3.7215 -3.79049 0
M  V30 1285 C 118.733 3.53763 -4.99518 0
M  V30 1286 N 117.87 4.72491 -5.19323 0
M  V30 1287 H 122.71 0.915356 -2.83593 0
M  V30 1288 H 120.247 0.440629 -1.40346 0
M  V30 1289 H 122.205 3.3672 -2.46324 0
M  V30 1290 H 120.835 2.89734 -1.42317 0
M  V30 1291 H 119.887 1.58652 -3.45737 0
M  V30 1292 H 121.199 2.27772 -4.43758 0
M  V30 1293 H 120.353 4.58679 -3.97113 0
M  V30 1294 H 119.092 3.92754 -2.89129 0
M  V30 1295 H 118.097 2.65619 -4.8138 0
M  V30 1296 H 119.322 3.34607 -5.90944 0
M  V30 1297 H 117.268 4.93365 -4.3235 0
M  V30 1298 H 117.185 4.5765 -6.01741 0
M  V30 1299 H 118.453 5.6038 -5.41843 0
M  V30 1300 N 122.682 1.50554 0.465978 0
M  V30 1301 C 123.928 1.62038 1.21949 0
M  V30 1302 C 124.261 0.322116 1.9151 0
M  V30 1303 O 123.536 -0.676723 1.82348 0
M  V30 1304 C 123.819 2.80421 2.25912 0
M  V30 1305 C 123.672 4.20144 1.60622 0
M  V30 1306 C 124.991 2.94354 3.27176 0
M  V30 1307 H 122.11 0.589752 0.441998 0
M  V30 1308 H 124.752 1.82956 0.51257 0
M  V30 1309 H 122.902 2.62717 2.86203 0
M  V30 1310 H 124.574 4.49449 1.03889 0
M  V30 1311 H 122.817 4.24165 0.909211 0
M  V30 1312 H 123.488 4.98914 2.36196 0
M  V30 1313 H 125.964 3.10578 2.76913 0
M  V30 1314 H 124.84 3.788 3.97242 0
M  V30 1315 H 125.101 2.05186 3.916 0
M  V30 1316 N 124.16 -0.719506 1.40217 0
M  V30 1317 C 125.385 -1.51371 1.4178 0
M  V30 1318 C 125.81 -1.88091 0.0182355 0
M  V30 1319 O 125.168 -1.52997 -0.972707 0
M  V30 1320 C 125.216 -2.768 2.31115 0
M  V30 1321 O 124.32 -3.73349 1.7517 0
M  V30 1322 H 123.661 -0.456529 0.482159 0
M  V30 1323 H 126.191 -0.88644 1.844 0
M  V30 1324 H 126.201 -3.25371 2.46167 0
M  V30 1325 H 124.876 -2.49407 3.3282 0
M  V30 1326 H 123.453 -3.32179 1.69444 0
M  V30 1327 N 125.638 -1.25649 -0.95132 0
M  V30 1328 C 126.585 -1.06323 -2.04851 0
M  V30 1329 C 127.555 0.0286491 -1.66075 0
M  V30 1330 O 128.74 -0.12917 -1.90362 0
M  V30 1331 C 125.88 -0.691529 -3.381 0
M  V30 1332 C 124.993 -1.85861 -3.89974 0
M  V30 1333 C 124.128 -1.43096 -5.11563 0
M  V30 1334 C 123.167 -2.56696 -5.55674 0
M  V30 1335 N 122.304 -2.14684 -6.68472 0
M  V30 1336 H 127.144 -2.00222 -2.20715 0
M  V30 1337 H 124.681 -0.997027 -1.08156 0
M  V30 1338 H 126.639 -0.456963 -4.1469 0
M  V30 1339 H 125.269 0.210474 -3.22113 0
M  V30 1340 H 124.321 -2.20639 -3.09875 0
M  V30 1341 H 125.633 -2.71161 -4.18657 0
M  V30 1342 H 124.787 -1.15624 -5.9558 0
M  V30 1343 H 123.526 -0.548722 -4.84603 0
M  V30 1344 H 122.531 -2.84909 -4.7022 0
M  V30 1345 H 123.756 -3.45503 -5.8464 0
M  V30 1346 H 121.702 -1.28881 -6.43215 0
M  V30 1347 H 121.619 -2.9353 -6.96689 0
M  V30 1348 H 122.887 -1.90397 -7.5589 0
M  V30 1349 N 127.117 1.15442 -1.07289 0
M  V30 1350 C 128.342 1.90638 -0.816828 0
M  V30 1351 C 128.767 1.77445 0.624083 0
M  V30 1352 O 128.125 1.10671 1.43602 0
M  V30 1353 C 128.173 3.39008 -1.22906 0
M  V30 1354 O 127.277 4.10701 -0.373975 0
M  V30 1355 H 126.618 0.593555 -0.297638 0
M  V30 1356 H 129.148 1.46198 -1.43134 0
M  V30 1357 H 129.158 3.89801 -1.20497 0
M  V30 1358 H 127.833 3.47929 -2.27856 0
M  V30 1359 H 126.41 3.70046 -0.460499 0
M  V30 1360 N 128.595 0.856903 1.32268 0
M  V30 1361 C 129.505 0.306131 2.32594 0
M  V30 1362 C 130.521 -0.577209 1.64147 0
M  V30 1363 O 131.697 -0.477043 1.95669 0
M  V30 1364 C 128.762 -0.494561 3.43154 0
M  V30 1365 C 127.823 0.415186 4.27288 0
M  V30 1366 C 127.056 -0.347387 5.32568 0
M  V30 1367 O 127.279 -1.57708 5.48165 0
M  V30 1368 O 126.213 0.287982 6.01211 0
M  V30 1369 H 130.039 1.13737 2.81598 0
M  V30 1370 H 127.624 0.619902 1.35932 0
M  V30 1371 H 129.506 -0.948944 4.10576 0
M  V30 1372 H 128.181 -1.30257 2.96336 0
M  V30 1373 H 127.088 0.917793 3.62667 0
M  V30 1374 H 128.421 1.18844 4.77637 0
M  V30 1375 N 130.073 -1.45103 0.615059 0
M  V30 1376 C 131.489 -1.57137 0.279322 0
M  V30 1377 C 131.689 -1.60523 -1.21797 0
M  V30 1378 O 130.745 -1.53956 -2.00134 0
M  V30 1379 C 132.058 -2.85062 0.957083 0
M  V30 1380 C 133.606 -2.98749 0.933706 0
M  V30 1381 C 134.081 -4.29455 1.59162 0
M  V30 1382 N 135.572 -4.36231 1.55746 0
M  V30 1383 C 136.307 -5.36051 2.0356 0
M  V30 1384 N 135.803 -6.42367 2.59494 0
M  V30 1385 N 137.596 -5.27456 1.94284 0
M  V30 1386 H 129.747 -1.41148 1.58717 0
M  V30 1387 H 132.01 -0.675331 0.665306 0
M  V30 1388 H 131.716 -2.88488 2.01166 0
M  V30 1389 H 131.59 -3.7407 0.48494 0
M  V30 1390 H 133.977 -2.94886 -0.112347 0
M  V30 1391 H 134.058 -2.11132 1.44419 0
M  V30 1392 H 133.702 -4.34077 2.63704 0
M  V30 1393 H 133.632 -5.15901 1.0561 0
M  V30 1394 H 136.123 -3.60011 1.14893 0
M  V30 1395 H 136.436 -7.14793 2.93752 0
M  V30 1396 H 134.781 -6.43097 2.63537 0
M  V30 1397 H 137.972 -4.43308 1.5032 0
M  V30 1398 H 138.145 -6.05099 2.3186 0
M  V30 1399 N 131.551 -0.354651 -1.53558 0
M  V30 1400 C 132.461 0.50515 -2.29097 0
M  V30 1401 C 133.477 1.10223 -1.34636 0
M  V30 1402 O 134.653 1.11553 -1.67684 0
M  V30 1403 C 131.718 1.63479 -3.05738 0
M  V30 1404 C 130.779 1.06636 -4.15845 0
M  V30 1405 C 130.012 2.14217 -4.88822 0
M  V30 1406 O 130.235 3.35137 -4.61562 0
M  V30 1407 O 129.169 1.77887 -5.75013 0
M  V30 1408 H 132.995 -0.109237 -3.03503 0
M  V30 1409 H 130.58 -0.119357 -1.48922 0
M  V30 1410 H 132.462 2.2918 -3.5363 0
M  V30 1411 H 131.137 2.23478 -2.34178 0
M  V30 1412 H 130.044 0.373565 -3.7223 0
M  V30 1413 H 131.377 0.511081 -4.89539 0
M  V30 1414 N 133.029 1.57378 -0.0835403 0
M  V30 1415 C 133.992 2.12252 0.864959 0
M  V30 1416 C 134.992 1.04916 1.21858 0
M  V30 1417 O 136.182 1.30853 1.14991 0
M  V30 1418 C 133.314 2.63358 2.16461 0
M  V30 1419 H 134.507 2.97371 0.388676 0
M  V30 1420 H 132.06 1.55423 0.165317 0
M  V30 1421 H 132.795 1.81727 2.686 0
M  V30 1422 H 132.58 3.41826 1.92087 0
M  V30 1423 H 134.07 3.05847 2.84337 0
M  V30 1424 N 134.507 -0.190092 1.56449 0
M  V30 1425 C 135.753 -0.906472 1.82084 0
M  V30 1426 C 136.108 -1.80677 0.661335 0
M  V30 1427 O 135.401 -1.88501 -0.343237 0
M  V30 1428 C 135.595 -1.75382 3.1141 0
M  V30 1429 C 135.424 -0.937053 4.39829 0
M  V30 1430 C 134.194 -0.619507 5.01488 0
M  V30 1431 C 136.392 -0.2874 5.13496 0
M  V30 1432 N 134.374 0.215367 6.13522 0
M  V30 1433 C 135.745 0.409454 6.18646 0
M  V30 1434 C 137.8 -0.203639 4.97483 0
M  V30 1435 C 136.503 1.1821 7.0952 0
M  V30 1436 C 138.529 0.555622 5.88784 0
M  V30 1437 C 137.891 1.24091 6.93384 0
M  V30 1438 H 133.99 -0.310931 0.717528 0
M  V30 1439 H 136.574 -0.174821 1.93914 0
M  V30 1440 H 134.745 -2.45703 3.00806 0
M  V30 1441 H 136.477 -2.41006 3.25112 0
M  V30 1442 H 133.232 -0.945126 4.64074 0
M  V30 1443 H 133.656 0.622562 6.74131 0
M  V30 1444 H 138.298 -0.719099 4.1664 0
M  V30 1445 H 136.016 1.70897 7.89823 0
M  V30 1446 H 139.602 0.621854 5.78467 0
M  V30 1447 H 138.482 1.81901 7.62812 0
M  V30 1448 N 135.985 -1.50799 -0.457987 0
M  V30 1449 C 137.233 -1.62121 -1.2067 0
M  V30 1450 C 137.554 -0.329793 -1.92191 0
M  V30 1451 O 136.824 0.653409 -1.84682 0
M  V30 1452 H 135.404 -0.597441 -0.448411 0
M  V30 1453 H 138.066 -1.87637 -0.527096 0
M  V30 1454 H 137.162 -2.43882 -1.94751 0
M  V30 1455 N 137.463 0.71206 -1.40597 0
M  V30 1456 C 138.879 1.02058 -1.22704 0
M  V30 1457 C 139.079 2.01228 -0.104729 0
M  V30 1458 O 138.135 2.4674 0.53624 0
M  V30 1459 C 139.448 1.56094 -2.57012 0
M  V30 1460 C 140.996 1.6806 -2.64054 0
M  V30 1461 C 141.471 2.25501 -3.9864 0
M  V30 1462 N 142.962 2.32882 -4.004 0
M  V30 1463 C 143.697 2.78317 -5.01325 0
M  V30 1464 N 143.193 3.23478 -6.12645 0
M  V30 1465 N 144.986 2.77733 -4.88693 0
M  V30 1466 H 137.137 0.0547896 -2.12329 0
M  V30 1467 H 139.4 0.0869027 -0.944008 0
M  V30 1468 H 139.106 0.906865 -3.39807 0
M  V30 1469 H 138.98 2.54564 -2.78347 0
M  V30 1470 H 141.367 2.32583 -1.81629 0
M  V30 1471 H 141.448 0.681802 -2.46546 0
M  V30 1472 H 141.092 1.61598 -4.81506 0
M  V30 1473 H 141.022 3.26102 -4.13479 0
M  V30 1474 H 143.513 2.00991 -3.20017 0
M  V30 1475 H 143.826 3.56725 -6.85542 0
M  V30 1476 H 142.171 3.21429 -6.16205 0
M  V30 1477 H 145.362 2.4179 -4.00818 0
M  V30 1478 H 145.535 3.12826 -5.67489 0
M  V30 1479 N 138.941 1.26152 0.944643 0
M  V30 1480 C 139.874 1.01729 2.04271 0
M  V30 1481 C 140.852 -0.0568101 1.62501 0
M  V30 1482 O 142.036 0.0848987 1.88309 0
M  V30 1483 C 139.163 0.539792 3.34371 0
M  V30 1484 C 138.209 1.60593 3.9511 0
M  V30 1485 S 139.042 3.19392 4.29825 0
M  V30 1486 C 140.198 2.73402 5.63029 0
M  V30 1487 H 140.431 1.94703 2.24673 0
M  V30 1488 H 137.964 1.09793 1.08558 0
M  V30 1489 H 139.922 0.270956 4.09605 0
M  V30 1490 H 138.583 -0.369609 3.11918 0
M  V30 1491 H 137.776 1.22275 4.88943 0
M  V30 1492 H 137.378 1.82596 3.26397 0
M  V30 1493 H 139.67 2.1765 6.41588 0
M  V30 1494 H 140.613 3.65913 6.06229 0
M  V30 1495 H 141.021 2.13077 5.22741 0
M  V30 1496 N 140.419 -1.14872 1.07899 0
M  V30 1497 C 141.668 -1.85135 0.800499 0
M  V30 1498 C 141.981 -1.83547 -0.676014 0
M  V30 1499 O 143.187 -2.49548 -1.06948 0
M  V30 1500 C 141.643 -3.3231 1.38197 0
M  V30 1501 C 141.251 -3.42329 2.8899 0
M  V30 1502 C 142.995 -4.0772 1.18174 0
M  V30 1503 C 140.902 -4.83684 3.403 0
M  V30 1504 H 139.832 -0.693563 0.29578 0
M  V30 1505 H 142.483 -1.29532 1.29976 0
M  V30 1506 H 140.865 -3.87618 0.810431 0
M  V30 1507 H 142.039 -2.97097 3.52236 0
M  V30 1508 H 140.354 -2.80369 3.07867 0
M  V30 1509 H 142.951 -5.12049 1.5398 0
M  V30 1510 H 143.294 -4.16124 0.12117 0
M  V30 1511 H 143.827 -3.58696 1.71994 0
M  V30 1512 H 140.566 -4.80465 4.45907 0
M  V30 1513 H 140.086 -5.29474 2.81811 0
M  V30 1514 H 141.765 -5.52558 3.36584 0
M  V30 1515 N 141.898 -0.863906 -1.31812 0
M  V30 1516 C 142.808 -0.318461 -2.32428 0
M  V30 1517 C 143.824 0.568496 -1.64451 0
M  V30 1518 O 145 0.46666 -1.95919 0
M  V30 1519 C 142.065 0.476355 -3.43412 0
M  V30 1520 C 141.126 -0.43784 -4.27061 0
M  V30 1521 C 140.359 0.319138 -5.32745 0
M  V30 1522 O 140.582 1.54799 -5.48993 0
M  V30 1523 O 139.516 -0.319861 -6.01049 0
M  V30 1524 H 143.342 -1.15229 -2.80991 0
M  V30 1525 H 140.927 -0.627103 -1.35602 0
M  V30 1526 H 142.809 0.927156 -4.11074 0
M  V30 1527 H 141.484 1.28683 -2.97022 0
M  V30 1528 H 140.391 -0.937013 -3.62175 0
M  V30 1529 H 141.724 -1.21375 -4.77 0
M  V30 1530 N 143.376 1.44774 -0.622745 0
M  V30 1531 C 144.604 2.06487 -0.130722 0
M  V30 1532 C 145.019 1.46476 1.19123 0
M  V30 1533 O 144.376 0.584502 1.72887 0
M  V30 1534 C 144.427 3.615 -0.000807207 0
M  V30 1535 O 144.148 4.19274 -1.27048 0
M  V30 1536 C 145.649 4.40229 0.520898 0
M  V30 1537 H 142.869 0.666704 -0.0758106 0
M  V30 1538 H 145.413 1.85779 -0.854774 0
M  V30 1539 H 143.568 3.81498 0.673643 0
M  V30 1540 H 143.982 5.12622 -1.1099 0
M  V30 1541 H 145.456 5.49144 0.560838 0
M  V30 1542 H 145.933 4.1108 1.54627 0
M  V30 1543 H 146.539 4.25131 -0.120018 0
M  V30 1544 N 144.854 0.36279 1.53368 0
M  V30 1545 C 146.084 -0.228281 2.05335 0
M  V30 1546 C 146.492 -1.43226 1.23625 0
M  V30 1547 O 145.835 -1.81717 0.269206 0
M  V30 1548 C 145.897 -0.688549 3.52845 0
M  V30 1549 C 145.561 0.398362 4.5526 0
M  V30 1550 C 146.558 1.24732 5.04716 0
M  V30 1551 C 144.243 0.557805 4.99193 0
M  V30 1552 C 146.237 2.2411 5.96702 0
M  V30 1553 C 143.924 1.55495 5.90986 0
M  V30 1554 C 144.922 2.39503 6.39631 0
M  V30 1555 O 144.61 3.37517 7.29615 0
M  V30 1556 H 144.342 -0.044395 0.674541 0
M  V30 1557 H 146.896 0.518668 1.98744 0
M  V30 1558 H 145.126 -1.48706 3.56964 0
M  V30 1559 H 146.815 -1.20231 3.87685 0
M  V30 1560 H 147.581 1.13532 4.71525 0
M  V30 1561 H 143.46 -0.0862959 4.60919 0
M  V30 1562 H 147.004 2.89718 6.34594 0
M  V30 1563 H 142.901 1.66744 6.23592 0
M  V30 1564 H 143.669 3.33213 7.47604 0
M  V30 1565 N 146.332 -1.57332 0.0918853 0
M  V30 1566 C 147.581 -1.93412 -0.572249 0
M  V30 1567 C 147.894 -0.975515 -1.69538 0
M  V30 1568 O 149.1 -1.22991 -2.42045 0
M  V30 1569 C 147.556 -3.43648 -1.0693 0
M  V30 1570 C 147.164 -4.47994 0.0239049 0
M  V30 1571 C 148.908 -3.88695 -1.70635 0
M  V30 1572 C 146.815 -5.89381 -0.488319 0
M  V30 1573 H 145.745 -0.721939 -0.217532 0
M  V30 1574 H 148.396 -1.82735 0.167369 0
M  V30 1575 H 146.778 -3.49466 -1.8625 0
M  V30 1576 H 147.952 -4.53815 0.799277 0
M  V30 1577 H 146.267 -4.12536 0.565946 0
M  V30 1578 H 148.864 -4.91725 -2.10025 0
M  V30 1579 H 149.207 -3.27166 -2.57426 0
M  V30 1580 H 149.74 -3.85564 -0.979023 0
M  V30 1581 H 146.479 -6.54602 0.342906 0
M  V30 1582 H 145.999 -5.87037 -1.23077 0
M  V30 1583 H 147.678 -6.39863 -0.958317 0
M  V30 1584 N 147.81 0.181792 -1.56548 0
M  V30 1585 C 149.038 0.915947 -1.85521 0
M  V30 1586 C 149.453 1.76282 -0.676016 0
M  V30 1587 O 148.81 1.79012 0.355077 0
M  V30 1588 C 148.861 1.80126 -3.13427 0
M  V30 1589 O 148.582 0.988562 -4.26801 0
M  V30 1590 C 150.083 2.64597 -3.55673 0
M  V30 1591 H 147.303 0.26661 -0.61576 0
M  V30 1592 H 149.847 0.185039 -2.03661 0
M  V30 1593 H 148.002 2.48563 -2.97145 0
M  V30 1594 H 148.416 1.59308 -4.99721 0
M  V30 1595 H 149.89 3.2235 -4.48101 0
M  V30 1596 H 150.367 3.38958 -2.79292 0
M  V30 1597 H 150.973 2.0151 -3.74532 0
M  V30 1598 N 149.288 1.51039 0.449983 0
M  V30 1599 C 150.516 1.66869 1.2232 0
M  V30 1600 C 150.931 0.360727 1.85322 0
M  V30 1601 O 150.288 -0.659531 1.70166 0
M  V30 1602 C 150.339 2.77524 2.31652 0
M  V30 1603 O 150.06 4.03252 1.7123 0
M  V30 1604 C 151.561 3.04512 3.2216 0
M  V30 1605 H 148.781 0.560326 0.369155 0
M  V30 1606 H 151.325 1.97385 0.534719 0
M  V30 1607 H 149.48 2.49642 2.96239 0
M  V30 1608 H 149.894 4.64609 2.43389 0
M  V30 1609 H 151.368 3.85551 3.95038 0
M  V30 1610 H 151.845 2.16415 3.8218 0
M  V30 1611 H 152.451 3.34005 2.63288 0
M  V30 1612 N 150.766 -0.704594 1.40972 0
M  V30 1613 C 152.182 -1.01406 1.23244 0
M  V30 1614 C 152.382 -2.01169 0.115399 0
M  V30 1615 O 151.438 -2.47021 -0.523147 0
M  V30 1616 C 152.751 -1.54728 2.57836 0
M  V30 1617 C 154.299 -1.66658 2.64942 0
M  V30 1618 C 154.774 -2.23383 3.9983 0
M  V30 1619 N 156.265 -2.30756 4.01629 0
M  V30 1620 C 157 -2.75655 5.02794 0
M  V30 1621 N 156.496 -3.20225 6.14352 0
M  V30 1622 N 158.289 -2.75138 4.90159 0
M  V30 1623 H 150.44 -0.0435285 2.12355 0
M  V30 1624 H 152.703 -0.0818951 0.944456 0
M  V30 1625 H 152.409 -0.888832 3.40283 0
M  V30 1626 H 152.283 -2.53084 2.79693 0
M  V30 1627 H 154.67 -2.31617 1.8286 0
M  V30 1628 H 154.751 -0.668717 2.46904 0
M  V30 1629 H 154.395 -1.59043 4.82357 0
M  V30 1630 H 154.325 -3.23904 4.15203 0
M  V30 1631 H 156.816 -1.99291 3.21079 0
M  V30 1632 H 157.129 -3.53084 6.87424 0
M  V30 1633 H 155.474 -3.18156 6.17901 0
M  V30 1634 H 158.665 -2.39661 4.02095 0
M  V30 1635 H 158.838 -3.09812 5.6914 0
M  V30 1636 N 152.244 -1.26651 -0.937939 0
M  V30 1637 C 153.154 -1.10276 -2.07066 0
M  V30 1638 C 154.17 -0.0354197 -1.73964 0
M  V30 1639 O 155.346 -0.239816 -1.99967 0
M  V30 1640 C 152.411 -0.740887 -3.38691 0
M  V30 1641 C 151.472 -1.88799 -3.85556 0
M  V30 1642 C 150.705 -1.54329 -5.10899 0
M  V30 1643 O 150.928 -0.446494 -5.6865 0
M  V30 1644 O 149.862 -2.37911 -5.52885 0
M  V30 1645 H 153.688 -2.05309 -2.23789 0
M  V30 1646 H 151.273 -1.05743 -1.0554 0
M  V30 1647 H 153.155 -0.55195 -4.1777 0
M  V30 1648 H 151.83 0.180022 -3.23199 0
M  V30 1649 H 150.737 -2.13191 -3.07409 0
M  V30 1650 H 152.07 -2.78874 -4.05574 0
M  V30 1651 N 153.722 1.14298 -1.08507 0
M  V30 1652 C 154.632 2.23027 -0.727753 0
M  V30 1653 C 155.648 1.71952 0.26619 0
M  V30 1654 O 156.824 2.011 0.109882 0
M  V30 1655 C 153.889 3.46403 -0.143541 0
M  V30 1656 C 152.95 4.12413 -1.19223 0
M  V30 1657 C 152.183 5.29899 -0.635798 0
M  V30 1658 O 152.406 5.67796 0.544393 0
M  V30 1659 O 151.34 5.85717 -1.38634 0
M  V30 1660 H 155.166 2.55945 -1.63481 0
M  V30 1661 H 152.751 1.22248 -0.858817 0
M  V30 1662 H 154.633 4.21018 0.179404 0
M  V30 1663 H 153.308 3.15206 0.736659 0
M  V30 1664 H 152.215 3.39667 -1.56772 0
M  V30 1665 H 153.548 4.47718 -2.04474 0
M  V30 1666 N 155.201 0.870884 1.31352 0
M  V30 1667 C 156.131 0.343096 2.30966 0
M  V30 1668 C 157.112 -0.566507 1.60389 0
M  V30 1669 O 158.297 -0.483336 1.88089 0
M  V30 1670 C 155.427 -0.455487 3.443 0
M  V30 1671 C 154.381 0.361103 4.26474 0
M  V30 1672 C 153.707 -0.563221 5.31725 0
M  V30 1673 C 155.007 1.59566 4.97329 0
M  V30 1674 H 156.701 1.17548 2.75359 0
M  V30 1675 H 154.247 0.566686 1.32381 0
M  V30 1676 H 156.2 -0.83525 4.13039 0
M  V30 1677 H 154.924 -1.32139 2.98675 0
M  V30 1678 H 153.583 0.722825 3.59403 0
M  V30 1679 H 153.231 -1.42643 4.82351 0
M  V30 1680 H 152.931 -0.0207409 5.87596 0
M  V30 1681 H 154.455 -0.939808 6.03324 0
M  V30 1682 H 155.869 1.28728 5.58661 0
M  V30 1683 H 154.266 2.07728 5.63 0
M  V30 1684 H 155.336 2.34798 4.24262 0
M  V30 1685 N 156.679 -1.44442 0.630414 0
M  V30 1686 C 157.626 -2.30678 -0.0749355 0
M  V30 1687 C 158.596 -1.4344 -0.837502 0
M  V30 1688 O 159.781 -1.72343 -0.818684 0
M  V30 1689 C 156.921 -3.28706 -1.05103 0
M  V30 1690 C 156.034 -4.31046 -0.286954 0
M  V30 1691 C 155.169 -5.16167 -1.2548 0
M  V30 1692 C 154.208 -6.10216 -0.479843 0
M  V30 1693 N 153.345 -6.88039 -1.39811 0
M  V30 1694 H 158.185 -2.90454 0.666386 0
M  V30 1695 H 155.722 -1.43107 0.340404 0
M  V30 1696 H 157.68 -3.84027 -1.63031 0
M  V30 1697 H 156.31 -2.70632 -1.75949 0
M  V30 1698 H 155.362 -3.78203 0.408243 0
M  V30 1699 H 156.674 -4.97794 0.316657 0
M  V30 1700 H 155.828 -5.76002 -1.90544 0
M  V30 1701 H 154.567 -4.49491 -1.89233 0
M  V30 1702 H 153.572 -5.49491 0.184295 0
M  V30 1703 H 154.797 -6.78928 0.152965 0
M  V30 1704 H 152.743 -6.24032 -2.02287 0
M  V30 1705 H 152.66 -7.51223 -0.848508 0
M  V30 1706 H 153.928 -7.52397 -2.03762 0
M  V30 1707 N 158.157 -0.370918 -1.53173 0
M  V30 1708 C 159.12 0.460778 -2.24521 0
M  V30 1709 C 160.12 1.00536 -1.25496 0
M  V30 1710 O 161.31 0.890266 -1.49733 0
M  V30 1711 C 158.442 1.64457 -2.98608 0
M  V30 1712 H 159.635 -0.163613 -2.99453 0
M  V30 1713 H 157.188 -0.122699 -1.55818 0
M  V30 1714 H 157.923 2.30691 -2.2793 0
M  V30 1715 H 157.708 1.26099 -3.7127 0
M  V30 1716 H 159.198 2.23384 -3.5283 0
M  V30 1717 N 159.635 1.57281 -0.100228 0
M  V30 1718 C 160.881 1.94826 0.563101 0
M  V30 1719 C 161.214 0.982475 1.67514 0
M  V30 1720 O 160.489 0.0164069 1.94493 0
M  V30 1721 C 160.772 3.42453 1.11346 0
M  V30 1722 C 160.625 4.498 0.00612081 0
M  V30 1723 C 161.944 3.91506 2.01024 0
M  V30 1724 H 159.063 0.708428 0.203221 0
M  V30 1725 H 161.705 1.8922 -0.171979 0
M  V30 1726 H 159.855 3.47361 1.7399 0
M  V30 1727 H 161.527 4.57 -0.628357 0
M  V30 1728 H 159.77 4.28756 -0.659581 0
M  V30 1729 H 160.441 5.50306 0.432109 0
M  V30 1730 H 162.917 3.88784 1.48278 0
M  V30 1731 H 161.793 4.95358 2.36457 0
M  V30 1732 H 162.054 3.31099 2.92961 0
M  V30 1733 N 161.113 -0.173488 1.56642 0
M  V30 1734 C 162.359 -0.891784 1.8214 0
M  V30 1735 C 162.692 -1.8199 0.677736 0
M  V30 1736 O 161.967 -1.91842 -0.320446 0
M  V30 1737 C 162.25 -1.68933 3.18015 0
M  V30 1738 C 162.103 -0.784487 4.42906 0
M  V30 1739 C 163.422 -2.65748 3.50808 0
M  V30 1740 H 160.541 -0.322761 0.662567 0
M  V30 1741 H 163.183 -0.158095 1.89341 0
M  V30 1742 H 161.333 -2.31482 3.12007 0
M  V30 1743 H 163.005 -0.172046 4.60979 0
M  V30 1744 H 161.248 -0.0924117 4.33702 0
M  V30 1745 H 161.919 -1.37799 5.34524 0
M  V30 1746 H 164.395 -2.13327 3.57255 0
M  V30 1747 H 163.271 -3.18619 4.4696 0
M  V30 1748 H 163.532 -3.45842 2.75401 0
M  V30 1749 N 162.591 -1.51276 -0.441967 0
M  V30 1750 C 163.523 -1.68444 -1.55433 0
M  V30 1751 C 164.536 -0.565187 -1.52674 0
M  V30 1752 O 165.725 -0.839356 -1.57534 0
M  V30 1753 C 162.825 -1.67966 -2.94348 0
M  V30 1754 C 161.998 -2.964 -3.21661 0
M  V30 1755 C 161.057 -2.88171 -4.40277 0
M  V30 1756 O 160.083 -3.62119 -4.39157 0
M  V30 1757 N 161.285 -2.03706 -5.43584 0
M  V30 1758 H 164.05 -2.644 -1.41112 0
M  V30 1759 H 161.611 -1.49104 -0.630838 0
M  V30 1760 H 163.603 -1.60035 -3.71713 0
M  V30 1761 H 162.173 -0.796225 -3.0229 0
M  V30 1762 H 161.393 -3.18234 -2.32638 0
M  V30 1763 H 162.681 -3.81427 -3.36736 0
M  V30 1764 H 162.079 -1.42995 -5.47329 0
M  V30 1765 H 160.636 -2.01658 -6.1982 0
M  V30 1766 N 164.069 0.697108 -1.41344 0
M  V30 1767 C 165.318 1.45279 -1.39918 0
M  V30 1768 C 165.631 1.95597 -0.0109624 0
M  V30 1769 O 166.837 2.71208 0.125919 0
M  V30 1770 C 165.293 2.62695 -2.46007 0
M  V30 1771 C 164.901 2.19169 -3.90729 0
M  V30 1772 C 166.645 3.40336 -2.53715 0
M  V30 1773 C 164.552 3.33535 -4.88373 0
M  V30 1774 H 163.482 0.545692 -0.520323 0
M  V30 1775 H 166.133 0.756929 -1.67161 0
M  V30 1776 H 164.515 3.34541 -2.11892 0
M  V30 1777 H 165.689 1.54623 -4.34083 0
M  V30 1778 H 164.004 1.54525 -3.86666 0
M  V30 1779 H 166.601 4.2547 -3.2385 0
M  V30 1780 H 166.944 3.85418 -1.5735 0
M  V30 1781 H 167.477 2.75546 -2.86913 0
M  V30 1782 H 164.216 2.93468 -5.86137 0
M  V30 1783 H 163.736 3.96936 -4.49668 0
M  V30 1784 H 165.415 3.99335 -5.09059 0
M  V30 1785 N 165.547 1.27147 0.931209 0
M  V30 1786 C 166.793 1.13446 1.68101 0
M  V30 1787 C 167.126 -0.319628 1.91552 0
M  V30 1788 O 166.401 -1.23407 1.50336 0
M  V30 1789 C 166.684 1.91482 3.0497 0
M  V30 1790 C 166.537 3.44855 2.88782 0
M  V30 1791 C 167.856 1.71651 4.05246 0
M  V30 1792 H 164.975 0.413498 0.610072 0
M  V30 1793 H 167.617 1.56261 1.08086 0
M  V30 1794 H 165.767 1.55095 3.56199 0
M  V30 1795 H 167.439 3.9105 2.44698 0
M  V30 1796 H 165.682 3.71373 2.24198 0
M  V30 1797 H 166.353 3.94694 3.85902 0
M  V30 1798 H 168.829 2.0337 3.63015 0
M  V30 1799 H 167.705 2.28651 4.99009 0
M  V30 1800 H 167.966 0.663555 4.37092 0
M  V30 1801 N 167.025 -1.13721 1.09112 0
M  V30 1802 C 168.302 -1.81155 0.737706 0
M  V30 1803 C 168.682 -1.96253 -0.777683 0
M  V30 1804 O 168.03 -1.52807 -1.69889 0
M  V30 1805 C 168.24 -3.16392 1.47299 0
M  V30 1806 C 169.588 -3.91787 1.63671 0
M  V30 1807 O 170.612 -3.26005 1.43524 0
M  V30 1808 O 169.471 -5.0977 1.96969 0
M  V30 1809 H 166.565 -0.783518 0.26463 0
M  V30 1810 H 169.111 -1.20676 1.19312 0
M  V30 1811 H 167.883 -3.0061 2.50498 0
M  V30 1812 H 167.506 -3.8457 1.00953 0
M  V30 1813 N 168.503 -0.877838 -1.30888 0
M  V30 1814 C 169.433 -0.35534 -2.3078 0
M  V30 1815 C 170.414 0.557994 -1.60687 0
M  V30 1816 O 171.599 0.473355 -1.88343 0
M  V30 1817 C 168.729 0.437221 -3.44537 0
M  V30 1818 C 167.683 -0.383715 -4.26276 0
M  V30 1819 C 167.009 0.535014 -5.32017 0
M  V30 1820 C 168.309 -1.62201 -4.96476 0
M  V30 1821 H 170.003 -1.19007 -2.74732 0
M  V30 1822 H 167.549 -0.573698 -1.32078 0
M  V30 1823 H 169.502 0.813334 -4.13477 0
M  V30 1824 H 168.226 1.30553 -2.99372 0
M  V30 1825 H 166.885 -0.741874 -3.59015 0
M  V30 1826 H 166.533 1.40083 -4.831 0
M  V30 1827 H 166.233 -0.0104211 -5.87599 0
M  V30 1828 H 167.757 0.907799 -6.03814 0
M  V30 1829 H 169.171 -1.31689 -5.5797 0
M  V30 1830 H 167.568 -2.10711 -5.61891 0
M  V30 1831 H 168.638 -2.37044 -4.23011 0
M  V30 1832 N 169.982 1.44106 -0.638065 0
M  V30 1833 C 171.398 1.56672 -0.304286 0
M  V30 1834 C 171.598 1.6244 1.19228 0
M  V30 1835 O 170.654 1.57121 1.9766 0
M  V30 1836 C 171.967 2.83503 -1.00231 0
M  V30 1837 C 173.515 2.97226 -0.981116 0
M  V30 1838 C 173.99 4.26868 -1.65974 0
M  V30 1839 N 175.481 4.33698 -1.62666 0
M  V30 1840 C 176.216 5.32745 -2.12063 0
M  V30 1841 N 175.712 6.38157 -2.6968 0
M  V30 1842 N 177.505 5.24299 -2.02651 0
M  V30 1843 H 169.656 1.38605 -1.60942 0
M  V30 1844 H 171.919 0.664661 -0.675965 0
M  V30 1845 H 171.625 2.85251 -2.0573 0
M  V30 1846 H 171.499 3.73251 -0.54439 0
M  V30 1847 H 173.886 2.95027 0.0654188 0
M  V30 1848 H 173.967 2.08808 -1.47759 0
M  V30 1849 H 173.611 4.29826 -2.70576 0
M  V30 1850 H 173.541 5.14156 -1.13804 0
M  V30 1851 H 176.032 3.58138 -1.20606 0
M  V30 1852 H 176.345 7.10029 -3.05087 0
M  V30 1853 H 174.69 6.38823 -2.73734 0
M  V30 1854 H 177.881 4.4086 -1.57353 0
M  V30 1855 H 178.054 6.01334 -2.41457 0
M  V30 1856 N 171.46 0.379036 1.52974 0
M  V30 1857 C 172.41 -0.477772 2.22938 0
M  V30 1858 C 173.394 -1.03792 1.22948 0
M  V30 1859 O 174.586 -0.965725 1.48333 0
M  V30 1860 C 171.715 -1.60994 3.03209 0
M  V30 1861 C 170.801 -1.06203 4.10587 0
M  V30 1862 N 171.192 -0.238214 5.05239 0
M  V30 1863 C 169.49 -1.33554 4.25534 0
M  V30 1864 C 170.191 0.0633235 5.81666 0
M  V30 1865 N 169.167 -0.537901 5.40932 0
M  V30 1866 H 172.969 0.158295 2.93473 0
M  V30 1867 H 170.483 0.187778 1.61311 0
M  V30 1868 H 172.48 -2.23607 3.5186 0
M  V30 1869 H 171.14 -2.24893 2.34207 0
M  V30 1870 H 172.151 0.123695 5.17752 0
M  V30 1871 H 168.828 -1.97632 3.6776 0
M  V30 1872 H 170.218 0.730161 6.67921 0
M  V30 1873 N 172.938 -1.57226 0.108567 0
M  V30 1874 C 173.901 -2.13602 -0.831082 0
M  V30 1875 C 174.901 -1.06841 -1.20173 0
M  V30 1876 O 176.091 -1.32666 -1.12895 0
M  V30 1877 C 173.223 -2.66769 -2.12243 0
M  V30 1878 H 174.416 -2.97951 -0.341317 0
M  V30 1879 H 171.969 -1.55667 -0.14057 0
M  V30 1880 H 172.704 -1.85977 -2.65675 0
M  V30 1881 H 172.489 -3.44839 -1.86625 0
M  V30 1882 H 173.979 -3.10332 -2.79435 0
M  V30 1883 N 174.416 0.165178 -1.56732 0
M  V30 1884 C 175.827 0.727046 -1.71962 0
M  V30 1885 C 176.178 1.82508 -0.720078 0
M  V30 1886 O 175.303 2.16082 0.117242 0
M  V30 1887 C 175.898 1.32559 -3.11791 0
M  V30 1888 C 174.457 1.83422 -3.28684 0
M  V30 1889 C 173.604 0.715567 -2.67908 0
M  V30 1890 H 176.555 -0.0602896 -1.58585 0
M  V30 1891 H 176.576 2.19533 -3.10782 0
M  V30 1892 H 176.088 0.526195 -3.84516 0
M  V30 1893 H 174.189 2.65986 -2.60926 0
M  V30 1894 H 174.302 1.97543 -4.36478 0
M  V30 1895 H 172.666 1.13758 -2.27884 0
M  V30 1896 H 173.449 -0.0720836 -3.43224 0
M  V30 1897 N 175.894 1.51508 0.433938 0
M  V30 1898 C 177.119 1.68443 1.21003 0
M  V30 1899 C 177.544 0.382636 1.84167 0
M  V30 1900 O 176.902 -0.65755 1.68956 0
M  V30 1901 C 176.95 2.80405 2.26727 0
M  V30 1902 O 176.054 2.44245 3.32292 0
M  V30 1903 H 175.395 0.561536 0.354363 0
M  V30 1904 H 177.925 1.9809 0.512024 0
M  V30 1905 H 177.935 3.0459 2.71457 0
M  V30 1906 H 176.61 3.74867 1.80132 0
M  V30 1907 H 175.187 2.30644 2.93015 0
M  V30 1908 N 177.372 -0.689602 1.41712 0
M  V30 1909 C 178.32 -1.82475 1.44242 0
M  V30 1910 C 179.314 -1.66354 0.319774 0
M  V30 1911 O 180.52 -1.73143 0.492089 0
M  V30 1912 H 176.895 -0.601416 0.451445 0
M  V30 1913 H 178.866 -1.77458 2.39899 0
M  V30 1914 C 177.615 -3.20535 1.3473 0
M  V30 1915 H 176.938 -3.33559 2.20405 0
M  V30 1916 H 178.378 -4.00023 1.40562 0
M  V30 1917 C 176.837 -3.36846 0.0603281 0
M  V30 1918 O 177.367 -3.91656 -0.892663 0
M  V30 1919 N 175.573 -2.90595 -0.0177039 0
M  V30 1920 H 175.12 -2.46178 0.758572 0
M  V30 1921 H 175.078 -3.01886 -0.878201 0
M  V30 1922 N 178.85 -1.27639 -0.924453 0
M  V30 1923 C 180.127 -1.04887 -1.651 0
M  V30 1924 C 180.507 0.415327 -2.06974 0
M  V30 1925 O 179.855 1.39923 -1.80648 0
M  V30 1926 C 180.065 -2.01348 -2.85061 0
M  V30 1927 C 181.413 -2.30899 -3.56329 0
M  V30 1928 O 182.437 -1.99348 -2.95193 0
M  V30 1929 O 181.296 -2.84699 -4.66485 0
M  V30 1930 H 178.39 -0.400083 -0.723784 0
M  V30 1931 H 180.936 -1.38916 -0.974703 0
M  V30 1932 H 179.708 -3.0008 -2.51133 0
M  V30 1933 H 179.331 -1.679 -3.6041 0
M  V30 1934 N 180.328 1.1314 -1.09713 0
M  V30 1935 C 181.605 1.80762 -0.747302 0
M  V30 1936 C 181.985 1.96663 0.767265 0
M  V30 1937 O 181.333 1.53706 1.69076 0
M  V30 1938 C 181.543 3.15606 -1.48975 0
M  V30 1939 C 182.891 3.90914 -1.65746 0
M  V30 1940 O 183.915 3.25239 -1.45251 0
M  V30 1941 O 182.774 5.08718 -1.9967 0
M  V30 1942 H 179.868 0.782103 -0.268782 0
M  V30 1943 H 182.414 1.20041 -1.19951 0
M  V30 1944 H 181.186 2.99278 -2.52088 0
M  V30 1945 H 180.809 3.84029 -1.02991 0
M  V30 1946 N 181.806 0.884767 1.30421 0
M  V30 1947 C 183.052 0.503851 1.96441 0
M  V30 1948 C 183.385 -0.944518 1.69684 0
M  V30 1949 O 182.66 -1.66737 1.00145 0
M  V30 1950 C 182.943 0.779085 3.51571 0
M  V30 1951 C 182.796 2.27807 3.87846 0
M  V30 1952 C 184.115 0.255452 4.39358 0
M  V30 1953 H 181.234 0.184533 0.713524 0
M  V30 1954 H 183.876 1.10872 1.54297 0
M  V30 1955 H 182.026 0.264274 3.876 0
M  V30 1956 H 183.698 2.86127 3.61841 0
M  V30 1957 H 181.941 2.74479 3.35922 0
M  V30 1958 H 182.612 2.42125 4.96064 0
M  V30 1959 H 185.088 0.696079 4.10236 0
M  V30 1960 H 183.964 0.477361 5.4682 0
M  V30 1961 H 184.225 -0.843293 4.33983 0
M  V30 1962 N 183.284 -1.43765 0.645699 0
M  V30 1963 C 184.216 -2.29027 -0.0890605 0
M  V30 1964 C 185.229 -1.42093 -0.794563 0
M  V30 1965 O 186.418 -1.66104 -0.653575 0
M  V30 1966 C 183.518 -3.18831 -1.14891 0
M  V30 1967 C 182.691 -4.34261 -0.523043 0
M  V30 1968 C 181.75 -5.04994 -1.47878 0
M  V30 1969 O 180.776 -5.6052 -0.990277 0
M  V30 1970 N 181.978 -5.07795 -2.81291 0
M  V30 1971 H 184.743 -2.92727 0.64272 0
M  V30 1972 H 182.304 -1.54373 0.487924 0
M  V30 1973 H 184.296 -3.63015 -1.78892 0
M  V30 1974 H 182.866 -2.56782 -1.78275 0
M  V30 1975 H 182.086 -3.93088 0.295896 0
M  V30 1976 H 183.374 -5.08728 -0.0858147 0
M  V30 1977 H 182.772 -4.64042 -3.23546 0
M  V30 1978 H 181.329 -5.55721 -3.40614 0
M  V30 1979 N 184.763 -0.387143 -1.52771 0
M  V30 1980 C 185.696 0.493123 -2.22808 0
M  V30 1981 C 186.674 1.0658 -1.22798 0
M  V30 1982 O 187.858 1.11785 -1.51777 0
M  V30 1983 C 184.985 1.68238 -2.93962 0
M  V30 1984 C 184.031 1.23515 -4.08223 0
M  V30 1985 S 184.864 0.21848 -5.35054 0
M  V30 1986 C 186.02 1.41357 -6.09729 0
M  V30 1987 H 186.253 -0.101625 -2.97126 0
M  V30 1988 H 183.786 -0.171323 -1.53447 0
M  V30 1989 H 185.744 2.36443 -3.35567 0
M  V30 1990 H 184.405 2.24842 -2.19328 0
M  V30 1991 H 183.598 2.12304 -4.57103 0
M  V30 1992 H 183.2 0.632044 -3.68621 0
M  V30 1993 H 185.492 2.34101 -6.3577 0
M  V30 1994 H 186.435 0.965736 -7.01484 0
M  V30 1995 H 186.843 1.6294 -5.40473 0
M  V30 1996 N 186.241 1.57166 -0.116904 0
M  V30 1997 C 187.471 1.99184 0.548586 0
M  V30 1998 C 187.879 0.995436 1.60897 0
M  V30 1999 O 187.222 -0.0201293 1.83689 0
M  V30 2000 C 187.284 3.37611 1.23526 0
M  V30 2001 C 186.948 4.55857 0.323077 0
M  V30 2002 C 187.945 5.18056 -0.437476 0
M  V30 2003 C 185.63 5.01751 0.234761 0
M  V30 2004 C 187.624 6.24536 -1.2741 0
M  V30 2005 C 185.311 6.08093 -0.605496 0
M  V30 2006 C 186.309 6.69352 -1.35856 0
M  V30 2007 O 185.997 7.7364 -2.18487 0
M  V30 2008 H 185.729 0.659148 0.149999 0
M  V30 2009 H 188.283 2.0443 -0.199428 0
M  V30 2010 H 186.513 3.29113 2.0303 0
M  V30 2011 H 188.202 3.63932 1.79745 0
M  V30 2012 H 188.968 4.83516 -0.379105 0
M  V30 2013 H 184.847 4.53817 0.810601 0
M  V30 2014 H 188.391 6.72281 -1.86237 0
M  V30 2015 H 184.288 6.42063 -0.665268 0
M  V30 2016 H 185.056 7.90727 -2.11406 0
M  V30 2017 N 187.719 -0.156864 1.56817 0
M  V30 2018 C 188.629 -1.2136 2.00771 0
M  V30 2019 C 189.645 -1.47598 0.921459 0
M  V30 2020 O 190.821 -1.59462 1.2302 0
M  V30 2021 C 187.886 -2.52943 2.37109 0
M  V30 2022 C 186.947 -2.34439 3.59634 0
M  V30 2023 C 186.18 -3.59748 3.94229 0
M  V30 2024 O 186.403 -4.65526 3.29609 0
M  V30 2025 O 185.337 -3.52998 4.8752 0
M  V30 2026 H 189.163 -0.870468 2.90958 0
M  V30 2027 H 186.748 -0.36484 1.44877 0
M  V30 2028 H 188.63 -3.30538 2.61386 0
M  V30 2029 H 187.305 -2.86806 1.5008 0
M  V30 2030 H 186.212 -1.54828 3.40557 0
M  V30 2031 H 187.545 -2.05496 4.4725 0
M  V30 2032 N 189.197 -1.51736 -0.425897 0
M  V30 2033 C 190.444 -1.6497 -1.17436 0
M  V30 2034 C 190.772 -0.371445 -1.9092 0
M  V30 2035 O 190.027 0.644963 -1.84767 0
M  V30 2036 C 190.326 -2.81103 -2.20717 0
M  V30 2037 C 189.992 -4.19954 -1.64162 0
M  V30 2038 C 188.654 -4.57725 -1.48462 0
M  V30 2039 C 191.006 -5.06552 -1.22696 0
M  V30 2040 C 188.334 -5.79789 -0.897873 0
M  V30 2041 C 190.686 -6.29205 -0.654464 0
M  V30 2042 C 189.35 -6.6574 -0.484456 0
M  V30 2043 H 188.62 -0.603668 -0.429727 0
M  V30 2044 H 191.267 -1.85798 -0.463829 0
M  V30 2045 H 189.572 -2.54542 -2.97852 0
M  V30 2046 H 191.269 -2.8854 -2.78471 0
M  V30 2047 H 187.859 -3.90181 -1.77361 0
M  V30 2048 H 192.043 -4.77968 -1.33642 0
M  V30 2049 H 187.299 -6.06733 -0.75402 0
M  V30 2050 H 191.473 -6.95643 -0.324694 0
M  V30 2051 H 189.1 -7.60195 -0.0276833 0
M  V30 2052 N 190.675 0.682077 -1.42076 0
M  V30 2053 C 191.605 1.80796 -1.47767 0
M  V30 2054 C 192.586 1.6677 -0.334954 0
M  V30 2055 O 193.771 1.863 -0.548264 0
M  V30 2056 C 190.901 3.19038 -1.37229 0
M  V30 2057 C 189.855 3.47789 -2.49453 0
M  V30 2058 C 189.181 4.8553 -2.23975 0
M  V30 2059 C 190.481 3.45411 -3.91776 0
M  V30 2060 H 192.175 1.7629 -2.41997 0
M  V30 2061 H 189.721 0.846721 -1.16476 0
M  V30 2062 H 191.674 3.97528 -1.39821 0
M  V30 2063 H 190.398 3.24204 -0.394907 0
M  V30 2064 H 189.057 2.71657 -2.46166 0
M  V30 2065 H 188.705 4.87337 -1.24547 0
M  V30 2066 H 188.405 5.0573 -2.99184 0
M  V30 2067 H 189.929 5.66312 -2.28304 0
M  V30 2068 H 191.343 4.13882 -3.96705 0
M  V30 2069 H 189.74 3.77145 -4.66778 0
M  V30 2070 H 190.81 2.44122 -4.18966 0
M  V30 2071 N 192.153 1.28127 0.917671 0
M  V30 2072 C 193.1 1.11717 2.0196 0
M  V30 2073 C 194.07 0.0153929 1.66093 0
M  V30 2074 O 195.255 0.179596 1.89953 0
M  V30 2075 C 192.395 0.780927 3.36148 0
M  V30 2076 C 191.508 1.96135 3.84909 0
M  V30 2077 C 190.643 1.56609 5.0759 0
M  V30 2078 C 189.682 2.71339 5.48673 0
M  V30 2079 N 188.819 2.32332 6.62545 0
M  V30 2080 H 193.659 2.06003 2.15329 0
M  V30 2081 H 191.196 1.02535 1.05475 0
M  V30 2082 H 193.154 0.56675 4.13333 0
M  V30 2083 H 191.784 -0.124998 3.22558 0
M  V30 2084 H 190.836 2.28777 3.03916 0
M  V30 2085 H 192.148 2.82165 4.1132 0
M  V30 2086 H 191.302 1.31374 5.92305 0
M  V30 2087 H 190.041 0.677014 4.82978 0
M  V30 2088 H 189.046 2.97276 4.62501 0
M  V30 2089 H 190.271 3.60882 5.75274 0
M  V30 2090 H 188.217 1.45889 6.39572 0
M  V30 2091 H 188.134 3.11899 6.88662 0
M  V30 2092 H 189.402 2.10371 7.50576 0
M  V30 2093 N 193.631 -1.12557 1.10312 0
M  V30 2094 C 194.861 -1.87592 0.865617 0
M  V30 2095 C 195.269 -1.79851 -0.587389 0
M  V30 2096 O 194.612 -1.16949 -1.41664 0
M  V30 2097 C 194.674 -3.37665 1.23381 0
M  V30 2098 C 194.338 -3.69181 2.69359 0
M  V30 2099 C 195.335 -3.67652 3.67597 0
M  V30 2100 C 193.02 -3.98555 3.05711 0
M  V30 2101 C 195.014 -3.95053 5.00212 0
M  V30 2102 C 192.701 -4.25616 4.38514 0
M  V30 2103 C 193.699 -4.23851 5.35574 0
M  V30 2104 O 193.387 -4.50242 6.65986 0
M  V30 2105 H 193.119 -0.600442 0.310557 0
M  V30 2106 H 195.673 -1.4335 1.47105 0
M  V30 2107 H 193.903 -3.82454 0.571467 0
M  V30 2108 H 195.592 -3.94041 0.973994 0
M  V30 2109 H 196.358 -3.45024 3.40857 0
M  V30 2110 H 192.237 -3.99071 2.30789 0
M  V30 2111 H 195.781 -3.93591 5.75962 0
M  V30 2112 H 191.678 -4.47718 4.64994 0
M  V30 2113 H 192.446 -4.67867 6.71597 0
M  V30 2114 N 195.109 -0.891671 -1.2995 0
M  V30 2115 C 196.339 -0.527893 -1.99742 0
M  V30 2116 C 196.747 0.88979 -1.66971 0
M  V30 2117 O 196.09 1.59766 -0.906667 0
M  V30 2118 C 196.152 -0.630804 -3.53922 0
M  V30 2119 C 195.816 -2.01401 -4.10228 0
M  V30 2120 C 196.813 -2.98422 -4.25724 0
M  V30 2121 C 194.498 -2.32121 -4.45449 0
M  V30 2122 C 196.492 -4.24293 -4.75662 0
M  V30 2123 C 194.179 -3.58237 -4.95086 0
M  V30 2124 C 195.177 -4.54137 -5.10146 0
M  V30 2125 O 194.865 -5.78014 -5.58708 0
M  V30 2126 H 194.597 -0.201953 -0.645129 0
M  V30 2127 H 197.151 -1.20076 -1.66646 0
M  V30 2128 H 195.381 0.0990616 -3.86573 0
M  V30 2129 H 197.07 -0.277338 -4.04951 0
M  V30 2130 H 197.836 -2.76001 -3.98809 0
M  V30 2131 H 193.715 -1.5824 -4.32991 0
M  V30 2132 H 197.259 -4.99153 -4.87332 0
M  V30 2133 H 193.156 -3.80491 -5.21437 0
M  V30 2134 H 193.924 -5.8049 -5.77039 0
M  V30 2135 N 196.587 1.43421 -0.653314 0
M  V30 2136 C 197.835 2.01414 -0.166415 0
M  V30 2137 C 198.156 1.51803 1.22397 0
M  V30 2138 O 197.426 0.730693 1.81763 0
M  V30 2139 H 196.006 0.744703 -0.0585319 0
M  V30 2140 H 198.668 1.75629 -0.845003 0
M  V30 2141 H 197.764 3.11734 -0.151111 0
M  V30 2142 N 198.065 0.39524 1.52563 0
M  V30 2143 C 199.314 -0.186321 2.00838 0
M  V30 2144 C 199.627 -1.47402 1.28577 0
M  V30 2145 O 200.833 -2.13599 1.67593 0
M  V30 2146 C 199.289 -0.382595 3.57861 0
M  V30 2147 C 198.897 0.892202 4.39026 0
M  V30 2148 C 200.641 -0.9202 4.14406 0
M  V30 2149 C 198.548 0.66388 5.87662 0
M  V30 2150 H 197.478 -0.0734041 0.750418 0
M  V30 2151 H 200.129 0.518552 1.76021 0
M  V30 2152 H 198.511 -1.14946 3.7895 0
M  V30 2153 H 199.685 1.66414 4.29701 0
M  V30 2154 H 198 1.35519 3.9373 0
M  V30 2155 H 200.597 -1.10683 5.23119 0
M  V30 2156 H 200.94 -1.89096 3.70875 0
M  V30 2157 H 201.473 -0.212751 3.97231 0
M  V30 2158 H 198.212 1.6058 6.35527 0
M  V30 2159 H 197.732 -0.0690193 5.9976 0
M  V30 2160 H 199.411 0.300699 6.46301 0
M  V30 2161 N 199.544 -1.57102 0.125237 0
M  V30 2162 C 200.955 -1.82384 -0.399142 0
M  V30 2163 C 201.306 -1.04276 -1.66195 0
M  V30 2164 O 200.431 -0.281269 -2.14564 0
M  V30 2165 C 201.026 -3.30821 -0.730932 0
M  V30 2166 C 199.585 -3.56762 -1.19992 0
M  V30 2167 C 198.732 -2.7649 -0.211792 0
M  V30 2168 H 201.683 -1.54786 0.350277 0
M  V30 2169 H 201.704 -3.4579 -1.58775 0
M  V30 2170 H 201.216 -3.87643 0.188345 0
M  V30 2171 H 199.317 -3.05305 -2.13588 0
M  V30 2172 H 199.43 -4.65317 -1.14093 0
M  V30 2173 H 197.794 -2.4489 -0.700085 0
M  V30 2174 H 198.577 -3.36073 0.700691 0
M  V30 2175 N 201.022 0.148545 -1.56898 0
M  V30 2176 C 202.268 0.862694 -1.83536 0
M  V30 2177 C 202.601 1.80889 -0.706604 0
M  V30 2178 O 201.876 1.92328 0.289885 0
M  V30 2179 C 202.159 1.63853 -3.20662 0
M  V30 2180 C 202.012 0.713925 -4.44098 0
M  V30 2181 C 203.331 2.60133 -3.54991 0
M  V30 2182 H 200.45 0.312179 -0.667618 0
M  V30 2183 H 203.092 0.127953 -1.89569 0
M  V30 2184 H 201.242 2.26489 -3.1565 0
M  V30 2185 H 202.914 0.098686 -4.61194 0
M  V30 2186 H 201.157 0.0234019 -4.33794 0
M  V30 2187 H 201.828 1.29278 -5.36648 0
M  V30 2188 H 204.304 2.07616 -3.60603 0
M  V30 2189 H 203.18 3.11468 -4.51972 0
M  V30 2190 H 203.441 3.41417 -2.80868 0
M  V30 2191 N 202.5 1.5196 0.417844 0
M  V30 2192 C 203.749 1.6482 1.16264 0
M  V30 2193 C 204.062 0.379886 1.91876 0
M  V30 2194 O 205.268 0.388154 2.68711 0
M  V30 2195 C 203.724 2.91161 2.1155 0
M  V30 2196 C 203.332 4.25068 1.41495 0
M  V30 2197 C 205.076 3.13383 2.86341 0
M  V30 2198 C 202.983 5.42541 2.35379 0
M  V30 2199 H 201.913 0.613954 0.437694 0
M  V30 2200 H 204.564 1.78442 0.427871 0
M  V30 2201 H 202.946 2.71218 2.88543 0
M  V30 2202 H 204.12 4.55463 0.699263 0
M  V30 2203 H 202.435 4.0888 0.787792 0
M  V30 2204 H 205.032 3.98324 3.5671 0
M  V30 2205 H 205.375 2.27256 3.48798 0
M  V30 2206 H 205.908 3.33757 2.1645 0
M  V30 2207 H 202.647 6.30987 1.77582 0
M  V30 2208 H 202.167 5.16497 3.04945 0
M  V30 2209 H 203.846 5.75272 2.96093 0
M  V30 2210 N 203.978 -0.674533 1.42435 0
M  V30 2211 C 205.224 -1.43671 1.43131 0
M  V30 2212 C 205.557 -1.94142 0.0476021 0
M  V30 2213 O 204.832 -1.70924 -0.928188 0
M  V30 2214 C 205.115 -2.63355 2.45594 0
M  V30 2215 C 204.968 -2.18514 3.93156 0
M  V30 2216 C 206.287 -3.65571 2.45043 0
M  V30 2217 H 203.406 -0.521077 0.521198 0
M  V30 2218 H 206.048 -0.766551 1.7385 0
M  V30 2219 H 204.198 -3.2053 2.19528 0
M  V30 2220 H 205.87 -1.66504 4.30202 0
M  V30 2221 H 204.113 -1.50086 4.07009 0
M  V30 2222 H 204.784 -3.04484 4.60428 0
M  V30 2223 H 207.26 -3.18113 2.68223 0
M  V30 2224 H 206.136 -4.46893 3.18713 0
M  V30 2225 H 206.397 -4.16716 1.47649 0
M  V30 2226 N 205.456 -1.28612 -0.910864 0
M  V30 2227 C 206.705 -1.15311 -1.65488 0
M  V30 2228 C 207.018 0.296999 -1.93332 0
M  V30 2229 O 208.224 0.551168 -2.65847 0
M  V30 2230 C 206.68 -2.01599 -2.98137 0
M  V30 2231 C 206.288 -3.51367 -2.7793 0
M  V30 2232 C 208.032 -1.96993 -3.76024 0
M  V30 2233 C 205.939 -4.29797 -4.06237 0
M  V30 2234 H 204.869 -0.42796 -0.620779 0
M  V30 2235 H 207.52 -1.53166 -1.01057 0
M  V30 2236 H 205.902 -1.56603 -3.63719 0
M  V30 2237 H 207.076 -4.0434 -2.21011 0
M  V30 2238 H 205.391 -3.57529 -2.13452 0
M  V30 2239 H 207.988 -2.52856 -4.71135 0
M  V30 2240 H 208.331 -0.94733 -4.05378 0
M  V30 2241 H 208.864 -2.39973 -3.17266 0
M  V30 2242 H 205.603 -5.32648 -3.82055 0
M  V30 2243 H 205.123 -3.81596 -4.62757 0
M  V30 2244 H 206.802 -4.39869 -4.74473 0
M  V30 2245 N 206.934 1.1197 -1.10907 0
M  V30 2246 C 207.897 2.16031 -0.765707 0
M  V30 2247 C 208.897 1.59393 0.212235 0
M  V30 2248 O 210.087 1.74196 -0.0115441 0
M  V30 2249 C 207.219 3.40632 -0.135053 0
M  V30 2250 H 208.412 2.47919 -1.68748 0
M  V30 2251 H 205.965 1.27061 -0.910226 0
M  V30 2252 H 206.7 3.14348 0.797218 0
M  V30 2253 H 206.485 3.8302 -0.838937 0
M  V30 2254 H 207.975 4.17505 0.0892469 0
M  V30 2255 N 208.412 0.89855 1.29475 0
M  V30 2256 C 209.64 0.539261 1.99749 0
M  V30 2257 C 210.055 -0.875716 1.67262 0
M  V30 2258 O 209.412 -1.57786 0.917049 0
M  V30 2259 C 209.463 0.72061 3.54245 0
M  V30 2260 O 209.184 2.07989 3.8558 0
M  V30 2261 C 210.685 0.366118 4.41786 0
M  V30 2262 H 207.905 0.207047 0.638258 0
M  V30 2263 H 210.449 1.20758 1.65039 0
M  V30 2264 H 208.604 0.0994862 3.87272 0
M  V30 2265 H 209.018 2.10841 4.80257 0
M  V30 2266 H 210.492 0.543848 5.49314 0
M  V30 2267 H 210.969 -0.696763 4.33638 0
M  V30 2268 H 211.575 0.964135 4.14228 0
M  V30 2269 N 209.89 -1.43072 0.660911 0
M  V30 2270 C 210.837 -2.30785 -0.0259884 0
M  V30 2271 C 211.807 -1.45184 -0.806888 0
M  V30 2272 O 212.992 -1.74041 -0.781943 0
M  V30 2273 C 210.132 -3.30861 -0.981067 0
M  V30 2274 C 209.245 -4.31558 -0.195458 0
M  V30 2275 C 208.38 -5.18712 -1.14503 0
M  V30 2276 C 207.419 -6.11097 -0.350299 0
M  V30 2277 N 206.556 -6.90849 -1.25186 0
M  V30 2278 H 211.396 -2.88975 0.727846 0
M  V30 2279 H 208.933 -1.42353 0.370682 0
M  V30 2280 H 210.891 -3.87399 -1.54849 0
M  V30 2281 H 209.521 -2.74304 -1.70169 0
M  V30 2282 H 208.573 -3.77252 0.488374 0
M  V30 2283 H 209.885 -4.9701 0.422176 0
M  V30 2284 H 209.039 -5.79914 -1.78284 0
M  V30 2285 H 207.778 -4.53404 -1.79656 0
M  V30 2286 H 206.783 -5.48976 0.300808 0
M  V30 2287 H 208.008 -6.7845 0.296941 0
M  V30 2288 H 205.954 -6.28182 -1.89005 0
M  V30 2289 H 205.871 -7.52854 -0.688971 0
M  V30 2290 H 207.139 -7.5655 -1.87757 0
M  V30 2291 N 211.368 -0.403325 -1.52352 0
M  V30 2292 C 212.331 0.413051 -2.25447 0
M  V30 2293 C 213.331 0.978513 -1.276 0
M  V30 2294 O 214.521 0.858305 -1.51587 0
M  V30 2295 C 211.653 1.58087 -3.02029 0
M  V30 2296 H 212.846 -0.227094 -2.99039 0
M  V30 2297 H 210.399 -0.155722 -1.55522 0
M  V30 2298 H 211.134 2.25804 -2.32772 0
M  V30 2299 H 210.919 1.18195 -3.73861 0
M  V30 2300 H 212.409 2.1585 -3.57489 0
M  V30 2301 N 212.846 1.57033 -0.133567 0
M  V30 2302 C 214.123 1.87256 0.56522 0
M  V30 2303 C 214.503 1.03726 1.83859 0
M  V30 2304 O 213.851 0.120247 2.28183 0
M  V30 2305 C 214.061 3.3865 0.843636 0
M  V30 2306 C 215.409 4.07574 1.19032 0
M  V30 2307 O 216.433 3.43752 0.933429 0
M  V30 2308 O 215.292 5.20259 1.67312 0
M  V30 2309 H 212.386 0.775678 0.286796 0
M  V30 2310 H 214.932 1.68855 -0.169168 0
M  V30 2311 H 213.704 3.91257 -0.0581149 0
M  V30 2312 H 213.327 3.62532 1.63268 0
M  V30 2313 N 214.325 -0.140222 1.56975 0
M  V30 2314 C 215.272 -1.17292 1.98774 0
M  V30 2315 C 216.242 -1.4232 0.856408 0
M  V30 2316 O 217.427 -1.54541 1.119 0
M  V30 2317 C 214.567 -2.49973 2.37923 0
M  V30 2318 C 213.68 -2.32062 3.64378 0
M  V30 2319 C 212.815 -3.57825 3.926 0
M  V30 2320 C 211.854 -3.3498 5.12303 0
M  V30 2321 N 210.991 -4.52891 5.36502 0
M  V30 2322 H 215.831 -0.809472 2.86795 0
M  V30 2323 H 213.368 -0.388237 1.41884 0
M  V30 2324 H 215.326 -3.27346 2.58652 0
M  V30 2325 H 213.956 -2.84252 1.52972 0
M  V30 2326 H 213.008 -1.45711 3.51387 0
M  V30 2327 H 214.32 -2.11145 4.51906 0
M  V30 2328 H 213.474 -4.43624 4.13863 0
M  V30 2329 H 212.213 -3.81753 3.03506 0
M  V30 2330 H 211.218 -2.4757 4.90906 0
M  V30 2331 H 212.443 -3.12444 6.02956 0
M  V30 2332 H 210.389 -4.76979 4.50363 0
M  V30 2333 H 210.306 -4.35001 6.18312 0
M  V30 2334 H 211.574 -5.39884 5.62268 0
M  V30 2335 N 215.803 -1.52179 -0.40978 0
M  V30 2336 C 217.052 -1.65434 -1.15388 0
M  V30 2337 C 217.365 -0.390056 -1.91671 0
M  V30 2338 O 218.571 -0.402399 -2.68501 0
M  V30 2339 C 217.027 -2.92279 -2.10003 0
M  V30 2340 C 216.635 -4.25813 -1.39239 0
M  V30 2341 C 218.379 -3.14897 -2.84675 0
M  V30 2342 C 216.286 -5.43782 -2.32498 0
M  V30 2343 H 215.216 -0.616267 -0.434432 0
M  V30 2344 H 217.867 -1.78666 -0.418401 0
M  V30 2345 H 216.249 -2.72744 -2.871 0
M  V30 2346 H 217.423 -4.55828 -0.675099 0
M  V30 2347 H 215.738 -4.09292 -0.766097 0
M  V30 2348 H 218.335 -4.0021 -3.54593 0
M  V30 2349 H 218.678 -2.29103 -3.47588 0
M  V30 2350 H 219.211 -3.34901 -2.14677 0
M  V30 2351 H 215.95 -6.3192 -1.74233 0
M  V30 2352 H 215.47 -5.18106 -3.02201 0
M  V30 2353 H 217.149 -5.76834 -2.93038 0
M  V30 2354 N 217.281 0.66697 -1.42791 0
M  V30 2355 C 218.692 1.2478 -1.38877 0
M  V30 2356 C 219.043 1.96012 -0.0859426 0
M  V30 2357 O 218.168 2.00463 0.815081 0
M  V30 2358 C 218.763 2.26938 -2.51564 0
M  V30 2359 C 217.322 2.80529 -2.50959 0
M  V30 2360 C 216.469 1.54965 -2.29959 0
M  V30 2361 H 219.42 0.459853 -1.51892 0
M  V30 2362 H 219.441 3.08834 -2.22265 0
M  V30 2363 H 218.953 1.75065 -3.46372 0
M  V30 2364 H 217.054 3.36502 -1.59991 0
M  V30 2365 H 217.167 3.29012 -3.48265 0
M  V30 2366 H 215.531 1.81817 -1.78366 0
M  V30 2367 H 216.314 1.05047 -3.26833 0
M  V30 2368 N 218.759 1.29093 0.90403 0
M  V30 2369 C 219.706 1.13853 2.00764 0
M  V30 2370 C 220.676 0.0330084 1.66067 0
M  V30 2371 O 221.861 0.199733 1.89752 0
M  V30 2372 C 219.001 0.816537 3.35301 0
M  V30 2373 C 218.114 2.00206 3.82807 0
M  V30 2374 C 217.249 1.61983 5.059 0
M  V30 2375 C 216.288 2.77143 5.45764 0
M  V30 2376 N 215.425 2.39346 6.60044 0
M  V30 2377 H 220.265 2.08276 2.13132 0
M  V30 2378 H 217.802 1.03648 1.04381 0
M  V30 2379 H 219.76 0.610557 4.12708 0
M  V30 2380 H 218.39 -0.090779 3.22672 0
M  V30 2381 H 217.442 2.31988 3.01473 0
M  V30 2382 H 218.754 2.86512 4.08304 0
M  V30 2383 H 217.908 1.37649 5.90879 0
M  V30 2384 H 216.647 0.728202 4.82233 0
M  V30 2385 H 215.652 3.02165 4.59322 0
M  V30 2386 H 216.877 3.66964 5.71414 0
M  V30 2387 H 214.823 1.52665 6.37989 0
M  V30 2388 H 214.74 3.19185 6.85315 0
M  V30 2389 H 216.008 2.1832 7.48303 0
M  V30 2390 N 220.237 -1.11381 1.11499 0
M  V30 2391 C 221.485 -1.8277 0.862524 0
M  V30 2392 C 221.806 -1.85097 -0.613534 0
M  V30 2393 O 221.076 -1.32198 -1.4457 0
M  V30 2394 H 219.656 -0.676823 0.316101 0
M  V30 2395 H 222.318 -1.34816 1.4075 0
M  V30 2396 H 221.414 -2.86614 1.23527 0
M  V30 2397 N 221.715 -0.905404 -1.28997 0
M  V30 2398 C 222.662 -0.385892 -2.27551 0
M  V30 2399 C 223.632 0.535113 -1.57244 0
M  V30 2400 O 224.817 0.459119 -1.85194 0
M  V30 2401 C 221.957 0.375461 -3.43051 0
M  V30 2402 C 221.07 -0.577092 -4.28128 0
M  V30 2403 C 220.205 0.201879 -5.30816 0
M  V30 2404 C 219.244 -0.744829 -6.07551 0
M  V30 2405 N 218.381 9.42587e-05 -7.021 0
M  V30 2406 H 223.221 -1.23139 -2.71368 0
M  V30 2407 H 220.758 -0.618542 -1.33463 0
M  V30 2408 H 222.716 0.832992 -4.088 0
M  V30 2409 H 221.346 1.18537 -3.00248 0
M  V30 2410 H 220.398 -1.15315 -3.62501 0
M  V30 2411 H 221.71 -1.30152 -4.8152 0
M  V30 2412 H 220.864 0.720351 -6.02408 0
M  V30 2413 H 219.603 0.959413 -4.7817 0
M  V30 2414 H 218.608 -1.27475 -5.34818 0
M  V30 2415 H 219.833 -1.50178 -6.62286 0
M  V30 2416 H 217.779 0.739791 -6.51815 0
M  V30 2417 H 217.696 -0.664321 -7.53076 0
M  V30 2418 H 218.964 0.498644 -7.77903 0
M  V30 2419 N 223.193 1.4272 -0.668489 0
M  V30 2420 C 224.439 2.02443 -0.197076 0
M  V30 2421 C 224.794 1.51882 1.18109 0
M  V30 2422 O 224.087 0.708618 1.78015 0
M  V30 2423 C 224.281 3.57021 -0.164499 0
M  V30 2424 C 224.11 4.22583 -1.53797 0
M  V30 2425 C 222.88 4.58019 -2.13416 0
M  V30 2426 C 225.078 4.50588 -2.47941 0
M  V30 2427 N 223.06 5.08729 -3.4361 0
M  V30 2428 C 224.431 5.02782 -3.62782 0
M  V30 2429 C 226.486 4.32571 -2.46551 0
M  V30 2430 C 225.189 5.38852 -4.76478 0
M  V30 2431 C 227.215 4.69713 -3.59338 0
M  V30 2432 C 226.577 5.22053 -4.72906 0
M  V30 2433 H 222.676 0.773214 -0.116894 0
M  V30 2434 H 225.26 1.73673 -0.880108 0
M  V30 2435 H 223.431 3.85323 0.487925 0
M  V30 2436 H 225.163 4.03439 0.319207 0
M  V30 2437 H 221.918 4.43566 -1.65969 0
M  V30 2438 H 222.342 5.38521 -4.10273 0
M  V30 2439 H 226.984 3.91365 -1.59978 0
M  V30 2440 H 224.702 5.78993 -5.63731 0
M  V30 2441 H 228.288 4.57454 -3.59482 0
M  V30 2442 H 227.168 5.50258 -5.58736 0
M  V30 2443 N 224.671 0.411399 1.52136 0
M  V30 2444 C 225.948 -0.222308 1.94333 0
M  V30 2445 C 226.328 -1.6242 1.34844 0
M  V30 2446 O 225.676 -2.22384 0.525145 0
M  V30 2447 C 225.886 -0.226345 3.48265 0
M  V30 2448 C 227.234 -0.444592 4.22266 0
M  V30 2449 O 228.258 -0.305602 3.54887 0
M  V30 2450 O 227.117 -0.718749 5.41753 0
M  V30 2451 H 224.211 -0.143907 0.814383 0
M  V30 2452 H 226.757 0.467506 1.63133 0
M  V30 2453 H 225.529 0.75475 3.83952 0
M  V30 2454 H 225.152 -0.960163 3.85832 0
M  V30 2455 N 226.149 -1.5696 0.141893 0
M  V30 2456 C 227.096 -2.16501 -0.799737 0
M  V30 2457 C 228.066 -1.09643 -1.24771 0
M  V30 2458 O 229.251 -1.3766 -1.32115 0
M  V30 2459 C 226.391 -2.78679 -2.03549 0
M  V30 2460 C 225.504 -3.99914 -1.6338 0
M  V30 2461 C 224.639 -4.50106 -2.82096 0
M  V30 2462 C 223.678 -5.63819 -2.38275 0
M  V30 2463 N 222.815 -6.08651 -3.49983 0
M  V30 2464 H 227.655 -2.96632 -0.285179 0
M  V30 2465 H 225.192 -1.46533 -0.129053 0
M  V30 2466 H 227.15 -3.1287 -2.75986 0
M  V30 2467 H 225.78 -2.012 -2.52425 0
M  V30 2468 H 224.832 -3.71735 -0.807279 0
M  V30 2469 H 226.144 -4.82311 -1.27192 0
M  V30 2470 H 225.298 -4.86325 -3.62729 0
M  V30 2471 H 224.037 -3.66706 -3.21525 0
M  V30 2472 H 223.042 -5.2718 -1.56081 0
M  V30 2473 H 224.267 -6.49 -1.99938 0
M  V30 2474 H 222.213 -5.28188 -3.89042 0
M  V30 2475 H 222.13 -6.85961 -3.17794 0
M  V30 2476 H 223.398 -6.49515 -4.30988 0
M  V30 2477 N 227.627 0.131896 -1.57047 0
M  V30 2478 C 228.577 1.1679 -1.95816 0
M  V30 2479 C 229.561 1.37756 -0.831393 0
M  V30 2480 O 230.753 1.39065 -1.09499 0
M  V30 2481 C 227.882 2.49778 -2.35512 0
M  V30 2482 C 226.968 2.32342 -3.54793 0
M  V30 2483 N 227.359 1.8469 -4.70875 0
M  V30 2484 C 225.657 2.63043 -3.60173 0
M  V30 2485 C 226.358 1.80656 -5.52936 0
M  V30 2486 N 225.334 2.24528 -4.95064 0
M  V30 2487 H 229.136 0.791818 -2.83033 0
M  V30 2488 H 226.65 0.339791 -1.58805 0
M  V30 2489 H 228.647 3.24692 -2.61498 0
M  V30 2490 H 227.307 2.88156 -1.49654 0
M  V30 2491 H 228.318 1.54429 -4.9434 0
M  V30 2492 H 224.995 3.05193 -2.84892 0
M  V30 2493 H 226.385 1.45178 -6.56028 0
M  V30 2494 N 229.106 1.52395 0.401703 0
M  V30 2495 C 230.069 1.75636 1.47257 0
M  V30 2496 C 231.069 0.62628 1.48103 0
M  V30 2497 O 232.259 0.894227 1.49497 0
M  V30 2498 C 229.391 1.84553 2.86624 0
M  V30 2499 H 230.584 2.71241 1.27938 0
M  V30 2500 H 228.137 1.42923 0.632662 0
M  V30 2501 H 228.872 0.908882 3.11303 0
M  V30 2502 H 228.657 2.66715 2.87412 0
M  V30 2503 H 230.147 2.04251 3.64241 0
M  V30 2504 N 230.584 -0.659388 1.43143 0
M  V30 2505 C 231.531 -1.77249 1.47822 0
M  V30 2506 C 232.501 -1.62818 0.328558 0
M  V30 2507 O 233.686 -1.83151 0.534838 0
M  V30 2508 C 230.826 -3.15371 1.40126 0
M  V30 2509 C 229.939 -3.4098 2.65249 0
M  V30 2510 C 229.074 -4.68915 2.49584 0
M  V30 2511 C 228.113 -4.87608 3.70006 0
M  V30 2512 N 227.25 -6.06796 3.53189 0
M  V30 2513 H 232.09 -1.72584 2.42938 0
M  V30 2514 H 229.627 -0.842297 1.20598 0
M  V30 2515 H 231.585 -3.9521 1.33659 0
M  V30 2516 H 230.215 -3.19121 0.485964 0
M  V30 2517 H 229.267 -2.55282 2.8202 0
M  V30 2518 H 230.579 -3.50681 3.54717 0
M  V30 2519 H 229.733 -5.56871 2.4079 0
M  V30 2520 H 228.472 -4.61524 1.5763 0
M  V30 2521 H 227.477 -3.9809 3.79215 0
M  V30 2522 H 228.702 -4.96834 4.62961 0
M  V30 2523 H 226.648 -6.00549 2.63965 0
M  V30 2524 H 226.565 -6.17428 4.36255 0
M  V30 2525 H 227.833 -6.9739 3.48236 0
M  V30 2526 N 232.062 -1.29571 -0.897171 0
M  V30 2527 C 233.308 -1.17863 -1.65034 0
M  V30 2528 C 233.641 0.268729 -1.92332 0
M  V30 2529 O 232.916 1.19378 -1.53555 0
M  V30 2530 C 233.199 -1.995 -2.99786 0
M  V30 2531 C 233.052 -3.5239 -2.79538 0
M  V30 2532 C 234.371 -1.82335 -4.00552 0
M  V30 2533 H 231.49 -0.429528 -0.598895 0
M  V30 2534 H 234.132 -1.59072 -1.03905 0
M  V30 2535 H 232.282 -1.64485 -3.51962 0
M  V30 2536 H 233.954 -3.97401 -2.34244 0
M  V30 2537 H 232.197 -3.77187 -2.14273 0
M  V30 2538 H 232.868 -4.04787 -3.75302 0
M  V30 2539 H 235.344 -2.12924 -3.57495 0
M  V30 2540 H 234.22 -2.41801 -4.92771 0
M  V30 2541 H 234.481 -0.779209 -4.35179 0
M  V30 2542 N 233.54 1.10788 -1.12088 0
M  V30 2543 C 234.786 1.82942 -0.875226 0
M  V30 2544 C 235.119 1.84779 0.597538 0
M  V30 2545 O 234.394 1.30578 1.44152 0
M  V30 2546 C 234.677 3.29789 -1.44606 0
M  V30 2547 C 234.53 3.36307 -2.98693 0
M  V30 2548 C 235.849 4.26064 -1.10261 0
M  V30 2549 H 232.968 0.664195 -0.319397 0
M  V30 2550 H 235.61 1.29867 -1.38689 0
M  V30 2551 H 233.76 3.75118 -1.01089 0
M  V30 2552 H 235.432 2.99487 -3.50864 0
M  V30 2553 H 233.675 2.76318 -3.34411 0
M  V30 2554 H 234.346 4.39694 -3.33726 0
M  V30 2555 H 236.822 3.88951 -1.4784 0
M  V30 2556 H 235.698 5.27183 -1.52869 0
M  V30 2557 H 235.959 4.42098 -0.0142953 0
M  V30 2558 N 235.018 0.912232 1.28515 0
M  V30 2559 C 236.434 0.610159 1.47476 0
M  V30 2560 C 236.634 -0.844955 1.82928 0
M  V30 2561 O 235.69 -1.62416 1.93332 0
M  V30 2562 C 237.003 1.54675 2.57868 0
M  V30 2563 C 238.551 1.55331 2.71738 0
M  V30 2564 C 239.026 2.47649 3.85272 0
M  V30 2565 N 240.517 2.45767 3.92623 0
M  V30 2566 C 241.252 3.13896 4.79851 0
M  V30 2567 N 240.748 3.9135 5.71679 0
M  V30 2568 N 242.541 3.02991 4.73448 0
M  V30 2569 H 234.692 1.85318 1.03783 0
M  V30 2570 H 236.955 0.794777 0.516753 0
M  V30 2571 H 236.661 2.5841 2.38574 0
M  V30 2572 H 236.535 1.27671 3.54937 0
M  V30 2573 H 238.922 0.52335 2.90422 0
M  V30 2574 H 239.003 1.86378 1.75205 0
M  V30 2575 H 238.647 3.50745 3.67342 0
M  V30 2576 H 238.577 2.13904 4.81199 0
M  V30 2577 H 241.068 1.89503 3.26951 0
M  V30 2578 H 241.381 4.40359 6.35062 0
M  V30 2579 H 239.726 3.95455 5.71524 0
M  V30 2580 H 242.917 2.41987 4.007 0
M  V30 2581 H 243.09 3.5636 5.41213 0
M  V30 2582 N 236.496 -1.42363 0.676048 0
M  V30 2583 C 237.428 -2.29164 -0.0404605 0
M  V30 2584 C 238.441 -1.43747 -0.764245 0
M  V30 2585 O 239.63 -1.67453 -0.618195 0
M  V30 2586 C 236.73 -3.21196 -1.08103 0
M  V30 2587 C 235.903 -4.35273 -0.430812 0
M  V30 2588 C 234.962 -5.08017 -1.37133 0
M  V30 2589 O 233.988 -5.62494 -0.87116 0
M  V30 2590 N 235.19 -5.13647 -2.70456 0
M  V30 2591 H 237.955 -2.91298 0.704667 0
M  V30 2592 H 235.516 -1.53303 0.520559 0
M  V30 2593 H 237.508 -3.66728 -1.71152 0
M  V30 2594 H 236.078 -2.60505 -1.72788 0
M  V30 2595 H 235.298 -3.92372 0.379209 0
M  V30 2596 H 236.586 -5.08795 0.0221132 0
M  V30 2597 H 235.984 -4.708 -3.1363 0
M  V30 2598 H 234.541 -5.62821 -3.28749 0
M  V30 2599 N 237.974 -0.419461 -1.51915 0
M  V30 2600 C 239.202 0.152136 -2.0634 0
M  V30 2601 C 239.617 1.37988 -1.28859 0
M  V30 2602 O 238.974 1.79243 -0.343232 0
M  V30 2603 C 239.025 0.492266 -3.58133 0
M  V30 2604 O 238.746 -0.686736 -4.32684 0
M  V30 2605 C 240.247 1.11648 -4.2901 0
M  V30 2606 H 237.467 0.0158325 -0.670813 0
M  V30 2607 H 240.011 -0.593394 -1.95702 0
M  V30 2608 H 238.166 1.18769 -3.68745 0
M  V30 2609 H 238.58 -0.400341 -5.2297 0
M  V30 2610 H 240.054 1.3046 -5.36362 0
M  V30 2611 H 240.531 2.09251 -3.86148 0
M  V30 2612 H 241.137 0.460958 -4.22795 0
M  V30 2613 N 239.452 1.56882 -0.150215 0
M  V30 2614 C 240.382 2.19935 0.784284 0
M  V30 2615 C 241.363 1.14854 1.25469 0
M  V30 2616 O 242.548 1.43209 1.31168 0
M  V30 2617 C 239.678 2.82349 2.02229 0
M  V30 2618 C 238.632 3.93285 1.68853 0
M  V30 2619 C 237.958 4.42649 2.99944 0
M  V30 2620 C 239.258 5.13904 0.932714 0
M  V30 2621 H 240.952 2.9828 0.258781 0
M  V30 2622 H 238.498 1.43473 0.123029 0
M  V30 2623 H 240.451 3.25126 2.68088 0
M  V30 2624 H 239.175 2.0134 2.57157 0
M  V30 2625 H 237.834 3.5113 1.05371 0
M  V30 2626 H 237.482 3.58458 3.52869 0
M  V30 2627 H 237.182 5.17476 2.78374 0
M  V30 2628 H 238.706 4.88099 3.66868 0
M  V30 2629 H 240.12 5.53506 1.49345 0
M  V30 2630 H 238.517 5.94515 0.81684 0
M  V30 2631 H 239.587 4.84842 -0.0749568 0
M  V30 2632 N 240.93 -0.123565 1.57115 0
M  V30 2633 C 241.878 -1.17082 2.00984 0
M  V30 2634 C 242.872 -1.43136 0.906009 0
M  V30 2635 O 244.078 -1.43152 1.09121 0
M  V30 2636 H 240.453 -0.394653 0.64012 0
M  V30 2637 H 242.424 -0.774292 2.88179 0
M  V30 2638 C 241.173 -2.49057 2.42623 0
M  V30 2639 H 240.496 -2.29846 3.27125 0
M  V30 2640 H 241.936 -3.20906 2.7712 0
M  V30 2641 C 240.395 -3.11305 1.28805 0
M  V30 2642 O 240.925 -3.97171 0.60153 0
M  V30 2643 N 239.131 -2.71111 1.04628 0
M  V30 2644 H 238.678 -2.01382 1.60634 0
M  V30 2645 H 238.636 -3.1309 0.286685 0
M  V30 2646 N 242.408 -1.52605 -0.393616 0
M  V30 2647 C 243.657 -1.66649 -1.13627 0
M  V30 2648 C 243.97 -0.410364 -1.91247 0
M  V30 2649 O 245.176 -0.430854 -2.68059 0
M  V30 2650 C 243.632 -2.9449 -2.06891 0
M  V30 2651 C 243.24 -4.27266 -1.34714 0
M  V30 2652 C 244.984 -3.17899 -2.81319 0
M  V30 2653 C 242.891 -5.46217 -2.26717 0
M  V30 2654 H 241.821 -0.62084 -0.427871 0
M  V30 2655 H 244.472 -1.791 -0.399428 0
M  V30 2656 H 242.854 -2.75774 -2.84191 0
M  V30 2657 H 244.028 -4.56518 -0.626714 0
M  V30 2658 H 242.343 -4.10081 -0.722643 0
M  V30 2659 H 244.94 -4.03949 -3.50328 0
M  V30 2660 H 245.283 -2.32777 -3.45139 0
M  V30 2661 H 245.816 -3.37159 -2.11113 0
M  V30 2662 H 242.555 -6.33733 -1.67521 0
M  V30 2663 H 242.075 -5.21283 -2.96689 0
M  V30 2664 H 243.754 -5.7991 -2.86903 0
M  V30 2665 N 243.887 0.651787 -1.4349 0
M  V30 2666 C 245.164 1.40909 -1.35661 0
M  V30 2667 C 245.544 2.11099 -0.00511733 0
M  V30 2668 O 244.892 2.04892 1.0115 0
M  V30 2669 C 245.102 2.3926 -2.54078 0
M  V30 2670 C 246.45 3.03217 -2.97228 0
M  V30 2671 O 247.474 2.49588 -2.54135 0
M  V30 2672 O 246.333 4.00455 -3.71885 0
M  V30 2673 H 243.427 0.629625 -0.536191 0
M  V30 2674 H 245.973 0.678575 -1.55542 0
M  V30 2675 H 244.745 1.86352 -3.44076 0
M  V30 2676 H 244.368 3.1976 -2.36303 0
M  V30 2677 N 245.365 1.30045 0.890287 0
M  V30 2678 C 246.776 1.16738 1.45702 0
M  V30 2679 C 247.127 -0.233939 1.948 0
M  V30 2680 O 246.252 -1.13021 1.84541 0
M  V30 2681 C 246.847 2.11313 2.64825 0
M  V30 2682 C 245.406 2.02001 3.17604 0
M  V30 2683 C 244.553 2.01699 1.90296 0
M  V30 2684 H 247.504 1.42392 0.700726 0
M  V30 2685 H 247.525 1.69086 3.40867 0
M  V30 2686 H 247.037 3.13294 2.2906 0
M  V30 2687 H 245.138 1.03142 3.5804 0
M  V30 2688 H 245.251 2.90128 3.81264 0
M  V30 2689 H 243.615 1.46427 2.08402 0
M  V30 2690 H 244.398 3.05402 1.56795 0
M  V30 2691 N 246.843 -1.10192 1.12674 0
M  V30 2692 C 247.753 -2.20172 0.810026 0
M  V30 2693 C 248.769 -1.72821 -0.202188 0
M  V30 2694 O 249.945 -2.01369 -0.0351691 0
M  V30 2695 C 247.01 -3.45631 0.272007 0
M  V30 2696 C 246.071 -4.07704 1.34447 0
M  V30 2697 C 245.304 -5.27175 0.832029 0
M  V30 2698 O 245.527 -5.69425 -0.333284 0
M  V30 2699 O 244.461 -5.80168 1.60277 0
M  V30 2700 H 248.287 -2.49701 1.72867 0
M  V30 2701 H 245.872 -1.18977 0.903597 0
M  V30 2702 H 247.754 -4.21394 -0.0230219 0
M  V30 2703 H 246.429 -3.17723 -0.619164 0
M  V30 2704 H 245.336 -3.33614 1.6927 0
M  V30 2705 H 246.669 -4.3982 2.2095 0
M  V30 2706 N 248.321 -0.919034 -1.28029 0
M  V30 2707 C 249.598 -0.473668 -1.89778 0
M  V30 2708 C 249.978 1.04783 -1.83259 0
M  V30 2709 O 249.326 1.8982 -1.27202 0
M  V30 2710 C 249.536 -1.00998 -3.34066 0
M  V30 2711 C 250.884 -1.06525 -4.1102 0
M  V30 2712 O 251.908 -0.958996 -3.43048 0
M  V30 2713 O 250.767 -1.22776 -5.3253 0
M  V30 2714 H 247.861 -0.15098 -0.813101 0
M  V30 2715 H 250.407 -1.01016 -1.36359 0
M  V30 2716 H 249.179 -2.05392 -3.33061 0
M  V30 2717 H 248.802 -0.454626 -3.94992 0
M  V30 2718 N 249.799 1.42003 -0.683588 0
M  V30 2719 C 250.709 2.34597 -0.0109075 0
M  V30 2720 C 251.725 1.55576 0.779245 0
M  V30 2721 O 252.901 1.88107 0.719555 0
M  V30 2722 C 249.966 3.34199 0.922588 0
M  V30 2723 C 249.027 4.29115 0.125984 0
M  V30 2724 C 248.26 5.23959 1.01502 0
M  V30 2725 O 248.483 5.23952 2.25456 0
M  V30 2726 O 247.417 6.00053 0.47111 0
M  V30 2727 H 251.243 2.93675 -0.773853 0
M  V30 2728 H 248.828 1.42654 -0.443861 0
M  V30 2729 H 250.71 3.95365 1.45823 0
M  V30 2730 H 249.385 2.77582 1.66523 0
M  V30 2731 H 248.292 3.71335 -0.453969 0
M  V30 2732 H 249.625 4.88798 -0.577736 0
M  V30 2733 N 251.277 0.427512 1.51691 0
M  V30 2734 C 252.207 -0.3796 2.30394 0
M  V30 2735 C 253.188 -1.02982 1.35384 0
M  V30 2736 O 254.373 -1.03534 1.643 0
M  V30 2737 C 251.503 -1.48649 3.1388 0
M  V30 2738 C 250.457 -0.960294 4.17088 0
M  V30 2739 C 249.783 -2.16219 4.89033 0
M  V30 2740 C 251.083 -0.00153679 5.223 0
M  V30 2741 H 252.777 0.277164 2.98114 0
M  V30 2742 H 250.323 0.134739 1.43368 0
M  V30 2743 H 252.276 -2.05826 3.67714 0
M  V30 2744 H 251 -2.1714 2.43962 0
M  V30 2745 H 249.659 -0.410806 3.64291 0
M  V30 2746 H 249.307 -2.83307 4.15628 0
M  V30 2747 H 249.007 -1.81654 5.58816 0
M  V30 2748 H 250.531 -2.73968 5.45687 0
M  V30 2749 H 251.945 -0.482687 5.71264 0
M  V30 2750 H 250.342 0.256199 5.99553 0
M  V30 2751 H 251.412 0.938174 4.75738 0
M  V30 2752 N 252.755 -1.56801 0.158532 0
M  V30 2753 C 254.004 -1.95665 -0.489702 0
M  V30 2754 C 254.317 -1.04654 -1.65248 0
M  V30 2755 O 255.523 -1.33146 -2.3661 0
M  V30 2756 C 253.979 -3.47874 -0.922582 0
M  V30 2757 C 253.587 -4.47489 0.213893 0
M  V30 2758 C 255.331 -3.95583 -1.53996 0
M  V30 2759 C 253.238 -5.90921 -0.237903 0
M  V30 2760 H 252.168 -0.730516 -0.186716 0
M  V30 2761 H 254.819 -1.81861 0.244722 0
M  V30 2762 H 253.201 -3.57051 -1.71261 0
M  V30 2763 H 254.375 -4.50017 0.991036 0
M  V30 2764 H 252.69 -4.09764 0.740407 0
M  V30 2765 H 255.287 -5.0019 -1.8898 0
M  V30 2766 H 255.63 -3.37789 -2.43319 0
M  V30 2767 H 256.163 -3.8937 -0.814611 0
M  V30 2768 H 252.902 -6.52559 0.620236 0
M  V30 2769 H 252.422 -5.91729 -0.980676 0
M  V30 2770 H 254.101 -6.43352 -0.686067 0
M  V30 2771 N 254.233 0.115231 -1.57178 0
M  V30 2772 C 255.163 1.1423 -2.03651 0
M  V30 2773 C 256.144 1.42967 -0.921655 0
M  V30 2774 O 257.329 1.53343 -1.19162 0
M  V30 2775 C 254.459 2.4675 -2.44401 0
M  V30 2776 C 253.413 2.32467 -3.59365 0
M  V30 2777 C 252.739 3.69984 -3.86026 0
M  V30 2778 C 254.039 1.78203 -4.90959 0
M  V30 2779 H 255.733 0.755749 -2.89705 0
M  V30 2780 H 253.279 0.362093 -1.39373 0
M  V30 2781 H 255.232 3.18854 -2.75517 0
M  V30 2782 H 253.956 2.87302 -1.55322 0
M  V30 2783 H 252.615 1.62811 -3.28463 0
M  V30 2784 H 252.263 4.08028 -2.94147 0
M  V30 2785 H 251.963 3.61279 -4.63412 0
M  V30 2786 H 253.487 4.43587 -4.19599 0
M  V30 2787 H 254.901 2.40128 -5.20587 0
M  V30 2788 H 253.298 1.8031 -5.72371 0
M  V30 2789 H 254.368 0.739876 -4.79222 0
M  V30 2790 N 255.711 1.52812 0.385517 0
M  V30 2791 C 256.958 1.68026 1.1302 0
M  V30 2792 C 257.286 0.421934 1.89868 0
M  V30 2793 O 256.541 -0.595749 1.86412 0
M  V30 2794 C 256.84 2.86856 2.13187 0
M  V30 2795 C 256.506 4.24159 1.5297 0
M  V30 2796 C 255.168 4.61501 1.36274 0
M  V30 2797 C 257.52 5.09627 1.09223 0
M  V30 2798 C 254.848 5.81966 0.743837 0
M  V30 2799 C 257.2 6.30719 0.487411 0
M  V30 2800 C 255.864 6.6679 0.307777 0
M  V30 2801 H 255.134 0.614849 0.413571 0
M  V30 2802 H 257.781 1.86962 0.414405 0
M  V30 2803 H 256.086 2.6235 2.90998 0
M  V30 2804 H 257.783 2.95821 2.70722 0
M  V30 2805 H 254.373 3.94746 1.66954 0
M  V30 2806 H 258.557 4.81343 1.20922 0
M  V30 2807 H 253.813 6.08519 0.592891 0
M  V30 2808 H 257.987 6.96259 0.140143 0
M  V30 2809 H 255.614 7.60001 -0.173879 0
M  V30 2810 N 257.189 -0.644168 1.43834 0
M  V30 2811 C 258.414 -1.43642 1.49605 0
M  V30 2812 C 258.839 -1.8773 0.117913 0
M  V30 2813 O 258.197 -1.57938 -0.890239 0
M  V30 2814 C 258.245 -2.6416 2.45463 0
M  V30 2815 O 257.349 -3.63538 1.94714 0
M  V30 2816 H 256.69 -0.430329 0.50568 0
M  V30 2817 H 259.22 -0.787448 1.8884 0
M  V30 2818 H 259.23 -3.11864 2.63068 0
M  V30 2819 H 257.905 -2.31414 3.45572 0
M  V30 2820 H 256.482 -3.2273 1.86814 0
M  V30 2821 N 258.668 -1.30515 -0.883378 0
M  V30 2822 C 259.893 -1.22487 -1.67367 0
M  V30 2823 C 260.318 0.208767 -1.86938 0
M  V30 2824 O 259.676 1.15015 -1.40148 0
M  V30 2825 C 259.724 -1.96041 -3.02655 0
M  V30 2826 O 258.828 -1.28859 -3.91751 0
M  V30 2827 H 258.169 -0.423573 -0.511353 0
M  V30 2828 H 260.699 -1.72362 -1.10239 0
M  V30 2829 H 260.709 -2.05124 -3.52687 0
M  V30 2830 H 259.384 -3.00307 -2.8773 0
M  V30 2831 H 257.961 -1.28141 -3.50192 0
M  V30 2832 N 260.146 1.09593 -1.13257 0
M  V30 2833 C 261.056 2.19739 -0.821691 0
M  V30 2834 C 262.072 1.72926 0.19302 0
M  V30 2835 O 263.248 2.01385 0.0244895 0
M  V30 2836 C 260.313 3.45482 -0.290333 0
M  V30 2837 C 259.374 4.06985 -1.36607 0
M  V30 2838 C 258.607 5.26726 -0.859975 0
M  V30 2839 O 258.83 5.69594 0.303082 0
M  V30 2840 O 257.764 5.7931 -1.63351 0
M  V30 2841 H 261.59 2.48781 -1.74189 0
M  V30 2842 H 259.175 1.18496 -0.909894 0
M  V30 2843 H 261.057 4.214 0.000674022 0
M  V30 2844 H 259.732 3.18047 0.602306 0
M  V30 2845 H 258.639 3.32712 -1.71037 0
M  V30 2846 H 259.972 4.38643 -2.23279 0
M  V30 2847 N 261.624 0.925811 1.2754 0
M  V30 2848 C 262.852 0.581509 1.9856 0
M  V30 2849 C 263.267 -0.840041 1.69082 0
M  V30 2850 O 262.624 -1.55805 0.950312 0
M  V30 2851 C 262.675 0.795589 3.52637 0
M  V30 2852 O 262.396 2.16121 3.81082 0
M  V30 2853 C 263.897 0.459744 4.4091 0
M  V30 2854 H 261.117 0.220538 0.633722 0
M  V30 2855 H 263.661 1.24232 1.6244 0
M  V30 2856 H 261.816 0.18161 3.86974 0
M  V30 2857 H 262.23 2.2098 4.75676 0
M  V30 2858 H 263.704 0.660244 5.48037 0
M  V30 2859 H 264.181 -0.604625 4.35018 0
M  V30 2860 H 264.787 1.05178 4.12089 0
M  V30 2861 N 263.102 -1.41638 0.69111 0
M  V30 2862 C 264.049 -2.30789 0.0229705 0
M  V30 2863 C 265.019 -1.46863 -0.775911 0
M  V30 2864 O 266.204 -1.75661 -0.74485 0
M  V30 2865 C 263.344 -3.32868 -0.910666 0
M  V30 2866 C 262.457 -4.31875 -0.103874 0
M  V30 2867 C 261.592 -5.21024 -1.03475 0
M  V30 2868 C 260.631 -6.11702 -0.220598 0
M  V30 2869 N 259.768 -6.93349 -1.10504 0
M  V30 2870 H 264.608 -2.87366 0.788978 0
M  V30 2871 H 262.145 -1.41535 0.400794 0
M  V30 2872 H 264.103 -3.90596 -1.46597 0
M  V30 2873 H 262.733 -2.77851 -1.64312 0
M  V30 2874 H 261.785 -3.76131 0.568285 0
M  V30 2875 H 263.097 -4.96003 0.527504 0
M  V30 2876 H 262.251 -5.83565 -1.65943 0
M  V30 2877 H 260.99 -4.57112 -1.69999 0
M  V30 2878 H 259.995 -5.48215 0.417187 0
M  V30 2879 H 261.22 -6.77668 0.440784 0
M  V30 2880 H 259.166 -6.3205 -1.75638 0
M  V30 2881 H 259.083 -7.54146 -0.529125 0
M  V30 2882 H 260.351 -7.60362 -1.71667 0
M  V30 2883 N 264.58 -0.43555 -1.51462 0
M  V30 2884 C 265.527 0.376797 -2.27703 0
M  V30 2885 C 266.497 1.01838 -1.31219 0
M  V30 2886 O 267.682 1.03762 -1.60119 0
M  V30 2887 C 264.822 1.47301 -3.12084 0
M  V30 2888 C 263.935 0.849744 -4.2356 0
M  V30 2889 C 263.07 1.92086 -4.95254 0
M  V30 2890 C 262.109 1.27593 -5.98654 0
M  V30 2891 N 261.246 2.28833 -6.63762 0
M  V30 2892 H 266.086 -0.279734 -2.96684 0
M  V30 2893 H 263.623 -0.149795 -1.46335 0
M  V30 2894 H 265.581 2.11984 -3.59331 0
M  V30 2895 H 264.211 2.0992 -2.45221 0
M  V30 2896 H 263.263 0.0912529 -3.80291 0
M  V30 2897 H 264.575 0.338878 -4.97648 0
M  V30 2898 H 263.729 2.64435 -5.46039 0
M  V30 2899 H 262.468 2.46545 -4.20793 0
M  V30 2900 H 261.473 0.537893 -5.47162 0
M  V30 2901 H 262.698 0.738693 -6.7507 0
M  V30 2902 H 260.644 2.82375 -5.92115 0
M  V30 2903 H 260.561 1.82632 -7.33608 0
M  V30 2904 H 261.829 3.00671 -7.19178 0
M  V30 2905 N 266.058 1.56714 -0.166846 0
M  V30 2906 C 267.306 1.96358 0.478305 0
M  V30 2907 C 267.627 1.0537 1.6408 0
M  V30 2908 O 266.897 0.119154 1.95537 0
M  V30 2909 H 265.477 0.725065 0.179692 0
M  V30 2910 H 268.139 1.93329 -0.246985 0
M  V30 2911 H 267.235 3.00547 0.841292 0
M  V30 2912 N 267.536 -0.106894 1.57237 0
M  V30 2913 C 268.483 -1.13049 2.01217 0
M  V30 2914 C 269.453 -1.40471 0.886403 0
M  V30 2915 O 270.638 -1.52133 1.15153 0
M  V30 2916 C 267.778 -2.4487 2.43172 0
M  V30 2917 C 266.891 -2.24281 3.69218 0
M  V30 2918 C 266.026 -3.49417 4.00101 0
M  V30 2919 C 265.065 -3.24038 5.19294 0
M  V30 2920 N 264.202 -4.41409 5.45988 0
M  V30 2921 H 269.042 -0.748456 2.88448 0
M  V30 2922 H 266.579 -0.358054 1.42676 0
M  V30 2923 H 268.537 -3.21786 2.65537 0
M  V30 2924 H 267.167 -2.80944 1.58967 0
M  V30 2925 H 266.219 -1.38224 3.54398 0
M  V30 2926 H 267.531 -2.01512 4.56283 0
M  V30 2927 H 266.685 -4.34746 4.2318 0
M  V30 2928 H 265.424 -3.75229 3.11535 0
M  V30 2929 H 264.429 -2.37102 4.96047 0
M  V30 2930 H 265.654 -2.99584 6.09447 0
M  V30 2931 H 263.6 -4.67319 4.60379 0
M  V30 2932 H 263.517 -4.21788 6.274 0
M  V30 2933 H 264.785 -5.27836 5.73593 0
M  V30 2934 N 269.014 -1.53014 -0.377408 0
M  V30 2935 C 270.291 -1.59215 -1.13622 0
M  V30 2936 C 270.671 -0.392407 -2.07421 0
M  V30 2937 O 270.019 0.618342 -2.19975 0
M  V30 2938 C 270.229 -2.93669 -1.88573 0
M  V30 2939 C 271.577 -3.47822 -2.43526 0
M  V30 2940 O 272.601 -2.9562 -1.98715 0
M  V30 2941 O 271.46 -4.39055 -3.25412 0
M  V30 2942 H 268.554 -0.642625 -0.52054 0
M  V30 2943 H 271.1 -1.65353 -0.381625 0
M  V30 2944 H 269.872 -3.7243 -1.20048 0
M  V30 2945 H 269.495 -2.90968 -2.70968 0
M  V30 2946 N 270.492 0.636531 -1.44174 0
M  V30 2947 C 271.402 1.77754 -1.53103 0
M  V30 2948 C 272.418 1.68928 -0.417034 0
M  V30 2949 O 273.594 1.89801 -0.6736 0
M  V30 2950 C 270.659 3.14115 -1.46741 0
M  V30 2951 C 269.72 3.34612 -2.68948 0
M  V30 2952 C 268.953 4.64467 -2.6288 0
M  V30 2953 O 269.176 5.44919 -1.68581 0
M  V30 2954 O 268.11 4.87049 -3.53648 0
M  V30 2955 H 271.936 1.73174 -2.49489 0
M  V30 2956 H 269.521 0.79709 -1.2636 0
M  V30 2957 H 271.403 3.95412 -1.45696 0
M  V30 2958 H 270.078 3.19249 -0.534975 0
M  V30 2959 H 268.985 2.53014 -2.75562 0
M  V30 2960 H 270.318 3.34336 -3.61221 0
M  V30 2961 N 271.97 1.30982 0.876444 0
M  V30 2962 C 272.933 1.18054 1.96459 0
M  V30 2963 C 273.933 0.109399 1.60427 0
M  V30 2964 O 275.123 0.358173 1.70478 0
M  V30 2965 C 272.255 0.810616 3.31122 0
M  V30 2966 H 273.448 2.14735 2.09354 0
M  V30 2967 H 271.001 1.145 1.06392 0
M  V30 2968 H 271.736 -0.155322 3.23928 0
M  V30 2969 H 271.521 1.58481 3.58645 0
M  V30 2970 H 273.011 0.743876 4.10921 0
M  V30 2971 N 273.449 -1.08991 1.13837 0
M  V30 2972 C 274.695 -1.81699 0.91417 0
M  V30 2973 C 275.05 -1.84264 -0.553594 0
M  V30 2974 O 274.343 -1.30313 -1.4046 0
M  V30 2975 C 274.537 -3.27042 1.44147 0
M  V30 2976 C 274.366 -3.38637 2.95897 0
M  V30 2977 C 273.136 -3.50177 3.64286 0
M  V30 2978 C 275.334 -3.30791 3.93804 0
M  V30 2979 N 273.316 -3.50501 5.04006 0
M  V30 2980 C 274.687 -3.38037 5.19741 0
M  V30 2981 C 276.742 -3.14488 3.86007 0
M  V30 2982 C 275.445 -3.30659 6.38793 0
M  V30 2983 C 277.471 -3.08438 5.04599 0
M  V30 2984 C 276.833 -3.1628 6.29402 0
M  V30 2985 H 272.932 -0.678967 0.387979 0
M  V30 2986 H 275.516 -1.30224 1.4474 0
M  V30 2987 H 273.687 -3.76976 0.935091 0
M  V30 2988 H 275.419 -3.87785 1.1578 0
M  V30 2989 H 272.174 -3.53815 3.1482 0
M  V30 2990 H 272.598 -3.54236 5.76928 0
M  V30 2991 H 277.24 -3.07291 2.90399 0
M  V30 2992 H 274.958 -3.36618 7.34652 0
M  V30 2993 H 278.544 -2.96952 5.0031 0
M  V30 2994 H 277.424 -3.1162 7.19627 0
M  V30 2995 N 274.927 -0.932562 -1.27047 0
M  V30 2996 C 276.175 -0.574422 -1.93765 0
M  V30 2997 C 276.496 0.887993 -1.73608 0
M  V30 2998 O 275.766 1.62999 -1.08665 0
M  V30 2999 H 274.346 -0.209451 -0.717035 0
M  V30 3000 H 277.008 -1.18601 -1.5466 0
M  V30 3001 H 276.104 -0.784841 -3.02071 0
M  V30 3002 N 276.405 1.4127 -0.698611 0
M  V30 3003 C 277.368 2.29158 -0.044132 0
M  V30 3004 C 278.368 1.44529 0.704841 0
M  V30 3005 O 279.558 1.65643 0.539276 0
M  V30 3006 C 276.69 3.27459 0.947809 0
M  V30 3007 H 277.883 2.88529 -0.817994 0
M  V30 3008 H 275.436 1.49307 -0.46228 0
M  V30 3009 H 276.171 2.73073 1.74933 0
M  V30 3010 H 275.956 3.8991 0.41385 0
M  V30 3011 H 277.446 3.93311 1.40344 0
M  V30 3012 N 277.883 0.443576 1.51229 0
M  V30 3013 C 279.132 -0.122332 2.01329 0
M  V30 3014 C 279.445 -1.43237 1.33201 0
M  V30 3015 O 280.651 -2.0816 1.74304 0
M  V30 3016 C 279.107 -0.268551 3.58897 0
M  V30 3017 C 278.715 1.03142 4.35965 0
M  V30 3018 C 280.459 -0.787894 4.17124 0
M  V30 3019 C 278.366 0.850504 5.85252 0
M  V30 3020 H 277.296 -0.0494929 0.752374 0
M  V30 3021 H 279.947 0.574289 1.74282 0
M  V30 3022 H 278.329 -1.02832 3.82415 0
M  V30 3023 H 279.503 1.80001 4.24189 0
M  V30 3024 H 277.818 1.47977 3.89219 0
M  V30 3025 H 280.415 -0.939841 5.26375 0
M  V30 3026 H 280.758 -1.77201 3.76703 0
M  V30 3027 H 281.291 -0.0862669 3.97706 0
M  V30 3028 H 278.03 1.80718 6.30096 0
M  V30 3029 H 277.55 0.121825 5.99676 0
M  V30 3030 H 279.229 0.506163 6.45017 0
M  V30 3031 N 279.361 -1.56624 0.175154 0
M  V30 3032 C 280.308 -2.18149 -0.753634 0
M  V30 3033 C 281.278 -1.12265 -1.22417 0
M  V30 3034 O 282.463 -1.40432 -1.29165 0
M  V30 3035 C 279.603 -2.82933 -1.97592 0
M  V30 3036 C 278.716 -4.03289 -1.5486 0
M  V30 3037 C 277.851 -4.55988 -2.72485 0
M  V30 3038 C 276.89 -5.68746 -2.26262 0
M  V30 3039 N 276.027 -6.15938 -3.36994 0
M  V30 3040 H 280.867 -2.9717 -0.222195 0
M  V30 3041 H 278.404 -1.46774 -0.0979422 0
M  V30 3042 H 280.362 -3.18653 -2.69288 0
M  V30 3043 H 278.992 -2.06509 -2.481 0
M  V30 3044 H 278.044 -3.73364 -0.728246 0
M  V30 3045 H 279.356 -4.849 -1.16933 0
M  V30 3046 H 278.51 -4.9391 -3.52332 0
M  V30 3047 H 277.249 -3.73443 -3.13674 0
M  V30 3048 H 276.254 -5.30372 -1.44863 0
M  V30 3049 H 277.479 -6.53095 -1.86127 0
M  V30 3050 H 275.425 -5.36321 -3.77751 0
M  V30 3051 H 275.342 -6.92548 -3.03172 0
M  V30 3052 H 276.61 -6.58511 -4.17114 0
M  V30 3053 N 280.839 0.0985539 -1.57292 0
M  V30 3054 C 281.786 1.11981 -2.01814 0
M  V30 3055 C 282.756 1.39999 -0.89384 0
M  V30 3056 O 283.941 1.5152 -1.15958 0
M  V30 3057 C 281.081 2.43577 -2.44467 0
M  V30 3058 C 280.194 2.2232 -3.70402 0
M  V30 3059 C 279.329 3.4729 -4.01949 0
M  V30 3060 C 278.368 3.2128 -5.21005 0
M  V30 3061 N 277.505 4.38507 -5.48321 0
M  V30 3062 H 282.345 0.733149 -2.88841 0
M  V30 3063 H 279.882 0.350482 -1.42864 0
M  V30 3064 H 281.84 3.20373 -2.6724 0
M  V30 3065 H 280.47 2.80097 -1.60455 0
M  V30 3066 H 279.522 1.36343 -3.55126 0
M  V30 3067 H 280.834 1.99089 -4.57345 0
M  V30 3068 H 279.988 4.32495 -4.25479 0
M  V30 3069 H 278.727 3.73572 -3.13521 0
M  V30 3070 H 277.732 2.34468 -4.97298 0
M  V30 3071 H 278.957 2.96348 -6.11028 0
M  V30 3072 H 276.903 4.64871 -4.62851 0
M  V30 3073 H 276.82 4.18455 -6.29628 0
M  V30 3074 H 278.088 5.24787 -5.76385 0
M  V30 3075 N 282.317 1.53212 0.369288 0
M  V30 3076 C 283.25 1.74166 1.4745 0
M  V30 3077 C 284.228 0.589923 1.51521 0
M  V30 3078 O 285.412 0.822078 1.69629 0
M  V30 3079 C 282.539 1.81711 2.8583 0
M  V30 3080 C 281.585 3.03649 2.99499 0
M  V30 3081 S 282.418 4.63242 2.6864 0
M  V30 3082 C 283.574 4.7363 4.09177 0
M  V30 3083 H 283.807 2.67636 1.29454 0
M  V30 3084 H 281.34 1.43754 0.563396 0
M  V30 3085 H 283.298 1.86743 3.65564 0
M  V30 3086 H 281.959 0.89299 3.01139 0
M  V30 3087 H 281.152 3.05526 4.00836 0
M  V30 3088 H 280.754 2.9671 2.27683 0
M  V30 3089 H 283.046 4.53456 5.03372 0
M  V30 3090 H 283.989 5.75682 4.12306 0
M  V30 3091 H 284.397 4.02295 3.96004 0
M  V30 3092 N 283.795 -0.628877 1.44509 0
M  V30 3093 C 285.044 -1.38437 1.4669 0
M  V30 3094 C 285.357 -1.95322 0.104272 0
M  V30 3095 O 286.563 -2.715 0.00362163 0
M  V30 3096 C 285.019 -2.50659 2.5826 0
M  V30 3097 C 284.627 -2.00277 4.0074 0
M  V30 3098 C 286.371 -3.27844 2.69664 0
M  V30 3099 C 284.278 -3.09854 5.0373 0
M  V30 3100 H 283.208 -0.520245 0.545766 0
M  V30 3101 H 285.859 -0.676313 1.70582 0
M  V30 3102 H 284.241 -3.2405 2.27612 0
M  V30 3103 H 285.415 -1.33736 4.40966 0
M  V30 3104 H 283.73 -1.35901 3.93599 0
M  V30 3105 H 286.327 -4.09534 3.43781 0
M  V30 3106 H 286.67 -3.77471 1.75559 0
M  V30 3107 H 287.203 -2.61543 2.99733 0
M  V30 3108 H 283.942 -2.65168 5.99472 0
M  V30 3109 H 283.462 -3.7503 4.68095 0
M  V30 3110 H 285.141 -3.74592 5.27532 0
M  V30 3111 N 285.273 -1.31445 -0.869486 0
M  V30 3112 C 286.221 -1.19067 -1.99814 0
M  V30 3113 C 287.215 -0.0988569 -1.69111 0
M  V30 3114 O 288.421 -0.260781 -1.78101 0
M  V30 3115 H 284.796 -0.368677 -0.655425 0
M  V30 3116 H 286.767 -2.14555 -2.07385 0
M  V30 3117 C 285.516 -0.915323 -3.35436 0
M  V30 3118 H 284.839 -1.74759 -3.59582 0
M  V30 3119 H 286.279 -0.868895 -4.15001 0
M  V30 3120 C 284.738 0.381928 -3.34728 0
M  V30 3121 O 285.268 1.39857 -3.76567 0
M  V30 3122 N 283.474 0.398633 -2.87853 0
M  V30 3123 H 283.021 -0.429186 -2.54 0
M  V30 3124 H 282.979 1.26651 -2.87762 0
M  V30 3125 N 286.751 1.08385 -1.14413 0
M  V30 3126 C 288.167 1.32844 -0.884563 0
M  V30 3127 C 288.367 1.95841 0.474181 0
M  V30 3128 O 287.423 2.21158 1.21842 0
M  V30 3129 C 288.736 2.22978 -2.01745 0
M  V30 3130 C 290.284 2.36458 -2.05077 0
M  V30 3131 C 290.759 3.29934 -3.1766 0
M  V30 3132 N 292.25 3.37511 -3.17239 0
M  V30 3133 C 292.985 4.09871 -4.0099 0
M  V30 3134 N 292.481 4.84936 -4.94781 0
M  V30 3135 N 294.274 4.05704 -3.89051 0
M  V30 3136 H 286.425 0.658756 -2.01926 0
M  V30 3137 H 288.688 0.352821 -0.879899 0
M  V30 3138 H 288.394 1.83934 -2.99769 0
M  V30 3139 H 288.268 3.23441 -1.94077 0
M  V30 3140 H 290.655 2.7476 -1.0766 0
M  V30 3141 H 290.736 1.35736 -2.16816 0
M  V30 3142 H 290.38 2.92352 -4.15322 0
M  V30 3143 H 290.31 4.30584 -3.03158 0
M  V30 3144 H 292.801 2.83996 -2.49308 0
M  V30 3145 H 293.114 5.37612 -5.55151 0
M  V30 3146 H 291.459 4.83988 -4.98779 0
M  V30 3147 H 294.65 3.46167 -3.15097 0
M  V30 3148 H 294.823 4.61834 -4.54547 0
M  V30 3149 O 288.268 1.07005 1.20964 0
M  V30 3150 H 288.959 0.754737 1.78391 0
M  V30 END ATOM
M  V30 BEGIN BOND
M  V30 END BOND
M  V30 END CTAB
M  END
$$$$
