drugbank_target|Q8NFW8 N-acylneuraminate cytidylyltransferase (DB02485)
 OpenBabel12092120553D

  0  0  0     0  0            999 V3000
M  V30 BEGIN CTAB
M  V30 COUNTS 6794 6855 0 0 0
M  V30 BEGIN ATOM
M  V30 1 H -0.908 1.98254 -0.117106 0
M  V30 2 N 0 1.576 0 0
M  V30 3 C 0.933 2.03868 1.02534 0
M  V30 4 C 1.911 0.928543 1.3348 0
M  V30 5 O 3.095 1.19667 1.45644 0
M  V30 6 C 0.222 2.43627 2.35294 0
M  V30 7 C -0.732 3.65373 2.2001 0
M  V30 8 S 0.101 5.13292 1.52614 0
M  V30 9 C 1.257 5.56322 2.86805 0
M  V30 10 H 1.49 2.90518 0.631377 0
M  V30 11 H -0.977 1.52953 0.210867 0
M  V30 12 H 0.981 2.67203 3.11629 0
M  V30 13 H -0.358 1.57376 2.7183 0
M  V30 14 H -1.165 3.90944 3.18086 0
M  V30 15 H -1.563 3.418 1.51819 0
M  V30 16 H 0.729 5.58782 3.83104 0
M  V30 17 H 1.672 6.56266 2.65933 0
M  V30 18 H 2.08 4.83886 2.90714 0
M  V30 19 N 1.4781 -0.272755 1.55222 0
M  V30 20 C 2.7551 -1.02562 1.66555 0
M  V30 21 C 3.1351 -2.04282 0.532189 0
M  V30 22 O 2.4831 -2.23662 -0.467717 0
M  V30 23 C 2.6931 -1.6822 3.05782 0
M  V30 24 C 4.0411 -2.19373 3.63539 0
M  V30 25 O 5.0651 -1.78206 3.08417 0
M  V30 26 O 3.9241 -2.94883 4.60115 0
M  V30 27 H 1.0181 -0.475755 0.676451 0
M  V30 28 H 3.5641 -0.268593 1.67561 0
M  V30 29 H 2.3361 -0.945112 3.79715 0
M  V30 30 H 1.9591 -2.50609 3.08676 0
M  V30 31 N 2.9562 -1.48159 -0.537278 0
M  V30 32 C 4.1812 -1.59707 -1.32319 0
M  V30 33 C 4.6062 -0.254859 -1.86365 0
M  V30 34 O 3.9642 0.772378 -1.64024 0
M  V30 35 C 4.0122 -2.6412 -2.45505 0
M  V30 36 O 3.1162 -2.20774 -3.48328 0
M  V30 37 H 2.4572 -0.535791 -0.392204 0
M  V30 38 H 4.9872 -1.94092 -0.647268 0
M  V30 39 H 4.9972 -2.85166 -2.91795 0
M  V30 40 H 3.6722 -3.61567 -2.05528 0
M  V30 41 H 2.2492 -2.09911 -3.08207 0
M  V30 42 N 4.4343 0.785586 -1.36625 0
M  V30 43 C 5.6803 1.54591 -1.31261 0
M  V30 44 C 6.0133 1.93906 0.106823 0
M  V30 45 O 5.2883 1.63007 1.06108 0
M  V30 46 C 5.5713 2.82038 -2.23889 0
M  V30 47 C 5.4243 2.49066 -3.74548 0
M  V30 48 C 6.7433 3.83887 -2.15217 0
M  V30 49 H 3.8623 0.560846 -0.478143 0
M  V30 50 H 6.5043 0.902278 -1.67209 0
M  V30 51 H 4.6543 3.36961 -1.93363 0
M  V30 52 H 6.3263 2.00164 -4.15611 0
M  V30 53 H 4.5693 1.81954 -3.93796 0
M  V30 54 H 5.2403 3.40109 -4.34776 0
M  V30 55 H 7.7163 3.38421 -2.42096 0
M  V30 56 H 6.5923 4.70806 -2.82193 0
M  V30 57 H 6.8533 4.27131 -1.14068 0
M  V30 58 N 5.9124 1.20967 1.01018 0
M  V30 59 C 6.8224 0.980157 2.13143 0
M  V30 60 C 7.8384 -0.0660665 1.73875 0
M  V30 61 O 9.0144 0.122821 2.01025 0
M  V30 62 C 6.0794 0.54216 3.42435 0
M  V30 63 C 5.1404 1.65999 3.95908 0
M  V30 64 C 4.3734 1.2428 5.19028 0
M  V30 65 O 4.5964 0.114196 5.70286 0
M  V30 66 O 3.5304 2.05271 5.65816 0
M  V30 67 H 7.3564 1.91913 2.35379 0
M  V30 68 H 4.9414 0.994099 1.11526 0
M  V30 69 H 6.8234 0.30744 4.20277 0
M  V30 70 H 5.4984 -0.36815 3.216 0
M  V30 71 H 4.4054 1.94906 3.19316 0
M  V30 72 H 5.7384 2.54753 4.21143 0
M  V30 73 N 7.3905 -1.2043 1.01659 0
M  V30 74 C 8.3375 -2.23215 0.586822 0
M  V30 75 C 9.3075 -1.61382 -0.393085 0
M  V30 76 O 10.4925 -1.88544 -0.292525 0
M  V30 77 C 7.6325 -3.45032 -0.0687464 0
M  V30 78 C 6.7455 -4.21296 0.955724 0
M  V30 79 C 5.8805 -5.30507 0.271208 0
M  V30 80 C 4.9195 -5.98515 1.28244 0
M  V30 81 N 4.0565 -6.99316 0.62459 0
M  V30 82 H 8.8965 -2.59336 1.46796 0
M  V30 83 H 6.4335 -1.27431 0.734836 0
M  V30 84 H 8.3915 -4.1459 -0.465965 0
M  V30 85 H 7.0215 -3.09604 -0.913529 0
M  V30 86 H 6.0735 -3.50803 1.4711 0
M  V30 87 H 7.3855 -4.6803 1.72479 0
M  V30 88 H 6.5395 -6.06428 -0.18151 0
M  V30 89 H 5.2785 -4.8481 -0.530163 0
M  V30 90 H 4.2835 -5.21355 1.74554 0
M  V30 91 H 5.5085 -6.46298 2.08509 0
M  V30 92 H 3.4545 -6.55812 -0.156914 0
M  V30 93 H 3.3715 -7.44178 1.33172 0
M  V30 94 H 4.6395 -7.79255 0.195462 0
M  V30 95 N 8.8686 -0.792821 -1.36206 0
M  V30 96 C 10.1166 -0.366062 -1.98757 0
M  V30 97 C 10.4376 1.0668 -1.63231 0
M  V30 98 O 9.7076 1.73587 -0.907978 0
M  V30 99 H 8.2876 -0.132364 -0.735179 0
M  V30 100 H 10.9496 -1.01562 -1.66347 0
M  V30 101 H 10.0456 -0.460638 -3.08682 0
M  V30 102 N 10.3467 1.47872 -0.545128 0
M  V30 103 C 11.3097 2.28337 0.198717 0
M  V30 104 C 12.3097 1.36255 0.853888 0
M  V30 105 O 13.4997 1.59003 0.711606 0
M  V30 106 C 10.6317 3.15585 1.28915 0
M  V30 107 H 11.8247 2.95567 -0.507941 0
M  V30 108 H 9.3777 1.53362 -0.301616 0
M  V30 109 H 10.1127 2.53019 2.02859 0
M  V30 110 H 9.8977 3.83337 0.824309 0
M  V30 111 H 11.3877 3.76243 1.81194 0
M  V30 112 N 11.8248 0.280983 1.55075 0
M  V30 113 C 12.7878 -0.590896 2.21452 0
M  V30 114 C 13.7878 -1.07682 1.19421 0
M  V30 115 O 14.9778 -0.97605 1.44288 0
M  V30 116 C 12.1098 -1.81587 2.88511 0
M  V30 117 H 13.3028 -0.0112554 2.99898 0
M  V30 118 H 10.8558 0.0316438 1.56268 0
M  V30 119 H 11.5908 -2.43587 2.14093 0
M  V30 120 H 11.3758 -1.4753 3.63287 0
M  V30 121 H 12.8658 -2.43575 3.39206 0
M  V30 122 N 13.3029 -1.57598 0.00835791 0
M  V30 123 C 14.5309 -1.95214 -0.68549 0
M  V30 124 C 14.9459 -0.883706 -1.66841 0
M  V30 125 O 14.3029 0.136565 -1.81988 0
M  V30 126 C 14.3539 -3.32865 -1.41007 0
M  V30 127 O 14.0749 -4.35609 -0.466552 0
M  V30 128 C 15.5759 -3.84991 -2.19765 0
M  V30 129 H 12.7959 -0.643422 -0.190392 0
M  V30 130 H 15.3399 -2.04406 0.0619607 0
M  V30 131 H 13.4949 -3.24956 -2.10908 0
M  V30 132 H 13.9089 -5.15288 -0.978699 0
M  V30 133 H 15.3829 -4.8371 -2.65948 0
M  V30 134 H 15.8599 -3.18137 -3.02796 0
M  V30 135 H 16.4659 -3.96103 -1.54864 0
M  V30 136 N 14.781 0.264519 -1.55364 0
M  V30 137 C 16.006 1.01726 -1.80739 0
M  V30 138 C 16.431 1.78836 -0.583044 0
M  V30 139 O 15.789 1.75167 0.467566 0
M  V30 140 C 15.837 1.94482 -3.03659 0
M  V30 141 O 14.941 3.03386 -2.7934 0
M  V30 142 H 14.282 0.290395 -0.597132 0
M  V30 143 H 16.812 0.290854 -2.02522 0
M  V30 144 H 16.822 2.36278 -3.32621 0
M  V30 145 H 15.497 1.37772 -3.92418 0
M  V30 146 H 14.074 2.65844 -2.61498 0
M  V30 147 N 16.2591 1.48442 0.529413 0
M  V30 148 C 17.5051 1.5672 1.28711 0
M  V30 149 C 17.8381 0.2406 1.92704 0
M  V30 150 O 17.1131 -0.753454 1.79313 0
M  V30 151 C 17.3961 2.70587 2.37603 0
M  V30 152 C 17.2491 4.12953 1.78297 0
M  V30 153 C 18.5681 2.80212 3.39366 0
M  V30 154 H 15.6871 0.570474 0.466613 0
M  V30 155 H 18.3291 1.80617 0.589706 0
M  V30 156 H 16.4791 2.50342 2.97088 0
M  V30 157 H 18.1511 4.44639 1.22858 0
M  V30 158 H 16.3941 4.19927 1.0883 0
M  V30 159 H 17.0651 4.88448 2.57144 0
M  V30 160 H 19.5411 2.98553 2.89836 0
M  V30 161 H 18.4171 3.61611 4.12951 0
M  V30 162 H 18.6781 1.88393 3.99951 0
M  V30 163 N 17.7372 -0.778329 1.37039 0
M  V30 164 C 18.9622 -1.57248 1.35233 0
M  V30 165 C 19.3872 -1.87999 -0.0615568 0
M  V30 166 O 18.7452 -1.48734 -1.03672 0
M  V30 167 C 18.7932 -2.86353 2.19167 0
M  V30 168 O 17.8972 -3.80442 1.59178 0
M  V30 169 H 17.2382 -0.476569 0.462362 0
M  V30 170 H 19.7682 -0.963853 1.80474 0
M  V30 171 H 19.7782 -3.35519 2.32145 0
M  V30 172 H 18.4532 -2.63299 3.21942 0
M  V30 173 H 17.0302 -3.39067 1.55203 0
M  V30 174 N 19.2153 -1.21501 -1.00376 0
M  V30 175 C 20.1633 -0.972442 -2.11297 0
M  V30 176 C 21.1573 0.080731 -1.69208 0
M  V30 177 O 22.3633 -0.0707666 -1.79861 0
M  V30 178 H 18.7383 -0.297218 -0.690772 0
M  V30 179 H 20.7093 -1.91394 -2.28934 0
M  V30 180 C 19.4583 -0.555065 -3.43241 0
M  V30 181 H 18.7813 -1.35709 -3.76062 0
M  V30 182 H 20.2213 -0.424664 -4.21868 0
M  V30 183 C 18.6803 0.734147 -3.28804 0
M  V30 184 O 19.2103 1.78937 -3.59645 0
M  V30 185 N 17.4163 0.701133 -2.82015 0
M  V30 186 H 16.9633 -0.157874 -2.57116 0
M  V30 187 H 16.9213 1.56403 -2.72737 0
M  V30 188 N 20.6934 1.19889 -1.02296 0
M  V30 189 C 22.1044 1.71124 -0.746568 0
M  V30 190 C 22.4554 1.81939 0.734335 0
M  V30 191 O 21.5804 1.48639 1.57275 0
M  V30 192 C 22.1754 3.10804 -1.34857 0
M  V30 193 C 20.7344 3.59323 -1.1209 0
M  V30 194 C 19.8814 2.3635 -1.45031 0
M  V30 195 H 22.8324 1.04813 -1.19163 0
M  V30 196 H 22.8534 3.73186 -0.742437 0
M  V30 197 H 22.3654 3.029 -2.42638 0
M  V30 198 H 20.4664 3.7255 -0.0610337 0
M  V30 199 H 20.5794 4.4378 -1.80544 0
M  V30 200 H 18.9434 2.39399 -0.869487 0
M  V30 201 H 19.7264 2.31081 -2.53883 0
M  V30 202 N 22.1715 0.800033 1.35784 0
M  V30 203 C 23.5875 0.482977 1.52117 0
M  V30 204 C 23.7875 -0.996948 1.75109 0
M  V30 205 O 22.8435 -1.78216 1.78872 0
M  V30 206 C 24.1565 1.32264 2.70049 0
M  V30 207 C 25.7045 1.31742 2.83924 0
M  V30 208 C 26.1795 2.14106 4.04874 0
M  V30 209 N 27.6705 2.11607 4.12039 0
M  V30 210 C 28.4055 2.72099 5.04727 0
M  V30 211 N 27.9015 3.41492 6.02789 0
M  V30 212 N 29.6945 2.61776 4.97423 0
M  V30 213 H 21.8455 1.75856 1.19115 0
M  V30 214 H 24.1085 0.748122 0.582252 0
M  V30 215 H 23.8145 2.37261 2.59616 0
M  V30 216 H 23.6885 0.971303 3.6448 0
M  V30 217 H 26.0755 0.275333 2.93813 0
M  V30 218 H 26.1565 1.70859 1.9037 0
M  V30 219 H 25.8005 3.18351 3.95746 0
M  V30 220 H 25.7305 1.72353 4.97596 0
M  V30 221 H 28.2215 1.61112 3.41835 0
M  V30 222 H 28.5345 3.84953 6.70098 0
M  V30 223 H 26.8795 3.45596 6.02983 0
M  V30 224 H 30.0705 2.07157 4.19766 0
M  V30 225 H 30.2435 3.0921 5.69468 0
M  V30 226 N 23.6496 -1.47581 0.552962 0
M  V30 227 C 24.8976 -2.02082 0.0272703 0
M  V30 228 C 25.2186 -1.4301 -1.32563 0
M  V30 229 O 24.4886 -0.603745 -1.86365 0
M  V30 230 H 23.0686 -0.746966 0.00709182 0
M  V30 231 H 25.7306 -1.81033 0.722008 0
M  V30 232 H 24.8266 -3.12034 -0.0639951 0
M  V30 233 N 25.1277 -0.289203 -1.54924 0
M  V30 234 C 26.5437 0.0645403 -1.59469 0
M  V30 235 C 26.7437 1.53419 -1.30632 0
M  V30 236 O 25.7997 2.2852 -1.074 0
M  V30 237 C 27.1127 -0.32278 -2.98963 0
M  V30 238 C 28.6607 -0.270564 -3.11828 0
M  V30 239 C 29.1357 -0.632532 -4.53611 0
M  V30 240 N 30.6267 -0.584617 -4.59496 0
M  V30 241 C 31.3617 -0.837314 -5.67254 0
M  V30 242 N 30.8577 -1.15536 -6.83098 0
M  V30 243 N 32.6507 -0.765166 -5.56868 0
M  V30 244 H 24.8017 -1.24714 -1.71931 0
M  V30 245 H 27.0647 -0.504809 -0.802416 0
M  V30 246 H 26.7707 -1.34541 -3.24948 0
M  V30 247 H 26.6447 0.32944 -3.75759 0
M  V30 248 H 29.0317 0.742805 -2.85598 0
M  V30 249 H 29.1127 -0.957242 -2.37214 0
M  V30 250 H 28.7567 -1.64365 -4.80569 0
M  V30 251 H 28.6867 0.07609 -5.26545 0
M  V30 252 H 31.1777 -0.349248 -3.76283 0
M  V30 253 H 31.4907 -1.33447 -7.61191 0
M  V30 254 H 29.8357 -1.19328 -6.84679 0
M  V30 255 H 33.0267 -0.516432 -4.65243 0
M  V30 256 H 33.1997 -0.965477 -6.40767 0
M  V30 257 N 26.6058 1.57591 -0.0167156 0
M  V30 258 C 28.0168 1.79201 0.523834 0
M  V30 259 C 28.3678 0.925796 1.72984 0
M  V30 260 O 27.4928 0.132792 2.15992 0
M  V30 261 C 28.0878 3.25 0.957091 0
M  V30 262 C 26.6468 3.47648 1.44283 0
M  V30 263 C 25.7938 2.74374 0.401757 0
M  V30 264 H 28.7448 1.56831 -0.242816 0
M  V30 265 H 28.7658 3.34031 1.82219 0
M  V30 266 H 28.2778 3.88019 0.0791415 0
M  V30 267 H 26.3788 2.89866 2.34113 0
M  V30 268 H 26.4918 4.56352 1.45877 0
M  V30 269 H 24.8558 2.39485 0.867121 0
M  V30 270 H 25.6388 3.40102 -0.467513 0
M  V30 271 N 28.0839 -0.256276 1.55502 0
M  V30 272 C 29.3089 -1.00766 1.81276 0
M  V30 273 C 29.7339 -1.78524 0.59252 0
M  V30 274 O 29.0919 -1.75413 -0.45827 0
M  V30 275 C 29.1399 -1.92869 3.04687 0
M  V30 276 O 28.2439 -3.019 2.80945 0
M  V30 277 H 27.5849 -0.287224 0.598664 0
M  V30 278 H 30.1149 -0.280109 2.02674 0
M  V30 279 H 30.1249 -2.34511 3.33869 0
M  V30 280 H 28.7999 -1.35689 3.93143 0
M  V30 281 H 27.3769 -2.64454 2.62904 0
M  V30 282 N 29.562 -1.4872 -0.521534 0
M  V30 283 C 30.978 -1.35028 -0.850855 0
M  V30 284 C 31.178 -0.367712 -1.98116 0
M  V30 285 O 30.234 0.208037 -2.51642 0
M  V30 286 C 31.547 -2.75263 -1.21041 0
M  V30 287 C 33.095 -2.83813 -1.31981 0
M  V30 288 C 33.57 -4.24769 -1.71276 0
M  V30 289 N 35.061 -4.27482 -1.78363 0
M  V30 290 C 35.796 -5.33494 -2.1017 0
M  V30 291 N 35.292 -6.49775 -2.40343 0
M  V30 292 N 37.085 -5.20894 -2.11248 0
M  V30 293 H 29.236 -2.11214 0.22413 0
M  V30 294 H 31.499 -0.947252 0.0376439 0
M  V30 295 H 31.205 -3.48765 -0.453415 0
M  V30 296 H 31.079 -3.09327 -2.15863 0
M  V30 297 H 33.466 -2.10561 -2.06756 0
M  V30 298 H 33.547 -2.53358 -0.352596 0
M  V30 299 H 33.191 -4.9854 -0.970588 0
M  V30 300 H 33.121 -4.52673 -2.69062 0
M  V30 301 H 35.612 -3.43611 -1.57288 0
M  V30 302 H 35.925 -7.26402 -2.63743 0
M  V30 303 H 34.27 -6.53035 -2.37844 0
M  V30 304 H 37.461 -4.29065 -1.87139 0
M  V30 305 H 37.634 -6.03612 -2.35704 0
M  V30 306 N 31.0401 0.771051 -1.3745 0
M  V30 307 C 32.2881 1.52661 -1.32435 0
M  V30 308 C 32.6091 1.9479 0.0905024 0
M  V30 309 O 31.8791 1.66348 1.03466 0
M  V30 310 H 30.4591 0.566218 -0.487244 0
M  V30 311 H 33.1211 0.917636 -1.71946 0
M  V30 312 H 32.2171 2.42568 -1.96385 0
M  V30 313 N 32.5182 1.22032 0.997298 0
M  V30 314 C 33.9342 0.979326 1.26021 0
M  V30 315 C 34.1342 -0.32972 1.98784 0
M  V30 316 O 33.1902 -1.05345 2.29475 0
M  V30 317 C 34.5032 2.17509 2.07631 0
M  V30 318 C 36.0512 2.21817 2.2083 0
M  V30 319 C 36.5262 3.40933 3.05825 0
M  V30 320 N 38.0172 3.41067 3.13412 0
M  V30 321 C 38.7522 4.29885 3.79455 0
M  V30 322 N 38.2482 5.28914 4.47462 0
M  V30 323 N 40.0412 4.17673 3.76173 0
M  V30 324 H 32.1922 2.06202 0.509352 0
M  V30 325 H 34.4552 0.90334 0.287541 0
M  V30 326 H 34.1612 3.12415 1.61524 0
M  V30 327 H 34.0352 2.17206 3.08385 0
M  V30 328 H 36.4222 1.27462 2.66153 0
M  V30 329 H 36.5032 2.2616 1.1952 0
M  V30 330 H 36.1472 4.35586 2.61203 0
M  V30 331 H 36.0772 3.33829 4.07266 0
M  V30 332 H 38.5682 2.69406 2.65007 0
M  V30 333 H 38.8812 5.92973 4.95583 0
M  V30 334 H 37.2262 5.32831 4.46224 0
M  V30 335 H 40.4172 3.39564 3.22202 0
M  V30 336 H 40.5902 4.87098 4.27363 0
M  V30 337 N 33.9963 -1.19345 1.0293 0
M  V30 338 C 35.4073 -1.70725 0.755633 0
M  V30 339 C 35.7583 -1.82326 -0.724676 0
M  V30 340 O 34.8833 -1.49471 -1.56484 0
M  V30 341 C 35.4783 -3.10084 1.36503 0
M  V30 342 C 34.0373 -3.58723 1.13994 0
M  V30 343 C 33.1843 -2.35577 1.46283 0
M  V30 344 H 36.1353 -1.0418 1.19718 0
M  V30 345 H 36.1563 -3.72787 0.762217 0
M  V30 346 H 35.6683 -3.01609 2.44241 0
M  V30 347 H 33.7693 -3.72512 0.0807901 0
M  V30 348 H 33.8823 -4.42816 1.82894 0
M  V30 349 H 32.2463 -2.38935 0.88217 0
M  V30 350 H 33.0293 -2.29731 2.55105 0
M  V30 351 N 35.4744 -0.807222 -1.35358 0
M  V30 352 C 36.8854 -0.44876 -1.81226 0
M  V30 353 C 37.2364 1.02929 -1.67033 0
M  V30 354 O 36.3614 1.79991 -1.20133 0
M  V30 355 C 36.9564 -0.807774 -3.2903 0
M  V30 356 C 35.5154 -0.501901 -3.73039 0
M  V30 357 C 34.6624 -1.03304 -2.57339 0
M  V30 358 H 37.6134 -0.998808 -1.23327 0
M  V30 359 H 37.6344 -0.10554 -3.80354 0
M  V30 360 H 37.1464 -1.88357 -3.39328 0
M  V30 361 H 35.2474 0.565128 -3.68289 0
M  V30 362 H 35.3604 -1.03497 -4.67787 0
M  V30 363 H 33.7244 -0.455339 -2.50597 0
M  V30 364 H 34.5074 -2.11496 -2.70415 0
M  V30 365 N 36.9525 1.47285 -0.560781 0
M  V30 366 C 37.8995 2.30058 0.18491 0
M  V30 367 C 38.8695 1.39281 0.904986 0
M  V30 368 O 40.0545 1.68241 0.899979 0
M  V30 369 C 37.1945 3.23317 1.20666 0
M  V30 370 C 36.3075 4.29186 0.492285 0
M  V30 371 C 35.4425 5.09592 1.49964 0
M  V30 372 C 34.4815 6.07232 0.770439 0
M  V30 373 N 33.6185 6.80584 1.72479 0
M  V30 374 H 38.4585 2.93302 -0.527048 0
M  V30 375 H 35.9955 1.44568 -0.271738 0
M  V30 376 H 37.9535 3.75811 1.81168 0
M  V30 377 H 36.5835 2.61929 1.88661 0
M  V30 378 H 35.6355 3.7972 -0.227333 0
M  V30 379 H 36.9475 4.98738 -0.0787929 0
M  V30 380 H 36.1015 5.66254 2.17809 0
M  V30 381 H 34.8405 4.3995 2.10464 0
M  V30 382 H 33.8455 5.49745 0.0780846 0
M  V30 383 H 35.0705 6.78884 0.171134 0
M  V30 384 H 33.0165 6.1367 2.3183 0
M  V30 385 H 32.9335 7.46319 1.20596 0
M  V30 386 H 34.2015 7.41818 2.39428 0
M  V30 387 N 38.4306 0.297415 1.54768 0
M  V30 388 C 39.3606 -0.573494 2.26348 0
M  V30 389 C 40.3416 -1.14085 1.26169 0
M  V30 390 O 41.5266 -1.17086 1.54934 0
M  V30 391 C 38.6566 -1.74716 3.00153 0
M  V30 392 C 37.6106 -1.31032 4.07449 0
M  V30 393 C 36.9366 -2.56887 4.68949 0
M  V30 394 C 38.2366 -0.444183 5.20408 0
M  V30 395 H 39.9306 0.0235131 2.99391 0
M  V30 396 H 37.4766 0.0127488 1.43994 0
M  V30 397 H 39.4296 -2.3625 3.48947 0
M  V30 398 H 38.1536 -2.37035 2.24682 0
M  V30 399 H 36.8126 -0.718066 3.59499 0
M  V30 400 H 36.4606 -3.17512 3.90122 0
M  V30 401 H 36.1606 -2.2836 5.41411 0
M  V30 402 H 37.6846 -3.19229 5.20505 0
M  V30 403 H 39.0986 -0.9651 5.65118 0
M  V30 404 H 37.4956 -0.252846 5.99567 0
M  V30 405 H 38.5656 0.531609 4.81977 0
M  V30 406 N 39.9087 -1.5758 0.0250728 0
M  V30 407 C 40.8407 -2.06869 -0.986796 0
M  V30 408 C 41.8537 -0.991332 -1.29137 0
M  V30 409 O 43.0427 -1.26761 -1.25674 0
M  V30 410 C 40.1427 -2.47486 -2.31525 0
M  V30 411 C 39.3157 -3.78253 -2.19643 0
M  V30 412 C 38.3747 -4.05464 -3.35388 0
M  V30 413 O 37.4007 -4.75774 -3.12454 0
M  V30 414 N 38.6027 -3.55321 -4.59051 0
M  V30 415 H 41.3677 -2.94302 -0.566276 0
M  V30 416 H 38.9287 -1.6109 -0.161776 0
M  V30 417 H 40.9207 -2.62785 -3.07776 0
M  V30 418 H 39.4907 -1.65441 -2.65232 0
M  V30 419 H 38.7107 -3.7279 -1.28144 0
M  V30 420 H 39.9987 -4.63936 -2.08903 0
M  V30 421 H 39.3967 -2.98431 -4.80578 0
M  V30 422 H 37.9537 -3.75905 -5.32483 0
M  V30 423 N 41.3868 0.248026 -1.55636 0
M  V30 424 C 42.8028 0.596483 -1.48035 0
M  V30 425 C 43.0028 1.88386 -0.715039 0
M  V30 426 O 42.0588 2.51319 -0.243944 0
M  V30 427 C 43.3718 0.700258 -2.92433 0
M  V30 428 C 44.9198 0.792659 -3.02797 0
M  V30 429 C 45.3948 0.928005 -4.485 0
M  V30 430 N 46.8858 0.992903 -4.52433 0
M  V30 431 C 47.6208 1.11687 -5.62418 0
M  V30 432 N 47.1168 1.20645 -6.82214 0
M  V30 433 N 48.9098 1.14994 -5.50212 0
M  V30 434 H 41.0608 -0.597109 -2.03834 0
M  V30 435 H 43.3238 -0.205925 -0.925364 0
M  V30 436 H 43.0298 -0.175658 -3.51261 0
M  V30 437 H 42.9038 1.57255 -3.42857 0
M  V30 438 H 45.2908 1.65903 -2.4405 0
M  V30 439 H 45.3718 -0.104762 -2.55585 0
M  V30 440 H 45.0158 0.0661971 -5.07857 0
M  V30 441 H 44.9458 1.84045 -4.93391 0
M  V30 442 H 47.4368 0.935064 -3.66149 0
M  V30 443 H 47.7498 1.30008 -7.61786 0
M  V30 444 H 46.0948 1.17605 -6.84977 0
M  V30 445 H 49.2858 1.07643 -4.55555 0
M  V30 446 H 49.4588 1.24311 -6.35965 0
M  V30 447 N 42.8649 1.48995 0.513639 0
M  V30 448 C 43.8129 1.65199 1.63744 0
M  V30 449 C 44.8069 0.51809 1.61283 0
M  V30 450 O 46.0129 0.697335 1.65943 0
M  V30 451 H 42.3879 0.52069 0.542574 0
M  V30 452 H 44.3589 2.59552 1.47226 0
M  V30 453 C 43.1079 1.72409 3.01945 0
M  V30 454 H 42.4309 2.59029 3.04539 0
M  V30 455 H 43.8709 1.87785 3.80148 0
M  V30 456 C 42.3299 0.46618 3.33659 0
M  V30 457 O 42.8599 -0.413744 3.99564 0
M  V30 458 N 41.0659 0.332931 2.88687 0
M  V30 459 H 40.6129 1.04996 2.35231 0
M  V30 460 H 40.5709 -0.507665 3.10274 0
M  V30 461 N 44.343 -0.763751 1.37857 0
M  V30 462 C 45.568 -1.55805 1.36893 0
M  V30 463 C 45.993 -1.88054 -0.0416135 0
M  V30 464 O 45.351 -1.49825 -1.02089 0
M  V30 465 C 45.399 -2.84012 2.22192 0
M  V30 466 O 44.503 -3.78732 1.63204 0
M  V30 467 H 43.844 -0.471638 0.46739 0
M  V30 468 H 46.374 -0.944657 1.81487 0
M  V30 469 H 46.384 -3.33037 2.35691 0
M  V30 470 H 45.059 -2.59869 3.24716 0
M  V30 471 H 43.636 -3.37402 1.58791 0
M  V30 472 N 45.8211 -1.22559 -0.990812 0
M  V30 473 C 47.2371 -0.985996 -1.255 0
M  V30 474 C 47.4371 0.319173 -1.98956 0
M  V30 475 O 46.4931 1.04127 -2.3003 0
M  V30 476 C 47.8061 -2.18607 -2.06474 0
M  V30 477 C 49.3541 -2.22985 -2.19651 0
M  V30 478 C 49.8291 -3.4255 -3.04012 0
M  V30 479 N 51.3201 -3.42725 -3.11599 0
M  V30 480 C 52.0551 -4.31892 -3.7717 0
M  V30 481 N 51.5511 -5.31279 -4.44651 0
M  V30 482 N 53.3441 -4.19662 -3.73952 0
M  V30 483 H 45.4951 -2.06469 -0.49841 0
M  V30 484 H 47.7581 -0.904853 -0.282747 0
M  V30 485 H 47.4641 -3.13267 -1.59865 0
M  V30 486 H 47.3381 -2.18838 -3.07229 0
M  V30 487 H 49.7251 -1.28871 -2.65474 0
M  V30 488 H 49.8061 -2.26791 -1.18319 0
M  V30 489 H 49.4501 -4.36965 -2.58889 0
M  V30 490 H 49.3801 -3.35984 -4.0549 0
M  V30 491 H 51.8711 -2.70807 -2.63575 0
M  V30 492 H 52.1841 -5.95593 -4.92431 0
M  V30 493 H 50.5291 -5.3519 -4.43392 0
M  V30 494 H 53.7201 -3.41268 -3.20396 0
M  V30 495 H 53.8931 -4.89358 -4.24774 0
M  V30 496 N 47.2992 1.18797 -1.03562 0
M  V30 497 C 48.5472 1.88278 -0.734569 0
M  V30 498 C 48.8682 1.8043 0.739586 0
M  V30 499 O 48.1382 1.21925 1.53333 0
M  V30 500 H 46.7182 0.696991 -0.268725 0
M  V30 501 H 49.3802 1.44192 -1.31129 0
M  V30 502 H 48.4762 2.94443 -1.03489 0
M  V30 503 N 48.7773 0.814389 1.34928 0
M  V30 504 C 50.0253 0.397636 1.9815 0
M  V30 505 C 50.3463 -1.04069 1.64908 0
M  V30 506 O 49.6163 -1.72121 0.93548 0
M  V30 507 H 48.1963 0.144043 0.732981 0
M  V30 508 H 50.8583 1.04195 1.6471 0
M  V30 509 H 49.9543 0.509688 3.0791 0
M  V30 510 N 50.2554 -1.46986 0.568584 0
M  V30 511 C 51.1874 -2.28233 -0.210337 0
M  V30 512 C 52.2004 -1.37682 -0.868767 0
M  V30 513 O 53.3894 -1.62406 -0.740705 0
M  V30 514 C 50.4894 -3.12293 -1.3163 0
M  V30 515 C 49.6624 -4.30878 -0.7525 0
M  V30 516 C 48.7214 -4.96445 -1.74439 0
M  V30 517 O 47.7474 -5.54482 -1.286 0
M  V30 518 N 48.9494 -4.92171 -3.07812 0
M  V30 519 H 51.7144 -2.95723 0.486648 0
M  V30 520 H 49.2754 -1.56742 0.405409 0
M  V30 521 H 51.2674 -3.53022 -1.97883 0
M  V30 522 H 49.8374 -2.46971 -1.91636 0
M  V30 523 H 49.0574 -3.94104 0.0871128 0
M  V30 524 H 50.3454 -5.07558 -0.35536 0
M  V30 525 H 49.7434 -4.46239 -3.47688 0
M  V30 526 H 48.3004 -5.36884 -3.69592 0
M  V30 527 N 51.7335 -0.305618 -1.54608 0
M  V30 528 C 52.9815 0.301701 -1.99835 0
M  V30 529 C 53.3025 1.54054 -1.19551 0
M  V30 530 O 52.5725 1.93702 -0.292658 0
M  V30 531 H 51.1525 0.114468 -0.738178 0
M  V30 532 H 53.8145 -0.418016 -1.90364 0
M  V30 533 H 52.9105 0.570548 -3.06841 0
M  V30 534 N 53.2116 1.57565 -0.0334293 0
M  V30 535 C 54.6276 1.56297 0.322997 0
M  V30 536 C 54.8276 1.03945 1.7262 0
M  V30 537 O 53.8836 0.688109 2.42943 0
M  V30 538 C 55.1966 3.00232 0.167664 0
M  V30 539 C 56.7446 3.12078 0.240107 0
M  V30 540 C 57.2196 4.57859 0.113513 0
M  V30 541 N 58.7106 4.62887 0.170359 0
M  V30 542 C 59.4456 5.73319 0.0962517 0
M  V30 543 N 58.9416 6.92794 -0.0291881 0
M  V30 544 N 60.7346 5.61898 0.150551 0
M  V30 545 H 52.8856 1.89923 -0.950956 0
M  V30 546 H 55.1486 0.873824 -0.367608 0
M  V30 547 H 54.8546 3.42501 -0.799102 0
M  V30 548 H 54.7286 3.654 0.936083 0
M  V30 549 H 57.1156 2.69718 1.19733 0
M  V30 550 H 57.1966 2.49623 -0.558763 0
M  V30 551 H 56.8406 5.009 -0.840314 0
M  V30 552 H 56.7706 5.18299 0.931302 0
M  V30 553 H 59.2616 3.76954 0.26728 0
M  V30 554 H 59.5746 7.7276 -0.0789252 0
M  V30 555 H 57.9196 6.94971 -0.0640299 0
M  V30 556 H 61.1106 4.67448 0.246981 0
M  V30 557 H 61.2836 6.47938 0.0893365 0
M  V30 558 N 54.6897 -0.239769 1.55765 0
M  V30 559 C 55.9377 -0.964892 1.77579 0
M  V30 560 C 56.2587 -1.85582 0.598699 0
M  V30 561 O 55.5287 -1.92075 -0.385226 0
M  V30 562 H 54.1087 -0.359265 0.654933 0
M  V30 563 H 56.7707 -0.256001 1.93211 0
M  V30 564 H 55.8667 -1.58243 2.69009 0
M  V30 565 N 56.1678 -1.49265 -0.50573 0
M  V30 566 C 57.4138 -1.58748 -1.26202 0
M  V30 567 C 57.7468 -0.271227 -1.92297 0
M  V30 568 O 57.0218 0.724831 -1.80489 0
M  V30 569 C 57.3048 -2.74332 -2.33268 0
M  V30 570 C 57.1578 -4.15737 -1.71705 0
M  V30 571 C 58.4768 -2.85576 -3.34865 0
M  V30 572 H 55.5958 -0.577826 -0.457478 0
M  V30 573 H 58.2378 -1.81532 -0.560897 0
M  V30 574 H 56.3878 -2.55036 -2.93068 0
M  V30 575 H 58.0598 -4.46537 -1.15769 0
M  V30 576 H 56.3028 -4.21605 -1.02135 0
M  V30 577 H 56.9738 -4.92477 -2.49341 0
M  V30 578 H 59.4498 -3.03127 -2.8505 0
M  V30 579 H 58.3258 -3.68135 -4.07146 0
M  V30 580 H 58.5868 -1.94732 -3.96903 0
M  V30 581 N 57.6459 0.756429 -1.3826 0
M  V30 582 C 58.5559 1.9009 -1.37488 0
M  V30 583 C 59.5719 1.71855 -0.272366 0
M  V30 584 O 60.7479 1.94827 -0.510318 0
M  V30 585 C 57.8129 3.25421 -1.19592 0
M  V30 586 C 56.8739 3.56202 -2.39622 0
M  V30 587 C 56.1069 4.85075 -2.2257 0
M  V30 588 O 56.3299 5.57246 -1.21793 0
M  V30 589 O 55.2639 5.15269 -3.11098 0
M  V30 590 H 59.0899 1.93695 -2.33914 0
M  V30 591 H 56.6749 0.901313 -1.1915 0
M  V30 592 H 58.5569 4.06337 -1.11661 0
M  V30 593 H 57.2319 3.22634 -0.262486 0
M  V30 594 H 56.1389 2.75458 -2.53128 0
M  V30 595 H 57.4719 3.63747 -3.31586 0
M  V30 596 N 59.124 1.23083 0.984299 0
M  V30 597 C 60.071 1.00854 2.07598 0
M  V30 598 C 61.041 -0.0726709 1.65941 0
M  V30 599 O 62.226 0.0786535 1.90638 0
M  V30 600 C 59.366 0.601645 3.39815 0
M  V30 601 C 58.479 1.75456 3.94765 0
M  V30 602 C 57.614 1.29482 5.15177 0
M  V30 603 C 56.653 2.41873 5.62284 0
M  V30 604 N 55.79 1.96885 6.73929 0
M  V30 605 H 60.63 1.943 2.25946 0
M  V30 606 H 58.167 0.968001 1.10762 0
M  V30 607 H 60.125 0.346854 4.15756 0
M  V30 608 H 58.755 -0.295803 3.21442 0
M  V30 609 H 57.807 2.12346 3.15616 0
M  V30 610 H 59.119 2.59965 4.25699 0
M  V30 611 H 58.273 0.997923 5.98437 0
M  V30 612 H 57.012 0.420046 4.85888 0
M  V30 613 H 56.017 2.72342 4.77608 0
M  V30 614 H 57.242 3.29881 5.93595 0
M  V30 615 H 55.188 1.11782 6.46406 0
M  V30 616 H 55.105 2.74956 7.04227 0
M  V30 617 H 56.373 1.70289 7.60672 0
M  V30 618 N 60.6021 -1.18246 1.0419 0
M  V30 619 C 62.0131 -1.69914 0.773698 0
M  V30 620 C 62.3641 -1.83085 -0.705297 0
M  V30 621 O 61.4891 -1.51123 -1.5489 0
M  V30 622 C 62.0841 -3.08619 1.39784 0
M  V30 623 C 60.6431 -3.57494 1.17792 0
M  V30 624 C 59.7901 -2.34013 1.48773 0
M  V30 625 H 62.7411 -1.02904 1.20816 0
M  V30 626 H 62.7621 -3.71958 0.801714 0
M  V30 627 H 62.2741 -2.99001 2.47426 0
M  V30 628 H 60.3751 -3.72406 0.120295 0
M  V30 629 H 60.4881 -4.40852 1.87581 0
M  V30 630 H 58.8521 -2.37986 0.907463 0
M  V30 631 H 59.6351 -2.27013 2.57527 0
M  V30 632 N 62.0802 -0.821533 -1.34494 0
M  V30 633 C 63.4912 -0.467956 -1.8074 0
M  V30 634 C 63.8422 1.01151 -1.68116 0
M  V30 635 O 62.9672 1.78707 -1.22036 0
M  V30 636 C 63.5622 -0.842627 -3.28154 0
M  V30 637 C 62.1212 -0.541439 -3.72485 0
M  V30 638 C 61.2682 -1.06028 -2.56229 0
M  V30 639 H 64.2192 -1.01183 -1.22261 0
M  V30 640 H 64.2402 -0.145876 -3.8022 0
M  V30 641 H 63.7522 -1.91945 -3.37311 0
M  V30 642 H 61.8532 0.526034 -3.68868 0
M  V30 643 H 61.9662 -1.08453 -4.66663 0
M  V30 644 H 60.3302 -0.481892 -2.501 0
M  V30 645 H 61.1132 -2.14352 -2.68157 0
M  V30 646 N 63.5583 1.46682 -0.576371 0
M  V30 647 C 64.5083 2.27278 0.181288 0
M  V30 648 C 65.4923 1.35497 0.867721 0
M  V30 649 O 66.6843 1.59717 0.762863 0
M  V30 650 C 63.8133 3.21703 1.19841 0
M  V30 651 C 62.8993 4.20969 0.51442 0
M  V30 652 N 63.2903 5.03999 -0.426407 0
M  V30 653 C 61.5883 4.39373 0.765963 0
M  V30 654 C 62.2893 5.75812 -0.825565 0
M  V30 655 N 61.2653 5.43315 -0.176116 0
M  V30 656 H 65.0673 2.88863 -0.541785 0
M  V30 657 H 62.5813 1.57455 -0.397697 0
M  V30 658 H 64.5783 3.78145 1.75533 0
M  V30 659 H 63.2383 2.61677 1.92238 0
M  V30 660 H 64.2493 5.11659 -0.8016 0
M  V30 661 H 60.9263 3.90502 1.47698 0
M  V30 662 H 62.3163 6.52577 -1.59976 0
M  V30 663 N 65.0364 0.313813 1.54444 0
M  V30 664 C 65.9664 -0.549454 2.26943 0
M  V30 665 C 66.9474 -1.12741 1.27372 0
M  V30 666 O 68.1324 -1.15436 1.56167 0
M  V30 667 C 65.2624 -1.71523 3.01989 0
M  V30 668 C 64.2164 -1.26703 4.08816 0
M  V30 669 C 63.5424 -2.51898 4.71647 0
M  V30 670 C 64.8424 -0.388962 5.2085 0
M  V30 671 H 66.5364 0.0552661 2.99349 0
M  V30 672 H 64.0824 0.0280207 1.43973 0
M  V30 673 H 66.0354 -2.32535 3.51433 0
M  V30 674 H 64.7594 -2.34639 2.27183 0
M  V30 675 H 63.4184 -0.679896 3.6024 0
M  V30 676 H 63.0664 -3.13356 3.93468 0
M  V30 677 H 62.7664 -2.22605 5.43802 0
M  V30 678 H 64.2904 -3.1369 5.23861 0
M  V30 679 H 65.7044 -0.905107 5.6611 0
M  V30 680 H 64.1014 -0.18924 5.99802 0
M  V30 681 H 65.1714 0.582699 4.81386 0
M  V30 682 N 66.5145 -1.57545 0.0417849 0
M  V30 683 C 67.4775 -2.09885 -0.92093 0
M  V30 684 C 68.4775 -1.01648 -1.24596 0
M  V30 685 O 69.6675 -1.27759 -1.1842 0
M  V30 686 C 66.7995 -2.57527 -2.23367 0
M  V30 687 H 67.9925 -2.96236 -0.467382 0
M  V30 688 H 65.5455 -1.5493 -0.206467 0
M  V30 689 H 66.2805 -1.74542 -2.73323 0
M  V30 690 H 66.0655 -3.36613 -2.01083 0
M  V30 691 H 67.5555 -2.98201 -2.92346 0
M  V30 692 N 67.9926 0.231505 -1.5589 0
M  V30 693 C 68.9556 1.27028 -1.90779 0
M  V30 694 C 69.9556 1.40308 -0.785507 0
M  V30 695 O 71.1456 1.38744 -1.05336 0
M  V30 696 C 68.2776 2.64566 -2.14983 0
M  V30 697 H 69.4706 0.973017 -2.83677 0
M  V30 698 H 67.0236 0.471486 -1.49019 0
M  V30 699 H 67.7586 2.99406 -1.24604 0
M  V30 700 H 67.5436 2.56305 -2.96732 0
M  V30 701 H 69.0336 3.39543 -2.43105 0
M  V30 702 N 69.4707 1.49531 0.497807 0
M  V30 703 C 70.4007 1.6935 1.60757 0
M  V30 704 C 71.3817 0.542218 1.61227 0
M  V30 705 O 72.5667 0.778417 1.77917 0
M  V30 706 C 69.6967 1.76298 2.99226 0
M  V30 707 C 68.6507 2.91248 3.13622 0
M  V30 708 C 67.9767 2.83312 4.53474 0
M  V30 709 C 69.2767 4.3214 2.93346 0
M  V30 710 H 70.9707 2.62263 1.44425 0
M  V30 711 H 68.5167 1.26208 0.693367 0
M  V30 712 H 70.4697 1.88749 3.76765 0
M  V30 713 H 69.1937 0.799871 3.16654 0
M  V30 714 H 67.8527 2.78404 2.38509 0
M  V30 715 H 67.5007 1.84902 4.67782 0
M  V30 716 H 67.2007 3.60465 4.64046 0
M  V30 717 H 68.7247 2.97775 5.33069 0
M  V30 718 H 70.1387 4.45649 3.60652 0
M  V30 719 H 68.5357 5.1054 3.15387 0
M  V30 720 H 69.6057 4.46363 1.89441 0
M  V30 721 N 70.9488 -0.749086 1.3866 0
M  V30 722 C 72.1978 -1.50371 1.3443 0
M  V30 723 C 72.5108 -1.95503 -0.0616397 0
M  V30 724 O 73.7168 -2.70554 -0.226489 0
M  V30 725 C 72.1728 -2.71644 2.36088 0
M  V30 726 C 71.7808 -2.3352 3.82325 0
M  V30 727 C 73.5248 -3.49518 2.40909 0
M  V30 728 C 71.4318 -3.51431 4.75658 0
M  V30 729 H 70.3618 -0.564628 0.499712 0
M  V30 730 H 73.0128 -0.818449 1.64237 0
M  V30 731 H 71.3948 -3.42175 1.9933 0
M  V30 732 H 72.5688 -1.70627 4.28046 0
M  V30 733 H 70.8838 -1.6877 3.80665 0
M  V30 734 H 73.4808 -4.37197 3.07836 0
M  V30 735 H 73.8238 -3.90992 1.42937 0
M  V30 736 H 74.3568 -2.86005 2.76489 0
M  V30 737 H 71.0958 -3.15019 5.74842 0
M  V30 738 H 70.6158 -4.13352 4.34627 0
M  V30 739 H 72.2948 -4.17953 4.93887 0
M  V30 740 N 72.4269 -1.23603 -0.977757 0
M  V30 741 C 73.3569 -1.04401 -2.0886 0
M  V30 742 C 74.3379 0.0399052 -1.70053 0
M  V30 743 O 75.5229 -0.125246 -1.93796 0
M  V30 744 C 72.6529 -0.637269 -3.41403 0
M  V30 745 C 71.6069 -1.66883 -3.94124 0
M  V30 746 C 70.9329 -1.11745 -5.22893 0
M  V30 747 C 72.2329 -3.06247 -4.23096 0
M  V30 748 H 73.9269 -1.97316 -2.25182 0
M  V30 749 H 71.4729 -0.950096 -1.08209 0
M  V30 750 H 73.4259 -0.48998 -4.18542 0
M  V30 751 H 72.1499 0.327557 -3.24953 0
M  V30 752 H 70.8089 -1.80416 -3.19133 0
M  V30 753 H 70.4569 -0.143527 -5.02795 0
M  V30 754 H 70.1569 -1.80672 -5.59134 0
M  V30 755 H 71.6809 -0.982067 -6.02651 0
M  V30 756 H 73.0949 -2.96001 -4.90975 0
M  V30 757 H 71.4919 -3.72436 -4.70544 0
M  V30 758 H 72.5619 -3.55041 -3.30263 0
M  V30 759 N 73.905 1.17692 -1.04816 0
M  V30 760 C 74.868 2.19787 -0.650117 0
M  V30 761 C 75.868 1.58044 0.296427 0
M  V30 762 O 77.058 1.74012 0.0808097 0
M  V30 763 C 74.19 3.40869 0.0456987 0
M  V30 764 H 75.383 2.56516 -1.5537 0
M  V30 765 H 72.936 1.31708 -0.841594 0
M  V30 766 H 73.671 3.09681 0.962726 0
M  V30 767 H 73.456 3.86928 -0.634727 0
M  V30 768 H 74.946 4.16445 0.310432 0
M  V30 769 N 75.3831 0.828654 1.34056 0
M  V30 770 C 76.7991 0.515135 1.51058 0
M  V30 771 C 76.9991 -0.959581 1.77184 0
M  V30 772 O 76.0551 -1.74382 1.82612 0
M  V30 773 C 77.3681 1.37963 2.67183 0
M  V30 774 C 78.9161 1.37735 2.81066 0
M  V30 775 C 79.3911 2.22645 4.00241 0
M  V30 776 N 80.8821 2.203 4.07458 0
M  V30 777 C 81.6171 2.82744 4.98842 0
M  V30 778 N 81.1131 3.54201 5.9541 0
M  V30 779 N 82.9061 2.72268 4.91759 0
M  V30 780 H 75.0571 1.78343 1.15358 0
M  V30 781 H 77.3201 0.760304 0.566252 0
M  V30 782 H 77.0261 2.42714 2.54525 0
M  V30 783 H 76.9001 1.0484 3.62338 0
M  V30 784 H 79.2871 0.337593 2.93163 0
M  V30 785 H 79.3681 1.74859 1.86703 0
M  V30 786 H 79.0121 3.26674 3.88905 0
M  V30 787 H 78.9421 1.82869 4.93829 0
M  V30 788 H 81.4331 1.68327 3.38341 0
M  V30 789 H 81.7461 3.9908 6.61782 0
M  V30 790 H 80.0911 3.58308 5.95517 0
M  V30 791 H 83.2821 2.16014 4.15278 0
M  V30 792 H 83.4551 3.21219 5.62781 0
M  V30 793 N 76.8612 -1.46375 0.584142 0
M  V30 794 C 78.1092 -2.01978 0.0701287 0
M  V30 795 C 78.4302 -1.4579 -1.295 0
M  V30 796 O 77.7002 -0.64314 -1.85042 0
M  V30 797 H 76.2802 -0.746648 0.0229345 0
M  V30 798 H 78.9422 -1.79461 0.760245 0
M  V30 799 H 78.0382 -3.121 0.0022064 0
M  V30 800 N 78.3393 -0.321999 -1.54275 0
M  V30 801 C 79.5873 0.280489 -2.00144 0
M  V30 802 C 79.9083 1.52777 -1.21178 0
M  V30 803 O 79.1783 1.9338 -0.313187 0
M  V30 804 H 77.7583 0.106632 -0.73935 0
M  V30 805 H 80.4203 -0.438184 -1.8991 0
M  V30 806 H 79.5163 0.537972 -3.07428 0
M  V30 807 N 79.8174 1.5752 -0.0501392 0
M  V30 808 C 81.0424 1.97376 0.636997 0
M  V30 809 C 81.4674 0.927466 1.63645 0
M  V30 810 O 80.8254 -0.10941 1.8097 0
M  V30 811 C 80.8734 3.36304 1.30123 0
M  V30 812 O 79.9774 3.34156 2.41689 0
M  V30 813 H 79.3184 0.642998 0.165679 0
M  V30 814 H 81.8484 2.04258 -0.118233 0
M  V30 815 H 81.8584 3.73008 1.65315 0
M  V30 816 H 80.5334 4.11993 0.568746 0
M  V30 817 H 79.1104 3.09196 2.08451 0
M  V30 818 N 81.2955 -0.223234 1.56011 0
M  V30 819 C 82.2425 -1.27664 1.92277 0
M  V30 820 C 83.2125 -1.46659 0.779763 0
M  V30 821 O 84.3975 -1.60256 1.03551 0
M  V30 822 C 81.5375 -2.62234 2.24338 0
M  V30 823 C 80.6505 -2.51051 3.51564 0
M  V30 824 C 79.7855 -3.78133 3.7308 0
M  V30 825 C 78.8245 -3.61665 4.93827 0
M  V30 826 N 77.9615 -4.80693 5.11741 0
M  V30 827 H 82.8015 -0.960358 2.82101 0
M  V30 828 H 80.3385 -0.462901 1.39627 0
M  V30 829 H 82.2965 -3.40596 2.40936 0
M  V30 830 H 80.9265 -2.91961 1.3769 0
M  V30 831 H 79.9785 -1.64132 3.43169 0
M  V30 832 H 81.2905 -2.34803 4.40079 0
M  V30 833 H 80.4445 -4.64938 3.89766 0
M  V30 834 H 79.1835 -3.97304 2.82844 0
M  V30 835 H 78.1885 -2.73244 4.77093 0
M  V30 836 H 79.4135 -3.43966 5.85546 0
M  V30 837 H 77.3595 -5.00181 4.24446 0
M  V30 838 H 77.2765 -4.67165 5.94384 0
M  V30 839 H 78.5445 -5.6893 5.3286 0
M  V30 840 N 82.7736 -1.49793 -0.48987 0
M  V30 841 C 84.0216 -1.59525 -1.24081 0
M  V30 842 C 84.3426 -0.288953 -1.92847 0
M  V30 843 O 83.6126 0.692436 -1.83254 0
M  V30 844 H 82.1926 -0.587796 -0.460983 0
M  V30 845 H 84.8546 -1.86477 -0.566778 0
M  V30 846 H 83.9506 -2.39696 -1.99881 0
M  V30 847 N 84.2517 0.741722 -1.39055 0
M  V30 848 C 85.5007 1.49656 -1.35225 0
M  V30 849 C 85.8137 1.95533 0.0512708 0
M  V30 850 O 87.0197 2.7067 0.212138 0
M  V30 851 C 85.4757 2.70389 -2.37525 0
M  V30 852 C 85.0837 2.31489 -3.83558 0
M  V30 853 C 86.8277 3.48236 -2.42759 0
M  V30 854 C 84.7347 3.48903 -4.77515 0
M  V30 855 H 83.6647 0.56197 -0.502699 0
M  V30 856 H 86.3157 0.809727 -1.64668 0
M  V30 857 H 84.6977 3.41113 -2.01142 0
M  V30 858 H 85.8717 1.68354 -4.28945 0
M  V30 859 H 84.1867 1.66749 -3.81554 0
M  V30 860 H 86.7837 4.35558 -3.1015 0
M  V30 861 H 87.1267 3.90229 -1.45008 0
M  V30 862 H 87.6597 2.84535 -2.78002 0
M  V30 863 H 84.3987 3.11966 -5.76504 0
M  V30 864 H 83.9187 4.11041 -4.36813 0
M  V30 865 H 85.5977 4.15328 -4.96096 0
M  V30 866 N 85.7298 1.2412 0.971189 0
M  V30 867 C 87.1408 1.07236 1.52831 0
M  V30 868 C 87.4918 -0.357352 1.92918 0
M  V30 869 O 86.6168 -1.24528 1.76979 0
M  V30 870 C 87.2118 1.94043 2.77728 0
M  V30 871 C 85.7708 1.81394 3.29808 0
M  V30 872 C 84.9178 1.89189 2.02738 0
M  V30 873 H 87.8688 1.37648 0.789864 0
M  V30 874 H 87.8898 1.47066 3.5093 0
M  V30 875 H 87.4018 2.98093 2.4852 0
M  V30 876 H 85.5028 0.801634 3.63874 0
M  V30 877 H 85.6158 2.65294 3.98944 0
M  V30 878 H 83.9798 1.32877 2.17292 0
M  V30 879 H 84.7628 2.94812 1.759 0
M  V30 880 N 87.2079 -1.17134 1.05439 0
M  V30 881 C 88.1379 -2.2342 0.678649 0
M  V30 882 C 89.1189 -1.66971 -0.32476 0
M  V30 883 O 90.3039 -1.93149 -0.201802 0
M  V30 884 C 87.4339 -3.47256 0.0552099 0
M  V30 885 C 86.3879 -4.16543 0.98365 0
M  V30 886 C 85.7139 -5.34231 0.223961 0
M  V30 887 C 87.0139 -4.68495 2.3089 0
M  V30 888 H 88.7079 -2.55105 1.56722 0
M  V30 889 H 86.2539 -1.2262 0.754998 0
M  V30 890 H 88.2069 -4.20828 -0.21946 0
M  V30 891 H 86.9309 -3.14846 -0.868319 0
M  V30 892 H 85.5899 -3.44887 1.24293 0
M  V30 893 H 85.2379 -4.98071 -0.702412 0
M  V30 894 H 84.9379 -5.81527 0.842627 0
M  V30 895 H 86.4619 -6.10585 -0.0433671 0
M  V30 896 H 87.8759 -5.33691 2.09396 0
M  V30 897 H 86.2729 -5.26379 2.88176 0
M  V30 898 H 87.3429 -3.85169 2.94572 0
M  V30 899 N 88.686 -0.835752 -1.33615 0
M  V30 900 C 89.633 -0.26473 -2.29277 0
M  V30 901 C 90.603 0.617712 -1.54187 0
M  V30 902 O 91.788 0.556641 -1.825 0
M  V30 903 C 88.928 0.556777 -3.40579 0
M  V30 904 C 88.041 -0.349339 -4.30585 0
M  V30 905 C 87.176 0.482969 -5.29 0
M  V30 906 C 86.215 -0.421732 -6.10645 0
M  V30 907 N 85.352 0.372262 -7.01112 0
M  V30 908 H 90.192 -1.08582 -2.77514 0
M  V30 909 H 87.729 -0.546927 -1.36554 0
M  V30 910 H 89.687 1.04852 -4.03809 0
M  V30 911 H 88.317 1.34286 -2.93542 0
M  V30 912 H 87.369 -0.959372 -3.68104 0
M  V30 913 H 88.681 -1.04445 -4.87742 0
M  V30 914 H 87.835 1.03866 -5.97743 0
M  V30 915 H 86.574 1.21153 -4.72412 0
M  V30 916 H 85.579 -0.989464 -5.40823 0
M  V30 917 H 86.804 -1.14861 -6.69316 0
M  V30 918 H 84.75 1.08426 -6.46977 0
M  V30 919 H 84.667 -0.264198 -7.55538 0
M  V30 920 H 85.935 0.910293 -7.74167 0
M  V30 921 N 90.1641 1.46063 -0.591896 0
M  V30 922 C 91.1121 2.32124 0.148739 0
M  V30 923 C 92.1061 1.45035 0.875286 0
M  V30 924 O 93.3121 1.61609 0.792632 0
M  V30 925 H 89.6871 0.749024 0.066832 0
M  V30 926 H 91.6581 2.92392 -0.595783 0
M  V30 927 C 90.4071 3.28373 1.1431 0
M  V30 928 H 89.7301 3.95371 0.59346 0
M  V30 929 H 91.1701 3.91352 1.63155 0
M  V30 930 C 89.6291 2.54393 2.20875 0
M  V30 931 O 90.1591 2.31373 3.28374 0
M  V30 932 N 88.3651 2.14797 1.95731 0
M  V30 933 H 87.9121 2.33719 1.08319 0
M  V30 934 H 87.8701 1.65619 2.67241 0
M  V30 935 N 91.6422 0.330177 1.54103 0
M  V30 936 C 92.8912 -0.271336 1.99867 0
M  V30 937 C 93.2042 -1.52723 1.22209 0
M  V30 938 O 94.4102 -2.20515 1.58383 0
M  V30 939 C 92.8662 -0.534032 3.55916 0
M  V30 940 C 92.4742 0.705193 4.42415 0
M  V30 941 C 94.2182 -1.09514 4.1013 0
M  V30 942 C 92.1252 0.414035 5.89949 0
M  V30 943 H 91.0552 -0.105166 0.74663 0
M  V30 944 H 93.7062 0.443429 1.78062 0
M  V30 945 H 92.0882 -1.30915 3.73734 0
M  V30 946 H 93.2622 1.4804 4.36372 0
M  V30 947 H 91.5772 1.18698 3.99124 0
M  V30 948 H 94.1742 -1.3277 5.17954 0
M  V30 949 H 94.5172 -2.04656 3.62521 0
M  V30 950 H 95.0502 -0.381038 3.95971 0
M  V30 951 H 91.7892 1.33481 6.41766 0
M  V30 952 H 91.3092 -0.323336 5.98928 0
M  V30 953 H 92.9882 0.0263105 6.46995 0
M  V30 954 N 93.1203 -1.57491 0.0584922 0
M  V30 955 C 94.0673 -2.11958 -0.913376 0
M  V30 956 C 95.0373 -1.02875 -1.30407 0
M  V30 957 O 96.2223 -1.30464 -1.39226 0
M  V30 958 C 93.3623 -2.67497 -2.18035 0
M  V30 959 C 92.4753 -3.90691 -1.84349 0
M  V30 960 C 91.6103 -4.3452 -3.05559 0
M  V30 961 C 90.6493 -5.50395 -2.67827 0
M  V30 962 N 89.7863 -5.89244 -3.81754 0
M  V30 963 H 94.6263 -2.94704 -0.442017 0
M  V30 964 H 92.1633 -1.45643 -0.206545 0
M  V30 965 H 94.1213 -2.978 -2.92183 0
M  V30 966 H 92.7513 -1.87537 -2.62735 0
M  V30 967 H 91.8033 -3.66934 -1.00319 0
M  V30 968 H 93.1153 -4.7489 -1.5258 0
M  V30 969 H 92.2693 -4.66414 -3.87998 0
M  V30 970 H 91.0083 -3.49147 -3.40511 0
M  V30 971 H 90.0133 -5.18165 -1.83806 0
M  V30 972 H 91.2383 -6.3749 -2.34059 0
M  V30 973 H 89.1843 -5.06823 -4.16493 0
M  V30 974 H 89.1013 -6.68151 -3.53708 0
M  V30 975 H 90.3693 -6.25756 -4.64811 0
M  V30 976 N 94.5984 0.214957 -1.56127 0
M  V30 977 C 95.5484 1.27006 -1.8935 0
M  V30 978 C 96.5324 1.41969 -0.757202 0
M  V30 979 O 97.7244 1.44673 -1.01973 0
M  V30 980 C 94.8534 2.61911 -2.2194 0
M  V30 981 C 93.9394 2.50822 -3.41978 0
M  V30 982 N 94.3304 2.09391 -4.60423 0
M  V30 983 C 92.6284 2.81765 -3.45723 0
M  V30 984 C 93.3294 2.09712 -5.42582 0
M  V30 985 N 92.3054 2.50454 -4.82466 0
M  V30 986 H 96.1074 0.940734 -2.78437 0
M  V30 987 H 93.6214 0.423492 -1.56781 0
M  V30 988 H 95.6184 3.38096 -2.43919 0
M  V30 989 H 94.2784 2.95684 -1.34169 0
M  V30 990 H 95.2894 1.80416 -4.85459 0
M  V30 991 H 91.9664 3.19865 -2.68314 0
M  V30 992 H 93.3564 1.79748 -6.4741 0
M  V30 993 N 96.0765 1.50051 0.48192 0
M  V30 994 C 97.0065 1.71046 1.58951 0
M  V30 995 C 97.9875 0.559288 1.60642 0
M  V30 996 O 99.1725 0.797243 1.77081 0
M  V30 997 C 96.3025 1.79462 2.97339 0
M  V30 998 C 95.2565 2.94558 3.10515 0
M  V30 999 C 94.5825 2.88105 4.50444 0
M  V30 1000 C 95.8825 4.35227 2.88747 0
M  V30 1001 H 97.5765 2.6378 1.41635 0
M  V30 1002 H 95.1225 1.26936 0.679942 0
M  V30 1003 H 97.0755 1.92734 3.74742 0
M  V30 1004 H 95.7995 0.833412 3.15788 0
M  V30 1005 H 94.4585 2.80918 2.35543 0
M  V30 1006 H 94.1065 1.89853 4.65795 0
M  V30 1007 H 93.8065 3.65366 4.60197 0
M  V30 1008 H 95.3305 3.03412 5.29881 0
M  V30 1009 H 96.7445 4.49449 3.55905 0
M  V30 1010 H 95.1415 5.13856 3.09955 0
M  V30 1011 H 96.2115 4.48347 1.84696 0
M  V30 1012 N 97.5546 -0.734337 1.39446 0
M  V30 1013 C 98.5176 -1.83004 1.37994 0
M  V30 1014 C 99.5176 -1.58397 0.276938 0
M  V30 1015 O 100.708 -1.65785 0.534875 0
M  V30 1016 C 97.8396 -3.20802 1.1532 0
M  V30 1017 H 99.0326 -1.85694 2.35494 0
M  V30 1018 H 96.5856 -0.938059 1.25021 0
M  V30 1019 H 97.3206 -3.23772 0.185036 0
M  V30 1020 H 97.1056 -3.4006 1.95197 0
M  V30 1021 H 98.5956 -4.00862 1.17046 0
M  V30 1022 N 99.0327 -1.24633 -0.964593 0
M  V30 1023 C 100.281 -1.08573 -1.70459 0
M  V30 1024 C 100.602 0.375655 -1.91347 0
M  V30 1025 O 99.8717 1.26779 -1.49345 0
M  V30 1026 H 98.4517 -0.398784 -0.631649 0
M  V30 1027 H 101.114 -1.56601 -1.16026 0
M  V30 1028 H 100.21 -1.58623 -2.68785 0
M  V30 1029 N 100.511 1.16574 -1.06058 0
M  V30 1030 C 101.757 1.87324 -0.777022 0
M  V30 1031 C 102.09 1.81351 0.694645 0
M  V30 1032 O 101.365 1.22753 1.50871 0
M  V30 1033 C 101.648 3.36991 -1.26922 0
M  V30 1034 C 101.501 3.51667 -2.80447 0
M  V30 1035 C 102.82 4.3131 -0.87521 0
M  V30 1036 H 99.9388 0.680191 -0.28374 0
M  V30 1037 H 102.581 1.37036 -1.3161 0
M  V30 1038 H 100.731 3.79949 -0.81063 0
M  V30 1039 H 102.403 3.17664 -3.34495 0
M  V30 1040 H 100.646 2.93656 -3.19294 0
M  V30 1041 H 101.317 4.56766 -3.0995 0
M  V30 1042 H 103.793 3.9624 -1.27014 0
M  V30 1043 H 102.669 5.34545 -1.2471 0
M  V30 1044 H 102.93 4.41552 0.220071 0
M  V30 1045 N 101.989 0.842826 1.3317 0
M  V30 1046 C 103.4 0.496651 1.79973 0
M  V30 1047 C 103.751 -0.984641 1.69703 0
M  V30 1048 O 102.876 -1.76743 1.24863 0
M  V30 1049 C 103.471 0.894727 3.26772 0
M  V30 1050 C 102.03 0.600629 3.71577 0
M  V30 1051 C 101.177 1.10091 2.5451 0
M  V30 1052 H 104.128 1.03116 1.20635 0
M  V30 1053 H 104.149 0.206347 3.7994 0
M  V30 1054 H 103.661 1.97287 3.34215 0
M  V30 1055 H 101.762 -0.467284 3.69658 0
M  V30 1056 H 101.875 1.15863 4.64879 0
M  V30 1057 H 100.239 0.52162 2.49301 0
M  V30 1058 H 101.022 2.18591 2.64713 0
M  V30 1059 N 103.467 -1.45747 0.599634 0
M  V30 1060 C 104.397 -2.33235 -0.111306 0
M  V30 1061 C 105.378 -1.46359 -0.866781 0
M  V30 1062 O 106.563 -1.75146 -0.838904 0
M  V30 1063 C 103.693 -3.28932 -1.11451 0
M  V30 1064 C 102.647 -4.25381 -0.472772 0
M  V30 1065 C 101.973 -5.1071 -1.58365 0
M  V30 1066 C 103.273 -5.18831 0.600948 0
M  V30 1067 H 104.967 -2.92927 0.61919 0
M  V30 1068 H 102.513 -1.40857 0.299215 0
M  V30 1069 H 104.466 -3.89002 -1.62036 0
M  V30 1070 H 103.19 -2.67381 -1.8755 0
M  V30 1071 H 101.849 -3.66598 0.0121472 0
M  V30 1072 H 101.497 -4.45533 -2.33473 0
M  V30 1073 H 101.197 -5.7604 -1.15982 0
M  V30 1074 H 102.721 -5.73647 -2.09194 0
M  V30 1075 H 104.135 -5.73019 0.179491 0
M  V30 1076 H 102.532 -5.92595 0.946076 0
M  V30 1077 H 103.602 -4.6174 1.48068 0
M  V30 1078 N 104.945 -0.338344 -1.53925 0
M  V30 1079 C 106.194 0.260732 -2.00008 0
M  V30 1080 C 106.507 1.52073 -1.23017 0
M  V30 1081 O 107.713 2.19672 -1.5955 0
M  V30 1082 C 106.169 0.51515 -3.56194 0
M  V30 1083 C 105.777 -0.728645 -4.42035 0
M  V30 1084 C 107.521 1.07337 -4.10706 0
M  V30 1085 C 105.428 -0.445315 -5.89721 0
M  V30 1086 H 104.358 0.101205 -0.747177 0
M  V30 1087 H 107.009 -0.452866 -1.77824 0
M  V30 1088 H 105.391 1.28932 -3.74423 0
M  V30 1089 H 106.565 -1.50352 -4.35581 0
M  V30 1090 H 104.88 -1.20813 -3.98489 0
M  V30 1091 H 107.477 1.30022 -5.18651 0
M  V30 1092 H 107.82 2.0273 -3.63602 0
M  V30 1093 H 108.353 0.360034 -3.96167 0
M  V30 1094 H 105.092 -1.36883 -6.41049 0
M  V30 1095 H 104.612 0.291569 -5.99091 0
M  V30 1096 H 106.291 -0.0606218 -6.46972 0
M  V30 1097 N 106.423 1.57458 -0.0668435 0
M  V30 1098 C 107.671 1.92919 0.602214 0
M  V30 1099 C 107.992 0.947215 1.70449 0
M  V30 1100 O 107.262 -0.00544117 1.95899 0
M  V30 1101 H 105.842 0.71217 0.22544 0
M  V30 1102 H 108.504 1.94508 -0.123535 0
M  V30 1103 H 107.6 2.94589 1.03073 0
M  V30 1104 N 107.901 -0.206675 1.56239 0
M  V30 1105 C 109.147 -0.925733 1.81113 0
M  V30 1106 C 109.502 -1.81368 0.642135 0
M  V30 1107 O 108.795 -1.88126 -0.363211 0
M  V30 1108 C 108.989 -1.78675 3.09532 0
M  V30 1109 C 108.818 -0.98365 4.3881 0
M  V30 1110 C 107.588 -0.672661 5.00803 0
M  V30 1111 C 109.786 -0.341847 5.13163 0
M  V30 1112 N 107.768 0.150283 6.13716 0
M  V30 1113 C 109.139 0.343815 6.19046 0
M  V30 1114 C 111.194 -0.256392 4.97239 0
M  V30 1115 C 109.897 1.10678 7.10734 0
M  V30 1116 C 111.923 0.493142 5.8934 0
M  V30 1117 C 111.285 1.16729 6.94661 0
M  V30 1118 H 107.384 -0.318524 0.714189 0
M  V30 1119 H 109.968 -0.195378 1.93717 0
M  V30 1120 H 108.139 -2.4888 2.98183 0
M  V30 1121 H 109.871 -2.44441 3.22538 0
M  V30 1122 H 106.626 -0.994294 4.63045 0
M  V30 1123 H 107.05 0.551026 6.74754 0
M  V30 1124 H 111.692 -0.763249 4.15854 0
M  V30 1125 H 109.41 1.6251 7.91591 0
M  V30 1126 H 112.996 0.560465 5.79094 0
M  V30 1127 H 111.876 1.738 7.64698 0
M  V30 1128 N 109.379 -1.50304 -0.473955 0
M  V30 1129 C 110.625 -1.61389 -1.22806 0
M  V30 1130 C 110.958 -0.311955 -1.91678 0
M  V30 1131 O 110.233 0.686384 -1.81986 0
M  V30 1132 C 110.516 -2.79219 -2.27396 0
M  V30 1133 C 110.369 -4.19286 -1.62848 0
M  V30 1134 C 111.688 -2.92614 -3.28732 0
M  V30 1135 H 108.807 -0.587399 -0.445119 0
M  V30 1136 H 111.449 -1.82681 -0.522265 0
M  V30 1137 H 109.599 -2.61195 -2.87592 0
M  V30 1138 H 111.271 -4.48892 -1.06271 0
M  V30 1139 H 109.514 -4.23677 -0.931693 0
M  V30 1140 H 110.185 -4.97655 -2.38838 0
M  V30 1141 H 112.661 -3.09105 -2.78556 0
M  V30 1142 H 111.537 -3.76688 -3.99246 0
M  V30 1143 H 111.798 -2.03107 -3.92683 0
M  V30 1144 N 110.857 0.726932 -1.39834 0
M  V30 1145 C 111.787 1.85405 -1.41941 0
M  V30 1146 C 112.768 1.67751 -0.281728 0
M  V30 1147 O 113.953 1.8795 -0.488717 0
M  V30 1148 C 111.083 3.23243 -1.2701 0
M  V30 1149 C 110.037 3.55549 -2.38262 0
M  V30 1150 C 109.363 4.9241 -2.08415 0
M  V30 1151 C 110.663 3.577 -3.80589 0
M  V30 1152 H 112.357 1.83899 -2.36266 0
M  V30 1153 H 109.903 0.883349 -1.13723 0
M  V30 1154 H 111.856 4.01775 -1.27103 0
M  V30 1155 H 110.58 3.25296 -0.291564 0
M  V30 1156 H 109.239 2.79351 -2.37399 0
M  V30 1157 H 108.887 4.91052 -1.0898 0
M  V30 1158 H 108.587 5.14992 -2.82943 0
M  V30 1159 H 110.111 5.73289 -2.10171 0
M  V30 1160 H 111.525 4.26293 -3.83337 0
M  V30 1161 H 109.922 3.91804 -4.54543 0
M  V30 1162 H 110.992 2.57328 -4.10987 0
M  V30 1163 N 112.336 1.25143 0.95797 0
M  V30 1164 C 113.752 1.01892 1.22842 0
M  V30 1165 C 113.952 -0.266311 1.99732 0
M  V30 1166 O 113.008 -0.979913 2.3271 0
M  V30 1167 C 114.321 2.24004 2.00606 0
M  V30 1168 C 115.869 2.28731 2.13662 0
M  V30 1169 C 116.344 3.5049 2.94823 0
M  V30 1170 N 117.835 3.50866 3.02403 0
M  V30 1171 C 118.57 4.4174 3.65586 0
M  V30 1172 N 118.066 5.42882 4.30408 0
M  V30 1173 N 119.859 4.29429 3.62694 0
M  V30 1174 H 112.01 2.07718 0.443493 0
M  V30 1175 H 114.273 0.912031 0.258657 0
M  V30 1176 H 113.979 3.17395 1.51503 0
M  V30 1177 H 113.853 2.26907 3.01319 0
M  V30 1178 H 116.24 1.35865 2.61963 0
M  V30 1179 H 116.321 2.29848 1.12265 0
M  V30 1180 H 115.965 4.43676 2.47213 0
M  V30 1181 H 115.895 3.46617 3.96439 0
M  V30 1182 H 118.386 2.777 2.56302 0
M  V30 1183 H 118.699 6.0844 4.76467 0
M  V30 1184 H 117.044 5.46758 4.29047 0
M  V30 1185 H 120.235 3.49643 3.11236 0
M  V30 1186 H 120.408 5.00448 4.1165 0
M  V30 1187 N 113.814 -1.1601 1.06675 0
M  V30 1188 C 114.777 -2.18724 0.685001 0
M  V30 1189 C 115.777 -1.58496 -0.271246 0
M  V30 1190 O 116.967 -1.74119 -0.0531156 0
M  V30 1191 C 114.099 -3.40899 0.00853648 0
M  V30 1192 H 115.292 -2.54011 1.59431 0
M  V30 1193 H 112.845 -1.30352 0.862441 0
M  V30 1194 H 113.58 -3.11173 -0.913337 0
M  V30 1195 H 113.365 -3.8587 0.696204 0
M  V30 1196 H 114.855 -4.16886 -0.24414 0
M  V30 1197 N 115.292 -0.849877 -1.32721 0
M  V30 1198 C 116.255 -0.296122 -2.27279 0
M  V30 1199 C 117.255 0.541458 -1.5141 0
M  V30 1200 O 118.445 0.353658 -1.70572 0
M  V30 1201 C 115.577 0.581579 -3.35902 0
M  V30 1202 H 116.77 -1.13064 -2.77771 0
M  V30 1203 H 114.323 -0.62383 -1.43311 0
M  V30 1204 H 115.058 1.43809 -2.9067 0
M  V30 1205 H 114.843 -0.0178814 -3.92096 0
M  V30 1206 H 116.333 0.961951 -4.0637 0
M  V30 1207 N 116.77 1.45427 -0.607355 0
M  V30 1208 C 117.7 2.3329 0.0989352 0
M  V30 1209 C 118.681 1.46816 0.859007 0
M  V30 1210 O 119.866 1.75588 0.829604 0
M  V30 1211 C 116.996 3.29518 1.09705 0
M  V30 1212 C 115.95 4.25626 0.450206 0
M  V30 1213 C 115.276 5.11542 1.55655 0
M  V30 1214 C 116.576 5.18505 -0.628455 0
M  V30 1215 H 118.27 2.92595 -0.634716 0
M  V30 1216 H 115.816 1.40696 -0.306681 0
M  V30 1217 H 117.769 3.89855 1.59971 0
M  V30 1218 H 116.493 2.68372 1.86129 0
M  V30 1219 H 115.152 3.66586 -0.0315886 0
M  V30 1220 H 114.8 4.46765 2.31107 0
M  V30 1221 H 114.5 5.76647 1.12925 0
M  V30 1222 H 116.024 5.74748 2.06148 0
M  V30 1223 H 117.438 5.72916 -0.209877 0
M  V30 1224 H 115.835 5.92085 -0.977489 0
M  V30 1225 H 116.905 4.60948 -1.50514 0
M  V30 1226 N 118.248 0.346503 1.53744 0
M  V30 1227 C 119.525 -0.304532 1.93215 0
M  V30 1228 C 119.905 -1.67993 1.27834 0
M  V30 1229 O 119.253 -2.24411 0.430352 0
M  V30 1230 C 119.463 -0.373852 3.46992 0
M  V30 1231 C 120.811 -0.62329 4.2 0
M  V30 1232 O 121.835 -0.455847 3.53271 0
M  V30 1233 O 120.694 -0.947879 5.38217 0
M  V30 1234 H 117.788 -0.178318 0.807547 0
M  V30 1235 H 120.334 0.397895 1.64969 0
M  V30 1236 H 119.106 0.591224 3.86808 0
M  V30 1237 H 118.729 -1.12294 3.81413 0
M  V30 1238 N 119.726 -1.57421 0.075193 0
M  V30 1239 C 120.951 -1.98364 -0.605515 0
M  V30 1240 C 121.376 -0.953383 -1.62149 0
M  V30 1241 O 120.734 0.0806053 -1.81121 0
M  V30 1242 C 120.782 -3.38332 -1.24756 0
M  V30 1243 O 119.886 -3.37959 -2.36342 0
M  V30 1244 H 119.227 -0.645553 -0.155428 0
M  V30 1245 H 121.757 -2.04044 0.150714 0
M  V30 1246 H 121.767 -3.75591 -1.5936 0
M  V30 1247 H 120.442 -4.12846 -0.503129 0
M  V30 1248 H 119.019 -3.12474 -2.03506 0
M  V30 1249 N 121.204 0.198386 -1.56346 0
M  V30 1250 C 122.452 0.91747 -1.80075 0
M  V30 1251 C 122.773 1.83929 -0.647692 0
M  V30 1252 O 122.043 1.93029 0.334166 0
M  V30 1253 H 120.623 0.341774 -0.664228 0
M  V30 1254 H 123.285 0.204684 -1.93822 0
M  V30 1255 H 122.381 1.51055 -2.7311 0
M  V30 1256 N 122.682 1.50554 0.465978 0
M  V30 1257 C 123.645 1.69233 1.54574 0
M  V30 1258 C 124.645 0.562901 1.50626 0
M  V30 1259 O 125.835 0.830016 1.53155 0
M  V30 1260 C 122.967 1.7223 2.94193 0
M  V30 1261 H 124.16 2.65571 1.39327 0
M  V30 1262 H 121.713 1.40111 0.692711 0
M  V30 1263 H 122.448 0.77603 3.14878 0
M  V30 1264 H 122.233 2.54285 2.98466 0
M  V30 1265 H 123.723 1.88618 3.72576 0
M  V30 1266 N 124.16 -0.719506 1.40217 0
M  V30 1267 C 125.407 -1.47933 1.38283 0
M  V30 1268 C 125.735 -1.94493 -0.0161536 0
M  V30 1269 O 124.99 -1.68224 -0.999956 0
M  V30 1270 C 125.289 -2.72271 2.31524 0
M  V30 1271 C 124.955 -2.44496 3.78857 0
M  V30 1272 C 123.617 -2.36631 4.18998 0
M  V30 1273 C 125.969 -2.21104 4.71977 0
M  V30 1274 C 123.297 -2.03437 5.503 0
M  V30 1275 C 125.649 -1.89423 6.03574 0
M  V30 1276 C 124.313 -1.80038 6.42762 0
M  V30 1277 H 123.583 -0.541325 0.506012 0
M  V30 1278 H 126.23 -0.824502 1.72842 0
M  V30 1279 H 124.535 -3.42572 1.90137 0
M  V30 1280 H 126.232 -3.30348 2.27313 0
M  V30 1281 H 122.822 -2.51503 3.47051 0
M  V30 1282 H 127.006 -2.26139 4.41786 0
M  V30 1283 H 122.262 -1.94705 5.79569 0
M  V30 1284 H 126.436 -1.70336 6.75247 0
M  V30 1285 H 124.063 -1.54083 7.44421 0
M  V30 1286 N 125.638 -1.25649 -0.95132 0
M  V30 1287 C 126.57 -1.02112 -2.05197 0
M  V30 1288 C 127.583 0.0150571 -1.62793 0
M  V30 1289 O 128.772 -0.223874 -1.77091 0
M  V30 1290 C 125.872 -0.522361 -3.3485 0
M  V30 1291 C 125.045 -1.62546 -4.06076 0
M  V30 1292 C 124.104 -1.12649 -5.14001 0
M  V30 1293 O 123.13 -1.82156 -5.39266 0
M  V30 1294 N 124.332 0.03047 -5.80492 0
M  V30 1295 H 127.097 -1.96885 -2.25957 0
M  V30 1296 H 124.658 -1.16899 -1.1201 0
M  V30 1297 H 126.65 -0.172961 -4.0433 0
M  V30 1298 H 125.22 0.33151 -3.10837 0
M  V30 1299 H 124.44 -2.14628 -3.30649 0
M  V30 1300 H 125.728 -2.36644 -4.50419 0
M  V30 1301 H 125.126 0.611169 -5.62389 0
M  V30 1302 H 123.683 0.320875 -6.5101 0
M  V30 1303 N 127.117 1.15442 -1.07289 0
M  V30 1304 C 128.342 1.90638 -0.816828 0
M  V30 1305 C 128.767 1.77445 0.624083 0
M  V30 1306 O 128.125 1.10671 1.43602 0
M  V30 1307 C 128.173 3.39008 -1.22906 0
M  V30 1308 O 127.277 4.10701 -0.373975 0
M  V30 1309 H 126.618 0.593555 -0.297638 0
M  V30 1310 H 129.148 1.46198 -1.43134 0
M  V30 1311 H 129.158 3.89801 -1.20497 0
M  V30 1312 H 127.833 3.47929 -2.27856 0
M  V30 1313 H 126.41 3.70046 -0.460499 0
M  V30 1314 N 128.595 0.856903 1.32268 0
M  V30 1315 C 129.841 0.462069 1.97466 0
M  V30 1316 C 130.174 -0.980298 1.67642 0
M  V30 1317 O 129.449 -1.68824 0.965858 0
M  V30 1318 C 129.732 0.704336 3.53145 0
M  V30 1319 C 129.585 2.19529 3.9259 0
M  V30 1320 C 130.904 0.1622 4.39801 0
M  V30 1321 H 128.023 0.169357 0.717278 0
M  V30 1322 H 130.665 1.07574 1.56614 0
M  V30 1323 H 128.815 0.181999 3.88073 0
M  V30 1324 H 130.487 2.78387 3.67829 0
M  V30 1325 H 128.73 2.67292 3.41668 0
M  V30 1326 H 129.401 2.31549 5.01088 0
M  V30 1327 H 131.877 0.608905 4.11621 0
M  V30 1328 H 130.753 0.361265 5.4771 0
M  V30 1329 H 131.014 -0.935158 4.32096 0
M  V30 1330 N 130.073 -1.45103 0.615059 0
M  V30 1331 C 131.319 -2.03035 0.121804 0
M  V30 1332 C 131.674 -1.47393 -1.23665 0
M  V30 1333 O 130.967 -0.642061 -1.80522 0
M  V30 1334 C 131.161 -3.57386 0.0318797 0
M  V30 1335 C 130.99 -4.28 1.38007 0
M  V30 1336 C 129.76 -4.65624 1.9627 0
M  V30 1337 C 131.958 -4.5948 2.31047 0
M  V30 1338 N 129.94 -5.21132 3.24492 0
M  V30 1339 C 131.311 -5.159 3.43872 0
M  V30 1340 C 133.366 -4.41423 2.30326 0
M  V30 1341 C 132.069 -5.56165 4.5615 0
M  V30 1342 C 134.095 -4.82726 3.41658 0
M  V30 1343 C 133.457 -5.39245 4.53205 0
M  V30 1344 H 129.556 -0.77702 0.0881159 0
M  V30 1345 H 132.14 -1.76819 0.815044 0
M  V30 1346 H 130.311 -3.83247 -0.630599 0
M  V30 1347 H 132.043 -4.01976 -0.468721 0
M  V30 1348 H 128.798 -4.49421 1.49392 0
M  V30 1349 H 129.222 -5.53377 3.90004 0
M  V30 1350 H 133.864 -3.97033 1.45343 0
M  V30 1351 H 131.582 -5.99517 5.41854 0
M  V30 1352 H 135.168 -4.7048 3.42257 0
M  V30 1353 H 134.048 -5.70616 5.37929 0
M  V30 1354 N 131.551 -0.354651 -1.53558 0
M  V30 1355 C 132.797 0.238797 -2.01389 0
M  V30 1356 C 133.13 1.49309 -1.2418 0
M  V30 1357 O 132.405 1.91638 -0.332457 0
M  V30 1358 C 132.688 0.541771 -3.56001 0
M  V30 1359 C 132.541 -0.725388 -4.43912 0
M  V30 1360 C 133.86 1.34685 -4.18984 0
M  V30 1361 H 130.979 0.0853177 -0.732045 0
M  V30 1362 H 133.621 -0.477384 -1.83905 0
M  V30 1363 H 131.771 1.15189 -3.71031 0
M  V30 1364 H 133.443 -1.36313 -4.407 0
M  V30 1365 H 131.686 -1.34801 -4.12324 0
M  V30 1366 H 132.357 -0.468505 -5.50008 0
M  V30 1367 H 134.833 0.830837 -4.07721 0
M  V30 1368 H 133.709 1.52759 -5.27215 0
M  V30 1369 H 133.97 2.35221 -3.74331 0
M  V30 1370 N 133.029 1.57378 -0.0835403 0
M  V30 1371 C 134.254 1.98682 0.594987 0
M  V30 1372 C 134.679 0.961969 1.61641 0
M  V30 1373 O 134.037 -0.0709989 1.81161 0
M  V30 1374 C 134.085 3.38988 1.2296 0
M  V30 1375 O 133.189 3.39208 2.34546 0
M  V30 1376 H 132.53 0.646368 0.152002 0
M  V30 1377 H 135.06 2.03961 -0.161533 0
M  V30 1378 H 135.07 3.76431 1.57366 0
M  V30 1379 H 133.745 4.13107 0.481228 0
M  V30 1380 H 132.322 3.13548 2.01846 0
M  V30 1381 N 134.507 -0.190092 1.56449 0
M  V30 1382 C 135.735 -0.925772 1.85033 0
M  V30 1383 C 136.15 -1.76638 0.666658 0
M  V30 1384 O 135.507 -1.78822 -0.364565 0
M  V30 1385 C 135.558 -1.81786 3.12468 0
M  V30 1386 O 135.279 -1.01118 4.26271 0
M  V30 1387 C 136.78 -2.6648 3.54265 0
M  V30 1388 H 134 -0.269872 0.614337 0
M  V30 1389 H 136.544 -0.195837 2.0356 0
M  V30 1390 H 134.699 -2.50136 2.95822 0
M  V30 1391 H 135.113 -1.61956 4.98869 0
M  V30 1392 H 136.587 -3.24722 4.46385 0
M  V30 1393 H 137.064 -3.40434 2.77491 0
M  V30 1394 H 137.67 -2.03493 3.73458 0
M  V30 1395 N 135.985 -1.50799 -0.457987 0
M  V30 1396 C 137.262 -1.52968 -1.21902 0
M  V30 1397 C 137.642 -0.281906 -2.09209 0
M  V30 1398 O 136.99 0.734076 -2.16388 0
M  V30 1399 C 137.2 -2.8326 -2.03875 0
M  V30 1400 C 138.548 -3.34425 -2.6162 0
M  V30 1401 O 139.572 -2.8467 -2.14106 0
M  V30 1402 O 138.431 -4.21188 -3.48228 0
M  V30 1403 H 135.525 -0.614129 -0.553873 0
M  V30 1404 H 138.071 -1.63098 -0.468739 0
M  V30 1405 H 136.843 -3.65543 -1.39621 0
M  V30 1406 H 136.466 -2.76195 -2.8601 0
M  V30 1407 N 137.463 0.71206 -1.40597 0
M  V30 1408 C 138.413 1.81783 -1.37619 0
M  V30 1409 C 139.397 1.58896 -0.253162 0
M  V30 1410 O 140.589 1.70009 -0.492547 0
M  V30 1411 C 137.718 3.19944 -1.24462 0
M  V30 1412 C 136.804 3.48582 -2.4156 0
M  V30 1413 N 137.195 3.48016 -3.67041 0
M  V30 1414 C 135.493 3.79056 -2.35016 0
M  V30 1415 C 136.194 3.75096 -4.44609 0
M  V30 1416 N 135.17 3.94022 -3.74497 0
M  V30 1417 H 138.972 1.79683 -2.32575 0
M  V30 1418 H 136.486 0.91134 -1.34419 0
M  V30 1419 H 138.483 3.99133 -1.20411 0
M  V30 1420 H 137.143 3.23267 -0.304762 0
M  V30 1421 H 138.154 3.28782 -4.00153 0
M  V30 1422 H 134.831 3.89848 -1.49415 0
M  V30 1423 H 136.221 3.80934 -5.53479 0
M  V30 1424 N 138.941 1.26152 0.944643 0
M  V30 1425 C 140.218 1.02247 1.66748 0
M  V30 1426 C 140.598 -0.448202 2.06287 0
M  V30 1427 O 139.946 -1.42779 1.78399 0
M  V30 1428 C 140.156 1.96788 2.88228 0
M  V30 1429 C 141.504 2.25201 3.59958 0
M  V30 1430 O 142.528 1.94626 2.98327 0
M  V30 1431 O 141.387 2.77242 4.70956 0
M  V30 1432 H 138.481 0.388517 0.730057 0
M  V30 1433 H 141.027 1.37348 0.99668 0
M  V30 1434 H 139.799 2.96047 2.55875 0
M  V30 1435 H 139.422 1.62145 3.63035 0
M  V30 1436 N 140.419 -1.14872 1.07899 0
M  V30 1437 C 141.329 -2.2341 0.715915 0
M  V30 1438 C 142.345 -1.71808 -0.275306 0
M  V30 1439 O 143.521 -2.01039 -0.120545 0
M  V30 1440 C 140.586 -3.46474 0.125168 0
M  V30 1441 C 139.647 -4.13039 1.17034 0
M  V30 1442 C 138.88 -5.30229 0.607688 0
M  V30 1443 O 139.103 -5.675 -0.574497 0
M  V30 1444 O 138.037 -5.86444 1.35526 0
M  V30 1445 H 141.863 -2.56808 1.62121 0
M  V30 1446 H 139.448 -1.22702 0.852322 0
M  V30 1447 H 141.33 -4.20917 -0.201729 0
M  V30 1448 H 140.005 -3.14811 -0.753364 0
M  V30 1449 H 138.912 -3.40493 1.54968 0
M  V30 1450 H 140.245 -4.48796 2.02097 0
M  V30 1451 N 141.898 -0.863906 -1.31812 0
M  V30 1452 C 143.147 -0.46801 -1.96195 0
M  V30 1453 C 143.46 0.983474 -1.69077 0
M  V30 1454 O 144.666 1.48523 -2.27273 0
M  V30 1455 C 143.122 -0.785995 -3.51212 0
M  V30 1456 C 142.73 -2.25383 -3.87178 0
M  V30 1457 C 144.474 -0.458274 -4.22019 0
M  V30 1458 C 142.381 -2.51455 -5.3528 0
M  V30 1459 H 141.311 -0.171283 -0.734287 0
M  V30 1460 H 143.962 -1.05597 -1.50072 0
M  V30 1461 H 142.344 -0.127359 -3.95795 0
M  V30 1462 H 143.518 -2.95502 -3.53575 0
M  V30 1463 H 141.833 -2.54698 -3.2942 0
M  V30 1464 H 144.43 -0.630369 -5.30971 0
M  V30 1465 H 144.773 0.600834 -4.11941 0
M  V30 1466 H 145.306 -1.07319 -3.8305 0
M  V30 1467 H 142.045 -3.56025 -5.50387 0
M  V30 1468 H 141.565 -1.85923 -5.70257 0
M  V30 1469 H 143.244 -2.35874 -6.02472 0
M  V30 1470 N 143.376 1.44774 -0.622745 0
M  V30 1471 C 144.286 2.34433 0.0886031 0
M  V30 1472 C 145.302 1.52131 0.844529 0
M  V30 1473 O 146.478 1.84886 0.798691 0
M  V30 1474 C 143.543 3.29986 1.0635 0
M  V30 1475 C 142.604 4.28195 0.307873 0
M  V30 1476 C 141.837 5.19183 1.23633 0
M  V30 1477 O 142.06 5.13918 2.47476 0
M  V30 1478 O 140.994 5.97515 0.725189 0
M  V30 1479 H 144.82 2.96693 -0.648599 0
M  V30 1480 H 142.405 1.44408 -0.382957 0
M  V30 1481 H 144.287 3.88825 1.6246 0
M  V30 1482 H 142.962 2.70269 1.78146 0
M  V30 1483 H 141.869 3.72927 -0.296064 0
M  V30 1484 H 143.202 4.90808 -0.3699 0
M  V30 1485 N 144.854 0.36279 1.53368 0
M  V30 1486 C 145.802 -0.500155 2.27159 0
M  V30 1487 C 146.796 -1.08575 1.3003 0
M  V30 1488 O 148.002 -1.02927 1.47668 0
M  V30 1489 H 144.377 -0.180009 0.730138 0
M  V30 1490 H 146.348 0.14401 2.98052 0
M  V30 1491 C 145.097 -1.62937 3.07159 0
M  V30 1492 H 144.42 -1.18806 3.8174 0
M  V30 1493 H 145.86 -2.20795 3.61975 0
M  V30 1494 C 144.319 -2.57007 2.17829 0
M  V30 1495 O 144.849 -3.59752 1.78721 0
M  V30 1496 N 143.055 -2.26131 1.82518 0
M  V30 1497 H 142.602 -1.42616 2.14519 0
M  V30 1498 H 142.56 -2.89327 1.23034 0
M  V30 1499 N 146.332 -1.57332 0.0918853 0
M  V30 1500 C 147.578 -1.94524 -0.573425 0
M  V30 1501 C 147.911 -0.973578 -1.68033 0
M  V30 1502 O 147.186 -0.00609226 -1.94499 0
M  V30 1503 C 147.469 -3.41858 -1.13161 0
M  V30 1504 C 147.322 -4.4979 -0.0299747 0
M  V30 1505 C 148.641 -3.90435 -2.03098 0
M  V30 1506 H 145.76 -0.70734 -0.206975 0
M  V30 1507 H 148.402 -1.89309 0.161942 0
M  V30 1508 H 146.552 -3.46433 -1.7583 0
M  V30 1509 H 148.224 -4.57327 0.604112 0
M  V30 1510 H 146.467 -4.291 0.636833 0
M  V30 1511 H 147.138 -5.50069 -0.461287 0
M  V30 1512 H 149.614 -3.87992 -1.50338 0
M  V30 1513 H 148.49 -4.94097 -2.39081 0
M  V30 1514 H 148.751 -3.29541 -2.94712 0
M  V30 1515 N 147.81 0.181792 -1.56548 0
M  V30 1516 C 148.773 1.20894 -1.94724 0
M  V30 1517 C 149.773 1.37738 -0.829747 0
M  V30 1518 O 150.963 1.35323 -1.09697 0
M  V30 1519 C 148.095 2.57593 -2.23291 0
M  V30 1520 H 149.288 0.882275 -2.86629 0
M  V30 1521 H 146.841 0.423838 -1.50444 0
M  V30 1522 H 147.576 2.95291 -1.34067 0
M  V30 1523 H 147.361 2.46735 -3.04736 0
M  V30 1524 H 148.851 3.31637 -2.53785 0
M  V30 1525 N 149.288 1.51039 0.449983 0
M  V30 1526 C 150.235 1.71439 1.54523 0
M  V30 1527 C 151.205 0.555871 1.56522 0
M  V30 1528 O 152.39 0.788871 1.73728 0
M  V30 1529 C 149.53 1.83384 2.92343 0
M  V30 1530 C 148.643 3.10873 2.9997 0
M  V30 1531 C 147.778 3.13488 4.28834 0
M  V30 1532 C 146.817 4.35343 4.30282 0
M  V30 1533 N 145.954 4.35579 5.5065 0
M  V30 1534 H 150.794 2.64934 1.36433 0
M  V30 1535 H 148.331 1.31312 0.662982 0
M  V30 1536 H 150.289 1.88291 3.72293 0
M  V30 1537 H 148.919 0.933086 3.0902 0
M  V30 1538 H 147.971 3.15336 2.12761 0
M  V30 1539 H 149.283 4.00814 2.96901 0
M  V30 1540 H 148.437 3.17241 5.17149 0
M  V30 1541 H 147.176 2.21414 4.34543 0
M  V30 1542 H 146.181 4.3178 3.40362 0
M  V30 1543 H 147.406 5.28668 4.26248 0
M  V30 1544 H 145.352 3.46369 5.57104 0
M  V30 1545 H 145.269 5.19313 5.49409 0
M  V30 1546 H 146.537 4.43507 6.41032 0
M  V30 1547 N 150.766 -0.704594 1.40972 0
M  V30 1548 C 151.698 -1.82974 1.38033 0
M  V30 1549 C 152.711 -1.60305 0.283931 0
M  V30 1550 O 153.9 -1.69975 0.545042 0
M  V30 1551 C 151 -3.19578 1.12795 0
M  V30 1552 C 150.173 -3.69352 2.34302 0
M  V30 1553 C 149.232 -4.84601 2.05058 0
M  V30 1554 O 148.258 -4.96682 2.7802 0
M  V30 1555 N 149.46 -5.71194 1.03528 0
M  V30 1556 H 152.225 -1.85991 2.35005 0
M  V30 1557 H 149.786 -0.886567 1.35468 0
M  V30 1558 H 151.778 -3.9429 0.911987 0
M  V30 1559 H 150.348 -3.11642 0.24452 0
M  V30 1560 H 149.568 -2.85649 2.71659 0
M  V30 1561 H 150.856 -3.99345 3.1528 0
M  V30 1562 H 150.254 -5.64054 0.431217 0
M  V30 1563 H 148.811 -6.45843 0.879205 0
M  V30 1564 N 152.244 -1.26651 -0.937939 0
M  V30 1565 C 153.491 -1.12387 -1.6845 0
M  V30 1566 C 153.819 0.332208 -1.91642 0
M  V30 1567 O 153.074 1.2602 -1.49725 0
M  V30 1568 C 153.373 -1.84168 -3.06295 0
M  V30 1569 C 153.039 -3.34056 -3.02849 0
M  V30 1570 C 151.701 -3.74942 -3.01616 0
M  V30 1571 C 154.053 -4.29741 -2.9491 0
M  V30 1572 C 151.381 -5.09894 -2.90215 0
M  V30 1573 C 153.733 -5.64738 -2.8505 0
M  V30 1574 C 152.397 -6.0493 -2.82162 0
M  V30 1575 H 151.667 -0.411252 -0.616403 0
M  V30 1576 H 154.314 -1.57134 -1.09459 0
M  V30 1577 H 152.619 -1.319 -3.6893 0
M  V30 1578 H 154.316 -1.70569 -3.62915 0
M  V30 1579 H 150.906 -3.01534 -3.0459 0
M  V30 1580 H 155.09 -3.99133 -2.94969 0
M  V30 1581 H 150.346 -5.40194 -2.86358 0
M  V30 1582 H 154.52 -6.38561 -2.77872 0
M  V30 1583 H 152.147 -7.09457 -2.73084 0
M  V30 1584 N 153.722 1.14298 -1.08507 0
M  V30 1585 C 154.97 1.84993 -0.813763 0
M  V30 1586 C 155.291 1.83405 0.662393 0
M  V30 1587 O 154.561 1.28319 1.48024 0
M  V30 1588 H 153.141 0.684966 -0.298045 0
M  V30 1589 H 155.803 1.385 -1.37126 0
M  V30 1590 H 154.899 2.89788 -1.15884 0
M  V30 1591 N 155.201 0.870884 1.31352 0
M  V30 1592 C 156.164 0.332243 2.26779 0
M  V30 1593 C 157.164 -0.517302 1.52252 0
M  V30 1594 O 158.354 -0.326477 1.71113 0
M  V30 1595 C 155.486 -0.528066 3.36785 0
M  V30 1596 H 156.679 1.17469 2.75937 0
M  V30 1597 H 154.232 0.64655 1.423 0
M  V30 1598 H 154.967 -1.39167 2.92922 0
M  V30 1599 H 154.752 0.0802582 3.92018 0
M  V30 1600 H 156.242 -0.897179 4.07849 0
M  V30 1601 N 156.679 -1.44442 0.630414 0
M  V30 1602 C 157.611 -2.2892 -0.113347 0
M  V30 1603 C 158.624 -1.41243 -0.80959 0
M  V30 1604 O 159.813 -1.65402 -0.671156 0
M  V30 1605 C 156.913 -3.17594 -1.18266 0
M  V30 1606 C 156.086 -4.33682 -0.569073 0
M  V30 1607 C 155.145 -5.03397 -1.53226 0
M  V30 1608 O 154.171 -5.59438 -1.04967 0
M  V30 1609 N 155.373 -5.04783 -2.86661 0
M  V30 1610 H 158.138 -2.93392 0.611636 0
M  V30 1611 H 155.699 -1.54881 0.471523 0
M  V30 1612 H 157.691 -3.61097 -1.82732 0
M  V30 1613 H 156.261 -2.54876 -1.80988 0
M  V30 1614 H 155.481 -3.9338 0.254187 0
M  V30 1615 H 156.769 -5.08608 -0.139767 0
M  V30 1616 H 156.167 -4.60584 -3.28449 0
M  V30 1617 H 154.724 -5.52077 -3.46489 0
M  V30 1618 N 158.157 -0.370918 -1.53173 0
M  V30 1619 C 159.403 0.217423 -2.01631 0
M  V30 1620 C 159.736 1.47983 -1.25756 0
M  V30 1621 O 159.011 1.91274 -0.352764 0
M  V30 1622 C 159.294 0.503982 -3.56556 0
M  V30 1623 C 159.147 -0.77243 -4.43118 0
M  V30 1624 C 160.466 1.30234 -4.20389 0
M  V30 1625 H 157.585 0.0775486 -0.732909 0
M  V30 1626 H 160.227 -0.496863 -1.83388 0
M  V30 1627 H 158.377 1.11248 -3.72231 0
M  V30 1628 H 160.049 -1.4098 -4.39229 0
M  V30 1629 H 158.292 -1.39167 -4.10871 0
M  V30 1630 H 158.963 -0.526815 -5.4948 0
M  V30 1631 H 161.439 0.787546 -4.08579 0
M  V30 1632 H 160.315 1.47158 -5.28806 0
M  V30 1633 H 160.576 2.31237 -3.76805 0
M  V30 1634 N 159.635 1.57281 -0.100228 0
M  V30 1635 C 160.585 2.10848 0.86759 0
M  V30 1636 C 161.569 1.02473 1.24049 0
M  V30 1637 O 162.761 1.28739 1.21471 0
M  V30 1638 C 159.89 2.69648 2.12474 0
M  V30 1639 C 158.976 3.85074 1.77704 0
M  V30 1640 N 159.367 4.92897 1.13518 0
M  V30 1641 C 157.665 3.94905 2.07282 0
M  V30 1642 C 158.366 5.73475 0.974735 0
M  V30 1643 N 157.342 5.22675 1.4937 0
M  V30 1644 H 161.144 2.91594 0.367471 0
M  V30 1645 H 158.658 1.62074 0.102829 0
M  V30 1646 H 160.655 3.06356 2.82757 0
M  V30 1647 H 159.315 1.90359 2.63047 0
M  V30 1648 H 160.326 5.11662 0.801381 0
M  V30 1649 H 157.003 3.26633 2.60033 0
M  V30 1650 H 158.393 6.70238 0.472364 0
M  V30 1651 N 161.113 -0.173488 1.56642 0
M  V30 1652 C 162.529 -0.525174 1.50712 0
M  V30 1653 C 162.729 -1.8476 0.804107 0
M  V30 1654 O 161.785 -2.49869 0.363574 0
M  V30 1655 C 163.098 -0.559937 2.95441 0
M  V30 1656 C 164.646 -0.647288 3.06234 0
M  V30 1657 C 165.121 -0.712963 4.52417 0
M  V30 1658 N 166.612 -0.775911 4.56655 0
M  V30 1659 C 167.347 -0.847264 5.67106 0
M  V30 1660 N 166.843 -0.879585 6.87194 0
M  V30 1661 N 168.636 -0.886117 5.55071 0
M  V30 1662 H 160.787 0.693681 2.00753 0
M  V30 1663 H 163.05 0.249841 0.914485 0
M  V30 1664 H 162.756 0.343049 3.50023 0
M  V30 1665 H 162.63 -1.40718 3.49969 0
M  V30 1666 H 165.017 -1.5407 2.51687 0
M  V30 1667 H 165.098 0.226586 2.54794 0
M  V30 1668 H 164.742 0.176183 5.07594 0
M  V30 1669 H 164.672 -1.60295 5.0161 0
M  V30 1670 H 167.163 -0.759304 3.70193 0
M  V30 1671 H 167.476 -0.935144 7.67121 0
M  V30 1672 H 165.821 -0.847898 6.89808 0
M  V30 1673 H 169.012 -0.857853 4.60172 0
M  V30 1674 H 169.185 -0.938263 6.41171 0
M  V30 1675 N 162.591 -1.51276 -0.441967 0
M  V30 1676 C 164.007 -1.39349 -0.778083 0
M  V30 1677 C 164.207 -0.472212 -1.95889 0
M  V30 1678 O 163.263 0.0743551 -2.5239 0
M  V30 1679 C 164.576 -2.81292 -1.0628 0
M  V30 1680 C 166.124 -2.9041 -1.16751 0
M  V30 1681 C 166.599 -4.33251 -1.48519 0
M  V30 1682 N 168.09 -4.36336 -1.55453 0
M  V30 1683 C 168.825 -5.43885 -1.81596 0
M  V30 1684 N 168.321 -6.61601 -2.05562 0
M  V30 1685 N 170.114 -5.3136 -1.8334 0
M  V30 1686 H 162.265 -2.09729 0.335774 0
M  V30 1687 H 164.528 -0.943925 0.0878028 0
M  V30 1688 H 164.234 -3.50678 -0.267905 0
M  V30 1689 H 164.108 -3.20334 -1.99163 0
M  V30 1690 H 166.495 -2.21225 -1.95304 0
M  V30 1691 H 166.576 -2.54871 -0.217801 0
M  V30 1692 H 166.22 -5.02984 -0.704958 0
M  V30 1693 H 166.15 -4.66299 -2.44689 0
M  V30 1694 H 168.641 -3.51466 -1.38853 0
M  V30 1695 H 168.954 -7.39361 -2.24867 0
M  V30 1696 H 167.299 -6.64725 -2.02894 0
M  V30 1697 H 170.49 -4.38382 -1.64132 0
M  V30 1698 H 170.663 -6.15258 -2.03377 0
M  V30 1699 N 164.069 0.697108 -1.41344 0
M  V30 1700 C 165.294 1.49096 -1.44171 0
M  V30 1701 C 165.719 1.88038 -0.0481568 0
M  V30 1702 O 165.077 1.54525 0.948243 0
M  V30 1703 C 165.125 2.73088 -2.3549 0
M  V30 1704 O 164.229 3.70514 -1.81088 0
M  V30 1705 H 163.57 0.448801 -0.489361 0
M  V30 1706 H 166.1 0.856992 -1.85787 0
M  V30 1707 H 166.11 3.21413 -2.51312 0
M  V30 1708 H 164.785 2.44081 -3.36745 0
M  V30 1709 H 163.362 3.29441 -1.74708 0
M  V30 1710 N 165.547 1.27147 0.931209 0
M  V30 1711 C 166.772 1.16191 1.71797 0
M  V30 1712 C 167.197 -0.278004 1.86034 0
M  V30 1713 O 166.555 -1.20137 1.35782 0
M  V30 1714 C 166.603 1.84673 3.09723 0
M  V30 1715 O 165.707 1.14231 3.96264 0
M  V30 1716 H 165.048 0.404303 0.526721 0
M  V30 1717 H 167.578 1.68152 1.1656 0
M  V30 1718 H 167.588 1.91893 3.60057 0
M  V30 1719 H 166.263 2.89421 2.98677 0
M  V30 1720 H 164.84 1.15056 3.54706 0
M  V30 1721 N 167.025 -1.13721 1.09112 0
M  V30 1722 C 167.935 -2.22638 0.73957 0
M  V30 1723 C 168.951 -1.72091 -0.257068 0
M  V30 1724 O 170.127 -2.01155 -0.0992154 0
M  V30 1725 C 167.192 -3.46322 0.16191 0
M  V30 1726 C 166.253 -4.11775 1.21408 0
M  V30 1727 C 165.486 -5.29555 0.663891 0
M  V30 1728 O 165.709 -5.68077 -0.514274 0
M  V30 1729 O 164.643 -5.84973 1.41738 0
M  V30 1730 H 168.469 -2.55074 1.64836 0
M  V30 1731 H 166.054 -1.21791 0.865289 0
M  V30 1732 H 167.936 -4.21107 -0.157073 0
M  V30 1733 H 166.611 -3.15593 -0.719932 0
M  V30 1734 H 165.518 -3.3883 1.58571 0
M  V30 1735 H 166.851 -4.46627 2.06845 0
M  V30 1736 N 168.503 -0.877838 -1.30888 0
M  V30 1737 C 169.749 -0.493426 -1.96706 0
M  V30 1738 C 170.082 0.953504 -1.6918 0
M  V30 1739 O 169.357 1.67266 -0.992594 0
M  V30 1740 C 169.64 -0.760429 -3.51979 0
M  V30 1741 C 169.493 -2.25747 -3.89048 0
M  V30 1742 C 170.812 -0.232148 -4.39487 0
M  V30 1743 H 167.931 -0.180746 -0.714493 0
M  V30 1744 H 170.573 -1.10052 -1.54882 0
M  V30 1745 H 168.723 -0.243715 -3.87735 0
M  V30 1746 H 170.395 -2.84204 -3.63354 0
M  V30 1747 H 168.638 -2.72694 -3.37373 0
M  V30 1748 H 169.309 -2.39491 -4.97341 0
M  V30 1749 H 171.785 -0.674314 -4.106 0
M  V30 1750 H 170.661 -0.448355 -5.47066 0
M  V30 1751 H 170.922 0.866297 -4.33529 0
M  V30 1752 N 169.982 1.44106 -0.638065 0
M  V30 1753 C 171.207 2.0685 -0.150916 0
M  V30 1754 C 171.632 1.47417 1.16833 0
M  V30 1755 O 170.99 0.578264 1.71831 0
M  V30 1756 C 171.038 3.60555 -0.05708 0
M  V30 1757 O 170.142 4.00465 0.984972 0
M  V30 1758 H 169.483 0.658151 -0.0879399 0
M  V30 1759 H 172.013 1.84865 -0.876707 0
M  V30 1760 H 172.023 4.07789 0.131232 0
M  V30 1761 H 170.698 4.03193 -1.02021 0
M  V30 1762 H 169.275 3.64849 0.770672 0
M  V30 1763 N 171.46 0.379036 1.52974 0
M  V30 1764 C 172.407 -0.461048 2.26148 0
M  V30 1765 C 173.377 -1.06637 1.27349 0
M  V30 1766 O 174.562 -1.09633 1.56157 0
M  V30 1767 C 171.702 -1.58782 3.06402 0
M  V30 1768 C 170.815 -1.00636 4.20115 0
M  V30 1769 C 169.95 -2.10334 4.87784 0
M  V30 1770 C 168.989 -1.49724 5.93506 0
M  V30 1771 N 168.126 -2.5331 6.54812 0
M  V30 1772 H 172.966 0.169429 2.97518 0
M  V30 1773 H 170.503 0.0953806 1.4679 0
M  V30 1774 H 172.461 -2.25174 3.51215 0
M  V30 1775 H 171.091 -2.18876 2.37261 0
M  V30 1776 H 170.143 -0.232332 3.7969 0
M  V30 1777 H 171.455 -0.523343 4.96047 0
M  V30 1778 H 170.609 -2.84519 5.35849 0
M  V30 1779 H 169.348 -2.61992 4.11353 0
M  V30 1780 H 168.353 -0.740598 5.44789 0
M  V30 1781 H 169.578 -0.988732 6.71864 0
M  V30 1782 H 167.524 -3.04156 5.81227 0
M  V30 1783 H 167.441 -2.09734 7.26325 0
M  V30 1784 H 168.709 -3.27155 7.07524 0
M  V30 1785 N 172.938 -1.57226 0.108567 0
M  V30 1786 C 174.215 -1.86333 -0.594939 0
M  V30 1787 C 174.595 -1.00788 -1.85486 0
M  V30 1788 O 173.943 -0.0839293 -2.28346 0
M  V30 1789 C 174.153 -3.37265 -0.897405 0
M  V30 1790 C 175.501 -4.05629 -1.25501 0
M  V30 1791 O 176.525 -3.42224 -0.987998 0
M  V30 1792 O 175.384 -5.17531 -1.75567 0
M  V30 1793 H 172.478 -0.771018 -0.2991 0
M  V30 1794 H 175.024 -1.69102 0.142283 0
M  V30 1795 H 173.796 -3.913 -0.00413806 0
M  V30 1796 H 173.419 -3.59889 -1.69014 0
M  V30 1797 N 174.416 0.165178 -1.56732 0
M  V30 1798 C 175.641 0.900253 -1.86843 0
M  V30 1799 C 176.066 1.74766 -0.695596 0
M  V30 1800 O 175.424 1.77786 0.35522 0
M  V30 1801 C 175.472 1.74777 -3.15413 0
M  V30 1802 O 174.576 2.85007 -2.98068 0
M  V30 1803 H 173.917 0.251832 -0.614391 0
M  V30 1804 H 176.447 0.161468 -2.03962 0
M  V30 1805 H 176.457 2.14646 -3.46974 0
M  V30 1806 H 175.132 1.12537 -4.00385 0
M  V30 1807 H 173.709 2.48676 -2.77875 0
M  V30 1808 N 175.894 1.51508 0.433938 0
M  V30 1809 C 177.119 1.68443 1.21003 0
M  V30 1810 C 177.544 0.382636 1.84167 0
M  V30 1811 O 176.902 -0.65755 1.68956 0
M  V30 1812 C 176.95 2.80405 2.26727 0
M  V30 1813 O 176.054 2.44245 3.32292 0
M  V30 1814 H 175.395 0.561536 0.354363 0
M  V30 1815 H 177.925 1.9809 0.512024 0
M  V30 1816 H 177.935 3.0459 2.71457 0
M  V30 1817 H 176.61 3.74867 1.80132 0
M  V30 1818 H 175.187 2.30644 2.93015 0
M  V30 1819 N 177.372 -0.689602 1.41712 0
M  V30 1820 C 178.6 -1.47827 1.44758 0
M  V30 1821 C 179.015 -1.88721 0.0545703 0
M  V30 1822 O 178.372 -1.57176 -0.927463 0
M  V30 1823 C 178.423 -2.73698 2.3616 0
M  V30 1824 O 178.144 -2.34524 3.7004 0
M  V30 1825 C 179.645 -3.67389 2.48072 0
M  V30 1826 H 176.865 -0.455357 0.49284 0
M  V30 1827 H 179.409 -0.848574 1.86063 0
M  V30 1828 H 177.564 -3.32891 1.98148 0
M  V30 1829 H 177.978 -3.15701 4.18847 0
M  V30 1830 H 179.452 -4.52475 3.16181 0
M  V30 1831 H 179.929 -4.12284 1.51388 0
M  V30 1832 H 180.535 -3.14097 2.86746 0
M  V30 1833 N 178.85 -1.27639 -0.924453 0
M  V30 1834 C 180.075 -1.17101 -1.71179 0
M  V30 1835 C 180.5 0.268134 -1.86179 0
M  V30 1836 O 179.858 1.19415 -1.36418 0
M  V30 1837 C 179.906 -1.86313 -3.08739 0
M  V30 1838 O 179.01 -1.16331 -3.95652 0
M  V30 1839 H 178.351 -0.407091 -0.524569 0
M  V30 1840 H 180.881 -1.68767 -1.15666 0
M  V30 1841 H 180.891 -1.938 -3.59034 0
M  V30 1842 H 179.566 -2.91001 -2.97138 0
M  V30 1843 H 178.143 -1.16935 -3.54091 0
M  V30 1844 N 180.328 1.1314 -1.09713 0
M  V30 1845 C 181.258 2.20748 -0.761102 0
M  V30 1846 C 182.239 1.68061 0.262566 0
M  V30 1847 O 183.424 1.93765 0.129977 0
M  V30 1848 C 180.554 3.46812 -0.184054 0
M  V30 1849 C 179.508 4.12606 -1.13757 0
M  V30 1850 C 178.834 5.33031 -0.422083 0
M  V30 1851 C 180.134 4.59603 -2.48118 0
M  V30 1852 H 181.828 2.49113 -1.66082 0
M  V30 1853 H 179.374 1.19734 -0.799987 0
M  V30 1854 H 181.327 4.21353 0.0631215 0
M  V30 1855 H 180.051 3.17851 0.750868 0
M  V30 1856 H 178.71 3.40036 -1.37007 0
M  V30 1857 H 178.358 5.00335 0.517072 0
M  V30 1858 H 178.058 5.77999 -1.05788 0
M  V30 1859 H 179.582 6.10325 -0.183277 0
M  V30 1860 H 180.996 5.25552 -2.29059 0
M  V30 1861 H 179.393 5.15321 -3.07514 0
M  V30 1862 H 180.463 3.73971 -3.08665 0
M  V30 1863 N 181.806 0.884767 1.30421 0
M  V30 1864 C 183.083 0.423185 1.90967 0
M  V30 1865 C 183.463 -1.09605 1.80416 0
M  V30 1866 O 182.811 -1.93126 1.22125 0
M  V30 1867 C 183.021 0.921056 3.36627 0
M  V30 1868 C 184.369 0.955903 4.137 0
M  V30 1869 O 185.393 0.867706 3.4547 0
M  V30 1870 O 184.252 1.08614 5.35598 0
M  V30 1871 H 181.346 0.129369 0.816819 0
M  V30 1872 H 183.892 0.973653 1.3899 0
M  V30 1873 H 182.664 1.96489 3.3839 0
M  V30 1874 H 182.287 0.349741 3.96059 0
M  V30 1875 N 183.284 -1.43765 0.645699 0
M  V30 1876 C 184.247 -2.29163 -0.0409488 0
M  V30 1877 C 185.247 -1.41813 -0.757996 0
M  V30 1878 O 186.437 -1.63527 -0.600382 0
M  V30 1879 C 183.569 -3.23716 -1.06869 0
M  V30 1880 H 184.762 -2.91366 0.710345 0
M  V30 1881 H 182.315 -1.5092 0.406547 0
M  V30 1882 H 183.05 -2.66393 -1.84947 0
M  V30 1883 H 182.835 -3.88105 -0.558277 0
M  V30 1884 H 184.325 -3.87831 -1.54845 0
M  V30 1885 N 184.763 -0.387143 -1.52771 0
M  V30 1886 C 186.012 0.19697 -2.00736 0
M  V30 1887 C 186.325 1.48082 -1.27793 0
M  V30 1888 O 187.531 2.14485 -1.66458 0
M  V30 1889 C 185.987 0.401568 -3.57653 0
M  V30 1890 C 185.595 -0.868907 -4.39493 0
M  V30 1891 C 187.339 0.942164 -4.13912 0
M  V30 1892 C 185.246 -0.632705 -5.88006 0
M  V30 1893 H 184.176 0.0773827 -0.750019 0
M  V30 1894 H 186.827 -0.50921 -1.76293 0
M  V30 1895 H 185.209 1.16954 -3.78335 0
M  V30 1896 H 186.383 -1.64133 -4.30577 0
M  V30 1897 H 184.698 -1.33429 -3.94443 0
M  V30 1898 H 187.295 1.13455 -5.22525 0
M  V30 1899 H 187.638 1.9106 -3.69867 0
M  V30 1900 H 188.171 0.233814 -3.97112 0
M  V30 1901 H 184.91 -1.57208 -6.36369 0
M  V30 1902 H 184.43 0.100825 -5.99715 0
M  V30 1903 H 186.109 -0.26642 -6.46451 0
M  V30 1904 N 186.241 1.57166 -0.116904 0
M  V30 1905 C 187.49 1.94298 0.541407 0
M  V30 1906 C 187.803 1.00236 1.67964 0
M  V30 1907 O 189.009 1.26826 2.40057 0
M  V30 1908 C 187.465 3.45306 1.01449 0
M  V30 1909 C 187.073 4.47899 -0.0951738 0
M  V30 1910 C 188.817 3.91361 1.6443 0
M  V30 1911 C 186.724 5.90083 0.394491 0
M  V30 1912 H 185.654 0.725308 0.206019 0
M  V30 1913 H 188.305 1.82446 -0.196419 0
M  V30 1914 H 186.687 3.52385 1.80667 0
M  V30 1915 H 187.861 4.52486 -0.871374 0
M  V30 1916 H 186.176 4.11583 -0.631505 0
M  V30 1917 H 188.773 4.95004 2.02176 0
M  V30 1918 H 189.116 3.3122 2.52189 0
M  V30 1919 H 189.649 3.87073 0.917559 0
M  V30 1920 H 186.388 6.53974 -0.447004 0
M  V30 1921 H 185.908 5.88921 1.13722 0
M  V30 1922 H 187.587 6.41307 0.856399 0
M  V30 1923 N 187.719 -0.156864 1.56817 0
M  V30 1924 C 188.629 -1.2136 2.00771 0
M  V30 1925 C 189.645 -1.47598 0.921459 0
M  V30 1926 O 190.821 -1.59462 1.2302 0
M  V30 1927 C 187.886 -2.52943 2.37109 0
M  V30 1928 C 186.947 -2.34439 3.59634 0
M  V30 1929 C 186.18 -3.59748 3.94229 0
M  V30 1930 O 186.403 -4.65526 3.29609 0
M  V30 1931 O 185.337 -3.52998 4.8752 0
M  V30 1932 H 189.163 -0.870468 2.90958 0
M  V30 1933 H 186.748 -0.36484 1.44877 0
M  V30 1934 H 188.63 -3.30538 2.61386 0
M  V30 1935 H 187.305 -2.86806 1.5008 0
M  V30 1936 H 186.212 -1.54828 3.40557 0
M  V30 1937 H 187.545 -2.05496 4.4725 0
M  V30 1938 N 189.197 -1.51736 -0.425897 0
M  V30 1939 C 190.444 -1.6497 -1.17436 0
M  V30 1940 C 190.772 -0.371445 -1.9092 0
M  V30 1941 O 190.027 0.644963 -1.84767 0
M  V30 1942 C 190.326 -2.81103 -2.20717 0
M  V30 1943 C 189.992 -4.19954 -1.64162 0
M  V30 1944 C 188.654 -4.57725 -1.48462 0
M  V30 1945 C 191.006 -5.06552 -1.22696 0
M  V30 1946 C 188.334 -5.79789 -0.897873 0
M  V30 1947 C 190.686 -6.29205 -0.654464 0
M  V30 1948 C 189.35 -6.6574 -0.484456 0
M  V30 1949 H 188.62 -0.603668 -0.429727 0
M  V30 1950 H 191.267 -1.85798 -0.463829 0
M  V30 1951 H 189.572 -2.54542 -2.97852 0
M  V30 1952 H 191.269 -2.8854 -2.78471 0
M  V30 1953 H 187.859 -3.90181 -1.77361 0
M  V30 1954 H 192.043 -4.77968 -1.33642 0
M  V30 1955 H 187.299 -6.06733 -0.75402 0
M  V30 1956 H 191.473 -6.95643 -0.324694 0
M  V30 1957 H 189.1 -7.60195 -0.0276833 0
M  V30 1958 N 190.675 0.682077 -1.42076 0
M  V30 1959 C 191.605 1.80796 -1.47767 0
M  V30 1960 C 192.586 1.6677 -0.334954 0
M  V30 1961 O 193.771 1.863 -0.548264 0
M  V30 1962 C 190.901 3.19038 -1.37229 0
M  V30 1963 C 189.855 3.47789 -2.49453 0
M  V30 1964 C 189.181 4.8553 -2.23975 0
M  V30 1965 C 190.481 3.45411 -3.91776 0
M  V30 1966 H 192.175 1.7629 -2.41997 0
M  V30 1967 H 189.721 0.846721 -1.16476 0
M  V30 1968 H 191.674 3.97528 -1.39821 0
M  V30 1969 H 190.398 3.24204 -0.394907 0
M  V30 1970 H 189.057 2.71657 -2.46166 0
M  V30 1971 H 188.705 4.87337 -1.24547 0
M  V30 1972 H 188.405 5.0573 -2.99184 0
M  V30 1973 H 189.929 5.66312 -2.28304 0
M  V30 1974 H 191.343 4.13882 -3.96705 0
M  V30 1975 H 189.74 3.77145 -4.66778 0
M  V30 1976 H 190.81 2.44122 -4.18966 0
M  V30 1977 N 192.153 1.28127 0.917671 0
M  V30 1978 C 193.101 1.11569 2.04096 0
M  V30 1979 C 194.095 0.0360242 1.69362 0
M  V30 1980 O 195.301 0.194501 1.78946 0
M  V30 1981 H 191.676 0.344097 0.668656 0
M  V30 1982 H 193.647 2.06711 2.15205 0
M  V30 1983 C 192.396 0.790197 3.38602 0
M  V30 1984 H 191.719 1.61293 3.6582 0
M  V30 1985 H 193.159 0.714271 4.1794 0
M  V30 1986 C 191.618 -0.505897 3.3308 0
M  V30 1987 O 192.148 -1.53736 3.71117 0
M  V30 1988 N 190.354 -0.505193 2.86175 0
M  V30 1989 H 189.901 0.334621 2.55417 0
M  V30 1990 H 189.859 -1.37243 2.82863 0
M  V30 1991 N 193.631 -1.12557 1.10312 0
M  V30 1992 C 194.861 -1.87592 0.865617 0
M  V30 1993 C 195.269 -1.79851 -0.587389 0
M  V30 1994 O 194.612 -1.16949 -1.41664 0
M  V30 1995 C 194.674 -3.37665 1.23381 0
M  V30 1996 C 194.338 -3.69181 2.69359 0
M  V30 1997 C 195.335 -3.67652 3.67597 0
M  V30 1998 C 193.02 -3.98555 3.05711 0
M  V30 1999 C 195.014 -3.95053 5.00212 0
M  V30 2000 C 192.701 -4.25616 4.38514 0
M  V30 2001 C 193.699 -4.23851 5.35574 0
M  V30 2002 O 193.387 -4.50242 6.65986 0
M  V30 2003 H 193.119 -0.600442 0.310557 0
M  V30 2004 H 195.673 -1.4335 1.47105 0
M  V30 2005 H 193.903 -3.82454 0.571467 0
M  V30 2006 H 195.592 -3.94041 0.973994 0
M  V30 2007 H 196.358 -3.45024 3.40857 0
M  V30 2008 H 192.237 -3.99071 2.30789 0
M  V30 2009 H 195.781 -3.93591 5.75962 0
M  V30 2010 H 191.678 -4.47718 4.64994 0
M  V30 2011 H 192.446 -4.67867 6.71597 0
M  V30 2012 N 195.109 -0.891671 -1.2995 0
M  V30 2013 C 196.059 -0.334811 -2.25528 0
M  V30 2014 C 197.043 0.540553 -1.51548 0
M  V30 2015 O 198.235 0.383882 -1.72787 0
M  V30 2016 C 195.364 0.44374 -3.4042 0
M  V30 2017 C 194.45 -0.44609 -4.21747 0
M  V30 2018 N 194.841 -1.54963 -4.81477 0
M  V30 2019 C 193.139 -0.242415 -4.45341 0
M  V30 2020 C 193.84 -2.10015 -5.42465 0
M  V30 2021 N 192.816 -1.39423 -5.25416 0
M  V30 2022 H 196.618 -1.17792 -2.69262 0
M  V30 2023 H 194.132 -0.741822 -1.44467 0
M  V30 2024 H 196.129 0.859362 -4.07947 0
M  V30 2025 H 194.789 1.28421 -2.98225 0
M  V30 2026 H 195.8 -1.93244 -4.80497 0
M  V30 2027 H 192.477 0.560342 -4.13723 0
M  V30 2028 H 193.867 -3.02724 -5.9984 0
M  V30 2029 N 196.587 1.43421 -0.653314 0
M  V30 2030 C 197.535 2.32546 0.0501531 0
M  V30 2031 C 198.529 1.48617 0.812985 0
M  V30 2032 O 199.735 1.64825 0.723375 0
M  V30 2033 H 196.11 0.751185 0.0350032 0
M  V30 2034 H 198.081 2.89602 -0.719261 0
M  V30 2035 C 196.83 3.32925 1.00279 0
M  V30 2036 H 196.153 3.97532 0.425236 0
M  V30 2037 H 197.593 3.9792 1.46409 0
M  V30 2038 C 196.052 2.63532 2.09886 0
M  V30 2039 O 196.582 2.45092 3.18265 0
M  V30 2040 N 194.788 2.22905 1.86445 0
M  V30 2041 H 194.335 2.38103 0.98309 0
M  V30 2042 H 194.293 1.76805 2.59976 0
M  V30 2043 N 198.065 0.39524 1.52563 0
M  V30 2044 C 198.975 -0.444232 2.30356 0
M  V30 2045 C 199.991 -1.06615 1.37511 0
M  V30 2046 O 201.167 -1.07067 1.70583 0
M  V30 2047 C 198.232 -1.55315 3.09964 0
M  V30 2048 C 197.293 -0.955734 4.18526 0
M  V30 2049 C 196.526 -2.01181 4.9433 0
M  V30 2050 O 196.749 -3.22781 4.70285 0
M  V30 2051 O 195.683 -1.62579 5.79527 0
M  V30 2052 H 199.509 0.189667 3.03107 0
M  V30 2053 H 197.094 0.1588 1.48554 0
M  V30 2054 H 198.976 -2.19724 3.59582 0
M  V30 2055 H 197.651 -2.17191 2.4002 0
M  V30 2056 H 196.558 -0.274743 3.7309 0
M  V30 2057 H 197.891 -0.381109 4.90722 0
M  V30 2058 N 199.544 -1.57102 0.125237 0
M  V30 2059 C 200.79 -1.95697 -0.532035 0
M  V30 2060 C 201.123 -1.009 -1.6593 0
M  V30 2061 O 200.398 -0.047347 -1.94442 0
M  V30 2062 C 200.681 -3.44181 -1.05884 0
M  V30 2063 C 200.534 -4.49752 0.0654392 0
M  V30 2064 C 201.853 -3.94655 -1.9477 0
M  V30 2065 H 198.972 -0.711571 -0.191925 0
M  V30 2066 H 201.614 -1.88923 0.20206 0
M  V30 2067 H 199.764 -3.50085 -1.68442 0
M  V30 2068 H 201.436 -4.55943 0.700982 0
M  V30 2069 H 199.679 -4.27653 0.727709 0
M  V30 2070 H 200.35 -5.50924 -0.344505 0
M  V30 2071 H 202.826 -3.91094 -1.42074 0
M  V30 2072 H 201.702 -4.99057 -2.28546 0
M  V30 2073 H 201.963 -3.35718 -2.87656 0
M  V30 2074 N 201.022 0.148545 -1.56898 0
M  V30 2075 C 202.299 0.890019 -1.74178 0
M  V30 2076 C 202.679 1.99407 -0.692839 0
M  V30 2077 O 202.027 2.26671 0.288505 0
M  V30 2078 C 202.237 1.43389 -3.18183 0
M  V30 2079 C 203.585 1.89791 -3.79822 0
M  V30 2080 O 204.609 1.53134 -3.21603 0
M  V30 2081 O 203.468 2.57387 -4.82093 0
M  V30 2082 H 200.562 0.420496 -0.712118 0
M  V30 2083 H 203.108 0.134591 -1.69165 0
M  V30 2084 H 201.88 0.640383 -3.86024 0
M  V30 2085 H 201.503 2.25287 -3.27615 0
M  V30 2086 N 202.5 1.5196 0.417844 0
M  V30 2087 C 203.749 1.6482 1.16264 0
M  V30 2088 C 204.062 0.379886 1.91876 0
M  V30 2089 O 205.268 0.388154 2.68711 0
M  V30 2090 C 203.724 2.91161 2.1155 0
M  V30 2091 C 203.332 4.25068 1.41495 0
M  V30 2092 C 205.076 3.13383 2.86341 0
M  V30 2093 C 202.983 5.42541 2.35379 0
M  V30 2094 H 201.913 0.613954 0.437694 0
M  V30 2095 H 204.564 1.78442 0.427871 0
M  V30 2096 H 202.946 2.71218 2.88543 0
M  V30 2097 H 204.12 4.55463 0.699263 0
M  V30 2098 H 202.435 4.0888 0.787792 0
M  V30 2099 H 205.032 3.98324 3.5671 0
M  V30 2100 H 205.375 2.27256 3.48798 0
M  V30 2101 H 205.908 3.33757 2.1645 0
M  V30 2102 H 202.647 6.30987 1.77582 0
M  V30 2103 H 202.167 5.16497 3.04945 0
M  V30 2104 H 203.846 5.75272 2.96093 0
M  V30 2105 N 203.978 -0.674533 1.42435 0
M  V30 2106 C 205.224 -1.43671 1.43131 0
M  V30 2107 C 205.557 -1.94142 0.0476021 0
M  V30 2108 O 204.832 -1.70924 -0.928188 0
M  V30 2109 C 205.115 -2.63355 2.45594 0
M  V30 2110 C 204.968 -2.18514 3.93156 0
M  V30 2111 C 206.287 -3.65571 2.45043 0
M  V30 2112 H 203.406 -0.521077 0.521198 0
M  V30 2113 H 206.048 -0.766551 1.7385 0
M  V30 2114 H 204.198 -3.2053 2.19528 0
M  V30 2115 H 205.87 -1.66504 4.30202 0
M  V30 2116 H 204.113 -1.50086 4.07009 0
M  V30 2117 H 204.784 -3.04484 4.60428 0
M  V30 2118 H 207.26 -3.18113 2.68223 0
M  V30 2119 H 206.136 -4.46893 3.18713 0
M  V30 2120 H 206.397 -4.16716 1.47649 0
M  V30 2121 N 205.456 -1.28612 -0.910864 0
M  V30 2122 C 206.704 -1.15705 -1.65701 0
M  V30 2123 C 207.025 0.29416 -1.92769 0
M  V30 2124 O 206.295 1.20331 -1.54588 0
M  V30 2125 H 204.875 -0.425216 -0.614167 0
M  V30 2126 H 207.537 -1.61381 -1.0928 0
M  V30 2127 H 206.633 -1.6988 -2.61815 0
M  V30 2128 N 206.934 1.1197 -1.10907 0
M  V30 2129 C 207.882 2.19927 -0.757303 0
M  V30 2130 C 208.876 1.67564 0.248747 0
M  V30 2131 O 210.082 1.79672 0.108605 0
M  V30 2132 H 206.457 0.716925 -0.226987 0
M  V30 2133 H 208.428 2.46847 -1.67658 0
M  V30 2134 C 207.177 3.47061 -0.210671 0
M  V30 2135 H 206.5 3.87703 -0.976049 0
M  V30 2136 H 207.94 4.24 -0.0026584 0
M  V30 2137 C 206.399 3.19864 1.05777 0
M  V30 2138 O 206.929 3.40049 2.13845 0
M  V30 2139 N 205.135 2.73636 0.978349 0
M  V30 2140 H 204.682 2.5741 0.0988246 0
M  V30 2141 H 204.64 2.55815 1.82773 0
M  V30 2142 N 208.412 0.89855 1.29475 0
M  V30 2143 C 209.661 0.519863 1.94885 0
M  V30 2144 C 209.974 -0.9383 1.71625 0
M  V30 2145 O 211.18 -1.42445 2.31131 0
M  V30 2146 C 209.636 0.878836 3.49005 0
M  V30 2147 C 209.244 2.35569 3.81066 0
M  V30 2148 C 210.988 0.570004 4.20656 0
M  V30 2149 C 208.895 2.65558 5.28425 0
M  V30 2150 H 207.825 0.190692 0.729488 0
M  V30 2151 H 210.476 1.09539 1.47219 0
M  V30 2152 H 208.858 0.232253 3.95318 0
M  V30 2153 H 210.032 3.04773 3.45616 0
M  V30 2154 H 208.347 2.63343 3.22552 0
M  V30 2155 H 210.944 0.770925 5.29113 0
M  V30 2156 H 211.287 -0.491404 4.1339 0
M  V30 2157 H 211.82 1.17438 3.8007 0
M  V30 2158 H 208.559 3.70493 5.40754 0
M  V30 2159 H 208.079 2.00977 5.65127 0
M  V30 2160 H 209.758 2.51765 5.96006 0
M  V30 2161 N 209.89 -1.43072 0.660911 0
M  V30 2162 C 210.822 -2.29108 -0.0647641 0
M  V30 2163 C 211.835 -1.42928 -0.779448 0
M  V30 2164 O 213.024 -1.66788 -0.635921 0
M  V30 2165 C 210.124 -3.20032 -1.11503 0
M  V30 2166 C 209.297 -4.34792 -0.476955 0
M  V30 2167 C 208.356 -5.06534 -1.42513 0
M  V30 2168 O 207.382 -5.61538 -0.930771 0
M  V30 2169 N 208.584 -5.1075 -2.75889 0
M  V30 2170 H 211.349 -2.92029 0.673731 0
M  V30 2171 H 208.91 -1.53846 0.50427 0
M  V30 2172 H 210.902 -3.64892 -1.75032 0
M  V30 2173 H 209.472 -2.58658 -1.75541 0
M  V30 2174 H 208.692 -3.92752 0.337572 0
M  V30 2175 H 209.98 -5.0879 -0.0318525 0
M  V30 2176 H 209.378 -4.67447 -3.18606 0
M  V30 2177 H 207.935 -5.59302 -3.347 0
M  V30 2178 N 211.368 -0.403325 -1.52352 0
M  V30 2179 C 212.331 0.413051 -2.25447 0
M  V30 2180 C 213.331 0.978513 -1.276 0
M  V30 2181 O 214.521 0.858305 -1.51587 0
M  V30 2182 C 211.653 1.58087 -3.02029 0
M  V30 2183 H 212.846 -0.227094 -2.99039 0
M  V30 2184 H 210.399 -0.155722 -1.55522 0
M  V30 2185 H 211.134 2.25804 -2.32772 0
M  V30 2186 H 210.919 1.18195 -3.73861 0
M  V30 2187 H 212.409 2.1585 -3.57489 0
M  V30 2188 N 212.846 1.57033 -0.133567 0
M  V30 2189 C 214.074 2.00044 0.528195 0
M  V30 2190 C 214.489 1.01349 1.59291 0
M  V30 2191 O 213.846 0.00848369 1.82498 0
M  V30 2192 C 213.897 3.43018 1.1411 0
M  V30 2193 O 213.618 4.37939 0.11892 0
M  V30 2194 C 215.119 4.01237 1.88477 0
M  V30 2195 H 212.339 0.656517 0.138661 0
M  V30 2196 H 214.883 2.03267 -0.224196 0
M  V30 2197 H 213.038 3.40688 1.84418 0
M  V30 2198 H 213.452 5.21436 0.56613 0
M  V30 2199 H 214.926 5.03314 2.26669 0
M  V30 2200 H 215.403 3.41193 2.76558 0
M  V30 2201 H 216.009 4.07156 1.22898 0
M  V30 2202 N 214.325 -0.140222 1.56975 0
M  V30 2203 C 215.55 -0.870414 1.88251 0
M  V30 2204 C 215.975 -1.73637 0.723312 0
M  V30 2205 O 215.333 -1.78329 -0.32689 0
M  V30 2206 C 215.381 -1.69737 3.18154 0
M  V30 2207 O 214.485 -2.80229 3.02565 0
M  V30 2208 H 213.826 -0.242025 0.61832 0
M  V30 2209 H 216.356 -0.128999 2.04193 0
M  V30 2210 H 216.366 -2.09099 3.50345 0
M  V30 2211 H 215.041 -1.06152 4.02125 0
M  V30 2212 H 213.618 -2.44224 2.81796 0
M  V30 2213 N 215.803 -1.52179 -0.40978 0
M  V30 2214 C 217.214 -1.58377 -0.988615 0
M  V30 2215 C 217.565 -0.423879 -1.91566 0
M  V30 2216 O 216.69 0.455844 -2.11544 0
M  V30 2217 C 217.285 -2.87044 -1.79976 0
M  V30 2218 C 215.844 -2.95722 -2.32863 0
M  V30 2219 C 214.991 -2.53309 -1.12828 0
M  V30 2220 H 217.942 -1.57558 -0.190039 0
M  V30 2221 H 217.963 -2.7236 -2.65707 0
M  V30 2222 H 217.475 -3.71444 -1.12478 0
M  V30 2223 H 215.576 -2.15814 -3.03735 0
M  V30 2224 H 215.689 -3.99951 -2.63773 0
M  V30 2225 H 214.053 -2.07142 -1.48204 0
M  V30 2226 H 214.836 -3.40082 -0.46897 0
M  V30 2227 N 217.281 0.66697 -1.42791 0
M  V30 2228 C 218.521 1.43892 -1.4517 0
M  V30 2229 C 218.885 1.91877 -0.0687551 0
M  V30 2230 O 220.086 2.6878 0.0327455 0
M  V30 2231 C 218.357 2.59839 -2.45395 0
M  V30 2232 S 219.916 3.48572 -2.66539 0
M  V30 2233 H 216.734 0.491356 -0.513897 0
M  V30 2234 H 219.336 0.775656 -1.79454 0
M  V30 2235 H 218.04 2.22838 -3.44632 0
M  V30 2236 H 217.571 3.3103 -2.12562 0
M  V30 2237 H 219.586 4.56094 -1.95429 0
M  V30 2238 N 218.759 1.29093 0.90403 0
M  V30 2239 C 219.689 1.16401 2.02418 0
M  V30 2240 C 220.67 0.0593085 1.69997 0
M  V30 2241 O 221.855 0.238021 1.92736 0
M  V30 2242 C 218.985 0.835233 3.37107 0
M  V30 2243 C 217.939 1.89578 3.83724 0
M  V30 2244 C 217.265 1.42041 5.15489 0
M  V30 2245 C 218.565 3.30394 4.04521 0
M  V30 2246 H 220.259 2.10109 2.13295 0
M  V30 2247 H 217.805 1.01157 1.02486 0
M  V30 2248 H 219.758 0.733169 4.14973 0
M  V30 2249 H 218.482 -0.137543 3.2631 0
M  V30 2250 H 217.141 1.98715 3.08071 0
M  V30 2251 H 216.789 0.436426 5.01103 0
M  V30 2252 H 216.489 2.12964 5.4765 0
M  V30 2253 H 218.013 1.33176 5.959 0
M  V30 2254 H 219.427 3.24123 4.72882 0
M  V30 2255 H 217.824 3.99237 4.48029 0
M  V30 2256 H 218.894 3.73692 3.09002 0
M  V30 2257 N 220.237 -1.11381 1.11499 0
M  V30 2258 C 221.187 -2.15555 0.74298 0
M  V30 2259 C 222.171 -1.58894 -0.253276 0
M  V30 2260 O 223.363 -1.76897 -0.0602918 0
M  V30 2261 C 220.492 -3.42782 0.188481 0
M  V30 2262 C 219.578 -4.064 1.21244 0
M  V30 2263 N 219.969 -4.44864 2.40685 0
M  V30 2264 C 218.267 -4.3333 1.05552 0
M  V30 2265 C 218.968 -4.94715 3.05994 0
M  V30 2266 N 217.944 -4.90909 2.33472 0
M  V30 2267 H 221.746 -2.43074 1.65203 0
M  V30 2268 H 219.26 -1.28401 0.994329 0
M  V30 2269 H 221.257 -4.16789 -0.0961693 0
M  V30 2270 H 219.917 -3.16727 -0.715149 0
M  V30 2271 H 220.928 -4.36876 2.78136 0
M  V30 2272 H 217.605 -4.1698 0.208372 0
M  V30 2273 H 218.995 -5.34103 4.07656 0
M  V30 2274 N 221.715 -0.905404 -1.28997 0
M  V30 2275 C 223.126 -0.581953 -1.77398 0
M  V30 2276 C 223.477 0.902552 -1.74208 0
M  V30 2277 O 222.602 1.70584 -1.33154 0
M  V30 2278 C 223.197 -1.04961 -3.22131 0
M  V30 2279 C 221.756 -0.777229 -3.68288 0
M  V30 2280 C 220.903 -1.22109 -2.48967 0
M  V30 2281 H 223.854 -1.08754 -1.15578 0
M  V30 2282 H 223.875 -0.387387 -3.78523 0
M  V30 2283 H 223.387 -2.13008 -3.24421 0
M  V30 2284 H 221.488 0.290383 -3.71467 0
M  V30 2285 H 221.601 -1.37911 -4.58822 0
M  V30 2286 H 219.965 -0.639971 -2.46529 0
M  V30 2287 H 220.748 -2.30972 -2.53982 0
M  V30 2288 N 223.193 1.4272 -0.668489 0
M  V30 2289 C 224.421 2.05966 -0.196348 0
M  V30 2290 C 224.836 1.50191 1.14403 0
M  V30 2291 O 224.193 0.639208 1.7094 0
M  V30 2292 C 224.244 3.61314 -0.115815 0
M  V30 2293 O 223.965 4.1502 -1.40322 0
M  V30 2294 C 225.466 4.41663 0.380579 0
M  V30 2295 H 222.686 0.663954 -0.0969829 0
M  V30 2296 H 225.23 1.82966 -0.913446 0
M  V30 2297 H 223.385 3.83448 0.551931 0
M  V30 2298 H 223.799 5.08832 -1.27243 0
M  V30 2299 H 225.273 5.5065 0.385848 0
M  V30 2300 H 225.75 4.15792 1.41471 0
M  V30 2301 H 226.356 4.24534 -0.255209 0
M  V30 2302 N 224.671 0.411399 1.52136 0
M  V30 2303 C 225.948 -0.222308 1.94333 0
M  V30 2304 C 226.328 -1.6242 1.34844 0
M  V30 2305 O 225.676 -2.22384 0.525145 0
M  V30 2306 C 225.886 -0.226345 3.48265 0
M  V30 2307 C 227.234 -0.444592 4.22266 0
M  V30 2308 O 228.258 -0.305602 3.54887 0
M  V30 2309 O 227.117 -0.718749 5.41753 0
M  V30 2310 H 224.211 -0.143907 0.814383 0
M  V30 2311 H 226.757 0.467506 1.63133 0
M  V30 2312 H 225.529 0.75475 3.83952 0
M  V30 2313 H 225.152 -0.960163 3.85832 0
M  V30 2314 N 226.149 -1.5696 0.141893 0
M  V30 2315 C 227.079 -2.19516 -0.795936 0
M  V30 2316 C 228.06 -1.14187 -1.26077 0
M  V30 2317 O 229.245 -1.42511 -1.31925 0
M  V30 2318 C 226.375 -2.81272 -2.03723 0
M  V30 2319 C 225.329 -3.92384 -1.70936 0
M  V30 2320 C 224.655 -4.41052 -3.02287 0
M  V30 2321 C 225.955 -5.13403 -0.959954 0
M  V30 2322 H 227.649 -2.98138 -0.274596 0
M  V30 2323 H 225.195 -1.43406 -0.130636 0
M  V30 2324 H 227.148 -3.237 -2.69808 0
M  V30 2325 H 225.872 -1.99973 -2.58221 0
M  V30 2326 H 224.531 -3.50566 -1.07232 0
M  V30 2327 H 224.179 -3.56582 -3.54765 0
M  V30 2328 H 223.879 -5.15993 -2.81114 0
M  V30 2329 H 225.403 -4.86146 -3.69451 0
M  V30 2330 H 226.817 -5.52706 -1.52279 0
M  V30 2331 H 225.214 -5.94073 -0.848357 0
M  V30 2332 H 226.284 -4.84875 0.0492434 0
M  V30 2333 N 227.627 0.131896 -1.57047 0
M  V30 2334 C 228.559 1.1878 -1.9602 0
M  V30 2335 C 229.572 1.38363 -0.857875 0
M  V30 2336 O 230.761 1.37666 -1.13623 0
M  V30 2337 C 227.861 2.55008 -2.23213 0
M  V30 2338 C 227.034 2.56201 -3.54513 0
M  V30 2339 C 226.093 3.7408 -3.70069 0
M  V30 2340 O 225.119 3.58258 -4.42312 0
M  V30 2341 N 226.321 4.92137 -3.07866 0
M  V30 2342 H 229.086 0.85639 -2.87204 0
M  V30 2343 H 226.647 0.321309 -1.5868 0
M  V30 2344 H 228.639 3.32404 -2.30846 0
M  V30 2345 H 227.209 2.80382 -1.3822 0
M  V30 2346 H 226.429 1.64613 -3.58185 0
M  V30 2347 H 227.717 2.54043 -4.4084 0
M  V30 2348 H 227.115 5.07895 -2.49116 0
M  V30 2349 H 225.672 5.67254 -3.21039 0
M  V30 2350 N 229.106 1.52395 0.401703 0
M  V30 2351 C 230.053 1.76268 1.48991 0
M  V30 2352 C 231.023 0.605386 1.54675 0
M  V30 2353 O 232.208 0.843742 1.7113 0
M  V30 2354 C 229.348 1.92592 2.86361 0
M  V30 2355 C 228.461 3.20259 2.89928 0
M  V30 2356 C 227.596 3.26972 4.18644 0
M  V30 2357 C 226.635 4.48812 4.16214 0
M  V30 2358 N 225.772 4.52877 5.36514 0
M  V30 2359 H 230.612 2.6914 1.27935 0
M  V30 2360 H 228.149 1.33355 0.620871 0
M  V30 2361 H 230.107 2.0004 3.66115 0
M  V30 2362 H 228.737 1.03093 3.05895 0
M  V30 2363 H 227.789 3.21945 2.02621 0
M  V30 2364 H 229.101 4.10056 2.83999 0
M  V30 2365 H 228.255 3.33533 5.06794 0
M  V30 2366 H 226.994 2.35126 4.27278 0
M  V30 2367 H 225.999 4.4239 3.26453 0
M  V30 2368 H 227.224 5.41961 4.09213 0
M  V30 2369 H 225.17 3.63917 5.45802 0
M  V30 2370 H 225.087 5.36529 5.32609 0
M  V30 2371 H 226.355 4.63676 6.26597 0
M  V30 2372 N 230.584 -0.659388 1.43143 0
M  V30 2373 C 231.83 -1.42145 1.44647 0
M  V30 2374 C 232.163 -1.9408 0.0681907 0
M  V30 2375 O 231.438 -1.71899 -0.910007 0
M  V30 2376 C 231.721 -2.60735 2.48373 0
M  V30 2377 C 231.574 -2.14332 3.95451 0
M  V30 2378 C 232.893 -3.62951 2.48906 0
M  V30 2379 H 230.012 -0.51552 0.526696 0
M  V30 2380 H 232.654 -0.748069 1.74654 0
M  V30 2381 H 230.804 -3.18184 2.22916 0
M  V30 2382 H 232.476 -1.61932 4.31944 0
M  V30 2383 H 230.719 -1.4576 4.08578 0
M  V30 2384 H 231.39 -2.99583 4.63631 0
M  V30 2385 H 233.866 -3.1525 2.71582 0
M  V30 2386 H 232.742 -4.43487 3.23435 0
M  V30 2387 H 233.003 -4.15126 1.52061 0
M  V30 2388 N 232.062 -1.29571 -0.897171 0
M  V30 2389 C 233.025 -1.14913 -1.98312 0
M  V30 2390 C 234.025 -0.0838629 -1.60581 0
M  V30 2391 O 235.215 -0.331006 -1.71026 0
M  V30 2392 C 232.347 -0.757835 -3.3237 0
M  V30 2393 H 233.54 -2.11377 -2.12743 0
M  V30 2394 H 231.093 -1.12793 -1.08201 0
M  V30 2395 H 231.828 0.206837 -3.2364 0
M  V30 2396 H 231.613 -1.52755 -3.61121 0
M  V30 2397 H 233.103 -0.678408 -4.12053 0
M  V30 2398 N 233.54 1.10788 -1.12088 0
M  V30 2399 C 234.45 2.20599 -0.798338 0
M  V30 2400 C 235.466 1.72712 0.21135 0
M  V30 2401 O 236.642 2.01348 0.0458477 0
M  V30 2402 C 233.707 3.45771 -0.253674 0
M  V30 2403 C 232.768 4.08411 -1.32283 0
M  V30 2404 C 232.001 5.27608 -0.80406 0
M  V30 2405 O 232.224 5.69241 0.363478 0
M  V30 2406 O 231.158 5.8101 -1.57198 0
M  V30 2407 H 234.984 2.50614 -1.7154 0
M  V30 2408 H 232.569 1.19454 -0.897275 0
M  V30 2409 H 234.451 4.21376 0.0453691 0
M  V30 2410 H 233.126 3.1739 0.636005 0
M  V30 2411 H 232.033 3.34507 -1.67499 0
M  V30 2412 H 233.366 4.40986 -2.18614 0
M  V30 2413 N 235.018 0.912232 1.28515 0
M  V30 2414 C 235.951 0.343928 2.25593 0
M  V30 2415 C 236.929 -0.550994 1.5298 0
M  V30 2416 O 238.113 -0.494991 1.81885 0
M  V30 2417 C 235.24 -0.508525 3.34861 0
M  V30 2418 C 234.286 0.320808 4.25292 0
M  V30 2419 S 235.119 1.72658 5.06902 0
M  V30 2420 C 236.275 0.881394 6.19663 0
M  V30 2421 H 236.508 1.16674 2.73449 0
M  V30 2422 H 234.041 0.713384 1.36931 0
M  V30 2423 H 235.999 -0.994539 3.9827 0
M  V30 2424 H 234.66 -1.30571 2.85675 0
M  V30 2425 H 233.853 -0.330941 5.02912 0
M  V30 2426 H 233.455 0.74042 3.66598 0
M  V30 2427 H 235.747 0.110359 6.7741 0
M  V30 2428 H 236.69 1.63009 6.89082 0
M  V30 2429 H 237.098 0.430239 5.62858 0
M  V30 2430 N 236.496 -1.42363 0.676048 0
M  V30 2431 C 237.745 -2.00745 0.196037 0
M  V30 2432 C 238.058 -1.54083 -1.20489 0
M  V30 2433 O 239.264 -2.04891 -1.78134 0
M  V30 2434 C 237.72 -3.58651 0.299616 0
M  V30 2435 C 237.328 -4.143 1.70468 0
M  V30 2436 C 239.072 -4.24326 -0.121619 0
M  V30 2437 C 236.979 -5.64574 1.76096 0
M  V30 2438 H 235.909 -0.750787 0.0695301 0
M  V30 2439 H 238.56 -1.63072 0.841412 0
M  V30 2440 H 236.942 -3.93833 -0.413673 0
M  V30 2441 H 238.116 -3.90575 2.44515 0
M  V30 2442 H 236.431 -3.61081 2.07387 0
M  V30 2443 H 239.028 -5.34607 -0.0997362 0
M  V30 2444 H 239.371 -3.99897 -1.15708 0
M  V30 2445 H 239.904 -3.94108 0.540706 0
M  V30 2446 H 236.643 -5.93804 2.77628 0
M  V30 2447 H 236.163 -5.90286 1.06406 0
M  V30 2448 H 237.842 -6.29013 1.51496 0
M  V30 2449 N 237.974 -0.419461 -1.51915 0
M  V30 2450 C 239.39 -0.0708431 -1.59443 0
M  V30 2451 C 239.59 1.41796 -1.43164 0
M  V30 2452 O 238.646 2.18596 -1.26381 0
M  V30 2453 C 239.959 -0.574991 -2.95151 0
M  V30 2454 C 241.507 -0.533867 -3.08413 0
M  V30 2455 C 241.982 -1.01469 -4.46618 0
M  V30 2456 N 243.473 -0.971939 -4.52888 0
M  V30 2457 C 244.208 -1.31505 -5.58116 0
M  V30 2458 N 243.704 -1.73014 -6.70849 0
M  V30 2459 N 245.497 -1.23436 -5.48379 0
M  V30 2460 H 237.648 -1.38836 -1.60743 0
M  V30 2461 H 239.911 -0.570998 -0.756747 0
M  V30 2462 H 239.617 -1.61597 -3.12377 0
M  V30 2463 H 239.491 0.00979777 -3.77199 0
M  V30 2464 H 241.878 0.498086 -2.90866 0
M  V30 2465 H 241.959 -1.15484 -2.28248 0
M  V30 2466 H 241.603 -2.04502 -4.6491 0
M  V30 2467 H 241.533 -0.370433 -5.25295 0
M  V30 2468 H 244.024 -0.666893 -3.71969 0
M  V30 2469 H 244.337 -1.97479 -7.47143 0
M  V30 2470 H 242.682 -1.76926 -6.72103 0
M  V30 2471 H 245.873 -0.908869 -4.59192 0
M  V30 2472 H 246.046 -1.50506 -6.30279 0
M  V30 2473 N 239.452 1.56882 -0.150215 0
M  V30 2474 C 240.362 2.20494 0.801222 0
M  V30 2475 C 241.378 1.19019 1.26927 0
M  V30 2476 O 242.554 1.51607 1.32579 0
M  V30 2477 C 239.619 2.81659 2.02161 0
M  V30 2478 C 238.68 3.9827 1.60249 0
M  V30 2479 C 237.913 4.56508 2.7647 0
M  V30 2480 O 238.136 4.13627 3.92771 0
M  V30 2481 O 237.07 5.46719 2.51757 0
M  V30 2482 H 240.896 3.02315 0.289717 0
M  V30 2483 H 238.481 1.49202 0.0769684 0
M  V30 2484 H 240.363 3.20522 2.73576 0
M  V30 2485 H 239.038 2.02849 2.52258 0
M  V30 2486 H 237.945 3.64117 0.858477 0
M  V30 2487 H 239.278 4.78609 1.14864 0
M  V30 2488 N 240.93 -0.123565 1.57115 0
M  V30 2489 C 241.84 -1.17074 2.033 0
M  V30 2490 C 242.856 -1.4561 0.952559 0
M  V30 2491 O 244.032 -1.56817 1.26374 0
M  V30 2492 C 241.097 -2.47857 2.42421 0
M  V30 2493 C 240.158 -2.26758 3.64526 0
M  V30 2494 C 239.391 -3.51305 4.01771 0
M  V30 2495 O 239.614 -4.5843 3.39409 0
M  V30 2496 O 238.548 -3.42578 4.94898 0
M  V30 2497 H 242.374 -0.808555 2.92739 0
M  V30 2498 H 239.959 -0.334027 1.45618 0
M  V30 2499 H 241.841 -3.2492 2.68338 0
M  V30 2500 H 240.516 -2.83558 1.5613 0
M  V30 2501 H 239.423 -1.47569 3.43765 0
M  V30 2502 H 240.756 -1.95963 4.51508 0
M  V30 2503 N 242.408 -1.52605 -0.393616 0
M  V30 2504 C 243.656 -1.67093 -1.13685 0
M  V30 2505 C 243.977 -0.411011 -1.90619 0
M  V30 2506 O 243.247 0.574491 -1.87287 0
M  V30 2507 H 241.827 -0.615923 -0.422668 0
M  V30 2508 H 244.489 -1.89704 -0.447039 0
M  V30 2509 H 243.585 -2.51922 -1.84232 0
M  V30 2510 N 243.887 0.651787 -1.4349 0
M  V30 2511 C 245.117 1.43728 -1.48411 0
M  V30 2512 C 245.525 1.8893 -0.10103 0
M  V30 2513 O 244.868 1.60182 0.899307 0
M  V30 2514 C 244.93 2.70411 -2.36893 0
M  V30 2515 C 244.594 2.4714 -3.8441 0
M  V30 2516 C 245.591 2.10271 -4.75481 0
M  V30 2517 C 243.276 2.6142 -4.28912 0
M  V30 2518 C 245.27 1.87982 -6.0905 0
M  V30 2519 C 242.957 2.38746 -5.62533 0
M  V30 2520 C 243.955 2.02083 -6.5242 0
M  V30 2521 O 243.643 1.79647 -7.8357 0
M  V30 2522 H 243.375 0.447962 -0.506267 0
M  V30 2523 H 245.929 0.80624 -1.88915 0
M  V30 2524 H 244.159 3.36079 -1.91278 0
M  V30 2525 H 245.848 3.32364 -2.33 0
M  V30 2526 H 246.614 1.98814 -4.42378 0
M  V30 2527 H 242.493 2.88931 -3.59222 0
M  V30 2528 H 246.037 1.5929 -6.7917 0
M  V30 2529 H 241.934 2.49806 -5.95203 0
M  V30 2530 H 242.702 1.9406 -7.95162 0
M  V30 2531 N 245.365 1.30045 0.890287 0
M  V30 2532 C 246.642 1.09227 1.62262 0
M  V30 2533 C 247.022 -0.360305 2.08002 0
M  V30 2534 O 246.37 -1.35084 1.84295 0
M  V30 2535 C 246.58 2.08835 2.79623 0
M  V30 2536 C 247.928 2.40266 3.50082 0
M  V30 2537 O 248.952 2.07104 2.89804 0
M  V30 2538 O 247.811 2.96967 4.58773 0
M  V30 2539 H 244.905 0.419132 0.712922 0
M  V30 2540 H 247.451 1.41451 0.937529 0
M  V30 2541 H 246.223 3.06633 2.43089 0
M  V30 2542 H 245.846 1.77397 3.55832 0
M  V30 2543 N 246.843 -1.10192 1.12674 0
M  V30 2544 C 248.068 -1.86523 0.906853 0
M  V30 2545 C 248.493 -1.80221 -0.538711 0
M  V30 2546 O 247.851 -1.17396 -1.38158 0
M  V30 2547 C 247.899 -3.32758 1.3894 0
M  V30 2548 O 247.003 -4.08449 0.5695 0
M  V30 2549 H 246.344 -0.578678 0.325619 0
M  V30 2550 H 248.874 -1.39203 1.49946 0
M  V30 2551 H 248.884 -3.83608 1.38958 0
M  V30 2552 H 247.559 -3.36661 2.44197 0
M  V30 2553 H 246.136 -3.67427 0.636528 0
M  V30 2554 N 248.321 -0.919034 -1.28029 0
M  V30 2555 C 249.567 -0.555757 -1.95036 0
M  V30 2556 C 249.9 0.899198 -1.72128 0
M  V30 2557 O 249.175 1.64023 -1.04531 0
M  V30 2558 C 249.458 -0.872024 -3.49382 0
M  V30 2559 C 249.311 -2.3801 -3.81669 0
M  V30 2560 C 250.63 -0.37185 -4.38526 0
M  V30 2561 H 247.749 -0.203386 -0.708381 0
M  V30 2562 H 250.391 -1.14924 -1.51303 0
M  V30 2563 H 248.541 -0.366946 -3.86763 0
M  V30 2564 H 250.213 -2.9562 -3.54128 0
M  V30 2565 H 248.456 -2.83289 -3.28526 0
M  V30 2566 H 249.127 -2.55192 -4.8947 0
M  V30 2567 H 251.603 -0.804602 -4.08247 0
M  V30 2568 H 250.479 -0.622173 -5.45362 0
M  V30 2569 H 250.74 0.727934 -4.36066 0
M  V30 2570 N 249.799 1.42003 -0.683588 0
M  V30 2571 C 251.046 2.01413 -0.209514 0
M  V30 2572 C 251.374 1.54088 1.1869 0
M  V30 2573 O 250.629 0.737591 1.81268 0
M  V30 2574 C 250.928 3.56827 -0.202357 0
M  V30 2575 C 250.594 4.23617 -1.54464 0
M  V30 2576 C 249.256 4.41577 -1.91215 0
M  V30 2577 C 251.608 4.61178 -2.42826 0
M  V30 2578 C 248.936 4.9437 -3.15935 0
M  V30 2579 C 251.288 5.15355 -3.66867 0
M  V30 2580 C 249.952 5.31528 -4.03776 0
M  V30 2581 H 249.222 0.737023 -0.0766668 0
M  V30 2582 H 251.869 1.70067 -0.880312 0
M  V30 2583 H 250.174 3.87892 0.551969 0
M  V30 2584 H 251.871 4.00588 0.181793 0
M  V30 2585 H 248.461 4.10004 -1.24877 0
M  V30 2586 H 252.645 4.46968 -2.15717 0
M  V30 2587 H 247.901 5.05076 -3.44541 0
M  V30 2588 H 252.075 5.43402 -4.35531 0
M  V30 2589 H 249.702 5.72199 -5.00492 0
M  V30 2590 N 251.277 0.427512 1.51691 0
M  V30 2591 C 252.502 -0.143601 2.06902 0
M  V30 2592 C 252.927 -1.36536 1.29382 0
M  V30 2593 O 252.285 -1.78289 0.329043 0
M  V30 2594 C 252.333 -0.454207 3.57728 0
M  V30 2595 O 251.437 -1.54228 3.82475 0
M  V30 2596 H 250.778 -0.00617128 0.663971 0
M  V30 2597 H 253.308 0.606014 1.95419 0
M  V30 2598 H 253.318 -0.707525 4.01818 0
M  V30 2599 H 251.993 0.438812 4.13579 0
M  V30 2600 H 250.57 -1.2797 3.50254 0
M  V30 2601 N 252.755 -1.56801 0.158532 0
M  V30 2602 C 254.001 -1.96781 -0.490405 0
M  V30 2603 C 254.334 -1.04397 -1.63753 0
M  V30 2604 O 253.609 -0.0885805 -1.94298 0
M  V30 2605 C 253.892 -3.4635 -0.985594 0
M  V30 2606 C 253.745 -4.49512 0.160824 0
M  V30 2607 C 255.064 -3.98697 -1.86355 0
M  V30 2608 H 252.183 -0.715482 -0.176788 0
M  V30 2609 H 254.825 -1.88451 0.242088 0
M  V30 2610 H 252.975 -3.53579 -1.60978 0
M  V30 2611 H 254.647 -4.54353 0.797537 0
M  V30 2612 H 252.89 -4.26013 0.818256 0
M  V30 2613 H 253.561 -5.51531 -0.227569 0
M  V30 2614 H 256.037 -3.94019 -1.33746 0
M  V30 2615 H 254.913 -5.03792 -2.17909 0
M  V30 2616 H 255.174 -3.41744 -2.8047 0
M  V30 2617 N 254.233 0.115231 -1.57178 0
M  V30 2618 C 255.479 0.82357 -1.85325 0
M  V30 2619 C 255.812 1.79349 -0.744814 0
M  V30 2620 O 255.087 1.92899 0.249024 0
M  V30 2621 C 255.37 1.57014 -3.24066 0
M  V30 2622 C 255.223 0.619565 -4.45513 0
M  V30 2623 C 256.542 2.52545 -3.60429 0
M  V30 2624 H 253.661 0.297948 -0.674089 0
M  V30 2625 H 256.303 0.0877138 -1.89797 0
M  V30 2626 H 254.453 2.19742 -3.20383 0
M  V30 2627 H 256.125 0.000837639 -4.613 0
M  V30 2628 H 254.368 -0.0686174 -4.33746 0
M  V30 2629 H 255.039 1.17866 -5.3927 0
M  V30 2630 H 257.515 1.9992 -3.64926 0
M  V30 2631 H 256.391 3.01811 -4.58477 0
M  V30 2632 H 256.652 3.35383 -2.88047 0
M  V30 2633 N 255.711 1.52812 0.385517 0
M  V30 2634 C 257.127 1.4214 0.725829 0
M  V30 2635 C 257.327 0.544589 1.94001 0
M  V30 2636 O 256.383 0.0193693 2.52493 0
M  V30 2637 C 257.696 2.85042 0.957668 0
M  V30 2638 C 259.244 2.94543 1.05892 0
M  V30 2639 C 259.719 4.38464 1.32337 0
M  V30 2640 N 261.21 4.41804 1.39151 0
M  V30 2641 C 261.945 5.5025 1.61285 0
M  V30 2642 N 261.441 6.68775 1.80866 0
M  V30 2643 N 263.234 5.37798 1.63492 0
M  V30 2644 H 255.385 2.08338 -0.413383 0
M  V30 2645 H 257.648 0.940016 -0.122775 0
M  V30 2646 H 257.354 3.51431 0.137568 0
M  V30 2647 H 257.228 3.27505 1.87137 0
M  V30 2648 H 259.615 2.28321 1.86959 0
M  V30 2649 H 259.696 2.55504 0.123057 0
M  V30 2650 H 259.34 5.05254 0.517793 0
M  V30 2651 H 259.27 4.75059 2.27214 0
M  V30 2652 H 261.761 3.56377 1.25713 0
M  V30 2653 H 262.074 7.47197 1.97271 0
M  V30 2654 H 260.419 6.71797 1.78083 0
M  V30 2655 H 263.61 4.44171 1.47749 0
M  V30 2656 H 263.783 6.22382 1.80402 0
M  V30 2657 N 257.189 -0.644168 1.43834 0
M  V30 2658 C 258.605 -0.960875 1.27434 0
M  V30 2659 C 258.805 -2.00499 0.200618 0
M  V30 2660 O 257.861 -2.49018 -0.417906 0
M  V30 2661 C 259.174 -1.43653 2.64167 0
M  V30 2662 C 260.722 -1.55271 2.71772 0
M  V30 2663 C 261.197 -2.06224 4.08944 0
M  V30 2664 N 262.688 -2.13513 4.11055 0
M  V30 2665 C 263.423 -2.54081 5.14033 0
M  V30 2666 N 262.919 -2.9388 6.27381 0
M  V30 2667 N 264.712 -2.54101 5.01387 0
M  V30 2668 H 256.863 0.0465779 2.12349 0
M  V30 2669 H 259.126 -0.0417638 0.94708 0
M  V30 2670 H 258.832 -0.743706 3.43747 0
M  V30 2671 H 258.706 -2.40993 2.90176 0
M  V30 2672 H 261.093 -2.23653 1.92519 0
M  V30 2673 H 261.174 -0.563395 2.49519 0
M  V30 2674 H 260.818 -1.38441 4.88668 0
M  V30 2675 H 260.748 -3.06003 4.28567 0
M  V30 2676 H 263.239 -1.85493 3.29242 0
M  V30 2677 H 263.552 -3.2361 7.01781 0
M  V30 2678 H 261.897 -2.91663 6.30839 0
M  V30 2679 H 265.088 -2.22391 4.11898 0
M  V30 2680 H 265.261 -2.85394 5.81768 0
M  V30 2681 N 258.668 -1.30515 -0.883378 0
M  V30 2682 C 259.618 -1.13641 -1.9766 0
M  V30 2683 C 260.602 -0.0511314 -1.60819 0
M  V30 2684 O 261.794 -0.274623 -1.74857 0
M  V30 2685 C 258.923 -0.831976 -3.33066 0
M  V30 2686 C 258.009 -1.95759 -3.76217 0
M  V30 2687 N 258.4 -3.20313 -3.9145 0
M  V30 2688 C 256.698 -1.85431 -4.05625 0
M  V30 2689 C 257.399 -3.93856 -4.2808 0
M  V30 2690 N 256.375 -3.21919 -4.38029 0
M  V30 2691 H 260.177 -2.08106 -2.07531 0
M  V30 2692 H 257.691 -1.21877 -1.0733 0
M  V30 2693 H 259.688 -0.692102 -4.11115 0
M  V30 2694 H 258.348 0.104588 -3.24532 0
M  V30 2695 H 259.359 -3.55583 -3.76538 0
M  V30 2696 H 256.036 -0.991531 -4.05555 0
M  V30 2697 H 257.426 -5.01125 -4.47575 0
M  V30 2698 N 260.146 1.09593 -1.13257 0
M  V30 2699 C 261.078 2.16015 -0.766167 0
M  V30 2700 C 262.091 1.61423 0.211303 0
M  V30 2701 O 263.28 1.78498 -0.00863946 0
M  V30 2702 C 260.38 3.38706 -0.114662 0
M  V30 2703 C 259.553 4.22717 -1.12379 0
M  V30 2704 C 258.612 5.23835 -0.498301 0
M  V30 2705 O 257.638 5.573 -1.15781 0
M  V30 2706 N 258.84 5.75886 0.730417 0
M  V30 2707 H 261.605 2.48055 -1.68193 0
M  V30 2708 H 259.166 1.25292 -1.02535 0
M  V30 2709 H 261.158 4.03464 0.315991 0
M  V30 2710 H 259.728 3.04569 0.704011 0
M  V30 2711 H 258.948 3.54122 -1.73179 0
M  V30 2712 H 260.236 4.75673 -1.80589 0
M  V30 2713 H 259.634 5.50911 1.28504 0
M  V30 2714 H 258.191 6.42387 1.10376 0
M  V30 2715 N 261.624 0.925811 1.2754 0
M  V30 2716 C 262.871 0.565255 1.94451 0
M  V30 2717 C 263.199 -0.89316 1.7278 0
M  V30 2718 O 262.454 -1.65213 1.04895 0
M  V30 2719 C 262.753 0.835296 3.47502 0
M  V30 2720 C 262.419 2.27515 3.89291 0
M  V30 2721 C 261.081 2.66879 4.00411 0
M  V30 2722 C 263.433 3.21158 4.10496 0
M  V30 2723 C 260.761 3.99014 4.30122 0
M  V30 2724 C 263.113 4.52871 4.4169 0
M  V30 2725 C 261.777 4.92072 4.51023 0
M  V30 2726 H 261.047 0.206841 0.711546 0
M  V30 2727 H 263.694 1.16942 1.51647 0
M  V30 2728 H 261.999 0.148442 3.91519 0
M  V30 2729 H 263.696 0.535322 3.97411 0
M  V30 2730 H 260.286 1.95976 3.81171 0
M  V30 2731 H 264.47 2.9195 4.01346 0
M  V30 2732 H 259.726 4.2907 4.35556 0
M  V30 2733 H 263.9 5.25436 4.57045 0
M  V30 2734 H 261.527 5.9449 4.738 0
M  V30 2735 N 263.102 -1.41638 0.69111 0
M  V30 2736 C 264.518 -1.55435 0.362224 0
M  V30 2737 C 264.718 -1.66754 -1.13117 0
M  V30 2738 O 263.774 -1.64348 -1.91692 0
M  V30 2739 C 265.087 -2.79588 1.10684 0
M  V30 2740 C 266.635 -2.9338 1.09075 0
M  V30 2741 C 267.11 -4.20414 1.81703 0
M  V30 2742 N 268.601 -4.27362 1.7865 0
M  V30 2743 C 269.336 -5.24507 2.31689 0
M  V30 2744 N 268.832 -6.27708 2.93179 0
M  V30 2745 N 270.625 -5.16416 2.2197 0
M  V30 2746 H 262.776 -1.32536 1.65976 0
M  V30 2747 H 265.039 -0.639115 0.700168 0
M  V30 2748 H 264.745 -2.77419 2.16175 0
M  V30 2749 H 264.619 -3.70973 0.682545 0
M  V30 2750 H 267.006 -2.95067 0.0441238 0
M  V30 2751 H 267.087 -2.0318 1.55407 0
M  V30 2752 H 266.731 -4.19488 2.86343 0
M  V30 2753 H 266.661 -5.09578 1.32808 0
M  V30 2754 H 269.152 -3.53415 1.33815 0
M  V30 2755 H 269.465 -6.98217 3.31229 0
M  V30 2756 H 267.81 -6.28223 2.97255 0
M  V30 2757 H 271.001 -4.34716 1.73607 0
M  V30 2758 H 271.174 -5.91958 2.63609 0
M  V30 2759 N 264.58 -0.43555 -1.51462 0
M  V30 2760 C 265.826 0.123979 -2.03022 0
M  V30 2761 C 266.181 1.4054 -1.31401 0
M  V30 2762 O 265.474 1.86948 -0.419634 0
M  V30 2763 C 265.668 0.39942 -3.55161 0
M  V30 2764 C 265.497 -0.853754 -4.41521 0
M  V30 2765 C 264.267 -1.38675 -4.85898 0
M  V30 2766 C 266.465 -1.73939 -4.83994 0
M  V30 2767 N 264.447 -2.59265 -5.56466 0
M  V30 2768 C 265.818 -2.79135 -5.5361 0
M  V30 2769 C 267.873 -1.75402 -4.65981 0
M  V30 2770 C 266.576 -3.85737 -6.07124 0
M  V30 2771 C 268.602 -2.80938 -5.20411 0
M  V30 2772 C 267.964 -3.84854 -5.89972 0
M  V30 2773 H 264.063 0.00624887 -0.781975 0
M  V30 2774 H 266.647 -0.59582 -1.85359 0
M  V30 2775 H 264.818 1.08825 -3.72843 0
M  V30 2776 H 266.55 0.95015 -3.93388 0
M  V30 2777 H 263.305 -0.94094 -4.64159 0
M  V30 2778 H 263.729 -3.2041 -5.96378 0
M  V30 2779 H 268.371 -0.963926 -4.11665 0
M  V30 2780 H 266.089 -4.65586 -6.60496 0
M  V30 2781 H 269.675 -2.8301 -5.08327 0
M  V30 2782 H 268.555 -4.65176 -6.31333 0
M  V30 2783 N 266.058 1.56714 -0.166846 0
M  V30 2784 C 267.283 2.01557 0.488833 0
M  V30 2785 C 267.708 1.0463 1.56314 0
M  V30 2786 O 267.066 0.0251304 1.81283 0
M  V30 2787 C 267.114 3.4503 1.04818 0
M  V30 2788 O 266.218 3.51163 2.16236 0
M  V30 2789 H 265.559 0.653516 0.117526 0
M  V30 2790 H 268.089 2.02818 -0.269421 0
M  V30 2791 H 268.099 3.84243 1.37191 0
M  V30 2792 H 266.774 4.15077 0.261572 0
M  V30 2793 H 265.351 3.23807 1.84942 0
M  V30 2794 N 267.536 -0.106894 1.57237 0
M  V30 2795 C 268.446 -1.14911 2.0453 0
M  V30 2796 C 269.462 -1.44592 0.96795 0
M  V30 2797 O 270.638 -1.55468 1.2803 0
M  V30 2798 C 267.703 -2.45272 2.45036 0
M  V30 2799 C 266.764 -2.22879 3.66911 0
M  V30 2800 C 265.997 -3.47024 4.05475 0
M  V30 2801 O 266.22 -4.54804 3.44252 0
M  V30 2802 O 265.154 -3.3731 4.98504 0
M  V30 2803 H 268.98 -0.777461 2.9358 0
M  V30 2804 H 266.565 -0.318563 1.45964 0
M  V30 2805 H 268.447 -3.22055 2.71769 0
M  V30 2806 H 267.122 -2.81886 1.59129 0
M  V30 2807 H 266.029 -1.43915 3.45311 0
M  V30 2808 H 267.362 -1.91163 4.53561 0
M  V30 2809 N 269.014 -1.53014 -0.377408 0
M  V30 2810 C 270.263 -1.67845 -1.11853 0
M  V30 2811 C 270.576 -0.430625 -1.90801 0
M  V30 2812 O 271.782 -0.459261 -2.67587 0
M  V30 2813 C 270.238 -2.96668 -2.03756 0
M  V30 2814 C 269.846 -4.28671 -1.30175 0
M  V30 2815 C 271.59 -3.20865 -2.77932 0
M  V30 2816 C 269.497 -5.48591 -2.20911 0
M  V30 2817 H 268.427 -0.625343 -0.421263 0
M  V30 2818 H 271.078 -1.79514 -0.380409 0
M  V30 2819 H 269.46 -2.78773 -2.8125 0
M  V30 2820 H 270.634 -4.57157 -0.578259 0
M  V30 2821 H 268.949 -4.10825 -0.679108 0
M  V30 2822 H 271.546 -4.07642 -3.46024 0
M  V30 2823 H 271.889 -2.36424 -3.4265 0
M  V30 2824 H 272.422 -3.39379 -2.07525 0
M  V30 2825 H 269.161 -6.35474 -1.6079 0
M  V30 2826 H 268.681 -5.244 -2.91144 0
M  V30 2827 H 270.36 -5.8292 -2.80736 0
M  V30 2828 N 270.492 0.636531 -1.44174 0
M  V30 2829 C 271.424 1.7618 -1.46606 0
M  V30 2830 C 272.437 1.58768 -0.360091 0
M  V30 2831 O 273.626 1.67181 -0.625518 0
M  V30 2832 C 270.726 3.13833 -1.27915 0
M  V30 2833 C 269.899 3.57753 -2.51658 0
M  V30 2834 C 268.958 4.74265 -2.27945 0
M  V30 2835 O 267.984 4.82852 -3.01401 0
M  V30 2836 N 269.186 5.65604 -1.30662 0
M  V30 2837 H 271.951 1.74567 -2.43612 0
M  V30 2838 H 269.512 0.820924 -1.39544 0
M  V30 2839 H 271.504 3.8949 -1.09907 0
M  V30 2840 H 270.074 3.10121 -0.39293 0
M  V30 2841 H 269.294 2.72362 -2.84978 0
M  V30 2842 H 270.582 3.83847 -3.33974 0
M  V30 2843 H 269.98 5.61354 -0.699844 0
M  V30 2844 H 268.537 6.40913 -1.18634 0
M  V30 2845 N 271.97 1.30982 0.876444 0
M  V30 2846 C 272.917 1.18085 1.98304 0
M  V30 2847 C 273.887 0.0682263 1.6596 0
M  V30 2848 O 275.072 0.239937 1.89285 0
M  V30 2849 C 272.212 0.887475 3.33493 0
M  V30 2850 C 271.325 2.08281 3.78475 0
M  V30 2851 C 270.46 1.72678 5.0235 0
M  V30 2852 C 269.499 2.88657 5.39762 0
M  V30 2853 N 268.636 2.53292 6.54819 0
M  V30 2854 H 273.476 2.1275 2.08666 0
M  V30 2855 H 271.013 1.05839 1.02159 0
M  V30 2856 H 272.971 0.697961 4.1132 0
M  V30 2857 H 271.601 -0.022315 3.22792 0
M  V30 2858 H 270.653 2.3833 2.96484 0
M  V30 2859 H 271.965 2.95108 4.02135 0
M  V30 2860 H 271.119 1.50151 5.87826 0
M  V30 2861 H 269.858 0.830327 4.8058 0
M  V30 2862 H 268.863 3.1184 4.52809 0
M  V30 2863 H 270.088 3.79002 5.63502 0
M  V30 2864 H 268.034 1.66163 6.34607 0
M  V30 2865 H 267.951 3.3365 6.7839 0
M  V30 2866 H 269.219 2.34143 7.43503 0
M  V30 2867 N 273.449 -1.08991 1.13837 0
M  V30 2868 C 274.697 -1.80899 0.901098 0
M  V30 2869 C 275.018 -1.86356 -0.574134 0
M  V30 2870 O 274.288 -1.35235 -1.41733 0
M  V30 2871 H 272.868 -0.669966 0.330386 0
M  V30 2872 H 275.53 -1.318 1.43578 0
M  V30 2873 H 274.626 -2.83929 1.29578 0
M  V30 2874 N 274.927 -0.932562 -1.27047 0
M  V30 2875 C 276.173 -0.576412 -1.94436 0
M  V30 2876 C 276.506 0.880891 -1.73072 0
M  V30 2877 O 275.781 1.62905 -1.06264 0
M  V30 2878 C 276.064 -0.909031 -3.48437 0
M  V30 2879 C 275.917 -2.42044 -3.79123 0
M  V30 2880 C 277.236 -0.418341 -4.38107 0
M  V30 2881 H 274.355 -0.210888 -0.706184 0
M  V30 2882 H 276.997 -1.16522 -1.50075 0
M  V30 2883 H 275.147 -0.407947 -3.86352 0
M  V30 2884 H 276.819 -2.99359 -3.50973 0
M  V30 2885 H 275.062 -2.86758 -3.25503 0
M  V30 2886 H 275.733 -2.6037 -4.86736 0
M  V30 2887 H 278.209 -0.847856 -4.0737 0
M  V30 2888 H 277.085 -0.679981 -5.44672 0
M  V30 2889 H 277.346 0.681642 -4.36814 0
M  V30 2890 N 276.405 1.4127 -0.698611 0
M  V30 2891 C 277.821 1.55241 -0.370462 0
M  V30 2892 C 278.021 1.67351 1.12231 0
M  V30 2893 O 277.077 1.65363 1.90818 0
M  V30 2894 C 278.39 2.78997 -1.12165 0
M  V30 2895 C 279.938 2.92797 -1.1063 0
M  V30 2896 C 280.413 4.19445 -1.8393 0
M  V30 2897 N 281.904 4.26409 -1.80914 0
M  V30 2898 C 282.639 5.23271 -2.34467 0
M  V30 2899 N 282.135 6.26145 -2.96504 0
M  V30 2900 N 283.928 5.15232 -2.24706 0
M  V30 2901 H 276.079 1.31654 -1.66676 0
M  V30 2902 H 278.342 0.635393 -0.703548 0
M  V30 2903 H 278.048 2.76268 -2.17644 0
M  V30 2904 H 277.922 3.70606 -0.702209 0
M  V30 2905 H 280.309 2.95039 -0.0597713 0
M  V30 2906 H 280.39 2.02353 -1.56483 0
M  V30 2907 H 280.034 4.17964 -2.88563 0
M  V30 2908 H 279.964 5.08866 -1.35509 0
M  V30 2909 H 282.455 3.527 -1.35687 0
M  V30 2910 H 282.768 6.96451 -3.34927 0
M  V30 2911 H 281.113 6.26638 -3.00583 0
M  V30 2912 H 284.304 4.33789 -1.7591 0
M  V30 2913 H 284.477 5.90552 -2.66745 0
M  V30 2914 N 277.883 0.443576 1.51229 0
M  V30 2915 C 278.793 -0.370721 2.31652 0
M  V30 2916 C 279.809 -1.02186 1.40833 0
M  V30 2917 O 280.985 -1.01586 1.73903 0
M  V30 2918 C 278.05 -1.45376 3.14749 0
M  V30 2919 C 277.111 -0.822099 4.21355 0
M  V30 2920 C 276.344 -1.85353 5.0048 0
M  V30 2921 O 276.567 -3.07656 4.80316 0
M  V30 2922 O 275.501 -1.4406 5.84406 0
M  V30 2923 H 279.327 0.286002 3.0235 0
M  V30 2924 H 276.912 0.20598 1.47973 0
M  V30 2925 H 278.794 -2.08173 3.66391 0
M  V30 2926 H 277.469 -2.09445 2.46809 0
M  V30 2927 H 276.376 -0.155909 3.73775 0
M  V30 2928 H 277.709 -0.224797 4.91686 0
M  V30 2929 N 279.361 -1.56624 0.175154 0
M  V30 2930 C 280.607 -1.9729 -0.469506 0
M  V30 2931 C 280.94 -1.06128 -1.62636 0
M  V30 2932 O 280.215 -0.109183 -1.94193 0
M  V30 2933 C 280.498 -3.47375 -0.948804 0
M  V30 2934 C 280.351 -4.49317 0.208491 0
M  V30 2935 C 281.67 -4.00652 -1.82116 0
M  V30 2936 H 278.789 -0.717317 -0.16919 0
M  V30 2937 H 281.431 -1.88184 0.262062 0
M  V30 2938 H 279.581 -3.55267 -1.57219 0
M  V30 2939 H 281.253 -4.53482 0.845682 0
M  V30 2940 H 279.496 -4.25121 0.863395 0
M  V30 2941 H 280.167 -5.51741 -0.169059 0
M  V30 2942 H 282.643 -3.95416 -1.2956 0
M  V30 2943 H 281.519 -5.06075 -2.12554 0
M  V30 2944 H 281.78 -3.44699 -2.7683 0
M  V30 2945 N 280.839 0.0985539 -1.57292 0
M  V30 2946 C 282.067 0.816318 -1.90115 0
M  V30 2947 C 282.482 1.72451 -0.768509 0
M  V30 2948 O 281.839 1.80643 0.259687 0
M  V30 2949 C 281.89 1.63259 -3.22535 0
M  V30 2950 O 281.611 0.760934 -4.31441 0
M  V30 2951 C 283.112 2.45372 -3.69199 0
M  V30 2952 H 280.332 0.233595 -0.629027 0
M  V30 2953 H 282.876 0.0768229 -2.04356 0
M  V30 2954 H 281.031 2.32463 -3.09903 0
M  V30 2955 H 281.445 1.32595 -5.07463 0
M  V30 2956 H 282.919 2.98144 -4.64558 0
M  V30 2957 H 283.396 3.23677 -2.96867 0
M  V30 2958 H 284.002 1.81373 -3.84687 0
M  V30 2959 N 282.317 1.53212 0.369288 0
M  V30 2960 C 283.227 1.82342 1.47609 0
M  V30 2961 C 284.243 0.711532 1.58787 0
M  V30 2962 O 285.419 1.0012 1.74751 0
M  V30 2963 C 282.484 2.00393 2.8292 0
M  V30 2964 C 281.545 3.24297 2.81301 0
M  V30 2965 C 280.778 3.41478 4.10157 0
M  V30 2966 O 281.001 2.63033 5.06132 0
M  V30 2967 O 279.935 4.34817 4.16194 0
M  V30 2968 H 283.761 2.76366 1.25918 0
M  V30 2969 H 281.346 1.38547 0.559034 0
M  V30 2970 H 283.228 2.13859 3.63101 0
M  V30 2971 H 281.903 1.09559 3.04596 0
M  V30 2972 H 280.81 3.16257 1.99831 0
M  V30 2973 H 282.143 4.15041 2.64578 0
M  V30 2974 N 283.795 -0.628877 1.44509 0
M  V30 2975 C 285.206 -1.21054 1.42137 0
M  V30 2976 C 285.557 -1.95715 0.137881 0
M  V30 2977 O 284.682 -2.02554 -0.761645 0
M  V30 2978 C 285.277 -2.20189 2.57493 0
M  V30 2979 C 283.836 -2.73777 2.58308 0
M  V30 2980 C 282.983 -1.48813 2.33987 0
M  V30 2981 H 285.934 -0.41942 1.53057 0
M  V30 2982 H 285.955 -3.02833 2.30375 0
M  V30 2983 H 285.467 -1.6582 3.50892 0
M  V30 2984 H 283.568 -3.32142 1.68856 0
M  V30 2985 H 283.681 -3.19662 3.56865 0
M  V30 2986 H 282.045 -1.77024 1.83124 0
M  V30 2987 H 282.828 -0.963442 3.29504 0
M  V30 2988 N 285.273 -1.31445 -0.869486 0
M  V30 2989 C 286.203 -1.21727 -1.99261 0
M  V30 2990 C 287.184 -0.104359 -1.6978 0
M  V30 2991 O 288.369 -0.289038 -1.92037 0
M  V30 2992 C 285.499 -0.924317 -3.34774 0
M  V30 2993 C 284.453 -1.99685 -3.78563 0
M  V30 2994 C 283.779 -1.55658 -5.11541 0
M  V30 2995 C 285.079 -3.41003 -3.95619 0
M  V30 2996 H 286.773 -2.1569 -2.07649 0
M  V30 2997 H 284.319 -1.03839 -0.997675 0
M  V30 2998 H 286.272 -0.842934 -4.12883 0
M  V30 2999 H 284.996 0.0509793 -3.2656 0
M  V30 3000 H 283.655 -2.06813 -3.02694 0
M  V30 3001 H 283.303 -0.569132 -4.9977 0
M  V30 3002 H 283.003 -2.27409 -5.41811 0
M  V30 3003 H 284.527 -1.48928 -5.92159 0
M  V30 3004 H 285.941 -3.36547 -4.64122 0
M  V30 3005 H 284.338 -4.10975 -4.37286 0
M  V30 3006 H 285.408 -3.81754 -2.98985 0
M  V30 3007 N 286.751 1.08385 -1.14413 0
M  V30 3008 C 287.699 2.17406 -0.826888 0
M  V30 3009 C 288.693 1.6827 0.195312 0
M  V30 3010 O 289.899 1.79927 0.0513892 0
M  V30 3011 H 286.274 0.70934 -0.249681 0
M  V30 3012 H 288.245 2.41388 -1.75426 0
M  V30 3013 C 286.994 3.46215 -0.320979 0
M  V30 3014 H 286.317 3.84401 -1.0989 0
M  V30 3015 H 287.757 4.23777 -0.137549 0
M  V30 3016 C 286.216 3.23067 0.955472 0
M  V30 3017 O 286.746 3.4668 2.02918 0
M  V30 3018 N 284.952 2.7661 0.890798 0
M  V30 3019 H 284.499 2.57594 0.0168815 0
M  V30 3020 H 284.457 2.61501 1.74542 0
M  V30 3021 N 288.23 0.939286 1.26551 0
M  V30 3022 C 289.16 0.465044 2.28822 0
M  V30 3023 C 290.141 -0.480692 1.63167 0
M  V30 3024 O 291.326 -0.382955 1.90387 0
M  V30 3025 C 288.456 -0.27234 3.46231 0
M  V30 3026 C 287.41 0.58666 4.2396 0
M  V30 3027 C 286.736 -0.280573 5.33963 0
M  V30 3028 C 288.036 1.85704 4.88171 0
M  V30 3029 H 289.73 1.31979 2.68741 0
M  V30 3030 H 287.276 0.636061 1.29191 0
M  V30 3031 H 289.229 -0.615133 4.16886 0
M  V30 3032 H 287.953 -1.16121 3.0526 0
M  V30 3033 H 286.612 0.91232 3.55067 0
M  V30 3034 H 286.26 -1.16874 4.89234 0
M  V30 3035 H 285.96 0.29076 5.8688 0
M  V30 3036 H 287.484 -0.618678 6.07458 0
M  V30 3037 H 288.898 1.58161 5.51052 0
M  V30 3038 H 287.295 2.37279 5.51197 0
M  V30 3039 H 288.365 2.56957 4.11219 0
M  V30 3040 N 289.708 -1.40897 0.706093 0
M  V30 3041 C 290.656 -2.32572 0.0361893 0
M  V30 3042 C 291.65 -1.51532 -0.757266 0
M  V30 3043 O 292.856 -1.67396 -0.661703 0
M  V30 3044 H 289.231 -0.751966 -0.00709935 0
M  V30 3045 H 291.202 -2.86733 0.826249 0
M  V30 3046 C 289.951 -3.36418 -0.87854 0
M  V30 3047 H 289.274 -3.98836 -0.277401 0
M  V30 3048 H 290.714 -4.0308 -1.3154 0
M  V30 3049 C 289.173 -2.71141 -1.99961 0
M  V30 3050 O 289.703 -2.56735 -3.0895 0
M  V30 3051 N 287.909 -2.29671 -1.78043 0
M  V30 3052 H 287.456 -2.41588 -0.894042 0
M  V30 3053 H 287.414 -1.86332 -2.53235 0
M  V30 3054 N 291.186 -0.45159 -1.50991 0
M  V30 3055 C 292.597 0.00818571 -1.86698 0
M  V30 3056 C 292.948 1.40661 -1.3678 0
M  V30 3057 O 292.073 2.0391 -0.724546 0
M  V30 3058 C 292.668 0.0216303 -3.38793 0
M  V30 3059 C 291.227 0.425865 -3.73983 0
M  V30 3060 C 290.374 -0.372163 -2.74791 0
M  V30 3061 H 293.325 -0.666785 -1.44013 0
M  V30 3062 H 293.346 0.828078 -3.7138 0
M  V30 3063 H 292.858 -0.996288 -3.75094 0
M  V30 3064 H 290.959 1.44886 -3.43277 0
M  V30 3065 H 291.072 0.140761 -4.78893 0
M  V30 3066 H 289.436 0.171498 -2.54122 0
M  V30 3067 H 290.219 -1.38922 -3.13935 0
M  V30 3068 N 292.664 1.56529 -0.183458 0
M  V30 3069 C 293.627 2.17324 0.728223 0
M  V30 3070 C 294.627 1.12453 1.14939 0
M  V30 3071 O 295.817 1.37902 1.06437 0
M  V30 3072 C 292.949 2.76591 1.99274 0
M  V30 3073 H 294.142 2.99241 0.198772 0
M  V30 3074 H 291.695 1.5616 0.0661391 0
M  V30 3075 H 292.43 1.98441 2.56499 0
M  V30 3076 H 292.215 3.5335 1.69959 0
M  V30 3077 H 293.705 3.23311 2.6431 0
M  V30 3078 N 294.142 -0.090211 1.57342 0
M  V30 3079 C 295.089 -1.10909 2.02405 0
M  V30 3080 C 296.059 -1.39523 0.901252 0
M  V30 3081 O 297.244 -1.50903 1.1676 0
M  V30 3082 C 294.384 -2.42277 2.45755 0
M  V30 3083 C 293.497 -2.20352 3.71576 0
M  V30 3084 C 292.632 -3.45154 4.03785 0
M  V30 3085 C 291.671 -3.18512 5.22701 0
M  V30 3086 N 290.808 -4.35593 5.50639 0
M  V30 3087 H 295.648 -0.71782 2.89225 0
M  V30 3088 H 293.185 -0.342901 1.43048 0
M  V30 3089 H 295.143 -3.18951 2.68935 0
M  V30 3090 H 293.773 -2.79242 1.61938 0
M  V30 3091 H 292.825 -1.34458 3.55844 0
M  V30 3092 H 294.137 -1.96661 4.58395 0
M  V30 3093 H 293.291 -4.30233 4.27767 0
M  V30 3094 H 292.03 -3.71904 3.15498 0
M  V30 3095 H 291.035 -2.31827 4.98534 0
M  V30 3096 H 292.26 -2.93103 6.12591 0
M  V30 3097 H 290.206 -4.6241 4.6531 0
M  V30 3098 H 290.123 -4.1511 6.31838 0
M  V30 3099 H 291.391 -5.21723 5.7916 0
M  V30 3100 N 295.62 -1.53406 -0.361157 0
M  V30 3101 C 297.036 -1.43277 -0.703124 0
M  V30 3102 C 297.236 -0.575384 -1.9311 0
M  V30 3103 O 296.292 -0.0595362 -2.5243 0
M  V30 3104 C 297.605 -2.8653 -0.9122 0
M  V30 3105 C 299.153 -2.96191 -1.01193 0
M  V30 3106 C 299.628 -4.40514 -1.25345 0
M  V30 3107 N 301.119 -4.43962 -1.32105 0
M  V30 3108 C 301.854 -5.52746 -1.5251 0
M  V30 3109 N 301.35 -6.71567 -1.70203 0
M  V30 3110 N 303.143 -5.40331 -1.54916 0
M  V30 3111 H 295.294 -2.07654 0.446475 0
M  V30 3112 H 297.557 -0.937944 0.137715 0
M  V30 3113 H 297.263 -3.51605 -0.0816414 0
M  V30 3114 H 297.137 -3.30441 -1.81903 0
M  V30 3115 H 299.524 -2.31266 -1.83303 0
M  V30 3116 H 299.605 -2.55667 -0.0823929 0
M  V30 3117 H 299.249 -5.06014 -0.437346 0
M  V30 3118 H 299.179 -4.78614 -2.19627 0
M  V30 3119 H 301.67 -3.58332 -1.20028 0
M  V30 3120 H 301.983 -7.50241 -1.85359 0
M  V30 3121 H 300.328 -6.74545 -1.67373 0
M  V30 3122 H 303.519 -4.46465 -1.40663 0
M  V30 3123 H 303.692 -6.25173 -1.70477 0
M  V30 3124 N 297.098 0.621204 -1.44841 0
M  V30 3125 C 298.509 1.20298 -1.42777 0
M  V30 3126 C 298.86 1.95639 -0.148259 0
M  V30 3127 O 297.985 2.02955 0.750892 0
M  V30 3128 C 298.58 2.1882 -2.58657 0
M  V30 3129 C 297.139 2.72403 -2.59756 0
M  V30 3130 C 296.286 1.4757 -2.34773 0
M  V30 3131 H 299.237 0.411297 -1.53278 0
M  V30 3132 H 299.258 3.01607 -2.31977 0
M  V30 3133 H 298.77 1.63957 -3.51766 0
M  V30 3134 H 296.871 3.31242 -1.70615 0
M  V30 3135 H 296.984 3.17765 -3.58556 0
M  V30 3136 H 295.348 1.76051 -1.8406 0
M  V30 3137 H 296.131 0.945954 -3.3001 0
M  V30 3138 N 298.576 1.31904 0.862503 0
M  V30 3139 C 299.992 1.10724 1.14945 0
M  V30 3140 C 300.192 -0.117421 2.01158 0
M  V30 3141 O 299.248 -0.804595 2.39338 0
M  V30 3142 C 300.561 2.38267 1.83437 0
M  V30 3143 C 302.109 2.43949 1.96106 0
M  V30 3144 C 302.584 3.71394 2.68013 0
M  V30 3145 N 304.075 3.72331 2.75543 0
M  V30 3146 C 304.81 4.67641 3.31812 0
M  V30 3147 N 304.306 5.73313 3.88953 0
M  V30 3148 N 306.099 4.5515 3.29841 0
M  V30 3149 H 298.25 2.10436 0.288191 0
M  V30 3150 H 300.513 0.928705 0.190292 0
M  V30 3151 H 300.219 3.27759 1.27542 0
M  V30 3152 H 300.093 2.48633 2.83657 0
M  V30 3153 H 302.48 1.54922 2.51164 0
M  V30 3154 H 302.561 2.37543 0.949059 0
M  V30 3155 H 302.205 4.60791 2.13621 0
M  V30 3156 H 302.135 3.75069 3.69636 0
M  V30 3157 H 304.626 2.95947 2.34997 0
M  V30 3158 H 304.939 6.42107 4.30022 0
M  V30 3159 H 303.284 5.77077 3.87308 0
M  V30 3160 H 306.475 3.71766 2.84443 0
M  V30 3161 H 306.648 5.29604 3.73394 0
M  V30 3162 N 300.054 -1.07777 1.14986 0
M  V30 3163 C 301.47 -1.32373 0.891596 0
M  V30 3164 C 301.67 -1.9609 -0.463788 0
M  V30 3165 O 300.726 -2.21801 -1.20667 0
M  V30 3166 C 302.039 -2.21905 2.02925 0
M  V30 3167 C 303.587 -2.35367 2.06329 0
M  V30 3168 C 304.062 -3.28245 3.19405 0
M  V30 3169 N 305.553 -3.35824 3.19024 0
M  V30 3170 C 306.288 -4.07739 4.03158 0
M  V30 3171 N 305.784 -4.82306 4.97346 0
M  V30 3172 N 307.577 -4.03635 3.91197 0
M  V30 3173 H 299.728 -0.648039 2.02273 0
M  V30 3174 H 301.991 -0.348149 0.881757 0
M  V30 3175 H 301.697 -1.82342 3.0074 0
M  V30 3176 H 301.571 -3.22407 1.95789 0
M  V30 3177 H 303.958 -2.74186 1.09116 0
M  V30 3178 H 304.039 -1.34585 2.17533 0
M  V30 3179 H 303.683 -2.90146 4.16867 0
M  V30 3180 H 303.613 -4.28971 3.05437 0
M  V30 3181 H 306.104 -2.8267 2.50811 0
M  V30 3182 H 306.417 -5.34661 5.57994 0
M  V30 3183 H 304.762 -4.81337 5.01338 0
M  V30 3184 H 307.953 -3.44491 3.16928 0
M  V30 3185 H 308.126 -4.59417 4.5699 0
M  V30 3186 N 301.532 -0.945985 -1.26051 0
M  V30 3187 C 302.464 -0.416662 -2.25381 0
M  V30 3188 C 303.477 0.462712 -1.56086 0
M  V30 3189 O 304.666 0.272383 -1.7641 0
M  V30 3190 C 301.766 0.419812 -3.3629 0
M  V30 3191 C 300.939 -0.444531 -4.35135 0
M  V30 3192 C 299.998 0.332305 -5.2515 0
M  V30 3193 O 299.024 -0.266324 -5.68577 0
M  V30 3194 N 300.226 1.62763 -5.57215 0
M  V30 3195 H 302.991 -1.27059 -2.71433 0
M  V30 3196 H 300.552 -0.815392 -1.39868 0
M  V30 3197 H 302.544 0.947013 -3.93464 0
M  V30 3198 H 301.114 1.17456 -2.89694 0
M  V30 3199 H 300.334 -1.15291 -3.76964 0
M  V30 3200 H 301.622 -1.03478 -4.98166 0
M  V30 3201 H 301.02 2.13603 -5.23823 0
M  V30 3202 H 299.577 2.10097 -6.17011 0
M  V30 3203 N 303.011 1.40521 -0.713556 0
M  V30 3204 C 304.288 1.94775 -0.17943 0
M  V30 3205 C 304.668 1.65184 1.31444 0
M  V30 3206 O 304.016 0.968429 2.06963 0
M  V30 3207 C 304.226 3.45543 -0.489986 0
M  V30 3208 C 305.574 4.22442 -0.427536 0
M  V30 3209 O 306.598 3.53644 -0.425929 0
M  V30 3210 O 305.457 5.4501 -0.403292 0
M  V30 3211 H 302.551 0.826606 -0.0255192 0
M  V30 3212 H 305.097 1.5014 -0.790949 0
M  V30 3213 H 303.869 3.60432 -1.5233 0
M  V30 3214 H 303.492 3.97311 0.151598 0
M  V30 3215 N 304.489 0.459591 1.5075 0
M  V30 3216 C 305.735 -0.091664 2.03193 0
M  V30 3217 C 306.09 -1.38432 1.3362 0
M  V30 3218 O 305.383 -1.86257 0.449322 0
M  V30 3219 C 305.577 -0.342866 3.55752 0
M  V30 3220 C 305.406 0.923888 4.40107 0
M  V30 3221 C 304.176 1.46388 4.83631 0
M  V30 3222 C 306.374 1.81617 4.81165 0
M  V30 3223 N 304.356 2.68086 5.52271 0
M  V30 3224 C 305.727 2.87907 5.49099 0
M  V30 3225 C 307.782 1.82793 4.63132 0
M  V30 3226 C 306.485 3.95347 6.0091 0
M  V30 3227 C 308.511 2.89182 5.15876 0
M  V30 3228 C 307.873 3.94191 5.83774 0
M  V30 3229 H 303.972 0.00619247 0.781975 0
M  V30 3230 H 306.556 0.625233 1.84388 0
M  V30 3231 H 304.727 -1.0288 3.74527 0
M  V30 3232 H 306.459 -0.887445 3.9485 0
M  V30 3233 H 303.214 1.01466 4.62603 0
M  V30 3234 H 303.638 3.29857 5.91205 0
M  V30 3235 H 308.28 1.0293 4.1008 0
M  V30 3236 H 305.998 4.76035 6.53006 0
M  V30 3237 H 309.584 2.91061 5.0376 0
M  V30 3238 H 308.464 4.75161 6.23853 0
M  V30 3239 N 305.967 -1.56429 0.191757 0
M  V30 3240 C 307.244 -1.89224 -0.495332 0
M  V30 3241 C 307.624 -1.10478 -1.79883 0
M  V30 3242 O 306.972 -0.204852 -2.2758 0
M  V30 3243 C 307.182 -3.41548 -0.717367 0
M  V30 3244 C 308.53 -4.11711 -1.03823 0
M  V30 3245 O 309.554 -3.4698 -0.805204 0
M  V30 3246 O 308.413 -5.2611 -1.47887 0
M  V30 3247 H 305.507 -0.785788 -0.25781 0
M  V30 3248 H 308.053 -1.68111 0.231721 0
M  V30 3249 H 306.825 -3.90772 0.203287 0
M  V30 3250 H 306.448 -3.68342 -1.497 0
M  V30 3251 N 307.445 0.0818655 -1.57387 0
M  V30 3252 C 308.693 0.781368 -1.86384 0
M  V30 3253 C 309.014 1.78618 -0.782342 0
M  V30 3254 O 308.284 1.94976 0.190061 0
M  V30 3255 H 306.864 0.291562 -0.687751 0
M  V30 3256 H 309.526 0.060348 -1.94807 0
M  V30 3257 H 308.622 1.3038 -2.83562 0
M  V30 3258 N 308.923 1.53595 0.353017 0
M  V30 3259 C 309.833 1.83897 1.45667 0
M  V30 3260 C 310.849 0.728334 1.58023 0
M  V30 3261 O 312.025 1.01968 1.73679 0
M  V30 3262 C 309.09 2.03383 2.80778 0
M  V30 3263 C 308.151 3.27262 2.77845 0
M  V30 3264 C 307.384 3.45809 4.06512 0
M  V30 3265 O 307.607 2.68387 5.03314 0
M  V30 3266 O 306.541 4.39207 4.11559 0
M  V30 3267 H 310.367 2.77686 1.2298 0
M  V30 3268 H 307.952 1.39132 0.544308 0
M  V30 3269 H 309.834 2.17698 3.60812 0
M  V30 3270 H 308.509 1.12783 3.03417 0
M  V30 3271 H 307.416 3.18359 1.96465 0
M  V30 3272 H 308.749 4.17824 2.60161 0
M  V30 3273 N 310.401 -0.613514 1.45168 0
M  V30 3274 C 311.331 -1.7354 1.56225 0
M  V30 3275 C 312.312 -1.64981 0.41414 0
M  V30 3276 O 313.497 -1.83472 0.636526 0
M  V30 3277 C 310.627 -3.12128 1.52295 0
M  V30 3278 C 309.581 -3.35491 2.65762 0
M  V30 3279 C 308.907 -4.74291 2.46885 0
M  V30 3280 C 310.207 -3.26325 4.0781 0
M  V30 3281 H 311.901 -1.64543 2.50132 0
M  V30 3282 H 309.447 -0.790185 1.20383 0
M  V30 3283 H 311.4 -3.90404 1.58628 0
M  V30 3284 H 310.124 -3.2195 0.549139 0
M  V30 3285 H 308.783 -2.59603 2.58847 0
M  V30 3286 H 308.431 -4.80839 1.47657 0
M  V30 3287 H 308.131 -4.9088 3.22972 0
M  V30 3288 H 309.655 -5.54775 2.55063 0
M  V30 3289 H 311.069 -3.94483 4.16 0
M  V30 3290 H 309.466 -3.54445 4.8424 0
M  V30 3291 H 310.536 -2.23855 4.30136 0
M  V30 3292 N 311.879 -1.3236 -0.855495 0
M  V30 3293 C 313.109 -1.25688 -1.6397 0
M  V30 3294 C 313.517 0.177592 -1.88365 0
M  V30 3295 O 312.86 1.12485 -1.45234 0
M  V30 3296 C 312.922 -1.94602 -3.02275 0
M  V30 3297 C 312.586 -3.43937 -3.00926 0
M  V30 3298 C 313.583 -4.39435 -2.77835 0
M  V30 3299 C 311.268 -3.85858 -3.21588 0
M  V30 3300 C 313.262 -5.74829 -2.75409 0
M  V30 3301 C 310.949 -5.21361 -3.18789 0
M  V30 3302 C 311.947 -6.15658 -2.95727 0
M  V30 3303 O 311.635 -7.48681 -2.928 0
M  V30 3304 H 311.367 -0.434972 -0.51747 0
M  V30 3305 H 313.921 -1.75023 -1.075 0
M  V30 3306 H 312.151 -1.39836 -3.60531 0
M  V30 3307 H 313.84 -1.81651 -3.62985 0
M  V30 3308 H 314.606 -4.08374 -2.6164 0
M  V30 3309 H 310.485 -3.12883 -3.38564 0
M  V30 3310 H 314.029 -6.48404 -2.57328 0
M  V30 3311 H 309.926 -5.52052 -3.34528 0
M  V30 3312 H 310.694 -7.5803 -3.0876 0
M  V30 3313 N 313.357 1.07166 -1.15556 0
M  V30 3314 C 314.267 2.17947 -0.868116 0
M  V30 3315 C 315.283 1.73297 0.156297 0
M  V30 3316 O 316.459 2.01392 -0.0182327 0
M  V30 3317 C 313.524 3.44789 -0.36355 0
M  V30 3318 C 312.585 4.03996 -1.45209 0
M  V30 3319 C 311.818 5.24783 -0.971508 0
M  V30 3320 O 312.041 5.70109 0.182194 0
M  V30 3321 O 310.975 5.75715 -1.75603 0
M  V30 3322 H 314.801 2.4503 -1.79427 0
M  V30 3323 H 312.386 1.16539 -0.934824 0
M  V30 3324 H 314.268 4.21307 -0.0887113 0
M  V30 3325 H 312.943 3.19253 0.534708 0
M  V30 3326 H 311.85 3.29009 -1.78056 0
M  V30 3327 H 313.183 4.33808 -2.32533 0
M  V30 3328 N 314.835 0.952656 1.25548 0
M  V30 3329 C 315.783 0.462354 2.27958 0
M  V30 3330 C 316.777 -0.46634 1.62855 0
M  V30 3331 O 317.983 -0.343287 1.76696 0
M  V30 3332 H 314.358 0.13101 0.7405 0
M  V30 3333 H 316.329 1.33839 2.66702 0
M  V30 3334 C 315.078 -0.24628 3.46827 0
M  V30 3335 H 314.401 0.459192 3.97154 0
M  V30 3336 H 315.841 -0.553393 4.20373 0
M  V30 3337 C 314.3 -1.4681 3.0323 0
M  V30 3338 O 314.83 -2.56591 3.09069 0
M  V30 3339 N 313.036 -1.32874 2.58443 0
M  V30 3340 H 312.583 -0.435536 2.53891 0
M  V30 3341 H 312.541 -2.14742 2.29637 0
M  V30 3342 N 316.313 -1.40141 0.720998 0
M  V30 3343 C 317.561 -2.0039 0.262323 0
M  V30 3344 C 317.882 -1.57469 -1.15015 0
M  V30 3345 O 317.152 -0.816582 -1.78069 0
M  V30 3346 H 315.732 -0.741063 0.093996 0
M  V30 3347 H 318.394 -1.71398 0.927835 0
M  V30 3348 H 317.49 -3.10658 0.299671 0
M  V30 3349 N 317.792 -0.46758 -1.50504 0
M  V30 3350 C 319.017 0.0886943 -2.0721 0
M  V30 3351 C 319.442 1.33057 -1.32956 0
M  V30 3352 O 318.8 1.77354 -0.376197 0
M  V30 3353 C 318.848 0.359202 -3.58806 0
M  V30 3354 O 317.952 1.44034 -3.8643 0
M  V30 3355 H 317.293 -0.0114349 -0.663902 0
M  V30 3356 H 319.823 -0.657613 -1.93744 0
M  V30 3357 H 319.833 0.600742 -4.03553 0
M  V30 3358 H 318.508 -0.548311 -4.1227 0
M  V30 3359 H 317.085 1.18638 -3.53524 0
M  V30 3360 N 319.27 1.56325 -0.20005 0
M  V30 3361 C 320.517 1.97719 0.437411 0
M  V30 3362 C 320.845 1.08709 1.61284 0
M  V30 3363 O 320.1 0.127261 1.95286 0
M  V30 3364 C 320.399 3.4495 0.935103 0
M  V30 3365 C 320.065 4.5072 -0.12749 0
M  V30 3366 C 318.727 4.79368 -0.419451 0
M  V30 3367 C 321.079 5.14268 -0.847231 0
M  V30 3368 C 318.407 5.68854 -1.43604 0
M  V30 3369 C 320.759 6.04852 -1.85301 0
M  V30 3370 C 319.423 6.31855 -2.15211 0
M  V30 3371 H 318.693 0.723507 0.16006 0
M  V30 3372 H 321.34 1.89166 -0.298056 0
M  V30 3373 H 319.645 3.50599 1.74894 0
M  V30 3374 H 321.342 3.74337 1.43781 0
M  V30 3375 H 317.932 4.28458 0.11023 0
M  V30 3376 H 322.116 4.92222 -0.634901 0
M  V30 3377 H 317.372 5.88047 -1.67364 0
M  V30 3378 H 321.546 6.53152 -2.41591 0
M  V30 3379 H 319.173 7.00994 -2.94129 0
M  V30 3380 N 320.748 -0.0735177 1.57428 0
M  V30 3381 C 321.978 -0.78483 1.91112 0
M  V30 3382 C 322.386 -1.71729 0.7941 0
M  V30 3383 O 321.729 -1.82105 -0.241542 0
M  V30 3384 C 321.791 -1.63346 3.20247 0
M  V30 3385 C 321.455 -0.870557 4.48632 0
M  V30 3386 C 322.452 -0.19058 5.19551 0
M  V30 3387 C 320.137 -0.838242 4.95256 0
M  V30 3388 C 322.131 0.511503 6.35344 0
M  V30 3389 C 319.818 -0.132386 6.10957 0
M  V30 3390 C 320.816 0.541288 6.80852 0
M  V30 3391 O 320.504 1.23578 7.94345 0
M  V30 3392 H 320.236 -0.228408 0.636244 0
M  V30 3393 H 322.79 -0.0486039 2.05342 0
M  V30 3394 H 321.02 -2.41245 3.02222 0
M  V30 3395 H 322.709 -2.22329 3.39595 0
M  V30 3396 H 323.475 -0.206864 4.84559 0
M  V30 3397 H 319.354 -1.35206 4.40727 0
M  V30 3398 H 322.898 1.03789 6.89836 0
M  V30 3399 H 318.795 -0.114023 6.45399 0
M  V30 3400 H 319.563 1.14487 8.10454 0
M  V30 3401 N 322.226 -1.5378 -0.344866 0
M  V30 3402 C 323.473 -1.70963 -1.08526 0
M  V30 3403 C 323.801 -0.472126 -1.88683 0
M  V30 3404 O 323.056 0.546116 -1.87926 0
M  V30 3405 C 323.355 -2.92407 -2.05506 0
M  V30 3406 C 323.021 -4.28066 -1.41671 0
M  V30 3407 C 321.683 -4.64951 -1.2399 0
M  V30 3408 C 324.035 -5.12344 -0.956726 0
M  V30 3409 C 321.363 -5.83733 -0.589277 0
M  V30 3410 C 323.715 -6.3179 -0.320015 0
M  V30 3411 C 322.379 -6.67372 -0.130881 0
M  V30 3412 H 321.649 -0.625598 -0.397124 0
M  V30 3413 H 324.296 -1.87995 -0.36469 0
M  V30 3414 H 322.601 -2.69973 -2.8394 0
M  V30 3415 H 324.298 -3.02895 -2.62784 0
M  V30 3416 H 320.888 -3.99034 -1.56429 0
M  V30 3417 H 325.072 -4.8438 -1.08118 0
M  V30 3418 H 320.328 -6.09877 -0.431344 0
M  V30 3419 H 324.502 -6.96386 0.0445072 0
M  V30 3420 H 322.129 -7.59273 0.375318 0
M  V30 3421 N 323.704 0.605807 -1.45491 0
M  V30 3422 C 324.667 1.69836 -1.5391 0
M  V30 3423 C 325.667 1.55261 -0.418424 0
M  V30 3424 O 326.857 1.60296 -0.681965 0
M  V30 3425 C 323.989 3.09117 -1.43734 0
M  V30 3426 H 325.182 1.63738 -2.51257 0
M  V30 3427 H 322.735 0.821689 -1.32959 0
M  V30 3428 H 323.47 3.20791 -0.475788 0
M  V30 3429 H 323.255 3.21104 -2.25021 0
M  V30 3430 H 324.745 3.88696 -1.52661 0
M  V30 3431 N 325.182 1.32811 0.848464 0
M  V30 3432 C 326.129 1.22265 1.95755 0
M  V30 3433 C 327.099 0.103413 1.65778 0
M  V30 3434 O 328.284 0.280033 1.88734 0
M  V30 3435 C 325.424 0.958014 3.31536 0
M  V30 3436 C 324.537 2.16262 3.73971 0
M  V30 3437 C 323.672 1.83295 4.98575 0
M  V30 3438 C 322.711 3.00041 5.33518 0
M  V30 3439 N 321.848 2.67125 6.49299 0
M  V30 3440 H 326.688 2.17128 2.04107 0
M  V30 3441 H 324.225 1.07982 0.998913 0
M  V30 3442 H 326.183 0.785052 4.09747 0
M  V30 3443 H 324.813 0.046159 3.22767 0
M  V30 3444 H 323.865 2.44565 2.91362 0
M  V30 3445 H 325.177 3.03572 3.95785 0
M  V30 3446 H 324.331 1.62586 5.84509 0
M  V30 3447 H 323.07 0.932078 4.7871 0
M  V30 3448 H 322.075 3.21374 4.46093 0
M  V30 3449 H 323.3 3.90869 5.55336 0
M  V30 3450 H 321.246 1.79586 6.3094 0
M  V30 3451 H 321.163 3.47965 6.71161 0
M  V30 3452 H 322.431 2.49861 7.3837 0
M  V30 3453 N 326.66 -1.06551 1.16123 0
M  V30 3454 C 328.076 -1.3142 0.905585 0
M  V30 3455 C 328.276 -1.96571 -0.442964 0
M  V30 3456 O 327.332 -2.23068 -1.18308 0
M  V30 3457 C 328.645 -2.19741 2.05267 0
M  V30 3458 C 330.193 -2.33165 2.08813 0
M  V30 3459 C 330.668 -3.24838 3.22868 0
M  V30 3460 N 332.159 -3.32421 3.22568 0
M  V30 3461 C 332.894 -4.0344 4.0746 0
M  V30 3462 N 332.39 -4.77003 5.02434 0
M  V30 3463 N 334.183 -3.99464 3.95456 0
M  V30 3464 H 326.334 -0.626548 2.02949 0
M  V30 3465 H 328.597 -0.338777 0.8854 0
M  V30 3466 H 328.303 -1.79142 3.02657 0
M  V30 3467 H 328.177 -3.20313 1.99198 0
M  V30 3468 H 330.564 -2.73013 1.12018 0
M  V30 3469 H 330.645 -1.3227 2.18948 0
M  V30 3470 H 330.289 -2.85708 4.19921 0
M  V30 3471 H 330.219 -4.25707 3.0997 0
M  V30 3472 H 332.71 -2.79994 2.53795 0
M  V30 3473 H 333.023 -5.28712 5.63634 0
M  V30 3474 H 331.368 -4.75992 5.06415 0
M  V30 3475 H 334.559 -3.4111 3.20564 0
M  V30 3476 H 334.732 -4.54544 4.61837 0
M  V30 3477 N 328.138 -0.959301 -1.25041 0
M  V30 3478 C 329.088 -0.453888 -2.23436 0
M  V30 3479 C 330.072 0.459461 -1.542 0
M  V30 3480 O 331.264 0.291752 -1.74579 0
M  V30 3481 C 328.393 0.262667 -3.42294 0
M  V30 3482 C 327.479 -0.669022 -4.1879 0
M  V30 3483 N 327.87 -1.80267 -4.72586 0
M  V30 3484 C 326.168 -0.47814 -4.4343 0
M  V30 3485 C 326.869 -2.38475 -5.3057 0
M  V30 3486 N 325.845 -1.67078 -5.17287 0
M  V30 3487 H 329.647 -1.319 -2.6264 0
M  V30 3488 H 327.161 -0.817358 -1.40332 0
M  V30 3489 H 329.158 0.641911 -4.11929 0
M  V30 3490 H 327.818 1.12432 -3.04613 0
M  V30 3491 H 328.829 -2.18442 -4.69578 0
M  V30 3492 H 325.506 0.340249 -4.16111 0
M  V30 3493 H 326.896 -3.34094 -5.8295 0
M  V30 3494 N 329.616 1.39756 -0.72842 0
M  V30 3495 C 330.546 2.33289 -0.0991354 0
M  V30 3496 C 331.527 1.53568 0.731489 0
M  V30 3497 O 332.712 1.81987 0.677807 0
M  V30 3498 C 329.842 3.3763 0.813834 0
M  V30 3499 C 328.796 4.2791 0.0878663 0
M  V30 3500 C 328.122 5.22894 1.11741 0
M  V30 3501 C 329.422 5.11314 -1.06563 0
M  V30 3502 H 331.116 2.86163 -0.880408 0
M  V30 3503 H 328.662 1.37591 -0.424819 0
M  V30 3504 H 330.615 4.0201 1.26355 0
M  V30 3505 H 329.339 2.83181 1.62715 0
M  V30 3506 H 327.998 3.65 -0.342159 0
M  V30 3507 H 327.646 4.64744 1.92412 0
M  V30 3508 H 327.346 5.84143 0.636477 0
M  V30 3509 H 328.87 5.90151 1.56697 0
M  V30 3510 H 330.284 5.69076 -0.694671 0
M  V30 3511 H 328.681 5.81671 -1.47577 0
M  V30 3512 H 329.751 4.46534 -1.89038 0
M  V30 3513 N 331.094 0.475555 1.50254 0
M  V30 3514 C 332.343 -0.0795996 2.01543 0
M  V30 3515 C 332.656 -1.4038 1.36209 0
M  V30 3516 O 333.862 -2.04415 1.7868 0
M  V30 3517 C 332.318 -0.192363 3.59386 0
M  V30 3518 C 331.926 1.12367 4.33679 0
M  V30 3519 C 333.67 -0.699238 4.18701 0
M  V30 3520 C 331.577 0.974453 5.83317 0
M  V30 3521 H 330.507 -0.0335228 0.753254 0
M  V30 3522 H 333.158 0.611128 1.73025 0
M  V30 3523 H 331.54 -0.946974 3.84511 0
M  V30 3524 H 332.714 1.88958 4.20276 0
M  V30 3525 H 331.029 1.562 3.85993 0
M  V30 3526 H 333.626 -0.827978 5.28251 0
M  V30 3527 H 333.969 -1.69171 3.80377 0
M  V30 3528 H 334.502 -0.00188807 3.978 0
M  V30 3529 H 331.241 1.94042 6.26121 0
M  V30 3530 H 330.761 0.248998 5.99283 0
M  V30 3531 H 332.44 0.642867 6.43798 0
M  V30 3532 N 332.573 -1.56217 0.208337 0
M  V30 3533 C 333.483 -2.23316 -0.718836 0
M  V30 3534 C 334.499 -1.23648 -1.22422 0
M  V30 3535 O 335.675 -1.56423 -1.26861 0
M  V30 3536 C 332.74 -2.88968 -1.91568 0
M  V30 3537 C 331.801 -4.03943 -1.45357 0
M  V30 3538 C 331.034 -4.66455 -2.59337 0
M  V30 3539 O 331.257 -4.27919 -3.77149 0
M  V30 3540 O 330.191 -5.55686 -2.31293 0
M  V30 3541 H 334.017 -3.03182 -0.177315 0
M  V30 3542 H 331.602 -1.49384 -0.0215402 0
M  V30 3543 H 333.484 -3.30455 -2.61491 0
M  V30 3544 H 332.159 -2.12071 -2.44556 0
M  V30 3545 H 331.066 -3.67052 -0.722746 0
M  V30 3546 H 332.399 -4.82543 -0.970219 0
M  V30 3547 N 334.051 0.0651679 -1.57465 0
M  V30 3548 C 334.984 1.10876 -1.99453 0
M  V30 3549 C 335.962 1.37205 -0.872555 0
M  V30 3550 O 337.146 1.50468 -1.13542 0
M  V30 3551 C 334.273 2.45167 -2.3369 0
M  V30 3552 C 333.319 2.3493 -3.55964 0
M  V30 3553 S 334.152 1.73708 -5.06543 0
M  V30 3554 C 335.308 3.09563 -5.43987 0
M  V30 3555 H 335.541 0.750967 -2.87659 0
M  V30 3556 H 333.074 0.273933 -1.51951 0
M  V30 3557 H 335.032 3.22412 -2.54088 0
M  V30 3558 H 333.693 2.78105 -1.46001 0
M  V30 3559 H 332.886 3.3398 -3.77457 0
M  V30 3560 H 332.488 1.65823 -3.3523 0
M  V30 3561 H 334.78 4.05882 -5.42463 0
M  V30 3562 H 335.723 2.92843 -6.44708 0
M  V30 3563 H 336.131 3.10474 -4.71451 0
M  V30 3564 N 335.529 1.53961 0.336706 0
M  V30 3565 C 336.777 1.71197 1.07405 0
M  V30 3566 C 337.098 0.481475 1.88962 0
M  V30 3567 O 336.368 -0.504585 1.8929 0
M  V30 3568 H 334.948 0.631185 0.399517 0
M  V30 3569 H 337.61 1.91232 0.376323 0
M  V30 3570 H 336.706 2.58587 1.74755 0
M  V30 3571 N 337.007 -0.598083 1.45811 0
M  V30 3572 C 338.237 -1.38121 1.53643 0
M  V30 3573 C 338.645 -1.88425 0.171081 0
M  V30 3574 O 337.988 -1.63409 -0.839237 0
M  V30 3575 C 338.05 -2.61432 2.46766 0
M  V30 3576 C 337.714 -2.32702 3.93318 0
M  V30 3577 C 338.711 -1.92479 4.82957 0
M  V30 3578 C 336.396 -2.45321 4.38318 0
M  V30 3579 C 338.39 -1.65248 6.15607 0
M  V30 3580 C 336.077 -2.17703 5.71007 0
M  V30 3581 C 337.075 -1.7773 6.5947 0
M  V30 3582 O 336.763 -1.50441 7.89698 0
M  V30 3583 H 336.495 -0.428863 0.522544 0
M  V30 3584 H 339.049 -0.73557 1.91777 0
M  V30 3585 H 337.279 -3.28749 2.0362 0
M  V30 3586 H 338.968 -3.23487 2.45175 0
M  V30 3587 H 339.734 -1.82258 4.49452 0
M  V30 3588 H 335.613 -2.75399 3.69697 0
M  V30 3589 H 339.157 -1.33973 6.84614 0
M  V30 3590 H 335.054 -2.27544 6.04065 0
M  V30 3591 H 335.822 -1.64415 8.01817 0
M  V30 3592 N 338.485 -1.33259 -0.841409 0
M  V30 3593 C 339.415 -1.25926 -1.96634 0
M  V30 3594 C 340.396 -0.140349 -1.6952 0
M  V30 3595 O 341.581 -0.329707 -1.91381 0
M  V30 3596 C 338.711 -0.99512 -3.32738 0
M  V30 3597 C 337.665 -2.0767 -3.74242 0
M  V30 3598 C 336.991 -1.66474 -5.08125 0
M  V30 3599 C 338.291 -3.49318 -3.88297 0
M  V30 3600 H 339.985 -2.20046 -2.03027 0
M  V30 3601 H 337.531 -1.05931 -0.975425 0
M  V30 3602 H 339.484 -0.930323 -4.11002 0
M  V30 3603 H 338.208 -0.0183004 -3.26595 0
M  V30 3604 H 336.867 -2.13187 -2.98239 0
M  V30 3605 H 336.515 -0.675012 -4.9845 0
M  V30 3606 H 336.215 -2.3885 -5.36865 0
M  V30 3607 H 337.739 -1.61455 -5.88867 0
M  V30 3608 H 339.153 -3.46316 -4.56879 0
M  V30 3609 H 337.55 -4.20158 -4.28471 0
M  V30 3610 H 338.62 -3.8801 -2.9082 0
M  V30 3611 N 339.963 1.05934 -1.16686 0
M  V30 3612 C 340.895 2.13468 -0.834503 0
M  V30 3613 C 341.908 1.62013 0.15984 0
M  V30 3614 O 343.097 1.7838 -0.0654228 0
M  V30 3615 C 340.197 3.3817 -0.222361 0
M  V30 3616 C 339.37 4.18928 -1.25771 0
M  V30 3617 C 338.429 5.21985 -0.664703 0
M  V30 3618 O 337.455 5.53334 -1.33453 0
M  V30 3619 N 338.657 5.77919 0.546834 0
M  V30 3620 H 341.422 2.42578 -1.75999 0
M  V30 3621 H 338.983 1.21967 -1.06469 0
M  V30 3622 H 340.975 4.04266 0.187472 0
M  V30 3623 H 339.545 3.06655 0.606758 0
M  V30 3624 H 338.765 3.48433 -1.84358 0
M  V30 3625 H 340.053 4.69687 -1.95631 0
M  V30 3626 H 339.451 5.54721 1.10912 0
M  V30 3627 H 338.008 6.45573 0.898829 0
M  V30 3628 N 341.441 0.965919 1.2453 0
M  V30 3629 C 342.689 0.625593 1.92174 0
M  V30 3630 C 343.01 -0.841652 1.75901 0
M  V30 3631 O 342.28 -1.60061 1.12948 0
M  V30 3632 H 340.86 0.228388 0.71123 0
M  V30 3633 H 343.522 1.2266 1.51461 0
M  V30 3634 H 342.618 0.864653 2.99884 0
M  V30 3635 N 342.919 -1.39368 0.735821 0
M  V30 3636 C 344.167 -2.00101 0.283562 0
M  V30 3637 C 344.488 -1.5868 -1.13338 0
M  V30 3638 O 343.758 -0.835423 -1.77193 0
M  V30 3639 H 342.338 -0.740024 0.101851 0
M  V30 3640 H 345 -1.70404 0.945962 0
M  V30 3641 H 344.096 -3.10323 0.332604 0
M  V30 3642 N 344.397 -0.483516 -1.5 0
M  V30 3643 C 345.344 0.304164 -2.28787 0
M  V30 3644 C 346.314 0.976114 -1.34392 0
M  V30 3645 O 347.499 0.986156 -1.63339 0
M  V30 3646 C 344.639 1.37298 -3.16612 0
M  V30 3647 C 343.752 0.714561 -4.26049 0
M  V30 3648 C 342.887 1.76232 -5.01114 0
M  V30 3649 C 341.926 1.08483 -6.0241 0
M  V30 3650 N 341.063 2.076 -6.70706 0
M  V30 3651 H 345.903 -0.373981 -2.95644 0
M  V30 3652 H 343.44 -0.196275 -1.45785 0
M  V30 3653 H 345.398 2.00445 -3.65893 0
M  V30 3654 H 344.028 2.02012 -2.51776 0
M  V30 3655 H 343.08 -0.0297798 -3.80388 0
M  V30 3656 H 344.392 0.180383 -4.98474 0
M  V30 3657 H 343.546 2.46929 -5.54176 0
M  V30 3658 H 342.285 2.33033 -4.28424 0
M  V30 3659 H 341.29 0.363545 -5.48597 0
M  V30 3660 H 342.515 0.523551 -6.77079 0
M  V30 3661 H 340.461 2.63394 -6.00799 0
M  V30 3662 H 340.378 1.59201 -7.39047 0
M  V30 3663 H 341.646 2.77639 -7.2838 0
M  V30 3664 N 345.875 1.56104 -0.216619 0
M  V30 3665 C 346.808 2.16026 0.735395 0
M  V30 3666 C 347.786 1.1032 1.1945 0
M  V30 3667 O 348.97 1.38549 1.27814 0
M  V30 3668 C 346.097 2.73656 1.99575 0
M  V30 3669 C 345.143 3.92146 1.67702 0
M  V30 3670 S 345.976 5.29397 0.806145 0
M  V30 3671 C 347.132 5.90463 2.07617 0
M  V30 3672 H 347.365 2.96439 0.226072 0
M  V30 3673 H 344.898 1.544 -0.00136639 0
M  V30 3674 H 346.856 3.075 2.71945 0
M  V30 3675 H 345.517 1.93245 2.47619 0
M  V30 3676 H 344.71 4.30954 2.61332 0
M  V30 3677 H 344.312 3.59423 1.03398 0
M  V30 3678 H 346.604 6.06136 3.02664 0
M  V30 3679 H 347.547 6.86589 1.73207 0
M  V30 3680 H 347.955 5.19252 2.21445 0
M  V30 3681 N 347.353 -0.0568162 1.57498 0
M  V30 3682 C 348.316 -1.05038 2.03715 0
M  V30 3683 C 349.316 -1.30709 0.936577 0
M  V30 3684 O 350.506 -1.26178 1.20103 0
M  V30 3685 C 347.638 -2.39034 2.43055 0
M  V30 3686 H 348.831 -0.651715 2.92733 0
M  V30 3687 H 346.384 -0.302947 1.53336 0
M  V30 3688 H 347.119 -2.83703 1.57108 0
M  V30 3689 H 346.904 -2.21739 3.2338 0
M  V30 3690 H 348.394 -3.10421 2.79336 0
M  V30 3691 N 348.832 -1.54138 -0.328536 0
M  V30 3692 C 350.062 -1.75807 -1.08516 0
M  V30 3693 C 350.47 -0.50428 -1.82356 0
M  V30 3694 O 349.813 0.534451 -1.75754 0
M  V30 3695 C 349.875 -2.89423 -2.13248 0
M  V30 3696 C 349.539 -4.28504 -1.5885 0
M  V30 3697 C 350.536 -5.09536 -1.03289 0
M  V30 3698 C 348.221 -4.75034 -1.63243 0
M  V30 3699 C 350.215 -6.35206 -0.52845 0
M  V30 3700 C 347.902 -6.00672 -1.12411 0
M  V30 3701 C 348.9 -6.80592 -0.573062 0
M  V30 3702 O 348.588 -8.03867 -0.0723692 0
M  V30 3703 H 348.32 -0.590633 -0.328829 0
M  V30 3704 H 350.874 -2.01819 -0.381868 0
M  V30 3705 H 349.104 -2.5897 -2.87178 0
M  V30 3706 H 350.793 -2.98921 -2.74592 0
M  V30 3707 H 351.559 -4.74745 -0.99206 0
M  V30 3708 H 347.438 -4.12875 -2.05074 0
M  V30 3709 H 350.982 -6.97532 -0.0976774 0
M  V30 3710 H 346.879 -6.34955 -1.162 0
M  V30 3711 H 347.647 -8.18283 -0.188258 0
M  V30 3712 N 350.31 0.590341 -1.46126 0
M  V30 3713 C 351.54 1.37304 -1.54373 0
M  V30 3714 C 351.948 1.88332 -0.181071 0
M  V30 3715 O 351.291 1.63852 0.830559 0
M  V30 3716 C 351.353 2.6012 -2.48149 0
M  V30 3717 C 351.017 2.30613 -3.94546 0
M  V30 3718 C 352.014 1.89915 -4.83971 0
M  V30 3719 C 349.699 2.42993 -4.39613 0
M  V30 3720 C 351.693 1.61981 -6.16475 0
M  V30 3721 C 349.38 2.14672 -5.72153 0
M  V30 3722 C 350.378 1.7423 -6.60404 0
M  V30 3723 O 350.066 1.46251 -7.90485 0
M  V30 3724 H 349.798 0.426086 -0.524811 0
M  V30 3725 H 352.352 0.72539 -1.92165 0
M  V30 3726 H 350.582 3.27664 -2.05361 0
M  V30 3727 H 352.271 3.22182 -2.46887 0
M  V30 3728 H 353.037 1.79872 -4.50412 0
M  V30 3729 H 348.916 2.73435 -3.71153 0
M  V30 3730 H 352.46 1.30341 -6.85315 0
M  V30 3731 H 348.357 2.24337 -6.05263 0
M  V30 3732 H 349.125 1.6016 -8.02677 0
M  V30 3733 N 351.788 1.33704 0.83433 0
M  V30 3734 C 352.698 1.26382 1.97648 0
M  V30 3735 C 353.714 0.173548 1.73132 0
M  V30 3736 O 354.89 0.397962 1.97429 0
M  V30 3737 C 351.955 1.00769 3.31733 0
M  V30 3738 C 351.016 2.1884 3.69334 0
M  V30 3739 C 350.249 1.9444 4.9702 0
M  V30 3740 O 350.472 0.896961 5.63303 0
M  V30 3741 O 349.406 2.81093 5.32231 0
M  V30 3742 H 353.232 2.22444 2.06767 0
M  V30 3743 H 350.817 1.13795 0.968037 0
M  V30 3744 H 352.699 0.882186 4.12062 0
M  V30 3745 H 351.374 0.0773783 3.23608 0
M  V30 3746 H 350.281 2.36946 2.89495 0
M  V30 3747 H 351.614 3.10221 3.82131 0
M  V30 3748 N 353.266 -1.05314 1.17247 0
M  V30 3749 C 354.199 -2.12512 0.831507 0
M  V30 3750 C 355.177 -1.61351 -0.201168 0
M  V30 3751 O 356.361 -1.88317 -0.0829831 0
M  V30 3752 C 353.488 -3.37848 0.24015 0
M  V30 3753 C 352.534 -4.07832 1.24801 0
M  V30 3754 S 353.367 -4.56537 2.79882 0
M  V30 3755 C 354.523 -5.85122 2.22223 0
M  V30 3756 H 354.756 -2.41106 1.7394 0
M  V30 3757 H 352.289 -1.17896 0.996988 0
M  V30 3758 H 354.247 -4.10391 -0.0945588 0
M  V30 3759 H 352.908 -3.07392 -0.645668 0
M  V30 3760 H 352.101 -4.97883 0.78287 0
M  V30 3761 H 351.703 -3.41348 1.52831 0
M  V30 3762 H 353.995 -6.58408 1.59703 0
M  V30 3763 H 354.938 -6.36381 3.10523 0
M  V30 3764 H 355.346 -5.39626 1.65722 0
M  V30 3765 N 354.744 -0.972509 -1.24016 0
M  V30 3766 C 356.16 -0.679827 -1.44397 0
M  V30 3767 C 356.36 0.756716 -1.86751 0
M  V30 3768 O 355.416 1.53007 -2.00861 0
M  V30 3769 C 356.729 -1.66803 -2.50195 0
M  V30 3770 C 358.277 -1.68119 -2.64017 0
M  V30 3771 C 358.752 -2.65748 -3.73017 0
M  V30 3772 N 360.243 -2.64219 -3.8045 0
M  V30 3773 C 360.978 -3.36433 -4.64328 0
M  V30 3774 N 360.474 -4.1818 -5.52356 0
M  V30 3775 N 362.267 -3.25235 -4.58453 0
M  V30 3776 H 354.418 -1.90059 -0.948228 0
M  V30 3777 H 356.681 -0.818527 -0.478245 0
M  V30 3778 H 356.387 -2.69498 -2.25973 0
M  V30 3779 H 356.261 -1.4446 -3.48441 0
M  V30 3780 H 358.648 -0.661319 -2.87594 0
M  V30 3781 H 358.729 -1.94525 -1.66113 0
M  V30 3782 H 358.373 -3.67872 -3.50189 0
M  V30 3783 H 358.303 -2.36619 -4.70446 0
M  V30 3784 H 360.794 -2.04887 -3.17537 0
M  V30 3785 H 361.107 -4.70157 -6.13329 0
M  V30 3786 H 359.452 -4.22273 -5.52006 0
M  V30 3787 H 362.643 -2.60829 -3.88698 0
M  V30 3788 H 362.816 -3.81776 -5.23594 0
M  V30 3789 N 356.222 1.38976 -0.743202 0
M  V30 3790 C 357.185 2.28901 -0.117014 0
M  V30 3791 C 358.185 1.46698 0.658503 0
M  V30 3792 O 359.375 1.67274 0.486305 0
M  V30 3793 C 356.507 3.30309 0.84315 0
M  V30 3794 H 357.7 2.8578 -0.909373 0
M  V30 3795 H 355.253 1.47761 -0.509547 0
M  V30 3796 H 355.988 2.785 1.66157 0
M  V30 3797 H 355.773 3.91029 0.289594 0
M  V30 3798 H 357.263 3.97577 1.2776 0
M  V30 3799 N 357.7 0.491464 1.49741 0
M  V30 3800 C 358.61 -0.296835 2.32715 0
M  V30 3801 C 359.626 -0.976536 1.44013 0
M  V30 3802 O 360.802 -0.960023 1.77047 0
M  V30 3803 C 357.867 -1.35288 3.19215 0
M  V30 3804 C 356.928 -0.687632 4.23757 0
M  V30 3805 C 356.161 -1.69336 5.06123 0
M  V30 3806 O 356.384 -2.92219 4.89861 0
M  V30 3807 O 355.318 -1.25394 5.88693 0
M  V30 3808 H 359.144 0.382048 3.01287 0
M  V30 3809 H 356.729 0.252953 1.47243 0
M  V30 3810 H 358.611 -1.96411 3.72828 0
M  V30 3811 H 357.286 -2.01487 2.53347 0
M  V30 3812 H 356.193 -0.0369159 3.74082 0
M  V30 3813 H 357.526 -0.0682566 4.92153 0
M  V30 3814 N 359.178 -1.55987 0.224894 0
M  V30 3815 C 360.128 -2.17076 -0.697296 0
M  V30 3816 C 361.112 -1.12006 -1.15514 0
M  V30 3817 O 362.304 -1.37985 -1.10857 0
M  V30 3818 C 359.433 -2.85679 -1.90374 0
M  V30 3819 C 358.519 -3.97977 -1.46543 0
M  V30 3820 N 358.91 -5.00359 -0.739909 0
M  V30 3821 C 357.208 -4.10128 -1.75245 0
M  V30 3822 C 357.909 -5.79407 -0.515939 0
M  V30 3823 N 356.885 -5.32892 -1.07364 0
M  V30 3824 H 360.687 -2.93592 -0.134594 0
M  V30 3825 H 358.201 -1.62379 0.0262885 0
M  V30 3826 H 360.198 -3.27857 -2.57518 0
M  V30 3827 H 358.858 -2.1066 -2.47088 0
M  V30 3828 H 359.869 -5.16412 -0.392253 0
M  V30 3829 H 356.546 -3.46263 -2.33255 0
M  V30 3830 H 357.936 -6.71872 0.0617349 0
M  V30 3831 N 360.656 0.0484629 -1.57525 0
M  V30 3832 C 361.881 0.759177 -1.93006 0
M  V30 3833 C 362.306 1.69125 -0.823317 0
M  V30 3834 O 361.664 1.79931 0.222364 0
M  V30 3835 C 361.712 1.50899 -3.27509 0
M  V30 3836 O 360.816 2.62112 -3.18388 0
M  V30 3837 H 360.157 0.205564 -0.631379 0
M  V30 3838 H 362.687 0.00972959 -2.04598 0
M  V30 3839 H 362.697 1.88317 -3.6194 0
M  V30 3840 H 361.372 0.825269 -4.0763 0
M  V30 3841 H 359.949 2.27379 -2.95556 0
M  V30 3842 N 362.134 1.5431 0.320358 0
M  V30 3843 C 363.38 1.72924 1.05949 0
M  V30 3844 C 363.713 0.503185 1.87568 0
M  V30 3845 O 362.988 -0.499839 1.87968 0
M  V30 3846 C 363.271 3.00676 1.98156 0
M  V30 3847 C 363.124 4.3354 1.19845 0
M  V30 3848 C 364.443 3.24198 2.9763 0
M  V30 3849 H 361.562 0.629195 0.383774 0
M  V30 3850 H 364.204 1.87008 0.335854 0
M  V30 3851 H 362.354 2.888 2.59859 0
M  V30 3852 H 364.026 4.57305 0.605773 0
M  V30 3853 H 362.269 4.309 0.500784 0
M  V30 3854 H 362.94 5.19156 1.87567 0
M  V30 3855 H 365.416 3.35557 2.4605 0
M  V30 3856 H 364.292 4.14938 3.59329 0
M  V30 3857 H 364.553 2.41577 3.7026 0
M  V30 3858 N 363.613 -0.582584 1.46437 0
M  V30 3859 C 364.89 -1.34276 1.4223 0
M  V30 3860 C 365.27 -2.10835 0.10583 0
M  V30 3861 O 364.618 -2.09485 -0.912596 0
M  V30 3862 C 364.828 -2.26865 2.65204 0
M  V30 3863 C 366.176 -2.88691 3.11356 0
M  V30 3864 O 367.2 -2.37178 2.65753 0
M  V30 3865 O 366.059 -3.82255 3.90568 0
M  V30 3866 H 363.153 -0.603326 0.565621 0
M  V30 3867 H 365.699 -0.603591 1.58603 0
M  V30 3868 H 364.471 -1.69724 3.52576 0
M  V30 3869 H 364.094 -3.08122 2.5129 0
M  V30 3870 N 365.091 -1.34144 -0.827227 0
M  V30 3871 C 366.34 -1.25602 -1.5782 0
M  V30 3872 C 366.653 0.173445 -1.94829 0
M  V30 3873 O 367.859 0.380984 -2.68814 0
M  V30 3874 C 366.315 -2.20151 -2.84713 0
M  V30 3875 C 365.923 -3.68331 -2.55021 0
M  V30 3876 C 367.667 -2.20508 -3.62735 0
M  V30 3877 C 365.574 -4.54762 -3.78082 0
M  V30 3878 H 364.504 -0.466573 -0.592306 0
M  V30 3879 H 367.155 -1.59283 -0.911116 0
M  V30 3880 H 365.537 -1.79417 -3.53023 0
M  V30 3881 H 366.711 -4.17577 -1.94849 0
M  V30 3882 H 365.026 -3.7038 -1.90283 0
M  V30 3883 H 367.623 -2.82306 -4.54101 0
M  V30 3884 H 367.966 -1.20322 -3.98533 0
M  V30 3885 H 368.499 -2.59664 -3.01362 0
M  V30 3886 H 365.238 -5.55867 -3.47407 0
M  V30 3887 H 364.758 -4.10254 -4.37552 0
M  V30 3888 H 366.437 -4.69153 -4.45538 0
M  V30 3889 N 366.569 1.04691 -1.17803 0
M  V30 3890 C 367.846 1.7472 -0.879328 0
M  V30 3891 C 368.226 2.01812 0.619271 0
M  V30 3892 O 367.574 1.65824 1.57209 0
M  V30 3893 C 367.784 3.03686 -1.71976 0
M  V30 3894 C 369.132 3.77542 -1.94286 0
M  V30 3895 O 370.156 3.13569 -1.68976 0
M  V30 3896 O 369.015 4.92506 -2.36855 0
M  V30 3897 H 366.109 0.760011 -0.326056 0
M  V30 3898 H 368.655 1.10813 -1.28525 0
M  V30 3899 H 367.427 2.79754 -2.73594 0
M  V30 3900 H 367.05 3.75332 -1.31194 0
M  V30 3901 N 368.047 0.979072 1.23499 0
M  V30 3902 C 369.293 0.648178 1.92163 0
M  V30 3903 C 369.626 -0.816049 1.76222 0
M  V30 3904 O 368.901 -1.58849 1.12237 0
M  V30 3905 C 369.184 1.03773 3.44824 0
M  V30 3906 C 369.037 2.55948 3.69879 0
M  V30 3907 C 370.356 0.580653 4.36253 0
M  V30 3908 H 367.475 0.236952 0.69787 0
M  V30 3909 H 370.117 1.22012 1.45647 0
M  V30 3910 H 368.267 0.551058 3.84572 0
M  V30 3911 H 369.939 3.12179 3.3962 0
M  V30 3912 H 368.182 2.98641 3.14636 0
M  V30 3913 H 368.853 2.78255 4.76737 0
M  V30 3914 H 371.329 0.998465 4.03943 0
M  V30 3915 H 370.205 0.881663 5.41773 0
M  V30 3916 H 370.466 -0.519052 4.39042 0
M  V30 3917 N 369.525 -1.3858 0.750561 0
M  V30 3918 C 370.802 -1.94231 0.231009 0
M  V30 3919 C 371.182 -1.68611 -1.27018 0
M  V30 3920 O 370.53 -1.02296 -2.04323 0
M  V30 3921 C 370.74 -3.44123 0.581428 0
M  V30 3922 C 372.088 -4.2116 0.539389 0
M  V30 3923 O 373.112 -3.52391 0.519541 0
M  V30 3924 O 371.971 -5.43749 0.54765 0
M  V30 3925 H 369.065 -0.825639 0.0474263 0
M  V30 3926 H 371.611 -1.4799 0.830478 0
M  V30 3927 H 370.383 -3.56267 1.61833 0
M  V30 3928 H 370.006 -3.97573 -0.0462047 0
M  V30 3929 N 371.003 -0.499398 -1.49478 0
M  V30 3930 C 372.252 0.0475259 -2.01644 0
M  V30 3931 C 372.565 1.38195 -1.38425 0
M  V30 3932 O 373.771 2.01547 -1.8191 0
M  V30 3933 C 372.227 0.135164 -3.59646 0
M  V30 3934 C 371.835 -1.19252 -4.31837 0
M  V30 3935 C 373.579 0.632538 -4.19761 0
M  V30 3936 C 371.486 -1.06713 -5.81693 0
M  V30 3937 H 370.416 0.0215349 -0.753692 0
M  V30 3938 H 373.067 -0.638577 -1.7203 0
M  V30 3939 H 371.449 0.885681 -3.85969 0
M  V30 3940 H 372.623 -1.9562 -4.17216 0
M  V30 3941 H 370.938 -1.62321 -3.83459 0
M  V30 3942 H 373.535 0.743833 -5.29501 0
M  V30 3943 H 373.878 1.63098 -3.83021 0
M  V30 3944 H 374.411 -0.0613987 -3.97753 0
M  V30 3945 H 371.15 -2.03979 -6.22955 0
M  V30 3946 H 370.67 -0.344307 -5.98811 0
M  V30 3947 H 372.349 -0.745208 -6.42694 0
M  V30 3948 N 372.481 1.55866 -0.233164 0
M  V30 3949 C 373.758 1.90471 0.444988 0
M  V30 3950 C 374.138 1.15209 1.7689 0
M  V30 3951 O 373.486 0.265119 2.26957 0
M  V30 3952 C 373.696 3.4333 0.626559 0
M  V30 3953 C 375.044 4.14319 0.92871 0
M  V30 3954 O 376.068 3.48993 0.712926 0
M  V30 3955 O 374.927 5.29846 1.33887 0
M  V30 3956 H 372.021 0.792347 0.236885 0
M  V30 3957 H 374.567 1.67437 -0.276211 0
M  V30 3958 H 373.339 3.90095 -0.306822 0
M  V30 3959 H 372.962 3.72181 1.39881 0
M  V30 3960 N 373.959 -0.0401083 1.57549 0
M  V30 3961 C 375.205 -0.728793 1.89895 0
M  V30 3962 C 375.56 -1.73551 0.830535 0
M  V30 3963 O 374.853 -1.90914 -0.162007 0
M  V30 3964 C 375.047 -1.44902 3.26708 0
M  V30 3965 C 374.876 -0.513568 4.46758 0
M  V30 3966 C 373.646 -0.138698 5.0511 0
M  V30 3967 C 375.844 0.203341 5.13898 0
M  V30 3968 N 373.826 0.799159 6.08676 0
M  V30 3969 C 375.197 0.997246 6.11927 0
M  V30 3970 C 377.252 0.271459 4.97159 0
M  V30 3971 C 375.955 1.85299 6.95023 0
M  V30 3972 C 377.981 1.11429 5.80808 0
M  V30 3973 C 377.343 1.89615 6.78399 0
M  V30 3974 H 373.442 -0.241125 0.743897 0
M  V30 3975 H 376.026 0.0108016 1.94697 0
M  V30 3976 H 374.197 -2.15914 3.22856 0
M  V30 3977 H 375.929 -2.08921 3.46603 0
M  V30 3978 H 372.684 -0.498496 4.70969 0
M  V30 3979 H 373.108 1.26227 6.65128 0
M  V30 3980 H 377.75 -0.318709 4.21597 0
M  V30 3981 H 375.468 2.454 7.69938 0
M  V30 3982 H 379.054 1.17038 5.69906 0
M  V30 3983 H 377.934 2.53779 7.42001 0
M  V30 3984 N 375.437 -1.54477 -0.31217 0
M  V30 3985 C 376.848 -1.64344 -0.885891 0
M  V30 3986 C 377.199 -0.54485 -1.88483 0
M  V30 3987 O 376.324 0.320387 -2.14015 0
M  V30 3988 C 376.919 -2.97908 -1.61357 0
M  V30 3989 C 375.478 -3.09933 -2.13585 0
M  V30 3990 C 374.625 -2.59971 -0.964897 0
M  V30 3991 H 377.576 -1.58448 -0.0894528 0
M  V30 3992 H 377.597 -2.88706 -2.47848 0
M  V30 3993 H 377.109 -3.77845 -0.886277 0
M  V30 3994 H 375.21 -2.34694 -2.89395 0
M  V30 3995 H 375.323 -4.15916 -2.37804 0
M  V30 3996 H 373.687 -2.16147 -1.34731 0
M  V30 3997 H 374.47 -3.42376 -0.251742 0
M  V30 3998 N 376.915 0.57481 -1.46744 0
M  V30 3999 C 378.164 1.32898 -1.51727 0
M  V30 4000 C 378.477 1.948 -0.176692 0
M  V30 4001 O 379.683 2.71299 -0.104385 0
M  V30 4002 C 378.139 2.40901 -2.67385 0
M  V30 4003 C 377.747 1.85266 -4.07898 0
M  V30 4004 C 379.491 3.17609 -2.81646 0
M  V30 4005 C 377.398 2.90945 -5.14883 0
M  V30 4006 H 376.328 0.499631 -0.564699 0
M  V30 4007 H 378.979 0.612536 -1.72975 0
M  V30 4008 H 377.361 3.15379 -2.39483 0
M  V30 4009 H 378.535 1.17278 -4.45626 0
M  V30 4010 H 376.85 1.21199 -3.98371 0
M  V30 4011 H 379.447 3.96493 -3.58744 0
M  V30 4012 H 379.79 3.70696 -1.89448 0
M  V30 4013 H 380.323 2.50239 -3.09233 0
M  V30 4014 H 377.062 2.42736 -6.089 0
M  V30 4015 H 376.582 3.57398 -4.81691 0
M  V30 4016 H 378.261 3.54755 -5.41071 0
M  V30 4017 N 378.394 1.34581 0.820102 0
M  V30 4018 C 379.357 1.2628 1.91275 0
M  V30 4019 C 380.357 0.177344 1.59819 0
M  V30 4020 O 381.547 0.430156 1.68806 0
M  V30 4021 C 378.679 0.950327 3.27386 0
M  V30 4022 H 379.872 2.23421 2.00057 0
M  V30 4023 H 377.425 1.1891 1.0144 0
M  V30 4024 H 378.16 -0.0177938 3.24295 0
M  V30 4025 H 377.945 1.73549 3.51601 0
M  V30 4026 H 379.435 0.917492 4.07396 0
M  V30 4027 N 379.872 -1.04064 1.18357 0
M  V30 4028 C 380.782 -2.15569 0.925596 0
M  V30 4029 C 381.798 -1.7365 -0.110295 0
M  V30 4030 O 382.974 -2.01273 0.0716218 0
M  V30 4031 C 380.039 -3.43704 0.454836 0
M  V30 4032 C 379.1 -4.00004 1.55869 0
M  V30 4033 C 378.333 -5.22023 1.1103 0
M  V30 4034 O 378.556 -5.70392 -0.0309756 0
M  V30 4035 O 377.49 -5.70856 1.90805 0
M  V30 4036 H 381.316 -2.40187 1.8586 0
M  V30 4037 H 378.901 -1.1402 0.965394 0
M  V30 4038 H 380.783 -4.20923 0.200382 0
M  V30 4039 H 379.458 -3.20559 -0.449876 0
M  V30 4040 H 378.365 -3.24172 1.86716 0
M  V30 4041 H 379.698 -4.2749 2.43953 0
M  V30 4042 N 381.35 -0.985608 -1.22978 0
M  V30 4043 C 382.282 -0.488154 -2.23941 0
M  V30 4044 C 383.295 0.41282 -1.57479 0
M  V30 4045 O 384.484 0.216121 -1.77187 0
M  V30 4046 C 381.584 0.312611 -3.37455 0
M  V30 4047 C 380.757 -0.582741 -4.33501 0
M  V30 4048 C 379.816 0.165064 -5.25941 0
M  V30 4049 O 378.842 -0.447077 -5.67442 0
M  V30 4050 N 380.044 1.44953 -5.62111 0
M  V30 4051 H 382.809 -1.3563 -2.67254 0
M  V30 4052 H 380.37 -0.859477 -1.37203 0
M  V30 4053 H 382.362 0.821357 -3.96277 0
M  V30 4054 H 380.932 1.0818 -2.93285 0
M  V30 4055 H 380.152 -1.27225 -3.73105 0
M  V30 4056 H 381.44 -1.19275 -4.94622 0
M  V30 4057 H 380.838 1.9683 -5.30353 0
M  V30 4058 H 379.395 1.90361 -6.23383 0
M  V30 4059 N 382.828 1.3818 -0.7579 0
M  V30 4060 C 384.244 1.5353 -0.435972 0
M  V30 4061 C 384.444 1.71961 1.05032 0
M  V30 4062 O 383.5 1.73307 1.83633 0
M  V30 4063 C 384.813 2.73989 -1.23898 0
M  V30 4064 C 386.361 2.87841 -1.22949 0
M  V30 4065 C 386.836 4.11266 -2.01554 0
M  V30 4066 N 388.327 4.18352 -1.98837 0
M  V30 4067 C 389.062 5.12856 -2.5645 0
M  V30 4068 N 388.558 6.13005 -3.22794 0
M  V30 4069 N 390.351 5.05238 -2.46356 0
M  V30 4070 H 382.502 1.24467 -1.7211 0
M  V30 4071 H 384.765 0.604982 -0.729864 0
M  V30 4072 H 384.471 2.66789 -2.29165 0
M  V30 4073 H 384.345 3.67294 -0.858764 0
M  V30 4074 H 386.732 2.9452 -0.184854 0
M  V30 4075 H 386.813 1.95534 -1.64924 0
M  V30 4076 H 386.457 4.05349 -3.06031 0
M  V30 4077 H 386.387 5.02661 -1.5697 0
M  V30 4078 H 388.878 3.46628 -1.50524 0
M  V30 4079 H 389.191 6.81619 -3.64165 0
M  V30 4080 H 387.536 6.13325 -3.2689 0
M  V30 4081 H 390.727 4.25938 -1.9415 0
M  V30 4082 H 390.9 5.78707 -2.91552 0
M  V30 4083 N 384.306 0.507319 1.49211 0
M  V30 4084 C 385.552 -0.0350047 2.0277 0
M  V30 4085 C 385.885 -1.3606 1.38569 0
M  V30 4086 O 385.16 -1.87321 0.523542 0
M  V30 4087 C 385.443 -0.180916 3.59645 0
M  V30 4088 C 385.296 1.16825 4.34364 0
M  V30 4089 C 386.615 -0.918558 4.30407 0
M  V30 4090 H 383.734 -0.0112473 0.736914 0
M  V30 4091 H 386.376 0.659956 1.7817 0
M  V30 4092 H 384.526 -0.772826 3.80736 0
M  V30 4093 H 386.198 1.79952 4.24753 0
M  V30 4094 H 384.441 1.75594 3.96673 0
M  V30 4095 H 385.112 1.01939 5.42506 0
M  V30 4096 H 387.588 -0.41649 4.1401 0
M  V30 4097 H 386.464 -0.989505 5.39907 0
M  V30 4098 H 386.725 -1.96373 3.96093 0
M  V30 4099 N 385.784 -1.5574 0.241426 0
M  V30 4100 C 386.714 -2.24133 -0.654722 0
M  V30 4101 C 387.695 -1.21974 -1.1856 0
M  V30 4102 O 388.88 -1.50612 -1.22595 0
M  V30 4103 C 386.01 -2.93659 -1.85423 0
M  V30 4104 C 384.964 -4.0246 -1.45636 0
M  V30 4105 C 384.29 -4.59383 -2.73626 0
M  V30 4106 C 385.59 -5.18468 -0.631506 0
M  V30 4107 H 387.284 -2.99281 -0.0844353 0
M  V30 4108 H 384.83 -1.43947 -0.0391707 0
M  V30 4109 H 386.783 -3.40203 -2.48676 0
M  V30 4110 H 385.507 -2.15991 -2.44981 0
M  V30 4111 H 384.166 -3.56676 -0.847202 0
M  V30 4112 H 383.814 -3.78422 -3.3137 0
M  V30 4113 H 383.514 -5.32826 -2.4773 0
M  V30 4114 H 385.038 -5.08658 -3.37786 0
M  V30 4115 H 386.452 -5.61272 -1.1682 0
M  V30 4116 H 384.849 -5.98266 -0.468831 0
M  V30 4117 H 385.919 -4.8358 0.357506 0
M  V30 4118 N 387.262 0.0317525 -1.57568 0
M  V30 4119 C 388.678 0.38735 -1.54828 0
M  V30 4120 C 388.878 1.7677 -0.967187 0
M  V30 4121 O 387.934 2.45581 -0.587063 0
M  V30 4122 C 389.247 0.291667 -2.99282 0
M  V30 4123 C 390.795 0.368946 -3.10818 0
M  V30 4124 C 391.27 0.302741 -4.56998 0
M  V30 4125 N 392.761 0.361617 -4.61786 0
M  V30 4126 C 393.496 0.333238 -5.72431 0
M  V30 4127 N 392.992 0.257308 -6.92322 0
M  V30 4128 N 394.785 0.382769 -5.60795 0
M  V30 4129 H 386.936 -0.871609 -1.93692 0
M  V30 4130 H 389.199 -0.331161 -0.888277 0
M  V30 4131 H 388.905 -0.656794 -3.45513 0
M  V30 4132 H 388.779 1.08638 -3.61217 0
M  V30 4133 H 391.166 1.30784 -2.64536 0
M  V30 4134 H 391.247 -0.455066 -2.5172 0
M  V30 4135 H 390.891 -0.632473 -5.03947 0
M  V30 4136 H 390.821 1.14482 -5.14005 0
M  V30 4137 H 393.312 0.422923 -3.75526 0
M  V30 4138 H 393.625 0.24068 -7.72425 0
M  V30 4139 H 391.97 0.223396 -6.94641 0
M  V30 4140 H 395.161 0.44006 -4.66027 0
M  V30 4141 H 395.334 0.357184 -6.47015 0
M  V30 4142 N 388.74 1.54641 0.303973 0
M  V30 4143 C 389.97 1.77511 1.05705 0
M  V30 4144 C 390.378 0.533228 1.81531 0
M  V30 4145 O 389.721 -0.506423 1.76582 0
M  V30 4146 C 389.783 2.92779 2.08617 0
M  V30 4147 C 389.447 4.30977 1.52013 0
M  V30 4148 C 390.444 5.11115 0.9517 0
M  V30 4149 C 388.129 4.77571 1.55665 0
M  V30 4150 C 390.123 6.35966 0.427327 0
M  V30 4151 C 387.81 6.02384 1.02841 0
M  V30 4152 C 388.808 6.81417 0.464713 0
M  V30 4153 O 388.496 8.03881 -0.0555283 0
M  V30 4154 H 388.228 0.59579 0.319391 0
M  V30 4155 H 390.782 2.02401 0.349712 0
M  V30 4156 H 389.012 2.63506 2.83022 0
M  V30 4157 H 390.701 3.03252 2.69802 0
M  V30 4158 H 391.467 4.76264 0.916407 0
M  V30 4159 H 387.346 4.16085 1.9848 0
M  V30 4160 H 390.89 6.97599 -0.0133062 0
M  V30 4161 H 386.787 6.36723 1.06084 0
M  V30 4162 H 387.555 8.18479 0.0580522 0
M  V30 4163 N 390.218 -0.567019 1.47046 0
M  V30 4164 C 391.466 -1.322 1.52864 0
M  V30 4165 C 391.787 -1.94088 0.188388 0
M  V30 4166 O 391.057 -1.7941 -0.786693 0
M  V30 4167 H 389.637 -0.490894 0.563056 0
M  V30 4168 H 392.299 -0.662879 1.83281 0
M  V30 4169 H 391.395 -2.12062 2.2899 0
M  V30 4170 N 391.696 -1.35014 -0.812953 0
M  V30 4171 C 392.926 -1.30841 -1.59888 0
M  V30 4172 C 393.334 0.117576 -1.88834 0
M  V30 4173 O 392.677 1.07807 -1.48739 0
M  V30 4174 C 392.739 -2.0412 -2.95931 0
M  V30 4175 C 392.403 -3.53336 -2.89832 0
M  V30 4176 C 393.4 -4.48052 -2.63714 0
M  V30 4177 C 391.085 -3.95894 -3.0915 0
M  V30 4178 C 393.079 -5.833 -2.56982 0
M  V30 4179 C 390.766 -5.31239 -3.0204 0
M  V30 4180 C 391.764 -6.24754 -2.75991 0
M  V30 4181 O 391.452 -7.57617 -2.68833 0
M  V30 4182 H 391.184 -0.451215 -0.50337 0
M  V30 4183 H 393.738 -1.78354 -1.01877 0
M  V30 4184 H 391.968 -1.51235 -3.559 0
M  V30 4185 H 393.657 -1.93107 -3.57022 0
M  V30 4186 H 394.423 -4.16492 -2.48515 0
M  V30 4187 H 390.302 -3.23495 -3.28438 0
M  V30 4188 H 393.846 -6.56263 -2.36569 0
M  V30 4189 H 389.743 -5.62415 -3.16796 0
M  V30 4190 H 390.511 -7.67469 -2.84487 0
M  V30 4191 N 393.175 1.03435 -1.18907 0
M  V30 4192 C 394.422 1.76743 -0.988334 0
M  V30 4193 C 394.75 1.88447 0.481441 0
M  V30 4194 O 394.005 1.39383 1.37371 0
M  V30 4195 C 394.304 3.19792 -1.59586 0
M  V30 4196 C 393.97 3.28108 -3.09283 0
M  V30 4197 C 392.632 3.30084 -3.5014 0
M  V30 4198 C 394.984 3.27696 -4.05296 0
M  V30 4199 C 392.312 3.29299 -4.85571 0
M  V30 4200 C 394.664 3.28451 -5.4065 0
M  V30 4201 C 393.328 3.28723 -5.80946 0
M  V30 4202 H 392.598 0.64675 -0.361657 0
M  V30 4203 H 395.245 1.21442 -1.48068 0
M  V30 4204 H 393.55 3.78136 -1.02568 0
M  V30 4205 H 395.247 3.75171 -1.41589 0
M  V30 4206 H 391.837 3.27294 -2.76725 0
M  V30 4207 H 396.021 3.25354 -3.74778 0
M  V30 4208 H 391.277 3.2783 -5.16079 0
M  V30 4209 H 395.451 3.27082 -6.14809 0
M  V30 4210 H 393.078 3.27868 -6.85862 0
M  V30 4211 N 394.653 0.992116 1.22453 0
M  V30 4212 C 395.901 0.666215 1.90804 0
M  V30 4213 C 396.222 -0.804152 1.77647 0
M  V30 4214 O 395.492 -1.57629 1.16318 0
M  V30 4215 H 394.072 0.243423 0.706225 0
M  V30 4216 H 396.734 1.25845 1.48825 0
M  V30 4217 H 395.83 0.928069 2.97982 0
M  V30 4218 N 396.131 -1.37776 0.765217 0
M  V30 4219 C 397.078 -2.30342 0.145274 0
M  V30 4220 C 398.048 -1.5077 -0.696971 0
M  V30 4221 O 399.233 -1.79362 -0.650689 0
M  V30 4222 C 396.373 -3.37227 -0.732939 0
M  V30 4223 C 395.486 -4.31819 0.125199 0
M  V30 4224 C 394.621 -5.25777 -0.757107 0
M  V30 4225 C 393.66 -6.12012 0.103963 0
M  V30 4226 N 392.797 -6.98232 -0.735953 0
M  V30 4227 H 397.637 -2.8278 0.940195 0
M  V30 4228 H 395.174 -1.39211 0.475255 0
M  V30 4229 H 397.132 -3.97818 -1.25686 0
M  V30 4230 H 395.762 -2.86171 -1.49353 0
M  V30 4231 H 394.814 -3.7259 0.766865 0
M  V30 4232 H 396.126 -4.92509 0.789683 0
M  V30 4233 H 395.28 -5.91541 -1.34776 0
M  V30 4234 H 394.019 -4.65481 -1.45529 0
M  V30 4235 H 393.024 -5.45233 0.707197 0
M  V30 4236 H 394.249 -6.74379 0.799381 0
M  V30 4237 H 392.195 -6.40472 -1.41887 0
M  V30 4238 H 392.112 -7.55891 -0.128624 0
M  V30 4239 H 393.38 -7.68393 -1.31121 0
M  V30 4240 N 397.609 -0.515225 -1.4894 0
M  V30 4241 C 398.519 0.259774 -2.33157 0
M  V30 4242 C 399.535 0.953501 -1.45548 0
M  V30 4243 O 400.711 0.931735 -1.78552 0
M  V30 4244 C 397.776 1.30193 -3.21326 0
M  V30 4245 C 396.837 0.620129 -4.24797 0
M  V30 4246 C 396.07 1.61263 -5.08753 0
M  V30 4247 O 396.293 2.84389 -4.94448 0
M  V30 4248 O 395.227 1.16013 -5.90614 0
M  V30 4249 H 399.053 -0.429932 -3.00641 0
M  V30 4250 H 396.638 -0.276346 -1.46822 0
M  V30 4251 H 398.52 1.90455 -3.75905 0
M  V30 4252 H 397.195 1.97431 -2.56521 0
M  V30 4253 H 396.102 -0.0226019 -3.74093 0
M  V30 4254 H 397.435 -0.0100493 -4.92199 0
M  V30 4255 N 399.087 1.5561 -0.249682 0
M  V30 4256 C 400.034 2.21496 0.648694 0
M  V30 4257 C 401.004 1.17977 1.16921 0
M  V30 4258 O 402.189 1.46434 1.22318 0
M  V30 4259 C 399.329 2.92039 1.83868 0
M  V30 4260 C 398.442 4.10219 1.35442 0
M  V30 4261 C 397.577 4.6847 2.50419 0
M  V30 4262 C 396.616 5.78893 1.98869 0
M  V30 4263 N 395.753 6.31315 3.07223 0
M  V30 4264 H 400.593 2.97892 0.0801582 0
M  V30 4265 H 398.13 1.47074 0.0278031 0
M  V30 4266 H 400.088 3.31138 2.53778 0
M  V30 4267 H 398.718 2.18111 2.37965 0
M  V30 4268 H 397.77 3.76413 0.54928 0
M  V30 4269 H 399.082 4.89927 0.936649 0
M  V30 4270 H 398.236 5.10158 3.28366 0
M  V30 4271 H 396.975 3.87984 2.95499 0
M  V30 4272 H 395.98 5.3668 1.19393 0
M  V30 4273 H 397.205 6.61232 1.54755 0
M  V30 4274 H 395.151 5.53733 3.51732 0
M  V30 4275 H 395.068 7.06224 2.69784 0
M  V30 4276 H 396.336 6.77662 3.8522 0
M  V30 4277 N 400.565 -0.0233959 1.57583 0
M  V30 4278 C 401.495 -1.02162 2.09965 0
M  V30 4279 C 402.476 -1.3735 1.00344 0
M  V30 4280 O 403.661 -1.46135 1.27899 0
M  V30 4281 C 400.791 -2.32081 2.58371 0
M  V30 4282 C 399.745 -2.1112 3.72307 0
M  V30 4283 C 399.071 -3.46848 4.06941 0
M  V30 4284 C 400.371 -1.49276 5.00514 0
M  V30 4285 H 402.065 -0.585557 2.93618 0
M  V30 4286 H 399.611 -0.280218 1.41247 0
M  V30 4287 H 401.564 -3.02249 2.93639 0
M  V30 4288 H 400.288 -2.77758 1.71808 0
M  V30 4289 H 398.947 -1.43384 3.37397 0
M  V30 4290 H 398.595 -3.90184 3.17436 0
M  V30 4291 H 398.295 -3.33646 4.83688 0
M  V30 4292 H 399.819 -4.18369 4.44747 0
M  V30 4293 H 401.233 -2.09368 5.33702 0
M  V30 4294 H 399.63 -1.46632 5.8191 0
M  V30 4295 H 400.7 -0.459217 4.82721 0
M  V30 4296 N 402.043 -1.548 -0.295768 0
M  V30 4297 C 402.99 -1.86113 -1.36494 0
M  V30 4298 C 403.96 -0.7105 -1.50137 0
M  V30 4299 O 405.145 -0.959626 -1.64912 0
M  V30 4300 C 402.285 -2.11861 -2.72413 0
M  V30 4301 C 401.398 -3.39471 -2.67177 0
M  V30 4302 C 400.533 -3.55035 -3.95125 0
M  V30 4303 C 399.572 -4.76418 -3.84308 0
M  V30 4304 N 398.709 -4.8876 -5.04042 0
M  V30 4305 H 403.549 -2.77314 -1.09091 0
M  V30 4306 H 401.086 -1.37315 -0.52753 0
M  V30 4307 H 403.044 -2.24786 -3.51464 0
M  V30 4308 H 401.674 -1.2392 -2.98066 0
M  V30 4309 H 400.726 -3.35139 -1.79962 0
M  V30 4310 H 402.038 -4.28646 -2.55076 0
M  V30 4311 H 401.192 -3.67653 -4.82614 0
M  V30 4312 H 399.931 -2.64002 -4.10066 0
M  V30 4313 H 398.936 -4.63827 -2.95202 0
M  V30 4314 H 400.161 -5.68863 -3.70906 0
M  V30 4315 H 398.107 -4.00652 -5.19436 0
M  V30 4316 H 398.024 -5.71945 -4.94384 0
M  V30 4317 H 399.292 -5.0574 -5.93167 0
M  V30 4318 N 403.521 0.559213 -1.47345 0
M  V30 4319 C 404.431 1.69388 -1.62311 0
M  V30 4320 C 405.447 1.6648 -0.505993 0
M  V30 4321 O 406.623 1.85964 -0.773262 0
M  V30 4322 C 403.688 3.05894 -1.63185 0
M  V30 4323 C 402.749 3.19885 -2.86307 0
M  V30 4324 C 401.982 4.49879 -2.87131 0
M  V30 4325 O 402.205 5.35217 -1.97229 0
M  V30 4326 O 401.139 4.67618 -3.78968 0
M  V30 4327 H 404.965 1.59706 -2.58317 0
M  V30 4328 H 402.55 0.728989 -1.30407 0
M  V30 4329 H 404.432 3.87133 -1.66451 0
M  V30 4330 H 403.107 3.15964 -0.70345 0
M  V30 4331 H 402.014 2.38052 -2.88587 0
M  V30 4332 H 403.347 3.14718 -3.78435 0
M  V30 4333 N 404.999 1.35443 0.805782 0
M  V30 4334 C 406.248 1.28097 1.55801 0
M  V30 4335 C 406.561 -0.142428 1.95081 0
M  V30 4336 O 407.767 -0.33817 2.69386 0
M  V30 4337 C 406.223 2.24653 2.81174 0
M  V30 4338 C 405.831 3.72342 2.49129 0
M  V30 4339 C 407.575 2.2625 3.59181 0
M  V30 4340 C 405.482 4.60719 3.70799 0
M  V30 4341 H 404.412 0.475937 0.584808 0
M  V30 4342 H 407.063 1.60712 0.885661 0
M  V30 4343 H 405.445 1.85011 3.50124 0
M  V30 4344 H 406.619 4.20624 1.88181 0
M  V30 4345 H 404.934 3.73361 1.84366 0
M  V30 4346 H 407.531 2.89495 4.49552 0
M  V30 4347 H 407.874 1.26647 3.96568 0
M  V30 4348 H 408.407 2.64426 2.97193 0
M  V30 4349 H 405.146 5.61324 3.3852 0
M  V30 4350 H 404.666 4.17163 4.3097 0
M  V30 4351 H 406.345 4.76182 4.38018 0
M  V30 4352 N 406.477 -1.02803 1.19454 0
M  V30 4353 C 407.424 -2.11099 0.933046 0
M  V30 4354 C 408.394 -1.65571 -0.132447 0
M  V30 4355 O 409.579 -1.90797 0.00987576 0
M  V30 4356 C 406.719 -3.41763 0.478747 0
M  V30 4357 C 405.832 -4.00833 1.6111 0
M  V30 4358 C 404.967 -5.19511 1.10825 0
M  V30 4359 C 404.006 -5.70639 2.21445 0
M  V30 4360 N 403.143 -6.80589 1.72461 0
M  V30 4361 H 407.983 -2.32804 1.86028 0
M  V30 4362 H 405.52 -1.14179 0.927441 0
M  V30 4363 H 407.478 -4.16736 0.196745 0
M  V30 4364 H 406.108 -3.20166 -0.411493 0
M  V30 4365 H 405.16 -3.23066 2.00829 0
M  V30 4366 H 406.472 -4.34794 2.4445 0
M  V30 4367 H 405.626 -6.01645 0.781533 0
M  V30 4368 H 404.365 -4.87086 0.244606 0
M  V30 4369 H 403.37 -4.87116 2.54947 0
M  V30 4370 H 404.595 -6.05102 3.08267 0
M  V30 4371 H 402.541 -6.50016 0.884056 0
M  V30 4372 H 402.458 -7.13681 2.49389 0
M  V30 4373 H 403.726 -7.66317 1.42755 0
M  V30 4374 N 407.956 -0.998596 -1.21925 0
M  V30 4375 C 408.886 -0.573688 -2.26343 0
M  V30 4376 C 409.867 0.402296 -1.65274 0
M  V30 4377 O 411.052 0.291683 -1.91997 0
M  V30 4378 C 408.182 0.106839 -3.47136 0
M  V30 4379 C 407.136 -0.788269 -4.20678 0
M  V30 4380 C 406.462 0.0254927 -5.34694 0
M  V30 4381 C 407.762 -2.08784 -4.78755 0
M  V30 4382 H 409.456 -1.44651 -2.62138 0
M  V30 4383 H 407.002 -0.696975 -1.26009 0
M  V30 4384 H 408.955 0.415531 -4.19346 0
M  V30 4385 H 407.679 1.01424 -3.10452 0
M  V30 4386 H 406.338 -1.08069 -3.50309 0
M  V30 4387 H 405.986 0.933989 -4.94253 0
M  V30 4388 H 405.686 -0.570437 -5.84825 0
M  V30 4389 H 407.21 0.328147 -6.09718 0
M  V30 4390 H 408.624 -1.84272 -5.42878 0
M  V30 4391 H 407.021 -2.63307 -5.39249 0
M  V30 4392 H 408.091 -2.76284 -3.98491 0
M  V30 4393 N 409.434 1.37368 -0.772513 0
M  V30 4394 C 410.364 2.32856 -0.173304 0
M  V30 4395 C 411.345 1.55818 0.682262 0
M  V30 4396 O 412.53 1.84052 0.619566 0
M  V30 4397 C 409.66 3.40048 0.706007 0
M  V30 4398 C 408.614 4.27973 -0.0483144 0
M  V30 4399 C 407.94 5.26184 0.950491 0
M  V30 4400 C 409.24 5.07665 -1.22776 0
M  V30 4401 H 410.934 2.83217 -0.971002 0
M  V30 4402 H 408.48 1.3617 -0.468377 0
M  V30 4403 H 410.433 4.05827 1.13501 0
M  V30 4404 H 409.157 2.88214 1.53623 0
M  V30 4405 H 407.816 3.63726 -0.458107 0
M  V30 4406 H 407.464 4.7063 1.77529 0
M  V30 4407 H 407.164 5.85872 0.450314 0
M  V30 4408 H 408.688 5.94838 1.37842 0
M  V30 4409 H 410.102 5.66578 -0.875366 0
M  V30 4410 H 408.499 5.76681 -1.66007 0
M  V30 4411 H 409.569 4.40294 -2.03149 0
M  V30 4412 N 410.912 0.523116 1.48665 0
M  V30 4413 C 412.158 -0.0134963 2.02796 0
M  V30 4414 C 412.491 -1.34582 1.40004 0
M  V30 4415 O 411.766 -1.86756 0.543381 0
M  V30 4416 C 412.049 -0.14276 3.59817 0
M  V30 4417 C 411.902 1.21425 4.331 0
M  V30 4418 C 413.221 -0.872856 4.31357 0
M  V30 4419 H 410.34 -0.00343074 0.736992 0
M  V30 4420 H 412.982 0.678816 1.7746 0
M  V30 4421 H 411.132 -0.732401 3.81534 0
M  V30 4422 H 412.804 1.84447 4.2282 0
M  V30 4423 H 411.047 1.79791 3.94788 0
M  V30 4424 H 411.718 1.07687 5.41394 0
M  V30 4425 H 414.194 -0.372555 4.14429 0
M  V30 4426 H 413.07 -0.932185 5.40927 0
M  V30 4427 H 413.331 -1.92161 3.98154 0
M  V30 4428 N 412.39 -1.55475 0.257931 0
M  V30 4429 C 413.63 -2.01112 -0.365129 0
M  V30 4430 C 413.994 -1.1423 -1.54323 0
M  V30 4431 O 415.195 -1.49371 -2.23477 0
M  V30 4432 C 413.466 -3.49353 -0.754117 0
M  V30 4433 S 415.025 -4.16992 -1.36614 0
M  V30 4434 H 411.843 -0.701737 -0.114397 0
M  V30 4435 H 414.445 -1.91855 0.375747 0
M  V30 4436 H 413.149 -4.10246 0.112441 0
M  V30 4437 H 412.68 -3.6256 -1.52689 0
M  V30 4438 H 414.695 -4.19191 -2.65505 0
M  V30 4439 N 413.868 0.0150385 -1.57593 0
M  V30 4440 C 414.816 1.02958 -2.08572 0
M  V30 4441 C 415.81 1.36554 -1.00246 0
M  V30 4442 O 417.016 1.35295 -1.18724 0
M  V30 4443 H 413.391 0.349619 -0.665786 0
M  V30 4444 H 415.362 0.573932 -2.92829 0
M  V30 4445 C 414.111 2.31752 -2.59203 0
M  V30 4446 H 413.434 2.06765 -3.42182 0
M  V30 4447 H 414.874 3.01053 -2.98568 0
M  V30 4448 C 413.333 3.01692 -1.49945 0
M  V30 4449 O 413.863 3.92083 -0.873704 0
M  V30 4450 N 412.069 2.6326 -1.23056 0
M  V30 4451 H 411.616 1.89838 -1.74125 0
M  V30 4452 H 411.574 3.10372 -0.501685 0
M  V30 4453 N 415.346 1.54954 0.287554 0
M  V30 4454 C 416.595 1.74081 1.01877 0
M  V30 4455 C 416.908 0.541135 1.87966 0
M  V30 4456 O 418.114 0.614491 2.64455 0
M  V30 4457 C 416.57 3.08042 1.86113 0
M  V30 4458 C 416.178 4.35531 1.04961 0
M  V30 4459 C 417.922 3.36523 2.58752 0
M  V30 4460 C 415.829 5.60538 1.88551 0
M  V30 4461 H 414.759 0.64884 0.384087 0
M  V30 4462 H 417.41 1.81426 0.275101 0
M  V30 4463 H 415.792 2.94696 2.64519 0
M  V30 4464 H 416.966 4.59751 0.31074 0
M  V30 4465 H 415.281 4.14085 0.43843 0
M  V30 4466 H 417.878 4.27122 3.21668 0
M  V30 4467 H 418.221 2.56 3.28283 0
M  V30 4468 H 418.754 3.50901 1.87386 0
M  V30 4469 H 415.493 6.43767 1.23466 0
M  V30 4470 H 415.013 5.40483 2.60074 0
M  V30 4471 H 416.692 5.98297 2.46273 0
M  V30 4472 N 416.824 -0.551391 1.4764 0
M  V30 4473 C 418.101 -1.31229 1.45046 0
M  V30 4474 C 418.481 -2.10563 0.150527 0
M  V30 4475 O 417.829 -2.11374 -0.867956 0
M  V30 4476 C 418.039 -2.21189 2.69956 0
M  V30 4477 C 419.387 -2.82021 3.1741 0
M  V30 4478 O 420.411 -2.31488 2.70724 0
M  V30 4479 O 419.27 -3.73885 3.98588 0
M  V30 4480 H 416.364 -0.591193 0.578291 0
M  V30 4481 H 418.91 -0.569813 1.59847 0
M  V30 4482 H 417.682 -1.62207 3.56096 0
M  V30 4483 H 417.305 -3.02722 2.57769 0
M  V30 4484 N 418.302 -1.35869 -0.798587 0
M  V30 4485 C 419.55 -1.29332 -1.55298 0
M  V30 4486 C 419.871 0.129729 -1.94568 0
M  V30 4487 O 419.141 1.06796 -1.6423 0
M  V30 4488 H 417.721 -0.475737 -0.57592 0
M  V30 4489 H 420.383 -1.70062 -0.952093 0
M  V30 4490 H 419.479 -1.91458 -2.46476 0
M  V30 4491 N 419.78 1.02168 -1.19998 0
M  V30 4492 C 421.02 1.77232 -1.01825 0
M  V30 4493 C 421.384 1.86833 0.442428 0
M  V30 4494 O 422.585 2.58293 0.744189 0
M  V30 4495 C 420.856 3.15601 -1.67722 0
M  V30 4496 S 422.415 4.06765 -1.64584 0
M  V30 4497 H 419.233 0.610021 -0.365233 0
M  V30 4498 H 421.835 1.22368 -1.52467 0
M  V30 4499 H 420.539 3.06235 -2.73218 0
M  V30 4500 H 420.07 3.7554 -1.17189 0
M  V30 4501 H 422.085 4.91586 -0.67511 0
M  V30 4502 N 421.258 1.00505 1.21394 0
M  V30 4503 C 422.188 0.585684 2.26035 0
M  V30 4504 C 423.169 -0.393525 1.65485 0
M  V30 4505 O 424.354 -0.281497 1.92149 0
M  V30 4506 C 421.484 -0.0884283 3.47187 0
M  V30 4507 C 420.438 0.810567 4.20254 0
M  V30 4508 C 419.764 0.00286382 5.347 0
M  V30 4509 C 421.064 2.1132 4.77641 0
M  V30 4510 H 422.758 1.46039 2.61368 0
M  V30 4511 H 420.304 0.703648 1.25638 0
M  V30 4512 H 422.257 -0.393286 4.19561 0
M  V30 4513 H 420.981 -0.997766 3.10986 0
M  V30 4514 H 419.64 1.09925 3.49731 0
M  V30 4515 H 419.288 -0.907765 4.94741 0
M  V30 4516 H 418.988 0.601444 5.84514 0
M  V30 4517 H 420.512 -0.295808 6.09883 0
M  V30 4518 H 421.926 1.87148 5.41893 0
M  V30 4519 H 420.323 2.66164 5.37845 0
M  V30 4520 H 421.393 2.78393 3.9702 0
M  V30 4521 N 422.737 -1.36956 0.779787 0
M  V30 4522 C 423.965 -2.03755 0.359398 0
M  V30 4523 C 424.38 -1.58807 -1.02106 0
M  V30 4524 O 423.737 -0.773024 -1.6532 0
M  V30 4525 C 423.788 -3.59251 0.402568 0
M  V30 4526 O 423.509 -4.02557 1.72858 0
M  V30 4527 C 425.01 -4.43291 -0.0284068 0
M  V30 4528 H 422.23 -0.654148 0.149437 0
M  V30 4529 H 424.774 -1.75128 1.05595 0
M  V30 4530 H 422.929 -3.86621 -0.245478 0
M  V30 4531 H 423.343 -4.97111 1.67275 0
M  V30 4532 H 424.817 -5.51975 0.0529466 0
M  V30 4533 H 425.294 -4.25719 -1.07982 0
M  V30 4534 H 425.9 -4.21163 0.591758 0
M  V30 4535 N 424.215 -0.530993 -1.48385 0
M  V30 4536 C 425.163 0.244595 -2.3131 0
M  V30 4537 C 426.157 0.93451 -1.41291 0
M  V30 4538 O 427.363 0.85878 -1.58193 0
M  V30 4539 H 423.738 0.0977472 -0.74562 0
M  V30 4540 H 425.709 -0.474369 -2.94605 0
M  V30 4541 C 424.458 1.2779 -3.23365 0
M  V30 4542 H 423.781 0.756439 -3.92579 0
M  V30 4543 H 425.221 1.79198 -3.84271 0
M  V30 4544 C 423.68 2.31205 -2.45042 0
M  V30 4545 O 424.21 3.37661 -2.17596 0
M  V30 4546 N 422.416 2.04446 -2.0652 0
M  V30 4547 H 421.963 1.17891 -2.2904 0
M  V30 4548 H 421.921 2.73861 -1.54427 0
M  V30 4549 N 425.693 1.55336 -0.266172 0
M  V30 4550 C 426.941 1.99003 0.35246 0
M  V30 4551 C 427.262 1.15591 1.57047 0
M  V30 4552 O 426.532 0.243268 1.94384 0
M  V30 4553 H 425.112 0.735025 0.133217 0
M  V30 4554 H 427.774 1.91367 -0.369434 0
M  V30 4555 H 426.87 3.05289 0.648453 0
M  V30 4556 N 427.171 -0.0066808 1.57599 0
M  V30 4557 C 428.121 -1.0086 2.04478 0
M  V30 4558 C 429.105 -1.30714 0.938231 0
M  V30 4559 O 430.297 -1.29924 1.20203 0
M  V30 4560 C 427.426 -2.30273 2.54615 0
M  V30 4561 C 426.512 -2.03413 3.72134 0
M  V30 4562 N 426.903 -1.46688 4.84062 0
M  V30 4563 C 425.201 -2.33589 3.79937 0
M  V30 4564 C 425.902 -1.36146 5.65543 0
M  V30 4565 N 424.878 -1.84477 5.1134 0
M  V30 4566 H 428.68 -0.564402 2.8843 0
M  V30 4567 H 426.194 -0.212521 1.61003 0
M  V30 4568 H 428.191 -3.02885 2.86472 0
M  V30 4569 H 426.851 -2.75352 1.72079 0
M  V30 4570 H 427.862 -1.14658 5.05049 0
M  V30 4571 H 424.539 -2.81589 3.08243 0
M  V30 4572 H 425.929 -0.925873 6.6549 0
M  V30 4573 N 428.649 -1.55105 -0.279332 0
M  V30 4574 C 429.898 -1.74618 -1.00952 0
M  V30 4575 C 430.211 -0.551096 -1.87676 0
M  V30 4576 O 431.417 -0.628507 -2.64125 0
M  V30 4577 C 429.873 -3.09025 -1.84476 0
M  V30 4578 C 429.481 -4.36081 -1.0265 0
M  V30 4579 C 431.225 -3.37891 -2.56963 0
M  V30 4580 C 429.132 -5.6153 -1.85576 0
M  V30 4581 H 428.062 -0.650868 -0.38064 0
M  V30 4582 H 430.713 -1.81569 -0.265475 0
M  V30 4583 H 429.095 -2.96095 -2.62952 0
M  V30 4584 H 430.269 -4.59909 -0.286354 0
M  V30 4585 H 428.584 -4.14312 -0.416464 0
M  V30 4586 H 431.181 -4.28822 -3.19399 0
M  V30 4587 H 431.524 -2.57737 -3.26921 0
M  V30 4588 H 432.057 -3.5189 -1.85522 0
M  V30 4589 H 428.796 -6.44413 -1.2005 0
M  V30 4590 H 428.316 -5.41854 -2.57204 0
M  V30 4591 H 429.995 -5.99594 -2.43096 0
M  V30 4592 N 430.127 0.543554 -1.4793 0
M  V30 4593 C 431.357 1.32324 -1.58663 0
M  V30 4594 C 431.765 1.8766 -0.240896 0
M  V30 4595 O 431.108 1.66411 0.778011 0
M  V30 4596 C 431.17 2.52094 -2.56299 0
M  V30 4597 C 430.834 2.17944 -4.01683 0
M  V30 4598 C 431.831 1.74422 -4.89768 0
M  V30 4599 C 429.516 2.28884 -4.47121 0
M  V30 4600 C 431.51 1.42287 -6.21316 0
M  V30 4601 C 429.197 1.96361 -5.78693 0
M  V30 4602 C 430.195 1.53132 -6.65612 0
M  V30 4603 O 429.883 1.21029 -7.94737 0
M  V30 4604 H 429.615 0.409174 -0.538101 0
M  V30 4605 H 432.169 0.663887 -1.94375 0
M  V30 4606 H 430.399 3.20965 -2.15681 0
M  V30 4607 H 432.088 3.14165 -2.57012 0
M  V30 4608 H 432.854 1.65452 -4.55907 0
M  V30 4609 H 428.733 2.61488 -3.79664 0
M  V30 4610 H 432.277 1.08472 -6.89115 0
M  V30 4611 H 428.174 2.04967 -6.12094 0
M  V30 4612 H 428.942 1.34543 -8.07366 0
M  V30 4613 N 431.605 1.3629 0.791371 0
M  V30 4614 C 432.851 1.30605 1.55146 0
M  V30 4615 C 433.184 -0.115042 1.93859 0
M  V30 4616 O 432.459 -1.06798 1.62556 0
M  V30 4617 C 432.742 2.22692 2.82985 0
M  V30 4618 C 432.595 3.73489 2.50651 0
M  V30 4619 C 433.914 2.13588 3.84796 0
M  V30 4620 H 431.033 0.475761 0.562868 0
M  V30 4621 H 433.675 1.66825 0.909358 0
M  V30 4622 H 431.825 1.91933 3.37778 0
M  V30 4623 H 433.497 4.14758 2.01924 0
M  V30 4624 H 431.74 3.93021 1.83622 0
M  V30 4625 H 432.411 4.3333 3.41949 0
M  V30 4626 H 434.887 2.40659 3.39445 0
M  V30 4627 H 433.763 2.80195 4.71998 0
M  V30 4628 H 434.024 1.12256 4.27611 0
M  V30 4629 N 433.083 -1.0153 1.20538 0
M  V30 4630 C 434.308 -1.79283 1.04271 0
M  V30 4631 C 434.733 -1.8372 -0.403544 0
M  V30 4632 O 434.091 -1.27321 -1.2907 0
M  V30 4633 C 434.139 -3.21535 1.63241 0
M  V30 4634 O 433.243 -4.03099 0.870908 0
M  V30 4635 H 432.584 -0.55293 0.367647 0
M  V30 4636 H 435.114 -1.27696 1.59859 0
M  V30 4637 H 435.124 -3.72243 1.6703 0
M  V30 4638 H 433.799 -3.1762 2.68497 0
M  V30 4639 H 432.376 -3.61693 0.907323 0
M  V30 4640 N 434.561 -1.01147 -1.20859 0
M  V30 4641 C 435.809 -0.696486 -1.89719 0
M  V30 4642 C 436.13 0.775788 -1.78904 0
M  V30 4643 O 435.4 1.55759 -1.18811 0
M  V30 4644 H 433.98 -0.254628 -0.702263 0
M  V30 4645 H 436.642 -1.28197 -1.46804 0
M  V30 4646 H 435.738 -0.975357 -2.96468 0
M  V30 4647 N 436.039 1.36541 -0.78704 0
M  V30 4648 C 437.316 1.9355 -0.282424 0
M  V30 4649 C 437.696 1.71919 1.22503 0
M  V30 4650 O 437.044 1.07677 2.01539 0
M  V30 4651 C 437.254 3.4246 -0.672462 0
M  V30 4652 C 438.602 4.19582 -0.650863 0
M  V30 4653 O 439.626 3.50889 -0.612789 0
M  V30 4654 O 438.485 5.42106 -0.691623 0
M  V30 4655 H 435.579 0.824091 -0.0693 0
M  V30 4656 H 438.125 1.45736 -0.869423 0
M  V30 4657 H 436.897 3.51851 -1.71221 0
M  V30 4658 H 436.52 3.97556 -0.0592211 0
M  V30 4659 N 437.518 0.538854 1.48102 0
M  V30 4660 C 438.45 -0.256278 2.27763 0
M  V30 4661 C 439.463 -0.89633 1.35904 0
M  V30 4662 O 440.652 -0.773275 1.60881 0
M  V30 4663 C 437.752 -1.37896 3.09577 0
M  V30 4664 C 436.925 -0.839159 4.29275 0
M  V30 4665 C 435.984 -1.84405 4.9283 0
M  V30 4666 O 435.01 -1.39746 5.51779 0
M  V30 4667 N 436.212 -3.17666 4.85869 0
M  V30 4668 H 438.977 0.426968 2.96643 0
M  V30 4669 H 436.538 0.373747 1.57527 0
M  V30 4670 H 438.53 -2.04955 3.48963 0
M  V30 4671 H 437.1 -1.96572 2.4306 0
M  V30 4672 H 436.32 0.00769287 3.94199 0
M  V30 4673 H 437.608 -0.457548 5.06739 0
M  V30 4674 H 437.006 -3.56609 4.39143 0
M  V30 4675 H 435.563 -3.80334 5.29329 0
M  V30 4676 N 438.996 -1.55193 0.274407 0
M  V30 4677 C 439.943 -2.225 -0.613374 0
M  V30 4678 C 440.913 -1.19823 -1.15029 0
M  V30 4679 O 442.098 -1.48362 -1.19973 0
M  V30 4680 C 439.238 -2.94927 -1.79199 0
M  V30 4681 C 438.351 -4.12322 -1.28899 0
M  V30 4682 C 437.486 -4.72394 -2.42934 0
M  V30 4683 C 436.525 -5.81984 -1.89634 0
M  V30 4684 N 435.662 -6.36123 -2.9714 0
M  V30 4685 H 440.502 -2.97982 -0.032756 0
M  V30 4686 H 438.039 -1.47099 -0.00440146 0
M  V30 4687 H 439.997 -3.35134 -2.48478 0
M  V30 4688 H 438.627 -2.2187 -2.34465 0
M  V30 4689 H 437.679 -3.7724 -0.489327 0
M  V30 4690 H 438.991 -4.91355 -0.858587 0
M  V30 4691 H 438.145 -5.15317 -3.20208 0
M  V30 4692 H 436.884 -3.92636 -2.8929 0
M  V30 4693 H 435.889 -5.38511 -1.1084 0
M  V30 4694 H 437.114 -6.6361 -1.44215 0
M  V30 4695 H 435.06 -5.59259 -3.42878 0
M  V30 4696 H 434.977 -7.10427 -2.58515 0
M  V30 4697 H 436.245 -6.83704 -3.74391 0
M  V30 4698 N 440.474 -0.00167713 -1.576 0
M  V30 4699 C 441.384 1.00548 -2.1196 0
M  V30 4700 C 442.4 1.3758 -1.06526 0
M  V30 4701 O 443.576 1.46278 -1.38436 0
M  V30 4702 C 440.641 2.27809 -2.6135 0
M  V30 4703 C 439.702 1.97074 -3.81393 0
M  V30 4704 C 438.935 3.18267 -4.28417 0
M  V30 4705 O 439.158 4.30009 -3.74765 0
M  V30 4706 O 438.092 3.02167 -5.20556 0
M  V30 4707 H 441.918 0.573373 -2.98238 0
M  V30 4708 H 439.503 0.217255 -1.47812 0
M  V30 4709 H 441.385 3.02568 -2.93309 0
M  V30 4710 H 440.06 2.70254 -1.78169 0
M  V30 4711 H 438.967 1.19785 -3.54404 0
M  V30 4712 H 440.3 1.59464 -4.65652 0
M  V30 4713 N 441.952 1.55251 0.271103 0
M  V30 4714 C 443.201 1.75151 1.00025 0
M  V30 4715 C 443.514 0.561041 1.87381 0
M  V30 4716 O 444.72 0.642506 2.63788 0
M  V30 4717 C 443.176 3.09999 1.82835 0
M  V30 4718 C 442.784 4.3662 1.00336 0
M  V30 4719 C 444.528 3.39249 2.55168 0
M  V30 4720 C 442.435 5.62506 1.82595 0
M  V30 4721 H 441.365 0.652877 0.377183 0
M  V30 4722 H 444.016 1.81708 0.255843 0
M  V30 4723 H 442.398 2.97485 2.61378 0
M  V30 4724 H 443.572 4.60055 0.261959 0
M  V30 4725 H 441.887 4.14527 0.394486 0
M  V30 4726 H 444.484 4.3051 3.1712 0
M  V30 4727 H 444.827 2.59467 3.2555 0
M  V30 4728 H 445.36 3.52869 1.83653 0
M  V30 4729 H 442.099 6.45041 1.16631 0
M  V30 4730 H 441.619 5.43211 2.54327 0
M  V30 4731 H 443.298 6.00875 2.39913 0
M  V30 4732 N 443.43 -0.535701 1.48216 0
M  V30 4733 C 444.679 -1.28828 1.55197 0
M  V30 4734 C 444.992 -1.94263 0.228278 0
M  V30 4735 O 446.198 -2.70927 0.176278 0
M  V30 4736 C 444.654 -2.33727 2.73678 0
M  V30 4737 C 444.262 -1.74386 4.12666 0
M  V30 4738 C 446.006 -3.1003 2.89968 0
M  V30 4739 C 443.913 -2.77192 5.22416 0
M  V30 4740 H 442.843 -0.484484 0.577747 0
M  V30 4741 H 445.494 -0.56646 1.74538 0
M  V30 4742 H 443.876 -3.08919 2.4776 0
M  V30 4743 H 445.05 -1.05421 4.48579 0
M  V30 4744 H 443.365 -1.10595 4.01445 0
M  V30 4745 H 445.962 -3.86842 3.6913 0
M  V30 4746 H 446.305 -3.65542 1.9921 0
M  V30 4747 H 446.838 -2.41952 3.15759 0
M  V30 4748 H 443.577 -2.26507 6.15122 0
M  V30 4749 H 443.097 -3.44502 4.90998 0
M  V30 4750 H 444.776 -3.40285 5.50286 0
M  V30 4751 N 444.908 -1.36708 -0.784132 0
M  V30 4752 C 446.133 -1.34565 -1.5782 0
M  V30 4753 C 446.558 0.0695257 -1.87971 0
M  V30 4754 O 445.916 1.04302 -1.48293 0
M  V30 4755 C 445.964 -2.17952 -2.87279 0
M  V30 4756 O 445.068 -1.57563 -3.81114 0
M  V30 4757 H 444.409 -0.460337 -0.478524 0
M  V30 4758 H 446.939 -1.80064 -0.971495 0
M  V30 4759 H 446.949 -2.30721 -3.365 0
M  V30 4760 H 445.624 -3.20823 -2.64661 0
M  V30 4761 H 444.201 -1.53764 -3.39722 0
M  V30 4762 N 446.386 1.0089 -1.21074 0
M  V30 4763 C 447.616 1.77933 -1.04993 0
M  V30 4764 C 448.024 1.84847 0.403495 0
M  V30 4765 O 447.367 1.30606 1.29181 0
M  V30 4766 C 447.429 3.23541 -1.56722 0
M  V30 4767 C 447.093 3.40214 -3.05129 0
M  V30 4768 C 448.09 3.2881 -4.02716 0
M  V30 4769 C 445.775 3.65781 -3.44252 0
M  V30 4770 C 447.769 3.42732 -5.37414 0
M  V30 4771 C 445.456 3.79346 -4.79103 0
M  V30 4772 C 446.454 3.67827 -5.75493 0
M  V30 4773 O 446.142 3.80965 -7.07899 0
M  V30 4774 H 445.874 0.566157 -0.369381 0
M  V30 4775 H 448.428 1.27826 -1.60779 0
M  V30 4776 H 446.658 3.74766 -0.953285 0
M  V30 4777 H 448.347 3.82245 -1.36543 0
M  V30 4778 H 449.113 3.08986 -3.73835 0
M  V30 4779 H 444.992 3.73831 -2.69762 0
M  V30 4780 H 448.536 3.33658 -6.12632 0
M  V30 4781 H 444.433 3.98672 -5.07672 0
M  V30 4782 H 445.201 3.97937 -7.15254 0
M  V30 4783 N 447.864 1.01787 1.20321 0
M  V30 4784 C 449.141 0.622978 1.85414 0
M  V30 4785 C 449.521 -0.898887 1.91006 0
M  V30 4786 O 448.869 -1.79112 1.41884 0
M  V30 4787 C 449.079 1.27226 3.24984 0
M  V30 4788 C 450.427 1.3885 4.01255 0
M  V30 4789 O 451.451 1.22857 3.34342 0
M  V30 4790 O 450.31 1.64705 5.2109 0
M  V30 4791 H 447.404 0.215116 0.798533 0
M  V30 4792 H 449.95 1.11533 1.27901 0
M  V30 4793 H 448.722 2.31209 3.15687 0
M  V30 4794 H 448.345 0.767069 3.90131 0
M  V30 4795 N 449.342 -1.36122 0.79427 0
M  V30 4796 C 450.588 -1.99406 0.369452 0
M  V30 4797 C 450.921 -1.62886 -1.05743 0
M  V30 4798 O 450.196 -0.886053 -1.73145 0
M  V30 4799 C 450.479 -3.56046 0.538833 0
M  V30 4800 C 450.332 -4.02404 2.00976 0
M  V30 4801 C 451.651 -4.40079 -0.0431359 0
M  V30 4802 H 448.77 -0.724397 0.135712 0
M  V30 4803 H 451.412 -1.61461 1.00151 0
M  V30 4804 H 449.562 -3.885 0.000771004 0
M  V30 4805 H 451.234 -3.80415 2.60926 0
M  V30 4806 H 449.477 -3.53765 2.51063 0
M  V30 4807 H 450.148 -5.11344 2.07922 0
M  V30 4808 H 452.624 -4.14013 0.416228 0
M  V30 4809 H 451.5 -5.48799 0.105374 0
M  V30 4810 H 451.761 -4.27264 -1.13571 0
M  V30 4811 N 450.82 -0.546701 -1.47814 0
M  V30 4812 C 451.767 0.206854 -2.29871 0
M  V30 4813 C 452.737 0.918235 -1.38411 0
M  V30 4814 O 453.922 0.915991 -1.67375 0
M  V30 4815 C 451.062 1.23746 -3.22151 0
M  V30 4816 C 450.175 0.533216 -4.28697 0
M  V30 4817 C 449.31 1.5482 -5.08138 0
M  V30 4818 C 448.349 0.828347 -6.06469 0
M  V30 4819 N 447.486 1.78966 -6.78908 0
M  V30 4820 H 452.326 -0.499037 -2.93792 0
M  V30 4821 H 449.863 -0.25793 -1.44821 0
M  V30 4822 H 451.821 1.84746 -3.74065 0
M  V30 4823 H 450.451 1.91151 -2.60117 0
M  V30 4824 H 449.503 -0.191089 -3.7992 0
M  V30 4825 H 450.815 -0.0311987 -4.9879 0
M  V30 4826 H 449.969 2.23202 -5.6415 0
M  V30 4827 H 448.708 2.14652 -4.37922 0
M  V30 4828 H 447.713 0.130539 -5.49645 0
M  V30 4829 H 448.938 0.235907 -6.7869 0
M  V30 4830 H 446.884 2.37675 -6.1143 0
M  V30 4831 H 446.801 1.27712 -7.45135 0
M  V30 4832 H 448.069 2.46496 -7.395 0
M  V30 4833 N 452.299 1.55045 -0.282633 0
M  V30 4834 C 453.576 1.9179 0.384166 0
M  V30 4835 C 453.956 1.20778 1.73136 0
M  V30 4836 O 453.304 0.33719 2.25998 0
M  V30 4837 C 453.514 3.45149 0.517014 0
M  V30 4838 C 454.862 4.17064 0.796427 0
M  V30 4839 O 455.886 3.51084 0.601535 0
M  V30 4840 O 454.745 5.33837 1.16962 0
M  V30 4841 H 451.839 0.799483 0.211558 0
M  V30 4842 H 454.385 1.66474 -0.32934 0
M  V30 4843 H 453.157 3.88922 -0.430772 0
M  V30 4844 H 452.78 3.76443 1.2797 0
M  V30 4845 N 453.777 0.010035 1.57597 0
M  V30 4846 C 454.74 -0.963029 2.07986 0
M  V30 4847 C 455.74 -1.26619 0.991173 0
M  V30 4848 O 456.93 -1.2097 1.25347 0
M  V30 4849 C 454.062 -2.2851 2.52974 0
M  V30 4850 H 455.255 -0.526971 2.95234 0
M  V30 4851 H 452.808 -0.237639 1.54483 0
M  V30 4852 H 453.543 -2.76784 1.69 0
M  V30 4853 H 453.328 -2.07824 3.32493 0
M  V30 4854 H 454.818 -2.98294 2.9225 0
M  V30 4855 N 455.255 -1.55392 -0.262866 0
M  V30 4856 C 456.504 -1.75679 -0.990943 0
M  V30 4857 C 456.817 -0.57097 -1.87081 0
M  V30 4858 O 458.023 -0.656486 -2.63444 0
M  V30 4859 C 456.479 -3.10964 -1.81188 0
M  V30 4860 C 456.087 -4.37146 -0.980188 0
M  V30 4861 C 457.831 -3.40597 -2.53365 0
M  V30 4862 C 455.738 -5.63466 -1.7961 0
M  V30 4863 H 454.668 -0.654868 -0.373716 0
M  V30 4864 H 457.319 -1.81841 -0.246203 0
M  V30 4865 H 455.701 -2.98867 -2.59797 0
M  V30 4866 H 456.875 -4.60187 -0.237558 0
M  V30 4867 H 455.19 -4.14731 -0.372497 0
M  V30 4868 H 457.787 -4.32186 -3.14833 0
M  V30 4869 H 458.13 -2.6119 -3.24169 0
M  V30 4870 H 458.663 -3.53838 -1.81779 0
M  V30 4871 H 455.402 -6.4565 -1.13209 0
M  V30 4872 H 454.922 -5.44552 -2.51443 0
M  V30 4873 H 456.601 -6.02139 -2.36723 0
M  V30 4874 N 456.733 0.527833 -1.48498 0
M  V30 4875 C 457.981 1.28101 -1.56316 0
M  V30 4876 C 458.302 1.9352 -0.239781 0
M  V30 4877 O 457.572 1.81433 0.738849 0
M  V30 4878 H 456.152 0.475793 -0.575873 0
M  V30 4879 H 458.814 0.614052 -1.84974 0
M  V30 4880 H 457.91 2.05916 -2.34532 0
M  V30 4881 N 458.211 1.37122 0.776871 0
M  V30 4882 C 459.46 1.31373 1.53049 0
M  V30 4883 C 459.773 -0.101016 1.95339 0
M  V30 4884 O 460.979 -0.280953 2.70042 0
M  V30 4885 C 459.435 2.30567 2.76346 0
M  V30 4886 C 459.043 3.77543 2.41175 0
M  V30 4887 C 460.787 2.33818 3.54301 0
M  V30 4888 C 458.694 4.68481 3.60943 0
M  V30 4889 H 457.624 0.488234 0.574581 0
M  V30 4890 H 460.275 1.62554 0.851372 0
M  V30 4891 H 458.657 1.92396 3.46121 0
M  V30 4892 H 459.831 4.24521 1.79216 0
M  V30 4893 H 458.146 3.77187 1.76405 0
M  V30 4894 H 460.743 2.98965 4.4331 0
M  V30 4895 H 461.086 1.3503 3.93793 0
M  V30 4896 H 461.619 2.7067 2.91518 0
M  V30 4897 H 458.358 5.68378 3.26537 0
M  V30 4898 H 457.878 4.2621 4.22025 0
M  V30 4899 H 459.557 4.85366 4.27819 0
M  V30 4900 N 459.689 -1.00246 1.21608 0
M  V30 4901 C 460.914 -1.78167 1.06167 0
M  V30 4902 C 461.339 -1.84138 -0.384035 0
M  V30 4903 O 460.697 -1.28683 -1.27712 0
M  V30 4904 C 460.745 -3.19786 1.66642 0
M  V30 4905 O 459.849 -4.02153 0.913613 0
M  V30 4906 H 459.19 -0.549 0.37349 0
M  V30 4907 H 461.72 -1.25994 1.61204 0
M  V30 4908 H 461.73 -3.70451 1.70969 0
M  V30 4909 H 460.405 -3.14754 2.7185 0
M  V30 4910 H 458.982 -3.60711 0.945635 0
M  V30 4911 N 461.167 -1.02423 -1.1978 0
M  V30 4912 C 462.097 -0.62157 -2.25075 0
M  V30 4913 C 463.078 0.367148 -1.6609 0
M  V30 4914 O 464.263 0.250892 -1.92573 0
M  V30 4915 C 461.393 0.0331826 -3.47284 0
M  V30 4916 C 460.347 -0.877323 -4.18912 0
M  V30 4917 C 459.673 -0.0879296 -5.34628 0
M  V30 4918 C 460.973 -2.18892 -4.74219 0
M  V30 4919 H 462.667 -1.50179 -2.59011 0
M  V30 4920 H 460.213 -0.723547 -1.24502 0
M  V30 4921 H 462.166 0.326488 -4.20133 0
M  V30 4922 H 460.89 0.948164 -3.12534 0
M  V30 4923 H 459.549 -1.15475 -3.47938 0
M  V30 4924 H 459.197 0.828941 -4.96123 0
M  V30 4925 H 458.897 -0.694359 -5.83483 0
M  V30 4926 H 460.421 0.198743 -6.10276 0
M  V30 4927 H 461.835 -1.95746 -5.38847 0
M  V30 4928 H 460.232 -2.74686 -5.33542 0
M  V30 4929 H 461.302 -2.84674 -3.92541 0
M  V30 4930 N 462.645 1.35699 -0.801477 0
M  V30 4931 C 463.575 2.32436 -0.222658 0
M  V30 4932 C 464.556 1.5723 0.649057 0
M  V30 4933 O 465.741 1.85324 0.580387 0
M  V30 4934 C 462.871 3.41469 0.633719 0
M  V30 4935 C 461.825 4.27774 -0.139083 0
M  V30 4936 C 461.151 5.28082 0.838666 0
M  V30 4937 C 462.451 5.04946 -1.33517 0
M  V30 4938 H 464.145 2.81094 -1.03086 0
M  V30 4939 H 461.691 1.35146 -0.497155 0
M  V30 4940 H 463.644 4.08143 1.04868 0
M  V30 4941 H 462.368 2.91408 1.47475 0
M  V30 4942 H 461.027 3.62673 -0.535156 0
M  V30 4943 H 460.675 4.7429 1.67506 0
M  V30 4944 H 460.375 5.86695 0.32594 0
M  V30 4945 H 461.899 5.97628 1.25194 0
M  V30 4946 H 463.313 5.64593 -0.995349 0
M  V30 4947 H 461.71 5.7303 -1.78202 0
M  V30 4948 H 462.78 4.35886 -2.12442 0
M  V30 4949 N 464.123 0.554532 1.47522 0
M  V30 4950 C 465.07 -0.19466 2.29978 0
M  V30 4951 C 466.04 -0.910882 1.38896 0
M  V30 4952 O 467.225 -0.907102 1.67858 0
M  V30 4953 C 464.365 -1.22035 3.22802 0
M  V30 4954 C 463.478 -0.510474 4.28973 0
M  V30 4955 C 462.613 -1.52123 5.08952 0
M  V30 4956 C 461.652 -0.796173 6.069 0
M  V30 4957 N 460.789 -1.75363 6.79847 0
M  V30 4958 H 465.629 0.51461 2.93523 0
M  V30 4959 H 463.166 0.265607 1.44682 0
M  V30 4960 H 465.124 -1.8276 3.7504 0
M  V30 4961 H 463.754 -1.89769 2.61127 0
M  V30 4962 H 462.806 0.211234 3.79813 0
M  V30 4963 H 464.118 0.0576503 4.98767 0
M  V30 4964 H 463.272 -2.20207 5.65326 0
M  V30 4965 H 462.011 -2.12327 4.39054 0
M  V30 4966 H 461.016 -0.101388 5.49707 0
M  V30 4967 H 462.241 -0.199911 6.78806 0
M  V30 4968 H 460.187 -2.3443 6.12682 0
M  V30 4969 H 460.104 -1.23759 7.45801 0
M  V30 4970 H 461.372 -2.4257 7.40797 0
M  V30 4971 N 465.601 -1.54893 0.290851 0
M  V30 4972 C 466.548 -2.23138 -0.58974 0
M  V30 4973 C 467.518 -1.21036 -1.13752 0
M  V30 4974 O 468.703 -1.49626 -1.18392 0
M  V30 4975 C 465.843 -2.96811 -1.76061 0
M  V30 4976 C 464.956 -4.13665 -1.24519 0
M  V30 4977 C 464.091 -4.74944 -2.3791 0
M  V30 4978 C 463.13 -5.83963 -1.83451 0
M  V30 4979 N 462.267 -6.39239 -2.90376 0
M  V30 4980 H 467.107 -2.98 -0.00114915 0
M  V30 4981 H 464.644 -1.47096 0.0112006 0
M  V30 4982 H 466.602 -3.37751 -2.44909 0
M  V30 4983 H 465.232 -2.24344 -2.32098 0
M  V30 4984 H 464.284 -3.77737 -0.449288 0
M  V30 4985 H 465.596 -4.92238 -0.806424 0
M  V30 4986 H 464.75 -5.18684 -3.14724 0
M  V30 4987 H 463.489 -3.95682 -2.85109 0
M  V30 4988 H 462.494 -5.39657 -1.05122 0
M  V30 4989 H 463.719 -6.65103 -1.37169 0
M  V30 4990 H 461.665 -5.62864 -3.36927 0
M  V30 4991 H 461.582 -7.13129 -2.50965 0
M  V30 4992 H 462.85 -6.87637 -3.67118 0
M  V30 4993 N 467.08 -0.0183926 -1.57589 0
M  V30 4994 C 468.305 0.676634 -1.96052 0
M  V30 4995 C 468.73 1.6548 -0.894307 0
M  V30 4996 O 468.088 1.80712 0.145849 0
M  V30 4997 C 468.136 1.36872 -3.33614 0
M  V30 4998 O 467.24 2.48372 -3.29219 0
M  V30 4999 H 466.581 0.1786 -0.63953 0
M  V30 5000 H 469.111 -0.077056 -2.04455 0
M  V30 5001 H 469.121 1.72797 -3.69601 0
M  V30 5002 H 467.796 0.651636 -4.10763 0
M  V30 5003 H 466.373 2.14639 -3.04934 0
M  V30 5004 N 468.558 1.5553 0.254621 0
M  V30 5005 C 469.806 1.7665 0.981793 0
M  V30 5006 C 470.127 0.580963 1.86145 0
M  V30 5007 O 469.397 -0.403537 1.91699 0
M  V30 5008 H 467.977 0.651475 0.365498 0
M  V30 5009 H 470.639 1.92958 0.274426 0
M  V30 5010 H 469.735 2.67486 1.60802 0
M  V30 5011 N 470.036 -0.519951 1.48776 0
M  V30 5012 C 471.285 -1.27175 1.56555 0
M  V30 5013 C 471.598 -1.9401 0.248869 0
M  V30 5014 O 472.804 -2.70725 0.205004 0
M  V30 5015 C 471.26 -2.30811 2.76142 0
M  V30 5016 C 470.868 -1.7 4.14493 0
M  V30 5017 C 472.612 -3.06937 2.9324 0
M  V30 5018 C 470.519 -2.71635 5.25327 0
M  V30 5019 H 469.449 -0.478329 0.582853 0
M  V30 5020 H 472.1 -0.547916 1.75129 0
M  V30 5021 H 470.482 -3.06274 2.51023 0
M  V30 5022 H 471.656 -1.00658 4.49672 0
M  V30 5023 H 469.971 -1.06331 4.02595 0
M  V30 5024 H 472.568 -3.82905 3.73213 0
M  V30 5025 H 472.911 -3.63409 2.03075 0
M  V30 5026 H 473.444 -2.38589 3.18308 0
M  V30 5027 H 470.183 -2.1997 6.1749 0
M  V30 5028 H 469.703 -3.39275 4.94624 0
M  V30 5029 H 471.382 -3.34429 5.53865 0
M  V30 5030 N 471.514 -1.37532 -0.769588 0
M  V30 5031 C 472.424 -1.35668 -1.91393 0
M  V30 5032 C 473.44 -0.255954 -1.72107 0
M  V30 5033 O 474.616 -0.491704 -1.95305 0
M  V30 5034 C 471.681 -1.16481 -3.26547 0
M  V30 5035 C 470.742 -2.36212 -3.58472 0
M  V30 5036 C 469.975 -2.17932 -4.87177 0
M  V30 5037 O 470.198 -1.1647 -5.58382 0
M  V30 5038 O 469.132 -3.06167 -5.18214 0
M  V30 5039 H 472.958 -2.32055 -1.95918 0
M  V30 5040 H 470.543 -1.18284 -0.912641 0
M  V30 5041 H 472.425 -1.07778 -4.07384 0
M  V30 5042 H 471.1 -0.231687 -3.2287 0
M  V30 5043 H 470.007 -2.50488 -2.77861 0
M  V30 5044 H 471.34 -3.281 -3.66894 0
M  V30 5045 N 472.992 0.995999 -1.22138 0
M  V30 5046 C 474.238 1.73767 -1.04561 0
M  V30 5047 C 474.571 1.89633 0.418698 0
M  V30 5048 O 473.846 1.43723 1.3105 0
M  V30 5049 C 474.129 3.14505 -1.75382 0
M  V30 5050 C 473.982 3.06306 -3.29388 0
M  V30 5051 C 475.301 4.13615 -1.50369 0
M  V30 5052 H 472.42 0.630728 -0.38125 0
M  V30 5053 H 475.062 1.16057 -1.50435 0
M  V30 5054 H 473.212 3.63775 -1.36383 0
M  V30 5055 H 474.884 2.64681 -3.77812 0
M  V30 5056 H 473.127 2.43186 -3.59226 0
M  V30 5057 H 473.798 4.05884 -3.74116 0
M  V30 5058 H 476.274 3.73089 -1.84239 0
M  V30 5059 H 475.15 5.10212 -2.02421 0
M  V30 5060 H 475.411 4.39949 -0.435611 0
M  V30 5061 N 474.47 1.03057 1.19235 0
M  V30 5062 C 475.886 0.747947 1.40989 0
M  V30 5063 C 476.086 -0.666752 1.90149 0
M  V30 5064 O 475.142 -1.43249 2.07933 0
M  V30 5065 C 476.455 1.7855 2.41951 0
M  V30 5066 C 478.003 1.80524 2.55695 0
M  V30 5067 C 478.478 2.83243 3.59913 0
M  V30 5068 N 479.969 2.8207 3.67411 0
M  V30 5069 C 480.704 3.58204 4.47747 0
M  V30 5070 N 480.2 4.44057 5.31775 0
M  V30 5071 N 481.993 3.46738 4.42413 0
M  V30 5072 H 474.144 1.94367 0.856468 0
M  V30 5073 H 476.407 0.840412 0.438647 0
M  V30 5074 H 476.113 2.79973 2.12857 0
M  V30 5075 H 475.987 1.6092 3.41152 0
M  V30 5076 H 478.374 0.79778 2.84112 0
M  V30 5077 H 478.455 2.02229 1.56643 0
M  V30 5078 H 478.099 3.84161 3.32239 0
M  V30 5079 H 478.029 2.58795 4.5862 0
M  V30 5080 H 480.52 2.19803 3.074 0
M  V30 5081 H 480.833 4.98884 5.90199 0
M  V30 5082 H 479.178 4.48129 5.3123 0
M  V30 5083 H 482.369 2.79077 3.75811 0
M  V30 5084 H 482.542 4.06322 5.04783 0
M  V30 5085 N 475.948 -1.35272 0.808662 0
M  V30 5086 C 476.878 -2.32315 0.234981 0
M  V30 5087 C 477.859 -1.57572 -0.64071 0
M  V30 5088 O 479.044 -1.8563 -0.570551 0
M  V30 5089 C 476.174 -3.41801 -0.615601 0
M  V30 5090 C 475.128 -4.27694 0.161767 0
M  V30 5091 C 474.454 -5.28519 -0.810649 0
M  V30 5092 C 475.754 -5.04231 1.36193 0
M  V30 5093 H 477.448 -2.80543 1.04575 0
M  V30 5094 H 474.994 -1.3488 0.504315 0
M  V30 5095 H 476.947 -4.08693 -1.02702 0
M  V30 5096 H 475.671 -2.92186 -1.45928 0
M  V30 5097 H 474.33 -3.62384 0.554382 0
M  V30 5098 H 473.978 -4.75171 -1.64988 0
M  V30 5099 H 473.678 -5.8686 -0.294822 0
M  V30 5100 H 475.202 -5.98283 -1.22023 0
M  V30 5101 H 476.616 -5.64058 1.02528 0
M  V30 5102 H 475.013 -5.72077 1.81239 0
M  V30 5103 H 476.083 -4.34753 2.14751 0
M  V30 5104 N 477.426 -0.562348 -1.47226 0
M  V30 5105 C 478.675 -0.038041 -2.01664 0
M  V30 5106 C 478.988 1.32199 -1.44162 0
M  V30 5107 O 480.194 1.9365 -1.90294 0
M  V30 5108 C 478.65 -0.0174958 -3.59896 0
M  V30 5109 C 478.258 -1.3746 -4.2639 0
M  V30 5110 C 480.002 0.453934 -4.22066 0
M  V30 5111 C 477.909 -1.31289 -5.76643 0
M  V30 5112 H 476.839 -0.0104511 -0.753928 0
M  V30 5113 H 479.49 -0.710966 -1.69167 0
M  V30 5114 H 477.872 0.721182 -3.89378 0
M  V30 5115 H 479.046 -2.1314 -4.08544 0
M  V30 5116 H 477.361 -1.78438 -3.7623 0
M  V30 5117 H 479.958 0.518584 -5.32179 0
M  V30 5118 H 480.301 1.46706 -3.89594 0
M  V30 5119 H 480.834 -0.230044 -3.97134 0
M  V30 5120 H 477.573 -2.30217 -6.13743 0
M  V30 5121 H 477.093 -0.597973 -5.96812 0
M  V30 5122 H 478.772 -1.01713 -6.38955 0
M  V30 5123 N 478.904 1.54736 -0.299062 0
M  V30 5124 C 480.129 2.04975 0.316254 0
M  V30 5125 C 480.554 1.17501 1.46885 0
M  V30 5126 O 479.912 0.178678 1.80417 0
M  V30 5127 C 479.96 3.52672 0.751997 0
M  V30 5128 O 479.064 3.68226 1.85697 0
M  V30 5129 H 478.405 0.661126 0.0617175 0
M  V30 5130 H 480.935 1.99805 -0.440341 0
M  V30 5131 H 480.945 3.94488 1.04133 0
M  V30 5132 H 479.62 4.158 -0.0911482 0
M  V30 5133 H 478.197 3.38316 1.56834 0
M  V30 5134 N 480.382 0.0267497 1.57577 0
M  V30 5135 C 481.292 -0.971633 2.13533 0
M  V30 5136 C 482.308 -1.35868 1.08701 0
M  V30 5137 O 483.484 -1.44058 1.40746 0
M  V30 5138 C 480.549 -2.23622 2.64941 0
M  V30 5139 C 479.61 -1.90982 3.8448 0
M  V30 5140 C 478.843 -3.11411 4.33427 0
M  V30 5141 O 479.066 -4.23992 3.81558 0
M  V30 5142 O 478 -2.93848 5.25297 0
M  V30 5143 H 481.826 -0.525853 2.99113 0
M  V30 5144 H 479.411 -0.193712 1.48139 0
M  V30 5145 H 481.293 -2.97864 2.98086 0
M  V30 5146 H 479.968 -2.67386 1.82446 0
M  V30 5147 H 478.875 -1.14132 3.56265 0
M  V30 5148 H 480.208 -1.52036 4.6813 0
M  V30 5149 N 481.861 -1.55662 -0.24637 0
M  V30 5150 C 483.277 -1.48098 -0.594907 0
M  V30 5151 C 483.477 -0.717044 -1.8831 0
M  V30 5152 O 482.533 -0.246618 -2.51293 0
M  V30 5153 C 483.846 -2.92507 -0.697146 0
M  V30 5154 C 485.394 -3.02881 -0.789436 0
M  V30 5155 C 485.869 -4.48598 -0.923232 0
M  V30 5156 N 487.36 -4.52538 -0.988088 0
M  V30 5157 C 488.095 -5.62536 -1.11089 0
M  V30 5158 N 487.591 -6.82342 -1.19919 0
M  V30 5159 N 489.384 -5.50334 -1.14408 0
M  V30 5160 H 481.535 -2.0377 0.599278 0
M  V30 5161 H 483.798 -0.925145 0.20691 0
M  V30 5162 H 483.504 -3.51242 0.179396 0
M  V30 5163 H 483.378 -3.43024 -1.5689 0
M  V30 5164 H 485.765 -2.44226 -1.65643 0
M  V30 5165 H 485.846 -2.55574 0.107482 0
M  V30 5166 H 485.49 -5.07864 -0.0607927 0
M  V30 5167 H 485.42 -4.93587 -1.8352 0
M  V30 5168 H 487.911 -3.66248 -0.931167 0
M  V30 5169 H 488.224 -7.61924 -1.29197 0
M  V30 5170 H 486.569 -6.85102 -1.16876 0
M  V30 5171 H 489.76 -4.5567 -1.07158 0
M  V30 5172 H 489.933 -6.36096 -1.23634 0
M  V30 5173 N 483.339 0.512053 -1.4905 0
M  V30 5174 C 484.302 1.59704 -1.64399 0
M  V30 5175 C 485.302 1.52285 -0.516317 0
M  V30 5176 O 486.492 1.55635 -0.782527 0
M  V30 5177 C 483.624 2.9935 -1.63102 0
M  V30 5178 H 484.817 1.47428 -2.61161 0
M  V30 5179 H 482.37 0.735469 -1.37915 0
M  V30 5180 H 483.105 3.17116 -0.678836 0
M  V30 5181 H 482.89 3.06144 -2.44986 0
M  V30 5182 H 484.38 3.782 -1.77072 0
M  V30 5183 N 484.817 1.37938 0.762283 0
M  V30 5184 C 486.057 1.35076 1.53407 0
M  V30 5185 C 486.421 -0.061546 1.91901 0
M  V30 5186 O 487.622 -0.214973 2.67939 0
M  V30 5187 C 485.893 2.27206 2.75884 0
M  V30 5188 S 487.452 2.42283 3.65848 0
M  V30 5189 H 484.27 0.479387 0.52508 0
M  V30 5190 H 486.872 1.7378 0.895586 0
M  V30 5191 H 485.576 3.28724 2.457 0
M  V30 5192 H 485.107 1.8962 3.44685 0
M  V30 5193 H 487.122 1.64044 4.68299 0
M  V30 5194 N 486.295 -0.989507 1.22664 0
M  V30 5195 C 487.52 -1.77031 1.08051 0
M  V30 5196 C 487.945 -1.84535 -0.364483 0
M  V30 5197 O 487.303 -1.3003 -1.2634 0
M  V30 5198 C 487.351 -3.18 1.70024 0
M  V30 5199 O 486.455 -4.01161 0.956216 0
M  V30 5200 H 485.796 -0.545008 0.379292 0
M  V30 5201 H 488.326 -1.24277 1.62531 0
M  V30 5202 H 488.336 -3.68616 1.74888 0
M  V30 5203 H 487.011 -3.11853 2.75174 0
M  V30 5204 H 485.588 -3.59687 0.98384 0
M  V30 5205 N 487.773 -1.03688 -1.18687 0
M  V30 5206 C 488.72 -0.624624 -2.22187 0
M  V30 5207 C 489.69 0.365636 -1.62026 0
M  V30 5208 O 490.875 0.260481 -1.89014 0
M  V30 5209 C 488.015 0.0101738 -3.45099 0
M  V30 5210 C 487.128 -1.02709 -4.19613 0
M  V30 5211 C 486.263 -0.361213 -5.2997 0
M  V30 5212 C 485.302 -1.38384 -5.96252 0
M  V30 5213 N 484.439 -0.743196 -6.98155 0
M  V30 5214 H 489.279 -1.51176 -2.56807 0
M  V30 5215 H 486.816 -0.75636 -1.26165 0
M  V30 5216 H 488.774 0.395528 -4.15321 0
M  V30 5217 H 487.404 0.860848 -3.1111 0
M  V30 5218 H 486.456 -1.53043 -3.48256 0
M  V30 5219 H 487.768 -1.80398 -4.65036 0
M  V30 5220 H 486.922 0.0785537 -6.06649 0
M  V30 5221 H 485.661 0.447799 -4.8564 0
M  V30 5222 H 484.666 -1.83378 -5.18317 0
M  V30 5223 H 485.891 -2.19448 -6.42666 0
M  V30 5224 H 483.837 0.0455789 -6.55984 0
M  V30 5225 H 483.754 -1.45784 -7.41811 0
M  V30 5226 H 485.022 -0.327698 -7.78811 0
M  V30 5227 N 489.251 1.34841 -0.815825 0
M  V30 5228 C 490.183 2.28409 -0.190265 0
M  V30 5229 C 491.196 1.50705 0.615771 0
M  V30 5230 O 492.385 1.72822 0.446616 0
M  V30 5231 C 489.485 3.30441 0.752446 0
M  V30 5232 C 488.658 4.37399 -0.00922152 0
M  V30 5233 C 487.717 5.19234 0.853351 0
M  V30 5234 O 486.743 5.68404 0.300919 0
M  V30 5235 N 487.945 5.38248 2.17416 0
M  V30 5236 H 490.71 2.82732 -0.994114 0
M  V30 5237 H 488.271 1.47289 -0.672129 0
M  V30 5238 H 490.263 3.82084 1.33394 0
M  V30 5239 H 488.833 2.76565 1.45707 0
M  V30 5240 H 488.053 3.86567 -0.771979 0
M  V30 5241 H 489.341 5.05992 -0.533807 0
M  V30 5242 H 488.739 4.99961 2.6468 0
M  V30 5243 H 487.296 5.93035 2.70467 0
M  V30 5244 N 490.729 0.570148 1.46925 0
M  V30 5245 C 491.957 0.0561966 2.06824 0
M  V30 5246 C 492.372 -1.24326 1.42086 0
M  V30 5247 O 491.729 -1.74882 0.521794 0
M  V30 5248 C 491.78 -0.129517 3.61268 0
M  V30 5249 O 491.501 1.1185 4.23581 0
M  V30 5250 C 493.002 -0.679266 4.38065 0
M  V30 5251 H 490.222 0.0517261 0.669003 0
M  V30 5252 H 492.766 0.787243 1.8874 0
M  V30 5253 H 490.921 -0.810739 3.78822 0
M  V30 5254 H 491.335 0.924375 5.1629 0
M  V30 5255 H 492.809 -0.758445 5.46765 0
M  V30 5256 H 493.286 -1.69346 4.05239 0
M  V30 5257 H 493.892 -0.0333237 4.25287 0
M  V30 5258 N 492.207 -1.54576 0.307264 0
M  V30 5259 C 493.137 -2.26708 -0.55907 0
M  V30 5260 C 494.118 -1.26893 -1.1328 0
M  V30 5261 O 495.303 -1.55677 -1.16097 0
M  V30 5262 C 492.433 -3.01259 -1.72801 0
M  V30 5263 C 491.387 -4.08275 -1.28435 0
M  V30 5264 C 490.713 -4.70575 -2.53895 0
M  V30 5265 C 492.013 -5.2068 -0.411038 0
M  V30 5266 H 493.707 -2.9937 0.042576 0
M  V30 5267 H 491.253 -1.43983 0.0219173 0
M  V30 5268 H 493.206 -3.50444 -2.34023 0
M  V30 5269 H 491.93 -2.26187 -2.356 0
M  V30 5270 H 490.589 -3.59949 -0.695161 0
M  V30 5271 H 490.237 -3.92136 -3.15021 0
M  V30 5272 H 489.937 -5.42854 -2.24908 0
M  V30 5273 H 491.461 -5.22527 -3.15908 0
M  V30 5274 H 492.875 -5.65721 -0.929097 0
M  V30 5275 H 491.272 -5.99716 -0.214664 0
M  V30 5276 H 492.342 -4.81629 0.562287 0
M  V30 5277 N 493.685 -0.035106 -1.57561 0
M  V30 5278 C 494.91 0.655802 -1.96759 0
M  V30 5279 C 495.335 1.64523 -0.911809 0
M  V30 5280 O 494.693 1.80857 0.126673 0
M  V30 5281 C 494.741 1.33326 -3.35047 0
M  V30 5282 O 493.845 2.44866 -3.31835 0
M  V30 5283 H 493.186 0.171807 -0.641388 0
M  V30 5284 H 495.716 -0.0987369 -2.04362 0
M  V30 5285 H 495.726 1.68867 -3.71413 0
M  V30 5286 H 494.401 0.608033 -4.11431 0
M  V30 5287 H 492.978 2.11392 -3.07193 0
M  V30 5288 N 495.163 1.55791 0.238111 0
M  V30 5289 C 496.388 1.8244 0.986432 0
M  V30 5290 C 496.813 0.613314 1.7782 0
M  V30 5291 O 496.171 -0.437767 1.75935 0
M  V30 5292 C 496.219 3.06917 1.893 0
M  V30 5293 O 495.323 2.84449 2.98601 0
M  V30 5294 H 494.664 0.601975 0.280218 0
M  V30 5295 H 497.194 2.02987 0.256437 0
M  V30 5296 H 497.204 3.36583 2.30598 0
M  V30 5297 H 495.879 3.947 1.31091 0
M  V30 5298 H 494.456 2.65972 2.61368 0
M  V30 5299 N 496.642 -0.504142 1.49319 0
M  V30 5300 C 497.572 -1.61473 1.68667 0
M  V30 5301 C 498.553 -1.61455 0.535378 0
M  V30 5302 O 499.738 -1.78245 0.770868 0
M  V30 5303 C 496.868 -2.99971 1.75028 0
M  V30 5304 C 495.822 -3.14854 2.89916 0
M  V30 5305 C 495.148 -4.54671 2.81387 0
M  V30 5306 C 496.448 -2.95176 4.30893 0
M  V30 5307 H 498.142 -1.45535 2.61648 0
M  V30 5308 H 495.688 -0.698711 1.25913 0
M  V30 5309 H 497.641 -3.77562 1.8715 0
M  V30 5310 H 496.365 -3.1699 0.786441 0
M  V30 5311 H 495.024 -2.39687 2.77391 0
M  V30 5312 H 494.672 -4.68562 1.82917 0
M  V30 5313 H 494.372 -4.6557 3.58494 0
M  V30 5314 H 495.896 -5.34327 2.95512 0
M  V30 5315 H 497.31 -3.62538 4.44116 0
M  V30 5316 H 495.707 -3.17549 5.09198 0
M  V30 5317 H 496.777 -1.91332 4.45556 0
M  V30 5318 N 498.12 -1.38341 -0.754957 0
M  V30 5319 C 499.067 -1.3546 -1.86867 0
M  V30 5320 C 500.037 -0.217369 -1.64672 0
M  V30 5321 O 501.222 -0.409383 -1.86356 0
M  V30 5322 C 498.362 -1.18413 -3.24149 0
M  V30 5323 C 497.475 -2.41511 -3.58185 0
M  V30 5324 C 496.61 -2.17205 -4.84763 0
M  V30 5325 C 495.649 -3.36081 -5.11582 0
M  V30 5326 N 494.786 -3.11219 -6.29354 0
M  V30 5327 H 499.626 -2.30672 -1.88664 0
M  V30 5328 H 497.163 -1.14607 -0.922154 0
M  V30 5329 H 499.121 -1.06545 -4.03366 0
M  V30 5330 H 497.751 -0.268397 -3.21682 0
M  V30 5331 H 496.803 -2.64056 -2.73822 0
M  V30 5332 H 498.115 -3.30115 -3.73932 0
M  V30 5333 H 497.269 -2.02465 -5.7192 0
M  V30 5334 H 496.008 -1.25964 -4.71152 0
M  V30 5335 H 495.013 -3.51341 -4.22894 0
M  V30 5336 H 496.238 -4.28196 -5.27091 0
M  V30 5337 H 494.184 -2.22624 -6.17069 0
M  V30 5338 H 494.101 -3.93373 -6.45596 0
M  V30 5339 H 495.369 -3.00132 -7.19403 0
M  V30 5340 N 499.598 0.982988 -1.23187 0
M  V30 5341 C 500.528 2.09301 -1.03515 0
M  V30 5342 C 501.509 1.70035 0.0471136 0
M  V30 5343 O 502.694 1.93847 -0.117029 0
M  V30 5344 C 499.824 3.4167 -0.622791 0
M  V30 5345 C 498.778 3.94828 -1.65211 0
M  V30 5346 C 498.104 5.23362 -1.09527 0
M  V30 5347 C 499.404 4.2439 -3.04451 0
M  V30 5348 H 501.098 2.26016 -1.96359 0
M  V30 5349 H 498.644 1.08611 -0.945501 0
M  V30 5350 H 500.597 4.18746 -0.472233 0
M  V30 5351 H 499.321 3.24811 0.341329 0
M  V30 5352 H 497.98 3.19895 -1.79061 0
M  V30 5353 H 497.628 5.02852 -0.122211 0
M  V30 5354 H 497.328 5.59895 -1.783 0
M  V30 5355 H 498.852 6.03062 -0.956511 0
M  V30 5356 H 500.266 4.92225 -2.93917 0
M  V30 5357 H 498.663 4.72118 -3.70438 0
M  V30 5358 H 499.733 3.31765 -3.53638 0
M  V30 5359 N 501.076 1.04316 1.18135 0
M  V30 5360 C 502.353 0.662166 1.84051 0
M  V30 5361 C 502.733 -0.858169 1.9287 0
M  V30 5362 O 502.081 -1.76062 1.45652 0
M  V30 5363 C 502.291 1.3409 3.22212 0
M  V30 5364 C 503.639 1.4733 3.9822 0
M  V30 5365 O 504.663 1.29921 3.31661 0
M  V30 5366 O 503.522 1.75722 5.17479 0
M  V30 5367 H 500.616 0.232005 0.79379 0
M  V30 5368 H 503.162 1.1422 1.25506 0
M  V30 5369 H 501.934 2.37853 3.10711 0
M  V30 5370 H 501.557 0.849649 3.88416 0
M  V30 5371 N 502.554 -1.34406 0.822964 0
M  V30 5372 C 503.794 -2.00103 0.416915 0
M  V30 5373 C 504.158 -1.63826 -1.00125 0
M  V30 5374 O 505.359 -2.22367 -1.51018 0
M  V30 5375 C 503.63 -3.52101 0.613151 0
M  V30 5376 S 505.189 -4.37774 0.299956 0
M  V30 5377 H 502.007 -0.69333 0.157527 0
M  V30 5378 H 504.609 -1.63698 1.06879 0
M  V30 5379 H 503.313 -3.75991 1.64496 0
M  V30 5380 H 502.844 -3.93364 -0.0534554 0
M  V30 5381 H 504.859 -4.8822 -0.886336 0
M  V30 5382 N 504.032 -0.577932 -1.46621 0
M  V30 5383 C 504.979 0.158048 -2.30258 0
M  V30 5384 C 505.949 0.888669 -1.40328 0
M  V30 5385 O 507.134 0.880283 -1.6928 0
M  V30 5386 C 504.274 1.16884 -3.24703 0
M  V30 5387 C 503.387 0.442163 -4.29731 0
M  V30 5388 C 502.522 1.44007 -5.11308 0
M  V30 5389 C 501.561 0.69952 -6.0809 0
M  V30 5390 N 500.698 1.64525 -6.82551 0
M  V30 5391 H 505.538 -0.561242 -2.92667 0
M  V30 5392 H 503.075 -0.288591 -1.44241 0
M  V30 5393 H 505.033 1.7677 -3.779 0
M  V30 5394 H 503.663 1.85591 -2.64113 0
M  V30 5395 H 502.715 -0.271632 -3.79429 0
M  V30 5396 H 504.027 -0.136992 -4.98612 0
M  V30 5397 H 503.181 2.11186 -5.68758 0
M  V30 5398 H 501.92 2.05315 -4.42377 0
M  V30 5399 H 500.925 0.0139217 -5.49798 0
M  V30 5400 H 502.15 0.091894 -6.79038 0
M  V30 5401 H 500.096 2.24653 -6.16334 0
M  V30 5402 H 500.013 1.11878 -7.47676 0
M  V30 5403 H 501.281 2.30754 -7.44562 0
M  V30 5404 N 505.51 1.54411 -0.315457 0
M  V30 5405 C 506.443 2.20265 0.596522 0
M  V30 5406 C 507.421 1.17693 1.12192 0
M  V30 5407 O 508.605 1.46397 1.18744 0
M  V30 5408 C 505.732 2.85794 1.81767 0
M  V30 5409 C 504.778 4.02017 1.42424 0
M  V30 5410 S 505.611 5.33452 0.467836 0
M  V30 5411 C 506.767 6.02471 1.69645 0
M  V30 5412 H 507 2.97277 0.0370896 0
M  V30 5413 H 504.533 1.54079 -0.0995562 0
M  V30 5414 H 506.491 3.24172 2.51839 0
M  V30 5415 H 505.152 2.08601 2.34828 0
M  V30 5416 H 504.345 4.46701 2.33396 0
M  V30 5417 H 503.947 3.65271 0.803311 0
M  V30 5418 H 506.239 6.24157 2.63504 0
M  V30 5419 H 507.182 6.96215 1.29192 0
M  V30 5420 H 507.59 5.32284 1.87974 0
M  V30 5421 N 506.988 0.0434614 1.5754 0
M  V30 5422 C 507.898 -0.94893 2.14552 0
M  V30 5423 C 508.914 -1.34707 1.10136 0
M  V30 5424 O 510.09 -1.42557 1.42266 0
M  V30 5425 C 507.155 -2.208 2.67298 0
M  V30 5426 C 506.216 -1.86893 3.86484 0
M  V30 5427 C 505.449 -3.06797 4.36705 0
M  V30 5428 O 505.672 -4.19921 3.86034 0
M  V30 5429 O 504.606 -2.8826 5.28384 0
M  V30 5430 H 508.432 -0.494099 2.99654 0
M  V30 5431 H 506.017 -0.177989 1.48336 0
M  V30 5432 H 507.899 -2.94686 3.01228 0
M  V30 5433 H 506.574 -2.65436 1.85272 0
M  V30 5434 H 505.481 -1.10347 3.57455 0
M  V30 5435 H 506.814 -1.47062 4.69716 0
M  V30 5436 N 508.466 -1.55915 -0.229846 0
M  V30 5437 C 509.712 -1.78807 -0.956868 0
M  V30 5438 C 510.045 -0.611687 -1.84315 0
M  V30 5439 O 509.32 0.389398 -1.90562 0
M  V30 5440 C 509.603 -3.11718 -1.80288 0
M  V30 5441 C 509.456 -4.3979 -0.943649 0
M  V30 5442 C 510.775 -3.40999 -2.78222 0
M  V30 5443 H 507.894 -0.6505 -0.346437 0
M  V30 5444 H 510.536 -1.88648 -0.226252 0
M  V30 5445 H 508.686 -3.03459 -2.42579 0
M  V30 5446 H 510.358 -4.60059 -0.338121 0
M  V30 5447 H 508.601 -4.33086 -0.248705 0
M  V30 5448 H 509.272 -5.29208 -1.5698 0
M  V30 5449 H 511.748 -3.49332 -2.26067 0
M  V30 5450 H 510.624 -4.35183 -3.34526 0
M  V30 5451 H 510.885 -2.62754 -3.55546 0
M  V30 5452 N 509.944 0.496216 -1.49584 0
M  V30 5453 C 511.169 1.27865 -1.63295 0
M  V30 5454 C 511.594 1.85592 -0.306156 0
M  V30 5455 O 510.952 1.66092 0.726851 0
M  V30 5456 C 511 2.38128 -2.7079 0
M  V30 5457 O 510.104 3.42108 -2.30296 0
M  V30 5458 H 509.445 0.377279 -0.546403 0
M  V30 5459 H 511.975 0.593497 -1.95803 0
M  V30 5460 H 511.985 2.8382 -2.93104 0
M  V30 5461 H 510.66 1.95479 -3.67098 0
M  V30 5462 H 509.237 3.02301 -2.18331 0
M  V30 5463 N 511.423 1.38739 0.74761 0
M  V30 5464 C 512.669 1.35475 1.50912 0
M  V30 5465 C 513.002 -0.0533093 1.94127 0
M  V30 5466 O 512.277 -1.01572 1.65871 0
M  V30 5467 C 512.56 2.31582 2.75757 0
M  V30 5468 C 512.413 3.81274 2.38642 0
M  V30 5469 C 513.732 2.25722 3.77806 0
M  V30 5470 H 510.851 0.493427 0.547447 0
M  V30 5471 H 513.493 1.69634 0.855823 0
M  V30 5472 H 511.643 2.02582 3.31501 0
M  V30 5473 H 513.315 4.20972 1.88626 0
M  V30 5474 H 511.558 3.98664 1.71025 0
M  V30 5475 H 512.229 4.4399 3.27989 0
M  V30 5476 H 514.705 2.51336 3.31616 0
M  V30 5477 H 513.581 2.95069 4.62845 0
M  V30 5478 H 513.842 1.25803 4.23823 0
M  V30 5479 N 512.901 -0.976442 1.23707 0
M  V30 5480 C 514.126 -1.75875 1.09922 0
M  V30 5481 C 514.551 -1.84911 -0.34489 0
M  V30 5482 O 513.909 -1.31363 -1.24954 0
M  V30 5483 C 513.957 -3.16179 1.73388 0
M  V30 5484 O 513.061 -4.00124 0.99871 0
M  V30 5485 H 512.402 -0.540954 0.385052 0
M  V30 5486 H 514.932 -1.22546 1.6384 0
M  V30 5487 H 514.942 -3.66741 1.78788 0
M  V30 5488 H 513.617 -3.08917 2.78466 0
M  V30 5489 H 512.194 -3.58624 1.02193 0
M  V30 5490 N 514.379 -1.04941 -1.1758 0
M  V30 5491 C 515.656 -0.671918 -1.83697 0
M  V30 5492 C 516.036 0.847929 -1.93322 0
M  V30 5493 O 515.384 1.75287 -1.46583 0
M  V30 5494 C 515.594 -1.35797 -3.21497 0
M  V30 5495 C 516.942 -1.4944 -3.97433 0
M  V30 5496 O 517.966 -1.31678 -3.30967 0
M  V30 5497 O 516.825 -1.78463 -5.1654 0
M  V30 5498 H 513.919 -0.236212 -0.792548 0
M  V30 5499 H 516.465 -1.14884 -1.24899 0
M  V30 5500 H 515.237 -2.39498 -3.09446 0
M  V30 5501 H 514.86 -0.870236 -3.8796 0
M  V30 5502 N 515.857 1.33968 -0.830081 0
M  V30 5503 C 516.804 2.29387 -0.255008 0
M  V30 5504 C 517.774 1.53923 0.624243 0
M  V30 5505 O 518.959 1.82262 0.564372 0
M  V30 5506 C 516.099 3.4034 0.571209 0
M  V30 5507 C 515.212 4.30729 -0.331083 0
M  V30 5508 C 514.347 5.2879 0.505389 0
M  V30 5509 C 513.386 6.10819 -0.395843 0
M  V30 5510 N 512.523 7.00948 0.401979 0
M  V30 5511 H 517.363 2.77972 -1.07404 0
M  V30 5512 H 514.9 1.36785 -0.541133 0
M  V30 5513 H 516.858 4.03361 1.06562 0
M  V30 5514 H 515.488 2.9297 1.35529 0
M  V30 5515 H 514.54 3.68507 -0.943759 0
M  V30 5516 H 515.852 4.88181 -1.02377 0
M  V30 5517 H 515.006 5.97297 1.06399 0
M  V30 5518 H 513.745 4.71894 1.23155 0
M  V30 5519 H 512.75 5.41238 -0.966529 0
M  V30 5520 H 513.975 6.69797 -1.12023 0
M  V30 5521 H 511.921 6.46512 1.11168 0
M  V30 5522 H 511.838 7.55643 -0.232167 0
M  V30 5523 H 513.106 7.73774 0.943102 0
M  V30 5524 N 517.335 0.585699 1.46312 0
M  V30 5525 C 518.265 -0.133556 2.33118 0
M  V30 5526 C 519.246 -0.880707 1.45525 0
M  V30 5527 O 520.431 -0.855579 1.74337 0
M  V30 5528 C 517.561 -1.14585 3.27853 0
M  V30 5529 C 516.515 -0.513341 4.2491 0
M  V30 5530 C 515.841 -1.63231 5.09175 0
M  V30 5531 C 517.141 0.551413 5.19381 0
M  V30 5532 H 518.835 0.59121 2.93505 0
M  V30 5533 H 516.381 0.285761 1.41136 0
M  V30 5534 H 518.334 -1.65741 3.87438 0
M  V30 5535 H 517.058 -1.90093 2.65579 0
M  V30 5536 H 515.717 -0.0228349 3.66593 0
M  V30 5537 H 515.365 -2.37713 4.43285 0
M  V30 5538 H 515.065 -1.21473 5.74907 0
M  V30 5539 H 516.589 -2.14658 5.71624 0
M  V30 5540 H 518.003 0.124804 5.73164 0
M  V30 5541 H 516.4 0.889486 5.93471 0
M  V30 5542 H 517.47 1.43655 4.63132 0
M  V30 5543 N 518.813 -1.54241 0.323641 0
M  V30 5544 C 519.776 -2.22997 -0.529602 0
M  V30 5545 C 520.776 -1.22345 -1.04347 0
M  V30 5546 O 521.966 -1.46924 -0.935889 0
M  V30 5547 C 519.098 -2.93409 -1.73562 0
M  V30 5548 H 520.291 -2.99815 0.0714518 0
M  V30 5549 H 517.844 -1.56121 0.0747258 0
M  V30 5550 H 518.579 -2.20729 -2.37591 0
M  V30 5551 H 518.364 -3.67217 -1.37456 0
M  V30 5552 H 519.854 -3.45794 -2.34128 0
M  V30 5553 N 520.291 -0.0518155 -1.57515 0
M  V30 5554 C 521.537 0.622745 -1.93002 0
M  V30 5555 C 521.87 1.70456 -0.930499 0
M  V30 5556 O 521.145 1.94452 0.0434086 0
M  V30 5557 C 521.428 1.21824 -3.38867 0
M  V30 5558 C 521.281 0.144434 -4.49568 0
M  V30 5559 C 522.6 2.12968 -3.8514 0
M  V30 5560 H 519.719 0.22491 -0.701844 0
M  V30 5561 H 522.361 -0.113711 -1.89659 0
M  V30 5562 H 520.511 1.8459 -3.41846 0
M  V30 5563 H 522.183 -0.48753 -4.58717 0
M  V30 5564 H 520.426 -0.527424 -4.30582 0
M  V30 5565 H 521.097 0.601127 -5.48717 0
M  V30 5566 H 523.573 1.60163 -3.8404 0
M  V30 5567 H 522.449 2.51578 -4.87852 0
M  V30 5568 H 522.71 3.03004 -3.21934 0
M  V30 5569 N 521.769 1.56035 0.221574 0
M  V30 5570 C 523.015 1.79312 0.947372 0
M  V30 5571 C 523.348 0.621453 1.83988 0
M  V30 5572 O 522.623 -0.379287 1.90766 0
M  V30 5573 C 522.906 3.1267 1.78633 0
M  V30 5574 C 522.759 4.40284 0.920312 0
M  V30 5575 C 524.078 3.4247 2.7641 0
M  V30 5576 H 521.197 0.652328 0.342982 0
M  V30 5577 H 523.839 1.88765 0.216244 0
M  V30 5578 H 521.989 3.04741 2.40967 0
M  V30 5579 H 523.661 4.60232 0.313718 0
M  V30 5580 H 521.904 4.33212 0.225734 0
M  V30 5581 H 522.575 5.30033 1.54171 0
M  V30 5582 H 525.051 3.50526 2.24211 0
M  V30 5583 H 523.927 4.3695 3.32213 0
M  V30 5584 H 524.188 2.64635 3.54148 0
M  V30 5585 N 523.247 -0.488276 1.49845 0
M  V30 5586 C 524.524 -1.24959 1.50481 0
M  V30 5587 C 524.904 -2.09735 0.239698 0
M  V30 5588 O 524.252 -2.14865 -0.777524 0
M  V30 5589 C 524.462 -2.0954 2.79095 0
M  V30 5590 C 525.81 -2.68305 3.29086 0
M  V30 5591 O 526.834 -2.19797 2.80299 0
M  V30 5592 O 525.693 -3.56643 4.14087 0
M  V30 5593 H 522.787 -0.566133 0.602845 0
M  V30 5594 H 525.333 -0.501504 1.6212 0
M  V30 5595 H 524.105 -1.46958 3.62656 0
M  V30 5596 H 523.728 -2.91517 2.70377 0
M  V30 5597 N 524.725 -1.39134 -0.740242 0
M  V30 5598 C 525.635 -1.39697 -1.88473 0
M  V30 5599 C 526.651 -0.292403 -1.71526 0
M  V30 5600 O 527.827 -0.533021 -1.94219 0
M  V30 5601 C 524.892 -1.23382 -3.24003 0
M  V30 5602 C 523.953 -2.43763 -3.53381 0
M  V30 5603 C 523.186 -2.28216 -4.82445 0
M  V30 5604 O 523.409 -1.28288 -5.55786 0
M  V30 5605 O 522.343 -3.1709 -5.11603 0
M  V30 5606 H 526.169 -2.36159 -1.90952 0
M  V30 5607 H 523.754 -1.20194 -0.887346 0
M  V30 5608 H 525.636 -1.16395 -4.05006 0
M  V30 5609 H 524.311 -0.300121 -3.22306 0
M  V30 5610 H 523.218 -2.56325 -2.72485 0
M  V30 5611 H 524.551 -3.35808 -3.59852 0
M  V30 5612 N 526.204 0.969867 -1.24223 0
M  V30 5613 C 527.45 1.71582 -1.09231 0
M  V30 5614 C 527.805 1.88898 0.365432 0
M  V30 5615 O 527.098 1.43781 1.2664 0
M  V30 5616 C 527.292 3.10883 -1.76314 0
M  V30 5617 C 527.121 3.07155 -3.2846 0
M  V30 5618 C 525.891 3.11757 -3.97663 0
M  V30 5619 C 528.089 2.895 -4.25082 0
M  V30 5620 N 526.071 2.98025 -5.36707 0
M  V30 5621 C 527.442 2.84041 -5.51109 0
M  V30 5622 C 529.497 2.74064 -4.15684 0
M  V30 5623 C 528.2 2.64725 -6.68815 0
M  V30 5624 C 530.226 2.56115 -5.33066 0
M  V30 5625 C 529.588 2.51363 -6.58024 0
M  V30 5626 H 525.687 0.636496 -0.454309 0
M  V30 5627 H 528.271 1.15004 -1.57106 0
M  V30 5628 H 526.442 3.65657 -1.30955 0
M  V30 5629 H 528.174 3.74171 -1.54201 0
M  V30 5630 H 524.929 3.20352 -3.48814 0
M  V30 5631 H 525.353 2.94405 -6.09635 0
M  V30 5632 H 529.995 2.76521 -3.19837 0
M  V30 5633 H 527.713 2.61011 -7.64787 0
M  V30 5634 H 531.299 2.45119 -5.27644 0
M  V30 5635 H 530.179 2.37651 -7.47323 0
M  V30 5636 N 527.682 1.05563 1.17022 0
M  V30 5637 C 529.098 0.777684 1.39371 0
M  V30 5638 C 529.298 -0.626269 1.91521 0
M  V30 5639 O 528.354 -1.38806 2.10924 0
M  V30 5640 C 529.667 1.83642 2.3811 0
M  V30 5641 C 531.215 1.85907 2.51809 0
M  V30 5642 C 531.69 2.90813 3.53824 0
M  V30 5643 N 533.181 2.898 3.61345 0
M  V30 5644 C 533.916 3.6762 4.40049 0
M  V30 5645 N 533.412 4.55237 5.22237 0
M  V30 5646 N 535.205 3.56044 4.34959 0
M  V30 5647 H 527.356 1.9614 0.815047 0
M  V30 5648 H 529.619 0.849527 0.420722 0
M  V30 5649 H 529.325 2.84425 2.06871 0
M  V30 5650 H 529.199 1.6812 3.37662 0
M  V30 5651 H 531.586 0.857865 2.82356 0
M  V30 5652 H 531.667 2.05506 1.52318 0
M  V30 5653 H 531.311 3.91122 3.24015 0
M  V30 5654 H 531.241 2.68465 4.53028 0
M  V30 5655 H 533.732 2.26274 3.02669 0
M  V30 5656 H 534.045 5.11291 5.79484 0
M  V30 5657 H 532.39 4.59296 5.21605 0
M  V30 5658 H 535.581 2.86986 3.69806 0
M  V30 5659 H 535.754 4.16938 4.96051 0
M  V30 5660 N 529.16 -1.33526 0.837174 0
M  V30 5661 C 530.107 -2.29248 0.267169 0
M  V30 5662 C 531.077 -1.54252 -0.616071 0
M  V30 5663 O 532.262 -1.82559 -0.554699 0
M  V30 5664 C 529.402 -3.40638 -0.553152 0
M  V30 5665 C 528.515 -4.30548 0.353921 0
M  V30 5666 C 527.65 -5.29051 -0.477339 0
M  V30 5667 C 526.689 -6.106 0.42823 0
M  V30 5668 N 525.826 -7.01152 -0.364801 0
M  V30 5669 H 530.666 -2.77398 1.08877 0
M  V30 5670 H 528.203 -1.36496 0.54838 0
M  V30 5671 H 530.161 -4.03921 -1.04422 0
M  V30 5672 H 528.791 -2.93685 -1.33973 0
M  V30 5673 H 527.843 -3.68001 0.963289 0
M  V30 5674 H 529.155 -4.87631 1.04964 0
M  V30 5675 H 528.309 -5.97853 -1.0323 0
M  V30 5676 H 527.048 -4.72541 -1.2065 0
M  V30 5677 H 526.053 -5.40718 0.995219 0
M  V30 5678 H 527.278 -6.69193 1.15573 0
M  V30 5679 H 525.224 -6.47092 -1.07738 0
M  V30 5680 H 525.141 -7.5551 0.272238 0
M  V30 5681 H 526.409 -7.74263 -0.902054 0
M  V30 5682 N 530.638 -0.59345 -1.46 0
M  V30 5683 C 531.548 0.135817 -2.34207 0
M  V30 5684 C 532.564 0.875008 -1.50398 0
M  V30 5685 O 533.74 0.835778 -1.83239 0
M  V30 5686 C 530.805 1.12977 -3.27776 0
M  V30 5687 C 529.866 0.394081 -4.27487 0
M  V30 5688 C 529.099 1.34068 -5.16586 0
M  V30 5689 O 529.322 2.5778 -5.08828 0
M  V30 5690 O 528.256 0.845426 -5.95933 0
M  V30 5691 H 532.082 -0.588691 -2.9794 0
M  V30 5692 H 529.667 -0.353784 -1.45151 0
M  V30 5693 H 531.549 1.70261 -3.85473 0
M  V30 5694 H 530.224 1.83556 -2.66625 0
M  V30 5695 H 529.131 -0.220869 -3.73447 0
M  V30 5696 H 530.464 -0.270939 -4.91454 0
M  V30 5697 N 532.116 1.54067 -0.331816 0
M  V30 5698 C 533.049 2.20886 0.573127 0
M  V30 5699 C 534.027 1.18876 1.10938 0
M  V30 5700 O 535.211 1.47649 1.17184 0
M  V30 5701 C 532.338 2.87706 1.78726 0
M  V30 5702 C 531.384 4.03505 1.38152 0
M  V30 5703 S 532.217 5.33919 0.41123 0
M  V30 5704 C 533.373 6.04236 1.63246 0
M  V30 5705 H 533.606 2.97299 0.00555737 0
M  V30 5706 H 531.139 1.53964 -0.115893 0
M  V30 5707 H 533.097 3.26825 2.48386 0
M  V30 5708 H 531.758 2.1108 2.32603 0
M  V30 5709 H 530.951 4.49152 2.28645 0
M  V30 5710 H 530.553 3.66102 0.764524 0
M  V30 5711 H 532.845 6.26917 2.56869 0
M  V30 5712 H 533.788 6.97546 1.218 0
M  V30 5713 H 534.196 5.34247 1.82318 0
M  V30 5714 N 533.594 0.0601682 1.57485 0
M  V30 5715 C 534.842 -0.610386 1.92662 0
M  V30 5716 C 535.163 -1.70849 0.939981 0
M  V30 5717 O 534.433 -1.95895 -0.0137455 0
M  V30 5718 H 533.013 -0.228457 0.711208 0
M  V30 5719 H 535.675 0.115288 1.94559 0
M  V30 5720 H 534.771 -1.0432 2.94149 0
M  V30 5721 N 535.072 -1.5615 -0.213296 0
M  V30 5722 C 536.002 -1.96109 -1.26742 0
M  V30 5723 C 536.983 -0.830448 -1.48451 0
M  V30 5724 O 538.168 -1.09339 -1.60495 0
M  V30 5725 C 535.298 -2.28492 -2.61551 0
M  V30 5726 C 534.252 -3.44124 -2.54485 0
M  V30 5727 C 533.578 -3.62134 -3.93399 0
M  V30 5728 C 534.878 -4.78855 -2.08556 0
M  V30 5729 H 536.572 -2.84412 -0.935434 0
M  V30 5730 H 534.118 -1.36836 -0.44854 0
M  V30 5731 H 536.071 -2.55039 -3.3546 0
M  V30 5732 H 534.795 -1.37052 -2.96453 0
M  V30 5733 H 533.454 -3.17639 -1.83033 0
M  V30 5734 H 533.102 -2.68055 -4.25623 0
M  V30 5735 H 532.802 -4.39913 -3.89551 0
M  V30 5736 H 534.326 -3.91038 -4.68958 0
M  V30 5737 H 535.74 -5.04552 -2.72213 0
M  V30 5738 H 534.137 -5.59975 -2.1575 0
M  V30 5739 H 535.207 -4.73657 -1.03811 0
M  V30 5740 N 536.55 0.480323 -1.50102 0
M  V30 5741 C 537.79 1.24301 -1.62261 0
M  V30 5742 C 538.154 1.89452 -0.311758 0
M  V30 5743 O 539.355 2.67022 -0.308696 0
M  V30 5744 C 537.626 2.26588 -2.76392 0
M  V30 5745 S 539.185 3.11919 -3.08629 0
M  V30 5746 H 536.003 0.42215 -0.57211 0
M  V30 5747 H 538.605 0.541591 -1.87848 0
M  V30 5748 H 537.309 1.7729 -3.70131 0
M  V30 5749 H 536.84 3.01371 -2.52862 0
M  V30 5750 H 538.855 4.27598 -2.51742 0
M  V30 5751 N 538.028 1.39524 0.732853 0
M  V30 5752 C 539.274 1.38072 1.49358 0
M  V30 5753 C 539.629 -0.0227943 1.92386 0
M  V30 5754 O 538.922 -0.98976 1.64056 0
M  V30 5755 C 539.116 2.28916 2.74468 0
M  V30 5756 C 538.945 3.7796 2.43673 0
M  V30 5757 C 537.715 4.46874 2.35863 0
M  V30 5758 C 539.913 4.69886 2.09074 0
M  V30 5759 N 537.895 5.81242 1.97561 0
M  V30 5760 C 539.266 5.9292 1.81234 0
M  V30 5761 C 541.321 4.57887 1.95561 0
M  V30 5762 C 540.024 7.05297 1.41242 0
M  V30 5763 C 542.05 5.70187 1.56972 0
M  V30 5764 C 541.412 6.92297 1.30018 0
M  V30 5765 H 537.511 0.56051 0.5453 0
M  V30 5766 H 540.095 1.75093 0.85151 0
M  V30 5767 H 538.266 1.9405 3.36451 0
M  V30 5768 H 539.998 2.18441 3.40684 0
M  V30 5769 H 536.753 4.00341 2.5303 0
M  V30 5770 H 537.177 6.52356 1.80997 0
M  V30 5771 H 541.819 3.64014 2.15067 0
M  V30 5772 H 539.537 7.99069 1.20476 0
M  V30 5773 H 543.123 5.62892 1.47119 0
M  V30 5774 H 542.003 7.7772 1.00605 0
M  V30 5775 N 539.506 -0.963266 1.24736 0
M  V30 5776 C 540.453 -2.05857 1.04363 0
M  V30 5777 C 541.423 -1.6604 -0.0444951 0
M  V30 5778 O 542.608 -1.90477 0.110999 0
M  V30 5779 C 539.748 -3.38745 0.659235 0
M  V30 5780 C 538.861 -3.9173 1.82131 0
M  V30 5781 C 537.996 -5.12906 1.38208 0
M  V30 5782 C 537.035 -5.58098 2.51382 0
M  V30 5783 N 536.172 -6.7049 2.08295 0
M  V30 5784 H 541.012 -2.22616 1.98107 0
M  V30 5785 H 538.549 -1.09103 0.986661 0
M  V30 5786 H 540.507 -4.15107 0.417371 0
M  V30 5787 H 539.137 -3.21898 -0.241201 0
M  V30 5788 H 538.189 -3.11966 2.17672 0
M  V30 5789 H 539.501 -4.21225 2.67153 0
M  V30 5790 H 538.655 -5.96657 1.09935 0
M  V30 5791 H 537.394 -4.85105 0.502456 0
M  V30 5792 H 536.399 -4.72917 2.80409 0
M  V30 5793 H 537.624 -5.87911 3.39909 0
M  V30 5794 H 535.57 -6.44416 1.22737 0
M  V30 5795 H 535.487 -6.99458 2.86869 0
M  V30 5796 H 536.755 -7.57672 1.83175 0
M  V30 5797 N 540.985 -1.06182 -1.16461 0
M  V30 5798 C 541.895 -0.682671 -2.24448 0
M  V30 5799 C 542.911 0.30078 -1.71381 0
M  V30 5800 O 544.087 0.150376 -2.00838 0
M  V30 5801 C 541.152 -0.0737202 -3.46622 0
M  V30 5802 C 540.213 -1.10889 -4.14731 0
M  V30 5803 C 539.446 -0.528908 -5.31073 0
M  V30 5804 O 539.669 0.65868 -5.66584 0
M  V30 5805 O 538.603 -1.26805 -5.88391 0
M  V30 5806 H 542.429 -1.58291 -2.59187 0
M  V30 5807 H 540.014 -0.834013 -1.23954 0
M  V30 5808 H 541.896 0.264192 -4.20571 0
M  V30 5809 H 540.571 0.800015 -3.13658 0
M  V30 5810 H 539.478 -1.49896 -3.42756 0
M  V30 5811 H 540.811 -1.95412 -4.51747 0
M  V30 5812 N 542.463 1.3308 -0.844243 0
M  V30 5813 C 543.709 1.97898 -0.443206 0
M  V30 5814 C 544.042 1.66699 0.99625 0
M  V30 5815 O 543.317 0.949704 1.69738 0
M  V30 5816 C 543.6 3.53801 -0.670606 0
M  V30 5817 C 543.453 3.94667 -2.15772 0
M  V30 5818 C 544.772 4.39936 -0.120226 0
M  V30 5819 H 541.891 0.718861 -0.162504 0
M  V30 5820 H 544.533 1.57633 -1.06075 0
M  V30 5821 H 542.683 3.88229 -0.14496 0
M  V30 5822 H 544.355 3.70469 -2.74865 0
M  V30 5823 H 542.598 3.44203 -2.6402 0
M  V30 5824 H 543.269 5.03275 -2.26757 0
M  V30 5825 H 545.745 4.12183 -0.5696 0
M  V30 5826 H 544.621 5.4803 -0.308984 0
M  V30 5827 H 544.882 4.31184 0.976347 0
M  V30 5828 N 543.941 0.601185 1.45683 0
M  V30 5829 C 544.904 -0.111398 2.28929 0
M  V30 5830 C 545.904 -0.801246 1.39416 0
M  V30 5831 O 547.094 -0.650383 1.61603 0
M  V30 5832 C 544.226 -1.16773 3.20276 0
M  V30 5833 H 545.419 0.620412 2.93413 0
M  V30 5834 H 542.972 0.359946 1.52099 0
M  V30 5835 H 543.707 -1.93051 2.60579 0
M  V30 5836 H 543.492 -0.677358 3.86205 0
M  V30 5837 H 544.982 -1.66698 3.82886 0
M  V30 5838 N 545.419 -1.53889 0.339982 0
M  V30 5839 C 546.649 -2.04973 -0.258738 0
M  V30 5840 C 547.057 -1.21485 -1.45045 0
M  V30 5841 O 546.4 -0.2422 -1.82096 0
M  V30 5842 C 546.462 -3.51783 -0.740853 0
M  V30 5843 C 546.126 -4.55802 0.330734 0
M  V30 5844 C 547.123 -5.06512 1.17226 0
M  V30 5845 C 544.808 -4.99966 0.483637 0
M  V30 5846 C 546.802 -5.99963 2.15227 0
M  V30 5847 C 544.489 -5.93229 1.46704 0
M  V30 5848 C 545.487 -6.43115 2.29981 0
M  V30 5849 O 545.175 -7.34545 3.26649 0
M  V30 5850 H 544.907 -0.673807 -0.0544037 0
M  V30 5851 H 547.461 -1.99492 0.489107 0
M  V30 5852 H 545.691 -3.54717 -1.53988 0
M  V30 5853 H 547.38 -3.85857 -1.25973 0
M  V30 5854 H 548.146 -4.73158 1.0652 0
M  V30 5855 H 544.025 -4.6074 -0.15471 0
M  V30 5856 H 547.569 -6.38825 2.80265 0
M  V30 5857 H 543.466 -6.25998 1.57468 0
M  V30 5858 H 544.234 -7.52468 3.22078 0
M  V30 5859 N 546.897 -0.0685191 -1.57451 0
M  V30 5860 C 547.827 0.89747 -2.15564 0
M  V30 5861 C 548.808 1.31266 -1.08181 0
M  V30 5862 O 549.993 1.38429 -1.36202 0
M  V30 5863 C 547.123 2.16623 -2.71463 0
M  V30 5864 C 546.077 1.89054 -3.83982 0
M  V30 5865 C 545.403 3.22532 -4.26471 0
M  V30 5866 C 546.703 1.1984 -5.08366 0
M  V30 5867 H 548.397 0.413373 -2.96533 0
M  V30 5868 H 545.943 0.197391 -1.42641 0
M  V30 5869 H 547.896 2.84614 -3.10761 0
M  V30 5870 H 546.62 2.67269 -1.8771 0
M  V30 5871 H 545.279 1.23469 -3.45183 0
M  V30 5872 H 544.927 3.71013 -3.39644 0
M  V30 5873 H 544.627 3.04879 -5.02317 0
M  V30 5874 H 546.151 3.91727 -4.68383 0
M  V30 5875 H 547.565 1.77896 -5.45001 0
M  V30 5876 H 545.962 1.12456 -5.89469 0
M  V30 5877 H 547.032 0.176996 -4.84577 0
M  V30 5878 N 548.375 1.56261 0.205012 0
M  V30 5879 C 549.623 1.79684 0.925096 0
M  V30 5880 C 549.944 0.63989 1.84202 0
M  V30 5881 O 549.214 -0.342345 1.92885 0
M  V30 5882 H 547.794 0.662774 0.344587 0
M  V30 5883 H 550.456 1.93734 0.212899 0
M  V30 5884 H 549.552 2.72467 1.52211 0
M  V30 5885 N 549.853 -0.472356 1.50355 0
M  V30 5886 C 550.801 -1.59126 1.69651 0
M  V30 5887 C 551.795 -1.59793 0.56237 0
M  V30 5888 O 553.001 -1.63957 0.742832 0
M  V30 5889 H 549.376 -0.528008 0.535454 0
M  V30 5890 H 551.347 -1.40013 2.63513 0
M  V30 5891 C 550.096 -2.97075 1.8067 0
M  V30 5892 H 549.419 -2.9728 2.67329 0
M  V30 5893 H 550.859 -3.74825 1.98197 0
M  V30 5894 C 549.318 -3.32247 0.558016 0
M  V30 5895 O 549.848 -4.00553 -0.303399 0
M  V30 5896 N 548.054 -2.87659 0.412415 0
M  V30 5897 H 547.601 -2.32246 1.11443 0
M  V30 5898 H 547.559 -3.11556 -0.421908 0
M  V30 5899 N 551.331 -1.39911 -0.725443 0
M  V30 5900 C 552.241 -1.41688 -1.8698 0
M  V30 5901 C 553.257 -0.310579 -1.71206 0
M  V30 5902 O 554.433 -0.55359 -1.93642 0
M  V30 5903 C 551.498 -1.26811 -3.22676 0
M  V30 5904 C 550.559 -2.47497 -3.50776 0
M  V30 5905 C 549.792 -2.3332 -4.79997 0
M  V30 5906 O 550.015 -1.34175 -5.54394 0
M  V30 5907 O 548.949 -3.22498 -5.08211 0
M  V30 5908 H 552.775 -2.38171 -1.88436 0
M  V30 5909 H 550.36 -1.21128 -0.874548 0
M  V30 5910 H 552.242 -1.20684 -4.03749 0
M  V30 5911 H 550.917 -0.334289 -3.21969 0
M  V30 5912 H 549.824 -2.59201 -2.69751 0
M  V30 5913 H 551.157 -3.39606 -3.5627 0
M  V30 5914 N 552.809 0.956637 -1.25245 0
M  V30 5915 C 554.055 1.70352 -1.10036 0
M  V30 5916 C 554.388 1.90869 0.358156 0
M  V30 5917 O 553.663 1.47819 1.26411 0
M  V30 5918 C 553.946 3.08766 -1.85298 0
M  V30 5919 C 553.799 2.95672 -3.38966 0
M  V30 5920 C 555.118 4.08622 -1.63451 0
M  V30 5921 H 552.237 0.618279 -0.401123 0
M  V30 5922 H 554.879 1.11212 -1.54051 0
M  V30 5923 H 553.029 3.59252 -1.47887 0
M  V30 5924 H 554.701 2.52527 -3.86041 0
M  V30 5925 H 552.944 2.31634 -3.6678 0
M  V30 5926 H 553.615 3.93776 -3.86839 0
M  V30 5927 H 556.091 3.67038 -1.96015 0
M  V30 5928 H 554.967 5.03514 -2.18551 0
M  V30 5929 H 555.228 4.3834 -0.575357 0
M  V30 5930 N 554.287 1.06798 1.15896 0
M  V30 5931 C 555.512 0.808739 1.90982 0
M  V30 5932 C 555.937 -0.6316 1.77179 0
M  V30 5933 O 555.295 -1.4407 1.10061 0
M  V30 5934 C 555.343 1.21468 3.39526 0
M  V30 5935 O 554.447 0.356562 4.10856 0
M  V30 5936 H 553.788 0.29512 0.594811 0
M  V30 5937 H 556.318 1.42513 1.46804 0
M  V30 5938 H 556.328 1.18844 3.90308 0
M  V30 5939 H 555.003 2.26379 3.48891 0
M  V30 5940 H 553.58 0.444808 3.70238 0
M  V30 5941 N 555.766 -1.3263 0.851289 0
M  V30 5942 C 557.043 -1.91982 0.374448 0
M  V30 5943 C 557.423 -1.77568 -1.14161 0
M  V30 5944 O 556.771 -1.1717 -1.96172 0
M  V30 5945 C 556.981 -3.38862 0.835088 0
M  V30 5946 C 558.329 -4.15999 0.850309 0
M  V30 5947 O 559.353 -3.47566 0.779505 0
M  V30 5948 O 558.212 -5.38189 0.949481 0
M  V30 5949 H 555.306 -0.819846 0.10854 0
M  V30 5950 H 557.852 -1.41422 0.937966 0
M  V30 5951 H 556.624 -3.43281 1.87814 0
M  V30 5952 H 556.247 -3.96821 0.248833 0
M  V30 5953 N 557.244 -0.608902 -1.45362 0
M  V30 5954 C 558.154 0.110969 -2.34337 0
M  V30 5955 C 559.17 0.859007 -1.51318 0
M  V30 5956 O 560.346 0.816296 -1.84116 0
M  V30 5957 C 557.411 1.09494 -3.28956 0
M  V30 5958 C 556.472 0.348718 -4.27881 0
M  V30 5959 C 555.705 1.28582 -5.17979 0
M  V30 5960 O 555.928 2.52369 -5.11533 0
M  V30 5961 O 554.862 0.782172 -5.96796 0
M  V30 5962 H 558.688 -0.620258 -2.97299 0
M  V30 5963 H 556.273 -0.36916 -1.44767 0
M  V30 5964 H 558.155 1.66163 -3.87257 0
M  V30 5965 H 556.83 1.80717 -2.68557 0
M  V30 5966 H 555.737 -0.260465 -3.73192 0
M  V30 5967 H 557.07 -0.323049 -4.91139 0
M  V30 5968 N 558.722 1.53707 -0.348139 0
M  V30 5969 C 559.632 2.28881 0.514857 0
M  V30 5970 C 560.648 1.34168 1.10793 0
M  V30 5971 O 561.824 1.6721 1.12262 0
M  V30 5972 C 558.889 3.05042 1.64774 0
M  V30 5973 C 557.95 4.15389 1.08398 0
M  V30 5974 C 557.183 4.87909 2.16287 0
M  V30 5975 O 557.406 4.60137 3.3709 0
M  V30 5976 O 556.34 5.74254 1.80323 0
M  V30 5977 H 560.166 3.03547 -0.0963699 0
M  V30 5978 H 557.751 1.48972 -0.113043 0
M  V30 5979 H 559.633 3.52656 2.30677 0
M  V30 5980 H 558.308 2.33228 2.24469 0
M  V30 5981 H 557.215 3.72068 0.389341 0
M  V30 5982 H 558.548 4.89318 0.531829 0
M  V30 5983 N 560.2 0.0768682 1.57412 0
M  V30 5984 C 561.44 -0.594676 1.95558 0
M  V30 5985 C 561.804 -1.66469 0.956658 0
M  V30 5986 O 563.005 -2.39215 1.22595 0
M  V30 5987 C 561.276 -1.15206 3.38323 0
M  V30 5988 S 562.835 -1.83803 3.9845 0
M  V30 5989 H 559.653 -0.194579 0.683857 0
M  V30 5990 H 562.255 0.151933 1.94909 0
M  V30 5991 H 560.959 -0.36153 4.08805 0
M  V30 5992 H 560.49 -1.93491 3.42527 0
M  V30 5993 H 562.505 -3.12087 3.85767 0
M  V30 5994 N 561.678 -1.56367 -0.196722 0
M  V30 5995 C 562.608 -1.97442 -1.24655 0
M  V30 5996 C 563.589 -0.846147 -1.47561 0
M  V30 5997 O 564.774 -1.11035 -1.59326 0
M  V30 5998 C 561.904 -2.31253 -2.59112 0
M  V30 5999 C 560.858 -3.46804 -2.50821 0
M  V30 6000 C 560.184 -3.66286 -3.89536 0
M  V30 6001 C 561.484 -4.8104 -2.03465 0
M  V30 6002 H 563.178 -2.85388 -0.905216 0
M  V30 6003 H 560.724 -1.37304 -0.434002 0
M  V30 6004 H 562.677 -2.58583 -3.32736 0
M  V30 6005 H 561.401 -1.40188 -2.94983 0
M  V30 6006 H 560.06 -3.19563 -1.79653 0
M  V30 6007 H 559.708 -2.72555 -4.22756 0
M  V30 6008 H 559.408 -4.4402 -3.84864 0
M  V30 6009 H 560.932 -3.9599 -4.64784 0
M  V30 6010 H 562.346 -5.07411 -2.66846 0
M  V30 6011 H 560.743 -5.62232 -2.09798 0
M  V30 6012 H 561.813 -4.74732 -0.98781 0
M  V30 6013 N 563.156 0.464375 -1.50603 0
M  V30 6014 C 564.103 1.56152 -1.69956 0
M  V30 6015 C 565.073 1.57046 -0.54091 0
M  V30 6016 O 566.258 1.74473 -0.772258 0
M  V30 6017 C 563.398 2.94079 -1.80586 0
M  V30 6018 C 562.511 3.02923 -3.07996 0
M  V30 6019 C 561.646 4.31806 -3.09382 0
M  V30 6020 C 560.685 4.34417 -4.31218 0
M  V30 6021 N 559.822 5.54782 -4.30304 0
M  V30 6022 H 564.662 1.38955 -2.6362 0
M  V30 6023 H 562.199 0.675482 -1.30674 0
M  V30 6024 H 564.157 3.74073 -1.8473 0
M  V30 6025 H 562.787 3.09896 -0.903556 0
M  V30 6026 H 561.839 2.1576 -3.13292 0
M  V30 6027 H 563.151 3.00712 -3.97962 0
M  V30 6028 H 562.305 5.20153 -3.12292 0
M  V30 6029 H 561.044 4.36636 -2.17257 0
M  V30 6030 H 560.049 3.44467 -4.28512 0
M  V30 6031 H 561.274 4.31273 -5.24576 0
M  V30 6032 H 559.22 5.60384 -3.41037 0
M  V30 6033 H 559.137 5.54339 -5.14047 0
M  V30 6034 H 560.405 6.45235 -4.3737 0
M  V30 6035 N 564.634 1.40294 0.718013 0
M  V30 6036 C 566.05 1.2227 1.02577 0
M  V30 6037 C 566.25 0.0961976 2.0127 0
M  V30 6038 O 565.306 -0.546695 2.46511 0
M  V30 6039 C 566.619 2.56348 1.57182 0
M  V30 6040 C 568.167 2.6334 1.69178 0
M  V30 6041 C 568.642 3.9768 2.27188 0
M  V30 6042 N 570.133 3.99409 2.34578 0
M  V30 6043 C 570.868 5.00141 2.8044 0
M  V30 6044 N 570.364 6.11268 3.26073 0
M  V30 6045 N 572.157 4.87511 2.79802 0
M  V30 6046 H 564.308 2.12304 0.0637899 0
M  V30 6047 H 566.571 0.943632 0.0909036 0
M  V30 6048 H 566.277 3.3942 0.921262 0
M  V30 6049 H 566.151 2.77266 2.55741 0
M  V30 6050 H 568.538 1.80641 2.33351 0
M  V30 6051 H 568.619 2.46255 0.692247 0
M  V30 6052 H 568.263 4.80817 1.63638 0
M  V30 6053 H 568.193 4.12093 3.27852 0
M  V30 6054 H 570.684 3.19162 2.02346 0
M  V30 6055 H 570.997 6.84023 3.59628 0
M  V30 6056 H 569.342 6.14837 3.24038 0
M  V30 6057 H 572.533 3.9979 2.43487 0
M  V30 6058 H 572.706 5.66158 3.15228 0
M  V30 6059 N 566.112 -0.949982 1.2575 0
M  V30 6060 C 567.358 -1.69766 1.10938 0
M  V30 6061 C 567.691 -1.91056 -0.348028 0
M  V30 6062 O 566.966 -1.48488 -1.25625 0
M  V30 6063 C 567.249 -3.07779 1.86933 0
M  V30 6064 C 567.102 -2.9387 3.4053 0
M  V30 6065 C 568.421 -4.07749 1.65616 0
M  V30 6066 H 565.54 -0.616144 0.404396 0
M  V30 6067 H 568.182 -1.10394 1.54639 0
M  V30 6068 H 566.332 -3.58462 1.4979 0
M  V30 6069 H 568.004 -2.50476 3.87375 0
M  V30 6070 H 566.247 -2.29686 3.68004 0
M  V30 6071 H 566.918 -3.91719 3.88922 0
M  V30 6072 H 569.394 -3.65994 1.97959 0
M  V30 6073 H 568.27 -5.02348 2.21218 0
M  V30 6074 H 568.531 -4.38029 0.598595 0
M  V30 6075 N 567.59 -1.07411 -1.15328 0
M  V30 6076 C 568.838 -0.796073 -1.85761 0
M  V30 6077 C 569.159 0.679864 -1.82764 0
M  V30 6078 O 568.429 1.49242 -1.269 0
M  V30 6079 H 567.009 -0.291495 -0.687779 0
M  V30 6080 H 569.671 -1.35799 -1.39802 0
M  V30 6081 H 568.767 -1.13114 -2.90881 0
M  V30 6082 N 569.068 1.32177 -0.85831 0
M  V30 6083 C 569.998 2.31282 -0.321041 0
M  V30 6084 C 570.979 1.59841 0.581786 0
M  V30 6085 O 572.164 1.87619 0.501262 0
M  V30 6086 C 569.294 3.4385 0.48832 0
M  V30 6087 C 568.248 4.26799 -0.320391 0
M  V30 6088 C 567.574 5.31164 0.613934 0
M  V30 6089 C 568.874 4.98829 -1.54813 0
M  V30 6090 H 570.568 2.76469 -1.14915 0
M  V30 6091 H 568.114 1.32916 -0.554028 0
M  V30 6092 H 570.067 4.12224 0.874626 0
M  V30 6093 H 568.791 2.97401 1.34983 0
M  V30 6094 H 567.45 3.60077 -0.688497 0
M  V30 6095 H 567.098 4.80967 1.47239 0
M  V30 6096 H 566.798 5.8755 0.0768097 0
M  V30 6097 H 568.322 6.024 0.997336 0
M  V30 6098 H 569.736 5.59864 -1.23392 0
M  V30 6099 H 568.133 5.64957 -2.02346 0
M  V30 6100 H 569.203 4.26483 -2.30739 0
M  V30 6101 N 570.547 0.616602 1.45037 0
M  V30 6102 C 571.772 0.120192 2.07051 0
M  V30 6103 C 572.197 -1.19008 1.45666 0
M  V30 6104 O 571.555 -1.7267 0.552692 0
M  V30 6105 C 571.603 0.00354901 3.606 0
M  V30 6106 O 570.707 -1.04431 3.98958 0
M  V30 6107 H 570.048 0.0781599 0.659384 0
M  V30 6108 H 572.578 0.849167 1.86146 0
M  V30 6109 H 572.588 -0.191754 4.07549 0
M  V30 6110 H 571.263 0.960239 4.04663 0
M  V30 6111 H 569.84 -0.824749 3.63665 0
M  V30 6112 N 572.025 -1.5352 0.356285 0
M  V30 6113 C 573.273 -2.00719 -0.235837 0
M  V30 6114 C 573.594 -1.24551 -1.5004 0
M  V30 6115 O 572.864 -0.356185 -1.92635 0
M  V30 6116 H 571.444 -0.741542 -0.0901366 0
M  V30 6117 H 574.106 -1.88887 0.480378 0
M  V30 6118 H 573.202 -3.08551 -0.469357 0
M  V30 6119 N 573.503 -0.0852151 -1.57369 0
M  V30 6120 C 574.466 0.8627 -2.12344 0
M  V30 6121 C 575.466 1.21746 -1.05046 0
M  V30 6122 O 576.656 1.14852 -1.30976 0
M  V30 6123 C 573.788 2.1618 -2.63589 0
M  V30 6124 H 574.981 0.385511 -2.97412 0
M  V30 6125 H 572.534 0.163663 -1.55441 0
M  V30 6126 H 573.269 2.68406 -1.82013 0
M  V30 6127 H 573.054 1.91723 -3.4203 0
M  V30 6128 H 574.544 2.84011 -3.06149 0
M  V30 6129 N 574.981 1.5647 0.188427 0
M  V30 6130 C 576.392 1.70864 0.752494 0
M  V30 6131 C 576.743 0.692905 1.83557 0
M  V30 6132 O 575.868 -0.149307 2.15884 0
M  V30 6133 C 576.463 3.09789 1.37173 0
M  V30 6134 C 575.022 3.25925 1.88281 0
M  V30 6135 C 574.169 2.66817 0.755259 0
M  V30 6136 H 577.12 1.58657 -0.0367408 0
M  V30 6137 H 577.141 3.07489 2.24122 0
M  V30 6138 H 576.653 3.83693 0.583219 0
M  V30 6139 H 574.754 2.56948 2.6983 0
M  V30 6140 H 574.867 4.33498 2.04001 0
M  V30 6141 H 573.231 2.2617 1.17128 0
M  V30 6142 H 574.014 3.43294 -0.0211237 0
M  V30 6143 N 576.459 -0.456382 1.50847 0
M  V30 6144 C 577.422 -1.53493 1.70213 0
M  V30 6145 C 578.422 -1.50264 0.572481 0
M  V30 6146 O 579.612 -1.52623 0.839751 0
M  V30 6147 C 576.744 -2.93091 1.741 0
M  V30 6148 H 577.937 -1.37633 2.66453 0
M  V30 6149 H 575.49 -0.683776 1.4055 0
M  V30 6150 H 576.225 -3.14378 0.796063 0
M  V30 6151 H 576.01 -2.9684 2.5618 0
M  V30 6152 H 577.5 -3.71368 1.90987 0
M  V30 6153 N 577.937 -1.40673 -0.710563 0
M  V30 6154 C 579.214 -1.29718 -1.46398 0
M  V30 6155 C 579.594 0.082177 -2.1094 0
M  V30 6156 O 578.942 1.09536 -2.00534 0
M  V30 6157 C 579.152 -2.43967 -2.49562 0
M  V30 6158 C 580.5 -2.84436 -3.15248 0
M  V30 6159 O 581.524 -2.43597 -2.59883 0
M  V30 6160 O 580.383 -3.55008 -4.1549 0
M  V30 6161 H 577.477 -0.509697 -0.651258 0
M  V30 6162 H 580.023 -1.52603 -0.742312 0
M  V30 6163 H 578.795 -3.36076 -2.0042 0
M  V30 6164 H 578.418 -2.22879 -3.29258 0
M  V30 6165 N 579.415 0.9433 -1.26252 0
M  V30 6166 C 580.378 2.02326 -1.07689 0
M  V30 6167 C 581.378 1.60779 -0.0259174 0
M  V30 6168 O 582.568 1.72108 -0.269134 0
M  V30 6169 C 579.7 3.34886 -0.63752 0
M  V30 6170 H 580.893 2.20225 -2.0357 0
M  V30 6171 H 578.446 1.12197 -1.08819 0
M  V30 6172 H 579.181 3.22684 0.323377 0
M  V30 6173 H 578.966 3.66393 -1.39637 0
M  V30 6174 H 580.456 4.14231 -0.529418 0
M  V30 6175 N 580.893 1.08022 1.14757 0
M  V30 6176 C 582.133 0.816959 1.87364 0
M  V30 6177 C 582.497 -0.645407 1.80827 0
M  V30 6178 O 583.698 -1.024 2.48531 0
M  V30 6179 C 581.969 1.31961 3.32146 0
M  V30 6180 S 583.528 1.18806 4.2241 0
M  V30 6181 H 580.346 0.295862 0.646519 0
M  V30 6182 H 582.948 1.3807 1.38408 0
M  V30 6183 H 581.652 2.37847 3.3445 0
M  V30 6184 H 581.183 0.751371 3.86158 0
M  V30 6185 H 583.198 0.129865 4.9603 0
M  V30 6186 N 582.371 -1.3172 0.865308 0
M  V30 6187 C 583.596 -2.01591 0.487415 0
M  V30 6188 C 584.021 -1.6455 -0.911307 0
M  V30 6189 O 583.379 -0.851689 -1.6005 0
M  V30 6190 C 583.427 -3.54759 0.646401 0
M  V30 6191 O 582.531 -4.11185 -0.316284 0
M  V30 6192 H 581.872 -0.634884 0.194468 0
M  V30 6193 H 584.402 -1.68024 1.16744 0
M  V30 6194 H 584.412 -4.04438 0.537932 0
M  V30 6195 H 583.087 -3.8106 1.66632 0
M  V30 6196 H 581.664 -3.72543 -0.163162 0
M  V30 6197 N 583.85 -0.624285 -1.44708 0
M  V30 6198 C 585.077 -0.132919 -2.06473 0
M  V30 6199 C 585.493 1.18967 -1.46602 0
M  V30 6200 O 584.85 1.72824 -0.586341 0
M  V30 6201 C 584.901 -0.00465418 -3.615 0
M  V30 6202 O 584.622 -1.27494 -4.19138 0
M  V30 6203 C 586.123 0.516213 -4.40284 0
M  V30 6204 H 583.343 -0.0765201 -0.666623 0
M  V30 6205 H 585.887 -0.856751 -1.85688 0
M  V30 6206 H 584.042 0.669583 -3.8157 0
M  V30 6207 H 584.456 -1.11536 -5.12504 0
M  V30 6208 H 585.93 0.554994 -5.49203 0
M  V30 6209 H 586.407 1.5419 -4.11245 0
M  V30 6210 H 587.013 -0.124542 -4.25118 0
M  V30 6211 N 585.328 1.53329 -0.364422 0
M  V30 6212 C 586.291 2.24323 0.470292 0
M  V30 6213 C 587.291 1.25068 1.01067 0
M  V30 6214 O 588.481 1.49354 0.896605 0
M  V30 6215 C 585.613 2.97908 1.65722 0
M  V30 6216 H 586.806 2.9952 -0.150917 0
M  V30 6217 H 584.359 1.55868 -0.116092 0
M  V30 6218 H 585.094 2.2695 2.31655 0
M  V30 6219 H 584.879 3.70732 1.27671 0
M  V30 6220 H 586.369 3.5188 2.24878 0
M  V30 6221 N 586.806 0.0935595 1.57322 0
M  V30 6222 C 587.738 -0.895923 2.10964 0
M  V30 6223 C 588.751 -1.24705 1.04654 0
M  V30 6224 O 589.94 -1.20044 1.32105 0
M  V30 6225 C 587.04 -2.20546 2.57318 0
M  V30 6226 C 586.213 -2.0299 3.87445 0
M  V30 6227 C 585.272 -3.17443 4.19662 0
M  V30 6228 O 584.298 -2.91474 4.88909 0
M  V30 6229 N 585.5 -4.43168 3.74943 0
M  V30 6230 H 588.265 -0.437788 2.96485 0
M  V30 6231 H 585.826 -0.0915863 1.61641 0
M  V30 6232 H 587.818 -2.9606 2.75917 0
M  V30 6233 H 586.388 -2.57789 1.76816 0
M  V30 6234 H 585.608 -1.11815 3.78009 0
M  V30 6235 H 586.896 -1.88535 4.7258 0
M  V30 6236 H 586.294 -4.67149 3.19043 0
M  V30 6237 H 584.851 -5.15637 3.987 0
M  V30 6238 N 588.284 -1.56567 -0.180126 0
M  V30 6239 C 589.231 -1.95725 -1.22313 0
M  V30 6240 C 590.201 -0.819911 -1.44453 0
M  V30 6241 O 591.386 -1.07931 -1.57339 0
M  V30 6242 C 588.526 -2.31484 -2.55947 0
M  V30 6243 C 587.639 -3.58354 -2.4126 0
M  V30 6244 C 586.774 -3.83366 -3.67701 0
M  V30 6245 C 585.813 -5.03612 -3.47909 0
M  V30 6246 N 584.95 -5.24802 -4.66398 0
M  V30 6247 H 589.79 -2.84642 -0.882198 0
M  V30 6248 H 587.327 -1.4085 -0.42422 0
M  V30 6249 H 589.285 -2.50237 -3.33822 0
M  V30 6250 H 587.915 -1.45689 -2.88053 0
M  V30 6251 H 586.967 -3.47565 -1.54606 0
M  V30 6252 H 588.279 -4.46386 -2.22577 0
M  V30 6253 H 587.433 -4.02439 -4.54013 0
M  V30 6254 H 586.172 -2.93692 -3.89353 0
M  V30 6255 H 585.177 -4.84447 -2.59983 0
M  V30 6256 H 586.402 -5.94809 -3.27688 0
M  V30 6257 H 584.348 -4.38079 -4.88286 0
M  V30 6258 H 584.265 -6.07041 -4.50596 0
M  V30 6259 H 585.533 -5.48346 -5.54019 0
M  V30 6260 N 589.762 0.448376 -1.51087 0
M  V30 6261 C 590.725 1.52588 -1.71025 0
M  V30 6262 C 591.725 1.49958 -0.580442 0
M  V30 6263 O 592.915 1.52176 -0.847833 0
M  V30 6264 C 590.047 2.92163 -1.75652 0
M  V30 6265 H 591.24 1.36218 -2.67179 0
M  V30 6266 H 588.793 0.676313 -1.4091 0
M  V30 6267 H 589.528 3.13951 -0.812724 0
M  V30 6268 H 589.313 2.95478 -2.57751 0
M  V30 6269 H 590.803 3.70349 -1.92953 0
M  V30 6270 N 591.24 1.41047 0.703093 0
M  V30 6271 C 592.486 1.40207 1.46526 0
M  V30 6272 C 592.819 0.00847763 1.94198 0
M  V30 6273 O 592.094 -0.962437 1.69019 0
M  V30 6274 C 592.377 2.40238 2.6825 0
M  V30 6275 C 592.23 3.88674 2.26391 0
M  V30 6276 C 593.549 2.37627 3.70434 0
M  V30 6277 H 590.668 0.510594 0.531472 0
M  V30 6278 H 593.31 1.72271 0.801422 0
M  V30 6279 H 591.46 2.13026 3.24888 0
M  V30 6280 H 593.132 4.2676 1.75138 0
M  V30 6281 H 591.375 4.03903 1.58255 0
M  V30 6282 H 592.046 4.542 3.13698 0
M  V30 6283 H 594.522 2.61759 3.23452 0
M  V30 6284 H 593.398 3.09645 4.53223 0
M  V30 6285 H 593.659 1.39223 4.19606 0
M  V30 6286 N 592.718 -0.936591 1.26751 0
M  V30 6287 C 593.966 -1.67998 1.12343 0
M  V30 6288 C 594.287 -1.92137 -0.332938 0
M  V30 6289 O 593.557 -1.52132 -1.23421 0
M  V30 6290 H 592.137 -0.622609 0.412756 0
M  V30 6291 H 594.799 -1.12509 1.59147 0
M  V30 6292 H 593.895 -2.65185 1.64571 0
M  V30 6293 N 594.196 -1.08629 -1.14182 0
M  V30 6294 C 595.426 -0.837673 -1.88856 0
M  V30 6295 C 595.834 0.614024 -1.78959 0
M  V30 6296 O 595.177 1.43384 -1.14833 0
M  V30 6297 C 595.239 -1.18355 -3.39459 0
M  V30 6298 C 594.903 -2.63848 -3.73139 0
M  V30 6299 C 595.9 -3.62099 -3.73069 0
M  V30 6300 C 593.585 -2.99761 -4.03049 0
M  V30 6301 C 595.579 -4.94292 -4.02435 0
M  V30 6302 C 593.266 -4.32147 -4.32078 0
M  V30 6303 C 594.264 -5.29223 -4.31755 0
M  V30 6304 O 593.952 -6.59229 -4.60079 0
M  V30 6305 H 593.684 -0.301609 -0.604986 0
M  V30 6306 H 596.238 -1.44961 -1.45518 0
M  V30 6307 H 594.468 -0.514628 -3.8326 0
M  V30 6308 H 596.157 -0.915391 -3.95443 0
M  V30 6309 H 596.923 -3.35698 -3.50046 0
M  V30 6310 H 592.802 -2.2484 -4.02453 0
M  V30 6311 H 596.346 -5.70055 -4.02098 0
M  V30 6312 H 592.243 -4.58296 -4.54571 0
M  V30 6313 H 593.011 -6.64578 -4.77785 0
M  V30 6314 N 595.674 1.31259 -0.872281 0
M  V30 6315 C 596.923 1.95893 -0.480493 0
M  V30 6316 C 597.236 1.697 0.972688 0
M  V30 6317 O 598.442 2.28214 1.47073 0
M  V30 6318 C 596.898 3.50705 -0.808342 0
M  V30 6319 C 596.506 3.85735 -2.27844 0
M  V30 6320 C 598.25 4.21719 -0.485136 0
M  V30 6321 C 596.157 5.33668 -2.54858 0
M  V30 6322 H 595.087 0.733182 -0.175955 0
M  V30 6323 H 597.738 1.49396 -1.0655 0
M  V30 6324 H 596.12 3.95706 -0.152558 0
M  V30 6325 H 597.294 3.51686 -2.97748 0
M  V30 6326 H 595.609 3.27792 -2.56791 0
M  V30 6327 H 598.206 5.30559 -0.664166 0
M  V30 6328 H 598.549 4.12316 0.574592 0
M  V30 6329 H 599.082 3.82359 -1.09756 0
M  V30 6330 H 595.821 5.48109 -3.59523 0
M  V30 6331 H 595.341 5.69061 -1.8955 0
M  V30 6332 H 597.02 6.00958 -2.39706 0
M  V30 6333 N 597.152 0.631951 1.44375 0
M  V30 6334 C 598.392 0.14009 2.03919 0
M  V30 6335 C 598.756 -1.21534 1.48639 0
M  V30 6336 O 599.957 -1.79936 1.99691 0
M  V30 6337 C 598.228 0.127174 3.57174 0
M  V30 6338 S 599.787 -0.299946 4.37774 0
M  V30 6339 H 596.605 0.0614891 0.708336 0
M  V30 6340 H 599.207 0.835524 1.76746 0
M  V30 6341 H 597.911 1.11676 3.94913 0
M  V30 6342 H 597.442 -0.589482 3.88958 0
M  V30 6343 H 599.457 -1.54396 4.71568 0
M  V30 6344 N 598.631 -1.53133 0.372548 0
M  V30 6345 C 599.578 -2.25951 -0.470631 0
M  V30 6346 C 600.548 -1.26895 -1.07176 0
M  V30 6347 O 601.733 -1.55691 -1.10294 0
M  V30 6348 C 598.873 -3.05726 -1.6008 0
M  V30 6349 C 597.986 -4.19684 -1.02416 0
M  V30 6350 C 597.121 -4.86888 -2.124 0
M  V30 6351 C 596.16 -5.92866 -1.52238 0
M  V30 6352 N 595.297 -6.53732 -2.56084 0
M  V30 6353 H 600.137 -2.97587 0.156816 0
M  V30 6354 H 597.674 -1.4683 0.0891571 0
M  V30 6355 H 599.632 -3.50258 -2.26661 0
M  V30 6356 H 598.262 -2.36331 -2.1988 0
M  V30 6357 H 597.314 -3.79588 -0.248426 0
M  V30 6358 H 598.626 -4.95821 -0.544366 0
M  V30 6359 H 597.78 -5.34638 -2.86787 0
M  V30 6360 H 596.519 -4.10239 -2.63734 0
M  V30 6361 H 595.524 -5.4447 -0.763685 0
M  V30 6362 H 596.749 -6.71439 -1.0172 0
M  V30 6363 H 594.695 -5.79932 -3.06618 0
M  V30 6364 H 594.612 -7.25429 -2.12811 0
M  V30 6365 H 595.88 -7.0613 -3.30152 0
M  V30 6366 N 600.109 -0.101901 -1.5727 0
M  V30 6367 C 601.349 0.563489 -1.96479 0
M  V30 6368 C 601.713 1.64926 -0.983021 0
M  V30 6369 O 602.914 2.37234 -1.26386 0
M  V30 6370 C 601.185 1.09809 -3.40113 0
M  V30 6371 S 602.744 1.7744 -4.01323 0
M  V30 6372 H 599.562 0.183675 -0.686866 0
M  V30 6373 H 602.164 -0.182922 -1.94642 0
M  V30 6374 H 600.868 0.296447 -4.09328 0
M  V30 6375 H 600.399 1.88018 -3.45562 0
M  V30 6376 H 602.414 3.0591 -3.90683 0
M  V30 6377 N 601.587 1.56661 0.17182 0
M  V30 6378 C 602.535 1.97289 1.23207 0
M  V30 6379 C 603.529 0.861566 1.45854 0
M  V30 6380 O 604.735 1.04668 1.4644 0
M  V30 6381 H 601.11 0.627681 0.41415 0
M  V30 6382 H 603.081 2.85662 0.862542 0
M  V30 6383 C 601.83 2.34849 2.564 0
M  V30 6384 H 601.153 3.19903 2.39797 0
M  V30 6385 H 602.593 2.67121 3.29276 0
M  V30 6386 C 601.052 1.19172 3.15119 0
M  V30 6387 O 601.582 0.479113 3.98833 0
M  V30 6388 N 599.788 0.962415 2.74201 0
M  V30 6389 H 599.335 1.54365 2.06226 0
M  V30 6390 H 599.293 0.190272 3.13824 0
M  V30 6391 N 603.065 -0.440357 1.51323 0
M  V30 6392 C 604.313 -1.18769 1.63518 0
M  V30 6393 C 604.634 -1.91793 0.352201 0
M  V30 6394 O 603.904 -1.85432 -0.631811 0
M  V30 6395 H 602.484 -0.441408 0.602634 0
M  V30 6396 H 605.146 -0.505162 1.8824 0
M  V30 6397 H 604.242 -1.91892 2.46138 0
M  V30 6398 N 604.543 -1.41418 -0.695603 0
M  V30 6399 C 605.791 -1.40496 -1.45277 0
M  V30 6400 C 606.112 -0.0149538 -1.94994 0
M  V30 6401 O 605.382 0.9432 -1.71699 0
M  V30 6402 H 603.962 -0.517147 -0.539044 0
M  V30 6403 H 606.624 -1.76656 -0.823321 0
M  V30 6404 H 605.72 -2.09214 -2.31595 0
M  V30 6405 N 606.021 0.929856 -1.27246 0
M  V30 6406 C 607.437 1.20542 -1.04603 0
M  V30 6407 C 607.637 2.00276 0.221754 0
M  V30 6408 O 606.693 2.34835 0.927833 0
M  V30 6409 C 608.006 1.95566 -2.28417 0
M  V30 6410 C 609.554 2.08513 -2.33433 0
M  V30 6411 C 610.029 2.86943 -3.5697 0
M  V30 6412 N 611.52 2.94512 -3.57515 0
M  V30 6413 C 612.255 3.55656 -4.49774 0
M  V30 6414 N 611.751 4.18209 -5.52334 0
M  V30 6415 N 613.544 3.53038 -4.37402 0
M  V30 6416 H 605.695 0.397113 -2.08655 0
M  V30 6417 H 607.958 0.238277 -0.917566 0
M  V30 6418 H 607.664 1.44395 -3.20691 0
M  V30 6419 H 607.538 2.9619 -2.33563 0
M  V30 6420 H 609.925 2.58872 -1.41666 0
M  V30 6421 H 610.006 1.07117 -2.32292 0
M  V30 6422 H 609.65 2.37268 -4.49072 0
M  V30 6423 H 609.58 3.8862 -3.55362 0
M  V30 6424 H 612.071 2.50053 -2.83341 0
M  V30 6425 H 612.384 4.62796 -6.18902 0
M  V30 6426 H 610.729 4.16761 -5.56179 0
M  V30 6427 H 613.92 3.0337 -3.56489 0
M  V30 6428 H 614.093 4.004 -5.09493 0
M  V30 6429 N 607.499 1.09233 1.13605 0
M  V30 6430 C 608.747 0.825525 1.84471 0
M  V30 6431 C 609.068 -0.650702 1.83823 0
M  V30 6432 O 608.338 -1.47204 1.29259 0
M  V30 6433 H 606.918 0.3024 0.683054 0
M  V30 6434 H 609.58 1.38006 1.37624 0
M  V30 6435 H 608.676 1.17727 2.89045 0
M  V30 6436 N 608.977 -1.30795 0.87923 0
M  V30 6437 C 609.94 -2.26563 0.346676 0
M  V30 6438 C 610.94 -1.52578 -0.507597 0
M  V30 6439 O 612.13 -1.71318 -0.315575 0
M  V30 6440 C 609.262 -3.37115 -0.506611 0
M  V30 6441 H 610.455 -2.75183 1.19223 0
M  V30 6442 H 608.008 -1.41886 0.655598 0
M  V30 6443 H 608.743 -2.93802 -1.37299 0
M  V30 6444 H 608.528 -3.91959 0.105218 0
M  V30 6445 H 610.018 -4.08412 -0.871192 0
M  V30 6446 N 610.455 -0.639598 -1.44038 0
M  V30 6447 C 611.704 -0.144885 -2.01179 0
M  V30 6448 C 612.017 1.24372 -1.50967 0
M  V30 6449 O 613.223 1.83291 -2.00292 0
M  V30 6450 C 611.679 -0.208244 -3.59297 0
M  V30 6451 C 611.287 -1.59869 -4.18504 0
M  V30 6452 C 613.031 0.229568 -4.23879 0
M  V30 6453 C 610.938 -1.61671 -5.68873 0
M  V30 6454 H 609.868 -0.0504005 -0.752314 0
M  V30 6455 H 612.519 -0.799639 -1.65161 0
M  V30 6456 H 610.901 0.513767 -3.92653 0
M  V30 6457 H 612.075 -2.34496 -3.96671 0
M  V30 6458 H 610.39 -1.98131 -3.66242 0
M  V30 6459 H 612.987 0.235758 -5.3418 0
M  V30 6460 H 613.33 1.25848 -3.96822 0
M  V30 6461 H 613.863 -0.440233 -3.95357 0
M  V30 6462 H 610.602 -2.62427 -6.00677 0
M  V30 6463 H 610.122 -0.913489 -5.92803 0
M  V30 6464 H 611.801 -1.35439 -6.32665 0
M  V30 6465 N 611.933 1.52934 -0.380664 0
M  V30 6466 C 613.349 1.59571 -0.0302429 0
M  V30 6467 C 613.549 1.39509 1.45394 0
M  V30 6468 O 612.605 1.20777 2.21741 0
M  V30 6469 C 613.918 2.96519 -0.499691 0
M  V30 6470 C 615.466 3.09672 -0.455204 0
M  V30 6471 C 615.941 4.49056 -0.900703 0
M  V30 6472 N 617.432 4.55215 -0.856367 0
M  V30 6473 C 618.167 5.61282 -1.17259 0
M  V30 6474 N 617.663 6.75035 -1.55885 0
M  V30 6475 N 619.456 5.51343 -1.0944 0
M  V30 6476 H 611.607 1.64224 -1.347 0
M  V30 6477 H 613.87 0.771033 -0.551554 0
M  V30 6478 H 613.576 3.16388 -1.53595 0
M  V30 6479 H 613.45 3.77052 0.105789 0
M  V30 6480 H 615.837 2.89504 0.571949 0
M  V30 6481 H 615.918 2.31113 -1.09638 0
M  V30 6482 H 615.562 4.69964 -1.92604 0
M  V30 6483 H 615.492 5.26068 -0.236629 0
M  V30 6484 H 617.983 3.73546 -0.572013 0
M  V30 6485 H 618.296 7.51926 -1.784 0
M  V30 6486 H 616.641 6.76388 -1.59764 0
M  V30 6487 H 619.832 4.61356 -0.791713 0
M  V30 6488 H 620.005 6.33905 -1.34417 0
M  V30 6489 N 613.412 0.11024 1.57214 0
M  V30 6490 C 614.322 -0.857077 2.18383 0
M  V30 6491 C 615.338 -1.29915 1.1575 0
M  V30 6492 O 616.514 -1.36394 1.48184 0
M  V30 6493 C 613.579 -2.09264 2.76423 0
M  V30 6494 C 612.64 -1.70333 3.94063 0
M  V30 6495 C 611.873 -2.87999 4.49324 0
M  V30 6496 O 612.096 -4.0317 4.03497 0
M  V30 6497 O 611.03 -2.6559 5.40135 0
M  V30 6498 H 614.856 -0.366561 3.0148 0
M  V30 6499 H 612.441 -0.114914 1.48957 0
M  V30 6500 H 614.323 -2.81644 3.13456 0
M  V30 6501 H 612.998 -2.57339 1.96363 0
M  V30 6502 H 611.905 -0.950864 3.61814 0
M  V30 6503 H 613.238 -1.27007 4.75531 0
M  V30 6504 N 614.89 -1.56749 -0.16351 0
M  V30 6505 C 616.137 -1.82434 -0.878866 0
M  V30 6506 C 616.465 -0.688557 -1.81904 0
M  V30 6507 O 615.72 0.323644 -1.93005 0
M  V30 6508 C 616.019 -3.14342 -1.70071 0
M  V30 6509 C 615.685 -4.41647 -0.908775 0
M  V30 6510 C 614.347 -4.76224 -0.690236 0
M  V30 6511 C 616.699 -5.19998 -0.353815 0
M  V30 6512 C 614.027 -5.86624 0.0942374 0
M  V30 6513 C 616.379 -6.3122 0.41761 0
M  V30 6514 C 615.043 -6.64358 0.646879 0
M  V30 6515 H 614.313 -0.667574 -0.3216 0
M  V30 6516 H 616.96 -1.90963 -0.14337 0
M  V30 6517 H 615.265 -3.0119 -2.50583 0
M  V30 6518 H 616.962 -3.31426 -2.25738 0
M  V30 6519 H 613.552 -4.1453 -1.08916 0
M  V30 6520 H 617.736 -4.93673 -0.509975 0
M  V30 6521 H 612.992 -6.10751 0.281529 0
M  V30 6522 H 617.166 -6.91133 0.854849 0
M  V30 6523 H 614.793 -7.49742 1.25662 0
M  V30 6524 N 616.368 0.432326 -1.51554 0
M  V30 6525 C 617.331 1.50765 -1.72634 0
M  V30 6526 C 618.331 1.49334 -0.596314 0
M  V30 6527 O 619.521 1.51268 -0.863925 0
M  V30 6528 C 616.653 2.90284 -1.7874 0
M  V30 6529 H 617.846 1.33377 -2.68609 0
M  V30 6530 H 615.399 0.661329 -1.4162 0
M  V30 6531 H 616.134 3.13071 -0.845977 0
M  V30 6532 H 615.919 2.92727 -2.6087 0
M  V30 6533 H 617.409 3.68282 -1.96871 0
M  V30 6534 N 617.846 1.41785 0.688094 0
M  V30 6535 C 618.756 1.46596 1.83158 0
M  V30 6536 C 619.772 0.355862 1.70322 0
M  V30 6537 O 620.948 0.604737 1.92106 0
M  V30 6538 C 618.013 1.35322 3.192 0
M  V30 6539 C 617.074 2.56711 3.4409 0
M  V30 6540 C 616.307 2.45965 4.73642 0
M  V30 6541 O 616.53 1.48827 5.50642 0
M  V30 6542 O 615.464 3.35859 4.99482 0
M  V30 6543 H 619.29 2.43083 1.82056 0
M  V30 6544 H 616.875 1.23404 0.842126 0
M  V30 6545 H 618.757 1.31347 4.00407 0
M  V30 6546 H 617.432 0.419536 3.2097 0
M  V30 6547 H 616.339 2.66262 2.62784 0
M  V30 6548 H 617.672 3.48933 3.47141 0
M  V30 6549 N 619.324 -0.923095 1.27737 0
M  V30 6550 C 620.274 -2.01061 1.0751 0
M  V30 6551 C 621.258 -1.609 0.00165451 0
M  V30 6552 O 622.45 -1.75618 0.220724 0
M  V30 6553 C 619.579 -3.35467 0.729162 0
M  V30 6554 C 618.665 -3.82059 1.84098 0
M  V30 6555 N 619.056 -4.01115 3.08124 0
M  V30 6556 C 617.354 -4.11135 1.7287 0
M  V30 6557 C 618.055 -4.39989 3.80506 0
M  V30 6558 N 617.031 -4.47721 3.08297 0
M  V30 6559 H 620.833 -2.13832 2.01626 0
M  V30 6560 H 618.347 -1.11027 1.18519 0
M  V30 6561 H 620.344 -4.13049 0.565355 0
M  V30 6562 H 619.004 -3.24056 -0.204334 0
M  V30 6563 H 620.015 -3.87294 3.43836 0
M  V30 6564 H 616.692 -4.08412 0.866352 0
M  V30 6565 H 618.082 -4.62773 4.87125 0
M  V30 6566 N 620.802 -1.09834 -1.13024 0
M  V30 6567 C 622.051 -0.831806 -1.83749 0
M  V30 6568 C 622.364 0.644763 -1.84668 0
M  V30 6569 O 623.57 1.02697 -2.51327 0
M  V30 6570 C 622.026 -1.43817 -3.29916 0
M  V30 6571 C 621.634 -2.94759 -3.37374 0
M  V30 6572 C 623.378 -1.25077 -4.05655 0
M  V30 6573 C 621.285 -3.48461 -4.77838 0
M  V30 6574 H 620.215 -0.30751 -0.688443 0
M  V30 6575 H 622.866 -1.32156 -1.27307 0
M  V30 6576 H 621.248 -0.876106 -3.86187 0
M  V30 6577 H 622.422 -3.57228 -2.91076 0
M  V30 6578 H 620.737 -3.12581 -2.75103 0
M  V30 6579 H 623.334 -1.62649 -5.09362 0
M  V30 6580 H 623.677 -0.191782 -4.15858 0
M  V30 6581 H 624.21 -1.78057 -3.55725 0
M  V30 6582 H 620.949 -4.53998 -4.72828 0
M  V30 6583 H 620.469 -2.90757 -5.24615 0
M  V30 6584 H 622.148 -3.45914 -5.46766 0
M  V30 6585 N 622.28 1.30327 -0.886154 0
M  V30 6586 C 623.52 1.97886 -0.511912 0
M  V30 6587 C 623.884 1.68417 0.921944 0
M  V30 6588 O 625.085 2.29319 1.40237 0
M  V30 6589 C 623.356 3.48775 -0.780444 0
M  V30 6590 S 624.915 4.35844 -0.508482 0
M  V30 6591 H 621.733 0.685024 -0.190428 0
M  V30 6592 H 624.335 1.58413 -1.14567 0
M  V30 6593 H 623.039 3.67714 -1.82248 0
M  V30 6594 H 622.57 3.93171 -0.134284 0
M  V30 6595 H 624.585 4.91893 0.65239 0
M  V30 6596 N 623.758 0.647228 1.43697 0
M  V30 6597 C 624.688 -0.0345631 2.33474 0
M  V30 6598 C 625.669 -0.818193 1.4913 0
M  V30 6599 O 626.854 -0.780867 1.77809 0
M  V30 6600 C 623.984 -1.00576 3.32418 0
M  V30 6601 C 622.938 -0.33266 4.26705 0
M  V30 6602 C 622.264 -1.41489 5.1564 0
M  V30 6603 C 623.564 0.771204 5.16575 0
M  V30 6604 H 625.258 0.715163 2.90733 0
M  V30 6605 H 622.804 0.345364 1.39797 0
M  V30 6606 H 624.757 -1.49159 3.94119 0
M  V30 6607 H 623.481 -1.78657 2.73403 0
M  V30 6608 H 622.14 0.13267 3.6636 0
M  V30 6609 H 621.788 -2.18698 4.52968 0
M  V30 6610 H 621.488 -0.969799 5.79542 0
M  V30 6611 H 623.012 -1.9022 5.80214 0
M  V30 6612 H 624.426 0.36779 5.72119 0
M  V30 6613 H 622.823 1.1404 5.89165 0
M  V30 6614 H 623.893 1.63169 4.56622 0
M  V30 6615 N 625.236 -1.5273 0.388769 0
M  V30 6616 C 626.166 -2.29353 -0.438111 0
M  V30 6617 C 627.147 -1.32719 -1.06394 0
M  V30 6618 O 628.332 -1.61612 -1.07681 0
M  V30 6619 C 625.462 -3.09995 -1.56589 0
M  V30 6620 C 624.416 -4.14509 -1.06613 0
M  V30 6621 C 623.742 -4.83372 -2.28594 0
M  V30 6622 C 625.042 -5.22127 -0.134459 0
M  V30 6623 H 626.736 -2.98723 0.201206 0
M  V30 6624 H 624.282 -1.43665 0.0982089 0
M  V30 6625 H 626.235 -3.62357 -2.15118 0
M  V30 6626 H 624.959 -2.38357 -2.23279 0
M  V30 6627 H 623.618 -3.63128 -0.503383 0
M  V30 6628 H 623.266 -4.08283 -2.93792 0
M  V30 6629 H 622.966 -5.54012 -1.95817 0
M  V30 6630 H 624.49 -5.38538 -2.87766 0
M  V30 6631 H 625.904 -5.69851 -0.627914 0
M  V30 6632 H 624.301 -6.00011 0.103534 0
M  V30 6633 H 625.371 -4.77971 0.816798 0
M  V30 6634 N 626.714 -0.118576 -1.57153 0
M  V30 6635 C 627.647 0.869046 -2.11004 0
M  V30 6636 C 628.625 1.26115 -1.02634 0
M  V30 6637 O 629.809 1.36228 -1.30285 0
M  V30 6638 C 626.936 2.16297 -2.6064 0
M  V30 6639 C 625.982 1.91896 -3.80891 0
M  V30 6640 S 626.815 1.13562 -5.2332 0
M  V30 6641 C 627.971 2.44135 -5.76324 0
M  V30 6642 H 628.204 0.411005 -2.94445 0
M  V30 6643 H 625.737 0.0951891 -1.54106 0
M  V30 6644 H 627.695 2.90642 -2.89892 0
M  V30 6645 H 626.356 2.59219 -1.77382 0
M  V30 6646 H 625.549 2.8777 -4.13768 0
M  V30 6647 H 625.151 1.25672 -3.52253 0
M  V30 6648 H 627.443 3.39976 -5.86022 0
M  V30 6649 H 628.386 2.15803 -6.74414 0
M  V30 6650 H 628.794 2.53483 -5.04387 0
M  V30 6651 N 628.193 1.56834 0.155195 0
M  V30 6652 C 629.103 2.009 1.21146 0
M  V30 6653 C 630.119 0.923029 1.475 0
M  V30 6654 O 631.295 1.23189 1.59331 0
M  V30 6655 C 628.36 2.37378 2.52691 0
M  V30 6656 C 627.421 3.59883 2.34057 0
M  V30 6657 C 626.654 3.94612 3.59329 0
M  V30 6658 O 626.877 3.30104 4.65175 0
M  V30 6659 O 625.811 4.87895 3.52479 0
M  V30 6660 H 629.637 2.9105 0.867371 0
M  V30 6661 H 627.222 1.44916 0.363298 0
M  V30 6662 H 629.104 2.61737 3.3026 0
M  V30 6663 H 627.779 1.50385 2.86646 0
M  V30 6664 H 626.686 3.40722 1.54465 0
M  V30 6665 H 628.019 4.47468 2.0502 0
M  V30 6666 N 629.671 -0.424282 1.51781 0
M  V30 6667 C 630.618 -1.51591 1.74037 0
M  V30 6668 C 631.588 -1.55556 0.582358 0
M  V30 6669 O 632.773 -1.72364 0.818245 0
M  V30 6670 C 629.913 -2.89188 1.8832 0
M  V30 6671 C 629.026 -2.9465 3.1592 0
M  V30 6672 C 628.161 -4.23452 3.20721 0
M  V30 6673 C 627.2 -4.22831 4.42584 0
M  V30 6674 N 626.337 -5.43178 4.44862 0
M  V30 6675 H 631.177 -1.31917 2.67212 0
M  V30 6676 H 628.714 -0.640599 1.32419 0
M  V30 6677 H 630.672 -3.69044 1.94583 0
M  V30 6678 H 629.302 -3.07392 0.985402 0
M  V30 6679 H 628.354 -2.07378 3.18902 0
M  V30 6680 H 629.666 -2.90055 4.05795 0
M  V30 6681 H 628.82 -5.1169 3.25973 0
M  V30 6682 H 627.559 -4.30722 2.28757 0
M  V30 6683 H 626.564 -3.32984 4.37495 0
M  V30 6684 H 627.789 -4.17213 5.35826 0
M  V30 6685 H 625.735 -5.51145 3.55775 0
M  V30 6686 H 625.652 -5.40515 5.28563 0
M  V30 6687 H 626.92 -6.33412 4.54324 0
M  V30 6688 N 631.149 -1.42148 -0.680565 0
M  V30 6689 C 632.395 -1.42521 -1.44277 0
M  V30 6690 C 632.728 -0.0393718 -1.9416 0
M  V30 6691 O 632.003 0.935425 -1.70529 0
M  V30 6692 C 632.286 -2.44475 -2.64394 0
M  V30 6693 C 632.139 -3.92226 -2.20179 0
M  V30 6694 C 633.458 -2.43491 -3.66606 0
M  V30 6695 H 630.577 -0.518985 -0.523282 0
M  V30 6696 H 633.219 -1.73524 -0.773914 0
M  V30 6697 H 631.369 -2.18168 -3.21458 0
M  V30 6698 H 633.041 -4.29493 -1.68327 0
M  V30 6699 H 631.284 -4.0637 -1.5181 0
M  V30 6700 H 631.955 -4.59133 -3.06433 0
M  V30 6701 H 634.431 -2.66872 -3.19247 0
M  V30 6702 H 633.307 -3.16816 -4.4824 0
M  V30 6703 H 633.568 -1.45881 -4.17338 0
M  V30 6704 N 632.627 0.916307 -1.28225 0
M  V30 6705 C 633.575 2.03977 -1.11786 0
M  V30 6706 C 634.569 1.69358 -0.0378265 0
M  V30 6707 O 635.775 1.78925 -0.196405 0
M  V30 6708 H 632.15 0.66829 -0.344809 0
M  V30 6709 H 634.121 2.14985 -2.06939 0
M  V30 6710 C 632.87 3.38518 -0.7938 0
M  V30 6711 H 632.193 3.65649 -1.61682 0
M  V30 6712 H 633.633 4.17864 -0.718719 0
M  V30 6713 C 632.092 3.33134 0.502353 0
M  V30 6714 O 632.622 3.71281 1.53341 0
M  V30 6715 N 630.828 2.86229 0.502147 0
M  V30 6716 H 630.375 2.55382 -0.337338 0
M  V30 6717 H 630.333 2.83009 1.36942 0
M  V30 6718 N 634.105 1.10431 1.1244 0
M  V30 6719 C 635.053 0.747974 2.20246 0
M  V30 6720 C 636.047 -0.255848 1.67457 0
M  V30 6721 O 637.253 -0.116221 1.79624 0
M  V30 6722 H 633.628 0.223946 0.71788 0
M  V30 6723 H 635.599 1.6661 2.47556 0
M  V30 6724 C 634.348 0.195957 3.47147 0
M  V30 6725 H 633.671 0.959606 3.88113 0
M  V30 6726 H 635.111 -0.0153154 4.23997 0
M  V30 6727 C 633.57 -1.07132 3.19413 0
M  V30 6728 O 634.1 -2.15284 3.3914 0
M  V30 6729 N 632.306 -0.98994 2.73219 0
M  V30 6730 H 631.853 -0.109736 2.57366 0
M  V30 6731 H 631.811 -1.83856 2.55038 0
M  V30 6732 N 635.583 -1.29855 0.893053 0
M  V30 6733 C 636.808 -2.00512 0.530066 0
M  V30 6734 C 637.233 -1.66446 -0.876199 0
M  V30 6735 O 636.591 -0.885446 -1.58207 0
M  V30 6736 C 636.639 -3.53308 0.721505 0
M  V30 6737 O 635.743 -4.11764 -0.228994 0
M  V30 6738 H 635.084 -0.630617 0.207891 0
M  V30 6739 H 637.614 -1.6551 1.20282 0
M  V30 6740 H 637.624 -4.03206 0.623599 0
M  V30 6741 H 636.299 -3.77439 1.74678 0
M  V30 6742 H 634.876 -3.72805 -0.0841034 0
M  V30 6743 N 637.061 -0.65484 -1.43351 0
M  V30 6744 C 638.301 -0.172514 -2.03671 0
M  V30 6745 C 638.665 1.19154 -1.50553 0
M  V30 6746 O 639.866 1.76737 -2.02528 0
M  V30 6747 C 638.137 -0.183982 -3.56926 0
M  V30 6748 S 639.696 0.230262 -4.38195 0
M  V30 6749 H 636.514 -0.0727503 -0.707268 0
M  V30 6750 H 639.116 -0.863537 -1.75395 0
M  V30 6751 H 637.82 -1.17945 -3.93087 0
M  V30 6752 H 637.351 0.527527 -3.89847 0
M  V30 6753 H 639.366 1.46874 -4.73965 0
M  V30 6754 N 638.539 1.52521 -0.396863 0
M  V30 6755 C 639.471 2.24333 0.469814 0
M  V30 6756 C 640.484 1.2685 1.02043 0
M  V30 6757 O 641.673 1.52876 0.92147 0
M  V30 6758 C 638.773 2.95202 1.66461 0
M  V30 6759 C 637.946 4.19454 1.24003 0
M  V30 6760 C 637.005 4.73255 2.30036 0
M  V30 6761 O 636.031 5.36151 1.91131 0
M  V30 6762 N 637.233 4.53765 3.62047 0
M  V30 6763 H 639.998 2.99347 -0.145468 0
M  V30 6764 H 637.559 1.60348 -0.223606 0
M  V30 6765 H 639.551 3.28092 2.36934 0
M  V30 6766 H 638.121 2.2345 2.18607 0
M  V30 6767 H 637.341 3.92517 0.363892 0
M  V30 6768 H 638.629 5.0017 0.933135 0
M  V30 6769 H 638.027 4.03576 3.96412 0
M  V30 6770 H 636.584 4.91124 4.28533 0
M  V30 6771 N 640.017 0.126909 1.57088 0
M  V30 6772 C 640.964 -0.82036 2.15728 0
M  V30 6773 C 641.934 -1.25811 1.08447 0
M  V30 6774 O 643.119 -1.33422 1.36393 0
M  V30 6775 C 640.259 -2.06199 2.76724 0
M  V30 6776 C 639.372 -1.67188 3.98337 0
M  V30 6777 C 638.507 -2.86378 4.47393 0
M  V30 6778 C 637.546 -2.43644 5.61519 0
M  V30 6779 N 636.683 -3.55775 6.05284 0
M  V30 6780 H 641.523 -0.313472 2.96347 0
M  V30 6781 H 639.06 -0.14303 1.46403 0
M  V30 6782 H 641.018 -2.78959 3.10222 0
M  V30 6783 H 639.648 -2.54333 1.98782 0
M  V30 6784 H 638.7 -0.842714 3.70948 0
M  V30 6785 H 640.012 -1.31789 4.81075 0
M  V30 6786 H 639.166 -3.67353 4.82842 0
M  V30 6787 H 637.905 -3.25009 3.63621 0
M  V30 6788 H 636.91 -1.61104 5.25667 0
M  V30 6789 H 638.135 -2.06122 6.47063 0
M  V30 6790 H 636.081 -3.94065 5.24451 0
M  V30 6791 H 635.998 -3.24325 6.82898 0
M  V30 6792 H 637.266 -4.37166 6.45373 0
M  V30 6793 O 641.534 -1.61495 -0.0122585 0
M  V30 6794 H 642.225 -1.83148 -0.630585 0
M  V30 END ATOM
M  V30 BEGIN BOND
M  V30 END BOND
M  V30 END CTAB
M  END
$$$$
