drugbank_target|P55769 NHP2-like protein 1 (DB02494; DB07374)
 OpenBabel12092120423D

  0  0  0     0  0            999 V3000
M  V30 BEGIN CTAB
M  V30 COUNTS 2034 2046 0 0 0
M  V30 BEGIN ATOM
M  V30 1 H -0.908 1.98254 -0.117106 0
M  V30 2 N 0 1.576 0 0
M  V30 3 C 0.933 2.03868 1.02534 0
M  V30 4 C 1.911 0.928543 1.3348 0
M  V30 5 O 3.095 1.19667 1.45644 0
M  V30 6 C 0.222 2.43627 2.35294 0
M  V30 7 C -0.732 3.65373 2.2001 0
M  V30 8 S 0.101 5.13292 1.52614 0
M  V30 9 C 1.257 5.56322 2.86805 0
M  V30 10 H 1.49 2.90518 0.631377 0
M  V30 11 H -0.977 1.52953 0.210867 0
M  V30 12 H 0.981 2.67203 3.11629 0
M  V30 13 H -0.358 1.57376 2.7183 0
M  V30 14 H -1.165 3.90944 3.18086 0
M  V30 15 H -1.563 3.418 1.51819 0
M  V30 16 H 0.729 5.58782 3.83104 0
M  V30 17 H 1.672 6.56266 2.65933 0
M  V30 18 H 2.08 4.83886 2.90714 0
M  V30 19 N 1.4781 -0.272755 1.55222 0
M  V30 20 C 2.7061 -1.02255 1.79865 0
M  V30 21 C 3.1211 -1.79924 0.572088 0
M  V30 22 O 2.4781 -1.76638 -0.458842 0
M  V30 23 C 2.5291 -1.98094 3.02392 0
M  V30 24 O 2.2501 -1.23572 4.20311 0
M  V30 25 C 3.7511 -2.84884 3.39641 0
M  V30 26 H 0.9711 -0.302057 0.599168 0
M  V30 27 H 3.5151 -0.303465 2.02236 0
M  V30 28 H 1.6701 -2.65465 2.82147 0
M  V30 29 H 2.0841 -1.88172 4.89583 0
M  V30 30 H 3.5581 -3.47927 4.28545 0
M  V30 31 H 4.0351 -3.54665 2.59055 0
M  V30 32 H 4.6411 -2.23003 3.62146 0
M  V30 33 N 2.9562 -1.48159 -0.537278 0
M  V30 34 C 3.8662 -1.64807 -1.6696 0
M  V30 35 C 4.8822 -0.530651 -1.65711 0
M  V30 36 O 6.0582 -0.800784 -1.84796 0
M  V30 37 C 3.1232 -1.67708 -3.03438 0
M  V30 38 C 2.1842 -2.91025 -3.156 0
M  V30 39 C 1.4172 -2.93778 -4.45567 0
M  V30 40 O 1.6402 -2.05153 -5.3223 0
M  V30 41 O 0.5742 -3.85868 -4.61941 0
M  V30 42 H 4.4002 -2.6066 -1.55853 0
M  V30 43 H 1.9852 -1.31475 -0.709549 0
M  V30 44 H 3.8672 -1.7218 -3.84619 0
M  V30 45 H 2.5422 -0.750278 -3.14885 0
M  V30 46 H 1.4492 -2.92089 -2.33741 0
M  V30 47 H 2.7822 -3.83065 -3.09066 0
M  V30 48 N 4.4343 0.785586 -1.36625 0
M  V30 49 C 5.3973 1.87999 -1.31107 0
M  V30 50 C 6.3973 1.59316 -0.217959 0
M  V30 51 O 7.5873 1.67656 -0.472977 0
M  V30 52 C 4.7193 3.24861 -1.03334 0
M  V30 53 H 5.9123 1.94307 -2.2844 0
M  V30 54 H 3.4653 0.983813 -1.21453 0
M  V30 55 H 4.2003 3.24235 -0.0647432 0
M  V30 56 H 3.9853 3.4707 -1.82441 0
M  V30 57 H 5.4753 4.04929 -1.02088 0
M  V30 58 N 5.9124 1.20967 1.01018 0
M  V30 59 C 7.1894 0.93264 1.71934 0
M  V30 60 C 7.5694 -0.55692 2.03621 0
M  V30 61 O 6.9174 -1.52035 1.7058 0
M  V30 62 C 7.1274 1.81233 2.98254 0
M  V30 63 C 8.4754 2.05804 3.71389 0
M  V30 64 O 9.4994 1.78539 3.08225 0
M  V30 65 O 8.3584 2.51888 4.84989 0
M  V30 66 H 5.4524 0.349272 0.749625 0
M  V30 67 H 7.9984 1.31871 1.06808 0
M  V30 68 H 6.7704 2.82067 2.71208 0
M  V30 69 H 6.3934 1.42674 3.7112 0
M  V30 70 N 7.3905 -1.2043 1.01659 0
M  V30 71 C 8.6365 -1.90079 0.706963 0
M  V30 72 C 8.9695 -1.78648 -0.761474 0
M  V30 73 O 8.2445 -1.17069 -1.55323 0
M  V30 74 C 8.5275 -3.41469 1.14327 0
M  V30 75 C 8.3805 -3.61833 2.67201 0
M  V30 76 C 9.6995 -4.34261 0.714529 0
M  V30 77 H 6.8185 -0.690254 0.2583 0
M  V30 78 H 9.4605 -1.41826 1.26433 0
M  V30 79 H 7.6105 -3.82696 0.669056 0
M  V30 80 H 9.2825 -3.2986 3.22475 0
M  V30 81 H 7.5255 -3.05304 3.08175 0
M  V30 82 H 8.1965 -4.67955 2.92783 0
M  V30 83 H 10.6725 -4.00682 1.12221 0
M  V30 84 H 9.5485 -5.38806 1.04784 0
M  V30 85 H 9.8095 -4.40431 -0.383799 0
M  V30 86 N 8.8686 -0.792821 -1.36206 0
M  V30 87 C 9.8166 -0.181555 -2.3189 0
M  V30 88 C 10.8106 0.661025 -1.55971 0
M  V30 89 O 12.0166 0.555728 -1.71206 0
M  V30 90 H 8.3916 -0.0399382 -0.750939 0
M  V30 91 H 10.3626 -1.00394 -2.81005 0
M  V30 92 C 9.1116 0.666444 -3.41253 0
M  V30 93 H 8.4346 0.0274489 -3.99791 0
M  V30 94 H 9.8746 1.06076 -4.10517 0
M  V30 95 C 8.3336 1.82614 -2.83114 0
M  V30 96 O 8.8636 2.9229 -2.75553 0
M  V30 97 N 7.0696 1.63333 -2.40356 0
M  V30 98 H 6.6166 0.741217 -2.46706 0
M  V30 99 H 6.5746 2.41087 -2.01803 0
M  V30 100 N 10.3467 1.47872 -0.545128 0
M  V30 101 C 11.7577 1.86384 -0.108581 0
M  V30 102 C 12.1087 1.45309 1.31832 0
M  V30 103 O 11.2337 0.850641 1.9898 0
M  V30 104 C 11.8287 3.38265 -0.190274 0
M  V30 105 C 10.3877 3.75914 0.191164 0
M  V30 106 C 9.5347 2.71926 -0.543273 0
M  V30 107 H 12.4857 1.39561 -0.755537 0
M  V30 108 H 12.5067 3.75831 0.594217 0
M  V30 109 H 12.0187 3.6813 -1.2289 0
M  V30 110 H 10.1197 3.51665 1.23136 0
M  V30 111 H 10.2327 4.78836 -0.158987 0
M  V30 112 H 8.5967 2.54697 0.0122495 0
M  V30 113 H 9.3797 3.04634 -1.58282 0
M  V30 114 N 11.8248 0.280983 1.55075 0
M  V30 115 C 12.7718 -0.603937 2.22758 0
M  V30 116 C 13.7418 -1.1452 1.20309 0
M  V30 117 O 14.9268 -1.19343 1.48869 0
M  V30 118 C 12.0668 -1.77947 2.95684 0
M  V30 119 C 11.1798 -1.2715 4.12864 0
M  V30 120 C 10.3148 -2.4093 4.7342 0
M  V30 121 C 9.3538 -1.87165 5.82783 0
M  V30 122 N 8.4908 -2.94441 6.37377 0
M  V30 123 H 13.3308 -0.020124 2.97993 0
M  V30 124 H 10.8678 0.00183425 1.471 0
M  V30 125 H 12.8258 -2.47055 3.36184 0
M  V30 126 H 11.4558 -2.33522 2.22861 0
M  V30 127 H 10.5078 -0.473331 3.77444 0
M  V30 128 H 11.8198 -0.837751 4.91715 0
M  V30 129 H 10.9738 -3.18021 5.1667 0
M  V30 130 H 9.7128 -2.87623 3.93859 0
M  V30 131 H 8.7178 -1.08556 5.38976 0
M  V30 132 H 9.9428 -1.41401 6.64216 0
M  V30 133 H 7.8888 -3.40505 5.60707 0
M  V30 134 H 7.8058 -2.55501 7.11516 0
M  V30 135 H 9.0738 -3.71489 6.85285 0
M  V30 136 N 13.3029 -1.57598 0.00835791 0
M  V30 137 C 14.2659 -2.07884 -0.965242 0
M  V30 138 C 15.2659 -0.989825 -1.26725 0
M  V30 139 O 16.4559 -1.25218 -1.21104 0
M  V30 140 C 13.5879 -2.52731 -2.28779 0
M  V30 141 H 14.7809 -2.95178 -0.530112 0
M  V30 142 H 12.3339 -1.54458 -0.239283 0
M  V30 143 H 13.0689 -1.68705 -2.76964 0
M  V30 144 H 12.8539 -3.32272 -2.08177 0
M  V30 145 H 14.3439 -2.91933 -2.98605 0
M  V30 146 N 14.781 0.264519 -1.55364 0
M  V30 147 C 16.011 1.01153 -1.80143 0
M  V30 148 C 16.419 1.80115 -0.579253 0
M  V30 149 O 15.762 1.77813 0.46132 0
M  V30 150 C 15.824 2.01098 -2.97993 0
M  V30 151 C 15.488 1.40995 -4.34706 0
M  V30 152 C 16.485 0.821316 -5.13372 0
M  V30 153 C 14.17 1.43461 -4.81378 0
M  V30 154 C 16.164 0.265339 -6.36847 0
M  V30 155 C 13.851 0.874771 -6.04807 0
M  V30 156 C 14.849 0.291146 -6.82379 0
M  V30 157 O 14.537 -0.260093 -8.03479 0
M  V30 158 H 14.269 0.304125 -0.603725 0
M  V30 159 H 16.823 0.298089 -2.03225 0
M  V30 160 H 15.053 2.76224 -2.70623 0
M  V30 161 H 16.742 2.61997 -3.1002 0
M  V30 162 H 17.508 0.794903 -4.78442 0
M  V30 163 H 13.387 1.87826 -4.21002 0
M  V30 164 H 16.931 -0.190837 -6.97339 0
M  V30 165 H 12.828 0.898452 -6.39217 0
M  V30 166 H 13.596 -0.150265 -8.18362 0
M  V30 167 N 16.2591 1.48442 0.529413 0
M  V30 168 C 17.6701 1.5002 1.11134 0
M  V30 169 C 18.0211 0.27031 1.94329 0
M  V30 170 O 17.1461 -0.622507 2.07253 0
M  V30 171 C 17.7411 2.71834 2.02217 0
M  V30 172 C 16.3001 2.76283 2.55627 0
M  V30 173 C 15.4471 2.43542 1.326 0
M  V30 174 H 18.3981 1.5555 0.314641 0
M  V30 175 H 18.4191 2.50384 2.8651 0
M  V30 176 H 17.9311 3.61331 1.41639 0
M  V30 177 H 16.0321 1.90995 3.19924 0
M  V30 178 H 16.1451 3.77725 2.94721 0
M  V30 179 H 14.5091 1.94709 1.64196 0
M  V30 180 H 15.2921 3.3528 0.737734 0
M  V30 181 N 17.7372 -0.778329 1.37039 0
M  V30 182 C 18.6672 -1.90546 1.34962 0
M  V30 183 C 19.6482 -1.68681 0.219274 0
M  V30 184 O 20.8332 -1.89634 0.418624 0
M  V30 185 C 17.9632 -3.27734 1.14925 0
M  V30 186 C 16.9172 -3.64147 2.24902 0
M  V30 187 C 16.2432 -4.99806 1.89996 0
M  V30 188 C 17.5432 -3.71579 3.67051 0
M  V30 189 H 19.2372 -1.92541 2.29277 0
M  V30 190 H 16.7832 -0.924948 1.10366 0
M  V30 191 H 18.7362 -4.06215 1.12104 0
M  V30 192 H 17.4602 -3.26154 0.170631 0
M  V30 193 H 16.1192 -2.8797 2.26868 0
M  V30 194 H 15.7672 -4.94759 0.906796 0
M  V30 195 H 15.4672 -5.25139 2.63634 0
M  V30 196 H 16.9912 -5.80694 1.88749 0
M  V30 197 H 18.4052 -4.40227 3.67251 0
M  V30 198 H 16.8022 -4.08405 4.39688 0
M  V30 199 H 17.8722 -2.72404 4.01154 0
M  V30 200 N 19.2153 -1.21501 -1.00376 0
M  V30 201 C 20.1783 -0.976927 -2.07337 0
M  V30 202 C 21.1783 0.0525322 -1.60714 0
M  V30 203 O 22.3683 -0.184869 -1.73216 0
M  V30 204 C 19.5003 -0.473423 -3.37597 0
M  V30 205 H 20.6933 -1.92587 -2.29892 0
M  V30 206 H 18.2463 -1.03217 -1.17371 0
M  V30 207 H 18.9813 0.480379 -3.20722 0
M  V30 208 H 18.7663 -1.216 -3.72768 0
M  V30 209 H 20.2563 -0.32675 -4.1632 0
M  V30 210 N 20.6934 1.19889 -1.02296 0
M  V30 211 C 21.9704 1.85148 -0.630832 0
M  V30 212 C 22.3504 1.91385 0.890782 0
M  V30 213 O 21.6984 1.42642 1.78509 0
M  V30 214 C 21.9084 3.24442 -1.28602 0
M  V30 215 C 23.2564 4.00663 -1.4055 0
M  V30 216 O 24.2804 3.33818 -1.24273 0
M  V30 217 O 23.1394 5.20387 -1.66913 0
M  V30 218 H 20.2334 0.797613 -0.218499 0
M  V30 219 H 22.7794 1.27427 -1.12074 0
M  V30 220 H 21.5514 3.14704 -2.32545 0
M  V30 221 H 21.1744 3.89802 -0.7836 0
M  V30 222 N 22.1715 0.800033 1.35784 0
M  V30 223 C 23.1345 0.211565 2.28221 0
M  V30 224 C 24.1345 -0.59728 1.49296 0
M  V30 225 O 25.3245 -0.416721 1.69142 0
M  V30 226 C 22.4565 -0.705846 3.33513 0
M  V30 227 H 23.6495 1.02677 2.81776 0
M  V30 228 H 21.2025 0.570211 1.45528 0
M  V30 229 H 21.9375 -1.54498 2.85133 0
M  V30 230 H 21.7225 -0.127655 3.91892 0
M  V30 231 H 23.2125 -1.11211 4.02519 0
M  V30 232 N 23.6496 -1.47581 0.552962 0
M  V30 233 C 24.5996 -2.26961 -0.217423 0
M  V30 234 C 25.5836 -1.34099 -0.889168 0
M  V30 235 O 26.7756 -1.58483 -0.788176 0
M  V30 236 C 23.9046 -3.19756 -1.24944 0
M  V30 237 C 22.9906 -4.20097 -0.581327 0
M  V30 238 N 23.3816 -5.04614 0.346171 0
M  V30 239 C 21.6796 -4.38099 -0.835767 0
M  V30 240 C 22.3806 -5.77052 0.733854 0
M  V30 241 N 21.3566 -5.43526 0.0896567 0
M  V30 242 H 25.1586 -2.89688 0.495761 0
M  V30 243 H 22.6726 -1.58068 0.372597 0
M  V30 244 H 24.6696 -3.75305 -1.81527 0
M  V30 245 H 23.3296 -2.58585 -1.96376 0
M  V30 246 H 24.3406 -5.12869 0.720098 0
M  V30 247 H 21.0176 -3.88102 -1.53892 0
M  V30 248 H 22.4076 -6.5504 1.49574 0
M  V30 249 N 25.1277 -0.289203 -1.54924 0
M  V30 250 C 26.0577 0.58549 -2.2604 0
M  V30 251 C 27.0387 1.14753 -1.25562 0
M  V30 252 O 28.2237 1.17906 -1.54311 0
M  V30 253 C 25.3537 1.76305 -2.99222 0
M  V30 254 C 24.3077 1.33191 -4.06748 0
M  V30 255 C 23.6337 2.5937 -4.6758 0
M  V30 256 C 24.9337 0.471775 -5.20165 0
M  V30 257 H 26.6277 -0.00763532 -2.99399 0
M  V30 258 H 24.1737 -0.00511229 -1.43999 0
M  V30 259 H 26.1267 2.38097 -3.47689 0
M  V30 260 H 24.8507 2.38223 -2.23422 0
M  V30 261 H 23.5097 0.737121 -3.59113 0
M  V30 262 H 23.1577 3.19576 -3.88433 0
M  V30 263 H 22.8577 2.31228 -5.40192 0
M  V30 264 H 24.3817 3.21985 -5.18804 0
M  V30 265 H 25.7957 0.995056 -5.64599 0
M  V30 266 H 24.1927 0.284639 -5.99425 0
M  V30 267 H 25.2627 -0.506041 -4.82252 0
M  V30 268 N 26.6058 1.57591 -0.0167156 0
M  V30 269 C 27.8338 1.95575 0.675128 0
M  V30 270 C 28.2488 0.892542 1.6637 0
M  V30 271 O 27.6058 -0.126912 1.82058 0
M  V30 272 C 27.6568 3.33608 1.39239 0
M  V30 273 O 27.3778 4.3585 0.443444 0
M  V30 274 C 28.8788 3.86151 2.17721 0
M  V30 275 H 26.0988 0.644423 0.186978 0
M  V30 276 H 28.6428 2.0437 -0.0728 0
M  V30 277 H 26.7978 3.2607 2.09182 0
M  V30 278 H 27.2118 5.158 0.951358 0
M  V30 279 H 28.6858 4.85114 2.63379 0
M  V30 280 H 29.1628 3.19738 3.01105 0
M  V30 281 H 29.7688 3.96918 1.52761 0
M  V30 282 N 28.0839 -0.256276 1.55502 0
M  V30 283 C 29.0309 -1.31714 1.89526 0
M  V30 284 C 30.0009 -1.4828 0.748479 0
M  V30 285 O 31.1859 -1.62416 1.00128 0
M  V30 286 C 28.3259 -2.66933 2.18725 0
M  V30 287 C 27.4389 -2.58452 3.4616 0
M  V30 288 C 26.5739 -3.85961 3.64976 0
M  V30 289 C 25.6129 -3.72059 4.86044 0
M  V30 290 N 24.7499 -4.9144 5.01429 0
M  V30 291 H 29.5899 -1.01998 2.80001 0
M  V30 292 H 27.1269 -0.492413 1.38613 0
M  V30 293 H 29.0849 -3.4563 2.33657 0
M  V30 294 H 27.7149 -2.94816 1.31466 0
M  V30 295 H 26.7669 -1.71374 3.3961 0
M  V30 296 H 28.0789 -2.44085 4.34999 0
M  V30 297 H 27.2329 -4.73101 3.79816 0
M  V30 298 H 25.9719 -4.03215 2.74353 0
M  V30 299 H 24.9769 -2.83302 4.7119 0
M  V30 300 H 26.2019 -3.56309 5.78118 0
M  V30 301 H 24.1479 -5.09072 4.13741 0
M  V30 302 H 24.0649 -4.79668 5.84341 0
M  V30 303 H 25.3329 -5.80104 5.20672 0
M  V30 304 N 29.562 -1.4872 -0.521534 0
M  V30 305 C 30.509 -1.63871 -1.62527 0
M  V30 306 C 31.479 -0.480559 -1.58996 0
M  V30 307 O 32.664 -0.705085 -1.77294 0
M  V30 308 C 29.804 -1.69227 -3.00759 0
M  V30 309 C 28.917 -2.96207 -3.14461 0
M  V30 310 C 28.052 -2.92671 -4.43303 0
M  V30 311 C 27.091 -4.14318 -4.50563 0
M  V30 312 N 26.228 -4.0881 -5.70805 0
M  V30 313 H 31.068 -2.58123 -1.48918 0
M  V30 314 H 28.605 -1.28 -0.724878 0
M  V30 315 H 30.563 -1.70314 -3.80853 0
M  V30 316 H 29.193 -0.784586 -3.1312 0
M  V30 317 H 28.245 -3.04826 -2.27564 0
M  V30 318 H 29.557 -3.86192 -3.15686 0
M  V30 319 H 28.711 -2.92206 -5.31696 0
M  V30 320 H 27.45 -2.00429 -4.44612 0
M  V30 321 H 26.455 -4.15049 -3.60575 0
M  V30 322 H 27.68 -5.07729 -4.50986 0
M  V30 323 H 25.626 -3.19394 -5.72995 0
M  V30 324 H 25.543 -4.92509 -5.7356 0
M  V30 325 H 26.811 -4.12418 -6.61462 0
M  V30 326 N 31.0401 0.771051 -1.3745 0
M  V30 327 C 31.9701 1.89827 -1.3597 0
M  V30 328 C 32.9511 1.68562 -0.228216 0
M  V30 329 O 34.1361 1.8941 -0.428675 0
M  V30 330 C 31.2661 3.2712 -1.16662 0
M  V30 331 C 30.2201 3.6295 -2.2683 0
M  V30 332 C 29.5461 4.98791 -1.92644 0
M  V30 333 C 30.8461 3.69627 -3.69017 0
M  V30 334 H 32.5401 1.91323 -2.30295 0
M  V30 335 H 30.0861 0.919082 -1.10855 0
M  V30 336 H 32.0391 4.05615 -1.14256 0
M  V30 337 H 30.7631 3.26059 -0.187926 0
M  V30 338 H 29.4221 2.86763 -2.28392 0
M  V30 339 H 29.0701 4.94271 -0.933021 0
M  V30 340 H 28.7701 5.23733 -2.66416 0
M  V30 341 H 30.2941 5.79685 -1.91826 0
M  V30 342 H 31.7081 4.38273 -3.69581 0
M  V30 343 H 30.1051 4.06067 -4.41848 0
M  V30 344 H 31.1751 2.70273 -4.02592 0
M  V30 345 N 32.5182 1.22032 0.997298 0
M  V30 346 C 33.4482 1.01065 2.10495 0
M  V30 347 C 34.4292 -0.0669542 1.69968 0
M  V30 348 O 35.6142 0.0943987 1.9397 0
M  V30 349 C 32.7442 0.582874 3.42374 0
M  V30 350 C 31.6982 1.60592 3.96729 0
M  V30 351 C 31.0242 1.03412 5.24605 0
M  V30 352 C 32.3242 2.99478 4.27914 0
M  V30 353 H 34.0182 1.93708 2.28292 0
M  V30 354 H 31.5642 0.932761 1.09707 0
M  V30 355 H 33.5172 0.423332 4.19268 0
M  V30 356 H 32.2412 -0.379213 3.24391 0
M  V30 357 H 30.9002 1.75316 3.21963 0
M  V30 358 H 30.5482 0.063518 5.0296 0
M  V30 359 H 30.2482 1.71754 5.61938 0
M  V30 360 H 31.7722 0.886066 6.04137 0
M  V30 361 H 33.1862 2.88153 4.95622 0
M  V30 362 H 31.5832 3.64903 4.76409 0
M  V30 363 H 32.6532 3.49742 3.3587 0
M  V30 364 N 33.9963 -1.19345 1.0293 0
M  V30 365 C 35.2733 -1.84811 0.640642 0
M  V30 366 C 35.6533 -1.91855 -0.88062 0
M  V30 367 O 35.0013 -1.43587 -1.7775 0
M  V30 368 C 35.2113 -3.23755 1.30321 0
M  V30 369 C 36.5593 -3.99912 1.42673 0
M  V30 370 O 37.5833 -3.33155 1.26041 0
M  V30 371 O 36.4423 -5.19494 1.6967 0
M  V30 372 H 33.5363 -0.796443 0.222726 0
M  V30 373 H 36.0823 -1.26831 1.12748 0
M  V30 374 H 34.8543 -3.13466 2.34211 0
M  V30 375 H 34.4773 -3.89381 0.804261 0
M  V30 376 N 35.4744 -0.807222 -1.35358 0
M  V30 377 C 36.4044 -0.232509 -2.3234 0
M  V30 378 C 37.3854 0.642386 -1.57504 0
M  V30 379 O 38.5704 0.572526 -1.85569 0
M  V30 380 C 35.7004 0.619238 -3.41735 0
M  V30 381 C 34.6544 -0.157215 -4.27711 0
M  V30 382 C 33.9804 0.816273 -5.28433 0
M  V30 383 C 35.2804 -1.35656 -5.04376 0
M  V30 384 H 36.9744 -1.04276 -2.80654 0
M  V30 385 H 34.5204 -0.50288 -1.34934 0
M  V30 386 H 36.4734 1.03137 -4.08584 0
M  V30 387 H 35.1974 1.46239 -2.92031 0
M  V30 388 H 33.8564 -0.550525 -3.62443 0
M  V30 389 H 33.5044 1.65494 -4.74996 0
M  V30 390 H 33.2044 0.301067 -5.86828 0
M  V30 391 H 34.7284 1.22659 -5.98153 0
M  V30 392 H 36.1424 -1.01927 -5.64166 0
M  V30 393 H 34.5394 -1.8063 -5.7227 0
M  V30 394 H 35.6094 -2.14288 -4.34981 0
M  V30 395 N 36.9525 1.47285 -0.560781 0
M  V30 396 C 38.1985 2.02764 -0.0381184 0
M  V30 397 C 38.5315 1.43384 1.30976 0
M  V30 398 O 37.8065 0.590733 1.85312 0
M  V30 399 C 38.0895 3.60064 0.0511427 0
M  V30 400 C 37.9425 4.2987 -1.32408 0
M  V30 401 C 39.2615 4.33439 0.762795 0
M  V30 402 H 36.3805 0.736841 -0.0153264 0
M  V30 403 H 39.0225 1.75675 -0.723759 0
M  V30 404 H 37.1725 3.83274 0.635065 0
M  V30 405 H 38.8445 4.17989 -1.95148 0
M  V30 406 H 37.0875 3.90085 -1.8978 0
M  V30 407 H 37.7585 5.38478 -1.21431 0
M  V30 408 H 40.2345 4.15243 0.266965 0
M  V30 409 H 39.1105 5.43124 0.794221 0
M  V30 410 H 39.3715 4.02915 1.81966 0
M  V30 411 N 38.4306 0.297415 1.54768 0
M  V30 412 C 39.3626 -0.613881 2.20826 0
M  V30 413 C 40.3756 -1.10032 1.19987 0
M  V30 414 O 41.5646 -1.01839 1.46598 0
M  V30 415 C 38.6646 -1.852 2.83821 0
M  V30 416 C 37.8376 -1.50865 4.10559 0
M  V30 417 C 36.8966 -2.60154 4.57391 0
M  V30 418 O 35.9226 -2.25398 5.2267 0
M  V30 419 N 37.1246 -3.90629 4.29406 0
M  V30 420 H 39.8896 -0.048389 2.99661 0
M  V30 421 H 37.4506 0.11946 1.61459 0
M  V30 422 H 39.4426 -2.57652 3.12086 0
M  V30 423 H 38.0126 -2.32597 2.08847 0
M  V30 424 H 37.2326 -0.616925 3.89343 0
M  V30 425 H 38.5206 -1.25458 4.9309 0
M  V30 426 H 37.9186 -4.21677 3.77101 0
M  V30 427 H 36.4756 -4.59391 4.62388 0
M  V30 428 N 39.9087 -1.5758 0.0250728 0
M  V30 429 C 40.8407 -2.06869 -0.986796 0
M  V30 430 C 41.8537 -0.991332 -1.29137 0
M  V30 431 O 43.0427 -1.26761 -1.25674 0
M  V30 432 C 40.1427 -2.47486 -2.31525 0
M  V30 433 C 39.3157 -3.78253 -2.19643 0
M  V30 434 C 38.3747 -4.05464 -3.35388 0
M  V30 435 O 37.4007 -4.75774 -3.12454 0
M  V30 436 N 38.6027 -3.55321 -4.59051 0
M  V30 437 H 41.3677 -2.94302 -0.566276 0
M  V30 438 H 38.9287 -1.6109 -0.161776 0
M  V30 439 H 40.9207 -2.62785 -3.07776 0
M  V30 440 H 39.4907 -1.65441 -2.65232 0
M  V30 441 H 38.7107 -3.7279 -1.28144 0
M  V30 442 H 39.9987 -4.63936 -2.08903 0
M  V30 443 H 39.3967 -2.98431 -4.80578 0
M  V30 444 H 37.9537 -3.75905 -5.32483 0
M  V30 445 N 41.3868 0.248026 -1.55636 0
M  V30 446 C 42.6118 0.998028 -1.81808 0
M  V30 447 C 43.0368 1.78207 -0.601979 0
M  V30 448 O 42.3948 1.75653 0.448961 0
M  V30 449 C 42.4428 1.9125 -3.05705 0
M  V30 450 O 41.5468 3.00406 -2.82542 0
M  V30 451 H 40.8878 0.284045 -0.600179 0
M  V30 452 H 43.4178 0.269357 -2.02819 0
M  V30 453 H 43.4278 2.32737 -3.35108 0
M  V30 454 H 42.1028 1.33602 -3.93857 0
M  V30 455 H 40.6798 2.63056 -2.64303 0
M  V30 456 N 42.8649 1.48995 0.513639 0
M  V30 457 C 44.1049 1.59452 1.27885 0
M  V30 458 C 44.4689 0.269479 1.90099 0
M  V30 459 O 45.6699 0.249139 2.67643 0
M  V30 460 C 43.9409 2.71277 2.32688 0
M  V30 461 S 45.4999 3.01604 3.18717 0
M  V30 462 H 42.3179 0.562565 0.434789 0
M  V30 463 H 44.9199 1.86595 0.583301 0
M  V30 464 H 43.6239 3.66089 1.8549 0
M  V30 465 H 43.1549 2.46086 3.06929 0
M  V30 466 H 45.1699 2.42155 4.331 0
M  V30 467 N 44.343 -0.763751 1.37857 0
M  V30 468 C 45.291 -1.89864 1.34367 0
M  V30 469 C 46.285 -1.67816 0.231143 0
M  V30 470 O 47.491 -1.75508 0.399617 0
M  V30 471 H 43.866 -0.624501 0.41893 0
M  V30 472 H 45.837 -1.89925 2.30155 0
M  V30 473 C 44.586 -3.27227 1.1755 0
M  V30 474 H 43.909 -3.44773 2.02414 0
M  V30 475 H 45.349 -4.06911 1.1916 0
M  V30 476 C 43.808 -3.36692 -0.118311 0
M  V30 477 O 44.338 -3.86374 -1.09902 0
M  V30 478 N 42.544 -2.90092 -0.171717 0
M  V30 479 H 42.091 -2.49853 0.627012 0
M  V30 480 H 42.049 -2.96806 -1.03699 0
M  V30 481 N 45.8211 -1.22559 -0.990812 0
M  V30 482 C 47.0511 -1.07623 -1.76355 0
M  V30 483 C 47.4591 0.37601 -1.85426 0
M  V30 484 O 46.8021 1.27228 -1.32509 0
M  V30 485 C 46.8641 -1.61507 -3.21179 0
M  V30 486 C 46.5281 -3.10146 -3.35646 0
M  V30 487 C 47.5251 -4.07553 -3.22796 0
M  V30 488 C 45.2101 -3.49644 -3.60631 0
M  V30 489 C 47.2041 -5.42442 -3.34716 0
M  V30 490 C 44.8911 -4.84682 -3.72192 0
M  V30 491 C 45.8891 -5.8089 -3.59243 0
M  V30 492 O 45.5771 -7.13476 -3.70415 0
M  V30 493 H 45.3091 -0.377745 -0.560611 0
M  V30 494 H 47.8631 -1.62658 -1.25425 0
M  V30 495 H 46.0931 -1.00881 -3.73309 0
M  V30 496 H 47.7821 -1.42202 -3.80175 0
M  V30 497 H 48.5481 -3.78381 -3.03403 0
M  V30 498 H 44.4271 -2.75282 -3.69785 0
M  V30 499 H 47.9711 -6.17518 -3.24526 0
M  V30 500 H 43.8681 -5.13534 -3.91092 0
M  V30 501 H 44.6361 -7.21083 -3.87275 0
M  V30 502 N 47.2992 1.18797 -1.03562 0
M  V30 503 C 48.2462 2.22253 -0.622259 0
M  V30 504 C 49.2162 1.61987 0.36736 0
M  V30 505 O 50.4012 1.88986 0.262492 0
M  V30 506 C 47.5412 3.45097 0.0138462 0
M  V30 507 C 46.6542 4.19722 -1.02263 0
M  V30 508 C 45.7892 5.30009 -0.355573 0
M  V30 509 C 44.8282 5.96399 -1.37749 0
M  V30 510 N 43.9652 6.98234 -0.735766 0
M  V30 511 H 48.8052 2.56968 -1.50903 0
M  V30 512 H 46.3422 1.26245 -0.755017 0
M  V30 513 H 48.3002 4.15279 0.399948 0
M  V30 514 H 46.9302 3.11018 0.864158 0
M  V30 515 H 45.9822 3.48418 -1.52673 0
M  V30 516 H 47.2942 4.65227 -1.79903 0
M  V30 517 H 46.4482 6.0664 0.0850095 0
M  V30 518 H 45.1872 4.85592 0.452967 0
M  V30 519 H 44.1922 5.18512 -1.82826 0
M  V30 520 H 45.4172 6.42899 -2.18764 0
M  V30 521 H 43.3632 6.55979 0.0525597 0
M  V30 522 H 43.2802 7.41965 -1.44995 0
M  V30 523 H 44.5482 7.78845 -0.31941 0
M  V30 524 N 48.7773 0.814389 1.34928 0
M  V30 525 C 49.7093 0.187834 2.28429 0
M  V30 526 C 50.7223 -0.617374 1.5064 0
M  V30 527 O 51.9113 -0.448454 1.72775 0
M  V30 528 C 49.0113 -0.755962 3.30361 0
M  V30 529 C 48.1843 0.00456686 4.374 0
M  V30 530 C 47.2433 -0.858876 5.19143 0
M  V30 531 O 46.2693 -0.306968 5.68372 0
M  V30 532 N 47.4713 -2.17988 5.38016 0
M  V30 533 H 50.2363 0.991105 2.82838 0
M  V30 534 H 47.7973 0.670561 1.4736 0
M  V30 535 H 49.7893 -1.338 3.81942 0
M  V30 536 H 48.3593 -1.46001 2.7641 0
M  V30 537 H 47.5793 0.767865 3.86649 0
M  V30 538 H 48.8673 0.528422 5.06049 0
M  V30 539 H 48.2653 -2.65212 4.99679 0
M  V30 540 H 46.8223 -2.71098 5.92747 0
M  V30 541 N 50.2554 -1.46986 0.568584 0
M  V30 542 C 51.1854 -2.32946 -0.160753 0
M  V30 543 C 52.1664 -1.44487 -0.897631 0
M  V30 544 O 53.3514 -1.73327 -0.875867 0
M  V30 545 C 50.4814 -3.26494 -1.18403 0
M  V30 546 C 49.4354 -4.24282 -0.562895 0
M  V30 547 C 48.7614 -5.07236 -1.69163 0
M  V30 548 C 50.0614 -5.19989 0.490761 0
M  V30 549 H 51.7554 -2.94175 0.556916 0
M  V30 550 H 49.3014 -1.4146 0.26927 0
M  V30 551 H 51.2544 -3.85477 -1.70251 0
M  V30 552 H 49.9784 -2.63343 -1.93179 0
M  V30 553 H 48.6374 -3.66541 -0.0656164 0
M  V30 554 H 48.2854 -4.4048 -2.42871 0
M  V30 555 H 47.9854 -5.7345 -1.28174 0
M  V30 556 H 49.5094 -5.6908 -2.21314 0
M  V30 557 H 50.9234 -5.73271 0.0579047 0
M  V30 558 H 49.3204 -5.94469 0.820165 0
M  V30 559 H 50.3904 -4.64777 1.3824 0
M  V30 560 N 51.7335 -0.305618 -1.54608 0
M  V30 561 C 53.1495 0.0476228 -1.59529 0
M  V30 562 C 53.3495 1.52025 -1.32252 0
M  V30 563 O 52.4055 2.27368 -1.09818 0
M  V30 564 C 53.7185 -0.354471 -2.98603 0
M  V30 565 C 55.2665 -0.303622 -3.11524 0
M  V30 566 C 55.7415 -0.680608 -4.52915 0
M  V30 567 N 57.2325 -0.63332 -4.5885 0
M  V30 568 C 57.9675 -0.897432 -5.66334 0
M  V30 569 N 57.4635 -1.22775 -6.81834 0
M  V30 570 N 59.2565 -0.824186 -5.56025 0
M  V30 571 H 51.4075 -1.2653 -1.70599 0
M  V30 572 H 53.6705 -0.513291 -0.797017 0
M  V30 573 H 53.3765 -1.3798 -3.23503 0
M  V30 574 H 53.2505 0.289568 -3.76087 0
M  V30 575 H 55.6375 0.712472 -2.8637 0
M  V30 576 H 55.7185 -0.982348 -2.36185 0
M  V30 577 H 55.3625 -1.69453 -4.78799 0
M  V30 578 H 55.2925 0.0202385 -5.26596 0
M  V30 579 H 57.7835 -0.389138 -3.75891 0
M  V30 580 H 58.0965 -1.41513 -7.59733 0
M  V30 581 H 56.4415 -1.26583 -6.83375 0
M  V30 582 H 59.6325 -0.565748 -4.64669 0
M  V30 583 H 59.8055 -1.03338 -6.39707 0
M  V30 584 N 53.2116 1.57565 -0.0334293 0
M  V30 585 C 54.1586 2.10478 0.946981 0
M  V30 586 C 55.1286 1.00787 1.32027 0
M  V30 587 O 56.3136 1.28232 1.41284 0
M  V30 588 C 53.4536 2.63994 2.22263 0
M  V30 589 C 52.5666 3.87709 1.90541 0
M  V30 590 C 51.7016 4.29604 3.12433 0
M  V30 591 C 50.7406 5.46065 2.76549 0
M  V30 592 N 49.8776 5.83096 3.9108 0
M  V30 593 H 54.7176 2.93963 0.488846 0
M  V30 594 H 52.2546 1.45296 0.22969 0
M  V30 595 H 54.2126 2.93114 2.96884 0
M  V30 596 H 52.8426 1.83333 2.65685 0
M  V30 597 H 51.8946 3.65291 1.06144 0
M  V30 598 H 53.2066 4.72403 1.60116 0
M  V30 599 H 52.3606 4.60182 3.9537 0
M  V30 600 H 51.0996 3.43685 3.46023 0
M  V30 601 H 50.1046 5.15176 1.92026 0
M  V30 602 H 51.3296 6.33685 2.44171 0
M  V30 603 H 49.2756 5.00132 4.24504 0
M  V30 604 H 49.1926 6.6244 3.64293 0
M  V30 605 H 50.4606 6.18282 4.74708 0
M  V30 606 N 54.6897 -0.239769 1.55765 0
M  V30 607 C 55.9377 -0.964892 1.77579 0
M  V30 608 C 56.2587 -1.85582 0.598699 0
M  V30 609 O 55.5287 -1.92075 -0.385226 0
M  V30 610 H 54.1087 -0.359265 0.654933 0
M  V30 611 H 56.7707 -0.256001 1.93211 0
M  V30 612 H 55.8667 -1.58243 2.69009 0
M  V30 613 N 56.1678 -1.49265 -0.50573 0
M  V30 614 C 57.1308 -1.65075 -1.59006 0
M  V30 615 C 58.1308 -0.522768 -1.52065 0
M  V30 616 O 59.3208 -0.789117 -1.55302 0
M  V30 617 C 56.4528 -1.64369 -2.98656 0
M  V30 618 H 57.6458 -2.61784 -1.46319 0
M  V30 619 H 55.1988 -1.38226 -0.729616 0
M  V30 620 H 55.9338 -0.692272 -3.16825 0
M  V30 621 H 55.7188 -2.46282 -3.05103 0
M  V30 622 H 57.2088 -1.78674 -3.77446 0
M  V30 623 N 57.6459 0.756429 -1.3826 0
M  V30 624 C 58.5939 1.89149 -1.35372 0
M  V30 625 C 59.5879 1.67691 -0.24004 0
M  V30 626 O 60.7939 1.75294 -0.408919 0
M  V30 627 H 57.1689 0.622271 -0.422236 0
M  V30 628 H 59.1399 1.88701 -2.31159 0
M  V30 629 C 57.8889 3.26599 -1.19284 0
M  V30 630 H 57.2119 3.43695 -2.0424 0
M  V30 631 H 58.6519 4.06274 -1.21316 0
M  V30 632 C 57.1109 3.3675 0.100454 0
M  V30 633 O 57.6409 3.86951 1.07851 0
M  V30 634 N 55.8469 2.90179 0.15633 0
M  V30 635 H 55.3939 2.49517 -0.640253 0
M  V30 636 H 55.3519 2.97352 1.02123 0
M  V30 637 N 59.124 1.23083 0.984299 0
M  V30 638 C 60.034 1.02515 2.11016 0
M  V30 639 C 61.05 -0.0291702 1.73976 0
M  V30 640 O 62.226 0.165434 2.00719 0
M  V30 641 C 59.291 0.614673 3.41208 0
M  V30 642 C 58.352 1.74359 3.92297 0
M  V30 643 C 57.585 1.35261 5.16275 0
M  V30 644 O 57.808 0.235136 5.69915 0
M  V30 645 O 56.742 2.17227 5.61334 0
M  V30 646 H 60.568 1.96862 2.31255 0
M  V30 647 H 58.153 1.01753 1.09392 0
M  V30 648 H 60.035 0.396518 4.1953 0
M  V30 649 H 58.71 -0.299851 3.22308 0
M  V30 650 H 57.617 2.01635 3.1511 0
M  V30 651 H 58.95 2.63629 4.15645 0
M  V30 652 N 60.6021 -1.18246 1.0419 0
M  V30 653 C 61.5651 -2.20128 0.638452 0
M  V30 654 C 62.5651 -1.57885 -0.304805 0
M  V30 655 O 63.7551 -1.73967 -0.0900369 0
M  V30 656 C 60.8871 -3.4084 -0.0637751 0
M  V30 657 H 62.0801 -2.57336 1.54007 0
M  V30 658 H 59.6331 -1.32152 0.834598 0
M  V30 659 H 60.3681 -3.09166 -0.979136 0
M  V30 660 H 60.1531 -3.8726 0.614198 0
M  V30 661 H 61.6431 -4.16274 -0.332512 0
M  V30 662 N 62.0802 -0.821533 -1.34494 0
M  V30 663 C 63.3082 -0.421884 -2.02553 0
M  V30 664 C 63.7232 0.971745 -1.61872 0
M  V30 665 O 63.0802 1.62864 -0.823496 0
M  V30 666 C 63.1312 -0.51285 -3.57844 0
M  V30 667 O 62.8522 -1.85155 -3.97051 0
M  V30 668 C 64.3532 -0.107921 -4.43169 0
M  V30 669 H 61.5732 -0.169482 -0.649243 0
M  V30 670 H 64.1172 -1.1093 -1.71798 0
M  V30 671 H 62.2722 0.126474 -3.87193 0
M  V30 672 H 62.6862 -1.82482 -4.91732 0
M  V30 673 H 64.1602 -0.222657 -5.51551 0
M  V30 674 H 64.6372 0.948401 -4.28838 0
M  V30 675 H 65.2432 -0.720989 -4.19144 0
M  V30 676 N 63.5583 1.46682 -0.576371 0
M  V30 677 C 64.5053 2.30241 0.160499 0
M  V30 678 C 65.4753 1.40233 0.890162 0
M  V30 679 O 66.6603 1.69186 0.882084 0
M  V30 680 C 63.8003 3.24578 1.1723 0
M  V30 681 C 62.9133 4.29684 0.446736 0
M  V30 682 C 62.0483 5.11154 1.44551 0
M  V30 683 C 61.0873 6.08015 0.70599 0
M  V30 684 N 60.2243 6.82376 1.65251 0
M  V30 685 H 65.0643 2.92727 -0.558127 0
M  V30 686 H 62.6013 1.44272 -0.287056 0
M  V30 687 H 64.5593 3.77711 1.77172 0
M  V30 688 H 63.1893 2.63916 1.85872 0
M  V30 689 H 62.2413 3.79458 -0.267594 0
M  V30 690 H 63.5533 4.98626 -0.131686 0
M  V30 691 H 62.7073 5.68533 2.11791 0
M  V30 692 H 61.4463 4.42158 2.05786 0
M  V30 693 H 60.4513 5.49796 0.0197725 0
M  V30 694 H 61.6763 6.79028 0.09912 0
M  V30 695 H 59.6223 6.16094 2.25308 0
M  V30 696 H 59.5393 7.47556 1.12673 0
M  V30 697 H 60.8073 7.44316 2.31546 0
M  V30 698 N 65.0364 0.313813 1.54444 0
M  V30 699 C 66.2644 -0.293918 2.04802 0
M  V30 700 C 66.6794 -1.46537 1.19047 0
M  V30 701 O 66.0364 -1.81182 0.218939 0
M  V30 702 C 66.0874 -0.737806 3.53891 0
M  V30 703 O 65.8084 0.387038 4.36387 0
M  V30 704 C 67.3094 -1.40936 4.203 0
M  V30 705 H 64.5294 -0.0620057 0.668129 0
M  V30 706 H 67.0734 0.457169 1.99324 0
M  V30 707 H 65.2284 -1.43889 3.59687 0
M  V30 708 H 65.6424 0.0391274 5.24485 0
M  V30 709 H 67.1164 -1.67099 5.26101 0
M  V30 710 H 67.5934 -2.35355 3.70816 0
M  V30 711 H 68.1994 -0.751117 4.18615 0
M  V30 712 N 66.5145 -1.57545 0.0417849 0
M  V30 713 C 67.4445 -2.14009 -0.933929 0
M  V30 714 C 68.4255 -1.05938 -1.33083 0
M  V30 715 O 69.6105 -1.33833 -1.40721 0
M  V30 716 C 66.7405 -2.67747 -2.21199 0
M  V30 717 C 65.6945 -3.80718 -1.95544 0
M  V30 718 C 65.0205 -4.20935 -3.29724 0
M  V30 719 C 66.3205 -5.06258 -1.28452 0
M  V30 720 H 68.0145 -2.95788 -0.463645 0
M  V30 721 H 65.5605 -1.42285 -0.221573 0
M  V30 722 H 67.5135 -3.05886 -2.89848 0
M  V30 723 H 66.2375 -1.83147 -2.70416 0
M  V30 724 H 64.8965 -3.43037 -1.2931 0
M  V30 725 H 64.5445 -3.33298 -3.76724 0
M  V30 726 H 64.2445 -4.9707 -3.13361 0
M  V30 727 H 65.7685 -4.61666 -3.9962 0
M  V30 728 H 67.1825 -5.41903 -1.8712 0
M  V30 729 H 65.5795 -5.87475 -1.22445 0
M  V30 730 H 66.6495 -4.84207 -0.259219 0
M  V30 731 N 67.9926 0.231505 -1.5589 0
M  V30 732 C 68.9406 1.30649 -1.92441 0
M  V30 733 C 69.9346 1.49037 -0.805254 0
M  V30 734 O 71.1406 1.50329 -0.990007 0
M  V30 735 H 67.5156 0.437812 -0.611412 0
M  V30 736 H 69.4866 0.970973 -2.82161 0
M  V30 737 C 68.2356 2.65179 -2.24889 0
M  V30 738 H 67.5586 2.51835 -3.10514 0
M  V30 739 H 68.9986 3.39234 -2.54355 0
M  V30 740 C 67.4576 3.19439 -1.07054 0
M  V30 741 O 67.9876 4.00371 -0.326499 0
M  V30 742 N 66.1936 2.77675 -0.85703 0
M  V30 743 H 65.7406 2.11969 -1.46379 0
M  V30 744 H 65.6986 3.14321 -0.0703223 0
M  V30 745 N 69.4707 1.49531 0.497807 0
M  V30 746 C 70.8867 1.36365 0.829266 0
M  V30 747 C 71.0867 0.399184 1.97506 0
M  V30 748 O 70.1427 -0.167977 2.51941 0
M  V30 749 C 71.4557 2.77153 1.16647 0
M  V30 750 C 73.0037 2.85877 1.27449 0
M  V30 751 C 73.4787 4.2744 1.64497 0
M  V30 752 N 74.9697 4.30265 1.7154 0
M  V30 753 C 75.7047 5.3677 2.01656 0
M  V30 754 N 75.2007 6.53516 2.29976 0
M  V30 755 N 76.9937 5.24189 2.02934 0
M  V30 756 H 69.1447 2.10831 -0.257703 0
M  V30 757 H 71.4077 0.946534 -0.0527091 0
M  V30 758 H 71.1137 3.49442 0.397872 0
M  V30 759 H 70.9877 3.12722 2.10915 0
M  V30 760 H 73.3747 2.13824 2.0338 0
M  V30 761 H 73.4557 2.53887 0.312244 0
M  V30 762 H 73.0997 5.00021 0.891151 0
M  V30 763 H 73.0297 4.56896 2.61827 0
M  V30 764 H 75.5207 3.4607 1.51802 0
M  V30 765 H 75.8337 7.30506 2.52153 0
M  V30 766 H 74.1787 6.56737 2.27425 0
M  V30 767 H 77.3697 4.31988 1.80289 0
M  V30 768 H 77.5427 6.07286 2.26071 0
M  V30 769 N 70.9488 -0.749086 1.3866 0
M  V30 770 C 72.1968 -1.50535 1.34847 0
M  V30 771 C 72.5178 -1.94909 -0.0595016 0
M  V30 772 O 71.7878 -1.67973 -1.00806 0
M  V30 773 H 70.3678 -0.558395 0.49619 0
M  V30 774 H 73.0298 -0.890165 1.73384 0
M  V30 775 H 72.1258 -2.39413 2.00219 0
M  V30 776 N 72.4269 -1.23603 -0.977757 0
M  V30 777 C 73.6759 -1.06377 -1.71368 0
M  V30 778 C 73.9889 0.399062 -1.91486 0
M  V30 779 O 75.1949 0.691312 -2.62551 0
M  V30 780 C 73.6509 -1.85512 -3.08404 0
M  V30 781 C 73.2589 -3.36141 -2.96164 0
M  V30 782 C 75.0029 -1.76783 -3.85938 0
M  V30 783 C 72.9099 -4.07659 -4.28449 0
M  V30 784 H 71.8399 -0.394452 -0.642591 0
M  V30 785 H 74.4909 -1.47594 -1.09034 0
M  V30 786 H 72.8729 -1.37103 -3.71509 0
M  V30 787 H 74.0469 -3.92056 -2.42133 0
M  V30 788 H 72.3619 -3.45712 -2.32104 0
M  V30 789 H 74.9589 -2.27526 -4.83876 0
M  V30 790 H 75.3019 -0.731116 -4.0983 0
M  V30 791 H 75.8349 -2.22818 -3.2954 0
M  V30 792 H 72.5739 -5.11648 -4.09752 0
M  V30 793 H 72.0939 -3.5653 -4.82334 0
M  V30 794 H 73.7729 -4.141 -4.97122 0
M  V30 795 N 73.905 1.17692 -1.04816 0
M  V30 796 C 75.13 1.92327 -0.776207 0
M  V30 797 C 75.555 1.76082 0.661581 0
M  V30 798 O 74.913 1.076 1.45917 0
M  V30 799 C 74.961 3.41539 -1.15687 0
M  V30 800 O 74.065 4.11402 -0.286775 0
M  V30 801 H 73.406 0.599735 -0.284981 0
M  V30 802 H 75.936 1.49201 -1.4 0
M  V30 803 H 75.946 3.92269 -1.12202 0
M  V30 804 H 74.621 3.52684 -2.20425 0
M  V30 805 H 73.198 3.70939 -0.381903 0
M  V30 806 N 75.3831 0.828654 1.34056 0
M  V30 807 C 76.2931 0.256725 2.33191 0
M  V30 808 C 77.3091 -0.611898 1.62886 0
M  V30 809 O 78.4851 -0.51844 1.94613 0
M  V30 810 C 75.5501 -0.567238 3.42028 0
M  V30 811 C 74.6111 0.324458 4.28072 0
M  V30 812 C 73.8441 -0.460274 5.31712 0
M  V30 813 O 74.0671 -1.693 5.44696 0
M  V30 814 O 73.0011 0.160391 6.01686 0
M  V30 815 H 76.8271 1.07739 2.83947 0
M  V30 816 H 74.4121 0.59093 1.37217 0
M  V30 817 H 76.2941 -1.03582 4.08471 0
M  V30 818 H 74.9691 -1.36513 2.93506 0
M  V30 819 H 73.8761 0.840659 3.64532 0
M  V30 820 H 75.2091 1.08685 4.8005 0
M  V30 821 N 76.8612 -1.46375 0.584142 0
M  V30 822 C 78.1082 -2.02378 0.0702675 0
M  V30 823 C 78.4362 -1.45545 -1.29023 0
M  V30 824 O 77.6912 -0.610967 -1.85918 0
M  V30 825 C 77.9902 -3.57373 -0.0439342 0
M  V30 826 C 77.6562 -4.33252 1.24915 0
M  V30 827 C 76.3182 -4.53701 1.60341 0
M  V30 828 C 78.6702 -4.7681 2.1048 0
M  V30 829 C 75.9982 -5.1496 2.81128 0
M  V30 830 C 78.3502 -5.39404 3.30494 0
M  V30 831 C 77.0142 -5.5808 3.66201 0
M  V30 832 H 76.2842 -0.740554 0.0257127 0
M  V30 833 H 78.9312 -1.75727 0.761065 0
M  V30 834 H 77.2362 -3.83169 -0.817869 0
M  V30 835 H 78.9332 -3.98384 -0.457318 0
M  V30 836 H 75.5232 -4.17633 0.963364 0
M  V30 837 H 79.7072 -4.60766 1.84414 0
M  V30 838 H 74.9632 -5.27611 3.08928 0
M  V30 839 H 79.1372 -5.72114 3.97063 0
M  V30 840 H 76.7642 -6.05318 4.59885 0
M  V30 841 N 78.3393 -0.321999 -1.54275 0
M  V30 842 C 79.5883 0.281931 -1.9972 0
M  V30 843 C 79.9013 1.53369 -1.21397 0
M  V30 844 O 81.1073 2.21352 -1.57211 0
M  V30 845 C 79.5633 0.5529 -3.55628 0
M  V30 846 C 79.1713 -0.681721 -4.42783 0
M  V30 847 C 80.9153 1.11687 -4.09544 0
M  V30 848 C 78.8223 -0.382742 -5.9016 0
M  V30 849 H 77.7523 0.109124 -0.746062 0
M  V30 850 H 80.4033 -0.43398 -1.78294 0
M  V30 851 H 78.7853 1.32896 -3.73035 0
M  V30 852 H 79.9593 -1.45723 -4.37151 0
M  V30 853 H 78.2743 -1.1658 -3.99748 0
M  V30 854 H 80.8713 1.35515 -5.17242 0
M  V30 855 H 81.2143 2.06575 -3.61431 0
M  V30 856 H 81.7473 0.402032 -3.95763 0
M  V30 857 H 78.4863 -1.30076 -6.42464 0
M  V30 858 H 78.0063 0.355094 -5.98748 0
M  V30 859 H 79.6853 0.00800157 -6.47 0
M  V30 860 N 79.8174 1.5752 -0.0501392 0
M  V30 861 C 81.0634 1.92936 0.624798 0
M  V30 862 C 81.3964 0.928685 1.70555 0
M  V30 863 O 80.6714 -0.0454779 1.94447 0
M  V30 864 C 80.9544 3.38737 1.22185 0
M  V30 865 C 80.8074 4.49552 0.149218 0
M  V30 866 C 82.1264 3.84913 2.13378 0
M  V30 867 H 79.2454 0.701604 0.225657 0
M  V30 868 H 81.8874 1.89671 -0.111693 0
M  V30 869 H 80.0374 3.4165 1.84953 0
M  V30 870 H 81.7094 4.58768 -0.482648 0
M  V30 871 H 79.9524 4.30638 -0.522841 0
M  V30 872 H 80.6234 5.48653 0.606966 0
M  V30 873 H 83.0994 3.8387 1.60572 0
M  V30 874 H 81.9754 4.87584 2.52097 0
M  V30 875 H 82.2364 3.21611 3.03346 0
M  V30 876 N 81.2955 -0.223234 1.56011 0
M  V30 877 C 82.2285 -1.30377 1.87289 0
M  V30 878 C 83.2065 -1.45286 0.730112 0
M  V30 879 O 84.3905 -1.61126 0.978302 0
M  V30 880 C 81.5175 -2.67431 2.07843 0
M  V30 881 C 80.5635 -2.69546 3.30526 0
M  V30 882 S 81.3965 -2.23781 4.865 0
M  V30 883 C 82.5525 -3.62714 5.10088 0
M  V30 884 H 82.7855 -1.03652 2.78646 0
M  V30 885 H 80.3185 -0.425393 1.48424 0
M  V30 886 H 82.2765 -3.46336 2.20368 0
M  V30 887 H 80.9375 -2.91381 1.17285 0
M  V30 888 H 80.1305 -3.70255 3.41947 0
M  V30 889 H 79.7325 -1.98703 3.16849 0
M  V30 890 H 82.0245 -4.58391 4.98883 0
M  V30 891 H 82.9675 -3.5621 6.11981 0
M  V30 892 H 83.3755 -3.56323 4.37829 0
M  V30 893 N 82.7736 -1.49793 -0.48987 0
M  V30 894 C 83.7366 -1.66752 -1.57246 0
M  V30 895 C 84.7366 -0.538867 -1.51502 0
M  V30 896 O 85.9266 -0.805545 -1.54456 0
M  V30 897 C 83.0586 -1.67528 -2.96896 0
M  V30 898 H 84.2516 -2.63321 -1.43534 0
M  V30 899 H 81.8046 -1.38992 -0.714914 0
M  V30 900 H 82.5396 -0.725837 -3.16073 0
M  V30 901 H 82.3246 -2.49504 -3.02473 0
M  V30 902 H 83.8146 -1.82667 -3.7553 0
M  V30 903 N 84.2517 0.741722 -1.39055 0
M  V30 904 C 85.2147 1.83733 -1.37021 0
M  V30 905 C 86.2147 1.58542 -0.268534 0
M  V30 906 O 87.4047 1.66067 -0.526076 0
M  V30 907 C 84.5367 3.2141 -1.13617 0
M  V30 908 H 85.7297 1.86941 -2.34506 0
M  V30 909 H 83.2827 0.944676 -1.24521 0
M  V30 910 H 84.0177 3.23865 -0.167863 0
M  V30 911 H 83.8027 3.4109 -1.93391 0
M  V30 912 H 85.2927 4.01477 -1.14918 0
M  V30 913 N 85.7298 1.2412 0.971189 0
M  V30 914 C 87.0068 0.986867 1.6888 0
M  V30 915 C 87.3868 -0.491857 2.0529 0
M  V30 916 O 86.7348 -1.46531 1.75331 0
M  V30 917 C 86.9448 1.9063 2.92338 0
M  V30 918 C 88.2928 2.17515 3.64654 0
M  V30 919 O 89.3168 1.88254 3.02388 0
M  V30 920 O 88.1758 2.6719 4.7673 0
M  V30 921 H 85.2698 0.372944 0.738134 0
M  V30 922 H 87.8158 1.35203 1.02559 0
M  V30 923 H 86.5878 2.90552 2.62097 0
M  V30 924 H 86.2108 1.54408 3.66393 0
M  V30 925 N 87.2079 -1.17134 1.05439 0
M  V30 926 C 88.1709 -2.19439 0.661764 0
M  V30 927 C 89.1709 -1.58199 -0.288042 0
M  V30 928 O 90.3609 -1.74053 -0.0715803 0
M  V30 929 C 87.4929 -3.40889 -0.0276209 0
M  V30 930 H 88.6859 -2.55688 1.56728 0
M  V30 931 H 86.2389 -1.31259 0.848567 0
M  V30 932 H 86.9739 -3.10187 -0.94629 0
M  V30 933 H 86.7589 -3.86586 0.655238 0
M  V30 934 H 88.2489 -4.16603 -0.288342 0
M  V30 935 N 88.686 -0.835752 -1.33615 0
M  V30 936 C 89.596 -0.269088 -2.33052 0
M  V30 937 C 90.612 0.603251 -1.63208 0
M  V30 938 O 91.788 0.508112 -1.94885 0
M  V30 939 C 88.853 0.549091 -3.42324 0
M  V30 940 C 87.914 -0.347156 -4.27894 0
M  V30 941 C 87.147 0.43207 -5.31948 0
M  V30 942 O 87.37 1.66409 -5.45586 0
M  V30 943 O 86.304 -0.192298 -6.01593 0
M  V30 944 H 90.13 -1.09243 -2.83372 0
M  V30 945 H 87.715 -0.598198 -1.36901 0
M  V30 946 H 89.597 1.01414 -4.09015 0
M  V30 947 H 88.272 1.34955 -2.94226 0
M  V30 948 H 87.179 -0.859979 -3.64081 0
M  V30 949 H 88.512 -1.1123 -4.79467 0
M  V30 950 N 90.1641 1.46063 -0.591896 0
M  V30 951 C 91.5751 1.85944 -0.167822 0
M  V30 952 C 91.9261 1.49429 1.27143 0
M  V30 953 O 91.0511 0.913515 1.96173 0
M  V30 954 C 91.6461 3.37489 -0.297794 0
M  V30 955 C 90.2051 3.76332 0.0714732 0
M  V30 956 C 89.3521 2.7006 -0.629509 0
M  V30 957 H 92.3031 1.37087 -0.799555 0
M  V30 958 H 92.3241 3.77532 0.474349 0
M  V30 959 H 91.8361 3.64034 -1.3454 0
M  V30 960 H 89.9371 3.55405 1.11886 0
M  V30 961 H 90.0501 4.78088 -0.311245 0
M  V30 962 H 88.4141 2.54607 -0.0687867 0
M  V30 963 H 89.1971 2.99444 -1.67894 0
M  V30 964 N 91.6422 0.330177 1.54103 0
M  V30 965 C 92.5722 -0.525353 2.27513 0
M  V30 966 C 93.5532 -1.11383 1.2856 0
M  V30 967 O 94.7382 -1.13773 1.57383 0
M  V30 968 C 91.8682 -1.6831 3.03791 0
M  V30 969 C 90.8222 -1.2236 4.10137 0
M  V30 970 C 90.1482 -2.46882 4.74293 0
M  V30 971 C 91.4482 -0.333697 5.21233 0
M  V30 972 H 93.1422 0.087013 2.99274 0
M  V30 973 H 90.6882 0.0432893 1.43935 0
M  V30 974 H 92.6412 -2.28795 3.5388 0
M  V30 975 H 91.3652 -2.32216 2.29659 0
M  V30 976 H 90.0242 -0.64165 3.60941 0
M  V30 977 H 89.6722 -3.09165 3.96769 0
M  V30 978 H 89.3722 -2.16825 5.46133 0
M  V30 979 H 90.8962 -3.08117 5.27159 0
M  V30 980 H 92.3102 -0.845013 5.67038 0
M  V30 981 H 90.7072 -0.125612 5.99969 0
M  V30 982 H 91.7772 0.633724 4.80741 0
M  V30 983 N 93.1203 -1.57491 0.0584922 0
M  V30 984 C 94.0303 -2.15448 -0.928414 0
M  V30 985 C 95.0463 -1.11416 -1.3365 0
M  V30 986 O 96.2223 -1.4362 -1.41193 0
M  V30 987 C 93.2873 -2.69393 -2.18239 0
M  V30 988 C 92.3483 -3.88249 -1.83196 0
M  V30 989 C 91.5813 -4.39613 -3.02616 0
M  V30 990 O 91.8043 -3.90023 -4.16219 0
M  V30 991 O 90.7383 -5.31111 -2.83204 0
M  V30 992 H 94.5643 -3.00112 -0.465483 0
M  V30 993 H 92.1493 -1.48499 -0.163826 0
M  V30 994 H 94.0313 -3.04026 -2.91798 0
M  V30 995 H 92.7063 -1.87796 -2.63656 0
M  V30 996 H 91.6133 -3.58492 -1.06931 0
M  V30 997 H 92.9463 -4.71098 -1.42573 0
M  V30 998 N 94.5984 0.214957 -1.56127 0
M  V30 999 C 95.8474 0.936451 -1.78643 0
M  V30 1000 C 96.1604 1.85237 -0.628229 0
M  V30 1001 O 97.3664 2.613 -0.737186 0
M  V30 1002 C 95.8224 1.7154 -3.16389 0
M  V30 1003 C 95.4304 0.845299 -4.39953 0
M  V30 1004 C 97.1744 2.42772 -3.48227 0
M  V30 1005 C 95.0814 1.62198 -5.68723 0
M  V30 1006 H 94.0114 0.353401 -0.666051 0
M  V30 1007 H 96.6624 0.190169 -1.82512 0
M  V30 1008 H 95.0444 2.50484 -3.06715 0
M  V30 1009 H 96.2184 0.0959353 -4.607 0
M  V30 1010 H 94.5334 0.244789 -4.1568 0
M  V30 1011 H 97.1304 3.01394 -4.41663 0
M  V30 1012 H 97.4734 3.15984 -2.71035 0
M  V30 1013 H 98.0064 1.70813 -3.5926 0
M  V30 1014 H 94.7454 0.933011 -6.48826 0
M  V30 1015 H 94.2654 2.34579 -5.52026 0
M  V30 1016 H 95.9444 2.18095 -6.09133 0
M  V30 1017 N 96.0765 1.50051 0.48192 0
M  V30 1018 C 97.3255 1.59741 1.23149 0
M  V30 1019 C 97.6385 0.298163 1.93314 0
M  V30 1020 O 98.8445 0.273835 2.70116 0
M  V30 1021 C 97.3005 2.81926 2.23708 0
M  V30 1022 C 96.9085 4.18685 1.59396 0
M  V30 1023 C 98.6525 3.00956 2.99375 0
M  V30 1024 C 96.5595 5.3207 2.58178 0
M  V30 1025 H 95.4895 0.594838 0.46334 0
M  V30 1026 H 98.1405 1.76467 0.503169 0
M  V30 1027 H 96.5225 2.58736 2.99786 0
M  V30 1028 H 97.6965 4.52088 0.891811 0
M  V30 1029 H 96.0115 4.05171 0.960503 0
M  V30 1030 H 98.6085 3.82836 3.73283 0
M  V30 1031 H 98.9515 2.12258 3.58123 0
M  V30 1032 H 99.4845 3.24277 2.30411 0
M  V30 1033 H 96.2235 6.22888 2.04184 0
M  V30 1034 H 95.7435 5.03098 3.26577 0
M  V30 1035 H 97.4225 5.62196 3.20225 0
M  V30 1036 N 97.5546 -0.734337 1.39446 0
M  V30 1037 C 98.4846 -1.86155 1.40955 0
M  V30 1038 C 99.4656 -1.67898 0.272827 0
M  V30 1039 O 100.651 -1.88207 0.478743 0
M  V30 1040 C 97.7806 -3.23912 1.25294 0
M  V30 1041 C 96.7346 -3.56808 2.36373 0
M  V30 1042 C 96.0606 -4.93508 2.058 0
M  V30 1043 C 97.3606 -3.59713 3.78687 0
M  V30 1044 H 99.0546 -1.8515 2.35287 0
M  V30 1045 H 96.6006 -0.889367 1.13253 0
M  V30 1046 H 98.5536 -4.02443 1.2497 0
M  V30 1047 H 97.2776 -3.25446 0.274308 0
M  V30 1048 H 95.9366 -2.80606 2.35914 0
M  V30 1049 H 95.5846 -4.91623 1.06374 0
M  V30 1050 H 95.2846 -5.16486 2.80208 0
M  V30 1051 H 96.8086 -5.74396 2.07128 0
M  V30 1052 H 98.2226 -4.2832 3.81071 0
M  V30 1053 H 96.6196 -3.94209 4.52459 0
M  V30 1054 H 97.6896 -2.59504 4.09617 0
M  V30 1055 N 99.0327 -1.24633 -0.964593 0
M  V30 1056 C 99.9827 -1.00841 -2.04487 0
M  V30 1057 C 100.967 0.0512468 -1.60818 0
M  V30 1058 O 102.159 -0.162865 -1.76249 0
M  V30 1059 C 99.2877 -0.618474 -3.37683 0
M  V30 1060 C 98.3737 -1.71437 -3.87905 0
M  V30 1061 N 98.7647 -2.9477 -4.11029 0
M  V30 1062 C 97.0627 -1.5926 -4.16596 0
M  V30 1063 C 97.7637 -3.65834 -4.52261 0
M  V30 1064 N 96.7397 -2.9341 -4.57615 0
M  V30 1065 H 100.542 -1.94487 -2.20345 0
M  V30 1066 H 98.0557 -1.14805 -1.14863 0
M  V30 1067 H 100.053 -0.429247 -4.14684 0
M  V30 1068 H 98.7127 0.310766 -3.23209 0
M  V30 1069 H 99.7237 -3.30917 -3.9839 0
M  V30 1070 H 96.4007 -0.731606 -4.1104 0
M  V30 1071 H 97.7907 -4.71646 -4.78539 0
M  V30 1072 N 100.511 1.16574 -1.06058 0
M  V30 1073 C 101.441 2.23057 -0.690488 0
M  V30 1074 C 102.422 1.67141 0.315901 0
M  V30 1075 O 103.607 1.93253 0.191556 0
M  V30 1076 C 100.737 3.47222 -0.073625 0
M  V30 1077 C 99.6908 4.16016 -1.00573 0
M  V30 1078 C 99.0168 5.34104 -0.252289 0
M  V30 1079 C 100.317 4.67264 -2.33371 0
M  V30 1080 H 102.011 2.54271 -1.58072 0
M  V30 1081 H 99.5568 1.22218 -0.76149 0
M  V30 1082 H 101.51 4.20939 0.19714 0
M  V30 1083 H 100.234 3.15302 0.85161 0
M  V30 1084 H 98.8928 3.44223 -1.2612 0
M  V30 1085 H 98.5408 4.98437 0.675988 0
M  V30 1086 H 98.2408 5.81072 -0.873455 0
M  V30 1087 H 99.7648 6.10599 0.0109857 0
M  V30 1088 H 101.179 5.32573 -2.12223 0
M  V30 1089 H 99.5758 5.24843 -2.90963 0
M  V30 1090 H 100.646 3.83602 -2.96611 0
M  V30 1091 N 101.989 0.842826 1.3317 0
M  V30 1092 C 103.4 0.496651 1.79973 0
M  V30 1093 C 103.751 -0.984641 1.69703 0
M  V30 1094 O 102.876 -1.76743 1.24863 0
M  V30 1095 C 103.471 0.894727 3.26772 0
M  V30 1096 C 102.03 0.600629 3.71577 0
M  V30 1097 C 101.177 1.10091 2.5451 0
M  V30 1098 H 104.128 1.03116 1.20635 0
M  V30 1099 H 104.149 0.206347 3.7994 0
M  V30 1100 H 103.661 1.97287 3.34215 0
M  V30 1101 H 101.762 -0.467284 3.69658 0
M  V30 1102 H 101.875 1.15863 4.64879 0
M  V30 1103 H 100.239 0.52162 2.49301 0
M  V30 1104 H 101.022 2.18591 2.64713 0
M  V30 1105 N 103.467 -1.45747 0.599634 0
M  V30 1106 C 104.397 -2.33235 -0.111306 0
M  V30 1107 C 105.378 -1.46359 -0.866781 0
M  V30 1108 O 106.563 -1.75146 -0.838904 0
M  V30 1109 C 103.693 -3.28932 -1.11451 0
M  V30 1110 C 102.647 -4.25381 -0.472772 0
M  V30 1111 C 101.973 -5.1071 -1.58365 0
M  V30 1112 C 103.273 -5.18831 0.600948 0
M  V30 1113 H 104.967 -2.92927 0.61919 0
M  V30 1114 H 102.513 -1.40857 0.299215 0
M  V30 1115 H 104.466 -3.89002 -1.62036 0
M  V30 1116 H 103.19 -2.67381 -1.8755 0
M  V30 1117 H 101.849 -3.66598 0.0121472 0
M  V30 1118 H 101.497 -4.45533 -2.33473 0
M  V30 1119 H 101.197 -5.7604 -1.15982 0
M  V30 1120 H 102.721 -5.73647 -2.09194 0
M  V30 1121 H 104.135 -5.73019 0.179491 0
M  V30 1122 H 102.532 -5.92595 0.946076 0
M  V30 1123 H 103.602 -4.6174 1.48068 0
M  V30 1124 N 104.945 -0.338344 -1.53925 0
M  V30 1125 C 105.875 0.51328 -2.27789 0
M  V30 1126 C 106.856 1.107 -1.29149 0
M  V30 1127 O 108.041 1.12937 -1.57984 0
M  V30 1128 C 105.171 1.66697 -3.04679 0
M  V30 1129 C 104.125 1.20183 -4.1078 0
M  V30 1130 C 103.451 2.44363 -4.75595 0
M  V30 1131 C 104.751 0.30605 -5.21403 0
M  V30 1132 H 106.445 -0.102883 -2.99223 0
M  V30 1133 H 103.991 -0.0509219 -1.4391 0
M  V30 1134 H 105.944 2.26915 -3.55088 0
M  V30 1135 H 104.668 2.30995 -2.30887 0
M  V30 1136 H 103.327 0.622499 -3.61276 0
M  V30 1137 H 102.975 3.07057 -3.98403 0
M  V30 1138 H 102.675 2.13925 -5.47275 0
M  V30 1139 H 104.199 3.05317 -5.28786 0
M  V30 1140 H 105.613 0.814929 -5.67478 0
M  V30 1141 H 104.01 0.0937929 -6.00027 0
M  V30 1142 H 105.08 -0.65921 -4.80398 0
M  V30 1143 N 106.423 1.57458 -0.0668435 0
M  V30 1144 C 107.663 1.95175 0.607116 0
M  V30 1145 C 108.027 0.946039 1.67075 0
M  V30 1146 O 109.228 1.2107 2.39991 0
M  V30 1147 C 107.499 3.37582 1.17358 0
M  V30 1148 S 109.058 3.97271 1.86336 0
M  V30 1149 H 105.876 0.682604 0.19893 0
M  V30 1150 H 108.478 1.95002 -0.139519 0
M  V30 1151 H 107.182 4.08566 0.387553 0
M  V30 1152 H 106.713 3.41288 1.95669 0
M  V30 1153 H 108.728 3.83772 3.14537 0
M  V30 1154 N 107.901 -0.206675 1.56239 0
M  V30 1155 C 108.811 -1.27686 1.96808 0
M  V30 1156 C 109.827 -1.50455 0.874035 0
M  V30 1157 O 111.003 -1.63295 1.17884 0
M  V30 1158 C 108.068 -2.60358 2.28942 0
M  V30 1159 C 107.129 -2.45762 3.51994 0
M  V30 1160 C 106.362 -3.72108 3.82585 0
M  V30 1161 O 106.585 -4.75776 3.14631 0
M  V30 1162 O 105.519 -3.6833 4.76043 0
M  V30 1163 H 109.345 -0.962593 2.88041 0
M  V30 1164 H 106.93 -0.410746 1.43643 0
M  V30 1165 H 108.812 -3.38687 2.50737 0
M  V30 1166 H 107.487 -2.91435 1.4088 0
M  V30 1167 H 106.394 -1.65584 3.35459 0
M  V30 1168 H 107.727 -2.19621 4.40486 0
M  V30 1169 N 109.379 -1.50304 -0.473955 0
M  V30 1170 C 110.656 -1.51667 -1.23518 0
M  V30 1171 C 111.036 -0.259701 -2.09496 0
M  V30 1172 O 110.384 0.756986 -2.15597 0
M  V30 1173 C 110.594 -2.81082 -2.06868 0
M  V30 1174 C 111.942 -3.31631 -2.65153 0
M  V30 1175 O 112.966 -2.82384 -2.17113 0
M  V30 1176 O 111.825 -4.17471 -3.52675 0
M  V30 1177 H 108.919 -0.60822 -0.560355 0
M  V30 1178 H 111.465 -1.62592 -0.486011 0
M  V30 1179 H 110.237 -3.64041 -1.4349 0
M  V30 1180 H 109.86 -2.73146 -2.88924 0
M  V30 1181 N 110.857 0.726932 -1.39834 0
M  V30 1182 C 111.804 1.841 -1.39197 0
M  V30 1183 C 112.774 1.642 -0.250502 0
M  V30 1184 O 113.959 1.85494 -0.446846 0
M  V30 1185 C 111.099 3.21697 -1.24919 0
M  V30 1186 C 110.212 3.53247 -2.48678 0
M  V30 1187 C 109.347 4.80289 -2.26928 0
M  V30 1188 C 108.386 5.04707 -3.4632 0
M  V30 1189 N 107.523 6.22956 -3.23836 0
M  V30 1190 H 112.363 1.83979 -2.34427 0
M  V30 1191 H 109.9 0.898876 -1.16442 0
M  V30 1192 H 111.858 4.01137 -1.1465 0
M  V30 1193 H 110.488 3.21076 -0.333153 0
M  V30 1194 H 109.54 2.68447 -2.69519 0
M  V30 1195 H 110.852 3.67205 -3.37582 0
M  V30 1196 H 110.006 5.67725 -2.13947 0
M  V30 1197 H 108.745 4.68519 -1.35431 0
M  V30 1198 H 107.75 4.1573 -3.5979 0
M  V30 1199 H 108.975 5.18357 -4.38729 0
M  V30 1200 H 106.921 6.12459 -2.35011 0
M  V30 1201 H 106.838 6.37539 -4.063 0
M  V30 1202 H 108.106 7.1321 -3.14566 0
M  V30 1203 N 112.336 1.25143 0.95797 0
M  V30 1204 C 113.284 1.05019 2.07542 0
M  V30 1205 C 114.278 -0.0178751 1.69391 0
M  V30 1206 O 115.484 0.137472 1.79474 0
M  V30 1207 H 111.859 0.32265 0.679265 0
M  V30 1208 H 113.83 1.99759 2.21673 0
M  V30 1209 C 112.579 0.682074 3.40944 0
M  V30 1210 H 111.902 1.49573 3.70767 0
M  V30 1211 H 113.342 0.580945 4.20001 0
M  V30 1212 C 111.801 -0.611608 3.31302 0
M  V30 1213 O 112.331 -1.65465 3.66038 0
M  V30 1214 N 110.537 -0.595982 2.84423 0
M  V30 1215 H 110.084 0.253192 2.56353 0
M  V30 1216 H 110.042 -1.46173 2.78354 0
M  V30 1217 N 113.814 -1.1601 1.06675 0
M  V30 1218 C 115.06 -1.86909 0.786945 0
M  V30 1219 C 115.393 -1.81717 -0.685018 0
M  V30 1220 O 114.668 -1.23551 -1.50218 0
M  V30 1221 C 114.951 -3.36313 1.28707 0
M  V30 1222 C 114.804 -3.50175 2.82308 0
M  V30 1223 C 116.123 -4.3084 0.898071 0
M  V30 1224 H 113.242 -0.678677 0.287343 0
M  V30 1225 H 115.884 -1.36336 1.32334 0
M  V30 1226 H 114.034 -3.79513 0.830768 0
M  V30 1227 H 115.706 -3.15886 3.36175 0
M  V30 1228 H 113.949 -2.91959 3.20847 0
M  V30 1229 H 114.62 -4.55116 3.12368 0
M  V30 1230 H 117.096 -3.95561 1.29114 0
M  V30 1231 H 115.972 -5.33876 1.27543 0
M  V30 1232 H 116.233 -4.41662 -0.196651 0
M  V30 1233 N 115.292 -0.849877 -1.32721 0
M  V30 1234 C 116.703 -0.506188 -1.79707 0
M  V30 1235 C 117.054 0.975627 -1.70223 0
M  V30 1236 O 116.179 1.76078 -1.25799 0
M  V30 1237 C 116.774 -0.912044 -3.26293 0
M  V30 1238 C 115.333 -0.620326 -3.71253 0
M  V30 1239 C 114.48 -1.11439 -2.53922 0
M  V30 1240 H 117.431 -1.03754 -1.20087 0
M  V30 1241 H 117.452 -0.226493 -3.79825 0
M  V30 1242 H 116.964 -1.99057 -3.33164 0
M  V30 1243 H 115.065 0.447674 -3.69901 0
M  V30 1244 H 115.178 -1.18327 -4.64258 0
M  V30 1245 H 113.542 -0.534834 -2.49021 0
M  V30 1246 H 114.325 -2.19992 -2.6355 0
M  V30 1247 N 116.77 1.45427 -0.607355 0
M  V30 1248 C 118 2.06314 -0.108656 0
M  V30 1249 C 118.408 1.45269 1.21217 0
M  V30 1250 O 117.751 0.561115 1.74921 0
M  V30 1251 C 117.813 3.59345 0.105618 0
M  V30 1252 C 117.477 4.42723 -1.13337 0
M  V30 1253 C 118.474 4.77715 -2.05145 0
M  V30 1254 C 116.159 4.83478 -1.36213 0
M  V30 1255 C 118.153 5.52317 -3.18158 0
M  V30 1256 C 115.84 5.57835 -2.49527 0
M  V30 1257 C 116.838 5.92171 -3.40327 0
M  V30 1258 O 116.526 6.65019 -4.51669 0
M  V30 1259 H 116.258 0.672782 -0.0658842 0
M  V30 1260 H 118.812 1.87664 -0.834945 0
M  V30 1261 H 117.042 3.76394 0.886796 0
M  V30 1262 H 118.731 4.02076 0.555886 0
M  V30 1263 H 119.497 4.46787 -1.88697 0
M  V30 1264 H 115.376 4.56188 -0.664362 0
M  V30 1265 H 118.92 5.79036 -3.89054 0
M  V30 1266 H 114.817 5.88177 -2.65928 0
M  V30 1267 H 115.585 6.83469 -4.50348 0
M  V30 1268 N 118.248 0.346503 1.53744 0
M  V30 1269 C 119.494 -0.249473 2.0126 0
M  V30 1270 C 119.827 -1.49965 1.23386 0
M  V30 1271 O 119.102 -1.91811 0.32229 0
M  V30 1272 C 119.385 -0.560643 3.55709 0
M  V30 1273 C 119.238 0.701836 4.44291 0
M  V30 1274 C 120.557 -1.36905 4.18264 0
M  V30 1275 H 117.676 -0.0891987 0.731582 0
M  V30 1276 H 120.318 0.467624 1.84156 0
M  V30 1277 H 118.468 -1.17156 3.70414 0
M  V30 1278 H 120.14 1.33974 4.41417 0
M  V30 1279 H 118.383 1.32612 4.13033 0
M  V30 1280 H 119.054 0.43933 5.50249 0
M  V30 1281 H 121.53 -0.852448 4.07275 0
M  V30 1282 H 120.406 -1.55553 5.26398 0
M  V30 1283 H 120.667 -2.37203 3.73078 0
M  V30 1284 N 119.726 -1.57421 0.075193 0
M  V30 1285 C 120.973 -1.93618 -0.593146 0
M  V30 1286 C 121.301 -0.955484 -1.69413 0
M  V30 1287 O 120.556 0.0283251 -1.9568 0
M  V30 1288 C 120.855 -3.36428 -1.20626 0
M  V30 1289 C 120.521 -4.50307 -0.231078 0
M  V30 1290 C 119.183 -4.81186 0.0371936 0
M  V30 1291 C 121.535 -5.19374 0.435888 0
M  V30 1292 C 118.863 -5.78466 0.979461 0
M  V30 1293 C 121.215 -6.17665 1.3665 0
M  V30 1294 C 119.879 -6.46958 1.6432 0
M  V30 1295 H 119.149 -0.708499 -0.217047 0
M  V30 1296 H 121.796 -1.90937 0.146793 0
M  V30 1297 H 120.101 -3.35592 -2.02201 0
M  V30 1298 H 121.798 -3.61727 -1.73073 0
M  V30 1299 H 118.388 -4.26227 -0.450357 0
M  V30 1300 H 122.572 -4.95711 0.241748 0
M  V30 1301 H 117.828 -5.99487 1.20106 0
M  V30 1302 H 122.002 -6.70284 1.88924 0
M  V30 1303 H 119.629 -7.2215 2.37494 0
M  V30 1304 N 121.204 0.198386 -1.56346 0
M  V30 1305 C 122.45 0.920648 -1.80698 0
M  V30 1306 C 122.783 1.83045 -0.648697 0
M  V30 1307 O 122.058 1.91308 0.350925 0
M  V30 1308 C 122.341 1.73971 -3.15287 0
M  V30 1309 C 122.194 0.85485 -4.41602 0
M  V30 1310 C 123.513 2.71296 -3.46535 0
M  V30 1311 H 120.632 0.333261 -0.657348 0
M  V30 1312 H 123.274 0.188198 -1.89066 0
M  V30 1313 H 121.424 2.36416 -3.08285 0
M  V30 1314 H 123.096 0.245362 -4.60647 0
M  V30 1315 H 121.339 0.161398 -4.335 0
M  V30 1316 H 122.01 1.46286 -5.32264 0
M  V30 1317 H 124.486 2.18983 -3.53816 0
M  V30 1318 H 123.362 3.2569 -4.41834 0
M  V30 1319 H 123.623 3.5018 -2.69864 0
M  V30 1320 N 122.682 1.50554 0.465978 0
M  V30 1321 C 124.098 1.38093 0.800154 0
M  V30 1322 C 124.298 0.440988 1.96615 0
M  V30 1323 O 123.354 -0.114499 2.5224 0
M  V30 1324 C 124.667 2.79565 1.10742 0
M  V30 1325 C 126.215 2.88516 1.21357 0
M  V30 1326 C 126.69 4.30833 1.55393 0
M  V30 1327 N 128.181 4.33807 1.62375 0
M  V30 1328 C 128.916 5.40927 1.90225 0
M  V30 1329 N 128.412 6.58247 2.16062 0
M  V30 1330 N 130.205 5.28376 1.9177 0
M  V30 1331 H 122.356 2.10237 -0.302366 0
M  V30 1332 H 124.619 0.945203 -0.0727746 0
M  V30 1333 H 124.325 3.50208 0.323661 0
M  V30 1334 H 124.199 3.17125 2.04234 0
M  V30 1335 H 126.586 2.1809 1.98799 0
M  V30 1336 H 126.667 2.54492 0.258321 0
M  V30 1337 H 126.311 5.01799 0.784889 0
M  V30 1338 H 126.241 4.62347 2.52076 0
M  V30 1339 H 128.732 3.49212 1.44427 0
M  V30 1340 H 129.045 7.3569 2.36601 0
M  V30 1341 H 127.39 6.61413 2.13444 0
M  V30 1342 H 130.581 4.35715 1.71085 0
M  V30 1343 H 130.754 6.11944 2.13139 0
M  V30 1344 N 124.16 -0.719506 1.40217 0
M  V30 1345 C 125.385 -1.51371 1.4178 0
M  V30 1346 C 125.81 -1.88091 0.0182355 0
M  V30 1347 O 125.168 -1.52997 -0.972707 0
M  V30 1348 C 125.216 -2.768 2.31115 0
M  V30 1349 O 124.32 -3.73349 1.7517 0
M  V30 1350 H 123.661 -0.456529 0.482159 0
M  V30 1351 H 126.191 -0.88644 1.844 0
M  V30 1352 H 126.201 -3.25371 2.46167 0
M  V30 1353 H 124.876 -2.49407 3.3282 0
M  V30 1354 H 123.453 -3.32179 1.69444 0
M  V30 1355 N 125.638 -1.25649 -0.95132 0
M  V30 1356 C 126.585 -1.06323 -2.04851 0
M  V30 1357 C 127.555 0.0286491 -1.66075 0
M  V30 1358 O 128.74 -0.12917 -1.90362 0
M  V30 1359 C 125.88 -0.691529 -3.381 0
M  V30 1360 C 124.993 -1.85861 -3.89974 0
M  V30 1361 C 124.128 -1.43096 -5.11563 0
M  V30 1362 C 123.167 -2.56696 -5.55674 0
M  V30 1363 N 122.304 -2.14684 -6.68472 0
M  V30 1364 H 127.144 -2.00222 -2.20715 0
M  V30 1365 H 124.681 -0.997027 -1.08156 0
M  V30 1366 H 126.639 -0.456963 -4.1469 0
M  V30 1367 H 125.269 0.210474 -3.22113 0
M  V30 1368 H 124.321 -2.20639 -3.09875 0
M  V30 1369 H 125.633 -2.71161 -4.18657 0
M  V30 1370 H 124.787 -1.15624 -5.9558 0
M  V30 1371 H 123.526 -0.548722 -4.84603 0
M  V30 1372 H 122.531 -2.84909 -4.7022 0
M  V30 1373 H 123.756 -3.45503 -5.8464 0
M  V30 1374 H 121.702 -1.28881 -6.43215 0
M  V30 1375 H 121.619 -2.9353 -6.96689 0
M  V30 1376 H 122.887 -1.90397 -7.5589 0
M  V30 1377 N 127.117 1.15442 -1.07289 0
M  V30 1378 C 128.049 2.19773 -0.650585 0
M  V30 1379 C 129.062 1.60076 0.296572 0
M  V30 1380 O 130.251 1.78293 0.0859905 0
M  V30 1381 C 127.351 3.38838 0.0650398 0
M  V30 1382 C 126.524 4.2808 -0.898141 0
M  V30 1383 C 125.583 5.2574 -0.219926 0
M  V30 1384 O 124.609 5.62654 -0.860773 0
M  V30 1385 N 125.811 5.71205 1.03466 0
M  V30 1386 H 128.576 2.56622 -1.54808 0
M  V30 1387 H 126.137 1.30551 -0.957494 0
M  V30 1388 H 128.129 4.01222 0.529415 0
M  V30 1389 H 126.699 3.00409 0.864466 0
M  V30 1390 H 125.919 3.62804 -1.54165 0
M  V30 1391 H 127.207 4.84577 -1.5512 0
M  V30 1392 H 126.605 5.43325 1.57526 0
M  V30 1393 H 125.162 6.35633 1.44272 0
M  V30 1394 N 128.595 0.856903 1.32268 0
M  V30 1395 C 129.558 0.308171 2.27119 0
M  V30 1396 C 130.558 -0.533421 1.51695 0
M  V30 1397 O 131.748 -0.344607 1.70757 0
M  V30 1398 C 128.88 -0.563757 3.36206 0
M  V30 1399 H 130.073 1.14535 2.77167 0
M  V30 1400 H 127.626 0.631421 1.42978 0
M  V30 1401 H 128.361 -1.42266 2.91429 0
M  V30 1402 H 128.146 0.0386749 3.92081 0
M  V30 1403 H 129.636 -0.940386 4.06874 0
M  V30 1404 N 130.073 -1.45103 0.615059 0
M  V30 1405 C 131.003 -2.33339 -0.0865619 0
M  V30 1406 C 131.984 -1.4727 -0.851209 0
M  V30 1407 O 133.169 -1.76026 -0.820281 0
M  V30 1408 C 130.299 -3.30095 -1.07956 0
M  V30 1409 C 129.253 -4.25858 -0.427628 0
M  V30 1410 C 128.579 -5.12361 -1.5294 0
M  V30 1411 C 129.879 -5.18165 0.655944 0
M  V30 1412 H 131.573 -2.92254 0.650224 0
M  V30 1413 H 129.119 -1.40532 0.314138 0
M  V30 1414 H 131.072 -3.90698 -1.57901 0
M  V30 1415 H 129.796 -2.69355 -1.84703 0
M  V30 1416 H 128.455 -3.66564 0.0510292 0
M  V30 1417 H 128.103 -4.47984 -2.28734 0
M  V30 1418 H 127.803 -5.77238 -1.09865 0
M  V30 1419 H 129.327 -5.75833 -2.03098 0
M  V30 1420 H 130.741 -5.72796 0.240257 0
M  V30 1421 H 129.138 -5.91559 1.00888 0
M  V30 1422 H 130.208 -4.60144 1.52957 0
M  V30 1423 N 131.551 -0.354651 -1.53558 0
M  V30 1424 C 132.799 0.237972 -2.00694 0
M  V30 1425 C 133.12 1.50173 -1.24391 0
M  V30 1426 O 132.39 1.92673 -0.354135 0
M  V30 1427 H 130.97 0.0909256 -0.741446 0
M  V30 1428 H 133.632 -0.478368 -1.88938 0
M  V30 1429 H 132.728 0.47264 -3.085 0
M  V30 1430 N 133.029 1.57378 -0.0835403 0
M  V30 1431 C 134.445 1.57246 0.273109 0
M  V30 1432 C 134.645 1.09385 1.69225 0
M  V30 1433 O 133.701 0.765051 2.40631 0
M  V30 1434 C 135.014 3.00614 0.0720628 0
M  V30 1435 C 136.562 3.12684 0.1407 0
M  V30 1436 C 137.037 4.57989 -0.0322094 0
M  V30 1437 N 138.528 4.63194 0.0230085 0
M  V30 1438 C 139.263 5.73335 -0.0861941 0
M  V30 1439 N 138.759 6.9235 -0.24958 0
M  V30 1440 N 140.552 5.62093 -0.0282886 0
M  V30 1441 H 132.703 1.86801 -1.0109 0
M  V30 1442 H 134.966 0.861687 -0.395222 0
M  V30 1443 H 134.672 3.39786 -0.907662 0
M  V30 1444 H 134.546 3.68193 0.81936 0
M  V30 1445 H 136.933 2.73391 1.11092 0
M  V30 1446 H 137.014 2.47719 -0.637896 0
M  V30 1447 H 136.658 4.97973 -0.999247 0
M  V30 1448 H 136.588 5.21 0.765937 0
M  V30 1449 H 139.079 3.77613 0.14722 0
M  V30 1450 H 139.392 7.72117 -0.324733 0
M  V30 1451 H 137.737 6.94415 -0.285097 0
M  V30 1452 H 140.928 4.67997 0.0981408 0
M  V30 1453 H 141.101 6.47895 -0.116845 0
M  V30 1454 N 134.507 -0.190092 1.56449 0
M  V30 1455 C 135.47 -1.21925 1.9408 0
M  V30 1456 C 136.47 -1.38176 0.822431 0
M  V30 1457 O 137.66 -1.35903 1.08977 0
M  V30 1458 C 134.792 -2.58773 2.21922 0
M  V30 1459 H 135.985 -0.897464 2.86157 0
M  V30 1460 H 133.538 -0.43181 1.50217 0
M  V30 1461 H 134.273 -2.95998 1.32499 0
M  V30 1462 H 134.058 -2.48348 3.03424 0
M  V30 1463 H 135.548 -3.32978 2.52022 0
M  V30 1464 N 135.985 -1.50799 -0.457987 0
M  V30 1465 C 137.225 -1.64088 -1.21879 0
M  V30 1466 C 137.589 -0.339848 -1.88968 0
M  V30 1467 O 138.79 -0.348301 -2.66534 0
M  V30 1468 C 137.061 -2.79726 -2.2246 0
M  V30 1469 S 138.62 -3.13225 -3.07303 0
M  V30 1470 H 135.438 -0.578314 -0.41361 0
M  V30 1471 H 138.04 -1.88632 -0.513645 0
M  V30 1472 H 136.744 -3.72722 -1.71775 0
M  V30 1473 H 136.275 -2.57308 -2.97584 0
M  V30 1474 H 138.29 -2.58062 -4.23814 0
M  V30 1475 N 137.463 0.71206 -1.40597 0
M  V30 1476 C 138.711 1.46907 -1.38791 0
M  V30 1477 C 139.032 1.94998 0.00780391 0
M  V30 1478 O 138.302 1.70587 0.963174 0
M  V30 1479 H 136.882 0.545043 -0.51082 0
M  V30 1480 H 139.544 0.843882 -1.75683 0
M  V30 1481 H 138.64 2.34021 -2.06496 0
M  V30 1482 N 138.941 1.26152 0.944643 0
M  V30 1483 C 140.187 1.11657 1.69294 0
M  V30 1484 C 140.52 -0.339926 1.91202 0
M  V30 1485 O 139.795 -1.24994 1.49019 0
M  V30 1486 C 140.078 1.88236 3.06984 0
M  V30 1487 C 139.931 3.41772 2.92424 0
M  V30 1488 C 141.25 1.67343 4.07043 0
M  V30 1489 H 138.369 0.407004 0.614424 0
M  V30 1490 H 141.011 1.55106 1.09737 0
M  V30 1491 H 139.161 1.51308 3.57824 0
M  V30 1492 H 140.833 3.88433 2.48832 0
M  V30 1493 H 139.076 3.68974 2.28124 0
M  V30 1494 H 139.747 3.90579 3.90067 0
M  V30 1495 H 142.223 1.99509 3.65151 0
M  V30 1496 H 141.099 2.23346 5.01406 0
M  V30 1497 H 141.36 0.617158 4.37771 0
M  V30 1498 N 140.419 -1.14872 1.07899 0
M  V30 1499 C 141.644 -1.90202 0.826926 0
M  V30 1500 C 142.069 -1.77774 -0.614664 0
M  V30 1501 O 141.427 -1.11431 -1.43013 0
M  V30 1502 C 141.475 -3.38352 1.24702 0
M  V30 1503 O 140.579 -4.10497 0.39575 0
M  V30 1504 H 139.92 -0.591968 0.300782 0
M  V30 1505 H 142.45 -1.45437 1.43907 0
M  V30 1506 H 142.46 -3.89156 1.22563 0
M  V30 1507 H 141.135 -3.46715 2.29698 0
M  V30 1508 H 139.712 -3.69796 0.480117 0
M  V30 1509 N 141.898 -0.863906 -1.31812 0
M  V30 1510 C 143.314 -0.555004 -1.49639 0
M  V30 1511 C 143.514 0.912266 -1.79666 0
M  V30 1512 O 142.57 1.69479 -1.87171 0
M  V30 1513 C 143.883 -1.44998 -2.63431 0
M  V30 1514 C 145.431 -1.45138 -2.77316 0
M  V30 1515 C 145.906 -2.33179 -3.94197 0
M  V30 1516 N 147.397 -2.31025 -4.01474 0
M  V30 1517 C 148.132 -2.95871 -4.9117 0
M  V30 1518 N 147.628 -3.69863 -5.8581 0
M  V30 1519 N 149.421 -2.85211 -4.84367 0
M  V30 1520 H 141.572 -1.81339 -1.10589 0
M  V30 1521 H 143.835 -0.77505 -0.545895 0
M  V30 1522 H 143.541 -2.49377 -2.48 0
M  V30 1523 H 143.415 -1.14409 -3.59431 0
M  V30 1524 H 145.802 -0.415201 -2.92164 0
M  V30 1525 H 145.883 -1.79747 -1.82001 0
M  V30 1526 H 145.527 -3.3687 -3.80107 0
M  V30 1527 H 145.457 -1.95897 -4.88807 0
M  V30 1528 H 147.948 -1.77238 -3.33759 0
M  V30 1529 H 148.261 -4.16486 -6.50968 0
M  V30 1530 H 146.606 -3.73971 -5.85808 0
M  V30 1531 H 149.797 -2.26948 -4.09405 0
M  V30 1532 H 149.97 -3.36027 -5.54066 0
M  V30 1533 N 143.376 1.44774 -0.622745 0
M  V30 1534 C 144.787 1.85546 -0.207226 0
M  V30 1535 C 145.138 1.52093 1.23944 0
M  V30 1536 O 144.263 0.95492 1.94191 0
M  V30 1537 C 144.858 3.36781 -0.369313 0
M  V30 1538 C 143.417 3.76399 -0.00836847 0
M  V30 1539 C 142.564 2.68664 -0.686651 0
M  V30 1540 H 145.515 1.3536 -0.828454 0
M  V30 1541 H 145.536 3.78453 0.394162 0
M  V30 1542 H 145.048 3.61098 -1.42231 0
M  V30 1543 H 143.149 3.57698 1.04322 0
M  V30 1544 H 143.262 4.7732 -0.412584 0
M  V30 1545 H 141.626 2.54404 -0.122777 0
M  V30 1546 H 142.409 2.95815 -1.74208 0
M  V30 1547 N 144.854 0.36279 1.53368 0
M  V30 1548 C 146.1 -0.228113 2.01513 0
M  V30 1549 C 146.433 -1.48648 1.2497 0
M  V30 1550 O 145.708 -1.91459 0.342616 0
M  V30 1551 C 145.991 -0.522884 3.56284 0
M  V30 1552 C 145.844 0.74892 4.43521 0
M  V30 1553 C 147.163 -1.32461 4.19693 0
M  V30 1554 H 144.282 -0.0814343 0.732487 0
M  V30 1555 H 146.924 0.48713 1.83649 0
M  V30 1556 H 145.074 -1.1322 3.71636 0
M  V30 1557 H 146.746 1.38648 4.39971 0
M  V30 1558 H 144.989 1.36986 4.11603 0
M  V30 1559 H 145.66 0.497667 5.49752 0
M  V30 1560 H 148.136 -0.809203 4.08156 0
M  V30 1561 H 147.012 -1.49961 5.28018 0
M  V30 1562 H 147.273 -2.33232 3.75573 0
M  V30 1563 N 146.332 -1.57332 0.0918853 0
M  V30 1564 C 147.581 -1.93412 -0.572249 0
M  V30 1565 C 147.894 -0.975515 -1.69538 0
M  V30 1566 O 149.1 -1.22991 -2.42045 0
M  V30 1567 C 147.556 -3.43648 -1.0693 0
M  V30 1568 C 147.164 -4.47994 0.0239049 0
M  V30 1569 C 148.908 -3.88695 -1.70635 0
M  V30 1570 C 146.815 -5.89381 -0.488319 0
M  V30 1571 H 145.745 -0.721939 -0.217532 0
M  V30 1572 H 148.396 -1.82735 0.167369 0
M  V30 1573 H 146.778 -3.49466 -1.8625 0
M  V30 1574 H 147.952 -4.53815 0.799277 0
M  V30 1575 H 146.267 -4.12536 0.565946 0
M  V30 1576 H 148.864 -4.91725 -2.10025 0
M  V30 1577 H 149.207 -3.27166 -2.57426 0
M  V30 1578 H 149.74 -3.85564 -0.979023 0
M  V30 1579 H 146.479 -6.54602 0.342906 0
M  V30 1580 H 145.999 -5.87037 -1.23077 0
M  V30 1581 H 147.678 -6.39863 -0.958317 0
M  V30 1582 N 147.81 0.181792 -1.56548 0
M  V30 1583 C 148.773 1.20894 -1.94724 0
M  V30 1584 C 149.773 1.37738 -0.829747 0
M  V30 1585 O 150.963 1.35323 -1.09697 0
M  V30 1586 C 148.095 2.57593 -2.23291 0
M  V30 1587 H 149.288 0.882275 -2.86629 0
M  V30 1588 H 146.841 0.423838 -1.50444 0
M  V30 1589 H 147.576 2.95291 -1.34067 0
M  V30 1590 H 147.361 2.46735 -3.04736 0
M  V30 1591 H 148.851 3.31637 -2.53785 0
M  V30 1592 N 149.288 1.51039 0.449983 0
M  V30 1593 C 150.528 1.64732 1.21007 0
M  V30 1594 C 150.892 0.349865 1.88785 0
M  V30 1595 O 152.093 0.362431 2.66345 0
M  V30 1596 C 150.364 2.80902 2.20973 0
M  V30 1597 S 151.923 3.14851 3.05638 0
M  V30 1598 H 148.741 0.5805 0.410538 0
M  V30 1599 H 151.343 1.88901 0.503634 0
M  V30 1600 H 150.047 3.73627 1.69796 0
M  V30 1601 H 149.578 2.58882 2.96215 0
M  V30 1602 H 151.593 2.60306 4.22439 0
M  V30 1603 N 150.766 -0.704594 1.40972 0
M  V30 1604 C 151.991 -1.49858 1.43378 0
M  V30 1605 C 152.416 -1.88061 0.038184 0
M  V30 1606 O 151.774 -1.5402 -0.956425 0
M  V30 1607 C 151.822 -2.74333 2.34038 0
M  V30 1608 O 150.926 -3.7147 1.7912 0
M  V30 1609 H 150.267 -0.45139 0.486974 0
M  V30 1610 H 152.797 -0.866832 1.8533 0
M  V30 1611 H 152.807 -3.22741 2.49604 0
M  V30 1612 H 151.482 -2.45863 3.35446 0
M  V30 1613 H 150.059 -3.30363 1.72958 0
M  V30 1614 N 152.244 -1.26651 -0.937939 0
M  V30 1615 C 153.49 -1.12553 -1.687 0
M  V30 1616 C 153.823 0.329782 -1.91379 0
M  V30 1617 O 153.098 1.24202 -1.4968 0
M  V30 1618 C 153.381 -1.89862 -3.05981 0
M  V30 1619 C 153.234 -3.43318 -2.90607 0
M  V30 1620 C 154.553 -1.69499 -4.0615 0
M  V30 1621 H 151.672 -0.410257 -0.612257 0
M  V30 1622 H 154.314 -1.55685 -1.08913 0
M  V30 1623 H 152.464 -1.53204 -3.57017 0
M  V30 1624 H 154.136 -3.89747 -2.46769 0
M  V30 1625 H 152.379 -3.70179 -2.26164 0
M  V30 1626 H 153.05 -3.92642 -3.8799 0
M  V30 1627 H 155.526 -2.01442 -3.64088 0
M  V30 1628 H 154.402 -2.26002 -5.00214 0
M  V30 1629 H 154.663 -0.640365 -4.37438 0
M  V30 1630 N 153.722 1.14298 -1.08507 0
M  V30 1631 C 154.95 1.89219 -0.836876 0
M  V30 1632 C 155.365 1.78638 0.611054 0
M  V30 1633 O 154.722 1.14643 1.41998 0
M  V30 1634 C 154.773 3.39158 -1.25116 0
M  V30 1635 O 154.494 3.49449 -2.64229 0
M  V30 1636 C 155.995 4.31073 -1.03398 0
M  V30 1637 H 153.215 0.599328 -0.301739 0
M  V30 1638 H 155.759 1.44746 -1.44461 0
M  V30 1639 H 153.914 3.81251 -0.687514 0
M  V30 1640 H 154.328 4.42589 -2.81452 0
M  V30 1641 H 155.802 5.34646 -1.37323 0
M  V30 1642 H 156.279 4.3919 0.0289259 0
M  V30 1643 H 156.885 3.94738 -1.58311 0
M  V30 1644 N 155.201 0.870884 1.31352 0
M  V30 1645 C 156.45 0.478408 1.95944 0
M  V30 1646 C 156.763 -0.974493 1.69597 0
M  V30 1647 O 157.969 -1.47316 2.28058 0
M  V30 1648 C 156.425 0.804609 3.50791 0
M  V30 1649 C 156.033 2.27433 3.85977 0
M  V30 1650 C 157.777 0.480648 4.2177 0
M  V30 1651 C 155.684 2.5429 5.33939 0
M  V30 1652 H 154.614 0.175175 0.733369 0
M  V30 1653 H 157.265 1.06391 1.4951 0
M  V30 1654 H 155.647 0.148347 3.95722 0
M  V30 1655 H 156.821 2.97373 3.52002 0
M  V30 1656 H 155.136 2.56442 3.28065 0
M  V30 1657 H 157.733 0.658519 5.30629 0
M  V30 1658 H 158.076 -0.578979 4.12254 0
M  V30 1659 H 158.609 1.09349 3.82476 0
M  V30 1660 H 155.348 3.58939 5.48491 0
M  V30 1661 H 154.868 1.88945 5.69263 0
M  V30 1662 H 156.547 2.39066 6.01212 0
M  V30 1663 N 156.679 -1.44442 0.630414 0
M  V30 1664 C 157.626 -2.30678 -0.0749355 0
M  V30 1665 C 158.596 -1.4344 -0.837502 0
M  V30 1666 O 159.781 -1.72343 -0.818684 0
M  V30 1667 C 156.921 -3.28706 -1.05103 0
M  V30 1668 C 156.034 -4.31046 -0.286954 0
M  V30 1669 C 155.169 -5.16167 -1.2548 0
M  V30 1670 C 154.208 -6.10216 -0.479843 0
M  V30 1671 N 153.345 -6.88039 -1.39811 0
M  V30 1672 H 158.185 -2.90454 0.666386 0
M  V30 1673 H 155.722 -1.43107 0.340404 0
M  V30 1674 H 157.68 -3.84027 -1.63031 0
M  V30 1675 H 156.31 -2.70632 -1.75949 0
M  V30 1676 H 155.362 -3.78203 0.408243 0
M  V30 1677 H 156.674 -4.97794 0.316657 0
M  V30 1678 H 155.828 -5.76002 -1.90544 0
M  V30 1679 H 154.567 -4.49491 -1.89233 0
M  V30 1680 H 153.572 -5.49491 0.184295 0
M  V30 1681 H 154.797 -6.78928 0.152965 0
M  V30 1682 H 152.743 -6.24032 -2.02287 0
M  V30 1683 H 152.66 -7.51223 -0.848508 0
M  V30 1684 H 153.928 -7.52397 -2.03762 0
M  V30 1685 N 158.157 -0.370918 -1.53173 0
M  V30 1686 C 159.067 0.480823 -2.2962 0
M  V30 1687 C 160.083 1.08789 -1.35798 0
M  V30 1688 O 161.259 1.09768 -1.68858 0
M  V30 1689 C 158.324 1.60227 -3.07454 0
M  V30 1690 C 157.385 1.0222 -4.16953 0
M  V30 1691 C 156.618 2.0902 -4.91066 0
M  V30 1692 O 156.841 3.30222 -4.65091 0
M  V30 1693 O 155.775 1.71778 -5.76867 0
M  V30 1694 H 159.601 -0.141421 -3.03371 0
M  V30 1695 H 157.186 -0.135146 -1.48787 0
M  V30 1696 H 159.068 2.25417 -3.56041 0
M  V30 1697 H 157.743 2.20982 -2.36535 0
M  V30 1698 H 156.65 0.334064 -3.72605 0
M  V30 1699 H 157.983 0.459131 -4.90054 0
M  V30 1700 N 159.635 1.57281 -0.100228 0
M  V30 1701 C 160.883 1.94153 0.561157 0
M  V30 1702 C 161.204 0.983157 1.68401 0
M  V30 1703 O 160.474 0.0361132 1.95867 0
M  V30 1704 H 159.054 0.716791 0.210283 0
M  V30 1705 H 161.716 1.94202 -0.164765 0
M  V30 1706 H 160.812 2.96709 0.968008 0
M  V30 1707 N 161.113 -0.173488 1.56642 0
M  V30 1708 C 162.338 -0.910149 1.86363 0
M  V30 1709 C 162.763 -1.75132 0.686318 0
M  V30 1710 O 162.121 -1.77595 -0.364643 0
M  V30 1711 C 162.169 -1.76447 3.14482 0
M  V30 1712 O 161.273 -2.86584 2.96553 0
M  V30 1713 H 160.614 -0.255086 0.613047 0
M  V30 1714 H 163.144 -0.172283 2.03873 0
M  V30 1715 H 163.154 -2.16483 3.45831 0
M  V30 1716 H 161.829 -1.14658 3.99783 0
M  V30 1717 H 160.406 -2.50146 2.76553 0
M  V30 1718 N 162.591 -1.51276 -0.441967 0
M  V30 1719 C 163.523 -1.68444 -1.55433 0
M  V30 1720 C 164.536 -0.565187 -1.52674 0
M  V30 1721 O 165.725 -0.839356 -1.57534 0
M  V30 1722 C 162.825 -1.67966 -2.94348 0
M  V30 1723 C 161.998 -2.964 -3.21661 0
M  V30 1724 C 161.057 -2.88171 -4.40277 0
M  V30 1725 O 160.083 -3.62119 -4.39157 0
M  V30 1726 N 161.285 -2.03706 -5.43584 0
M  V30 1727 H 164.05 -2.644 -1.41112 0
M  V30 1728 H 161.611 -1.49104 -0.630838 0
M  V30 1729 H 163.603 -1.60035 -3.71713 0
M  V30 1730 H 162.173 -0.796225 -3.0229 0
M  V30 1731 H 161.393 -3.18234 -2.32638 0
M  V30 1732 H 162.681 -3.81427 -3.36736 0
M  V30 1733 H 162.079 -1.42995 -5.47329 0
M  V30 1734 H 160.636 -2.01658 -6.1982 0
M  V30 1735 N 164.069 0.697108 -1.41344 0
M  V30 1736 C 164.999 1.82353 -1.45841 0
M  V30 1737 C 165.98 1.67115 -0.317247 0
M  V30 1738 O 167.165 1.86871 -0.528474 0
M  V30 1739 C 164.295 3.20476 -1.33838 0
M  V30 1740 C 163.249 3.50415 -2.4575 0
M  V30 1741 C 162.575 4.87878 -2.18813 0
M  V30 1742 C 163.875 3.49546 -3.88091 0
M  V30 1743 H 165.569 1.78846 -2.40113 0
M  V30 1744 H 163.115 0.859028 -1.15571 0
M  V30 1745 H 165.068 3.98988 -1.35596 0
M  V30 1746 H 163.792 3.24604 -0.360498 0
M  V30 1747 H 162.451 2.74253 -2.43271 0
M  V30 1748 H 162.099 4.8863 -1.19371 0
M  V30 1749 H 161.799 5.08875 -2.93803 0
M  V30 1750 H 163.323 5.68702 -2.22284 0
M  V30 1751 H 164.737 4.18066 -3.92293 0
M  V30 1752 H 163.134 3.82075 -4.62751 0
M  V30 1753 H 164.204 2.48552 -4.16353 0
M  V30 1754 N 165.547 1.27147 0.931209 0
M  V30 1755 C 166.494 1.09568 2.03134 0
M  V30 1756 C 167.464 -0.00222433 1.661 0
M  V30 1757 O 168.649 0.159439 1.90133 0
M  V30 1758 C 165.789 0.745231 3.36957 0
M  V30 1759 C 164.902 1.92041 3.86968 0
M  V30 1760 C 164.037 1.51216 5.09222 0
M  V30 1761 C 163.076 2.65504 5.5152 0
M  V30 1762 N 162.213 2.25291 6.64972 0
M  V30 1763 H 167.053 2.03708 2.17502 0
M  V30 1764 H 164.59 1.01411 1.06556 0
M  V30 1765 H 166.548 0.522878 4.1391 0
M  V30 1766 H 165.178 -0.159202 3.22407 0
M  V30 1767 H 164.23 2.25541 3.06326 0
M  V30 1768 H 165.542 2.77787 4.1429 0
M  V30 1769 H 164.696 1.25084 5.93666 0
M  V30 1770 H 163.435 0.625749 4.83669 0
M  V30 1771 H 162.44 2.92354 4.65628 0
M  V30 1772 H 163.665 3.54761 5.7907 0
M  V30 1773 H 161.611 1.39098 6.41083 0
M  V30 1774 H 161.528 3.04577 6.91931 0
M  V30 1775 H 162.796 2.02398 7.52765 0
M  V30 1776 N 167.025 -1.13721 1.09112 0
M  V30 1777 C 167.957 -2.1871 0.685467 0
M  V30 1778 C 168.97 -1.60527 -0.271068 0
M  V30 1779 O 170.159 -1.78407 -0.0576148 0
M  V30 1780 C 167.259 -3.38898 -0.0111255 0
M  V30 1781 C 166.432 -4.26597 0.966131 0
M  V30 1782 C 165.491 -5.25324 0.303539 0
M  V30 1783 O 164.517 -5.61213 0.950177 0
M  V30 1784 N 165.719 -5.72779 -0.943651 0
M  V30 1785 H 168.484 -2.54126 1.58871 0
M  V30 1786 H 166.045 -1.29012 0.978143 0
M  V30 1787 H 168.037 -4.02014 -0.465517 0
M  V30 1788 H 166.607 -3.01747 -0.816565 0
M  V30 1789 H 165.827 -3.60306 1.59917 0
M  V30 1790 H 167.115 -4.82048 1.6281 0
M  V30 1791 H 166.513 -5.45762 -1.48862 0
M  V30 1792 H 165.07 -6.37847 -1.34142 0
M  V30 1793 N 168.503 -0.877838 -1.30888 0
M  V30 1794 C 169.435 -0.296607 -2.27273 0
M  V30 1795 C 170.448 0.544799 -1.53414 0
M  V30 1796 O 171.637 0.365511 -1.74718 0
M  V30 1797 C 168.737 0.597481 -3.33592 0
M  V30 1798 C 167.91 -0.213251 -4.3688 0
M  V30 1799 C 166.969 0.610208 -5.2265 0
M  V30 1800 O 165.995 0.035441 -5.69189 0
M  V30 1801 N 167.197 1.92071 -5.47804 0
M  V30 1802 H 169.962 -1.12492 -2.77787 0
M  V30 1803 H 167.523 -0.740105 -1.43993 0
M  V30 1804 H 169.515 1.15425 -3.87891 0
M  V30 1805 H 168.085 1.32647 -2.83061 0
M  V30 1806 H 167.305 -0.951466 -3.82545 0
M  V30 1807 H 168.593 -0.769262 -5.02951 0
M  V30 1808 H 167.991 2.4107 -5.11763 0
M  V30 1809 H 166.548 2.42508 -6.05007 0
M  V30 1810 N 169.982 1.44106 -0.638065 0
M  V30 1811 C 171.231 2.01194 -0.142744 0
M  V30 1812 C 171.544 1.50835 1.24532 0
M  V30 1813 O 172.75 2.00096 1.83504 0
M  V30 1814 C 171.206 3.59319 -0.20442 0
M  V30 1815 C 170.814 4.18674 -1.59423 0
M  V30 1816 C 172.558 4.23854 0.234079 0
M  V30 1817 C 170.465 5.69045 -1.61065 0
M  V30 1818 H 169.395 0.752367 -0.0495998 0
M  V30 1819 H 172.046 1.65246 -0.797881 0
M  V30 1820 H 170.428 3.92598 0.517946 0
M  V30 1821 H 171.602 3.96921 -2.34074 0
M  V30 1822 H 169.917 3.66453 -1.97741 0
M  V30 1823 H 172.514 5.34155 0.241443 0
M  V30 1824 H 172.857 3.96688 1.2627 0
M  V30 1825 H 173.39 3.95403 -0.436025 0
M  V30 1826 H 170.129 6.00956 -2.61787 0
M  V30 1827 H 169.649 5.929 -0.90718 0
M  V30 1828 H 171.328 6.32809 -1.34766 0
M  V30 1829 N 171.46 0.379036 1.52974 0
M  V30 1830 C 172.392 -0.495963 2.2377 0
M  V30 1831 C 173.405 -1.03517 1.25651 0
M  V30 1832 O 174.594 -0.939249 1.51791 0
M  V30 1833 C 171.694 -1.69894 2.93239 0
M  V30 1834 C 170.867 -1.2889 4.17979 0
M  V30 1835 C 169.926 -2.35543 4.70538 0
M  V30 1836 O 168.952 -1.97375 5.33883 0
M  V30 1837 N 170.154 -3.67318 4.49508 0
M  V30 1838 H 172.919 0.110523 2.99496 0
M  V30 1839 H 170.48 0.204878 1.60598 0
M  V30 1840 H 172.472 -2.40747 3.25304 0
M  V30 1841 H 171.042 -2.212 2.20883 0
M  V30 1842 H 170.262 -0.409676 3.92065 0
M  V30 1843 H 171.55 -0.991443 4.99047 0
M  V30 1844 H 170.948 -4.01095 3.98923 0
M  V30 1845 H 169.505 -4.34235 4.8609 0
M  V30 1846 N 172.938 -1.57226 0.108567 0
M  V30 1847 C 174.163 -1.99604 -0.563303 0
M  V30 1848 C 174.588 -0.987563 -1.6009 0
M  V30 1849 O 173.946 0.0421687 -1.81251 0
M  V30 1850 C 173.994 -3.40902 -1.17552 0
M  V30 1851 O 173.098 -3.42896 -2.2912 0
M  V30 1852 H 172.439 -0.648704 -0.1417 0
M  V30 1853 H 174.969 -2.03679 0.193961 0
M  V30 1854 H 174.979 -3.78886 -1.51357 0
M  V30 1855 H 173.654 -4.1382 -0.415445 0
M  V30 1856 H 172.231 -3.1672 -1.96832 0
M  V30 1857 N 174.416 0.165178 -1.56732 0
M  V30 1858 C 175.665 0.879143 -1.81532 0
M  V30 1859 C 175.978 1.83144 -0.686842 0
M  V30 1860 O 177.184 2.58823 -0.819944 0
M  V30 1861 C 175.64 1.61388 -3.21686 0
M  V30 1862 C 175.248 0.704904 -4.4242 0
M  V30 1863 C 176.992 2.3157 -3.55774 0
M  V30 1864 C 174.899 1.44022 -5.73595 0
M  V30 1865 H 173.829 0.332033 -0.676957 0
M  V30 1866 H 176.48 0.132008 -1.83025 0
M  V30 1867 H 174.862 2.40599 -3.14529 0
M  V30 1868 H 176.036 -0.0506815 -4.60772 0
M  V30 1869 H 174.351 0.112419 -4.16248 0
M  V30 1870 H 176.948 2.8719 -4.51028 0
M  V30 1871 H 177.291 3.07201 -2.8095 0
M  V30 1872 H 177.824 1.59297 -3.64513 0
M  V30 1873 H 174.563 0.72612 -6.51466 0
M  V30 1874 H 174.083 2.16898 -5.5921 0
M  V30 1875 H 175.762 1.98606 -6.15764 0
M  V30 1876 N 175.894 1.51508 0.433938 0
M  V30 1877 C 176.826 1.69266 1.54537 0
M  V30 1878 C 177.839 0.573276 1.52373 0
M  V30 1879 O 179.028 0.847698 1.57087 0
M  V30 1880 C 176.128 1.69524 2.93453 0
M  V30 1881 C 175.301 2.98101 3.20085 0
M  V30 1882 C 174.36 2.90502 4.38742 0
M  V30 1883 O 173.386 3.64442 4.3723 0
M  V30 1884 N 174.588 2.06586 5.42496 0
M  V30 1885 H 177.353 2.65145 1.39708 0
M  V30 1886 H 174.914 1.49437 0.622922 0
M  V30 1887 H 176.906 1.62004 3.70859 0
M  V30 1888 H 175.476 0.812245 3.01863 0
M  V30 1889 H 174.696 3.19464 2.30947 0
M  V30 1890 H 175.984 3.83207 3.34708 0
M  V30 1891 H 175.382 1.45896 5.46563 0
M  V30 1892 H 173.939 2.04943 6.18742 0
M  V30 1893 N 177.372 -0.689602 1.41712 0
M  V30 1894 C 178.304 -1.815 1.39966 0
M  V30 1895 C 179.317 -1.59995 0.300917 0
M  V30 1896 O 180.506 -1.69387 0.563039 0
M  V30 1897 C 177.606 -3.18364 1.16179 0
M  V30 1898 C 176.779 -3.66847 2.38206 0
M  V30 1899 C 175.838 -4.82398 2.10186 0
M  V30 1900 O 174.864 -4.93706 2.83272 0
M  V30 1901 N 176.066 -5.70064 1.0958 0
M  V30 1902 H 178.831 -1.83488 2.36965 0
M  V30 1903 H 176.392 -0.872149 1.36401 0
M  V30 1904 H 178.384 -3.93301 0.953756 0
M  V30 1905 H 176.954 -3.11365 0.27756 0
M  V30 1906 H 176.174 -2.82751 2.74673 0
M  V30 1907 H 177.462 -3.95978 3.19498 0
M  V30 1908 H 176.86 -5.63565 0.491019 0
M  V30 1909 H 175.417 -6.44874 0.947656 0
M  V30 1910 N 178.85 -1.27639 -0.924453 0
M  V30 1911 C 180.075 -1.17101 -1.71179 0
M  V30 1912 C 180.5 0.268134 -1.86179 0
M  V30 1913 O 179.858 1.19415 -1.36418 0
M  V30 1914 C 179.906 -1.86313 -3.08739 0
M  V30 1915 O 179.01 -1.16331 -3.95652 0
M  V30 1916 H 178.351 -0.407091 -0.524569 0
M  V30 1917 H 180.881 -1.68767 -1.15666 0
M  V30 1918 H 180.891 -1.938 -3.59034 0
M  V30 1919 H 179.566 -2.91001 -2.97138 0
M  V30 1920 H 178.143 -1.16935 -3.54091 0
M  V30 1921 N 180.328 1.1314 -1.09713 0
M  V30 1922 C 181.577 1.83838 -0.829851 0
M  V30 1923 C 181.89 1.84599 0.646728 0
M  V30 1924 O 183.096 2.51218 1.02965 0
M  V30 1925 C 181.552 3.30069 -1.43466 0
M  V30 1926 C 181.16 3.37688 -2.94399 0
M  V30 1927 C 182.904 4.05788 -1.24645 0
M  V30 1928 C 180.811 4.78209 -3.47952 0
M  V30 1929 H 179.741 0.68877 -0.306777 0
M  V30 1930 H 182.392 1.27448 -1.3202 0
M  V30 1931 H 180.774 3.8628 -0.871996 0
M  V30 1932 H 181.948 2.91456 -3.56918 0
M  V30 1933 H 180.263 2.75436 -3.12289 0
M  V30 1934 H 182.86 5.09535 -1.62107 0
M  V30 1935 H 183.203 4.15878 -0.187357 0
M  V30 1936 H 183.736 3.55915 -1.77678 0
M  V30 1937 H 180.475 4.73311 -4.53495 0
M  V30 1938 H 179.995 5.24924 -2.90198 0
M  V30 1939 H 181.674 5.47133 -3.45332 0
M  V30 1940 N 181.806 0.884767 1.30421 0
M  V30 1941 C 182.716 0.355398 2.31892 0
M  V30 1942 C 183.732 -0.542261 1.65335 0
M  V30 1943 O 184.908 -0.435432 1.96637 0
M  V30 1944 C 181.973 -0.421661 3.44126 0
M  V30 1945 C 181.034 0.505727 4.26311 0
M  V30 1946 C 180.267 -0.234343 5.33185 0
M  V30 1947 O 180.49 -1.46045 5.51386 0
M  V30 1948 O 179.424 0.415443 6.00465 0
M  V30 1949 H 183.25 1.19685 2.79122 0
M  V30 1950 H 180.835 0.648596 1.34587 0
M  V30 1951 H 182.717 -0.861641 4.12497 0
M  V30 1952 H 181.392 -1.23942 2.99032 0
M  V30 1953 H 180.299 0.994513 3.60639 0
M  V30 1954 H 181.632 1.28948 4.75009 0
M  V30 1955 N 183.284 -1.43765 0.645699 0
M  V30 1956 C 184.7 -1.56509 0.312591 0
M  V30 1957 C 184.9 -1.6307 -1.18365 0
M  V30 1958 O 183.956 -1.58167 -1.96824 0
M  V30 1959 C 185.269 -2.82968 1.01733 0
M  V30 1960 C 186.817 -2.96701 0.996865 0
M  V30 1961 C 187.292 -4.25982 1.68236 0
M  V30 1962 N 188.783 -4.32829 1.64964 0
M  V30 1963 C 189.518 -5.31613 2.14885 0
M  V30 1964 N 189.014 -6.36718 2.73061 0
M  V30 1965 N 190.807 -5.23217 2.05428 0
M  V30 1966 H 182.958 -1.3775 1.61675 0
M  V30 1967 H 185.221 -0.661067 0.679481 0
M  V30 1968 H 184.927 -2.84156 2.0724 0
M  V30 1969 H 184.801 -3.72957 0.564177 0
M  V30 1970 H 187.188 -2.95058 -0.0497719 0
M  V30 1971 H 187.269 -2.08022 1.48865 0
M  V30 1972 H 186.913 -4.28386 2.72852 0
M  V30 1973 H 186.843 -5.13545 1.16529 0
M  V30 1974 H 189.334 -3.57493 1.22503 0
M  V30 1975 H 189.647 -7.08401 3.08848 0
M  V30 1976 H 187.992 -6.37362 2.77118 0
M  V30 1977 H 191.183 -4.40019 1.59689 0
M  V30 1978 H 191.356 -6.00045 2.44643 0
M  V30 1979 N 184.763 -0.387143 -1.52771 0
M  V30 1980 C 185.693 0.440551 -2.29306 0
M  V30 1981 C 186.674 1.06535 -1.32606 0
M  V30 1982 O 187.859 1.07853 -1.61497 0
M  V30 1983 C 184.989 1.56919 -3.09829 0
M  V30 1984 C 183.943 1.07054 -4.14395 0
M  V30 1985 C 183.269 2.29109 -4.83129 0
M  V30 1986 C 184.569 0.140015 -5.22112 0
M  V30 1987 H 186.263 -0.198026 -2.98744 0
M  V30 1988 H 183.809 -0.09668 -1.43675 0
M  V30 1989 H 185.762 2.15503 -3.62128 0
M  V30 1990 H 184.486 2.23532 -2.3812 0
M  V30 1991 H 183.145 0.507247 -3.63074 0
M  V30 1992 H 182.793 2.94227 -4.0797 0
M  V30 1993 H 182.493 1.96406 -5.53804 0
M  V30 1994 H 184.017 2.88339 -5.38231 0
M  V30 1995 H 185.431 0.633978 -5.69784 0
M  V30 1996 H 183.828 -0.0971485 -6.00021 0
M  V30 1997 H 184.898 -0.811711 -4.78058 0
M  V30 1998 N 186.241 1.57166 -0.116904 0
M  V30 1999 C 187.171 2.18222 0.830759 0
M  V30 2000 C 188.152 1.12167 1.27877 0
M  V30 2001 O 189.337 1.40394 1.34176 0
M  V30 2002 C 186.467 2.77996 2.08172 0
M  V30 2003 C 185.421 3.89614 1.77157 0
M  V30 2004 C 184.747 4.36187 3.09265 0
M  V30 2005 C 186.047 5.1181 1.04151 0
M  V30 2006 H 187.741 2.97664 0.321992 0
M  V30 2007 H 185.287 1.4318 0.153434 0
M  V30 2008 H 187.24 3.19366 2.74924 0
M  V30 2009 H 185.964 1.9584 2.6137 0
M  V30 2010 H 184.623 3.48816 1.12796 0
M  V30 2011 H 184.271 3.50893 3.60393 0
M  V30 2012 H 183.971 5.11455 2.89288 0
M  V30 2013 H 185.495 4.80207 3.77139 0
M  V30 2014 H 186.909 5.50214 1.61052 0
M  V30 2015 H 185.306 5.92648 0.942762 0
M  V30 2016 H 186.376 4.84892 0.0279022 0
M  V30 2017 N 187.719 -0.156864 1.56817 0
M  V30 2018 C 188.965 -0.872416 1.83076 0
M  V30 2019 C 189.298 -1.81261 0.697001 0
M  V30 2020 O 188.573 -1.92171 -0.30008 0
M  V30 2021 C 188.856 -1.65551 3.19789 0
M  V30 2022 C 188.709 -0.737467 4.43713 0
M  V30 2023 C 190.028 -2.62012 3.53606 0
M  V30 2024 H 187.147 -0.315715 0.665953 0
M  V30 2025 H 189.789 -0.138004 1.89498 0
M  V30 2026 H 187.939 -2.28159 3.14445 0
M  V30 2027 H 189.611 -0.123143 4.61136 0
M  V30 2028 H 187.854 -0.0464067 4.33775 0
M  V30 2029 H 188.525 -1.32122 5.35955 0
M  V30 2030 H 191.001 -2.09525 3.59497 0
M  V30 2031 H 189.877 -3.13861 4.50314 0
M  V30 2032 H 190.138 -3.42902 2.79053 0
M  V30 2033 O 189.236 -1.58657 -0.301679 0
M  V30 2034 H 189.927 -1.6887 -0.948812 0
M  V30 END ATOM
M  V30 BEGIN BOND
M  V30 END BOND
M  V30 END CTAB
M  END
$$$$
