drugbank_target|P12996 Biotin synthase (DB03775)
 OpenBabel12092119583D

  0  0  0     0  0            999 V3000
M  V30 BEGIN CTAB
M  V30 COUNTS 5387 5434 0 0 0
M  V30 BEGIN ATOM
M  V30 1 H -0.908 1.98254 -0.117106 0
M  V30 2 N 0 1.576 0 0
M  V30 3 C 0.933 2.03868 1.02534 0
M  V30 4 C 1.911 0.928543 1.3348 0
M  V30 5 O 3.095 1.19667 1.45644 0
M  V30 6 C 0.222 2.43627 2.35294 0
M  V30 7 C -0.732 3.65373 2.2001 0
M  V30 8 S 0.101 5.13292 1.52614 0
M  V30 9 C 1.257 5.56322 2.86805 0
M  V30 10 H 1.49 2.90518 0.631377 0
M  V30 11 H -0.977 1.52953 0.210867 0
M  V30 12 H 0.981 2.67203 3.11629 0
M  V30 13 H -0.358 1.57376 2.7183 0
M  V30 14 H -1.165 3.90944 3.18086 0
M  V30 15 H -1.563 3.418 1.51819 0
M  V30 16 H 0.729 5.58782 3.83104 0
M  V30 17 H 1.672 6.56266 2.65933 0
M  V30 18 H 2.08 4.83886 2.90714 0
M  V30 19 N 1.4781 -0.272755 1.55222 0
M  V30 20 C 2.4411 -1.32041 1.87344 0
M  V30 21 C 3.4411 -1.42342 0.74803 0
M  V30 22 O 4.6311 -1.41488 1.0162 0
M  V30 23 C 1.7631 -2.70173 2.07893 0
M  V30 24 H 2.9561 -1.04789 2.80997 0
M  V30 25 H 0.5091 -0.51083 1.47717 0
M  V30 26 H 1.2441 -3.02605 1.16622 0
M  V30 27 H 1.0291 -2.64082 2.89833 0
M  V30 28 H 2.5191 -3.45869 2.34017 0
M  V30 29 N 2.9562 -1.48159 -0.537278 0
M  V30 30 C 3.9062 -1.5854 -1.63857 0
M  V30 31 C 4.8902 -0.442969 -1.54682 0
M  V30 32 O 6.0822 -0.69401 -1.62827 0
M  V30 33 C 3.2112 -1.62144 -3.02596 0
M  V30 34 C 2.2972 -2.81841 -3.16901 0
M  V30 35 N 2.6882 -4.06337 -3.01204 0
M  V30 36 C 0.9862 -2.79021 -3.47942 0
M  V30 37 C 1.6872 -4.86606 -3.18731 0
M  V30 38 N 0.6632 -4.19288 -3.45974 0
M  V30 39 H 4.4652 -2.5255 -1.50319 0
M  V30 40 H 1.9792 -1.4443 -0.742555 0
M  V30 41 H 3.9762 -1.67674 -3.81695 0
M  V30 42 H 2.6362 -0.69245 -3.17231 0
M  V30 43 H 3.6472 -4.36888 -2.78117 0
M  V30 44 H 0.3242 -1.95347 -3.6898 0
M  V30 45 H 1.7142 -5.95385 -3.11394 0
M  V30 46 N 4.4343 0.785586 -1.36625 0
M  V30 47 C 5.8503 1.08419 -1.17122 0
M  V30 48 C 6.0503 2.015 0.00208491 0
M  V30 49 O 5.1063 2.43551 0.666278 0
M  V30 50 C 6.4193 1.69498 -2.48377 0
M  V30 51 C 7.9673 1.81821 -2.54775 0
M  V30 52 C 8.4423 2.46315 -3.86126 0
M  V30 53 N 9.9333 2.53779 -3.87492 0
M  V30 54 C 10.6683 3.045 -4.85868 0
M  V30 55 N 10.1643 3.55499 -5.94637 0
M  V30 56 N 11.9573 3.03247 -4.73284 0
M  V30 57 H 4.1083 0.167264 -2.1174 0
M  V30 58 H 6.3713 0.13682 -0.938075 0
M  V30 59 H 6.0773 1.08571 -3.34522 0
M  V30 60 H 5.9513 2.6896 -2.64462 0
M  V30 61 H 8.3383 2.41884 -1.69045 0
M  V30 62 H 8.4193 0.811532 -2.42586 0
M  V30 63 H 8.0633 1.86895 -4.72263 0
M  V30 64 H 7.9933 3.47561 -3.95612 0
M  V30 65 H 10.4843 2.17672 -3.08913 0
M  V30 66 H 10.7973 3.92562 -6.65669 0
M  V30 67 H 9.1423 3.5364 -5.98301 0
M  V30 68 H 12.3333 2.62696 -3.87438 0
M  V30 69 H 12.5063 3.42467 -5.50109 0
M  V30 70 N 5.9124 1.20967 1.01018 0
M  V30 71 C 7.3234 1.02319 1.56165 0
M  V30 72 C 7.6744 -0.418546 1.91684 0
M  V30 73 O 6.7994 -1.30096 1.72928 0
M  V30 74 C 7.3944 1.85109 2.8376 0
M  V30 75 C 5.9534 1.70809 3.35412 0
M  V30 76 C 5.1004 1.82643 2.08655 0
M  V30 77 H 8.0514 1.35065 0.833255 0
M  V30 78 H 8.0724 1.35827 3.55431 0
M  V30 79 H 7.5844 2.90035 2.57878 0
M  V30 80 H 5.6854 0.685464 3.66241 0
M  V30 81 H 5.7984 2.52467 4.07182 0
M  V30 82 H 4.1624 1.25896 2.21409 0
M  V30 83 H 4.9454 2.89066 1.85191 0
M  V30 84 N 7.3905 -1.2043 1.01659 0
M  V30 85 C 8.8065 -1.41852 0.731442 0
M  V30 86 C 9.0065 -1.89358 -0.688898 0
M  V30 87 O 8.0625 -2.06247 -1.45666 0
M  V30 88 C 9.3755 -2.44019 1.75714 0
M  V30 89 C 10.9235 -2.57785 1.77527 0
M  V30 90 C 11.3985 -3.63194 2.79023 0
M  V30 91 N 12.8895 -3.70678 2.77763 0
M  V30 92 C 13.6245 -4.51897 3.52954 0
M  V30 93 N 13.1205 -5.36921 4.37821 0
M  V30 94 N 14.9135 -4.4643 3.41551 0
M  V30 95 H 7.0645 -0.879093 1.93354 0
M  V30 96 H 9.3275 -0.448425 0.835236 0
M  V30 97 H 9.0335 -2.1611 2.77469 0
M  V30 98 H 8.9075 -3.43007 1.56927 0
M  V30 99 H 11.2945 -2.85023 0.764569 0
M  V30 100 H 11.3755 -1.58992 2.00387 0
M  V30 101 H 11.0195 -3.36699 3.80258 0
M  V30 102 H 10.9495 -4.61609 2.53425 0
M  V30 103 H 13.4405 -3.09944 2.16201 0
M  V30 104 H 13.7535 -5.95981 4.91962 0
M  V30 105 H 12.0985 -5.36424 4.41899 0
M  V30 106 H 15.2895 -3.79042 2.74672 0
M  V30 107 H 15.4625 -5.09491 4.00404 0
M  V30 108 N 8.8686 -0.792821 -1.36206 0
M  V30 109 C 10.1146 -0.376415 -1.99887 0
M  V30 110 C 10.4696 1.04127 -1.61788 0
M  V30 111 O 9.7626 1.71004 -0.864193 0
M  V30 112 C 9.9566 -0.481501 -3.54142 0
M  V30 113 C 9.7856 -1.90786 -4.07223 0
M  V30 114 C 8.5556 -2.53322 -4.37214 0
M  V30 115 C 10.7536 -2.87048 -4.26741 0
M  V30 116 N 8.7356 -3.8751 -4.7614 0
M  V30 117 C 10.1066 -4.06077 -4.6851 0
M  V30 118 C 12.1616 -2.8406 -4.08918 0
M  V30 119 C 10.8646 -5.22532 -4.94321 0
M  V30 120 C 12.8906 -3.99705 -4.35878 0
M  V30 121 C 12.2526 -5.1748 -4.77906 0
M  V30 122 H 8.3516 -0.185226 -0.759747 0
M  V30 123 H 10.9356 -1.03114 -1.65153 0
M  V30 124 H 9.1066 0.143154 -3.88136 0
M  V30 125 H 10.8386 -0.0410128 -4.04679 0
M  V30 126 H 7.5936 -2.04777 -4.2704 0
M  V30 127 H 8.0176 -4.5656 -4.99882 0
M  V30 128 H 12.6596 -1.94165 -3.75579 0
M  V30 129 H 10.3776 -6.1301 -5.2654 0
M  V30 130 H 13.9636 -3.98758 -4.23655 0
M  V30 131 H 12.8436 -6.05478 -4.98363 0
M  V30 132 N 10.3467 1.47872 -0.545128 0
M  V30 133 C 11.5747 2.06889 -0.021084 0
M  V30 134 C 11.9897 1.39955 1.2672 0
M  V30 135 O 11.3467 0.492036 1.75742 0
M  V30 136 C 11.3977 3.60996 0.190817 0
M  V30 137 O 11.1187 4.25419 -1.04644 0
M  V30 138 C 12.6197 4.36849 0.753521 0
M  V30 139 H 9.8397 0.669785 -0.0403635 0
M  V30 140 H 12.3837 1.90049 -0.755095 0
M  V30 141 H 10.5387 3.77391 0.87492 0
M  V30 142 H 10.9527 5.17785 -0.836611 0
M  V30 143 H 12.4267 5.45399 0.851139 0
M  V30 144 H 12.9037 4.02306 1.762 0
M  V30 145 H 13.5097 4.25169 0.105503 0
M  V30 146 N 11.8248 0.280983 1.55075 0
M  V30 147 C 12.7548 -0.597469 2.25727 0
M  V30 148 C 13.7358 -1.15417 1.24952 0
M  V30 149 O 14.9208 -1.18722 1.53684 0
M  V30 150 C 12.0508 -1.7789 2.98283 0
M  V30 151 C 11.0048 -1.35347 4.06036 0
M  V30 152 C 10.3308 -2.61846 4.66198 0
M  V30 153 C 11.6308 -0.499354 5.19907 0
M  V30 154 H 13.3248 -0.00824265 2.99399 0
M  V30 155 H 10.8708 -0.0025244 1.44 0
M  V30 156 H 12.8238 -2.39937 3.46422 0
M  V30 157 H 11.5478 -2.39405 2.22155 0
M  V30 158 H 10.2068 -0.756156 3.58717 0
M  V30 159 H 9.8548 -3.21632 3.86732 0
M  V30 160 H 9.5548 -2.3409 5.38958 0
M  V30 161 H 11.0788 -3.24732 5.1709 0
M  V30 162 H 12.4928 -1.02498 5.64063 0
M  V30 163 H 10.8898 -0.316424 5.99265 0
M  V30 164 H 11.9598 0.480459 4.82514 0
M  V30 165 N 13.3029 -1.57598 0.00835791 0
M  V30 166 C 14.5279 -1.95617 -0.689103 0
M  V30 167 C 14.9529 -0.883753 -1.66046 0
M  V30 168 O 14.3109 0.157352 -1.80616 0
M  V30 169 C 14.3589 -3.32736 -1.38994 0
M  V30 170 O 13.4629 -3.27631 -2.50463 0
M  V30 171 H 12.8039 -0.638379 -0.182668 0
M  V30 172 H 15.3339 -2.045 0.064036 0
M  V30 173 H 15.3439 -3.68494 -1.75147 0
M  V30 174 H 14.0189 -4.1034 -0.677778 0
M  V30 175 H 12.5959 -3.03561 -2.16576 0
M  V30 176 N 14.781 0.264519 -1.55364 0
M  V30 177 C 15.713 1.34965 -1.85248 0
M  V30 178 C 16.726 1.45136 -0.737525 0
M  V30 179 O 17.915 1.46801 -1.01547 0
M  V30 180 C 15.015 2.73008 -2.00797 0
M  V30 181 C 14.188 2.85324 -3.31525 0
M  V30 182 C 13.247 4.04097 -3.37034 0
M  V30 183 O 12.273 3.94455 -4.10358 0
M  V30 184 N 13.475 5.16458 -2.65049 0
M  V30 185 H 16.24 1.09672 -2.78913 0
M  V30 186 H 13.801 0.454635 -1.55386 0
M  V30 187 H 15.793 3.50772 -2.01844 0
M  V30 188 H 14.363 2.91087 -1.1396 0
M  V30 189 H 13.583 1.94377 -3.42945 0
M  V30 190 H 14.871 2.9049 -4.17724 0
M  V30 191 H 14.269 5.27181 -2.05175 0
M  V30 192 H 12.826 5.92422 -2.71809 0
M  V30 193 N 16.2591 1.48442 0.529413 0
M  V30 194 C 17.5051 1.5672 1.28711 0
M  V30 195 C 17.8381 0.2406 1.92704 0
M  V30 196 O 17.1131 -0.753454 1.79313 0
M  V30 197 C 17.3961 2.70587 2.37603 0
M  V30 198 C 17.2491 4.12953 1.78297 0
M  V30 199 C 18.5681 2.80212 3.39366 0
M  V30 200 H 15.6871 0.570474 0.466613 0
M  V30 201 H 18.3291 1.80617 0.589706 0
M  V30 202 H 16.4791 2.50342 2.97088 0
M  V30 203 H 18.1511 4.44639 1.22858 0
M  V30 204 H 16.3941 4.19927 1.0883 0
M  V30 205 H 17.0651 4.88448 2.57144 0
M  V30 206 H 19.5411 2.98553 2.89836 0
M  V30 207 H 18.4171 3.61611 4.12951 0
M  V30 208 H 18.6781 1.88393 3.99951 0
M  V30 209 N 17.7372 -0.778329 1.37039 0
M  V30 210 C 18.9652 -1.56734 1.35063 0
M  V30 211 C 19.3802 -1.88686 -0.0655597 0
M  V30 212 O 18.7372 -1.5096 -1.02554 0
M  V30 213 C 18.7882 -2.88163 2.18276 0
M  V30 214 O 18.5092 -2.57583 3.54376 0
M  V30 215 C 20.0102 -3.82422 2.24206 0
M  V30 216 H 17.2302 -0.485778 0.462883 0
M  V30 217 H 19.7742 -0.965185 1.8029 0
M  V30 218 H 17.9292 -3.44818 1.76576 0
M  V30 219 H 18.3432 -3.41699 3.97922 0
M  V30 220 H 19.8172 -4.71667 2.86765 0
M  V30 221 H 20.2942 -4.21078 1.24861 0
M  V30 222 H 20.9002 -3.31697 2.6619 0
M  V30 223 N 19.2153 -1.21501 -1.00376 0
M  V30 224 C 20.1253 -0.991447 -2.12621 0
M  V30 225 C 21.1413 0.0568446 -1.73907 0
M  V30 226 O 22.3173 -0.13348 -2.00957 0
M  V30 227 C 19.3823 -0.560312 -3.42142 0
M  V30 228 C 18.4433 -1.68096 -3.95022 0
M  V30 229 C 17.6763 -1.2703 -5.18362 0
M  V30 230 O 17.8993 -0.144438 -5.70217 0
M  V30 231 O 16.8333 -2.08269 -5.64719 0
M  V30 232 H 20.6593 -1.93158 -2.34358 0
M  V30 233 H 18.2443 -0.999999 -1.10997 0
M  V30 234 H 20.1263 -0.329724 -4.20108 0
M  V30 235 H 18.8013 0.351089 -3.2179 0
M  V30 236 H 17.7083 -1.96597 -3.18278 0
M  V30 237 H 19.0413 -2.56983 -4.19786 0
M  V30 238 N 20.6934 1.19889 -1.02296 0
M  V30 239 C 21.6234 2.25141 -0.619174 0
M  V30 240 C 22.6044 1.66051 0.368915 0
M  V30 241 O 23.7894 1.92546 0.252941 0
M  V30 242 C 20.9194 3.4728 0.0368783 0
M  V30 243 C 19.8734 4.19005 -0.872865 0
M  V30 244 C 19.1994 5.34637 -0.0822402 0
M  V30 245 C 20.4994 4.74452 -2.18387 0
M  V30 246 H 22.1934 2.59171 -1.49903 0
M  V30 247 H 19.7394 1.24579 -0.722222 0
M  V30 248 H 21.6924 4.20098 0.330958 0
M  V30 249 H 20.4164 3.12433 0.95149 0
M  V30 250 H 19.0754 3.48061 -1.15105 0
M  V30 251 H 18.7234 4.96034 0.83422 0
M  V30 252 H 18.4234 5.83557 -0.688149 0
M  V30 253 H 19.9474 6.10255 0.205238 0
M  V30 254 H 21.3614 5.39055 -1.95172 0
M  V30 255 H 19.7584 5.33834 -2.74119 0
M  V30 256 H 20.8284 3.92844 -2.84257 0
M  V30 257 N 22.1715 0.800033 1.35784 0
M  V30 258 C 23.4185 0.377342 1.98953 0
M  V30 259 C 23.7465 -1.05378 1.6348 0
M  V30 260 O 23.0015 -1.74459 0.886707 0
M  V30 261 C 23.3005 0.500276 3.53881 0
M  V30 262 C 22.9665 1.89375 4.09204 0
M  V30 263 C 21.6285 2.27499 4.24025 0
M  V30 264 C 23.9805 2.8057 4.39238 0
M  V30 265 C 21.3085 3.562 4.66195 0
M  V30 266 C 23.6605 4.0871 4.82844 0
M  V30 267 C 22.3245 4.46843 4.95871 0
M  V30 268 H 21.5945 0.138079 0.728021 0
M  V30 269 H 24.2415 1.01955 1.62103 0
M  V30 270 H 22.5465 -0.225405 3.91151 0
M  V30 271 H 24.2435 0.154097 4.00704 0
M  V30 272 H 20.8335 1.58753 3.98115 0
M  V30 273 H 25.0175 2.52367 4.27346 0
M  V30 274 H 20.2735 3.85602 4.74469 0
M  V30 275 H 24.4475 4.79481 5.05046 0
M  V30 276 H 22.0745 5.46623 5.28306 0
M  V30 277 N 23.6496 -1.47581 0.552962 0
M  V30 278 C 24.5596 -2.33743 -0.200353 0
M  V30 279 C 25.5756 -1.47928 -0.916151 0
M  V30 280 O 26.7516 -1.80865 -0.885993 0
M  V30 281 C 23.8166 -3.24536 -1.21973 0
M  V30 282 C 22.8776 -4.26238 -0.511819 0
M  V30 283 C 22.1106 -5.12693 -1.48263 0
M  V30 284 O 22.3336 -5.01525 -2.71714 0
M  V30 285 O 21.2676 -5.93375 -1.00945 0
M  V30 286 H 25.0936 -2.9945 0.506304 0
M  V30 287 H 22.6786 -1.46071 0.313622 0
M  V30 288 H 24.5606 -3.80631 -1.80827 0
M  V30 289 H 23.2356 -2.61462 -1.90839 0
M  V30 290 H 22.1426 -3.73914 0.117799 0
M  V30 291 H 23.4756 -4.92014 0.135308 0
M  V30 292 N 25.1277 -0.289203 -1.54924 0
M  V30 293 C 26.0747 0.592115 -2.23075 0
M  V30 294 C 27.0447 1.13881 -1.20915 0
M  V30 295 O 28.2297 1.18551 -1.495 0
M  V30 296 C 25.3697 1.76376 -2.96623 0
M  V30 297 C 24.4827 1.24959 -4.13533 0
M  V30 298 C 23.6177 2.38416 -4.74691 0
M  V30 299 C 22.6567 1.84072 -5.83767 0
M  V30 300 N 21.7937 2.91057 -6.38929 0
M  V30 301 H 26.6337 0.00432038 -2.98 0
M  V30 302 H 24.1707 -0.00963529 -1.47097 0
M  V30 303 H 26.1287 2.45268 -3.3749 0
M  V30 304 H 24.7587 2.32337 -2.24097 0
M  V30 305 H 23.8107 0.453307 -3.77689 0
M  V30 306 H 25.1227 0.811662 -4.92152 0
M  V30 307 H 24.2767 3.15276 -5.18349 0
M  V30 308 H 23.0157 2.8553 -3.95378 0
M  V30 309 H 22.0207 1.05697 -5.39545 0
M  V30 310 H 23.2457 1.37877 -6.64956 0
M  V30 311 H 21.1917 3.37526 -5.62505 0
M  V30 312 H 21.1087 2.51724 -7.12861 0
M  V30 313 H 22.3767 3.6785 -6.87246 0
M  V30 314 N 26.6058 1.57591 -0.0167156 0
M  V30 315 C 28.0168 1.79201 0.523834 0
M  V30 316 C 28.3678 0.925796 1.72984 0
M  V30 317 O 27.4928 0.132792 2.15992 0
M  V30 318 C 28.0878 3.25 0.957091 0
M  V30 319 C 26.6468 3.47648 1.44283 0
M  V30 320 C 25.7938 2.74374 0.401757 0
M  V30 321 H 28.7448 1.56831 -0.242816 0
M  V30 322 H 28.7658 3.34031 1.82219 0
M  V30 323 H 28.2778 3.88019 0.0791415 0
M  V30 324 H 26.3788 2.89866 2.34113 0
M  V30 325 H 26.4918 4.56352 1.45877 0
M  V30 326 H 24.8558 2.39485 0.867121 0
M  V30 327 H 25.6388 3.40102 -0.467513 0
M  V30 328 N 28.0839 -0.256276 1.55502 0
M  V30 329 C 29.0139 -1.32102 1.92539 0
M  V30 330 C 29.9949 -1.50684 0.789194 0
M  V30 331 O 31.1799 -1.63449 1.04872 0
M  V30 332 C 28.3099 -2.67752 2.21192 0
M  V30 333 C 27.2639 -2.63878 3.36975 0
M  V30 334 C 26.5899 -4.03236 3.51147 0
M  V30 335 C 27.8899 -2.21682 4.72921 0
M  V30 336 H 29.5839 -1.01351 2.81724 0
M  V30 337 H 27.1299 -0.486105 1.35547 0
M  V30 338 H 29.0829 -3.42365 2.45691 0
M  V30 339 H 27.8069 -3.0012 1.28824 0
M  V30 340 H 26.4659 -1.91722 3.12471 0
M  V30 341 H 26.1139 -4.32854 2.56216 0
M  V30 342 H 25.8139 -4.01535 4.29003 0
M  V30 343 H 27.3379 -4.79563 3.77957 0
M  V30 344 H 28.7519 -2.86023 4.96854 0
M  V30 345 H 27.1489 -2.3111 5.53812 0
M  V30 346 H 28.2189 -1.16833 4.70615 0
M  V30 347 N 29.562 -1.4872 -0.521534 0
M  V30 348 C 30.492 -1.66771 -1.63431 0
M  V30 349 C 31.473 -0.516499 -1.62069 0
M  V30 350 O 32.658 -0.750013 -1.79132 0
M  V30 351 C 29.788 -1.71515 -3.01993 0
M  V30 352 C 28.742 -2.86222 -3.18216 0
M  V30 353 C 28.068 -2.76061 -4.57924 0
M  V30 354 C 29.368 -4.27419 -3.00184 0
M  V30 355 H 31.062 -2.59932 -1.48579 0
M  V30 356 H 28.608 -1.25089 -0.713358 0
M  V30 357 H 30.561 -1.82731 -3.7972 0
M  V30 358 H 29.285 -0.749393 -3.17886 0
M  V30 359 H 27.944 -2.74575 -2.42908 0
M  V30 360 H 27.592 -1.77437 -4.70665 0
M  V30 361 H 27.292 -3.53037 -4.69722 0
M  V30 362 H 28.816 -2.89256 -5.37739 0
M  V30 363 H 30.23 -4.39855 -3.67697 0
M  V30 364 H 28.627 -5.05458 -3.2347 0
M  V30 365 H 29.697 -4.43293 -1.96518 0
M  V30 366 N 31.0401 0.771051 -1.3745 0
M  V30 367 C 32.3171 1.519 -1.23231 0
M  V30 368 C 32.6971 2.10383 0.173809 0
M  V30 369 O 32.0451 1.95583 1.18151 0
M  V30 370 C 32.2551 2.59933 -2.32886 0
M  V30 371 C 33.6031 3.27316 -2.70461 0
M  V30 372 O 34.6271 2.70228 -2.32068 0
M  V30 373 O 33.4861 4.30531 -3.36608 0
M  V30 374 H 30.5801 0.672803 -0.480901 0
M  V30 375 H 33.1261 0.807957 -1.49232 0
M  V30 376 H 31.8981 2.14842 -3.27045 0
M  V30 377 H 31.5211 3.38637 -2.08353 0
M  V30 378 N 32.5182 1.22032 0.997298 0
M  V30 379 C 33.4482 1.01065 2.10495 0
M  V30 380 C 34.4292 -0.0669542 1.69968 0
M  V30 381 O 35.6142 0.0943987 1.9397 0
M  V30 382 C 32.7442 0.582874 3.42374 0
M  V30 383 C 31.6982 1.60592 3.96729 0
M  V30 384 C 31.0242 1.03412 5.24605 0
M  V30 385 C 32.3242 2.99478 4.27914 0
M  V30 386 H 34.0182 1.93708 2.28292 0
M  V30 387 H 31.5642 0.932761 1.09707 0
M  V30 388 H 33.5172 0.423332 4.19268 0
M  V30 389 H 32.2412 -0.379213 3.24391 0
M  V30 390 H 30.9002 1.75316 3.21963 0
M  V30 391 H 30.5482 0.063518 5.0296 0
M  V30 392 H 30.2482 1.71754 5.61938 0
M  V30 393 H 31.7722 0.886066 6.04137 0
M  V30 394 H 33.1862 2.88153 4.95622 0
M  V30 395 H 31.5832 3.64903 4.76409 0
M  V30 396 H 32.6532 3.49742 3.3587 0
M  V30 397 N 33.9963 -1.19345 1.0293 0
M  V30 398 C 34.9263 -2.2481 0.631105 0
M  V30 399 C 35.9073 -1.66245 -0.360104 0
M  V30 400 O 37.0923 -1.92677 -0.242726 0
M  V30 401 C 34.2223 -3.47295 -0.0184607 0
M  V30 402 C 33.1763 -4.18536 0.895073 0
M  V30 403 C 32.5023 -5.34586 0.110592 0
M  V30 404 C 33.8023 -4.73287 2.209 0
M  V30 405 H 35.4963 -2.58372 1.51275 0
M  V30 406 H 33.0423 -1.24194 0.728818 0
M  V30 407 H 34.9953 -4.20268 -0.308675 0
M  V30 408 H 33.7193 -3.12933 -0.934907 0
M  V30 409 H 32.3783 -3.47446 1.16949 0
M  V30 410 H 32.0263 -4.96469 -0.807902 0
M  V30 411 H 31.7263 -5.83183 0.719087 0
M  V30 412 H 33.2503 -6.10355 -0.172871 0
M  V30 413 H 34.6643 -5.38013 1.98028 0
M  V30 414 H 33.0613 -5.32373 2.76946 0
M  V30 415 H 34.1313 -3.91331 2.86336 0
M  V30 416 N 35.4744 -0.807222 -1.35358 0
M  V30 417 C 36.7214 -0.387888 -1.9875 0
M  V30 418 C 37.0494 1.04509 -1.64037 0
M  V30 419 O 36.3044 1.73986 -0.895946 0
M  V30 420 C 36.6034 -0.519036 -3.53611 0
M  V30 421 C 36.2694 -1.91542 -4.08194 0
M  V30 422 C 34.9314 -2.29745 -4.22813 0
M  V30 423 C 37.2834 -2.82896 -4.37744 0
M  V30 424 C 34.6114 -3.58668 -4.643 0
M  V30 425 C 36.9634 -4.11265 -4.8067 0
M  V30 426 C 35.6274 -4.49466 -4.93494 0
M  V30 427 H 34.8974 -0.141938 -0.727279 0
M  V30 428 H 37.5444 -1.02814 -1.6156 0
M  V30 429 H 35.8494 0.204658 -3.91265 0
M  V30 430 H 37.5464 -0.175345 -4.00616 0
M  V30 431 H 34.1364 -1.60862 -3.97268 0
M  V30 432 H 38.3204 -2.54629 -4.26002 0
M  V30 433 H 33.5764 -3.88113 -4.72418 0
M  V30 434 H 37.7504 -4.82153 -5.02496 0
M  V30 435 H 35.3774 -5.49418 -5.25399 0
M  V30 436 N 36.9525 1.47285 -0.560781 0
M  V30 437 C 37.8625 2.33846 0.187954 0
M  V30 438 C 38.8785 1.48412 0.908293 0
M  V30 439 O 40.0545 1.81332 0.876388 0
M  V30 440 C 37.1195 3.25178 1.2025 0
M  V30 441 C 36.1805 4.26504 0.489208 0
M  V30 442 C 35.4135 5.13472 1.45542 0
M  V30 443 O 35.6365 5.02959 2.6905 0
M  V30 444 O 34.5705 5.93902 0.977963 0
M  V30 445 H 38.3965 2.99177 -0.522177 0
M  V30 446 H 35.9815 1.45903 -0.321364 0
M  V30 447 H 37.8635 3.81584 1.78805 0
M  V30 448 H 36.5385 2.6247 1.89449 0
M  V30 449 H 35.4455 3.73847 -0.137627 0
M  V30 450 H 36.7785 4.91935 -0.161399 0
M  V30 451 N 38.4306 0.297415 1.54768 0
M  V30 452 C 39.3936 -0.567375 2.22066 0
M  V30 453 C 40.3936 -1.06409 1.20556 0
M  V30 454 O 41.5836 -0.960691 1.45315 0
M  V30 455 C 38.7156 -1.78517 2.90421 0
M  V30 456 H 39.9086 0.0205534 2.99893 0
M  V30 457 H 37.4616 0.0482163 1.56226 0
M  V30 458 H 38.1966 -2.41303 2.16664 0
M  V30 459 H 37.9816 -1.43669 3.64831 0
M  V30 460 H 39.4716 -2.39964 3.41771 0
M  V30 461 N 39.9087 -1.5758 0.0250728 0
M  V30 462 C 40.8407 -2.06869 -0.986796 0
M  V30 463 C 41.8537 -0.991332 -1.29137 0
M  V30 464 O 43.0427 -1.26761 -1.25674 0
M  V30 465 C 40.1427 -2.47486 -2.31525 0
M  V30 466 C 39.3157 -3.78253 -2.19643 0
M  V30 467 C 38.3747 -4.05464 -3.35388 0
M  V30 468 O 37.4007 -4.75774 -3.12454 0
M  V30 469 N 38.6027 -3.55321 -4.59051 0
M  V30 470 H 41.3677 -2.94302 -0.566276 0
M  V30 471 H 38.9287 -1.6109 -0.161776 0
M  V30 472 H 40.9207 -2.62785 -3.07776 0
M  V30 473 H 39.4907 -1.65441 -2.65232 0
M  V30 474 H 38.7107 -3.7279 -1.28144 0
M  V30 475 H 39.9987 -4.63936 -2.08903 0
M  V30 476 H 39.3967 -2.98431 -4.80578 0
M  V30 477 H 37.9537 -3.75905 -5.32483 0
M  V30 478 N 41.3868 0.248026 -1.55636 0
M  V30 479 C 42.3188 1.32993 -1.8667 0
M  V30 480 C 43.3318 1.44345 -0.752877 0
M  V30 481 O 44.5208 1.45715 -1.03098 0
M  V30 482 C 41.6208 2.70863 -2.03682 0
M  V30 483 C 40.7938 2.81792 -3.34532 0
M  V30 484 C 39.8528 4.005 -3.41301 0
M  V30 485 O 38.8788 3.9008 -4.14519 0
M  V30 486 N 40.0808 5.13618 -2.70512 0
M  V30 487 H 42.8458 1.06707 -2.8006 0
M  V30 488 H 40.4068 0.438129 -1.55859 0
M  V30 489 H 42.3988 3.48612 -2.05553 0
M  V30 490 H 40.9688 2.89862 -1.17041 0
M  V30 491 H 40.1888 1.90729 -3.44987 0
M  V30 492 H 41.4768 2.86043 -4.20781 0
M  V30 493 H 40.8748 5.24975 -2.10755 0
M  V30 494 H 39.4318 5.89505 -2.78077 0
M  V30 495 N 42.8649 1.48995 0.513639 0
M  V30 496 C 44.1109 1.58076 1.27042 0
M  V30 497 C 44.4439 0.261026 1.92438 0
M  V30 498 O 43.7189 -0.734393 1.80103 0
M  V30 499 C 44.0019 2.73091 2.34719 0
M  V30 500 C 43.8549 4.14821 1.73907 0
M  V30 501 C 45.1739 2.83796 3.36375 0
M  V30 502 H 42.2929 0.575391 0.460536 0
M  V30 503 H 44.9349 1.81232 0.570516 0
M  V30 504 H 43.0849 2.53479 2.94416 0
M  V30 505 H 44.7569 4.45917 1.18135 0
M  V30 506 H 42.9999 4.21058 1.0437 0
M  V30 507 H 43.6709 4.91147 2.51949 0
M  V30 508 H 46.1469 3.01611 2.86653 0
M  V30 509 H 45.0229 3.65971 4.09093 0
M  V30 510 H 45.2839 1.92624 3.9793 0
M  V30 511 N 44.343 -0.763751 1.37857 0
M  V30 512 C 45.293 -1.86765 1.30777 0
M  V30 513 C 46.277 -1.59726 0.194015 0
M  V30 514 O 47.469 -1.7172 0.42911 0
M  V30 515 C 44.598 -3.24343 1.12502 0
M  V30 516 C 43.684 -3.57307 2.28456 0
M  V30 517 N 44.075 -3.61398 3.53871 0
M  V30 518 C 42.373 -3.87517 2.20786 0
M  V30 519 C 43.074 -3.91339 4.30382 0
M  V30 520 N 42.05 -4.07649 3.59615 0
M  V30 521 H 45.852 -1.88191 2.25746 0
M  V30 522 H 43.366 -0.9606 1.30944 0
M  V30 523 H 45.363 -4.03327 1.05514 0
M  V30 524 H 44.023 -3.24175 0.184574 0
M  V30 525 H 45.034 -3.43407 3.87675 0
M  V30 526 H 41.711 -3.95125 1.34844 0
M  V30 527 H 43.101 -4.01213 5.3896 0
M  V30 528 N 45.8211 -1.22559 -0.990812 0
M  V30 529 C 47.2371 -0.985996 -1.255 0
M  V30 530 C 47.4371 0.319173 -1.98956 0
M  V30 531 O 46.4931 1.04127 -2.3003 0
M  V30 532 C 47.8061 -2.18607 -2.06474 0
M  V30 533 C 49.3541 -2.22985 -2.19651 0
M  V30 534 C 49.8291 -3.4255 -3.04012 0
M  V30 535 N 51.3201 -3.42725 -3.11599 0
M  V30 536 C 52.0551 -4.31892 -3.7717 0
M  V30 537 N 51.5511 -5.31279 -4.44651 0
M  V30 538 N 53.3441 -4.19662 -3.73952 0
M  V30 539 H 45.4951 -2.06469 -0.49841 0
M  V30 540 H 47.7581 -0.904853 -0.282747 0
M  V30 541 H 47.4641 -3.13267 -1.59865 0
M  V30 542 H 47.3381 -2.18838 -3.07229 0
M  V30 543 H 49.7251 -1.28871 -2.65474 0
M  V30 544 H 49.8061 -2.26791 -1.18319 0
M  V30 545 H 49.4501 -4.36965 -2.58889 0
M  V30 546 H 49.3801 -3.35984 -4.0549 0
M  V30 547 H 51.8711 -2.70807 -2.63575 0
M  V30 548 H 52.1841 -5.95593 -4.92431 0
M  V30 549 H 50.5291 -5.3519 -4.43392 0
M  V30 550 H 53.7201 -3.41268 -3.20396 0
M  V30 551 H 53.8931 -4.89358 -4.24774 0
M  V30 552 N 47.2992 1.18797 -1.03562 0
M  V30 553 C 48.2312 2.21731 -0.580337 0
M  V30 554 C 49.2442 1.59051 0.347349 0
M  V30 555 O 50.4332 1.77929 0.142669 0
M  V30 556 C 47.5332 3.38459 0.172805 0
M  V30 557 C 46.7062 4.3072 -0.761496 0
M  V30 558 C 45.7652 5.26174 -0.0525547 0
M  V30 559 O 44.7912 5.65108 -0.681333 0
M  V30 560 N 45.9932 5.67624 1.21586 0
M  V30 561 H 48.7582 2.61417 -1.46565 0
M  V30 562 H 46.3192 1.33531 -0.915476 0
M  V30 563 H 48.3112 3.99335 0.656793 0
M  V30 564 H 46.8812 2.97507 0.959602 0
M  V30 565 H 46.1012 3.67525 -1.42544 0
M  V30 566 H 47.3892 4.89267 -1.39626 0
M  V30 567 H 46.7872 5.38038 1.74732 0
M  V30 568 H 45.3442 6.30721 1.64421 0
M  V30 569 N 48.7773 0.814389 1.34928 0
M  V30 570 C 49.7273 0.202752 2.27097 0
M  V30 571 C 50.7113 -0.62799 1.48139 0
M  V30 572 O 51.9033 -0.483969 1.70255 0
M  V30 573 C 49.0323 -0.64146 3.37254 0
M  V30 574 C 48.1183 0.19944 4.23631 0
M  V30 575 N 48.5093 1.26628 4.89693 0
M  V30 576 C 46.8073 -0.0176433 4.45997 0
M  V30 577 C 47.5083 1.78031 5.53787 0
M  V30 578 N 46.4843 1.08553 5.32651 0
M  V30 579 H 50.2863 1.01893 2.75672 0
M  V30 580 H 47.8003 0.656332 1.48546 0
M  V30 581 H 49.7973 -1.09575 4.02243 0
M  V30 582 H 48.4573 -1.4559 2.9023 0
M  V30 583 H 49.4683 1.64901 4.90946 0
M  V30 584 H 46.1453 -0.800601 4.09752 0
M  V30 585 H 47.5353 2.67236 6.16469 0
M  V30 586 N 50.2554 -1.46986 0.568584 0
M  V30 587 C 51.5024 -2.02441 0.0487986 0
M  V30 588 C 51.8304 -1.44169 -1.30559 0
M  V30 589 O 51.0854 -0.591213 -1.86556 0
M  V30 590 C 51.3844 -3.57306 -0.081836 0
M  V30 591 C 51.0504 -4.34552 1.20313 0
M  V30 592 C 49.7124 -4.55376 1.5552 0
M  V30 593 C 52.0644 -4.79016 2.05411 0
M  V30 594 C 49.3924 -5.17913 2.7565 0
M  V30 595 C 51.7444 -5.42879 3.24754 0
M  V30 596 C 50.4084 -5.61933 3.60261 0
M  V30 597 H 49.6784 -0.740785 0.0178567 0
M  V30 598 H 52.3254 -1.76525 0.742384 0
M  V30 599 H 50.6304 -3.8228 -0.858463 0
M  V30 600 H 52.3274 -3.97876 -0.499546 0
M  V30 601 H 48.9174 -4.18631 0.919014 0
M  V30 602 H 53.1014 -4.62696 1.79516 0
M  V30 603 H 48.3574 -5.30858 3.03315 0
M  V30 604 H 52.5314 -5.76293 3.90973 0
M  V30 605 H 50.1584 -6.10161 4.53439 0
M  V30 606 N 51.7335 -0.305618 -1.54608 0
M  V30 607 C 53.0105 0.355652 -1.92339 0
M  V30 608 C 53.3905 1.71324 -1.23335 0
M  V30 609 O 52.7385 2.25473 -0.370702 0
M  V30 610 C 52.9485 0.46572 -3.45879 0
M  V30 611 C 54.2965 0.734426 -4.182 0
M  V30 612 O 55.3205 0.54935 -3.51938 0
M  V30 613 O 54.1795 1.09024 -5.35515 0
M  V30 614 H 51.2735 0.199666 -0.802535 0
M  V30 615 H 53.8195 -0.354017 -1.65966 0
M  V30 616 H 52.5915 -0.488461 -3.88239 0
M  V30 617 H 52.2145 1.22367 -3.78301 0
M  V30 618 N 53.2116 1.57565 -0.0334293 0
M  V30 619 C 54.6226 1.79746 0.504798 0
M  V30 620 C 54.9736 0.944091 1.71992 0
M  V30 621 O 54.0986 0.155694 2.15839 0
M  V30 622 C 54.6936 3.25997 0.922567 0
M  V30 623 C 53.2526 3.49159 1.40588 0
M  V30 624 C 52.3996 2.74785 0.372633 0
M  V30 625 H 55.3506 1.56565 -0.259436 0
M  V30 626 H 55.3716 3.35945 1.78666 0
M  V30 627 H 54.8836 3.88081 0.0379825 0
M  V30 628 H 52.9846 2.92332 2.31025 0
M  V30 629 H 53.0976 4.57873 1.41028 0
M  V30 630 H 51.4616 2.40391 0.841672 0
M  V30 631 H 52.2446 3.39587 -0.503559 0
M  V30 632 N 54.6897 -0.239769 1.55765 0
M  V30 633 C 56.1057 -0.588624 1.48349 0
M  V30 634 C 56.3057 -1.88005 0.72502 0
M  V30 635 O 55.3617 -2.51186 0.257269 0
M  V30 636 C 56.6747 -0.68474 2.928 0
M  V30 637 C 58.2227 -0.77659 3.03213 0
M  V30 638 C 58.6977 -0.904207 4.48986 0
M  V30 639 N 60.1887 -0.968896 4.52953 0
M  V30 640 C 60.9237 -1.08703 5.63002 0
M  V30 641 N 60.4197 -1.17026 6.82845 0
M  V30 642 N 62.2127 -1.12074 5.50814 0
M  V30 643 H 54.3637 0.607911 2.03515 0
M  V30 644 H 56.6267 0.21083 0.924259 0
M  V30 645 H 56.3327 0.194284 3.51163 0
M  V30 646 H 56.2067 -1.55435 3.43686 0
M  V30 647 H 58.5937 -1.64606 2.44926 0
M  V30 648 H 58.6747 0.118315 2.55526 0
M  V30 649 H 58.3187 -0.0392633 5.07885 0
M  V30 650 H 58.2487 -1.81426 4.9436 0
M  V30 651 H 60.7397 -0.915633 3.6664 0
M  V30 652 H 61.0527 -1.25966 7.62465 0
M  V30 653 H 59.3977 -1.13971 6.85591 0
M  V30 654 H 62.5887 -1.05226 4.5612 0
M  V30 655 H 62.7617 -1.20936 6.36615 0
M  V30 656 N 56.1678 -1.49265 -0.50573 0
M  V30 657 C 57.0998 -1.617 -1.62437 0
M  V30 658 C 58.1128 -0.499924 -1.54934 0
M  V30 659 O 59.3018 -0.771785 -1.60953 0
M  V30 660 C 56.4018 -1.5533 -3.01207 0
M  V30 661 C 55.5748 -2.8249 -3.33943 0
M  V30 662 C 54.6338 -2.69238 -4.52103 0
M  V30 663 O 53.6598 -3.43167 -4.5412 0
M  V30 664 N 54.8618 -1.80468 -5.51735 0
M  V30 665 H 57.6268 -2.58177 -1.52199 0
M  V30 666 H 55.1878 -1.46294 -0.693511 0
M  V30 667 H 57.1798 -1.44125 -3.78167 0
M  V30 668 H 55.7498 -0.667297 -3.05395 0
M  V30 669 H 54.9698 -3.08081 -2.45926 0
M  V30 670 H 56.2578 -3.66802 -3.5261 0
M  V30 671 H 55.6558 -1.19653 -5.52901 0
M  V30 672 H 54.2128 -1.75188 -6.27816 0
M  V30 673 N 57.6459 0.756429 -1.3826 0
M  V30 674 C 58.8919 1.51772 -1.34511 0
M  V30 675 C 59.2249 1.94089 0.0656691 0
M  V30 676 O 58.4999 1.65221 1.02626 0
M  V30 677 C 58.7829 2.77226 -2.29821 0
M  V30 678 C 58.6359 2.41065 -3.79747 0
M  V30 679 C 59.9549 3.79236 -2.23312 0
M  V30 680 H 57.0739 0.550578 -0.489931 0
M  V30 681 H 59.7159 0.866607 -1.69086 0
M  V30 682 H 57.8659 3.32784 -2.00467 0
M  V30 683 H 59.5379 1.91303 -4.19763 0
M  V30 684 H 57.7809 1.7356 -3.97567 0
M  V30 685 H 58.4519 3.3081 -4.41892 0
M  V30 686 H 60.9279 3.3321 -2.49219 0
M  V30 687 H 59.8039 4.64714 -2.92116 0
M  V30 688 H 60.0649 4.24615 -1.23102 0
M  V30 689 N 59.124 1.23083 0.984299 0
M  V30 690 C 60.056 0.96636 2.07832 0
M  V30 691 C 61.069 -0.0582135 1.62696 0
M  V30 692 O 62.258 0.176843 1.77622 0
M  V30 693 C 59.358 0.433397 3.36117 0
M  V30 694 C 58.531 1.51722 4.10243 0
M  V30 695 C 57.59 0.989821 5.16807 0
M  V30 696 O 56.616 1.67794 5.43906 0
M  V30 697 N 57.818 -0.184367 5.80207 0
M  V30 698 H 60.583 1.90824 2.31098 0
M  V30 699 H 58.144 1.13888 1.1507 0
M  V30 700 H 60.136 0.065699 4.04647 0
M  V30 701 H 58.706 -0.413806 3.09849 0
M  V30 702 H 57.926 2.05786 3.36223 0
M  V30 703 H 59.214 2.24619 4.56534 0
M  V30 704 H 58.612 -0.760062 5.60571 0
M  V30 705 H 57.169 -0.493366 6.4993 0
M  V30 706 N 60.6021 -1.18246 1.0419 0
M  V30 707 C 61.8481 -1.88536 0.747122 0
M  V30 708 C 62.1811 -1.80223 -0.723409 0
M  V30 709 O 61.4561 -1.20337 -1.52804 0
M  V30 710 C 61.7391 -3.38968 1.21544 0
M  V30 711 C 61.5921 -3.56084 2.74816 0
M  V30 712 C 62.9111 -4.32648 0.806482 0
M  V30 713 H 60.0301 -0.684619 0.272883 0
M  V30 714 H 62.6721 -1.39113 1.29413 0
M  V30 715 H 60.8221 -3.8119 0.750081 0
M  V30 716 H 62.4941 -3.22946 3.29399 0
M  V30 717 H 60.7371 -2.98699 3.14582 0
M  V30 718 H 61.4081 -4.61639 3.02644 0
M  V30 719 H 63.8841 -3.98211 1.20695 0
M  V30 720 H 62.7601 -5.36462 1.1619 0
M  V30 721 H 63.0211 -4.41146 -0.29029 0
M  V30 722 N 62.0802 -0.821533 -1.34494 0
M  V30 723 C 63.3052 -0.420873 -2.03085 0
M  V30 724 C 63.7302 0.964915 -1.61465 0
M  V30 725 O 63.0882 1.62763 -0.798607 0
M  V30 726 C 63.1362 -0.529414 -3.56693 0
M  V30 727 O 62.2402 0.451302 -4.09923 0
M  V30 728 H 61.5812 -0.173489 -0.640935 0
M  V30 729 H 64.1112 -1.11157 -1.71771 0
M  V30 730 H 64.1212 -0.404671 -4.05988 0
M  V30 731 H 62.7962 -1.54014 -3.86332 0
M  V30 732 H 61.3732 0.285558 -3.71805 0
M  V30 733 N 63.5583 1.46682 -0.576371 0
M  V30 734 C 64.7863 2.06798 -0.0649635 0
M  V30 735 C 65.2013 1.42612 1.23723 0
M  V30 736 O 64.5583 0.529203 1.74659 0
M  V30 737 C 64.6093 3.6132 0.114202 0
M  V30 738 O 64.3303 4.23104 -1.13644 0
M  V30 739 C 65.8313 4.38349 0.66069 0
M  V30 740 H 63.0513 0.668778 -0.0545616 0
M  V30 741 H 65.5953 1.88404 -0.795237 0
M  V30 742 H 63.7503 3.79162 0.794673 0
M  V30 743 H 64.1643 5.15894 -0.946253 0
M  V30 744 H 65.6383 5.47081 0.73526 0
M  V30 745 H 66.1153 4.05953 1.67627 0
M  V30 746 H 66.7213 4.25297 0.0152951 0
M  V30 747 N 65.0364 0.313813 1.54444 0
M  V30 748 C 65.9664 -0.549454 2.26943 0
M  V30 749 C 66.9474 -1.12741 1.27372 0
M  V30 750 O 68.1324 -1.15436 1.56167 0
M  V30 751 C 65.2624 -1.71523 3.01989 0
M  V30 752 C 64.2164 -1.26703 4.08816 0
M  V30 753 C 63.5424 -2.51898 4.71647 0
M  V30 754 C 64.8424 -0.388962 5.2085 0
M  V30 755 H 66.5364 0.0552661 2.99349 0
M  V30 756 H 64.0824 0.0280207 1.43973 0
M  V30 757 H 66.0354 -2.32535 3.51433 0
M  V30 758 H 64.7594 -2.34639 2.27183 0
M  V30 759 H 63.4184 -0.679896 3.6024 0
M  V30 760 H 63.0664 -3.13356 3.93468 0
M  V30 761 H 62.7664 -2.22605 5.43802 0
M  V30 762 H 64.2904 -3.1369 5.23861 0
M  V30 763 H 65.7044 -0.905107 5.6611 0
M  V30 764 H 64.1014 -0.18924 5.99802 0
M  V30 765 H 65.1714 0.582699 4.81386 0
M  V30 766 N 66.5145 -1.57545 0.0417849 0
M  V30 767 C 67.4445 -2.14009 -0.933929 0
M  V30 768 C 68.4255 -1.05938 -1.33083 0
M  V30 769 O 69.6105 -1.33833 -1.40721 0
M  V30 770 C 66.7405 -2.67747 -2.21199 0
M  V30 771 C 65.6945 -3.80718 -1.95544 0
M  V30 772 C 65.0205 -4.20935 -3.29724 0
M  V30 773 C 66.3205 -5.06258 -1.28452 0
M  V30 774 H 68.0145 -2.95788 -0.463645 0
M  V30 775 H 65.5605 -1.42285 -0.221573 0
M  V30 776 H 67.5135 -3.05886 -2.89848 0
M  V30 777 H 66.2375 -1.83147 -2.70416 0
M  V30 778 H 64.8965 -3.43037 -1.2931 0
M  V30 779 H 64.5445 -3.33298 -3.76724 0
M  V30 780 H 64.2445 -4.9707 -3.13361 0
M  V30 781 H 65.7685 -4.61666 -3.9962 0
M  V30 782 H 67.1825 -5.41903 -1.8712 0
M  V30 783 H 65.5795 -5.87475 -1.22445 0
M  V30 784 H 66.6495 -4.84207 -0.259219 0
M  V30 785 N 67.9926 0.231505 -1.5589 0
M  V30 786 C 69.2176 0.978689 -1.82856 0
M  V30 787 C 69.6426 1.77559 -0.620846 0
M  V30 788 O 69.0006 1.76119 0.430305 0
M  V30 789 C 69.0486 1.87997 -3.07716 0
M  V30 790 O 68.1526 2.97393 -2.85712 0
M  V30 791 H 67.4936 0.277663 -0.603158 0
M  V30 792 H 70.0236 0.24783 -2.03093 0
M  V30 793 H 70.0336 2.2917 -3.37558 0
M  V30 794 H 68.7086 1.29417 -3.95252 0
M  V30 795 H 67.2856 2.60238 -2.67078 0
M  V30 796 N 69.4707 1.49531 0.497807 0
M  V30 797 C 70.7197 1.58426 1.24837 0
M  V30 798 C 71.0327 0.277643 1.93619 0
M  V30 799 O 72.2387 0.24517 2.70391 0
M  V30 800 C 70.6947 2.79538 2.26686 0
M  V30 801 C 70.3027 4.16971 1.63828 0
M  V30 802 C 72.0467 2.97764 3.0255 0
M  V30 803 C 69.9537 5.29301 2.63807 0
M  V30 804 H 68.8837 0.58989 0.469623 0
M  V30 805 H 71.5347 1.75923 0.521857 0
M  V30 806 H 69.9167 2.55542 3.02514 0
M  V30 807 H 71.0907 4.51116 0.939711 0
M  V30 808 H 69.4057 4.04129 1.00342 0
M  V30 809 H 72.0027 3.78856 3.77323 0
M  V30 810 H 72.3457 2.08448 3.60354 0
M  V30 811 H 72.8787 3.21815 2.33838 0
M  V30 812 H 69.6177 6.20687 2.10779 0
M  V30 813 H 69.1377 4.99606 3.31894 0
M  V30 814 H 70.8167 5.58768 3.2617 0
M  V30 815 N 70.9488 -0.749086 1.3866 0
M  V30 816 C 71.8958 -1.86291 1.36251 0
M  V30 817 C 72.8658 -1.64578 0.224347 0
M  V30 818 O 74.0508 -1.86181 0.417279 0
M  V30 819 C 71.1908 -3.23644 1.19786 0
M  V30 820 C 70.3038 -3.57158 2.43027 0
M  V30 821 C 69.4388 -4.83838 2.19258 0
M  V30 822 C 68.4778 -5.10152 3.38247 0
M  V30 823 N 67.6148 -6.28029 3.13884 0
M  V30 824 H 72.4548 -1.87685 2.3147 0
M  V30 825 H 69.9918 -0.917287 1.14997 0
M  V30 826 H 71.9498 -4.0291 1.08254 0
M  V30 827 H 70.5798 -3.21566 0.282031 0
M  V30 828 H 69.6318 -2.72701 2.65214 0
M  V30 829 H 70.9438 -3.7253 3.31697 0
M  V30 830 H 70.0978 -5.71057 2.04888 0
M  V30 831 H 68.8368 -4.70614 1.2796 0
M  V30 832 H 67.8418 -4.21401 3.53131 0
M  V30 833 H 69.0668 -5.25271 4.30427 0
M  V30 834 H 67.0128 -6.1612 2.25238 0
M  V30 835 H 66.9298 -6.43922 3.96106 0
M  V30 836 H 68.1978 -7.18124 3.03179 0
M  V30 837 N 72.4269 -1.23603 -0.977757 0
M  V30 838 C 73.6549 -1.09646 -1.75458 0
M  V30 839 C 74.0699 0.351859 -1.85492 0
M  V30 840 O 73.4269 1.24327 -1.336 0
M  V30 841 C 73.4779 -1.71895 -3.18016 0
M  V30 842 O 73.1989 -3.11063 -3.08498 0
M  V30 843 C 74.6999 -1.63415 -4.12081 0
M  V30 844 H 71.9199 -0.38359 -0.550545 0
M  V30 845 H 74.4639 -1.63507 -1.22824 0
M  V30 846 H 72.6189 -1.22061 -3.67668 0
M  V30 847 H 73.0329 -3.41305 -3.9826 0
M  V30 848 H 74.5069 -2.11669 -5.09804 0
M  V30 849 H 74.9839 -0.593462 -4.35172 0
M  V30 850 H 75.5899 -2.12628 -3.68334 0
M  V30 851 N 73.905 1.17692 -1.04816 0
M  V30 852 C 75.153 1.87488 -0.754497 0
M  V30 853 C 75.474 1.81205 0.720407 0
M  V30 854 O 74.744 1.23544 1.52032 0
M  V30 855 H 73.324 0.694101 -0.276102 0
M  V30 856 H 75.986 1.42793 -1.32651 0
M  V30 857 H 75.082 2.93328 -1.06606 0
M  V30 858 N 75.3831 0.828654 1.34056 0
M  V30 859 C 76.3461 0.259927 2.27721 0
M  V30 860 C 77.3461 -0.565478 1.50529 0
M  V30 861 O 78.5361 -0.38075 1.69988 0
M  V30 862 C 75.6681 -0.634944 3.34935 0
M  V30 863 H 76.8611 1.0863 2.79534 0
M  V30 864 H 74.4141 0.600951 1.44285 0
M  V30 865 H 75.1491 -1.48416 2.88346 0
M  V30 866 H 74.9341 -0.0444999 3.92075 0
M  V30 867 H 76.4241 -1.02648 4.04788 0
M  V30 868 N 76.8612 -1.46375 0.584142 0
M  V30 869 C 78.1012 -2.0427 0.0729695 0
M  V30 870 C 78.4652 -1.44563 -1.26355 0
M  V30 871 O 79.6662 -1.93667 -1.86405 0
M  V30 872 C 77.9372 -3.57399 0.00967464 0
M  V30 873 S 79.4962 -4.36551 -0.443714 0
M  V30 874 H 76.3142 -0.709975 0.0381673 0
M  V30 875 H 78.9162 -1.79398 0.776962 0
M  V30 876 H 77.6202 -3.98372 0.986319 0
M  V30 877 H 77.1512 -3.8681 -0.717044 0
M  V30 878 H 79.1662 -4.66237 -1.69816 0
M  V30 879 N 78.3393 -0.321999 -1.54275 0
M  V30 880 C 79.7503 0.166384 -1.85957 0
M  V30 881 C 80.1013 1.51747 -1.24367 0
M  V30 882 O 79.2263 2.09317 -0.549124 0
M  V30 883 C 79.8213 0.308681 -3.37391 0
M  V30 884 C 78.3803 0.741286 -3.69028 0
M  V30 885 C 77.5273 -0.137937 -2.76957 0
M  V30 886 H 80.4783 -0.542335 -1.49146 0
M  V30 887 H 80.4993 1.13984 -3.63026 0
M  V30 888 H 80.0113 -0.674809 -3.82188 0
M  V30 889 H 78.1123 1.73458 -3.29762 0
M  V30 890 H 78.2253 0.546118 -4.75977 0
M  V30 891 H 76.5893 0.386251 -2.51754 0
M  V30 892 H 77.3723 -1.11816 -3.2458 0
M  V30 893 N 79.8174 1.5752 -0.0501392 0
M  V30 894 C 80.7274 2.14952 0.939827 0
M  V30 895 C 81.7434 1.10706 1.34239 0
M  V30 896 O 82.9194 1.42869 1.41952 0
M  V30 897 C 79.9844 2.68232 2.19665 0
M  V30 898 C 79.0454 3.87272 1.85253 0
M  V30 899 C 78.2784 4.38002 3.04943 0
M  V30 900 O 78.5014 3.87811 4.18281 0
M  V30 901 O 77.4354 5.29602 2.86017 0
M  V30 902 H 81.2614 2.9986 0.481392 0
M  V30 903 H 78.8464 1.4841 0.171699 0
M  V30 904 H 80.7284 3.02475 2.93406 0
M  V30 905 H 79.4034 1.86395 2.64648 0
M  V30 906 H 78.3104 3.5792 1.0883 0
M  V30 907 H 79.6434 4.70336 1.4507 0
M  V30 908 N 81.2955 -0.223234 1.56011 0
M  V30 909 C 82.5725 -0.972108 1.69733 0
M  V30 910 C 82.9525 -2.02485 0.59691 0
M  V30 911 O 82.3005 -2.25037 -0.396324 0
M  V30 912 C 82.5105 -1.58407 3.10979 0
M  V30 913 C 83.8585 -2.07696 3.70334 0
M  V30 914 O 84.8825 -1.68304 3.1393 0
M  V30 915 O 83.7415 -2.80096 4.69264 0
M  V30 916 H 80.8355 -0.453993 0.691245 0
M  V30 917 H 83.3815 -0.215149 1.68331 0
M  V30 918 H 82.1535 -0.823831 3.82529 0
M  V30 919 H 81.7765 -2.40661 3.16493 0
M  V30 920 N 82.7736 -1.49793 -0.48987 0
M  V30 921 C 84.0136 -1.61466 -1.25332 0
M  V30 922 C 84.3776 -0.299688 -1.89647 0
M  V30 923 O 85.5786 -0.291687 -2.67213 0
M  V30 924 C 83.8496 -2.74944 -2.28343 0
M  V30 925 S 85.4086 -3.06637 -3.13878 0
M  V30 926 H 82.2266 -0.569411 -0.425784 0
M  V30 927 H 84.8286 -1.875 -0.553541 0
M  V30 928 H 83.5326 -3.68994 -1.79643 0
M  V30 929 H 83.0636 -2.50938 -3.02975 0
M  V30 930 H 85.0786 -2.49015 -4.29192 0
M  V30 931 N 84.2517 0.741722 -1.39055 0
M  V30 932 C 85.1987 1.85566 -1.37237 0
M  V30 933 C 86.1687 1.64457 -0.233072 0
M  V30 934 O 87.3537 1.85957 -0.427147 0
M  V30 935 C 84.4937 3.23004 -1.215 0
M  V30 936 C 83.6067 3.55864 -2.44918 0
M  V30 937 C 82.7417 4.82669 -2.21821 0
M  V30 938 C 81.7807 5.08351 -3.40948 0
M  V30 939 N 80.9177 6.26356 -3.17211 0
M  V30 940 H 85.7577 1.86455 -2.32462 0
M  V30 941 H 83.2947 0.911176 -1.15482 0
M  V30 942 H 85.2527 4.02331 -1.10389 0
M  V30 943 H 83.8827 3.21411 -0.29908 0
M  V30 944 H 82.9347 2.7129 -2.66657 0
M  V30 945 H 84.2467 3.70765 -3.33668 0
M  V30 946 H 83.4007 5.69962 -2.07914 0
M  V30 947 H 82.1397 4.69929 -1.30454 0
M  V30 948 H 81.1447 4.19522 -3.55361 0
M  V30 949 H 82.3697 5.22981 -4.33207 0
M  V30 950 H 80.3157 6.14917 -2.28502 0
M  V30 951 H 80.2327 6.41813 -3.99515 0
M  V30 952 H 81.5007 7.16506 -3.06984 0
M  V30 953 N 85.7298 1.2412 0.971189 0
M  V30 954 C 86.9598 1.10415 1.7462 0
M  V30 955 C 87.3678 -0.346462 1.86001 0
M  V30 956 O 86.7108 -1.25104 1.34517 0
M  V30 957 C 86.7728 1.66596 3.18568 0
M  V30 958 C 86.4368 3.15446 3.3067 0
M  V30 959 C 87.4338 4.12636 3.16271 0
M  V30 960 C 85.1188 3.55337 3.55022 0
M  V30 961 C 87.1128 5.47699 3.26044 0
M  V30 962 C 84.7998 4.90542 3.64434 0
M  V30 963 C 85.7978 5.86532 3.49956 0
M  V30 964 O 85.4858 7.19279 3.59017 0
M  V30 965 H 85.2178 0.386616 0.55453 0
M  V30 966 H 87.7718 1.64633 1.22821 0
M  V30 967 H 86.0018 1.06808 3.71657 0
M  V30 968 H 87.6908 1.48232 3.77865 0
M  V30 969 H 88.4568 3.8316 2.97344 0
M  V30 970 H 84.3358 2.8113 3.65359 0
M  V30 971 H 87.8798 6.22603 3.14661 0
M  V30 972 H 83.7768 5.19691 3.82873 0
M  V30 973 H 84.5448 7.27153 3.75754 0
M  V30 974 N 87.2079 -1.17134 1.05439 0
M  V30 975 C 88.4479 -1.89137 0.77502 0
M  V30 976 C 88.8119 -1.79345 -0.685526 0
M  V30 977 O 90.0129 -2.46188 -1.0791 0
M  V30 978 C 88.2839 -3.35003 1.2453 0
M  V30 979 S 89.8429 -4.24952 1.09367 0
M  V30 980 H 86.6609 -0.652949 0.281387 0
M  V30 981 H 89.2629 -1.4145 1.34953 0
M  V30 982 H 87.9669 -3.39666 2.30338 0
M  V30 983 H 87.4979 -3.87736 0.665166 0
M  V30 984 H 89.5129 -4.96196 0.0193397 0
M  V30 985 N 88.686 -0.835752 -1.33615 0
M  V30 986 C 90.097 -0.487099 -1.80234 0
M  V30 987 C 90.448 0.993627 -1.69179 0
M  V30 988 O 89.573 1.77403 -1.23924 0
M  V30 989 C 90.168 -0.877385 -3.27242 0
M  V30 990 C 88.727 -0.580915 -3.7189 0
M  V30 991 C 87.874 -1.0874 -2.5509 0
M  V30 992 H 90.825 -1.02474 -1.2118 0
M  V30 993 H 90.846 -0.186195 -3.80044 0
M  V30 994 H 90.358 -1.95512 -3.35256 0
M  V30 995 H 88.459 0.486881 -3.69405 0
M  V30 996 H 88.572 -1.13396 -4.65487 0
M  V30 997 H 86.936 -0.508392 -2.49575 0
M  V30 998 H 87.719 -2.17184 -2.65868 0
M  V30 999 N 90.1641 1.46063 -0.591896 0
M  V30 1000 C 91.0961 2.28539 0.174001 0
M  V30 1001 C 92.1091 1.39047 0.846753 0
M  V30 1002 O 93.2981 1.63564 0.714774 0
M  V30 1003 C 90.3981 3.14347 1.26645 0
M  V30 1004 C 89.5711 4.32021 0.683856 0
M  V30 1005 C 88.6301 4.99157 1.66518 0
M  V30 1006 O 87.6561 5.56458 1.19763 0
M  V30 1007 N 88.8581 4.97005 2.99943 0
M  V30 1008 H 91.6231 2.94911 -0.533633 0
M  V30 1009 H 89.1841 1.56077 -0.430294 0
M  V30 1010 H 91.1761 3.56125 1.92242 0
M  V30 1011 H 89.7461 2.49988 1.87682 0
M  V30 1012 H 88.9661 3.93915 -0.1498 0
M  V30 1013 H 90.2541 5.08059 0.274567 0
M  V30 1014 H 89.6521 4.51714 3.40545 0
M  V30 1015 H 88.2091 5.42696 3.61004 0
M  V30 1016 N 91.6422 0.330177 1.54103 0
M  V30 1017 C 92.8672 -0.274893 2.0557 0
M  V30 1018 C 93.2922 -1.44487 1.20437 0
M  V30 1019 O 92.6502 -1.80021 0.214991 0
M  V30 1020 C 92.6982 -0.68079 3.54115 0
M  V30 1021 O 91.8022 -1.7824 3.71893 0
M  V30 1022 H 91.1432 -0.0483849 0.662235 0
M  V30 1023 H 93.6732 0.480508 1.98878 0
M  V30 1024 H 93.6832 -0.961635 3.96505 0
M  V30 1025 H 92.3582 0.174903 4.15532 0
M  V30 1026 H 90.9352 -1.49985 3.41407 0
M  V30 1027 N 93.1203 -1.57491 0.0584922 0
M  V30 1028 C 94.3453 -1.97711 -0.62652 0
M  V30 1029 C 94.7703 -0.936132 -1.63151 0
M  V30 1030 O 94.1283 0.099811 -1.81025 0
M  V30 1031 C 94.1763 -3.36989 -1.28338 0
M  V30 1032 O 93.2803 -3.35433 -2.39913 0
M  V30 1033 H 92.6213 -0.643868 -0.162266 0
M  V30 1034 H 95.1513 -2.04193 0.129064 0
M  V30 1035 H 95.1613 -3.73879 -1.63335 0
M  V30 1036 H 93.8363 -4.12289 -0.546889 0
M  V30 1037 H 92.4133 -3.10298 -2.06809 0
M  V30 1038 N 94.5984 0.214957 -1.56127 0
M  V30 1039 C 96.0144 0.564948 -1.49267 0
M  V30 1040 C 96.2144 1.86827 -0.754838 0
M  V30 1041 O 95.2704 2.50745 -0.297198 0
M  V30 1042 C 96.5834 0.638071 -2.93852 0
M  V30 1043 C 98.1314 0.728253 -3.0441 0
M  V30 1044 C 98.6064 0.832663 -4.50367 0
M  V30 1045 N 100.097 0.896712 -4.54437 0
M  V30 1046 C 100.832 0.997324 -5.6466 0
M  V30 1047 N 100.328 1.06147 -6.8462 0
M  V30 1048 N 102.121 1.03297 -5.52527 0
M  V30 1049 H 94.2724 -0.640211 -2.02522 0
M  V30 1050 H 96.5354 -0.225507 -0.920788 0
M  V30 1051 H 96.2414 -0.250126 -3.50809 0
M  V30 1052 H 96.1154 1.49947 -3.46115 0
M  V30 1053 H 98.5024 1.60689 -2.47514 0
M  V30 1054 H 98.5834 -0.158952 -2.55306 0
M  V30 1055 H 98.2274 -0.0415417 -5.07883 0
M  V30 1056 H 98.1574 1.73538 -4.97184 0
M  V30 1057 H 100.648 0.857188 -3.6805 0
M  V30 1058 H 100.961 1.1382 -7.64372 0
M  V30 1059 H 99.3064 1.03049 -6.87318 0
M  V30 1060 H 102.497 0.979558 -4.57736 0
M  V30 1061 H 102.67 1.10793 -6.38458 0
M  V30 1062 N 96.0765 1.50051 0.48192 0
M  V30 1063 C 97.3065 1.63999 1.2565 0
M  V30 1064 C 97.7145 0.318288 1.86504 0
M  V30 1065 O 97.0575 -0.708534 1.69486 0
M  V30 1066 C 97.1195 2.66504 2.4128 0
M  V30 1067 C 96.7835 4.10352 2.01148 0
M  V30 1068 C 97.7805 4.96562 1.54021 0
M  V30 1069 C 95.4655 4.56203 2.10199 0
M  V30 1070 C 97.4595 6.26668 1.16473 0
M  V30 1071 C 95.1465 5.86318 1.72264 0
M  V30 1072 C 96.1445 6.71375 1.25477 0
M  V30 1073 O 95.8325 7.99062 0.880626 0
M  V30 1074 H 95.5645 0.55456 0.386574 0
M  V30 1075 H 98.1185 1.96954 0.582944 0
M  V30 1076 H 96.3485 2.28769 3.11772 0
M  V30 1077 H 98.0375 2.69783 3.03268 0
M  V30 1078 H 98.8035 4.62358 1.46458 0
M  V30 1079 H 94.6825 3.90152 2.45566 0
M  V30 1080 H 98.2265 6.93011 0.798841 0
M  V30 1081 H 94.1235 6.20046 1.79482 0
M  V30 1082 H 94.8915 8.12239 1.01043 0
M  V30 1083 N 97.5546 -0.734337 1.39446 0
M  V30 1084 C 98.5016 -1.84835 1.38219 0
M  V30 1085 C 99.4716 -1.64331 0.24179 0
M  V30 1086 O 100.657 -1.85728 0.437002 0
M  V30 1087 C 97.7966 -3.22355 1.23212 0
M  V30 1088 C 96.9096 -3.5456 2.46801 0
M  V30 1089 C 96.0446 -4.81485 2.24377 0
M  V30 1090 C 95.0836 -5.06536 3.43639 0
M  V30 1091 N 94.2206 -6.24665 3.20528 0
M  V30 1092 H 99.0606 -1.85219 2.33448 0
M  V30 1093 H 96.5976 -0.905039 1.15963 0
M  V30 1094 H 98.5556 -4.0174 1.12522 0
M  V30 1095 H 97.1856 -3.21248 0.316121 0
M  V30 1096 H 96.2376 -2.69872 2.68092 0
M  V30 1097 H 97.5496 -3.6899 3.3563 0
M  V30 1098 H 96.7036 -5.68852 2.10933 0
M  V30 1099 H 95.4426 -4.6923 1.32944 0
M  V30 1100 H 94.4476 -4.17632 3.5758 0
M  V30 1101 H 95.6726 -5.20676 4.35974 0
M  V30 1102 H 93.6186 -6.13696 2.3176 0
M  V30 1103 H 93.5356 -6.39685 4.02913 0
M  V30 1104 H 94.8036 -7.14868 3.10779 0
M  V30 1105 N 99.0327 -1.24633 -0.964593 0
M  V30 1106 C 100.261 -1.11501 -1.74285 0
M  V30 1107 C 100.676 0.332165 -1.85855 0
M  V30 1108 O 100.033 1.22903 -1.34911 0
M  V30 1109 C 100.084 -1.75258 -3.16175 0
M  V30 1110 O 99.8047 -3.14318 -3.05182 0
M  V30 1111 C 101.306 -1.67776 -4.10324 0
M  V30 1112 H 98.5257 -0.389407 -0.546446 0
M  V30 1113 H 101.07 -1.64801 -1.21083 0
M  V30 1114 H 99.2247 -1.25954 -3.66353 0
M  V30 1115 H 99.6387 -3.4551 -3.94618 0
M  V30 1116 H 101.113 -2.17064 -5.0753 0
M  V30 1117 H 101.59 -0.639584 -4.34518 0
M  V30 1118 H 102.196 -2.16522 -3.66058 0
M  V30 1119 N 100.511 1.16574 -1.06058 0
M  V30 1120 C 101.759 1.86677 -0.77434 0
M  V30 1121 C 102.08 1.81959 0.701147 0
M  V30 1122 O 101.35 1.2515 1.50713 0
M  V30 1123 H 99.9298 0.691134 -0.283449 0
M  V30 1124 H 102.592 1.41378 -1.34158 0
M  V30 1125 H 101.688 2.92181 -1.09711 0
M  V30 1126 N 101.989 0.842826 1.3317 0
M  V30 1127 C 102.919 0.294028 2.31641 0
M  V30 1128 C 103.9 -0.600401 1.59151 0
M  V30 1129 O 105.085 -0.523124 1.87022 0
M  V30 1130 C 102.215 -0.528416 3.43257 0
M  V30 1131 C 101.169 0.27056 4.27144 0
M  V30 1132 C 100.495 -0.675881 5.30411 0
M  V30 1133 C 101.795 1.48981 5.00602 0
M  V30 1134 H 103.489 1.11681 2.77791 0
M  V30 1135 H 101.035 0.538478 1.33553 0
M  V30 1136 H 102.988 -0.922674 4.11175 0
M  V30 1137 H 101.712 -1.38445 2.95805 0
M  V30 1138 H 100.371 0.646427 3.60856 0
M  V30 1139 H 100.019 -1.52842 4.79216 0
M  V30 1140 H 99.7189 -0.145374 5.8742 0
M  V30 1141 H 101.243 -1.06757 6.01195 0
M  V30 1142 H 102.657 1.16849 5.61266 0
M  V30 1143 H 101.054 1.95739 5.6728 0
M  V30 1144 H 102.124 2.25746 4.29147 0
M  V30 1145 N 103.467 -1.45747 0.599634 0
M  V30 1146 C 104.377 -2.34262 -0.125888 0
M  V30 1147 C 105.393 -1.50768 -0.868625 0
M  V30 1148 O 106.569 -1.83592 -0.828003 0
M  V30 1149 C 103.634 -3.28252 -1.11587 0
M  V30 1150 C 102.695 -4.27651 -0.375956 0
M  V30 1151 C 101.928 -5.1715 -1.31877 0
M  V30 1152 O 102.151 -5.09916 -2.55621 0
M  V30 1153 O 101.085 -5.96286 -0.820157 0
M  V30 1154 H 104.911 -2.97688 0.601315 0
M  V30 1155 H 102.496 -1.44999 0.359934 0
M  V30 1156 H 104.378 -3.86191 -1.68626 0
M  V30 1157 H 103.053 -2.67401 -1.82424 0
M  V30 1158 H 101.96 -3.7335 0.236698 0
M  V30 1159 H 103.293 -4.91334 0.29177 0
M  V30 1160 N 104.945 -0.338344 -1.53925 0
M  V30 1161 C 105.908 0.508299 -2.23493 0
M  V30 1162 C 106.908 1.03175 -1.23335 0
M  V30 1163 O 108.098 0.921826 -1.47811 0
M  V30 1164 C 105.23 1.70754 -2.95052 0
M  V30 1165 H 106.423 -0.100058 -2.99733 0
M  V30 1166 H 103.976 -0.0896198 -1.56043 0
M  V30 1167 H 104.711 2.35474 -2.22986 0
M  V30 1168 H 104.496 1.33946 -3.68512 0
M  V30 1169 H 105.986 2.30818 -3.48013 0
M  V30 1170 N 106.423 1.57458 -0.0668435 0
M  V30 1171 C 107.333 2.15937 0.916975 0
M  V30 1172 C 108.349 1.12123 1.33058 0
M  V30 1173 O 109.525 1.44366 1.40429 0
M  V30 1174 C 106.59 2.70547 2.16807 0
M  V30 1175 C 105.651 3.89215 1.81135 0
M  V30 1176 C 104.884 4.41211 3.0028 0
M  V30 1177 O 105.107 3.92225 4.14144 0
M  V30 1178 O 104.041 5.32605 2.80384 0
M  V30 1179 H 107.867 3.00354 0.449561 0
M  V30 1180 H 105.452 1.48584 0.155949 0
M  V30 1181 H 107.334 3.0557 2.90181 0
M  V30 1182 H 106.009 1.89192 2.62656 0
M  V30 1183 H 104.916 3.59054 1.05028 0
M  V30 1184 H 106.249 4.71848 1.40073 0
M  V30 1185 N 107.901 -0.206675 1.56239 0
M  V30 1186 C 109.317 -0.557025 1.49564 0
M  V30 1187 C 109.517 -1.86424 0.764735 0
M  V30 1188 O 108.573 -2.50584 0.310491 0
M  V30 1189 C 109.886 -0.622478 2.94186 0
M  V30 1190 C 111.434 -0.712099 3.04792 0
M  V30 1191 C 111.909 -0.808767 4.50803 0
M  V30 1192 N 113.4 -0.8726 4.54907 0
M  V30 1193 C 114.135 -0.967365 5.65181 0
M  V30 1194 N 113.631 -1.02515 6.85173 0
M  V30 1195 N 115.424 -1.00366 5.53067 0
M  V30 1196 H 107.575 0.650943 2.02179 0
M  V30 1197 H 109.838 0.230387 0.919579 0
M  V30 1198 H 109.544 0.268727 3.50672 0
M  V30 1199 H 109.418 -1.4811 3.46905 0
M  V30 1200 H 111.805 -1.59374 2.48363 0
M  V30 1201 H 111.886 0.172489 2.55218 0
M  V30 1202 H 111.53 0.0684754 5.07854 0
M  V30 1203 H 111.46 -1.70899 4.98098 0
M  V30 1204 H 113.951 -0.837657 3.68499 0
M  V30 1205 H 114.264 -1.09765 7.64965 0
M  V30 1206 H 112.609 -0.994026 6.87855 0
M  V30 1207 H 115.8 -0.95527 4.58249 0
M  V30 1208 H 115.973 -1.07405 6.39037 0
M  V30 1209 N 109.379 -1.50304 -0.473955 0
M  V30 1210 C 110.309 -1.71886 -1.58042 0
M  V30 1211 C 111.29 -0.567799 -1.60344 0
M  V30 1212 O 112.475 -0.806623 -1.76656 0
M  V30 1213 C 109.605 -1.81036 -2.96384 0
M  V30 1214 C 108.559 -2.962 -3.08949 0
M  V30 1215 C 107.885 -2.9049 -4.48909 0
M  V30 1216 C 109.185 -4.36752 -2.86434 0
M  V30 1217 H 110.879 -2.64527 -1.40234 0
M  V30 1218 H 108.425 -1.27295 -0.673201 0
M  V30 1219 H 110.378 -1.94719 -3.73714 0
M  V30 1220 H 109.102 -0.850147 -3.15341 0
M  V30 1221 H 107.761 -2.82164 -2.3405 0
M  V30 1222 H 107.409 -1.92321 -4.64781 0
M  V30 1223 H 107.109 -3.67802 -4.58253 0
M  V30 1224 H 108.633 -3.06218 -5.28264 0
M  V30 1225 H 110.047 -4.5133 -3.53517 0
M  V30 1226 H 108.444 -5.15493 -3.07225 0
M  V30 1227 H 109.514 -4.49321 -1.82316 0
M  V30 1228 N 110.857 0.726932 -1.39834 0
M  V30 1229 C 111.79 1.8501 -1.33592 0
M  V30 1230 C 112.768 1.61262 -0.208191 0
M  V30 1231 O 113.952 1.84422 -0.389981 0
M  V30 1232 C 111.079 3.21143 -1.07633 0
M  V30 1233 C 110.125 3.63737 -2.22705 0
M  V30 1234 S 110.958 3.72167 -3.85035 0
M  V30 1235 C 112.114 5.11077 -3.61318 0
M  V30 1236 H 112.347 1.90022 -2.28646 0
M  V30 1237 H 109.88 0.892595 -1.25985 0
M  V30 1238 H 111.838 3.99747 -0.933415 0
M  V30 1239 H 110.499 3.13776 -0.142526 0
M  V30 1240 H 109.692 4.62551 -2.00155 0
M  V30 1241 H 109.294 2.9236 -2.33242 0
M  V30 1242 H 111.586 5.97656 -3.19083 0
M  V30 1243 H 112.529 5.38658 -4.59623 0
M  V30 1244 H 112.937 4.81135 -2.95245 0
M  V30 1245 N 112.336 1.25143 0.95797 0
M  V30 1246 C 113.246 1.06968 2.08794 0
M  V30 1247 C 114.262 0.00773911 1.73998 0
M  V30 1248 O 115.438 0.207972 2.00323 0
M  V30 1249 C 112.503 0.68691 3.39827 0
M  V30 1250 C 111.564 1.82641 3.88511 0
M  V30 1251 C 110.797 1.46181 5.1329 0
M  V30 1252 O 111.02 0.355971 5.69288 0
M  V30 1253 O 109.954 2.29085 5.566 0
M  V30 1254 H 113.78 2.01723 2.27027 0
M  V30 1255 H 111.365 1.04051 1.07209 0
M  V30 1256 H 113.247 0.485417 4.18595 0
M  V30 1257 H 111.922 -0.231417 3.22872 0
M  V30 1258 H 110.829 2.08274 3.10762 0
M  V30 1259 H 112.162 2.72386 4.09959 0
M  V30 1260 N 113.814 -1.1601 1.06675 0
M  V30 1261 C 115.06 -1.86909 0.786945 0
M  V30 1262 C 115.393 -1.81717 -0.685018 0
M  V30 1263 O 114.668 -1.23551 -1.50218 0
M  V30 1264 C 114.951 -3.36313 1.28707 0
M  V30 1265 C 114.804 -3.50175 2.82308 0
M  V30 1266 C 116.123 -4.3084 0.898071 0
M  V30 1267 H 113.242 -0.678677 0.287343 0
M  V30 1268 H 115.884 -1.36336 1.32334 0
M  V30 1269 H 114.034 -3.79513 0.830768 0
M  V30 1270 H 115.706 -3.15886 3.36175 0
M  V30 1271 H 113.949 -2.91959 3.20847 0
M  V30 1272 H 114.62 -4.55116 3.12368 0
M  V30 1273 H 117.096 -3.95561 1.29114 0
M  V30 1274 H 115.972 -5.33876 1.27543 0
M  V30 1275 H 116.233 -4.41662 -0.196651 0
M  V30 1276 N 115.292 -0.849877 -1.32721 0
M  V30 1277 C 116.202 -0.293791 -2.32753 0
M  V30 1278 C 117.218 0.585906 -1.63839 0
M  V30 1279 O 118.394 0.487413 -1.95413 0
M  V30 1280 C 115.459 0.512752 -3.42887 0
M  V30 1281 C 114.52 -0.39252 -4.27502 0
M  V30 1282 C 113.753 0.375625 -5.32377 0
M  V30 1283 O 113.976 1.60613 -5.4732 0
M  V30 1284 O 112.91 -0.256094 -6.01355 0
M  V30 1285 H 116.736 -1.12242 -2.82197 0
M  V30 1286 H 114.321 -0.612685 -1.36259 0
M  V30 1287 H 116.203 0.970704 -4.10067 0
M  V30 1288 H 114.878 1.31826 -2.95641 0
M  V30 1289 H 113.785 -0.898547 -3.63149 0
M  V30 1290 H 115.118 -1.16309 -4.7826 0
M  V30 1291 N 116.77 1.45427 -0.607355 0
M  V30 1292 C 117.702 2.2871 0.149752 0
M  V30 1293 C 118.715 1.39937 0.831958 0
M  V30 1294 O 119.904 1.64313 0.697385 0
M  V30 1295 C 117.004 3.15673 1.23304 0
M  V30 1296 C 116.177 4.32722 0.637996 0
M  V30 1297 C 115.236 5.00895 1.61215 0
M  V30 1298 O 114.262 5.57697 1.13854 0
M  V30 1299 N 115.464 5.00159 2.94655 0
M  V30 1300 H 118.229 2.94328 -0.564882 0
M  V30 1301 H 115.79 1.55612 -0.446823 0
M  V30 1302 H 117.782 3.58144 1.88454 0
M  V30 1303 H 116.352 2.51965 1.8502 0
M  V30 1304 H 115.572 3.93734 -0.191572 0
M  V30 1305 H 116.86 5.08321 0.220665 0
M  V30 1306 H 116.258 4.553 3.35735 0
M  V30 1307 H 114.815 5.46495 3.55228 0
M  V30 1308 N 118.248 0.346503 1.53744 0
M  V30 1309 C 119.494 -0.249473 2.0126 0
M  V30 1310 C 119.827 -1.49965 1.23386 0
M  V30 1311 O 119.102 -1.91811 0.32229 0
M  V30 1312 C 119.385 -0.560643 3.55709 0
M  V30 1313 C 119.238 0.701836 4.44291 0
M  V30 1314 C 120.557 -1.36905 4.18264 0
M  V30 1315 H 117.676 -0.0891987 0.731582 0
M  V30 1316 H 120.318 0.467624 1.84156 0
M  V30 1317 H 118.468 -1.17156 3.70414 0
M  V30 1318 H 120.14 1.33974 4.41417 0
M  V30 1319 H 118.383 1.32612 4.13033 0
M  V30 1320 H 119.054 0.43933 5.50249 0
M  V30 1321 H 121.53 -0.852448 4.07275 0
M  V30 1322 H 120.406 -1.55553 5.26398 0
M  V30 1323 H 120.667 -2.37203 3.73078 0
M  V30 1324 N 119.726 -1.57421 0.075193 0
M  V30 1325 C 120.656 -2.15942 -0.888324 0
M  V30 1326 C 121.637 -1.08737 -1.30806 0
M  V30 1327 O 122.822 -1.36787 -1.37851 0
M  V30 1328 C 119.952 -2.72379 -2.1547 0
M  V30 1329 C 118.906 -3.8478 -1.87425 0
M  V30 1330 C 118.232 -4.27834 -3.20721 0
M  V30 1331 C 119.532 -5.08869 -1.17684 0
M  V30 1332 H 121.226 -2.96705 -0.400799 0
M  V30 1333 H 118.772 -1.42723 -0.191342 0
M  V30 1334 H 120.725 -3.11965 -2.83295 0
M  V30 1335 H 119.449 -1.88841 -2.6647 0
M  V30 1336 H 118.108 -3.45703 -1.22004 0
M  V30 1337 H 117.756 -3.41214 -3.6957 0
M  V30 1338 H 117.456 -5.03605 -3.02746 0
M  V30 1339 H 118.98 -4.70039 -3.89738 0
M  V30 1340 H 120.394 -5.4575 -1.75584 0
M  V30 1341 H 118.791 -5.8994 -1.09956 0
M  V30 1342 H 119.861 -4.84648 -0.156453 0
M  V30 1343 N 121.204 0.198386 -1.56346 0
M  V30 1344 C 122.114 1.2664 -1.97483 0
M  V30 1345 C 123.13 1.49989 -0.882002 0
M  V30 1346 O 124.306 1.62668 -1.18748 0
M  V30 1347 C 121.371 2.59141 -2.30319 0
M  V30 1348 C 120.432 2.43892 -3.53292 0
M  V30 1349 C 119.665 3.70074 -3.84553 0
M  V30 1350 O 119.888 4.74101 -3.1715 0
M  V30 1351 O 118.822 3.658 -4.7799 0
M  V30 1352 H 122.648 0.947304 -2.88548 0
M  V30 1353 H 120.233 0.403123 -1.43859 0
M  V30 1354 H 122.115 3.37352 -2.5253 0
M  V30 1355 H 120.79 2.90684 -1.42423 0
M  V30 1356 H 119.697 1.63803 -3.36332 0
M  V30 1357 H 121.03 2.17282 -4.41644 0
M  V30 1358 N 122.682 1.50554 0.465978 0
M  V30 1359 C 123.907 1.65838 1.24549 0
M  V30 1360 C 124.332 0.343486 1.84937 0
M  V30 1361 O 123.69 -0.69324 1.67523 0
M  V30 1362 C 123.738 2.75533 2.32624 0
M  V30 1363 O 122.842 2.37142 3.37398 0
M  V30 1364 H 122.183 0.553893 0.366194 0
M  V30 1365 H 124.713 1.96959 0.553927 0
M  V30 1366 H 124.723 2.98763 2.77857 0
M  V30 1367 H 123.398 3.70962 1.88043 0
M  V30 1368 H 121.975 2.24377 2.97841 0
M  V30 1369 N 124.16 -0.719506 1.40217 0
M  V30 1370 C 125.123 -1.8153 1.39927 0
M  V30 1371 C 126.123 -1.58095 0.293723 0
M  V30 1372 O 127.313 -1.65209 0.552429 0
M  V30 1373 C 124.445 -3.19561 1.18716 0
M  V30 1374 H 125.638 -1.83186 2.37451 0
M  V30 1375 H 123.191 -0.924746 1.26008 0
M  V30 1376 H 123.926 -3.23557 0.219366 0
M  V30 1377 H 123.711 -3.3797 1.98793 0
M  V30 1378 H 125.201 -3.99598 1.21291 0
M  V30 1379 N 125.638 -1.25649 -0.95132 0
M  V30 1380 C 127.054 -1.02542 -1.223 0
M  V30 1381 C 127.254 0.255715 -1.99871 0
M  V30 1382 O 126.31 0.967558 -2.33226 0
M  V30 1383 C 127.623 -2.25065 -1.99415 0
M  V30 1384 C 129.171 -2.29861 -2.12446 0
M  V30 1385 C 129.646 -3.52048 -2.92961 0
M  V30 1386 N 131.137 -3.52465 -3.00538 0
M  V30 1387 C 131.872 -4.43672 -3.63239 0
M  V30 1388 N 131.368 -5.45157 -4.27523 0
M  V30 1389 N 133.161 -4.31346 -3.60412 0
M  V30 1390 H 125.312 -2.07951 -0.432471 0
M  V30 1391 H 127.575 -0.91339 -0.253816 0
M  V30 1392 H 127.281 -3.18194 -1.49817 0
M  V30 1393 H 127.155 -2.28502 -3.00111 0
M  V30 1394 H 129.542 -1.37252 -2.61239 0
M  V30 1395 H 129.623 -2.3044 -1.11044 0
M  V30 1396 H 129.267 -4.44981 -2.44856 0
M  V30 1397 H 129.197 -3.48715 -3.94596 0
M  V30 1398 H 131.688 -2.79056 -2.54826 0
M  V30 1399 H 132.001 -6.10958 -4.73234 0
M  V30 1400 H 130.346 -5.49025 -4.26141 0
M  V30 1401 H 133.537 -3.51288 -3.09377 0
M  V30 1402 H 133.71 -5.02624 -4.0899 0
M  V30 1403 N 127.117 1.15442 -1.07289 0
M  V30 1404 C 128.064 2.20161 -0.692653 0
M  V30 1405 C 129.034 1.63073 0.31564 0
M  V30 1406 O 130.219 1.89725 0.202235 0
M  V30 1407 C 127.359 3.44967 -0.0959509 0
M  V30 1408 C 126.472 4.16256 -1.15564 0
M  V30 1409 C 125.607 5.28609 -0.524011 0
M  V30 1410 C 124.646 5.91715 -1.56653 0
M  V30 1411 N 123.783 6.9554 -0.957531 0
M  V30 1412 H 128.623 2.52037 -1.59002 0
M  V30 1413 H 126.16 1.2378 -0.794798 0
M  V30 1414 H 128.118 4.16341 0.267628 0
M  V30 1415 H 126.748 3.1361 0.764772 0
M  V30 1416 H 125.8 3.43385 -1.6368 0
M  V30 1417 H 127.112 4.59268 -1.94613 0
M  V30 1418 H 126.266 6.06604 -0.108032 0
M  V30 1419 H 125.005 4.86787 0.29825 0
M  V30 1420 H 124.01 5.12433 -1.9923 0
M  V30 1421 H 125.235 6.35614 -2.39107 0
M  V30 1422 H 123.181 6.55814 -0.156162 0
M  V30 1423 H 123.098 7.36977 -1.68526 0
M  V30 1424 H 124.366 7.77435 -0.567032 0
M  V30 1425 N 128.595 0.856903 1.32268 0
M  V30 1426 C 129.558 0.308171 2.27119 0
M  V30 1427 C 130.558 -0.533421 1.51695 0
M  V30 1428 O 131.748 -0.344607 1.70757 0
M  V30 1429 C 128.88 -0.563757 3.36206 0
M  V30 1430 H 130.073 1.14535 2.77167 0
M  V30 1431 H 127.626 0.631421 1.42978 0
M  V30 1432 H 128.361 -1.42266 2.91429 0
M  V30 1433 H 128.146 0.0386749 3.92081 0
M  V30 1434 H 129.636 -0.940386 4.06874 0
M  V30 1435 N 130.073 -1.45103 0.615059 0
M  V30 1436 C 131.02 -2.30586 -0.0993978 0
M  V30 1437 C 131.99 -1.42544 -0.852669 0
M  V30 1438 O 133.175 -1.71465 -0.836917 0
M  V30 1439 C 130.315 -3.27572 -1.08583 0
M  V30 1440 C 129.428 -4.30717 -0.332656 0
M  V30 1441 C 128.563 -5.14807 -1.30947 0
M  V30 1442 C 127.602 -6.09673 -0.544538 0
M  V30 1443 N 126.739 -6.86517 -1.47101 0
M  V30 1444 H 131.579 -2.91144 0.635542 0
M  V30 1445 H 129.116 -1.4346 0.325206 0
M  V30 1446 H 131.074 -3.82276 -1.67095 0
M  V30 1447 H 129.704 -2.68751 -1.78809 0
M  V30 1448 H 128.756 -3.78615 0.368107 0
M  V30 1449 H 130.068 -4.98102 0.263842 0
M  V30 1450 H 129.222 -5.73948 -1.96643 0
M  V30 1451 H 127.961 -4.47458 -1.9399 0
M  V30 1452 H 126.966 -5.49656 0.126003 0
M  V30 1453 H 128.191 -6.79052 0.080947 0
M  V30 1454 H 126.137 -6.21851 -2.08895 0
M  V30 1455 H 126.054 -7.50281 -0.928137 0
M  V30 1456 H 127.322 -7.50194 -2.11731 0
M  V30 1457 N 131.551 -0.354651 -1.53558 0
M  V30 1458 C 132.514 0.484566 -2.24019 0
M  V30 1459 C 133.514 1.01861 -1.24422 0
M  V30 1460 O 134.704 0.906097 -1.4878 0
M  V30 1461 C 131.836 1.67615 -2.96847 0
M  V30 1462 H 133.029 -0.131843 -2.9961 0
M  V30 1463 H 130.582 -0.106165 -1.55939 0
M  V30 1464 H 131.317 2.33095 -2.25471 0
M  V30 1465 H 131.102 1.30029 -3.69912 0
M  V30 1466 H 132.592 2.27114 -3.50441 0
M  V30 1467 N 133.029 1.57378 -0.0835403 0
M  V30 1468 C 133.992 2.12252 0.864959 0
M  V30 1469 C 134.992 1.04916 1.21858 0
M  V30 1470 O 136.182 1.30853 1.14991 0
M  V30 1471 C 133.314 2.63358 2.16461 0
M  V30 1472 H 134.507 2.97371 0.388676 0
M  V30 1473 H 132.06 1.55423 0.165317 0
M  V30 1474 H 132.795 1.81727 2.686 0
M  V30 1475 H 132.58 3.41826 1.92087 0
M  V30 1476 H 134.07 3.05847 2.84337 0
M  V30 1477 N 134.507 -0.190092 1.56449 0
M  V30 1478 C 135.755 -0.907908 1.80559 0
M  V30 1479 C 136.076 -1.83583 0.657438 0
M  V30 1480 O 135.346 -1.93203 -0.323924 0
M  V30 1481 H 133.926 -0.338247 0.666032 0
M  V30 1482 H 136.588 -0.194403 1.93928 0
M  V30 1483 H 135.684 -1.49604 2.73907 0
M  V30 1484 N 135.985 -1.50799 -0.457987 0
M  V30 1485 C 137.21 -1.66496 -1.23668 0
M  V30 1486 C 137.635 -0.353288 -1.84752 0
M  V30 1487 O 136.993 0.684346 -1.67888 0
M  V30 1488 C 137.041 -2.76763 -2.3116 0
M  V30 1489 O 136.145 -2.38928 -3.36136 0
M  V30 1490 H 135.486 -0.555828 -0.363252 0
M  V30 1491 H 138.016 -1.9725 -0.543474 0
M  V30 1492 H 138.026 -3.00232 -2.76269 0
M  V30 1493 H 136.701 -3.71954 -1.86073 0
M  V30 1494 H 135.278 -2.25953 -2.96647 0
M  V30 1495 N 137.463 0.71206 -1.40597 0
M  V30 1496 C 138.691 1.50111 -1.42388 0
M  V30 1497 C 139.106 1.88784 -0.0245395 0
M  V30 1498 O 138.463 1.55681 0.952351 0
M  V30 1499 C 138.514 2.7742 -2.31776 0
M  V30 1500 O 138.235 2.40382 -3.66262 0
M  V30 1501 C 139.736 3.7129 -2.42196 0
M  V30 1502 H 136.956 0.46314 -0.485533 0
M  V30 1503 H 139.5 0.878068 -1.8469 0
M  V30 1504 H 137.655 3.36001 -1.92827 0
M  V30 1505 H 138.069 3.22324 -4.13772 0
M  V30 1506 H 139.543 4.57448 -3.08943 0
M  V30 1507 H 140.02 4.14641 -1.44809 0
M  V30 1508 H 140.626 3.18619 -2.81712 0
M  V30 1509 N 138.941 1.26152 0.944643 0
M  V30 1510 C 140.357 1.03189 1.21754 0
M  V30 1511 C 140.557 -0.245112 2.00004 0
M  V30 1512 O 139.613 -0.955176 2.33736 0
M  V30 1513 C 140.926 2.26119 1.98219 0
M  V30 1514 C 142.474 2.30984 2.11224 0
M  V30 1515 C 142.949 3.53597 2.91089 0
M  V30 1516 N 144.44 3.54053 2.98664 0
M  V30 1517 C 145.175 4.45593 3.60881 0
M  V30 1518 N 144.671 5.47416 4.24626 0
M  V30 1519 N 146.464 4.33252 3.58119 0
M  V30 1520 H 138.615 2.08177 0.421437 0
M  V30 1521 H 140.878 0.914723 0.248969 0
M  V30 1522 H 140.584 3.18984 1.48128 0
M  V30 1523 H 140.458 2.3009 2.98895 0
M  V30 1524 H 142.845 1.38635 2.60508 0
M  V30 1525 H 142.926 2.31026 1.09821 0
M  V30 1526 H 142.57 4.46273 2.42493 0
M  V30 1527 H 142.5 3.50802 3.92741 0
M  V30 1528 H 144.991 2.80403 2.53343 0
M  V30 1529 H 145.304 6.13459 4.69987 0
M  V30 1530 H 143.649 5.51278 4.23223 0
M  V30 1531 H 146.84 3.52924 3.0751 0
M  V30 1532 H 147.013 5.04786 4.06319 0
M  V30 1533 N 140.419 -1.14872 1.07899 0
M  V30 1534 C 141.666 -1.85789 0.805532 0
M  V30 1535 C 141.994 -1.82649 -0.668561 0
M  V30 1536 O 141.249 -1.24858 -1.50695 0
M  V30 1537 C 141.548 -3.34223 1.26609 0
M  V30 1538 C 141.214 -3.57555 2.74709 0
M  V30 1539 C 139.876 -3.63631 3.1516 0
M  V30 1540 C 142.228 -3.66803 3.70277 0
M  V30 1541 C 139.556 -3.76473 4.49983 0
M  V30 1542 C 141.908 -3.8117 5.04869 0
M  V30 1543 C 140.572 -3.85494 5.44932 0
M  V30 1544 H 139.842 -0.679849 0.294765 0
M  V30 1545 H 142.489 -1.3572 1.35101 0
M  V30 1546 H 140.794 -3.86536 0.640103 0
M  V30 1547 H 142.491 -3.87511 1.03132 0
M  V30 1548 H 139.081 -3.5347 2.42398 0
M  V30 1549 H 143.265 -3.61404 3.40149 0
M  V30 1550 H 138.521 -3.7808 4.80484 0
M  V30 1551 H 142.695 -3.87268 5.78789 0
M  V30 1552 H 140.322 -3.95197 6.49403 0
M  V30 1553 N 141.898 -0.863906 -1.31812 0
M  V30 1554 C 143.138 -0.47825 -1.98726 0
M  V30 1555 C 143.502 0.950397 -1.66828 0
M  V30 1556 O 144.703 1.44109 -2.26905 0
M  V30 1557 C 142.974 -0.721134 -3.50049 0
M  V30 1558 S 144.533 -0.434432 -4.36644 0
M  V30 1559 H 141.351 -0.178773 -0.688158 0
M  V30 1560 H 143.953 -1.11862 -1.60334 0
M  V30 1561 H 142.657 -1.75981 -3.70755 0
M  V30 1562 H 142.188 -0.0675315 -3.93342 0
M  V30 1563 H 144.203 0.735786 -4.90714 0
M  V30 1564 N 143.376 1.44774 -0.622745 0
M  V30 1565 C 144.309 2.27792 0.136329 0
M  V30 1566 C 145.287 1.38041 0.859264 0
M  V30 1567 O 146.471 1.67478 0.86506 0
M  V30 1568 C 143.598 3.16776 1.19878 0
M  V30 1569 C 142.644 4.22575 0.57731 0
M  V30 1570 S 143.477 5.31825 -0.626294 0
M  V30 1571 C 144.633 6.24377 0.436378 0
M  V30 1572 H 144.866 2.91824 -0.567967 0
M  V30 1573 H 142.399 1.48838 -0.410677 0
M  V30 1574 H 144.357 3.68596 1.80686 0
M  V30 1575 H 143.018 2.5198 1.87523 0
M  V30 1576 H 142.211 4.84818 1.37721 0
M  V30 1577 H 141.813 3.73974 0.0440439 0
M  V30 1578 H 144.105 6.64689 1.31128 0
M  V30 1579 H 145.048 7.07941 -0.150271 0
M  V30 1580 H 145.456 5.59381 0.758513 0
M  V30 1581 N 144.854 0.36279 1.53368 0
M  V30 1582 C 146.102 -0.227326 2.00817 0
M  V30 1583 C 146.423 -1.49511 1.25186 0
M  V30 1584 O 145.693 -1.92482 0.364348 0
M  V30 1585 H 144.273 -0.0869923 0.741917 0
M  V30 1586 H 146.935 0.488381 1.88682 0
M  V30 1587 H 146.031 -0.456273 3.08747 0
M  V30 1588 N 146.332 -1.57332 0.0918853 0
M  V30 1589 C 147.295 -2.12708 -0.85369 0
M  V30 1590 C 148.295 -1.05561 -1.213 0
M  V30 1591 O 149.485 -1.31461 -1.14296 0
M  V30 1592 C 146.617 -2.64503 -2.15061 0
M  V30 1593 H 147.81 -2.97573 -0.3729 0
M  V30 1594 H 145.363 -1.55509 -0.157072 0
M  V30 1595 H 146.098 -1.83149 -2.67632 0
M  V30 1596 H 145.883 -3.4284 -1.90272 0
M  V30 1597 H 147.373 -3.07351 -2.82711 0
M  V30 1598 N 147.81 0.181792 -1.56548 0
M  V30 1599 C 148.773 1.20894 -1.94724 0
M  V30 1600 C 149.773 1.37738 -0.829747 0
M  V30 1601 O 150.963 1.35323 -1.09697 0
M  V30 1602 C 148.095 2.57593 -2.23291 0
M  V30 1603 H 149.288 0.882275 -2.86629 0
M  V30 1604 H 146.841 0.423838 -1.50444 0
M  V30 1605 H 147.576 2.95291 -1.34067 0
M  V30 1606 H 147.361 2.46735 -3.04736 0
M  V30 1607 H 148.851 3.31637 -2.53785 0
M  V30 1608 N 149.288 1.51039 0.449983 0
M  V30 1609 C 150.534 1.64287 1.19923 0
M  V30 1610 C 150.889 0.348701 1.89214 0
M  V30 1611 O 150.182 -0.654751 1.80065 0
M  V30 1612 C 150.376 2.77556 2.25161 0
M  V30 1613 C 150.205 4.17862 1.66198 0
M  V30 1614 C 148.975 4.83976 1.45243 0
M  V30 1615 C 151.173 5.01388 1.14519 0
M  V30 1616 N 149.155 6.08433 0.817437 0
M  V30 1617 C 150.526 6.16743 0.634705 0
M  V30 1618 C 152.581 4.87008 1.03574 0
M  V30 1619 C 151.284 7.19295 0.0255452 0
M  V30 1620 C 153.31 5.89757 0.440489 0
M  V30 1621 C 152.672 7.04375 -0.0595112 0
M  V30 1622 H 148.771 0.655161 0.426952 0
M  V30 1623 H 151.355 1.88228 0.49781 0
M  V30 1624 H 149.526 2.553 2.92706 0
M  V30 1625 H 151.258 2.80049 2.92155 0
M  V30 1626 H 148.013 4.41627 1.71063 0
M  V30 1627 H 148.437 6.75017 0.517747 0
M  V30 1628 H 153.079 3.9866 1.4082 0
M  V30 1629 H 150.797 8.07302 -0.359071 0
M  V30 1630 H 154.383 5.80698 0.35788 0
M  V30 1631 H 153.263 7.82521 -0.512882 0
M  V30 1632 N 150.766 -0.704594 1.40972 0
M  V30 1633 C 151.713 -1.81862 1.42109 0
M  V30 1634 C 152.683 -1.63781 0.276593 0
M  V30 1635 O 153.868 -1.84759 0.4763 0
M  V30 1636 C 151.008 -3.19669 1.30022 0
M  V30 1637 C 150.121 -3.49246 2.54267 0
M  V30 1638 C 149.256 -4.76618 2.3454 0
M  V30 1639 C 148.295 -4.99133 3.54306 0
M  V30 1640 N 147.432 -6.17726 3.33706 0
M  V30 1641 H 152.272 -1.80226 2.37324 0
M  V30 1642 H 149.809 -0.880238 1.17857 0
M  V30 1643 H 151.767 -3.99263 1.21018 0
M  V30 1644 H 150.397 -3.20506 0.384192 0
M  V30 1645 H 149.449 -2.64125 2.73756 0
M  V30 1646 H 150.761 -3.61788 3.43381 0
M  V30 1647 H 149.915 -5.64249 2.22952 0
M  V30 1648 H 148.654 -4.66305 1.42867 0
M  V30 1649 H 147.659 -4.09953 3.66359 0
M  V30 1650 H 148.884 -5.11311 4.4692 0
M  V30 1651 H 146.83 -6.08642 2.44725 0
M  V30 1652 H 146.747 -6.30995 4.16391 0
M  V30 1653 H 148.015 -7.08115 3.25873 0
M  V30 1654 N 152.244 -1.26651 -0.937939 0
M  V30 1655 C 153.192 -1.08308 -2.05845 0
M  V30 1656 C 154.186 -0.0090757 -1.69398 0
M  V30 1657 O 155.392 -0.166007 -1.79233 0
M  V30 1658 H 151.767 -0.333416 -0.674046 0
M  V30 1659 H 153.738 -2.03261 -2.18467 0
M  V30 1660 C 152.487 -0.736229 -3.39816 0
M  V30 1661 H 151.81 -1.55453 -3.6834 0
M  V30 1662 H 153.25 -0.64769 -4.19024 0
M  V30 1663 C 151.709 0.558824 -3.32233 0
M  V30 1664 O 152.239 1.59621 -3.68624 0
M  V30 1665 N 150.445 0.550657 -2.85335 0
M  V30 1666 H 149.992 -0.293943 -2.55917 0
M  V30 1667 H 149.95 1.41726 -2.80644 0
M  V30 1668 N 153.722 1.14298 -1.08507 0
M  V30 1669 C 155.133 1.66926 -0.836227 0
M  V30 1670 C 155.484 1.85576 0.63686 0
M  V30 1671 O 154.609 1.56767 1.49175 0
M  V30 1672 C 155.204 3.03219 -1.51142 0
M  V30 1673 C 153.763 3.52876 -1.30979 0
M  V30 1674 C 152.91 2.2833 -1.57356 0
M  V30 1675 H 155.861 0.983491 -1.24552 0
M  V30 1676 H 155.882 3.68726 -0.939211 0
M  V30 1677 H 155.394 2.89612 -2.58353 0
M  V30 1678 H 153.495 3.71703 -0.258429 0
M  V30 1679 H 153.608 4.33586 -2.03814 0
M  V30 1680 H 151.972 2.34454 -0.995164 0
M  V30 1681 H 152.755 2.17298 -2.65775 0
M  V30 1682 N 155.201 0.870884 1.31352 0
M  V30 1683 C 156.151 0.298889 2.26032 0
M  V30 1684 C 157.135 -0.564595 1.50669 0
M  V30 1685 O 158.327 -0.411323 1.72154 0
M  V30 1686 C 155.456 -0.497842 3.39671 0
M  V30 1687 C 154.542 0.378937 4.22404 0
M  V30 1688 N 154.933 1.47284 4.83881 0
M  V30 1689 C 153.231 0.171535 4.4567 0
M  V30 1690 C 153.932 2.01359 5.45738 0
M  V30 1691 N 152.908 1.31047 5.27568 0
M  V30 1692 H 156.71 1.13494 2.71102 0
M  V30 1693 H 154.224 0.718745 1.45629 0
M  V30 1694 H 156.221 -0.924155 4.06528 0
M  V30 1695 H 154.881 -1.33149 2.96144 0
M  V30 1696 H 155.892 1.85575 4.8351 0
M  V30 1697 H 152.569 -0.626091 4.12779 0
M  V30 1698 H 153.959 2.93143 6.0458 0
M  V30 1699 N 156.679 -1.44442 0.630414 0
M  V30 1700 C 157.589 -2.34476 -0.0761693 0
M  V30 1701 C 158.605 -1.52576 -0.836449 0
M  V30 1702 O 159.781 -1.85307 -0.788874 0
M  V30 1703 C 156.846 -3.30545 -1.04599 0
M  V30 1704 C 155.907 -4.28352 -0.28516 0
M  V30 1705 C 155.14 -5.19831 -1.20878 0
M  V30 1706 O 155.363 -5.15223 -2.44747 0
M  V30 1707 O 154.297 -5.97892 -0.693491 0
M  V30 1708 H 158.123 -2.96345 0.664324 0
M  V30 1709 H 155.708 -1.44203 0.39061 0
M  V30 1710 H 157.59 -3.89681 -1.60396 0
M  V30 1711 H 156.265 -2.7121 -1.76711 0
M  V30 1712 H 155.172 -3.72764 0.315837 0
M  V30 1713 H 156.505 -4.90605 0.395924 0
M  V30 1714 N 158.157 -0.370918 -1.53173 0
M  V30 1715 C 159.573 -0.0200818 -1.59587 0
M  V30 1716 C 159.773 1.46279 -1.38581 0
M  V30 1717 O 158.829 2.22506 -1.19363 0
M  V30 1718 C 160.142 -0.4808 -2.96831 0
M  V30 1719 C 161.69 -0.435477 -3.09956 0
M  V30 1720 C 162.165 -0.872092 -4.4962 0
M  V30 1721 N 163.656 -0.827364 -4.55751 0
M  V30 1722 C 164.391 -1.13683 -5.62018 0
M  V30 1723 N 163.887 -1.51584 -6.76014 0
M  V30 1724 N 165.68 -1.05927 -5.52029 0
M  V30 1725 H 157.831 -1.33652 -1.65079 0
M  V30 1726 H 160.094 -0.546634 -0.774529 0
M  V30 1727 H 159.8 -1.51577 -3.1736 0
M  V30 1728 H 159.674 0.129796 -3.76977 0
M  V30 1729 H 162.061 0.590371 -2.89134 0
M  V30 1730 H 162.142 -1.08164 -2.31806 0
M  V30 1731 H 161.786 -1.89608 -4.71181 0
M  V30 1732 H 161.716 -0.203127 -5.26208 0
M  V30 1733 H 164.207 -0.548216 -3.73902 0
M  V30 1734 H 164.52 -1.73609 -7.53047 0
M  V30 1735 H 162.865 -1.55454 -6.77391 0
M  V30 1736 H 166.056 -0.762321 -4.61851 0
M  V30 1737 H 166.229 -1.30378 -6.34749 0
M  V30 1738 N 159.635 1.57281 -0.100228 0
M  V30 1739 C 160.912 1.86014 0.604812 0
M  V30 1740 C 161.292 0.998025 1.86018 0
M  V30 1741 O 160.64 0.0718184 2.28387 0
M  V30 1742 C 160.85 3.36784 0.915278 0
M  V30 1743 C 162.198 4.04957 1.27651 0
M  V30 1744 O 163.222 3.41695 1.00613 0
M  V30 1745 O 162.081 5.16593 1.7831 0
M  V30 1746 H 159.175 0.76942 0.303185 0
M  V30 1747 H 161.721 1.69176 -0.133313 0
M  V30 1748 H 160.493 3.91292 0.0248896 0
M  V30 1749 H 160.116 3.58987 1.70921 0
M  V30 1750 N 161.113 -0.173488 1.56642 0
M  V30 1751 C 162.046 -1.24353 1.91342 0
M  V30 1752 C 163.024 -1.4289 0.775965 0
M  V30 1753 O 164.208 -1.57932 1.02907 0
M  V30 1754 C 161.335 -2.60683 2.16245 0
M  V30 1755 C 160.381 -2.58894 3.38934 0
M  V30 1756 S 161.214 -2.0819 4.93373 0
M  V30 1757 C 162.37 -3.46302 5.21369 0
M  V30 1758 H 162.603 -0.947345 2.81803 0
M  V30 1759 H 160.136 -0.377958 1.49703 0
M  V30 1760 H 162.094 -3.39149 2.31275 0
M  V30 1761 H 160.755 -2.87502 1.26496 0
M  V30 1762 H 159.948 -3.59188 3.53553 0
M  V30 1763 H 159.55 -1.88522 3.2301 0
M  V30 1764 H 161.842 -4.42287 5.13214 0
M  V30 1765 H 162.785 -3.3656 6.23003 0
M  V30 1766 H 163.193 -3.42214 4.48943 0
M  V30 1767 N 162.591 -1.51276 -0.441967 0
M  V30 1768 C 164.002 -1.56244 -1.02199 0
M  V30 1769 C 164.353 -0.383149 -1.92422 0
M  V30 1770 O 163.478 0.500613 -2.1053 0
M  V30 1771 C 164.073 -2.83162 -1.86024 0
M  V30 1772 C 162.632 -2.90716 -2.39084 0
M  V30 1773 C 161.779 -2.50858 -1.18175 0
M  V30 1774 H 164.73 -1.5712 -0.223416 0
M  V30 1775 H 164.751 -2.66663 -2.71425 0
M  V30 1776 H 164.263 -3.68974 -1.20331 0
M  V30 1777 H 162.364 -2.09323 -3.08244 0
M  V30 1778 H 162.477 -3.94266 -2.72198 0
M  V30 1779 H 160.841 -2.03951 -1.52565 0
M  V30 1780 H 161.624 -3.3901 -0.541001 0
M  V30 1781 N 164.069 0.697108 -1.41344 0
M  V30 1782 C 165.299 1.48377 -1.43763 0
M  V30 1783 C 165.707 1.89156 -0.0408726 0
M  V30 1784 O 165.05 1.57239 0.949812 0
M  V30 1785 C 165.112 2.7781 -2.2817 0
M  V30 1786 C 164.776 2.59244 -3.76353 0
M  V30 1787 C 165.773 2.25292 -4.68551 0
M  V30 1788 C 163.458 2.74933 -4.20378 0
M  V30 1789 C 165.452 2.07264 -6.02761 0
M  V30 1790 C 163.139 2.56521 -5.54653 0
M  V30 1791 C 164.137 2.22737 -6.4566 0
M  V30 1792 O 163.825 2.04485 -7.77458 0
M  V30 1793 H 163.557 0.463842 -0.491759 0
M  V30 1794 H 166.111 0.865934 -1.86255 0
M  V30 1795 H 164.341 3.41995 -1.8049 0
M  V30 1796 H 166.03 3.39608 -2.22309 0
M  V30 1797 H 166.796 2.12787 -4.35829 0
M  V30 1798 H 162.675 3.00213 -3.49848 0
M  V30 1799 H 166.219 1.80817 -6.73759 0
M  V30 1800 H 162.116 2.68616 -5.86955 0
M  V30 1801 H 162.884 2.1926 -7.88586 0
M  V30 1802 N 165.547 1.27147 0.931209 0
M  V30 1803 C 166.477 1.12081 2.04842 0
M  V30 1804 C 167.458 0.0232364 1.70084 0
M  V30 1805 O 168.643 0.197085 1.93197 0
M  V30 1806 C 165.773 0.76354 3.38803 0
M  V30 1807 C 164.727 1.81396 3.87659 0
M  V30 1808 C 164.053 1.31075 5.18385 0
M  V30 1809 C 165.353 3.21739 4.11438 0
M  V30 1810 H 167.047 2.05537 2.17703 0
M  V30 1811 H 164.593 0.989603 1.04608 0
M  V30 1812 H 166.546 0.644982 4.16435 0
M  V30 1813 H 165.27 -0.206727 3.25945 0
M  V30 1814 H 163.929 1.92136 3.12217 0
M  V30 1815 H 163.577 0.330037 5.01916 0
M  V30 1816 H 163.277 2.013 5.52044 0
M  V30 1817 H 164.801 1.20506 5.98591 0
M  V30 1818 H 166.215 3.14019 4.79651 0
M  V30 1819 H 164.612 3.89644 4.56397 0
M  V30 1820 H 165.682 3.67054 3.16859 0
M  V30 1821 N 167.025 -1.13721 1.09112 0
M  V30 1822 C 167.935 -2.22638 0.73957 0
M  V30 1823 C 168.951 -1.72091 -0.257068 0
M  V30 1824 O 170.127 -2.01155 -0.0992154 0
M  V30 1825 C 167.192 -3.46322 0.16191 0
M  V30 1826 C 166.253 -4.11775 1.21408 0
M  V30 1827 C 165.486 -5.29555 0.663891 0
M  V30 1828 O 165.709 -5.68077 -0.514274 0
M  V30 1829 O 164.643 -5.84973 1.41738 0
M  V30 1830 H 168.469 -2.55074 1.64836 0
M  V30 1831 H 166.054 -1.21791 0.865289 0
M  V30 1832 H 167.936 -4.21107 -0.157073 0
M  V30 1833 H 166.611 -3.15593 -0.719932 0
M  V30 1834 H 165.518 -3.3883 1.58571 0
M  V30 1835 H 166.851 -4.46627 2.06845 0
M  V30 1836 N 168.503 -0.877838 -1.30888 0
M  V30 1837 C 169.435 -0.296607 -2.27273 0
M  V30 1838 C 170.448 0.544799 -1.53414 0
M  V30 1839 O 171.637 0.365511 -1.74718 0
M  V30 1840 C 168.737 0.597481 -3.33592 0
M  V30 1841 C 167.91 -0.213251 -4.3688 0
M  V30 1842 C 166.969 0.610208 -5.2265 0
M  V30 1843 O 165.995 0.035441 -5.69189 0
M  V30 1844 N 167.197 1.92071 -5.47804 0
M  V30 1845 H 169.962 -1.12492 -2.77787 0
M  V30 1846 H 167.523 -0.740105 -1.43993 0
M  V30 1847 H 169.515 1.15425 -3.87891 0
M  V30 1848 H 168.085 1.32647 -2.83061 0
M  V30 1849 H 167.305 -0.951466 -3.82545 0
M  V30 1850 H 168.593 -0.769262 -5.02951 0
M  V30 1851 H 167.991 2.4107 -5.11763 0
M  V30 1852 H 166.548 2.42508 -6.05007 0
M  V30 1853 N 169.982 1.44106 -0.638065 0
M  V30 1854 C 170.915 2.27924 0.112161 0
M  V30 1855 C 171.893 1.38945 0.844574 0
M  V30 1856 O 173.077 1.68386 0.847248 0
M  V30 1857 C 170.204 3.18029 1.16512 0
M  V30 1858 C 169.25 4.23163 0.532458 0
M  V30 1859 S 170.083 5.31131 -0.682666 0
M  V30 1860 C 171.239 6.24805 0.37013 0
M  V30 1861 H 171.472 2.91205 -0.598887 0
M  V30 1862 H 169.005 1.48394 -0.426441 0
M  V30 1863 H 170.963 3.70492 1.76766 0
M  V30 1864 H 169.624 2.53955 1.8484 0
M  V30 1865 H 168.817 4.86252 1.32571 0
M  V30 1866 H 168.419 3.74 0.00437644 0
M  V30 1867 H 170.711 6.66042 1.24071 0
M  V30 1868 H 171.654 7.07741 -0.225349 0
M  V30 1869 H 172.062 5.60154 0.699141 0
M  V30 1870 N 171.46 0.379036 1.52974 0
M  V30 1871 C 172.706 -0.206727 2.01744 0
M  V30 1872 C 173.039 -1.47314 1.26539 0
M  V30 1873 O 172.314 -1.91084 0.362903 0
M  V30 1874 C 172.597 -0.485066 3.56818 0
M  V30 1875 C 172.45 0.795919 4.42702 0
M  V30 1876 C 173.769 -1.28003 4.21074 0
M  V30 1877 H 170.888 -0.0736607 0.73331 0
M  V30 1878 H 173.53 0.506581 1.83122 0
M  V30 1879 H 171.68 -1.09272 3.72816 0
M  V30 1880 H 173.352 1.43307 4.38476 0
M  V30 1881 H 171.595 1.41344 4.10127 0
M  V30 1882 H 172.266 0.555947 5.49193 0
M  V30 1883 H 174.742 -0.765867 4.08991 0
M  V30 1884 H 173.618 -1.44352 5.29579 0
M  V30 1885 H 173.879 -2.29236 3.78026 0
M  V30 1886 N 172.938 -1.57226 0.108567 0
M  V30 1887 C 173.87 -2.11809 -0.875752 0
M  V30 1888 C 174.883 -1.05839 -1.23701 0
M  V30 1889 O 176.072 -1.33245 -1.18778 0
M  V30 1890 C 173.172 -2.59411 -2.18081 0
M  V30 1891 C 172.345 -3.89364 -1.99284 0
M  V30 1892 C 171.404 -4.22672 -3.13424 0
M  V30 1893 O 170.43 -4.91668 -2.86795 0
M  V30 1894 N 171.632 -3.79154 -4.3957 0
M  V30 1895 H 174.397 -2.9689 -0.409477 0
M  V30 1896 H 171.958 -1.61721 -0.076158 0
M  V30 1897 H 173.95 -2.7873 -2.93414 0
M  V30 1898 H 172.52 -1.79268 -2.5609 0
M  V30 1899 H 171.74 -3.79059 -1.08203 0
M  V30 1900 H 173.028 -4.74358 -1.84017 0
M  V30 1901 H 172.426 -3.23486 -4.64083 0
M  V30 1902 H 170.983 -4.03602 -5.11809 0
M  V30 1903 N 174.416 0.165178 -1.56732 0
M  V30 1904 C 175.664 0.879068 -1.8198 0
M  V30 1905 C 175.985 1.82514 -0.686561 0
M  V30 1906 O 175.255 1.93694 0.293146 0
M  V30 1907 H 173.835 0.327608 -0.671329 0
M  V30 1908 H 176.497 0.163526 -1.94213 0
M  V30 1909 H 175.593 1.45228 -2.76252 0
M  V30 1910 N 175.894 1.51508 0.433938 0
M  V30 1911 C 177.14 1.64588 1.18484 0
M  V30 1912 C 177.473 0.362666 1.90784 0
M  V30 1913 O 176.748 -0.637892 1.83742 0
M  V30 1914 C 177.031 2.85149 2.19913 0
M  V30 1915 C 176.884 4.23456 1.51674 0
M  V30 1916 C 178.203 3.01227 3.20858 0
M  V30 1917 H 175.322 0.598994 0.429389 0
M  V30 1918 H 177.964 1.84002 0.473647 0
M  V30 1919 H 176.114 2.68729 2.80566 0
M  V30 1920 H 177.786 4.51552 0.943322 0
M  V30 1921 H 176.029 4.25998 0.819035 0
M  V30 1922 H 176.7 5.03812 2.2556 0
M  V30 1923 H 179.176 3.16382 2.70263 0
M  V30 1924 H 178.052 3.87141 3.89118 0
M  V30 1925 H 178.313 2.13447 3.8716 0
M  V30 1926 N 177.372 -0.689602 1.41712 0
M  V30 1927 C 178.319 -1.80345 1.44029 0
M  V30 1928 C 179.289 -1.63478 0.293948 0
M  V30 1929 O 180.474 -1.84244 0.495869 0
M  V30 1930 C 177.614 -3.18272 1.33405 0
M  V30 1931 C 176.727 -3.46529 2.57956 0
M  V30 1932 C 175.862 -4.74103 2.39582 0
M  V30 1933 C 174.901 -4.95347 3.5958 0
M  V30 1934 N 174.038 -6.14151 3.40239 0
M  V30 1935 H 178.878 -1.77698 2.39222 0
M  V30 1936 H 176.415 -0.867688 1.18784 0
M  V30 1937 H 178.373 -3.97956 1.25246 0
M  V30 1938 H 177.003 -3.2008 0.418164 0
M  V30 1939 H 176.055 -2.61207 2.76542 0
M  V30 1940 H 177.367 -3.58126 3.47199 0
M  V30 1941 H 176.521 -5.61853 2.28924 0
M  V30 1942 H 175.26 -4.64763 1.47805 0
M  V30 1943 H 174.265 -4.06044 3.70686 0
M  V30 1944 H 175.49 -5.06542 4.52318 0
M  V30 1945 H 173.436 -6.06013 2.51167 0
M  V30 1946 H 173.353 -6.26543 4.23061 0
M  V30 1947 H 174.621 -7.04619 3.33365 0
M  V30 1948 N 178.85 -1.27639 -0.924453 0
M  V30 1949 C 179.813 -1.10681 -2.00705 0
M  V30 1950 C 180.813 -0.0497823 -1.60723 0
M  V30 1951 O 182.003 -0.294654 -1.7169 0
M  V30 1952 C 179.135 -0.687164 -3.33902 0
M  V30 1953 H 180.328 -2.06817 -2.17179 0
M  V30 1954 H 177.881 -1.10473 -1.10569 0
M  V30 1955 H 178.616 0.275439 -3.23128 0
M  V30 1956 H 178.401 -1.45061 -3.6428 0
M  V30 1957 H 179.891 -0.590853 -4.13399 0
M  V30 1958 N 180.328 1.1314 -1.09713 0
M  V30 1959 C 181.261 2.17735 -0.683137 0
M  V30 1960 C 182.239 1.59582 0.311841 0
M  V30 1961 O 183.423 1.87298 0.212514 0
M  V30 1962 C 180.55 3.38699 -0.00684324 0
M  V30 1963 C 179.596 4.1546 -0.964102 0
M  V30 1964 S 180.429 4.74733 -2.47767 0
M  V30 1965 C 181.585 5.9904 -1.81387 0
M  V30 1966 H 181.818 2.52515 -1.56918 0
M  V30 1967 H 179.351 1.24484 -0.913404 0
M  V30 1968 H 181.309 4.08765 0.377044 0
M  V30 1969 H 179.97 3.02214 0.85589 0
M  V30 1970 H 179.163 5.02093 -0.43803 0
M  V30 1971 H 178.765 3.51066 -1.28953 0
M  V30 1972 H 181.057 6.67846 -1.13967 0
M  V30 1973 H 182 6.56261 -2.65947 0
M  V30 1974 H 182.408 5.4976 -1.28155 0
M  V30 1975 N 181.806 0.884767 1.30421 0
M  V30 1976 C 183.054 0.502112 1.95763 0
M  V30 1977 C 183.375 -0.951815 1.70192 0
M  V30 1978 O 182.645 -1.6692 1.0254 0
M  V30 1979 H 181.225 0.182694 0.724315 0
M  V30 1980 H 183.887 1.1278 1.58955 0
M  V30 1981 H 182.983 0.672188 3.04775 0
M  V30 1982 N 183.284 -1.43765 0.645699 0
M  V30 1983 C 184.214 -2.33471 -0.0370477 0
M  V30 1984 C 185.195 -1.49042 -0.819779 0
M  V30 1985 O 186.38 -1.77726 -0.782758 0
M  V30 1986 C 183.51 -3.32311 -1.0093 0
M  V30 1987 C 182.464 -4.2667 -0.337201 0
M  V30 1988 C 181.79 -5.1549 -1.42037 0
M  V30 1989 C 183.09 -5.16657 0.765706 0
M  V30 1990 H 184.784 -2.90809 0.712069 0
M  V30 1991 H 182.33 -1.39834 0.343876 0
M  V30 1992 H 184.283 -3.9396 -1.49578 0
M  V30 1993 H 183.007 -2.73213 -1.78948 0
M  V30 1994 H 181.666 -3.66374 0.128771 0
M  V30 1995 H 181.314 -4.52735 -2.1918 0
M  V30 1996 H 181.014 -5.79438 -0.975966 0
M  V30 1997 H 182.538 -5.80012 -1.90838 0
M  V30 1998 H 183.952 -5.72158 0.361702 0
M  V30 1999 H 182.349 -5.89286 1.13413 0
M  V30 2000 H 183.419 -4.56796 1.62683 0
M  V30 2001 N 184.763 -0.387143 -1.52771 0
M  V30 2002 C 185.673 0.456442 -2.30117 0
M  V30 2003 C 186.689 1.07342 -1.36944 0
M  V30 2004 O 187.865 1.07971 -1.70013 0
M  V30 2005 C 184.93 1.56957 -3.09136 0
M  V30 2006 C 183.991 0.977916 -4.18014 0
M  V30 2007 C 183.224 2.038 -4.93256 0
M  V30 2008 O 183.447 3.25271 -4.68567 0
M  V30 2009 O 182.381 1.6565 -5.78657 0
M  V30 2010 H 186.207 -0.17359 -3.03203 0
M  V30 2011 H 183.792 -0.150919 -1.48636 0
M  V30 2012 H 185.674 2.21628 -3.58412 0
M  V30 2013 H 184.349 2.18461 -2.38865 0
M  V30 2014 H 183.256 0.294525 -3.72939 0
M  V30 2015 H 184.589 0.407128 -4.90513 0
M  V30 2016 N 186.241 1.57166 -0.116904 0
M  V30 2017 C 187.204 2.14039 0.819742 0
M  V30 2018 C 188.204 1.07477 1.19605 0
M  V30 2019 O 189.394 1.33263 1.1219 0
M  V30 2020 C 186.526 2.67891 2.10826 0
M  V30 2021 H 187.719 2.98128 0.325511 0
M  V30 2022 H 185.272 1.55739 0.132312 0
M  V30 2023 H 186.007 1.87384 2.64685 0
M  V30 2024 H 185.792 3.45823 1.84793 0
M  V30 2025 H 187.282 3.11809 2.77785 0
M  V30 2026 N 187.719 -0.156864 1.56817 0
M  V30 2027 C 188.959 -0.877453 1.84608 0
M  V30 2028 C 189.323 -1.78791 0.699845 0
M  V30 2029 O 190.524 -2.5472 0.858553 0
M  V30 2030 C 188.795 -1.63992 3.17555 0
M  V30 2031 S 190.354 -2.40729 3.66872 0
M  V30 2032 H 187.172 -0.293612 0.647544 0
M  V30 2033 H 189.774 -0.138099 1.95012 0
M  V30 2034 H 188.478 -0.962363 3.98957 0
M  V30 2035 H 188.009 -2.42038 3.10131 0
M  V30 2036 H 190.024 -3.65725 3.3535 0
M  V30 2037 N 189.197 -1.51736 -0.425897 0
M  V30 2038 C 190.13 -1.68574 -1.53812 0
M  V30 2039 C 191.108 -0.53328 -1.53606 0
M  V30 2040 O 192.292 -0.758555 -1.72564 0
M  V30 2041 C 189.419 -1.70977 -2.92377 0
M  V30 2042 C 188.465 -2.92324 -3.10563 0
M  V30 2043 S 189.298 -4.52952 -2.85648 0
M  V30 2044 C 190.454 -4.58117 -4.26474 0
M  V30 2045 H 190.687 -2.62647 -1.39298 0
M  V30 2046 H 188.22 -1.41564 -0.616361 0
M  V30 2047 H 190.178 -1.73047 -3.72243 0
M  V30 2048 H 188.839 -0.78061 -3.04245 0
M  V30 2049 H 188.032 -2.90439 -4.11899 0
M  V30 2050 H 187.634 -2.88055 -2.38538 0
M  V30 2051 H 189.926 -4.34462 -5.19855 0
M  V30 2052 H 190.869 -5.59983 -4.33388 0
M  V30 2053 H 191.277 -3.8732 -4.10662 0
M  V30 2054 N 190.675 0.682077 -1.42076 0
M  V30 2055 C 191.903 1.47057 -1.4554 0
M  V30 2056 C 192.318 1.8869 -0.0645779 0
M  V30 2057 O 191.675 1.57666 0.919115 0
M  V30 2058 C 191.726 2.72442 -2.37609 0
M  V30 2059 O 191.447 2.32559 -3.71279 0
M  V30 2060 C 192.948 3.66069 -2.50017 0
M  V30 2061 H 190.168 0.452737 -0.495248 0
M  V30 2062 H 192.712 0.838695 -1.8651 0
M  V30 2063 H 190.867 3.31835 -1.9991 0
M  V30 2064 H 191.281 3.13475 -4.20516 0
M  V30 2065 H 192.755 4.50792 -3.18576 0
M  V30 2066 H 193.232 4.11476 -1.53572 0
M  V30 2067 H 193.838 3.12572 -2.88407 0
M  V30 2068 N 192.153 1.28127 0.917671 0
M  V30 2069 C 193.083 1.14248 2.03641 0
M  V30 2070 C 194.064 0.0412748 1.7005 0
M  V30 2071 O 195.249 0.217566 1.92977 0
M  V30 2072 C 192.379 0.799431 3.37974 0
M  V30 2073 C 191.333 1.85497 3.85713 0
M  V30 2074 C 190.659 1.36565 5.16966 0
M  V30 2075 C 191.959 3.26085 4.08002 0
M  V30 2076 H 193.653 2.07835 2.15511 0
M  V30 2077 H 191.199 1.00064 1.03553 0
M  V30 2078 H 193.152 0.689114 4.15727 0
M  V30 2079 H 191.876 -0.172145 3.26146 0
M  V30 2080 H 190.535 1.95437 3.10161 0
M  V30 2081 H 190.183 0.383253 5.01538 0
M  V30 2082 H 189.883 2.07143 5.49878 0
M  V30 2083 H 191.407 1.26848 5.97279 0
M  V30 2084 H 192.821 3.19089 4.76293 0
M  V30 2085 H 191.218 3.94462 4.52238 0
M  V30 2086 H 192.288 3.70394 3.12948 0
M  V30 2087 N 193.631 -1.12557 1.10312 0
M  V30 2088 C 194.879 -1.83675 0.843091 0
M  V30 2089 C 195.2 -1.84435 -0.633131 0
M  V30 2090 O 194.47 -1.30657 -1.45964 0
M  V30 2091 H 193.05 -0.680138 0.308904 0
M  V30 2092 H 195.712 -1.36301 1.39313 0
M  V30 2093 H 194.808 -2.87908 1.2048 0
M  V30 2094 N 195.109 -0.891671 -1.2995 0
M  V30 2095 C 196.337 -0.52866 -2.00032 0
M  V30 2096 C 196.752 0.884574 -1.66795 0
M  V30 2097 O 196.109 1.5827 -0.908669 0
M  V30 2098 C 196.16 -0.701814 -3.54622 0
M  V30 2099 O 195.881 -2.05942 -3.86678 0
M  V30 2100 C 197.382 -0.342683 -4.41973 0
M  V30 2101 H 194.602 -0.203659 -0.639347 0
M  V30 2102 H 197.146 -1.19881 -1.65677 0
M  V30 2103 H 195.301 -0.0789468 -3.8732 0
M  V30 2104 H 195.715 -2.08291 -4.81368 0
M  V30 2105 H 197.189 -0.514709 -5.49595 0
M  V30 2106 H 197.666 0.71975 -4.33262 0
M  V30 2107 H 198.272 -0.942154 -4.14733 0
M  V30 2108 N 196.587 1.43421 -0.653314 0
M  V30 2109 C 197.517 2.33487 0.0246656 0
M  V30 2110 C 198.498 1.49475 0.811863 0
M  V30 2111 O 199.683 1.78139 0.773322 0
M  V30 2112 C 196.813 3.32841 0.99166 0
M  V30 2113 C 195.767 4.26842 0.314568 0
M  V30 2114 C 195.093 5.16236 1.39302 0
M  V30 2115 C 196.393 5.16243 -0.793095 0
M  V30 2116 H 198.087 2.90427 -0.727481 0
M  V30 2117 H 195.633 1.39649 -0.351287 0
M  V30 2118 H 197.586 3.94747 1.47487 0
M  V30 2119 H 196.31 2.74158 1.77497 0
M  V30 2120 H 194.969 3.663 -0.148199 0
M  V30 2121 H 194.617 4.53891 2.16776 0
M  V30 2122 H 194.317 5.79948 0.945223 0
M  V30 2123 H 195.841 5.81015 1.87759 0
M  V30 2124 H 197.255 5.71958 -0.392039 0
M  V30 2125 H 195.652 5.88676 -1.16536 0
M  V30 2126 H 196.722 4.55927 -1.65103 0
M  V30 2127 N 198.065 0.39524 1.52563 0
M  V30 2128 C 199.29 -0.187456 2.06551 0
M  V30 2129 C 199.715 -1.39249 1.26457 0
M  V30 2130 O 199.073 -1.78947 0.291151 0
M  V30 2131 C 199.121 -0.529985 3.56684 0
M  V30 2132 O 198.225 -1.62307 3.79118 0
M  V30 2133 H 197.566 -0.0202537 0.663691 0
M  V30 2134 H 200.096 0.564426 1.96661 0
M  V30 2135 H 200.106 -0.792598 4.00227 0
M  V30 2136 H 198.781 0.350987 4.14416 0
M  V30 2137 H 197.358 -1.3537 3.47461 0
M  V30 2138 N 199.544 -1.57102 0.125237 0
M  V30 2139 C 200.454 -2.19191 -0.8362 0
M  V30 2140 C 201.47 -1.16985 -1.28805 0
M  V30 2141 O 202.646 -1.49479 -1.34974 0
M  V30 2142 C 199.711 -2.78407 -2.06617 0
M  V30 2143 C 198.772 -3.9567 -1.66565 0
M  V30 2144 C 198.005 -4.52052 -2.83698 0
M  V30 2145 O 198.228 -4.07326 -3.99302 0
M  V30 2146 O 197.162 -5.42645 -2.60423 0
M  V30 2147 H 200.988 -3.01816 -0.337776 0
M  V30 2148 H 198.573 -1.4906 -0.100695 0
M  V30 2149 H 200.455 -3.16129 -2.7864 0
M  V30 2150 H 199.13 -1.9881 -2.55453 0
M  V30 2151 H 198.037 -3.62705 -0.916296 0
M  V30 2152 H 199.37 -4.76722 -1.22464 0
M  V30 2153 N 201.022 0.148545 -1.56898 0
M  V30 2154 C 202.247 0.880385 -1.87787 0
M  V30 2155 C 202.672 1.74018 -0.714093 0
M  V30 2156 O 202.03 1.78153 0.336343 0
M  V30 2157 C 202.078 1.71422 -3.17249 0
M  V30 2158 O 201.182 2.8183 -3.01074 0
M  V30 2159 H 200.523 0.245301 -0.617028 0
M  V30 2160 H 203.053 0.139826 -2.04122 0
M  V30 2161 H 203.063 2.10954 -3.49231 0
M  V30 2162 H 201.738 1.08284 -4.01556 0
M  V30 2163 H 200.315 2.45715 -2.80497 0
M  V30 2164 N 202.5 1.5196 0.417844 0
M  V30 2165 C 203.432 1.70895 1.52733 0
M  V30 2166 C 204.445 0.589405 1.51756 0
M  V30 2167 O 205.634 0.864312 1.56179 0
M  V30 2168 C 202.734 1.72627 2.91639 0
M  V30 2169 C 201.907 3.01479 3.16905 0
M  V30 2170 C 200.966 2.95139 4.35637 0
M  V30 2171 O 199.992 3.69059 4.3334 0
M  V30 2172 N 201.194 2.12328 5.40275 0
M  V30 2173 H 203.959 2.66612 1.36888 0
M  V30 2174 H 201.52 1.50089 0.607037 0
M  V30 2175 H 203.512 1.65928 3.6912 0
M  V30 2176 H 202.082 0.844216 3.00985 0
M  V30 2177 H 201.302 3.21895 2.27546 0
M  V30 2178 H 202.59 3.86736 3.30625 0
M  V30 2179 H 201.988 1.51685 5.44985 0
M  V30 2180 H 200.545 2.11494 6.16534 0
M  V30 2181 N 203.978 -0.674533 1.42435 0
M  V30 2182 C 204.941 -1.76986 1.45632 0
M  V30 2183 C 205.941 -1.5708 0.343871 0
M  V30 2184 O 207.131 -1.63367 0.604709 0
M  V30 2185 C 204.263 -3.15623 1.28822 0
M  V30 2186 H 205.456 -1.75539 2.43158 0
M  V30 2187 H 203.009 -0.884189 1.28887 0
M  V30 2188 H 203.744 -3.22696 0.322193 0
M  V30 2189 H 203.529 -3.31475 2.09444 0
M  V30 2190 H 205.019 -3.95537 1.33942 0
M  V30 2191 N 205.456 -1.28612 -0.910864 0
M  V30 2192 C 206.388 -1.08589 -2.01844 0
M  V30 2193 C 207.401 -0.0367419 -1.62759 0
M  V30 2194 O 208.59 -0.280101 -1.76289 0
M  V30 2195 C 205.69 -0.628626 -3.33019 0
M  V30 2196 C 204.863 -1.75382 -4.00699 0
M  V30 2197 C 203.922 -1.28945 -5.10156 0
M  V30 2198 O 202.948 -1.9922 -5.33198 0
M  V30 2199 N 204.15 -0.154224 -5.80295 0
M  V30 2200 H 206.915 -2.03973 -2.19579 0
M  V30 2201 H 204.476 -1.20403 -1.08234 0
M  V30 2202 H 206.468 -0.301508 -4.03575 0
M  V30 2203 H 205.038 0.232451 -3.11735 0
M  V30 2204 H 204.258 -2.25039 -3.23653 0
M  V30 2205 H 205.546 -2.50854 -4.42662 0
M  V30 2206 H 204.944 0.43194 -5.64049 0
M  V30 2207 H 203.501 0.113599 -6.51701 0
M  V30 2208 N 206.934 1.1197 -1.10907 0
M  V30 2209 C 208.35 1.35591 -0.841852 0
M  V30 2210 C 208.55 1.94233 0.536246 0
M  V30 2211 O 207.606 2.1717 1.28816 0
M  V30 2212 C 208.919 2.29284 -1.94549 0
M  V30 2213 C 210.467 2.42862 -1.97451 0
M  V30 2214 C 210.942 3.39873 -3.07002 0
M  V30 2215 N 212.433 3.47433 -3.06341 0
M  V30 2216 C 213.168 4.22421 -3.87748 0
M  V30 2217 N 212.664 5.00432 -4.79103 0
M  V30 2218 N 214.457 4.17876 -3.75946 0
M  V30 2219 H 206.608 0.722664 -1.99728 0
M  V30 2220 H 208.871 0.380635 -0.868229 0
M  V30 2221 H 208.577 1.93378 -2.93765 0
M  V30 2222 H 208.451 3.29452 -1.83688 0
M  V30 2223 H 210.838 2.78046 -0.988645 0
M  V30 2224 H 210.919 1.42566 -2.12388 0
M  V30 2225 H 210.563 3.05417 -4.05811 0
M  V30 2226 H 210.493 4.40011 -2.89306 0
M  V30 2227 H 212.984 2.91784 -2.40147 0
M  V30 2228 H 213.297 5.55002 -5.37766 0
M  V30 2229 H 211.642 4.99612 -4.83128 0
M  V30 2230 H 214.833 3.56016 -3.03924 0
M  V30 2231 H 215.006 4.76061 -4.39624 0
M  V30 2232 N 208.412 0.89855 1.29475 0
M  V30 2233 C 209.342 0.39201 2.30186 0
M  V30 2234 C 210.323 -0.532359 1.61555 0
M  V30 2235 O 211.508 -0.443331 1.89072 0
M  V30 2236 C 208.638 -0.382353 3.45189 0
M  V30 2237 C 207.592 0.451483 4.25612 0
M  V30 2238 C 206.918 -0.450307 5.328 0
M  V30 2239 C 208.218 1.70079 4.93832 0
M  V30 2240 H 209.912 1.23362 2.72804 0
M  V30 2241 H 207.458 0.594638 1.31149 0
M  V30 2242 H 209.411 -0.747451 4.14718 0
M  V30 2243 H 208.135 -1.25774 3.01411 0
M  V30 2244 H 206.794 0.798897 3.57789 0
M  V30 2245 H 206.442 -1.32379 4.85268 0
M  V30 2246 H 206.142 0.103902 5.87508 0
M  V30 2247 H 207.666 -0.811623 6.05182 0
M  V30 2248 H 209.08 1.40549 5.55805 0
M  V30 2249 H 207.477 2.19623 5.58467 0
M  V30 2250 H 208.547 2.43744 4.19186 0
M  V30 2251 N 209.89 -1.43072 0.660911 0
M  V30 2252 C 210.853 -2.29194 -0.0166406 0
M  V30 2253 C 211.853 -1.42609 -0.742912 0
M  V30 2254 O 213.043 -1.64155 -0.583004 0
M  V30 2255 C 210.175 -3.24831 -1.0343 0
M  V30 2256 H 211.368 -2.90596 0.741208 0
M  V30 2257 H 208.921 -1.5048 0.422532 0
M  V30 2258 H 209.656 -2.68339 -1.82111 0
M  V30 2259 H 209.441 -3.88676 -0.517082 0
M  V30 2260 H 210.931 -3.89451 -1.50723 0
M  V30 2261 N 211.368 -0.403325 -1.52352 0
M  V30 2262 C 212.316 0.439752 -2.28405 0
M  V30 2263 C 213.31 1.05089 -1.32863 0
M  V30 2264 O 214.516 0.989759 -1.50345 0
M  V30 2265 H 210.891 0.160587 -0.734653 0
M  V30 2266 H 212.862 -0.222983 -2.97566 0
M  V30 2267 C 211.611 1.54736 -3.11371 0
M  V30 2268 H 210.934 1.08643 -3.84755 0
M  V30 2269 H 212.374 2.1112 -3.67701 0
M  V30 2270 C 210.833 2.51141 -2.24566 0
M  V30 2271 O 211.363 3.54887 -1.88196 0
M  V30 2272 N 209.569 2.21213 -1.8845 0
M  V30 2273 H 209.116 1.36878 -2.18225 0
M  V30 2274 H 209.074 2.85963 -1.30662 0
M  V30 2275 N 212.846 1.57033 -0.133567 0
M  V30 2276 C 213.809 2.14897 0.796995 0
M  V30 2277 C 214.809 1.0874 1.18458 0
M  V30 2278 O 215.999 1.34446 1.1077 0
M  V30 2279 C 213.131 2.70112 2.07973 0
M  V30 2280 H 214.324 2.98457 0.293873 0
M  V30 2281 H 211.877 1.55871 0.115787 0
M  V30 2282 H 212.612 1.9018 2.62682 0
M  V30 2283 H 212.397 3.47764 1.81115 0
M  V30 2284 H 213.887 3.14738 2.74462 0
M  V30 2285 N 214.325 -0.140222 1.56975 0
M  V30 2286 C 215.573 -0.850005 1.83356 0
M  V30 2287 C 215.894 -1.81399 0.71551 0
M  V30 2288 O 215.164 -1.94136 -0.262294 0
M  V30 2289 H 213.744 -0.316886 0.676456 0
M  V30 2290 H 216.406 -0.132608 1.94448 0
M  V30 2291 H 215.502 -1.40814 2.78528 0
M  V30 2292 N 215.803 -1.52179 -0.40978 0
M  V30 2293 C 216.733 -1.78435 -1.5061 0
M  V30 2294 C 217.714 -0.635295 -1.57791 0
M  V30 2295 O 218.899 -0.880823 -1.73076 0
M  V30 2296 C 216.029 -1.93444 -2.88439 0
M  V30 2297 C 214.983 -3.09038 -2.96108 0
M  V30 2298 C 214.309 -3.09268 -4.36185 0
M  V30 2299 C 215.609 -4.48508 -2.67652 0
M  V30 2300 H 217.303 -2.70237 -1.28889 0
M  V30 2301 H 214.849 -1.30036 -0.618605 0
M  V30 2302 H 216.802 -2.10394 -3.65119 0
M  V30 2303 H 215.526 -0.983129 -3.11452 0
M  V30 2304 H 214.185 -2.91837 -2.21872 0
M  V30 2305 H 213.833 -2.11861 -4.56206 0
M  V30 2306 H 213.533 -3.86907 -4.42241 0
M  V30 2307 H 215.057 -3.28348 -5.14801 0
M  V30 2308 H 216.471 -4.65918 -3.34056 0
M  V30 2309 H 214.868 -5.28059 -2.85085 0
M  V30 2310 H 215.938 -4.56649 -1.63095 0
M  V30 2311 N 217.281 0.66697 -1.42791 0
M  V30 2312 C 218.558 1.4234 -1.34159 0
M  V30 2313 C 218.938 2.11093 0.0172729 0
M  V30 2314 O 218.286 2.03808 1.03318 0
M  V30 2315 C 218.496 2.41942 -2.51526 0
M  V30 2316 C 219.844 3.06353 -2.93995 0
M  V30 2317 O 220.868 2.52269 -2.51473 0
M  V30 2318 O 219.727 4.04376 -3.67617 0
M  V30 2319 H 216.821 0.635277 -0.529483 0
M  V30 2320 H 219.367 0.695034 -1.54814 0
M  V30 2321 H 218.139 1.89991 -3.42081 0
M  V30 2322 H 217.762 3.22249 -2.32898 0
M  V30 2323 N 218.759 1.29093 0.90403 0
M  V30 2324 C 219.989 1.19516 1.68522 0
M  V30 2325 C 220.397 -0.24738 1.87576 0
M  V30 2326 O 219.74 -1.17798 1.40959 0
M  V30 2327 C 219.802 1.83249 3.0929 0
M  V30 2328 C 219.466 3.32531 3.13484 0
M  V30 2329 C 220.463 4.28821 2.93953 0
M  V30 2330 C 218.148 3.73656 3.35688 0
M  V30 2331 C 220.142 5.64212 2.96553 0
M  V30 2332 C 217.829 5.0917 3.37919 0
M  V30 2333 C 218.827 6.04258 3.18373 0
M  V30 2334 O 218.515 7.37298 3.20385 0
M  V30 2335 H 218.247 0.415467 0.533257 0
M  V30 2336 H 220.801 1.70912 1.13922 0
M  V30 2337 H 219.031 1.26358 3.65473 0
M  V30 2338 H 220.72 1.68054 3.69476 0
M  V30 2339 H 221.486 3.98382 2.76616 0
M  V30 2340 H 217.365 3.00101 3.49943 0
M  V30 2341 H 220.909 6.38407 2.81216 0
M  V30 2342 H 216.806 5.39256 3.54787 0
M  V30 2343 H 217.574 7.46048 3.36681 0
M  V30 2344 N 220.237 -1.11381 1.11499 0
M  V30 2345 C 221.467 -1.86663 0.885464 0
M  V30 2346 C 221.875 -1.80464 -0.568281 0
M  V30 2347 O 221.218 -1.18445 -1.40415 0
M  V30 2348 C 221.28 -3.36337 1.26956 0
M  V30 2349 C 220.944 -3.66304 2.73259 0
M  V30 2350 C 221.941 -3.63733 3.71476 0
M  V30 2351 C 219.626 -3.9529 3.09921 0
M  V30 2352 C 221.62 -3.89725 5.04374 0
M  V30 2353 C 219.307 -4.20941 4.43004 0
M  V30 2354 C 220.305 -4.18147 5.40039 0
M  V30 2355 O 219.993 -4.43153 6.70724 0
M  V30 2356 H 219.725 -0.597114 0.316908 0
M  V30 2357 H 222.279 -1.41782 1.48617 0
M  V30 2358 H 220.509 -3.81826 0.611999 0
M  V30 2359 H 222.198 -3.92986 1.01573 0
M  V30 2360 H 222.964 -3.41389 3.44498 0
M  V30 2361 H 218.843 -3.966 2.35009 0
M  V30 2362 H 222.387 -3.8746 5.80104 0
M  V30 2363 H 218.284 -4.42761 4.69716 0
M  V30 2364 H 219.052 -4.60717 6.76522 0
M  V30 2365 N 221.715 -0.905404 -1.28997 0
M  V30 2366 C 222.663 -0.377431 -2.29517 0
M  V30 2367 C 223.657 0.526461 -1.61012 0
M  V30 2368 O 224.863 0.40863 -1.753 0
M  V30 2369 H 221.238 -0.103437 -0.744852 0
M  V30 2370 H 223.209 -1.23848 -2.71485 0
M  V30 2371 C 221.958 0.374833 -3.45674 0
M  V30 2372 H 221.281 -0.311474 -3.98585 0
M  V30 2373 H 222.721 0.70903 -4.1803 0
M  V30 2374 C 221.18 1.57963 -2.97572 0
M  V30 2375 O 221.71 2.67886 -2.99333 0
M  V30 2376 N 219.916 1.42375 -2.53333 0
M  V30 2377 H 219.463 0.529466 -2.521 0
M  V30 2378 H 219.421 2.23117 -2.21509 0
M  V30 2379 N 223.193 1.4272 -0.668489 0
M  V30 2380 C 224.143 2.27971 0.0363806 0
M  V30 2381 C 225.127 1.40741 0.779794 0
M  V30 2382 O 226.319 1.64245 0.659745 0
M  V30 2383 C 223.448 3.28673 0.991398 0
M  V30 2384 C 222.534 4.23388 0.245658 0
M  V30 2385 N 222.925 5.00267 -0.746069 0
M  V30 2386 C 221.223 4.43355 0.484988 0
M  V30 2387 C 221.924 5.69396 -1.19009 0
M  V30 2388 N 220.9 5.41095 -0.521287 0
M  V30 2389 H 224.702 2.84833 -0.724394 0
M  V30 2390 H 222.216 1.54607 -0.497028 0
M  V30 2391 H 224.213 3.88543 1.51129 0
M  V30 2392 H 222.873 2.73373 1.75207 0
M  V30 2393 H 223.884 5.05525 -1.12537 0
M  V30 2394 H 220.561 3.99104 1.22565 0
M  V30 2395 H 221.951 6.41083 -2.01153 0
M  V30 2396 N 224.671 0.411399 1.52136 0
M  V30 2397 C 225.619 -0.427633 2.28635 0
M  V30 2398 C 226.613 -1.04383 1.33419 0
M  V30 2399 O 227.819 -0.981772 1.50868 0
M  V30 2400 H 224.194 -0.156689 0.735495 0
M  V30 2401 H 226.165 0.238761 2.97443 0
M  V30 2402 C 224.914 -1.53082 3.12188 0
M  V30 2403 H 224.237 -1.06601 3.85326 0
M  V30 2404 H 225.677 -2.09167 3.68816 0
M  V30 2405 C 224.136 -2.49946 2.25895 0
M  V30 2406 O 224.666 -3.53884 1.90076 0
M  V30 2407 N 222.872 -2.2021 1.8962 0
M  V30 2408 H 222.419 -1.35719 2.18948 0
M  V30 2409 H 222.377 -2.85266 1.32176 0
M  V30 2410 N 226.149 -1.5696 0.141893 0
M  V30 2411 C 227.079 -2.19516 -0.795936 0
M  V30 2412 C 228.06 -1.14187 -1.26077 0
M  V30 2413 O 229.245 -1.42511 -1.31925 0
M  V30 2414 C 226.375 -2.81272 -2.03723 0
M  V30 2415 C 225.329 -3.92384 -1.70936 0
M  V30 2416 C 224.655 -4.41052 -3.02287 0
M  V30 2417 C 225.955 -5.13403 -0.959954 0
M  V30 2418 H 227.649 -2.98138 -0.274596 0
M  V30 2419 H 225.195 -1.43406 -0.130636 0
M  V30 2420 H 227.148 -3.237 -2.69808 0
M  V30 2421 H 225.872 -1.99973 -2.58221 0
M  V30 2422 H 224.531 -3.50566 -1.07232 0
M  V30 2423 H 224.179 -3.56582 -3.54765 0
M  V30 2424 H 223.879 -5.15993 -2.81114 0
M  V30 2425 H 225.403 -4.86146 -3.69451 0
M  V30 2426 H 226.817 -5.52706 -1.52279 0
M  V30 2427 H 225.214 -5.94073 -0.848357 0
M  V30 2428 H 226.284 -4.84875 0.0492434 0
M  V30 2429 N 227.627 0.131896 -1.57047 0
M  V30 2430 C 228.904 0.871495 -1.75112 0
M  V30 2431 C 229.284 1.9866 -0.713949 0
M  V30 2432 O 228.632 2.26965 0.264447 0
M  V30 2433 C 228.842 1.40007 -3.19686 0
M  V30 2434 C 230.19 1.85752 -3.81813 0
M  V30 2435 O 231.214 1.49715 -3.23209 0
M  V30 2436 O 230.073 2.5226 -4.84796 0
M  V30 2437 H 227.167 0.412919 -0.716538 0
M  V30 2438 H 229.713 0.116641 -1.69299 0
M  V30 2439 H 228.485 0.599404 -3.86682 0
M  V30 2440 H 228.108 2.218 -3.29986 0
M  V30 2441 N 229.106 1.52395 0.401703 0
M  V30 2442 C 230.334 1.70676 1.16949 0
M  V30 2443 C 230.749 0.419503 1.8408 0
M  V30 2444 O 230.106 -0.605061 1.72178 0
M  V30 2445 C 230.157 2.84753 2.22706 0
M  V30 2446 O 229.878 4.08495 1.58314 0
M  V30 2447 C 231.379 3.14608 3.12309 0
M  V30 2448 H 228.599 0.571787 0.351142 0
M  V30 2449 H 231.143 1.98987 0.471652 0
M  V30 2450 H 229.298 2.58941 2.88147 0
M  V30 2451 H 229.712 4.72117 2.28485 0
M  V30 2452 H 231.186 3.97923 3.82572 0
M  V30 2453 H 231.663 2.28464 3.75101 0
M  V30 2454 H 232.269 3.42212 2.52529 0
M  V30 2455 N 230.584 -0.659388 1.43143 0
M  V30 2456 C 231.809 -1.45221 1.48073 0
M  V30 2457 C 232.234 -1.87845 0.097995 0
M  V30 2458 O 231.592 -1.56985 -0.90694 0
M  V30 2459 C 231.64 -2.66748 2.42647 0
M  V30 2460 O 230.744 -3.65583 1.90848 0
M  V30 2461 H 230.085 -0.435669 0.501088 0
M  V30 2462 H 232.615 -0.807432 1.87994 0
M  V30 2463 H 232.625 -3.14637 2.59745 0
M  V30 2464 H 231.3 -2.35067 3.43098 0
M  V30 2465 H 229.877 -3.24693 1.83381 0
M  V30 2466 N 232.062 -1.29571 -0.897171 0
M  V30 2467 C 233.473 -1.15964 -1.46319 0
M  V30 2468 C 233.824 0.244267 -1.94674 0
M  V30 2469 O 232.949 1.13998 -1.83939 0
M  V30 2470 C 233.544 -2.09906 -2.65942 0
M  V30 2471 C 232.103 -2.00314 -3.18671 0
M  V30 2472 C 231.25 -2.00687 -1.91363 0
M  V30 2473 H 234.201 -1.42019 -0.708268 0
M  V30 2474 H 234.222 -1.67276 -3.41759 0
M  V30 2475 H 233.734 -3.12075 -2.30718 0
M  V30 2476 H 231.835 -1.01242 -3.58582 0
M  V30 2477 H 231.948 -2.88102 -3.82798 0
M  V30 2478 H 230.312 -1.45319 -2.09175 0
M  V30 2479 H 231.095 -3.04566 -1.58413 0
M  V30 2480 N 233.54 1.10788 -1.12088 0
M  V30 2481 C 234.45 2.20599 -0.798338 0
M  V30 2482 C 235.466 1.72712 0.21135 0
M  V30 2483 O 236.642 2.01348 0.0458477 0
M  V30 2484 C 233.707 3.45771 -0.253674 0
M  V30 2485 C 232.768 4.08411 -1.32283 0
M  V30 2486 C 232.001 5.27608 -0.80406 0
M  V30 2487 O 232.224 5.69241 0.363478 0
M  V30 2488 O 231.158 5.8101 -1.57198 0
M  V30 2489 H 234.984 2.50614 -1.7154 0
M  V30 2490 H 232.569 1.19454 -0.897275 0
M  V30 2491 H 234.451 4.21376 0.0453691 0
M  V30 2492 H 233.126 3.1739 0.636005 0
M  V30 2493 H 232.033 3.34507 -1.67499 0
M  V30 2494 H 233.366 4.40986 -2.18614 0
M  V30 2495 N 235.018 0.912232 1.28515 0
M  V30 2496 C 236.265 0.544599 1.95039 0
M  V30 2497 C 236.593 -0.911435 1.71823 0
M  V30 2498 O 235.848 -1.66317 1.03137 0
M  V30 2499 C 236.147 0.798392 3.48368 0
M  V30 2500 C 235.813 2.23374 3.91682 0
M  V30 2501 C 234.475 2.62617 4.03219 0
M  V30 2502 C 236.827 3.16786 4.13879 0
M  V30 2503 C 234.155 3.94429 4.3433 0
M  V30 2504 C 236.507 4.48161 4.46469 0
M  V30 2505 C 235.171 4.8726 4.56217 0
M  V30 2506 H 234.441 0.199283 0.7137 0
M  V30 2507 H 237.088 1.15327 1.52879 0
M  V30 2508 H 235.393 0.106908 3.91654 0
M  V30 2509 H 237.09 0.493141 3.97956 0
M  V30 2510 H 233.68 1.91922 3.83228 0
M  V30 2511 H 237.864 2.87677 4.0442 0
M  V30 2512 H 233.12 4.24426 4.40082 0
M  V30 2513 H 237.294 5.20559 4.62592 0
M  V30 2514 H 234.921 5.89431 4.80078 0
M  V30 2515 N 236.496 -1.42363 0.676048 0
M  V30 2516 C 237.726 -2.05561 0.206967 0
M  V30 2517 C 238.134 -1.50887 -1.14148 0
M  V30 2518 O 237.477 -0.643933 -1.72044 0
M  V30 2519 C 237.539 -3.5944 0.0659508 0
M  V30 2520 C 237.203 -4.36812 1.34331 0
M  V30 2521 C 238.2 -4.67383 2.27704 0
M  V30 2522 C 235.885 -4.76429 1.59125 0
M  V30 2523 C 237.879 -5.36509 3.44147 0
M  V30 2524 C 235.566 -5.45294 2.75857 0
M  V30 2525 C 236.564 -5.75259 3.68193 0
M  V30 2526 O 236.252 -6.42712 4.82883 0
M  V30 2527 H 235.984 -0.668872 0.0979084 0
M  V30 2528 H 238.538 -1.83467 0.923531 0
M  V30 2529 H 236.768 -3.80197 -0.706204 0
M  V30 2530 H 238.457 -4.0427 -0.363418 0
M  V30 2531 H 239.223 -4.37275 2.09799 0
M  V30 2532 H 235.102 -4.52498 0.881258 0
M  V30 2533 H 238.646 -5.59814 4.16238 0
M  V30 2534 H 234.543 -5.7482 2.93688 0
M  V30 2535 H 235.311 -6.61204 4.82444 0
M  V30 2536 N 237.974 -0.419461 -1.51915 0
M  V30 2537 C 239.222 0.152637 -2.01523 0
M  V30 2538 C 239.543 1.44762 -1.30649 0
M  V30 2539 O 238.813 1.90997 -0.435535 0
M  V30 2540 H 237.393 0.0593966 -0.744635 0
M  V30 2541 H 240.055 -0.558073 -1.86739 0
M  V30 2542 H 239.151 0.341369 -3.10227 0
M  V30 2543 N 239.452 1.56882 -0.150215 0
M  V30 2544 C 240.4 2.18214 0.805313 0
M  V30 2545 C 241.394 1.14006 1.25296 0
M  V30 2546 O 242.6 1.3225 1.22107 0
M  V30 2547 H 238.975 0.698762 0.277913 0
M  V30 2548 H 240.946 2.97231 0.263862 0
M  V30 2549 C 239.695 2.82065 2.03309 0
M  V30 2550 H 239.018 3.61968 1.69763 0
M  V30 2551 H 240.458 3.28477 2.68103 0
M  V30 2552 C 238.917 1.80739 2.84315 0
M  V30 2553 O 239.447 1.27983 3.80767 0
M  V30 2554 N 237.653 1.4997 2.48913 0
M  V30 2555 H 237.2 1.93062 1.70542 0
M  V30 2556 H 237.158 0.824217 3.03404 0
M  V30 2557 N 240.93 -0.123565 1.57115 0
M  V30 2558 C 242.179 -0.830704 1.83799 0
M  V30 2559 C 242.492 -1.81259 0.735158 0
M  V30 2560 O 243.698 -2.56558 0.888278 0
M  V30 2561 C 242.154 -1.52802 3.25852 0
M  V30 2562 C 241.762 -0.587356 4.44133 0
M  V30 2563 C 243.506 -2.22056 3.61789 0
M  V30 2564 C 241.413 -1.28764 5.77212 0
M  V30 2565 H 240.343 -0.313967 0.685522 0
M  V30 2566 H 242.994 -0.0834359 1.8331 0
M  V30 2567 H 241.376 -2.32175 3.20797 0
M  V30 2568 H 242.55 0.172829 4.60476 0
M  V30 2569 H 240.865 -0.00201892 4.164 0
M  V30 2570 H 243.462 -2.75131 4.58483 0
M  V30 2571 H 243.805 -2.99644 2.88997 0
M  V30 2572 H 244.338 -1.49576 3.68608 0
M  V30 2573 H 241.077 -0.55314 6.53162 0
M  V30 2574 H 240.597 -2.01995 5.64764 0
M  V30 2575 H 242.276 -1.8221 6.20813 0
M  V30 2576 N 242.408 -1.52605 -0.393616 0
M  V30 2577 C 243.657 -1.66649 -1.13627 0
M  V30 2578 C 243.97 -0.410364 -1.91247 0
M  V30 2579 O 245.176 -0.430854 -2.68059 0
M  V30 2580 C 243.632 -2.9449 -2.06891 0
M  V30 2581 C 243.24 -4.27266 -1.34714 0
M  V30 2582 C 244.984 -3.17899 -2.81319 0
M  V30 2583 C 242.891 -5.46217 -2.26717 0
M  V30 2584 H 241.821 -0.62084 -0.427871 0
M  V30 2585 H 244.472 -1.791 -0.399428 0
M  V30 2586 H 242.854 -2.75774 -2.84191 0
M  V30 2587 H 244.028 -4.56518 -0.626714 0
M  V30 2588 H 242.343 -4.10081 -0.722643 0
M  V30 2589 H 244.94 -4.03949 -3.50328 0
M  V30 2590 H 245.283 -2.32777 -3.45139 0
M  V30 2591 H 245.816 -3.37159 -2.11113 0
M  V30 2592 H 242.555 -6.33733 -1.67521 0
M  V30 2593 H 242.075 -5.21283 -2.96689 0
M  V30 2594 H 243.754 -5.7991 -2.86903 0
M  V30 2595 N 243.887 0.651787 -1.4349 0
M  V30 2596 C 245.115 1.43937 -1.48626 0
M  V30 2597 C 245.53 1.8851 -0.104587 0
M  V30 2598 O 244.887 1.5958 0.885464 0
M  V30 2599 C 244.938 2.6734 -2.43334 0
M  V30 2600 O 244.659 2.24631 -3.76128 0
M  V30 2601 C 246.16 3.60683 -2.57726 0
M  V30 2602 H 243.38 0.44213 -0.504739 0
M  V30 2603 H 245.924 0.798944 -1.88248 0
M  V30 2604 H 244.079 3.2752 -2.06904 0
M  V30 2605 H 244.493 3.04485 -4.2707 0
M  V30 2606 H 245.967 4.43933 -3.28067 0
M  V30 2607 H 246.444 4.08126 -1.62265 0
M  V30 2608 H 247.05 3.06384 -2.94973 0
M  V30 2609 N 245.365 1.30045 0.890287 0
M  V30 2610 C 246.593 1.21472 1.67487 0
M  V30 2611 C 247.008 -0.223241 1.87476 0
M  V30 2612 O 246.365 -1.14828 1.41847 0
M  V30 2613 C 246.416 1.93394 3.05419 0
M  V30 2614 O 246.137 3.31576 2.86337 0
M  V30 2615 C 247.638 1.91414 3.99844 0
M  V30 2616 H 244.858 0.420604 0.522813 0
M  V30 2617 H 247.402 1.7158 1.11268 0
M  V30 2618 H 245.557 1.47099 3.58386 0
M  V30 2619 H 245.971 3.67929 3.73802 0
M  V30 2620 H 247.445 2.46285 4.94012 0
M  V30 2621 H 247.922 0.891833 4.3005 0
M  V30 2622 H 248.528 2.37496 3.52811 0
M  V30 2623 N 246.843 -1.10192 1.12674 0
M  V30 2624 C 248.259 -1.34235 0.863317 0
M  V30 2625 C 248.459 -1.95062 -0.505277 0
M  V30 2626 O 247.515 -2.19192 -1.25345 0
M  V30 2627 C 248.828 -2.2616 1.98172 0
M  V30 2628 C 250.376 -2.3969 2.0129 0
M  V30 2629 C 250.851 -3.34946 3.1237 0
M  V30 2630 N 252.342 -3.42515 3.11829 0
M  V30 2631 C 253.077 -4.16199 3.94419 0
M  V30 2632 N 252.573 -4.92747 4.87004 0
M  V30 2633 N 254.366 -4.11843 3.82547 0
M  V30 2634 H 246.517 -0.690798 2.00853 0
M  V30 2635 H 248.78 -0.366774 0.874174 0
M  V30 2636 H 248.486 -1.8868 2.96804 0
M  V30 2637 H 248.36 -3.26488 1.88906 0
M  V30 2638 H 250.747 -2.76438 1.03276 0
M  V30 2639 H 250.828 -1.39169 2.14629 0
M  V30 2640 H 250.472 -2.98923 4.10619 0
M  V30 2641 H 250.402 -4.35353 2.96269 0
M  V30 2642 H 252.893 -2.87926 2.44759 0
M  V30 2643 H 253.206 -5.46376 5.46528 0
M  V30 2644 H 251.551 -4.91862 4.91016 0
M  V30 2645 H 254.742 -3.51136 3.0955 0
M  V30 2646 H 254.915 -4.69007 4.47142 0
M  V30 2647 N 248.321 -0.919034 -1.28029 0
M  V30 2648 C 249.549 -0.570971 -1.98866 0
M  V30 2649 C 249.964 0.848996 -1.68634 0
M  V30 2650 O 249.321 1.56307 -0.942036 0
M  V30 2651 C 249.372 -0.776876 -3.53054 0
M  V30 2652 O 249.093 -2.14097 -3.82222 0
M  V30 2653 C 250.594 -0.436356 -4.41147 0
M  V30 2654 H 247.814 -0.217175 -0.634883 0
M  V30 2655 H 250.358 -1.23368 -1.63097 0
M  V30 2656 H 248.513 -0.161085 -3.87065 0
M  V30 2657 H 248.927 -2.18455 -4.76841 0
M  V30 2658 H 250.401 -0.63117 -5.4838 0
M  V30 2659 H 250.878 0.627686 -4.34692 0
M  V30 2660 H 251.484 -1.02991 -4.12641 0
M  V30 2661 N 249.799 1.42003 -0.683588 0
M  V30 2662 C 251.029 2.05448 -0.217866 0
M  V30 2663 C 251.437 1.51491 1.13346 0
M  V30 2664 O 250.78 0.653048 1.717 0
M  V30 2665 C 250.842 3.59399 -0.0850118 0
M  V30 2666 C 250.506 4.36093 -1.36645 0
M  V30 2667 C 251.503 4.66169 -2.30179 0
M  V30 2668 C 249.188 4.75578 -1.61649 0
M  V30 2669 C 251.182 5.34676 -3.46988 0
M  V30 2670 C 248.869 5.43824 -2.78745 0
M  V30 2671 C 249.867 5.73299 -3.71238 0
M  V30 2672 O 249.555 6.40142 -4.86285 0
M  V30 2673 H 249.287 0.668344 -0.101454 0
M  V30 2674 H 251.841 1.82974 -0.933248 0
M  V30 2675 H 250.071 3.80566 0.686031 0
M  V30 2676 H 251.76 4.04457 0.341973 0
M  V30 2677 H 252.526 4.36156 -2.12115 0
M  V30 2678 H 248.405 4.52025 -0.905243 0
M  V30 2679 H 251.949 5.57599 -4.19201 0
M  V30 2680 H 247.846 5.73254 -2.96732 0
M  V30 2681 H 248.614 6.58636 -4.85944 0
M  V30 2682 N 251.277 0.427512 1.51691 0
M  V30 2683 C 252.209 -0.424521 2.25234 0
M  V30 2684 C 253.222 -0.994671 1.2888 0
M  V30 2685 O 254.411 -0.890483 1.54702 0
M  V30 2686 C 251.511 -1.60479 2.98496 0
M  V30 2687 C 250.684 -1.15527 4.21868 0
M  V30 2688 C 249.743 -2.20454 4.77793 0
M  V30 2689 O 248.769 -1.8029 5.39893 0
M  V30 2690 N 249.971 -3.52831 4.60967 0
M  V30 2691 H 252.736 0.205749 2.98993 0
M  V30 2692 H 250.297 0.255867 1.59865 0
M  V30 2693 H 252.289 -2.30276 3.32799 0
M  V30 2694 H 250.859 -2.14061 2.27809 0
M  V30 2695 H 250.079 -0.284736 3.9317 0
M  V30 2696 H 251.367 -0.832173 5.01949 0
M  V30 2697 H 250.765 -3.88201 4.11481 0
M  V30 2698 H 249.322 -4.18551 4.99658 0
M  V30 2699 N 252.755 -1.56801 0.158532 0
M  V30 2700 C 253.665 -2.20916 -0.789518 0
M  V30 2701 C 254.681 -1.1969 -1.26294 0
M  V30 2702 O 255.857 -1.52308 -1.31773 0
M  V30 2703 C 252.922 -2.82727 -2.00665 0
M  V30 2704 C 251.983 -3.99114 -1.58134 0
M  V30 2705 C 251.216 -4.57968 -2.74045 0
M  V30 2706 O 251.439 -4.15704 -3.90572 0
M  V30 2707 O 250.373 -5.48047 -2.48855 0
M  V30 2708 H 254.199 -3.02464 -0.273681 0
M  V30 2709 H 251.784 -1.4924 -0.0690548 0
M  V30 2710 H 253.666 -3.21968 -2.71872 0
M  V30 2711 H 252.341 -2.04184 -2.51179 0
M  V30 2712 H 251.248 -3.64567 -0.839155 0
M  V30 2713 H 252.581 -4.79212 -1.12325 0
M  V30 2714 N 254.233 0.115231 -1.57178 0
M  V30 2715 C 255.649 0.468877 -1.52557 0
M  V30 2716 C 255.849 1.81649 -0.872125 0
M  V30 2717 O 254.905 2.48347 -0.45606 0
M  V30 2718 C 256.218 0.4499 -2.97315 0
M  V30 2719 C 257.766 0.533185 -3.08425 0
M  V30 2720 C 258.241 0.54456 -4.54751 0
M  V30 2721 N 259.732 0.605892 -4.5922 0
M  V30 2722 C 260.467 0.636203 -5.6986 0
M  V30 2723 N 259.963 0.623931 -6.89985 0
M  V30 2724 N 261.756 0.679496 -5.57978 0
M  V30 2725 H 253.907 -0.767712 -1.9804 0
M  V30 2726 H 256.17 -0.283609 -0.904583 0
M  V30 2727 H 255.876 -0.472721 -3.48509 0
M  V30 2728 H 255.75 1.27632 -3.5495 0
M  V30 2729 H 258.137 1.44623 -2.57232 0
M  V30 2730 H 258.218 -0.320995 -2.53778 0
M  V30 2731 H 257.862 -0.364452 -5.06591 0
M  V30 2732 H 257.792 1.41568 -5.07214 0
M  V30 2733 H 260.283 0.621386 -3.72756 0
M  V30 2734 H 260.596 0.649787 -7.70063 0
M  V30 2735 H 258.941 0.591296 -6.9248 0
M  V30 2736 H 262.132 0.686472 -4.63039 0
M  V30 2737 H 262.305 0.69965 -6.44212 0
M  V30 2738 N 255.711 1.52812 0.385517 0
M  V30 2739 C 256.641 1.80808 1.47752 0
M  V30 2740 C 257.622 0.660318 1.5676 0
M  V30 2741 O 258.807 0.908246 1.71652 0
M  V30 2742 C 255.937 1.98008 2.85324 0
M  V30 2743 C 254.891 3.13709 2.91154 0
M  V30 2744 C 254.217 3.16169 4.31209 0
M  V30 2745 C 255.517 4.52709 2.60483 0
M  V30 2746 H 257.211 2.72253 1.24573 0
M  V30 2747 H 254.757 1.31003 0.597839 0
M  V30 2748 H 256.71 2.16176 3.61726 0
M  V30 2749 H 255.434 1.03255 3.09848 0
M  V30 2750 H 254.093 2.95329 2.17201 0
M  V30 2751 H 253.741 2.19092 4.52778 0
M  V30 2752 H 253.441 3.93894 4.36029 0
M  V30 2753 H 254.965 3.36496 5.09512 0
M  V30 2754 H 256.379 4.71173 3.26602 0
M  V30 2755 H 254.776 5.32528 2.76648 0
M  V30 2756 H 255.846 4.59186 1.55809 0
M  V30 2757 N 257.189 -0.644168 1.43834 0
M  V30 2758 C 258.466 -1.40188 1.36406 0
M  V30 2759 C 258.846 -2.11094 0.0163124 0
M  V30 2760 O 258.194 -2.05426 -1.00062 0
M  V30 2761 C 258.404 -2.3791 2.55343 0
M  V30 2762 C 259.752 -3.01637 2.98832 0
M  V30 2763 O 260.776 -2.48237 2.55455 0
M  V30 2764 O 259.635 -3.98477 3.74003 0
M  V30 2765 H 256.729 -0.626773 0.539523 0
M  V30 2766 H 259.275 -0.670317 1.559 0
M  V30 2767 H 258.047 -1.84525 3.4506 0
M  V30 2768 H 257.67 -3.18503 2.37995 0
M  V30 2769 N 258.668 -1.30515 -0.883378 0
M  V30 2770 C 259.896 -1.22359 -1.66841 0
M  V30 2771 C 260.311 0.213296 -1.87591 0
M  V30 2772 O 259.668 1.14075 -1.42454 0
M  V30 2773 C 259.719 -1.95011 -3.04389 0
M  V30 2774 O 259.44 -3.3309 -2.84575 0
M  V30 2775 C 260.941 -1.93532 -3.98824 0
M  V30 2776 H 258.161 -0.423371 -0.520575 0
M  V30 2777 H 260.705 -1.72167 -1.10357 0
M  V30 2778 H 258.86 -1.48997 -3.57601 0
M  V30 2779 H 259.274 -3.69907 -3.71846 0
M  V30 2780 H 260.748 -2.48902 -4.92699 0
M  V30 2781 H 261.225 -0.914627 -4.29571 0
M  V30 2782 H 261.831 -2.39364 -3.51547 0
M  V30 2783 N 260.146 1.09593 -1.13257 0
M  V30 2784 C 261.076 2.18214 -0.830946 0
M  V30 2785 C 262.057 1.68812 0.208966 0
M  V30 2786 O 263.242 1.9408 0.0682666 0
M  V30 2787 C 260.372 3.46051 -0.294296 0
M  V30 2788 C 259.326 4.08778 -1.26826 0
M  V30 2789 C 258.652 5.31419 -0.591449 0
M  V30 2790 C 259.952 4.51476 -2.62615 0
M  V30 2791 H 261.646 2.43703 -1.73923 0
M  V30 2792 H 259.192 1.17128 -0.837675 0
M  V30 2793 H 261.145 4.2134 -0.0709606 0
M  V30 2794 H 259.869 3.20079 0.649366 0
M  V30 2795 H 258.528 3.35505 -1.47756 0
M  V30 2796 H 258.176 5.01727 0.357633 0
M  V30 2797 H 257.876 5.74341 -1.24123 0
M  V30 2798 H 259.4 6.09433 -0.377355 0
M  V30 2799 H 260.814 5.17999 -2.45663 0
M  V30 2800 H 259.211 5.05277 -3.23752 0
M  V30 2801 H 260.281 3.63962 -3.20406 0
M  V30 2802 N 261.624 0.925811 1.2754 0
M  V30 2803 C 262.534 0.428993 2.30644 0
M  V30 2804 C 263.55 -0.489387 1.66976 0
M  V30 2805 O 264.726 -0.372653 1.97922 0
M  V30 2806 C 261.791 -0.311967 3.45294 0
M  V30 2807 C 260.852 0.641098 4.24486 0
M  V30 2808 C 260.085 -0.0645955 5.33661 0
M  V30 2809 O 260.308 -1.28429 5.55754 0
M  V30 2810 O 259.242 0.606265 5.98839 0
M  V30 2811 H 263.068 1.28504 2.75173 0
M  V30 2812 H 260.653 0.691086 1.32455 0
M  V30 2813 H 262.535 -0.729972 4.15029 0
M  V30 2814 H 261.21 -1.14365 3.02824 0
M  V30 2815 H 260.117 1.10874 3.57292 0
M  V30 2816 H 261.45 1.43995 4.70666 0
M  V30 2817 N 263.102 -1.41638 0.69111 0
M  V30 2818 C 264.049 -2.30789 0.0229705 0
M  V30 2819 C 265.019 -1.46863 -0.775911 0
M  V30 2820 O 266.204 -1.75661 -0.74485 0
M  V30 2821 C 263.344 -3.32868 -0.910666 0
M  V30 2822 C 262.457 -4.31875 -0.103874 0
M  V30 2823 C 261.592 -5.21024 -1.03475 0
M  V30 2824 C 260.631 -6.11702 -0.220598 0
M  V30 2825 N 259.768 -6.93349 -1.10504 0
M  V30 2826 H 264.608 -2.87366 0.788978 0
M  V30 2827 H 262.145 -1.41535 0.400794 0
M  V30 2828 H 264.103 -3.90596 -1.46597 0
M  V30 2829 H 262.733 -2.77851 -1.64312 0
M  V30 2830 H 261.785 -3.76131 0.568285 0
M  V30 2831 H 263.097 -4.96003 0.527504 0
M  V30 2832 H 262.251 -5.83565 -1.65943 0
M  V30 2833 H 260.99 -4.57112 -1.69999 0
M  V30 2834 H 259.995 -5.48215 0.417187 0
M  V30 2835 H 261.22 -6.77668 0.440784 0
M  V30 2836 H 259.166 -6.3205 -1.75638 0
M  V30 2837 H 259.083 -7.54146 -0.529125 0
M  V30 2838 H 260.351 -7.60362 -1.71667 0
M  V30 2839 N 264.58 -0.43555 -1.51462 0
M  V30 2840 C 265.826 0.131709 -2.02372 0
M  V30 2841 C 266.159 1.42516 -1.3192 0
M  V30 2842 O 265.434 1.89606 -0.433573 0
M  V30 2843 C 265.717 0.352301 -3.58373 0
M  V30 2844 C 265.57 -0.959676 -4.39443 0
M  V30 2845 C 266.889 1.12286 -4.25535 0
M  V30 2846 H 264.008 0.0463936 -0.735538 0
M  V30 2847 H 266.65 -0.574197 -1.81116 0
M  V30 2848 H 264.8 0.9536 -3.76615 0
M  V30 2849 H 266.472 -1.59482 -4.32855 0
M  V30 2850 H 264.715 -1.56468 -4.04599 0
M  V30 2851 H 265.386 -0.759394 -5.46752 0
M  V30 2852 H 267.862 0.613545 -4.11552 0
M  V30 2853 H 266.738 1.24598 -5.34571 0
M  V30 2854 H 266.999 2.15048 -3.86273 0
M  V30 2855 N 266.058 1.56714 -0.166846 0
M  V30 2856 C 267.474 1.58473 0.189372 0
M  V30 2857 C 267.674 1.18201 1.63189 0
M  V30 2858 O 266.73 0.891528 2.36237 0
M  V30 2859 C 268.043 3.00573 -0.0873872 0
M  V30 2860 C 269.591 3.1299 -0.0252443 0
M  V30 2861 C 270.066 4.57174 -0.274934 0
M  V30 2862 N 271.557 4.62665 -0.222553 0
M  V30 2863 C 272.292 5.72072 -0.389985 0
M  V30 2864 N 271.788 6.90054 -0.616229 0
M  V30 2865 N 273.581 5.61153 -0.326202 0
M  V30 2866 H 265.732 1.8118 -1.10849 0
M  V30 2867 H 267.995 0.839525 -0.440342 0
M  V30 2868 H 267.701 3.34497 -1.0865 0
M  V30 2869 H 267.575 3.72019 0.623037 0
M  V30 2870 H 269.962 2.78895 0.96444 0
M  V30 2871 H 270.043 2.43989 -0.768309 0
M  V30 2872 H 269.687 4.91976 -1.26181 0
M  V30 2873 H 269.617 5.24328 0.48869 0
M  V30 2874 H 272.108 3.77863 -0.0531512 0
M  V30 2875 H 272.421 7.69311 -0.733559 0
M  V30 2876 H 270.766 6.91927 -0.652791 0
M  V30 2877 H 273.957 4.67859 -0.150072 0
M  V30 2878 H 274.13 6.46364 -0.460116 0
M  V30 2879 N 267.536 -0.106894 1.57237 0
M  V30 2880 C 268.813 -0.843526 1.76477 0
M  V30 2881 C 269.193 -1.97499 0.745464 0
M  V30 2882 O 268.541 -2.27357 -0.228306 0
M  V30 2883 C 268.751 -1.34903 3.21873 0
M  V30 2884 C 270.099 -1.79654 3.8472 0
M  V30 2885 O 271.123 -1.44554 3.2555 0
M  V30 2886 O 269.982 -2.44515 4.88748 0
M  V30 2887 H 267.076 -0.401468 0.723016 0
M  V30 2888 H 269.622 -0.0896927 1.69463 0
M  V30 2889 H 268.394 -0.53781 3.87586 0
M  V30 2890 H 268.017 -2.16522 3.33473 0
M  V30 2891 N 269.014 -1.53014 -0.377408 0
M  V30 2892 C 269.977 -1.77957 -1.44444 0
M  V30 2893 C 270.977 -0.649763 -1.47087 0
M  V30 2894 O 272.167 -0.917897 -1.48055 0
M  V30 2895 C 269.299 -1.89089 -2.83651 0
M  V30 2896 H 270.492 -2.73243 -1.23606 0
M  V30 2897 H 268.045 -1.43912 -0.609844 0
M  V30 2898 H 268.78 -0.958293 -3.09818 0
M  V30 2899 H 268.565 -2.71254 -2.83132 0
M  V30 2900 H 270.055 -2.1002 -3.60945 0
M  V30 2901 N 270.492 0.636531 -1.44174 0
M  V30 2902 C 271.74 1.39343 -1.46383 0
M  V30 2903 C 272.061 1.94766 -0.0955715 0
M  V30 2904 O 271.331 1.75452 0.871395 0
M  V30 2905 H 269.911 0.517199 -0.538994 0
M  V30 2906 H 272.573 0.74957 -1.7991 0
M  V30 2907 H 271.669 2.22746 -2.18611 0
M  V30 2908 N 271.97 1.30982 0.876444 0
M  V30 2909 C 273.219 1.19658 1.62373 0
M  V30 2910 C 273.532 -0.245636 1.94052 0
M  V30 2911 O 274.738 -0.48049 2.67214 0
M  V30 2912 C 273.194 2.09433 2.92687 0
M  V30 2913 C 272.802 3.58613 2.68516 0
M  V30 2914 C 274.546 2.06893 3.70669 0
M  V30 2915 C 272.453 4.40416 3.94699 0
M  V30 2916 H 271.383 0.444268 0.609214 0
M  V30 2917 H 274.034 1.55791 0.969605 0
M  V30 2918 H 272.416 1.66191 3.59439 0
M  V30 2919 H 273.59 4.10058 2.10212 0
M  V30 2920 H 271.905 3.63063 2.03898 0
M  V30 2921 H 274.502 2.65258 4.64265 0
M  V30 2922 H 274.845 1.05448 4.02724 0
M  V30 2923 H 275.378 2.48301 3.10792 0
M  V30 2924 H 272.117 5.42591 3.67798 0
M  V30 2925 H 271.637 3.93731 4.52477 0
M  V30 2926 H 273.316 4.52294 4.62644 0
M  V30 2927 N 273.449 -1.08991 1.13837 0
M  V30 2928 C 274.396 -2.15748 0.819835 0
M  V30 2929 C 275.366 -1.64636 -0.220026 0
M  V30 2930 O 276.551 -1.90582 -0.0912757 0
M  V30 2931 C 273.691 -3.4382 0.296913 0
M  V30 2932 C 272.804 -4.0881 1.39636 0
M  V30 2933 C 271.939 -5.24655 0.831314 0
M  V30 2934 C 270.978 -5.81575 1.90886 0
M  V30 2935 N 270.115 -6.88774 1.36142 0
M  V30 2936 H 274.955 -2.42338 1.73426 0
M  V30 2937 H 272.492 -1.18935 0.865613 0
M  V30 2938 H 274.45 -4.17193 -0.0244339 0
M  V30 2939 H 273.08 -3.17535 -0.580628 0
M  V30 2940 H 272.132 -3.33258 1.83422 0
M  V30 2941 H 273.444 -4.47141 2.21058 0
M  V30 2942 H 272.598 -6.04942 0.461515 0
M  V30 2943 H 271.337 -4.87698 -0.013932 0
M  V30 2944 H 270.342 -4.99946 2.28767 0
M  V30 2945 H 271.567 -6.20592 2.75758 0
M  V30 2946 H 269.513 -6.53788 0.538254 0
M  V30 2947 H 269.43 -7.25898 2.11208 0
M  V30 2948 H 270.698 -7.72806 1.01933 0
M  V30 2949 N 274.927 -0.932562 -1.27047 0
M  V30 2950 C 276.173 -0.576412 -1.94436 0
M  V30 2951 C 276.506 0.880891 -1.73072 0
M  V30 2952 O 275.781 1.62905 -1.06264 0
M  V30 2953 C 276.064 -0.909031 -3.48437 0
M  V30 2954 C 275.917 -2.42044 -3.79123 0
M  V30 2955 C 277.236 -0.418341 -4.38107 0
M  V30 2956 H 274.355 -0.210888 -0.706184 0
M  V30 2957 H 276.997 -1.16522 -1.50075 0
M  V30 2958 H 275.147 -0.407947 -3.86352 0
M  V30 2959 H 276.819 -2.99359 -3.50973 0
M  V30 2960 H 275.062 -2.86758 -3.25503 0
M  V30 2961 H 275.733 -2.6037 -4.86736 0
M  V30 2962 H 278.209 -0.847856 -4.0737 0
M  V30 2963 H 277.085 -0.679981 -5.44672 0
M  V30 2964 H 277.346 0.681642 -4.36814 0
M  V30 2965 N 276.405 1.4127 -0.698611 0
M  V30 2966 C 277.645 2.03044 -0.235062 0
M  V30 2967 C 278.009 1.54146 1.14468 0
M  V30 2968 O 279.21 2.07867 1.70425 0
M  V30 2969 C 277.481 3.56192 -0.293651 0
M  V30 2970 S 279.04 4.38696 0.0954053 0
M  V30 2971 H 275.858 0.704697 -0.0944648 0
M  V30 2972 H 278.46 1.72656 -0.917064 0
M  V30 2973 H 277.164 3.89274 -1.29977 0
M  V30 2974 H 276.695 3.91285 0.407397 0
M  V30 2975 H 278.71 4.78257 1.3223 0
M  V30 2976 N 277.883 0.443576 1.51229 0
M  V30 2977 C 279.108 -0.121648 2.07043 0
M  V30 2978 C 279.533 -1.35156 1.30823 0
M  V30 2979 O 278.891 -1.7793 0.347934 0
M  V30 2980 C 278.939 -0.41624 3.5819 0
M  V30 2981 O 278.043 -1.50163 3.8409 0
M  V30 2982 H 277.384 0.000871367 0.663999 0
M  V30 2983 H 279.914 0.626706 1.94765 0
M  V30 2984 H 279.924 -0.664867 4.02546 0
M  V30 2985 H 278.599 0.482653 4.1309 0
M  V30 2986 H 277.176 -1.24248 3.51592 0
M  V30 2987 N 279.361 -1.56624 0.175154 0
M  V30 2988 C 280.609 -1.96609 -0.467885 0
M  V30 2989 C 280.93 -1.06238 -1.63519 0
M  V30 2990 O 280.2 -0.129523 -1.95471 0
M  V30 2991 H 278.78 -0.726008 -0.175845 0
M  V30 2992 H 281.442 -1.93195 0.257234 0
M  V30 2993 H 280.538 -3.00989 -0.825342 0
M  V30 2994 N 280.839 0.0985539 -1.57292 0
M  V30 2995 C 282.087 0.801092 -1.85545 0
M  V30 2996 C 282.408 1.79438 -0.763353 0
M  V30 2997 O 281.678 1.94763 0.21073 0
M  V30 2998 H 280.258 0.29884 -0.684619 0
M  V30 2999 H 282.92 0.0810064 -1.94732 0
M  V30 3000 H 282.016 1.3338 -2.82163 0
M  V30 3001 N 282.317 1.53212 0.369288 0
M  V30 3002 C 283.566 1.68436 1.10961 0
M  V30 3003 C 283.879 0.440738 1.9057 0
M  V30 3004 O 285.085 0.473446 2.6734 0
M  V30 3005 C 283.541 2.97744 2.0218 0
M  V30 3006 C 283.149 4.29355 1.279 0
M  V30 3007 C 284.893 3.22334 2.76226 0
M  V30 3008 C 282.8 5.49755 2.17999 0
M  V30 3009 H 281.73 0.627568 0.41794 0
M  V30 3010 H 284.381 1.79713 0.370884 0
M  V30 3011 H 282.763 2.8026 2.79768 0
M  V30 3012 H 283.937 4.57458 0.554007 0
M  V30 3013 H 282.252 4.11179 0.657311 0
M  V30 3014 H 284.849 4.09471 3.43857 0
M  V30 3015 H 285.192 2.38238 3.41392 0
M  V30 3016 H 285.725 3.40475 2.05723 0
M  V30 3017 H 282.464 6.36318 1.57417 0
M  V30 3018 H 281.984 5.25937 2.88359 0
M  V30 3019 H 283.663 5.84401 2.77641 0
M  V30 3020 N 283.795 -0.628877 1.44509 0
M  V30 3021 C 285.041 -1.39045 1.47629 0
M  V30 3022 C 285.374 -1.93892 0.109343 0
M  V30 3023 O 284.649 -1.7379 -0.87334 0
M  V30 3024 C 284.932 -2.55408 2.53848 0
M  V30 3025 C 284.785 -2.05896 3.99909 0
M  V30 3026 C 286.104 -3.5759 2.56549 0
M  V30 3027 H 283.223 -0.504232 0.537512 0
M  V30 3028 H 285.865 -0.710854 1.76201 0
M  V30 3029 H 284.015 -3.13384 2.29615 0
M  V30 3030 H 285.687 -1.52734 4.35282 0
M  V30 3031 H 283.93 -1.37061 4.11578 0
M  V30 3032 H 284.601 -2.89681 4.69882 0
M  V30 3033 H 287.077 -3.09419 2.78207 0
M  V30 3034 H 285.953 -4.36527 3.32769 0
M  V30 3035 H 286.214 -4.11808 1.60832 0
M  V30 3036 N 285.273 -1.31445 -0.869486 0
M  V30 3037 C 286.521 -1.20918 -1.61936 0
M  V30 3038 C 286.842 0.232683 -1.93607 0
M  V30 3039 O 286.112 1.15352 -1.58338 0
M  V30 3040 H 284.692 -0.44454 -0.600328 0
M  V30 3041 H 287.354 -1.64776 -1.0409 0
M  V30 3042 H 286.45 -1.78124 -2.56278 0
M  V30 3043 N 286.751 1.08385 -1.14413 0
M  V30 3044 C 287.681 2.17321 -0.854044 0
M  V30 3045 C 288.662 1.69024 0.191049 0
M  V30 3046 O 289.847 1.94141 0.0476779 0
M  V30 3047 C 286.977 3.45719 -0.330983 0
M  V30 3048 C 285.931 4.07409 -1.31155 0
M  V30 3049 C 285.257 5.30762 -0.64778 0
M  V30 3050 C 286.557 4.48665 -2.67388 0
M  V30 3051 H 288.251 2.41845 -1.76498 0
M  V30 3052 H 285.797 1.16233 -0.850051 0
M  V30 3053 H 287.75 4.21241 -0.115645 0
M  V30 3054 H 286.474 3.2075 0.615381 0
M  V30 3055 H 285.133 3.33919 -1.51306 0
M  V30 3056 H 284.781 5.02078 0.304398 0
M  V30 3057 H 284.481 5.72992 -1.30207 0
M  V30 3058 H 286.005 6.08998 -0.441972 0
M  V30 3059 H 287.419 5.15364 -2.51143 0
M  V30 3060 H 285.816 5.01814 -3.29093 0
M  V30 3061 H 286.886 3.60543 -3.24248 0
M  V30 3062 N 288.23 0.939286 1.26551 0
M  V30 3063 C 289.478 0.58469 1.93457 0
M  V30 3064 C 289.799 -0.878774 1.74076 0
M  V30 3065 O 289.069 -1.62421 1.09528 0
M  V30 3066 H 287.649 0.21325 0.715914 0
M  V30 3067 H 290.311 1.1942 1.54029 0
M  V30 3068 H 289.407 0.800849 3.0165 0
M  V30 3069 N 289.708 -1.40897 0.706093 0
M  V30 3070 C 290.618 -2.3455 0.0482286 0
M  V30 3071 C 291.634 -1.56796 -0.754396 0
M  V30 3072 O 292.81 -1.89228 -0.689538 0
M  V30 3073 C 289.875 -3.35625 -0.869303 0
M  V30 3074 C 288.936 -4.29261 -0.0576994 0
M  V30 3075 C 288.169 -5.25508 -0.931531 0
M  V30 3076 O 288.392 -5.27472 -2.17092 0
M  V30 3077 O 287.326 -6.00727 -0.375587 0
M  V30 3078 H 291.152 -2.92407 0.820476 0
M  V30 3079 H 288.737 -1.4193 0.4665 0
M  V30 3080 H 290.619 -3.97635 -1.39514 0
M  V30 3081 H 289.294 -2.80196 -1.62086 0
M  V30 3082 H 288.201 -3.70566 0.512988 0
M  V30 3083 H 289.534 -4.87817 0.655426 0
M  V30 3084 N 291.186 -0.45159 -1.50991 0
M  V30 3085 C 292.414 0.108334 -2.06616 0
M  V30 3086 C 292.829 1.35224 -1.31757 0
M  V30 3087 O 292.186 1.78475 -0.381174 0
M  V30 3088 C 292.237 0.41619 -3.59096 0
M  V30 3089 O 291.958 -0.778361 -4.3113 0
M  V30 3090 C 293.459 1.02523 -4.31282 0
M  V30 3091 H 290.679 0.00159995 -0.670998 0
M  V30 3092 H 293.223 -0.634771 -1.94399 0
M  V30 3093 H 291.378 1.10921 -3.71181 0
M  V30 3094 H 291.792 -0.511181 -5.22003 0
M  V30 3095 H 293.266 1.19053 -5.39009 0
M  V30 3096 H 293.743 2.01013 -3.905 0
M  V30 3097 H 294.349 0.371173 -4.23677 0
M  V30 3098 N 292.664 1.56529 -0.183458 0
M  V30 3099 C 293.91 1.97537 0.459036 0
M  V30 3100 C 294.243 1.06989 1.62071 0
M  V30 3101 O 293.518 0.11948 1.94133 0
M  V30 3102 C 293.801 3.47874 0.930368 0
M  V30 3103 C 293.654 4.492 -0.232317 0
M  V30 3104 C 294.973 4.01612 1.79989 0
M  V30 3105 H 292.092 0.718204 0.165383 0
M  V30 3106 H 294.734 1.88042 -0.272038 0
M  V30 3107 H 292.884 3.56095 1.55333 0
M  V30 3108 H 294.556 4.53027 -0.86972 0
M  V30 3109 H 292.799 4.24657 -0.885928 0
M  V30 3110 H 293.47 5.51823 0.139796 0
M  V30 3111 H 295.946 3.96097 1.27461 0
M  V30 3112 H 294.822 5.07195 2.09867 0
M  V30 3113 H 295.083 3.46163 2.74998 0
M  V30 3114 N 294.142 -0.090211 1.57342 0
M  V30 3115 C 295.089 -1.10909 2.02405 0
M  V30 3116 C 296.059 -1.39523 0.901252 0
M  V30 3117 O 297.244 -1.50903 1.1676 0
M  V30 3118 C 294.384 -2.42277 2.45755 0
M  V30 3119 C 293.497 -2.20352 3.71576 0
M  V30 3120 C 292.632 -3.45154 4.03785 0
M  V30 3121 C 291.671 -3.18512 5.22701 0
M  V30 3122 N 290.808 -4.35593 5.50639 0
M  V30 3123 H 295.648 -0.71782 2.89225 0
M  V30 3124 H 293.185 -0.342901 1.43048 0
M  V30 3125 H 295.143 -3.18951 2.68935 0
M  V30 3126 H 293.773 -2.79242 1.61938 0
M  V30 3127 H 292.825 -1.34458 3.55844 0
M  V30 3128 H 294.137 -1.96661 4.58395 0
M  V30 3129 H 293.291 -4.30233 4.27767 0
M  V30 3130 H 292.03 -3.71904 3.15498 0
M  V30 3131 H 291.035 -2.31827 4.98534 0
M  V30 3132 H 292.26 -2.93103 6.12591 0
M  V30 3133 H 290.206 -4.6241 4.6531 0
M  V30 3134 H 290.123 -4.1511 6.31838 0
M  V30 3135 H 291.391 -5.21723 5.7916 0
M  V30 3136 N 295.62 -1.53406 -0.361157 0
M  V30 3137 C 296.897 -1.60411 -1.11927 0
M  V30 3138 C 297.277 -0.414385 -2.06993 0
M  V30 3139 O 296.625 0.594976 -2.20618 0
M  V30 3140 C 296.835 -2.95652 -1.85448 0
M  V30 3141 C 298.183 -3.50386 -2.39823 0
M  V30 3142 O 299.207 -2.97711 -1.95568 0
M  V30 3143 O 298.066 -4.42482 -3.20737 0
M  V30 3144 H 295.16 -0.64811 -0.513695 0
M  V30 3145 H 297.706 -1.65749 -0.364065 0
M  V30 3146 H 296.478 -3.73682 -1.16091 0
M  V30 3147 H 296.101 -2.93825 -2.67866 0
M  V30 3148 N 297.098 0.621204 -1.44841 0
M  V30 3149 C 298.514 0.94048 -1.28946 0
M  V30 3150 C 298.714 2.00154 -0.23249 0
M  V30 3151 O 297.77 2.49651 0.378237 0
M  V30 3152 C 299.083 1.39433 -2.66419 0
M  V30 3153 C 300.631 1.50927 -2.74208 0
M  V30 3154 C 301.106 1.99692 -4.12174 0
M  V30 3155 N 302.597 2.06947 -4.144 0
M  V30 3156 C 303.332 2.45871 -5.1801 0
M  V30 3157 N 302.828 2.83862 -6.31977 0
M  V30 3158 N 304.621 2.46092 -5.05366 0
M  V30 3159 H 296.772 -0.0803548 -2.12248 0
M  V30 3160 H 299.035 0.0266913 -0.947624 0
M  V30 3161 H 298.741 0.688925 -3.44887 0
M  V30 3162 H 298.615 2.36347 -2.93973 0
M  V30 3163 H 301.002 2.20561 -1.96053 0
M  V30 3164 H 301.083 0.523627 -2.50383 0
M  V30 3165 H 300.727 1.30649 -4.90809 0
M  V30 3166 H 300.657 2.99146 -4.33381 0
M  V30 3167 H 303.148 1.80232 -3.32152 0
M  V30 3168 H 303.461 3.12405 -7.0684 0
M  V30 3169 H 301.806 2.8159 -6.35399 0
M  V30 3170 H 304.997 2.1581 -4.15384 0
M  V30 3171 H 305.17 2.76102 -5.86235 0
M  V30 3172 N 298.576 1.31904 0.862503 0
M  V30 3173 C 299.539 1.20131 1.95195 0
M  V30 3174 C 300.539 0.126409 1.60302 0
M  V30 3175 O 301.729 0.376234 1.70089 0
M  V30 3176 C 298.861 0.845691 3.30244 0
M  V30 3177 H 300.054 2.16943 2.07064 0
M  V30 3178 H 297.607 1.15622 1.05172 0
M  V30 3179 H 298.342 -0.120957 3.24074 0
M  V30 3180 H 298.127 1.62276 3.56944 0
M  V30 3181 H 299.617 0.787418 4.10109 0
M  V30 3182 N 300.054 -1.07777 1.14986 0
M  V30 3183 C 301.302 -1.79934 0.920235 0
M  V30 3184 C 301.623 -1.86955 -0.554336 0
M  V30 3185 O 300.893 -1.36731 -1.40291 0
M  V30 3186 H 299.473 -0.666424 0.337473 0
M  V30 3187 H 302.135 -1.3027 1.44968 0
M  V30 3188 H 301.231 -2.82539 1.32583 0
M  V30 3189 N 301.532 -0.945985 -1.26051 0
M  V30 3190 C 302.462 -0.477172 -2.28572 0
M  V30 3191 C 303.443 0.472032 -1.63419 0
M  V30 3192 O 304.628 0.372853 -1.90587 0
M  V30 3193 C 301.758 0.253975 -3.4637 0
M  V30 3194 C 300.712 -0.609135 -4.23643 0
M  V30 3195 C 300.038 0.252252 -5.34105 0
M  V30 3196 C 301.338 -1.8829 -4.8718 0
M  V30 3197 H 303.032 -1.33402 -2.68038 0
M  V30 3198 H 300.578 -0.642904 -1.28852 0
M  V30 3199 H 302.531 0.593016 -4.17207 0
M  V30 3200 H 301.255 1.145 -3.05871 0
M  V30 3201 H 299.914 -0.931138 -3.54578 0
M  V30 3202 H 299.562 1.14278 -4.89846 0
M  V30 3203 H 299.262 -0.32188 -5.86718 0
M  V30 3204 H 300.786 0.586454 -6.07777 0
M  V30 3205 H 302.2 -1.61081 -5.50205 0
M  V30 3206 H 300.597 -2.40199 -5.49931 0
M  V30 3207 H 301.667 -2.59134 -4.09851 0
M  V30 3208 N 303.011 1.40521 -0.713556 0
M  V30 3209 C 303.941 2.33381 -0.0743864 0
M  V30 3210 C 304.922 1.52784 0.747735 0
M  V30 3211 O 306.107 1.81258 0.697071 0
M  V30 3212 C 303.237 3.36748 0.849598 0
M  V30 3213 C 302.191 4.27793 0.133247 0
M  V30 3214 C 301.517 5.21679 1.17281 0
M  V30 3215 C 302.817 5.12415 -1.01134 0
M  V30 3216 H 304.511 2.87081 -0.850007 0
M  V30 3217 H 302.057 1.38034 -0.410201 0
M  V30 3218 H 304.01 4.00648 1.30612 0
M  V30 3219 H 302.734 2.81439 1.65709 0
M  V30 3220 H 301.393 3.65342 -0.303426 0
M  V30 3221 H 301.041 4.62677 1.9733 0
M  V30 3222 H 300.741 5.83435 0.698397 0
M  V30 3223 H 302.265 5.88456 1.62947 0
M  V30 3224 H 303.679 5.69781 -0.634274 0
M  V30 3225 H 302.076 5.83203 -1.41399 0
M  V30 3226 H 303.146 4.48514 -1.84292 0
M  V30 3227 N 304.489 0.459591 1.5075 0
M  V30 3228 C 305.419 -0.330644 2.31147 0
M  V30 3229 C 306.4 -1.00087 1.37538 0
M  V30 3230 O 307.585 -1.00025 1.66459 0
M  V30 3231 C 304.715 -1.41958 3.16962 0
M  V30 3232 C 303.669 -0.871608 4.19031 0
M  V30 3233 C 302.995 -2.05797 4.9351 0
M  V30 3234 C 304.295 0.109251 5.22186 0
M  V30 3235 H 305.989 0.340336 2.97459 0
M  V30 3236 H 303.535 0.165119 1.4305 0
M  V30 3237 H 305.488 -1.9798 3.71997 0
M  V30 3238 H 304.212 -2.11917 2.48513 0
M  V30 3239 H 302.871 -0.333442 3.6508 0
M  V30 3240 H 302.519 -2.74427 4.21544 0
M  V30 3241 H 302.219 -1.6976 5.62544 0
M  V30 3242 H 303.743 -2.62331 5.51375 0
M  V30 3243 H 305.157 -0.361405 5.7216 0
M  V30 3244 H 303.554 0.383316 5.98875 0
M  V30 3245 H 304.624 1.03887 4.73641 0
M  V30 3246 N 305.967 -1.56429 0.191757 0
M  V30 3247 C 306.899 -2.16154 -0.762245 0
M  V30 3248 C 307.912 -1.12247 -1.17917 0
M  V30 3249 O 309.101 -1.39353 -1.11548 0
M  V30 3250 C 306.201 -2.70606 -2.04024 0
M  V30 3251 C 305.374 -3.99381 -1.78364 0
M  V30 3252 C 304.433 -4.38692 -2.90578 0
M  V30 3253 O 303.459 -5.06179 -2.6033 0
M  V30 3254 N 304.661 -4.01922 -4.18854 0
M  V30 3255 H 307.426 -2.98643 -0.251526 0
M  V30 3256 H 304.987 -1.61897 0.00967373 0
M  V30 3257 H 306.979 -2.93891 -2.78227 0
M  V30 3258 H 305.549 -1.9259 -2.46227 0
M  V30 3259 H 304.769 -3.84262 -0.879581 0
M  V30 3260 H 306.057 -4.83445 -1.58614 0
M  V30 3261 H 305.455 -3.47631 -4.46283 0
M  V30 3262 H 304.012 -4.30165 -4.89695 0
M  V30 3263 N 307.445 0.0818655 -1.57387 0
M  V30 3264 C 308.375 1.09885 -2.06028 0
M  V30 3265 C 309.356 1.4098 -0.951774 0
M  V30 3266 O 310.541 1.50781 -1.22387 0
M  V30 3267 C 307.671 2.4151 -2.4958 0
M  V30 3268 C 306.625 2.24792 -3.64215 0
M  V30 3269 C 305.951 3.61712 -3.93787 0
M  V30 3270 C 307.251 1.67749 -4.94629 0
M  V30 3271 H 308.945 0.694128 -2.91243 0
M  V30 3272 H 306.491 0.332448 -1.4011 0
M  V30 3273 H 308.444 3.12939 -2.82219 0
M  V30 3274 H 307.168 2.83943 -1.61381 0
M  V30 3275 H 305.827 1.55807 -3.31843 0
M  V30 3276 H 305.475 4.01697 -3.02735 0
M  V30 3277 H 305.175 3.51368 -4.70971 0
M  V30 3278 H 306.699 4.34587 -4.28913 0
M  V30 3279 H 308.113 2.29032 -5.25564 0
M  V30 3280 H 306.51 1.68128 -5.76067 0
M  V30 3281 H 307.58 0.638059 -4.80684 0
M  V30 3282 N 308.923 1.53595 0.353017 0
M  V30 3283 C 309.886 1.80232 1.41594 0
M  V30 3284 C 310.886 0.673081 1.46035 0
M  V30 3285 O 312.076 0.941335 1.46576 0
M  V30 3286 C 309.208 1.93578 2.80607 0
M  V30 3287 H 310.401 2.75174 1.19244 0
M  V30 3288 H 307.954 1.44864 0.586872 0
M  V30 3289 H 308.689 1.00746 3.08254 0
M  V30 3290 H 308.474 2.75724 2.78781 0
M  V30 3291 H 309.964 2.15735 3.57558 0
M  V30 3292 N 310.401 -0.613514 1.45168 0
M  V30 3293 C 311.349 -1.74572 1.53712 0
M  V30 3294 C 312.343 -1.64426 0.407505 0
M  V30 3295 O 313.549 -1.70291 0.583176 0
M  V30 3296 H 309.924 -0.576641 0.48269 0
M  V30 3297 H 311.895 -1.64492 2.48968 0
M  V30 3298 C 310.644 -3.12943 1.51532 0
M  V30 3299 H 309.967 -3.21407 2.37776 0
M  V30 3300 H 311.407 -3.9201 1.61569 0
M  V30 3301 C 309.866 -3.36053 0.238798 0
M  V30 3302 O 310.396 -3.95837 -0.6838 0
M  V30 3303 N 308.602 -2.9028 0.136359 0
M  V30 3304 H 308.149 -2.41811 0.887999 0
M  V30 3305 H 308.107 -3.06116 -0.716944 0
M  V30 3306 N 311.879 -1.3236 -0.855495 0
M  V30 3307 C 312.809 -1.23833 -1.97958 0
M  V30 3308 C 313.79 -0.122361 -1.69659 0
M  V30 3309 O 314.975 -0.30939 -1.9172 0
M  V30 3310 C 312.105 -0.959772 -3.33775 0
M  V30 3311 C 311.059 -2.03689 -3.76424 0
M  V30 3312 C 310.385 -1.61075 -5.09862 0
M  V30 3313 C 311.685 -3.4518 -3.9198 0
M  V30 3314 H 313.379 -2.1788 -2.0535 0
M  V30 3315 H 310.925 -1.04891 -0.986605 0
M  V30 3316 H 312.878 -0.886678 -4.11966 0
M  V30 3317 H 311.602 0.0163404 -3.26596 0
M  V30 3318 H 310.261 -2.10012 -3.00484 0
M  V30 3319 H 309.909 -0.622107 -4.99138 0
M  V30 3320 H 309.609 -2.33143 -5.39368 0
M  V30 3321 H 311.133 -1.55201 -5.90546 0
M  V30 3322 H 312.547 -3.4145 -4.60526 0
M  V30 3323 H 310.944 -4.1559 -4.32903 0
M  V30 3324 H 312.014 -3.84903 -2.94919 0
M  V30 3325 N 313.357 1.07166 -1.15556 0
M  V30 3326 C 314.768 1.6127 -0.940693 0
M  V30 3327 C 315.119 1.89251 0.517551 0
M  V30 3328 O 314.244 1.65937 1.38903 0
M  V30 3329 C 314.839 2.92993 -1.7012 0
M  V30 3330 C 313.398 3.43832 -1.53156 0
M  V30 3331 C 312.545 2.1786 -1.71558 0
M  V30 3332 H 315.496 0.90229 -1.30554 0
M  V30 3333 H 315.517 3.62007 -1.17181 0
M  V30 3334 H 315.029 2.72596 -2.76248 0
M  V30 3335 H 313.13 3.69307 -0.494294 0
M  V30 3336 H 313.243 4.19747 -2.30975 0
M  V30 3337 H 311.607 2.2765 -1.14225 0
M  V30 3338 H 312.39 1.99956 -2.79056 0
M  V30 3339 N 314.835 0.952656 1.25548 0
M  V30 3340 C 316.063 0.623496 1.97282 0
M  V30 3341 C 316.478 -0.803987 1.70826 0
M  V30 3342 O 315.835 -1.53755 0.983147 0
M  V30 3343 C 315.886 0.870209 3.5087 0
M  V30 3344 O 315.607 2.24156 3.76412 0
M  V30 3345 C 317.108 0.553164 4.39835 0
M  V30 3346 H 314.328 0.233931 0.628902 0
M  V30 3347 H 316.872 1.27649 1.59768 0
M  V30 3348 H 315.027 0.263652 3.86502 0
M  V30 3349 H 315.441 2.31021 4.70882 0
M  V30 3350 H 316.915 0.776342 5.46513 0
M  V30 3351 H 317.392 -0.512215 4.36203 0
M  V30 3352 H 317.998 1.13896 4.09766 0
M  V30 3353 N 316.313 -1.40141 0.720998 0
M  V30 3354 C 317.724 -1.83678 0.334553 0
M  V30 3355 C 318.075 -1.6027 -1.13173 0
M  V30 3356 O 317.2 -1.08643 -1.87152 0
M  V30 3357 C 317.795 -3.33437 0.600437 0
M  V30 3358 C 316.354 -3.75447 0.267642 0
M  V30 3359 C 315.501 -2.63296 0.870097 0
M  V30 3360 H 318.452 -1.29331 0.919732 0
M  V30 3361 H 318.473 -3.80269 -0.132517 0
M  V30 3362 H 317.985 -3.50442 1.66768 0
M  V30 3363 H 316.086 -3.64035 -0.794329 0
M  V30 3364 H 316.199 -4.73344 0.74042 0
M  V30 3365 H 314.563 -2.52954 0.297739 0
M  V30 3366 H 315.346 -2.83112 1.94172 0
M  V30 3367 N 317.792 -0.46758 -1.50504 0
M  V30 3368 C 319.203 -0.0116166 -1.86696 0
M  V30 3369 C 319.554 1.39202 -1.38265 0
M  V30 3370 O 318.679 2.0313 -0.746132 0
M  V30 3371 C 319.274 -0.0143044 -3.38797 0
M  V30 3372 C 317.833 0.386175 -3.74414 0
M  V30 3373 C 316.98 -0.401287 -2.74381 0
M  V30 3374 H 319.931 -0.682022 -1.43297 0
M  V30 3375 H 319.952 0.788641 -3.72237 0
M  V30 3376 H 319.464 -1.03602 -3.74016 0
M  V30 3377 H 317.565 1.41237 -3.44794 0
M  V30 3378 H 317.678 0.0899596 -4.79016 0
M  V30 3379 H 316.042 0.144536 -2.5429 0
M  V30 3380 H 316.825 -1.42244 -3.12444 0
M  V30 3381 N 319.27 1.56325 -0.20005 0
M  V30 3382 C 320.18 2.22931 0.730668 0
M  V30 3383 C 321.196 1.22997 1.23076 0
M  V30 3384 O 322.372 1.55748 1.27689 0
M  V30 3385 C 319.437 2.87948 1.93098 0
M  V30 3386 C 318.498 4.03166 1.47497 0
M  V30 3387 C 317.731 4.65073 2.61807 0
M  V30 3388 O 317.954 4.25913 3.79413 0
M  V30 3389 O 316.888 5.54452 2.34237 0
M  V30 3390 H 320.714 3.03084 0.193391 0
M  V30 3391 H 318.299 1.49371 0.0294621 0
M  V30 3392 H 320.181 3.29063 2.6324 0
M  V30 3393 H 318.856 2.10771 2.45677 0
M  V30 3394 H 317.763 3.66664 0.742201 0
M  V30 3395 H 319.096 4.82022 0.995796 0
M  V30 3396 N 320.748 -0.0735177 1.57428 0
M  V30 3397 C 321.973 -0.789787 1.91774 0
M  V30 3398 C 322.398 -1.70413 0.796306 0
M  V30 3399 O 321.756 -1.79555 -0.250961 0
M  V30 3400 C 321.804 -1.5609 3.25067 0
M  V30 3401 O 320.908 -2.67144 3.14178 0
M  V30 3402 H 320.249 -0.215582 0.628029 0
M  V30 3403 H 322.779 -0.0422781 2.04556 0
M  V30 3404 H 322.789 -1.94052 3.58898 0
M  V30 3405 H 321.464 -0.890015 4.06265 0
M  V30 3406 H 320.041 -2.32052 2.91901 0
M  V30 3407 N 322.226 -1.5378 -0.344866 0
M  V30 3408 C 323.472 -1.71216 -1.08687 0
M  V30 3409 C 323.805 -0.473281 -1.88345 0
M  V30 3410 O 323.08 0.52968 -1.87149 0
M  V30 3411 C 323.363 -2.97486 -2.02914 0
M  V30 3412 C 323.216 -4.31579 -1.26727 0
M  V30 3413 C 324.535 -3.19422 -3.0275 0
M  V30 3414 H 321.654 -0.62301 -0.393735 0
M  V30 3415 H 324.296 -1.8645 -0.365563 0
M  V30 3416 H 322.446 -2.84629 -2.64421 0
M  V30 3417 H 324.118 -4.56284 -0.67845 0
M  V30 3418 H 322.361 -4.30049 -0.569273 0
M  V30 3419 H 323.032 -5.16106 -1.95803 0
M  V30 3420 H 325.508 -3.316 -2.51357 0
M  V30 3421 H 324.384 -4.09169 -3.65885 0
M  V30 3422 H 324.645 -2.35656 -3.74057 0
M  V30 3423 N 323.704 0.605807 -1.45491 0
M  V30 3424 C 325.115 1.18777 -1.44045 0
M  V30 3425 C 325.466 1.95471 -0.169001 0
M  V30 3426 O 324.591 2.0374 0.729324 0
M  V30 3427 C 325.186 2.16064 -2.60963 0
M  V30 3428 C 323.745 2.69633 -2.62631 0
M  V30 3429 C 322.892 1.45072 -2.36325 0
M  V30 3430 H 325.843 0.395017 -1.53705 0
M  V30 3431 H 325.864 2.9913 -2.35163 0
M  V30 3432 H 325.376 1.60217 -3.53486 0
M  V30 3433 H 323.477 3.29414 -1.74119 0
M  V30 3434 H 323.59 3.13944 -3.61906 0
M  V30 3435 H 321.954 1.74089 -1.85917 0
M  V30 3436 H 322.737 0.910899 -3.30995 0
M  V30 3437 N 325.182 1.32811 0.848464 0
M  V30 3438 C 326.431 1.23075 1.59798 0
M  V30 3439 C 326.744 -0.204419 1.94529 0
M  V30 3440 O 327.95 -0.423701 2.68173 0
M  V30 3441 C 326.406 2.15594 2.88179 0
M  V30 3442 C 326.014 3.64228 2.60849 0
M  V30 3443 C 327.758 2.14709 3.66197 0
M  V30 3444 C 325.665 4.48689 3.85269 0
M  V30 3445 H 324.595 0.457091 0.599653 0
M  V30 3446 H 327.246 1.57813 0.936342 0
M  V30 3447 H 325.628 1.73778 3.55833 0
M  V30 3448 H 326.802 4.14424 2.01467 0
M  V30 3449 H 325.117 3.67306 1.96151 0
M  V30 3450 H 327.714 2.75046 4.58534 0
M  V30 3451 H 328.057 1.13966 4.00397 0
M  V30 3452 H 328.59 2.54837 3.05455 0
M  V30 3453 H 325.329 5.5027 3.56207 0
M  V30 3454 H 324.849 4.03241 4.44024 0
M  V30 3455 H 326.528 4.62006 4.52946 0
M  V30 3456 N 326.66 -1.06551 1.16123 0
M  V30 3457 C 327.608 -2.16063 0.861371 0
M  V30 3458 C 328.602 -1.6856 -0.168517 0
M  V30 3459 O 329.808 -1.79986 -0.0227579 0
M  V30 3460 H 326.183 -0.705278 0.260934 0
M  V30 3461 H 328.154 -2.38567 1.79244 0
M  V30 3462 C 326.903 -3.45661 0.376018 0
M  V30 3463 H 326.226 -3.82604 1.15992 0
M  V30 3464 H 327.666 -4.23504 0.204951 0
M  V30 3465 C 326.125 -3.24546 -0.903954 0
M  V30 3466 O 326.655 -3.49865 -1.97377 0
M  V30 3467 N 324.861 -2.77992 -0.846679 0
M  V30 3468 H 324.408 -2.57589 0.0241017 0
M  V30 3469 H 324.366 -2.64244 -1.70359 0
M  V30 3470 N 328.138 -0.959301 -1.25041 0
M  V30 3471 C 329.071 -0.427418 -2.24161 0
M  V30 3472 C 330.049 0.493837 -1.54919 0
M  V30 3473 O 331.233 0.427144 -1.83597 0
M  V30 3474 C 328.36 0.383893 -3.36517 0
M  V30 3475 C 327.406 -0.478431 -4.23808 0
M  V30 3476 S 328.239 -1.91353 -5.00144 0
M  V30 3477 C 329.395 -1.11077 -6.15965 0
M  V30 3478 H 329.628 -1.26743 -2.6893 0
M  V30 3479 H 327.161 -0.763714 -1.34189 0
M  V30 3480 H 329.119 0.846039 -4.01687 0
M  V30 3481 H 327.78 1.19878 -2.90324 0
M  V30 3482 H 326.973 0.14406 -5.03794 0
M  V30 3483 H 326.575 -0.87597 -3.63597 0
M  V30 3484 H 328.867 -0.361699 -6.76534 0
M  V30 3485 H 329.81 -1.88472 -6.82557 0
M  V30 3486 H 330.218 -0.638843 -5.60873 0
M  V30 3487 N 329.616 1.39756 -0.72842 0
M  V30 3488 C 330.546 2.33289 -0.0991354 0
M  V30 3489 C 331.527 1.53568 0.731489 0
M  V30 3490 O 332.712 1.81987 0.677807 0
M  V30 3491 C 329.842 3.3763 0.813834 0
M  V30 3492 C 328.796 4.2791 0.0878663 0
M  V30 3493 C 328.122 5.22894 1.11741 0
M  V30 3494 C 329.422 5.11314 -1.06563 0
M  V30 3495 H 331.116 2.86163 -0.880408 0
M  V30 3496 H 328.662 1.37591 -0.424819 0
M  V30 3497 H 330.615 4.0201 1.26355 0
M  V30 3498 H 329.339 2.83181 1.62715 0
M  V30 3499 H 327.998 3.65 -0.342159 0
M  V30 3500 H 327.646 4.64744 1.92412 0
M  V30 3501 H 327.346 5.84143 0.636477 0
M  V30 3502 H 328.87 5.90151 1.56697 0
M  V30 3503 H 330.284 5.69076 -0.694671 0
M  V30 3504 H 328.681 5.81671 -1.47577 0
M  V30 3505 H 329.751 4.46534 -1.89038 0
M  V30 3506 N 331.094 0.475555 1.50254 0
M  V30 3507 C 332.34 -0.0780073 2.0265 0
M  V30 3508 C 332.673 -1.38968 1.35652 0
M  V30 3509 O 331.948 -1.8839 0.483691 0
M  V30 3510 C 332.231 -0.257161 3.59181 0
M  V30 3511 C 332.084 1.07585 4.36744 0
M  V30 3512 C 333.403 -1.00965 4.28362 0
M  V30 3513 H 330.522 -0.0268758 0.73651 0
M  V30 3514 H 333.164 0.622015 1.7953 0
M  V30 3515 H 331.314 -0.853412 3.79011 0
M  V30 3516 H 332.986 1.70902 4.28474 0
M  V30 3517 H 331.229 1.6714 4.00308 0
M  V30 3518 H 331.9 0.904088 5.44546 0
M  V30 3519 H 334.376 -0.504214 4.13034 0
M  V30 3520 H 333.252 -1.10381 5.37687 0
M  V30 3521 H 333.513 -2.04731 3.91839 0
M  V30 3522 N 332.573 -1.56217 0.208337 0
M  V30 3523 C 333.52 -2.19699 -0.707192 0
M  V30 3524 C 334.49 -1.14836 -1.20008 0
M  V30 3525 O 335.675 -1.4314 -1.26157 0
M  V30 3526 C 332.815 -2.87061 -1.91546 0
M  V30 3527 C 331.928 -4.06483 -1.46271 0
M  V30 3528 C 331.063 -4.61665 -2.62752 0
M  V30 3529 C 330.102 -5.73417 -2.14147 0
M  V30 3530 N 329.239 -6.22948 -3.23853 0
M  V30 3531 H 334.079 -2.97575 -0.159111 0
M  V30 3532 H 331.616 -1.46948 -0.0667874 0
M  V30 3533 H 333.574 -3.24294 -2.62468 0
M  V30 3534 H 332.204 -2.11725 -2.43664 0
M  V30 3535 H 331.256 -3.74825 -0.648886 0
M  V30 3536 H 332.568 -4.87271 -1.06622 0
M  V30 3537 H 331.722 -5.01272 -3.41776 0
M  V30 3538 H 330.461 -3.80013 -3.05682 0
M  V30 3539 H 329.466 -5.33326 -1.33581 0
M  V30 3540 H 330.691 -6.56897 -1.72232 0
M  V30 3541 H 328.637 -5.44213 -3.6629 0
M  V30 3542 H 328.554 -6.98823 -2.88414 0
M  V30 3543 H 329.822 -6.6721 -4.03052 0
M  V30 3544 N 334.051 0.0651679 -1.57465 0
M  V30 3545 C 335.297 0.764193 -1.87851 0
M  V30 3546 C 335.63 1.76889 -0.801495 0
M  V30 3547 O 334.905 1.93594 0.187528 0
M  V30 3548 C 335.188 1.46625 -3.28897 0
M  V30 3549 C 335.041 0.477515 -4.47258 0
M  V30 3550 C 336.36 2.4095 -3.68281 0
M  V30 3551 H 333.479 0.276351 -0.683227 0
M  V30 3552 H 336.121 0.0272868 -1.8998 0
M  V30 3553 H 334.271 2.09438 -3.27212 0
M  V30 3554 H 335.943 -0.145922 -4.61069 0
M  V30 3555 H 334.186 -0.206576 -4.33308 0
M  V30 3556 H 334.857 1.0065 -5.42746 0
M  V30 3557 H 337.333 1.88209 -3.71102 0
M  V30 3558 H 336.209 2.87072 -4.67847 0
M  V30 3559 H 336.47 3.26049 -2.98571 0
M  V30 3560 N 335.529 1.53961 0.336706 0
M  V30 3561 C 336.476 1.82428 1.41381 0
M  V30 3562 C 337.446 0.670444 1.51968 0
M  V30 3563 O 338.631 0.915565 1.67398 0
M  V30 3564 C 335.771 2.04564 2.77934 0
M  V30 3565 C 334.884 3.32267 2.76084 0
M  V30 3566 C 334.019 3.44434 4.04399 0
M  V30 3567 C 333.058 4.66061 3.96804 0
M  V30 3568 N 332.195 4.75224 5.16823 0
M  V30 3569 H 337.035 2.74324 1.16405 0
M  V30 3570 H 334.572 1.35869 0.563752 0
M  V30 3571 H 336.53 2.15388 3.57301 0
M  V30 3572 H 335.16 1.15974 3.01247 0
M  V30 3573 H 334.212 3.3025 1.88784 0
M  V30 3574 H 335.524 4.21733 2.66351 0
M  V30 3575 H 334.678 3.54728 4.92192 0
M  V30 3576 H 333.417 2.53037 4.16921 0
M  V30 3577 H 332.422 4.55838 3.07396 0
M  V30 3578 H 333.647 5.58829 3.85858 0
M  V30 3579 H 331.593 3.86739 5.29876 0
M  V30 3580 H 331.51 5.58636 5.09374 0
M  V30 3581 H 332.778 4.89835 6.06367 0
M  V30 3582 N 337.007 -0.598083 1.45811 0
M  V30 3583 C 338.255 -1.35413 1.50026 0
M  V30 3584 C 338.576 -1.94444 0.147177 0
M  V30 3585 O 337.846 -1.77701 -0.824571 0
M  V30 3586 H 336.426 -0.502727 0.552517 0
M  V30 3587 H 339.088 -0.701606 1.81834 0
M  V30 3588 H 338.184 -2.16871 2.2444 0
M  V30 3589 N 338.485 -1.33259 -0.841409 0
M  V30 3590 C 339.713 -1.27605 -1.62864 0
M  V30 3591 C 340.128 0.153507 -1.88175 0
M  V30 3592 O 339.485 1.09485 -1.46011 0
M  V30 3593 C 339.536 -2.04596 -2.98031 0
M  V30 3594 O 339.257 -3.41975 -2.73834 0
M  V30 3595 C 340.758 -2.06122 -3.92465 0
M  V30 3596 H 337.978 -0.439718 -0.506842 0
M  V30 3597 H 340.522 -1.75591 -1.04824 0
M  V30 3598 H 338.677 -1.60299 -3.5268 0
M  V30 3599 H 339.091 -3.81549 -3.59889 0
M  V30 3600 H 340.565 -2.64451 -4.84531 0
M  V30 3601 H 341.042 -1.05083 -4.26444 0
M  V30 3602 H 341.648 -2.50427 -3.43753 0
M  V30 3603 N 339.963 1.05934 -1.16686 0
M  V30 3604 C 341.374 1.60263 -0.957745 0
M  V30 3605 C 341.725 1.89789 0.49745 0
M  V30 3606 O 340.85 1.67401 1.37135 0
M  V30 3607 C 341.445 2.91172 -1.73218 0
M  V30 3608 C 340.004 3.42188 -1.56794 0
M  V30 3609 C 339.151 2.16028 -1.73859 0
M  V30 3610 H 342.102 0.888392 -1.31504 0
M  V30 3611 H 342.123 3.60744 -1.21014 0
M  V30 3612 H 341.635 2.6965 -2.79124 0
M  V30 3613 H 339.736 3.68762 -0.533437 0
M  V30 3614 H 339.849 4.17273 -2.35414 0
M  V30 3615 H 338.213 2.26426 -1.16633 0
M  V30 3616 H 338.996 1.96985 -2.81161 0
M  V30 3617 N 341.441 0.965919 1.2453 0
M  V30 3618 C 342.371 0.513476 2.27784 0
M  V30 3619 C 343.352 -0.445974 1.6415 0
M  V30 3620 O 344.537 -0.342485 1.91156 0
M  V30 3621 C 341.667 -0.198839 3.4673 0
M  V30 3622 C 340.621 0.676456 4.2262 0
M  V30 3623 C 339.947 -0.167248 5.34438 0
M  V30 3624 C 341.247 1.96017 4.84123 0
M  V30 3625 H 342.941 1.3765 2.65881 0
M  V30 3626 H 340.487 0.663321 1.27813 0
M  V30 3627 H 342.44 -0.526567 4.18097 0
M  V30 3628 H 341.164 -1.0962 3.07654 0
M  V30 3629 H 339.823 0.98743 3.53052 0
M  V30 3630 H 339.471 -1.0647 4.91603 0
M  V30 3631 H 339.171 0.415181 5.86131 0
M  V30 3632 H 340.695 -0.489688 6.08633 0
M  V30 3633 H 342.109 1.69814 5.47573 0
M  V30 3634 H 340.506 2.48918 5.4604 0
M  V30 3635 H 341.576 2.65622 4.05676 0
M  V30 3636 N 342.919 -1.39368 0.735821 0
M  V30 3637 C 343.882 -2.2896 0.104874 0
M  V30 3638 C 344.882 -1.46347 -0.666274 0
M  V30 3639 O 346.072 -1.67014 -0.49517 0
M  V30 3640 C 343.204 -3.29857 -0.860656 0
M  V30 3641 H 344.397 -2.86259 0.894205 0
M  V30 3642 H 341.95 -1.48029 0.501704 0
M  V30 3643 H 342.685 -2.77615 -1.67631 0
M  V30 3644 H 342.47 -3.9087 -0.310327 0
M  V30 3645 H 343.96 -3.96893 -1.29867 0
M  V30 3646 N 344.397 -0.483516 -1.5 0
M  V30 3647 C 345.674 0.129337 -1.95172 0
M  V30 3648 C 346.054 1.55802 -1.4244 0
M  V30 3649 O 345.402 2.19625 -0.630649 0
M  V30 3650 C 345.612 0.0599251 -3.48949 0
M  V30 3651 C 346.96 0.242617 -4.23906 0
M  V30 3652 O 347.984 0.135933 -3.55941 0
M  V30 3653 O 346.843 0.459454 -5.44565 0
M  V30 3654 H 343.937 0.104887 -0.820322 0
M  V30 3655 H 346.483 -0.544807 -1.60717 0
M  V30 3656 H 345.255 -0.937079 -3.79914 0
M  V30 3657 H 344.878 0.774984 -3.89974 0
M  V30 3658 N 345.875 1.56104 -0.216619 0
M  V30 3659 C 346.823 2.21434 0.712036 0
M  V30 3660 C 347.817 1.19218 1.20348 0
M  V30 3661 O 349.023 1.3731 1.16387 0
M  V30 3662 H 345.398 0.70992 0.248026 0
M  V30 3663 H 347.369 2.98083 0.137558 0
M  V30 3664 C 346.118 2.90434 1.91163 0
M  V30 3665 H 345.441 3.68842 1.54258 0
M  V30 3666 H 346.881 3.39552 2.5393 0
M  V30 3667 C 345.34 1.92635 2.76394 0
M  V30 3668 O 345.87 1.44017 3.74996 0
M  V30 3669 N 344.076 1.60392 2.42328 0
M  V30 3670 H 343.623 2.00122 1.622 0
M  V30 3671 H 343.581 0.952159 2.99635 0
M  V30 3672 N 347.353 -0.0568162 1.57498 0
M  V30 3673 C 348.63 -0.786954 1.79071 0
M  V30 3674 C 349.01 -1.95028 0.80792 0
M  V30 3675 O 348.358 -2.27968 -0.155858 0
M  V30 3676 C 348.568 -1.24594 3.26002 0
M  V30 3677 C 349.916 -1.67323 3.90241 0
M  V30 3678 O 350.94 -1.34124 3.29984 0
M  V30 3679 O 349.799 -2.28842 4.9628 0
M  V30 3680 H 346.893 -0.378262 0.735423 0
M  V30 3681 H 349.439 -0.035734 1.69662 0
M  V30 3682 H 348.211 -0.41423 3.89101 0
M  V30 3683 H 347.834 -2.05803 3.40192 0
M  V30 3684 N 348.832 -1.54138 -0.328536 0
M  V30 3685 C 350.109 -1.62749 -1.08499 0
M  V30 3686 C 350.489 -0.458198 -2.06067 0
M  V30 3687 O 349.837 0.548046 -2.2183 0
M  V30 3688 C 350.047 -2.99519 -1.79135 0
M  V30 3689 C 351.395 -3.55394 -2.32337 0
M  V30 3690 O 352.419 -3.01792 -1.89209 0
M  V30 3691 O 351.278 -4.49186 -3.11279 0
M  V30 3692 H 348.372 -0.65886 -0.499832 0
M  V30 3693 H 350.918 -1.66484 -0.328826 0
M  V30 3694 H 349.69 -3.76061 -1.08139 0
M  V30 3695 H 349.313 -2.99441 -2.61574 0
M  V30 3696 N 350.31 0.590341 -1.46126 0
M  V30 3697 C 351.556 1.35082 -1.51264 0
M  V30 3698 C 351.889 1.93534 -0.160711 0
M  V30 3699 O 351.164 1.76045 0.826956 0
M  V30 3700 C 351.447 2.48588 -2.6053 0
M  V30 3701 C 351.3 1.95221 -4.05227 0
M  V30 3702 C 352.619 3.50662 -2.6594 0
M  V30 3703 H 349.738 0.489803 -0.550692 0
M  V30 3704 H 352.38 0.663887 -1.78024 0
M  V30 3705 H 350.53 3.07186 -2.37843 0
M  V30 3706 H 352.202 1.41139 -4.39178 0
M  V30 3707 H 350.445 1.26101 -4.15068 0
M  V30 3708 H 351.116 2.77121 -4.77397 0
M  V30 3709 H 353.592 3.01934 -2.86313 0
M  V30 3710 H 352.468 4.27551 -3.44226 0
M  V30 3711 H 352.729 4.07399 -1.71694 0
M  V30 3712 N 351.788 1.33704 0.83433 0
M  V30 3713 C 353.065 1.16011 1.57483 0
M  V30 3714 C 353.445 -0.27176 2.09343 0
M  V30 3715 O 352.793 -1.27146 1.89858 0
M  V30 3716 C 353.003 2.20507 2.70514 0
M  V30 3717 C 354.351 2.54898 3.39577 0
M  V30 3718 O 355.375 2.19209 2.80759 0
M  V30 3719 O 354.234 3.16158 4.45765 0
M  V30 3720 H 351.328 0.448992 0.694503 0
M  V30 3721 H 353.874 1.453 0.876691 0
M  V30 3722 H 352.646 3.16667 2.29865 0
M  V30 3723 H 352.269 1.92329 3.47987 0
M  V30 3724 N 353.266 -1.05314 1.17247 0
M  V30 3725 C 354.229 -2.112 0.890357 0
M  V30 3726 C 355.229 -1.60359 -0.118943 0
M  V30 3727 O 356.419 -1.73833 0.113086 0
M  V30 3728 C 353.551 -3.39266 0.333422 0
M  V30 3729 H 354.744 -2.37659 1.82916 0
M  V30 3730 H 352.297 -1.21538 0.982758 0
M  V30 3731 H 353.032 -3.18462 -0.612587 0
M  V30 3732 H 352.817 -3.77477 1.06082 0
M  V30 3733 H 354.307 -4.17315 0.154322 0
M  V30 3734 N 354.744 -0.972509 -1.24016 0
M  V30 3735 C 355.991 -0.637034 -1.92219 0
M  V30 3736 C 356.319 0.828418 -1.75976 0
M  V30 3737 O 355.574 1.61206 -1.10955 0
M  V30 3738 C 355.873 -0.963694 -3.44162 0
M  V30 3739 C 355.539 -2.41807 -3.80579 0
M  V30 3740 C 354.201 -2.81556 -3.9023 0
M  V30 3741 C 356.553 -3.36172 -3.98293 0
M  V30 3742 C 353.881 -4.14702 -4.15017 0
M  V30 3743 C 356.233 -4.68952 -4.24578 0
M  V30 3744 C 354.897 -5.08472 -4.32449 0
M  V30 3745 H 354.167 -0.233107 -0.703379 0
M  V30 3746 H 356.814 -1.2249 -1.47202 0
M  V30 3747 H 355.119 -0.29365 -3.90698 0
M  V30 3748 H 356.816 -0.682449 -3.9515 0
M  V30 3749 H 353.406 -2.09988 -3.73635 0
M  V30 3750 H 357.59 -3.06644 -3.90234 0
M  V30 3751 H 352.846 -4.4494 -4.19331 0
M  V30 3752 H 357.02 -5.42037 -4.37229 0
M  V30 3753 H 354.647 -6.11665 -4.51409 0
M  V30 3754 N 356.222 1.38976 -0.743202 0
M  V30 3755 C 357.499 1.94351 -0.220705 0
M  V30 3756 C 357.879 1.67935 1.2791 0
M  V30 3757 O 357.227 1.01211 2.04862 0
M  V30 3758 C 357.437 3.44426 -0.563171 0
M  V30 3759 C 358.785 4.2144 -0.517046 0
M  V30 3760 O 359.809 3.52661 -0.500846 0
M  V30 3761 O 358.668 5.44032 -0.518806 0
M  V30 3762 H 355.762 0.825879 -0.043047 0
M  V30 3763 H 358.308 1.48429 -0.822618 0
M  V30 3764 H 357.08 3.5712 -1.59941 0
M  V30 3765 H 356.703 3.97543 0.0672883 0
M  V30 3766 N 357.7 0.491464 1.49741 0
M  V30 3767 C 358.947 -0.0564256 2.02421 0
M  V30 3768 C 359.275 -1.37872 1.37192 0
M  V30 3769 O 358.53 -1.89375 0.493508 0
M  V30 3770 C 358.829 -0.267329 3.56399 0
M  V30 3771 C 358.495 0.975775 4.40215 0
M  V30 3772 C 357.157 1.31655 4.62839 0
M  V30 3773 C 359.509 1.80251 4.89039 0
M  V30 3774 C 356.837 2.48375 5.31532 0
M  V30 3775 C 359.189 2.96116 5.59015 0
M  V30 3776 C 357.853 3.30585 5.79888 0
M  V30 3777 H 357.123 -0.0206476 0.740712 0
M  V30 3778 H 359.77 0.649686 1.80143 0
M  V30 3779 H 358.075 -1.05588 3.77304 0
M  V30 3780 H 359.772 -0.705549 3.94744 0
M  V30 3781 H 356.362 0.700315 4.2284 0
M  V30 3782 H 360.546 1.55239 4.71396 0
M  V30 3783 H 355.802 2.7533 5.45897 0
M  V30 3784 H 359.976 3.60509 5.95824 0
M  V30 3785 H 357.603 4.21132 6.32892 0
M  V30 3786 N 359.178 -1.55987 0.224894 0
M  V30 3787 C 360.427 -1.97566 -0.406273 0
M  V30 3788 C 360.74 -1.11569 -1.6066 0
M  V30 3789 O 361.946 -1.43062 -2.3075 0
M  V30 3790 C 360.402 -3.51474 -0.774207 0
M  V30 3791 C 360.01 -4.46179 0.403496 0
M  V30 3792 C 361.754 -4.01758 -1.37079 0
M  V30 3793 C 359.661 -5.91399 0.0129412 0
M  V30 3794 H 358.591 -0.737777 -0.155565 0
M  V30 3795 H 361.242 -1.80659 0.321635 0
M  V30 3796 H 359.624 -3.63994 -1.55963 0
M  V30 3797 H 360.798 -4.45409 1.18101 0
M  V30 3798 H 359.113 -4.06255 0.913536 0
M  V30 3799 H 361.71 -5.07756 -1.67596 0
M  V30 3800 H 362.053 -3.47805 -2.28773 0
M  V30 3801 H 362.586 -3.92475 -0.648733 0
M  V30 3802 H 359.325 -6.49341 0.896451 0
M  V30 3803 H 358.845 -5.95356 -0.728821 0
M  V30 3804 H 360.524 -6.45683 -0.412582 0
M  V30 3805 N 360.656 0.0484629 -1.57525 0
M  V30 3806 C 362.072 0.40375 -1.54409 0
M  V30 3807 C 362.272 1.77786 -0.948384 0
M  V30 3808 O 361.328 2.46189 -0.560983 0
M  V30 3809 C 362.641 0.323394 -2.98956 0
M  V30 3810 C 364.189 0.401892 -3.10409 0
M  V30 3811 C 364.664 0.351195 -4.56652 0
M  V30 3812 N 366.155 0.410576 -4.61377 0
M  V30 3813 C 366.89 0.393933 -5.72045 0
M  V30 3814 N 366.386 0.330724 -6.9201 0
M  V30 3815 N 368.179 0.442227 -5.60358 0
M  V30 3816 H 360.33 -0.851016 -1.94606 0
M  V30 3817 H 362.593 -0.321721 -0.89174 0
M  V30 3818 H 362.299 -0.62011 -3.4619 0
M  V30 3819 H 362.173 1.12463 -3.60044 0
M  V30 3820 H 364.56 1.33582 -2.63134 0
M  V30 3821 H 364.641 -0.428342 -2.52188 0
M  V30 3822 H 364.285 -0.578987 -5.04589 0
M  V30 3823 H 364.215 1.19928 -5.12762 0
M  V30 3824 H 366.706 0.462729 -3.75056 0
M  V30 3825 H 367.019 0.322592 -7.72126 0
M  V30 3826 H 365.364 0.29706 -6.94365 0
M  V30 3827 H 368.555 0.489464 -4.65534 0
M  V30 3828 H 368.728 0.425788 -6.466 0
M  V30 3829 N 362.134 1.5431 0.320358 0
M  V30 3830 C 363.362 1.76636 1.07738 0
M  V30 3831 C 363.777 0.51649 1.81598 0
M  V30 3832 O 363.134 -0.512942 1.75143 0
M  V30 3833 C 363.185 2.96158 2.07299 0
M  V30 3834 O 362.906 4.16313 1.36438 0
M  V30 3835 C 364.407 3.3072 2.95193 0
M  V30 3836 H 361.627 0.589597 0.320339 0
M  V30 3837 H 364.171 2.01207 0.36551 0
M  V30 3838 H 362.326 2.73851 2.74016 0
M  V30 3839 H 362.74 4.83565 2.03138 0
M  V30 3840 H 364.214 4.17643 3.60941 0
M  V30 3841 H 364.691 2.48026 3.62463 0
M  V30 3842 H 365.297 3.55117 2.34034 0
M  V30 3843 N 363.613 -0.582584 1.46437 0
M  V30 3844 C 364.862 -1.337 1.5102 0
M  V30 3845 C 365.175 -1.94891 0.166359 0
M  V30 3846 O 366.381 -2.71351 0.0899954 0
M  V30 3847 C 364.837 -2.42315 2.66104 0
M  V30 3848 C 364.445 -1.87427 4.06909 0
M  V30 3849 C 366.189 -3.19099 2.79958 0
M  V30 3850 C 364.096 -2.93672 5.13333 0
M  V30 3851 H 363.026 -0.502619 0.562041 0
M  V30 3852 H 365.677 -0.621701 1.72647 0
M  V30 3853 H 364.059 -3.16645 2.37807 0
M  V30 3854 H 365.233 -1.19639 4.44998 0
M  V30 3855 H 363.548 -1.2331 3.97723 0
M  V30 3856 H 366.145 -3.9839 3.56636 0
M  V30 3857 H 366.488 -3.71695 1.87479 0
M  V30 3858 H 367.021 -2.51875 3.07902 0
M  V30 3859 H 363.76 -2.45962 6.07604 0
M  V30 3860 H 363.28 -3.59948 4.79789 0
M  V30 3861 H 364.959 -3.5762 5.39182 0
M  V30 3862 N 365.091 -1.34144 -0.827227 0
M  V30 3863 C 366.054 -1.25264 -1.91942 0
M  V30 3864 C 367.054 -0.168866 -1.59911 0
M  V30 3865 O 368.244 -0.421198 -1.69031 0
M  V30 3866 C 365.376 -0.932952 -3.27885 0
M  V30 3867 H 366.569 -2.22357 -2.0124 0
M  V30 3868 H 364.122 -1.1837 -1.0207 0
M  V30 3869 H 364.857 0.0349917 -3.24281 0
M  V30 3870 H 364.642 -1.71682 -3.52516 0
M  V30 3871 H 366.132 -0.895874 -4.07877 0
M  V30 3872 N 366.569 1.04691 -1.17803 0
M  V30 3873 C 367.815 1.78045 -0.970969 0
M  V30 3874 C 368.148 1.87686 0.498751 0
M  V30 3875 O 367.423 1.38035 1.37027 0
M  V30 3876 C 367.706 3.2166 -1.61884 0
M  V30 3877 C 367.559 3.20001 -3.161 0
M  V30 3878 C 368.878 4.1962 -1.3269 0
M  V30 3879 H 365.997 0.64633 -0.354155 0
M  V30 3880 H 368.639 1.22333 -1.45378 0
M  V30 3881 H 366.789 3.69232 -1.20831 0
M  V30 3882 H 368.461 2.80467 -3.66246 0
M  V30 3883 H 366.704 2.58203 -3.48588 0
M  V30 3884 H 367.375 4.21386 -3.56564 0
M  V30 3885 H 369.851 3.80567 -1.68249 0
M  V30 3886 H 368.727 5.18339 -1.80599 0
M  V30 3887 H 368.988 4.414 -0.248622 0
M  V30 3888 N 368.047 0.979072 1.23499 0
M  V30 3889 C 369.01 0.523244 2.23147 0
M  V30 3890 C 370.01 -0.386406 1.56088 0
M  V30 3891 O 371.2 -0.180283 1.73265 0
M  V30 3892 C 368.332 -0.240739 3.40049 0
M  V30 3893 H 369.525 1.40432 2.64989 0
M  V30 3894 H 367.078 0.764824 1.36309 0
M  V30 3895 H 367.813 -1.13841 3.03662 0
M  V30 3896 H 367.598 0.412207 3.89927 0
M  V30 3897 H 369.088 -0.548297 4.13985 0
M  V30 3898 N 369.525 -1.3858 0.750561 0
M  V30 3899 C 370.941 -1.53759 0.427824 0
M  V30 3900 C 371.141 -1.71401 -1.05943 0
M  V30 3901 O 370.197 -1.72331 -1.84549 0
M  V30 3902 C 371.51 -2.74642 1.22443 0
M  V30 3903 C 373.058 -2.88489 1.2142 0
M  V30 3904 C 373.533 -4.12329 1.9937 0
M  V30 3905 N 375.024 -4.194 1.96616 0
M  V30 3906 C 375.759 -5.14209 2.53727 0
M  V30 3907 N 375.255 -6.14709 3.19539 0
M  V30 3908 N 377.048 -5.06537 2.43673 0
M  V30 3909 H 369.199 -1.25377 1.71447 0
M  V30 3910 H 371.462 -0.608844 0.726645 0
M  V30 3911 H 371.168 -2.68 2.27747 0
M  V30 3912 H 371.042 -3.67745 0.839273 0
M  V30 3913 H 373.429 -2.94614 0.169232 0
M  V30 3914 H 373.51 -1.96406 1.63885 0
M  V30 3915 H 373.154 -4.06966 3.03877 0
M  V30 3916 H 373.084 -5.03486 1.54302 0
M  V30 3917 H 375.575 -3.47421 1.48684 0
M  V30 3918 H 375.888 -6.8354 3.60545 0
M  V30 3919 H 374.233 -6.1505 3.23633 0
M  V30 3920 H 377.424 -4.26962 1.91889 0
M  V30 3921 H 377.597 -5.80245 2.88479 0
M  V30 3922 N 371.003 -0.499398 -1.49478 0
M  V30 3923 C 372.252 0.0475259 -2.01644 0
M  V30 3924 C 372.565 1.38195 -1.38425 0
M  V30 3925 O 373.771 2.01547 -1.8191 0
M  V30 3926 C 372.227 0.135164 -3.59646 0
M  V30 3927 C 371.835 -1.19252 -4.31837 0
M  V30 3928 C 373.579 0.632538 -4.19761 0
M  V30 3929 C 371.486 -1.06713 -5.81693 0
M  V30 3930 H 370.416 0.0215349 -0.753692 0
M  V30 3931 H 373.067 -0.638577 -1.7203 0
M  V30 3932 H 371.449 0.885681 -3.85969 0
M  V30 3933 H 372.623 -1.9562 -4.17216 0
M  V30 3934 H 370.938 -1.62321 -3.83459 0
M  V30 3935 H 373.535 0.743833 -5.29501 0
M  V30 3936 H 373.878 1.63098 -3.83021 0
M  V30 3937 H 374.411 -0.0613987 -3.97753 0
M  V30 3938 H 371.15 -2.03979 -6.22955 0
M  V30 3939 H 370.67 -0.344307 -5.98811 0
M  V30 3940 H 372.349 -0.745208 -6.42694 0
M  V30 3941 N 372.481 1.55866 -0.233164 0
M  V30 3942 C 373.414 2.16794 0.712442 0
M  V30 3943 C 374.392 1.1158 1.18273 0
M  V30 3944 O 375.576 1.39897 1.26337 0
M  V30 3945 C 372.703 2.75757 1.96661 0
M  V30 3946 C 371.749 3.93902 1.63533 0
M  V30 3947 S 372.582 5.30223 0.74995 0
M  V30 3948 C 373.738 5.92631 2.01343 0
M  V30 3949 H 373.971 2.96662 0.194617 0
M  V30 3950 H 371.504 1.5439 -0.0177425 0
M  V30 3951 H 373.462 3.10367 2.68668 0
M  V30 3952 H 372.123 1.9586 2.45556 0
M  V30 3953 H 371.316 4.33702 2.56747 0
M  V30 3954 H 370.918 3.60499 0.995804 0
M  V30 3955 H 373.21 6.09312 2.96219 0
M  V30 3956 H 374.153 6.88388 1.65915 0
M  V30 3957 H 374.561 5.21571 2.15925 0
M  V30 3958 N 373.959 -0.0401083 1.57549 0
M  V30 3959 C 374.892 -1.07689 2.01192 0
M  V30 3960 C 375.87 -1.358 0.894273 0
M  V30 3961 O 377.054 -1.48642 1.15921 0
M  V30 3962 C 374.181 -2.41418 2.3756 0
M  V30 3963 C 373.227 -2.29237 3.59656 0
M  V30 3964 S 374.06 -1.65628 5.09242 0
M  V30 3965 C 375.216 -3.0087 5.48843 0
M  V30 3966 H 375.449 -0.705108 2.88817 0
M  V30 3967 H 372.982 -0.249724 1.52367 0
M  V30 3968 H 374.94 -3.18329 2.59186 0
M  V30 3969 H 373.601 -2.75747 1.50407 0
M  V30 3970 H 372.794 -3.27932 3.82722 0
M  V30 3971 H 372.396 -1.60469 3.37825 0
M  V30 3972 H 374.688 -3.97201 5.48851 0
M  V30 3973 H 375.631 -2.82549 6.49286 0
M  V30 3974 H 376.039 -3.02934 4.76331 0
M  V30 3975 N 375.437 -1.54477 -0.31217 0
M  V30 3976 C 376.848 -1.64344 -0.885891 0
M  V30 3977 C 377.199 -0.54485 -1.88483 0
M  V30 3978 O 376.324 0.320387 -2.14015 0
M  V30 3979 C 376.919 -2.97908 -1.61357 0
M  V30 3980 C 375.478 -3.09933 -2.13585 0
M  V30 3981 C 374.625 -2.59971 -0.964897 0
M  V30 3982 H 377.576 -1.58448 -0.0894528 0
M  V30 3983 H 377.597 -2.88706 -2.47848 0
M  V30 3984 H 377.109 -3.77845 -0.886277 0
M  V30 3985 H 375.21 -2.34694 -2.89395 0
M  V30 3986 H 375.323 -4.15916 -2.37804 0
M  V30 3987 H 373.687 -2.16147 -1.34731 0
M  V30 3988 H 374.47 -3.42376 -0.251742 0
M  V30 3989 N 376.915 0.57481 -1.46744 0
M  V30 3990 C 378.143 1.35856 -1.56047 0
M  V30 3991 C 378.558 1.87691 -0.204365 0
M  V30 3992 O 377.915 1.64049 0.79963 0
M  V30 3993 C 377.966 2.54066 -2.57163 0
M  V30 3994 O 377.687 2.04377 -3.87507 0
M  V30 3995 C 379.188 3.46514 -2.76483 0
M  V30 3996 H 376.408 0.414754 -0.527466 0
M  V30 3997 H 378.952 0.698035 -1.92218 0
M  V30 3998 H 377.107 3.16092 -2.23974 0
M  V30 3999 H 377.521 2.81419 -4.4261 0
M  V30 4000 H 378.995 4.25919 -3.51137 0
M  V30 4001 H 379.472 3.98951 -1.83671 0
M  V30 4002 H 380.078 2.90318 -3.10799 0
M  V30 4003 N 378.394 1.34581 0.820102 0
M  V30 4004 C 379.619 1.30333 1.61332 0
M  V30 4005 C 380.044 -0.119339 1.87721 0
M  V30 4006 O 379.402 -1.08197 1.45475 0
M  V30 4007 C 379.45 2.10258 2.92957 0
M  V30 4008 O 378.554 1.47404 3.85157 0
M  V30 4009 H 377.895 0.447488 0.490561 0
M  V30 4010 H 380.425 1.77425 1.01889 0
M  V30 4011 H 380.435 2.21718 3.42498 0
M  V30 4012 H 379.11 3.13693 2.73074 0
M  V30 4013 H 377.687 1.44703 3.43679 0
M  V30 4014 N 379.872 -1.04064 1.18357 0
M  V30 4015 C 381.102 -1.80654 1.00238 0
M  V30 4016 C 381.51 -1.83713 -0.452362 0
M  V30 4017 O 380.853 -1.27135 -1.32599 0
M  V30 4018 C 380.915 -3.27582 1.48088 0
M  V30 4019 C 380.579 -3.48184 2.96002 0
M  V30 4020 C 381.576 -3.39372 3.93856 0
M  V30 4021 C 379.261 -3.7478 3.34433 0
M  V30 4022 C 381.255 -3.5686 5.28138 0
M  V30 4023 C 378.942 -3.91915 4.68877 0
M  V30 4024 C 379.94 -3.82956 5.65539 0
M  V30 4025 O 379.628 -3.996 6.97549 0
M  V30 4026 H 379.36 -0.575751 0.354241 0
M  V30 4027 H 381.914 -1.32044 1.57333 0
M  V30 4028 H 380.144 -3.77161 0.853588 0
M  V30 4029 H 381.833 -3.8573 1.2636 0
M  V30 4030 H 382.599 -3.18789 3.65511 0
M  V30 4031 H 378.478 -3.80852 2.59756 0
M  V30 4032 H 382.022 -3.49783 6.03571 0
M  V30 4033 H 377.919 -4.11992 4.96923 0
M  V30 4034 H 378.687 -4.1676 7.04452 0
M  V30 4035 N 381.35 -0.985608 -1.22978 0
M  V30 4036 C 382.596 -0.65836 -1.91816 0
M  V30 4037 C 382.929 0.806692 -1.76653 0
M  V30 4038 O 382.204 1.58252 -1.13078 0
M  V30 4039 C 382.487 -1.056 -3.44268 0
M  V30 4040 C 382.34 -2.57906 -3.68516 0
M  V30 4041 C 383.659 -0.603781 -4.35939 0
M  V30 4042 H 380.778 -0.24065 -0.696604 0
M  V30 4043 H 383.42 -1.22783 -1.44998 0
M  V30 4044 H 381.57 -0.571445 -3.84274 0
M  V30 4045 H 383.242 -3.13976 -3.3796 0
M  V30 4046 H 381.485 -3.00305 -3.13048 0
M  V30 4047 H 382.156 -2.80779 -4.75255 0
M  V30 4048 H 384.632 -1.01987 -4.03408 0
M  V30 4049 H 383.508 -0.910383 -5.41298 0
M  V30 4050 H 383.769 0.495761 -4.39312 0
M  V30 4051 N 382.828 1.3818 -0.7579 0
M  V30 4052 C 384.244 1.5353 -0.435972 0
M  V30 4053 C 384.444 1.71961 1.05032 0
M  V30 4054 O 383.5 1.73307 1.83633 0
M  V30 4055 C 384.813 2.73989 -1.23898 0
M  V30 4056 C 386.361 2.87841 -1.22949 0
M  V30 4057 C 386.836 4.11266 -2.01554 0
M  V30 4058 N 388.327 4.18352 -1.98837 0
M  V30 4059 C 389.062 5.12856 -2.5645 0
M  V30 4060 N 388.558 6.13005 -3.22794 0
M  V30 4061 N 390.351 5.05238 -2.46356 0
M  V30 4062 H 382.502 1.24467 -1.7211 0
M  V30 4063 H 384.765 0.604982 -0.729864 0
M  V30 4064 H 384.471 2.66789 -2.29165 0
M  V30 4065 H 384.345 3.67294 -0.858764 0
M  V30 4066 H 386.732 2.9452 -0.184854 0
M  V30 4067 H 386.813 1.95534 -1.64924 0
M  V30 4068 H 386.457 4.05349 -3.06031 0
M  V30 4069 H 386.387 5.02661 -1.5697 0
M  V30 4070 H 388.878 3.46628 -1.50524 0
M  V30 4071 H 389.191 6.81619 -3.64165 0
M  V30 4072 H 387.536 6.13325 -3.2689 0
M  V30 4073 H 390.727 4.25938 -1.9415 0
M  V30 4074 H 390.9 5.78707 -2.91552 0
M  V30 4075 N 384.306 0.507319 1.49211 0
M  V30 4076 C 385.236 -0.256939 2.32082 0
M  V30 4077 C 386.217 -0.956609 1.40652 0
M  V30 4078 O 387.402 -0.946788 1.69557 0
M  V30 4079 C 384.532 -1.31802 3.21318 0
M  V30 4080 C 383.486 -0.737855 4.21592 0
M  V30 4081 C 382.812 -1.89992 4.99807 0
M  V30 4082 C 384.112 0.275325 5.21574 0
M  V30 4083 H 385.806 0.434798 2.96226 0
M  V30 4084 H 383.352 0.210546 1.42452 0
M  V30 4085 H 385.305 -1.86045 3.78107 0
M  V30 4086 H 384.029 -2.03903 2.5513 0
M  V30 4087 H 382.688 -0.217126 3.65956 0
M  V30 4088 H 382.336 -2.60877 4.30061 0
M  V30 4089 H 382.036 -1.51777 5.6766 0
M  V30 4090 H 383.56 -2.44657 5.59442 0
M  V30 4091 H 384.974 -0.179193 5.7302 0
M  V30 4092 H 383.371 0.573649 5.97352 0
M  V30 4093 H 384.441 1.18903 4.70096 0
M  V30 4094 N 385.784 -1.5574 0.241426 0
M  V30 4095 C 387.009 -2.0366 -0.392111 0
M  V30 4096 C 387.434 -1.11969 -1.51144 0
M  V30 4097 O 386.792 -0.111594 -1.80956 0
M  V30 4098 C 386.84 -3.49638 -0.882371 0
M  V30 4099 O 385.944 -3.6108 -1.99235 0
M  V30 4100 H 385.285 -0.658379 -0.0862122 0
M  V30 4101 H 387.815 -2.01302 0.365881 0
M  V30 4102 H 387.825 -3.90351 -1.18702 0
M  V30 4103 H 386.5 -4.15852 -0.0632361 0
M  V30 4104 H 385.077 -3.32262 -1.69282 0
M  V30 4105 N 387.262 0.0317525 -1.57568 0
M  V30 4106 C 388.225 1.01783 -2.0536 0
M  V30 4107 C 389.225 1.29203 -0.957253 0
M  V30 4108 O 390.415 1.24251 -1.22095 0
M  V30 4109 C 387.547 2.35137 -2.46827 0
M  V30 4110 H 388.74 0.605062 -2.93733 0
M  V30 4111 H 386.293 0.278514 -1.53799 0
M  V30 4112 H 387.028 2.81168 -1.61602 0
M  V30 4113 H 386.813 2.16566 -3.26866 0
M  V30 4114 H 388.303 3.05938 -2.84239 0
M  V30 4115 N 388.74 1.54641 0.303973 0
M  V30 4116 C 389.988 1.73437 1.0375 0
M  V30 4117 C 390.309 0.521449 1.87899 0
M  V30 4118 O 389.579 -0.46432 1.90318 0
M  V30 4119 H 388.159 0.639518 0.386039 0
M  V30 4120 H 390.821 1.91988 0.335675 0
M  V30 4121 H 389.917 2.62235 1.69231 0
M  V30 4122 N 390.218 -0.567019 1.47046 0
M  V30 4123 C 391.634 -0.891975 1.32348 0
M  V30 4124 C 391.834 -1.99154 0.306616 0
M  V30 4125 O 390.89 -2.50883 -0.28532 0
M  V30 4126 C 392.203 -1.29449 2.7141 0
M  V30 4127 C 393.751 -1.40646 2.79621 0
M  V30 4128 C 394.226 -1.84257 4.19301 0
M  V30 4129 N 395.717 -1.91424 4.21795 0
M  V30 4130 C 396.452 -2.26476 5.26779 0
M  V30 4131 N 395.948 -2.60211 6.42077 0
M  V30 4132 N 397.741 -2.27166 5.14152 0
M  V30 4133 H 389.892 0.159074 2.11803 0
M  V30 4134 H 392.155 0.00849752 0.947962 0
M  V30 4135 H 391.861 -0.560448 3.47206 0
M  V30 4136 H 391.735 -2.25273 3.02542 0
M  V30 4137 H 394.122 -2.13133 2.04104 0
M  V30 4138 H 394.203 -0.430339 2.52154 0
M  V30 4139 H 393.847 -1.12343 4.95319 0
M  V30 4140 H 393.777 -2.82855 4.44185 0
M  V30 4141 H 396.268 -1.6778 3.38612 0
M  V30 4142 H 396.581 -2.85956 7.17948 0
M  V30 4143 H 394.926 -2.57813 6.45413 0
M  V30 4144 H 398.117 -2.00244 4.23107 0
M  V30 4145 H 398.29 -2.54154 5.96079 0
M  V30 4146 N 391.696 -1.35014 -0.812953 0
M  V30 4147 C 392.606 -1.2951 -1.95613 0
M  V30 4148 C 393.622 -0.20107 -1.72834 0
M  V30 4149 O 394.798 -0.42932 -1.96771 0
M  V30 4150 C 391.863 -1.06033 -3.30088 0
M  V30 4151 C 390.924 -2.24688 -3.65805 0
M  V30 4152 C 390.157 -2.02322 -4.93864 0
M  V30 4153 O 390.38 -0.986464 -5.61805 0
M  V30 4154 O 389.314 -2.89525 -5.27692 0
M  V30 4155 H 393.14 -2.25705 -2.03202 0
M  V30 4156 H 390.725 -1.15321 -0.949811 0
M  V30 4157 H 392.607 -0.94763 -4.10607 0
M  V30 4158 H 391.282 -0.128852 -3.23443 0
M  V30 4159 H 390.189 -2.41521 -2.85689 0
M  V30 4160 H 391.522 -3.16261 -3.77147 0
M  V30 4161 N 393.175 1.03435 -1.18907 0
M  V30 4162 C 394.107 2.1165 -0.879595 0
M  V30 4163 C 395.12 1.62316 0.125439 0
M  V30 4164 O 396.309 1.78201 -0.103245 0
M  V30 4165 C 393.409 3.37622 -0.294042 0
M  V30 4166 C 392.582 4.16166 -1.34629 0
M  V30 4167 C 391.641 5.20457 -0.775274 0
M  V30 4168 O 390.667 5.50379 -1.4516 0
M  V30 4169 N 391.869 5.78949 0.424126 0
M  V30 4170 H 394.634 2.38791 -1.81105 0
M  V30 4171 H 392.195 1.19681 -1.09032 0
M  V30 4172 H 394.187 4.04572 0.101679 0
M  V30 4173 H 392.757 3.07873 0.541575 0
M  V30 4174 H 391.977 3.44444 -1.91707 0
M  V30 4175 H 393.265 4.65432 -2.05549 0
M  V30 4176 H 392.663 5.56948 0.991209 0
M  V30 4177 H 391.22 6.47334 0.761691 0
M  V30 4178 N 394.653 0.992116 1.22453 0
M  V30 4179 C 395.586 0.486701 2.22949 0
M  V30 4180 C 396.564 -0.45259 1.56174 0
M  V30 4181 O 397.748 -0.378317 1.84665 0
M  V30 4182 C 394.875 -0.294537 3.37417 0
M  V30 4183 C 393.921 0.590628 4.22391 0
M  V30 4184 S 394.754 2.04546 4.94895 0
M  V30 4185 C 395.91 1.27369 6.12803 0
M  V30 4186 H 396.143 1.33828 2.65475 0
M  V30 4187 H 393.676 0.799023 1.32117 0
M  V30 4188 H 395.634 -0.739241 4.03789 0
M  V30 4189 H 394.295 -1.12139 2.934 0
M  V30 4190 H 393.488 -0.0104375 5.03999 0
M  V30 4191 H 393.09 0.972064 3.61147 0
M  V30 4192 H 395.382 0.540943 6.75337 0
M  V30 4193 H 396.325 2.06502 6.7732 0
M  V30 4194 H 396.733 0.787324 5.58983 0
M  V30 4195 N 396.131 -1.37776 0.765217 0
M  V30 4196 C 397.079 -2.32209 0.134798 0
M  V30 4197 C 398.073 -1.54607 -0.692315 0
M  V30 4198 O 399.279 -1.70052 -0.590109 0
M  V30 4199 H 395.654 -0.751591 0.0248005 0
M  V30 4200 H 397.625 -2.8297 0.947119 0
M  V30 4201 C 396.374 -3.39841 -0.735063 0
M  V30 4202 H 395.697 -3.99654 -0.107991 0
M  V30 4203 H 397.137 -4.08296 -1.14326 0
M  V30 4204 C 395.596 -2.79378 -1.88281 0
M  V30 4205 O 396.126 -2.69608 -2.97783 0
M  V30 4206 N 394.332 -2.37016 -1.68142 0
M  V30 4207 H 393.879 -2.45162 -0.790772 0
M  V30 4208 H 393.837 -1.96905 -2.45104 0
M  V30 4209 N 397.609 -0.515225 -1.4894 0
M  V30 4210 C 398.519 0.259774 -2.33157 0
M  V30 4211 C 399.535 0.953501 -1.45548 0
M  V30 4212 O 400.711 0.931735 -1.78552 0
M  V30 4213 C 397.776 1.30193 -3.21326 0
M  V30 4214 C 396.837 0.620129 -4.24797 0
M  V30 4215 C 396.07 1.61263 -5.08753 0
M  V30 4216 O 396.293 2.84389 -4.94448 0
M  V30 4217 O 395.227 1.16013 -5.90614 0
M  V30 4218 H 399.053 -0.429932 -3.00641 0
M  V30 4219 H 396.638 -0.276346 -1.46822 0
M  V30 4220 H 398.52 1.90455 -3.75905 0
M  V30 4221 H 397.195 1.97431 -2.56521 0
M  V30 4222 H 396.102 -0.0226019 -3.74093 0
M  V30 4223 H 397.435 -0.0100493 -4.92199 0
M  V30 4224 N 399.087 1.5561 -0.249682 0
M  V30 4225 C 400.019 2.18834 0.681496 0
M  V30 4226 C 401.032 1.16546 1.1367 0
M  V30 4227 O 402.221 1.43397 1.06299 0
M  V30 4228 C 399.321 2.77992 1.9384 0
M  V30 4229 C 398.494 4.05725 1.63419 0
M  V30 4230 C 397.553 4.49174 2.74096 0
M  V30 4231 O 396.579 5.15492 2.41364 0
M  V30 4232 N 397.781 4.17191 4.03649 0
M  V30 4233 H 400.546 2.9937 0.140514 0
M  V30 4234 H 398.107 1.6175 -0.0697541 0
M  V30 4235 H 400.099 3.04015 2.67127 0
M  V30 4236 H 398.669 2.01596 2.38909 0
M  V30 4237 H 397.889 3.87261 0.736358 0
M  V30 4238 H 399.177 4.88999 1.40562 0
M  V30 4239 H 398.575 3.63955 4.33074 0
M  V30 4240 H 397.132 4.48043 4.73393 0
M  V30 4241 N 400.565 -0.0233959 1.57583 0
M  V30 4242 C 401.793 -0.724682 1.93794 0
M  V30 4243 C 402.208 -1.68588 0.849912 0
M  V30 4244 O 401.565 -1.81676 -0.173204 0
M  V30 4245 C 401.616 -1.47684 3.29957 0
M  V30 4246 O 401.337 -0.554222 4.3458 0
M  V30 4247 C 402.838 -2.27477 3.80485 0
M  V30 4248 H 400.058 -0.203317 0.639455 0
M  V30 4249 H 402.602 0.0207653 2.04489 0
M  V30 4250 H 400.757 -2.17412 3.20641 0
M  V30 4251 H 401.171 -1.08232 5.13212 0
M  V30 4252 H 402.645 -2.7564 4.78254 0
M  V30 4253 H 403.122 -3.09144 3.11972 0
M  V30 4254 H 403.728 -1.62813 3.92902 0
M  V30 4255 N 402.043 -1.548 -0.295768 0
M  V30 4256 C 402.975 -1.82492 -1.3867 0
M  V30 4257 C 403.988 -0.708134 -1.46592 0
M  V30 4258 O 405.177 -0.985686 -1.48817 0
M  V30 4259 C 402.277 -1.95256 -2.76999 0
M  V30 4260 C 401.45 -3.25709 -2.91946 0
M  V30 4261 C 400.509 -3.28824 -4.10806 0
M  V30 4262 O 399.535 -4.02328 -4.02643 0
M  V30 4263 N 400.737 -2.5459 -5.21694 0
M  V30 4264 H 403.502 -2.76646 -1.15269 0
M  V30 4265 H 401.063 -1.54438 -0.485849 0
M  V30 4266 H 403.055 -1.94736 -3.54768 0
M  V30 4267 H 401.625 -1.08072 -2.93324 0
M  V30 4268 H 400.845 -3.38959 -2.01247 0
M  V30 4269 H 402.133 -4.11786 -2.98847 0
M  V30 4270 H 401.531 -1.94512 -5.31208 0
M  V30 4271 H 400.088 -2.59818 -5.97778 0
M  V30 4272 N 403.521 0.559213 -1.47345 0
M  V30 4273 C 404.484 1.64854 -1.59235 0
M  V30 4274 C 405.484 1.53851 -0.467607 0
M  V30 4275 O 406.674 1.58045 -0.732617 0
M  V30 4276 C 403.806 3.04388 -1.53496 0
M  V30 4277 H 404.999 1.55662 -2.56339 0
M  V30 4278 H 402.552 0.778973 -1.35505 0
M  V30 4279 H 403.287 3.19115 -0.577604 0
M  V30 4280 H 403.072 3.13783 -2.35123 0
M  V30 4281 H 404.562 3.83642 -1.6495 0
M  V30 4282 N 404.999 1.35443 0.805782 0
M  V30 4283 C 405.932 1.22783 1.92353 0
M  V30 4284 C 406.91 0.115543 1.62189 0
M  V30 4285 O 408.094 0.283778 1.86352 0
M  V30 4286 C 405.221 0.890746 3.26777 0
M  V30 4287 C 404.267 2.01519 3.75889 0
M  V30 4288 S 405.1 3.63101 3.93596 0
M  V30 4289 C 406.256 3.31472 5.30921 0
M  V30 4290 H 406.489 2.17394 2.02798 0
M  V30 4291 H 404.022 1.20669 0.963245 0
M  V30 4292 H 405.98 0.703068 4.04434 0
M  V30 4293 H 404.641 -0.0373152 3.14078 0
M  V30 4294 H 403.834 1.7335 4.7325 0
M  V30 4295 H 403.436 2.16124 3.05231 0
M  V30 4296 H 405.728 2.8435 6.1494 0
M  V30 4297 H 406.671 4.28036 5.64084 0
M  V30 4298 H 407.079 2.67221 4.97246 0
M  V30 4299 N 406.477 -1.02803 1.19454 0
M  V30 4300 C 407.717 -1.77769 1.00883 0
M  V30 4301 C 408.081 -1.86596 -0.45233 0
M  V30 4302 O 409.282 -2.57895 -0.757877 0
M  V30 4303 C 407.553 -3.16486 1.66046 0
M  V30 4304 S 409.112 -4.07632 1.62424 0
M  V30 4305 H 405.93 -0.611949 0.361993 0
M  V30 4306 H 408.532 -1.23175 1.51816 0
M  V30 4307 H 407.236 -3.0768 2.7159 0
M  V30 4308 H 406.767 -3.76156 1.15196 0
M  V30 4309 H 408.782 -4.91937 0.64903 0
M  V30 4310 N 407.956 -0.998596 -1.21925 0
M  V30 4311 C 409.203 -0.677663 -1.90824 0
M  V30 4312 C 409.531 0.790905 -1.77693 0
M  V30 4313 O 408.786 1.58817 -1.14349 0
M  V30 4314 C 409.085 -1.03648 -3.42041 0
M  V30 4315 C 408.751 -2.49825 -3.75364 0
M  V30 4316 C 407.413 -2.8977 -3.8417 0
M  V30 4317 C 409.765 -3.44545 -3.91073 0
M  V30 4318 C 407.093 -4.23412 -4.06127 0
M  V30 4319 C 409.445 -4.77853 -4.14535 0
M  V30 4320 C 408.109 -5.17531 -4.21566 0
M  V30 4321 H 407.379 -0.247975 -0.698276 0
M  V30 4322 H 410.026 -1.25584 -1.44571 0
M  V30 4323 H 408.331 -0.376457 -3.89987 0
M  V30 4324 H 410.028 -0.766113 -3.93614 0
M  V30 4325 H 406.618 -2.17866 -3.69097 0
M  V30 4326 H 410.802 -3.14853 -3.83642 0
M  V30 4327 H 406.058 -4.53734 -4.09799 0
M  V30 4328 H 410.232 -5.51189 -4.25633 0
M  V30 4329 H 407.859 -6.21102 -4.38333 0
M  V30 4330 N 409.434 1.37368 -0.772513 0
M  V30 4331 C 410.367 2.27956 -0.105593 0
M  V30 4332 C 411.345 1.46362 0.708295 0
M  V30 4333 O 412.529 1.75695 0.682895 0
M  V30 4334 C 409.656 3.27687 0.856686 0
M  V30 4335 C 408.702 4.26312 0.1267 0
M  V30 4336 S 409.535 5.22206 -1.1858 0
M  V30 4337 C 410.691 6.25488 -0.227081 0
M  V30 4338 H 410.924 2.84171 -0.87372 0
M  V30 4339 H 408.457 1.43654 -0.565939 0
M  V30 4340 H 410.415 3.85653 1.40648 0
M  V30 4341 H 409.076 2.70417 1.59793 0
M  V30 4342 H 408.269 4.96674 0.856212 0
M  V30 4343 H 407.871 3.72339 -0.352117 0
M  V30 4344 H 410.163 6.74836 0.600231 0
M  V30 4345 H 411.106 7.02371 -0.898899 0
M  V30 4346 H 411.514 5.64267 0.162053 0
M  V30 4347 N 410.912 0.523116 1.48665 0
M  V30 4348 C 411.875 -0.232592 2.28017 0
M  V30 4349 C 412.875 -0.874021 1.34972 0
M  V30 4350 O 414.065 -0.735132 1.57929 0
M  V30 4351 C 411.197 -1.33586 3.13636 0
M  V30 4352 H 412.39 0.464008 2.96289 0
M  V30 4353 H 409.943 0.278816 1.53793 0
M  V30 4354 H 410.678 -2.06593 2.4998 0
M  V30 4355 H 410.463 -0.881125 3.82071 0
M  V30 4356 H 411.953 -1.86759 3.73511 0
M  V30 4357 N 412.39 -1.55475 0.257931 0
M  V30 4358 C 413.638 -1.98813 -0.363009 0
M  V30 4359 C 413.959 -1.14757 -1.57657 0
M  V30 4360 O 413.229 -0.232956 -1.9451 0
M  V30 4361 H 411.809 -0.734308 -0.137113 0
M  V30 4362 H 414.471 -1.9156 0.359281 0
M  V30 4363 H 413.567 -3.04941 -0.664634 0
M  V30 4364 N 413.868 0.0150385 -1.57593 0
M  V30 4365 C 414.831 0.995996 -2.06428 0
M  V30 4366 C 415.831 1.2818 -0.970903 0
M  V30 4367 O 417.021 1.22949 -1.23406 0
M  V30 4368 C 414.153 2.32506 -2.49307 0
M  V30 4369 H 415.346 0.573873 -2.94358 0
M  V30 4370 H 412.899 0.262186 -1.54085 0
M  V30 4371 H 413.634 2.79438 -1.64575 0
M  V30 4372 H 413.419 2.13087 -3.29145 0
M  V30 4373 H 414.909 3.02906 -2.87468 0
M  V30 4374 N 415.346 1.54954 0.287554 0
M  V30 4375 C 416.294 1.87606 1.37502 0
M  V30 4376 C 417.288 0.751001 1.51843 0
M  V30 4377 O 418.494 0.935169 1.53801 0
M  V30 4378 H 414.869 0.595231 0.459569 0
M  V30 4379 H 416.84 2.78477 1.07206 0
M  V30 4380 C 415.589 2.15183 2.73115 0
M  V30 4381 H 414.912 3.01234 2.62866 0
M  V30 4382 H 416.352 2.4196 3.48183 0
M  V30 4383 C 414.811 0.954686 3.2309 0
M  V30 4384 O 415.341 0.181949 4.01288 0
M  V30 4385 N 413.547 0.756368 2.80584 0
M  V30 4386 H 413.094 1.38643 2.17108 0
M  V30 4387 H 413.052 -0.0430391 3.14371 0
M  V30 4388 N 416.824 -0.551391 1.4764 0
M  V30 4389 C 418.049 -1.33837 1.58437 0
M  V30 4390 C 418.474 -1.866 0.237063 0
M  V30 4391 O 417.832 -1.6328 -0.787994 0
M  V30 4392 C 417.88 -2.48014 2.61766 0
M  V30 4393 O 416.984 -3.50419 2.1744 0
M  V30 4394 H 416.325 -0.397299 0.532024 0
M  V30 4395 H 418.855 -0.665759 1.93465 0
M  V30 4396 H 418.865 -2.94503 2.82369 0
M  V30 4397 H 417.54 -2.08969 3.5959 0
M  V30 4398 H 416.117 -3.10196 2.06961 0
M  V30 4399 N 418.302 -1.35869 -0.798587 0
M  V30 4400 C 419.551 -1.28921 -1.5512 0
M  V30 4401 C 419.864 0.13208 -1.95154 0
M  V30 4402 O 421.07 0.323879 -2.69561 0
M  V30 4403 C 419.526 -2.26141 -2.79979 0
M  V30 4404 C 419.134 -3.73658 -2.47151 0
M  V30 4405 C 420.878 -2.28152 -3.57976 0
M  V30 4406 C 418.785 -4.62679 -3.6835 0
M  V30 4407 H 417.715 -0.479031 -0.582276 0
M  V30 4408 H 420.366 -1.61179 -0.877125 0
M  V30 4409 H 418.748 -1.86865 -3.49138 0
M  V30 4410 H 419.922 -4.21616 -1.85947 0
M  V30 4411 H 418.237 -3.74333 -1.82383 0
M  V30 4412 H 420.834 -2.91875 -4.4801 0
M  V30 4413 H 421.177 -1.28748 -3.95891 0
M  V30 4414 H 421.71 -2.65998 -2.95787 0
M  V30 4415 H 418.449 -5.63111 -3.35538 0
M  V30 4416 H 417.969 -4.19442 -4.28752 0
M  V30 4417 H 419.648 -4.78498 -4.35487 0
M  V30 4418 N 419.78 1.02168 -1.19998 0
M  V30 4419 C 421.027 1.75685 -1.00702 0
M  V30 4420 C 421.355 1.88947 0.461426 0
M  V30 4421 O 420.61 1.40832 1.35885 0
M  V30 4422 C 420.909 3.18081 -1.62969 0
M  V30 4423 C 420.575 3.24809 -3.12746 0
M  V30 4424 C 419.237 3.26352 -3.53621 0
M  V30 4425 C 421.589 3.23379 -4.08749 0
M  V30 4426 C 418.917 3.2413 -4.89036 0
M  V30 4427 C 421.269 3.22698 -5.44104 0
M  V30 4428 C 419.933 3.22542 -5.84399 0
M  V30 4429 H 419.203 0.642877 -0.368496 0
M  V30 4430 H 421.85 1.19865 -1.49348 0
M  V30 4431 H 420.155 3.77027 -1.06573 0
M  V30 4432 H 421.852 3.73648 -1.45561 0
M  V30 4433 H 418.442 3.2434 -2.80181 0
M  V30 4434 H 422.626 3.21361 -3.78207 0
M  V30 4435 H 417.882 3.22338 -5.19527 0
M  V30 4436 H 422.056 3.20543 -6.18244 0
M  V30 4437 H 419.683 3.20575 -6.89301 0
M  V30 4438 N 421.258 1.00505 1.21394 0
M  V30 4439 C 422.488 0.705584 1.94178 0
M  V30 4440 C 422.896 -0.735846 1.74304 0
M  V30 4441 O 422.239 -1.50954 1.04683 0
M  V30 4442 C 422.301 0.94689 3.46806 0
M  V30 4443 C 421.965 2.37517 3.90429 0
M  V30 4444 C 422.962 3.35539 3.97127 0
M  V30 4445 C 420.647 2.71284 4.22742 0
M  V30 4446 C 422.641 4.65395 4.3553 0
M  V30 4447 C 420.328 4.01356 4.60822 0
M  V30 4448 C 421.326 4.98223 4.67186 0
M  V30 4449 O 421.014 6.25969 5.04399 0
M  V30 4450 H 420.746 0.259216 0.624326 0
M  V30 4451 H 423.3 1.34592 1.55159 0
M  V30 4452 H 421.53 0.249386 3.85895 0
M  V30 4453 H 423.219 0.640804 4.0081 0
M  V30 4454 H 423.985 3.10786 3.7234 0
M  V30 4455 H 419.864 1.96581 4.16985 0
M  V30 4456 H 423.408 5.41002 4.40412 0
M  V30 4457 H 419.305 4.25893 4.85063 0
M  V30 4458 H 420.073 6.30085 5.22431 0
M  V30 4459 N 422.737 -1.36956 0.779787 0
M  V30 4460 C 423.985 -1.99097 0.347079 0
M  V30 4461 C 424.306 -1.62206 -1.08232 0
M  V30 4462 O 423.576 -0.891373 -1.74446 0
M  V30 4463 H 422.156 -0.736409 0.125342 0
M  V30 4464 H 424.818 -1.67308 0.999696 0
M  V30 4465 H 423.914 -3.09107 0.431162 0
M  V30 4466 N 424.215 -0.530993 -1.48385 0
M  V30 4467 C 425.455 0.000718982 -2.044 0
M  V30 4468 C 425.819 1.31485 -1.39913 0
M  V30 4469 O 427.02 1.93265 -1.86821 0
M  V30 4470 C 425.291 0.119177 -3.57201 0
M  V30 4471 S 426.85 0.600806 -4.34667 0
M  V30 4472 H 423.668 -0.0125473 -0.710889 0
M  V30 4473 H 426.27 -0.711783 -1.82082 0
M  V30 4474 H 424.974 -0.842061 -4.01668 0
M  V30 4475 H 424.505 0.856026 -3.83974 0
M  V30 4476 H 426.52 1.86514 -4.59812 0
M  V30 4477 N 425.693 1.55336 -0.266172 0
M  V30 4478 C 426.64 2.22172 0.625165 0
M  V30 4479 C 427.61 1.19211 1.15663 0
M  V30 4480 O 428.795 1.47723 1.20758 0
M  V30 4481 C 425.935 2.93972 1.8076 0
M  V30 4482 C 425.048 4.11632 1.31084 0
M  V30 4483 C 424.183 4.71099 2.45436 0
M  V30 4484 C 423.222 5.8097 1.92718 0
M  V30 4485 N 422.359 6.34538 3.00509 0
M  V30 4486 H 427.199 2.9796 0.0485582 0
M  V30 4487 H 424.736 1.47095 0.0122024 0
M  V30 4488 H 426.694 3.33811 2.50251 0
M  V30 4489 H 425.324 2.20623 2.35638 0
M  V30 4490 H 424.376 3.76975 0.509326 0
M  V30 4491 H 425.688 4.90893 0.884633 0
M  V30 4492 H 424.842 5.13612 3.22936 0
M  V30 4493 H 423.581 3.91096 2.91368 0
M  V30 4494 H 422.586 5.37916 1.13695 0
M  V30 4495 H 423.811 6.62836 1.47733 0
M  V30 4496 H 421.757 5.57433 3.45839 0
M  V30 4497 H 421.674 7.09046 2.62279 0
M  V30 4498 H 422.942 6.81709 3.78011 0
M  V30 4499 N 427.171 -0.0066808 1.57599 0
M  V30 4500 C 428.101 -0.999296 2.11036 0
M  V30 4501 C 429.082 -1.36278 1.01795 0
M  V30 4502 O 430.267 -1.4477 1.29442 0
M  V30 4503 C 427.397 -2.29328 2.60818 0
M  V30 4504 C 426.351 -2.07159 3.74525 0
M  V30 4505 C 425.677 -3.42512 4.10596 0
M  V30 4506 C 426.977 -1.43959 5.02069 0
M  V30 4507 H 428.671 -0.554382 2.94223 0
M  V30 4508 H 426.217 -0.265221 1.41536 0
M  V30 4509 H 428.17 -2.99117 2.96828 0
M  V30 4510 H 426.894 -2.7592 1.74745 0
M  V30 4511 H 425.553 -1.39797 3.38899 0
M  V30 4512 H 425.201 -3.86795 3.21556 0
M  V30 4513 H 424.901 -3.28498 4.87199 0
M  V30 4514 H 426.425 -4.13628 4.4916 0
M  V30 4515 H 427.839 -2.03696 5.35893 0
M  V30 4516 H 426.236 -1.40452 5.83432 0
M  V30 4517 H 427.306 -0.407992 4.83181 0
M  V30 4518 N 428.649 -1.55105 -0.279332 0
M  V30 4519 C 429.579 -1.90557 -1.34945 0
M  V30 4520 C 430.56 -0.766738 -1.51839 0
M  V30 4521 O 431.745 -1.02434 -1.64988 0
M  V30 4522 C 428.875 -2.17193 -2.71006 0
M  V30 4523 C 427.829 -3.33021 -2.68851 0
M  V30 4524 C 427.155 -3.45123 -4.08405 0
M  V30 4525 C 428.455 -4.69578 -2.28678 0
M  V30 4526 H 430.149 -2.80188 -1.05522 0
M  V30 4527 H 427.695 -1.34811 -0.506173 0
M  V30 4528 H 429.648 -2.40581 -3.45975 0
M  V30 4529 H 428.372 -1.24355 -3.01999 0
M  V30 4530 H 427.031 -3.0959 -1.9634 0
M  V30 4531 H 426.679 -2.49762 -4.3661 0
M  V30 4532 H 426.379 -4.22995 -4.07859 0
M  V30 4533 H 427.903 -3.70796 -4.85121 0
M  V30 4534 H 429.317 -4.92553 -2.93368 0
M  V30 4535 H 427.714 -5.5032 -2.39306 0
M  V30 4536 H 428.784 -4.68828 -1.23807 0
M  V30 4537 N 430.127 0.543554 -1.4793 0
M  V30 4538 C 431.355 1.32516 -1.58894 0
M  V30 4539 C 431.77 1.87215 -0.244131 0
M  V30 4540 O 431.127 1.65709 0.764652 0
M  V30 4541 C 431.178 2.48554 -2.62494 0
M  V30 4542 O 430.899 1.96112 -3.91755 0
M  V30 4543 C 432.4 3.40572 -2.8377 0
M  V30 4544 H 429.62 0.403472 -0.536145 0
M  V30 4545 H 432.164 0.657106 -1.93655 0
M  V30 4546 H 430.319 3.1127 -2.30629 0
M  V30 4547 H 430.733 2.71967 -4.4848 0
M  V30 4548 H 432.207 4.18375 -3.60093 0
M  V30 4549 H 432.684 3.94965 -1.92092 0
M  V30 4550 H 433.29 2.8366 -3.16887 0
M  V30 4551 N 431.605 1.3629 0.791371 0
M  V30 4552 C 432.833 1.33562 1.58016 0
M  V30 4553 C 433.248 -0.0835616 1.88615 0
M  V30 4554 O 432.605 -1.0399 1.49974 0
M  V30 4555 C 432.656 2.15517 2.90232 0
M  V30 4556 O 432.377 3.51902 2.60953 0
M  V30 4557 C 433.878 2.20546 3.84544 0
M  V30 4558 H 431.098 0.458226 0.490173 0
M  V30 4559 H 433.642 1.79361 0.982345 0
M  V30 4560 H 431.797 1.73278 3.46487 0
M  V30 4561 H 432.211 3.94644 3.4548 0
M  V30 4562 H 433.685 2.82252 4.74382 0
M  V30 4563 H 434.162 1.20838 4.2225 0
M  V30 4564 H 434.768 2.63013 3.34222 0
M  V30 4565 N 433.083 -1.0153 1.20538 0
M  V30 4566 C 434.494 -1.56598 1.01657 0
M  V30 4567 C 434.845 -1.91505 -0.426668 0
M  V30 4568 O 433.97 -1.72375 -1.30827 0
M  V30 4569 C 434.565 -2.84542 1.83905 0
M  V30 4570 C 433.124 -3.36133 1.69386 0
M  V30 4571 C 432.271 -2.09427 1.81757 0
M  V30 4572 H 435.222 -0.838974 1.34711 0
M  V30 4573 H 435.243 -3.56004 1.34319 0
M  V30 4574 H 434.755 -2.59105 2.8894 0
M  V30 4575 H 432.856 -3.66528 0.669933 0
M  V30 4576 H 432.969 -4.08248 2.50739 0
M  V30 4577 H 431.333 -2.21941 1.24957 0
M  V30 4578 H 432.116 -1.86414 2.88279 0
M  V30 4579 N 434.561 -1.01147 -1.20859 0
M  V30 4580 C 435.509 -0.57059 -2.25493 0
M  V30 4581 C 436.503 0.388109 -1.64894 0
M  V30 4582 O 437.709 0.258592 -1.78133 0
M  V30 4583 H 434.084 -0.166191 -0.733406 0
M  V30 4584 H 436.055 -1.46411 -2.60012 0
M  V30 4585 C 434.804 0.0805241 -3.47607 0
M  V30 4586 H 434.127 -0.648156 -3.94511 0
M  V30 4587 H 435.567 0.352197 -4.22535 0
M  V30 4588 C 434.026 1.32175 -3.09889 0
M  V30 4589 O 434.556 2.41553 -3.20959 0
M  V30 4590 N 432.762 1.20392 -2.64488 0
M  V30 4591 H 432.309 0.313905 -2.5568 0
M  V30 4592 H 432.267 2.03541 -2.39621 0
M  V30 4593 N 436.039 1.36541 -0.78704 0
M  V30 4594 C 437.45 1.81873 -0.421807 0
M  V30 4595 C 437.801 1.65487 1.05397 0
M  V30 4596 O 436.926 1.17448 1.81755 0
M  V30 4597 C 437.521 3.30192 -0.758841 0
M  V30 4598 C 436.08 3.73743 -0.446468 0
M  V30 4599 C 435.227 2.58844 -0.994728 0
M  V30 4600 H 438.178 1.24796 -0.98039 0
M  V30 4601 H 438.199 3.80468 -0.0490648 0
M  V30 4602 H 437.711 3.42087 -1.83299 0
M  V30 4603 H 435.812 3.6741 0.619739 0
M  V30 4604 H 435.925 4.69272 -0.965415 0
M  V30 4605 H 434.289 2.51245 -0.418087 0
M  V30 4606 H 435.072 2.73525 -2.07458 0
M  V30 4607 N 437.518 0.538854 1.48102 0
M  V30 4608 C 438.428 -0.222648 2.33541 0
M  V30 4609 C 439.444 -0.930225 1.47047 0
M  V30 4610 O 440.62 -0.903211 1.80011 0
M  V30 4611 C 437.685 -1.25064 3.23357 0
M  V30 4612 C 436.746 -0.552469 4.2573 0
M  V30 4613 C 435.979 -1.53149 5.11254 0
M  V30 4614 O 436.202 -2.76487 4.9891 0
M  V30 4615 O 435.136 -1.06602 5.92385 0
M  V30 4616 H 438.962 0.477707 2.99919 0
M  V30 4617 H 436.547 0.299669 1.46364 0
M  V30 4618 H 438.429 -1.8445 3.78888 0
M  V30 4619 H 437.104 -1.93325 2.59629 0
M  V30 4620 H 436.011 0.082114 3.7401 0
M  V30 4621 H 437.344 0.0883526 4.92121 0
M  V30 4622 N 438.996 -1.55193 0.274407 0
M  V30 4623 C 439.906 -2.26164 -0.623473 0
M  V30 4624 C 440.922 -1.28729 -1.17068 0
M  V30 4625 O 442.098 -1.61663 -1.20112 0
M  V30 4626 C 439.163 -2.96833 -1.7914 0
M  V30 4627 C 438.224 -4.09745 -1.28093 0
M  V30 4628 C 437.457 -4.77034 -2.3932 0
M  V30 4629 O 437.68 -4.4353 -3.5866 0
M  V30 4630 O 436.614 -5.64996 -2.07516 0
M  V30 4631 H 440.44 -3.03661 -0.0485661 0
M  V30 4632 H 438.025 -1.49341 0.0418382 0
M  V30 4633 H 439.907 -3.41248 -2.4724 0
M  V30 4634 H 438.582 -2.22253 -2.35341 0
M  V30 4635 H 437.489 -3.69787 -0.566416 0
M  V30 4636 H 438.822 -4.86224 -0.764683 0
M  V30 4637 N 440.474 -0.00167713 -1.576 0
M  V30 4638 C 441.751 0.719951 -1.81868 0
M  V30 4639 C 442.131 1.91895 -0.879747 0
M  V30 4640 O 441.479 2.28389 0.0711423 0
M  V30 4641 C 441.689 1.12409 -3.30402 0
M  V30 4642 C 443.037 1.52724 -3.96182 0
M  V30 4643 O 444.061 1.21784 -3.34734 0
M  V30 4644 O 442.92 2.10265 -5.04431 0
M  V30 4645 H 440.014 0.350707 -0.748955 0
M  V30 4646 H 442.56 -0.0272597 -1.69678 0
M  V30 4647 H 441.332 0.269532 -3.90371 0
M  V30 4648 H 440.955 1.93035 -3.47596 0
M  V30 4649 N 441.952 1.55251 0.271103 0
M  V30 4650 C 442.899 1.88261 1.33516 0
M  V30 4651 C 443.869 0.734296 1.48988 0
M  V30 4652 O 445.054 0.985741 1.63364 0
M  V30 4653 C 442.194 2.16168 2.69008 0
M  V30 4654 C 441.307 3.43678 2.61743 0
M  V30 4655 C 440.442 3.61276 3.89427 0
M  V30 4656 C 439.481 4.82472 3.7668 0
M  V30 4657 N 438.618 4.96717 4.96202 0
M  V30 4658 H 443.458 2.79015 1.04665 0
M  V30 4659 H 440.995 1.38137 0.505618 0
M  V30 4660 H 442.953 2.30349 3.47844 0
M  V30 4661 H 441.583 1.28646 2.96057 0
M  V30 4662 H 440.635 3.37959 1.74607 0
M  V30 4663 H 441.947 4.3265 2.48224 0
M  V30 4664 H 441.101 3.75284 4.76704 0
M  V30 4665 H 439.84 2.70492 4.05814 0
M  V30 4666 H 438.845 4.68465 2.87786 0
M  V30 4667 H 440.07 5.74692 3.61809 0
M  V30 4668 H 438.016 4.08865 5.12997 0
M  V30 4669 H 437.933 5.79738 4.85222 0
M  V30 4670 H 439.201 5.15113 5.85046 0
M  V30 4671 N 443.43 -0.535701 1.48216 0
M  V30 4672 C 444.707 -1.29683 1.46429 0
M  V30 4673 C 445.087 -2.10391 0.172852 0
M  V30 4674 O 444.435 -2.12282 -0.845488 0
M  V30 4675 C 444.645 -2.18313 2.72287 0
M  V30 4676 C 445.993 -2.78639 3.20383 0
M  V30 4677 O 447.017 -2.28604 2.73164 0
M  V30 4678 O 445.876 -3.69636 4.02531 0
M  V30 4679 H 442.97 -0.585026 0.584529 0
M  V30 4680 H 445.516 -0.552827 1.60443 0
M  V30 4681 H 444.288 -1.58421 3.57797 0
M  V30 4682 H 443.911 -2.99971 2.60966 0
M  V30 4683 N 444.908 -1.36708 -0.784132 0
M  V30 4684 C 445.838 -1.34153 -1.91116 0
M  V30 4685 C 446.819 -0.212121 -1.68772 0
M  V30 4686 O 448.004 -0.410581 -1.8981 0
M  V30 4687 C 445.134 -1.13535 -3.28218 0
M  V30 4688 C 444.088 -2.23356 -3.65097 0
M  V30 4689 C 443.414 -1.87875 -5.00607 0
M  V30 4690 C 444.714 -3.65473 -3.73131 0
M  V30 4691 H 446.408 -2.28459 -1.93512 0
M  V30 4692 H 443.954 -1.09973 -0.929618 0
M  V30 4693 H 445.907 -1.10381 -4.06687 0
M  V30 4694 H 444.631 -0.156804 -3.26223 0
M  V30 4695 H 443.29 -2.25645 -2.88929 0
M  V30 4696 H 442.938 -0.885814 -4.95139 0
M  V30 4697 H 442.638 -2.61406 -5.26252 0
M  V30 4698 H 444.162 -1.86286 -5.81489 0
M  V30 4699 H 445.576 -3.65382 -4.41779 0
M  V30 4700 H 443.973 -4.37953 -4.10265 0
M  V30 4701 H 445.043 -3.99995 -2.74102 0
M  V30 4702 N 446.386 1.0089 -1.21074 0
M  V30 4703 C 447.318 2.09737 -0.924291 0
M  V30 4704 C 448.331 1.62546 0.0909809 0
M  V30 4705 O 449.52 1.77942 -0.141021 0
M  V30 4706 C 446.62 3.36922 -0.36559 0
M  V30 4707 C 445.793 4.13216 -1.43426 0
M  V30 4708 C 444.852 5.18696 -0.885496 0
M  V30 4709 O 443.878 5.47176 -1.56801 0
M  V30 4710 N 445.08 5.79718 0.301227 0
M  V30 4711 H 447.845 2.34895 -1.8613 0
M  V30 4712 H 445.406 1.17341 -1.11546 0
M  V30 4713 H 447.398 4.04697 0.0158407 0
M  V30 4714 H 445.968 3.08952 0.476149 0
M  V30 4715 H 445.188 3.40301 -1.9897 0
M  V30 4716 H 446.476 4.60967 -2.15376 0
M  V30 4717 H 445.874 5.58926 0.872849 0
M  V30 4718 H 444.431 6.48804 0.624211 0
M  V30 4719 N 447.864 1.01787 1.20321 0
M  V30 4720 C 448.794 0.609625 2.25401 0
M  V30 4721 C 449.775 -0.375951 1.65893 0
M  V30 4722 O 450.96 -0.261101 1.92437 0
M  V30 4723 C 448.09 -0.0515995 3.47262 0
M  V30 4724 C 447.044 0.855095 4.19371 0
M  V30 4725 C 446.37 0.0595757 5.34667 0
M  V30 4726 C 447.67 2.16374 4.75373 0
M  V30 4727 H 449.364 1.48803 2.59804 0
M  V30 4728 H 446.91 0.716934 1.24884 0
M  V30 4729 H 448.863 -0.348764 4.19954 0
M  V30 4730 H 447.587 -0.964726 3.12027 0
M  V30 4731 H 446.246 1.13628 3.48546 0
M  V30 4732 H 445.894 -0.85524 4.95676 0
M  V30 4733 H 445.594 0.663406 5.83843 0
M  V30 4734 H 447.118 -0.231105 6.10162 0
M  V30 4735 H 448.532 1.92885 5.39878 0
M  V30 4736 H 446.929 2.71853 5.34991 0
M  V30 4737 H 447.999 2.82589 3.94045 0
M  V30 4738 N 449.342 -1.36122 0.79427 0
M  V30 4739 C 450.589 -1.99111 0.368905 0
M  V30 4740 C 450.917 -1.63032 -1.0607 0
M  V30 4741 O 450.172 -0.879303 -1.74833 0
M  V30 4742 C 450.471 -3.5409 0.48527 0
M  V30 4743 C 450.137 -4.10003 1.87638 0
M  V30 4744 C 448.799 -4.24986 2.257 0
M  V30 4745 C 451.151 -4.40423 2.78706 0
M  V30 4746 C 448.479 -4.67701 3.54221 0
M  V30 4747 C 450.831 -4.84573 4.0666 0
M  V30 4748 C 449.495 -4.97761 4.44737 0
M  V30 4749 H 448.765 -0.7286 0.134992 0
M  V30 4750 H 451.412 -1.62534 1.01267 0
M  V30 4751 H 449.717 -3.91052 -0.241984 0
M  V30 4752 H 451.414 -4.00766 0.137109 0
M  V30 4753 H 448.004 -3.98784 1.57064 0
M  V30 4754 H 452.188 -4.28412 2.50553 0
M  V30 4755 H 447.444 -4.761 3.83587 0
M  V30 4756 H 451.618 -5.07074 4.77336 0
M  V30 4757 H 449.245 -5.30618 5.44379 0
M  V30 4758 N 450.82 -0.546701 -1.47814 0
M  V30 4759 C 452.236 -0.205717 -1.58269 0
M  V30 4760 C 452.436 1.29153 -1.54667 0
M  V30 4761 O 451.492 2.07098 -1.44453 0
M  V30 4762 C 452.805 -0.823065 -2.89216 0
M  V30 4763 C 454.353 -0.793328 -3.02779 0
M  V30 4764 C 454.828 -1.38955 -4.36412 0
M  V30 4765 N 456.319 -1.35227 -4.43021 0
M  V30 4766 C 457.054 -1.78333 -5.44963 0
M  V30 4767 N 456.55 -2.29246 -6.53772 0
M  V30 4768 N 458.343 -1.69467 -5.35945 0
M  V30 4769 H 450.494 -1.5196 -1.48398 0
M  V30 4770 H 452.757 -0.633078 -0.705632 0
M  V30 4771 H 452.463 -1.8749 -2.97558 0
M  V30 4772 H 452.337 -0.309915 -3.75925 0
M  V30 4773 H 454.724 0.249784 -2.94041 0
M  V30 4774 H 454.805 -1.34412 -2.17639 0
M  V30 4775 H 454.449 -2.43168 -4.45906 0
M  V30 4776 H 454.379 -0.814291 -5.20266 0
M  V30 4777 H 456.87 -0.979739 -3.64979 0
M  V30 4778 H 457.183 -2.60089 -7.27718 0
M  V30 4779 H 455.528 -2.3325 -6.5469 0
M  V30 4780 H 458.719 -1.29477 -4.49837 0
M  V30 4781 H 458.892 -2.03381 -6.15256 0
M  V30 4782 N 452.299 1.55045 -0.282633 0
M  V30 4783 C 453.246 2.22822 0.601566 0
M  V30 4784 C 454.216 1.20431 1.14392 0
M  V30 4785 O 455.401 1.48996 1.19184 0
M  V30 4786 C 452.541 2.95873 1.77632 0
M  V30 4787 C 451.654 4.12999 1.26711 0
M  V30 4788 C 450.789 4.73676 2.40426 0
M  V30 4789 C 449.828 5.82981 1.86545 0
M  V30 4790 N 448.965 6.3769 2.93762 0
M  V30 4791 H 453.805 2.97995 0.0169528 0
M  V30 4792 H 451.342 1.471 -0.00339964 0
M  V30 4793 H 453.3 3.36447 2.46697 0
M  V30 4794 H 451.93 2.2311 2.33285 0
M  V30 4795 H 450.982 3.77494 0.469314 0
M  V30 4796 H 452.294 4.91803 0.832518 0
M  V30 4797 H 451.448 5.17008 3.17471 0
M  V30 4798 H 450.187 3.94164 2.87203 0
M  V30 4799 H 449.192 5.39092 1.07983 0
M  V30 4800 H 450.417 6.64366 1.40694 0
M  V30 4801 H 448.363 5.61069 3.39908 0
M  V30 4802 H 448.28 7.11788 2.54744 0
M  V30 4803 H 449.548 6.8568 3.7076 0
M  V30 4804 N 453.777 0.010035 1.57597 0
M  V30 4805 C 454.707 -0.976857 2.12084 0
M  V30 4806 C 455.688 -1.35191 1.03235 0
M  V30 4807 O 456.873 -1.43389 1.3097 0
M  V30 4808 C 454.003 -2.26548 2.63236 0
M  V30 4809 C 452.957 -2.03175 3.76701 0
M  V30 4810 C 452.283 -3.38138 4.14206 0
M  V30 4811 C 453.583 -1.38625 5.03568 0
M  V30 4812 H 455.277 -0.523145 2.94794 0
M  V30 4813 H 452.823 -0.250195 1.4181 0
M  V30 4814 H 454.776 -2.95952 2.99984 0
M  V30 4815 H 453.5 -2.74051 1.77661 0
M  V30 4816 H 452.159 -1.36195 3.40362 0
M  V30 4817 H 451.807 -3.83363 3.25641 0
M  V30 4818 H 451.507 -3.23312 4.90656 0
M  V30 4819 H 453.031 -4.08841 4.53521 0
M  V30 4820 H 454.445 -1.98 5.38023 0
M  V30 4821 H 452.842 -1.34256 5.84889 0
M  V30 4822 H 453.912 -0.356722 4.83586 0
M  V30 4823 N 455.255 -1.55392 -0.262866 0
M  V30 4824 C 456.503 -1.76127 -0.991147 0
M  V30 4825 C 456.824 -0.571083 -1.8645 0
M  V30 4826 O 456.094 0.413698 -1.91482 0
M  V30 4827 H 454.674 -0.649528 -0.368948 0
M  V30 4828 H 457.336 -1.9281 -0.284655 0
M  V30 4829 H 456.432 -2.6663 -1.62219 0
M  V30 4830 N 456.733 0.527833 -1.48498 0
M  V30 4831 C 457.663 1.64136 -1.66077 0
M  V30 4832 C 458.644 1.62286 -0.509625 0
M  V30 4833 O 459.829 1.79449 -0.742413 0
M  V30 4834 C 456.959 3.02717 -1.70234 0
M  V30 4835 C 455.913 3.19426 -2.8487 0
M  V30 4836 C 455.239 4.5909 -2.74118 0
M  V30 4837 C 456.539 3.01993 -4.26142 0
M  V30 4838 H 458.233 1.4968 -2.593 0
M  V30 4839 H 455.779 0.718654 -1.24785 0
M  V30 4840 H 457.732 3.80491 -1.8112 0
M  V30 4841 H 456.456 3.18201 -0.735911 0
M  V30 4842 H 455.115 2.4407 -2.73542 0
M  V30 4843 H 454.763 4.71413 -1.7544 0
M  V30 4844 H 454.463 4.71214 -3.51042 0
M  V30 4845 H 455.987 5.3896 -2.86974 0
M  V30 4846 H 457.401 3.69558 -4.38292 0
M  V30 4847 H 455.798 3.2561 -5.04082 0
M  V30 4848 H 456.868 1.98396 -4.42456 0
M  V30 4849 N 458.211 1.37122 0.776871 0
M  V30 4850 C 459.159 1.32549 1.91138 0
M  V30 4851 C 460.153 0.215119 1.68029 0
M  V30 4852 O 461.359 0.382852 1.75881 0
M  V30 4853 H 457.734 0.412952 0.62847 0
M  V30 4854 H 459.705 2.28332 1.92112 0
M  V30 4855 C 458.454 1.14422 3.28333 0
M  V30 4856 H 457.777 1.99115 3.46689 0
M  V30 4857 H 459.217 1.15272 4.0803 0
M  V30 4858 C 457.676 -0.150434 3.36564 0
M  V30 4859 O 458.206 -1.13584 3.85307 0
M  V30 4860 N 456.412 -0.19939 2.89915 0
M  V30 4861 H 455.959 0.603142 2.5044 0
M  V30 4862 H 455.917 -1.06526 2.95803 0
M  V30 4863 N 459.689 -1.00246 1.21608 0
M  V30 4864 C 461.1 -1.55511 1.03312 0
M  V30 4865 C 461.451 -1.91946 -0.406332 0
M  V30 4866 O 460.576 -1.73753 -1.28992 0
M  V30 4867 C 461.171 -2.82576 1.86913 0
M  V30 4868 C 459.73 -3.34318 1.72941 0
M  V30 4869 C 458.877 -2.07487 1.83968 0
M  V30 4870 H 461.828 -0.824638 1.35593 0
M  V30 4871 H 461.849 -3.54559 1.38087 0
M  V30 4872 H 461.361 -2.56026 2.91672 0
M  V30 4873 H 459.462 -3.65797 0.70877 0
M  V30 4874 H 459.575 -4.05566 2.55055 0
M  V30 4875 H 457.939 -2.20603 1.27304 0
M  V30 4876 H 458.722 -1.83346 2.9024 0
M  V30 4877 N 461.167 -1.02423 -1.1978 0
M  V30 4878 C 462.099 -0.559152 -2.22275 0
M  V30 4879 C 463.112 0.36251 -1.58713 0
M  V30 4880 O 464.301 0.159641 -1.77785 0
M  V30 4881 C 461.401 0.205094 -3.38279 0
M  V30 4882 C 460.574 -0.720361 -4.31427 0
M  V30 4883 C 459.633 -0.00234368 -5.262 0
M  V30 4884 O 458.659 -0.627378 -5.65732 0
M  V30 4885 N 459.861 1.26996 -5.66438 0
M  V30 4886 H 462.626 -1.44064 -2.62804 0
M  V30 4887 H 460.187 -0.902692 -1.34399 0
M  V30 4888 H 462.179 0.694868 -3.9869 0
M  V30 4889 H 460.749 0.987947 -2.96578 0
M  V30 4890 H 459.969 -1.39031 -3.68869 0
M  V30 4891 H 461.257 -1.3495 -4.90577 0
M  V30 4892 H 460.655 1.79858 -5.36347 0
M  V30 4893 H 459.212 1.70432 -6.29123 0
M  V30 4894 N 462.645 1.35699 -0.801477 0
M  V30 4895 C 463.577 2.28598 -0.166028 0
M  V30 4896 C 464.59 1.50044 0.631721 0
M  V30 4897 O 465.779 1.72339 0.464921 0
M  V30 4898 C 462.879 3.29625 0.787451 0
M  V30 4899 C 462.052 4.37384 0.037171 0
M  V30 4900 C 461.111 5.183 0.908375 0
M  V30 4901 O 460.137 5.68053 0.361189 0
M  V30 4902 N 461.339 5.35912 2.23112 0
M  V30 4903 H 464.104 2.83771 -0.964071 0
M  V30 4904 H 461.665 1.47994 -0.656469 0
M  V30 4905 H 463.657 3.80648 1.37439 0
M  V30 4906 H 462.227 2.75004 1.48632 0
M  V30 4907 H 461.447 3.87364 -0.730935 0
M  V30 4908 H 462.735 5.0653 -0.480109 0
M  V30 4909 H 462.133 4.97125 2.69968 0
M  V30 4910 H 460.69 5.90133 2.76741 0
M  V30 4911 N 464.123 0.554532 1.47522 0
M  V30 4912 C 465.351 0.034257 2.06872 0
M  V30 4913 C 465.766 -1.25826 1.40759 0
M  V30 4914 O 465.123 -1.75425 0.503217 0
M  V30 4915 C 465.174 -0.167827 3.6111 0
M  V30 4916 O 464.895 1.07351 4.24744 0
M  V30 4917 C 466.396 -0.72569 4.3732 0
M  V30 4918 H 463.616 0.0446275 0.669514 0
M  V30 4919 H 466.16 0.767181 1.89564 0
M  V30 4920 H 464.315 -0.850872 3.7794 0
M  V30 4921 H 464.729 0.869563 5.17242 0
M  V30 4922 H 466.203 -0.816394 5.45929 0
M  V30 4923 H 466.68 -1.73635 4.0342 0
M  V30 4924 H 467.286 -0.0784292 4.25228 0
M  V30 4925 N 465.601 -1.54893 0.290851 0
M  V30 4926 C 466.564 -2.21824 -0.576784 0
M  V30 4927 C 467.564 -1.20104 -1.06919 0
M  V30 4928 O 468.754 -1.44906 -0.966843 0
M  V30 4929 C 465.886 -2.89662 -1.79747 0
M  V30 4930 H 467.079 -2.99899 0.00784051 0
M  V30 4931 H 464.632 -1.56245 0.0415934 0
M  V30 4932 H 465.367 -2.15639 -2.42219 0
M  V30 4933 H 465.152 -3.64219 -1.45214 0
M  V30 4934 H 466.642 -3.4075 -2.4141 0
M  V30 4935 N 467.08 -0.0183926 -1.57589 0
M  V30 4936 C 468.326 0.663543 -1.91638 0
M  V30 4937 C 468.659 1.72392 -0.894134 0
M  V30 4938 O 467.934 1.94316 0.0846449 0
M  V30 4939 C 468.217 1.28984 -3.36207 0
M  V30 4940 C 468.07 0.239761 -4.49161 0
M  V30 4941 C 469.389 2.2109 -3.80536 0
M  V30 4942 H 466.508 0.239746 -0.696915 0
M  V30 4943 H 469.15 -0.073456 -1.89858 0
M  V30 4944 H 467.3 1.91799 -3.37854 0
M  V30 4945 H 468.972 -0.390119 -4.59647 0
M  V30 4946 H 467.215 -0.435972 -4.31604 0
M  V30 4947 H 467.886 0.717383 -5.47319 0
M  V30 4948 H 470.362 1.68273 -3.80557 0
M  V30 4949 H 469.238 2.61869 -4.82406 0
M  V30 4950 H 469.499 3.09764 -3.15434 0
M  V30 4951 N 468.558 1.5553 0.254621 0
M  V30 4952 C 469.488 1.9268 1.31897 0
M  V30 4953 C 470.469 0.790797 1.506 0
M  V30 4954 O 471.654 1.05045 1.63337 0
M  V30 4955 C 468.784 2.21477 2.67517 0
M  V30 4956 C 467.738 3.37256 2.63519 0
M  V30 4957 C 467.064 3.51576 4.02862 0
M  V30 4958 C 468.364 4.73157 2.21179 0
M  V30 4959 H 470.058 2.81832 1.01051 0
M  V30 4960 H 467.604 1.35599 0.484662 0
M  V30 4961 H 469.557 2.46055 3.42104 0
M  V30 4962 H 468.281 1.29144 2.99982 0
M  V30 4963 H 466.94 3.12675 1.9139 0
M  V30 4964 H 466.588 2.56676 4.32581 0
M  V30 4965 H 466.288 4.2943 4.01078 0
M  V30 4966 H 467.812 3.78467 4.79161 0
M  V30 4967 H 469.226 4.97158 2.85494 0
M  V30 4968 H 467.623 5.54058 2.30521 0
M  V30 4969 H 468.693 4.70739 1.16332 0
M  V30 4970 N 470.036 -0.519951 1.48776 0
M  V30 4971 C 470.999 -1.60574 1.6355 0
M  V30 4972 C 471.999 -1.52557 0.508234 0
M  V30 4973 O 473.189 -1.56047 0.774262 0
M  V30 4974 C 470.321 -3.00211 1.61512 0
M  V30 4975 H 471.514 -1.4881 2.60376 0
M  V30 4976 H 469.067 -0.742772 1.37523 0
M  V30 4977 H 469.802 -3.17471 0.662009 0
M  V30 4978 H 469.587 -3.07439 2.43359 0
M  V30 4979 H 471.077 -3.79134 1.75064 0
M  V30 4980 N 471.514 -1.37532 -0.769588 0
M  V30 4981 C 472.762 -1.32597 -1.5252 0
M  V30 4982 C 473.083 0.0884294 -1.94799 0
M  V30 4983 O 472.353 1.03289 -1.66458 0
M  V30 4984 H 470.933 -0.487846 -0.565699 0
M  V30 4985 H 473.595 -1.72044 -0.915806 0
M  V30 4986 H 472.691 -1.96643 -2.42359 0
M  V30 4987 N 472.992 0.995999 -1.22138 0
M  V30 4988 C 474.269 1.70834 -0.952642 0
M  V30 4989 C 474.649 2.04257 0.533119 0
M  V30 4990 O 473.997 1.72343 1.50034 0
M  V30 4991 C 474.207 2.96119 -1.84701 0
M  V30 4992 C 475.555 3.68962 -2.10124 0
M  V30 4993 O 476.579 3.0612 -1.82124 0
M  V30 4994 O 475.438 4.82017 -2.57531 0
M  V30 4995 H 472.532 0.745498 -0.357997 0
M  V30 4996 H 475.078 1.05262 -1.33109 0
M  V30 4997 H 473.85 2.67898 -2.85213 0
M  V30 4998 H 473.473 3.6943 -1.46995 0
M  V30 4999 N 474.47 1.03057 1.19235 0
M  V30 5000 C 475.418 0.606391 2.24557 0
M  V30 5001 C 476.412 -0.361826 1.65491 0
M  V30 5002 O 477.618 -0.23022 1.78522 0
M  V30 5003 H 473.993 0.177838 0.730669 0
M  V30 5004 H 475.964 1.50529 2.5765 0
M  V30 5005 C 474.713 -0.0252127 3.47691 0
M  V30 5006 H 474.036 0.710838 3.9343 0
M  V30 5007 H 475.476 -0.284931 4.23042 0
M  V30 5008 C 473.935 -1.27229 3.11953 0
M  V30 5009 O 474.465 -2.36416 3.24762 0
M  V30 5010 N 472.671 -1.16169 2.6637 0
M  V30 5011 H 472.218 -0.273189 2.56147 0
M  V30 5012 H 472.176 -1.99703 2.42829 0
M  V30 5013 N 475.948 -1.35272 0.808662 0
M  V30 5014 C 476.858 -2.33546 0.222079 0
M  V30 5015 C 477.874 -1.6196 -0.636011 0
M  V30 5016 O 479.05 -1.93822 -0.547274 0
M  V30 5017 C 476.115 -3.41148 -0.61795 0
M  V30 5018 C 475.176 -4.28507 0.260875 0
M  V30 5019 C 474.409 -5.3097 -0.539156 0
M  V30 5020 O 474.632 -5.42123 -1.77367 0
M  V30 5021 O 473.566 -6.01858 0.0710526 0
M  V30 5022 H 477.392 -2.85515 1.03512 0
M  V30 5023 H 474.977 -1.38079 0.570495 0
M  V30 5024 H 476.859 -4.06889 -1.09634 0
M  V30 5025 H 475.534 -2.91447 -1.40855 0
M  V30 5026 H 474.441 -3.6574 0.786451 0
M  V30 5027 H 475.774 -4.81611 1.01547 0
M  V30 5028 N 477.426 -0.562348 -1.47226 0
M  V30 5029 C 478.358 0.220011 -2.28142 0
M  V30 5030 C 479.371 0.874596 -1.37312 0
M  V30 5031 O 480.56 0.747583 -1.62091 0
M  V30 5032 C 477.66 1.32953 -3.11732 0
M  V30 5033 C 476.833 0.770759 -4.30556 0
M  V30 5034 C 475.892 1.76541 -4.95701 0
M  V30 5035 O 474.918 1.3095 -5.53932 0
M  V30 5036 N 476.12 3.09896 -4.90861 0
M  V30 5037 H 478.885 -0.474107 -2.95926 0
M  V30 5038 H 476.446 -0.398761 -1.56912 0
M  V30 5039 H 478.438 1.99378 -3.5218 0
M  V30 5040 H 477.008 1.92681 -2.46156 0
M  V30 5041 H 476.228 -0.0704056 -3.94137 0
M  V30 5042 H 477.516 0.376872 -5.07402 0
M  V30 5043 H 476.914 3.49577 -4.44761 0
M  V30 5044 H 475.471 3.71865 -5.35313 0
M  V30 5045 N 478.904 1.54736 -0.299062 0
M  V30 5046 C 479.836 2.20891 0.61153 0
M  V30 5047 C 480.849 1.20104 1.09904 0
M  V30 5048 O 482.038 1.46707 1.01683 0
M  V30 5049 C 479.138 2.84018 1.84897 0
M  V30 5050 C 478.311 4.10719 1.50428 0
M  V30 5051 C 477.37 4.57667 2.59667 0
M  V30 5052 O 476.396 5.2291 2.24842 0
M  V30 5053 N 477.598 4.29821 3.90172 0
M  V30 5054 H 480.363 2.99666 0.0452001 0
M  V30 5055 H 477.924 1.61446 -0.121178 0
M  V30 5056 H 479.916 3.1236 2.5732 0
M  V30 5057 H 478.486 2.09095 2.32375 0
M  V30 5058 H 477.706 3.89408 0.612781 0
M  V30 5059 H 478.994 4.93223 1.24934 0
M  V30 5060 H 478.392 3.77549 4.21276 0
M  V30 5061 H 476.949 4.62877 4.58899 0
M  V30 5062 N 480.382 0.0267497 1.57577 0
M  V30 5063 C 481.314 -0.984594 2.06974 0
M  V30 5064 C 482.327 -1.29032 0.992705 0
M  V30 5065 O 483.516 -1.25539 1.26895 0
M  V30 5066 C 480.616 -2.31262 2.47732 0
M  V30 5067 C 479.789 -2.1924 3.78487 0
M  V30 5068 C 478.848 -3.34956 4.05821 0
M  V30 5069 O 477.874 -3.11948 4.76106 0
M  V30 5070 N 479.076 -4.58672 3.55809 0
M  V30 5071 H 481.841 -0.563143 2.94362 0
M  V30 5072 H 479.402 -0.160061 1.61107 0
M  V30 5073 H 481.394 -3.07496 2.63112 0
M  V30 5074 H 479.964 -2.65056 1.65723 0
M  V30 5075 H 479.184 -1.27747 3.72927 0
M  V30 5076 H 480.472 -2.08409 4.64158 0
M  V30 5077 H 479.87 -4.8026 2.98942 0
M  V30 5078 H 478.427 -5.32083 3.76472 0
M  V30 5079 N 481.861 -1.55662 -0.24637 0
M  V30 5080 C 483.277 -1.48098 -0.594907 0
M  V30 5081 C 483.477 -0.717044 -1.8831 0
M  V30 5082 O 482.533 -0.246618 -2.51293 0
M  V30 5083 C 483.846 -2.92507 -0.697146 0
M  V30 5084 C 485.394 -3.02881 -0.789436 0
M  V30 5085 C 485.869 -4.48598 -0.923232 0
M  V30 5086 N 487.36 -4.52538 -0.988088 0
M  V30 5087 C 488.095 -5.62536 -1.11089 0
M  V30 5088 N 487.591 -6.82342 -1.19919 0
M  V30 5089 N 489.384 -5.50334 -1.14408 0
M  V30 5090 H 481.535 -2.0377 0.599278 0
M  V30 5091 H 483.798 -0.925145 0.20691 0
M  V30 5092 H 483.504 -3.51242 0.179396 0
M  V30 5093 H 483.378 -3.43024 -1.5689 0
M  V30 5094 H 485.765 -2.44226 -1.65643 0
M  V30 5095 H 485.846 -2.55574 0.107482 0
M  V30 5096 H 485.49 -5.07864 -0.0607927 0
M  V30 5097 H 485.42 -4.93587 -1.8352 0
M  V30 5098 H 487.911 -3.66248 -0.931167 0
M  V30 5099 H 488.224 -7.61924 -1.29197 0
M  V30 5100 H 486.569 -6.85102 -1.16876 0
M  V30 5101 H 489.76 -4.5567 -1.07158 0
M  V30 5102 H 489.933 -6.36096 -1.23634 0
M  V30 5103 N 483.339 0.512053 -1.4905 0
M  V30 5104 C 484.269 1.62365 -1.67809 0
M  V30 5105 C 485.25 1.61737 -0.526809 0
M  V30 5106 O 486.435 1.78651 -0.761404 0
M  V30 5107 C 483.565 3.00895 -1.73435 0
M  V30 5108 C 482.519 3.16387 -2.88242 0
M  V30 5109 C 481.845 4.56157 -2.78971 0
M  V30 5110 C 483.145 2.97457 -4.29321 0
M  V30 5111 H 484.839 1.46921 -2.60873 0
M  V30 5112 H 482.385 0.705379 -1.2554 0
M  V30 5113 H 484.338 3.78549 -1.85145 0
M  V30 5114 H 483.062 3.17403 -0.769619 0
M  V30 5115 H 481.721 2.41155 -2.76116 0
M  V30 5116 H 481.369 4.69525 -1.8043 0
M  V30 5117 H 481.069 4.67465 -3.5602 0
M  V30 5118 H 482.593 5.35886 -2.92675 0
M  V30 5119 H 484.007 3.64888 -4.42187 0
M  V30 5120 H 482.404 3.20245 -5.07507 0
M  V30 5121 H 483.474 1.93692 -4.44535 0
M  V30 5122 N 484.817 1.37938 0.762283 0
M  V30 5123 C 485.727 1.36681 1.90671 0
M  V30 5124 C 486.743 0.265078 1.71969 0
M  V30 5125 O 487.919 0.502055 1.95042 0
M  V30 5126 C 484.984 1.18211 3.25925 0
M  V30 5127 C 484.045 2.3811 3.57214 0
M  V30 5128 C 483.278 2.20512 4.86014 0
M  V30 5129 O 483.501 1.19429 5.57757 0
M  V30 5130 O 482.435 3.08911 5.16583 0
M  V30 5131 H 486.261 2.33091 1.94685 0
M  V30 5132 H 483.846 1.18767 0.906356 0
M  V30 5133 H 485.728 1.09937 4.06807 0
M  V30 5134 H 484.403 0.248807 3.22742 0
M  V30 5135 H 483.31 2.51958 2.76529 0
M  V30 5136 H 484.643 3.30041 3.65149 0
M  V30 5137 N 486.295 -0.989507 1.22664 0
M  V30 5138 C 487.227 -2.0824 0.957542 0
M  V30 5139 C 488.24 -1.6267 -0.0651098 0
M  V30 5140 O 489.429 -1.77695 0.169312 0
M  V30 5141 C 486.529 -3.36298 0.419145 0
M  V30 5142 C 485.702 -4.10882 1.49982 0
M  V30 5143 C 484.761 -5.17221 0.967904 0
M  V30 5144 O 483.787 -5.44613 1.65487 0
M  V30 5145 N 484.989 -5.80124 -0.20896 0
M  V30 5146 H 487.754 -2.31904 1.89843 0
M  V30 5147 H 485.315 -1.15552 1.13399 0
M  V30 5148 H 487.307 -4.04671 0.0485451 0
M  V30 5149 H 485.877 -3.09671 -0.426937 0
M  V30 5150 H 485.097 -3.37092 2.04359 0
M  V30 5151 H 486.385 -4.57482 2.22682 0
M  V30 5152 H 485.783 -5.60244 -0.783818 0
M  V30 5153 H 484.34 -6.49715 -0.520913 0
M  V30 5154 N 487.773 -1.03688 -1.18687 0
M  V30 5155 C 488.736 -0.629115 -2.20397 0
M  V30 5156 C 489.736 0.311495 -1.57754 0
M  V30 5157 O 490.926 0.0974107 -1.73927 0
M  V30 5158 C 488.058 0.0782231 -3.4081 0
M  V30 5159 H 489.251 -1.52915 -2.57987 0
M  V30 5160 H 486.804 -0.828988 -1.32505 0
M  V30 5161 H 487.539 0.992233 -3.08748 0
M  V30 5162 H 487.324 -0.597776 -3.87517 0
M  V30 5163 H 488.814 0.350156 -4.16129 0
M  V30 5164 N 489.251 1.34841 -0.815825 0
M  V30 5165 C 490.181 2.32187 -0.247298 0
M  V30 5166 C 491.162 1.5791 0.632344 0
M  V30 5167 O 492.347 1.8593 0.560698 0
M  V30 5168 C 489.477 3.42122 0.597466 0
M  V30 5169 C 488.431 4.27602 -0.184446 0
M  V30 5170 C 487.757 5.28942 0.782609 0
M  V30 5171 C 489.057 5.03502 -1.38865 0
M  V30 5172 H 490.751 2.79985 -1.06061 0
M  V30 5173 H 488.297 1.34611 -0.511461 0
M  V30 5174 H 490.25 4.09232 1.00533 0
M  V30 5175 H 488.974 2.92956 1.44376 0
M  V30 5176 H 487.633 3.62085 -0.573592 0
M  V30 5177 H 487.281 4.7604 1.62466 0
M  V30 5178 H 486.981 5.87008 0.263695 0
M  V30 5179 H 488.505 5.98922 1.18848 0
M  V30 5180 H 489.919 5.63506 -1.05518 0
M  V30 5181 H 488.316 5.71108 -1.8427 0
M  V30 5182 H 489.386 4.33608 -2.17054 0
M  V30 5183 N 490.729 0.570148 1.46925 0
M  V30 5184 C 491.662 -0.218362 2.27153 0
M  V30 5185 C 492.64 -0.90847 1.34854 0
M  V30 5186 O 493.824 -0.924875 1.64251 0
M  V30 5187 C 490.951 -1.3122 3.12248 0
M  V30 5188 C 489.997 -0.729277 4.20219 0
M  V30 5189 S 490.83 0.434159 5.33737 0
M  V30 5190 C 491.986 -0.661188 6.22398 0
M  V30 5191 H 492.219 0.462393 2.93682 0
M  V30 5192 H 489.752 0.356753 1.50222 0
M  V30 5193 H 491.71 -1.93856 3.61842 0
M  V30 5194 H 490.371 -1.96485 2.45056 0
M  V30 5195 H 489.564 -1.5511 4.79538 0
M  V30 5196 H 489.166 -0.178836 3.73572 0
M  V30 5197 H 491.458 -1.55006 6.5953 0
M  V30 5198 H 492.401 -0.105046 7.08022 0
M  V30 5199 H 492.809 -0.959682 5.56283 0
M  V30 5200 N 492.207 -1.54576 0.307264 0
M  V30 5201 C 493.435 -2.04675 -0.302597 0
M  V30 5202 C 493.85 -1.18425 -1.47041 0
M  V30 5203 O 493.207 -0.211257 -1.81273 0
M  V30 5204 C 493.258 -3.53575 -0.752801 0
M  V30 5205 O 492.979 -4.36547 0.368536 0
M  V30 5206 C 494.48 -4.19699 -1.42717 0
M  V30 5207 H 491.7 -0.66786 -0.0648374 0
M  V30 5208 H 494.244 -1.99516 0.448716 0
M  V30 5209 H 492.399 -3.59074 -1.45412 0
M  V30 5210 H 492.813 -5.24497 0.0168937 0
M  V30 5211 H 494.287 -5.25388 -1.69327 0
M  V30 5212 H 494.764 -3.69815 -2.36925 0
M  V30 5213 H 495.37 -4.18293 -0.768856 0
M  V30 5214 N 493.685 -0.035106 -1.57561 0
M  V30 5215 C 495.096 0.502885 -1.798 0
M  V30 5216 C 495.447 1.71892 -0.945921 0
M  V30 5217 O 494.572 2.15822 -0.157991 0
M  V30 5218 C 495.167 0.919097 -3.26095 0
M  V30 5219 C 493.726 1.40216 -3.49308 0
M  V30 5220 C 492.873 0.369709 -2.74824 0
M  V30 5221 H 495.824 -0.261102 -1.56537 0
M  V30 5222 H 495.845 1.78308 -3.36135 0
M  V30 5223 H 495.357 0.0338526 -3.88085 0
M  V30 5224 H 493.458 2.30714 -2.92578 0
M  V30 5225 H 493.571 1.40541 -4.58023 0
M  V30 5226 H 491.935 0.839113 -2.40481 0
M  V30 5227 H 492.718 -0.507173 -3.39533 0
M  V30 5228 N 495.163 1.55791 0.238111 0
M  V30 5229 C 496.44 1.68798 0.98826 0
M  V30 5230 C 496.82 0.577562 2.03045 0
M  V30 5231 O 496.168 -0.41778 2.24648 0
M  V30 5232 C 496.378 3.09454 1.61367 0
M  V30 5233 C 497.726 3.68335 2.11221 0
M  V30 5234 O 498.75 3.1231 1.71292 0
M  V30 5235 O 497.609 4.6657 2.84561 0
M  V30 5236 H 494.703 0.686881 0.460568 0
M  V30 5237 H 497.249 1.68118 0.231202 0
M  V30 5238 H 496.021 3.81726 0.860295 0
M  V30 5239 H 495.644 3.14182 2.4367 0
M  V30 5240 N 496.642 -0.504142 1.49319 0
M  V30 5241 C 497.87 -1.28256 1.62351 0
M  V30 5242 C 498.285 -1.86502 0.293682 0
M  V30 5243 O 497.642 -1.67678 -0.720449 0
M  V30 5244 C 497.693 -2.41507 2.68992 0
M  V30 5245 O 497.414 -1.85656 3.96817 0
M  V30 5246 C 498.915 -3.32929 2.927 0
M  V30 5247 H 496.135 -0.389115 0.546654 0
M  V30 5248 H 498.679 -0.605531 1.95329 0
M  V30 5249 H 496.834 -3.05046 2.38801 0
M  V30 5250 H 497.248 -2.59981 4.55533 0
M  V30 5251 H 498.722 -4.0868 3.71058 0
M  V30 5252 H 499.199 -3.89733 2.02496 0
M  V30 5253 H 499.805 -2.75158 3.24296 0
M  V30 5254 N 498.12 -1.38341 -0.754957 0
M  V30 5255 C 499.397 -1.24995 -1.50451 0
M  V30 5256 C 499.777 0.149244 -2.10572 0
M  V30 5257 O 499.125 1.15861 -1.96948 0
M  V30 5258 C 499.335 -2.35904 -2.57197 0
M  V30 5259 C 500.683 -2.74262 -3.24138 0
M  V30 5260 O 501.707 -2.35205 -2.67501 0
M  V30 5261 O 500.566 -3.4161 -4.26574 0
M  V30 5262 H 497.66 -0.48872 -0.667144 0
M  V30 5263 H 500.206 -1.50165 -0.790486 0
M  V30 5264 H 498.978 -3.2953 -2.11011 0
M  V30 5265 H 498.601 -2.12291 -3.36182 0
M  V30 5266 N 499.598 0.982988 -1.23187 0
M  V30 5267 C 500.508 2.10907 -1.02739 0
M  V30 5268 C 501.524 1.73979 0.0273188 0
M  V30 5269 O 502.7 2.00702 -0.16757 0
M  V30 5270 C 499.765 3.41142 -0.618304 0
M  V30 5271 C 498.826 3.92112 -1.74777 0
M  V30 5272 C 498.059 5.16131 -1.3581 0
M  V30 5273 O 498.282 5.6989 -0.241201 0
M  V30 5274 O 497.216 5.61103 -2.17824 0
M  V30 5275 H 501.042 2.31046 -1.97108 0
M  V30 5276 H 498.627 1.09284 -1.01869 0
M  V30 5277 H 500.509 4.19488 -0.400982 0
M  V30 5278 H 499.184 3.2234 0.296421 0
M  V30 5279 H 498.091 3.14895 -2.0197 0
M  V30 5280 H 499.424 4.15364 -2.64071 0
M  V30 5281 N 501.076 1.04316 1.18135 0
M  V30 5282 C 502.306 0.767003 1.91835 0
M  V30 5283 C 502.714 -0.68002 1.76557 0
M  V30 5284 O 502.057 -1.47548 1.09432 0
M  V30 5285 C 502.119 1.05674 3.43618 0
M  V30 5286 C 501.783 2.49818 3.82675 0
M  V30 5287 C 502.78 3.48003 3.86251 0
M  V30 5288 C 500.465 2.84596 4.13897 0
M  V30 5289 C 502.459 4.79016 4.20503 0
M  V30 5290 C 500.146 4.15813 4.4782 0
M  V30 5291 C 501.144 5.12834 4.51099 0
M  V30 5292 O 500.832 6.41699 4.84229 0
M  V30 5293 H 500.564 0.278948 0.615763 0
M  V30 5294 H 503.118 1.3946 1.50798 0
M  V30 5295 H 501.348 0.372029 3.84906 0
M  V30 5296 H 503.037 0.767994 3.98568 0
M  V30 5297 H 503.803 3.22475 3.62264 0
M  V30 5298 H 499.682 2.09748 4.1052 0
M  V30 5299 H 503.226 5.54739 4.22978 0
M  V30 5300 H 499.123 4.41109 4.71268 0
M  V30 5301 H 499.891 6.46387 5.02121 0
M  V30 5302 N 502.554 -1.34406 0.822964 0
M  V30 5303 C 503.784 -2.02214 0.423424 0
M  V30 5304 C 504.192 -1.62124 -0.975322 0
M  V30 5305 O 503.535 -0.822452 -1.6426 0
M  V30 5306 C 503.597 -3.56721 0.446107 0
M  V30 5307 C 503.261 -4.20136 1.79819 0
M  V30 5308 C 504.258 -4.4065 2.75904 0
M  V30 5309 C 501.943 -4.56906 2.08669 0
M  V30 5310 C 503.937 -4.9706 3.99012 0
M  V30 5311 C 501.624 -5.13026 3.32036 0
M  V30 5312 C 502.622 -5.33047 4.27024 0
M  V30 5313 O 502.31 -5.87979 5.48211 0
M  V30 5314 H 502.042 -0.654748 0.168169 0
M  V30 5315 H 504.596 -1.72659 1.11257 0
M  V30 5316 H 502.826 -3.85537 -0.299734 0
M  V30 5317 H 504.515 -4.05845 0.0666114 0
M  V30 5318 H 505.281 -4.12607 2.54912 0
M  V30 5319 H 501.16 -4.40626 1.35535 0
M  V30 5320 H 504.704 -5.12603 4.73164 0
M  V30 5321 H 500.601 -5.40498 3.52891 0
M  V30 5322 H 501.369 -6.06413 5.49732 0
M  V30 5323 N 504.032 -0.577932 -1.46621 0
M  V30 5324 C 504.98 0.170882 -2.31971 0
M  V30 5325 C 505.974 0.889086 -1.44193 0
M  V30 5326 O 507.18 0.808017 -1.60845 0
M  V30 5327 H 503.555 0.0739763 -0.748353 0
M  V30 5328 H 505.526 -0.567856 -2.92947 0
M  V30 5329 C 504.275 1.17438 -3.27267 0
M  V30 5330 H 503.598 0.63116 -3.94787 0
M  V30 5331 H 505.038 1.66882 -3.89778 0
M  V30 5332 C 503.497 2.23292 -2.52274 0
M  V30 5333 O 504.027 3.30567 -2.28229 0
M  V30 5334 N 502.233 1.97772 -2.12919 0
M  V30 5335 H 501.78 1.10545 -2.32675 0
M  V30 5336 H 501.738 2.68809 -1.63062 0
M  V30 5337 N 505.51 1.54411 -0.315457 0
M  V30 5338 C 506.473 2.22713 0.54142 0
M  V30 5339 C 507.473 1.2179 1.04995 0
M  V30 5340 O 508.663 1.46426 0.943667 0
M  V30 5341 C 505.795 2.92485 1.75116 0
M  V30 5342 H 506.988 2.99849 -0.0555508 0
M  V30 5343 H 504.541 1.56159 -0.0664453 0
M  V30 5344 H 505.276 2.19466 2.38758 0
M  V30 5345 H 505.061 3.66483 1.39401 0
M  V30 5346 H 506.551 3.44548 2.35959 0
M  V30 5347 N 506.988 0.0434614 1.5754 0
M  V30 5348 C 507.951 -0.918696 2.09982 0
M  V30 5349 C 508.951 -1.24488 1.01781 0
M  V30 5350 O 510.141 -1.18284 1.27885 0
M  V30 5351 C 507.273 -2.23093 2.57764 0
M  V30 5352 H 508.466 -0.464229 2.96285 0
M  V30 5353 H 506.019 -0.204818 1.54952 0
M  V30 5354 H 506.754 -2.73137 1.74832 0
M  V30 5355 H 506.539 -2.00724 3.36827 0
M  V30 5356 H 508.029 -2.92028 2.98512 0
M  V30 5357 N 508.466 -1.55915 -0.229846 0
M  V30 5358 C 509.429 -1.90914 -1.26824 0
M  V30 5359 C 510.429 -0.786999 -1.40225 0
M  V30 5360 O 511.619 -1.05484 -1.38632 0
M  V30 5361 C 508.751 -2.15264 -2.64337 0
M  V30 5362 H 509.944 -2.8378 -0.969998 0
M  V30 5363 H 507.497 -1.49069 -0.4699 0
M  V30 5364 H 508.232 -1.24923 -2.99274 0
M  V30 5365 H 508.017 -2.97005 -2.55989 0
M  V30 5366 H 509.507 -2.43467 -3.39284 0
M  V30 5367 N 509.944 0.496216 -1.49584 0
M  V30 5368 C 510.874 1.60576 -1.69521 0
M  V30 5369 C 511.855 1.61169 -0.543933 0
M  V30 5370 O 513.04 1.77834 -0.78031 0
M  V30 5371 C 510.17 2.99038 -1.76616 0
M  V30 5372 C 509.124 3.13312 -2.91581 0
M  V30 5373 C 508.45 4.53172 -2.83794 0
M  V30 5374 C 509.75 2.92886 -4.32452 0
M  V30 5375 H 511.444 1.44146 -2.62416 0
M  V30 5376 H 508.99 0.692024 -1.26282 0
M  V30 5377 H 510.943 3.76564 -1.8915 0
M  V30 5378 H 509.667 3.16568 -0.80324 0
M  V30 5379 H 508.326 2.38213 -2.78658 0
M  V30 5380 H 507.974 4.67585 -1.854 0
M  V30 5381 H 507.674 4.63662 -3.60958 0
M  V30 5382 H 509.198 5.32752 -2.98342 0
M  V30 5383 H 510.612 3.60178 -4.46032 0
M  V30 5384 H 509.009 3.14844 -5.10875 0
M  V30 5385 H 510.079 1.88966 -4.46565 0
M  V30 5386 O 511.461 1.48211 0.641547 0
M  V30 5387 H 512.152 1.44016 1.29535 0
M  V30 END ATOM
M  V30 BEGIN BOND
M  V30 END BOND
M  V30 END CTAB
M  END
$$$$
